drugbank_target|P80192 Mitogen-activated protein kinase kinase kinase 9 (DB08703; DB12010)
 OpenBabel12092120523D

  0  0  0     0  0            999 V3000
M  V30 BEGIN CTAB
M  V30 COUNTS 17031 17242 0 0 0
M  V30 BEGIN ATOM
M  V30 1 H -0.908 1.98254 -0.117106 0
M  V30 2 N 0 1.576 0 0
M  V30 3 C 0.933 2.03868 1.02534 0
M  V30 4 C 1.911 0.928543 1.3348 0
M  V30 5 O 3.095 1.19667 1.45644 0
M  V30 6 C 0.222 2.43627 2.35294 0
M  V30 7 C -0.732 3.65373 2.2001 0
M  V30 8 S 0.101 5.13292 1.52614 0
M  V30 9 C 1.257 5.56322 2.86805 0
M  V30 10 H 1.49 2.90518 0.631377 0
M  V30 11 H -0.977 1.52953 0.210867 0
M  V30 12 H 0.981 2.67203 3.11629 0
M  V30 13 H -0.358 1.57376 2.7183 0
M  V30 14 H -1.165 3.90944 3.18086 0
M  V30 15 H -1.563 3.418 1.51819 0
M  V30 16 H 0.729 5.58782 3.83104 0
M  V30 17 H 1.672 6.56266 2.65933 0
M  V30 18 H 2.08 4.83886 2.90714 0
M  V30 19 N 1.4781 -0.272755 1.55222 0
M  V30 20 C 2.3881 -1.35918 1.91216 0
M  V30 21 C 3.4041 -1.54026 0.809436 0
M  V30 22 O 4.5801 -1.68148 1.10852 0
M  V30 23 C 1.6451 -2.69834 2.17693 0
M  V30 24 C 0.7061 -2.6047 3.41253 0
M  V30 25 C -0.0609 -3.88 3.66458 0
M  V30 26 O 0.1621 -4.88693 2.94169 0
M  V30 27 O -0.9039 -3.88189 4.59992 0
M  V30 28 H 2.9221 -1.0839 2.83699 0
M  V30 29 H 0.5071 -0.471301 1.41771 0
M  V30 30 H 2.3891 -3.49017 2.36147 0
M  V30 31 H 1.0641 -2.97148 1.28392 0
M  V30 32 H -0.0289 -1.79663 3.28134 0
M  V30 33 H 1.3041 -2.38106 4.30774 0
M  V30 34 N 2.9562 -1.48159 -0.537278 0
M  V30 35 C 4.3672 -1.49429 -1.11928 0
M  V30 36 C 4.7182 -0.26 -1.9447 0
M  V30 37 O 3.8432 0.633489 -2.0692 0
M  V30 38 C 4.4382 -2.70758 -2.03656 0
M  V30 39 C 2.9972 -2.74923 -2.57088 0
M  V30 40 C 2.1442 -2.42835 -1.3389 0
M  V30 41 H 5.0952 -1.55381 -0.322886 0
M  V30 42 H 5.1162 -2.48861 -2.87834 0
M  V30 43 H 4.6282 -3.60575 -1.43553 0
M  V30 44 H 2.7292 -1.89296 -3.20933 0
M  V30 45 H 2.8422 -3.76157 -2.9672 0
M  V30 46 H 1.2062 -1.93836 -1.65226 0
M  V30 47 H 1.9892 -3.34884 -0.755504 0
M  V30 48 N 4.4343 0.785586 -1.36625 0
M  V30 49 C 5.6593 1.57963 -1.34397 0
M  V30 50 C 6.0843 1.87964 0.071526 0
M  V30 51 O 5.4423 1.48182 1.0446 0
M  V30 52 C 5.4903 2.87511 -2.17646 0
M  V30 53 O 4.5943 3.81281 -1.57158 0
M  V30 54 H 3.9353 0.479014 -0.459828 0
M  V30 55 H 6.4653 0.973411 -1.79961 0
M  V30 56 H 6.4753 3.36745 -2.30362 0
M  V30 57 H 5.1503 2.65002 -3.20541 0
M  V30 58 H 3.7273 3.39885 -1.53403 0
M  V30 59 N 5.9124 1.20967 1.01018 0
M  V30 60 C 7.3284 0.965905 1.27053 0
M  V30 61 C 7.5284 -0.350785 1.98423 0
M  V30 62 O 6.5844 -1.07773 2.28344 0
M  V30 63 C 7.8974 2.15294 2.09926 0
M  V30 64 C 9.4454 2.19463 2.23171 0
M  V30 65 C 9.9204 3.3767 3.09424 0
M  V30 66 N 11.4114 3.37724 3.17012 0
M  V30 67 C 12.1464 4.25837 3.83993 0
M  V30 68 N 11.6424 5.24138 4.53047 0
M  V30 69 N 13.4354 4.1366 3.80581 0
M  V30 70 H 5.5864 2.0565 0.531194 0
M  V30 71 H 7.8494 0.90024 0.297106 0
M  V30 72 H 7.5554 3.10684 1.64828 0
M  V30 73 H 7.4294 2.13923 3.10672 0
M  V30 74 H 9.8164 1.24632 2.6749 0
M  V30 75 H 9.8974 2.2488 1.21912 0
M  V30 76 H 9.5414 4.32791 2.65808 0
M  V30 77 H 9.4714 3.29491 4.10784 0
M  V30 78 H 11.9624 2.6658 2.6785 0
M  V30 79 H 12.2754 5.87684 5.01844 0
M  V30 80 H 10.6204 5.28068 4.5185 0
M  V30 81 H 13.8114 3.36127 3.25785 0
M  V30 82 H 13.9844 4.82538 4.32505 0
M  V30 83 N 7.3905 -1.2043 1.01659 0
M  V30 84 C 8.3535 -2.21433 0.591616 0
M  V30 85 C 9.3535 -1.57203 -0.338226 0
M  V30 86 O 10.5435 -1.73737 -0.126918 0
M  V30 87 C 7.6755 -3.40628 -0.136058 0
M  V30 88 H 8.8685 -2.60545 1.48514 0
M  V30 89 H 6.4215 -1.33893 0.806379 0
M  V30 90 H 7.1565 -3.07019 -1.04449 0
M  V30 91 H 6.9415 -3.88475 0.531917 0
M  V30 92 H 8.4315 -4.15475 -0.420735 0
M  V30 93 N 8.8686 -0.792821 -1.36206 0
M  V30 94 C 9.7986 -0.207853 -2.32573 0
M  V30 95 C 10.7796 0.659055 -1.56813 0
M  V30 96 O 11.9646 0.592176 -1.84951 0
M  V30 97 C 9.0946 0.655449 -3.41059 0
M  V30 98 C 8.0486 -0.111842 -4.27854 0
M  V30 99 C 7.3746 0.872274 -5.27537 0
M  V30 100 C 8.6746 -1.30299 -5.05786 0
M  V30 101 H 10.3686 -1.01294 -2.81744 0
M  V30 102 H 7.9146 -0.48854 -1.3546 0
M  V30 103 H 9.8676 1.07464 -4.07467 0
M  V30 104 H 8.5916 1.49328 -2.90463 0
M  V30 105 H 7.2506 -0.512053 -3.63006 0
M  V30 106 H 6.8986 1.70523 -4.73214 0
M  V30 107 H 6.5986 0.363291 -5.86476 0
M  V30 108 H 8.1226 1.28996 -5.96818 0
M  V30 109 H 9.5366 -0.959379 -5.65216 0
M  V30 110 H 7.9336 -1.7455 -5.74154 0
M  V30 111 H 9.0036 -2.09663 -4.37229 0
M  V30 112 N 10.3467 1.47872 -0.545128 0
M  V30 113 C 11.2767 2.32661 0.197793 0
M  V30 114 C 12.2577 1.43041 0.920504 0
M  V30 115 O 13.4427 1.71912 0.90333 0
M  V30 116 C 10.5727 3.24569 1.23582 0
M  V30 117 C 9.5267 4.23333 0.630323 0
M  V30 118 C 8.8527 5.0448 1.77211 0
M  V30 119 C 10.1527 5.20704 -0.407974 0
M  V30 120 H 11.8467 2.95024 -0.510045 0
M  V30 121 H 9.3927 1.4187 -0.246731 0
M  V30 122 H 11.3457 3.8272 1.76362 0
M  V30 123 H 10.0697 2.60236 1.97344 0
M  V30 124 H 8.7287 3.6639 0.123922 0
M  V30 125 H 8.3767 4.36561 2.49847 0
M  V30 126 H 8.0767 5.71339 1.37281 0
M  V30 127 H 9.6007 5.65487 2.3034 0
M  V30 128 H 11.0147 5.7329 0.033305 0
M  V30 129 H 9.4117 5.95699 -0.725486 0
M  V30 130 H 10.4817 4.66917 -1.30828 0
M  V30 131 N 11.8248 0.280983 1.55075 0
M  V30 132 C 13.0728 -0.333455 1.9933 0
M  V30 133 C 13.3938 -1.55937 1.17085 0
M  V30 134 O 12.6638 -1.94143 0.261805 0
M  V30 135 H 11.2438 -0.126197 0.736263 0
M  V30 136 H 13.9058 0.387678 1.91005 0
M  V30 137 H 13.0018 -0.619292 3.05894 0
M  V30 138 N 13.3029 -1.57598 0.00835791 0
M  V30 139 C 14.5429 -1.92788 -0.679136 0
M  V30 140 C 14.9069 -0.883378 -1.70471 0
M  V30 141 O 16.1079 -1.12079 -2.44319 0
M  V30 142 C 14.3789 -3.32994 -1.29807 0
M  V30 143 S 15.9379 -3.90082 -2.00952 0
M  V30 144 H 12.7559 -0.67475 -0.224127 0
M  V30 145 H 15.3579 -1.95385 0.0670497 0
M  V30 146 H 14.0619 -4.06846 -0.538922 0
M  V30 147 H 13.5929 -3.33791 -2.082 0
M  V30 148 H 15.6079 -3.71834 -3.28563 0
M  V30 149 N 14.781 0.264519 -1.55364 0
M  V30 150 C 15.711 1.33121 -1.91836 0
M  V30 151 C 16.692 1.51101 -0.781192 0
M  V30 152 O 17.877 1.64003 -1.04003 0
M  V30 153 C 15.007 2.68921 -2.19769 0
M  V30 154 C 13.961 2.65661 -3.35571 0
M  V30 155 C 13.287 4.05093 -3.49004 0
M  V30 156 C 14.587 2.24187 -4.71739 0
M  V30 157 H 16.281 1.02844 -2.81182 0
M  V30 158 H 13.827 0.493286 -1.35287 0
M  V30 159 H 15.78 3.43663 -2.43872 0
M  V30 160 H 14.504 3.00799 -1.27231 0
M  V30 161 H 13.163 1.93377 -3.1145 0
M  V30 162 H 12.811 4.34206 -2.53917 0
M  V30 163 H 12.511 4.03804 -4.26868 0
M  V30 164 H 14.035 4.81561 -3.75408 0
M  V30 165 H 15.449 2.88654 -4.9533 0
M  V30 166 H 13.846 2.34044 -5.52579 0
M  V30 167 H 14.916 1.19327 -4.69988 0
M  V30 168 N 16.2591 1.48442 0.529413 0
M  V30 169 C 17.2221 1.62524 1.61612 0
M  V30 170 C 18.2221 0.498509 1.52877 0
M  V30 171 O 19.4121 0.76431 1.56537 0
M  V30 172 C 16.5441 1.59597 3.01233 0
M  V30 173 H 17.7371 2.59423 1.50465 0
M  V30 174 H 15.2901 1.37047 0.751514 0
M  V30 175 H 16.0251 0.641781 3.17886 0
M  V30 176 H 15.8101 2.41397 3.08982 0
M  V30 177 H 17.3001 1.72646 3.80241 0
M  V30 178 N 17.7372 -0.778329 1.37039 0
M  V30 179 C 18.9622 -1.57248 1.35233 0
M  V30 180 C 19.3872 -1.87999 -0.0615568 0
M  V30 181 O 18.7452 -1.48734 -1.03672 0
M  V30 182 C 18.7932 -2.86353 2.19167 0
M  V30 183 O 17.8972 -3.80442 1.59178 0
M  V30 184 H 17.2382 -0.476569 0.462362 0
M  V30 185 H 19.7682 -0.963853 1.80474 0
M  V30 186 H 19.7782 -3.35519 2.32145 0
M  V30 187 H 18.4532 -2.63299 3.21942 0
M  V30 188 H 17.0302 -3.39067 1.55203 0
M  V30 189 N 19.2153 -1.21501 -1.00376 0
M  V30 190 C 20.1783 -0.976927 -2.07337 0
M  V30 191 C 21.1783 0.0525322 -1.60714 0
M  V30 192 O 22.3683 -0.184869 -1.73216 0
M  V30 193 C 19.5003 -0.473423 -3.37597 0
M  V30 194 H 20.6933 -1.92587 -2.29892 0
M  V30 195 H 18.2463 -1.03217 -1.17371 0
M  V30 196 H 18.9813 0.480379 -3.20722 0
M  V30 197 H 18.7663 -1.216 -3.72768 0
M  V30 198 H 20.2563 -0.32675 -4.1632 0
M  V30 199 N 20.6934 1.19889 -1.02296 0
M  V30 200 C 21.6564 2.21116 -0.603351 0
M  V30 201 C 22.6564 1.5738 0.329884 0
M  V30 202 O 23.8464 1.73802 0.117702 0
M  V30 203 C 20.9784 3.40696 0.117992 0
M  V30 204 H 22.1714 2.59754 -1.49893 0
M  V30 205 H 19.7244 1.33463 -0.813468 0
M  V30 206 H 20.4594 3.07569 1.0282 0
M  V30 207 H 20.2444 3.88188 -0.552511 0
M  V30 208 H 21.7344 4.15692 0.398696 0
M  V30 209 N 22.1715 0.800033 1.35784 0
M  V30 210 C 23.1345 0.211565 2.28221 0
M  V30 211 C 24.1345 -0.59728 1.49296 0
M  V30 212 O 25.3245 -0.416721 1.69142 0
M  V30 213 C 22.4565 -0.705846 3.33513 0
M  V30 214 H 23.6495 1.02677 2.81776 0
M  V30 215 H 21.2025 0.570211 1.45528 0
M  V30 216 H 21.9375 -1.54498 2.85133 0
M  V30 217 H 21.7225 -0.127655 3.91892 0
M  V30 218 H 23.2125 -1.11211 4.02519 0
M  V30 219 N 23.6496 -1.47581 0.552962 0
M  V30 220 C 24.6126 -2.28439 -0.186605 0
M  V30 221 C 25.6126 -1.36706 -0.84665 0
M  V30 222 O 26.8026 -1.59378 -0.703164 0
M  V30 223 C 23.9346 -3.16264 -1.2724 0
M  V30 224 H 25.1276 -2.95294 0.523609 0
M  V30 225 H 22.6806 -1.532 0.309745 0
M  V30 226 H 23.4156 -2.54091 -2.01514 0
M  V30 227 H 23.2006 -3.83769 -0.803968 0
M  V30 228 H 24.6906 -3.77198 -1.79196 0
M  V30 229 N 25.1277 -0.289203 -1.54924 0
M  V30 230 C 26.0907 0.579144 -2.21762 0
M  V30 231 C 27.0907 1.07047 -1.1999 0
M  V30 232 O 28.2807 0.968384 -1.44803 0
M  V30 233 C 25.4127 1.80055 -2.8947 0
M  V30 234 H 26.6057 -0.00464908 -2.999 0
M  V30 235 H 24.1587 -0.0399306 -1.56249 0
M  V30 236 H 24.8937 2.42449 -2.15381 0
M  V30 237 H 24.6787 1.45602 -3.64064 0
M  V30 238 H 26.1687 2.41773 -3.40493 0
M  V30 239 N 26.6058 1.57591 -0.0167156 0
M  V30 240 C 28.0168 1.79201 0.523834 0
M  V30 241 C 28.3678 0.925796 1.72984 0
M  V30 242 O 27.4928 0.132792 2.15992 0
M  V30 243 C 28.0878 3.25 0.957091 0
M  V30 244 C 26.6468 3.47648 1.44283 0
M  V30 245 C 25.7938 2.74374 0.401757 0
M  V30 246 H 28.7448 1.56831 -0.242816 0
M  V30 247 H 28.7658 3.34031 1.82219 0
M  V30 248 H 28.2778 3.88019 0.0791415 0
M  V30 249 H 26.3788 2.89866 2.34113 0
M  V30 250 H 26.4918 4.56352 1.45877 0
M  V30 251 H 24.8558 2.39485 0.867121 0
M  V30 252 H 25.6388 3.40102 -0.467513 0
M  V30 253 N 28.0839 -0.256276 1.55502 0
M  V30 254 C 29.4949 -0.826068 1.67431 0
M  V30 255 C 29.8459 -1.86396 0.612446 0
M  V30 256 O 28.9709 -2.15031 -0.243025 0
M  V30 257 C 29.5659 -1.50512 3.03532 0
M  V30 258 C 28.1249 -2.02273 3.17431 0
M  V30 259 C 27.2719 -0.870548 2.63281 0
M  V30 260 H 30.2229 -0.0322728 1.58667 0
M  V30 261 H 30.2439 -2.37279 2.97454 0
M  V30 262 H 29.7559 -0.749484 3.80794 0
M  V30 263 H 27.8569 -2.80746 2.44974 0
M  V30 264 H 27.9699 -2.22655 4.24219 0
M  V30 265 H 26.3339 -1.26851 2.20864 0
M  V30 266 H 27.1169 -0.128149 3.43061 0
M  V30 267 N 29.562 -1.4872 -0.521534 0
M  V30 268 C 30.81 -1.56857 -1.27437 0
M  V30 269 C 31.131 -0.247982 -1.93417 0
M  V30 270 O 30.401 0.731151 -1.81744 0
M  V30 271 H 28.981 -0.577885 -0.473347 0
M  V30 272 H 31.643 -1.85233 -0.606205 0
M  V30 273 H 30.739 -2.35402 -2.0492 0
M  V30 274 N 31.0401 0.771051 -1.3745 0
M  V30 275 C 31.9501 1.91538 -1.35464 0
M  V30 276 C 32.9661 1.72134 -0.254123 0
M  V30 277 O 34.1421 1.95358 -0.489626 0
M  V30 278 C 31.2071 3.26671 -1.16134 0
M  V30 279 C 30.2681 3.58723 -2.35831 0
M  V30 280 C 29.5011 4.87409 -2.17413 0
M  V30 281 O 29.7241 5.58506 -1.15876 0
M  V30 282 O 28.6581 5.18539 -3.05615 0
M  V30 283 H 32.4841 1.96165 -2.31847 0
M  V30 284 H 30.0691 0.9139 -1.18187 0
M  V30 285 H 31.9511 4.07499 -1.07345 0
M  V30 286 H 30.6261 3.22894 -0.228251 0
M  V30 287 H 29.5331 2.78127 -2.50192 0
M  V30 288 H 30.8661 3.67243 -3.27709 0
M  V30 289 N 32.5182 1.22032 0.997298 0
M  V30 290 C 33.7952 0.950823 1.70935 0
M  V30 291 C 34.1752 -0.535292 2.042 0
M  V30 292 O 33.5232 -1.50217 1.72183 0
M  V30 293 C 33.7332 1.84386 2.96315 0
M  V30 294 C 35.0812 2.09732 3.69185 0
M  V30 295 O 36.1052 1.81798 3.06314 0
M  V30 296 O 34.9642 2.57018 4.82291 0
M  V30 297 H 32.0582 0.357204 0.745878 0
M  V30 298 H 34.6042 1.32997 1.05404 0
M  V30 299 H 33.3762 2.84928 2.68201 0
M  V30 300 H 32.9992 1.46602 3.69586 0
M  V30 301 N 33.9963 -1.19345 1.0293 0
M  V30 302 C 35.2443 -1.88665 0.724574 0
M  V30 303 C 35.5653 -1.80036 -0.749144 0
M  V30 304 O 34.8353 -1.2111 -1.53978 0
M  V30 305 H 33.4153 -0.698406 0.265025 0
M  V30 306 H 36.0773 -1.44885 1.30362 0
M  V30 307 H 35.1733 -2.94987 1.01926 0
M  V30 308 N 35.4744 -0.807222 -1.35358 0
M  V30 309 C 36.4374 -0.223665 -2.28106 0
M  V30 310 C 37.4374 0.589354 -1.4961 0
M  V30 311 O 38.6274 0.407745 -1.69361 0
M  V30 312 C 35.7594 0.688149 -3.33882 0
M  V30 313 H 36.9524 -1.04169 -2.81227 0
M  V30 314 H 34.5054 -0.577921 -1.45223 0
M  V30 315 H 35.2404 1.52984 -2.85948 0
M  V30 316 H 35.0254 0.10687 -3.91954 0
M  V30 317 H 36.5154 1.09075 -4.03104 0
M  V30 318 N 36.9525 1.47285 -0.560781 0
M  V30 319 C 38.2005 2.02064 -0.0379868 0
M  V30 320 C 38.5215 1.43711 1.31803 0
M  V30 321 O 37.7915 0.61362 1.86042 0
M  V30 322 H 36.3715 0.746918 -0.0110531 0
M  V30 323 H 39.0335 1.80648 -0.731598 0
M  V30 324 H 38.1295 3.12064 0.0474463 0
M  V30 325 N 38.4306 0.297415 1.54768 0
M  V30 326 C 39.3936 -0.567375 2.22066 0
M  V30 327 C 40.3936 -1.06409 1.20556 0
M  V30 328 O 41.5836 -0.960691 1.45315 0
M  V30 329 C 38.7156 -1.78517 2.90421 0
M  V30 330 H 39.9086 0.0205534 2.99893 0
M  V30 331 H 37.4616 0.0482163 1.56226 0
M  V30 332 H 38.1966 -2.41303 2.16664 0
M  V30 333 H 37.9816 -1.43669 3.64831 0
M  V30 334 H 39.4716 -2.39964 3.41771 0
M  V30 335 N 39.9087 -1.5758 0.0250728 0
M  V30 336 C 41.1567 -1.91255 -0.653151 0
M  V30 337 C 41.4777 -0.901691 -1.729 0
M  V30 338 O 40.7477 0.0573785 -1.95816 0
M  V30 339 H 39.3277 -0.705942 -0.244243 0
M  V30 340 H 41.9897 -1.94767 0.0719209 0
M  V30 341 H 41.0857 -2.91752 -1.10847 0
M  V30 342 N 41.3868 0.248026 -1.55636 0
M  V30 343 C 42.3498 1.29044 -1.89421 0
M  V30 344 C 43.3498 1.41134 -0.770581 0
M  V30 345 O 44.5398 1.39854 -1.03858 0
M  V30 346 C 41.6718 2.66831 -2.12165 0
M  V30 347 H 42.8648 1.00305 -2.82629 0
M  V30 348 H 40.4178 0.487265 -1.48511 0
M  V30 349 H 41.1528 3.00711 -1.21422 0
M  V30 350 H 40.9378 2.59438 -2.93997 0
M  V30 351 H 42.4278 3.42103 -2.3949 0
M  V30 352 N 42.8649 1.48995 0.513639 0
M  V30 353 C 43.7749 1.67443 1.64317 0
M  V30 354 C 44.7909 0.556947 1.64846 0
M  V30 355 O 45.9669 0.830082 1.83498 0
M  V30 356 C 43.0319 1.72515 3.00732 0
M  V30 357 C 42.0929 2.96009 3.1093 0
M  V30 358 C 41.3259 3.00829 4.40837 0
M  V30 359 O 41.5489 2.13594 5.28898 0
M  V30 360 O 40.4829 3.93168 4.55744 0
M  V30 361 H 44.3089 2.63106 1.51687 0
M  V30 362 H 41.8939 1.32588 0.688543 0
M  V30 363 H 43.7759 1.78277 3.81831 0
M  V30 364 H 42.4509 0.800278 3.13651 0
M  V30 365 H 41.3579 2.9577 2.29065 0
M  V30 366 H 42.6909 3.87934 3.02933 0
M  V30 367 N 44.343 -0.763751 1.37857 0
M  V30 368 C 45.253 -1.90817 1.36478 0
M  V30 369 C 46.269 -1.71997 0.263248 0
M  V30 370 O 47.445 -1.95095 0.499979 0
M  V30 371 C 44.51 -3.2605 1.17864 0
M  V30 372 C 43.571 -3.57467 2.3773 0
M  V30 373 C 42.804 -4.86249 2.19995 0
M  V30 374 O 43.027 -5.57884 1.18836 0
M  V30 375 O 41.961 -5.16911 3.08361 0
M  V30 376 H 45.787 -1.94933 2.32884 0
M  V30 377 H 43.372 -0.907619 1.1867 0
M  V30 378 H 45.254 -4.06924 1.09504 0
M  V30 379 H 43.929 -3.22769 0.245372 0
M  V30 380 H 42.836 -2.76796 2.51664 0
M  V30 381 H 44.169 -3.655 3.29652 0
M  V30 382 N 45.8211 -1.22559 -0.990812 0
M  V30 383 C 46.7311 -1.01394 -2.11557 0
M  V30 384 C 47.7471 0.0383962 -1.73958 0
M  V30 385 O 48.9231 -0.154787 -2.00804 0
M  V30 386 C 45.9881 -0.596569 -3.41529 0
M  V30 387 C 45.0491 -1.72276 -3.93217 0
M  V30 388 C 44.2821 -1.32521 -5.16985 0
M  V30 389 O 44.5051 -0.204909 -5.70032 0
M  V30 390 O 43.4391 -2.14247 -5.62478 0
M  V30 391 H 47.2651 -1.95633 -2.32296 0
M  V30 392 H 44.8501 -1.01172 -1.0993 0
M  V30 393 H 46.7321 -0.374263 -4.19735 0
M  V30 394 H 45.4071 0.316939 -3.22145 0
M  V30 395 H 44.3141 -1.99961 -3.16174 0
M  V30 396 H 45.6471 -2.61421 -4.17037 0
M  V30 397 N 47.2992 1.18797 -1.03562 0
M  V30 398 C 48.2092 2.25913 -0.632505 0
M  V30 399 C 49.2252 1.70668 0.338882 0
M  V30 400 O 50.4012 2.00453 0.195076 0
M  V30 401 C 47.4662 3.467 0.00350942 0
M  V30 402 C 46.5272 4.17098 -1.01624 0
M  V30 403 C 45.7602 5.32119 -0.410478 0
M  V30 404 O 45.9832 5.64976 0.784725 0
M  V30 405 O 44.9172 5.9107 -1.13667 0
M  V30 406 H 48.7432 2.62648 -1.52478 0
M  V30 407 H 46.3282 1.25781 -0.806195 0
M  V30 408 H 48.2102 4.19878 0.35781 0
M  V30 409 H 46.8852 3.11798 0.869686 0
M  V30 410 H 45.7922 3.4601 -1.42224 0
M  V30 411 H 47.1252 4.55987 -1.85301 0
M  V30 412 N 48.7773 0.814389 1.34928 0
M  V30 413 C 49.6873 0.231978 2.3345 0
M  V30 414 C 50.7033 -0.629139 1.62228 0
M  V30 415 O 51.8793 -0.539052 1.94052 0
M  V30 416 C 48.9443 -0.603482 3.41407 0
M  V30 417 C 48.0053 0.279037 4.28392 0
M  V30 418 C 47.2383 -0.516643 5.31193 0
M  V30 419 O 47.4613 -1.75068 5.4287 0
M  V30 420 O 46.3953 0.0965652 6.01823 0
M  V30 421 H 50.2213 1.04721 2.85074 0
M  V30 422 H 47.8063 0.576343 1.37836 0
M  V30 423 H 49.6883 -1.07908 4.0735 0
M  V30 424 H 48.3633 -1.39618 2.92042 0
M  V30 425 H 47.2703 0.801948 3.65403 0
M  V30 426 H 48.6033 1.03588 4.81176 0
M  V30 427 N 50.2554 -1.46986 0.568584 0
M  V30 428 C 51.1654 -2.33942 -0.17555 0
M  V30 429 C 52.1814 -1.48891 -0.90041 0
M  V30 430 O 53.3574 -1.81794 -0.86676 0
M  V30 431 C 50.4224 -3.25811 -1.18524 0
M  V30 432 C 49.4834 -4.26757 -0.466582 0
M  V30 433 C 48.7164 -5.14236 -1.42817 0
M  V30 434 O 48.9394 -5.04379 -2.66379 0
M  V30 435 O 47.8734 -5.94412 -0.946453 0
M  V30 436 H 51.6994 -2.98896 0.538036 0
M  V30 437 H 49.2844 -1.4573 0.329097 0
M  V30 438 H 51.1664 -3.82527 -1.76779 0
M  V30 439 H 49.8414 -2.63471 -1.88055 0
M  V30 440 H 48.7484 -3.73769 0.157451 0
M  V30 441 H 50.0814 -4.91843 0.187485 0
M  V30 442 N 51.7335 -0.305618 -1.54608 0
M  V30 443 C 52.6435 0.57778 -2.27374 0
M  V30 444 C 53.6595 1.14451 -1.31061 0
M  V30 445 O 54.8355 1.16831 -1.6405 0
M  V30 446 C 51.9005 1.73123 -3.00382 0
M  V30 447 C 50.9615 1.19812 -4.12242 0
M  V30 448 C 50.1945 2.2966 -4.81759 0
M  V30 449 O 50.4175 3.49651 -4.50666 0
M  V30 450 O 49.3515 1.96091 -5.69062 0
M  V30 451 H 53.1775 -0.012624 -3.03697 0
M  V30 452 H 50.7625 -0.0719184 -1.49227 0
M  V30 453 H 52.6445 2.40315 -3.4616 0
M  V30 454 H 51.3195 2.30815 -2.26949 0
M  V30 455 H 50.2265 0.491798 -3.70853 0
M  V30 456 H 51.5595 0.666566 -4.87666 0
M  V30 457 N 53.2116 1.57565 -0.0334293 0
M  V30 458 C 54.1216 2.13943 0.962572 0
M  V30 459 C 55.1376 1.09276 1.35406 0
M  V30 460 O 56.3136 1.41355 1.4346 0
M  V30 461 C 53.3786 2.65887 2.22497 0
M  V30 462 C 52.4396 3.85286 1.8935 0
M  V30 463 C 51.6726 4.34743 3.09571 0
M  V30 464 O 51.8956 3.83352 4.22371 0
M  V30 465 O 50.8296 5.26538 2.91618 0
M  V30 466 H 54.6556 2.99333 0.513169 0
M  V30 467 H 52.2406 1.4822 0.18743 0
M  V30 468 H 54.1226 2.99346 2.96598 0
M  V30 469 H 52.7976 1.83578 2.6661 0
M  V30 470 H 51.7046 3.56746 1.1262 0
M  V30 471 H 53.0376 4.68771 1.5005 0
M  V30 472 N 54.6897 -0.239769 1.55765 0
M  V30 473 C 55.5997 -1.31831 1.94056 0
M  V30 474 C 56.6157 -1.52275 0.841925 0
M  V30 475 O 57.7917 -1.65759 1.14394 0
M  V30 476 C 54.8567 -2.65156 2.23368 0
M  V30 477 C 53.9177 -2.53173 3.46701 0
M  V30 478 C 53.1507 -3.8014 3.74606 0
M  V30 479 O 53.3737 -4.82343 3.04469 0
M  V30 480 O 52.3077 -3.78344 4.68123 0
M  V30 481 H 56.1337 -1.02347 2.85935 0
M  V30 482 H 53.7187 -0.441123 1.42739 0
M  V30 483 H 55.6007 -3.43929 2.43497 0
M  V30 484 H 54.2757 -2.94358 1.34666 0
M  V30 485 H 53.1827 -1.72662 3.31871 0
M  V30 486 H 54.5157 -2.28915 4.35728 0
M  V30 487 N 56.1678 -1.49265 -0.50573 0
M  V30 488 C 57.1308 -1.65075 -1.59006 0
M  V30 489 C 58.1308 -0.522768 -1.52065 0
M  V30 490 O 59.3208 -0.789117 -1.55302 0
M  V30 491 C 56.4528 -1.64369 -2.98656 0
M  V30 492 H 57.6458 -2.61784 -1.46319 0
M  V30 493 H 55.1988 -1.38226 -0.729616 0
M  V30 494 H 55.9338 -0.692272 -3.16825 0
M  V30 495 H 55.7188 -2.46282 -3.05103 0
M  V30 496 H 57.2088 -1.78674 -3.77446 0
M  V30 497 N 57.6459 0.756429 -1.3826 0
M  V30 498 C 58.6089 1.85176 -1.35065 0
M  V30 499 C 59.6089 1.58818 -0.251703 0
M  V30 500 O 60.7989 1.66615 -0.508433 0
M  V30 501 C 57.9309 3.22596 -1.10201 0
M  V30 502 H 59.1239 1.89417 -2.3251 0
M  V30 503 H 56.6769 0.95783 -1.23512 0
M  V30 504 H 57.4119 3.24025 -0.133504 0
M  V30 505 H 57.1969 3.43122 -1.89762 0
M  V30 506 H 58.6869 4.02673 -1.10654 0
M  V30 507 N 59.124 1.23083 0.984299 0
M  V30 508 C 60.087 1.00979 2.05757 0
M  V30 509 C 61.087 -0.0269573 1.60777 0
M  V30 510 O 62.277 0.212403 1.729 0
M  V30 511 C 59.409 0.527072 3.36801 0
M  V30 512 H 60.602 1.9622 2.26799 0
M  V30 513 H 58.155 1.05072 1.15714 0
M  V30 514 H 58.89 -0.429294 3.21446 0
M  V30 515 H 58.675 1.27515 3.70786 0
M  V30 516 H 60.165 0.392942 4.15747 0
M  V30 517 N 60.6021 -1.18246 1.0419 0
M  V30 518 C 61.5651 -2.20128 0.638452 0
M  V30 519 C 62.5651 -1.57885 -0.304805 0
M  V30 520 O 63.7551 -1.73967 -0.0900369 0
M  V30 521 C 60.8871 -3.4084 -0.0637751 0
M  V30 522 H 62.0801 -2.57336 1.54007 0
M  V30 523 H 59.6331 -1.32152 0.834598 0
M  V30 524 H 60.3681 -3.09166 -0.979136 0
M  V30 525 H 60.1531 -3.8726 0.614198 0
M  V30 526 H 61.6431 -4.16274 -0.332512 0
M  V30 527 N 62.0802 -0.821533 -1.34494 0
M  V30 528 C 63.3262 -0.409552 -1.98622 0
M  V30 529 C 63.6592 1.0244 -1.64984 0
M  V30 530 O 62.9342 1.71325 -0.920758 0
M  V30 531 C 63.2172 -0.610458 -3.54888 0
M  V30 532 C 63.0702 -2.09043 -3.98273 0
M  V30 533 C 64.3892 -0.0455379 -4.40076 0
M  V30 534 H 61.5082 -0.15028 -0.721516 0
M  V30 535 H 64.1502 -1.03384 -1.59411 0
M  V30 536 H 62.3002 -0.079044 -3.8842 0
M  V30 537 H 63.9722 -2.68537 -3.75081 0
M  V30 538 H 62.2152 -2.58139 -3.48635 0
M  V30 539 H 62.8862 -2.18182 -5.07051 0
M  V30 540 H 65.3622 -0.499557 -4.1309 0
M  V30 541 H 64.2382 -0.215922 -5.48475 0
M  V30 542 H 64.4992 1.04939 -4.29465 0
M  V30 543 N 63.5583 1.46682 -0.576371 0
M  V30 544 C 64.8063 2.02013 -0.0594163 0
M  V30 545 C 65.1273 1.45101 1.30271 0
M  V30 546 O 64.3973 0.633317 1.8538 0
M  V30 547 H 62.9773 0.746759 -0.0189745 0
M  V30 548 H 65.6393 1.79862 -0.750717 0
M  V30 549 H 64.7353 3.12097 0.014345 0
M  V30 550 N 65.0364 0.313813 1.54444 0
M  V30 551 C 66.4474 -0.176243 1.85866 0
M  V30 552 C 66.7984 -1.52405 1.23561 0
M  V30 553 O 65.9234 -2.09605 0.538016 0
M  V30 554 C 66.5184 -0.32657 3.37222 0
M  V30 555 C 65.0774 -0.760846 3.6863 0
M  V30 556 C 64.2244 0.123247 2.77026 0
M  V30 557 H 67.1754 0.534418 1.49431 0
M  V30 558 H 67.1964 -1.15908 3.62416 0
M  V30 559 H 66.7084 0.654531 3.82541 0
M  V30 560 H 64.8094 -1.75204 3.28838 0
M  V30 561 H 64.9224 -0.571353 4.75681 0
M  V30 562 H 63.2864 -0.399597 2.51546 0
M  V30 563 H 64.0694 1.10094 3.25168 0
M  V30 564 N 66.5145 -1.57545 0.0417849 0
M  V30 565 C 67.7625 -1.91937 -0.632829 0
M  V30 566 C 68.0835 -0.919978 -1.71934 0
M  V30 567 O 67.3535 0.0366064 -1.95866 0
M  V30 568 H 65.9335 -0.708493 -0.236742 0
M  V30 569 H 68.5955 -1.9468 0.0925745 0
M  V30 570 H 67.6915 -2.92912 -1.07746 0
M  V30 571 N 67.9926 0.231505 -1.5589 0
M  V30 572 C 68.9026 1.308 -1.94752 0
M  V30 573 C 69.9186 1.51826 -0.849989 0
M  V30 574 O 71.0946 1.6515 -1.15271 0
M  V30 575 C 68.1596 2.63968 -2.24771 0
M  V30 576 C 67.2206 2.51331 -3.48039 0
M  V30 577 C 66.4536 3.78148 -3.76616 0
M  V30 578 O 66.6766 4.80722 -3.07022 0
M  V30 579 O 65.6106 3.75857 -4.70123 0
M  V30 580 H 69.4366 1.0083 -2.86474 0
M  V30 581 H 67.0216 0.433547 -1.42971 0
M  V30 582 H 68.9036 3.42633 -2.45318 0
M  V30 583 H 67.5786 2.9364 -1.36225 0
M  V30 584 H 66.4856 1.709 -3.32782 0
M  V30 585 H 67.8186 2.26601 -4.36936 0
M  V30 586 N 69.4707 1.49531 0.497807 0
M  V30 587 C 70.4007 1.6935 1.60757 0
M  V30 588 C 71.3817 0.542218 1.61227 0
M  V30 589 O 72.5667 0.778417 1.77917 0
M  V30 590 C 69.6967 1.76298 2.99226 0
M  V30 591 C 68.6507 2.91248 3.13622 0
M  V30 592 C 67.9767 2.83312 4.53474 0
M  V30 593 C 69.2767 4.3214 2.93346 0
M  V30 594 H 70.9707 2.62263 1.44425 0
M  V30 595 H 68.5167 1.26208 0.693367 0
M  V30 596 H 70.4697 1.88749 3.76765 0
M  V30 597 H 69.1937 0.799871 3.16654 0
M  V30 598 H 67.8527 2.78404 2.38509 0
M  V30 599 H 67.5007 1.84902 4.67782 0
M  V30 600 H 67.2007 3.60465 4.64046 0
M  V30 601 H 68.7247 2.97775 5.33069 0
M  V30 602 H 70.1387 4.45649 3.60652 0
M  V30 603 H 68.5357 5.1054 3.15387 0
M  V30 604 H 69.6057 4.46363 1.89441 0
M  V30 605 N 70.9488 -0.749086 1.3866 0
M  V30 606 C 72.1968 -1.50535 1.34847 0
M  V30 607 C 72.5178 -1.94909 -0.0595016 0
M  V30 608 O 71.7878 -1.67973 -1.00806 0
M  V30 609 H 70.3678 -0.558395 0.49619 0
M  V30 610 H 73.0298 -0.890165 1.73384 0
M  V30 611 H 72.1258 -2.39413 2.00219 0
M  V30 612 N 72.4269 -1.23603 -0.977757 0
M  V30 613 C 73.6669 -1.08148 -1.73446 0
M  V30 614 C 74.0309 0.374785 -1.88307 0
M  V30 615 O 75.2319 0.650588 -2.60808 0
M  V30 616 C 73.5029 -1.78991 -3.0935 0
M  V30 617 S 75.0619 -1.79141 -4.00567 0
M  V30 618 H 71.8799 -0.386987 -0.596458 0
M  V30 619 H 74.4819 -1.5678 -1.16792 0
M  V30 620 H 73.1859 -2.8408 -2.96187 0
M  V30 621 H 72.7169 -1.30651 -3.71071 0
M  V30 622 H 74.7319 -0.851892 -4.88833 0
M  V30 623 N 73.905 1.17692 -1.04816 0
M  V30 624 C 75.182 1.83768 -0.669963 0
M  V30 625 C 75.562 1.93232 0.849986 0
M  V30 626 O 74.91 1.46397 1.75443 0
M  V30 627 C 75.12 3.21641 -1.35455 0
M  V30 628 C 76.468 3.97592 -1.49017 0
M  V30 629 O 77.492 3.31107 -1.31326 0
M  V30 630 O 76.351 5.16729 -1.77914 0
M  V30 631 H 73.445 0.792799 -0.235368 0
M  V30 632 H 75.991 1.25021 -1.14751 0
M  V30 633 H 74.763 3.097 -2.39168 0
M  V30 634 H 74.386 3.88052 -0.866107 0
M  V30 635 N 75.3831 0.828654 1.34056 0
M  V30 636 C 76.3461 0.259927 2.27721 0
M  V30 637 C 77.3461 -0.565478 1.50529 0
M  V30 638 O 78.5361 -0.38075 1.69988 0
M  V30 639 C 75.6681 -0.634944 3.34935 0
M  V30 640 H 76.8611 1.0863 2.79534 0
M  V30 641 H 74.4141 0.600951 1.44285 0
M  V30 642 H 75.1491 -1.48416 2.88346 0
M  V30 643 H 74.9341 -0.0444999 3.92075 0
M  V30 644 H 76.4241 -1.02648 4.04788 0
M  V30 645 N 76.8612 -1.46375 0.584142 0
M  V30 646 C 78.2722 -1.86031 0.157959 0
M  V30 647 C 78.6232 -1.48753 -1.27933 0
M  V30 648 O 77.7482 -0.903098 -1.96655 0
M  V30 649 C 78.3432 -3.37642 0.279892 0
M  V30 650 C 76.9022 -3.76289 -0.09143 0
M  V30 651 C 76.0492 -2.7039 0.615178 0
M  V30 652 H 79.0002 -1.37509 0.792274 0
M  V30 653 H 79.0212 -3.77275 -0.494364 0
M  V30 654 H 78.5332 -3.64742 1.32607 0
M  V30 655 H 76.6342 -3.54806 -1.13769 0
M  V30 656 H 76.7472 -4.78246 0.285886 0
M  V30 657 H 75.1112 -2.5464 0.0552833 0
M  V30 658 H 75.8942 -3.0033 1.66303 0
M  V30 659 N 78.3393 -0.321999 -1.54275 0
M  V30 660 C 79.2693 0.537411 -2.27231 0
M  V30 661 C 80.2503 1.12064 -1.27968 0
M  V30 662 O 81.4353 1.14606 -1.56777 0
M  V30 663 C 78.5653 1.69919 -3.02894 0
M  V30 664 C 77.5193 1.24534 -4.09482 0
M  V30 665 C 76.8453 2.49394 -4.72977 0
M  V30 666 C 78.1453 0.361335 -5.21049 0
M  V30 667 H 79.8393 -0.0711406 -2.99315 0
M  V30 668 H 77.3853 -0.0356555 -1.43956 0
M  V30 669 H 79.3383 2.30668 -3.52662 0
M  V30 670 H 78.0623 2.33431 -2.28424 0
M  V30 671 H 76.7213 0.660782 -3.60596 0
M  V30 672 H 76.3693 3.11265 -3.95124 0
M  V30 673 H 76.0693 2.19718 -5.44975 0
M  V30 674 H 77.5933 3.10908 -5.25517 0
M  V30 675 H 79.0073 0.875072 -5.66582 0
M  V30 676 H 77.4043 0.157428 -5.99893 0
M  V30 677 H 78.4743 -0.60822 -4.8107 0
M  V30 678 N 79.8174 1.5752 -0.0501392 0
M  V30 679 C 81.2284 1.80271 0.485705 0
M  V30 680 C 81.5794 0.96228 1.70981 0
M  V30 681 O 80.7044 0.178578 2.15662 0
M  V30 682 C 81.2994 3.26957 0.887938 0
M  V30 683 C 79.8584 3.5063 1.36877 0
M  V30 684 C 79.0054 2.75165 0.343468 0
M  V30 685 H 81.9564 1.56281 -0.276028 0
M  V30 686 H 81.9774 3.37821 1.75093 0
M  V30 687 H 81.4894 3.881 -0.0031809 0
M  V30 688 H 79.5904 2.94766 2.27911 0
M  V30 689 H 79.7034 4.59343 1.36164 0
M  V30 690 H 78.0674 2.4127 0.816128 0
M  V30 691 H 78.8504 3.39034 -0.539548 0
M  V30 692 N 81.2955 -0.223234 1.56011 0
M  V30 693 C 82.5255 -0.963413 1.82762 0
M  V30 694 C 82.9335 -1.78516 0.626804 0
M  V30 695 O 82.2765 -1.78974 -0.414014 0
M  V30 696 C 82.3385 -1.93126 3.0322 0
M  V30 697 C 82.0025 -1.2942 4.38291 0
M  V30 698 C 82.9995 -0.684916 5.15369 0
M  V30 699 C 80.6845 -1.30647 4.85012 0
M  V30 700 C 82.6785 -0.0963971 6.37327 0
M  V30 701 C 80.3655 -0.71411 6.06913 0
M  V30 702 C 81.3635 -0.110123 6.82911 0
M  V30 703 O 81.0515 0.47303 8.02507 0
M  V30 704 H 80.7835 -0.288011 0.611576 0
M  V30 705 H 83.3375 -0.244103 2.03944 0
M  V30 706 H 81.5675 -2.68952 2.77852 0
M  V30 707 H 83.2565 -2.53685 3.16857 0
M  V30 708 H 84.0225 -0.667774 4.80381 0
M  V30 709 H 79.9015 -1.76598 4.25833 0
M  V30 710 H 83.4455 0.375657 6.96588 0
M  V30 711 H 79.3425 -0.728659 6.41374 0
M  V30 712 H 80.1105 0.367186 8.17676 0
M  V30 713 N 82.7736 -1.49793 -0.48987 0
M  V30 714 C 84.0196 -1.61049 -1.24236 0
M  V30 715 C 84.3746 -0.298412 -1.90072 0
M  V30 716 O 83.6676 0.702262 -1.78266 0
M  V30 717 C 83.8616 -2.71488 -2.32441 0
M  V30 718 C 83.6906 -4.13308 -1.77218 0
M  V30 719 C 82.4606 -4.79955 -1.58023 0
M  V30 720 C 84.6586 -4.98176 -1.27772 0
M  V30 721 N 82.6406 -6.06052 -0.978465 0
M  V30 722 C 84.0116 -6.14843 -0.798 0
M  V30 723 C 86.0666 -4.84091 -1.16449 0
M  V30 724 C 84.7696 -7.18975 -0.216245 0
M  V30 725 C 86.7956 -5.88382 -0.596698 0
M  V30 726 C 86.1576 -7.04285 -0.127262 0
M  V30 727 H 82.2566 -0.643611 -0.444172 0
M  V30 728 H 84.8406 -1.86842 -0.54754 0
M  V30 729 H 83.0116 -2.47449 -2.99372 0
M  V30 730 H 84.7436 -2.72205 -2.99477 0
M  V30 731 H 81.4986 -4.36936 -1.82712 0
M  V30 732 H 81.9226 -6.73407 -0.696534 0
M  V30 733 H 86.5646 -3.94786 -1.5134 0
M  V30 734 H 84.2826 -8.0797 0.144903 0
M  V30 735 H 87.8686 -5.79545 -0.511716 0
M  V30 736 H 86.7486 -7.83606 0.30523 0
M  V30 737 N 84.2517 0.741722 -1.39055 0
M  V30 738 C 85.4797 1.53098 -1.39171 0
M  V30 739 C 85.8947 1.88794 0.0155099 0
M  V30 740 O 85.2517 1.53626 0.985159 0
M  V30 741 C 85.3027 2.82274 -2.2584 0
M  V30 742 O 85.0237 2.48097 -3.61081 0
M  V30 743 C 86.5247 3.76343 -2.34266 0
M  V30 744 H 83.7447 0.473335 -0.4756 0
M  V30 745 H 86.2887 0.917045 -1.82785 0
M  V30 746 H 84.4437 3.40015 -1.85656 0
M  V30 747 H 84.8577 3.31029 -4.06842 0
M  V30 748 H 86.3317 4.63898 -2.9917 0
M  V30 749 H 86.8087 4.17619 -1.35982 0
M  V30 750 H 87.4147 3.24523 -2.74891 0
M  V30 751 N 85.7298 1.2412 0.971189 0
M  V30 752 C 86.6928 1.03156 2.04674 0
M  V30 753 C 87.6928 -0.00990322 1.60797 0
M  V30 754 O 88.8828 0.230729 1.72665 0
M  V30 755 C 86.0148 0.562765 3.36223 0
M  V30 756 H 87.2078 1.98614 2.24705 0
M  V30 757 H 84.7608 1.06293 1.14593 0
M  V30 758 H 85.4958 -0.395176 3.21883 0
M  V30 759 H 85.2808 1.31441 3.69413 0
M  V30 760 H 86.7708 0.437015 4.15307 0
M  V30 761 N 87.2079 -1.17134 1.05439 0
M  V30 762 C 88.4539 -1.87733 0.767077 0
M  V30 763 C 88.7869 -1.8098 -0.704253 0
M  V30 764 O 88.0619 -1.21951 -1.5152 0
M  V30 765 C 88.3449 -3.37659 1.25133 0
M  V30 766 C 88.1979 -3.53149 2.78578 0
M  V30 767 C 89.5169 -4.31768 0.852324 0
M  V30 768 H 86.6359 -0.681687 0.280129 0
M  V30 769 H 89.2779 -1.37732 1.30881 0
M  V30 770 H 87.4279 -3.80373 0.790469 0
M  V30 771 H 89.0999 -3.19434 3.32806 0
M  V30 772 H 87.3429 -2.95345 3.17732 0
M  V30 773 H 88.0139 -4.58403 3.07523 0
M  V30 774 H 90.4899 -3.96909 1.24911 0
M  V30 775 H 89.3659 -5.35199 1.21873 0
M  V30 776 H 89.6269 -4.41429 -0.243485 0
M  V30 777 N 88.686 -0.835752 -1.33615 0
M  V30 778 C 89.933 -0.429959 -1.97883 0
M  V30 779 C 90.261 1.01006 -1.66217 0
M  V30 780 O 89.516 1.72047 -0.93265 0
M  V30 781 C 89.815 -0.593925 -3.52431 0
M  V30 782 C 89.481 -2.00158 -4.04039 0
M  V30 783 C 88.143 -2.38662 -4.17844 0
M  V30 784 C 90.495 -2.92117 -4.31644 0
M  V30 785 C 87.823 -3.68435 -4.56588 0
M  V30 786 C 90.175 -4.21368 -4.71838 0
M  V30 787 C 88.839 -4.59833 -4.83849 0
M  V30 788 H 88.109 -0.157333 -0.724104 0
M  V30 789 H 90.756 -1.06217 -1.59343 0
M  V30 790 H 89.061 0.121619 -3.91611 0
M  V30 791 H 90.758 -0.260282 -4.00154 0
M  V30 792 H 87.348 -1.69252 -3.93766 0
M  V30 793 H 91.532 -2.63608 -4.20505 0
M  V30 794 H 86.788 -3.98046 -4.64079 0
M  V30 795 H 90.962 -4.92703 -4.92155 0
M  V30 796 H 88.589 -5.60438 -5.13627 0
M  V30 797 N 90.1641 1.46063 -0.591896 0
M  V30 798 C 91.0741 2.34192 0.13831 0
M  V30 799 C 92.0901 1.50305 0.876608 0
M  V30 800 O 93.2661 1.8315 0.837728 0
M  V30 801 C 90.3311 3.27656 1.13326 0
M  V30 802 C 89.3921 4.27445 0.39863 0
M  V30 803 C 88.6251 5.16443 1.34618 0
M  V30 804 O 88.8481 5.08553 2.58321 0
M  V30 805 O 87.7821 5.95843 0.851768 0
M  V30 806 H 91.6081 2.98002 -0.58552 0
M  V30 807 H 89.1931 1.45188 -0.352239 0
M  V30 808 H 91.0751 3.85291 1.70671 0
M  V30 809 H 89.7501 2.6643 1.83839 0
M  V30 810 H 88.6571 3.73471 -0.216895 0
M  V30 811 H 89.9901 4.91482 -0.265709 0
M  V30 812 N 91.6422 0.330177 1.54103 0
M  V30 813 C 92.8722 -0.271784 2.04805 0
M  V30 814 C 93.2802 -1.45816 1.20559 0
M  V30 815 O 92.6232 -1.82247 0.2306 0
M  V30 816 C 92.6852 -0.763238 3.51305 0
M  V30 817 C 92.3492 0.301705 4.56003 0
M  V30 818 C 93.3462 1.13999 5.07248 0
M  V30 819 C 91.0312 0.451793 5.00264 0
M  V30 820 C 93.0252 2.11402 6.01322 0
M  V30 821 C 90.7122 1.42924 5.94151 0
M  V30 822 C 91.7102 2.25882 6.44567 0
M  V30 823 O 91.3982 3.21965 7.3661 0
M  V30 824 H 91.1302 -0.058693 0.673447 0
M  V30 825 H 93.6842 0.476395 1.99799 0
M  V30 826 H 91.9142 -1.56244 3.5373 0
M  V30 827 H 93.6032 -1.28427 3.85047 0
M  V30 828 H 94.3692 1.03505 4.73827 0
M  V30 829 H 90.2482 -0.184044 4.60632 0
M  V30 830 H 93.7922 2.76192 6.40596 0
M  V30 831 H 89.6892 1.53479 6.26988 0
M  V30 832 H 90.4572 3.17281 7.54503 0
M  V30 833 N 93.1203 -1.57491 0.0584922 0
M  V30 834 C 94.0303 -2.15448 -0.928414 0
M  V30 835 C 95.0463 -1.11416 -1.3365 0
M  V30 836 O 96.2223 -1.4362 -1.41193 0
M  V30 837 C 93.2873 -2.69393 -2.18239 0
M  V30 838 C 92.3483 -3.88249 -1.83196 0
M  V30 839 C 91.5813 -4.39613 -3.02616 0
M  V30 840 O 91.8043 -3.90023 -4.16219 0
M  V30 841 O 90.7383 -5.31111 -2.83204 0
M  V30 842 H 94.5643 -3.00112 -0.465483 0
M  V30 843 H 92.1493 -1.48499 -0.163826 0
M  V30 844 H 94.0313 -3.04026 -2.91798 0
M  V30 845 H 92.7063 -1.87796 -2.63656 0
M  V30 846 H 91.6133 -3.58492 -1.06931 0
M  V30 847 H 92.9463 -4.71098 -1.42573 0
M  V30 848 N 94.5984 0.214957 -1.56127 0
M  V30 849 C 95.5614 1.24997 -1.92116 0
M  V30 850 C 96.5614 1.39467 -0.800344 0
M  V30 851 O 97.7514 1.37619 -1.06802 0
M  V30 852 C 94.8834 2.62271 -2.17777 0
M  V30 853 H 96.0764 0.942875 -2.84693 0
M  V30 854 H 93.6294 0.455654 -1.49511 0
M  V30 855 H 94.3644 2.98068 -1.27773 0
M  V30 856 H 94.1494 2.53143 -2.99434 0
M  V30 857 H 95.6394 3.36946 -2.46693 0
M  V30 858 N 96.0765 1.50051 0.48192 0
M  V30 859 C 97.0395 1.67584 1.5636 0
M  V30 860 C 98.0395 0.546894 1.51214 0
M  V30 861 O 99.2295 0.813725 1.54026 0
M  V30 862 C 96.3615 1.691 2.96003 0
M  V30 863 H 97.5545 2.64078 1.42136 0
M  V30 864 H 95.1075 1.39369 0.707533 0
M  V30 865 H 95.8425 0.742589 3.15684 0
M  V30 866 H 95.6275 2.51105 3.01146 0
M  V30 867 H 97.1175 1.84656 3.74556 0
M  V30 868 N 97.5546 -0.734337 1.39446 0
M  V30 869 C 98.8026 -1.49096 1.36436 0
M  V30 870 C 99.1236 -1.94961 -0.0388255 0
M  V30 871 O 98.3936 -1.69033 -0.990191 0
M  V30 872 H 96.9736 -0.5531 0.502085 0
M  V30 873 H 99.6356 -0.871725 1.74319 0
M  V30 874 H 98.7316 -2.37276 2.02747 0
M  V30 875 N 99.0327 -1.24633 -0.964593 0
M  V30 876 C 99.9427 -1.05859 -2.09359 0
M  V30 877 C 100.959 0.00148855 -1.74 0
M  V30 878 O 102.135 -0.197346 -2.00431 0
M  V30 879 C 99.1997 -0.668879 -3.40187 0
M  V30 880 C 98.2607 -1.80578 -3.89474 0
M  V30 881 C 97.4937 -1.43457 -5.14058 0
M  V30 882 O 97.7167 -0.325775 -5.69469 0
M  V30 883 O 96.6507 -2.2613 -5.57807 0
M  V30 884 H 100.477 -2.00516 -2.28094 0
M  V30 885 H 98.0617 -1.03481 -1.0776 0
M  V30 886 H 99.9437 -0.463211 -4.18846 0
M  V30 887 H 98.6187 0.248536 -3.22744 0
M  V30 888 H 97.5257 -2.06623 -3.11862 0
M  V30 889 H 98.8587 -2.70208 -4.11398 0
M  V30 890 N 100.511 1.16574 -1.06058 0
M  V30 891 C 101.788 1.83048 -0.689416 0
M  V30 892 C 102.168 1.94122 0.829443 0
M  V30 893 O 101.516 1.48249 1.7388 0
M  V30 894 C 101.726 3.20186 -1.38859 0
M  V30 895 C 103.074 3.95989 -1.53226 0
M  V30 896 O 104.098 3.29696 -1.3483 0
M  V30 897 O 102.957 5.14813 -1.83384 0
M  V30 898 H 100.051 0.790258 -0.243764 0
M  V30 899 H 102.597 1.23797 -1.16071 0
M  V30 900 H 101.369 3.07146 -2.4244 0
M  V30 901 H 100.992 3.87112 -0.907216 0
M  V30 902 N 101.989 0.842826 1.3317 0
M  V30 903 C 102.899 0.281444 2.32906 0
M  V30 904 C 103.915 -0.594587 1.63526 0
M  V30 905 O 105.091 -0.49777 1.95152 0
M  V30 906 C 102.156 -0.530929 3.42611 0
M  V30 907 C 101.217 0.369843 4.27704 0
M  V30 908 C 100.45 -0.403853 5.3217 0
M  V30 909 O 100.673 -1.63513 5.46461 0
M  V30 910 O 99.6069 0.224199 6.01482 0
M  V30 911 H 103.433 1.10744 2.82789 0
M  V30 912 H 101.018 0.60545 1.36582 0
M  V30 913 H 102.9 -0.992437 4.09547 0
M  V30 914 H 101.575 -1.33392 2.94938 0
M  V30 915 H 100.482 0.879275 3.6362 0
M  V30 916 H 101.815 1.13771 4.78871 0
M  V30 917 N 103.467 -1.45747 0.599634 0
M  V30 918 C 104.397 -2.33235 -0.111306 0
M  V30 919 C 105.378 -1.46359 -0.866781 0
M  V30 920 O 106.563 -1.75146 -0.838904 0
M  V30 921 C 103.693 -3.28932 -1.11451 0
M  V30 922 C 102.647 -4.25381 -0.472772 0
M  V30 923 C 101.973 -5.1071 -1.58365 0
M  V30 924 C 103.273 -5.18831 0.600948 0
M  V30 925 H 104.967 -2.92927 0.61919 0
M  V30 926 H 102.513 -1.40857 0.299215 0
M  V30 927 H 104.466 -3.89002 -1.62036 0
M  V30 928 H 103.19 -2.67381 -1.8755 0
M  V30 929 H 101.849 -3.66598 0.0121472 0
M  V30 930 H 101.497 -4.45533 -2.33473 0
M  V30 931 H 101.197 -5.7604 -1.15982 0
M  V30 932 H 102.721 -5.73647 -2.09194 0
M  V30 933 H 104.135 -5.73019 0.179491 0
M  V30 934 H 102.532 -5.92595 0.946076 0
M  V30 935 H 103.602 -4.6174 1.48068 0
M  V30 936 N 104.945 -0.338344 -1.53925 0
M  V30 937 C 106.173 0.261298 -2.05243 0
M  V30 938 C 106.588 1.44625 -1.21363 0
M  V30 939 O 105.945 1.80811 -0.247736 0
M  V30 940 C 105.996 0.681412 -3.5502 0
M  V30 941 O 105.717 -0.456414 -4.35716 0
M  V30 942 C 107.218 1.34232 -4.22489 0
M  V30 943 H 104.438 0.0513685 -0.669031 0
M  V30 944 H 106.982 -0.488822 -1.98572 0
M  V30 945 H 105.137 1.38148 -3.61931 0
M  V30 946 H 105.551 -0.122564 -5.24357 0
M  V30 947 H 107.025 1.58708 -5.28693 0
M  V30 948 H 107.502 2.29426 -3.74514 0
M  V30 949 H 108.108 0.684424 -4.19757 0
M  V30 950 N 106.423 1.57458 -0.0668435 0
M  V30 951 C 107.353 2.15468 0.899764 0
M  V30 952 C 108.334 1.08042 1.31381 0
M  V30 953 O 109.519 1.36054 1.38574 0
M  V30 954 C 106.649 2.71232 2.16911 0
M  V30 955 C 105.603 3.83781 1.89463 0
M  V30 956 C 104.929 4.26127 3.22986 0
M  V30 957 C 106.229 5.08238 1.20381 0
M  V30 958 H 107.923 2.96488 0.416529 0
M  V30 959 H 105.469 1.4262 0.198908 0
M  V30 960 H 107.422 3.10458 2.84945 0
M  V30 961 H 106.146 1.87426 2.67468 0
M  V30 962 H 104.805 3.45051 1.23836 0
M  V30 963 H 104.453 3.39249 3.71374 0
M  V30 964 H 104.153 5.01993 3.05413 0
M  V30 965 H 105.677 4.67966 3.92225 0
M  V30 966 H 107.091 5.44811 1.78475 0
M  V30 967 H 105.488 5.89349 1.13083 0
M  V30 968 H 106.558 4.84558 0.182153 0
M  V30 969 N 107.901 -0.206675 1.56239 0
M  V30 970 C 109.317 -0.557025 1.49564 0
M  V30 971 C 109.517 -1.86424 0.764735 0
M  V30 972 O 108.573 -2.50584 0.310491 0
M  V30 973 C 109.886 -0.622478 2.94186 0
M  V30 974 C 111.434 -0.712099 3.04792 0
M  V30 975 C 111.909 -0.808767 4.50803 0
M  V30 976 N 113.4 -0.8726 4.54907 0
M  V30 977 C 114.135 -0.967365 5.65181 0
M  V30 978 N 113.631 -1.02515 6.85173 0
M  V30 979 N 115.424 -1.00366 5.53067 0
M  V30 980 H 107.575 0.650943 2.02179 0
M  V30 981 H 109.838 0.230387 0.919579 0
M  V30 982 H 109.544 0.268727 3.50672 0
M  V30 983 H 109.418 -1.4811 3.46905 0
M  V30 984 H 111.805 -1.59374 2.48363 0
M  V30 985 H 111.886 0.172489 2.55218 0
M  V30 986 H 111.53 0.0684754 5.07854 0
M  V30 987 H 111.46 -1.70899 4.98098 0
M  V30 988 H 113.951 -0.837657 3.68499 0
M  V30 989 H 114.264 -1.09765 7.64965 0
M  V30 990 H 112.609 -0.994026 6.87855 0
M  V30 991 H 115.8 -0.95527 4.58249 0
M  V30 992 H 115.973 -1.07405 6.39037 0
M  V30 993 N 109.379 -1.50304 -0.473955 0
M  V30 994 C 110.309 -1.71886 -1.58042 0
M  V30 995 C 111.29 -0.567799 -1.60344 0
M  V30 996 O 112.475 -0.806623 -1.76656 0
M  V30 997 C 109.605 -1.81036 -2.96384 0
M  V30 998 C 108.559 -2.962 -3.08949 0
M  V30 999 C 107.885 -2.9049 -4.48909 0
M  V30 1000 C 109.185 -4.36752 -2.86434 0
M  V30 1001 H 110.879 -2.64527 -1.40234 0
M  V30 1002 H 108.425 -1.27295 -0.673201 0
M  V30 1003 H 110.378 -1.94719 -3.73714 0
M  V30 1004 H 109.102 -0.850147 -3.15341 0
M  V30 1005 H 107.761 -2.82164 -2.3405 0
M  V30 1006 H 107.409 -1.92321 -4.64781 0
M  V30 1007 H 107.109 -3.67802 -4.58253 0
M  V30 1008 H 108.633 -3.06218 -5.28264 0
M  V30 1009 H 110.047 -4.5133 -3.53517 0
M  V30 1010 H 108.444 -5.15493 -3.07225 0
M  V30 1011 H 109.514 -4.49321 -1.82316 0
M  V30 1012 N 110.857 0.726932 -1.39834 0
M  V30 1013 C 112.105 1.4837 -1.37225 0
M  V30 1014 C 112.426 1.94979 0.0284857 0
M  V30 1015 O 111.696 1.69555 0.981213 0
M  V30 1016 H 110.276 0.55043 -0.505011 0
M  V30 1017 H 112.938 0.862468 -1.74778 0
M  V30 1018 H 112.034 2.36198 -2.04003 0
M  V30 1019 N 112.336 1.25143 0.95797 0
M  V30 1020 C 113.613 1.00472 1.67823 0
M  V30 1021 C 113.993 -0.470056 2.058 0
M  V30 1022 O 113.341 -1.44663 1.76875 0
M  V30 1023 C 113.551 1.9372 2.90299 0
M  V30 1024 C 114.899 2.21371 3.62326 0
M  V30 1025 O 115.923 1.91451 3.00375 0
M  V30 1026 O 114.782 2.72231 4.7387 0
M  V30 1027 H 111.876 0.380752 0.734137 0
M  V30 1028 H 114.422 1.36283 1.01119 0
M  V30 1029 H 113.194 2.93316 2.59001 0
M  V30 1030 H 112.817 1.58286 3.64735 0
M  V30 1031 N 113.814 -1.1601 1.06675 0
M  V30 1032 C 115.06 -1.86909 0.786945 0
M  V30 1033 C 115.393 -1.81717 -0.685018 0
M  V30 1034 O 114.668 -1.23551 -1.50218 0
M  V30 1035 C 114.951 -3.36313 1.28707 0
M  V30 1036 C 114.804 -3.50175 2.82308 0
M  V30 1037 C 116.123 -4.3084 0.898071 0
M  V30 1038 H 113.242 -0.678677 0.287343 0
M  V30 1039 H 115.884 -1.36336 1.32334 0
M  V30 1040 H 114.034 -3.79513 0.830768 0
M  V30 1041 H 115.706 -3.15886 3.36175 0
M  V30 1042 H 113.949 -2.91959 3.20847 0
M  V30 1043 H 114.62 -4.55116 3.12368 0
M  V30 1044 H 117.096 -3.95561 1.29114 0
M  V30 1045 H 115.972 -5.33876 1.27543 0
M  V30 1046 H 116.233 -4.41662 -0.196651 0
M  V30 1047 N 115.292 -0.849877 -1.32721 0
M  V30 1048 C 116.538 -0.451591 -1.97708 0
M  V30 1049 C 116.871 0.989175 -1.6712 0
M  V30 1050 O 116.146 1.69334 -0.956891 0
M  V30 1051 C 116.429 -0.685598 -3.53513 0
M  V30 1052 C 116.282 -2.17444 -3.93749 0
M  V30 1053 C 117.601 -0.138874 -4.39881 0
M  V30 1054 H 114.72 -0.16555 -0.718166 0
M  V30 1055 H 117.362 -1.06742 -1.57182 0
M  V30 1056 H 115.512 -0.161416 -3.88165 0
M  V30 1057 H 117.184 -2.76433 -3.693 0
M  V30 1058 H 115.427 -2.65476 -3.43081 0
M  V30 1059 H 116.098 -2.28888 -5.02309 0
M  V30 1060 H 118.574 -0.587068 -4.11938 0
M  V30 1061 H 117.45 -0.332213 -5.47894 0
M  V30 1062 H 117.711 0.95806 -4.31594 0
M  V30 1063 N 116.77 1.45427 -0.607355 0
M  V30 1064 C 117.68 2.34325 0.113463 0
M  V30 1065 C 118.696 1.51226 0.860617 0
M  V30 1066 O 119.872 1.84029 0.818255 0
M  V30 1067 C 116.937 3.28839 1.09844 0
M  V30 1068 C 115.998 4.27844 0.353271 0
M  V30 1069 C 115.231 5.17842 1.29133 0
M  V30 1070 O 115.454 5.11264 2.52913 0
M  V30 1071 O 114.388 5.96713 0.788523 0
M  V30 1072 H 118.214 2.97364 -0.617094 0
M  V30 1073 H 115.799 1.44807 -0.367619 0
M  V30 1074 H 117.681 3.8708 1.66575 0
M  V30 1075 H 116.356 2.68365 1.81003 0
M  V30 1076 H 115.263 3.7322 -0.256494 0
M  V30 1077 H 116.596 4.91173 -0.317822 0
M  V30 1078 N 118.248 0.346503 1.53744 0
M  V30 1079 C 119.494 -0.249473 2.0126 0
M  V30 1080 C 119.827 -1.49965 1.23386 0
M  V30 1081 O 119.102 -1.91811 0.32229 0
M  V30 1082 C 119.385 -0.560643 3.55709 0
M  V30 1083 C 119.238 0.701836 4.44291 0
M  V30 1084 C 120.557 -1.36905 4.18264 0
M  V30 1085 H 117.676 -0.0891987 0.731582 0
M  V30 1086 H 120.318 0.467624 1.84156 0
M  V30 1087 H 118.468 -1.17156 3.70414 0
M  V30 1088 H 120.14 1.33974 4.41417 0
M  V30 1089 H 118.383 1.32612 4.13033 0
M  V30 1090 H 119.054 0.43933 5.50249 0
M  V30 1091 H 121.53 -0.852448 4.07275 0
M  V30 1092 H 120.406 -1.55553 5.26398 0
M  V30 1093 H 120.667 -2.37203 3.73078 0
M  V30 1094 N 119.726 -1.57421 0.075193 0
M  V30 1095 C 120.656 -2.15942 -0.888324 0
M  V30 1096 C 121.637 -1.08737 -1.30806 0
M  V30 1097 O 122.822 -1.36787 -1.37851 0
M  V30 1098 C 119.952 -2.72379 -2.1547 0
M  V30 1099 C 118.906 -3.8478 -1.87425 0
M  V30 1100 C 118.232 -4.27834 -3.20721 0
M  V30 1101 C 119.532 -5.08869 -1.17684 0
M  V30 1102 H 121.226 -2.96705 -0.400799 0
M  V30 1103 H 118.772 -1.42723 -0.191342 0
M  V30 1104 H 120.725 -3.11965 -2.83295 0
M  V30 1105 H 119.449 -1.88841 -2.6647 0
M  V30 1106 H 118.108 -3.45703 -1.22004 0
M  V30 1107 H 117.756 -3.41214 -3.6957 0
M  V30 1108 H 117.456 -5.03605 -3.02746 0
M  V30 1109 H 118.98 -4.70039 -3.89738 0
M  V30 1110 H 120.394 -5.4575 -1.75584 0
M  V30 1111 H 118.791 -5.8994 -1.09956 0
M  V30 1112 H 119.861 -4.84648 -0.156453 0
M  V30 1113 N 121.204 0.198386 -1.56346 0
M  V30 1114 C 122.429 0.939682 -1.84891 0
M  V30 1115 C 122.854 1.76202 -0.658369 0
M  V30 1116 O 122.212 1.76993 0.392851 0
M  V30 1117 C 122.26 1.81428 -3.11635 0
M  V30 1118 O 121.364 2.91265 -2.91956 0
M  V30 1119 H 120.705 0.264807 -0.608912 0
M  V30 1120 H 123.235 0.204695 -2.03573 0
M  V30 1121 H 123.245 2.21958 -3.42343 0
M  V30 1122 H 121.92 1.21004 -3.97908 0
M  V30 1123 H 120.497 2.54514 -2.72538 0
M  V30 1124 N 122.682 1.50554 0.465978 0
M  V30 1125 C 123.629 1.6979 1.56333 0
M  V30 1126 C 124.599 0.539239 1.57103 0
M  V30 1127 O 125.784 0.770401 1.74555 0
M  V30 1128 C 122.924 1.80273 2.94271 0
M  V30 1129 C 122.037 3.07674 3.0325 0
M  V30 1130 C 121.172 3.08922 4.32135 0
M  V30 1131 C 120.211 4.30755 4.34875 0
M  V30 1132 N 119.348 4.29714 5.55239 0
M  V30 1133 H 124.188 2.63472 1.39235 0
M  V30 1134 H 121.725 1.30602 0.676873 0
M  V30 1135 H 123.683 1.84332 3.74269 0
M  V30 1136 H 122.313 0.900258 3.09992 0
M  V30 1137 H 121.365 3.13062 2.16094 0
M  V30 1138 H 122.677 3.97642 3.01135 0
M  V30 1139 H 121.831 3.11738 5.20485 0
M  V30 1140 H 120.57 2.16792 4.36866 0
M  V30 1141 H 119.575 4.28146 3.44922 0
M  V30 1142 H 120.8 5.24117 4.31831 0
M  V30 1143 H 118.746 3.4044 5.60746 0
M  V30 1144 H 118.663 5.13456 5.54886 0
M  V30 1145 H 119.931 4.36683 6.457 0
M  V30 1146 N 124.16 -0.719506 1.40217 0
M  V30 1147 C 125.437 -1.47221 1.28784 0
M  V30 1148 C 125.817 -2.10883 -0.0956067 0
M  V30 1149 O 125.165 -1.99833 -1.10811 0
M  V30 1150 C 125.375 -2.5111 2.42373 0
M  V30 1151 C 126.723 -3.17053 2.82423 0
M  V30 1152 O 127.747 -2.61429 2.41937 0
M  V30 1153 O 126.606 -4.17742 3.52355 0
M  V30 1154 H 123.7 -0.654491 0.50554 0
M  V30 1155 H 126.246 -0.752014 1.52128 0
M  V30 1156 H 125.018 -2.02556 3.34793 0
M  V30 1157 H 124.641 -3.3067 2.20778 0
M  V30 1158 N 125.638 -1.25649 -0.95132 0
M  V30 1159 C 126.863 -1.13443 -1.73624 0
M  V30 1160 C 127.288 0.307565 -1.85568 0
M  V30 1161 O 126.646 1.22282 -1.33854 0
M  V30 1162 C 126.694 -1.79723 -3.12621 0
M  V30 1163 O 125.798 -1.07912 -3.98031 0
M  V30 1164 H 125.139 -0.395872 -0.533086 0
M  V30 1165 H 127.669 -1.66276 -1.1922 0
M  V30 1166 H 127.679 -1.86141 -3.63064 0
M  V30 1167 H 126.354 -2.84633 -3.03244 0
M  V30 1168 H 124.931 -1.09398 -3.56492 0
M  V30 1169 N 127.117 1.15442 -1.07289 0
M  V30 1170 C 128.049 2.19773 -0.650585 0
M  V30 1171 C 129.062 1.60076 0.296572 0
M  V30 1172 O 130.251 1.78293 0.0859905 0
M  V30 1173 C 127.351 3.38838 0.0650398 0
M  V30 1174 C 126.524 4.2808 -0.898141 0
M  V30 1175 C 125.583 5.2574 -0.219926 0
M  V30 1176 O 124.609 5.62654 -0.860773 0
M  V30 1177 N 125.811 5.71205 1.03466 0
M  V30 1178 H 128.576 2.56622 -1.54808 0
M  V30 1179 H 126.137 1.30551 -0.957494 0
M  V30 1180 H 128.129 4.01222 0.529415 0
M  V30 1181 H 126.699 3.00409 0.864466 0
M  V30 1182 H 125.919 3.62804 -1.54165 0
M  V30 1183 H 127.207 4.84577 -1.5512 0
M  V30 1184 H 126.605 5.43325 1.57526 0
M  V30 1185 H 125.162 6.35633 1.44272 0
M  V30 1186 N 128.595 0.856903 1.32268 0
M  V30 1187 C 129.841 0.462069 1.97466 0
M  V30 1188 C 130.174 -0.980298 1.67642 0
M  V30 1189 O 129.449 -1.68824 0.965858 0
M  V30 1190 C 129.732 0.704336 3.53145 0
M  V30 1191 C 129.585 2.19529 3.9259 0
M  V30 1192 C 130.904 0.1622 4.39801 0
M  V30 1193 H 128.023 0.169357 0.717278 0
M  V30 1194 H 130.665 1.07574 1.56614 0
M  V30 1195 H 128.815 0.181999 3.88073 0
M  V30 1196 H 130.487 2.78387 3.67829 0
M  V30 1197 H 128.73 2.67292 3.41668 0
M  V30 1198 H 129.401 2.31549 5.01088 0
M  V30 1199 H 131.877 0.608905 4.11621 0
M  V30 1200 H 130.753 0.361265 5.4771 0
M  V30 1201 H 131.014 -0.935158 4.32096 0
M  V30 1202 N 130.073 -1.45103 0.615059 0
M  V30 1203 C 131.298 -2.07064 0.117988 0
M  V30 1204 C 131.723 -1.4554 -1.19163 0
M  V30 1205 O 131.081 -0.550855 -1.72729 0
M  V30 1206 C 131.129 -3.606 -0.000288387 0
M  V30 1207 O 130.233 -3.98847 -1.04856 0
M  V30 1208 H 129.574 -0.659467 0.0774581 0
M  V30 1209 H 132.104 -1.86236 0.847186 0
M  V30 1210 H 132.114 -4.07529 -0.196091 0
M  V30 1211 H 130.789 -4.04765 0.955932 0
M  V30 1212 H 129.366 -3.63577 -0.828619 0
M  V30 1213 N 131.551 -0.354651 -1.53558 0
M  V30 1214 C 132.799 0.237972 -2.00694 0
M  V30 1215 C 133.12 1.50173 -1.24391 0
M  V30 1216 O 132.39 1.92673 -0.354135 0
M  V30 1217 H 130.97 0.0909256 -0.741446 0
M  V30 1218 H 133.632 -0.478368 -1.88938 0
M  V30 1219 H 132.728 0.47264 -3.085 0
M  V30 1220 N 133.029 1.57378 -0.0835403 0
M  V30 1221 C 134.306 1.85363 0.624507 0
M  V30 1222 C 134.686 0.978239 1.87066 0
M  V30 1223 O 134.034 0.0475908 2.2845 0
M  V30 1224 C 134.244 3.35795 0.950947 0
M  V30 1225 C 135.592 4.03581 1.31939 0
M  V30 1226 O 136.616 3.40609 1.04232 0
M  V30 1227 O 135.475 5.14672 1.83779 0
M  V30 1228 H 132.569 0.766162 0.311329 0
M  V30 1229 H 135.115 1.69307 -0.115362 0
M  V30 1230 H 133.887 3.91244 0.0663899 0
M  V30 1231 H 133.51 3.57154 1.74719 0
M  V30 1232 N 134.507 -0.190092 1.56449 0
M  V30 1233 C 135.417 -1.25591 1.98152 0
M  V30 1234 C 136.433 -1.49519 0.889944 0
M  V30 1235 O 137.609 -1.62036 1.19609 0
M  V30 1236 C 134.674 -2.57916 2.3169 0
M  V30 1237 C 133.735 -2.42015 3.5458 0
M  V30 1238 C 132.968 -3.6803 3.8651 0
M  V30 1239 O 133.191 -4.72413 3.1966 0
M  V30 1240 O 132.125 -3.6326 4.79923 0
M  V30 1241 H 135.951 -0.931988 2.89046 0
M  V30 1242 H 133.536 -0.395488 1.4407 0
M  V30 1243 H 135.418 -3.36008 2.54316 0
M  V30 1244 H 134.093 -2.89925 1.43963 0
M  V30 1245 H 133 -1.62017 3.37196 0
M  V30 1246 H 134.333 -2.14937 4.4279 0
M  V30 1247 N 135.985 -1.50799 -0.457987 0
M  V30 1248 C 137.233 -1.62121 -1.2067 0
M  V30 1249 C 137.554 -0.329793 -1.92191 0
M  V30 1250 O 136.824 0.653409 -1.84682 0
M  V30 1251 H 135.404 -0.597441 -0.448411 0
M  V30 1252 H 138.066 -1.87637 -0.527096 0
M  V30 1253 H 137.162 -2.43882 -1.94751 0
M  V30 1254 N 137.463 0.71206 -1.40597 0
M  V30 1255 C 138.709 1.47292 -1.40274 0
M  V30 1256 C 139.064 1.92399 -0.00576812 0
M  V30 1257 O 138.357 1.65507 0.965297 0
M  V30 1258 C 138.551 2.71039 -2.32965 0
M  V30 1259 C 138.38 2.38035 -3.81536 0
M  V30 1260 C 137.15 2.29203 -4.50327 0
M  V30 1261 C 139.348 2.02076 -4.72938 0
M  V30 1262 N 137.33 1.88911 -5.84111 0
M  V30 1263 C 138.701 1.72412 -5.95545 0
M  V30 1264 C 140.756 1.88742 -4.60739 0
M  V30 1265 C 139.459 1.30756 -7.07316 0
M  V30 1266 C 141.485 1.4849 -5.72455 0
M  V30 1267 C 140.847 1.19726 -6.94151 0
M  V30 1268 H 136.946 0.536919 -0.568544 0
M  V30 1269 H 139.53 0.825424 -1.76337 0
M  V30 1270 H 137.701 3.33533 -1.99023 0
M  V30 1271 H 139.433 3.37404 -2.23474 0
M  V30 1272 H 136.188 2.47059 -4.04053 0
M  V30 1273 H 136.612 1.71293 -6.54972 0
M  V30 1274 H 141.254 2.0964 -3.67166 0
M  V30 1275 H 138.972 1.08601 -8.00769 0
M  V30 1276 H 142.558 1.38747 -5.65014 0
M  V30 1277 H 141.438 0.890482 -7.79128 0
M  V30 1278 N 138.941 1.26152 0.944643 0
M  V30 1279 C 140.187 1.12665 1.69346 0
M  V30 1280 C 140.542 -0.3273 1.89596 0
M  V30 1281 O 139.835 -1.23717 1.46303 0
M  V30 1282 C 140.029 1.82541 3.07268 0
M  V30 1283 C 139.858 3.34582 3.00475 0
M  V30 1284 C 138.628 4.03863 3.03681 0
M  V30 1285 C 140.826 4.30828 2.80877 0
M  V30 1286 N 138.808 5.42603 2.87151 0
M  V30 1287 C 140.179 5.5672 2.7288 0
M  V30 1288 C 142.234 4.21122 2.65633 0
M  V30 1289 C 140.937 6.74013 2.51196 0
M  V30 1290 C 142.963 5.38118 2.45323 0
M  V30 1291 C 142.325 6.62955 2.38055 0
M  V30 1292 H 138.424 0.467041 0.627214 0
M  V30 1293 H 141.008 1.59391 1.11815 0
M  V30 1294 H 139.179 1.38296 3.62945 0
M  V30 1295 H 140.911 1.61708 3.70989 0
M  V30 1296 H 137.666 3.55198 3.1326 0
M  V30 1297 H 138.09 6.15443 2.82063 0
M  V30 1298 H 142.732 3.25344 2.70021 0
M  V30 1299 H 140.45 7.6989 2.4555 0
M  V30 1300 H 144.036 5.32475 2.34439 0
M  V30 1301 H 142.916 7.51959 2.22546 0
M  V30 1302 N 140.419 -1.14872 1.07899 0
M  V30 1303 C 141.647 -1.89661 0.82683 0
M  V30 1304 C 142.062 -1.78312 -0.620519 0
M  V30 1305 O 141.419 -1.13888 -1.42604 0
M  V30 1306 C 141.47 -3.39817 1.23316 0
M  V30 1307 O 141.191 -3.50845 2.62372 0
M  V30 1308 C 142.692 -4.31615 1.0111 0
M  V30 1309 H 139.912 -0.60092 0.298557 0
M  V30 1310 H 142.456 -1.4551 1.43691 0
M  V30 1311 H 140.611 -3.8161 0.667286 0
M  V30 1312 H 141.025 -4.44076 2.79101 0
M  V30 1313 H 142.499 -5.35367 1.34486 0
M  V30 1314 H 142.976 -4.39169 -0.0522168 0
M  V30 1315 H 143.582 -3.95572 1.56215 0
M  V30 1316 N 141.898 -0.863906 -1.31812 0
M  V30 1317 C 143.146 -0.470904 -1.96537 0
M  V30 1318 C 143.467 0.978771 -1.68657 0
M  V30 1319 O 142.737 1.6853 -0.998717 0
M  V30 1320 H 141.317 -0.171148 -0.72713 0
M  V30 1321 H 143.979 -1.10236 -1.60729 0
M  V30 1322 H 143.075 -0.623616 -3.05806 0
M  V30 1323 N 143.376 1.44774 -0.622745 0
M  V30 1324 C 144.308 2.28856 0.125485 0
M  V30 1325 C 145.321 1.40811 0.817069 0
M  V30 1326 O 146.51 1.65044 0.679918 0
M  V30 1327 C 143.61 3.16963 1.19949 0
M  V30 1328 C 142.783 4.33374 0.592064 0
M  V30 1329 C 141.842 5.02577 1.55893 0
M  V30 1330 O 140.868 5.58873 1.07933 0
M  V30 1331 N 142.07 5.03256 2.89334 0
M  V30 1332 H 144.835 2.93713 -0.596068 0
M  V30 1333 H 142.396 1.55129 -0.463303 0
M  V30 1334 H 144.388 3.60123 1.84644 0
M  V30 1335 H 142.958 2.53913 1.82337 0
M  V30 1336 H 142.178 3.93509 -0.233322 0
M  V30 1337 H 143.466 5.08527 0.166738 0
M  V30 1338 H 142.864 4.58836 3.30887 0
M  V30 1339 H 141.421 5.50232 3.49412 0
M  V30 1340 N 144.854 0.36279 1.53368 0
M  V30 1341 C 145.784 -0.476976 2.28576 0
M  V30 1342 C 146.765 -1.08631 1.30894 0
M  V30 1343 O 147.95 -1.10409 1.59761 0
M  V30 1344 C 145.08 -1.61828 3.07293 0
M  V30 1345 C 144.034 -1.13633 4.1264 0
M  V30 1346 C 143.36 -2.36766 4.79423 0
M  V30 1347 C 144.66 -0.223061 5.21823 0
M  V30 1348 H 146.354 0.150474 2.99022 0
M  V30 1349 H 143.9 0.0738103 1.43811 0
M  V30 1350 H 145.853 -2.21237 3.58653 0
M  V30 1351 H 144.577 -2.27292 2.34533 0
M  V30 1352 H 143.236 -0.564945 3.62221 0
M  V30 1353 H 142.884 -3.0068 4.03238 0
M  V30 1354 H 142.584 -2.05192 5.50609 0
M  V30 1355 H 144.108 -2.96865 5.33576 0
M  V30 1356 H 145.522 -0.724545 5.68703 0
M  V30 1357 H 143.919 0.001678 6.001 0
M  V30 1358 H 144.989 0.735553 4.79289 0
M  V30 1359 N 146.332 -1.57332 0.0918853 0
M  V30 1360 C 147.28 -2.15075 -0.885747 0
M  V30 1361 C 148.274 -1.09277 -1.29441 0
M  V30 1362 O 149.48 -1.27627 -1.26931 0
M  V30 1363 H 145.855 -0.687966 -0.303656 0
M  V30 1364 H 147.826 -2.96047 -0.373995 0
M  V30 1365 C 146.575 -2.74325 -2.13638 0
M  V30 1366 H 145.898 -3.55418 -1.8308 0
M  V30 1367 H 147.338 -3.183 -2.80109 0
M  V30 1368 C 145.797 -1.70062 -2.90827 0
M  V30 1369 O 146.327 -1.13763 -3.85254 0
M  V30 1370 N 144.533 -1.40628 -2.54307 0
M  V30 1371 H 144.08 -1.866 -1.7759 0
M  V30 1372 H 144.038 -0.711043 -3.06254 0
M  V30 1373 N 147.81 0.181792 -1.56548 0
M  V30 1374 C 148.742 1.24956 -1.92142 0
M  V30 1375 C 149.755 1.41022 -0.813422 0
M  V30 1376 O 150.944 1.41212 -1.09186 0
M  V30 1377 C 148.044 2.61981 -2.14987 0
M  V30 1378 C 147.217 2.6735 -3.46183 0
M  V30 1379 C 146.276 3.85664 -3.5798 0
M  V30 1380 O 145.302 3.72148 -4.30691 0
M  V30 1381 N 146.504 5.01683 -2.92053 0
M  V30 1382 H 149.269 0.947329 -2.84334 0
M  V30 1383 H 146.83 0.371629 -1.57577 0
M  V30 1384 H 148.822 3.3958 -2.20154 0
M  V30 1385 H 147.392 2.84637 -1.2923 0
M  V30 1386 H 146.612 1.75925 -3.52766 0
M  V30 1387 H 147.9 2.67939 -4.32534 0
M  V30 1388 H 147.298 5.15564 -2.32832 0
M  V30 1389 H 145.855 5.77181 -3.0283 0
M  V30 1390 N 149.288 1.51039 0.449983 0
M  V30 1391 C 150.704 1.38934 0.785462 0
M  V30 1392 C 150.904 0.461817 1.96136 0
M  V30 1393 O 149.96 -0.0877389 2.52348 0
M  V30 1394 C 151.273 2.80724 1.0777 0
M  V30 1395 C 152.821 2.89787 1.1829 0
M  V30 1396 C 153.296 4.32457 1.50815 0
M  V30 1397 N 154.787 4.35505 1.57764 0
M  V30 1398 C 155.522 5.42914 1.84477 0
M  V30 1399 N 155.018 6.60502 2.09068 0
M  V30 1400 N 156.811 5.3038 1.86155 0
M  V30 1401 H 148.962 2.09904 -0.324647 0
M  V30 1402 H 151.225 0.944378 -0.0827957 0
M  V30 1403 H 150.931 3.50531 0.286498 0
M  V30 1404 H 150.805 3.19273 2.00859 0
M  V30 1405 H 153.192 2.20186 1.96474 0
M  V30 1406 H 153.273 2.54752 0.231314 0
M  V30 1407 H 152.917 5.02603 0.731622 0
M  V30 1408 H 152.847 4.64995 2.47158 0
M  V30 1409 H 155.338 3.50724 1.40715 0
M  V30 1410 H 155.651 7.38158 2.28785 0
M  V30 1411 H 153.996 6.63639 2.06416 0
M  V30 1412 H 157.187 4.37505 1.66454 0
M  V30 1413 H 157.36 6.1417 2.06637 0
M  V30 1414 N 150.766 -0.704594 1.40972 0
M  V30 1415 C 152.012 -1.46675 1.40051 0
M  V30 1416 C 152.345 -1.94199 0.00641102 0
M  V30 1417 O 151.62 -1.68916 -0.964235 0
M  V30 1418 C 151.903 -2.68505 2.39952 0
M  V30 1419 C 151.756 -2.26805 3.88432 0
M  V30 1420 C 153.075 -3.70686 2.37233 0
M  V30 1421 H 150.194 -0.532015 0.510028 0
M  V30 1422 H 152.836 -0.803255 1.72185 0
M  V30 1423 H 150.986 -3.25114 2.1268 0
M  V30 1424 H 152.658 -1.75592 4.26574 0
M  V30 1425 H 150.901 -1.58685 4.03734 0
M  V30 1426 H 151.572 -3.14181 4.53866 0
M  V30 1427 H 154.048 -3.23731 2.61415 0
M  V30 1428 H 152.924 -4.53553 3.09162 0
M  V30 1429 H 153.185 -4.19754 1.38777 0
M  V30 1430 N 152.244 -1.26651 -0.937939 0
M  V30 1431 C 153.492 -1.12165 -1.68118 0
M  V30 1432 C 153.813 0.334983 -1.92101 0
M  V30 1433 O 153.083 1.23583 -1.52 0
M  V30 1434 H 151.663 -0.412093 -0.623048 0
M  V30 1435 H 154.325 -1.59027 -1.12678 0
M  V30 1436 H 153.421 -1.64289 -2.6536 0
M  V30 1437 N 153.722 1.14298 -1.08507 0
M  V30 1438 C 154.971 1.84708 -0.810305 0
M  V30 1439 C 155.284 1.83903 0.666271 0
M  V30 1440 O 156.49 2.50112 1.05624 0
M  V30 1441 C 154.946 3.31572 -1.39957 0
M  V30 1442 C 154.554 3.40791 -2.90801 0
M  V30 1443 C 156.298 4.07087 -1.20334 0
M  V30 1444 C 154.205 4.81872 -3.4286 0
M  V30 1445 H 153.135 0.691985 -0.299454 0
M  V30 1446 H 155.786 1.28841 -1.30661 0
M  V30 1447 H 154.168 3.87183 -0.830976 0
M  V30 1448 H 155.342 2.95225 -3.53806 0
M  V30 1449 H 153.657 2.78732 -3.0935 0
M  V30 1450 H 156.254 5.11225 -1.56693 0
M  V30 1451 H 156.597 4.16054 -0.143237 0
M  V30 1452 H 157.13 3.57779 -1.73893 0
M  V30 1453 H 153.869 4.78094 -4.48449 0
M  V30 1454 H 153.389 5.27972 -2.84615 0
M  V30 1455 H 155.068 5.50765 -3.39509 0
M  V30 1456 N 155.201 0.870884 1.31352 0
M  V30 1457 C 156.448 0.482273 1.96673 0
M  V30 1458 C 156.776 -0.965638 1.68836 0
M  V30 1459 O 156.031 -1.69514 0.977937 0
M  V30 1460 C 156.33 0.687157 3.50732 0
M  V30 1461 C 155.996 2.108 3.9859 0
M  V30 1462 C 154.658 2.49656 4.1137 0
M  V30 1463 C 157.01 3.03459 4.23748 0
M  V30 1464 C 154.338 3.80412 4.46659 0
M  V30 1465 C 156.69 4.3373 4.60501 0
M  V30 1466 C 155.354 4.725 4.71487 0
M  V30 1467 H 154.624 0.176476 0.719679 0
M  V30 1468 H 157.271 1.10405 1.56471 0
M  V30 1469 H 155.576 -0.0177476 3.91796 0
M  V30 1470 H 157.273 0.366284 3.99324 0
M  V30 1471 H 153.863 1.79633 3.8914 0
M  V30 1472 H 158.047 2.74665 4.13368 0
M  V30 1473 H 153.303 4.1021 4.53362 0
M  V30 1474 H 157.477 5.05578 4.78919 0
M  V30 1475 H 155.104 5.73859 4.98588 0
M  V30 1476 N 156.679 -1.44442 0.630414 0
M  V30 1477 C 158.09 -1.85434 0.217063 0
M  V30 1478 C 158.441 -1.52748 -1.23136 0
M  V30 1479 O 157.566 -0.965205 -1.93682 0
M  V30 1480 C 158.161 -3.36581 0.387168 0
M  V30 1481 C 156.72 -3.76389 0.0283297 0
M  V30 1482 C 155.867 -2.68296 0.700889 0
M  V30 1483 H 158.818 -1.34919 0.83562 0
M  V30 1484 H 158.839 -3.78657 -0.374086 0
M  V30 1485 H 158.351 -3.60339 1.44144 0
M  V30 1486 H 156.452 -3.58246 -1.02423 0
M  V30 1487 H 156.565 -4.77095 0.437892 0
M  V30 1488 H 154.929 -2.54335 0.136267 0
M  V30 1489 H 155.712 -2.94887 1.75774 0
M  V30 1490 N 158.157 -0.370918 -1.53173 0
M  V30 1491 C 159.382 0.220293 -2.06227 0
M  V30 1492 C 159.807 1.41243 -1.24225 0
M  V30 1493 O 159.165 1.79387 -0.262645 0
M  V30 1494 C 159.213 0.586663 -3.55796 0
M  V30 1495 O 158.317 1.68317 -3.76488 0
M  V30 1496 H 157.658 0.0308099 -0.663285 0
M  V30 1497 H 160.188 -0.533068 -1.97534 0
M  V30 1498 H 160.198 0.85617 -3.98916 0
M  V30 1499 H 158.873 -0.285013 -4.14922 0
M  V30 1500 H 157.45 1.40881 -3.45264 0
M  V30 1501 N 159.635 1.57281 -0.100228 0
M  V30 1502 C 160.583 2.15542 0.874328 0
M  V30 1503 C 161.577 1.09962 1.28859 0
M  V30 1504 O 162.783 1.28298 1.26252 0
M  V30 1505 H 159.158 0.689567 0.300003 0
M  V30 1506 H 161.129 2.96241 0.35829 0
M  V30 1507 C 159.878 2.75454 2.1218 0
M  V30 1508 H 159.201 3.56384 1.81193 0
M  V30 1509 H 160.641 3.19781 2.78417 0
M  V30 1510 C 159.1 1.71602 2.89921 0
M  V30 1511 O 159.63 1.15804 3.84646 0
M  V30 1512 N 157.836 1.41975 2.53558 0
M  V30 1513 H 157.383 1.87539 1.76598 0
M  V30 1514 H 157.341 0.727274 3.05873 0
M  V30 1515 N 161.113 -0.173488 1.56642 0
M  V30 1516 C 162.343 -0.904781 1.85734 0
M  V30 1517 C 162.751 -1.76431 0.68328 0
M  V30 1518 O 162.094 -1.802 -0.356865 0
M  V30 1519 C 162.156 -1.83382 3.09211 0
M  V30 1520 C 161.82 -1.15411 4.42187 0
M  V30 1521 C 162.817 -0.520609 5.17287 0
M  V30 1522 C 160.502 -1.15151 4.88923 0
M  V30 1523 C 162.496 0.106412 6.37311 0
M  V30 1524 C 160.183 -0.520664 6.08878 0
M  V30 1525 C 161.181 0.107196 6.82916 0
M  V30 1526 O 160.869 0.728102 8.00596 0
M  V30 1527 H 160.601 -0.268408 0.62043 0
M  V30 1528 H 163.155 -0.179096 2.04618 0
M  V30 1529 H 161.385 -2.59976 2.86268 0
M  V30 1530 H 163.074 -2.43476 3.24768 0
M  V30 1531 H 163.84 -0.514606 4.82262 0
M  V30 1532 H 159.719 -1.62961 4.31236 0
M  V30 1533 H 163.263 0.597081 6.9504 0
M  V30 1534 H 159.16 -0.524242 6.43368 0
M  V30 1535 H 159.928 0.627138 8.16094 0
M  V30 1536 N 162.591 -1.51276 -0.441967 0
M  V30 1537 C 163.837 -1.63958 -1.19355 0
M  V30 1538 C 164.17 -0.352543 -1.90973 0
M  V30 1539 O 163.445 0.647627 -1.83401 0
M  V30 1540 C 163.728 -2.83979 -2.21422 0
M  V30 1541 C 163.581 -4.22646 -1.53918 0
M  V30 1542 C 164.9 -2.99521 -3.22451 0
M  V30 1543 H 162.019 -0.596709 -0.432559 0
M  V30 1544 H 164.661 -1.83748 -0.483398 0
M  V30 1545 H 162.811 -2.67237 -2.81987 0
M  V30 1546 H 164.483 -4.51045 -0.967256 0
M  V30 1547 H 162.726 -4.25558 -0.841615 0
M  V30 1548 H 163.397 -5.02609 -2.28229 0
M  V30 1549 H 165.873 -3.14944 -2.71937 0
M  V30 1550 H 164.749 -3.85072 -3.91166 0
M  V30 1551 H 165.01 -2.11391 -3.88287 0
M  V30 1552 N 164.069 0.697108 -1.41344 0
M  V30 1553 C 165.297 1.48593 -1.43972 0
M  V30 1554 C 165.712 1.88747 -0.0445612 0
M  V30 1555 O 165.069 1.56682 0.935785 0
M  V30 1556 C 165.12 2.74946 -2.34706 0
M  V30 1557 O 164.841 2.36484 -3.68791 0
M  V30 1558 C 166.342 3.687 -2.46121 0
M  V30 1559 H 163.562 0.457964 -0.490418 0
M  V30 1560 H 166.106 0.858429 -1.8561 0
M  V30 1561 H 164.261 3.33937 -1.9638 0
M  V30 1562 H 164.675 3.17918 -4.17167 0
M  V30 1563 H 166.149 4.54145 -3.13777 0
M  V30 1564 H 166.626 4.13081 -1.49199 0
M  V30 1565 H 167.232 3.15613 -2.85076 0
M  V30 1566 N 165.547 1.27147 0.931209 0
M  V30 1567 C 166.958 1.12044 1.49342 0
M  V30 1568 C 167.309 -0.295795 1.93957 0
M  V30 1569 O 166.434 -1.18835 1.80852 0
M  V30 1570 C 167.029 2.02781 2.71414 0
M  V30 1571 C 165.588 1.91794 3.2387 0
M  V30 1572 C 164.735 1.95543 1.96617 0
M  V30 1573 H 167.686 1.40091 0.745672 0
M  V30 1574 H 167.707 1.58156 3.46074 0
M  V30 1575 H 167.219 3.05848 2.38911 0
M  V30 1576 H 165.32 0.916992 3.6114 0
M  V30 1577 H 165.433 2.77852 3.90302 0
M  V30 1578 H 163.797 1.39722 2.12955 0
M  V30 1579 H 164.58 3.00259 1.66432 0
M  V30 1580 N 167.025 -1.13721 1.09112 0
M  V30 1581 C 168.441 -1.36914 0.820174 0
M  V30 1582 C 168.641 -1.93356 -0.567079 0
M  V30 1583 O 167.697 -2.15093 -1.32255 0
M  V30 1584 C 169.01 -2.3235 1.90877 0
M  V30 1585 C 170.558 -2.45973 1.93562 0
M  V30 1586 C 171.033 -3.44714 3.01556 0
M  V30 1587 N 172.524 -3.52263 3.00775 0
M  V30 1588 C 173.259 -4.28536 3.80978 0
M  V30 1589 N 172.755 -5.07991 4.71081 0
M  V30 1590 N 174.548 -4.23804 3.69251 0
M  V30 1591 H 166.699 -0.754348 1.98553 0
M  V30 1592 H 168.962 -0.3944 0.862063 0
M  V30 1593 H 168.668 -1.98027 2.90651 0
M  V30 1594 H 168.542 -3.32332 1.78424 0
M  V30 1595 H 170.929 -2.79584 0.944286 0
M  V30 1596 H 171.01 -1.45926 2.10093 0
M  V30 1597 H 170.654 -3.11835 4.00901 0
M  V30 1598 H 170.584 -4.44558 2.82269 0
M  V30 1599 H 173.075 -2.95567 2.35475 0
M  V30 1600 H 173.388 -5.63487 5.28869 0
M  V30 1601 H 171.733 -5.07235 4.75119 0
M  V30 1602 H 174.924 -3.60806 2.98222 0
M  V30 1603 H 175.097 -4.82995 4.31995 0
M  V30 1604 N 168.503 -0.877838 -1.30888 0
M  V30 1605 C 169.728 -0.506629 -2.01117 0
M  V30 1606 C 170.153 0.895564 -1.65412 0
M  V30 1607 O 169.511 1.5923 -0.866922 0
M  V30 1608 C 169.559 -0.680223 -3.54126 0
M  V30 1609 O 168.663 0.277033 -4.11468 0
M  V30 1610 H 168.004 -0.200518 -0.633 0
M  V30 1611 H 170.534 -1.18342 -1.66902 0
M  V30 1612 H 170.544 -0.5765 -4.03907 0
M  V30 1613 H 169.219 -1.70261 -3.79452 0
M  V30 1614 H 167.796 0.127606 -3.72682 0
M  V30 1615 N 169.982 1.44106 -0.638065 0
M  V30 1616 C 170.945 2.29138 0.0531013 0
M  V30 1617 C 171.945 1.41409 0.765506 0
M  V30 1618 O 173.135 1.63206 0.609046 0
M  V30 1619 C 170.267 3.23144 1.08584 0
M  V30 1620 H 171.46 2.91739 -0.694883 0
M  V30 1621 H 169.013 1.51134 -0.398538 0
M  V30 1622 H 169.748 2.65408 1.86357 0
M  V30 1623 H 169.533 3.87804 0.578852 0
M  V30 1624 H 171.023 3.87004 1.56899 0
M  V30 1625 N 171.46 0.379036 1.52974 0
M  V30 1626 C 172.707 -0.206421 2.01445 0
M  V30 1627 C 173.035 -1.47668 1.26587 0
M  V30 1628 O 172.29 -1.92514 0.351675 0
M  V30 1629 C 172.589 -0.53096 3.53434 0
M  V30 1630 C 172.255 0.646546 4.46241 0
M  V30 1631 C 170.917 0.969604 4.7133 0
M  V30 1632 C 173.269 1.43479 5.01062 0
M  V30 1633 C 170.597 2.08263 5.48492 0
M  V30 1634 C 172.949 2.53834 5.7944 0
M  V30 1635 C 171.613 2.86659 6.02812 0
M  V30 1636 H 170.883 -0.0755349 0.73714 0
M  V30 1637 H 173.53 0.514271 1.84465 0
M  V30 1638 H 171.835 -1.33285 3.68432 0
M  V30 1639 H 173.532 -0.996417 3.88423 0
M  V30 1640 H 170.122 0.384734 4.2687 0
M  V30 1641 H 174.306 1.19844 4.81613 0
M  V30 1642 H 169.562 2.34078 5.64816 0
M  V30 1643 H 173.736 3.15319 6.20924 0
M  V30 1644 H 171.363 3.73026 6.62387 0
M  V30 1645 N 172.938 -1.57226 0.108567 0
M  V30 1646 C 174.163 -1.99604 -0.563303 0
M  V30 1647 C 174.588 -0.987563 -1.6009 0
M  V30 1648 O 173.946 0.0421687 -1.81251 0
M  V30 1649 C 173.994 -3.40902 -1.17552 0
M  V30 1650 O 173.098 -3.42896 -2.2912 0
M  V30 1651 H 172.439 -0.648704 -0.1417 0
M  V30 1652 H 174.969 -2.03679 0.193961 0
M  V30 1653 H 174.979 -3.78886 -1.51357 0
M  V30 1654 H 173.654 -4.1382 -0.415445 0
M  V30 1655 H 172.231 -3.1672 -1.96832 0
M  V30 1656 N 174.416 0.165178 -1.56732 0
M  V30 1657 C 175.641 0.900253 -1.86843 0
M  V30 1658 C 176.066 1.74766 -0.695596 0
M  V30 1659 O 175.424 1.77786 0.35522 0
M  V30 1660 C 175.472 1.74777 -3.15413 0
M  V30 1661 O 174.576 2.85007 -2.98068 0
M  V30 1662 H 173.917 0.251832 -0.614391 0
M  V30 1663 H 176.447 0.161468 -2.03962 0
M  V30 1664 H 176.457 2.14646 -3.46974 0
M  V30 1665 H 175.132 1.12537 -4.00385 0
M  V30 1666 H 173.709 2.48676 -2.77875 0
M  V30 1667 N 175.894 1.51508 0.433938 0
M  V30 1668 C 177.31 1.39759 0.770682 0
M  V30 1669 C 177.51 0.482594 1.95636 0
M  V30 1670 O 176.566 -0.0609691 2.52426 0
M  V30 1671 C 177.879 2.81851 1.04787 0
M  V30 1672 C 179.427 2.91025 1.1521 0
M  V30 1673 C 179.902 4.34032 1.46219 0
M  V30 1674 N 181.393 4.37154 1.53136 0
M  V30 1675 C 182.128 5.4484 1.78709 0
M  V30 1676 N 181.624 6.62682 2.02051 0
M  V30 1677 N 183.417 5.32324 1.80519 0
M  V30 1678 H 175.568 2.09548 -0.346892 0
M  V30 1679 H 177.831 0.943446 -0.0928074 0
M  V30 1680 H 177.537 3.50815 0.249304 0
M  V30 1681 H 177.411 3.21386 1.97461 0
M  V30 1682 H 179.798 2.22257 1.94128 0
M  V30 1683 H 179.879 2.54983 0.204281 0
M  V30 1684 H 179.523 5.03351 0.678274 0
M  V30 1685 H 179.453 4.6759 2.42212 0
M  V30 1686 H 181.944 3.52197 1.36987 0
M  V30 1687 H 182.257 7.40543 2.20943 0
M  V30 1688 H 180.602 6.65791 1.99366 0
M  V30 1689 H 183.793 4.39246 1.61805 0
M  V30 1690 H 183.966 6.16328 2.00111 0
M  V30 1691 N 177.372 -0.689602 1.41712 0
M  V30 1692 C 178.612 -1.46184 1.42862 0
M  V30 1693 C 178.976 -1.91962 0.0382204 0
M  V30 1694 O 180.177 -2.68694 -0.0755019 0
M  V30 1695 C 178.448 -2.6371 2.4123 0
M  V30 1696 S 180.007 -3.52768 2.6096 0
M  V30 1697 H 176.825 -0.49947 0.506015 0
M  V30 1698 H 179.427 -0.804107 1.78198 0
M  V30 1699 H 178.131 -2.28293 3.41044 0
M  V30 1700 H 177.662 -3.3437 2.07269 0
M  V30 1701 H 179.677 -4.59146 1.88148 0
M  V30 1702 N 178.85 -1.27639 -0.924453 0
M  V30 1703 C 179.782 -1.06442 -2.02985 0
M  V30 1704 C 180.795 -0.0194771 -1.62788 0
M  V30 1705 O 181.984 -0.261388 -1.76576 0
M  V30 1706 C 179.084 -0.59327 -3.33667 0
M  V30 1707 C 178.257 -1.71123 -4.02537 0
M  V30 1708 C 177.316 -1.23527 -5.11495 0
M  V30 1709 O 176.342 -1.93553 -5.35281 0
M  V30 1710 N 177.544 -0.0926678 -5.80426 0
M  V30 1711 H 180.309 -2.01633 -2.2173 0
M  V30 1712 H 177.87 -1.19248 -1.09505 0
M  V30 1713 H 179.862 -0.258686 -4.03872 0
M  V30 1714 H 178.432 0.265502 -3.1147 0
M  V30 1715 H 177.652 -2.21593 -3.26022 0
M  V30 1716 H 178.94 -2.46145 -4.45298 0
M  V30 1717 H 178.338 0.491741 -5.63559 0
M  V30 1718 H 176.895 0.182714 -6.51544 0
M  V30 1719 N 180.328 1.1314 -1.09713 0
M  V30 1720 C 181.739 1.66029 -0.853885 0
M  V30 1721 C 182.09 1.86241 0.617142 0
M  V30 1722 O 181.215 1.5834 1.47503 0
M  V30 1723 C 181.81 3.01599 -1.5435 0
M  V30 1724 C 180.369 3.51467 -1.34714 0
M  V30 1725 C 179.516 2.26648 -1.59769 0
M  V30 1726 H 182.467 0.970226 -1.25588 0
M  V30 1727 H 182.488 3.67709 -0.978267 0
M  V30 1728 H 182 2.86856 -2.6141 0
M  V30 1729 H 180.101 3.71408 -0.297838 0
M  V30 1730 H 180.214 4.314 -2.08401 0
M  V30 1731 H 178.578 2.33385 -1.01998 0
M  V30 1732 H 179.361 2.14467 -2.68065 0
M  V30 1733 N 181.806 0.884767 1.30421 0
M  V30 1734 C 183.054 0.502112 1.95763 0
M  V30 1735 C 183.375 -0.951815 1.70192 0
M  V30 1736 O 182.645 -1.6692 1.0254 0
M  V30 1737 H 181.225 0.182694 0.724315 0
M  V30 1738 H 183.887 1.1278 1.58955 0
M  V30 1739 H 182.983 0.672188 3.04775 0
M  V30 1740 N 183.284 -1.43765 0.645699 0
M  V30 1741 C 184.532 -2.01499 0.155731 0
M  V30 1742 C 184.853 -1.51151 -1.232 0
M  V30 1743 O 184.123 -0.721044 -1.82148 0
M  V30 1744 H 182.703 -0.745003 0.0545817 0
M  V30 1745 H 185.365 -1.76075 0.835677 0
M  V30 1746 H 184.461 -3.1181 0.134577 0
M  V30 1747 N 184.763 -0.387143 -1.52771 0
M  V30 1748 C 185.673 0.456442 -2.30117 0
M  V30 1749 C 186.689 1.07342 -1.36944 0
M  V30 1750 O 187.865 1.07971 -1.70013 0
M  V30 1751 C 184.93 1.56957 -3.09136 0
M  V30 1752 C 183.991 0.977916 -4.18014 0
M  V30 1753 C 183.224 2.038 -4.93256 0
M  V30 1754 O 183.447 3.25271 -4.68567 0
M  V30 1755 O 182.381 1.6565 -5.78657 0
M  V30 1756 H 186.207 -0.17359 -3.03203 0
M  V30 1757 H 183.792 -0.150919 -1.48636 0
M  V30 1758 H 185.674 2.21628 -3.58412 0
M  V30 1759 H 184.349 2.18461 -2.38865 0
M  V30 1760 H 183.256 0.294525 -3.72939 0
M  V30 1761 H 184.589 0.407128 -4.90513 0
M  V30 1762 N 186.241 1.57166 -0.116904 0
M  V30 1763 C 187.518 1.86645 0.585049 0
M  V30 1764 C 187.898 1.0177 1.84949 0
M  V30 1765 O 187.246 0.0960379 2.28298 0
M  V30 1766 C 187.456 3.37736 0.879507 0
M  V30 1767 C 188.804 4.06289 1.23348 0
M  V30 1768 O 189.828 3.42743 0.969836 0
M  V30 1769 O 188.687 5.18455 1.7282 0
M  V30 1770 H 185.781 0.772593 0.295007 0
M  V30 1771 H 188.327 1.69025 -0.151249 0
M  V30 1772 H 187.099 3.91296 -0.0166136 0
M  V30 1773 H 186.722 3.6078 1.67103 0
M  V30 1774 N 187.719 -0.156864 1.56817 0
M  V30 1775 C 189.13 -0.717916 1.72345 0
M  V30 1776 C 189.481 -1.82124 0.729747 0
M  V30 1777 O 188.606 -2.16141 -0.105781 0
M  V30 1778 C 189.201 -1.30904 3.12489 0
M  V30 1779 C 187.76 -1.81676 3.29653 0
M  V30 1780 C 186.907 -0.701349 2.68284 0
M  V30 1781 H 189.858 0.0686989 1.58551 0
M  V30 1782 H 189.879 -2.17882 3.11942 0
M  V30 1783 H 189.391 -0.505796 3.8479 0
M  V30 1784 H 187.492 -2.64598 2.62333 0
M  V30 1785 H 187.605 -1.95226 4.3752 0
M  V30 1786 H 185.969 -1.12548 2.28484 0
M  V30 1787 H 186.752 0.0902846 3.43181 0
M  V30 1788 N 189.197 -1.51736 -0.425897 0
M  V30 1789 C 190.422 -1.69082 -1.20108 0
M  V30 1790 C 190.847 -0.392398 -1.83962 0
M  V30 1791 O 190.205 0.64858 -1.69302 0
M  V30 1792 C 190.253 -2.81604 -2.25237 0
M  V30 1793 O 189.357 -2.46004 -3.30992 0
M  V30 1794 H 188.698 -0.563408 -0.35138 0
M  V30 1795 H 191.228 -1.98358 -0.501512 0
M  V30 1796 H 191.238 -3.06025 -2.69838 0
M  V30 1797 H 189.913 -3.75817 -1.78142 0
M  V30 1798 H 188.49 -2.32195 -2.91787 0
M  V30 1799 N 190.675 0.682077 -1.42076 0
M  V30 1800 C 191.915 1.45424 -1.43636 0
M  V30 1801 C 192.279 1.91939 -0.0484001 0
M  V30 1802 O 193.48 2.6873 0.0612514 0
M  V30 1803 C 191.751 2.62427 -2.42625 0
M  V30 1804 S 193.31 3.51379 -2.62827 0
M  V30 1805 H 190.128 0.496779 -0.508657 0
M  V30 1806 H 192.73 0.794645 -1.78621 0
M  V30 1807 H 191.434 2.26481 -3.42249 0
M  V30 1808 H 190.965 3.33266 -2.09039 0
M  V30 1809 H 192.98 4.58141 -1.9058 0
M  V30 1810 N 192.153 1.28127 0.917671 0
M  V30 1811 C 193.383 1.17722 1.6978 0
M  V30 1812 C 193.791 -0.267261 1.87303 0
M  V30 1813 O 193.134 -1.19286 1.39702 0
M  V30 1814 C 193.196 1.79958 3.11216 0
M  V30 1815 C 192.86 3.29187 3.16993 0
M  V30 1816 C 193.857 4.25679 2.98485 0
M  V30 1817 C 191.542 3.70075 3.39632 0
M  V30 1818 C 193.536 5.61035 3.02521 0
M  V30 1819 C 191.223 5.05557 3.433 0
M  V30 1820 C 192.221 6.00847 3.24764 0
M  V30 1821 O 191.909 7.33859 3.28187 0
M  V30 1822 H 191.641 0.409788 0.537634 0
M  V30 1823 H 194.195 1.69694 1.15728 0
M  V30 1824 H 192.425 1.22475 3.66793 0
M  V30 1825 H 194.114 1.64125 3.71238 0
M  V30 1826 H 194.88 3.95426 2.80826 0
M  V30 1827 H 190.759 2.96373 3.53106 0
M  V30 1828 H 194.303 6.35388 2.87971 0
M  V30 1829 H 190.2 5.35462 3.60486 0
M  V30 1830 H 190.968 7.42436 3.44575 0
M  V30 1831 N 193.631 -1.12557 1.10312 0
M  V30 1832 C 195.042 -1.65574 0.862678 0
M  V30 1833 C 195.393 -1.86566 -0.607256 0
M  V30 1834 O 194.518 -1.59121 -1.46662 0
M  V30 1835 C 195.113 -3.00776 1.55947 0
M  V30 1836 C 193.672 -3.50748 1.36576 0
M  V30 1837 C 192.819 -2.25797 1.60968 0
M  V30 1838 H 195.77 -0.963552 1.26101 0
M  V30 1839 H 195.791 -3.67185 0.997753 0
M  V30 1840 H 195.303 -2.85465 2.62928 0
M  V30 1841 H 193.404 -3.71245 0.317531 0
M  V30 1842 H 193.517 -4.30289 2.10686 0
M  V30 1843 H 191.881 -2.32841 1.03234 0
M  V30 1844 H 192.664 -2.13043 2.69198 0
M  V30 1845 N 195.109 -0.891671 -1.2995 0
M  V30 1846 C 196.52 -0.563104 -1.78006 0
M  V30 1847 C 196.871 0.920978 -1.73241 0
M  V30 1848 O 195.996 1.71987 -1.31337 0
M  V30 1849 C 196.591 -1.01539 -3.23226 0
M  V30 1850 C 195.15 -0.738124 -3.69092 0
M  V30 1851 C 194.297 -1.19461 -2.50249 0
M  V30 1852 H 197.248 -1.07522 -1.16725 0
M  V30 1853 H 197.269 -0.347217 -3.78912 0
M  V30 1854 H 196.781 -2.09555 -3.26662 0
M  V30 1855 H 194.882 0.329766 -3.71138 0
M  V30 1856 H 194.995 -1.33037 -4.60259 0
M  V30 1857 H 193.359 -0.613787 -2.47194 0
M  V30 1858 H 194.142 -2.28265 -2.56417 0
M  V30 1859 N 196.587 1.43421 -0.653314 0
M  V30 1860 C 197.836 2.01032 -0.164076 0
M  V30 1861 C 198.149 1.52147 1.22926 0
M  V30 1862 O 199.355 2.02031 1.81371 0
M  V30 1863 C 197.811 3.59082 -0.24252 0
M  V30 1864 C 197.419 4.1696 -1.63855 0
M  V30 1865 C 199.163 4.24079 0.18911 0
M  V30 1866 C 197.07 5.67304 -1.67092 0
M  V30 1867 H 196 0.751798 -0.0575769 0
M  V30 1868 H 198.651 1.6439 -0.815362 0
M  V30 1869 H 197.033 3.93125 0.476276 0
M  V30 1870 H 198.207 3.94416 -2.38271 0
M  V30 1871 H 196.522 3.64335 -2.01616 0
M  V30 1872 H 199.119 5.34381 0.184775 0
M  V30 1873 H 199.462 3.98005 1.22056 0
M  V30 1874 H 199.995 3.94918 -0.477938 0
M  V30 1875 H 196.734 5.98145 -2.68146 0
M  V30 1876 H 196.254 5.91904 -0.970014 0
M  V30 1877 H 197.933 6.31344 -1.4147 0
M  V30 1878 N 198.065 0.39524 1.52563 0
M  V30 1879 C 198.997 -0.472201 2.24283 0
M  V30 1880 C 200.01 -1.02178 1.26742 0
M  V30 1881 O 201.199 -0.923097 1.52778 0
M  V30 1882 C 198.299 -1.66775 2.95024 0
M  V30 1883 C 197.472 -1.2445 4.19322 0
M  V30 1884 C 196.531 -2.30539 4.7301 0
M  V30 1885 O 195.557 -1.91702 5.35947 0
M  V30 1886 N 196.759 -3.6253 4.53379 0
M  V30 1887 H 199.524 0.142282 2.99362 0
M  V30 1888 H 197.085 0.2219 1.60372 0
M  V30 1889 H 199.077 -2.37283 3.27839 0
M  V30 1890 H 197.647 -2.18845 2.23217 0
M  V30 1891 H 196.867 -0.368069 3.92478 0
M  V30 1892 H 198.155 -0.938457 5.0007 0
M  V30 1893 H 197.553 -3.96841 4.03154 0
M  V30 1894 H 196.11 -4.29055 4.90668 0
M  V30 1895 N 199.544 -1.57102 0.125237 0
M  V30 1896 C 200.474 -2.18659 -0.819174 0
M  V30 1897 C 201.455 -1.12843 -1.27281 0
M  V30 1898 O 202.64 -1.41104 -1.33429 0
M  V30 1899 C 199.77 -2.79096 -2.06695 0
M  V30 1900 C 198.724 -3.90548 -1.75088 0
M  V30 1901 C 198.05 -4.37821 -3.06948 0
M  V30 1902 C 199.35 -5.12356 -1.01435 0
M  V30 1903 H 201.044 -2.9783 -0.306202 0
M  V30 1904 H 198.59 -1.4326 -0.145839 0
M  V30 1905 H 200.543 -3.2082 -2.73226 0
M  V30 1906 H 199.267 -1.97223 -2.60328 0
M  V30 1907 H 197.926 -3.49409 -1.10944 0
M  V30 1908 H 197.574 -3.52799 -3.58527 0
M  V30 1909 H 197.274 -5.12982 -2.86571 0
M  V30 1910 H 198.798 -4.822 -3.74587 0
M  V30 1911 H 200.212 -5.5106 -1.58132 0
M  V30 1912 H 198.609 -5.9314 -0.911319 0
M  V30 1913 H 199.679 -4.849 -0.00218681 0
M  V30 1914 N 201.022 0.148545 -1.56898 0
M  V30 1915 C 201.952 1.18524 -2.01182 0
M  V30 1916 C 202.933 1.4489 -0.891123 0
M  V30 1917 O 204.118 1.55836 -1.15882 0
M  V30 1918 C 201.248 2.51879 -2.39112 0
M  V30 1919 C 200.202 2.40038 -3.54353 0
M  V30 1920 C 199.528 3.78089 -3.78091 0
M  V30 1921 C 200.828 1.88577 -4.87069 0
M  V30 1922 H 202.522 0.817029 -2.88036 0
M  V30 1923 H 200.068 0.391575 -1.38574 0
M  V30 1924 H 202.021 3.24627 -2.68692 0
M  V30 1925 H 200.745 2.90532 -1.49193 0
M  V30 1926 H 199.404 1.69742 -3.24936 0
M  V30 1927 H 199.052 4.14175 -2.85426 0
M  V30 1928 H 198.752 3.71028 -4.55645 0
M  V30 1929 H 200.276 4.52387 -4.10095 0
M  V30 1930 H 201.69 2.51117 -5.15377 0
M  V30 1931 H 200.087 1.9241 -5.68417 0
M  V30 1932 H 201.157 0.84136 -4.77545 0
M  V30 1933 N 202.5 1.5196 0.417844 0
M  V30 1934 C 203.41 1.77554 1.53336 0
M  V30 1935 C 204.426 0.660655 1.6097 0
M  V30 1936 O 205.602 0.945099 1.77848 0
M  V30 1937 C 202.667 1.91291 2.89152 0
M  V30 1938 C 201.728 3.15183 2.91475 0
M  V30 1939 C 200.961 3.28256 4.20813 0
M  V30 1940 O 201.184 2.46798 5.14244 0
M  V30 1941 O 200.118 4.21356 4.29817 0
M  V30 1942 H 203.944 2.7222 1.34647 0
M  V30 1943 H 201.529 1.36698 0.602828 0
M  V30 1944 H 203.411 2.02199 3.69721 0
M  V30 1945 H 202.086 0.998129 3.07927 0
M  V30 1946 H 200.993 3.09739 2.09791 0
M  V30 1947 H 202.326 4.06414 2.77648 0
M  V30 1948 N 203.978 -0.674533 1.42435 0
M  V30 1949 C 205.227 -1.43034 1.42212 0
M  V30 1950 C 205.54 -1.95555 0.0420788 0
M  V30 1951 O 206.746 -2.71374 -0.0827558 0
M  V30 1952 C 205.202 -2.58748 2.50155 0
M  V30 1953 C 204.81 -2.12925 3.94166 0
M  V30 1954 C 206.554 -3.36257 2.59098 0
M  V30 1955 C 204.461 -3.25723 4.93618 0
M  V30 1956 H 203.391 -0.537345 0.528939 0
M  V30 1957 H 206.042 -0.73024 1.68344 0
M  V30 1958 H 204.424 -3.31128 2.17188 0
M  V30 1959 H 205.598 -1.47697 4.36488 0
M  V30 1960 H 203.913 -1.48354 3.89076 0
M  V30 1961 H 206.51 -4.20264 3.30578 0
M  V30 1962 H 206.853 -3.82866 1.63461 0
M  V30 1963 H 207.386 -2.70947 2.9126 0
M  V30 1964 H 204.125 -2.84105 5.90732 0
M  V30 1965 H 203.645 -3.89732 4.55926 0
M  V30 1966 H 205.324 -3.91186 5.15347 0
M  V30 1967 N 205.456 -1.28612 -0.910864 0
M  V30 1968 C 206.733 -1.06632 -1.63979 0
M  V30 1969 C 207.113 0.393351 -2.07403 0
M  V30 1970 O 206.461 1.37999 -1.82122 0
M  V30 1971 C 206.671 -2.0436 -2.8291 0
M  V30 1972 C 208.019 -2.34666 -3.5386 0
M  V30 1973 O 209.043 -2.02467 -2.93062 0
M  V30 1974 O 207.902 -2.89631 -4.63439 0
M  V30 1975 H 204.996 -0.407737 -0.7195 0
M  V30 1976 H 207.542 -1.39942 -0.959914 0
M  V30 1977 H 206.314 -3.02727 -2.47936 0
M  V30 1978 H 205.937 -1.71714 -3.58609 0
M  V30 1979 N 206.934 1.1197 -1.10907 0
M  V30 1980 C 208.181 1.83588 -0.854507 0
M  V30 1981 C 208.509 1.84357 0.6199 0
M  V30 1982 O 207.764 1.28809 1.47332 0
M  V30 1983 C 208.063 3.30749 -1.35425 0
M  V30 1984 C 207.729 3.50146 -2.84093 0
M  V30 1985 C 206.391 3.55148 -3.2469 0
M  V30 1986 C 208.743 3.56857 -3.79872 0
M  V30 1987 C 206.071 3.6441 -4.59806 0
M  V30 1988 C 208.423 3.6765 -5.14797 0
M  V30 1989 C 207.087 3.7091 -5.54961 0
M  V30 1990 H 206.357 0.671795 -0.312686 0
M  V30 1991 H 209.004 1.32091 -1.38652 0
M  V30 1992 H 207.309 3.84703 -0.742361 0
M  V30 1993 H 209.006 3.8464 -1.1337 0
M  V30 1994 H 205.596 3.46919 -2.51685 0
M  V30 1995 H 209.78 3.52258 -3.49611 0
M  V30 1996 H 205.036 3.65208 -4.9034 0
M  V30 1997 H 209.21 3.71786 -5.88853 0
M  V30 1998 H 206.837 3.7784 -6.59652 0
M  V30 1999 N 208.412 0.89855 1.29475 0
M  V30 2000 C 209.375 0.380272 2.26023 0
M  V30 2001 C 210.375 -0.484891 1.53315 0
M  V30 2002 O 211.565 -0.290108 1.71767 0
M  V30 2003 C 208.697 -0.45651 3.3783 0
M  V30 2004 H 209.89 1.23295 2.73383 0
M  V30 2005 H 207.443 0.676589 1.40897 0
M  V30 2006 H 208.178 -1.32922 2.95808 0
M  V30 2007 H 207.963 0.163393 3.91759 0
M  V30 2008 H 209.453 -0.810466 4.0966 0
M  V30 2009 N 209.89 -1.43072 0.660911 0
M  V30 2010 C 210.8 -2.34585 -0.0264163 0
M  V30 2011 C 211.816 -1.54316 -0.803898 0
M  V30 2012 O 212.992 -1.86939 -0.749391 0
M  V30 2013 C 210.057 -3.32689 -0.975639 0
M  V30 2014 C 209.118 -4.2886 -0.194236 0
M  V30 2015 C 208.351 -5.22278 -1.09825 0
M  V30 2016 O 208.574 -5.20299 -2.33763 0
M  V30 2017 O 207.508 -5.99228 -0.566513 0
M  V30 2018 H 211.334 -2.94869 0.727034 0
M  V30 2019 H 208.919 -1.43342 0.42111 0
M  V30 2020 H 210.801 -3.92995 -1.52094 0
M  V30 2021 H 209.476 -2.74898 -1.70918 0
M  V30 2022 H 208.383 -3.72011 0.394835 0
M  V30 2023 H 209.716 -4.89655 0.499899 0
M  V30 2024 N 211.368 -0.403325 -1.52352 0
M  V30 2025 C 212.298 0.416205 -2.29761 0
M  V30 2026 C 213.279 1.05123 -1.33728 0
M  V30 2027 O 214.464 1.06134 -1.62632 0
M  V30 2028 C 211.594 1.53624 -3.11475 0
M  V30 2029 C 210.548 1.02653 -4.15507 0
M  V30 2030 C 209.874 2.23971 -4.85532 0
M  V30 2031 C 211.174 0.08463 -5.22231 0
M  V30 2032 H 212.868 -0.229701 -2.98518 0
M  V30 2033 H 210.414 -0.111913 -1.43564 0
M  V30 2034 H 212.367 2.1165 -3.64393 0
M  V30 2035 H 211.091 2.20994 -2.40477 0
M  V30 2036 H 209.75 0.46871 -3.63591 0
M  V30 2037 H 209.398 2.89883 -4.11068 0
M  V30 2038 H 209.098 1.90521 -5.55856 0
M  V30 2039 H 210.622 2.82614 -5.41259 0
M  V30 2040 H 212.036 0.573509 -5.70424 0
M  V30 2041 H 210.433 -0.160783 -5.99885 0
M  V30 2042 H 211.503 -0.86237 -4.7717 0
M  V30 2043 N 212.846 1.57033 -0.133567 0
M  V30 2044 C 214.074 2.00044 0.528195 0
M  V30 2045 C 214.489 1.01349 1.59291 0
M  V30 2046 O 213.846 0.00848369 1.82498 0
M  V30 2047 C 213.897 3.43018 1.1411 0
M  V30 2048 O 213.618 4.37939 0.11892 0
M  V30 2049 C 215.119 4.01237 1.88477 0
M  V30 2050 H 212.339 0.656517 0.138661 0
M  V30 2051 H 214.883 2.03267 -0.224196 0
M  V30 2052 H 213.038 3.40688 1.84418 0
M  V30 2053 H 213.452 5.21436 0.56613 0
M  V30 2054 H 214.926 5.03314 2.26669 0
M  V30 2055 H 215.403 3.41193 2.76558 0
M  V30 2056 H 216.009 4.07156 1.22898 0
M  V30 2057 N 214.325 -0.140222 1.56975 0
M  V30 2058 C 215.255 -1.17456 2.01808 0
M  V30 2059 C 216.236 -1.44415 0.898794 0
M  V30 2060 O 217.421 -1.5522 1.16707 0
M  V30 2061 C 214.551 -2.50607 2.40444 0
M  V30 2062 C 213.505 -2.38155 3.55621 0
M  V30 2063 C 212.831 -3.76078 3.80091 0
M  V30 2064 C 214.131 -1.85991 4.88062 0
M  V30 2065 H 215.825 -0.801743 2.88466 0
M  V30 2066 H 213.371 -0.38422 1.38779 0
M  V30 2067 H 215.324 -3.23197 2.7041 0
M  V30 2068 H 214.048 -2.89737 1.50732 0
M  V30 2069 H 212.707 -1.68016 3.25832 0
M  V30 2070 H 212.355 -4.12656 2.87618 0
M  V30 2071 H 212.055 -3.68606 4.57606 0
M  V30 2072 H 213.579 -4.50206 4.12488 0
M  V30 2073 H 214.993 -2.4838 5.16701 0
M  V30 2074 H 213.39 -1.89393 5.6943 0
M  V30 2075 H 214.46 -0.816023 4.77984 0
M  V30 2076 N 215.803 -1.52179 -0.40978 0
M  V30 2077 C 216.713 -1.78364 -1.52392 0
M  V30 2078 C 217.729 -0.669183 -1.60617 0
M  V30 2079 O 218.905 -0.954518 -1.77344 0
M  V30 2080 C 215.97 -1.92822 -2.88133 0
M  V30 2081 C 215.031 -3.16725 -2.898 0
M  V30 2082 C 214.264 -3.30483 -4.19067 0
M  V30 2083 O 214.487 -2.49522 -5.12928 0
M  V30 2084 O 213.421 -4.2363 -4.27576 0
M  V30 2085 H 217.247 -2.72931 -1.33201 0
M  V30 2086 H 214.832 -1.37016 -0.59557 0
M  V30 2087 H 216.714 -2.04157 -3.68643 0
M  V30 2088 H 215.389 -1.01444 -3.07393 0
M  V30 2089 H 214.296 -3.10848 -2.08146 0
M  V30 2090 H 215.629 -4.07881 -2.75489 0
M  V30 2091 N 217.281 0.66697 -1.42791 0
M  V30 2092 C 218.191 1.80962 -1.49299 0
M  V30 2093 C 219.207 1.69775 -0.381108 0
M  V30 2094 O 220.383 1.91188 -0.633188 0
M  V30 2095 C 217.448 3.17156 -1.40045 0
M  V30 2096 C 216.509 3.40242 -2.6179 0
M  V30 2097 C 215.742 4.69939 -2.52969 0
M  V30 2098 O 215.965 5.48372 -1.56985 0
M  V30 2099 O 214.899 4.94441 -3.43237 0
M  V30 2100 H 218.725 1.78427 -2.45759 0
M  V30 2101 H 216.31 0.823713 -1.24641 0
M  V30 2102 H 218.192 3.98413 -1.37276 0
M  V30 2103 H 216.867 3.20312 -0.467138 0
M  V30 2104 H 215.774 2.58802 -2.70134 0
M  V30 2105 H 217.107 3.41923 -3.54047 0
M  V30 2106 N 218.759 1.29093 0.90403 0
M  V30 2107 C 220.008 1.16187 1.64874 0
M  V30 2108 C 220.321 -0.286742 1.93487 0
M  V30 2109 O 221.527 -0.537062 2.66135 0
M  V30 2110 C 219.983 2.03177 2.97064 0
M  V30 2111 C 219.591 3.52836 2.76062 0
M  V30 2112 C 221.335 1.98984 3.74974 0
M  V30 2113 C 219.242 4.31945 4.03952 0
M  V30 2114 H 218.172 0.431246 0.618501 0
M  V30 2115 H 220.823 1.53699 1.00243 0
M  V30 2116 H 219.205 1.5853 3.62883 0
M  V30 2117 H 220.379 4.05507 2.18863 0
M  V30 2118 H 218.694 3.58656 2.11553 0
M  V30 2119 H 221.291 2.55351 4.69787 0
M  V30 2120 H 221.634 0.968815 4.0487 0
M  V30 2121 H 222.167 2.41652 3.15989 0
M  V30 2122 H 218.906 5.34667 3.79225 0
M  V30 2123 H 218.426 3.84045 4.60727 0
M  V30 2124 H 220.105 4.42379 4.72133 0
M  V30 2125 N 220.237 -1.11381 1.11499 0
M  V30 2126 C 221.486 -1.82494 0.858993 0
M  V30 2127 C 221.799 -1.85605 -0.617278 0
M  V30 2128 O 223.005 -2.52824 -0.989552 0
M  V30 2129 C 221.461 -3.27745 1.48699 0
M  V30 2130 C 221.069 -3.32961 2.99735 0
M  V30 2131 C 222.813 -4.03754 1.31085 0
M  V30 2132 C 220.72 -4.72612 3.55516 0
M  V30 2133 H 219.65 -0.683802 0.317696 0
M  V30 2134 H 222.301 -1.25331 1.34031 0
M  V30 2135 H 220.683 -3.84844 0.933339 0
M  V30 2136 H 221.857 -2.85741 3.61509 0
M  V30 2137 H 220.172 -2.70433 3.16631 0
M  V30 2138 H 222.769 -5.06891 1.70192 0
M  V30 2139 H 223.112 -4.15527 0.253496 0
M  V30 2140 H 223.645 -3.53043 1.83318 0
M  V30 2141 H 220.384 -4.66036 4.60967 0
M  V30 2142 H 219.904 -5.2024 2.98513 0
M  V30 2143 H 221.583 -5.4157 3.53992 0
M  V30 2144 N 221.715 -0.905404 -1.28997 0
M  V30 2145 C 222.963 -0.533192 -1.9494 0
M  V30 2146 C 223.284 0.924618 -1.71685 0
M  V30 2147 O 222.554 1.65268 -1.05183 0
M  V30 2148 H 221.134 -0.194194 -0.721317 0
M  V30 2149 H 223.796 -1.15294 -1.57141 0
M  V30 2150 H 222.892 -0.72059 -3.03667 0
M  V30 2151 N 223.193 1.4272 -0.668489 0
M  V30 2152 C 224.442 2.00846 -0.185389 0
M  V30 2153 C 224.755 1.53442 1.21305 0
M  V30 2154 O 225.961 2.03944 1.79218 0
M  V30 2155 C 224.417 3.58805 -0.280591 0
M  V30 2156 C 224.025 4.15198 -1.68268 0
M  V30 2157 C 225.769 4.24255 0.14412 0
M  V30 2158 C 223.676 5.655 -1.73099 0
M  V30 2159 H 222.606 0.751145 -0.0655475 0
M  V30 2160 H 225.257 1.63516 -0.832752 0
M  V30 2161 H 223.639 3.93608 0.434553 0
M  V30 2162 H 224.813 3.91866 -2.42441 0
M  V30 2163 H 223.128 3.62176 -2.05469 0
M  V30 2164 H 225.725 5.34547 0.128086 0
M  V30 2165 H 226.068 3.99277 1.17827 0
M  V30 2166 H 226.601 3.94389 -0.519798 0
M  V30 2167 H 223.34 5.95268 -2.74475 0
M  V30 2168 H 222.86 5.90842 -1.03274 0
M  V30 2169 H 224.539 6.29808 -1.48158 0
M  V30 2170 N 224.671 0.411399 1.52136 0
M  V30 2171 C 225.919 -0.163322 2.01439 0
M  V30 2172 C 226.24 -1.45453 1.29879 0
M  V30 2173 O 225.51 -1.91225 0.4254 0
M  V30 2174 H 224.09 -0.0633447 0.744309 0
M  V30 2175 H 226.752 0.548161 1.87033 0
M  V30 2176 H 225.848 -0.357817 3.10042 0
M  V30 2177 N 226.149 -1.5696 0.141893 0
M  V30 2178 C 227.397 -1.95573 -0.509484 0
M  V30 2179 C 227.718 -1.02746 -1.65736 0
M  V30 2180 O 226.988 -0.0880311 -1.95702 0
M  V30 2181 H 225.568 -0.722115 -0.191205 0
M  V30 2182 H 228.23 -1.93697 0.216196 0
M  V30 2183 H 227.326 -2.99171 -0.889 0
M  V30 2184 N 227.627 0.131896 -1.57047 0
M  V30 2185 C 228.874 0.841932 -1.84168 0
M  V30 2186 C 229.202 1.8048 -0.725066 0
M  V30 2187 O 228.457 1.93618 0.284692 0
M  V30 2188 C 228.756 1.63703 -3.17704 0
M  V30 2189 C 228.422 0.81961 -4.43388 0
M  V30 2190 C 227.084 0.594148 -4.77518 0
M  V30 2191 C 229.436 0.248977 -5.20605 0
M  V30 2192 C 226.764 -0.212409 -5.86315 0
M  V30 2193 C 229.116 -0.544701 -6.30251 0
M  V30 2194 C 227.78 -0.780599 -6.6292 0
M  V30 2195 H 227.05 0.308085 -0.673917 0
M  V30 2196 H 229.697 0.104867 -1.91213 0
M  V30 2197 H 228.002 2.44464 -3.06177 0
M  V30 2198 H 229.699 2.19015 -3.35907 0
M  V30 2199 H 226.289 1.00542 -4.16641 0
M  V30 2200 H 230.473 0.410408 -4.946 0
M  V30 2201 H 225.729 -0.404524 -6.1006 0
M  V30 2202 H 229.903 -0.993922 -6.89271 0
M  V30 2203 H 227.53 -1.40742 -7.47058 0
M  V30 2204 N 229.106 1.52395 0.401703 0
M  V30 2205 C 230.354 1.66488 1.14569 0
M  V30 2206 C 230.675 0.400897 1.90835 0
M  V30 2207 O 229.945 -0.584415 1.8698 0
M  V30 2208 H 228.525 0.613672 0.425929 0
M  V30 2209 H 231.187 1.89464 0.457093 0
M  V30 2210 H 230.283 2.50942 1.85566 0
M  V30 2211 N 230.584 -0.659388 1.43143 0
M  V30 2212 C 231.531 -1.77249 1.47822 0
M  V30 2213 C 232.501 -1.62818 0.328558 0
M  V30 2214 O 233.686 -1.83151 0.534838 0
M  V30 2215 C 230.826 -3.15371 1.40126 0
M  V30 2216 C 229.939 -3.4098 2.65249 0
M  V30 2217 C 229.074 -4.68915 2.49584 0
M  V30 2218 C 228.113 -4.87608 3.70006 0
M  V30 2219 N 227.25 -6.06796 3.53189 0
M  V30 2220 H 232.09 -1.72584 2.42938 0
M  V30 2221 H 229.627 -0.842297 1.20598 0
M  V30 2222 H 231.585 -3.9521 1.33659 0
M  V30 2223 H 230.215 -3.19121 0.485964 0
M  V30 2224 H 229.267 -2.55282 2.8202 0
M  V30 2225 H 230.579 -3.50681 3.54717 0
M  V30 2226 H 229.733 -5.56871 2.4079 0
M  V30 2227 H 228.472 -4.61524 1.5763 0
M  V30 2228 H 227.477 -3.9809 3.79215 0
M  V30 2229 H 228.702 -4.96834 4.62961 0
M  V30 2230 H 226.648 -6.00549 2.63965 0
M  V30 2231 H 226.565 -6.17428 4.36255 0
M  V30 2232 H 227.833 -6.9739 3.48236 0
M  V30 2233 N 232.062 -1.29571 -0.897171 0
M  V30 2234 C 233.308 -1.17863 -1.65034 0
M  V30 2235 C 233.641 0.268729 -1.92332 0
M  V30 2236 O 232.916 1.19378 -1.53555 0
M  V30 2237 C 233.199 -1.995 -2.99786 0
M  V30 2238 C 233.052 -3.5239 -2.79538 0
M  V30 2239 C 234.371 -1.82335 -4.00552 0
M  V30 2240 H 231.49 -0.429528 -0.598895 0
M  V30 2241 H 234.132 -1.59072 -1.03905 0
M  V30 2242 H 232.282 -1.64485 -3.51962 0
M  V30 2243 H 233.954 -3.97401 -2.34244 0
M  V30 2244 H 232.197 -3.77187 -2.14273 0
M  V30 2245 H 232.868 -4.04787 -3.75302 0
M  V30 2246 H 235.344 -2.12924 -3.57495 0
M  V30 2247 H 234.22 -2.41801 -4.92771 0
M  V30 2248 H 234.481 -0.779209 -4.35179 0
M  V30 2249 N 233.54 1.10788 -1.12088 0
M  V30 2250 C 234.77 1.86191 -0.895351 0
M  V30 2251 C 235.178 1.80763 0.558702 0
M  V30 2252 O 234.521 1.19188 1.39785 0
M  V30 2253 C 234.583 3.35659 -1.28737 0
M  V30 2254 C 234.247 3.64849 -2.75198 0
M  V30 2255 C 235.244 3.61757 -3.734 0
M  V30 2256 C 232.929 3.93641 -3.12013 0
M  V30 2257 C 234.923 3.87045 -5.06434 0
M  V30 2258 C 232.61 4.18585 -4.4523 0
M  V30 2259 C 233.608 4.15277 -5.42249 0
M  V30 2260 O 233.296 4.3959 -6.73065 0
M  V30 2261 H 233.028 0.595425 -0.32007 0
M  V30 2262 H 235.582 1.40992 -1.49367 0
M  V30 2263 H 233.812 3.81497 -0.63224 0
M  V30 2264 H 235.501 3.92441 -1.03656 0
M  V30 2265 H 236.267 3.39557 -3.46303 0
M  V30 2266 H 232.146 3.95348 -2.37109 0
M  V30 2267 H 235.69 3.84378 -5.82151 0
M  V30 2268 H 231.587 4.40264 -4.72057 0
M  V30 2269 H 232.355 4.57123 -6.78956 0
M  V30 2270 N 235.018 0.912232 1.28515 0
M  V30 2271 C 236.434 0.610159 1.47476 0
M  V30 2272 C 236.634 -0.844955 1.82928 0
M  V30 2273 O 235.69 -1.62416 1.93332 0
M  V30 2274 C 237.003 1.54675 2.57868 0
M  V30 2275 C 238.551 1.55331 2.71738 0
M  V30 2276 C 239.026 2.47649 3.85272 0
M  V30 2277 N 240.517 2.45767 3.92623 0
M  V30 2278 C 241.252 3.13896 4.79851 0
M  V30 2279 N 240.748 3.9135 5.71679 0
M  V30 2280 N 242.541 3.02991 4.73448 0
M  V30 2281 H 234.692 1.85318 1.03783 0
M  V30 2282 H 236.955 0.794777 0.516753 0
M  V30 2283 H 236.661 2.5841 2.38574 0
M  V30 2284 H 236.535 1.27671 3.54937 0
M  V30 2285 H 238.922 0.52335 2.90422 0
M  V30 2286 H 239.003 1.86378 1.75205 0
M  V30 2287 H 238.647 3.50745 3.67342 0
M  V30 2288 H 238.577 2.13904 4.81199 0
M  V30 2289 H 241.068 1.89503 3.26951 0
M  V30 2290 H 241.381 4.40359 6.35062 0
M  V30 2291 H 239.726 3.95455 5.71524 0
M  V30 2292 H 242.917 2.41987 4.007 0
M  V30 2293 H 243.09 3.5636 5.41213 0
M  V30 2294 N 236.496 -1.42363 0.676048 0
M  V30 2295 C 237.459 -2.29199 0.00766941 0
M  V30 2296 C 238.459 -1.43389 -0.727745 0
M  V30 2297 O 239.649 -1.64764 -0.56556 0
M  V30 2298 C 236.781 -3.2591 -0.999785 0
M  V30 2299 H 237.974 -2.89794 0.771988 0
M  V30 2300 H 235.527 -1.50024 0.438468 0
M  V30 2301 H 236.262 -2.70256 -1.79255 0
M  V30 2302 H 236.047 -3.89202 -0.475829 0
M  V30 2303 H 237.537 -3.91028 -1.46583 0
M  V30 2304 N 237.974 -0.419461 -1.51915 0
M  V30 2305 C 239.221 0.152939 -2.01922 0
M  V30 2306 C 239.549 1.4426 -1.30458 0
M  V30 2307 O 238.804 1.91514 -0.402593 0
M  V30 2308 C 239.103 0.437067 -3.54717 0
M  V30 2309 C 238.769 -0.764632 -4.44369 0
M  V30 2310 C 237.431 -1.09423 -4.68594 0
M  V30 2311 C 239.783 -1.56713 -4.97082 0
M  V30 2312 C 237.111 -2.22732 -5.42777 0
M  V30 2313 C 239.463 -2.69107 -5.72507 0
M  V30 2314 C 238.127 -3.02541 -5.95 0
M  V30 2315 H 237.397 0.0559644 -0.738884 0
M  V30 2316 H 240.044 -0.562998 -1.83037 0
M  V30 2317 H 238.349 1.23469 -3.71837 0
M  V30 2318 H 240.046 0.893083 -3.90928 0
M  V30 2319 H 236.636 -0.497775 -4.257 0
M  V30 2320 H 240.82 -1.32571 -4.78266 0
M  V30 2321 H 236.076 -2.48971 -5.58411 0
M  V30 2322 H 240.25 -3.31671 -6.12346 0
M  V30 2323 H 237.877 -3.90457 -6.52264 0
M  V30 2324 N 239.452 1.56882 -0.150215 0
M  V30 2325 C 240.698 1.97299 0.494427 0
M  V30 2326 C 241.053 1.0338 1.62266 0
M  V30 2327 O 240.346 0.0694497 1.91474 0
M  V30 2328 C 240.54 3.41801 1.04437 0
M  V30 2329 C 240.369 4.49691 -0.0290451 0
M  V30 2330 C 239.139 5.03095 -0.47156 0
M  V30 2331 C 241.337 5.07693 -0.821703 0
M  V30 2332 N 239.319 5.94593 -1.52749 0
M  V30 2333 C 240.69 5.95431 -1.72805 0
M  V30 2334 C 242.745 4.90256 -0.869134 0
M  V30 2335 C 241.448 6.67599 -2.67777 0
M  V30 2336 C 243.474 5.63127 -1.8067 0
M  V30 2337 C 242.836 6.50576 -2.70057 0
M  V30 2338 H 238.935 0.76755 0.149639 0
M  V30 2339 H 241.519 1.93145 -0.24556 0
M  V30 2340 H 239.69 3.46541 1.75396 0
M  V30 2341 H 241.422 3.69272 1.6559 0
M  V30 2342 H 238.177 4.73543 -0.0732101 0
M  V30 2343 H 238.601 6.45047 -2.05531 0
M  V30 2344 H 243.243 4.22363 -0.192134 0
M  V30 2345 H 240.961 7.34717 -3.36476 0
M  V30 2346 H 244.547 5.51629 -1.84924 0
M  V30 2347 H 243.427 7.05974 -3.41424 0
M  V30 2348 N 240.93 -0.123565 1.57115 0
M  V30 2349 C 242.179 -0.830704 1.83799 0
M  V30 2350 C 242.492 -1.81259 0.735158 0
M  V30 2351 O 243.698 -2.56558 0.888278 0
M  V30 2352 C 242.154 -1.52802 3.25852 0
M  V30 2353 C 241.762 -0.587356 4.44133 0
M  V30 2354 C 243.506 -2.22056 3.61789 0
M  V30 2355 C 241.413 -1.28764 5.77212 0
M  V30 2356 H 240.343 -0.313967 0.685522 0
M  V30 2357 H 242.994 -0.0834359 1.8331 0
M  V30 2358 H 241.376 -2.32175 3.20797 0
M  V30 2359 H 242.55 0.172829 4.60476 0
M  V30 2360 H 240.865 -0.00201892 4.164 0
M  V30 2361 H 243.462 -2.75131 4.58483 0
M  V30 2362 H 243.805 -2.99644 2.88997 0
M  V30 2363 H 244.338 -1.49576 3.68608 0
M  V30 2364 H 241.077 -0.55314 6.53162 0
M  V30 2365 H 240.597 -2.01995 5.64764 0
M  V30 2366 H 242.276 -1.8221 6.20813 0
M  V30 2367 N 242.408 -1.52605 -0.393616 0
M  V30 2368 C 243.656 -1.67093 -1.13685 0
M  V30 2369 C 243.977 -0.411011 -1.90619 0
M  V30 2370 O 243.247 0.574491 -1.87287 0
M  V30 2371 H 241.827 -0.615923 -0.422668 0
M  V30 2372 H 244.489 -1.89704 -0.447039 0
M  V30 2373 H 243.585 -2.51922 -1.84232 0
M  V30 2374 N 243.887 0.651787 -1.4349 0
M  V30 2375 C 245.164 1.40909 -1.35661 0
M  V30 2376 C 245.544 2.11099 -0.00511733 0
M  V30 2377 O 244.892 2.04892 1.0115 0
M  V30 2378 C 245.102 2.3926 -2.54078 0
M  V30 2379 C 246.45 3.03217 -2.97228 0
M  V30 2380 O 247.474 2.49588 -2.54135 0
M  V30 2381 O 246.333 4.00455 -3.71885 0
M  V30 2382 H 243.427 0.629625 -0.536191 0
M  V30 2383 H 245.973 0.678575 -1.55542 0
M  V30 2384 H 244.745 1.86352 -3.44076 0
M  V30 2385 H 244.368 3.1976 -2.36303 0
M  V30 2386 N 245.365 1.30045 0.890287 0
M  V30 2387 C 246.275 1.17885 2.02831 0
M  V30 2388 C 247.291 0.0999609 1.73713 0
M  V30 2389 O 248.467 0.313867 1.98939 0
M  V30 2390 C 245.532 0.866079 3.35708 0
M  V30 2391 C 244.593 2.02979 3.78283 0
M  V30 2392 C 243.826 1.73184 5.0482 0
M  V30 2393 O 244.049 0.657237 5.66601 0
M  V30 2394 O 242.983 2.58267 5.43674 0
M  V30 2395 H 246.809 2.13474 2.16015 0
M  V30 2396 H 244.394 1.09587 1.01543 0
M  V30 2397 H 246.276 0.706623 4.15433 0
M  V30 2398 H 244.951 -0.0599443 3.23644 0
M  V30 2399 H 243.858 2.24454 2.99285 0
M  V30 2400 H 245.191 2.93734 3.94944 0
M  V30 2401 N 246.843 -1.10192 1.12674 0
M  V30 2402 C 248.089 -1.82475 0.884915 0
M  V30 2403 C 248.422 -1.85093 -0.58773 0
M  V30 2404 O 247.697 -1.3134 -1.43457 0
M  V30 2405 C 247.98 -3.29018 1.46353 0
M  V30 2406 C 247.833 -3.34718 3.00473 0
M  V30 2407 C 249.152 -4.25473 1.12519 0
M  V30 2408 H 246.271 -0.662492 0.322915 0
M  V30 2409 H 248.913 -1.2913 1.39375 0
M  V30 2410 H 247.063 -3.74576 1.03077 0
M  V30 2411 H 248.735 -2.97622 3.52447 0
M  V30 2412 H 246.978 -2.74541 3.35872 0
M  V30 2413 H 247.649 -4.37918 3.36053 0
M  V30 2414 H 250.125 -3.88161 1.499 0
M  V30 2415 H 249.001 -5.26365 1.55663 0
M  V30 2416 H 249.262 -4.42084 0.0377407 0
M  V30 2417 N 248.321 -0.919034 -1.28029 0
M  V30 2418 C 249.284 -0.416182 -2.2539 0
M  V30 2419 C 250.284 0.460438 -1.54067 0
M  V30 2420 O 251.474 0.262744 -1.72207 0
M  V30 2421 C 248.606 0.402707 -3.38513 0
M  V30 2422 H 249.799 -1.27629 -2.71387 0
M  V30 2423 H 247.352 -0.698919 -1.39803 0
M  V30 2424 H 248.087 1.282 -2.97885 0
M  V30 2425 H 247.872 -0.225698 -3.9145 0
M  V30 2426 H 249.362 0.745191 -4.10897 0
M  V30 2427 N 249.799 1.42003 -0.683588 0
M  V30 2428 C 251.045 2.01712 -0.209825 0
M  V30 2429 C 251.378 1.53968 1.18353 0
M  V30 2430 O 250.653 0.745661 1.79639 0
M  V30 2431 C 250.936 3.59202 -0.254197 0
M  V30 2432 C 250.789 4.17102 -1.68363 0
M  V30 2433 C 252.108 4.38344 0.392709 0
M  V30 2434 H 249.227 0.732891 -0.0777189 0
M  V30 2435 H 251.869 1.68909 -0.87004 0
M  V30 2436 H 250.019 3.87278 0.307954 0
M  V30 2437 H 251.691 3.99946 -2.29871 0
M  V30 2438 H 249.934 3.72597 -2.22157 0
M  V30 2439 H 250.605 5.26249 -1.6663 0
M  V30 2440 H 253.081 4.16011 -0.0859162 0
M  V30 2441 H 251.957 5.47901 0.331063 0
M  V30 2442 H 252.218 4.16887 1.47164 0
M  V30 2443 N 251.277 0.427512 1.51691 0
M  V30 2444 C 252.224 -0.388867 2.275 0
M  V30 2445 C 253.194 -1.02532 1.30677 0
M  V30 2446 O 254.379 -1.0461 1.59566 0
M  V30 2447 C 251.519 -1.48954 3.11298 0
M  V30 2448 C 250.632 -0.872194 4.23104 0
M  V30 2449 C 249.767 -1.94709 4.94228 0
M  V30 2450 C 248.806 -1.30766 5.97969 0
M  V30 2451 N 247.943 -2.32349 6.62539 0
M  V30 2452 H 252.783 0.263997 2.96828 0
M  V30 2453 H 250.32 0.142033 1.46413 0
M  V30 2454 H 252.278 -2.13887 3.58201 0
M  V30 2455 H 250.908 -2.11217 2.44105 0
M  V30 2456 H 249.96 -0.111419 3.80237 0
M  V30 2457 H 251.272 -0.365264 4.97461 0
M  V30 2458 H 250.426 -2.67327 5.44629 0
M  V30 2459 H 249.165 -2.48773 4.1948 0
M  V30 2460 H 248.17 -0.566902 5.4687 0
M  V30 2461 H 249.395 -0.774483 6.74669 0
M  V30 2462 H 247.341 -2.85511 5.90609 0
M  V30 2463 H 247.258 -1.8652 7.3263 0
M  V30 2464 H 248.526 -3.04481 7.17574 0
M  V30 2465 N 252.755 -1.56801 0.158532 0
M  V30 2466 C 253.718 -2.16138 -0.762705 0
M  V30 2467 C 254.718 -1.1061 -1.16713 0
M  V30 2468 O 255.908 -1.36191 -1.08617 0
M  V30 2469 C 253.04 -2.73386 -2.03649 0
M  V30 2470 H 254.233 -2.98886 -0.246354 0
M  V30 2471 H 251.786 -1.56035 -0.0909744 0
M  V30 2472 H 252.521 -1.94335 -2.59623 0
M  V30 2473 H 252.306 -3.50601 -1.75559 0
M  V30 2474 H 253.796 -3.19065 -2.6942 0
M  V30 2475 N 254.233 0.115231 -1.57178 0
M  V30 2476 C 255.196 1.12526 -1.99676 0
M  V30 2477 C 256.196 1.34095 -0.88742 0
M  V30 2478 O 257.386 1.30548 -1.15337 0
M  V30 2479 C 254.518 2.4789 -2.34015 0
M  V30 2480 H 255.711 0.759912 -2.90113 0
M  V30 2481 H 253.264 0.359648 -1.52106 0
M  V30 2482 H 253.999 2.89339 -1.4647 0
M  V30 2483 H 253.784 2.33588 -3.14927 0
M  V30 2484 H 255.274 3.20575 -2.67622 0
M  V30 2485 N 255.711 1.52812 0.385517 0
M  V30 2486 C 257.127 1.4214 0.725829 0
M  V30 2487 C 257.327 0.544589 1.94001 0
M  V30 2488 O 256.383 0.0193693 2.52493 0
M  V30 2489 C 257.696 2.85042 0.957668 0
M  V30 2490 C 259.244 2.94543 1.05892 0
M  V30 2491 C 259.719 4.38464 1.32337 0
M  V30 2492 N 261.21 4.41804 1.39151 0
M  V30 2493 C 261.945 5.5025 1.61285 0
M  V30 2494 N 261.441 6.68775 1.80866 0
M  V30 2495 N 263.234 5.37798 1.63492 0
M  V30 2496 H 255.385 2.08338 -0.413383 0
M  V30 2497 H 257.648 0.940016 -0.122775 0
M  V30 2498 H 257.354 3.51431 0.137568 0
M  V30 2499 H 257.228 3.27505 1.87137 0
M  V30 2500 H 259.615 2.28321 1.86959 0
M  V30 2501 H 259.696 2.55504 0.123057 0
M  V30 2502 H 259.34 5.05254 0.517793 0
M  V30 2503 H 259.27 4.75059 2.27214 0
M  V30 2504 H 261.761 3.56377 1.25713 0
M  V30 2505 H 262.074 7.47197 1.97271 0
M  V30 2506 H 260.419 6.71797 1.78083 0
M  V30 2507 H 263.61 4.44171 1.47749 0
M  V30 2508 H 263.783 6.22382 1.80402 0
M  V30 2509 N 257.189 -0.644168 1.43834 0
M  V30 2510 C 258.139 -1.7501 1.46135 0
M  V30 2511 C 259.123 -1.57507 0.328685 0
M  V30 2512 O 260.315 -1.67465 0.5731 0
M  V30 2513 C 257.444 -3.13641 1.39585 0
M  V30 2514 C 256.53 -3.3666 2.57916 0
M  V30 2515 N 256.921 -3.30107 3.83227 0
M  V30 2516 C 255.219 -3.67411 2.52834 0
M  V30 2517 C 255.92 -3.53456 4.61999 0
M  V30 2518 N 254.896 -3.75705 3.9287 0
M  V30 2519 H 258.698 -1.68382 2.40883 0
M  V30 2520 H 256.212 -0.846169 1.38614 0
M  V30 2521 H 258.209 -3.92933 1.39317 0
M  V30 2522 H 256.869 -3.21444 0.45865 0
M  V30 2523 H 257.88 -3.09316 4.15384 0
M  V30 2524 H 254.557 -3.82275 1.67845 0
M  V30 2525 H 255.947 -3.54093 5.71024 0
M  V30 2526 N 258.668 -1.30515 -0.883378 0
M  V30 2527 C 259.945 -1.10086 -1.6168 0
M  V30 2528 C 260.325 0.349269 -2.08191 0
M  V30 2529 O 259.673 1.34105 -1.85008 0
M  V30 2530 C 259.883 -2.10315 -2.78511 0
M  V30 2531 C 261.231 -2.42119 -3.48803 0
M  V30 2532 O 262.255 -2.08638 -2.88702 0
M  V30 2533 O 261.114 -2.99396 -4.57192 0
M  V30 2534 H 258.208 -0.422907 -0.710689 0
M  V30 2535 H 260.754 -1.41947 -0.930015 0
M  V30 2536 H 259.526 -3.07917 -2.41459 0
M  V30 2537 H 259.149 -1.79282 -3.54886 0
M  V30 2538 N 260.146 1.09593 -1.13257 0
M  V30 2539 C 261.557 1.63229 -0.906274 0
M  V30 2540 C 261.908 1.8811 0.557578 0
M  V30 2541 O 261.033 1.62953 1.42391 0
M  V30 2542 C 261.628 2.96535 -1.63867 0
M  V30 2543 C 260.187 3.47003 -1.45828 0
M  V30 2544 C 259.334 2.2145 -1.66898 0
M  V30 2545 H 262.285 0.92978 -1.28611 0
M  V30 2546 H 262.306 3.64411 -1.09476 0
M  V30 2547 H 261.818 2.78394 -2.70404 0
M  V30 2548 H 259.919 3.70272 -0.415848 0
M  V30 2549 H 260.032 4.24551 -2.2202 0
M  V30 2550 H 258.396 2.30022 -1.09371 0
M  V30 2551 H 259.179 2.0583 -2.74752 0
M  V30 2552 N 261.624 0.925811 1.2754 0
M  V30 2553 C 262.901 0.483726 1.89524 0
M  V30 2554 C 263.281 -1.03809 1.83812 0
M  V30 2555 O 262.629 -1.89143 1.28207 0
M  V30 2556 C 262.839 1.02769 3.33526 0
M  V30 2557 C 264.187 1.08703 4.10449 0
M  V30 2558 O 265.211 0.977175 3.42534 0
M  V30 2559 O 264.07 1.25599 5.31871 0
M  V30 2560 H 261.164 0.15529 0.812289 0
M  V30 2561 H 263.71 1.01738 1.35822 0
M  V30 2562 H 262.482 2.07155 3.31967 0
M  V30 2563 H 262.105 0.475567 3.94746 0
M  V30 2564 N 263.102 -1.41638 0.69111 0
M  V30 2565 C 264.012 -2.34588 0.0233487 0
M  V30 2566 C 265.028 -1.55987 -0.770984 0
M  V30 2567 O 266.204 -1.88486 -0.709569 0
M  V30 2568 C 263.269 -3.34684 -0.904851 0
M  V30 2569 C 262.33 -4.29176 -0.103225 0
M  V30 2570 C 261.563 -5.2449 -0.987216 0
M  V30 2571 O 261.786 -5.2514 -2.22674 0
M  V30 2572 O 260.72 -6.00295 -0.439281 0
M  V30 2573 H 264.546 -2.93261 0.789416 0
M  V30 2574 H 262.131 -1.42417 0.45142 0
M  V30 2575 H 264.013 -3.96133 -1.43724 0
M  V30 2576 H 262.688 -2.78461 -1.65049 0
M  V30 2577 H 261.595 -3.71089 0.473655 0
M  V30 2578 H 262.928 -4.88484 0.60365 0
M  V30 2579 N 264.58 -0.43555 -1.51462 0
M  V30 2580 C 265.857 0.191364 -1.94662 0
M  V30 2581 C 266.237 1.60254 -1.37411 0
M  V30 2582 O 265.585 2.2152 -0.560458 0
M  V30 2583 C 265.795 0.17091 -3.48581 0
M  V30 2584 C 267.143 0.377357 -4.2292 0
M  V30 2585 O 268.167 0.249104 -3.55328 0
M  V30 2586 O 267.026 0.63247 -5.42828 0
M  V30 2587 H 264.12 0.130932 -0.816569 0
M  V30 2588 H 266.666 -0.4934 -1.62369 0
M  V30 2589 H 265.438 -0.815738 -3.82703 0
M  V30 2590 H 265.061 0.898659 -3.87311 0
M  V30 2591 N 266.058 1.56714 -0.166846 0
M  V30 2592 C 267.307 1.95922 0.479318 0
M  V30 2593 C 267.62 1.05529 1.6469 0
M  V30 2594 O 268.826 1.34399 2.35901 0
M  V30 2595 C 267.282 3.48359 0.90412 0
M  V30 2596 C 266.89 4.47369 -0.237621 0
M  V30 2597 C 268.634 3.96394 1.51896 0
M  V30 2598 C 266.541 5.91039 0.206561 0
M  V30 2599 H 265.471 0.731495 0.18284 0
M  V30 2600 H 268.122 1.81728 -0.254363 0
M  V30 2601 H 266.504 3.57955 1.69365 0
M  V30 2602 H 267.678 4.49485 -1.01489 0
M  V30 2603 H 265.993 4.09366 -0.762128 0
M  V30 2604 H 268.59 5.01186 1.86325 0
M  V30 2605 H 268.933 3.39075 2.41524 0
M  V30 2606 H 269.466 3.89796 0.79395 0
M  V30 2607 H 266.205 6.52221 -0.654834 0
M  V30 2608 H 265.725 5.9224 0.949282 0
M  V30 2609 H 267.404 6.43707 0.651939 0
M  V30 2610 N 267.536 -0.106894 1.57237 0
M  V30 2611 C 268.761 -0.830287 1.90055 0
M  V30 2612 C 269.186 -1.72064 0.75998 0
M  V30 2613 O 268.544 -1.78982 -0.288991 0
M  V30 2614 C 268.592 -1.6295 3.21683 0
M  V30 2615 O 267.696 -2.73748 3.08441 0
M  V30 2616 H 267.037 -0.228855 0.623315 0
M  V30 2617 H 269.567 -0.085658 2.04421 0
M  V30 2618 H 269.577 -2.01621 3.54701 0
M  V30 2619 H 268.252 -0.975989 4.04286 0
M  V30 2620 H 266.829 -2.38192 2.86913 0
M  V30 2621 N 269.014 -1.53014 -0.377408 0
M  V30 2622 C 269.946 -1.74884 -1.48149 0
M  V30 2623 C 270.959 -0.629433 -1.5014 0
M  V30 2624 O 272.148 -0.905416 -1.53833 0
M  V30 2625 C 269.248 -1.80299 -2.86959 0
M  V30 2626 C 268.421 -3.09776 -3.08801 0
M  V30 2627 C 267.48 -3.06586 -4.27658 0
M  V30 2628 O 266.506 -3.80419 -4.23403 0
M  V30 2629 N 267.708 -2.26578 -5.34455 0
M  V30 2630 H 270.473 -2.70147 -1.29771 0
M  V30 2631 H 268.034 -1.51646 -0.56703 0
M  V30 2632 H 270.026 -1.75657 -3.64591 0
M  V30 2633 H 268.596 -0.92372 -2.98641 0
M  V30 2634 H 267.816 -3.27815 -2.18931 0
M  V30 2635 H 269.104 -3.95366 -3.20255 0
M  V30 2636 H 268.502 -1.66081 -5.40771 0
M  V30 2637 H 267.059 -2.27766 -6.10709 0
M  V30 2638 N 270.492 0.636531 -1.44174 0
M  V30 2639 C 271.72 1.42353 -1.50144 0
M  V30 2640 C 272.135 1.88389 -0.124575 0
M  V30 2641 O 271.492 1.6051 0.868489 0
M  V30 2642 C 271.543 2.64744 -2.46156 0
M  V30 2643 O 271.264 2.20629 -3.7849 0
M  V30 2644 C 272.765 3.57929 -2.61537 0
M  V30 2645 H 269.985 0.436752 -0.5094 0
M  V30 2646 H 272.529 0.778933 -1.89084 0
M  V30 2647 H 270.684 3.25307 -2.10366 0
M  V30 2648 H 271.098 2.99938 -4.30276 0
M  V30 2649 H 272.572 4.40428 -3.32757 0
M  V30 2650 H 273.049 4.06382 -1.66585 0
M  V30 2651 H 273.655 3.03238 -2.98206 0
M  V30 2652 N 271.97 1.30982 0.876444 0
M  V30 2653 C 273.219 1.19658 1.62373 0
M  V30 2654 C 273.532 -0.245636 1.94052 0
M  V30 2655 O 274.738 -0.48049 2.67214 0
M  V30 2656 C 273.194 2.09433 2.92687 0
M  V30 2657 C 272.802 3.58613 2.68516 0
M  V30 2658 C 274.546 2.06893 3.70669 0
M  V30 2659 C 272.453 4.40416 3.94699 0
M  V30 2660 H 271.383 0.444268 0.609214 0
M  V30 2661 H 274.034 1.55791 0.969605 0
M  V30 2662 H 272.416 1.66191 3.59439 0
M  V30 2663 H 273.59 4.10058 2.10212 0
M  V30 2664 H 271.905 3.63063 2.03898 0
M  V30 2665 H 274.502 2.65258 4.64265 0
M  V30 2666 H 274.845 1.05448 4.02724 0
M  V30 2667 H 275.378 2.48301 3.10792 0
M  V30 2668 H 272.117 5.42591 3.67798 0
M  V30 2669 H 271.637 3.93731 4.52477 0
M  V30 2670 H 273.316 4.52294 4.62644 0
M  V30 2671 N 273.449 -1.08991 1.13837 0
M  V30 2672 C 274.359 -2.19301 0.833333 0
M  V30 2673 C 275.375 -1.73026 -0.183847 0
M  V30 2674 O 276.551 -2.01395 -0.0138092 0
M  V30 2675 C 273.616 -3.45323 0.308651 0
M  V30 2676 C 272.677 -4.06255 1.38764 0
M  V30 2677 C 271.91 -5.26262 0.887896 0
M  V30 2678 O 272.133 -5.69747 -0.27287 0
M  V30 2679 O 271.067 -5.78435 1.66421 0
M  V30 2680 H 274.893 -2.47854 1.75506 0
M  V30 2681 H 272.478 -1.18012 0.916166 0
M  V30 2682 H 274.36 -4.21394 0.0216739 0
M  V30 2683 H 273.035 -3.18362 -0.585431 0
M  V30 2684 H 271.942 -3.318 1.72799 0
M  V30 2685 H 273.275 -4.37452 2.25602 0
M  V30 2686 N 274.927 -0.932562 -1.27047 0
M  V30 2687 C 275.875 -0.42603 -2.28665 0
M  V30 2688 C 276.869 0.49219 -1.62092 0
M  V30 2689 O 278.075 0.371355 -1.76128 0
M  V30 2690 H 274.45 -0.119213 -0.742491 0
M  V30 2691 H 276.421 -1.29579 -2.68797 0
M  V30 2692 C 275.17 0.301426 -3.46391 0
M  V30 2693 H 274.493 -0.39595 -3.97834 0
M  V30 2694 H 275.933 0.6202 -4.1944 0
M  V30 2695 C 274.392 1.51616 -3.00856 0
M  V30 2696 O 274.922 2.61476 -3.04948 0
M  V30 2697 N 273.128 1.36969 -2.56296 0
M  V30 2698 H 272.675 0.475873 -2.53166 0
M  V30 2699 H 272.633 2.18368 -2.26192 0
M  V30 2700 N 276.405 1.4127 -0.698611 0
M  V30 2701 C 277.651 2.01478 -0.231207 0
M  V30 2702 C 277.984 1.55215 1.16713 0
M  V30 2703 O 277.259 0.764672 1.78838 0
M  V30 2704 C 277.542 3.58912 -0.292281 0
M  V30 2705 C 277.395 4.15293 -1.72778 0
M  V30 2706 C 278.714 4.38736 0.346194 0
M  V30 2707 H 275.833 0.732025 -0.0854878 0
M  V30 2708 H 278.475 1.67977 -0.887906 0
M  V30 2709 H 276.625 3.87582 0.26686 0
M  V30 2710 H 278.297 3.97486 -2.341 0
M  V30 2711 H 276.54 3.7022 -2.26096 0
M  V30 2712 H 277.211 5.24452 -1.72202 0
M  V30 2713 H 279.687 4.15897 -0.130035 0
M  V30 2714 H 278.563 5.48221 0.272932 0
M  V30 2715 H 278.824 4.18425 1.42734 0
M  V30 2716 N 277.883 0.443576 1.51229 0
M  V30 2717 C 279.299 0.0962001 1.5931 0
M  V30 2718 C 279.499 -1.39501 1.45402 0
M  V30 2719 O 278.555 -2.16557 1.29843 0
M  V30 2720 C 279.868 0.621875 2.94199 0
M  V30 2721 C 281.416 0.582865 3.07525 0
M  V30 2722 C 281.891 1.08562 4.44948 0
M  V30 2723 N 283.382 1.04387 4.51284 0
M  V30 2724 C 284.117 1.40368 5.55954 0
M  V30 2725 N 283.613 1.83664 6.68011 0
M  V30 2726 N 285.406 1.32145 5.46346 0
M  V30 2727 H 277.557 1.41376 1.58514 0
M  V30 2728 H 279.82 0.582965 0.747567 0
M  V30 2729 H 279.526 1.66546 3.09767 0
M  V30 2730 H 279.4 0.0502125 3.77167 0
M  V30 2731 H 281.787 -0.451749 2.91622 0
M  V30 2732 H 281.868 1.191 2.26382 0
M  V30 2733 H 281.512 2.11873 4.61598 0
M  V30 2734 H 281.442 0.453956 5.2464 0
M  V30 2735 H 283.933 0.725986 3.70861 0
M  V30 2736 H 284.246 2.0934 7.43906 0
M  V30 2737 H 282.591 1.87596 6.69203 0
M  V30 2738 H 285.782 0.981808 4.57688 0
M  V30 2739 H 285.955 1.60514 6.27805 0
M  V30 2740 N 279.361 -1.56624 0.175154 0
M  V30 2741 C 280.293 -2.15333 -0.785128 0
M  V30 2742 C 281.306 -1.1099 -1.19101 0
M  V30 2743 O 282.495 -1.38162 -1.13019 0
M  V30 2744 C 279.595 -2.68427 -2.06882 0
M  V30 2745 C 278.768 -3.97466 -1.8259 0
M  V30 2746 C 277.827 -4.35585 -2.95215 0
M  V30 2747 O 276.853 -5.03389 -2.65684 0
M  V30 2748 N 278.055 -3.97457 -4.23094 0
M  V30 2749 H 280.82 -2.98359 -0.283187 0
M  V30 2750 H 278.381 -1.61898 -0.00749817 0
M  V30 2751 H 280.373 -2.90924 -2.81328 0
M  V30 2752 H 278.943 -1.89968 -2.48256 0
M  V30 2753 H 278.163 -3.83307 -0.920287 0
M  V30 2754 H 279.451 -4.81736 -1.63733 0
M  V30 2755 H 278.849 -3.42878 -4.49945 0
M  V30 2756 H 277.406 -4.24947 -4.9423 0
M  V30 2757 N 280.839 0.0985539 -1.57292 0
M  V30 2758 C 281.749 1.13824 -2.05137 0
M  V30 2759 C 282.765 1.44076 -0.975604 0
M  V30 2760 O 283.941 1.54786 -1.28853 0
M  V30 2761 C 281.006 2.43969 -2.46333 0
M  V30 2762 C 280.067 2.2093 -3.68087 0
M  V30 2763 C 279.3 3.44869 -4.0731 0
M  V30 2764 O 279.523 4.52972 -3.46659 0
M  V30 2765 O 278.457 3.34661 -5.00285 0
M  V30 2766 H 282.283 0.761881 -2.93988 0
M  V30 2767 H 279.868 0.310818 -1.46131 0
M  V30 2768 H 281.75 3.20609 -2.73473 0
M  V30 2769 H 280.425 2.81038 -1.60621 0
M  V30 2770 H 279.332 1.42081 -3.46069 0
M  V30 2771 H 280.665 1.88755 -4.54568 0
M  V30 2772 N 282.317 1.53212 0.369288 0
M  V30 2773 C 283.28 1.7872 1.43498 0
M  V30 2774 C 284.28 0.657554 1.46741 0
M  V30 2775 O 285.47 0.925736 1.47566 0
M  V30 2776 C 282.602 1.90591 2.82645 0
M  V30 2777 H 283.795 2.73894 1.22156 0
M  V30 2778 H 281.348 1.44233 0.602203 0
M  V30 2779 H 282.083 0.974709 3.09306 0
M  V30 2780 H 281.868 2.72751 2.8169 0
M  V30 2781 H 283.358 2.11931 3.59826 0
M  V30 2782 N 283.795 -0.628877 1.44509 0
M  V30 2783 C 284.742 -1.74074 1.51549 0
M  V30 2784 C 285.712 -1.62084 0.363021 0
M  V30 2785 O 286.897 -1.81975 0.573567 0
M  V30 2786 C 284.037 -3.12328 1.46784 0
M  V30 2787 C 283.15 -3.35277 2.72422 0
M  V30 2788 C 282.285 -4.63515 2.59475 0
M  V30 2789 C 281.324 -4.7965 3.80266 0
M  V30 2790 N 280.461 -5.99168 3.65981 0
M  V30 2791 H 285.301 -1.67392 2.46544 0
M  V30 2792 H 282.838 -0.816527 1.22357 0
M  V30 2793 H 284.796 -3.92286 1.42012 0
M  V30 2794 H 283.426 -3.18018 0.553544 0
M  V30 2795 H 282.478 -2.49242 2.87372 0
M  V30 2796 H 283.79 -3.43078 3.62076 0
M  V30 2797 H 282.944 -5.51638 2.52548 0
M  V30 2798 H 281.683 -4.58076 1.67384 0
M  V30 2799 H 280.688 -3.89957 3.87574 0
M  V30 2800 H 281.913 -4.86902 4.73395 0
M  V30 2801 H 279.859 -5.94814 2.76644 0
M  V30 2802 H 279.776 -6.08035 4.49254 0
M  V30 2803 H 281.044 -6.89846 3.6295 0
M  V30 2804 N 285.273 -1.31445 -0.869486 0
M  V30 2805 C 286.203 -1.21727 -1.99261 0
M  V30 2806 C 287.184 -0.104359 -1.6978 0
M  V30 2807 O 288.369 -0.289038 -1.92037 0
M  V30 2808 C 285.499 -0.924317 -3.34774 0
M  V30 2809 C 284.453 -1.99685 -3.78563 0
M  V30 2810 C 283.779 -1.55658 -5.11541 0
M  V30 2811 C 285.079 -3.41003 -3.95619 0
M  V30 2812 H 286.773 -2.1569 -2.07649 0
M  V30 2813 H 284.319 -1.03839 -0.997675 0
M  V30 2814 H 286.272 -0.842934 -4.12883 0
M  V30 2815 H 284.996 0.0509793 -3.2656 0
M  V30 2816 H 283.655 -2.06813 -3.02694 0
M  V30 2817 H 283.303 -0.569132 -4.9977 0
M  V30 2818 H 283.003 -2.27409 -5.41811 0
M  V30 2819 H 284.527 -1.48928 -5.92159 0
M  V30 2820 H 285.941 -3.36547 -4.64122 0
M  V30 2821 H 284.338 -4.10975 -4.37286 0
M  V30 2822 H 285.408 -3.81754 -2.98985 0
M  V30 2823 N 286.751 1.08385 -1.14413 0
M  V30 2824 C 287.998 1.80776 -0.912482 0
M  V30 2825 C 288.326 1.86236 0.560934 0
M  V30 2826 O 287.581 1.33431 1.43159 0
M  V30 2827 C 287.88 3.26273 -1.45879 0
M  V30 2828 C 287.546 3.4093 -2.95089 0
M  V30 2829 C 286.208 3.44638 -3.35824 0
M  V30 2830 C 288.56 3.44591 -3.91033 0
M  V30 2831 C 285.888 3.49597 -4.71167 0
M  V30 2832 C 288.24 3.51086 -5.26233 0
M  V30 2833 C 286.904 3.53067 -5.6648 0
M  V30 2834 H 286.174 0.661507 -0.333901 0
M  V30 2835 H 288.821 1.27613 -1.42784 0
M  V30 2836 H 287.126 3.82146 -0.864376 0
M  V30 2837 H 288.823 3.80839 -1.2555 0
M  V30 2838 H 285.413 3.38736 -2.62594 0
M  V30 2839 H 289.597 3.40957 -3.60641 0
M  V30 2840 H 284.853 3.49424 -5.0171 0
M  V30 2841 H 289.027 3.52864 -6.00383 0
M  V30 2842 H 286.654 3.56662 -6.71339 0
M  V30 2843 N 288.23 0.939286 1.26551 0
M  V30 2844 C 289.193 0.451987 2.24699 0
M  V30 2845 C 290.193 -0.435869 1.5478 0
M  V30 2846 O 291.383 -0.235314 1.72603 0
M  V30 2847 C 288.515 -0.348801 3.39111 0
M  V30 2848 H 289.708 1.3193 2.69322 0
M  V30 2849 H 287.261 0.721072 1.38673 0
M  V30 2850 H 287.996 -1.23444 2.99887 0
M  V30 2851 H 287.781 0.287945 3.91041 0
M  V30 2852 H 289.271 -0.679726 4.12031 0
M  V30 2853 N 289.708 -1.40897 0.706093 0
M  V30 2854 C 290.641 -2.282 -0.00328781 0
M  V30 2855 C 291.619 -1.42816 -0.77732 0
M  V30 2856 O 292.803 -1.72237 -0.765944 0
M  V30 2857 C 289.93 -3.23226 -1.01205 0
M  V30 2858 C 288.976 -4.25222 -0.329955 0
M  V30 2859 S 289.809 -5.27269 0.935298 0
M  V30 2860 C 290.965 -6.25859 -0.0716061 0
M  V30 2861 H 291.198 -2.88016 0.737143 0
M  V30 2862 H 288.731 -1.46191 0.496756 0
M  V30 2863 H 290.689 -3.78503 -1.58888 0
M  V30 2864 H 289.35 -2.62485 -1.72513 0
M  V30 2865 H 288.543 -4.92023 -1.09221 0
M  V30 2866 H 288.145 -3.73595 0.174069 0
M  V30 2867 H 290.437 -6.71204 -0.921521 0
M  V30 2868 H 291.38 -7.0586 0.562765 0
M  V30 2869 H 291.788 -5.62852 -0.431088 0
M  V30 2870 N 291.186 -0.45159 -1.50991 0
M  V30 2871 C 292.116 0.342898 -2.30969 0
M  V30 2872 C 293.097 1.00815 -1.37005 0
M  V30 2873 O 294.282 1.00907 -1.65926 0
M  V30 2874 C 291.412 1.43637 -3.16205 0
M  V30 2875 C 290.366 0.893818 -4.18563 0
M  V30 2876 C 289.692 2.08411 -4.92411 0
M  V30 2877 C 290.992 -0.0815568 -5.22236 0
M  V30 2878 H 292.686 -0.324556 -2.97636 0
M  V30 2879 H 290.232 -0.157531 -1.43136 0
M  V30 2880 H 292.185 1.9995 -3.70942 0
M  V30 2881 H 290.909 2.13232 -2.47386 0
M  V30 2882 H 289.568 0.352798 -3.64898 0
M  V30 2883 H 289.216 2.76658 -4.20082 0
M  V30 2884 H 288.916 1.72741 -5.61636 0
M  V30 2885 H 290.44 2.65251 -5.49976 0
M  V30 2886 H 291.854 0.391742 -5.7196 0
M  V30 2887 H 290.251 -0.351551 -5.99069 0
M  V30 2888 H 291.321 -1.01374 -4.74185 0
M  V30 2889 N 292.664 1.56529 -0.183458 0
M  V30 2890 C 293.611 2.18546 0.742055 0
M  V30 2891 C 294.581 1.12912 1.2182 0
M  V30 2892 O 295.766 1.41115 1.28418 0
M  V30 2893 C 292.906 2.83977 1.96089 0
M  V30 2894 C 292.019 4.04105 1.52719 0
M  V30 2895 C 291.154 4.57427 2.70063 0
M  V30 2896 C 290.193 5.69938 2.23243 0
M  V30 2897 N 289.33 6.17717 3.33722 0
M  V30 2898 H 294.17 2.97284 0.206432 0
M  V30 2899 H 291.707 1.46823 0.0901571 0
M  V30 2900 H 293.665 3.20077 2.67594 0
M  V30 2901 H 292.295 2.07822 2.47002 0
M  V30 2902 H 291.347 3.73745 0.708436 0
M  V30 2903 H 292.659 4.85513 1.1436 0
M  V30 2904 H 291.813 4.95772 3.49708 0
M  V30 2905 H 290.552 3.75101 3.11689 0
M  V30 2906 H 289.557 5.31133 1.42048 0
M  V30 2907 H 290.782 6.54073 1.82661 0
M  V30 2908 H 288.728 5.38317 3.74902 0
M  V30 2909 H 288.645 6.94146 2.99495 0
M  V30 2910 H 289.913 6.60713 4.13616 0
M  V30 2911 N 294.142 -0.090211 1.57342 0
M  V30 2912 C 295.092 -1.11557 1.98844 0
M  V30 2913 C 296.076 -1.35503 0.867624 0
M  V30 2914 O 297.268 -1.36113 1.13148 0
M  V30 2915 C 294.397 -2.43446 2.42051 0
M  V30 2916 C 293.483 -2.22853 3.60828 0
M  V30 2917 N 293.874 -1.72141 4.75606 0
M  V30 2918 C 292.172 -2.53401 3.67021 0
M  V30 2919 C 292.873 -1.65932 5.57531 0
M  V30 2920 N 291.849 -2.11323 5.00843 0
M  V30 2921 H 295.651 -0.716499 2.85032 0
M  V30 2922 H 293.165 -0.297567 1.59651 0
M  V30 2923 H 295.162 -3.17644 2.70014 0
M  V30 2924 H 293.822 -2.84087 1.57241 0
M  V30 2925 H 294.833 -1.41268 4.98261 0
M  V30 2926 H 291.51 -2.97532 2.92884 0
M  V30 2927 H 292.9 -1.27733 6.59647 0
M  V30 2928 N 295.62 -1.53406 -0.361157 0
M  V30 2929 C 297.031 -1.61442 -0.937728 0
M  V30 2930 C 297.382 -0.48461 -1.90121 0
M  V30 2931 O 296.507 0.388312 -2.12888 0
M  V30 2932 C 297.102 -2.92624 -1.70753 0
M  V30 2933 C 295.661 -3.02981 -2.23337 0
M  V30 2934 C 294.808 -2.5677 -1.04712 0
M  V30 2935 H 297.759 -1.58083 -0.139816 0
M  V30 2936 H 297.78 -2.80675 -2.56908 0
M  V30 2937 H 297.292 -3.74834 -1.00604 0
M  V30 2938 H 295.393 -2.25368 -2.96715 0
M  V30 2939 H 295.506 -4.0814 -2.50916 0
M  V30 2940 H 293.87 -2.11752 -1.41539 0
M  V30 2941 H 294.653 -3.41402 -0.360539 0
M  V30 2942 N 297.098 0.621204 -1.44841 0
M  V30 2943 C 298.046 1.75385 -1.52784 0
M  V30 2944 C 299.04 1.64639 -0.398779 0
M  V30 2945 O 300.246 1.70598 -0.574137 0
M  V30 2946 H 296.621 0.579193 -0.479625 0
M  V30 2947 H 298.592 1.6581 -2.48092 0
M  V30 2948 C 297.341 3.13742 -1.4987 0
M  V30 2949 H 296.664 3.22663 -2.36069 0
M  V30 2950 H 298.104 3.92861 -1.59487 0
M  V30 2951 C 296.563 3.36175 -0.220973 0
M  V30 2952 O 297.093 3.95469 0.704782 0
M  V30 2953 N 295.299 2.90348 -0.120963 0
M  V30 2954 H 294.846 2.42278 -0.875162 0
M  V30 2955 H 294.804 3.05732 0.733168 0
M  V30 2956 N 298.576 1.31904 0.862503 0
M  V30 2957 C 299.825 1.21373 1.61094 0
M  V30 2958 C 300.138 -0.22504 1.94301 0
M  V30 2959 O 301.344 -0.452121 2.67709 0
M  V30 2960 C 299.8 2.12525 2.9045 0
M  V30 2961 C 299.408 3.61441 2.64697 0
M  V30 2962 C 301.152 2.10813 3.68454 0
M  V30 2963 C 299.059 4.44578 3.90006 0
M  V30 2964 H 297.989 0.450705 0.604468 0
M  V30 2965 H 300.64 1.56811 0.953027 0
M  V30 2966 H 299.022 1.69994 3.57656 0
M  V30 2967 H 300.196 4.12264 2.05851 0
M  V30 2968 H 298.511 3.65205 2.00036 0
M  V30 2969 H 301.108 2.70167 4.61426 0
M  V30 2970 H 301.451 1.09713 4.01583 0
M  V30 2971 H 301.984 2.51583 3.08141 0
M  V30 2972 H 298.723 5.46461 3.62023 0
M  V30 2973 H 298.243 3.98508 4.48276 0
M  V30 2974 H 299.922 4.57176 4.5782 0
M  V30 2975 N 300.054 -1.07777 1.14986 0
M  V30 2976 C 301.303 -1.79669 0.916617 0
M  V30 2977 C 301.616 -1.87474 -0.557917 0
M  V30 2978 O 302.822 -2.55845 -0.908617 0
M  V30 2979 C 301.278 -3.22848 1.59051 0
M  V30 2980 C 300.886 -3.23257 3.10176 0
M  V30 2981 C 302.63 -3.99379 1.43864 0
M  V30 2982 C 300.537 -4.61063 3.70372 0
M  V30 2983 H 299.467 -0.673349 0.33929 0
M  V30 2984 H 302.118 -1.21003 1.37951 0
M  V30 2985 H 300.5 -3.8168 1.0553 0
M  V30 2986 H 301.674 -2.74095 3.70417 0
M  V30 2987 H 299.989 -2.60222 3.25074 0
M  V30 2988 H 302.586 -5.0122 1.86232 0
M  V30 2989 H 302.929 -4.14511 0.385564 0
M  V30 2990 H 303.462 -3.47032 1.94457 0
M  V30 2991 H 300.201 -4.51135 4.7556 0
M  V30 2992 H 299.721 -5.1048 3.14913 0
M  V30 2993 H 301.4 -5.30034 3.71043 0
M  V30 2994 N 301.532 -0.945985 -1.26051 0
M  V30 2995 C 302.495 -0.463897 -2.24456 0
M  V30 2996 C 303.495 0.427655 -1.55009 0
M  V30 2997 O 304.685 0.226157 -1.72726 0
M  V30 2998 C 301.817 0.330812 -3.39291 0
M  V30 2999 H 303.01 -1.33357 -2.68619 0
M  V30 3000 H 300.563 -0.728416 -1.38289 0
M  V30 3001 H 301.298 1.21852 -3.00537 0
M  V30 3002 H 301.083 -0.308679 -3.90883 0
M  V30 3003 H 302.573 0.657865 -4.12386 0
M  V30 3004 N 303.011 1.40521 -0.713556 0
M  V30 3005 C 303.941 2.33381 -0.0743864 0
M  V30 3006 C 304.922 1.52784 0.747735 0
M  V30 3007 O 306.107 1.81258 0.697071 0
M  V30 3008 C 303.237 3.36748 0.849598 0
M  V30 3009 C 302.191 4.27793 0.133247 0
M  V30 3010 C 301.517 5.21679 1.17281 0
M  V30 3011 C 302.817 5.12415 -1.01134 0
M  V30 3012 H 304.511 2.87081 -0.850007 0
M  V30 3013 H 302.057 1.38034 -0.410201 0
M  V30 3014 H 304.01 4.00648 1.30612 0
M  V30 3015 H 302.734 2.81439 1.65709 0
M  V30 3016 H 301.393 3.65342 -0.303426 0
M  V30 3017 H 301.041 4.62677 1.9733 0
M  V30 3018 H 300.741 5.83435 0.698397 0
M  V30 3019 H 302.265 5.88456 1.62947 0
M  V30 3020 H 303.679 5.69781 -0.634274 0
M  V30 3021 H 302.076 5.83203 -1.41399 0
M  V30 3022 H 303.146 4.48514 -1.84292 0
M  V30 3023 N 304.489 0.459591 1.5075 0
M  V30 3024 C 305.905 0.113092 1.59199 0
M  V30 3025 C 306.105 -1.37951 1.46874 0
M  V30 3026 O 305.161 -2.15168 1.32132 0
M  V30 3027 C 306.474 0.653043 2.93523 0
M  V30 3028 C 308.022 0.615449 3.0689 0
M  V30 3029 C 308.497 1.13275 4.43771 0
M  V30 3030 N 309.988 1.09167 4.50152 0
M  V30 3031 C 310.723 1.46256 5.54434 0
M  V30 3032 N 310.219 1.90739 6.66026 0
M  V30 3033 N 312.012 1.37932 5.44914 0
M  V30 3034 H 304.163 1.43049 1.57005 0
M  V30 3035 H 306.426 0.590861 0.741341 0
M  V30 3036 H 306.132 1.69822 3.07983 0
M  V30 3037 H 306.006 0.0902132 3.77092 0
M  V30 3038 H 308.393 -0.420793 2.92084 0
M  V30 3039 H 308.474 1.21495 2.25106 0
M  V30 3040 H 308.118 2.16757 4.59324 0
M  V30 3041 H 308.048 0.509576 5.24129 0
M  V30 3042 H 310.539 0.76528 3.7007 0
M  V30 3043 H 310.852 2.17218 7.41644 0
M  V30 3044 H 309.197 1.94683 6.67176 0
M  V30 3045 H 312.388 1.0303 4.56621 0
M  V30 3046 H 312.561 1.67164 6.26067 0
M  V30 3047 N 305.967 -1.56429 0.191757 0
M  V30 3048 C 307.215 -1.97095 -0.447006 0
M  V30 3049 C 307.536 -1.07967 -1.62383 0
M  V30 3050 O 306.806 -0.150248 -1.95323 0
M  V30 3051 H 305.386 -0.727832 -0.168135 0
M  V30 3052 H 308.048 -1.92911 0.27771 0
M  V30 3053 H 307.144 -3.01848 -0.793371 0
M  V30 3054 N 307.445 0.0818655 -1.57387 0
M  V30 3055 C 308.691 0.784074 -1.8703 0
M  V30 3056 C 309.024 1.77729 -0.782689 0
M  V30 3057 O 308.299 1.93384 0.208051 0
M  V30 3058 C 308.582 1.50105 -3.27323 0
M  V30 3059 C 308.435 0.524925 -4.46727 0
M  V30 3060 C 309.754 2.44843 -3.65705 0
M  V30 3061 H 306.873 0.283582 -0.680257 0
M  V30 3062 H 309.515 0.0474352 -1.89941 0
M  V30 3063 H 307.665 2.12897 -3.24972 0
M  V30 3064 H 309.337 -0.0970111 -4.61198 0
M  V30 3065 H 307.58 -0.160606 -4.33503 0
M  V30 3066 H 308.251 1.064 -5.41648 0
M  V30 3067 H 310.727 1.92135 -3.69085 0
M  V30 3068 H 309.603 2.92018 -4.64776 0
M  V30 3069 H 309.864 3.29197 -2.95096 0
M  V30 3070 N 308.923 1.53595 0.353017 0
M  V30 3071 C 310.163 1.72094 1.10286 0
M  V30 3072 C 310.527 0.469217 1.86178 0
M  V30 3073 O 311.728 0.531083 2.63501 0
M  V30 3074 C 309.999 2.94386 2.02661 0
M  V30 3075 S 311.558 3.33651 2.84996 0
M  V30 3076 H 308.376 0.605433 0.372789 0
M  V30 3077 H 310.978 1.91722 0.38248 0
M  V30 3078 H 309.682 3.83669 1.45691 0
M  V30 3079 H 309.213 2.77197 2.79152 0
M  V30 3080 H 311.228 2.86645 4.0503 0
M  V30 3081 N 310.401 -0.613514 1.45168 0
M  V30 3082 C 311.331 -1.7354 1.56225 0
M  V30 3083 C 312.312 -1.64981 0.41414 0
M  V30 3084 O 313.497 -1.83472 0.636526 0
M  V30 3085 C 310.627 -3.12128 1.52295 0
M  V30 3086 C 309.581 -3.35491 2.65762 0
M  V30 3087 C 308.907 -4.74291 2.46885 0
M  V30 3088 C 310.207 -3.26325 4.0781 0
M  V30 3089 H 311.901 -1.64543 2.50132 0
M  V30 3090 H 309.447 -0.790185 1.20383 0
M  V30 3091 H 311.4 -3.90404 1.58628 0
M  V30 3092 H 310.124 -3.2195 0.549139 0
M  V30 3093 H 308.783 -2.59603 2.58847 0
M  V30 3094 H 308.431 -4.80839 1.47657 0
M  V30 3095 H 308.131 -4.9088 3.22972 0
M  V30 3096 H 309.655 -5.54775 2.55063 0
M  V30 3097 H 311.069 -3.94483 4.16 0
M  V30 3098 H 309.466 -3.54445 4.8424 0
M  V30 3099 H 310.536 -2.23855 4.30136 0
M  V30 3100 N 311.879 -1.3236 -0.855495 0
M  V30 3101 C 312.826 -1.21225 -1.964 0
M  V30 3102 C 313.796 -0.0946204 -1.6583 0
M  V30 3103 O 314.981 -0.27002 -1.8888 0
M  V30 3104 C 312.121 -0.940419 -3.32039 0
M  V30 3105 C 311.234 -2.14276 -3.75113 0
M  V30 3106 C 310.369 -1.80648 -4.9954 0
M  V30 3107 C 309.408 -2.97208 -5.35102 0
M  V30 3108 N 308.545 -2.63678 -6.50706 0
M  V30 3109 H 313.385 -2.16042 -2.05255 0
M  V30 3110 H 310.922 -1.07451 -1.00463 0
M  V30 3111 H 312.88 -0.763311 -4.10158 0
M  V30 3112 H 311.51 -0.0290413 -3.22787 0
M  V30 3113 H 310.562 -2.43017 -2.92655 0
M  V30 3114 H 311.874 -3.01468 -3.97389 0
M  V30 3115 H 311.028 -1.59484 -5.85363 0
M  V30 3116 H 309.767 -0.906678 -4.79198 0
M  V30 3117 H 308.772 -3.19004 -4.47791 0
M  V30 3118 H 309.997 -3.87918 -5.57401 0
M  V30 3119 H 307.943 -1.76238 -6.31883 0
M  V30 3120 H 307.86 -3.444 -6.72997 0
M  V30 3121 H 309.128 -2.45942 -7.39684 0
M  V30 3122 N 313.357 1.07166 -1.15556 0
M  V30 3123 C 314.267 2.17947 -0.868116 0
M  V30 3124 C 315.283 1.73297 0.156297 0
M  V30 3125 O 316.459 2.01392 -0.0182327 0
M  V30 3126 C 313.524 3.44789 -0.36355 0
M  V30 3127 C 312.585 4.03996 -1.45209 0
M  V30 3128 C 311.818 5.24783 -0.971508 0
M  V30 3129 O 312.041 5.70109 0.182194 0
M  V30 3130 O 310.975 5.75715 -1.75603 0
M  V30 3131 H 314.801 2.4503 -1.79427 0
M  V30 3132 H 312.386 1.16539 -0.934824 0
M  V30 3133 H 314.268 4.21307 -0.0887113 0
M  V30 3134 H 312.943 3.19253 0.534708 0
M  V30 3135 H 311.85 3.29009 -1.78056 0
M  V30 3136 H 313.183 4.33808 -2.32533 0
M  V30 3137 N 314.835 0.952656 1.25548 0
M  V30 3138 C 316.246 0.647392 1.75116 0
M  V30 3139 C 316.597 -0.837274 1.77438 0
M  V30 3140 O 315.722 -1.65525 1.39393 0
M  V30 3141 C 316.317 1.16845 3.18014 0
M  V30 3142 C 314.876 0.913382 3.6515 0
M  V30 3143 C 314.023 1.31265 2.44264 0
M  V30 3144 H 316.974 1.12968 1.11462 0
M  V30 3145 H 316.995 0.527606 3.76824 0
M  V30 3146 H 316.507 2.24902 3.16292 0
M  V30 3147 H 314.608 -0.152316 3.72289 0
M  V30 3148 H 314.721 1.54845 4.53387 0
M  V30 3149 H 313.085 0.731028 2.43984 0
M  V30 3150 H 313.868 2.40239 2.45234 0
M  V30 3151 N 316.313 -1.40141 0.720998 0
M  V30 3152 C 317.261 -2.3252 0.0608547 0
M  V30 3153 C 318.255 -1.52326 -0.741152 0
M  V30 3154 O 319.461 -1.68089 -0.643911 0
M  V30 3155 H 315.836 -0.751999 0.000876664 0
M  V30 3156 H 317.807 -2.8584 0.856614 0
M  V30 3157 C 316.556 -3.37331 -0.842809 0
M  V30 3158 H 315.879 -3.99108 -0.235084 0
M  V30 3159 H 317.319 -4.04452 -1.27257 0
M  V30 3160 C 315.778 -2.73246 -1.97074 0
M  V30 3161 O 316.308 -2.59998 -3.06209 0
M  V30 3162 N 314.514 -2.31547 -1.75597 0
M  V30 3163 H 314.061 -2.42522 -0.868368 0
M  V30 3164 H 314.019 -1.89007 -2.51244 0
M  V30 3165 N 317.792 -0.46758 -1.50504 0
M  V30 3166 C 318.722 0.318381 -2.31319 0
M  V30 3167 C 319.703 0.993564 -1.38066 0
M  V30 3168 O 320.888 0.991411 -1.66987 0
M  V30 3169 C 318.018 1.40275 -3.17711 0
M  V30 3170 C 316.972 0.849373 -4.19487 0
M  V30 3171 C 316.298 2.03177 -4.94594 0
M  V30 3172 C 317.598 -0.136942 -5.2212 0
M  V30 3173 H 319.292 -0.356106 -2.97275 0
M  V30 3174 H 316.838 -0.172703 -1.42961 0
M  V30 3175 H 318.791 1.96004 -3.73042 0
M  V30 3176 H 317.515 2.10596 -2.49634 0
M  V30 3177 H 316.174 0.314076 -3.65252 0
M  V30 3178 H 315.822 2.72187 -4.22993 0
M  V30 3179 H 315.522 1.66774 -5.63436 0
M  V30 3180 H 317.046 2.59403 -5.52759 0
M  V30 3181 H 318.46 0.331056 -5.72343 0
M  V30 3182 H 316.857 -0.41507 -5.98663 0
M  V30 3183 H 317.927 -1.06398 -4.73083 0
M  V30 3184 N 319.27 1.56325 -0.20005 0
M  V30 3185 C 320.51 1.99619 0.439519 0
M  V30 3186 C 320.874 1.08423 1.58456 0
M  V30 3187 O 322.075 1.40973 2.28867 0
M  V30 3188 C 320.346 3.46314 0.883258 0
M  V30 3189 S 321.905 4.11634 1.51997 0
M  V30 3190 H 318.723 0.697007 0.140363 0
M  V30 3191 H 321.325 1.93118 -0.304282 0
M  V30 3192 H 320.029 4.10381 0.0398967 0
M  V30 3193 H 319.56 3.56643 1.6604 0
M  V30 3194 H 321.575 4.09049 2.8088 0
M  V30 3195 N 320.748 -0.0735177 1.57428 0
M  V30 3196 C 321.678 -1.0879 2.06608 0
M  V30 3197 C 322.659 -1.40473 0.959237 0
M  V30 3198 O 323.844 -1.5013 1.23185 0
M  V30 3199 C 320.974 -2.40183 2.50857 0
M  V30 3200 C 319.928 -2.22858 3.65402 0
M  V30 3201 C 319.254 -3.59619 3.957 0
M  V30 3202 C 320.554 -1.65123 4.95511 0
M  V30 3203 H 322.248 -0.678673 2.91607 0
M  V30 3204 H 319.794 -0.325013 1.40284 0
M  V30 3205 H 321.747 -3.11437 2.83874 0
M  V30 3206 H 320.471 -2.83083 1.62885 0
M  V30 3207 H 319.13 -1.54045 3.32664 0
M  V30 3208 H 318.778 -4.00086 3.04861 0
M  V30 3209 H 318.478 -3.48866 4.72828 0
M  V30 3210 H 320.002 -4.32306 4.31212 0
M  V30 3211 H 321.416 -2.26241 5.26771 0
M  V30 3212 H 319.813 -1.65071 5.7695 0
M  V30 3213 H 320.883 -0.612559 4.81015 0
M  V30 3214 N 322.226 -1.5378 -0.344866 0
M  V30 3215 C 323.472 -1.71216 -1.08687 0
M  V30 3216 C 323.805 -0.473281 -1.88345 0
M  V30 3217 O 323.08 0.52968 -1.87149 0
M  V30 3218 C 323.363 -2.97486 -2.02914 0
M  V30 3219 C 323.216 -4.31579 -1.26727 0
M  V30 3220 C 324.535 -3.19422 -3.0275 0
M  V30 3221 H 321.654 -0.62301 -0.393735 0
M  V30 3222 H 324.296 -1.8645 -0.365563 0
M  V30 3223 H 322.446 -2.84629 -2.64421 0
M  V30 3224 H 324.118 -4.56284 -0.67845 0
M  V30 3225 H 322.361 -4.30049 -0.569273 0
M  V30 3226 H 323.032 -5.16106 -1.95803 0
M  V30 3227 H 325.508 -3.316 -2.51357 0
M  V30 3228 H 324.384 -4.09169 -3.65885 0
M  V30 3229 H 324.645 -2.35656 -3.74057 0
M  V30 3230 N 323.704 0.605807 -1.45491 0
M  V30 3231 C 324.637 1.73022 -1.48791 0
M  V30 3232 C 325.615 1.58917 -0.344112 0
M  V30 3233 O 326.799 1.80453 -0.544876 0
M  V30 3234 C 323.926 3.10865 -1.34463 0
M  V30 3235 C 322.972 3.43554 -2.5273 0
M  V30 3236 S 323.805 3.38196 -4.15191 0
M  V30 3237 C 324.961 4.78616 -4.03333 0
M  V30 3238 H 325.194 1.69961 -2.43928 0
M  V30 3239 H 322.727 0.782611 -1.33096 0
M  V30 3240 H 324.685 3.90398 -1.26884 0
M  V30 3241 H 323.346 3.1144 -0.40794 0
M  V30 3242 H 322.539 4.43924 -2.38637 0
M  V30 3243 H 322.141 2.71541 -2.5718 0
M  V30 3244 H 324.433 5.68463 -3.68587 0
M  V30 3245 H 325.376 4.97767 -5.03621 0
M  V30 3246 H 325.784 4.54381 -3.34959 0
M  V30 3247 N 325.182 1.32811 0.848464 0
M  V30 3248 C 326.092 1.24278 1.98978 0
M  V30 3249 C 327.108 0.155176 1.73307 0
M  V30 3250 O 328.284 0.376999 1.9784 0
M  V30 3251 C 325.349 0.972444 3.32783 0
M  V30 3252 C 324.41 2.14911 3.71634 0
M  V30 3253 C 323.643 1.89157 4.99054 0
M  V30 3254 O 323.866 0.837165 5.64223 0
M  V30 3255 O 322.8 2.75433 5.35183 0
M  V30 3256 H 326.626 2.20238 2.09115 0
M  V30 3257 H 324.211 1.12762 0.980052 0
M  V30 3258 H 326.093 0.838432 4.12975 0
M  V30 3259 H 324.768 0.043051 3.23671 0
M  V30 3260 H 323.675 2.33862 2.91992 0
M  V30 3261 H 325.008 3.06151 3.85399 0
M  V30 3262 N 326.66 -1.06551 1.16123 0
M  V30 3263 C 327.907 -1.79302 0.941126 0
M  V30 3264 C 328.235 -1.87105 -0.531235 0
M  V30 3265 O 327.49 -1.35692 -1.41018 0
M  V30 3266 C 327.789 -3.23911 1.51052 0
M  V30 3267 C 327.455 -3.36193 3.00475 0
M  V30 3268 C 326.117 -3.39252 3.41265 0
M  V30 3269 C 328.469 -3.38326 3.96465 0
M  V30 3270 C 325.797 -3.42057 4.76669 0
M  V30 3271 C 328.149 -3.4267 5.31752 0
M  V30 3272 C 326.813 -3.4401 5.72026 0
M  V30 3273 H 326.083 -0.656111 0.344382 0
M  V30 3274 H 328.73 -1.25325 1.44796 0
M  V30 3275 H 327.035 -3.80723 0.925063 0
M  V30 3276 H 328.732 -3.78793 1.31593 0
M  V30 3277 H 325.322 -3.34516 2.6795 0
M  V30 3278 H 329.506 -3.35176 3.6602 0
M  V30 3279 H 324.762 -3.41398 5.07206 0
M  V30 3280 H 328.936 -3.43268 6.05921 0
M  V30 3281 H 326.563 -3.45937 6.76928 0
M  V30 3282 N 328.138 -0.959301 -1.25041 0
M  V30 3283 C 329.101 -0.487677 -2.23952 0
M  V30 3284 C 330.101 0.41119 -1.55454 0
M  V30 3285 O 331.291 0.207825 -1.72956 0
M  V30 3286 C 328.423 0.294807 -3.39623 0
M  V30 3287 H 329.616 -1.36198 -2.67189 0
M  V30 3288 H 327.169 -0.743042 -1.37508 0
M  V30 3289 H 327.904 1.18658 -3.01813 0
M  V30 3290 H 327.689 -0.35012 -3.90534 0
M  V30 3291 H 329.179 0.614089 -4.1306 0
M  V30 3292 N 329.616 1.39756 -0.72842 0
M  V30 3293 C 331.032 1.5442 -0.403308 0
M  V30 3294 C 331.232 1.69694 1.08656 0
M  V30 3295 O 330.288 1.69373 1.87267 0
M  V30 3296 C 331.601 2.76555 -1.18058 0
M  V30 3297 C 333.149 2.90384 -1.16815 0
M  V30 3298 C 333.624 4.15449 -1.92785 0
M  V30 3299 N 335.115 4.22475 -1.89918 0
M  V30 3300 C 335.85 5.1818 -2.45514 0
M  V30 3301 N 335.346 6.19714 -3.09719 0
M  V30 3302 N 337.139 5.1035 -2.35584 0
M  V30 3303 H 329.29 1.28089 -1.69431 0
M  V30 3304 H 331.553 0.620327 -0.716867 0
M  V30 3305 H 331.259 2.7159 -2.23455 0
M  V30 3306 H 331.133 3.69033 -0.780662 0
M  V30 3307 H 333.52 2.94846 -0.12234 0
M  V30 3308 H 333.601 1.98988 -1.6074 0
M  V30 3309 H 333.245 4.11749 -2.97364 0
M  V30 3310 H 333.175 5.05877 -1.46272 0
M  V30 3311 H 335.666 3.49743 -1.43138 0
M  V30 3312 H 335.979 6.8919 -3.49625 0
M  V30 3313 H 334.324 6.20121 -3.13807 0
M  V30 3314 H 337.515 4.2996 -1.85072 0
M  V30 3315 H 337.688 5.84761 -2.79211 0
M  V30 3316 N 331.094 0.475555 1.50254 0
M  V30 3317 C 332.342 -0.077738 2.0195 0
M  V30 3318 C 332.663 -1.39813 1.35931 0
M  V30 3319 O 331.933 -1.89249 0.506123 0
M  V30 3320 H 330.513 -0.031719 0.746326 0
M  V30 3321 H 333.175 0.626995 1.84539 0
M  V30 3322 H 332.271 -0.225995 3.11281 0
M  V30 3323 N 332.573 -1.56217 0.208337 0
M  V30 3324 C 333.821 -1.97558 -0.426076 0
M  V30 3325 C 334.142 -1.09683 -1.61229 0
M  V30 3326 O 333.412 -0.170956 -1.95153 0
M  V30 3327 H 331.992 -0.729575 -0.160405 0
M  V30 3328 H 334.654 -1.92606 0.298155 0
M  V30 3329 H 333.75 -3.02672 -0.761312 0
M  V30 3330 N 334.051 0.0651679 -1.57465 0
M  V30 3331 C 335.462 0.616213 -1.76238 0
M  V30 3332 C 335.813 1.7756 -0.834689 0
M  V30 3333 O 334.938 2.1639 -0.0204156 0
M  V30 3334 C 335.533 1.12462 -3.1959 0
M  V30 3335 C 334.092 1.62147 -3.39684 0
M  V30 3336 C 333.239 0.543739 -2.71917 0
M  V30 3337 H 336.19 -0.161022 -1.57881 0
M  V30 3338 H 336.211 1.99324 -3.24114 0
M  V30 3339 H 335.723 0.280592 -3.87084 0
M  V30 3340 H 333.824 2.48854 -2.77313 0
M  V30 3341 H 333.937 1.69385 -4.48158 0
M  V30 3342 H 332.301 0.990352 -2.34657 0
M  V30 3343 H 333.084 -0.290216 -3.42071 0
M  V30 3344 N 335.529 1.53961 0.336706 0
M  V30 3345 C 336.459 1.85417 1.41925 0
M  V30 3346 C 337.44 0.709856 1.5458 0
M  V30 3347 O 338.625 0.962396 1.68676 0
M  V30 3348 C 335.755 2.06985 2.78881 0
M  V30 3349 C 334.709 3.22813 2.81026 0
M  V30 3350 C 334.035 3.29727 4.20932 0
M  V30 3351 C 335.335 4.60767 2.45949 0
M  V30 3352 H 337.029 2.76079 1.15848 0
M  V30 3353 H 334.575 1.32839 0.555859 0
M  V30 3354 H 336.528 2.27575 3.54665 0
M  V30 3355 H 335.252 1.13061 3.06406 0
M  V30 3356 H 333.911 3.0209 2.07695 0
M  V30 3357 H 333.559 2.33385 4.45579 0
M  V30 3358 H 333.259 4.07566 4.23277 0
M  V30 3359 H 334.783 3.52536 4.98549 0
M  V30 3360 H 336.197 4.81325 3.11446 0
M  V30 3361 H 334.594 5.4106 2.59566 0
M  V30 3362 H 335.664 4.6391 1.41122 0
M  V30 3363 N 337.007 -0.598083 1.45811 0
M  V30 3364 C 337.955 -1.72932 1.55555 0
M  V30 3365 C 338.949 -1.63984 0.424921 0
M  V30 3366 O 340.155 -1.69663 0.601205 0
M  V30 3367 H 336.53 -0.571489 0.488779 0
M  V30 3368 H 338.501 -1.61842 2.50699 0
M  V30 3369 C 337.25 -3.11318 1.54843 0
M  V30 3370 H 336.573 -3.18867 2.41172 0
M  V30 3371 H 338.013 -3.90274 1.65717 0
M  V30 3372 C 336.472 -3.3578 0.274427 0
M  V30 3373 O 337.002 -3.9654 -0.641778 0
M  V30 3374 N 335.208 -2.90119 0.167139 0
M  V30 3375 H 334.755 -2.40855 0.913596 0
M  V30 3376 H 334.713 -3.0686 -0.684435 0
M  V30 3377 N 338.485 -1.33259 -0.841409 0
M  V30 3378 C 339.901 -1.12538 -1.13169 0
M  V30 3379 C 340.101 0.0854037 -2.01319 0
M  V30 3380 O 339.157 0.766417 -2.40587 0
M  V30 3381 C 340.47 -2.41156 -1.79623 0
M  V30 3382 C 342.018 -2.47038 -1.922 0
M  V30 3383 C 342.493 -3.7561 -2.6207 0
M  V30 3384 N 343.984 -3.76667 -2.69585 0
M  V30 3385 C 344.719 -4.72861 -3.2433 0
M  V30 3386 N 344.215 -5.79428 -3.79783 0
M  V30 3387 N 346.008 -4.6034 -3.22558 0
M  V30 3388 H 338.159 -2.10868 -0.254676 0
M  V30 3389 H 340.422 -0.931615 -0.175493 0
M  V30 3390 H 340.128 -3.29747 -1.22311 0
M  V30 3391 H 340.002 -2.53114 -2.79666 0
M  V30 3392 H 342.389 -1.58898 -2.48667 0
M  V30 3393 H 342.47 -2.39022 -0.911148 0
M  V30 3394 H 342.114 -4.64131 -2.06263 0
M  V30 3395 H 342.044 -3.80902 -3.63622 0
M  V30 3396 H 344.535 -2.99648 -2.30259 0
M  V30 3397 H 344.848 -6.48867 -4.19752 0
M  V30 3398 H 343.193 -5.83166 -3.78078 0
M  V30 3399 H 346.384 -3.76244 -2.78492 0
M  V30 3400 H 346.557 -5.35478 -3.64921 0
M  V30 3401 N 339.963 1.05934 -1.16686 0
M  V30 3402 C 341.209 1.79065 -0.95203 0
M  V30 3403 C 341.542 1.87147 0.518629 0
M  V30 3404 O 340.817 1.36574 1.38484 0
M  V30 3405 C 341.1 3.23359 -1.58464 0
M  V30 3406 C 340.953 3.23336 -3.12689 0
M  V30 3407 C 342.272 4.21004 -1.28232 0
M  V30 3408 H 339.391 0.65005 -0.34728 0
M  V30 3409 H 342.033 1.23868 -1.44072 0
M  V30 3410 H 340.183 3.70493 -1.16908 0
M  V30 3411 H 341.855 2.84336 -3.6325 0
M  V30 3412 H 340.098 2.61886 -3.4583 0
M  V30 3413 H 340.769 4.25144 -3.52075 0
M  V30 3414 H 343.245 3.8233 -1.64203 0
M  V30 3415 H 342.121 5.20225 -1.75092 0
M  V30 3416 H 342.382 4.41639 -0.201791 0
M  V30 3417 N 341.441 0.965919 1.2453 0
M  V30 3418 C 342.371 0.513476 2.27784 0
M  V30 3419 C 343.352 -0.445974 1.6415 0
M  V30 3420 O 344.537 -0.342485 1.91156 0
M  V30 3421 C 341.667 -0.198839 3.4673 0
M  V30 3422 C 340.621 0.676456 4.2262 0
M  V30 3423 C 339.947 -0.167248 5.34438 0
M  V30 3424 C 341.247 1.96017 4.84123 0
M  V30 3425 H 342.941 1.3765 2.65881 0
M  V30 3426 H 340.487 0.663321 1.27813 0
M  V30 3427 H 342.44 -0.526567 4.18097 0
M  V30 3428 H 341.164 -1.0962 3.07654 0
M  V30 3429 H 339.823 0.98743 3.53052 0
M  V30 3430 H 339.471 -1.0647 4.91603 0
M  V30 3431 H 339.171 0.415181 5.86131 0
M  V30 3432 H 340.695 -0.489688 6.08633 0
M  V30 3433 H 342.109 1.69814 5.47573 0
M  V30 3434 H 340.506 2.48918 5.4604 0
M  V30 3435 H 341.576 2.65622 4.05676 0
M  V30 3436 N 342.919 -1.39368 0.735821 0
M  V30 3437 C 344.144 -2.05319 0.293052 0
M  V30 3438 C 344.569 -1.55115 -1.064 0
M  V30 3439 O 343.927 -0.695261 -1.67439 0
M  V30 3440 C 343.975 -3.59305 0.305323 0
M  V30 3441 O 343.079 -4.06299 -0.706761 0
M  V30 3442 H 342.42 -0.650529 0.13307 0
M  V30 3443 H 344.95 -1.78386 1.00197 0
M  V30 3444 H 344.96 -4.07724 0.149997 0
M  V30 3445 H 343.635 -3.95207 1.29553 0
M  V30 3446 H 342.212 -3.69292 -0.517504 0
M  V30 3447 N 344.397 -0.483516 -1.5 0
M  V30 3448 C 345.645 0.067027 -2.01989 0
M  V30 3449 C 345.966 1.3909 -1.36671 0
M  V30 3450 O 345.236 1.88978 -0.516152 0
M  V30 3451 H 343.816 0.0277606 -0.746484 0
M  V30 3452 H 346.478 -0.636773 -1.84204 0
M  V30 3453 H 345.574 0.209484 -3.11396 0
M  V30 3454 N 345.875 1.56104 -0.216619 0
M  V30 3455 C 346.822 2.2007 0.695531 0
M  V30 3456 C 347.792 1.15471 1.19397 0
M  V30 3457 O 348.977 1.43807 1.25396 0
M  V30 3458 C 346.117 2.88073 1.90021 0
M  V30 3459 C 345.23 4.07253 1.44113 0
M  V30 3460 C 344.365 4.63052 2.603 0
M  V30 3461 C 343.404 5.74545 2.11103 0
M  V30 3462 N 342.541 6.24656 3.20545 0
M  V30 3463 H 347.381 2.97655 0.143327 0
M  V30 3464 H 344.918 1.46982 0.0589934 0
M  V30 3465 H 346.876 3.25681 2.60745 0
M  V30 3466 H 345.506 2.13015 2.42538 0
M  V30 3467 H 344.558 3.75164 0.628999 0
M  V30 3468 H 345.87 4.8783 1.04036 0
M  V30 3469 H 345.024 5.03078 3.39113 0
M  V30 3470 H 343.763 3.81628 3.03663 0
M  V30 3471 H 342.768 5.34027 1.3075 0
M  V30 3472 H 343.993 6.57801 1.68746 0
M  V30 3473 H 341.939 5.46148 3.63399 0
M  V30 3474 H 341.856 7.00343 2.84704 0
M  V30 3475 H 343.124 6.69338 3.99508 0
M  V30 3476 N 347.353 -0.0568162 1.57498 0
M  V30 3477 C 348.769 -0.411933 1.54192 0
M  V30 3478 C 348.969 -1.78287 0.938942 0
M  V30 3479 O 348.025 -2.46483 0.547919 0
M  V30 3480 C 349.338 -0.339244 2.9878 0
M  V30 3481 C 350.886 -0.418348 3.10192 0
M  V30 3482 C 351.361 -0.375407 4.56459 0
M  V30 3483 N 352.852 -0.435038 4.61153 0
M  V30 3484 C 353.587 -0.424265 5.71828 0
M  V30 3485 N 353.083 -0.367418 6.91825 0
M  V30 3486 N 354.876 -0.471938 5.60115 0
M  V30 3487 H 347.027 0.840684 1.95055 0
M  V30 3488 H 349.29 0.316987 0.893433 0
M  V30 3489 H 348.996 0.601742 3.46514 0
M  V30 3490 H 348.87 -1.14371 3.59443 0
M  V30 3491 H 351.257 -1.34976 2.62422 0
M  V30 3492 H 351.338 0.414962 2.52412 0
M  V30 3493 H 350.982 0.552219 5.04889 0
M  V30 3494 H 350.912 -1.22645 5.12119 0
M  V30 3495 H 353.403 -0.482612 3.74806 0
M  V30 3496 H 353.716 -0.363535 7.71944 0
M  V30 3497 H 352.061 -0.333879 6.94198 0
M  V30 3498 H 355.252 -0.514145 4.65268 0
M  V30 3499 H 355.425 -0.460073 6.46365 0
M  V30 3500 N 348.832 -1.54138 -0.328536 0
M  V30 3501 C 350.081 -1.71318 -1.06456 0
M  V30 3502 C 350.394 -0.491109 -1.89334 0
M  V30 3503 O 351.6 -0.54416 -2.65991 0
M  V30 3504 C 350.056 -3.03 -1.94214 0
M  V30 3505 C 349.664 -4.32595 -1.16471 0
M  V30 3506 C 351.408 -3.29544 -2.67583 0
M  V30 3507 C 349.315 -5.55341 -2.03347 0
M  V30 3508 H 348.245 -0.638429 -0.401155 0
M  V30 3509 H 350.896 -1.80633 -0.323106 0
M  V30 3510 H 349.278 -2.87579 -2.72239 0
M  V30 3511 H 350.452 -4.58766 -0.432525 0
M  V30 3512 H 348.767 -4.12777 -0.548063 0
M  V30 3513 H 351.364 -4.18444 -3.3288 0
M  V30 3514 H 351.707 -2.47206 -3.34955 0
M  V30 3515 H 352.24 -3.45809 -1.96623 0
M  V30 3516 H 348.979 -6.40268 -1.40491 0
M  V30 3517 H 348.499 -5.33397 -2.74313 0
M  V30 3518 H 350.178 -5.91557 -2.62049 0
M  V30 3519 N 350.31 0.590341 -1.46126 0
M  V30 3520 C 351.721 1.17243 -1.45296 0
M  V30 3521 C 352.072 1.95281 -0.189723 0
M  V30 3522 O 351.197 2.04502 0.707674 0
M  V30 3523 C 351.792 2.13284 -2.6324 0
M  V30 3524 C 350.351 2.66832 -2.65476 0
M  V30 3525 C 349.498 1.42557 -2.3785 0
M  V30 3526 H 352.449 0.378692 -1.54116 0
M  V30 3527 H 352.47 2.96619 -2.38323 0
M  V30 3528 H 351.982 1.56459 -3.55165 0
M  V30 3529 H 350.083 3.27548 -1.77603 0
M  V30 3530 H 350.196 3.10088 -3.65215 0
M  V30 3531 H 348.56 1.72107 -1.87753 0
M  V30 3532 H 349.343 0.875741 -3.31942 0
M  V30 3533 N 351.788 1.33704 0.83433 0
M  V30 3534 C 353.199 1.22813 1.4062 0
M  V30 3535 C 353.55 -0.151107 1.95617 0
M  V30 3536 O 352.675 -1.05092 1.89168 0
M  V30 3537 C 353.27 2.22355 2.55624 0
M  V30 3538 C 351.829 2.1529 3.08751 0
M  V30 3539 C 350.976 2.09589 1.8157 0
M  V30 3540 H 353.927 1.45236 0.639702 0
M  V30 3541 H 353.948 1.83391 3.33389 0
M  V30 3542 H 353.46 3.22728 2.15566 0
M  V30 3543 H 351.561 1.18235 3.53343 0
M  V30 3544 H 351.674 3.06038 3.68616 0
M  V30 3545 H 350.038 1.55134 2.02004 0
M  V30 3546 H 350.821 3.11777 1.43701 0
M  V30 3547 N 353.266 -1.05314 1.17247 0
M  V30 3548 C 354.543 -1.75184 0.87005 0
M  V30 3549 C 354.923 -2.01481 -0.629965 0
M  V30 3550 O 354.271 -1.64988 -1.58086 0
M  V30 3551 C 354.481 -3.04594 1.70363 0
M  V30 3552 C 355.829 -3.78567 1.92281 0
M  V30 3553 O 356.853 -3.14461 1.67311 0
M  V30 3554 O 355.712 -4.93755 2.3424 0
M  V30 3555 H 352.806 -0.761729 0.322021 0
M  V30 3556 H 355.352 -1.11493 1.27935 0
M  V30 3557 H 354.124 -2.81201 2.72106 0
M  V30 3558 H 353.747 -3.76022 1.29202 0
M  V30 3559 N 354.744 -0.972509 -1.24016 0
M  V30 3560 C 355.993 -0.632603 -1.91523 0
M  V30 3561 C 356.306 0.836641 -1.76804 0
M  V30 3562 O 357.512 1.28728 -2.39043 0
M  V30 3563 C 355.968 -1.08082 -3.43287 0
M  V30 3564 C 355.576 -2.57386 -3.66683 0
M  V30 3565 C 357.32 -0.814288 -4.16617 0
M  V30 3566 C 355.227 -2.95915 -5.12043 0
M  V30 3567 H 354.157 -0.232898 -0.717129 0
M  V30 3568 H 356.808 -1.17936 -1.40582 0
M  V30 3569 H 355.19 -0.462339 -3.93292 0
M  V30 3570 H 356.364 -3.24405 -3.27258 0
M  V30 3571 H 354.679 -2.81701 -3.06649 0
M  V30 3572 H 357.276 -1.0781 -5.23718 0
M  V30 3573 H 357.619 0.24955 -4.15551 0
M  V30 3574 H 358.152 -1.39397 -3.72577 0
M  V30 3575 H 354.891 -4.0139 -5.18234 0
M  V30 3576 H 354.411 -2.33584 -5.52448 0
M  V30 3577 H 356.09 -2.86086 -5.80314 0
M  V30 3578 N 356.222 1.38976 -0.743202 0
M  V30 3579 C 357.152 2.33171 -0.123873 0
M  V30 3580 C 358.133 1.54336 0.71516 0
M  V30 3581 O 359.318 1.82696 0.658467 0
M  V30 3582 C 356.448 3.38474 0.777978 0
M  V30 3583 C 355.402 4.27979 0.0424758 0
M  V30 3584 C 354.728 5.2405 1.06189 0
M  V30 3585 C 356.028 5.10155 -1.1198 0
M  V30 3586 H 357.722 2.85213 -0.910709 0
M  V30 3587 H 355.268 1.37133 -0.439388 0
M  V30 3588 H 357.221 4.03328 1.22084 0
M  V30 3589 H 355.945 2.84891 1.59702 0
M  V30 3590 H 354.604 3.64616 -0.380853 0
M  V30 3591 H 354.252 4.66758 1.87472 0
M  V30 3592 H 353.952 5.84785 0.574485 0
M  V30 3593 H 355.476 5.9178 1.50428 0
M  V30 3594 H 356.89 5.68307 -0.75499 0
M  V30 3595 H 355.287 5.80073 -1.53738 0
M  V30 3596 H 356.357 4.44504 -1.93764 0
M  V30 3597 N 357.7 0.491464 1.49741 0
M  V30 3598 C 358.946 -0.0565092 2.02721 0
M  V30 3599 C 359.279 -1.37522 1.37118 0
M  V30 3600 O 358.554 -1.87866 0.503645 0
M  V30 3601 C 358.837 -0.219051 3.59433 0
M  V30 3602 C 358.69 1.12211 4.35579 0
M  V30 3603 C 360.009 -0.964157 4.29409 0
M  V30 3604 H 357.128 -0.0190627 0.736753 0
M  V30 3605 H 359.77 0.641021 1.7886 0
M  V30 3606 H 357.92 -0.813165 3.79895 0
M  V30 3607 H 359.592 1.75437 4.26637 0
M  V30 3608 H 357.835 1.71377 3.98513 0
M  V30 3609 H 358.506 0.961794 5.43556 0
M  V30 3610 H 360.982 -0.460378 4.13545 0
M  V30 3611 H 359.858 -1.04671 5.38828 0
M  V30 3612 H 360.119 -2.00563 3.93988 0
M  V30 3613 N 359.178 -1.55987 0.224894 0
M  V30 3614 C 360.126 -2.21808 -0.700283 0
M  V30 3615 C 361.12 -1.19854 -1.19714 0
M  V30 3616 O 362.326 -1.37925 -1.15658 0
M  V30 3617 H 358.701 -0.711226 -0.244258 0
M  V30 3618 H 360.672 -2.98152 -0.121749 0
M  V30 3619 C 359.421 -2.91444 -1.8962 0
M  V30 3620 H 358.744 -3.69655 -1.52299 0
M  V30 3621 H 360.184 -3.40894 -2.52125 0
M  V30 3622 C 358.643 -1.94098 -2.75368 0
M  V30 3623 O 359.173 -1.46004 -3.74227 0
M  V30 3624 N 357.379 -1.61675 -2.41474 0
M  V30 3625 H 356.926 -2.00979 -1.61137 0
M  V30 3626 H 356.884 -0.968036 -2.99126 0
M  V30 3627 N 360.656 0.0484629 -1.57525 0
M  V30 3628 C 361.902 0.738854 -1.89506 0
M  V30 3629 C 362.257 1.73989 -0.821319 0
M  V30 3630 O 361.55 1.90825 0.172129 0
M  V30 3631 C 361.744 1.46632 -3.25935 0
M  V30 3632 C 361.573 0.537254 -4.46479 0
M  V30 3633 C 360.343 0.165484 -5.05029 0
M  V30 3634 C 362.541 -0.176085 -5.13998 0
M  V30 3635 N 360.523 -0.766868 -6.09091 0
M  V30 3636 C 361.894 -0.96478 -6.12448 0
M  V30 3637 C 363.949 -0.24509 -4.97296 0
M  V30 3638 C 362.652 -1.8161 -6.95996 0
M  V30 3639 C 364.678 -1.08347 -5.81391 0
M  V30 3640 C 364.04 -1.86014 -6.79395 0
M  V30 3641 H 360.139 0.245067 -0.742608 0
M  V30 3642 H 362.723 -0.000476161 -1.947 0
M  V30 3643 H 360.894 2.17623 -3.21706 0
M  V30 3644 H 362.626 2.10757 -3.45491 0
M  V30 3645 H 359.381 0.523466 -4.70698 0
M  V30 3646 H 359.805 -1.22698 -6.65788 0
M  V30 3647 H 364.447 0.341063 -4.21422 0
M  V30 3648 H 362.165 -2.41313 -7.71229 0
M  V30 3649 H 365.751 -1.14014 -5.70519 0
M  V30 3650 H 364.631 -2.4984 -7.43337 0
M  V30 3651 N 362.134 1.5431 0.320358 0
M  V30 3652 C 363.097 1.83195 1.3774 0
M  V30 3653 C 364.097 0.703906 1.44575 0
M  V30 3654 O 365.287 0.972214 1.44546 0
M  V30 3655 C 362.419 1.99487 2.76438 0
M  V30 3656 H 363.612 2.77642 1.1338 0
M  V30 3657 H 361.165 1.46076 0.556012 0
M  V30 3658 H 361.9 1.07262 3.06048 0
M  V30 3659 H 361.685 2.81575 2.7287 0
M  V30 3660 H 363.175 2.23271 3.52902 0
M  V30 3661 N 363.613 -0.582584 1.46437 0
M  V30 3662 C 364.859 -1.34278 1.51978 0
M  V30 3663 C 365.192 -1.93446 0.170973 0
M  V30 3664 O 364.467 -1.76481 -0.817608 0
M  V30 3665 C 364.75 -2.47203 2.61845 0
M  V30 3666 C 364.603 -1.93069 4.06257 0
M  V30 3667 C 365.922 -3.49247 2.67795 0
M  V30 3668 H 363.041 -0.486876 0.553282 0
M  V30 3669 H 365.683 -0.654437 1.78374 0
M  V30 3670 H 363.833 -3.0592 2.39469 0
M  V30 3671 H 365.505 -1.38808 4.3992 0
M  V30 3672 H 363.748 -1.23898 4.1573 0
M  V30 3673 H 364.419 -2.74586 4.7886 0
M  V30 3674 H 366.895 -3.00411 2.8791 0
M  V30 3675 H 365.771 -4.25719 3.46489 0
M  V30 3676 H 366.032 -4.06482 1.73852 0
M  V30 3677 N 365.091 -1.34144 -0.827227 0
M  V30 3678 C 366.023 -1.21206 -1.9453 0
M  V30 3679 C 367.036 -0.140176 -1.62195 0
M  V30 3680 O 368.225 -0.391647 -1.7415 0
M  V30 3681 C 365.325 -0.839141 -3.28347 0
M  V30 3682 C 364.498 -2.0051 -3.88734 0
M  V30 3683 C 363.557 -1.61128 -5.00923 0
M  V30 3684 O 362.583 -2.32726 -5.19449 0
M  V30 3685 N 363.785 -0.522958 -5.7814 0
M  V30 3686 H 366.55 -2.17525 -2.06162 0
M  V30 3687 H 364.111 -1.27043 -1.00358 0
M  V30 3688 H 366.103 -0.557556 -4.00841 0
M  V30 3689 H 364.673 0.0337293 -3.12582 0
M  V30 3690 H 363.893 -2.45166 -3.08686 0
M  V30 3691 H 365.181 -2.78498 -4.25812 0
M  V30 3692 H 364.579 0.0723518 -5.65654 0
M  V30 3693 H 363.136 -0.301089 -6.51104 0
M  V30 3694 N 366.569 1.04691 -1.17803 0
M  V30 3695 C 367.818 1.77176 -0.963931 0
M  V30 3696 C 368.131 1.88888 0.508015 0
M  V30 3697 O 369.337 2.58164 0.840465 0
M  V30 3698 C 367.793 3.18518 -1.67555 0
M  V30 3699 C 367.401 3.14919 -3.18637 0
M  V30 3700 C 369.145 3.95424 -1.54402 0
M  V30 3701 C 367.052 4.51081 -3.82466 0
M  V30 3702 H 365.982 0.664116 -0.357023 0
M  V30 3703 H 368.633 1.17303 -1.4111 0
M  V30 3704 H 367.015 3.78748 -1.15613 0
M  V30 3705 H 368.189 2.64178 -3.77554 0
M  V30 3706 H 366.504 2.51512 -3.31859 0
M  V30 3707 H 369.101 4.96106 -1.99456 0
M  V30 3708 H 369.444 4.13343 -0.495329 0
M  V30 3709 H 369.977 3.41754 -2.0359 0
M  V30 3710 H 366.716 4.38368 -4.87354 0
M  V30 3711 H 366.236 5.01951 -3.28337 0
M  V30 3712 H 367.915 5.2001 -3.84965 0
M  V30 3713 N 368.047 0.979072 1.23499 0
M  V30 3714 C 369.01 0.523244 2.23147 0
M  V30 3715 C 370.01 -0.386406 1.56088 0
M  V30 3716 O 371.2 -0.180283 1.73265 0
M  V30 3717 C 368.332 -0.240739 3.40049 0
M  V30 3718 H 369.525 1.40432 2.64989 0
M  V30 3719 H 367.078 0.764824 1.36309 0
M  V30 3720 H 367.813 -1.13841 3.03662 0
M  V30 3721 H 367.598 0.412207 3.89927 0
M  V30 3722 H 369.088 -0.548297 4.13985 0
M  V30 3723 N 369.525 -1.3858 0.750561 0
M  V30 3724 C 370.941 -1.53759 0.427824 0
M  V30 3725 C 371.141 -1.71401 -1.05943 0
M  V30 3726 O 370.197 -1.72331 -1.84549 0
M  V30 3727 C 371.51 -2.74642 1.22443 0
M  V30 3728 C 373.058 -2.88489 1.2142 0
M  V30 3729 C 373.533 -4.12329 1.9937 0
M  V30 3730 N 375.024 -4.194 1.96616 0
M  V30 3731 C 375.759 -5.14209 2.53727 0
M  V30 3732 N 375.255 -6.14709 3.19539 0
M  V30 3733 N 377.048 -5.06537 2.43673 0
M  V30 3734 H 369.199 -1.25377 1.71447 0
M  V30 3735 H 371.462 -0.608844 0.726645 0
M  V30 3736 H 371.168 -2.68 2.27747 0
M  V30 3737 H 371.042 -3.67745 0.839273 0
M  V30 3738 H 373.429 -2.94614 0.169232 0
M  V30 3739 H 373.51 -1.96406 1.63885 0
M  V30 3740 H 373.154 -4.06966 3.03877 0
M  V30 3741 H 373.084 -5.03486 1.54302 0
M  V30 3742 H 375.575 -3.47421 1.48684 0
M  V30 3743 H 375.888 -6.8354 3.60545 0
M  V30 3744 H 374.233 -6.1505 3.23633 0
M  V30 3745 H 377.424 -4.26962 1.91889 0
M  V30 3746 H 377.597 -5.80245 2.88479 0
M  V30 3747 N 371.003 -0.499398 -1.49478 0
M  V30 3748 C 372.251 0.0455996 -2.02049 0
M  V30 3749 C 372.572 1.37633 -1.38138 0
M  V30 3750 O 371.842 1.8842 -0.536166 0
M  V30 3751 H 370.422 0.0198416 -0.746736 0
M  V30 3752 H 373.084 -0.656274 -1.83519 0
M  V30 3753 H 372.18 0.176445 -3.11601 0
M  V30 3754 N 372.481 1.55866 -0.233164 0
M  V30 3755 C 373.414 2.16794 0.712442 0
M  V30 3756 C 374.392 1.1158 1.18273 0
M  V30 3757 O 375.576 1.39897 1.26337 0
M  V30 3758 C 372.703 2.75757 1.96661 0
M  V30 3759 C 371.749 3.93902 1.63533 0
M  V30 3760 S 372.582 5.30223 0.74995 0
M  V30 3761 C 373.738 5.92631 2.01343 0
M  V30 3762 H 373.971 2.96662 0.194617 0
M  V30 3763 H 371.504 1.5439 -0.0177425 0
M  V30 3764 H 373.462 3.10367 2.68668 0
M  V30 3765 H 372.123 1.9586 2.45556 0
M  V30 3766 H 371.316 4.33702 2.56747 0
M  V30 3767 H 370.918 3.60499 0.995804 0
M  V30 3768 H 373.21 6.09312 2.96219 0
M  V30 3769 H 374.153 6.88388 1.65915 0
M  V30 3770 H 374.561 5.21571 2.15925 0
M  V30 3771 N 373.959 -0.0401083 1.57549 0
M  V30 3772 C 374.907 -1.06264 2.06908 0
M  V30 3773 C 375.901 -1.38132 0.980608 0
M  V30 3774 O 377.107 -1.37167 1.16556 0
M  V30 3775 H 373.482 -0.360166 0.660139 0
M  V30 3776 H 375.453 -0.620445 2.91878 0
M  V30 3777 C 374.202 -2.35846 2.55483 0
M  V30 3778 H 373.525 -2.12183 3.38849 0
M  V30 3779 H 374.965 -3.05765 2.93741 0
M  V30 3780 C 373.424 -3.0404 1.45126 0
M  V30 3781 O 373.954 -3.93424 0.811216 0
M  V30 3782 N 372.16 -2.65184 1.18852 0
M  V30 3783 H 371.707 -1.92584 1.71083 0
M  V30 3784 H 371.665 -3.1113 0.452244 0
M  V30 3785 N 375.437 -1.54477 -0.31217 0
M  V30 3786 C 376.667 -1.76948 -1.06645 0
M  V30 3787 C 377.075 -0.523593 -1.81811 0
M  V30 3788 O 376.418 0.51578 -1.76311 0
M  V30 3789 C 376.48 -2.91668 -2.10166 0
M  V30 3790 C 376.144 -4.30165 -1.54296 0
M  V30 3791 C 377.141 -5.10603 -0.978793 0
M  V30 3792 C 374.826 -4.76738 -1.58196 0
M  V30 3793 C 376.82 -6.3573 -0.461048 0
M  V30 3794 C 374.507 -6.01831 -1.06034 0
M  V30 3795 C 375.505 -6.81161 -0.500844 0
M  V30 3796 O 375.193 -8.03899 0.0128958 0
M  V30 3797 H 374.925 -0.594088 -0.322546 0
M  V30 3798 H 377.479 -2.02213 -0.360441 0
M  V30 3799 H 375.709 -2.62001 -2.84416 0
M  V30 3800 H 377.398 -3.01817 -2.71406 0
M  V30 3801 H 378.164 -4.75771 -0.941651 0
M  V30 3802 H 374.043 -4.15027 -2.00683 0
M  V30 3803 H 377.587 -6.97596 -0.0236894 0
M  V30 3804 H 373.484 -6.36152 -1.09459 0
M  V30 3805 H 374.252 -8.18437 -0.101457 0
M  V30 3806 N 376.915 0.57481 -1.46744 0
M  V30 3807 C 377.845 1.69337 -1.60771 0
M  V30 3808 C 378.826 1.63825 -0.457736 0
M  V30 3809 O 380.011 1.8172 -0.684947 0
M  V30 3810 C 377.141 3.0798 -1.60517 0
M  V30 3811 C 376.095 3.28327 -2.74564 0
M  V30 3812 C 375.421 4.67578 -2.59373 0
M  V30 3813 C 376.721 3.15398 -4.16319 0
M  V30 3814 H 378.415 1.57853 -2.54407 0
M  V30 3815 H 375.961 0.75799 -1.22436 0
M  V30 3816 H 377.914 3.86061 -1.68923 0
M  V30 3817 H 376.638 3.20381 -0.634305 0
M  V30 3818 H 375.297 2.52649 -2.65639 0
M  V30 3819 H 374.945 4.76755 -1.60353 0
M  V30 3820 H 374.645 4.82144 -3.35873 0
M  V30 3821 H 376.169 5.47817 -2.69682 0
M  V30 3822 H 377.583 3.83315 -4.26313 0
M  V30 3823 H 375.98 3.41482 -4.93468 0
M  V30 3824 H 377.05 2.12372 -4.3592 0
M  V30 3825 N 378.394 1.34581 0.820102 0
M  V30 3826 C 379.344 1.22943 1.92013 0
M  V30 3827 C 380.328 0.127802 1.60392 0
M  V30 3828 O 381.52 0.357737 1.73347 0
M  V30 3829 C 378.649 0.989938 3.28717 0
M  V30 3830 C 377.735 2.13486 3.66449 0
M  V30 3831 N 378.126 3.38625 3.75722 0
M  V30 3832 C 376.424 2.04573 3.96315 0
M  V30 3833 C 377.125 4.13832 4.08801 0
M  V30 3834 N 376.101 3.42451 4.22171 0
M  V30 3835 H 379.903 2.17771 1.97365 0
M  V30 3836 H 377.417 1.2686 1.01392 0
M  V30 3837 H 379.414 0.887462 4.07345 0
M  V30 3838 H 378.074 0.0503691 3.24661 0
M  V30 3839 H 379.085 3.73143 3.59144 0
M  V30 3840 H 375.762 1.1839 4.00362 0
M  V30 3841 H 377.152 5.21909 4.23156 0
M  V30 3842 N 379.872 -1.04064 1.18357 0
M  V30 3843 C 381.149 -1.74252 0.888581 0
M  V30 3844 C 381.529 -2.02138 -0.60856 0
M  V30 3845 O 380.877 -1.66656 -1.56327 0
M  V30 3846 C 381.087 -3.0277 1.73584 0
M  V30 3847 C 382.435 -3.76506 1.96286 0
M  V30 3848 O 383.459 -3.12668 1.70637 0
M  V30 3849 O 382.318 -4.91243 2.39464 0
M  V30 3850 H 379.412 -0.758271 0.330082 0
M  V30 3851 H 381.958 -1.1013 1.2911 0
M  V30 3852 H 380.73 -2.78299 2.75073 0
M  V30 3853 H 380.353 -3.74631 1.33183 0
M  V30 3854 N 381.35 -0.985608 -1.22978 0
M  V30 3855 C 382.26 -0.538548 -2.28335 0
M  V30 3856 C 383.276 0.409163 -1.69121 0
M  V30 3857 O 384.452 0.277797 -1.99475 0
M  V30 3858 C 381.517 0.146867 -3.46389 0
M  V30 3859 C 380.578 -0.842896 -4.20944 0
M  V30 3860 C 379.811 -0.190095 -5.33361 0
M  V30 3861 O 380.034 1.01767 -5.61248 0
M  V30 3862 O 378.968 -0.891289 -5.95264 0
M  V30 3863 H 382.794 -1.41487 -2.68729 0
M  V30 3864 H 380.379 -0.753495 -1.29007 0
M  V30 3865 H 382.261 0.531125 -4.1804 0
M  V30 3866 H 380.936 0.997871 -3.07935 0
M  V30 3867 H 379.843 -1.27795 -3.51595 0
M  V30 3868 H 381.176 -1.66287 -4.6326 0
M  V30 3869 N 382.828 1.3818 -0.7579 0
M  V30 3870 C 383.791 2.28764 -0.141286 0
M  V30 3871 C 384.791 1.47388 0.642907 0
M  V30 3872 O 385.981 1.67781 0.468536 0
M  V30 3873 C 383.113 3.31184 0.808069 0
M  V30 3874 H 384.306 2.848 -0.939633 0
M  V30 3875 H 381.859 1.47212 -0.525191 0
M  V30 3876 H 382.594 2.80247 1.63193 0
M  V30 3877 H 382.379 3.91314 0.248104 0
M  V30 3878 H 383.869 3.98909 1.23536 0
M  V30 3879 N 384.306 0.507319 1.49211 0
M  V30 3880 C 385.555 -0.0368315 2.01666 0
M  V30 3881 C 385.868 -1.37459 1.39156 0
M  V30 3882 O 387.074 -2.00579 1.82976 0
M  V30 3883 C 385.53 -0.116089 3.59713 0
M  V30 3884 C 385.138 1.2154 4.31198 0
M  V30 3885 C 386.882 -0.610268 4.2009 0
M  V30 3886 C 384.789 1.09796 5.81119 0
M  V30 3887 H 383.719 -0.0175376 0.753796 0
M  V30 3888 H 386.37 0.647691 1.71689 0
M  V30 3889 H 384.752 -0.8652 3.86433 0
M  V30 3890 H 385.926 1.9783 4.16173 0
M  V30 3891 H 384.241 1.64352 3.82593 0
M  V30 3892 H 386.838 -0.715742 5.29888 0
M  V30 3893 H 387.181 -1.61064 3.8388 0
M  V30 3894 H 387.714 0.0824916 3.97714 0
M  V30 3895 H 384.453 2.0728 6.21864 0
M  V30 3896 H 383.973 0.376058 5.9862 0
M  V30 3897 H 385.652 0.779281 6.4229 0
M  V30 3898 N 385.784 -1.5574 0.241426 0
M  V30 3899 C 387.03 -1.99104 -0.385406 0
M  V30 3900 C 387.363 -1.1293 -1.57988 0
M  V30 3901 O 386.638 -0.191449 -1.93555 0
M  V30 3902 C 386.921 -3.51087 -0.800616 0
M  V30 3903 C 386.774 -4.48028 0.398874 0
M  V30 3904 C 388.093 -4.08015 -1.64959 0
M  V30 3905 H 385.212 -0.723848 -0.138614 0
M  V30 3906 H 387.854 -1.86903 0.341642 0
M  V30 3907 H 386.004 -3.61615 -1.4201 0
M  V30 3908 H 387.676 -4.49487 1.03726 0
M  V30 3909 H 385.919 -4.21077 1.04293 0
M  V30 3910 H 386.59 -5.51962 0.0651056 0
M  V30 3911 H 389.066 -4.00555 -1.12672 0
M  V30 3912 H 387.942 -5.14635 -1.90898 0
M  V30 3913 H 388.203 -3.56131 -2.61961 0
M  V30 3914 N 387.262 0.0317525 -1.57568 0
M  V30 3915 C 388.673 0.578692 -1.77505 0
M  V30 3916 C 389.024 1.75749 -0.872164 0
M  V30 3917 O 388.149 2.16298 -0.0663106 0
M  V30 3918 C 388.744 1.05658 -3.21904 0
M  V30 3919 C 387.303 1.54906 -3.43047 0
M  V30 3920 C 386.45 0.485939 -2.73009 0
M  V30 3921 H 389.401 -0.194475 -1.57504 0
M  V30 3922 H 389.422 1.92404 -3.28269 0
M  V30 3923 H 388.934 0.198422 -3.87592 0
M  V30 3924 H 387.035 2.42915 -2.82529 0
M  V30 3925 H 387.148 1.59841 -4.5165 0
M  V30 3926 H 385.512 0.940354 -2.36705 0
M  V30 3927 H 386.295 -0.362709 -3.41379 0
M  V30 3928 N 388.74 1.54641 0.303973 0
M  V30 3929 C 389.989 1.7299 1.03717 0
M  V30 3930 C 390.302 0.521168 1.88529 0
M  V30 3931 O 391.508 0.586408 2.65092 0
M  V30 3932 C 389.964 3.06051 1.89369 0
M  V30 3933 C 389.572 4.34393 1.09574 0
M  V30 3934 C 391.316 3.3376 2.62306 0
M  V30 3935 C 389.223 5.58506 1.94486 0
M  V30 3936 H 388.153 0.64473 0.390947 0
M  V30 3937 H 390.804 1.81124 0.294328 0
M  V30 3938 H 389.186 2.91874 2.67629 0
M  V30 3939 H 390.36 4.59396 0.359485 0
M  V30 3940 H 388.675 4.13597 0.482324 0
M  V30 3941 H 391.272 4.23687 3.26181 0
M  V30 3942 H 391.615 2.52503 3.3098 0
M  V30 3943 H 392.148 3.48894 1.91097 0
M  V30 3944 H 388.887 6.42422 1.30287 0
M  V30 3945 H 388.407 5.37694 2.65792 0
M  V30 3946 H 390.086 5.95651 2.52605 0
M  V30 3947 N 390.218 -0.567019 1.47046 0
M  V30 3948 C 391.467 -1.32091 1.5243 0
M  V30 3949 C 391.78 -1.94704 0.187021 0
M  V30 3950 O 392.986 -2.7124 0.118771 0
M  V30 3951 C 391.442 -2.39479 2.68659 0
M  V30 3952 C 391.05 -1.831 4.08874 0
M  V30 3953 C 392.794 -3.16111 2.83327 0
M  V30 3954 C 390.701 -2.8821 5.16419 0
M  V30 3955 H 389.631 -0.496629 0.56734 0
M  V30 3956 H 392.282 -0.603354 1.73297 0
M  V30 3957 H 390.664 -3.14105 2.41152 0
M  V30 3958 H 391.838 -1.14913 4.46242 0
M  V30 3959 H 390.153 -1.19085 3.99008 0
M  V30 3960 H 392.75 -3.94585 3.60842 0
M  V30 3961 H 393.093 -3.69686 1.91411 0
M  V30 3962 H 393.626 -2.48595 3.10556 0
M  V30 3963 H 390.365 -2.39504 6.10179 0
M  V30 3964 H 389.885 -3.54839 4.8358 0
M  V30 3965 H 391.564 -3.51881 5.42945 0
M  V30 3966 N 391.696 -1.35014 -0.812953 0
M  V30 3967 C 392.646 -1.23959 -1.91359 0
M  V30 3968 C 393.63 -0.136306 -1.60322 0
M  V30 3969 O 394.822 -0.366925 -1.73155 0
M  V30 3970 C 391.951 -1.00736 -3.28188 0
M  V30 3971 C 391.037 -2.15426 -3.65311 0
M  V30 3972 N 391.428 -3.40612 -3.73921 0
M  V30 3973 C 389.726 -2.06672 -3.95225 0
M  V30 3974 C 390.427 -4.15994 -4.06601 0
M  V30 3975 N 389.403 -3.44685 -4.20349 0
M  V30 3976 H 393.205 -2.18815 -1.96208 0
M  V30 3977 H 390.719 -1.27395 -1.00718 0
M  V30 3978 H 392.716 -0.909052 -4.06868 0
M  V30 3979 H 391.376 -0.067586 -3.2463 0
M  V30 3980 H 392.387 -3.75043 -3.5716 0
M  V30 3981 H 389.064 -1.20511 -3.99729 0
M  V30 3982 H 390.454 -5.24145 -4.20382 0
M  V30 3983 N 393.175 1.03435 -1.18907 0
M  V30 3984 C 394.591 1.28973 -0.940111 0
M  V30 3985 C 394.791 1.97676 0.390691 0
M  V30 3986 O 393.847 2.26127 1.12352 0
M  V30 3987 C 395.16 2.14221 -2.11021 0
M  V30 3988 C 396.708 2.27547 -2.14922 0
M  V30 3989 C 397.183 3.16164 -3.31367 0
M  V30 3990 N 398.674 3.23752 -3.31269 0
M  V30 3991 C 399.409 3.92495 -4.18014 0
M  V30 3992 N 398.905 4.63515 -5.14904 0
M  V30 3993 N 400.698 3.88838 -4.05908 0
M  V30 3994 H 392.849 0.57252 -2.04538 0
M  V30 3995 H 395.112 0.315184 -0.894071 0
M  V30 3996 H 394.818 1.71054 -3.073 0
M  V30 3997 H 394.692 3.14919 -2.0762 0
M  V30 3998 H 397.079 2.69947 -1.19217 0
M  V30 3999 H 397.16 1.26418 -2.22378 0
M  V30 4000 H 396.804 2.74474 -4.27348 0
M  V30 4001 H 396.734 4.17339 -3.21148 0
M  V30 4002 H 399.225 2.73167 -2.61129 0
M  V30 4003 H 399.538 5.13583 -5.77453 0
M  V30 4004 H 397.883 4.62398 -5.18857 0
M  V30 4005 H 401.074 3.32491 -3.29495 0
M  V30 4006 H 401.247 4.4214 -4.73726 0
M  V30 4007 N 394.653 0.992116 1.22453 0
M  V30 4008 C 395.93 0.583508 1.86694 0
M  V30 4009 C 396.31 -0.9392 1.89056 0
M  V30 4010 O 395.658 -1.82081 1.38053 0
M  V30 4011 C 395.868 1.20304 3.2761 0
M  V30 4012 C 397.216 1.30308 4.0411 0
M  V30 4013 O 398.24 1.15737 3.36873 0
M  V30 4014 O 397.099 1.53615 5.24466 0
M  V30 4015 H 394.193 0.198129 0.802916 0
M  V30 4016 H 396.739 1.08794 1.30238 0
M  V30 4017 H 395.511 2.24461 3.2052 0
M  V30 4018 H 395.134 0.684144 3.9167 0
M  V30 4019 N 396.131 -1.37776 0.765217 0
M  V30 4020 C 397.061 -2.32945 0.160953 0
M  V30 4021 C 398.042 -1.55454 -0.690516 0
M  V30 4022 O 399.227 -1.83721 -0.629318 0
M  V30 4023 C 396.357 -3.39669 -0.724031 0
M  V30 4024 C 395.311 -4.27992 0.0256173 0
M  V30 4025 C 394.637 -5.25673 -0.978383 0
M  V30 4026 C 395.937 -5.08309 1.20082 0
M  V30 4027 H 397.631 -2.83728 0.955969 0
M  V30 4028 H 395.177 -1.36416 0.461149 0
M  V30 4029 H 397.13 -4.05219 -1.15652 0
M  V30 4030 H 395.854 -2.87396 -1.5515 0
M  V30 4031 H 394.513 -3.63964 0.438812 0
M  V30 4032 H 394.161 -4.69682 -1.80022 0
M  V30 4033 H 393.861 -5.85625 -0.481378 0
M  V30 4034 H 395.385 -5.94098 -1.40995 0
M  V30 4035 H 396.799 -5.67034 0.845307 0
M  V30 4036 H 395.196 -5.77554 1.62947 0
M  V30 4037 H 396.266 -4.41365 2.00811 0
M  V30 4038 N 397.609 -0.515225 -1.4894 0
M  V30 4039 C 398.556 0.255567 -2.29381 0
M  V30 4040 C 399.526 0.947387 -1.36432 0
M  V30 4041 O 400.711 0.951288 -1.65394 0
M  V30 4042 C 397.851 1.30551 -3.19453 0
M  V30 4043 C 396.964 0.624029 -4.27469 0
M  V30 4044 C 396.099 1.65563 -5.0474 0
M  V30 4045 C 395.138 0.956802 -6.04576 0
M  V30 4046 N 394.275 1.93326 -6.74959 0
M  V30 4047 H 399.115 -0.436607 -2.94784 0
M  V30 4048 H 396.652 -0.227154 -1.45336 0
M  V30 4049 H 398.61 1.92639 -3.70062 0
M  V30 4050 H 397.24 1.96626 -2.56004 0
M  V30 4051 H 396.292 -0.110459 -3.8024 0
M  V30 4052 H 397.604 0.0746092 -4.98744 0
M  V30 4053 H 396.758 2.35119 -5.59289 0
M  V30 4054 H 395.497 2.23893 -4.3327 0
M  V30 4055 H 394.502 0.247097 -5.49244 0
M  V30 4056 H 395.727 0.379814 -6.78037 0
M  V30 4057 H 393.673 2.50591 -6.06251 0
M  V30 4058 H 393.59 1.43489 -7.42258 0
M  V30 4059 H 394.858 2.62126 -7.34105 0
M  V30 4060 N 399.087 1.5561 -0.249682 0
M  V30 4061 C 400.312 2.03865 0.381305 0
M  V30 4062 C 400.737 1.12769 1.50548 0
M  V30 4063 O 400.095 0.121189 1.80895 0
M  V30 4064 C 400.143 3.50101 0.863816 0
M  V30 4065 O 399.247 3.62132 1.97318 0
M  V30 4066 H 398.588 0.658827 0.0827194 0
M  V30 4067 H 401.118 2.01105 -0.376552 0
M  V30 4068 H 401.128 3.90975 1.1663 0
M  V30 4069 H 399.803 4.1588 0.0411816 0
M  V30 4070 H 398.38 3.33155 1.67517 0
M  V30 4071 N 400.565 -0.0233959 1.57583 0
M  V30 4072 C 401.79 -0.728376 1.94189 0
M  V30 4073 C 402.215 -1.67793 0.850119 0
M  V30 4074 O 401.573 -1.80262 -0.19371 0
M  V30 4075 C 401.621 -1.45669 3.29868 0
M  V30 4076 O 400.725 -2.57013 3.22518 0
M  V30 4077 H 400.066 -0.195493 0.63457 0
M  V30 4078 H 402.596 0.0228214 2.04587 0
M  V30 4079 H 402.606 -1.82535 3.6489 0
M  V30 4080 H 401.281 -0.760314 4.08891 0
M  V30 4081 H 399.858 -2.22648 2.99136 0
M  V30 4082 N 402.043 -1.548 -0.295768 0
M  V30 4083 C 402.991 -1.86874 -1.38495 0
M  V30 4084 C 403.985 -0.742938 -1.52239 0
M  V30 4085 O 405.191 -0.926999 -1.54294 0
M  V30 4086 H 401.566 -0.592786 -0.462719 0
M  V30 4087 H 403.537 -2.77904 -1.08682 0
M  V30 4088 C 402.286 -2.13732 -2.74252 0
M  V30 4089 H 401.609 -2.99835 -2.64459 0
M  V30 4090 H 403.049 -2.4011 -3.49461 0
M  V30 4091 C 401.508 -0.937539 -3.23592 0
M  V30 4092 O 402.038 -0.160665 -4.01379 0
M  V30 4093 N 400.244 -0.741478 -2.80981 0
M  V30 4094 H 399.791 -1.37489 -2.1784 0
M  V30 4095 H 399.749 0.0597103 -3.14343 0
M  V30 4096 N 403.521 0.559213 -1.47345 0
M  V30 4097 C 404.77 1.31281 -1.53128 0
M  V30 4098 C 405.083 1.94602 -0.197344 0
M  V30 4099 O 406.289 2.71173 -0.133154 0
M  V30 4100 C 404.745 2.38051 -2.69925 0
M  V30 4101 C 404.353 1.8093 -4.0984 0
M  V30 4102 C 406.097 3.14604 -2.84999 0
M  V30 4103 C 404.004 2.85468 -5.1794 0
M  V30 4104 H 402.934 0.493614 -0.569966 0
M  V30 4105 H 405.585 0.594155 -1.73615 0
M  V30 4106 H 403.967 3.12822 -2.42814 0
M  V30 4107 H 405.141 1.12544 -4.46845 0
M  V30 4108 H 403.456 1.16967 -3.99634 0
M  V30 4109 H 406.053 3.92666 -3.62929 0
M  V30 4110 H 406.396 3.68665 -1.93369 0
M  V30 4111 H 406.929 2.46945 -3.1187 0
M  V30 4112 H 403.668 2.36264 -6.1144 0
M  V30 4113 H 403.188 3.52269 -4.85455 0
M  V30 4114 H 404.867 3.48996 -5.44803 0
M  V30 4115 N 404.999 1.35443 0.805782 0
M  V30 4116 C 405.929 1.31095 1.93226 0
M  V30 4117 C 406.91 0.185244 1.69088 0
M  V30 4118 O 408.095 0.380332 1.90439 0
M  V30 4119 C 405.225 1.08299 3.29983 0
M  V30 4120 C 404.179 2.17519 3.68605 0
M  V30 4121 C 403.505 1.79887 5.03532 0
M  V30 4122 C 404.805 3.5949 3.78898 0
M  V30 4123 H 406.499 2.25352 1.97122 0
M  V30 4124 H 404.045 1.0848 0.946996 0
M  V30 4125 H 405.998 1.03897 4.08391 0
M  V30 4126 H 404.722 0.104885 3.26432 0
M  V30 4127 H 403.381 2.2102 2.92482 0
M  V30 4128 H 403.029 0.80693 4.96485 0
M  V30 4129 H 402.729 2.53001 5.30344 0
M  V30 4130 H 404.253 1.77011 5.84379 0
M  V30 4131 H 405.667 3.58307 4.47536 0
M  V30 4132 H 404.064 4.31371 4.1718 0
M  V30 4133 H 405.134 3.95584 2.80431 0
M  V30 4134 N 406.477 -1.02803 1.19454 0
M  V30 4135 C 407.726 -1.7562 0.991996 0
M  V30 4136 C 408.039 -1.89672 -0.477901 0
M  V30 4137 O 409.245 -2.59468 -0.799287 0
M  V30 4138 C 407.701 -3.15812 1.72601 0
M  V30 4139 C 407.309 -3.0981 3.23607 0
M  V30 4140 C 409.053 -3.92918 1.60674 0
M  V30 4141 C 406.96 -4.44939 3.89594 0
M  V30 4142 H 405.89 -0.658352 0.367543 0
M  V30 4143 H 408.541 -1.15044 1.42959 0
M  V30 4144 H 406.923 -3.7686 1.21624 0
M  V30 4145 H 408.097 -2.58138 3.81709 0
M  V30 4146 H 406.412 -2.46201 3.35819 0
M  V30 4147 H 409.009 -4.9287 2.07323 0
M  V30 4148 H 409.352 -4.12502 0.561025 0
M  V30 4149 H 409.885 -3.38472 2.09001 0
M  V30 4150 H 406.624 -4.30559 4.94267 0
M  V30 4151 H 406.144 -4.96664 3.36281 0
M  V30 4152 H 407.823 -5.1382 3.93189 0
M  V30 4153 N 407.956 -0.998596 -1.21925 0
M  V30 4154 C 408.886 -0.573688 -2.26343 0
M  V30 4155 C 409.867 0.402296 -1.65274 0
M  V30 4156 O 411.052 0.291683 -1.91997 0
M  V30 4157 C 408.182 0.106839 -3.47136 0
M  V30 4158 C 407.136 -0.788269 -4.20678 0
M  V30 4159 C 406.462 0.0254927 -5.34694 0
M  V30 4160 C 407.762 -2.08784 -4.78755 0
M  V30 4161 H 409.456 -1.44651 -2.62138 0
M  V30 4162 H 407.002 -0.696975 -1.26009 0
M  V30 4163 H 408.955 0.415531 -4.19346 0
M  V30 4164 H 407.679 1.01424 -3.10452 0
M  V30 4165 H 406.338 -1.08069 -3.50309 0
M  V30 4166 H 405.986 0.933989 -4.94253 0
M  V30 4167 H 405.686 -0.570437 -5.84825 0
M  V30 4168 H 407.21 0.328147 -6.09718 0
M  V30 4169 H 408.624 -1.84272 -5.42878 0
M  V30 4170 H 407.021 -2.63307 -5.39249 0
M  V30 4171 H 408.091 -2.76284 -3.98491 0
M  V30 4172 N 409.434 1.37368 -0.772513 0
M  V30 4173 C 410.366 2.28899 -0.117502 0
M  V30 4174 C 411.379 1.4867 0.663405 0
M  V30 4175 O 412.568 1.71314 0.501372 0
M  V30 4176 C 409.668 3.2788 0.857192 0
M  V30 4177 C 408.841 4.37207 0.129938 0
M  V30 4178 C 407.9 5.16257 1.01811 0
M  V30 4179 O 406.926 5.67159 0.481601 0
M  V30 4180 N 408.128 5.31058 2.3443 0
M  V30 4181 H 410.893 2.85752 -0.903662 0
M  V30 4182 H 408.454 1.49353 -0.62493 0
M  V30 4183 H 410.446 3.77647 1.45482 0
M  V30 4184 H 409.016 2.7179 1.54432 0
M  V30 4185 H 408.236 3.88827 -0.648605 0
M  V30 4186 H 409.524 5.07434 -0.372559 0
M  V30 4187 H 408.922 4.91287 2.80452 0
M  V30 4188 H 407.479 5.84131 2.89197 0
M  V30 4189 N 410.912 0.523116 1.48665 0
M  V30 4190 C 411.859 -0.243398 2.29513 0
M  V30 4191 C 412.829 -0.940139 1.36933 0
M  V30 4192 O 414.014 -0.942503 1.65896 0
M  V30 4193 C 411.154 -1.28855 3.20141 0
M  V30 4194 C 410.267 -0.60135 4.27794 0
M  V30 4195 C 409.402 -1.62884 5.05611 0
M  V30 4196 C 408.441 -0.924726 6.05075 0
M  V30 4197 N 407.578 -1.89744 6.75975 0
M  V30 4198 H 412.418 0.452234 2.94549 0
M  V30 4199 H 409.955 0.234858 1.45213 0
M  V30 4200 H 411.913 -1.90674 3.71079 0
M  V30 4201 H 410.543 -1.95266 2.57043 0
M  V30 4202 H 409.595 0.130623 3.80176 0
M  V30 4203 H 410.907 -0.0481585 4.98777 0
M  V30 4204 H 410.061 -2.32149 5.60528 0
M  V30 4205 H 408.8 -2.21592 4.34452 0
M  V30 4206 H 407.805 -0.217966 5.49368 0
M  V30 4207 H 409.03 -0.343851 6.78229 0
M  V30 4208 H 406.976 -2.47373 6.07571 0
M  V30 4209 H 406.893 -1.3955 7.43009 0
M  V30 4210 H 408.161 -2.58229 7.35485 0
M  V30 4211 N 412.39 -1.55475 0.257931 0
M  V30 4212 C 413.636 -1.99502 -0.364266 0
M  V30 4213 C 413.969 -1.146 -1.56782 0
M  V30 4214 O 413.244 -0.211968 -1.93342 0
M  V30 4215 C 413.527 -3.51917 -0.763333 0
M  V30 4216 C 413.38 -4.4758 0.446371 0
M  V30 4217 C 414.699 -4.09742 -1.60623 0
M  V30 4218 H 411.818 -0.725277 -0.130929 0
M  V30 4219 H 414.46 -1.8653 0.361446 0
M  V30 4220 H 412.61 -3.63101 -1.38166 0
M  V30 4221 H 414.282 -4.48362 1.08487 0
M  V30 4222 H 412.525 -4.19947 1.08753 0
M  V30 4223 H 413.196 -5.51862 0.123645 0
M  V30 4224 H 415.672 -4.01727 -1.08418 0
M  V30 4225 H 414.548 -5.16631 -1.85429 0
M  V30 4226 H 414.809 -3.58889 -2.58169 0
M  V30 4227 N 413.868 0.0150385 -1.57593 0
M  V30 4228 C 414.778 1.02791 -2.10882 0
M  V30 4229 C 415.794 1.38702 -1.0506 0
M  V30 4230 O 416.97 1.47739 -1.36877 0
M  V30 4231 C 414.035 2.30568 -2.58919 0
M  V30 4232 C 413.096 2.01108 -3.79281 0
M  V30 4233 C 412.329 3.22794 -4.25018 0
M  V30 4234 O 412.552 4.33959 -3.70183 0
M  V30 4235 O 411.486 3.07672 -5.17322 0
M  V30 4236 H 415.312 0.604973 -2.97613 0
M  V30 4237 H 412.897 0.23292 -1.47573 0
M  V30 4238 H 414.779 3.05662 -2.90084 0
M  V30 4239 H 413.454 2.72129 -1.75293 0
M  V30 4240 H 412.361 1.23537 -3.53114 0
M  V30 4241 H 413.694 1.64394 -4.63935 0
M  V30 4242 N 415.346 1.54954 0.287554 0
M  V30 4243 C 416.294 1.87606 1.37502 0
M  V30 4244 C 417.288 0.751001 1.51843 0
M  V30 4245 O 418.494 0.935169 1.53801 0
M  V30 4246 H 414.869 0.595231 0.459569 0
M  V30 4247 H 416.84 2.78477 1.07206 0
M  V30 4248 C 415.589 2.15183 2.73115 0
M  V30 4249 H 414.912 3.01234 2.62866 0
M  V30 4250 H 416.352 2.4196 3.48183 0
M  V30 4251 C 414.811 0.954686 3.2309 0
M  V30 4252 O 415.341 0.181949 4.01288 0
M  V30 4253 N 413.547 0.756368 2.80584 0
M  V30 4254 H 413.094 1.38643 2.17108 0
M  V30 4255 H 413.052 -0.0430391 3.14371 0
M  V30 4256 N 416.824 -0.551391 1.4764 0
M  V30 4257 C 418.072 -1.30572 1.54258 0
M  V30 4258 C 418.393 -1.93877 0.208963 0
M  V30 4259 O 417.663 -1.80234 -0.767619 0
M  V30 4260 H 416.243 -0.484894 0.568231 0
M  V30 4261 H 418.905 -0.643402 1.83974 0
M  V30 4262 H 418.001 -2.09621 2.31226 0
M  V30 4263 N 418.302 -1.35869 -0.798587 0
M  V30 4264 C 419.579 -1.20145 -1.54352 0
M  V30 4265 C 419.959 0.216161 -2.0999 0
M  V30 4266 O 419.307 1.22068 -1.93162 0
M  V30 4267 C 419.517 -2.27602 -2.64572 0
M  V30 4268 C 420.865 -2.63811 -3.32699 0
M  V30 4269 O 421.889 -2.26576 -2.74849 0
M  V30 4270 O 420.748 -3.27866 -4.37226 0
M  V30 4271 H 417.842 -0.467248 -0.682355 0
M  V30 4272 H 420.388 -1.47574 -0.837859 0
M  V30 4273 H 419.16 -3.2265 -2.21388 0
M  V30 4274 H 418.783 -2.01488 -3.42766 0
M  V30 4275 N 419.78 1.02168 -1.19998 0
M  V30 4276 C 420.71 2.12488 -0.96804 0
M  V30 4277 C 421.691 1.69799 0.101185 0
M  V30 4278 O 422.876 1.94121 -0.0552993 0
M  V30 4279 C 420.006 3.43479 -0.513776 0
M  V30 4280 C 418.96 3.99884 -1.52566 0
M  V30 4281 C 418.286 5.26582 -0.928214 0
M  V30 4282 C 419.586 4.33861 -2.90795 0
M  V30 4283 H 421.28 2.32149 -1.89069 0
M  V30 4284 H 418.826 1.11564 -0.910468 0
M  V30 4285 H 420.779 4.20036 -0.338774 0
M  V30 4286 H 419.503 3.23561 0.444493 0
M  V30 4287 H 418.162 3.25429 -1.68794 0
M  V30 4288 H 417.81 5.02986 0.0378289 0
M  V30 4289 H 417.51 5.65284 -1.60397 0
M  V30 4290 H 419.034 6.05799 -0.764167 0
M  V30 4291 H 420.448 5.01327 -2.78109 0
M  V30 4292 H 418.845 4.83664 -3.55231 0
M  V30 4293 H 419.915 3.42848 -3.42904 0
M  V30 4294 N 421.258 1.00505 1.21394 0
M  V30 4295 C 422.483 0.706367 1.95001 0
M  V30 4296 C 422.908 -0.72463 1.73582 0
M  V30 4297 O 422.266 -1.49702 1.0227 0
M  V30 4298 C 422.314 1.03299 3.45487 0
M  V30 4299 O 421.418 0.138275 4.12168 0
M  V30 4300 H 420.759 0.263175 0.609619 0
M  V30 4301 H 423.289 1.34531 1.54151 0
M  V30 4302 H 423.299 0.979872 3.96059 0
M  V30 4303 H 421.974 2.07567 3.60401 0
M  V30 4304 H 420.551 0.247928 3.72075 0
M  V30 4305 N 422.737 -1.36956 0.779787 0
M  V30 4306 C 423.685 -2.32053 0.15942 0
M  V30 4307 C 424.679 -1.55333 -0.675878 0
M  V30 4308 O 425.885 -1.70668 -0.57204 0
M  V30 4309 H 422.26 -0.751286 0.0327707 0
M  V30 4310 H 424.231 -2.8195 0.977078 0
M  V30 4311 C 422.98 -3.40602 -0.698977 0
M  V30 4312 H 422.303 -3.99746 -0.0655966 0
M  V30 4313 H 423.743 -4.09486 -1.09989 0
M  V30 4314 C 422.202 -2.81359 -1.85307 0
M  V30 4315 O 422.732 -2.72751 -2.94906 0
M  V30 4316 N 420.938 -2.38786 -1.65619 0
M  V30 4317 H 420.485 -2.45987 -0.764725 0
M  V30 4318 H 420.443 -1.99493 -2.43002 0
M  V30 4319 N 424.215 -0.530993 -1.48385 0
M  V30 4320 C 425.162 0.231223 -2.29639 0
M  V30 4321 C 426.132 0.932864 -1.37429 0
M  V30 4322 O 427.317 0.933692 -1.66394 0
M  V30 4323 C 424.457 1.27155 -3.2082 0
M  V30 4324 C 423.57 0.578655 -4.28107 0
M  V30 4325 C 422.705 1.602 -5.06467 0
M  V30 4326 C 421.744 0.892625 -6.05556 0
M  V30 4327 N 420.881 1.86157 -6.76971 0
M  V30 4328 H 425.721 -0.467848 -2.94305 0
M  V30 4329 H 423.258 -0.242556 -1.45086 0
M  V30 4330 H 425.216 1.88703 -3.72085 0
M  V30 4331 H 423.846 1.939 -2.58075 0
M  V30 4332 H 422.898 -0.150782 -3.80101 0
M  V30 4333 H 424.21 0.0217065 -4.98795 0
M  V30 4334 H 423.364 2.29173 -5.61751 0
M  V30 4335 H 422.103 2.19285 -4.35621 0
M  V30 4336 H 421.108 0.188829 -5.49476 0
M  V30 4337 H 422.333 0.307878 -6.78402 0
M  V30 4338 H 420.279 2.44147 -6.08875 0
M  V30 4339 H 420.196 1.35608 -7.43738 0
M  V30 4340 H 421.464 2.54325 -7.36844 0
M  V30 4341 N 425.693 1.55336 -0.266172 0
M  V30 4342 C 426.942 1.98574 0.353749 0
M  V30 4343 C 427.255 1.15789 1.57646 0
M  V30 4344 O 428.461 1.49129 2.26876 0
M  V30 4345 C 426.917 3.53403 0.680747 0
M  V30 4346 C 426.525 4.44953 -0.52165 0
M  V30 4347 C 428.269 4.05251 1.26379 0
M  V30 4348 C 426.176 5.91156 -0.169736 0
M  V30 4349 H 425.106 0.741643 0.135949 0
M  V30 4350 H 427.757 1.79743 -0.369421 0
M  V30 4351 H 426.139 3.68001 1.46257 0
M  V30 4352 H 427.313 4.42121 -1.29869 0
M  V30 4353 H 425.628 4.03691 -1.02093 0
M  V30 4354 H 428.225 5.12021 1.54074 0
M  V30 4355 H 428.568 3.53749 2.19471 0
M  V30 4356 H 429.101 3.94057 0.544447 0
M  V30 4357 H 425.84 6.46736 -1.0683 0
M  V30 4358 H 425.36 5.97079 0.570717 0
M  V30 4359 H 427.039 6.4655 0.241245 0
M  V30 4360 N 427.171 -0.0066808 1.57599 0
M  V30 4361 C 428.101 -0.999296 2.11036 0
M  V30 4362 C 429.082 -1.36278 1.01795 0
M  V30 4363 O 430.267 -1.4477 1.29442 0
M  V30 4364 C 427.397 -2.29328 2.60818 0
M  V30 4365 C 426.351 -2.07159 3.74525 0
M  V30 4366 C 425.677 -3.42512 4.10596 0
M  V30 4367 C 426.977 -1.43959 5.02069 0
M  V30 4368 H 428.671 -0.554382 2.94223 0
M  V30 4369 H 426.217 -0.265221 1.41536 0
M  V30 4370 H 428.17 -2.99117 2.96828 0
M  V30 4371 H 426.894 -2.7592 1.74745 0
M  V30 4372 H 425.553 -1.39797 3.38899 0
M  V30 4373 H 425.201 -3.86795 3.21556 0
M  V30 4374 H 424.901 -3.28498 4.87199 0
M  V30 4375 H 426.425 -4.13628 4.4916 0
M  V30 4376 H 427.839 -2.03696 5.35893 0
M  V30 4377 H 426.236 -1.40452 5.83432 0
M  V30 4378 H 427.306 -0.407992 4.83181 0
M  V30 4379 N 428.649 -1.55105 -0.279332 0
M  V30 4380 C 429.596 -1.8755 -1.34513 0
M  V30 4381 C 430.566 -0.726384 -1.49375 0
M  V30 4382 O 431.751 -0.977063 -1.63884 0
M  V30 4383 C 428.891 -2.14738 -2.70151 0
M  V30 4384 C 428.004 -3.42285 -2.63562 0
M  V30 4385 C 427.139 -3.59206 -3.91337 0
M  V30 4386 C 426.178 -4.80467 -3.79233 0
M  V30 4387 N 425.315 -4.94079 -4.98829 0
M  V30 4388 H 430.155 -2.78456 -1.06143 0
M  V30 4389 H 427.692 -1.37867 -0.512936 0
M  V30 4390 H 429.65 -2.28501 -3.49061 0
M  V30 4391 H 428.28 -1.27075 -2.96735 0
M  V30 4392 H 427.332 -3.37029 -1.76397 0
M  V30 4393 H 428.644 -4.31328 -2.50515 0
M  V30 4394 H 427.798 -3.72751 -4.78687 0
M  V30 4395 H 426.537 -2.68337 -4.07243 0
M  V30 4396 H 425.542 -4.66932 -2.90266 0
M  V30 4397 H 426.767 -5.72765 -3.64852 0
M  V30 4398 H 424.713 -4.06139 -5.15158 0
M  V30 4399 H 424.63 -5.77156 -4.8829 0
M  V30 4400 H 425.898 -5.12003 -5.8777 0
M  V30 4401 N 430.127 0.543554 -1.4793 0
M  V30 4402 C 431.376 1.29649 -1.54512 0
M  V30 4403 C 431.689 1.94382 -0.217973 0
M  V30 4404 O 432.895 2.71017 -0.161908 0
M  V30 4405 C 431.351 2.35175 -2.72435 0
M  V30 4406 C 430.959 1.76572 -4.11736 0
M  V30 4407 C 432.703 3.11564 -2.8832 0
M  V30 4408 C 430.61 2.79958 -5.20939 0
M  V30 4409 H 429.54 0.487541 -0.57517 0
M  V30 4410 H 432.191 0.575708 -1.74235 0
M  V30 4411 H 430.573 3.10229 -2.46118 0
M  V30 4412 H 431.747 1.07799 -4.48013 0
M  V30 4413 H 430.062 1.12722 -4.00852 0
M  V30 4414 H 432.659 3.88794 -3.67074 0
M  V30 4415 H 433.002 3.66594 -1.97268 0
M  V30 4416 H 433.535 2.43623 -3.14472 0
M  V30 4417 H 430.274 2.29766 -6.13912 0
M  V30 4418 H 429.794 3.47101 -4.89164 0
M  V30 4419 H 431.473 3.43198 -5.48474 0
M  V30 4420 N 431.605 1.3629 0.791371 0
M  V30 4421 C 432.833 1.33562 1.58016 0
M  V30 4422 C 433.248 -0.0835616 1.88615 0
M  V30 4423 O 432.605 -1.0399 1.49974 0
M  V30 4424 C 432.656 2.15517 2.90232 0
M  V30 4425 O 432.377 3.51902 2.60953 0
M  V30 4426 C 433.878 2.20546 3.84544 0
M  V30 4427 H 431.098 0.458226 0.490173 0
M  V30 4428 H 433.642 1.79361 0.982345 0
M  V30 4429 H 431.797 1.73278 3.46487 0
M  V30 4430 H 432.211 3.94644 3.4548 0
M  V30 4431 H 433.685 2.82252 4.74382 0
M  V30 4432 H 434.162 1.20838 4.2225 0
M  V30 4433 H 434.768 2.63013 3.34222 0
M  V30 4434 N 433.083 -1.0153 1.20538 0
M  V30 4435 C 434.36 -1.72327 0.925343 0
M  V30 4436 C 434.74 -2.03383 -0.565547 0
M  V30 4437 O 434.088 -1.69934 -1.52757 0
M  V30 4438 C 434.298 -2.9902 1.79967 0
M  V30 4439 C 435.646 -3.72258 2.04228 0
M  V30 4440 O 436.67 -3.08979 1.77231 0
M  V30 4441 O 435.529 -4.86053 2.4983 0
M  V30 4442 H 432.623 -0.751099 0.346092 0
M  V30 4443 H 435.169 -1.07366 1.31417 0
M  V30 4444 H 433.941 -2.72402 2.80915 0
M  V30 4445 H 433.564 -3.71721 1.41099 0
M  V30 4446 N 434.561 -1.01147 -1.20859 0
M  V30 4447 C 435.808 -0.697865 -1.90095 0
M  V30 4448 C 436.136 0.772014 -1.78522 0
M  V30 4449 O 435.391 1.57595 -1.16027 0
M  V30 4450 C 435.69 -1.0727 -3.40922 0
M  V30 4451 C 435.356 -2.53792 -3.72693 0
M  V30 4452 C 434.018 -2.93829 -3.81075 0
M  V30 4453 C 436.37 -3.48674 -3.87397 0
M  V30 4454 C 433.698 -4.27696 -4.01613 0
M  V30 4455 C 436.05 -4.82223 -4.09444 0
M  V30 4456 C 434.714 -5.21973 -4.16054 0
M  V30 4457 H 433.984 -0.255367 -0.695607 0
M  V30 4458 H 436.631 -1.27111 -1.43231 0
M  V30 4459 H 434.936 -0.417799 -3.89566 0
M  V30 4460 H 436.633 -0.807818 -3.92779 0
M  V30 4461 H 433.223 -2.21768 -3.66765 0
M  V30 4462 H 437.407 -3.18904 -3.80281 0
M  V30 4463 H 432.663 -4.58055 -4.04964 0
M  V30 4464 H 436.837 -5.55672 -4.19763 0
M  V30 4465 H 434.464 -6.25717 -4.31721 0
M  V30 4466 N 436.039 1.36541 -0.78704 0
M  V30 4467 C 437.287 1.98911 -0.357633 0
M  V30 4468 C 437.608 1.62778 1.07371 0
M  V30 4469 O 436.878 0.900612 1.73971 0
M  V30 4470 H 435.458 0.735734 -0.129246 0
M  V30 4471 H 438.12 1.66776 -1.00855 0
M  V30 4472 H 437.216 3.08874 -0.447549 0
M  V30 4473 N 437.518 0.538854 1.48102 0
M  V30 4474 C 438.448 -0.207654 2.32575 0
M  V30 4475 C 439.429 -0.926559 1.4265 0
M  V30 4476 O 440.614 -0.91061 1.71527 0
M  V30 4477 C 437.744 -1.24957 3.24042 0
M  V30 4478 C 436.698 -0.648263 4.23062 0
M  V30 4479 C 436.024 -1.79348 5.03725 0
M  V30 4480 C 437.324 0.385897 5.20872 0
M  V30 4481 H 439.018 0.497534 2.95237 0
M  V30 4482 H 436.564 0.240715 1.41974 0
M  V30 4483 H 438.517 -1.77983 3.81969 0
M  V30 4484 H 437.241 -1.98446 2.59397 0
M  V30 4485 H 435.9 -0.139452 3.66335 0
M  V30 4486 H 435.548 -2.51696 4.35498 0
M  V30 4487 H 435.248 -1.39702 5.70751 0
M  V30 4488 H 436.772 -2.32735 5.64506 0
M  V30 4489 H 438.186 -0.057607 5.73271 0
M  V30 4490 H 436.583 0.700227 5.96001 0
M  V30 4491 H 437.653 1.28848 4.67468 0
M  V30 4492 N 438.996 -1.55193 0.274407 0
M  V30 4493 C 439.959 -2.212 -0.600279 0
M  V30 4494 C 440.959 -1.18963 -1.08187 0
M  V30 4495 O 442.149 -1.43873 -0.982158 0
M  V30 4496 C 439.281 -2.87739 -1.82809 0
M  V30 4497 H 440.474 -2.9989 -0.0239682 0
M  V30 4498 H 438.027 -1.5628 0.0250192 0
M  V30 4499 H 438.762 -2.13058 -2.44493 0
M  V30 4500 H 438.547 -3.62658 -1.49069 0
M  V30 4501 H 440.037 -3.38171 -2.45011 0
M  V30 4502 N 440.474 -0.00167713 -1.576 0
M  V30 4503 C 441.89 0.354422 -1.55615 0
M  V30 4504 C 442.09 1.74679 -1.00447 0
M  V30 4505 O 441.146 2.4428 -0.639022 0
M  V30 4506 C 442.459 0.22812 -2.99833 0
M  V30 4507 C 444.007 0.302934 -3.11531 0
M  V30 4508 C 444.482 0.205737 -4.57538 0
M  V30 4509 N 445.973 0.263584 -4.62449 0
M  V30 4510 C 446.708 0.211742 -5.73009 0
M  V30 4511 N 446.204 0.110399 -6.92712 0
M  V30 4512 N 447.997 0.263729 -5.61481 0
M  V30 4513 H 440.148 -0.912498 -1.918 0
M  V30 4514 H 442.411 -0.349928 -0.881053 0
M  V30 4515 H 442.117 -0.729934 -3.44042 0
M  V30 4516 H 441.991 1.00951 -3.6344 0
M  V30 4517 H 444.378 1.25143 -2.67251 0
M  V30 4518 H 444.459 -0.508357 -2.50698 0
M  V30 4519 H 444.103 -0.739225 -5.02492 0
M  V30 4520 H 444.033 1.03554 -5.16318 0
M  V30 4521 H 446.524 0.343173 -3.76339 0
M  V30 4522 H 446.837 0.0767828 -7.72762 0
M  V30 4523 H 445.182 0.0760025 -6.94958 0
M  V30 4524 H 448.373 0.34111 -4.66855 0
M  V30 4525 H 448.546 0.219862 -6.47627 0
M  V30 4526 N 441.952 1.55251 0.271103 0
M  V30 4527 C 442.862 1.9136 1.35714 0
M  V30 4528 C 443.878 0.811075 1.5394 0
M  V30 4529 O 445.054 1.11031 1.6803 0
M  V30 4530 C 442.119 2.1798 2.69603 0
M  V30 4531 C 441.18 3.4153 2.60107 0
M  V30 4532 C 440.413 3.66871 3.8761 0
M  V30 4533 O 440.636 2.94689 4.8838 0
M  V30 4534 O 439.57 4.60405 3.87699 0
M  V30 4535 H 443.396 2.83815 1.08088 0
M  V30 4536 H 440.981 1.41821 0.469792 0
M  V30 4537 H 442.863 2.36518 3.48765 0
M  V30 4538 H 441.538 1.28708 2.97012 0
M  V30 4539 H 440.445 3.28325 1.79314 0
M  V30 4540 H 441.778 4.31027 2.37647 0
M  V30 4541 N 443.43 -0.535701 1.48216 0
M  V30 4542 C 444.676 -1.2913 1.57153 0
M  V30 4543 C 445.031 -1.90899 0.239823 0
M  V30 4544 O 444.324 -1.76022 -0.756748 0
M  V30 4545 C 444.518 -2.4068 2.64212 0
M  V30 4546 C 444.347 -1.89844 4.07663 0
M  V30 4547 C 443.117 -1.72708 4.74869 0
M  V30 4548 C 445.315 -1.43031 4.94011 0
M  V30 4549 N 443.297 -1.16437 6.02757 0
M  V30 4550 C 444.668 -0.986691 6.12098 0
M  V30 4551 C 446.723 -1.3128 4.80281 0
M  V30 4552 C 445.426 -0.437231 7.1797 0
M  V30 4553 C 447.452 -0.777346 5.86269 0
M  V30 4554 C 446.814 -0.343774 7.03561 0
M  V30 4555 H 442.913 -0.463753 0.629648 0
M  V30 4556 H 445.497 -0.604736 1.8507 0
M  V30 4557 H 443.668 -3.06839 2.38126 0
M  V30 4558 H 445.4 -3.07706 2.62867 0
M  V30 4559 H 442.155 -1.96061 4.31111 0
M  V30 4560 H 442.579 -0.903281 6.70947 0
M  V30 4561 H 447.221 -1.63408 3.89946 0
M  V30 4562 H 444.939 -0.103621 8.08034 0
M  V30 4563 H 448.525 -0.689688 5.77698 0
M  V30 4564 H 447.405 0.0641219 7.84174 0
M  V30 4565 N 444.908 -1.36708 -0.784132 0
M  V30 4566 C 445.858 -1.2799 -1.88686 0
M  V30 4567 C 446.842 -0.170282 -1.59996 0
M  V30 4568 O 448.034 -0.403571 -1.72338 0
M  V30 4569 C 445.163 -1.07674 -3.25977 0
M  V30 4570 C 444.249 -2.23127 -3.60659 0
M  V30 4571 N 444.64 -3.48467 -3.66612 0
M  V30 4572 C 442.938 -2.15009 -3.90752 0
M  V30 4573 C 443.639 -4.24525 -3.97685 0
M  V30 4574 N 442.615 -3.53524 -4.12943 0
M  V30 4575 H 446.417 -2.22927 -1.91522 0
M  V30 4576 H 443.931 -1.29503 -0.979933 0
M  V30 4577 H 445.928 -0.995151 -4.04849 0
M  V30 4578 H 444.588 -0.13643 -3.24413 0
M  V30 4579 H 445.599 -3.82534 -3.49125 0
M  V30 4580 H 442.276 -1.28963 -3.97083 0
M  V30 4581 H 443.666 -5.32944 -4.0917 0
M  V30 4582 N 446.386 1.0089 -1.21074 0
M  V30 4583 C 447.802 1.2695 -0.967257 0
M  V30 4584 C 448.002 1.9846 0.348673 0
M  V30 4585 O 447.058 2.28459 1.0753 0
M  V30 4586 C 448.371 2.09697 -2.15517 0
M  V30 4587 C 449.919 2.22937 -2.197 0
M  V30 4588 C 450.394 3.09064 -3.37999 0
M  V30 4589 N 451.885 3.16653 -3.38061 0
M  V30 4590 C 452.62 3.8354 -4.26245 0
M  V30 4591 N 452.116 4.52488 -5.2462 0
M  V30 4592 N 453.909 3.80141 -4.14064 0
M  V30 4593 H 446.06 0.529005 -2.05707 0
M  V30 4594 H 448.323 0.296148 -0.900556 0
M  V30 4595 H 448.029 1.64497 -3.10859 0
M  V30 4596 H 447.903 3.10444 -2.14253 0
M  V30 4597 H 450.29 2.67357 -1.24916 0
M  V30 4598 H 450.371 1.21673 -2.2501 0
M  V30 4599 H 450.015 2.65347 -4.33074 0
M  V30 4600 H 449.945 4.10433 -3.29928 0
M  V30 4601 H 452.436 2.67566 -2.66865 0
M  V30 4602 H 452.749 5.01219 -5.88217 0
M  V30 4603 H 451.094 4.51288 -5.28549 0
M  V30 4604 H 454.285 3.25427 -3.36474 0
M  V30 4605 H 454.458 4.31992 -4.82998 0
M  V30 4606 N 447.864 1.01787 1.20321 0
M  V30 4607 C 449.092 0.727194 1.937 0
M  V30 4608 C 449.507 -0.712305 1.74848 0
M  V30 4609 O 448.864 -1.48327 1.06327 0
M  V30 4610 C 448.915 1.05497 3.45764 0
M  V30 4611 O 448.636 2.43794 3.64 0
M  V30 4612 C 450.137 0.785534 4.36285 0
M  V30 4613 H 447.357 0.266939 0.615617 0
M  V30 4614 H 449.901 1.35939 1.52777 0
M  V30 4615 H 448.056 0.468158 3.84561 0
M  V30 4616 H 448.47 2.55656 4.57974 0
M  V30 4617 H 449.944 1.06495 5.4163 0
M  V30 4618 H 450.421 -0.280273 4.38305 0
M  V30 4619 H 451.027 1.35456 4.03152 0
M  V30 4620 N 449.342 -1.36122 0.79427 0
M  V30 4621 C 450.57 -2.03362 0.380989 0
M  V30 4622 C 450.985 -1.59881 -1.00416 0
M  V30 4623 O 450.342 -0.790515 -1.6449 0
M  V30 4624 C 450.393 -3.58804 0.440649 0
M  V30 4625 O 450.114 -4.007 1.77118 0
M  V30 4626 C 451.615 -4.43296 0.0186117 0
M  V30 4627 H 448.835 -0.652526 0.156367 0
M  V30 4628 H 451.379 -1.73998 1.07447 0
M  V30 4629 H 449.534 -3.8686 -0.204458 0
M  V30 4630 H 449.948 -4.95309 1.72538 0
M  V30 4631 H 451.422 -5.51887 0.111488 0
M  V30 4632 H 451.899 -4.2684 -1.03461 0
M  V30 4633 H 452.505 -4.20512 0.636395 0
M  V30 4634 N 450.82 -0.546701 -1.47814 0
M  V30 4635 C 451.767 0.206854 -2.29871 0
M  V30 4636 C 452.737 0.918235 -1.38411 0
M  V30 4637 O 453.922 0.915991 -1.67375 0
M  V30 4638 C 451.062 1.23746 -3.22151 0
M  V30 4639 C 450.175 0.533216 -4.28697 0
M  V30 4640 C 449.31 1.5482 -5.08138 0
M  V30 4641 C 448.349 0.828347 -6.06469 0
M  V30 4642 N 447.486 1.78966 -6.78908 0
M  V30 4643 H 452.326 -0.499037 -2.93792 0
M  V30 4644 H 449.863 -0.25793 -1.44821 0
M  V30 4645 H 451.821 1.84746 -3.74065 0
M  V30 4646 H 450.451 1.91151 -2.60117 0
M  V30 4647 H 449.503 -0.191089 -3.7992 0
M  V30 4648 H 450.815 -0.0311987 -4.9879 0
M  V30 4649 H 449.969 2.23202 -5.6415 0
M  V30 4650 H 448.708 2.14652 -4.37922 0
M  V30 4651 H 447.713 0.130539 -5.49645 0
M  V30 4652 H 448.938 0.235907 -6.7869 0
M  V30 4653 H 446.884 2.37675 -6.1143 0
M  V30 4654 H 446.801 1.27712 -7.45135 0
M  V30 4655 H 448.069 2.46496 -7.395 0
M  V30 4656 N 452.299 1.55045 -0.282633 0
M  V30 4657 C 453.232 2.18951 0.64311 0
M  V30 4658 C 454.21 1.15287 1.14664 0
M  V30 4659 O 455.394 1.43846 1.21822 0
M  V30 4660 C 452.521 2.81874 1.87789 0
M  V30 4661 C 451.567 3.98906 1.50919 0
M  V30 4662 S 452.4 5.3234 0.580884 0
M  V30 4663 C 453.556 5.98737 1.82387 0
M  V30 4664 H 453.789 2.97131 0.100138 0
M  V30 4665 H 451.322 1.54255 -0.0668514 0
M  V30 4666 H 453.28 3.18757 2.58658 0
M  V30 4667 H 451.941 2.03573 2.392 0
M  V30 4668 H 451.134 4.4165 2.42819 0
M  V30 4669 H 450.736 3.63485 0.88061 0
M  V30 4670 H 453.028 6.18427 2.76684 0
M  V30 4671 H 453.971 6.93318 1.4393 0
M  V30 4672 H 454.379 5.28177 1.99223 0
M  V30 4673 N 453.777 0.010035 1.57597 0
M  V30 4674 C 455.002 -0.687021 1.95691 0
M  V30 4675 C 455.427 -1.65952 0.885519 0
M  V30 4676 O 454.785 -1.80633 -0.15543 0
M  V30 4677 C 454.833 -1.3864 3.32884 0
M  V30 4678 O 453.937 -2.50115 3.27897 0
M  V30 4679 H 453.278 -0.181989 0.638573 0
M  V30 4680 H 455.808 0.0662122 2.04493 0
M  V30 4681 H 455.818 -1.74754 3.6868 0
M  V30 4682 H 454.493 -0.673411 4.10412 0
M  V30 4683 H 453.07 -2.16253 3.03791 0
M  V30 4684 N 455.255 -1.55392 -0.262866 0
M  V30 4685 C 456.218 -1.88181 -1.30846 0
M  V30 4686 C 457.218 -0.757079 -1.41862 0
M  V30 4687 O 458.408 -1.02519 -1.40838 0
M  V30 4688 C 455.54 -2.09609 -2.68844 0
M  V30 4689 H 456.733 -2.81659 -1.02997 0
M  V30 4690 H 454.286 -1.48039 -0.501414 0
M  V30 4691 H 455.021 -1.18547 -3.01856 0
M  V30 4692 H 454.806 -2.91508 -2.62231 0
M  V30 4693 H 456.296 -2.36215 -3.44372 0
M  V30 4694 N 456.733 0.527833 -1.48498 0
M  V30 4695 C 457.696 1.61439 -1.62696 0
M  V30 4696 C 458.696 1.52824 -0.500136 0
M  V30 4697 O 459.886 1.56456 -0.765976 0
M  V30 4698 C 457.018 3.01063 -1.59918 0
M  V30 4699 H 458.211 1.50189 -2.59583 0
M  V30 4700 H 455.764 0.750055 -1.37127 0
M  V30 4701 H 456.499 3.17818 -0.645163 0
M  V30 4702 H 456.284 3.08725 -2.41726 0
M  V30 4703 H 457.774 3.80057 -1.73051 0
M  V30 4704 N 458.211 1.37122 0.776871 0
M  V30 4705 C 459.459 1.31787 1.53221 0
M  V30 4706 C 459.78 -0.0987589 1.9475 0
M  V30 4707 O 459.05 -1.0417 1.65908 0
M  V30 4708 H 457.63 0.484839 0.568278 0
M  V30 4709 H 460.292 1.71556 0.924917 0
M  V30 4710 H 459.388 1.95355 2.43398 0
M  V30 4711 N 459.689 -1.00246 1.21608 0
M  V30 4712 C 460.917 -1.77631 1.06089 0
M  V30 4713 C 461.332 -1.84746 -0.38916 0
M  V30 4714 O 460.689 -1.31068 -1.26994 0
M  V30 4715 C 460.74 -3.21415 1.65453 0
M  V30 4716 O 460.461 -3.14703 3.04785 0
M  V30 4717 C 461.962 -4.15289 1.55079 0
M  V30 4718 H 459.182 -0.558162 0.37242 0
M  V30 4719 H 461.726 -1.26093 1.60999 0
M  V30 4720 H 459.881 -3.70053 1.14629 0
M  V30 4721 H 460.295 -4.05056 3.33212 0
M  V30 4722 H 461.769 -5.13965 2.01355 0
M  V30 4723 H 462.246 -4.36279 0.505665 0
M  V30 4724 H 462.852 -3.72543 2.05163 0
M  V30 4725 N 461.167 -1.02423 -1.1978 0
M  V30 4726 C 462.397 -0.736387 -1.93031 0
M  V30 4727 C 462.805 0.708023 -1.75453 0
M  V30 4728 O 462.148 1.4927 -1.07071 0
M  V30 4729 C 462.21 -1.00194 -3.45255 0
M  V30 4730 C 461.874 -2.43698 -3.86601 0
M  V30 4731 C 462.871 -3.41814 -3.91738 0
M  V30 4732 C 460.556 -2.77975 -4.18372 0
M  V30 4733 C 462.55 -4.72265 -4.28071 0
M  V30 4734 C 460.237 -4.08636 -4.54378 0
M  V30 4735 C 461.235 -5.05592 -4.59201 0
M  V30 4736 O 460.923 -6.33914 -4.94376 0
M  V30 4737 H 460.655 -0.269116 -0.620123 0
M  V30 4738 H 463.209 -1.37043 -1.52998 0
M  V30 4739 H 461.439 -0.310747 -3.85449 0
M  V30 4740 H 463.128 -0.704488 -3.9974 0
M  V30 4741 H 463.894 -3.16671 -3.67348 0
M  V30 4742 H 459.773 -2.0319 -4.13805 0
M  V30 4743 H 463.317 -5.4794 -4.3175 0
M  V30 4744 H 459.214 -4.33556 -4.78226 0
M  V30 4745 H 459.982 -6.38317 -5.12341 0
M  V30 4746 N 462.645 1.35699 -0.801477 0
M  V30 4747 C 463.608 2.28199 -0.213994 0
M  V30 4748 C 464.608 1.49359 0.595691 0
M  V30 4749 O 465.798 1.69186 0.414921 0
M  V30 4750 C 462.93 3.33587 0.702297 0
M  V30 4751 H 464.123 2.81666 -1.02976 0
M  V30 4752 H 461.676 1.45467 -0.571759 0
M  V30 4753 H 462.411 2.85297 1.54195 0
M  V30 4754 H 462.196 3.91906 0.123484 0
M  V30 4755 H 463.686 4.02638 1.10783 0
M  V30 4756 N 464.123 0.554532 1.47522 0
M  V30 4757 C 465.369 0.0377449 2.03365 0
M  V30 4758 C 465.724 -1.29654 1.42154 0
M  V30 4759 O 465.017 -1.83022 0.566865 0
M  V30 4760 C 465.211 -0.115927 3.57212 0
M  V30 4761 C 465.04 1.20191 4.33341 0
M  V30 4762 C 463.81 1.76849 4.73342 0
M  V30 4763 C 466.008 2.11849 4.68641 0
M  V30 4764 N 463.99 3.02665 5.34104 0
M  V30 4765 C 465.361 3.22245 5.29677 0
M  V30 4766 C 467.416 2.11876 4.5057 0
M  V30 4767 C 466.119 4.32763 5.74551 0
M  V30 4768 C 468.145 3.21405 4.9644 0
M  V30 4769 C 467.507 4.30519 5.57523 0
M  V30 4770 H 463.606 0.0559107 0.779999 0
M  V30 4771 H 466.19 0.741232 1.80038 0
M  V30 4772 H 464.361 -0.788533 3.80311 0
M  V30 4773 H 466.093 -0.634538 3.99695 0
M  V30 4774 H 462.848 1.30681 4.55214 0
M  V30 4775 H 463.272 3.66788 5.69031 0
M  V30 4776 H 467.914 1.28801 4.02704 0
M  V30 4777 H 465.632 5.166 6.2141 0
M  V30 4778 H 469.218 3.22509 4.8423 0
M  V30 4779 H 468.098 5.13873 5.92371 0
M  V30 4780 N 465.601 -1.54893 0.290851 0
M  V30 4781 C 466.534 -2.19289 -0.631489 0
M  V30 4782 C 467.512 -1.15893 -1.14051 0
M  V30 4783 O 468.696 -1.4449 -1.21058 0
M  V30 4784 C 465.823 -2.82866 -1.86291 0
M  V30 4785 C 464.869 -3.997 -1.48801 0
M  V30 4786 S 465.702 -5.32641 -0.552644 0
M  V30 4787 C 466.858 -5.99696 -1.79209 0
M  V30 4788 H 467.091 -2.9718 -0.0843791 0
M  V30 4789 H 464.624 -1.54218 0.075031 0
M  V30 4790 H 466.582 -3.20124 -2.56964 0
M  V30 4791 H 465.243 -2.04839 -2.38117 0
M  V30 4792 H 464.436 -4.42932 -2.40473 0
M  V30 4793 H 464.038 -3.63947 -0.861321 0
M  V30 4794 H 466.33 -6.19886 -2.734 0
M  V30 4795 H 467.273 -6.94071 -1.40251 0
M  V30 4796 H 467.681 -5.29226 -1.96419 0
M  V30 4797 N 467.08 -0.0183926 -1.57589 0
M  V30 4798 C 468.043 0.951986 -2.08494 0
M  V30 4799 C 469.043 1.26092 -0.997874 0
M  V30 4800 O 470.233 1.20304 -1.25987 0
M  V30 4801 C 467.365 2.27165 -2.54182 0
M  V30 4802 H 468.558 0.511307 -2.95509 0
M  V30 4803 H 466.111 0.229444 -1.54607 0
M  V30 4804 H 466.846 2.75884 -1.70465 0
M  V30 4805 H 466.631 2.06057 -3.33591 0
M  V30 4806 H 468.121 2.9674 -2.93828 0
M  V30 4807 N 468.558 1.5553 0.254621 0
M  V30 4808 C 469.969 1.67518 0.824286 0
M  V30 4809 C 470.32 0.614429 1.86331 0
M  V30 4810 O 469.445 -0.240736 2.15057 0
M  V30 4811 C 470.04 3.03692 1.50189 0
M  V30 4812 C 468.599 3.17646 2.01935 0
M  V30 4813 C 467.746 2.63373 0.867746 0
M  V30 4814 H 470.697 1.58671 0.0305843 0
M  V30 4815 H 470.718 2.97706 2.36962 0
M  V30 4816 H 470.23 3.80874 0.745431 0
M  V30 4817 H 468.331 2.45273 2.80485 0
M  V30 4818 H 468.444 4.24455 2.22204 0
M  V30 4819 H 466.808 2.20999 1.26616 0
M  V30 4820 H 467.591 3.43074 0.124498 0
M  V30 4821 N 470.036 -0.519951 1.48776 0
M  V30 4822 C 470.946 -1.65025 1.66745 0
M  V30 4823 C 471.962 -1.6508 0.549954 0
M  V30 4824 O 473.138 -1.83848 0.822295 0
M  V30 4825 C 470.203 -3.0146 1.71238 0
M  V30 4826 C 469.264 -3.12182 2.94688 0
M  V30 4827 C 468.497 -4.42109 2.98958 0
M  V30 4828 O 468.72 -5.29799 2.1135 0
M  V30 4829 O 467.654 -4.57406 3.91233 0
M  V30 4830 H 471.48 -1.52801 2.62461 0
M  V30 4831 H 469.065 -0.694157 1.32294 0
M  V30 4832 H 470.947 -3.82584 1.76657 0
M  V30 4833 H 469.622 -3.13988 0.786975 0
M  V30 4834 H 468.529 -2.30316 2.94797 0
M  V30 4835 H 469.862 -3.04574 3.86646 0
M  V30 4836 N 471.514 -1.37532 -0.769588 0
M  V30 4837 C 472.76 -1.33057 -1.53048 0
M  V30 4838 C 473.093 0.0841865 -1.94017 0
M  V30 4839 O 472.368 1.04198 -1.64235 0
M  V30 4840 C 472.651 -2.27166 -2.79406 0
M  V30 4841 C 472.504 -3.77429 -2.44677 0
M  V30 4842 C 473.823 -2.19683 -3.81349 0
M  V30 4843 H 470.942 -0.484655 -0.555228 0
M  V30 4844 H 473.584 -1.68251 -0.882702 0
M  V30 4845 H 471.734 -1.97283 -3.34682 0
M  V30 4846 H 473.406 -4.17918 -1.953 0
M  V30 4847 H 471.649 -3.95892 -1.77346 0
M  V30 4848 H 472.32 -4.38716 -3.35011 0
M  V30 4849 H 474.796 -2.46029 -3.35573 0
M  V30 4850 H 473.672 -2.87668 -4.67481 0
M  V30 4851 H 473.933 -1.19045 -4.25771 0
M  V30 4852 N 472.992 0.995999 -1.22138 0
M  V30 4853 C 474.241 1.72928 -1.03821 0
M  V30 4854 C 474.554 1.90872 0.427444 0
M  V30 4855 O 475.76 2.61496 0.730212 0
M  V30 4856 C 474.216 3.11124 -1.80913 0
M  V30 4857 C 473.824 3.01122 -3.31707 0
M  V30 4858 C 475.568 3.8852 -1.71035 0
M  V30 4859 C 473.475 4.34453 -4.01253 0
M  V30 4860 H 472.405 0.648376 -0.384869 0
M  V30 4861 H 475.056 1.11213 -1.45959 0
M  V30 4862 H 473.438 3.73503 -1.31573 0
M  V30 4863 H 474.612 2.47926 -3.88419 0
M  V30 4864 H 472.927 2.3721 -3.42228 0
M  V30 4865 H 475.524 4.872 -2.20318 0
M  V30 4866 H 475.867 4.1087 -0.670196 0
M  V30 4867 H 476.4 3.32812 -2.17902 0
M  V30 4868 H 473.139 4.17303 -5.05508 0
M  V30 4869 H 472.659 4.87574 -3.49331 0
M  V30 4870 H 474.338 5.03215 -4.06674 0
M  V30 4871 N 474.47 1.03057 1.19235 0
M  V30 4872 C 475.886 0.747947 1.40989 0
M  V30 4873 C 476.086 -0.666752 1.90149 0
M  V30 4874 O 475.142 -1.43249 2.07933 0
M  V30 4875 C 476.455 1.7855 2.41951 0
M  V30 4876 C 478.003 1.80524 2.55695 0
M  V30 4877 C 478.478 2.83243 3.59913 0
M  V30 4878 N 479.969 2.8207 3.67411 0
M  V30 4879 C 480.704 3.58204 4.47747 0
M  V30 4880 N 480.2 4.44057 5.31775 0
M  V30 4881 N 481.993 3.46738 4.42413 0
M  V30 4882 H 474.144 1.94367 0.856468 0
M  V30 4883 H 476.407 0.840412 0.438647 0
M  V30 4884 H 476.113 2.79973 2.12857 0
M  V30 4885 H 475.987 1.6092 3.41152 0
M  V30 4886 H 478.374 0.79778 2.84112 0
M  V30 4887 H 478.455 2.02229 1.56643 0
M  V30 4888 H 478.099 3.84161 3.32239 0
M  V30 4889 H 478.029 2.58795 4.5862 0
M  V30 4890 H 480.52 2.19803 3.074 0
M  V30 4891 H 480.833 4.98884 5.90199 0
M  V30 4892 H 479.178 4.48129 5.3123 0
M  V30 4893 H 482.369 2.79077 3.75811 0
M  V30 4894 H 482.542 4.06322 5.04783 0
M  V30 4895 N 475.948 -1.35272 0.808662 0
M  V30 4896 C 476.911 -2.28082 0.226093 0
M  V30 4897 C 477.911 -1.49673 -0.587762 0
M  V30 4898 O 479.101 -1.69404 -0.405943 0
M  V30 4899 C 476.233 -3.33955 -0.684596 0
M  V30 4900 H 477.426 -2.81116 1.04469 0
M  V30 4901 H 474.979 -1.45162 0.579466 0
M  V30 4902 H 475.714 -2.86111 -1.5268 0
M  V30 4903 H 475.499 -3.91965 -0.102699 0
M  V30 4904 H 476.989 -4.03219 -1.08646 0
M  V30 4905 N 477.426 -0.562348 -1.47226 0
M  V30 4906 C 478.651 -0.0432632 -2.07355 0
M  V30 4907 C 479.076 1.24332 -1.41149 0
M  V30 4908 O 478.434 1.74603 -0.488226 0
M  V30 4909 C 478.482 0.130288 -3.60365 0
M  V30 4910 O 477.586 1.19166 -3.94808 0
M  V30 4911 H 476.927 -0.0536334 -0.66183 0
M  V30 4912 H 479.457 -0.779495 -1.89169 0
M  V30 4913 H 479.467 0.342881 -4.06557 0
M  V30 4914 H 478.142 -0.809389 -4.07948 0
M  V30 4915 H 476.719 0.959153 -3.60354 0
M  V30 4916 N 478.904 1.54736 -0.299062 0
M  V30 4917 C 479.837 2.1962 0.619851 0
M  V30 4918 C 480.815 1.16496 1.13434 0
M  V30 4919 O 481.999 1.4513 1.2029 0
M  V30 4920 C 479.126 2.8385 1.84788 0
M  V30 4921 C 478.172 4.00484 1.46679 0
M  V30 4922 S 479.005 5.32926 0.524389 0
M  V30 4923 C 480.161 6.00638 1.76026 0
M  V30 4924 H 480.394 2.97221 0.0686177 0
M  V30 4925 H 477.927 1.54176 -0.0832085 0
M  V30 4926 H 479.885 3.21483 2.55263 0
M  V30 4927 H 478.546 2.06099 2.37028 0
M  V30 4928 H 477.739 4.44201 2.38121 0
M  V30 4929 H 477.341 3.64398 0.842008 0
M  V30 4930 H 479.633 6.21327 2.70109 0
M  V30 4931 H 480.576 6.94805 1.36569 0
M  V30 4932 H 480.984 5.3026 1.93609 0
M  V30 4933 N 480.382 0.0267497 1.57577 0
M  V30 4934 C 481.629 -0.652404 1.91703 0
M  V30 4935 C 481.957 -1.72271 0.902936 0
M  V30 4936 O 481.212 -1.955 -0.0884843 0
M  V30 4937 C 481.511 -1.30914 3.3256 0
M  V30 4938 C 481.177 -0.369441 4.49384 0
M  V30 4939 C 479.839 -0.110791 4.81072 0
M  V30 4940 C 482.191 0.275971 5.20469 0
M  V30 4941 C 479.519 0.801116 5.81205 0
M  V30 4942 C 481.871 1.17592 6.21575 0
M  V30 4943 C 480.535 1.44348 6.51705 0
M  V30 4944 H 479.805 -0.238732 0.70149 0
M  V30 4945 H 482.452 0.0880091 1.91298 0
M  V30 4946 H 480.757 -2.12425 3.29216 0
M  V30 4947 H 482.454 -1.84115 3.56234 0
M  V30 4948 H 479.044 -0.581211 4.24641 0
M  V30 4949 H 483.228 0.0892 4.9622 0
M  V30 4950 H 478.484 1.01614 6.02897 0
M  V30 4951 H 482.658 1.68223 6.75777 0
M  V30 4952 H 480.285 2.15176 7.29111 0
M  V30 4953 N 481.861 -1.55662 -0.24637 0
M  V30 4954 C 483.086 -1.81914 -0.996093 0
M  V30 4955 C 483.511 -0.603875 -1.78143 0
M  V30 4956 O 482.869 0.447091 -1.75701 0
M  V30 4957 C 482.917 -3.05908 -1.90925 0
M  V30 4958 O 482.021 -2.82861 -3.00105 0
M  V30 4959 H 481.362 -0.600481 -0.283406 0
M  V30 4960 H 483.892 -2.02848 -0.267199 0
M  V30 4961 H 483.902 -3.35356 -2.3238 0
M  V30 4962 H 482.577 -3.93999 -1.33183 0
M  V30 4963 H 481.154 -2.64583 -2.62775 0
M  V30 4964 N 483.339 0.512053 -1.4905 0
M  V30 4965 C 484.286 1.6148 -1.64902 0
M  V30 4966 C 485.256 1.58687 -0.490673 0
M  V30 4967 O 486.441 1.76842 -0.71636 0
M  V30 4968 C 483.581 2.99676 -1.71139 0
M  V30 4969 C 482.694 3.12568 -2.98203 0
M  V30 4970 C 481.829 4.4143 -2.95487 0
M  V30 4971 C 480.868 4.47916 -4.17179 0
M  V30 4972 N 480.005 5.68191 -4.12437 0
M  V30 4973 H 484.845 1.47271 -2.59066 0
M  V30 4974 H 482.382 0.716713 -1.28459 0
M  V30 4975 H 484.34 3.79761 -1.72736 0
M  V30 4976 H 482.97 3.12614 -0.804508 0
M  V30 4977 H 482.022 2.25618 -3.06269 0
M  V30 4978 H 483.334 3.1322 -3.88194 0
M  V30 4979 H 482.488 5.29825 -2.95585 0
M  V30 4980 H 481.227 4.43326 -2.03256 0
M  V30 4981 H 480.232 3.57925 -4.17337 0
M  V30 4982 H 481.457 4.47744 -5.1059 0
M  V30 4983 H 479.403 5.7095 -3.23036 0
M  V30 4984 H 479.32 5.70413 -4.96151 0
M  V30 4985 H 480.588 6.58823 -4.16621 0
M  V30 4986 N 484.817 1.37938 0.762283 0
M  V30 4987 C 486.065 1.33404 1.51815 0
M  V30 4988 C 486.386 -0.0780975 1.94844 0
M  V30 4989 O 485.656 -1.02405 1.67003 0
M  V30 4990 H 484.236 0.490839 0.563104 0
M  V30 4991 H 486.898 1.72527 0.906669 0
M  V30 4992 H 485.994 1.97926 2.41313 0
M  V30 4993 N 486.295 -0.989507 1.22664 0
M  V30 4994 C 487.52 -1.77031 1.08051 0
M  V30 4995 C 487.945 -1.84535 -0.364483 0
M  V30 4996 O 487.303 -1.3003 -1.2634 0
M  V30 4997 C 487.351 -3.18 1.70024 0
M  V30 4998 O 486.455 -4.01161 0.956216 0
M  V30 4999 H 485.796 -0.545008 0.379292 0
M  V30 5000 H 488.326 -1.24277 1.62531 0
M  V30 5001 H 488.336 -3.68616 1.74888 0
M  V30 5002 H 487.011 -3.11853 2.75174 0
M  V30 5003 H 485.588 -3.59687 0.98384 0
M  V30 5004 N 487.773 -1.03688 -1.18687 0
M  V30 5005 C 489.05 -0.652397 -1.84399 0
M  V30 5006 C 489.43 0.868386 -1.92412 0
M  V30 5007 O 488.778 1.76832 -1.44716 0
M  V30 5008 C 488.988 -1.3238 -3.22919 0
M  V30 5009 C 490.336 -1.45216 -3.98996 0
M  V30 5010 O 491.36 -1.2816 -3.32345 0
M  V30 5011 O 490.219 -1.72975 -5.18403 0
M  V30 5012 H 487.313 -0.227793 -0.795009 0
M  V30 5013 H 489.859 -1.13553 -1.2611 0
M  V30 5014 H 488.631 -2.36202 -3.11968 0
M  V30 5015 H 488.254 -0.829039 -3.88861 0
M  V30 5016 N 489.251 1.34841 -0.815825 0
M  V30 5017 C 490.497 1.98793 -0.401129 0
M  V30 5018 C 490.83 1.64548 1.03139 0
M  V30 5019 O 490.105 0.913487 1.71714 0
M  V30 5020 C 490.388 3.55143 -0.595409 0
M  V30 5021 C 490.241 3.99155 -2.07352 0
M  V30 5022 C 491.56 4.40092 -0.0268823 0
M  V30 5023 H 488.679 0.722146 -0.14722 0
M  V30 5024 H 491.321 1.59847 -1.02707 0
M  V30 5025 H 489.471 3.8845 -0.0625779 0
M  V30 5026 H 491.143 3.76216 -2.66945 0
M  V30 5027 H 489.386 3.49726 -2.56659 0
M  V30 5028 H 490.057 5.07971 -2.1603 0
M  V30 5029 H 492.533 4.13298 -0.482042 0
M  V30 5030 H 491.409 5.48562 -0.19267 0
M  V30 5031 H 491.67 4.29016 1.06759 0
M  V30 5032 N 490.729 0.570148 1.46925 0
M  V30 5033 C 491.975 0.0593124 2.03314 0
M  V30 5034 C 492.33 -1.28139 1.43521 0
M  V30 5035 O 491.623 -1.82411 0.586245 0
M  V30 5036 C 491.817 -0.0780336 3.57315 0
M  V30 5037 C 491.646 1.2478 4.32042 0
M  V30 5038 C 490.416 1.81859 4.7144 0
M  V30 5039 C 492.614 2.16808 4.66368 0
M  V30 5040 N 490.596 3.08313 5.30864 0
M  V30 5041 C 491.967 3.27845 5.2623 0
M  V30 5042 C 494.022 2.16643 4.48297 0
M  V30 5043 C 492.725 4.38832 5.69929 0
M  V30 5044 C 494.751 3.26652 4.93004 0
M  V30 5045 C 494.113 4.36408 5.52926 0
M  V30 5046 H 490.212 0.0641804 0.779362 0
M  V30 5047 H 492.796 0.760285 1.79242 0
M  V30 5048 H 490.967 -0.748151 3.81126 0
M  V30 5049 H 492.699 -0.59211 4.00345 0
M  V30 5050 H 489.454 1.35502 4.53802 0
M  V30 5051 H 489.878 3.72802 5.65108 0
M  V30 5052 H 494.52 1.33065 4.01315 0
M  V30 5053 H 492.238 5.23162 6.15896 0
M  V30 5054 H 495.824 3.27627 4.80782 0
M  V30 5055 H 494.704 5.20127 5.86888 0
M  V30 5056 N 492.207 -1.54576 0.307264 0
M  V30 5057 C 493.432 -2.05139 -0.305379 0
M  V30 5058 C 493.857 -1.18278 -1.46259 0
M  V30 5059 O 493.215 -0.188243 -1.8032 0
M  V30 5060 C 493.263 -3.53066 -0.733283 0
M  V30 5061 O 492.367 -3.69206 -1.83741 0
M  V30 5062 H 491.708 -0.661444 -0.0582105 0
M  V30 5063 H 494.238 -1.99569 0.450931 0
M  V30 5064 H 494.248 -3.95034 -1.02039 0
M  V30 5065 H 492.923 -4.15746 0.113198 0
M  V30 5066 H 491.5 -3.39143 -1.55037 0
M  V30 5067 N 493.685 -0.035106 -1.57561 0
M  V30 5068 C 494.915 0.651312 -1.96065 0
M  V30 5069 C 495.323 1.6585 -0.910514 0
M  V30 5070 O 494.666 1.83336 0.11552 0
M  V30 5071 C 494.728 1.40897 -3.30739 0
M  V30 5072 C 494.392 0.559436 -4.53563 0
M  V30 5073 C 495.389 -0.16778 -5.19629 0
M  V30 5074 C 493.074 0.495079 -4.99854 0
M  V30 5075 C 495.068 -0.947963 -6.30311 0
M  V30 5076 C 492.755 -0.288804 -6.10417 0
M  V30 5077 C 493.753 -1.00903 -6.75505 0
M  V30 5078 O 493.441 -1.78005 -7.83945 0
M  V30 5079 H 493.173 0.184036 -0.650467 0
M  V30 5080 H 495.727 -0.0929677 -2.05189 0
M  V30 5081 H 493.957 2.19852 -3.18123 0
M  V30 5082 H 495.646 1.98407 -3.54104 0
M  V30 5083 H 496.412 -0.12743 -4.84833 0
M  V30 5084 H 492.291 1.04524 -4.48994 0
M  V30 5085 H 495.835 -1.51064 -6.81047 0
M  V30 5086 H 491.732 -0.33085 -6.44652 0
M  V30 5087 H 492.5 -1.70046 -8.00641 0
M  V30 5088 N 495.163 1.55791 0.238111 0
M  V30 5089 C 496.411 1.77681 0.963001 0
M  V30 5090 C 496.732 0.600674 1.85518 0
M  V30 5091 O 496.002 -0.383182 1.92116 0
M  V30 5092 H 494.582 0.655315 0.358568 0
M  V30 5093 H 497.244 1.93239 0.253945 0
M  V30 5094 H 496.34 2.69177 1.57956 0
M  V30 5095 N 496.642 -0.504142 1.49319 0
M  V30 5096 C 497.888 -1.26033 1.58882 0
M  V30 5097 C 498.221 -1.92268 0.273274 0
M  V30 5098 O 497.496 -1.80567 -0.72291 0
M  V30 5099 C 497.779 -2.32976 2.7458 0
M  V30 5100 C 497.632 -1.71263 4.1592 0
M  V30 5101 C 498.951 -3.34561 2.85932 0
M  V30 5102 H 496.07 -0.456863 0.578312 0
M  V30 5103 H 498.712 -0.558965 1.81592 0
M  V30 5104 H 496.862 -2.92796 2.55348 0
M  V30 5105 H 498.534 -1.15294 4.4666 0
M  V30 5106 H 496.777 -1.01686 4.21714 0
M  V30 5107 H 497.448 -2.48816 4.92742 0
M  V30 5108 H 499.924 -2.84727 3.0343 0
M  V30 5109 H 498.8 -4.06754 3.68568 0
M  V30 5110 H 499.061 -3.96695 1.95154 0
M  V30 5111 N 498.12 -1.38341 -0.754957 0
M  V30 5112 C 499.05 -1.38176 -1.88227 0
M  V30 5113 C 500.031 -0.247873 -1.68284 0
M  V30 5114 O 501.216 -0.45075 -1.88896 0
M  V30 5115 C 498.346 -1.20471 -3.25736 0
M  V30 5116 C 497.3 -2.3105 -3.60278 0
M  V30 5117 C 496.626 -1.98452 -4.96509 0
M  V30 5118 C 497.926 -3.73305 -3.65295 0
M  V30 5119 H 499.62 -2.32512 -1.88622 0
M  V30 5120 H 497.166 -1.1192 -0.906082 0
M  V30 5121 H 499.119 -1.18982 -4.04254 0
M  V30 5122 H 497.843 -0.225965 -3.25817 0
M  V30 5123 H 496.502 -2.31723 -2.84078 0
M  V30 5124 H 496.15 -0.990641 -4.93148 0
M  V30 5125 H 495.85 -2.7251 -5.20588 0
M  V30 5126 H 497.374 -1.98578 -5.77407 0
M  V30 5127 H 498.788 -3.7467 -4.3393 0
M  V30 5128 H 497.185 -4.46557 -4.00883 0
M  V30 5129 H 498.255 -4.05719 -2.65556 0
M  V30 5130 N 499.598 0.982988 -1.23187 0
M  V30 5131 C 500.528 2.09301 -1.03515 0
M  V30 5132 C 501.509 1.70035 0.0471136 0
M  V30 5133 O 502.694 1.93847 -0.117029 0
M  V30 5134 C 499.824 3.4167 -0.622791 0
M  V30 5135 C 498.778 3.94828 -1.65211 0
M  V30 5136 C 498.104 5.23362 -1.09527 0
M  V30 5137 C 499.404 4.2439 -3.04451 0
M  V30 5138 H 501.098 2.26016 -1.96359 0
M  V30 5139 H 498.644 1.08611 -0.945501 0
M  V30 5140 H 500.597 4.18746 -0.472233 0
M  V30 5141 H 499.321 3.24811 0.341329 0
M  V30 5142 H 497.98 3.19895 -1.79061 0
M  V30 5143 H 497.628 5.02852 -0.122211 0
M  V30 5144 H 497.328 5.59895 -1.783 0
M  V30 5145 H 498.852 6.03062 -0.956511 0
M  V30 5146 H 500.266 4.92225 -2.93917 0
M  V30 5147 H 498.663 4.72118 -3.70438 0
M  V30 5148 H 499.733 3.31765 -3.53638 0
M  V30 5149 N 501.076 1.04316 1.18135 0
M  V30 5150 C 502.322 0.758899 1.88712 0
M  V30 5151 C 502.677 -0.705863 1.78984 0
M  V30 5152 O 501.97 -1.50874 1.18101 0
M  V30 5153 C 502.164 1.16271 3.37958 0
M  V30 5154 C 501.993 2.66518 3.62213 0
M  V30 5155 C 500.763 3.33702 3.79436 0
M  V30 5156 C 502.961 3.64739 3.62588 0
M  V30 5157 N 500.943 4.72904 3.91452 0
M  V30 5158 C 502.314 4.89627 3.80348 0
M  V30 5159 C 504.369 3.58333 3.4569 0
M  V30 5160 C 503.072 6.08879 3.8296 0
M  V30 5161 C 505.098 4.77016 3.49586 0
M  V30 5162 C 504.46 6.00724 3.67845 0
M  V30 5163 H 500.559 0.329795 0.709055 0
M  V30 5164 H 503.143 1.33334 1.4188 0
M  V30 5165 H 501.314 0.616319 3.83479 0
M  V30 5166 H 503.046 0.829205 3.96114 0
M  V30 5167 H 499.801 2.84105 3.78921 0
M  V30 5168 H 500.225 5.45258 4.01277 0
M  V30 5169 H 504.867 2.63663 3.30517 0
M  V30 5170 H 502.585 7.03903 3.96921 0
M  V30 5171 H 506.171 4.73703 3.37782 0
M  V30 5172 H 505.051 6.91022 3.70753 0
M  V30 5173 N 502.554 -1.34406 0.822964 0
M  V30 5174 C 503.464 -2.33298 0.246838 0
M  V30 5175 C 504.48 -1.62625 -0.618797 0
M  V30 5176 O 505.656 -1.94391 -0.526685 0
M  V30 5177 C 502.721 -3.41785 -0.581731 0
M  V30 5178 C 501.782 -4.28206 0.306309 0
M  V30 5179 C 501.015 -5.31512 -0.48281 0
M  V30 5180 O 501.238 -5.43973 -1.71607 0
M  V30 5181 O 500.172 -6.01749 0.134884 0
M  V30 5182 H 503.998 -2.84401 1.06534 0
M  V30 5183 H 501.583 -1.37466 0.585108 0
M  V30 5184 H 503.465 -4.08028 -1.05313 0
M  V30 5185 H 502.14 -2.92925 -1.37756 0
M  V30 5186 H 501.047 -3.64885 0.825199 0
M  V30 5187 H 502.38 -4.80507 1.06649 0
M  V30 5188 N 504.032 -0.577932 -1.46621 0
M  V30 5189 C 504.962 0.145917 -2.33044 0
M  V30 5190 C 505.943 0.888412 -1.45056 0
M  V30 5191 O 507.128 0.864812 -1.73881 0
M  V30 5192 C 504.258 1.16322 -3.27241 0
M  V30 5193 C 503.212 0.535868 -4.24632 0
M  V30 5194 C 502.538 1.65929 -5.08303 0
M  V30 5195 C 503.838 -0.523861 -5.19666 0
M  V30 5196 H 505.532 -0.575636 -2.93814 0
M  V30 5197 H 503.078 -0.278272 -1.41286 0
M  V30 5198 H 505.031 1.67793 -3.86553 0
M  V30 5199 H 503.755 1.91498 -2.64567 0
M  V30 5200 H 502.414 0.0422759 -3.66576 0
M  V30 5201 H 502.062 2.40061 -4.42018 0
M  V30 5202 H 501.762 1.2452 -5.74255 0
M  V30 5203 H 503.286 2.17686 -5.70478 0
M  V30 5204 H 504.7 -0.0944059 -5.73222 0
M  V30 5205 H 503.097 -0.858 -5.93935 0
M  V30 5206 H 504.167 -1.41197 -4.63887 0
M  V30 5207 N 505.51 1.54411 -0.315457 0
M  V30 5208 C 506.44 2.27002 0.547039 0
M  V30 5209 C 507.421 1.27492 1.12605 0
M  V30 5210 O 508.606 1.5629 1.15269 0
M  V30 5211 C 505.736 3.02171 1.71201 0
M  V30 5212 C 504.69 4.0895 1.26268 0
M  V30 5213 C 504.016 4.71915 2.51396 0
M  V30 5214 C 505.316 5.20891 0.383419 0
M  V30 5215 H 507.01 2.99343 -0.0584517 0
M  V30 5216 H 504.556 1.4397 -0.0295527 0
M  V30 5217 H 506.509 3.51681 2.32161 0
M  V30 5218 H 505.233 2.27433 2.34397 0
M  V30 5219 H 503.892 3.60312 0.676062 0
M  V30 5220 H 503.54 3.93801 3.12937 0
M  V30 5221 H 503.24 5.44039 2.22026 0
M  V30 5222 H 504.764 5.24195 3.13133 0
M  V30 5223 H 506.178 5.66206 0.899082 0
M  V30 5224 H 504.575 5.99821 0.182857 0
M  V30 5225 H 505.645 4.81324 -0.587821 0
M  V30 5226 N 506.988 0.0434614 1.5754 0
M  V30 5227 C 508.216 -0.641835 1.96693 0
M  V30 5228 C 508.631 -1.64832 0.920652 0
M  V30 5229 O 507.988 -1.82247 -0.095993 0
M  V30 5230 C 508.039 -1.33557 3.35924 0
M  V30 5231 O 507.76 -0.369403 4.3654 0
M  V30 5232 C 509.261 -2.11135 3.89791 0
M  V30 5233 H 506.481 -0.176013 0.647503 0
M  V30 5234 H 509.025 0.107478 2.04217 0
M  V30 5235 H 507.18 -2.03617 3.29574 0
M  V30 5236 H 507.594 -0.863674 5.1734 0
M  V30 5237 H 509.068 -2.55107 4.89514 0
M  V30 5238 H 509.545 -2.95634 3.24803 0
M  V30 5239 H 510.151 -1.46002 3.99454 0
M  V30 5240 N 508.466 -1.55915 -0.229846 0
M  V30 5241 C 509.714 -1.7819 -0.953565 0
M  V30 5242 C 510.035 -0.610504 -1.85197 0
M  V30 5243 O 509.305 0.372988 -1.92316 0
M  V30 5244 H 507.885 -0.657208 -0.355087 0
M  V30 5245 H 510.547 -1.9337 -0.243693 0
M  V30 5246 H 509.643 -2.70011 -1.56527 0
M  V30 5247 N 509.944 0.496216 -1.49584 0
M  V30 5248 C 510.854 1.62352 -1.69349 0
M  V30 5249 C 511.87 1.64184 -0.576147 0
M  V30 5250 O 513.046 1.82517 -0.85144 0
M  V30 5251 C 510.111 2.98698 -1.76013 0
M  V30 5252 C 509.172 3.07454 -2.99617 0
M  V30 5253 C 508.405 4.37296 -3.05953 0
M  V30 5254 O 508.628 5.2637 -2.19752 0
M  V30 5255 O 507.562 4.51124 -3.9846 0
M  V30 5256 H 511.388 1.48606 -2.64859 0
M  V30 5257 H 508.973 0.673022 -1.33382 0
M  V30 5258 H 510.855 3.79725 -1.82721 0
M  V30 5259 H 509.53 3.12696 -0.836828 0
M  V30 5260 H 508.437 2.25597 -2.98424 0
M  V30 5261 H 509.77 2.98385 -3.91443 0
M  V30 5262 N 511.423 1.38739 0.74761 0
M  V30 5263 C 512.669 1.35475 1.50912 0
M  V30 5264 C 513.002 -0.0533093 1.94127 0
M  V30 5265 O 512.277 -1.01572 1.65871 0
M  V30 5266 C 512.56 2.31582 2.75757 0
M  V30 5267 C 512.413 3.81274 2.38642 0
M  V30 5268 C 513.732 2.25722 3.77806 0
M  V30 5269 H 510.851 0.493427 0.547447 0
M  V30 5270 H 513.493 1.69634 0.855823 0
M  V30 5271 H 511.643 2.02582 3.31501 0
M  V30 5272 H 513.315 4.20972 1.88626 0
M  V30 5273 H 511.558 3.98664 1.71025 0
M  V30 5274 H 512.229 4.4399 3.27989 0
M  V30 5275 H 514.705 2.51336 3.31616 0
M  V30 5276 H 513.581 2.95069 4.62845 0
M  V30 5277 H 513.842 1.25803 4.23823 0
M  V30 5278 N 512.901 -0.976442 1.23707 0
M  V30 5279 C 514.312 -1.53284 1.06587 0
M  V30 5280 C 514.663 -1.92765 -0.365526 0
M  V30 5281 O 513.788 -1.7645 -1.25277 0
M  V30 5282 C 514.383 -2.78548 1.92864 0
M  V30 5283 C 512.942 -3.30574 1.79994 0
M  V30 5284 C 512.089 -2.03538 1.88328 0
M  V30 5285 H 515.04 -0.795692 1.37311 0
M  V30 5286 H 515.061 -3.5155 1.45577 0
M  V30 5287 H 514.573 -2.49782 2.97037 0
M  V30 5288 H 512.674 -3.64211 0.786202 0
M  V30 5289 H 512.787 -4.00065 2.636 0
M  V30 5290 H 511.151 -2.17853 1.31954 0
M  V30 5291 H 511.934 -1.77149 2.94063 0
M  V30 5292 N 514.379 -1.04941 -1.1758 0
M  V30 5293 C 515.626 -0.757989 -1.87779 0
M  V30 5294 C 515.954 0.714827 -1.80888 0
M  V30 5295 O 515.209 1.53824 -1.20982 0
M  V30 5296 C 515.508 -1.18062 -3.37337 0
M  V30 5297 C 515.174 -2.65521 -3.6443 0
M  V30 5298 C 513.836 -3.05804 -3.71534 0
M  V30 5299 C 516.188 -3.60822 -3.76108 0
M  V30 5300 C 513.516 -4.40256 -3.87803 0
M  V30 5301 C 515.868 -4.95005 -3.93895 0
M  V30 5302 C 514.532 -5.34945 -3.99237 0
M  V30 5303 H 513.802 -0.277368 -0.68713 0
M  V30 5304 H 516.449 -1.31603 -1.39115 0
M  V30 5305 H 514.754 -0.541525 -3.8804 0
M  V30 5306 H 516.451 -0.932368 -3.9001 0
M  V30 5307 H 513.041 -2.33324 -3.59524 0
M  V30 5308 H 517.225 -3.30841 -3.69943 0
M  V30 5309 H 512.481 -4.70707 -3.90186 0
M  V30 5310 H 516.655 -5.68746 -4.01872 0
M  V30 5311 H 514.282 -6.39135 -4.11596 0
M  V30 5312 N 515.857 1.33968 -0.830081 0
M  V30 5313 C 517.273 1.51003 -0.516742 0
M  V30 5314 C 517.473 1.77286 0.957694 0
M  V30 5315 O 516.529 1.82797 1.74188 0
M  V30 5316 C 517.842 2.67036 -1.38247 0
M  V30 5317 C 519.39 2.80919 -1.38034 0
M  V30 5318 C 519.865 4.00004 -2.23071 0
M  V30 5319 N 521.356 4.07224 -2.20733 0
M  V30 5320 C 522.091 4.98541 -2.83275 0
M  V30 5321 N 521.587 5.95033 -3.54835 0
M  V30 5322 N 523.38 4.91469 -2.72791 0
M  V30 5323 H 515.531 1.15168 -1.78466 0
M  V30 5324 H 517.794 0.565443 -0.760906 0
M  V30 5325 H 517.5 2.54266 -2.42985 0
M  V30 5326 H 517.374 3.62226 -1.05225 0
M  V30 5327 H 519.761 2.93127 -0.340713 0
M  V30 5328 H 519.842 1.86517 -1.75057 0
M  V30 5329 H 519.486 3.88557 -3.27087 0
M  V30 5330 H 519.416 4.93634 -1.83394 0
M  V30 5331 H 521.907 3.38162 -1.68687 0
M  V30 5332 H 522.22 6.61357 -3.99784 0
M  V30 5333 H 520.565 5.95135 -3.58942 0
M  V30 5334 H 523.756 4.15048 -2.16456 0
M  V30 5335 H 523.929 5.62439 -3.21818 0
M  V30 5336 N 517.335 0.585699 1.46312 0
M  V30 5337 C 518.583 0.072278 2.01971 0
M  V30 5338 C 518.904 -1.29345 1.45928 0
M  V30 5339 O 518.174 -1.84973 0.645109 0
M  V30 5340 H 516.754 0.023729 0.746623 0
M  V30 5341 H 519.416 0.762155 1.7938 0
M  V30 5342 H 518.512 0.00552767 3.121 0
M  V30 5343 N 518.813 -1.54241 0.323641 0
M  V30 5344 C 520.062 -1.9975 -0.279806 0
M  V30 5345 C 520.375 -1.2156 -1.5324 0
M  V30 5346 O 521.581 -1.57447 -2.21185 0
M  V30 5347 C 520.037 -3.55686 -0.549115 0
M  V30 5348 C 519.645 -4.4271 0.686432 0
M  V30 5349 C 521.389 -4.09663 -1.11251 0
M  V30 5350 C 519.296 -5.90119 0.389022 0
M  V30 5351 H 518.226 -0.746177 -0.10833 0
M  V30 5352 H 520.877 -1.78248 0.435877 0
M  V30 5353 H 519.259 -3.73176 -1.32499 0
M  V30 5354 H 520.433 -4.36996 1.46188 0
M  V30 5355 H 518.748 -3.99623 1.17005 0
M  V30 5356 H 521.345 -5.17386 -1.34965 0
M  V30 5357 H 521.688 -3.61651 -2.06191 0
M  V30 5358 H 522.221 -3.95806 -0.39782 0
M  V30 5359 H 518.96 -6.42326 1.30759 0
M  V30 5360 H 518.48 -5.98785 -0.348722 0
M  V30 5361 H 520.159 -6.47 -0.0011164 0
M  V30 5362 N 520.291 -0.0518155 -1.57515 0
M  V30 5363 C 521.568 0.661727 -1.84067 0
M  V30 5364 C 521.948 1.88999 -0.940351 0
M  V30 5365 O 521.296 2.285 -0.00155404 0
M  V30 5366 C 521.506 1.01841 -3.3381 0
M  V30 5367 C 522.854 1.40043 -4.00841 0
M  V30 5368 O 523.878 1.11073 -3.38439 0
M  V30 5369 O 522.737 1.94111 -5.10865 0
M  V30 5370 H 519.831 0.326702 -0.759733 0
M  V30 5371 H 522.377 -0.0812277 -1.69505 0
M  V30 5372 H 521.149 0.145202 -3.91031 0
M  V30 5373 H 520.772 1.81879 -3.53562 0
M  V30 5374 N 521.769 1.56035 0.221574 0
M  V30 5375 C 523.017 1.78693 0.944102 0
M  V30 5376 C 523.338 0.620317 1.8487 0
M  V30 5377 O 522.608 -0.362784 1.92512 0
M  V30 5378 H 521.188 0.659082 0.351597 0
M  V30 5379 H 523.85 1.93497 0.233435 0
M  V30 5380 H 522.946 2.70837 1.55093 0
M  V30 5381 N 523.247 -0.488276 1.49845 0
M  V30 5382 C 524.177 -1.59675 1.70371 0
M  V30 5383 C 525.158 -1.60878 0.552473 0
M  V30 5384 O 526.343 -1.77417 0.78973 0
M  V30 5385 C 523.473 -2.98098 1.782 0
M  V30 5386 C 522.427 -3.11761 2.93239 0
M  V30 5387 C 521.753 -4.51661 2.86193 0
M  V30 5388 C 523.053 -2.90589 4.33999 0
M  V30 5389 H 524.747 -1.42752 2.63177 0
M  V30 5390 H 522.293 -0.685317 1.26647 0
M  V30 5391 H 524.246 -3.75555 1.91144 0
M  V30 5392 H 522.97 -3.16138 0.820018 0
M  V30 5393 H 521.629 -2.36732 2.79917 0
M  V30 5394 H 521.277 -4.66595 1.87877 0
M  V30 5395 H 520.977 -4.61742 3.63412 0
M  V30 5396 H 522.501 -5.31162 3.01163 0
M  V30 5397 H 523.915 -3.57807 4.47936 0
M  V30 5398 H 522.312 -3.1213 5.12538 0
M  V30 5399 H 523.382 -1.86595 4.4756 0
M  V30 5400 N 524.725 -1.39134 -0.740242 0
M  V30 5401 C 525.688 -1.37217 -1.83587 0
M  V30 5402 C 526.688 -0.270221 -1.58513 0
M  V30 5403 O 527.878 -0.527843 -1.6601 0
M  V30 5404 C 525.01 -1.13959 -3.21288 0
M  V30 5405 H 526.203 -2.34705 -1.86691 0
M  V30 5406 H 523.756 -1.24622 -0.94335 0
M  V30 5407 H 524.491 -0.17131 -3.23847 0
M  V30 5408 H 524.276 -1.93754 -3.40884 0
M  V30 5409 H 525.766 -1.15346 -4.01354 0
M  V30 5410 N 526.204 0.969867 -1.24223 0
M  V30 5411 C 527.45 1.7151 -1.08223 0
M  V30 5412 C 527.783 1.90478 0.37838 0
M  V30 5413 O 527.058 1.4647 1.27971 0
M  V30 5414 C 527.341 3.10714 -1.82013 0
M  V30 5415 C 527.194 2.9925 -3.35811 0
M  V30 5416 C 528.513 4.10332 -1.59108 0
M  V30 5417 H 525.632 0.622499 -0.394543 0
M  V30 5418 H 528.274 1.1284 -1.52863 0
M  V30 5419 H 526.424 3.608 -1.44068 0
M  V30 5420 H 528.096 2.56608 -3.83341 0
M  V30 5421 H 526.339 2.35512 -3.64303 0
M  V30 5422 H 527.01 3.97857 -3.82641 0
M  V30 5423 H 529.486 3.69097 -1.92111 0
M  V30 5424 H 528.362 5.05804 -2.13198 0
M  V30 5425 H 528.623 4.38926 -0.528832 0
M  V30 5426 N 527.682 1.05563 1.17022 0
M  V30 5427 C 528.645 0.664098 2.19368 0
M  V30 5428 C 529.645 -0.286358 1.5823 0
M  V30 5429 O 530.835 -0.069728 1.7406 0
M  V30 5430 C 527.967 -0.0239932 3.40892 0
M  V30 5431 H 529.16 1.57 2.55521 0
M  V30 5432 H 526.713 0.849964 1.31169 0
M  V30 5433 H 527.448 -0.942988 3.10287 0
M  V30 5434 H 527.233 0.659351 3.86516 0
M  V30 5435 H 528.723 -0.283909 4.16634 0
M  V30 5436 N 529.16 -1.33526 0.837174 0
M  V30 5437 C 530.39 -2.01754 0.444848 0
M  V30 5438 C 530.798 -1.63149 -0.958072 0
M  V30 5439 O 530.141 -0.839827 -1.63379 0
M  V30 5440 C 530.203 -3.56228 0.483917 0
M  V30 5441 C 529.867 -4.18205 1.84265 0
M  V30 5442 C 530.864 -4.37699 2.80563 0
M  V30 5443 C 528.549 -4.54667 2.13503 0
M  V30 5444 C 530.543 -4.928 4.04261 0
M  V30 5445 C 528.23 -5.09475 3.37458 0
M  V30 5446 C 529.228 -5.28488 4.32654 0
M  V30 5447 O 528.916 -5.82132 5.54417 0
M  V30 5448 H 528.648 -0.652928 0.175104 0
M  V30 5449 H 531.202 -1.71469 1.13082 0
M  V30 5450 H 529.432 -3.85833 -0.258826 0
M  V30 5451 H 531.121 -4.05752 0.109653 0
M  V30 5452 H 531.887 -4.0988 2.59274 0
M  V30 5453 H 527.766 -4.39164 1.40201 0
M  V30 5454 H 531.31 -5.07555 4.78574 0
M  V30 5455 H 527.207 -5.36725 3.58604 0
M  V30 5456 H 527.975 -6.00548 5.56133 0
M  V30 5457 N 530.638 -0.59345 -1.46 0
M  V30 5458 C 531.886 -0.082988 -2.0193 0
M  V30 5459 C 532.207 1.28569 -1.46612 0
M  V30 5460 O 531.477 1.84629 -0.654909 0
M  V30 5461 H 530.057 -0.0276882 -0.746487 0
M  V30 5462 H 532.719 -0.771657 -1.78973 0
M  V30 5463 H 531.815 -0.022079 -3.12092 0
M  V30 5464 N 532.116 1.54067 -0.331816 0
M  V30 5465 C 533.362 2.01012 0.268667 0
M  V30 5466 C 533.695 1.2195 1.51136 0
M  V30 5467 O 532.97 0.303972 1.9211 0
M  V30 5468 C 533.253 3.55158 0.59456 0
M  V30 5469 C 533.106 4.4494 -0.659409 0
M  V30 5470 C 534.425 4.16939 1.4089 0
M  V30 5471 H 531.544 0.730698 0.0961756 0
M  V30 5472 H 534.186 1.84593 -0.450031 0
M  V30 5473 H 532.336 3.6928 1.20685 0
M  V30 5474 H 534.008 4.42675 -1.29756 0
M  V30 5475 H 532.251 4.1428 -1.28665 0
M  V30 5476 H 532.922 5.50643 -0.386804 0
M  V30 5477 H 535.398 4.06443 0.891272 0
M  V30 5478 H 534.274 5.24889 1.60569 0
M  V30 5479 H 534.535 3.70798 2.40752 0
M  V30 5480 N 533.594 0.0601682 1.57485 0
M  V30 5481 C 534.557 -0.896373 2.10945 0
M  V30 5482 C 535.557 -1.23402 1.03095 0
M  V30 5483 O 536.747 -1.16921 1.29132 0
M  V30 5484 C 533.879 -2.20346 2.60116 0
M  V30 5485 H 535.072 -0.432778 2.96761 0
M  V30 5486 H 532.625 -0.188372 1.55161 0
M  V30 5487 H 533.36 -2.71268 1.7772 0
M  V30 5488 H 533.145 -1.9714 3.38937 0
M  V30 5489 H 534.635 -2.88846 3.01592 0
M  V30 5490 N 535.072 -1.5615 -0.213296 0
M  V30 5491 C 536.005 -1.88115 -1.29182 0
M  V30 5492 C 536.983 -0.739348 -1.44819 0
M  V30 5493 O 538.167 -0.988541 -1.605 0
M  V30 5494 C 535.294 -2.09541 -2.66102 0
M  V30 5495 C 534.34 -3.32236 -2.67436 0
M  V30 5496 S 535.173 -4.87915 -2.20679 0
M  V30 5497 C 536.329 -5.12387 -3.59458 0
M  V30 5498 H 536.562 -2.793 -1.01876 0
M  V30 5499 H 534.095 -1.48692 -0.415934 0
M  V30 5500 H 536.053 -2.22568 -3.44925 0
M  V30 5501 H 534.714 -1.19138 -2.90628 0
M  V30 5502 H 533.907 -3.44297 -3.6807 0
M  V30 5503 H 533.509 -3.18108 -1.96681 0
M  V30 5504 H 535.801 -5.01791 -4.55205 0
M  V30 5505 H 536.744 -6.14236 -3.52306 0
M  V30 5506 H 537.152 -4.40089 -3.53528 0
M  V30 5507 N 536.55 0.480323 -1.50102 0
M  V30 5508 C 537.498 1.60024 -1.68805 0
M  V30 5509 C 538.492 1.60089 -0.553888 0
M  V30 5510 O 539.698 1.64349 -0.734127 0
M  V30 5511 H 536.073 0.530841 -0.532646 0
M  V30 5512 H 538.044 1.41408 -2.62767 0
M  V30 5513 C 536.793 2.98029 -1.79092 0
M  V30 5514 H 536.116 2.98694 -2.65748 0
M  V30 5515 H 537.556 3.75871 -1.96206 0
M  V30 5516 C 536.015 3.32538 -0.540388 0
M  V30 5517 O 536.545 4.00386 0.324637 0
M  V30 5518 N 534.751 2.87873 -0.397154 0
M  V30 5519 H 534.298 2.32834 -1.1021 0
M  V30 5520 H 534.256 3.11328 0.438425 0
M  V30 5521 N 538.028 1.39524 0.732853 0
M  V30 5522 C 538.975 1.38416 1.84688 0
M  V30 5523 C 539.945 0.243539 1.64305 0
M  V30 5524 O 541.13 0.438979 1.85681 0
M  V30 5525 C 538.27 1.23555 3.22224 0
M  V30 5526 C 537.383 2.47179 3.54298 0
M  V30 5527 C 536.518 2.2489 4.81246 0
M  V30 5528 C 535.557 3.44178 5.0617 0
M  V30 5529 N 534.694 3.21192 6.24323 0
M  V30 5530 H 539.534 2.33645 1.84971 0
M  V30 5531 H 537.071 1.16059 0.903804 0
M  V30 5532 H 539.029 1.12949 4.0162 0
M  V30 5533 H 537.659 0.31954 3.21215 0
M  V30 5534 H 536.711 2.68379 2.69587 0
M  V30 5535 H 538.023 3.36022 3.68633 0
M  V30 5536 H 537.177 2.11538 5.68627 0
M  V30 5537 H 535.916 1.33443 4.69089 0
M  V30 5538 H 534.921 3.58025 4.17251 0
M  V30 5539 H 536.146 4.36528 5.20212 0
M  V30 5540 H 534.092 2.32413 6.1345 0
M  V30 5541 H 534.009 4.03594 6.39256 0
M  V30 5542 H 535.277 3.1154 7.14537 0
M  V30 5543 N 539.506 -0.963266 1.24736 0
M  V30 5544 C 540.436 -2.07628 1.06832 0
M  V30 5545 C 541.417 -1.70088 -0.0200566 0
M  V30 5546 O 542.602 -1.93636 0.147854 0
M  V30 5547 C 539.732 -3.40636 0.677069 0
M  V30 5548 C 538.686 -3.9215 1.71471 0
M  V30 5549 C 538.012 -5.21553 1.1784 0
M  V30 5550 C 539.312 -4.19493 3.11164 0
M  V30 5551 H 541.006 -2.22864 1.9993 0
M  V30 5552 H 538.552 -1.07093 0.96266 0
M  V30 5553 H 540.505 -4.17941 0.538792 0
M  V30 5554 H 539.229 -3.25313 -0.289612 0
M  V30 5555 H 537.888 -3.17005 1.84128 0
M  V30 5556 H 537.536 -5.02593 0.202195 0
M  V30 5557 H 537.236 -5.56988 1.87185 0
M  V30 5558 H 538.76 -6.01463 1.05233 0
M  V30 5559 H 540.174 -4.87487 3.01711 0
M  V30 5560 H 538.571 -4.66165 3.77902 0
M  V30 5561 H 539.641 -3.26097 3.58871 0
M  V30 5562 N 540.985 -1.06182 -1.16461 0
M  V30 5563 C 541.948 -0.675723 -2.19013 0
M  V30 5564 C 542.948 0.277963 -1.58379 0
M  V30 5565 O 544.138 0.0604962 -1.74095 0
M  V30 5566 C 541.27 0.00591459 -3.40899 0
M  V30 5567 H 542.463 -1.58353 -2.54685 0
M  V30 5568 H 540.016 -0.856908 -1.30716 0
M  V30 5569 H 540.751 0.92652 -3.10783 0
M  V30 5570 H 540.536 -0.67984 -3.86161 0
M  V30 5571 H 542.026 0.26181 -4.16778 0
M  V30 5572 N 542.463 1.3308 -0.844243 0
M  V30 5573 C 543.393 2.3161 -0.296493 0
M  V30 5574 C 544.374 1.59215 0.598707 0
M  V30 5575 O 545.559 1.87077 0.521134 0
M  V30 5576 C 542.689 3.43313 0.524762 0
M  V30 5577 C 541.643 4.27115 -0.275106 0
M  V30 5578 C 540.969 5.30483 0.670236 0
M  V30 5579 C 542.269 5.00443 -1.49514 0
M  V30 5580 H 543.963 2.77672 -1.11976 0
M  V30 5581 H 541.509 1.33496 -0.539899 0
M  V30 5582 H 543.462 4.11273 0.918298 0
M  V30 5583 H 542.186 2.95952 1.3813 0
M  V30 5584 H 540.845 3.60787 -0.650267 0
M  V30 5585 H 540.493 4.79379 1.52332 0
M  V30 5586 H 540.193 5.87435 0.139123 0
M  V30 5587 H 541.717 6.01308 1.06117 0
M  V30 5588 H 543.131 5.61141 -1.17447 0
M  V30 5589 H 541.528 5.67071 -1.96343 0
M  V30 5590 H 542.598 4.28906 -2.26202 0
M  V30 5591 N 543.941 0.601185 1.45683 0
M  V30 5592 C 545.352 0.179659 1.85834 0
M  V30 5593 C 545.703 -1.26189 1.50236 0
M  V30 5594 O 544.828 -1.95587 0.925987 0
M  V30 5595 C 545.423 0.319277 3.37292 0
M  V30 5596 C 543.982 -0.0475092 3.7637 0
M  V30 5597 C 543.129 0.646692 2.69654 0
M  V30 5598 H 546.08 0.808268 1.36575 0
M  V30 5599 H 546.101 -0.4503 3.77826 0
M  V30 5600 H 545.613 1.36855 3.6317 0
M  V30 5601 H 543.714 -1.0962 3.5611 0
M  V30 5602 H 543.827 0.34168 4.7788 0
M  V30 5603 H 542.191 0.0849971 2.54558 0
M  V30 5604 H 542.974 1.69797 2.98369 0
M  V30 5605 N 545.419 -1.53889 0.339982 0
M  V30 5606 C 546.668 -2.00035 -0.258604 0
M  V30 5607 C 546.981 -1.23179 -1.51942 0
M  V30 5608 O 548.187 -1.59784 -2.19503 0
M  V30 5609 C 546.643 -3.56249 -0.511359 0
M  V30 5610 C 546.251 -4.41957 0.733349 0
M  V30 5611 C 547.995 -4.1082 -1.069 0
M  V30 5612 C 545.902 -5.89673 0.451591 0
M  V30 5613 H 544.832 -0.747284 -0.10041 0
M  V30 5614 H 547.483 -1.77776 0.454758 0
M  V30 5615 H 545.865 -3.7456 -1.28533 0
M  V30 5616 H 547.039 -4.35421 1.50815 0
M  V30 5617 H 545.354 -3.9836 1.21237 0
M  V30 5618 H 547.951 -5.18789 -1.2947 0
M  V30 5619 H 548.294 -3.63817 -2.02343 0
M  V30 5620 H 548.827 -3.96205 -0.355817 0
M  V30 5621 H 545.566 -6.40903 1.37565 0
M  V30 5622 H 545.086 -5.99122 -0.285193 0
M  V30 5623 H 546.765 -6.46965 0.0675067 0
M  V30 5624 N 546.897 -0.0685191 -1.57451 0
M  V30 5625 C 548.308 0.464634 -1.80826 0
M  V30 5626 C 548.659 1.69847 -0.982169 0
M  V30 5627 O 547.784 2.15439 -0.203734 0
M  V30 5628 C 548.379 0.849721 -3.27971 0
M  V30 5629 C 546.938 1.32776 -3.52204 0
M  V30 5630 C 546.085 0.311332 -2.75547 0
M  V30 5631 H 549.036 -0.294248 -1.55948 0
M  V30 5632 H 549.057 1.71138 -3.39841 0
M  V30 5633 H 548.569 -0.0484736 -3.8807 0
M  V30 5634 H 546.67 2.24456 -2.97406 0
M  V30 5635 H 546.783 1.30794 -4.60901 0
M  V30 5636 H 545.147 0.787915 -2.42206 0
M  V30 5637 H 545.93 -0.579078 -3.38381 0
M  V30 5638 N 548.375 1.56261 0.205012 0
M  V30 5639 C 549.6 1.84491 0.947512 0
M  V30 5640 C 550.025 0.650894 1.76479 0
M  V30 5641 O 549.383 -0.40035 1.76824 0
M  V30 5642 C 549.431 3.10863 1.82747 0
M  V30 5643 O 548.535 2.90719 2.925 0
M  V30 5644 H 547.876 0.607783 0.267386 0
M  V30 5645 H 550.406 2.03485 0.213323 0
M  V30 5646 H 550.416 3.41399 2.23407 0
M  V30 5647 H 549.091 3.97392 1.2269 0
M  V30 5648 H 547.668 2.71457 2.55667 0
M  V30 5649 N 549.853 -0.472356 1.50355 0
M  V30 5650 C 551.081 -1.24784 1.65035 0
M  V30 5651 C 551.496 -1.85837 0.333176 0
M  V30 5652 O 550.853 -1.69168 -0.68472 0
M  V30 5653 C 550.904 -2.35747 2.74054 0
M  V30 5654 O 550.625 -1.77197 4.00665 0
M  V30 5655 C 552.126 -3.26645 2.99696 0
M  V30 5656 H 549.346 -0.377432 0.554785 0
M  V30 5657 H 551.89 -0.563962 1.9657 0
M  V30 5658 H 550.045 -2.99912 2.45217 0
M  V30 5659 H 550.459 -2.5026 4.60945 0
M  V30 5660 H 551.933 -4.00718 3.79644 0
M  V30 5661 H 552.41 -3.8535 2.10718 0
M  V30 5662 H 553.016 -2.68218 3.3006 0
M  V30 5663 N 551.331 -1.39911 -0.725443 0
M  V30 5664 C 552.571 -1.39096 -1.49772 0
M  V30 5665 C 552.935 0.0106452 -1.91997 0
M  V30 5666 O 554.136 0.143859 -2.68415 0
M  V30 5667 C 552.407 -2.34441 -2.69764 0
M  V30 5668 S 553.966 -2.51898 -3.59295 0
M  V30 5669 H 550.784 -0.49314 -0.512186 0
M  V30 5670 H 553.386 -1.76093 -0.849197 0
M  V30 5671 H 552.09 -3.35123 -2.36898 0
M  V30 5672 H 551.621 -1.98692 -3.39537 0
M  V30 5673 H 553.636 -1.76402 -4.63785 0
M  V30 5674 N 552.809 0.956637 -1.25245 0
M  V30 5675 C 554.22 1.51569 -1.09012 0
M  V30 5676 C 554.571 1.93322 0.334813 0
M  V30 5677 O 553.696 1.78421 1.22454 0
M  V30 5678 C 554.291 2.75444 -1.97271 0
M  V30 5679 C 552.85 3.27669 -1.8523 0
M  V30 5680 C 551.997 2.00517 -1.91542 0
M  V30 5681 H 554.948 0.773746 -1.3856 0
M  V30 5682 H 554.969 3.4919 -1.51151 0
M  V30 5683 H 554.481 2.45024 -3.00973 0
M  V30 5684 H 552.582 3.62914 -0.844045 0
M  V30 5685 H 552.695 3.9582 -2.69932 0
M  V30 5686 H 551.059 2.15727 -1.35404 0
M  V30 5687 H 551.842 1.72448 -2.96844 0
M  V30 5688 N 554.287 1.06798 1.15896 0
M  V30 5689 C 555.197 0.694564 2.24083 0
M  V30 5690 C 556.213 -0.291687 1.71538 0
M  V30 5691 O 557.389 -0.139723 2.00915 0
M  V30 5692 C 554.454 0.0921014 3.46578 0
M  V30 5693 C 553.515 1.13087 4.14137 0
M  V30 5694 C 552.748 0.557064 5.30785 0
M  V30 5695 O 552.971 -0.628623 5.66925 0
M  V30 5696 O 551.905 1.29924 5.8771 0
M  V30 5697 H 555.731 1.59663 2.58344 0
M  V30 5698 H 553.316 0.840575 1.2351 0
M  V30 5699 H 555.198 -0.241884 4.20705 0
M  V30 5700 H 553.873 -0.78337 3.14078 0
M  V30 5701 H 552.78 1.51712 3.41957 0
M  V30 5702 H 554.113 1.97805 4.50704 0
M  V30 5703 N 555.766 -1.3263 0.851289 0
M  V30 5704 C 557.177 -1.79653 0.5081 0
M  V30 5705 C 557.528 -1.70327 -0.973815 0
M  V30 5706 O 556.653 -1.25986 -1.75944 0
M  V30 5707 C 557.248 -3.26196 0.915515 0
M  V30 5708 C 555.807 -3.71187 0.624277 0
M  V30 5709 C 554.954 -2.53804 1.11709 0
M  V30 5710 H 557.905 -1.19976 1.03882 0
M  V30 5711 H 557.926 -3.79801 0.230535 0
M  V30 5712 H 557.438 -3.32952 1.99411 0
M  V30 5713 H 555.539 -3.69948 -0.443737 0
M  V30 5714 H 555.652 -4.64132 1.18821 0
M  V30 5715 H 554.016 -2.48964 0.537484 0
M  V30 5716 H 554.799 -2.63315 2.20272 0
M  V30 5717 N 557.244 -0.608902 -1.45362 0
M  V30 5718 C 558.491 -0.104607 -2.0223 0
M  V30 5719 C 558.819 1.26534 -1.47714 0
M  V30 5720 O 558.074 1.84855 -0.642435 0
M  V30 5721 C 558.373 -0.0167296 -3.57396 0
M  V30 5722 C 558.039 -1.32251 -4.31069 0
M  V30 5723 C 556.701 -1.68019 -4.50914 0
M  V30 5724 C 559.053 -2.18542 -4.73169 0
M  V30 5725 C 556.381 -2.89828 -5.10114 0
M  V30 5726 C 558.733 -3.39602 -5.33717 0
M  V30 5727 C 557.397 -3.7562 -5.51784 0
M  V30 5728 H 556.667 -0.0382785 -0.740011 0
M  V30 5729 H 559.314 -0.790782 -1.7441 0
M  V30 5730 H 557.619 0.752715 -3.84502 0
M  V30 5731 H 559.316 0.389634 -3.99103 0
M  V30 5732 H 555.906 -1.03411 -4.15938 0
M  V30 5733 H 560.09 -1.92208 -4.5757 0
M  V30 5734 H 555.346 -3.17839 -5.22291 0
M  V30 5735 H 559.52 -4.06716 -5.65292 0
M  V30 5736 H 557.147 -4.70093 -5.97425 0
M  V30 5737 N 558.722 1.53707 -0.348139 0
M  V30 5738 C 559.685 2.23812 0.494058 0
M  V30 5739 C 560.685 1.23989 1.02388 0
M  V30 5740 O 561.875 1.48395 0.912396 0
M  V30 5741 C 559.007 2.96133 1.68872 0
M  V30 5742 H 560.2 2.99663 -0.119141 0
M  V30 5743 H 557.753 1.55983 -0.0995539 0
M  V30 5744 H 558.488 2.24481 2.34049 0
M  V30 5745 H 558.273 3.69357 1.31596 0
M  V30 5746 H 559.763 3.49475 2.28597 0
M  V30 5747 N 560.2 0.0768682 1.57412 0
M  V30 5748 C 561.147 -0.888577 2.13009 0
M  V30 5749 C 562.117 -1.29198 1.0439 0
M  V30 5750 O 563.302 -1.37694 1.3208 0
M  V30 5751 C 560.442 -2.14899 2.70023 0
M  V30 5752 C 559.555 -1.79777 3.92816 0
M  V30 5753 C 558.69 -3.00467 4.38056 0
M  V30 5754 C 557.729 -2.61385 5.53484 0
M  V30 5755 N 556.866 -3.74851 5.93659 0
M  V30 5756 H 561.706 -0.407593 2.95199 0
M  V30 5757 H 559.243 -0.189534 1.45874 0
M  V30 5758 H 561.201 -2.88688 3.0119 0
M  V30 5759 H 559.831 -2.60529 1.9059 0
M  V30 5760 H 558.883 -0.960301 3.68079 0
M  V30 5761 H 560.195 -1.47027 4.76639 0
M  V30 5762 H 559.349 -3.82529 4.7091 0
M  V30 5763 H 558.088 -3.36413 3.53097 0
M  V30 5764 H 557.093 -1.77746 5.20275 0
M  V30 5765 H 558.318 -2.26603 6.40178 0
M  V30 5766 H 556.264 -4.1055 5.11649 0
M  V30 5767 H 556.181 -3.45887 6.72234 0
M  V30 5768 H 557.449 -4.57477 6.31138 0
M  V30 5769 N 561.678 -1.56367 -0.196722 0
M  V30 5770 C 562.608 -1.97442 -1.24655 0
M  V30 5771 C 563.589 -0.846147 -1.47561 0
M  V30 5772 O 564.774 -1.11035 -1.59326 0
M  V30 5773 C 561.904 -2.31253 -2.59112 0
M  V30 5774 C 560.858 -3.46804 -2.50821 0
M  V30 5775 C 560.184 -3.66286 -3.89536 0
M  V30 5776 C 561.484 -4.8104 -2.03465 0
M  V30 5777 H 563.178 -2.85388 -0.905216 0
M  V30 5778 H 560.724 -1.37304 -0.434002 0
M  V30 5779 H 562.677 -2.58583 -3.32736 0
M  V30 5780 H 561.401 -1.40188 -2.94983 0
M  V30 5781 H 560.06 -3.19563 -1.79653 0
M  V30 5782 H 559.708 -2.72555 -4.22756 0
M  V30 5783 H 559.408 -4.4402 -3.84864 0
M  V30 5784 H 560.932 -3.9599 -4.64784 0
M  V30 5785 H 562.346 -5.07411 -2.66846 0
M  V30 5786 H 560.743 -5.62232 -2.09798 0
M  V30 5787 H 561.813 -4.74732 -0.98781 0
M  V30 5788 N 563.156 0.464375 -1.50603 0
M  V30 5789 C 564.089 1.58052 -1.64605 0
M  V30 5790 C 565.067 1.54914 -0.494016 0
M  V30 5791 O 566.251 1.74438 -0.714393 0
M  V30 5792 C 563.378 2.96634 -1.63481 0
M  V30 5793 C 562.424 3.17901 -2.84325 0
M  V30 5794 S 563.257 2.97083 -4.45536 0
M  V30 5795 C 564.413 4.37994 -4.47115 0
M  V30 5796 H 564.646 1.45937 -2.59017 0
M  V30 5797 H 562.179 0.652189 -1.39949 0
M  V30 5798 H 564.137 3.76527 -1.63517 0
M  V30 5799 H 562.798 3.06134 -0.702928 0
M  V30 5800 H 561.991 4.19158 -2.79862 0
M  V30 5801 H 561.593 2.45792 -2.81891 0
M  V30 5802 H 563.885 5.30743 -4.21091 0
M  V30 5803 H 564.828 4.47499 -5.48772 0
M  V30 5804 H 565.236 4.20386 -3.76743 0
M  V30 5805 N 564.634 1.40294 0.718013 0
M  V30 5806 C 565.544 1.42678 1.86226 0
M  V30 5807 C 566.56 0.319655 1.71039 0
M  V30 5808 O 567.736 0.563852 1.93346 0
M  V30 5809 C 564.801 1.2852 3.21999 0
M  V30 5810 C 563.862 2.49354 3.49458 0
M  V30 5811 C 563.095 2.35863 4.78753 0
M  V30 5812 O 563.318 1.37114 5.53675 0
M  V30 5813 O 562.252 3.25189 5.06494 0
M  V30 5814 H 566.078 2.39167 1.87171 0
M  V30 5815 H 563.663 1.2159 0.868112 0
M  V30 5816 H 565.545 1.22824 4.03103 0
M  V30 5817 H 564.22 0.351359 3.21787 0
M  V30 5818 H 563.127 2.60628 2.68373 0
M  V30 5819 H 564.46 3.41491 3.54464 0
M  V30 5820 N 566.112 -0.949982 1.2575 0
M  V30 5821 C 567.389 -1.6718 1.01539 0
M  V30 5822 C 567.769 -2.06095 -0.456942 0
M  V30 5823 O 567.117 -1.77792 -1.43534 0
M  V30 5824 C 567.327 -2.8906 1.95564 0
M  V30 5825 C 568.675 -3.60909 2.23673 0
M  V30 5826 O 569.699 -2.9915 1.9336 0
M  V30 5827 O 568.558 -4.72127 2.75243 0
M  V30 5828 H 565.652 -0.731697 0.385419 0
M  V30 5829 H 568.198 -1.00249 1.36924 0
M  V30 5830 H 566.97 -2.57128 2.94959 0
M  V30 5831 H 566.593 -3.63719 1.60605 0
M  V30 5832 N 567.59 -1.07411 -1.15328 0
M  V30 5833 C 568.83 -0.807011 -1.87794 0
M  V30 5834 C 569.194 0.654987 -1.80482 0
M  V30 5835 O 570.395 1.03716 -2.47985 0
M  V30 5836 C 568.666 -1.30198 -3.32841 0
M  V30 5837 S 570.225 -1.16564 -4.23034 0
M  V30 5838 H 567.043 -0.292429 -0.648079 0
M  V30 5839 H 569.645 -1.37334 -1.39139 0
M  V30 5840 H 568.349 -2.3607 -3.35707 0
M  V30 5841 H 567.88 -0.730881 -3.86551 0
M  V30 5842 H 569.895 -0.103557 -4.96092 0
M  V30 5843 N 569.068 1.32177 -0.85831 0
M  V30 5844 C 570.314 1.97813 -0.47346 0
M  V30 5845 C 570.669 1.66674 0.961122 0
M  V30 5846 O 569.962 0.94657 1.66585 0
M  V30 5847 C 570.156 3.51372 -0.653658 0
M  V30 5848 C 569.985 3.97433 -2.1042 0
M  V30 5849 C 568.755 4.24338 -2.74345 0
M  V30 5850 C 570.953 4.12233 -3.0752 0
M  V30 5851 N 568.935 4.56672 -4.10272 0
M  V30 5852 C 570.306 4.48146 -4.28445 0
M  V30 5853 C 572.361 3.94577 -3.03667 0
M  V30 5854 C 571.064 4.68246 -5.4602 0
M  V30 5855 C 573.09 4.15864 -4.20489 0
M  V30 5856 C 572.452 4.52098 -5.40173 0
M  V30 5857 H 568.551 0.749808 -0.222061 0
M  V30 5858 H 571.135 1.59927 -1.11047 0
M  V30 5859 H 569.306 3.88372 -0.0463267 0
M  V30 5860 H 571.038 4.03998 -0.238343 0
M  V30 5861 H 567.793 4.16544 -2.25362 0
M  V30 5862 H 568.217 4.77019 -4.80398 0
M  V30 5863 H 572.859 3.65662 -2.12252 0
M  V30 5864 H 570.577 4.96014 -6.37962 0
M  V30 5865 H 574.163 4.03702 -4.18947 0
M  V30 5866 H 573.043 4.68238 -6.29065 0
M  V30 5867 N 570.547 0.616602 1.45037 0
M  V30 5868 C 571.495 -0.109318 2.32343 0
M  V30 5869 C 572.489 -0.850543 1.465 0
M  V30 5870 O 573.695 -0.765088 1.62931 0
M  V30 5871 H 570.07 -0.0541091 0.750051 0
M  V30 5872 H 572.041 0.645326 2.91338 0
M  V30 5873 C 570.79 -1.0872 3.30266 0
M  V30 5874 H 570.113 -0.526267 3.96321 0
M  V30 5875 H 571.553 -1.56489 3.94065 0
M  V30 5876 C 570.012 -2.16525 2.58105 0
M  V30 5877 O 570.542 -3.244 2.36913 0
M  V30 5878 N 568.748 -1.92057 2.18088 0
M  V30 5879 H 568.295 -1.04337 2.35524 0
M  V30 5880 H 568.253 -2.64391 1.70131 0
M  V30 5881 N 572.025 -1.5352 0.356285 0
M  V30 5882 C 573.436 -1.86282 -0.12492 0
M  V30 5883 C 573.787 -1.27717 -1.48939 0
M  V30 5884 O 572.912 -0.595614 -2.08042 0
M  V30 5885 C 573.507 -3.37995 -0.23345 0
M  V30 5886 C 572.066 -3.70588 -0.658899 0
M  V30 5887 C 571.213 -2.76581 0.199596 0
M  V30 5888 H 574.164 -1.47901 0.575423 0
M  V30 5889 H 574.185 -3.65475 -1.0587 0
M  V30 5890 H 573.697 -3.8059 0.759776 0
M  V30 5891 H 571.798 -3.33544 -1.66069 0
M  V30 5892 H 571.911 -4.77076 -0.439957 0
M  V30 5893 H 570.275 -2.52552 -0.330076 0
M  V30 5894 H 571.058 -3.22008 1.19019 0
M  V30 5895 N 573.503 -0.0852151 -1.57369 0
M  V30 5896 C 574.78 0.622534 -1.85429 0
M  V30 5897 C 575.16 1.86962 -0.980229 0
M  V30 5898 O 574.508 2.28445 -0.0500219 0
M  V30 5899 C 574.718 0.947374 -3.35896 0
M  V30 5900 C 576.066 1.31509 -4.03721 0
M  V30 5901 O 577.09 1.03869 -3.40719 0
M  V30 5902 O 575.949 1.83231 -5.14868 0
M  V30 5903 H 573.043 0.310513 -0.766492 0
M  V30 5904 H 575.589 -0.117164 -1.69295 0
M  V30 5905 H 574.361 0.0622264 -3.91251 0
M  V30 5906 H 573.984 1.74338 -3.5734 0
M  V30 5907 N 574.981 1.5647 0.188427 0
M  V30 5908 C 576.392 1.70864 0.752494 0
M  V30 5909 C 576.743 0.692905 1.83557 0
M  V30 5910 O 575.868 -0.149307 2.15884 0
M  V30 5911 C 576.463 3.09789 1.37173 0
M  V30 5912 C 575.022 3.25925 1.88281 0
M  V30 5913 C 574.169 2.66817 0.755259 0
M  V30 5914 H 577.12 1.58657 -0.0367408 0
M  V30 5915 H 577.141 3.07489 2.24122 0
M  V30 5916 H 576.653 3.83693 0.583219 0
M  V30 5917 H 574.754 2.56948 2.6983 0
M  V30 5918 H 574.867 4.33498 2.04001 0
M  V30 5919 H 573.231 2.2617 1.17128 0
M  V30 5920 H 574.014 3.43294 -0.0211237 0
M  V30 5921 N 576.459 -0.456382 1.50847 0
M  V30 5922 C 577.409 -1.55045 1.67168 0
M  V30 5923 C 578.393 -1.52061 0.525958 0
M  V30 5924 O 579.585 -1.58836 0.781036 0
M  V30 5925 C 576.714 -2.93386 1.78268 0
M  V30 5926 C 575.8 -3.01198 2.98564 0
M  V30 5927 N 576.191 -2.78792 4.22029 0
M  V30 5928 C 574.489 -3.32346 2.97426 0
M  V30 5929 C 575.19 -2.91953 5.03128 0
M  V30 5930 N 574.166 -3.22797 4.37382 0
M  V30 5931 H 577.968 -1.36444 2.60308 0
M  V30 5932 H 575.482 -0.663375 1.48233 0
M  V30 5933 H 577.479 -3.72071 1.88067 0
M  V30 5934 H 576.139 -3.13022 0.862965 0
M  V30 5935 H 577.15 -2.54087 4.51287 0
M  V30 5936 H 573.827 -3.57877 2.15012 0
M  V30 5937 H 575.217 -2.78745 6.11351 0
M  V30 5938 N 577.937 -1.40673 -0.710563 0
M  V30 5939 C 579.162 -1.42741 -1.50465 0
M  V30 5940 C 579.587 -0.0302116 -1.88076 0
M  V30 5941 O 578.945 0.962945 -1.53613 0
M  V30 5942 C 578.993 -2.32873 -2.75322 0
M  V30 5943 O 578.097 -1.77544 -3.72226 0
M  V30 5944 H 577.438 -0.485056 -0.45345 0
M  V30 5945 H 579.968 -1.84961 -0.874681 0
M  V30 5946 H 579.978 -2.48233 -3.23797 0
M  V30 5947 H 578.653 -3.34401 -2.47283 0
M  V30 5948 H 577.23 -1.71556 -3.31093 0
M  V30 5949 N 579.415 0.9433 -1.26252 0
M  V30 5950 C 580.831 1.21644 -1.03319 0
M  V30 5951 C 581.031 2.0003 0.242983 0
M  V30 5952 O 580.087 2.33838 0.952688 0
M  V30 5953 C 581.4 1.97978 -2.2633 0
M  V30 5954 C 582.948 2.10978 -2.31209 0
M  V30 5955 C 583.423 2.90713 -3.53907 0
M  V30 5956 N 584.914 2.98287 -3.54371 0
M  V30 5957 C 585.649 3.60406 -4.45976 0
M  V30 5958 N 585.145 4.24043 -5.47868 0
M  V30 5959 N 586.938 3.57658 -4.33633 0
M  V30 5960 H 579.089 0.419221 -2.08222 0
M  V30 5961 H 581.352 0.247995 -0.914988 0
M  V30 5962 H 581.058 1.47788 -3.19142 0
M  V30 5963 H 580.932 2.9865 -2.30408 0
M  V30 5964 H 583.319 2.6036 -1.38913 0
M  V30 5965 H 583.4 1.09575 -2.31143 0
M  V30 5966 H 583.044 2.42018 -4.46531 0
M  V30 5967 H 582.974 3.92367 -3.5122 0
M  V30 5968 H 585.465 2.53044 -2.80673 0
M  V30 5969 H 585.778 4.69334 -6.13959 0
M  V30 5970 H 584.123 4.22637 -5.51728 0
M  V30 5971 H 587.314 3.07134 -3.53251 0
M  V30 5972 H 587.487 4.05782 -5.05218 0
M  V30 5973 N 580.893 1.08022 1.14757 0
M  V30 5974 C 582.304 0.829144 1.67279 0
M  V30 5975 C 582.655 -0.644721 1.85305 0
M  V30 5976 O 581.78 -1.49838 1.56133 0
M  V30 5977 C 582.375 1.49855 3.03857 0
M  V30 5978 C 580.934 1.29482 3.53428 0
M  V30 5979 C 580.081 1.56386 2.28995 0
M  V30 5980 H 583.032 1.24134 0.988762 0
M  V30 5981 H 583.053 0.923572 3.69121 0
M  V30 5982 H 582.565 2.57123 2.90705 0
M  V30 5983 H 580.666 0.242669 3.71809 0
M  V30 5984 H 580.779 2.01974 4.34446 0
M  V30 5985 H 579.143 0.985217 2.34874 0
M  V30 5986 H 579.926 2.64851 2.18423 0
M  V30 5987 N 582.371 -1.3172 0.865308 0
M  V30 5988 C 583.596 -2.01591 0.487415 0
M  V30 5989 C 584.021 -1.6455 -0.911307 0
M  V30 5990 O 583.379 -0.851689 -1.6005 0
M  V30 5991 C 583.427 -3.54759 0.646401 0
M  V30 5992 O 582.531 -4.11185 -0.316284 0
M  V30 5993 H 581.872 -0.634884 0.194468 0
M  V30 5994 H 584.402 -1.68024 1.16744 0
M  V30 5995 H 584.412 -4.04438 0.537932 0
M  V30 5996 H 583.087 -3.8106 1.66632 0
M  V30 5997 H 581.664 -3.72543 -0.163162 0
M  V30 5998 N 583.85 -0.624285 -1.44708 0
M  V30 5999 C 585.096 -0.126051 -2.02107 0
M  V30 6000 C 585.425 1.2496 -1.49048 0
M  V30 6001 O 584.68 1.84163 -0.662005 0
M  V30 6002 C 584.979 -0.0546353 -3.57358 0
M  V30 6003 C 584.644 -1.36815 -4.29642 0
M  V30 6004 C 583.307 -1.72792 -4.49106 0
M  V30 6005 C 585.659 -2.23549 -4.70824 0
M  V30 6006 C 582.986 -2.95222 -5.07012 0
M  V30 6007 C 585.339 -3.45243 -5.30085 0
M  V30 6008 C 584.003 -3.81452 -5.47769 0
M  V30 6009 H 583.273 -0.0461252 -0.739563 0
M  V30 6010 H 585.92 -0.809236 -1.73562 0
M  V30 6011 H 584.225 0.711891 -3.85278 0
M  V30 6012 H 585.922 0.347282 -3.99493 0
M  V30 6013 H 582.512 -1.07817 -4.14817 0
M  V30 6014 H 586.696 -1.9705 -4.55505 0
M  V30 6015 H 581.952 -3.23361 -5.18891 0
M  V30 6016 H 586.125 -4.12689 -5.60946 0
M  V30 6017 H 583.753 -4.76403 -5.92405 0
M  V30 6018 N 585.328 1.53329 -0.364422 0
M  V30 6019 C 586.556 2.05657 0.226424 0
M  V30 6020 C 586.971 1.23801 1.42544 0
M  V30 6021 O 586.328 0.27839 1.80364 0
M  V30 6022 C 586.379 3.56125 0.621056 0
M  V30 6023 O 586.1 4.34879 -0.530304 0
M  V30 6024 C 587.601 4.24706 1.27041 0
M  V30 6025 H 584.821 0.669806 0.0400056 0
M  V30 6026 H 587.365 1.97714 -0.522456 0
M  V30 6027 H 585.52 3.64223 1.31985 0
M  V30 6028 H 585.934 5.24073 -0.211546 0
M  V30 6029 H 587.408 5.3131 1.49711 0
M  V30 6030 H 587.885 3.78354 2.23036 0
M  V30 6031 H 588.491 4.20858 0.613079 0
M  V30 6032 N 586.806 0.0935595 1.57322 0
M  V30 6033 C 587.754 -0.883457 2.15169 0
M  V30 6034 C 588.748 -1.29324 1.09415 0
M  V30 6035 O 589.954 -1.26795 1.27762 0
M  V30 6036 H 586.329 -0.302923 0.688289 0
M  V30 6037 H 588.3 -0.370845 2.96087 0
M  V30 6038 C 587.049 -2.13345 2.74552 0
M  V30 6039 H 586.372 -1.82702 3.55612 0
M  V30 6040 H 587.812 -2.7977 3.18598 0
M  V30 6041 C 586.271 -2.90646 1.70371 0
M  V30 6042 O 586.801 -3.85133 1.14173 0
M  V30 6043 N 585.007 -2.54157 1.40899 0
M  V30 6044 H 584.554 -1.77391 1.86789 0
M  V30 6045 H 584.512 -3.06178 0.714301 0
M  V30 6046 N 588.284 -1.56567 -0.180126 0
M  V30 6047 C 589.533 -1.80685 -0.896426 0
M  V30 6048 C 589.846 -0.669335 -1.83791 0
M  V30 6049 O 591.052 -0.795209 -2.59593 0
M  V30 6050 C 589.508 -3.20132 -1.6445 0
M  V30 6051 C 589.116 -4.41727 -0.747088 0
M  V30 6052 C 590.86 -3.53549 -2.34955 0
M  V30 6053 C 588.767 -5.72195 -1.49489 0
M  V30 6054 H 587.697 -0.673758 -0.338477 0
M  V30 6055 H 590.348 -1.8289 -0.149467 0
M  V30 6056 H 588.73 -3.12218 -2.43589 0
M  V30 6057 H 589.904 -4.608 0.00671129 0
M  V30 6058 H 588.219 -4.16122 -0.152134 0
M  V30 6059 H 590.816 -4.48267 -2.91481 0
M  V30 6060 H 591.159 -2.78006 -3.09868 0
M  V30 6061 H 591.692 -3.62976 -1.62768 0
M  V30 6062 H 588.431 -6.50743 -0.788251 0
M  V30 6063 H 587.951 -5.57115 -2.22224 0
M  V30 6064 H 589.63 -6.1384 -2.04472 0
M  V30 6065 N 589.762 0.448376 -1.51087 0
M  V30 6066 C 590.692 1.55102 -1.74544 0
M  V30 6067 C 591.673 1.59357 -0.594932 0
M  V30 6068 O 592.858 1.75261 -0.836491 0
M  V30 6069 C 589.988 2.93268 -1.86041 0
M  V30 6070 C 588.942 3.03877 -3.01402 0
M  V30 6071 C 588.268 4.43914 -2.98068 0
M  V30 6072 C 589.568 2.7898 -4.41551 0
M  V30 6073 H 591.262 1.35724 -2.66869 0
M  V30 6074 H 588.808 0.651498 -1.28419 0
M  V30 6075 H 590.761 3.70356 -2.01034 0
M  V30 6076 H 589.485 3.13853 -0.903548 0
M  V30 6077 H 588.144 2.29227 -2.86096 0
M  V30 6078 H 587.792 4.6145 -2.00182 0
M  V30 6079 H 587.492 4.51944 -3.75527 0
M  V30 6080 H 589.016 5.22991 -3.1514 0
M  V30 6081 H 590.43 3.45805 -4.57265 0
M  V30 6082 H 588.827 2.98431 -5.20633 0
M  V30 6083 H 589.897 1.74663 -4.5235 0
M  V30 6084 N 591.24 1.41047 0.703093 0
M  V30 6085 C 592.517 1.30493 1.45708 0
M  V30 6086 C 592.897 -0.0709892 2.10981 0
M  V30 6087 O 592.245 -1.08471 2.01113 0
M  V30 6088 C 592.455 2.45287 2.48265 0
M  V30 6089 C 593.803 2.86104 3.13735 0
M  V30 6090 O 594.827 2.44971 2.58587 0
M  V30 6091 O 593.686 3.57206 4.13601 0
M  V30 6092 H 590.78 0.513144 0.648546 0
M  V30 6093 H 593.326 1.52995 0.734208 0
M  V30 6094 H 592.098 3.37135 1.98635 0
M  V30 6095 H 591.721 2.24622 3.28071 0
M  V30 6096 N 592.718 -0.936591 1.26751 0
M  V30 6097 C 593.65 -2.03991 1.045 0
M  V30 6098 C 594.663 -1.628 0.00394261 0
M  V30 6099 O 595.852 -1.76817 0.244526 0
M  V30 6100 C 592.952 -3.34218 0.561403 0
M  V30 6101 C 592.125 -4.04151 1.67274 0
M  V30 6102 C 591.184 -5.12651 1.1864 0
M  V30 6103 O 590.21 -5.37104 1.88437 0
M  V30 6104 N 591.412 -5.80488 0.037278 0
M  V30 6105 H 594.177 -2.23644 1.99508 0
M  V30 6106 H 591.738 -1.10638 1.18198 0
M  V30 6107 H 593.73 -4.04101 0.220136 0
M  V30 6108 H 592.3 -3.11203 -0.295211 0
M  V30 6109 H 591.52 -3.28121 2.18472 0
M  V30 6110 H 592.808 -4.47626 2.41885 0
M  V30 6111 H 592.206 -5.63064 -0.545494 0
M  V30 6112 H 590.763 -6.5134 -0.244877 0
M  V30 6113 N 594.196 -1.08629 -1.14182 0
M  V30 6114 C 595.126 -0.740003 -2.21464 0
M  V30 6115 C 596.107 0.278591 -1.67803 0
M  V30 6116 O 597.292 0.148461 -1.93632 0
M  V30 6117 C 594.422 -0.150952 -3.46972 0
M  V30 6118 C 593.376 -1.09815 -4.13672 0
M  V30 6119 C 592.702 -0.3712 -5.3341 0
M  V30 6120 C 594.002 -2.43722 -4.61949 0
M  V30 6121 H 595.696 -1.63697 -2.50686 0
M  V30 6122 H 593.242 -0.788526 -1.20492 0
M  V30 6123 H 595.195 0.103325 -4.21273 0
M  V30 6124 H 593.919 0.781164 -3.1712 0
M  V30 6125 H 592.578 -1.33756 -3.41328 0
M  V30 6126 H 592.226 0.564792 -4.99819 0
M  V30 6127 H 591.926 -1.00267 -5.78982 0
M  V30 6128 H 593.45 -0.12503 -6.10472 0
M  V30 6129 H 594.864 -2.24034 -5.27714 0
M  V30 6130 H 593.261 -3.02582 -5.18232 0
M  V30 6131 H 594.331 -3.05082 -3.76899 0
M  V30 6132 N 595.674 1.31259 -0.872281 0
M  V30 6133 C 596.902 2.00795 -0.498907 0
M  V30 6134 C 597.317 1.65464 0.909238 0
M  V30 6135 O 596.674 0.885073 1.59602 0
M  V30 6136 C 596.725 3.55625 -0.649092 0
M  V30 6137 O 596.446 3.89692 -2.00179 0
M  V30 6138 C 597.947 4.42434 -0.277034 0
M  V30 6139 H 595.167 0.642299 -0.194145 0
M  V30 6140 H 597.711 1.67438 -1.17408 0
M  V30 6141 H 595.866 3.87394 -0.0214402 0
M  V30 6142 H 596.28 4.84407 -2.01122 0
M  V30 6143 H 597.754 5.50299 -0.433064 0
M  V30 6144 H 598.231 4.32146 0.783989 0
M  V30 6145 H 598.837 4.16086 -0.880483 0
M  V30 6146 N 597.152 0.631951 1.44375 0
M  V30 6147 C 598.38 0.143867 2.06399 0
M  V30 6148 C 598.795 -1.18188 1.47231 0
M  V30 6149 O 598.152 -1.72511 0.595498 0
M  V30 6150 C 598.203 0.0238253 3.61492 0
M  V30 6151 O 597.924 1.29715 4.18456 0
M  V30 6152 C 599.425 -0.492856 4.40552 0
M  V30 6153 H 596.645 0.0800542 0.666207 0
M  V30 6154 H 599.189 0.866586 1.85231 0
M  V30 6155 H 597.344 -0.649338 3.81919 0
M  V30 6156 H 597.758 1.14252 5.11905 0
M  V30 6157 H 599.232 -0.525861 5.49489 0
M  V30 6158 H 599.709 -1.52006 4.12057 0
M  V30 6159 H 600.315 0.147085 4.25046 0
M  V30 6160 N 598.631 -1.53133 0.372548 0
M  V30 6161 C 599.88 -2.00539 -0.216115 0
M  V30 6162 C 600.193 -1.26374 -1.49295 0
M  V30 6163 O 601.399 -1.64404 -2.16064 0
M  V30 6164 C 599.855 -3.57253 -0.435678 0
M  V30 6165 C 599.463 -4.40302 0.82693 0
M  V30 6166 C 601.207 -4.12995 -0.981618 0
M  V30 6167 C 599.114 -5.88583 0.576567 0
M  V30 6168 H 598.044 -0.749246 -0.084536 0
M  V30 6169 H 600.695 -1.76771 0.492364 0
M  V30 6170 H 599.077 -3.77202 -1.20559 0
M  V30 6171 H 600.251 -4.32124 1.60017 0
M  V30 6172 H 598.566 -3.95699 1.29659 0
M  V30 6173 H 601.163 -5.21418 -1.18436 0
M  V30 6174 H 601.506 -3.68027 -1.94581 0
M  V30 6175 H 602.039 -3.96871 -0.271696 0
M  V30 6176 H 598.778 -6.37841 1.51128 0
M  V30 6177 H 598.298 -5.99592 -0.158047 0
M  V30 6178 H 599.977 -6.46676 0.204722 0
M  V30 6179 N 600.109 -0.101901 -1.5727 0
M  V30 6180 C 601.019 0.868647 -2.17926 0
M  V30 6181 C 602.035 1.30527 -1.1506 0
M  V30 6182 O 603.211 1.37178 -1.47459 0
M  V30 6183 C 600.276 2.10727 -2.75309 0
M  V30 6184 C 599.337 1.7242 -3.93154 0
M  V30 6185 C 598.57 2.90377 -4.47791 0
M  V30 6186 O 598.793 4.05305 -4.01353 0
M  V30 6187 O 597.727 2.6845 -5.38719 0
M  V30 6188 H 601.553 0.382544 -3.01281 0
M  V30 6189 H 599.138 0.122812 -1.48894 0
M  V30 6190 H 601.02 2.83303 -3.11958 0
M  V30 6191 H 599.695 2.58376 -1.94996 0
M  V30 6192 H 598.602 0.970039 -3.61305 0
M  V30 6193 H 599.935 1.29528 -4.74851 0
M  V30 6194 N 601.587 1.56661 0.17182 0
M  V30 6195 C 602.497 1.99604 1.2327 0
M  V30 6196 C 603.513 0.907333 1.4847 0
M  V30 6197 O 604.689 1.21492 1.60629 0
M  V30 6198 C 601.754 2.34685 2.55194 0
M  V30 6199 C 600.815 3.57381 2.3786 0
M  V30 6200 C 600.048 3.90779 3.63494 0
M  V30 6201 O 600.271 3.25152 4.6865 0
M  V30 6202 O 599.205 4.84129 3.57634 0
M  V30 6203 H 603.031 2.90114 0.898192 0
M  V30 6204 H 600.616 1.44522 0.378647 0
M  V30 6205 H 602.498 2.5822 3.33017 0
M  V30 6206 H 601.173 1.47336 2.88225 0
M  V30 6207 H 600.08 3.39064 1.5807 0
M  V30 6208 H 601.413 4.45268 2.09754 0
M  V30 6209 N 603.065 -0.440357 1.51323 0
M  V30 6210 C 604.29 -1.21716 1.67928 0
M  V30 6211 C 604.715 -1.84328 0.374826 0
M  V30 6212 O 604.073 -1.68675 -0.664706 0
M  V30 6213 C 604.121 -2.27914 2.79442 0
M  V30 6214 O 603.225 -3.33325 2.42834 0
M  V30 6215 H 602.566 -0.35674 0.560029 0
M  V30 6216 H 605.096 -0.520417 1.97871 0
M  V30 6217 H 605.106 -2.72746 3.03436 0
M  V30 6218 H 603.781 -1.8172 3.741 0
M  V30 6219 H 602.358 -2.9399 2.294 0
M  V30 6220 N 604.543 -1.41418 -0.695603 0
M  V30 6221 C 605.791 -1.40496 -1.45277 0
M  V30 6222 C 606.112 -0.0149538 -1.94994 0
M  V30 6223 O 605.382 0.9432 -1.71699 0
M  V30 6224 H 603.962 -0.517147 -0.539044 0
M  V30 6225 H 606.624 -1.76656 -0.823321 0
M  V30 6226 H 605.72 -2.09214 -2.31595 0
M  V30 6227 N 606.021 0.929856 -1.27246 0
M  V30 6228 C 607.268 1.67731 -1.13457 0
M  V30 6229 C 607.596 1.9185 0.319998 0
M  V30 6230 O 606.851 1.50524 1.25064 0
M  V30 6231 C 607.15 3.05116 -1.86115 0
M  V30 6232 C 606.816 3.00715 -3.35978 0
M  V30 6233 C 605.478 2.99222 -3.76855 0
M  V30 6234 C 607.83 2.92168 -4.3161 0
M  V30 6235 C 605.158 2.86962 -5.11732 0
M  V30 6236 C 607.51 2.81449 -5.66542 0
M  V30 6237 C 606.174 2.78305 -6.06715 0
M  V30 6238 H 605.444 0.613772 -0.415168 0
M  V30 6239 H 608.091 1.08456 -1.57827 0
M  V30 6240 H 606.396 3.68083 -1.34246 0
M  V30 6241 H 608.093 3.61822 -1.72876 0
M  V30 6242 H 604.683 3.02664 -3.03468 0
M  V30 6243 H 608.867 2.92421 -4.01003 0
M  V30 6244 H 604.123 2.82913 -5.42006 0
M  V30 6245 H 608.297 2.738 -6.40317 0
M  V30 6246 H 605.924 2.68561 -7.11181 0
M  V30 6247 N 607.499 1.09233 1.13605 0
M  V30 6248 C 608.746 0.827159 1.84836 0
M  V30 6249 C 609.074 -0.647199 1.83416 0
M  V30 6250 O 608.329 -1.49228 1.26608 0
M  V30 6251 C 608.628 1.305 3.32723 0
M  V30 6252 C 608.294 2.78864 3.54325 0
M  V30 6253 C 606.956 3.19382 3.59928 0
M  V30 6254 C 609.308 3.74532 3.62457 0
M  V30 6255 C 606.636 4.54346 3.71196 0
M  V30 6256 C 608.988 5.09283 3.75252 0
M  V30 6257 C 607.652 5.49394 3.79108 0
M  V30 6258 H 606.922 0.302679 0.676363 0
M  V30 6259 H 609.569 1.36676 1.34134 0
M  V30 6260 H 607.874 0.68517 3.85762 0
M  V30 6261 H 609.571 1.07648 3.86281 0
M  V30 6262 H 606.161 2.46507 3.50617 0
M  V30 6263 H 610.345 3.44343 3.57409 0
M  V30 6264 H 605.601 4.84864 3.72447 0
M  V30 6265 H 609.775 5.83269 3.80487 0
M  V30 6266 H 607.402 6.5397 3.87591 0
M  V30 6267 N 608.977 -1.30795 0.87923 0
M  V30 6268 C 609.887 -2.32041 0.345565 0
M  V30 6269 C 610.903 -1.65103 -0.549265 0
M  V30 6270 O 612.079 -1.9645 -0.443763 0
M  V30 6271 C 609.144 -3.43944 -0.436245 0
M  V30 6272 C 608.205 -4.26521 0.48765 0
M  V30 6273 C 607.438 -5.33081 -0.256943 0
M  V30 6274 O 607.661 -5.50762 -1.48381 0
M  V30 6275 O 606.595 -6.00635 0.389985 0
M  V30 6276 H 610.421 -2.79627 1.18501 0
M  V30 6277 H 608.006 -1.3486 0.642885 0
M  V30 6278 H 609.888 -4.12128 -0.879119 0
M  V30 6279 H 608.563 -2.98504 -1.25208 0
M  V30 6280 H 607.47 -3.61057 0.979216 0
M  V30 6281 H 608.803 -4.75551 1.26933 0
M  V30 6282 N 610.455 -0.639598 -1.44038 0
M  V30 6283 C 611.388 0.109736 -2.27936 0
M  V30 6284 C 612.366 0.843095 -1.39035 0
M  V30 6285 O 613.55 0.845456 -1.68476 0
M  V30 6286 C 610.677 1.16173 -3.18153 0
M  V30 6287 C 609.723 0.527954 -4.2322 0
M  V30 6288 S 610.556 -0.688318 -5.31058 0
M  V30 6289 C 611.712 0.363481 -6.24844 0
M  V30 6290 H 611.945 -0.601986 -2.91142 0
M  V30 6291 H 609.478 -0.42802 -1.48349 0
M  V30 6292 H 611.436 1.76372 -3.7068 0
M  V30 6293 H 610.097 1.84569 -2.54151 0
M  V30 6294 H 609.29 1.32054 -4.86393 0
M  V30 6295 H 608.892 0.000396444 -3.74 0
M  V30 6296 H 611.184 1.23362 -6.66174 0
M  V30 6297 H 612.127 -0.23288 -7.07717 0
M  V30 6298 H 612.535 0.693179 -5.60228 0
M  V30 6299 N 611.933 1.52934 -0.380664 0
M  V30 6300 C 613.344 1.86457 0.0952684 0
M  V30 6301 C 613.695 1.3007 1.46889 0
M  V30 6302 O 612.82 0.628636 2.07068 0
M  V30 6303 C 613.415 3.38323 0.179648 0
M  V30 6304 C 611.974 3.71589 0.599858 0
M  V30 6305 C 611.121 2.76228 -0.243572 0
M  V30 6306 H 614.072 1.46966 -0.59888 0
M  V30 6307 H 614.093 3.67113 1.00042 0
M  V30 6308 H 613.605 3.79333 -0.820228 0
M  V30 6309 H 611.706 3.36144 1.60742 0
M  V30 6310 H 611.819 4.77715 0.364003 0
M  V30 6311 H 610.183 2.53045 0.289855 0
M  V30 6312 H 610.966 3.20074 -1.24127 0
M  V30 6313 N 613.412 0.11024 1.57214 0
M  V30 6314 C 614.359 -0.843195 2.14846 0
M  V30 6315 C 615.329 -1.26954 1.07107 0
M  V30 6316 O 616.514 -1.34861 1.34971 0
M  V30 6317 C 613.654 -2.09123 2.74521 0
M  V30 6318 C 612.767 -1.71404 3.96541 0
M  V30 6319 C 611.902 -2.91107 4.44331 0
M  V30 6320 C 610.941 -2.49586 5.58903 0
M  V30 6321 N 610.078 -3.62175 6.01477 0
M  V30 6322 H 614.918 -0.344886 2.95998 0
M  V30 6323 H 612.455 -0.15855 1.46243 0
M  V30 6324 H 614.413 -2.82234 3.07246 0
M  V30 6325 H 613.043 -2.56427 1.96074 0
M  V30 6326 H 612.095 -0.88201 3.70033 0
M  V30 6327 H 613.407 -1.36884 4.7965 0
M  V30 6328 H 612.561 -3.72454 4.78919 0
M  V30 6329 H 611.3 -3.28848 3.60153 0
M  V30 6330 H 610.305 -1.6667 5.23929 0
M  V30 6331 H 611.53 -2.12973 6.4484 0
M  V30 6332 H 609.476 -3.99605 5.20242 0
M  V30 6333 H 609.393 -3.3155 6.79419 0
M  V30 6334 H 610.661 -4.43987 6.407 0
M  V30 6335 N 614.89 -1.56749 -0.16351 0
M  V30 6336 C 616.167 -1.73321 -0.906599 0
M  V30 6337 C 616.547 -0.673779 -2.00059 0
M  V30 6338 O 615.895 0.310121 -2.26386 0
M  V30 6339 C 616.105 -3.168 -1.46419 0
M  V30 6340 C 617.453 -3.77993 -1.93407 0
M  V30 6341 O 618.477 -3.20127 -1.56196 0
M  V30 6342 O 617.336 -4.79615 -2.61976 0
M  V30 6343 H 614.43 -0.708073 -0.427272 0
M  V30 6344 H 616.976 -1.69029 -0.150727 0
M  V30 6345 H 615.748 -3.85396 -0.677189 0
M  V30 6346 H 615.371 -3.2545 -2.28403 0
M  V30 6347 N 616.368 0.432326 -1.51554 0
M  V30 6348 C 617.593 1.20824 -1.68571 0
M  V30 6349 C 618.018 1.84126 -0.384596 0
M  V30 6350 O 617.376 1.69025 0.655751 0
M  V30 6351 C 617.424 2.26429 -2.80646 0
M  V30 6352 O 616.528 3.32032 -2.44598 0
M  V30 6353 H 615.869 0.353765 -0.561913 0
M  V30 6354 H 618.399 0.509916 -1.98144 0
M  V30 6355 H 618.409 2.71133 -3.04878 0
M  V30 6356 H 617.084 1.79733 -3.75058 0
M  V30 6357 H 615.661 2.92769 -2.30956 0
M  V30 6358 N 617.846 1.41785 0.688094 0
M  V30 6359 C 619.093 1.41544 1.44816 0
M  V30 6360 C 619.421 0.0271746 1.94481 0
M  V30 6361 O 618.676 -0.962235 1.7041 0
M  V30 6362 C 618.975 2.37532 2.67046 0
M  V30 6363 C 618.641 3.84209 2.35996 0
M  V30 6364 C 617.303 4.24165 2.27239 0
M  V30 6365 C 619.655 4.76785 2.10536 0
M  V30 6366 C 616.983 5.54695 1.91128 0
M  V30 6367 C 619.335 6.07644 1.75931 0
M  V30 6368 C 617.999 6.46613 1.65675 0
M  V30 6369 H 617.269 0.517945 0.529919 0
M  V30 6370 H 619.916 1.74635 0.785797 0
M  V30 6371 H 618.221 1.9772 3.38251 0
M  V30 6372 H 619.918 2.34615 3.25203 0
M  V30 6373 H 616.508 3.52567 2.4371 0
M  V30 6374 H 620.692 4.46714 2.16242 0
M  V30 6375 H 615.948 5.83762 1.81746 0
M  V30 6376 H 620.122 6.78874 1.55252 0
M  V30 6377 H 617.749 7.47668 1.37463 0
M  V30 6378 N 619.324 -0.923095 1.27737 0
M  V30 6379 C 620.274 -2.01061 1.0751 0
M  V30 6380 C 621.258 -1.609 0.00165451 0
M  V30 6381 O 622.45 -1.75618 0.220724 0
M  V30 6382 C 619.579 -3.35467 0.729162 0
M  V30 6383 C 618.665 -3.82059 1.84098 0
M  V30 6384 N 619.056 -4.01115 3.08124 0
M  V30 6385 C 617.354 -4.11135 1.7287 0
M  V30 6386 C 618.055 -4.39989 3.80506 0
M  V30 6387 N 617.031 -4.47721 3.08297 0
M  V30 6388 H 620.833 -2.13832 2.01626 0
M  V30 6389 H 618.347 -1.11027 1.18519 0
M  V30 6390 H 620.344 -4.13049 0.565355 0
M  V30 6391 H 619.004 -3.24056 -0.204334 0
M  V30 6392 H 620.015 -3.87294 3.43836 0
M  V30 6393 H 616.692 -4.08412 0.866352 0
M  V30 6394 H 618.082 -4.62773 4.87125 0
M  V30 6395 N 620.802 -1.09834 -1.13024 0
M  V30 6396 C 622.042 -0.846664 -1.8604 0
M  V30 6397 C 622.406 0.616557 -1.81831 0
M  V30 6398 O 623.607 0.984329 -2.50129 0
M  V30 6399 C 621.878 -1.37228 -3.30005 0
M  V30 6400 S 623.437 -1.25511 -4.20467 0
M  V30 6401 H 620.255 -0.30611 -0.64173 0
M  V30 6402 H 622.857 -1.40255 -1.36194 0
M  V30 6403 H 621.561 -2.43138 -3.30624 0
M  V30 6404 H 621.092 -0.81271 -3.84914 0
M  V30 6405 H 623.107 -0.208762 -4.95761 0
M  V30 6406 N 622.28 1.30327 -0.886154 0
M  V30 6407 C 623.21 2.30549 -0.370028 0
M  V30 6408 C 624.191 1.61039 0.547751 0
M  V30 6409 O 625.376 1.8864 0.461353 0
M  V30 6410 C 622.506 3.44808 0.415275 0
M  V30 6411 C 621.46 4.26024 -0.41085 0
M  V30 6412 C 620.786 5.32347 0.501128 0
M  V30 6413 C 622.086 4.95433 -1.65359 0
M  V30 6414 H 623.78 2.73969 -1.20754 0
M  V30 6415 H 621.326 1.3171 -0.582097 0
M  V30 6416 H 623.279 4.13986 0.78699 0
M  V30 6417 H 622.003 3.00197 1.28644 0
M  V30 6418 H 620.662 3.58535 -0.764719 0
M  V30 6419 H 620.31 4.83982 1.37004 0
M  V30 6420 H 620.01 5.87581 -0.0478356 0
M  V30 6421 H 621.534 6.0438 0.869333 0
M  V30 6422 H 622.948 5.5712 -1.35239 0
M  V30 6423 H 621.345 5.60537 -2.14284 0
M  V30 6424 H 622.415 4.21493 -2.39733 0
M  V30 6425 N 623.758 0.647228 1.43697 0
M  V30 6426 C 624.69 -0.0866232 2.29036 0
M  V30 6427 C 625.703 -0.793051 1.42178 0
M  V30 6428 O 626.892 -0.651807 1.66174 0
M  V30 6429 C 623.992 -1.14552 3.18953 0
M  V30 6430 C 623.165 -0.518422 4.34317 0
M  V30 6431 C 622.224 -1.4734 5.05151 0
M  V30 6432 O 621.25 -0.984312 5.60625 0
M  V30 6433 N 622.452 -2.8075 5.08094 0
M  V30 6434 H 625.217 0.645834 2.92659 0
M  V30 6435 H 622.778 0.489567 1.54321 0
M  V30 6436 H 624.77 -1.78505 3.63205 0
M  V30 6437 H 623.34 -1.78001 2.56971 0
M  V30 6438 H 622.56 0.300079 3.93056 0
M  V30 6439 H 623.848 -0.080401 5.08736 0
M  V30 6440 H 623.246 -3.23052 4.64386 0
M  V30 6441 H 621.803 -3.40022 5.56083 0
M  V30 6442 N 625.236 -1.5273 0.388769 0
M  V30 6443 C 626.513 -1.93981 -0.251133 0
M  V30 6444 C 626.893 -1.32418 -1.64404 0
M  V30 6445 O 626.241 -0.492074 -2.23139 0
M  V30 6446 C 626.451 -3.47891 -0.27802 0
M  V30 6447 C 627.799 -4.21559 -0.507229 0
M  V30 6448 O 628.823 -3.54394 -0.358252 0
M  V30 6449 O 627.682 -5.40626 -0.799094 0
M  V30 6450 H 624.776 -0.812157 -0.15598 0
M  V30 6451 H 627.322 -1.63809 0.443237 0
M  V30 6452 H 626.094 -3.8503 0.697669 0
M  V30 6453 H 625.717 -3.84364 -1.01733 0
M  V30 6454 N 626.714 -0.118576 -1.57153 0
M  V30 6455 C 627.662 0.849114 -2.16547 0
M  V30 6456 C 628.656 1.27567 -1.11458 0
M  V30 6457 O 629.862 1.24746 -1.29763 0
M  V30 6458 H 626.237 0.291935 -0.693021 0
M  V30 6459 H 628.208 0.323693 -2.96639 0
M  V30 6460 C 626.957 2.08951 -2.77912 0
M  V30 6461 H 626.28 1.77021 -3.58474 0
M  V30 6462 H 627.72 2.74666 -3.23008 0
M  V30 6463 C 626.179 2.87899 -1.74974 0
M  V30 6464 O 626.709 3.83268 -1.20285 0
M  V30 6465 N 624.915 2.51884 -1.44924 0
M  V30 6466 H 624.462 1.74397 -1.89587 0
M  V30 6467 H 624.42 3.05003 -0.762921 0
M  V30 6468 N 628.193 1.56834 0.155195 0
M  V30 6469 C 629.439 1.84058 0.865687 0
M  V30 6470 C 629.794 0.701418 1.79159 0
M  V30 6471 O 629.087 -0.301162 1.89218 0
M  V30 6472 C 629.281 3.15239 1.68402 0
M  V30 6473 C 629.11 4.41807 0.838847 0
M  V30 6474 C 627.88 5.02744 0.507645 0
M  V30 6475 C 630.078 5.14009 0.172946 0
M  V30 6476 N 628.06 6.1289 -0.351978 0
M  V30 6477 C 629.431 6.17581 -0.547158 0
M  V30 6478 C 631.486 4.97814 0.0927721 0
M  V30 6479 C 630.189 7.06711 -1.33985 0
M  V30 6480 C 632.215 5.874 -0.686638 0
M  V30 6481 C 631.577 6.90447 -1.39505 0
M  V30 6482 H 627.676 0.724276 0.294871 0
M  V30 6483 H 630.26 1.94255 0.131583 0
M  V30 6484 H 628.431 3.06205 2.38942 0
M  V30 6485 H 630.163 3.304 2.33705 0
M  V30 6486 H 626.918 4.66064 0.841517 0
M  V30 6487 H 627.342 6.72577 -0.772573 0
M  V30 6488 H 631.984 4.18138 0.626112 0
M  V30 6489 H 629.702 7.8582 -1.88448 0
M  V30 6490 H 633.288 5.76938 -0.750555 0
M  V30 6491 H 632.168 7.58571 -1.98847 0
M  V30 6492 N 629.671 -0.424282 1.51781 0
M  V30 6493 C 630.618 -1.51591 1.74037 0
M  V30 6494 C 631.588 -1.55556 0.582358 0
M  V30 6495 O 632.773 -1.72364 0.818245 0
M  V30 6496 C 629.913 -2.89188 1.8832 0
M  V30 6497 C 629.026 -2.9465 3.1592 0
M  V30 6498 C 628.161 -4.23452 3.20721 0
M  V30 6499 C 627.2 -4.22831 4.42584 0
M  V30 6500 N 626.337 -5.43178 4.44862 0
M  V30 6501 H 631.177 -1.31917 2.67212 0
M  V30 6502 H 628.714 -0.640599 1.32419 0
M  V30 6503 H 630.672 -3.69044 1.94583 0
M  V30 6504 H 629.302 -3.07392 0.985402 0
M  V30 6505 H 628.354 -2.07378 3.18902 0
M  V30 6506 H 629.666 -2.90055 4.05795 0
M  V30 6507 H 628.82 -5.1169 3.25973 0
M  V30 6508 H 627.559 -4.30722 2.28757 0
M  V30 6509 H 626.564 -3.32984 4.37495 0
M  V30 6510 H 627.789 -4.17213 5.35826 0
M  V30 6511 H 625.735 -5.51145 3.55775 0
M  V30 6512 H 625.652 -5.40515 5.28563 0
M  V30 6513 H 626.92 -6.33412 4.54324 0
M  V30 6514 N 631.149 -1.42148 -0.680565 0
M  V30 6515 C 632.099 -1.41634 -1.78672 0
M  V30 6516 C 633.083 -0.288494 -1.58293 0
M  V30 6517 O 634.275 -0.530295 -1.68869 0
M  V30 6518 C 631.404 -1.31558 -3.17092 0
M  V30 6519 C 630.49 -2.49265 -3.43115 0
M  V30 6520 N 630.881 -3.74702 -3.39753 0
M  V30 6521 C 629.179 -2.43401 -3.73727 0
M  V30 6522 C 629.88 -4.52854 -3.651 0
M  V30 6523 N 628.856 -3.83181 -3.85582 0
M  V30 6524 H 632.658 -2.3652 -1.74458 0
M  V30 6525 H 630.172 -1.36415 -0.881171 0
M  V30 6526 H 632.169 -1.29272 -3.96351 0
M  V30 6527 H 630.829 -0.376696 -3.22508 0
M  V30 6528 H 631.84 -4.07378 -3.19787 0
M  V30 6529 H 628.517 -1.58062 -3.86423 0
M  V30 6530 H 629.907 -5.61827 -3.6851 0
M  V30 6531 N 632.627 0.916307 -1.28225 0
M  V30 6532 C 633.537 2.05165 -1.13775 0
M  V30 6533 C 634.553 1.73879 -0.0649418 0
M  V30 6534 O 635.729 1.99531 -0.273722 0
M  V30 6535 C 632.794 3.37385 -0.798267 0
M  V30 6536 C 631.855 3.82296 -1.95316 0
M  V30 6537 C 631.088 5.08206 -1.62978 0
M  V30 6538 O 631.311 5.6781 -0.542948 0
M  V30 6539 O 630.245 5.48768 -2.47261 0
M  V30 6540 H 634.071 2.20273 -2.09078 0
M  V30 6541 H 631.656 1.0373 -1.07519 0
M  V30 6542 H 633.538 4.16773 -0.62278 0
M  V30 6543 H 632.213 3.23458 0.125139 0
M  V30 6544 H 631.12 3.03746 -2.18378 0
M  V30 6545 H 632.453 4.00782 -2.85718 0
M  V30 6546 N 634.105 1.10431 1.1244 0
M  V30 6547 C 635.354 0.841539 1.83306 0
M  V30 6548 C 635.667 -0.634961 1.85007 0
M  V30 6549 O 636.873 -1.01363 2.51869 0
M  V30 6550 C 635.329 1.45565 3.29149 0
M  V30 6551 C 634.937 2.96544 3.35806 0
M  V30 6552 C 636.681 1.27227 4.04986 0
M  V30 6553 C 634.588 3.5099 4.75983 0
M  V30 6554 H 633.518 0.311156 0.686803 0
M  V30 6555 H 636.169 1.32829 1.26604 0
M  V30 6556 H 634.551 0.896574 3.85717 0
M  V30 6557 H 635.725 3.58766 2.89177 0
M  V30 6558 H 634.04 3.14036 2.73442 0
M  V30 6559 H 636.637 1.65348 5.08492 0
M  V30 6560 H 636.98 0.213834 4.1575 0
M  V30 6561 H 637.513 1.79941 3.54776 0
M  V30 6562 H 634.252 4.56499 4.70413 0
M  V30 6563 H 633.772 2.93535 5.23065 0
M  V30 6564 H 635.451 3.48808 5.44924 0
M  V30 6565 N 635.583 -1.29855 0.893053 0
M  V30 6566 C 636.515 -2.26911 0.32311 0
M  V30 6567 C 637.528 -1.54039 -0.526858 0
M  V30 6568 O 638.717 -1.75132 -0.345095 0
M  V30 6569 C 635.817 -3.34266 -0.558509 0
M  V30 6570 C 634.99 -4.36601 0.264222 0
M  V30 6571 C 634.049 -5.23326 -0.549171 0
M  V30 6572 O 633.075 -5.69192 0.0309883 0
M  V30 6573 N 634.277 -5.50008 -1.85664 0
M  V30 6574 H 637.042 -2.76455 1.15726 0
M  V30 6575 H 634.603 -1.4312 0.756859 0
M  V30 6576 H 636.595 -3.89211 -1.1089 0
M  V30 6577 H 635.165 -2.8459 -1.29334 0
M  V30 6578 H 634.385 -3.81409 0.996046 0
M  V30 6579 H 635.673 -5.02019 0.827906 0
M  V30 6580 H 635.071 -5.14542 -2.35081 0
M  V30 6581 H 633.628 -6.07796 -2.35431 0
M  V30 6582 N 637.061 -0.65484 -1.43351 0
M  V30 6583 C 637.971 0.0363603 -2.34572 0
M  V30 6584 C 638.987 0.810432 -1.53974 0
M  V30 6585 O 640.163 0.757308 -1.86619 0
M  V30 6586 C 637.228 0.989733 -3.32273 0
M  V30 6587 C 636.289 0.212414 -4.28774 0
M  V30 6588 C 635.522 1.12038 -5.21808 0
M  V30 6589 O 635.745 2.35967 -5.19303 0
M  V30 6590 O 634.679 0.59191 -5.98982 0
M  V30 6591 H 638.505 -0.714527 -2.95175 0
M  V30 6592 H 636.09 -0.415029 -1.4352 0
M  V30 6593 H 637.972 1.53759 -3.92347 0
M  V30 6594 H 636.647 1.72082 -2.74171 0
M  V30 6595 H 635.554 -0.379062 -3.72175 0
M  V30 6596 H 636.887 -0.479138 -4.89862 0
M  V30 6597 N 638.539 1.52521 -0.396863 0
M  V30 6598 C 639.472 2.23118 0.478926 0
M  V30 6599 C 640.45 1.23475 1.05796 0
M  V30 6600 O 641.634 1.52486 1.10817 0
M  V30 6601 C 638.761 2.95028 1.66362 0
M  V30 6602 C 637.807 4.09002 1.20913 0
M  V30 6603 S 638.64 5.35182 0.184407 0
M  V30 6604 C 639.796 6.10616 1.37471 0
M  V30 6605 H 640.029 2.97056 -0.120542 0
M  V30 6606 H 637.562 1.53334 -0.18109 0
M  V30 6607 H 639.52 3.37066 2.34301 0
M  V30 6608 H 638.181 2.20756 2.23441 0
M  V30 6609 H 637.374 4.58445 2.09389 0
M  V30 6610 H 636.976 3.69016 0.608559 0
M  V30 6611 H 639.268 6.37247 2.30048 0
M  V30 6612 H 640.211 7.02084 0.921051 0
M  V30 6613 H 640.619 5.41499 1.59495 0
M  V30 6614 N 640.017 0.126909 1.57088 0
M  V30 6615 C 641.264 -0.529168 1.95464 0
M  V30 6616 C 641.592 -1.6618 1.01067 0
M  V30 6617 O 640.847 -1.95667 0.0360254 0
M  V30 6618 C 641.146 -1.095 3.40212 0
M  V30 6619 C 640.812 -0.0829015 4.50824 0
M  V30 6620 C 639.474 0.195377 4.80803 0
M  V30 6621 C 641.826 0.606411 5.1766 0
M  V30 6622 C 639.154 1.16912 5.74933 0
M  V30 6623 C 641.506 1.56884 6.12838 0
M  V30 6624 C 640.17 1.85502 6.41206 0
M  V30 6625 H 639.44 -0.193636 0.715252 0
M  V30 6626 H 642.087 0.209489 1.90351 0
M  V30 6627 H 640.392 -1.91058 3.42059 0
M  V30 6628 H 642.089 -1.61087 3.67222 0
M  V30 6629 H 638.679 -0.309979 4.27478 0
M  V30 6630 H 642.863 0.404597 4.94648 0
M  V30 6631 H 638.119 1.3975 5.95214 0
M  V30 6632 H 642.293 2.10859 6.6371 0
M  V30 6633 H 639.92 2.61109 7.13951 0
M  V30 6634 N 641.495 -1.56914 -0.146875 0
M  V30 6635 C 642.772 -1.74273 -0.888165 0
M  V30 6636 C 643.152 -0.69496 -1.99333 0
M  V30 6637 O 642.5 0.286093 -2.26702 0
M  V30 6638 C 642.71 -3.18336 -1.43051 0
M  V30 6639 C 644.058 -3.80024 -1.89387 0
M  V30 6640 O 645.082 -3.21765 -1.52792 0
M  V30 6641 O 643.941 -4.82367 -2.56874 0
M  V30 6642 H 641.035 -0.712565 -0.419738 0
M  V30 6643 H 643.581 -1.6918 -0.132791 0
M  V30 6644 H 642.353 -3.86092 -0.636274 0
M  V30 6645 H 641.976 -3.27854 -2.24938 0
M  V30 6646 N 642.974 0.416227 -1.52004 0
M  V30 6647 C 643.906 1.52552 -1.71058 0
M  V30 6648 C 644.919 1.51693 -0.59102 0
M  V30 6649 O 646.108 1.56087 -0.865973 0
M  V30 6650 C 643.208 2.91455 -1.72937 0
M  V30 6651 C 642.381 3.16584 -3.01816 0
M  V30 6652 C 641.44 4.35322 -2.95603 0
M  V30 6653 O 640.466 4.32947 -3.6952 0
M  V30 6654 N 641.668 5.40049 -2.12903 0
M  V30 6655 H 644.433 1.36604 -2.66757 0
M  V30 6656 H 641.994 0.60544 -1.50153 0
M  V30 6657 H 643.986 3.68944 -1.66321 0
M  V30 6658 H 642.556 3.00895 -0.847418 0
M  V30 6659 H 641.776 2.27203 -3.22137 0
M  V30 6660 H 643.064 3.30213 -3.87088 0
M  V30 6661 H 642.462 5.44823 -1.52265 0
M  V30 6662 H 641.019 6.16308 -2.1215 0
M  V30 6663 N 644.452 1.42507 0.673017 0
M  V30 6664 C 645.382 1.48916 1.79851 0
M  V30 6665 C 646.363 0.345566 1.66553 0
M  V30 6666 O 647.548 0.560116 1.85947 0
M  V30 6667 C 644.678 1.39258 3.18158 0
M  V30 6668 C 643.632 2.51662 3.46194 0
M  V30 6669 C 642.958 2.27062 4.84094 0
M  V30 6670 C 644.258 3.93968 3.42909 0
M  V30 6671 H 645.952 2.43114 1.74745 0
M  V30 6672 H 643.498 1.17013 0.839288 0
M  V30 6673 H 645.451 1.42349 3.96629 0
M  V30 6674 H 644.175 0.415542 3.23946 0
M  V30 6675 H 642.834 2.47891 2.70084 0
M  V30 6676 H 642.482 1.27648 4.86534 0
M  V30 6677 H 642.182 3.02398 5.03815 0
M  V30 6678 H 643.706 2.31905 5.64847 0
M  V30 6679 H 645.12 3.99332 4.11347 0
M  V30 6680 H 643.517 4.6917 3.74165 0
M  V30 6681 H 644.587 4.20512 2.41449 0
M  V30 6682 N 645.93 -0.909495 1.28709 0
M  V30 6683 C 647.346 -1.18862 1.06508 0
M  V30 6684 C 647.546 -2.00604 -0.189864 0
M  V30 6685 O 646.602 -2.36281 -0.890355 0
M  V30 6686 C 647.915 -1.91908 2.31499 0
M  V30 6687 C 649.463 -2.04773 2.36721 0
M  V30 6688 C 649.938 -2.81228 3.6149 0
M  V30 6689 N 651.429 -2.88787 3.62155 0
M  V30 6690 C 652.164 -3.48455 4.55375 0
M  V30 6691 N 651.66 -4.09369 5.58918 0
M  V30 6692 N 653.453 -3.46035 4.42963 0
M  V30 6693 H 645.604 -0.363867 2.0926 0
M  V30 6694 H 647.867 -0.223649 0.921241 0
M  V30 6695 H 647.573 -1.39275 3.22948 0
M  V30 6696 H 647.447 -2.92436 2.38245 0
M  V30 6697 H 649.834 -2.56585 1.45767 0
M  V30 6698 H 649.915 -1.03408 2.33967 0
M  V30 6699 H 649.559 -2.30094 4.5279 0
M  V30 6700 H 649.489 -3.82917 3.61499 0
M  V30 6701 H 651.98 -2.45514 2.87283 0
M  V30 6702 H 652.293 -4.52891 6.26187 0
M  V30 6703 H 650.638 -4.0786 5.62739 0
M  V30 6704 H 653.829 -2.9766 3.6127 0
M  V30 6705 H 654.002 -3.92244 5.15799 0
M  V30 6706 N 647.408 -1.11026 -1.11852 0
M  V30 6707 C 648.371 -0.768006 -2.1595 0
M  V30 6708 C 649.371 0.210538 -1.59416 0
M  V30 6709 O 650.561 -0.0133978 -1.74195 0
M  V30 6710 C 647.693 -0.138678 -3.40618 0
M  V30 6711 H 648.886 -1.69012 -2.4774 0
M  V30 6712 H 646.439 -0.911578 -1.26964 0
M  V30 6713 H 647.174 0.793872 -3.14433 0
M  V30 6714 H 646.959 -0.843012 -3.8293 0
M  V30 6715 H 648.449 0.0848039 -4.17514 0
M  V30 6716 N 648.886 1.2938 -0.899927 0
M  V30 6717 C 649.833 2.27713 -0.376243 0
M  V30 6718 C 650.803 1.57016 0.541774 0
M  V30 6719 O 651.988 1.84997 0.466966 0
M  V30 6720 C 649.128 3.42889 0.39 0
M  V30 6721 C 648.241 4.28369 -0.558938 0
M  V30 6722 C 647.376 5.30726 0.224379 0
M  V30 6723 C 646.415 6.07862 -0.719068 0
M  V30 6724 N 645.552 7.02094 0.0298569 0
M  V30 6725 H 650.392 2.71888 -1.21988 0
M  V30 6726 H 647.929 1.33724 -0.612879 0
M  V30 6727 H 649.887 4.08443 0.850314 0
M  V30 6728 H 648.517 2.99743 1.19809 0
M  V30 6729 H 647.569 3.62986 -1.13777 0
M  V30 6730 H 648.881 4.82068 -1.2811 0
M  V30 6731 H 648.035 6.02098 0.745881 0
M  V30 6732 H 646.774 4.77759 0.979674 0
M  V30 6733 H 645.779 5.35353 -1.25207 0
M  V30 6734 H 647.004 6.62917 -1.4737 0
M  V30 6735 H 644.95 6.51496 0.767415 0
M  V30 6736 H 644.867 7.5335 -0.632391 0
M  V30 6737 H 646.135 7.77685 0.531615 0
M  V30 6738 N 650.364 0.662433 1.43002 0
M  V30 6739 C 651.274 -0.0239199 2.34588 0
M  V30 6740 C 652.29 -0.802255 1.54402 0
M  V30 6741 O 653.466 -0.747401 1.87018 0
M  V30 6742 C 650.531 -0.972098 3.32793 0
M  V30 6743 C 649.592 -0.189673 4.28881 0
M  V30 6744 C 648.825 -1.09269 5.22395 0
M  V30 6745 O 649.048 -2.33209 5.20547 0
M  V30 6746 O 647.982 -0.560136 5.99288 0
M  V30 6747 H 651.808 0.730171 2.94792 0
M  V30 6748 H 649.393 0.422635 1.43297 0
M  V30 6749 H 651.275 -1.51676 3.93157 0
M  V30 6750 H 649.95 -1.70626 2.75079 0
M  V30 6751 H 648.857 0.398794 3.71968 0
M  V30 6752 H 650.19 0.50511 4.89601 0
M  V30 6753 N 651.842 -1.52309 0.404946 0
M  V30 6754 C 652.789 -2.26898 -0.422597 0
M  V30 6755 C 653.759 -1.2914 -1.04461 0
M  V30 6756 O 654.944 -1.57996 -1.06967 0
M  V30 6757 C 652.084 -3.09053 -1.53559 0
M  V30 6758 C 651.197 -4.21762 -0.934908 0
M  V30 6759 C 650.332 -4.91283 -2.02025 0
M  V30 6760 C 649.371 -5.95962 -1.39628 0
M  V30 6761 N 648.508 -6.59017 -2.42159 0
M  V30 6762 H 653.348 -2.97188 0.219903 0
M  V30 6763 H 650.885 -1.46607 0.120282 0
M  V30 6764 H 652.843 -3.54987 -2.19181 0
M  V30 6765 H 651.473 -2.40942 -2.14818 0
M  V30 6766 H 650.525 -3.80029 -0.167854 0
M  V30 6767 H 651.837 -4.96864 -0.439073 0
M  V30 6768 H 650.991 -5.40601 -2.75383 0
M  V30 6769 H 649.73 -4.15741 -2.54973 0
M  V30 6770 H 648.735 -5.45968 -0.648023 0
M  V30 6771 H 649.96 -6.73445 -0.874553 0
M  V30 6772 H 647.906 -5.86306 -2.94247 0
M  V30 6773 H 647.823 -7.2978 -1.97376 0
M  V30 6774 H 649.091 -7.12974 -3.15099 0
M  V30 6775 N 653.32 -0.135238 -1.57019 0
M  V30 6776 C 654.23 0.822226 -2.19719 0
M  V30 6777 C 655.246 1.28057 -1.17802 0
M  V30 6778 O 656.422 1.3402 -1.50335 0
M  V30 6779 C 653.487 2.0484 -2.79717 0
M  V30 6780 C 652.548 1.64042 -3.96723 0
M  V30 6781 C 651.781 2.80814 -4.53849 0
M  V30 6782 O 652.004 3.967 -4.0986 0
M  V30 6783 O 650.938 2.56963 -5.44292 0
M  V30 6784 H 654.764 0.318552 -3.02025 0
M  V30 6785 H 652.349 0.0912021 -1.49121 0
M  V30 6786 H 654.231 2.76622 -3.17897 0
M  V30 6787 H 652.906 2.54182 -2.00432 0
M  V30 6788 H 651.813 0.893182 -3.63281 0
M  V30 6789 H 653.146 1.19426 -4.77492 0
M  V30 6790 N 654.798 1.5699 0.138552 0
M  V30 6791 C 655.728 2.01933 1.17241 0
M  V30 6792 C 656.709 0.90033 1.44319 0
M  V30 6793 O 657.894 1.16872 1.55095 0
M  V30 6794 C 655.024 2.40711 2.50351 0
M  V30 6795 C 653.978 3.55874 2.37776 0
M  V30 6796 C 653.304 3.80491 3.75674 0
M  V30 6797 C 654.604 4.8826 1.85472 0
M  V30 6798 H 656.298 2.88551 0.798672 0
M  V30 6799 H 653.844 1.3882 0.382743 0
M  V30 6800 H 655.797 2.70754 3.22909 0
M  V30 6801 H 654.521 1.5104 2.89576 0
M  V30 6802 H 653.18 3.2601 1.67669 0
M  V30 6803 H 652.828 2.88057 4.12349 0
M  V30 6804 H 652.528 4.57998 3.68119 0
M  V30 6805 H 654.052 4.12967 4.49767 0
M  V30 6806 H 655.466 5.16965 2.4783 0
M  V30 6807 H 653.863 5.69631 1.88787 0
M  V30 6808 H 654.933 4.78071 0.810935 0
M  V30 6809 N 656.276 -0.40816 1.52223 0
M  V30 6810 C 657.692 -0.74685 1.41047 0
M  V30 6811 C 657.892 -1.94788 0.51573 0
M  V30 6812 O 656.948 -2.52494 -0.0181156 0
M  V30 6813 C 658.261 -0.999878 2.83589 0
M  V30 6814 C 659.809 -1.10253 2.92939 0
M  V30 6815 C 660.284 -1.38832 4.36451 0
M  V30 6816 N 661.775 -1.45694 4.3969 0
M  V30 6817 C 662.51 -1.69435 5.47795 0
M  V30 6818 N 662.006 -1.90774 6.66016 0
M  V30 6819 N 663.799 -1.71458 5.35312 0
M  V30 6820 H 655.95 0.382409 2.08929 0
M  V30 6821 H 658.213 0.108807 0.941735 0
M  V30 6822 H 657.919 -0.189723 3.51188 0
M  V30 6823 H 657.793 -1.91978 3.24691 0
M  V30 6824 H 660.18 -1.90328 2.2552 0
M  V30 6825 H 660.261 -0.160973 2.55293 0
M  V30 6826 H 659.905 -0.592741 5.04429 0
M  V30 6827 H 659.835 -2.34241 4.71634 0
M  V30 6828 H 662.326 -1.3099 3.54472 0
M  V30 6829 H 662.639 -2.08342 7.44186 0
M  V30 6830 H 660.984 -1.88037 6.69079 0
M  V30 6831 H 664.175 -1.54326 4.41929 0
M  V30 6832 H 664.348 -1.89621 6.19635 0
M  V30 6833 N 657.755 -1.42862 -0.66545 0
M  V30 6834 C 658.983 -1.47246 -1.45349 0
M  V30 6835 C 659.398 -0.0865944 -1.88601 0
M  V30 6836 O 658.755 0.900652 -1.58728 0
M  V30 6837 C 658.806 -2.40772 -2.6965 0
M  V30 6838 O 658.527 -3.73968 -2.2821 0
M  V30 6839 C 660.028 -2.54272 -3.63126 0
M  V30 6840 H 657.248 -0.500497 -0.446927 0
M  V30 6841 H 659.792 -1.87477 -0.816871 0
M  V30 6842 H 657.947 -2.0377 -3.29479 0
M  V30 6843 H 658.361 -4.24146 -3.08546 0
M  V30 6844 H 659.835 -3.23815 -4.47043 0
M  V30 6845 H 660.312 -1.58364 -4.09656 0
M  V30 6846 H 660.918 -2.92036 -3.09185 0
M  V30 6847 N 659.233 0.902656 -1.29189 0
M  V30 6848 C 660.479 1.6555 -1.18172 0
M  V30 6849 C 660.834 1.90569 0.264788 0
M  V30 6850 O 660.127 1.50292 1.1884 0
M  V30 6851 C 660.321 3.011 -1.92545 0
M  V30 6852 C 660.15 2.89312 -3.4428 0
M  V30 6853 C 658.92 2.90239 -4.1363 0
M  V30 6854 C 661.118 2.6656 -4.3983 0
M  V30 6855 N 659.1 2.69156 -5.5175 0
M  V30 6856 C 660.471 2.54429 -5.6539 0
M  V30 6857 C 662.526 2.51644 -4.29627 0
M  V30 6858 C 661.229 2.289 -6.81907 0
M  V30 6859 C 663.255 2.27498 -5.45892 0
M  V30 6860 C 662.617 2.16129 -6.70423 0
M  V30 6861 H 658.716 0.611519 -0.48741 0
M  V30 6862 H 661.3 1.06514 -1.62981 0
M  V30 6863 H 659.471 3.58202 -1.50154 0
M  V30 6864 H 661.203 3.65471 -1.73818 0
M  V30 6865 H 657.958 3.01412 -3.65305 0
M  V30 6866 H 658.382 2.61676 -6.24383 0
M  V30 6867 H 663.024 2.59178 -3.34045 0
M  V30 6868 H 660.742 2.20104 -7.77547 0
M  V30 6869 H 664.328 2.16805 -5.39895 0
M  V30 6870 H 663.208 1.97703 -7.5887 0
M  V30 6871 N 660.711 1.11618 1.11262 0
M  V30 6872 C 661.621 0.78898 2.20935 0
M  V30 6873 C 662.637 -0.21867 1.7262 0
M  V30 6874 O 663.813 -0.0543826 2.01327 0
M  V30 6875 C 660.878 0.239014 3.45875 0
M  V30 6876 C 659.939 1.3055 4.08968 0
M  V30 6877 C 659.172 0.781687 5.27944 0
M  V30 6878 O 659.395 -0.387605 5.69082 0
M  V30 6879 O 658.329 1.54734 5.81671 0
M  V30 6880 H 662.155 1.70477 2.51339 0
M  V30 6881 H 659.74 0.892203 1.19834 0
M  V30 6882 H 661.622 -0.0632312 4.21353 0
M  V30 6883 H 660.297 -0.649454 3.17118 0
M  V30 6884 H 659.204 1.66079 3.35214 0
M  V30 6885 H 660.537 2.16743 4.41909 0
M  V30 6886 N 662.189 -1.289 0.906776 0
M  V30 6887 C 663.099 -2.31256 0.394707 0
M  V30 6888 C 664.115 -1.66231 -0.514121 0
M  V30 6889 O 665.291 -1.97347 -0.401994 0
M  V30 6890 C 662.356 -3.44792 -0.363191 0
M  V30 6891 C 661.417 -4.25391 0.578012 0
M  V30 6892 C 660.65 -5.33506 -0.143811 0
M  V30 6893 O 660.873 -5.53786 -1.36665 0
M  V30 6894 O 659.807 -5.99673 0.5173 0
M  V30 6895 H 663.633 -2.77051 1.24405 0
M  V30 6896 H 661.218 -1.33466 0.671346 0
M  V30 6897 H 663.1 -4.139 -0.791503 0
M  V30 6898 H 661.775 -3.01093 -1.18848 0
M  V30 6899 H 660.682 -3.58899 1.05558 0
M  V30 6900 H 662.015 -4.72752 1.36992 0
M  V30 6901 N 663.667 -0.670007 -1.42649 0
M  V30 6902 C 664.577 0.0114788 -2.34597 0
M  V30 6903 C 665.593 0.794055 -1.54825 0
M  V30 6904 O 666.769 0.737472 -1.87412 0
M  V30 6905 C 663.834 0.954436 -3.33304 0
M  V30 6906 C 662.895 0.166925 -4.28975 0
M  V30 6907 C 662.128 1.06497 -5.22967 0
M  V30 6908 O 662.351 2.30446 -5.21777 0
M  V30 6909 O 661.285 0.528347 -5.99577 0
M  V30 6910 H 665.111 -0.745794 -2.944 0
M  V30 6911 H 662.696 -0.430228 -1.43071 0
M  V30 6912 H 664.578 1.49589 -3.93956 0
M  V30 6913 H 663.253 1.69164 -2.7598 0
M  V30 6914 H 662.16 -0.418515 -3.71752 0
M  V30 6915 H 663.493 -0.531067 -4.89327 0
M  V30 6916 N 665.145 1.52092 -0.413018 0
M  V30 6917 C 666.075 2.30021 0.401567 0
M  V30 6918 C 667.056 1.34395 1.04269 0
M  V30 6919 O 668.241 1.63304 1.05097 0
M  V30 6920 C 665.371 3.12447 1.51638 0
M  V30 6921 C 664.325 4.16153 1.00005 0
M  V30 6922 C 663.651 4.86948 2.20875 0
M  V30 6923 C 664.951 5.22275 0.0513757 0
M  V30 6924 H 666.645 2.98365 -0.248704 0
M  V30 6925 H 664.191 1.4349 -0.121052 0
M  V30 6926 H 666.144 3.65733 2.09326 0
M  V30 6927 H 664.868 2.41879 2.19458 0
M  V30 6928 H 663.527 3.63882 0.445549 0
M  V30 6929 H 663.175 4.12905 2.8726 0
M  V30 6930 H 662.875 5.57057 1.86978 0
M  V30 6931 H 664.399 5.43048 2.79162 0
M  V30 6932 H 665.813 5.70778 0.537176 0
M  V30 6933 H 664.21 5.9977 -0.198977 0
M  V30 6934 H 665.28 4.76611 -0.892736 0
M  V30 6935 N 666.623 0.143563 1.56945 0
M  V30 6936 C 667.851 -0.515447 2.00377 0
M  V30 6937 C 668.266 -1.58643 1.02361 0
M  V30 6938 O 667.623 -1.82489 0.0201039 0
M  V30 6939 C 667.674 -1.11923 3.43737 0
M  V30 6940 O 667.395 -0.0910318 4.38005 0
M  V30 6941 C 668.896 -1.85918 4.02429 0
M  V30 6942 H 666.116 -0.134478 0.657386 0
M  V30 6943 H 668.66 0.237135 2.0312 0
M  V30 6944 H 666.815 -1.82245 3.41856 0
M  V30 6945 H 667.229 -0.532916 5.21786 0
M  V30 6946 H 668.703 -2.2346 5.04747 0
M  V30 6947 H 669.18 -2.7438 3.42947 0
M  V30 6948 H 669.786 -1.20303 4.07931 0
M  V30 6949 N 668.101 -1.57061 -0.130224 0
M  V30 6950 C 669.517 -1.52103 -0.483413 0
M  V30 6951 C 669.717 -0.854752 -1.82473 0
M  V30 6952 O 668.773 -0.432342 -2.48771 0
M  V30 6953 C 670.086 -2.96872 -0.47825 0
M  V30 6954 C 671.634 -3.07902 -0.562592 0
M  V30 6955 C 672.109 -4.54211 -0.587929 0
M  V30 6956 N 673.6 -4.58621 -0.649684 0
M  V30 6957 C 674.335 -5.69227 -0.690551 0
M  V30 6958 N 673.831 -6.89358 -0.689743 0
M  V30 6959 N 675.624 -5.57304 -0.732708 0
M  V30 6960 H 667.775 -1.98764 0.748779 0
M  V30 6961 H 670.038 -0.907248 0.274965 0
M  V30 6962 H 669.744 -3.48944 0.439444 0
M  V30 6963 H 669.618 -3.53716 -1.31013 0
M  V30 6964 H 672.005 -2.5584 -1.47071 0
M  V30 6965 H 672.086 -2.54073 0.296764 0
M  V30 6966 H 671.73 -5.06915 0.316096 0
M  V30 6967 H 671.66 -5.0584 -1.46401 0
M  V30 6968 H 674.151 -3.72146 -0.656927 0
M  V30 6969 H 674.464 -7.69408 -0.723239 0
M  V30 6970 H 672.809 -6.91884 -0.657347 0
M  V30 6971 H 676 -4.62363 -0.730625 0
M  V30 6972 H 676.173 -6.43515 -0.76109 0
M  V30 6973 N 669.579 0.400081 -1.52437 0
M  V30 6974 C 670.542 1.4707 -1.75793 0
M  V30 6975 C 671.542 1.48036 -0.627856 0
M  V30 6976 O 672.732 1.49401 -0.895817 0
M  V30 6977 C 669.864 2.86427 -1.84858 0
M  V30 6978 H 671.057 1.27649 -2.71377 0
M  V30 6979 H 668.61 0.631141 -1.42991 0
M  V30 6980 H 669.345 3.11207 -0.912194 0
M  V30 6981 H 669.13 2.87128 -2.6702 0
M  V30 6982 H 670.62 3.64023 -2.04638 0
M  V30 6983 N 671.057 1.43213 0.657864 0
M  V30 6984 C 672.02 1.47687 1.75275 0
M  V30 6985 C 673.02 0.362179 1.56668 0
M  V30 6986 O 674.21 0.623734 1.62651 0
M  V30 6987 C 671.342 1.32497 3.14098 0
M  V30 6988 H 672.535 2.4519 1.7269 0
M  V30 6989 H 670.088 1.2991 0.869087 0
M  V30 6990 H 670.823 0.359831 3.22298 0
M  V30 6991 H 670.608 2.13299 3.29008 0
M  V30 6992 H 672.098 1.38549 3.93946 0
M  V30 6993 N 672.536 -0.895792 1.29666 0
M  V30 6994 C 673.466 -2.01673 1.17688 0
M  V30 6995 C 674.447 -1.69955 0.0701317 0
M  V30 6996 O 675.632 -1.9258 0.250289 0
M  V30 6997 C 672.762 -3.36568 0.856681 0
M  V30 6998 C 671.716 -3.82509 1.92017 0
M  V30 6999 C 671.042 -5.14574 1.4532 0
M  V30 7000 C 672.342 -4.02409 3.32963 0
M  V30 7001 H 674.036 -2.11953 2.11463 0
M  V30 7002 H 671.582 -1.01839 1.01807 0
M  V30 7003 H 673.535 -4.14498 0.759577 0
M  V30 7004 H 672.259 -3.26391 -0.116763 0
M  V30 7005 H 670.918 -3.068 2.00673 0
M  V30 7006 H 670.566 -5.00815 0.468325 0
M  V30 7007 H 670.266 -5.46283 2.16447 0
M  V30 7008 H 671.79 -5.9504 1.36968 0
M  V30 7009 H 673.204 -4.70808 3.27127 0
M  V30 7010 H 671.601 -4.45478 4.02082 0
M  V30 7011 H 672.671 -3.06616 3.75652 0
M  V30 7012 N 674.014 -1.12206 -1.10668 0
M  V30 7013 C 674.946 -0.74552 -2.16736 0
M  V30 7014 C 675.959 0.226696 -1.61214 0
M  V30 7015 O 677.148 0.0083936 -1.78498 0
M  V30 7016 C 674.248 -0.0823368 -3.388 0
M  V30 7017 C 673.421 -1.08341 -4.2377 0
M  V30 7018 C 672.48 -0.448292 -5.24287 0
M  V30 7019 O 671.506 -1.10458 -5.58379 0
M  V30 7020 N 672.708 0.785336 -5.75163 0
M  V30 7021 H 675.473 -1.65818 -2.49649 0
M  V30 7022 H 673.034 -1.01335 -1.26265 0
M  V30 7023 H 675.026 0.354476 -4.03145 0
M  V30 7024 H 673.596 0.733041 -3.03884 0
M  V30 7025 H 672.816 -1.69792 -3.55759 0
M  V30 7026 H 674.104 -1.76042 -4.77375 0
M  V30 7027 H 673.502 1.33755 -5.4966 0
M  V30 7028 H 672.059 1.16501 -6.41304 0
M  V30 7029 N 675.492 1.28418 -0.913599 0
M  V30 7030 C 676.424 2.26368 -0.359169 0
M  V30 7031 C 677.437 1.54858 0.502285 0
M  V30 7032 O 678.626 1.75659 0.31719 0
M  V30 7033 C 675.726 3.35112 0.50526 0
M  V30 7034 C 674.899 4.36126 -0.333648 0
M  V30 7035 C 673.958 5.24134 0.465845 0
M  V30 7036 O 672.984 5.6907 -0.121538 0
M  V30 7037 N 674.186 5.52892 1.76891 0
M  V30 7038 H 676.951 2.74579 -1.2011 0
M  V30 7039 H 674.512 1.41898 -0.779532 0
M  V30 7040 H 676.504 3.90926 1.04684 0
M  V30 7041 H 675.074 2.86611 1.2479 0
M  V30 7042 H 674.294 3.79776 -1.0566 0
M  V30 7043 H 675.582 5.00638 -0.907669 0
M  V30 7044 H 674.98 5.18217 2.26865 0
M  V30 7045 H 673.537 6.11464 2.25732 0
M  V30 7046 N 676.97 0.677563 1.42291 0
M  V30 7047 C 677.917 0.000947061 2.308 0
M  V30 7048 C 678.887 -0.789889 1.46116 0
M  V30 7049 O 680.072 -0.761578 1.74942 0
M  V30 7050 C 677.212 -0.942387 3.31984 0
M  V30 7051 C 676.325 -0.14508 4.31756 0
M  V30 7052 C 675.46 -1.08442 5.20013 0
M  V30 7053 C 674.499 -0.278958 6.11464 0
M  V30 7054 N 673.636 -1.17115 6.92263 0
M  V30 7055 H 678.476 0.761521 2.88106 0
M  V30 7056 H 676.013 0.38727 1.41911 0
M  V30 7057 H 677.971 -1.50317 3.89179 0
M  V30 7058 H 676.601 -1.66956 2.76271 0
M  V30 7059 H 675.653 0.532368 3.76656 0
M  V30 7060 H 676.965 0.48015 4.96484 0
M  V30 7061 H 676.119 -1.71504 5.81955 0
M  V30 7062 H 674.858 -1.74353 4.55469 0
M  V30 7063 H 673.863 0.364856 5.48588 0
M  V30 7064 H 675.088 0.376099 6.78058 0
M  V30 7065 H 673.034 -1.81661 6.30345 0
M  V30 7066 H 672.951 -0.601063 7.53607 0
M  V30 7067 H 674.219 -1.78915 7.58689 0
M  V30 7068 N 678.448 -1.51871 0.421078 0
M  V30 7069 C 679.396 -2.28903 -0.413066 0
M  V30 7070 C 680.39 -1.3408 -1.03532 0
M  V30 7071 O 681.596 -1.5149 -0.972146 0
M  V30 7072 H 677.971 -0.736478 -0.152003 0
M  V30 7073 H 679.942 -2.97285 0.257695 0
M  V30 7074 C 678.691 -3.13156 -1.51091 0
M  V30 7075 H 678.014 -3.85997 -1.04145 0
M  V30 7076 H 679.454 -3.7014 -2.06814 0
M  V30 7077 C 677.913 -2.27482 -2.48503 0
M  V30 7078 O 678.443 -1.92325 -3.52667 0
M  V30 7079 N 676.649 -1.91019 -2.18998 0
M  V30 7080 H 676.196 -2.19808 -1.34322 0
M  V30 7081 H 676.154 -1.3399 -2.84419 0
M  V30 7082 N 679.926 -0.151884 -1.56866 0
M  V30 7083 C 680.858 0.817008 -2.14144 0
M  V30 7084 C 681.871 1.20735 -1.0921 0
M  V30 7085 O 683.06 1.15058 -1.36469 0
M  V30 7086 C 680.16 2.10844 -2.65326 0
M  V30 7087 C 679.333 1.88471 -3.94712 0
M  V30 7088 C 678.392 3.01649 -4.31155 0
M  V30 7089 O 677.418 2.73127 -4.9939 0
M  V30 7090 N 678.62 4.28947 -3.91132 0
M  V30 7091 H 681.385 0.327448 -2.97906 0
M  V30 7092 H 678.946 0.0315313 -1.61869 0
M  V30 7093 H 680.938 2.85616 -2.86715 0
M  V30 7094 H 679.508 2.51049 -1.86262 0
M  V30 7095 H 678.728 0.977088 -3.81899 0
M  V30 7096 H 680.016 1.70866 -4.79252 0
M  V30 7097 H 679.414 4.54986 -3.36161 0
M  V30 7098 H 677.971 5.00484 -4.17563 0
M  V30 7099 N 681.404 1.57128 0.121893 0
M  V30 7100 C 682.314 2.03425 1.16857 0
M  V30 7101 C 683.33 0.954108 1.45509 0
M  V30 7102 O 684.506 1.26541 1.56682 0
M  V30 7103 C 681.571 2.42685 2.47599 0
M  V30 7104 C 680.632 3.64767 2.2637 0
M  V30 7105 C 679.865 4.02145 3.50878 0
M  V30 7106 O 680.088 3.39897 4.58068 0
M  V30 7107 O 679.022 4.95262 3.42051 0
M  V30 7108 H 682.848 2.92825 0.80544 0
M  V30 7109 H 680.433 1.45654 0.332477 0
M  V30 7110 H 682.315 2.68684 3.24634 0
M  V30 7111 H 680.99 1.56432 2.83392 0
M  V30 7112 H 679.897 3.43922 1.47203 0
M  V30 7113 H 681.23 4.51716 1.95482 0
M  V30 7114 N 682.882 -0.391992 1.52647 0
M  V30 7115 C 683.792 -1.503 1.80131 0
M  V30 7116 C 684.808 -1.59825 0.687882 0
M  V30 7117 O 685.984 -1.76218 0.975149 0
M  V30 7118 C 683.049 -2.85863 1.96171 0
M  V30 7119 C 682.11 -2.86084 3.20085 0
M  V30 7120 C 681.343 -4.15181 3.35351 0
M  V30 7121 O 681.566 -5.09981 2.55491 0
M  V30 7122 O 680.5 -4.22603 4.28591 0
M  V30 7123 H 684.326 -1.30007 2.74466 0
M  V30 7124 H 681.911 -0.579539 1.37701 0
M  V30 7125 H 683.793 -3.66236 2.08445 0
M  V30 7126 H 682.468 -3.06189 1.05025 0
M  V30 7127 H 681.375 -2.04504 3.13256 0
M  V30 7128 H 682.708 -2.7071 4.11068 0
M  V30 7129 N 684.36 -1.4356 -0.65026 0
M  V30 7130 C 685.29 -1.51758 -1.77459 0
M  V30 7131 C 686.271 -0.372019 -1.65982 0
M  V30 7132 O 687.456 -0.589627 -1.85033 0
M  V30 7133 C 684.586 -1.44302 -3.15902 0
M  V30 7134 C 683.54 -2.57138 -3.42146 0
M  V30 7135 C 682.866 -2.34735 -4.8042 0
M  V30 7136 C 684.166 -3.99373 -3.36598 0
M  V30 7137 H 685.86 -2.45863 -1.70855 0
M  V30 7138 H 683.406 -1.18333 -0.820566 0
M  V30 7139 H 685.359 -1.48641 -3.94314 0
M  V30 7140 H 684.083 -0.467026 -3.23244 0
M  V30 7141 H 682.742 -2.52157 -2.66106 0
M  V30 7142 H 682.39 -1.35372 -4.84441 0
M  V30 7143 H 682.09 -3.10375 -4.9894 0
M  V30 7144 H 683.614 -2.40862 -5.61086 0
M  V30 7145 H 685.028 -4.05826 -4.04942 0
M  V30 7146 H 683.425 -4.75063 -3.66654 0
M  V30 7147 H 684.495 -4.243 -2.34729 0
M  V30 7148 N 685.838 0.888903 -1.30139 0
M  V30 7149 C 686.768 2.01046 -1.18755 0
M  V30 7150 C 687.749 1.69916 -0.0791438 0
M  V30 7151 O 688.934 1.92445 -0.260498 0
M  V30 7152 C 686.064 3.36109 -0.874518 0
M  V30 7153 C 685.018 3.81486 -1.94043 0
M  V30 7154 C 684.344 5.13796 -1.48047 0
M  V30 7155 C 685.644 4.00637 -3.35093 0
M  V30 7156 H 687.338 2.10828 -2.12584 0
M  V30 7157 H 684.884 1.01298 -1.02346 0
M  V30 7158 H 686.837 4.14089 -0.781548 0
M  V30 7159 H 685.561 3.26449 0.0994519 0
M  V30 7160 H 684.22 3.05731 -2.02297 0
M  V30 7161 H 683.868 5.0056 -0.494878 0
M  V30 7162 H 683.568 5.45127 -2.19341 0
M  V30 7163 H 685.092 5.94305 -1.40121 0
M  V30 7164 H 686.506 4.69067 -3.2962 0
M  V30 7165 H 684.903 4.43339 -4.04438 0
M  V30 7166 H 685.973 3.0462 -3.77273 0
M  V30 7167 N 687.317 1.12792 1.10072 0
M  V30 7168 C 688.733 0.864745 1.34143 0
M  V30 7169 C 688.933 -0.503201 1.95116 0
M  V30 7170 O 687.989 -1.25111 2.19325 0
M  V30 7171 C 689.302 1.98413 2.25949 0
M  V30 7172 C 690.85 2.01545 2.39476 0
M  V30 7173 C 691.325 3.12727 3.34613 0
M  V30 7174 N 692.816 3.12194 3.42183 0
M  V30 7175 C 693.551 3.94862 4.15779 0
M  V30 7176 N 693.047 4.87528 4.92228 0
M  V30 7177 N 694.84 3.82985 4.11435 0
M  V30 7178 H 686.991 2.00926 0.68866 0
M  V30 7179 H 689.254 0.874564 0.365844 0
M  V30 7180 H 688.96 2.97005 1.88364 0
M  V30 7181 H 688.834 1.89254 3.26287 0
M  V30 7182 H 691.221 1.0357 2.76328 0
M  V30 7183 H 691.302 2.14777 1.3894 0
M  V30 7184 H 690.946 4.10936 2.98486 0
M  V30 7185 H 690.876 2.96732 4.35037 0
M  V30 7186 H 693.367 2.45065 2.87666 0
M  V30 7187 H 693.68 5.47109 5.45794 0
M  V30 7188 H 692.025 4.91539 4.9134 0
M  V30 7189 H 695.216 3.09923 3.50807 0
M  V30 7190 H 695.389 4.47641 4.68531 0
M  V30 7191 N 688.795 -1.27931 0.920396 0
M  V30 7192 C 690.211 -1.47085 0.619537 0
M  V30 7193 C 690.411 -1.83463 -0.833291 0
M  V30 7194 O 689.467 -1.94363 -1.61181 0
M  V30 7195 C 690.78 -2.56878 1.56314 0
M  V30 7196 C 692.328 -2.70743 1.57058 0
M  V30 7197 C 692.803 -3.83687 2.50097 0
M  V30 7198 N 694.294 -3.9105 2.48262 0
M  V30 7199 C 695.029 -4.77842 3.16945 0
M  V30 7200 N 694.525 -5.69176 3.94982 0
M  V30 7201 N 696.318 -4.71509 3.06 0
M  V30 7202 H 688.469 -1.02601 1.85975 0
M  V30 7203 H 690.732 -0.511682 0.798051 0
M  V30 7204 H 690.438 -2.36923 2.59923 0
M  V30 7205 H 690.312 -3.54117 1.29928 0
M  V30 7206 H 692.699 -2.90083 0.541832 0
M  V30 7207 H 692.78 -1.74015 1.8749 0
M  V30 7208 H 692.424 -3.65101 3.53077 0
M  V30 7209 H 692.354 -4.79827 2.16964 0
M  V30 7210 H 694.845 -3.25738 1.91581 0
M  V30 7211 H 695.158 -6.32245 4.44394 0
M  V30 7212 H 693.503 -5.68995 3.99086 0
M  V30 7213 H 696.694 -3.99151 2.44533 0
M  V30 7214 H 696.867 -5.38933 3.59799 0
M  V30 7215 N 690.273 -0.685099 -1.4193 0
M  V30 7216 C 691.689 -0.355632 -1.55587 0
M  V30 7217 C 691.889 1.13823 -1.66273 0
M  V30 7218 O 690.945 1.92387 -1.63534 0
M  V30 7219 C 692.258 -1.09498 -2.80055 0
M  V30 7220 C 693.806 -1.07831 -2.93839 0
M  V30 7221 C 694.281 -1.79919 -4.21181 0
M  V30 7222 N 695.772 -1.76837 -4.28115 0
M  V30 7223 C 696.507 -2.29463 -5.25485 0
M  V30 7224 N 696.003 -2.90516 -6.28945 0
M  V30 7225 N 697.796 -2.19779 -5.17353 0
M  V30 7226 H 689.947 -1.65412 -1.33239 0
M  V30 7227 H 692.21 -0.697453 -0.642078 0
M  V30 7228 H 691.916 -2.14997 -2.78333 0
M  V30 7229 H 691.79 -0.666813 -3.71259 0
M  V30 7230 H 694.177 -0.0316152 -2.95083 0
M  V30 7231 H 694.258 -1.54545 -2.03837 0
M  V30 7232 H 693.902 -2.84562 -4.20698 0
M  V30 7233 H 693.832 -1.30647 -5.10136 0
M  V30 7234 H 696.323 -1.32315 -3.53979 0
M  V30 7235 H 696.636 -3.28266 -6.99615 0
M  V30 7236 H 694.981 -2.94589 -6.29478 0
M  V30 7237 H 698.172 -1.71763 -4.35448 0
M  V30 7238 H 698.345 -2.61097 -5.9307 0
M  V30 7239 N 691.751 1.51645 -0.429126 0
M  V30 7240 C 692.661 2.31288 0.392809 0
M  V30 7241 C 693.677 1.39852 1.03525 0
M  V30 7242 O 694.853 1.72926 1.03241 0
M  V30 7243 C 691.918 3.13347 1.48372 0
M  V30 7244 C 690.979 4.20551 0.862268 0
M  V30 7245 C 690.212 4.98688 1.9012 0
M  V30 7246 O 690.435 4.77359 3.12225 0
M  V30 7247 O 689.369 5.83005 1.4963 0
M  V30 7248 H 693.195 3.02609 -0.257138 0
M  V30 7249 H 690.78 1.48163 -0.191851 0
M  V30 7250 H 692.662 3.64387 2.1166 0
M  V30 7251 H 691.337 2.44799 2.1179 0
M  V30 7252 H 690.244 3.73609 0.191568 0
M  V30 7253 H 691.577 4.91449 0.271704 0
M  V30 7254 N 693.229 0.160201 1.56784 0
M  V30 7255 C 694.161 -0.80564 2.14574 0
M  V30 7256 C 695.174 -1.20154 1.09849 0
M  V30 7257 O 696.363 -1.14333 1.37078 0
M  V30 7258 C 693.463 -2.09434 2.6644 0
M  V30 7259 C 692.636 -1.86375 3.95706 0
M  V30 7260 C 691.695 -2.99358 4.32749 0
M  V30 7261 O 690.721 -2.70475 5.00831 0
M  V30 7262 N 691.923 -4.26867 3.93402 0
M  V30 7263 H 694.688 -0.311644 2.98075 0
M  V30 7264 H 692.249 -0.0229465 1.61884 0
M  V30 7265 H 694.241 -2.84091 2.88226 0
M  V30 7266 H 692.811 -2.50057 1.8759 0
M  V30 7267 H 692.031 -0.956821 3.82412 0
M  V30 7268 H 693.319 -1.68322 4.80151 0
M  V30 7269 H 692.717 -4.53197 3.38569 0
M  V30 7270 H 691.274 -4.98263 4.20211 0
M  V30 7271 N 694.707 -1.5719 -0.113559 0
M  V30 7272 C 695.617 -2.04041 -1.15777 0
M  V30 7273 C 696.633 -0.961812 -1.45001 0
M  V30 7274 O 697.809 -1.2737 -1.56009 0
M  V30 7275 C 694.874 -2.43994 -2.46308 0
M  V30 7276 C 693.935 -3.65962 -2.24433 0
M  V30 7277 C 693.168 -4.04 -3.4874 0
M  V30 7278 O 693.391 -3.42321 -4.56259 0
M  V30 7279 O 692.325 -4.97069 -3.3942 0
M  V30 7280 H 696.151 -2.93248 -0.789899 0
M  V30 7281 H 693.736 -1.45828 -0.324748 0
M  V30 7282 H 695.618 -2.70401 -3.23204 0
M  V30 7283 H 694.293 -1.57932 -2.82558 0
M  V30 7284 H 693.2 -3.44697 -1.45377 0
M  V30 7285 H 694.533 -4.52746 -1.93084 0
M  V30 7286 N 696.185 0.383891 -1.52853 0
M  V30 7287 C 697.115 1.47559 -1.80965 0
M  V30 7288 C 698.096 1.5669 -0.661986 0
M  V30 7289 O 699.281 1.71556 -0.910072 0
M  V30 7290 C 696.411 2.85114 -1.98312 0
M  V30 7291 C 695.365 2.9082 -3.14019 0
M  V30 7292 C 694.691 4.30873 -3.16627 0
M  V30 7293 C 695.991 2.60001 -4.52986 0
M  V30 7294 H 697.685 1.24283 -2.72386 0
M  V30 7295 H 695.231 0.596445 -1.31067 0
M  V30 7296 H 697.184 3.61496 -2.16561 0
M  V30 7297 H 695.908 3.09738 -1.03585 0
M  V30 7298 H 694.567 2.16886 -2.9556 0
M  V30 7299 H 694.215 4.52545 -2.19573 0
M  V30 7300 H 693.915 4.3561 -3.94357 0
M  V30 7301 H 695.439 5.09154 -3.37038 0
M  V30 7302 H 696.853 3.261 -4.71521 0
M  V30 7303 H 695.25 2.76081 -5.32822 0
M  V30 7304 H 696.32 1.5532 -4.59351 0
M  V30 7305 N 697.663 1.43903 0.642637 0
M  V30 7306 C 698.626 1.49538 1.73698 0
M  V30 7307 C 699.626 0.378776 1.56275 0
M  V30 7308 O 700.816 0.64095 1.6198 0
M  V30 7309 C 697.948 1.35821 3.12675 0
M  V30 7310 H 699.141 2.47008 1.70079 0
M  V30 7311 H 696.694 1.30824 0.85526 0
M  V30 7312 H 697.429 0.393994 3.21898 0
M  V30 7313 H 697.214 2.16776 3.26727 0
M  V30 7314 H 698.704 1.4272 3.92455 0
M  V30 7315 N 699.141 -0.881989 1.30609 0
M  V30 7316 C 700.051 -2.02076 1.19174 0
M  V30 7317 C 701.067 -1.73645 0.11102 0
M  V30 7318 O 702.243 -1.98735 0.326528 0
M  V30 7319 C 699.308 -3.3515 0.887438 0
M  V30 7320 C 698.369 -3.76983 2.05383 0
M  V30 7321 C 697.602 -5.03707 1.76395 0
M  V30 7322 O 697.825 -5.66171 0.693302 0
M  V30 7323 O 696.759 -5.42019 2.61723 0
M  V30 7324 H 700.585 -2.14652 2.14845 0
M  V30 7325 H 698.17 -1.00843 1.10232 0
M  V30 7326 H 700.052 -4.14975 0.73306 0
M  V30 7327 H 698.727 -3.23676 -0.0393354 0
M  V30 7328 H 697.634 -2.97849 2.26355 0
M  V30 7329 H 698.967 -3.93066 2.96243 0
M  V30 7330 N 700.619 -1.13374 -1.09472 0
M  V30 7331 C 702.035 -0.871846 -1.33682 0
M  V30 7332 C 702.235 0.492847 -1.9538 0
M  V30 7333 O 701.291 1.23946 -2.19985 0
M  V30 7334 C 702.604 -1.99608 -2.24893 0
M  V30 7335 C 704.152 -2.02812 -2.38404 0
M  V30 7336 C 704.627 -3.14497 -3.3295 0
M  V30 7337 N 706.118 -3.14004 -3.40523 0
M  V30 7338 C 706.853 -3.97061 -4.13679 0
M  V30 7339 N 706.349 -4.90131 -4.89636 0
M  V30 7340 N 708.142 -3.85162 -4.09398 0
M  V30 7341 H 700.293 -2.01288 -0.677995 0
M  V30 7342 H 702.556 -0.876492 -0.361201 0
M  V30 7343 H 702.262 -2.98 -1.86786 0
M  V30 7344 H 702.136 -1.90981 -3.25278 0
M  V30 7345 H 704.523 -1.05034 -2.75775 0
M  V30 7346 H 704.604 -2.15511 -1.37799 0
M  V30 7347 H 704.248 -4.12514 -2.96302 0
M  V30 7348 H 704.178 -2.99035 -4.33458 0
M  V30 7349 H 706.669 -2.46587 -2.86362 0
M  V30 7350 H 706.982 -5.49996 -5.42885 0
M  V30 7351 H 705.327 -4.94138 -4.88726 0
M  V30 7352 H 708.518 -3.11779 -3.49158 0
M  V30 7353 H 708.691 -4.5012 -4.6615 0
M  V30 7354 N 702.098 1.27442 -0.927168 0
M  V30 7355 C 703.008 2.30599 -0.431448 0
M  V30 7356 C 704.024 1.67028 0.48761 0
M  V30 7357 O 705.2 1.97962 0.370546 0
M  V30 7358 C 702.265 3.45327 0.308292 0
M  V30 7359 C 701.326 4.24418 -0.645615 0
M  V30 7360 C 700.559 5.33667 0.0589164 0
M  V30 7361 O 700.782 5.5589 1.27838 0
M  V30 7362 O 699.716 5.98774 -0.612638 0
M  V30 7363 H 703.542 2.75036 -1.28797 0
M  V30 7364 H 701.127 1.32382 -0.692495 0
M  V30 7365 H 703.009 4.15107 0.725555 0
M  V30 7366 H 701.684 3.02945 1.14043 0
M  V30 7367 H 700.591 3.57174 -1.11255 0
M  V30 7368 H 701.924 4.70512 -1.44496 0
M  V30 7369 N 703.576 0.692616 1.41565 0
M  V30 7370 C 704.825 0.219452 2.00503 0
M  V30 7371 C 705.138 -1.18683 1.55479 0
M  V30 7372 O 706.344 -1.75731 2.06956 0
M  V30 7373 C 704.8 0.341451 3.58277 0
M  V30 7374 C 704.408 1.75291 4.12283 0
M  V30 7375 C 706.152 -0.0720899 4.24439 0
M  V30 7376 C 704.059 1.82673 5.62481 0
M  V30 7377 H 702.989 0.0782874 0.749925 0
M  V30 7378 H 705.64 0.860386 1.62079 0
M  V30 7379 H 704.022 -0.367683 3.94289 0
M  V30 7380 H 705.196 2.49057 3.87695 0
M  V30 7381 H 703.511 2.11587 3.58636 0
M  V30 7382 H 706.108 -0.0373385 5.34687 0
M  V30 7383 H 706.451 -1.11034 4.0122 0
M  V30 7384 H 706.984 0.586663 3.9345 0
M  V30 7385 H 703.723 2.84539 5.90523 0
M  V30 7386 H 703.243 1.13288 5.89004 0
M  V30 7387 H 704.922 1.58827 6.27203 0
M  V30 7388 N 705.054 -1.51416 0.437162 0
M  V30 7389 C 706.331 -1.94682 -0.189292 0
M  V30 7390 C 706.711 -1.37581 -1.60108 0
M  V30 7391 O 706.059 -0.562815 -2.2146 0
M  V30 7392 C 706.269 -3.48599 -0.167201 0
M  V30 7393 C 707.617 -4.2296 -0.372856 0
M  V30 7394 O 708.641 -3.55354 -0.245323 0
M  V30 7395 O 707.5 -5.42895 -0.626693 0
M  V30 7396 H 704.594 -0.816708 -0.130063 0
M  V30 7397 H 707.14 -1.62316 0.495128 0
M  V30 7398 H 705.912 -3.82616 0.81981 0
M  V30 7399 H 705.535 -3.87406 -0.894537 0
M  V30 7400 N 706.532 -0.168513 -1.56696 0
M  V30 7401 C 707.781 0.477233 -1.95973 0
M  V30 7402 C 708.094 1.64578 -1.05704 0
M  V30 7403 O 709.3 2.35758 -1.3465 0
M  V30 7404 C 707.756 0.900413 -3.48455 0
M  V30 7405 C 707.364 -0.242382 -4.47344 0
M  V30 7406 C 709.108 1.51474 -3.96555 0
M  V30 7407 C 707.015 0.200272 -5.91061 0
M  V30 7408 H 705.945 0.182061 -0.73169 0
M  V30 7409 H 708.596 -0.256297 -1.81701 0
M  V30 7410 H 706.978 1.68984 -3.58135 0
M  V30 7411 H 708.152 -1.01967 -4.49377 0
M  V30 7412 H 706.467 -0.766484 -4.09285 0
M  V30 7413 H 709.064 1.85792 -5.01384 0
M  V30 7414 H 709.407 2.41163 -3.39332 0
M  V30 7415 H 709.94 0.789802 -3.89881 0
M  V30 7416 H 706.679 -0.661775 -6.52151 0
M  V30 7417 H 706.199 0.942979 -5.92341 0
M  V30 7418 H 707.878 0.645088 -6.43776 0
M  V30 7419 N 708.01 1.57248 0.105221 0
M  V30 7420 C 708.94 2.04374 1.12931 0
M  V30 7421 C 709.921 0.93074 1.42377 0
M  V30 7422 O 711.106 1.20136 1.52581 0
M  V30 7423 C 708.236 2.45967 2.45189 0
M  V30 7424 C 707.19 3.60838 2.30174 0
M  V30 7425 C 706.516 3.88374 3.67518 0
M  V30 7426 C 707.816 4.92084 1.75073 0
M  V30 7427 H 709.51 2.9018 0.737287 0
M  V30 7428 H 707.056 1.39601 0.353211 0
M  V30 7429 H 709.009 2.77542 3.17094 0
M  V30 7430 H 707.733 1.57148 2.86308 0
M  V30 7431 H 706.392 3.29493 1.60716 0
M  V30 7432 H 706.04 2.96739 4.06147 0
M  V30 7433 H 705.74 4.65703 3.58321 0
M  V30 7434 H 707.264 4.22415 4.40906 0
M  V30 7435 H 708.678 5.22106 2.36809 0
M  V30 7436 H 707.075 5.73507 1.76662 0
M  V30 7437 H 708.145 4.79684 0.709347 0
M  V30 7438 N 709.488 -0.375779 1.53054 0
M  V30 7439 C 710.398 -1.48381 1.81715 0
M  V30 7440 C 711.414 -1.59087 0.704795 0
M  V30 7441 O 712.59 -1.75174 0.993785 0
M  V30 7442 C 709.655 -2.83767 1.99192 0
M  V30 7443 C 708.716 -2.82673 3.23102 0
M  V30 7444 C 707.949 -4.11601 3.39736 0
M  V30 7445 O 708.172 -5.07243 2.60885 0
M  V30 7446 O 707.106 -4.18034 4.33049 0
M  V30 7447 H 710.932 -1.27089 2.7583 0
M  V30 7448 H 708.517 -0.564902 1.38308 0
M  V30 7449 H 710.399 -3.64004 2.12318 0
M  V30 7450 H 709.074 -3.05057 1.08267 0
M  V30 7451 H 707.981 -2.0117 3.15407 0
M  V30 7452 H 709.314 -2.66335 4.13916 0
M  V30 7453 N 710.966 -1.44241 -0.634997 0
M  V30 7454 C 712.382 -1.28043 -0.952742 0
M  V30 7455 C 712.582 -0.21338 -2.00367 0
M  V30 7456 O 711.638 0.402042 -2.49279 0
M  V30 7457 C 712.951 -2.65076 -1.41968 0
M  V30 7458 C 714.499 -2.72755 -1.53537 0
M  V30 7459 C 714.974 -4.10249 -2.03616 0
M  V30 7460 N 716.465 -4.12406 -2.10892 0
M  V30 7461 C 717.2 -5.15641 -2.50803 0
M  V30 7462 N 716.696 -6.29239 -2.89879 0
M  V30 7463 N 718.489 -5.02995 -2.50903 0
M  V30 7464 H 710.64 -2.12315 0.060098 0
M  V30 7465 H 712.903 -0.947326 -0.0357325 0
M  V30 7466 H 712.609 -3.44213 -0.721804 0
M  V30 7467 H 712.483 -2.91704 -2.39141 0
M  V30 7468 H 714.87 -1.93939 -2.22422 0
M  V30 7469 H 714.951 -2.49872 -0.547496 0
M  V30 7470 H 714.595 -4.8954 -1.35327 0
M  V30 7471 H 714.525 -4.30507 -3.03268 0
M  V30 7472 H 717.016 -3.30417 -1.83393 0
M  V30 7473 H 717.329 -7.03827 -3.19135 0
M  V30 7474 H 715.674 -6.32683 -2.8764 0
M  V30 7475 H 718.865 -4.13306 -2.19763 0
M  V30 7476 H 719.038 -5.83574 -2.81683 0
M  V30 7477 N 712.444 0.87505 -1.31075 0
M  V30 7478 C 713.354 2.01441 -1.20244 0
M  V30 7479 C 714.37 1.73584 -0.120227 0
M  V30 7480 O 715.546 1.98559 -0.337063 0
M  V30 7481 C 712.611 3.34675 -0.905199 0
M  V30 7482 C 711.672 3.75889 -2.0738 0
M  V30 7483 C 710.905 5.02764 -1.79064 0
M  V30 7484 O 711.128 5.65795 -0.723318 0
M  V30 7485 O 710.062 5.40623 -2.64594 0
M  V30 7486 H 713.888 2.13509 -2.1598 0
M  V30 7487 H 711.473 1.00257 -1.10765 0
M  V30 7488 H 713.355 4.1458 -0.755057 0
M  V30 7489 H 712.03 3.23692 0.0221695 0
M  V30 7490 H 710.937 2.96645 -2.27931 0
M  V30 7491 H 712.27 3.91489 -2.98324 0
M  V30 7492 N 713.922 1.13953 1.08869 0
M  V30 7493 C 714.852 0.844824 2.17681 0
M  V30 7494 C 715.833 -0.198213 1.68941 0
M  V30 7495 O 717.018 -0.0559073 1.9412 0
M  V30 7496 C 714.148 0.316325 3.45856 0
M  V30 7497 C 713.102 1.29426 4.07962 0
M  V30 7498 C 712.428 0.625275 5.31031 0
M  V30 7499 C 713.728 2.65484 4.49795 0
M  V30 7500 H 715.422 1.75471 2.42591 0
M  V30 7501 H 712.968 0.845116 1.16592 0
M  V30 7502 H 714.921 0.0977876 4.21287 0
M  V30 7503 H 713.645 -0.628972 3.20486 0
M  V30 7504 H 712.304 1.49889 3.34558 0
M  V30 7505 H 711.952 -0.325678 5.01945 0
M  V30 7506 H 711.652 1.27777 5.73539 0
M  V30 7507 H 713.176 0.416152 6.0918 0
M  V30 7508 H 714.59 2.48957 5.16424 0
M  V30 7509 H 712.987 3.26963 5.03205 0
M  V30 7510 H 714.057 3.22717 3.61914 0
M  V30 7511 N 715.4 -1.26948 0.933913 0
M  V30 7512 C 716.348 -2.2862 0.428463 0
M  V30 7513 C 717.342 -1.62144 -0.490464 0
M  V30 7514 O 718.548 -1.76167 -0.36948 0
M  V30 7515 H 714.923 -0.742363 0.120003 0
M  V30 7516 H 716.894 -2.68659 1.29865 0
M  V30 7517 C 715.643 -3.46423 -0.29774 0
M  V30 7518 H 714.966 -3.97792 0.400183 0
M  V30 7519 H 716.406 -4.19505 -0.615736 0
M  V30 7520 C 714.865 -3.01017 -1.51295 0
M  V30 7521 O 715.395 -3.05226 -2.61151 0
M  V30 7522 N 713.601 -2.56442 -1.36696 0
M  V30 7523 H 713.148 -2.53217 -0.473178 0
M  V30 7524 H 713.106 -2.26424 -2.18127 0
M  V30 7525 N 716.879 -0.700114 -1.41195 0
M  V30 7526 C 718.128 -0.230082 -2.00383 0
M  V30 7527 C 718.441 1.17857 -1.56106 0
M  V30 7528 O 719.647 1.74631 -2.07885 0
M  V30 7529 C 718.103 -0.360447 -3.5809 0
M  V30 7530 C 717.711 -1.77475 -4.11347 0
M  V30 7531 C 719.455 0.0495799 -4.24471 0
M  V30 7532 C 717.362 -1.85653 -5.61504 0
M  V30 7533 H 716.292 -0.0822633 -0.749499 0
M  V30 7534 H 718.943 -0.868969 -1.6162 0
M  V30 7535 H 717.325 0.346768 -3.94479 0
M  V30 7536 H 718.499 -2.51109 -3.86369 0
M  V30 7537 H 716.814 -2.13486 -3.57509 0
M  V30 7538 H 719.411 0.00898219 -5.34699 0
M  V30 7539 H 719.754 1.08904 -4.01803 0
M  V30 7540 H 720.287 -0.607521 -3.93134 0
M  V30 7541 H 717.026 -2.87667 -5.89006 0
M  V30 7542 H 716.546 -1.1641 -5.88395 0
M  V30 7543 H 718.225 -1.62151 -6.26351 0
M  V30 7544 N 718.357 1.51182 -0.445186 0
M  V30 7545 C 719.606 2.01342 0.120189 0
M  V30 7546 C 719.919 1.33353 1.43095 0
M  V30 7547 O 721.125 1.74525 2.07974 0
M  V30 7548 C 719.581 3.58925 0.264732 0
M  V30 7549 C 719.189 4.35855 -1.03606 0
M  V30 7550 C 720.933 4.17208 0.783455 0
M  V30 7551 C 718.84 5.85162 -0.856731 0
M  V30 7552 H 717.77 0.752426 0.0486922 0
M  V30 7553 H 720.421 1.74221 -0.576143 0
M  V30 7554 H 718.803 3.82525 1.02425 0
M  V30 7555 H 719.977 4.23997 -1.80452 0
M  V30 7556 H 718.292 3.89062 -1.48391 0
M  V30 7557 H 720.889 5.26475 0.934239 0
M  V30 7558 H 721.232 3.76892 1.768 0
M  V30 7559 H 721.765 3.97715 0.0820346 0
M  V30 7560 H 718.504 6.29904 -1.81388 0
M  V30 7561 H 718.024 5.99663 -0.128206 0
M  V30 7562 H 719.703 6.44963 -0.513027 0
M  V30 7563 N 719.835 0.176821 1.56605 0
M  V30 7564 C 721.084 -0.466833 1.96223 0
M  V30 7565 C 721.397 -1.64015 1.06576 0
M  V30 7566 O 722.603 -2.3504 1.35898 0
M  V30 7567 C 721.059 -0.881921 3.48927 0
M  V30 7568 C 720.667 0.266102 4.47209 0
M  V30 7569 C 722.411 -1.49368 3.97353 0
M  V30 7570 C 720.318 -0.168923 5.91159 0
M  V30 7571 H 719.248 -0.178178 0.732645 0
M  V30 7572 H 721.899 0.265929 1.81563 0
M  V30 7573 H 720.281 -1.67082 3.59026 0
M  V30 7574 H 721.455 1.04349 4.4883 0
M  V30 7575 H 719.77 0.788178 4.08872 0
M  V30 7576 H 722.367 -1.8313 5.02362 0
M  V30 7577 H 722.71 -2.3936 3.40606 0
M  V30 7578 H 723.243 -0.769114 3.90294 0
M  V30 7579 H 719.982 0.696351 6.51791 0
M  V30 7580 H 719.502 -0.911552 5.92833 0
M  V30 7581 H 721.181 -0.610938 6.44109 0
M  V30 7582 N 721.313 -1.57302 -0.09688 0
M  V30 7583 C 722.263 -1.98369 -1.12399 0
M  V30 7584 C 723.247 -0.861872 -1.3587 0
M  V30 7585 O 724.439 -1.1257 -1.36591 0
M  V30 7586 C 721.568 -2.41017 -2.4447 0
M  V30 7587 C 720.654 -3.59881 -2.24381 0
M  V30 7588 N 721.045 -4.74872 -1.74155 0
M  V30 7589 C 719.343 -3.65943 -2.54954 0
M  V30 7590 C 720.044 -5.56823 -1.68294 0
M  V30 7591 N 719.02 -4.99942 -2.13444 0
M  V30 7592 H 722.822 -2.84726 -0.728575 0
M  V30 7593 H 720.336 -1.59523 -0.304332 0
M  V30 7594 H 722.333 -2.68665 -3.18786 0
M  V30 7595 H 720.993 -1.56036 -2.84751 0
M  V30 7596 H 722.004 -4.97657 -1.43379 0
M  V30 7597 H 718.681 -2.9162 -2.98771 0
M  V30 7598 H 720.071 -6.59099 -1.30528 0
M  V30 7599 N 722.791 0.367657 -1.53252 0
M  V30 7600 C 723.723 1.47032 -1.75824 0
M  V30 7601 C 724.736 1.49736 -0.63898 0
M  V30 7602 O 725.925 1.53253 -0.915193 0
M  V30 7603 C 723.025 2.85805 -1.82122 0
M  V30 7604 C 722.198 3.06822 -3.11736 0
M  V30 7605 C 721.257 4.25698 -3.09302 0
M  V30 7606 O 720.283 4.20972 -3.83107 0
M  V30 7607 N 721.485 5.33002 -2.29977 0
M  V30 7608 H 724.25 1.28048 -2.70968 0
M  V30 7609 H 721.811 0.557363 -1.52004 0
M  V30 7610 H 723.803 3.63465 -1.77975 0
M  V30 7611 H 722.373 2.98046 -0.942716 0
M  V30 7612 H 721.593 2.1684 -3.29202 0
M  V30 7613 H 722.881 3.17731 -3.97397 0
M  V30 7614 H 722.279 5.39703 -1.69521 0
M  V30 7615 H 720.836 6.09247 -2.3165 0
M  V30 7616 N 724.269 1.44576 0.627338 0
M  V30 7617 C 725.199 1.54562 1.75022 0
M  V30 7618 C 726.18 0.398378 1.65369 0
M  V30 7619 O 727.365 0.61899 1.84071 0
M  V30 7620 C 724.495 1.49309 3.13567 0
M  V30 7621 C 723.449 2.62549 3.38012 0
M  V30 7622 C 722.775 2.42348 4.76625 0
M  V30 7623 C 724.075 4.04678 3.30202 0
M  V30 7624 H 725.769 2.4855 1.66922 0
M  V30 7625 H 723.315 1.19624 0.801636 0
M  V30 7626 H 725.268 1.54895 3.919 0
M  V30 7627 H 723.992 0.518392 3.2246 0
M  V30 7628 H 722.651 2.56358 2.62061 0
M  V30 7629 H 722.299 1.43062 4.82226 0
M  V30 7630 H 721.999 3.18273 4.93939 0
M  V30 7631 H 723.523 2.49758 5.57183 0
M  V30 7632 H 724.937 4.12217 3.98435 0
M  V30 7633 H 723.334 4.80836 3.5905 0
M  V30 7634 H 724.404 4.2798 2.27949 0
M  V30 7635 N 725.747 -0.868086 1.31537 0
M  V30 7636 C 726.987 -1.63526 1.22632 0
M  V30 7637 C 727.351 -1.90828 -0.211815 0
M  V30 7638 O 728.552 -2.65429 -0.424387 0
M  V30 7639 C 726.823 -2.92849 2.04876 0
M  V30 7640 S 728.382 -3.83717 2.12853 0
M  V30 7641 H 725.2 -0.56105 0.436743 0
M  V30 7642 H 727.802 -1.02908 1.66223 0
M  V30 7643 H 726.506 -2.70717 3.08449 0
M  V30 7644 H 726.037 -3.58491 1.62011 0
M  V30 7645 H 728.052 -4.79719 1.26822 0
M  V30 7646 N 727.225 -1.14528 -1.08264 0
M  V30 7647 C 728.157 -0.791325 -2.15106 0
M  V30 7648 C 729.17 0.192449 -1.61659 0
M  V30 7649 O 730.359 -0.0294704 -1.78476 0
M  V30 7650 C 727.459 -0.154183 -3.38549 0
M  V30 7651 C 726.632 -1.17305 -4.21377 0
M  V30 7652 C 725.691 -0.559401 -5.23218 0
M  V30 7653 O 724.717 -1.22277 -5.55911 0
M  V30 7654 N 725.919 0.663159 -5.767 0
M  V30 7655 H 728.684 -1.71076 -2.46075 0
M  V30 7656 H 726.245 -1.0399 -1.24087 0
M  V30 7657 H 728.237 0.268884 -4.03806 0
M  V30 7658 H 726.807 0.668418 -3.0537 0
M  V30 7659 H 726.027 -1.773 -3.52077 0
M  V30 7660 H 727.315 -1.86128 -4.73533 0
M  V30 7661 H 726.713 1.22066 -5.52373 0
M  V30 7662 H 725.27 1.02871 -6.43631 0
M  V30 7663 N 728.703 1.26451 -0.940633 0
M  V30 7664 C 729.613 2.30128 -0.455881 0
M  V30 7665 C 730.629 1.67536 0.469867 0
M  V30 7666 O 731.805 1.98344 0.349529 0
M  V30 7667 C 728.87 3.45634 0.271648 0
M  V30 7668 C 727.931 4.23709 -0.690594 0
M  V30 7669 C 727.164 5.337 0.00231047 0
M  V30 7670 O 727.387 5.57215 1.21935 0
M  V30 7671 O 726.321 5.98091 -0.676111 0
M  V30 7672 H 730.147 2.73655 -1.31707 0
M  V30 7673 H 727.732 1.3164 -0.706497 0
M  V30 7674 H 729.614 4.15853 0.681486 0
M  V30 7675 H 728.289 3.04138 1.10824 0
M  V30 7676 H 727.196 3.55974 -1.15037 0
M  V30 7677 H 728.529 4.68953 -1.49478 0
M  V30 7678 N 730.181 0.707592 1.40822 0
M  V30 7679 C 731.128 0.0499029 2.30746 0
M  V30 7680 C 732.098 -0.758718 1.47759 0
M  V30 7681 O 733.283 -0.724299 1.76518 0
M  V30 7682 C 730.423 -0.871756 3.33908 0
M  V30 7683 C 729.536 -0.0534655 4.31967 0
M  V30 7684 C 728.671 -0.973869 5.22197 0
M  V30 7685 C 727.71 -0.149194 6.11918 0
M  V30 7686 N 726.847 -1.02404 6.94592 0
M  V30 7687 H 731.687 0.822461 2.86426 0
M  V30 7688 H 729.224 0.417285 1.41057 0
M  V30 7689 H 731.182 -1.42028 3.9228 0
M  V30 7690 H 729.812 -1.61058 2.7975 0
M  V30 7691 H 728.864 0.612142 3.75442 0
M  V30 7692 H 730.176 0.585354 4.95353 0
M  V30 7693 H 729.33 -1.59121 5.85462 0
M  V30 7694 H 728.069 -1.64652 4.59065 0
M  V30 7695 H 727.074 0.481137 5.47691 0
M  V30 7696 H 728.299 0.519841 6.77107 0
M  V30 7697 H 726.245 -1.6825 6.34057 0
M  V30 7698 H 726.162 -0.441076 7.54712 0
M  V30 7699 H 727.43 -1.62782 7.62314 0
M  V30 7700 N 731.66 -1.50943 0.453197 0
M  V30 7701 C 733.071 -1.86699 -0.00619892 0
M  V30 7702 C 733.422 -1.3693 -1.40515 0
M  V30 7703 O 732.547 -0.726715 -2.03833 0
M  V30 7704 C 733.142 -3.38795 -0.018025 0
M  V30 7705 C 731.701 -3.74028 -0.421885 0
M  V30 7706 C 730.848 -2.74752 0.375087 0
M  V30 7707 H 733.799 -1.43942 0.668317 0
M  V30 7708 H 733.82 -3.71468 -0.824125 0
M  V30 7709 H 733.332 -3.74988 1.00028 0
M  V30 7710 H 731.433 -3.43431 -1.44521 0
M  V30 7711 H 731.546 -4.78908 -0.135664 0
M  V30 7712 H 729.91 -2.5414 -0.168794 0
M  V30 7713 H 730.693 -3.13787 1.39256 0
M  V30 7714 N 733.138 -0.185124 -1.56509 0
M  V30 7715 C 734.554 0.170865 -1.58683 0
M  V30 7716 C 734.754 1.61799 -1.20098 0
M  V30 7717 O 733.81 2.35181 -0.919038 0
M  V30 7718 C 735.123 -0.122459 -3.00451 0
M  V30 7719 C 736.671 -0.0617699 -3.12939 0
M  V30 7720 C 737.146 -0.328269 -4.56822 0
M  V30 7721 N 738.637 -0.276533 -4.62374 0
M  V30 7722 C 739.372 -0.456722 -5.71578 0
M  V30 7723 N 738.868 -0.69672 -6.89288 0
M  V30 7724 N 740.661 -0.391669 -5.60734 0
M  V30 7725 H 732.812 -1.12956 -1.79874 0
M  V30 7726 H 735.075 -0.45011 -0.834329 0
M  V30 7727 H 734.781 -1.12546 -3.33206 0
M  V30 7728 H 734.655 0.579578 -3.72721 0
M  V30 7729 H 737.042 0.931826 -2.80002 0
M  V30 7730 H 737.123 -0.796732 -2.43076 0
M  V30 7731 H 736.767 -1.31914 -4.9047 0
M  V30 7732 H 736.697 0.427465 -5.24862 0
M  V30 7733 H 739.188 -0.0972458 -3.77775 0
M  V30 7734 H 739.501 -0.823291 -7.68402 0
M  V30 7735 H 737.846 -0.733497 -6.91119 0
M  V30 7736 H 741.037 -0.204663 -4.67652 0
M  V30 7737 H 741.21 -0.535518 -6.45783 0
M  V30 7738 N 734.616 1.57351 0.0885366 0
M  V30 7739 C 735.862 1.86696 0.791996 0
M  V30 7740 C 736.195 0.775148 1.78059 0
M  V30 7741 O 735.47 -0.216247 1.93294 0
M  V30 7742 C 735.753 3.26684 1.51491 0
M  V30 7743 C 735.606 4.465 0.543858 0
M  V30 7744 C 736.925 3.64664 2.46391 0
M  V30 7745 H 734.044 0.679049 0.286463 0
M  V30 7746 H 736.686 1.89919 0.0554866 0
M  V30 7747 H 734.836 3.24067 2.14273 0
M  V30 7748 H 736.508 4.61235 -0.0774597 0
M  V30 7749 H 734.751 4.33567 -0.142228 0
M  V30 7750 H 735.422 5.41192 1.08696 0
M  V30 7751 H 737.898 3.68267 1.93698 0
M  V30 7752 H 736.774 4.63534 2.93986 0
M  V30 7753 H 737.035 2.93698 3.30445 0
M  V30 7754 N 736.094 -0.359525 1.53444 0
M  V30 7755 C 737.041 -1.44073 1.8031 0
M  V30 7756 C 738.011 -1.52946 0.647811 0
M  V30 7757 O 739.196 -1.68739 0.890614 0
M  V30 7758 C 736.336 -2.80941 2.00416 0
M  V30 7759 C 735.449 -2.80986 3.28132 0
M  V30 7760 C 734.584 -4.09468 3.38393 0
M  V30 7761 C 733.623 -4.03679 4.60119 0
M  V30 7762 N 732.76 -5.23821 4.675 0
M  V30 7763 H 737.6 -1.20464 2.72566 0
M  V30 7764 H 735.137 -0.583859 1.35017 0
M  V30 7765 H 737.095 -3.60459 2.1006 0
M  V30 7766 H 735.725 -3.02936 1.11489 0
M  V30 7767 H 734.777 -1.93666 3.27411 0
M  V30 7768 H 736.089 -2.72583 4.17732 0
M  V30 7769 H 735.243 -4.97404 3.47382 0
M  V30 7770 H 733.982 -4.20632 2.4682 0
M  V30 7771 H 732.987 -3.14129 4.51224 0
M  V30 7772 H 734.212 -3.94112 5.5304 0
M  V30 7773 H 732.158 -5.35559 3.7883 0
M  V30 7774 H 732.075 -5.17611 5.51013 0
M  V30 7775 H 733.343 -6.13572 4.8078 0
M  V30 7776 N 737.572 -1.44907 -0.619662 0
M  V30 7777 C 738.519 -1.52654 -1.73105 0
M  V30 7778 C 739.489 -0.373334 -1.6185 0
M  V30 7779 O 740.674 -0.585143 -1.81606 0
M  V30 7780 C 737.814 -1.48769 -3.11387 0
M  V30 7781 C 736.927 -2.74551 -3.33535 0
M  V30 7782 C 736.062 -2.62421 -4.61854 0
M  V30 7783 C 735.101 -3.83312 -4.77219 0
M  V30 7784 N 734.238 -3.69789 -5.96826 0
M  V30 7785 H 739.078 -2.47605 -1.65819 0
M  V30 7786 H 736.615 -1.22875 -0.808719 0
M  V30 7787 H 738.573 -1.44507 -3.91374 0
M  V30 7788 H 737.203 -0.573783 -3.1766 0
M  V30 7789 H 736.255 -2.88953 -2.47408 0
M  V30 7790 H 737.567 -3.64253 -3.40765 0
M  V30 7791 H 736.721 -2.56056 -5.50019 0
M  V30 7792 H 735.46 -1.70298 -4.57001 0
M  V30 7793 H 734.465 -3.90049 -3.87481 0
M  V30 7794 H 735.69 -4.76486 -4.83878 0
M  V30 7795 H 733.636 -2.80426 -5.93041 0
M  V30 7796 H 733.553 -4.53116 -6.05163 0
M  V30 7797 H 734.821 -3.67335 -6.87521 0
M  V30 7798 N 739.05 0.861098 -1.31996 0
M  V30 7799 C 740.466 1.14827 -1.10846 0
M  V30 7800 C 740.666 2.0117 0.11528 0
M  V30 7801 O 739.722 2.39423 0.802048 0
M  V30 7802 C 741.035 1.83183 -2.38462 0
M  V30 7803 C 742.583 1.95847 -2.44158 0
M  V30 7804 C 743.058 2.67617 -3.71679 0
M  V30 7805 N 744.549 2.75147 -3.72624 0
M  V30 7806 C 745.284 3.31314 -4.67994 0
M  V30 7807 N 744.78 3.88343 -5.73726 0
M  V30 7808 N 746.573 3.29356 -4.55501 0
M  V30 7809 H 738.724 0.285951 -2.10466 0
M  V30 7810 H 740.987 0.189303 -0.928907 0
M  V30 7811 H 740.693 1.27193 -3.27895 0
M  V30 7812 H 740.567 2.83393 -2.48935 0
M  V30 7813 H 742.954 2.50999 -1.55189 0
M  V30 7814 H 743.035 0.94653 -2.37644 0
M  V30 7815 H 742.679 2.13131 -4.61018 0
M  V30 7816 H 742.609 3.69237 -3.75462 0
M  V30 7817 H 745.1 2.34682 -2.96197 0
M  V30 7818 H 745.413 4.29338 -6.42564 0
M  V30 7819 H 743.758 3.86693 -5.77489 0
M  V30 7820 H 746.949 2.84047 -3.72069 0
M  V30 7821 H 747.122 3.7283 -5.30001 0
M  V30 7822 N 740.528 1.15101 1.07655 0
M  V30 7823 C 741.475 0.844958 2.14777 0
M  V30 7824 C 742.445 -0.200798 1.64882 0
M  V30 7825 O 743.63 -0.0690278 1.90675 0
M  V30 7826 C 740.77 0.337018 3.4345 0
M  V30 7827 C 739.883 1.44398 4.07153 0
M  V30 7828 C 739.018 0.892487 5.23649 0
M  V30 7829 C 738.057 1.9766 5.79307 0
M  V30 7830 N 737.194 1.44171 6.87138 0
M  V30 7831 H 742.034 1.76242 2.40297 0
M  V30 7832 H 739.571 0.879435 1.17917 0
M  V30 7833 H 741.529 0.024256 4.17193 0
M  V30 7834 H 740.159 -0.543531 3.18191 0
M  V30 7835 H 739.211 1.87299 3.31094 0
M  V30 7836 H 740.523 2.26262 4.4453 0
M  V30 7837 H 739.677 0.532083 6.04362 0
M  V30 7838 H 738.416 0.0429854 4.87681 0
M  V30 7839 H 737.421 2.34586 4.97242 0
M  V30 7840 H 738.646 2.82982 6.17331 0
M  V30 7841 H 736.592 0.614518 6.53115 0
M  V30 7842 H 736.509 2.19665 7.23383 0
M  V30 7843 H 737.777 1.10945 7.71564 0
M  V30 7844 N 742.006 -1.2595 0.947325 0
M  V30 7845 C 743.254 -1.93081 0.596996 0
M  V30 7846 C 743.575 -1.74632 -0.867672 0
M  V30 7847 O 742.845 -1.1056 -1.6172 0
M  V30 7848 H 741.425 -0.714542 0.217805 0
M  V30 7849 H 744.087 -1.53265 1.20398 0
M  V30 7850 H 743.183 -3.01134 0.82004 0
M  V30 7851 N 743.484 -0.715051 -1.40445 0
M  V30 7852 C 744.431 -0.0621393 -2.30716 0
M  V30 7853 C 745.401 0.750871 -1.48159 0
M  V30 7854 O 746.586 0.714928 -1.76899 0
M  V30 7855 C 743.726 0.854036 -3.34365 0
M  V30 7856 C 742.839 0.0305565 -4.31989 0
M  V30 7857 C 741.974 0.946162 -5.22706 0
M  V30 7858 C 741.013 0.116741 -6.11989 0
M  V30 7859 N 740.15 0.987194 -6.95125 0
M  V30 7860 H 744.99 -0.83764 -2.85985 0
M  V30 7861 H 742.527 -0.424759 -1.40834 0
M  V30 7862 H 744.485 1.39946 -3.93028 0
M  V30 7863 H 743.115 1.59572 -2.806 0
M  V30 7864 H 742.167 -0.632044 -3.75112 0
M  V30 7865 H 743.479 -0.611615 -4.95036 0
M  V30 7866 H 742.633 1.56014 -5.86297 0
M  V30 7867 H 741.372 1.62216 -4.59932 0
M  V30 7868 H 740.377 -0.510176 -5.47428 0
M  V30 7869 H 741.602 -0.555742 -6.76822 0
M  V30 7870 H 739.548 1.64885 -6.3494 0
M  V30 7871 H 739.465 0.401046 -7.54936 0
M  V30 7872 H 740.733 1.58737 -7.63166 0
M  V30 7873 N 744.962 1.50701 -0.461195 0
M  V30 7874 C 746.209 2.02267 0.0971971 0
M  V30 7875 C 746.537 1.34387 1.40608 0
M  V30 7876 O 745.792 0.455254 1.90331 0
M  V30 7877 C 746.091 3.55788 0.33908 0
M  V30 7878 C 745.757 4.42092 -0.886885 0
M  V30 7879 C 744.419 4.65398 -1.22304 0
M  V30 7880 C 746.771 4.92571 -1.70361 0
M  V30 7881 C 744.099 5.36429 -2.37616 0
M  V30 7882 C 746.451 5.64868 -2.84793 0
M  V30 7883 C 745.115 5.86431 -3.18834 0
M  V30 7884 H 744.385 0.740146 0.0355669 0
M  V30 7885 H 747.032 1.81415 -0.61326 0
M  V30 7886 H 745.337 3.751 1.13168 0
M  V30 7887 H 747.034 3.93243 0.784937 0
M  V30 7888 H 743.624 4.24165 -0.614981 0
M  V30 7889 H 747.808 4.74428 -1.4571 0
M  V30 7890 H 743.064 5.51333 -2.64276 0
M  V30 7891 H 747.238 6.02966 -3.48432 0
M  V30 7892 H 744.865 6.41248 -4.08296 0
M  V30 7893 N 746.441 0.193421 1.56409 0
M  V30 7894 C 747.857 -0.162447 1.58771 0
M  V30 7895 C 748.057 -1.6116 1.20954 0
M  V30 7896 O 747.113 -2.3469 0.931497 0
M  V30 7897 C 748.426 0.138391 3.00381 0
M  V30 7898 C 749.974 0.0783649 3.12902 0
M  V30 7899 C 750.449 0.352491 4.56642 0
M  V30 7900 N 751.94 0.30105 4.62221 0
M  V30 7901 C 752.675 0.487028 5.71328 0
M  V30 7902 N 752.171 0.733265 6.88909 0
M  V30 7903 N 753.964 0.4214 5.60518 0
M  V30 7904 H 746.115 1.13909 1.79272 0
M  V30 7905 H 748.378 0.454528 0.83193 0
M  V30 7906 H 748.084 1.14312 3.32604 0
M  V30 7907 H 747.958 -0.559804 3.73023 0
M  V30 7908 H 750.345 -0.916963 2.80492 0
M  V30 7909 H 750.426 0.809611 2.4265 0
M  V30 7910 H 750.07 1.34513 4.89764 0
M  V30 7911 H 750 -0.399624 5.25081 0
M  V30 7912 H 752.491 0.117279 3.77718 0
M  V30 7913 H 752.804 0.86403 7.67955 0
M  V30 7914 H 751.149 0.770138 6.9072 0
M  V30 7915 H 754.34 0.229461 4.67537 0
M  V30 7916 H 754.513 0.569758 6.4549 0
M  V30 7917 N 747.919 -1.57396 -0.0801906 0
M  V30 7918 C 748.866 -2.03107 -1.09618 0
M  V30 7919 C 749.836 -0.910118 -1.38946 0
M  V30 7920 O 751.021 -1.17719 -1.50156 0
M  V30 7921 C 748.161 -2.47293 -2.40708 0
M  V30 7922 C 747.274 -3.72972 -2.17982 0
M  V30 7923 C 746.409 -4.05975 -3.42576 0
M  V30 7924 C 745.448 -5.24719 -3.15177 0
M  V30 7925 N 744.585 -5.53401 -4.32078 0
M  V30 7926 H 749.425 -2.89677 -0.69939 0
M  V30 7927 H 746.962 -1.43263 -0.333785 0
M  V30 7928 H 748.92 -2.7096 -3.17232 0
M  V30 7929 H 747.55 -1.63713 -2.78205 0
M  V30 7930 H 746.602 -3.56693 -1.32189 0
M  V30 7931 H 747.914 -4.59638 -1.93738 0
M  V30 7932 H 747.068 -4.30498 -4.275 0
M  V30 7933 H 745.807 -3.17859 -3.69887 0
M  V30 7934 H 744.812 -5 -2.28648 0
M  V30 7935 H 746.037 -6.14445 -2.89197 0
M  V30 7936 H 743.983 -4.68245 -4.59437 0
M  V30 7937 H 743.9 -6.34469 -4.11078 0
M  V30 7938 H 745.168 -5.8247 -5.18024 0
M  V30 7939 N 749.397 0.351382 -1.53633 0
M  V30 7940 C 750.622 1.11718 -1.74739 0
M  V30 7941 C 751.047 1.81829 -0.481657 0
M  V30 7942 O 750.405 1.72264 0.565233 0
M  V30 7943 C 750.453 2.11234 -2.92254 0
M  V30 7944 O 749.557 3.186 -2.61855 0
M  V30 7945 H 748.898 0.323482 -0.579875 0
M  V30 7946 H 751.428 0.404167 -2.00568 0
M  V30 7947 H 751.438 2.54591 -3.18822 0
M  V30 7948 H 750.113 1.59599 -3.84058 0
M  V30 7949 H 748.69 2.80115 -2.4615 0
M  V30 7950 N 750.875 1.45233 0.611969 0
M  V30 7951 C 752.291 1.29542 0.932251 0
M  V30 7952 C 752.491 0.24523 2.00002 0
M  V30 7953 O 751.547 -0.362333 2.49887 0
M  V30 7954 C 752.86 2.67301 1.37733 0
M  V30 7955 C 754.408 2.75163 1.49178 0
M  V30 7956 C 754.883 4.13437 1.97064 0
M  V30 7957 N 756.374 4.15709 2.04304 0
M  V30 7958 C 757.109 5.19566 2.42568 0
M  V30 7959 N 756.605 6.33771 2.79832 0
M  V30 7960 N 758.398 5.06923 2.42869 0
M  V30 7961 H 750.549 2.12192 -0.0938679 0
M  V30 7962 H 752.812 0.947775 0.0206569 0
M  V30 7963 H 752.518 3.45318 0.666951 0
M  V30 7964 H 752.392 2.95472 2.3447 0
M  V30 7965 H 754.779 1.97453 2.19309 0
M  V30 7966 H 754.86 2.50712 0.507674 0
M  V30 7967 H 754.504 4.91631 1.27521 0
M  V30 7968 H 754.434 4.35277 2.9638 0
M  V30 7969 H 756.925 3.33293 1.78113 0
M  V30 7970 H 757.238 7.08815 3.07898 0
M  V30 7971 H 755.583 6.37179 2.77538 0
M  V30 7972 H 758.774 4.1675 2.1316 0
M  V30 7973 H 758.947 5.87981 2.72364 0
M  V30 7974 N 752.353 -0.854086 1.3245 0
M  V30 7975 C 753.283 -1.97827 1.24044 0
M  V30 7976 C 754.264 -1.69646 0.124166 0
M  V30 7977 O 755.449 -1.91687 0.31143 0
M  V30 7978 C 752.579 -3.33673 0.963324 0
M  V30 7979 C 751.533 -3.76207 2.04089 0
M  V30 7980 C 750.859 -5.0969 1.61618 0
M  V30 7981 C 752.159 -3.91612 3.45597 0
M  V30 7982 H 753.853 -2.05118 2.18099 0
M  V30 7983 H 751.399 -0.985489 1.04996 0
M  V30 7984 H 753.352 -4.11871 0.891061 0
M  V30 7985 H 752.076 -3.26597 -0.0128649 0
M  V30 7986 H 750.735 -3.0026 2.10332 0
M  V30 7987 H 750.383 -4.99072 0.627418 0
M  V30 7988 H 750.083 -5.3912 2.33717 0
M  V30 7989 H 751.607 -5.90381 1.55829 0
M  V30 7990 H 753.021 -4.60163 3.4194 0
M  V30 7991 H 751.418 -4.3246 4.16051 0
M  V30 7992 H 752.488 -2.9451 3.85217 0
M  V30 7993 N 753.831 -1.1567 -1.07043 0
M  V30 7994 C 754.778 -0.856336 -2.14326 0
M  V30 7995 C 755.748 0.192051 -1.64986 0
M  V30 7996 O 756.933 0.0589148 -1.90709 0
M  V30 7997 C 754.073 -0.355227 -3.43267 0
M  V30 7998 C 753.186 -1.46555 -4.06381 0
M  V30 7999 C 752.321 -0.920245 -5.23168 0
M  V30 8000 C 751.36 -2.00729 -5.78251 0
M  V30 8001 N 750.497 -1.47813 -6.86364 0
M  V30 8002 H 755.337 -1.77514 -2.39359 0
M  V30 8003 H 752.874 -0.885676 -1.17449 0
M  V30 8004 H 754.832 -0.0463804 -4.17174 0
M  V30 8005 H 753.462 0.526649 -3.18475 0
M  V30 8006 H 752.514 -1.89052 -3.30096 0
M  V30 8007 H 753.826 -2.28616 -4.43324 0
M  V30 8008 H 752.98 -0.564127 -6.04072 0
M  V30 8009 H 751.719 -0.0688477 -4.87651 0
M  V30 8010 H 750.724 -2.3722 -4.95991 0
M  V30 8011 H 751.949 -2.86252 -6.15822 0
M  V30 8012 H 749.895 -0.649145 -6.5278 0
M  V30 8013 H 749.812 -2.23498 -7.22208 0
M  V30 8014 H 751.08 -1.15036 -7.70965 0
M  V30 8015 N 755.309 1.25446 -0.953992 0
M  V30 8016 C 756.239 2.28264 -0.491717 0
M  V30 8017 C 757.22 1.63717 0.461617 0
M  V30 8018 O 758.405 1.90821 0.36071 0
M  V30 8019 C 755.535 3.46525 0.231915 0
M  V30 8020 C 754.489 4.23247 -0.636098 0
M  V30 8021 C 753.815 5.34254 0.218238 0
M  V30 8022 C 755.115 4.85971 -1.91389 0
M  V30 8023 H 756.809 2.67183 -1.35106 0
M  V30 8024 H 754.355 1.2844 -0.651095 0
M  V30 8025 H 756.308 4.17576 0.566439 0
M  V30 8026 H 755.032 3.06594 1.12551 0
M  V30 8027 H 753.691 3.53978 -0.953696 0
M  V30 8028 H 753.339 4.90564 1.11156 0
M  V30 8029 H 753.039 5.86501 -0.359232 0
M  V30 8030 H 754.563 6.08138 0.547743 0
M  V30 8031 H 755.977 5.49168 -1.64581 0
M  V30 8032 H 754.374 5.48391 -2.43696 0
M  V30 8033 H 755.444 4.08192 -2.61738 0
M  V30 8034 N 756.787 0.722489 1.40064 0
M  V30 8035 C 757.734 0.0743738 2.3068 0
M  V30 8036 C 758.704 -0.743004 1.48555 0
M  V30 8037 O 759.889 -0.705536 1.77276 0
M  V30 8038 C 757.029 -0.836292 3.34814 0
M  V30 8039 C 756.142 -0.00764663 4.31999 0
M  V30 8040 C 755.277 -0.918428 5.232 0
M  V30 8041 C 754.316 -0.0842838 6.12042 0
M  V30 8042 N 753.453 -0.950316 6.95639 0
M  V30 8043 H 758.293 0.852794 2.85537 0
M  V30 8044 H 755.83 0.432222 1.40607 0
M  V30 8045 H 757.788 -1.3786 3.93765 0
M  V30 8046 H 756.418 -1.58082 2.81443 0
M  V30 8047 H 755.47 0.651928 3.74772 0
M  V30 8048 H 756.782 0.63786 4.94705 0
M  V30 8049 H 755.936 -1.52902 5.87116 0
M  V30 8050 H 754.675 -1.59774 4.60786 0
M  V30 8051 H 753.68 0.5392 5.4715 0
M  V30 8052 H 754.905 0.591628 6.76518 0
M  V30 8053 H 752.851 -1.61515 6.35806 0
M  V30 8054 H 752.768 -0.361004 7.55138 0
M  V30 8055 H 754.036 -1.54687 7.63997 0
M  V30 8056 N 758.265 -1.50454 0.469181 0
M  V30 8057 C 759.542 -1.9504 -0.147955 0
M  V30 8058 C 759.922 -1.40946 -1.57154 0
M  V30 8059 O 759.27 -0.609663 -2.20217 0
M  V30 8060 C 759.48 -3.48875 -0.0932198 0
M  V30 8061 C 760.828 -4.23655 -0.283056 0
M  V30 8062 O 761.852 -3.55795 -0.169892 0
M  V30 8063 O 760.711 -5.44102 -0.511396 0
M  V30 8064 H 757.805 -0.819283 -0.11271 0
M  V30 8065 H 760.351 -1.6123 0.529446 0
M  V30 8066 H 759.123 -3.80791 0.900784 0
M  V30 8067 H 758.746 -3.89217 -0.812161 0
M  V30 8068 N 759.743 -0.201713 -1.56304 0
M  V30 8069 C 760.991 0.434447 -1.97375 0
M  V30 8070 C 761.312 1.61692 -1.08998 0
M  V30 8071 O 760.582 1.95223 -0.162682 0
M  V30 8072 H 759.162 0.163497 -0.728888 0
M  V30 8073 H 761.824 -0.289988 -1.92731 0
M  V30 8074 H 760.92 0.774136 -3.02347 0
M  V30 8075 N 761.222 1.57436 0.0718424 0
M  V30 8076 C 762.17 2.04725 1.10411 0
M  V30 8077 C 763.164 0.952579 1.4008 0
M  V30 8078 O 764.37 1.13769 1.39487 0
M  V30 8079 H 760.745 0.652749 0.373393 0
M  V30 8080 H 762.716 2.90569 0.679126 0
M  V30 8081 C 761.465 2.5068 2.40946 0
M  V30 8082 H 760.788 3.34505 2.18967 0
M  V30 8083 H 762.228 2.87521 3.11621 0
M  V30 8084 C 760.687 1.38971 3.06902 0
M  V30 8085 O 761.217 0.731786 3.94978 0
M  V30 8086 N 759.423 1.13485 2.67525 0
M  V30 8087 H 758.97 1.67168 1.95991 0
M  V30 8088 H 758.928 0.389467 3.11978 0
M  V30 8089 N 762.7 -0.34323 1.53817 0
M  V30 8090 C 764.116 -0.686355 1.44088 0
M  V30 8091 C 764.316 -1.92426 0.597882 0
M  V30 8092 O 763.372 -2.52343 0.0889918 0
M  V30 8093 C 764.685 -0.878698 2.87575 0
M  V30 8094 C 766.233 -0.977296 2.97352 0
M  V30 8095 C 766.708 -1.20195 4.41947 0
M  V30 8096 N 768.199 -1.26915 4.45474 0
M  V30 8097 C 768.934 -1.46049 5.54488 0
M  V30 8098 N 768.43 -1.62354 6.73508 0
M  V30 8099 N 770.223 -1.48599 5.42102 0
M  V30 8100 H 762.374 0.470679 2.07119 0
M  V30 8101 H 764.637 0.148652 0.936273 0
M  V30 8102 H 764.343 -0.040602 3.51677 0
M  V30 8103 H 764.217 -1.78034 3.32541 0
M  V30 8104 H 766.604 -1.80591 2.3339 0
M  V30 8105 H 766.685 -0.0525498 2.55746 0
M  V30 8106 H 766.329 -0.378262 5.06489 0
M  V30 8107 H 766.259 -2.14027 4.81145 0
M  V30 8108 H 768.75 -1.15837 3.59708 0
M  V30 8109 H 769.063 -1.76591 7.52353 0
M  V30 8110 H 767.408 -1.5949 6.76453 0
M  V30 8111 H 770.599 -1.35443 4.48077 0
M  V30 8112 H 770.772 -1.6317 6.2712 0
M  V30 8113 N 764.178 -1.45556 -0.604258 0
M  V30 8114 C 765.427 -1.49019 -1.35928 0
M  V30 8115 C 765.74 -0.137409 -1.95117 0
M  V30 8116 O 766.946 -0.0497032 -2.71455 0
M  V30 8117 C 765.402 -2.62477 -2.46239 0
M  V30 8118 C 765.01 -4.04082 -1.93447 0
M  V30 8119 C 766.754 -2.7519 -3.23219 0
M  V30 8120 C 764.661 -5.08917 -3.0126 0
M  V30 8121 H 763.591 -0.554518 -0.510907 0
M  V30 8122 H 766.242 -1.71705 -0.647262 0
M  V30 8123 H 764.624 -2.3308 -3.2014 0
M  V30 8124 H 765.798 -4.43173 -1.26232 0
M  V30 8125 H 764.113 -3.95849 -1.29201 0
M  V30 8126 H 766.71 -3.50683 -4.0364 0
M  V30 8127 H 767.053 -1.81941 -3.74437 0
M  V30 8128 H 767.586 -3.04129 -2.56418 0
M  V30 8129 H 764.325 -6.03886 -2.54955 0
M  V30 8130 H 763.845 -4.74393 -3.67031 0
M  V30 8131 H 765.524 -5.33814 -3.65584 0
M  V30 8132 N 765.656 0.84705 -1.32902 0
M  V30 8133 C 766.881 1.63925 -1.27056 0
M  V30 8134 C 767.306 1.87443 0.157136 0
M  V30 8135 O 766.664 1.43266 1.11106 0
M  V30 8136 C 766.712 2.97134 -2.04313 0
M  V30 8137 O 765.816 3.88049 -1.39614 0
M  V30 8138 H 765.157 0.499477 -0.437514 0
M  V30 8139 H 767.687 1.05443 -1.75336 0
M  V30 8140 H 767.697 3.46896 -2.14772 0
M  V30 8141 H 766.372 2.79339 -3.08128 0
M  V30 8142 H 764.949 3.46525 -1.3775 0
M  V30 8143 N 767.134 1.16236 1.06428 0
M  V30 8144 C 768.064 0.890807 2.1584 0
M  V30 8145 C 769.045 -0.162333 1.69324 0
M  V30 8146 O 770.23 -0.0147191 1.94194 0
M  V30 8147 C 767.36 0.389615 3.45108 0
M  V30 8148 C 766.314 1.38051 4.05125 0
M  V30 8149 C 765.64 0.737773 5.29586 0
M  V30 8150 C 766.94 2.74965 4.44062 0
M  V30 8151 H 768.634 1.80577 2.38814 0
M  V30 8152 H 766.18 0.869657 1.14774 0
M  V30 8153 H 768.133 0.187127 4.20984 0
M  V30 8154 H 766.857 -0.560851 3.21748 0
M  V30 8155 H 765.516 1.56952 3.31303 0
M  V30 8156 H 765.164 -0.219135 5.02522 0
M  V30 8157 H 764.864 1.39914 5.70699 0
M  V30 8158 H 766.388 0.545275 6.0816 0
M  V30 8159 H 767.802 2.59855 5.11027 0
M  V30 8160 H 766.199 3.37563 4.96156 0
M  V30 8161 H 767.269 3.30321 3.54987 0
M  V30 8162 N 768.612 -1.24939 0.960631 0
M  V30 8163 C 770.023 -1.74701 0.658529 0
M  V30 8164 C 770.374 -1.77967 -0.825959 0
M  V30 8165 O 769.499 -1.40444 -1.64634 0
M  V30 8166 C 770.094 -3.17263 1.18867 0
M  V30 8167 C 768.653 -3.64561 0.936614 0
M  V30 8168 C 767.8 -2.43423 1.32817 0
M  V30 8169 H 770.751 -1.10741 1.13676 0
M  V30 8170 H 770.772 -3.76481 0.551589 0
M  V30 8171 H 770.284 -3.14854 2.26912 0
M  V30 8172 H 768.385 -3.72378 -0.128608 0
M  V30 8173 H 768.498 -4.52392 1.57729 0
M  V30 8174 H 766.862 -2.43513 0.746548 0
M  V30 8175 H 767.645 -2.437 2.41796 0
M  V30 8176 N 770.09 -0.729906 -1.39679 0
M  V30 8177 C 771.315 -0.284345 -2.05442 0
M  V30 8178 C 771.74 1.07056 -1.54663 0
M  V30 8179 O 771.098 1.67732 -0.688157 0
M  V30 8180 C 771.146 -0.290089 -3.59431 0
M  V30 8181 O 770.25 0.723978 -4.05995 0
M  V30 8182 H 769.591 -0.130311 -0.651088 0
M  V30 8183 H 772.121 -0.994403 -1.78809 0
M  V30 8184 H 772.131 -0.132712 -4.07784 0
M  V30 8185 H 770.806 -1.27877 -3.95753 0
M  V30 8186 H 769.383 0.533154 -3.69069 0
M  V30 8187 N 771.568 1.50203 -0.477153 0
M  V30 8188 C 772.845 1.95115 0.137609 0
M  V30 8189 C 773.225 1.41778 1.56404 0
M  V30 8190 O 772.573 0.621333 2.1989 0
M  V30 8191 C 772.783 3.4892 0.0747168 0
M  V30 8192 C 774.131 4.238 0.260585 0
M  V30 8193 O 775.155 3.5588 0.151021 0
M  V30 8194 O 774.014 5.44366 0.482534 0
M  V30 8195 H 771.108 0.81987 0.108364 0
M  V30 8196 H 773.654 1.60946 -0.537989 0
M  V30 8197 H 772.426 3.80308 -0.920966 0
M  V30 8198 H 772.049 3.89642 0.791509 0
M  V30 8199 N 773.046 0.209999 1.56195 0
M  V30 8200 C 774.293 -0.424813 1.97994 0
M  V30 8201 C 774.621 -1.60589 1.09733 0
M  V30 8202 O 773.876 -1.95201 0.139693 0
M  V30 8203 C 774.175 -0.91312 3.45539 0
M  V30 8204 C 773.841 0.156187 4.50629 0
M  V30 8205 C 772.503 0.449966 4.79092 0
M  V30 8206 C 774.855 0.879959 5.13718 0
M  V30 8207 C 772.183 1.47223 5.67928 0
M  V30 8208 C 774.535 1.89148 6.0366 0
M  V30 8209 C 773.199 2.1923 6.30472 0
M  V30 8210 H 772.469 -0.15545 0.724511 0
M  V30 8211 H 775.116 0.310095 1.88973 0
M  V30 8212 H 773.421 -1.72658 3.51705 0
M  V30 8213 H 775.118 -1.41395 3.75245 0
M  V30 8214 H 771.708 -0.0829466 4.2852 0
M  V30 8215 H 775.892 0.66623 4.91808 0
M  V30 8216 H 771.148 1.71105 5.86969 0
M  V30 8217 H 775.322 2.45745 6.516 0
M  V30 8218 H 772.949 2.98587 6.99107 0
M  V30 8219 N 774.524 -1.57472 -0.0634922 0
M  V30 8220 C 775.456 -2.00999 -1.10145 0
M  V30 8221 C 776.469 -0.917219 -1.34503 0
M  V30 8222 O 777.658 -1.19501 -1.32596 0
M  V30 8223 C 774.758 -2.34089 -2.45063 0
M  V30 8224 C 773.931 -3.65317 -2.40546 0
M  V30 8225 C 772.99 -3.85982 -3.57637 0
M  V30 8226 O 772.016 -4.5747 -3.38689 0
M  V30 8227 N 773.218 -3.28971 -4.78287 0
M  V30 8228 H 775.983 -2.90656 -0.730714 0
M  V30 8229 H 773.544 -1.59926 -0.252017 0
M  V30 8230 H 775.536 -2.4508 -3.22053 0
M  V30 8231 H 774.106 -1.50279 -2.74107 0
M  V30 8232 H 773.326 -3.65003 -1.48885 0
M  V30 8233 H 774.614 -4.51468 -2.34636 0
M  V30 8234 H 774.012 -2.70962 -4.96584 0
M  V30 8235 H 772.569 -3.45398 -5.5276 0
M  V30 8236 N 776.003 0.335068 -1.53997 0
M  V30 8237 C 776.953 1.4127 -1.7896 0
M  V30 8238 C 777.937 1.474 -0.64513 0
M  V30 8239 O 779.129 1.52127 -0.904785 0
M  V30 8240 C 776.258 2.78292 -2.01018 0
M  V30 8241 C 775.344 2.7652 -3.21555 0
M  V30 8242 N 775.735 2.44374 -4.42849 0
M  V30 8243 C 774.033 3.0766 -3.22895 0
M  V30 8244 C 774.734 2.51049 -5.24737 0
M  V30 8245 N 773.71 2.8702 -4.6165 0
M  V30 8246 H 777.512 1.15327 -2.70327 0
M  V30 8247 H 775.026 0.543483 -1.53036 0
M  V30 8248 H 777.023 3.55949 -2.17039 0
M  V30 8249 H 775.683 3.05175 -1.10898 0
M  V30 8250 H 776.694 2.17422 -4.70051 0
M  V30 8251 H 773.371 3.3966 -2.42771 0
M  V30 8252 H 774.761 2.29283 -6.31569 0
M  V30 8253 N 777.481 1.45874 0.596531 0
M  V30 8254 C 778.428 1.55389 1.70655 0
M  V30 8255 C 779.398 0.399036 1.61236 0
M  V30 8256 O 780.583 0.61396 1.80652 0
M  V30 8257 C 777.723 1.53705 3.0898 0
M  V30 8258 C 776.836 2.79823 3.29125 0
M  V30 8259 C 775.971 2.69735 4.5762 0
M  V30 8260 C 775.01 3.90856 4.71061 0
M  V30 8261 N 774.147 3.79237 5.90867 0
M  V30 8262 H 778.987 2.50211 1.61859 0
M  V30 8263 H 776.524 1.24146 0.789069 0
M  V30 8264 H 778.482 1.50715 3.89026 0
M  V30 8265 H 777.112 0.624247 3.16706 0
M  V30 8266 H 776.164 2.92852 2.42779 0
M  V30 8267 H 777.476 3.69628 3.34927 0
M  V30 8268 H 776.63 2.64773 5.45875 0
M  V30 8269 H 775.369 1.77547 4.54234 0
M  V30 8270 H 774.374 3.96164 3.81227 0
M  V30 8271 H 775.599 4.84124 4.76236 0
M  V30 8272 H 773.545 2.89825 5.88504 0
M  V30 8273 H 773.462 4.62686 5.97877 0
M  V30 8274 H 774.73 3.78227 6.8159 0
M  V30 8275 N 778.959 -0.83999 1.33349 0
M  V30 8276 C 780.206 -1.59517 1.24742 0
M  V30 8277 C 780.534 -1.93598 -0.187077 0
M  V30 8278 O 779.789 -1.58782 -1.14398 0
M  V30 8279 C 780.088 -2.91571 2.06691 0
M  V30 8280 C 779.754 -2.76856 3.55895 0
M  V30 8281 C 778.416 -2.72551 3.96572 0
M  V30 8282 C 780.768 -2.61741 4.50712 0
M  V30 8283 C 778.096 -2.51028 5.30285 0
M  V30 8284 C 780.448 -2.41752 5.84584 0
M  V30 8285 C 779.112 -2.35848 6.24445 0
M  V30 8286 H 778.382 -0.583714 0.456463 0
M  V30 8287 H 781.029 -0.973261 1.64924 0
M  V30 8288 H 779.334 -3.57961 1.59284 0
M  V30 8289 H 781.031 -3.49053 1.9739 0
M  V30 8290 H 777.621 -2.81039 3.23597 0
M  V30 8291 H 781.805 -2.64102 4.20195 0
M  V30 8292 H 777.061 -2.44903 5.60208 0
M  V30 8293 H 781.235 -2.2904 6.57658 0
M  V30 8294 H 778.862 -2.18931 7.27993 0
M  V30 8295 N 780.437 -1.16799 -1.0581 0
M  V30 8296 C 781.665 -0.97687 -1.82387 0
M  V30 8297 C 782.08 0.474917 -1.82729 0
M  V30 8298 O 781.437 1.3297 -1.25001 0
M  V30 8299 C 781.488 -1.50279 -3.28783 0
M  V30 8300 O 781.209 -2.89772 -3.28578 0
M  V30 8301 C 782.71 -1.35538 -4.22071 0
M  V30 8302 H 779.93 -0.345977 -0.574927 0
M  V30 8303 H 782.474 -1.54942 -1.33466 0
M  V30 8304 H 780.629 -0.972414 -3.74997 0
M  V30 8305 H 781.043 -3.13954 -4.20159 0
M  V30 8306 H 782.517 -1.7716 -5.22799 0
M  V30 8307 H 782.994 -0.301598 -4.38163 0
M  V30 8308 H 783.6 -1.87562 -3.81708 0
M  V30 8309 N 781.915 1.24427 -0.967243 0
M  V30 8310 C 783.161 1.92772 -0.629812 0
M  V30 8311 C 783.494 1.75436 0.832827 0
M  V30 8312 O 782.769 1.10716 1.59913 0
M  V30 8313 C 783.052 3.45798 -1.00477 0
M  V30 8314 C 782.905 3.72304 -2.52407 0
M  V30 8315 C 784.224 4.36787 -0.538999 0
M  V30 8316 H 781.343 0.700099 -0.230282 0
M  V30 8317 H 783.985 1.46805 -1.20616 0
M  V30 8318 H 782.135 3.8508 -0.514336 0
M  V30 8319 H 783.807 3.42584 -3.08924 0
M  V30 8320 H 782.05 3.17472 -2.95625 0
M  V30 8321 H 782.721 4.7937 -2.73693 0
M  V30 8322 H 785.197 4.04877 -0.959874 0
M  V30 8323 H 784.073 5.4259 -0.829926 0
M  V30 8324 H 784.334 4.38527 0.560923 0
M  V30 8325 N 783.393 0.737304 1.3929 0
M  V30 8326 C 784.325 0.0592106 2.29124 0
M  V30 8327 C 785.338 -0.701026 1.46934 0
M  V30 8328 O 786.527 -0.544808 1.69983 0
M  V30 8329 C 783.627 -0.940358 3.25592 0
M  V30 8330 C 782.8 -0.241163 4.36735 0
M  V30 8331 C 781.859 -1.14916 5.13498 0
M  V30 8332 O 780.885 -0.625783 5.6575 0
M  V30 8333 N 782.087 -2.47869 5.2492 0
M  V30 8334 H 784.852 0.830647 2.87959 0
M  V30 8335 H 782.413 0.586718 1.50895 0
M  V30 8336 H 784.405 -1.55046 3.73822 0
M  V30 8337 H 782.975 -1.61299 2.67771 0
M  V30 8338 H 782.195 0.549441 3.90352 0
M  V30 8339 H 783.483 0.243299 5.08218 0
M  V30 8340 H 782.881 -2.92864 4.83991 0
M  V30 8341 H 781.438 -3.03969 5.76581 0
M  V30 8342 N 784.871 -1.49948 0.485112 0
M  V30 8343 C 785.834 -2.27351 -0.290546 0
M  V30 8344 C 786.834 -1.32704 -0.908087 0
M  V30 8345 O 788.024 -1.56007 -0.775085 0
M  V30 8346 C 785.156 -3.10135 -1.41524 0
M  V30 8347 H 786.349 -2.97374 0.388454 0
M  V30 8348 H 783.902 -1.54453 0.239586 0
M  V30 8349 H 784.637 -2.44641 -2.12888 0
M  V30 8350 H 784.422 -3.79705 -0.978074 0
M  V30 8351 H 785.912 -3.68638 -1.96204 0
M  V30 8352 N 786.349 -0.21828 -1.56081 0
M  V30 8353 C 787.574 0.422302 -2.03055 0
M  V30 8354 C 787.999 1.5279 -1.09713 0
M  V30 8355 O 787.357 1.81102 -0.0847187 0
M  V30 8356 C 787.405 0.934177 -3.48289 0
M  V30 8357 O 786.509 2.04574 -3.58083 0
M  V30 8358 H 785.85 0.0959764 -0.657027 0
M  V30 8359 H 788.38 -0.335958 -2.01823 0
M  V30 8360 H 788.39 1.24484 -3.88546 0
M  V30 8361 H 787.065 0.124963 -4.15712 0
M  V30 8362 H 785.642 1.74196 -3.29712 0
M  V30 8363 N 787.827 1.57504 0.0551401 0
M  V30 8364 C 789.238 1.76626 0.604979 0
M  V30 8365 C 789.589 0.845978 1.77024 0
M  V30 8366 O 788.714 0.0341936 2.16373 0
M  V30 8367 C 789.309 3.203 1.10425 0
M  V30 8368 C 787.868 3.4071 1.59981 0
M  V30 8369 C 787.015 2.72258 0.526414 0
M  V30 8370 H 789.966 1.57775 -0.171072 0
M  V30 8371 H 789.987 3.25377 1.97256 0
M  V30 8372 H 789.499 3.87255 0.255939 0
M  V30 8373 H 787.6 2.78892 2.47083 0
M  V30 8374 H 787.713 4.49227 1.66528 0
M  V30 8375 H 786.077 2.35283 0.97539 0
M  V30 8376 H 786.86 3.41879 -0.311991 0
M  V30 8377 N 789.305 -0.326896 1.54172 0
M  V30 8378 C 790.533 -1.08486 1.76177 0
M  V30 8379 C 790.948 -1.81815 0.508788 0
M  V30 8380 O 790.305 -1.74924 -0.520362 0
M  V30 8381 C 790.356 -2.08552 2.95276 0
M  V30 8382 O 790.077 -1.38202 4.15731 0
M  V30 8383 C 791.578 -2.96593 3.29466 0
M  V30 8384 H 788.798 -0.322835 0.588233 0
M  V30 8385 H 791.342 -0.374036 2.0105 0
M  V30 8386 H 789.497 -2.75174 2.72687 0
M  V30 8387 H 789.911 -2.05186 4.827 0
M  V30 8388 H 791.385 -3.62708 4.16109 0
M  V30 8389 H 791.862 -3.63511 2.46487 0
M  V30 8390 H 792.468 -2.35537 3.54122 0
M  V30 8391 N 790.784 -1.46188 -0.588786 0
M  V30 8392 C 791.717 -1.508 -1.71274 0
M  V30 8393 C 792.695 -0.362635 -1.58505 0
M  V30 8394 O 793.879 -0.565899 -1.79805 0
M  V30 8395 C 791.006 -1.38082 -3.09275 0
M  V30 8396 C 790.052 -2.56723 -3.40581 0
M  V30 8397 S 790.885 -4.1911 -3.33327 0
M  V30 8398 C 792.041 -4.08891 -4.73877 0
M  V30 8399 H 792.274 -2.45895 -1.67102 0
M  V30 8400 H 789.807 -1.34 -0.767025 0
M  V30 8401 H 791.765 -1.31432 -3.88891 0
M  V30 8402 H 790.426 -0.444259 -3.10942 0
M  V30 8403 H 789.619 -2.43801 -4.41109 0
M  V30 8404 H 789.221 -2.60332 -2.68521 0
M  V30 8405 H 791.513 -3.75196 -5.64123 0
M  V30 8406 H 792.456 -5.09395 -4.91856 0
M  V30 8407 H 792.864 -3.40239 -4.50441 0
M  V30 8408 N 792.262 0.832906 -1.33792 0
M  V30 8409 C 793.539 1.57359 -1.16178 0
M  V30 8410 C 793.919 2.09372 0.269532 0
M  V30 8411 O 793.267 1.89993 1.26944 0
M  V30 8412 C 793.477 2.70279 -2.20795 0
M  V30 8413 C 794.825 3.39305 -2.55259 0
M  V30 8414 O 795.849 2.80526 -2.19508 0
M  V30 8415 O 794.708 4.45428 -3.16632 0
M  V30 8416 H 791.802 0.694025 -0.449731 0
M  V30 8417 H 794.348 0.875144 -1.45394 0
M  V30 8418 H 793.12 2.29527 -3.16911 0
M  V30 8419 H 792.743 3.47782 -1.927 0
M  V30 8420 N 793.74 1.17359 1.05189 0
M  V30 8421 C 794.687 0.890325 2.12936 0
M  V30 8422 C 795.657 -0.165779 1.65271 0
M  V30 8423 O 796.842 -0.0285672 1.90779 0
M  V30 8424 C 793.982 0.409793 3.42658 0
M  V30 8425 C 793.095 1.53002 4.03998 0
M  V30 8426 C 792.23 1.00336 5.21638 0
M  V30 8427 C 791.269 2.09903 5.74984 0
M  V30 8428 N 790.406 1.58714 6.83926 0
M  V30 8429 H 795.246 1.81299 2.36505 0
M  V30 8430 H 792.783 0.904249 1.16025 0
M  V30 8431 H 794.741 0.112743 4.17048 0
M  V30 8432 H 793.371 -0.475915 3.19272 0
M  V30 8433 H 792.423 1.9428 3.27047 0
M  V30 8434 H 793.735 2.3564 4.39631 0
M  V30 8435 H 792.889 0.660158 6.03098 0
M  V30 8436 H 791.628 0.14642 4.8748 0
M  V30 8437 H 790.633 2.45081 4.92154 0
M  V30 8438 H 791.858 2.96013 6.1119 0
M  V30 8439 H 789.804 0.752915 6.51665 0
M  V30 8440 H 789.721 2.34959 7.18561 0
M  V30 8441 H 790.989 1.27287 7.69037 0
M  V30 8442 N 795.218 -1.23913 0.973828 0
M  V30 8443 C 796.634 -1.44325 0.681363 0
M  V30 8444 C 796.834 -1.86832 -0.754728 0
M  V30 8445 O 795.89 -2.01024 -1.52793 0
M  V30 8446 C 797.203 -2.50017 1.67069 0
M  V30 8447 C 798.751 -2.63838 1.68399 0
M  V30 8448 C 799.226 -3.72734 2.66145 0
M  V30 8449 N 800.717 -3.80169 2.64624 0
M  V30 8450 C 801.452 -4.6397 3.36927 0
M  V30 8451 N 800.948 -5.51911 4.18767 0
M  V30 8452 N 802.741 -4.58106 3.25722 0
M  V30 8453 H 794.892 -0.946204 1.9016 0
M  V30 8454 H 797.155 -0.477374 0.819035 0
M  V30 8455 H 796.861 -2.25686 2.69738 0
M  V30 8456 H 796.735 -3.48287 1.4483 0
M  V30 8457 H 799.122 -2.87524 0.664379 0
M  V30 8458 H 799.203 -1.65906 1.94702 0
M  V30 8459 H 798.847 -3.49797 3.68245 0
M  V30 8460 H 798.777 -4.70193 2.3712 0
M  V30 8461 H 801.268 -3.17319 2.05224 0
M  V30 8462 H 801.581 -6.12828 4.70809 0
M  V30 8463 H 799.926 -5.51556 4.2286 0
M  V30 8464 H 803.117 -3.8842 2.61242 0
M  V30 8465 H 803.29 -5.23188 3.82333 0
M  V30 8466 N 796.696 -0.74468 -1.38897 0
M  V30 8467 C 797.643 -0.111064 -2.30533 0
M  V30 8468 C 798.613 0.719276 -1.49719 0
M  V30 8469 O 799.798 0.677244 -1.78376 0
M  V30 8470 C 796.938 0.78292 -3.36102 0
M  V30 8471 C 796.051 -0.0610817 -4.31957 0
M  V30 8472 C 795.186 0.835075 -5.24595 0
M  V30 8473 C 794.225 -0.0130974 -6.12099 0
M  V30 8474 N 793.362 0.839525 -6.97063 0
M  V30 8475 H 798.202 -0.898113 -2.84144 0
M  V30 8476 H 795.739 -0.454537 -1.39901 0
M  V30 8477 H 797.697 1.31578 -3.95908 0
M  V30 8478 H 796.327 1.53585 -2.83922 0
M  V30 8479 H 795.379 -0.711469 -3.73687 0
M  V30 8480 H 796.691 -0.716482 -4.93627 0
M  V30 8481 H 795.845 1.43542 -5.89475 0
M  V30 8482 H 794.584 1.52423 -4.63269 0
M  V30 8483 H 793.589 -0.626179 -5.46223 0
M  V30 8484 H 794.814 -0.699181 -6.75491 0
M  V30 8485 H 792.76 1.5138 -6.38295 0
M  V30 8486 H 792.677 0.240823 -7.55616 0
M  V30 8487 H 793.945 1.42513 -7.66362 0
M  V30 8488 N 798.174 1.49689 -0.493057 0
M  V30 8489 C 799.399 2.07331 0.0535114 0
M  V30 8490 C 799.824 1.35196 1.30781 0
M  V30 8491 O 799.182 0.406246 1.7669 0
M  V30 8492 C 799.23 3.59364 0.29825 0
M  V30 8493 O 798.334 3.88819 1.37454 0
M  V30 8494 H 797.675 0.663612 -0.0227018 0
M  V30 8495 H 800.205 1.926 -0.690402 0
M  V30 8496 H 800.215 4.04515 0.532159 0
M  V30 8497 H 798.89 4.1128 -0.618207 0
M  V30 8498 H 797.467 3.55487 1.12621 0
M  V30 8499 N 799.652 0.226554 1.55963 0
M  V30 8500 C 800.582 -0.676079 2.23498 0
M  V30 8501 C 801.563 -1.19718 1.20837 0
M  V30 8502 O 802.748 -1.24027 1.49436 0
M  V30 8503 C 799.878 -1.88217 2.91876 0
M  V30 8504 C 798.832 -1.4947 4.01052 0
M  V30 8505 C 798.158 -2.77997 4.56751 0
M  V30 8506 C 799.458 -0.680951 5.17842 0
M  V30 8507 H 801.152 -0.112989 2.99187 0
M  V30 8508 H 798.698 -0.0529046 1.43903 0
M  V30 8509 H 800.651 -2.51911 3.37815 0
M  V30 8510 H 799.375 -2.47031 2.13643 0
M  V30 8511 H 798.034 -0.881199 3.55852 0
M  V30 8512 H 797.682 -3.34966 3.75243 0
M  V30 8513 H 797.382 -2.52803 5.30438 0
M  V30 8514 H 798.906 -3.42625 5.05411 0
M  V30 8515 H 800.32 -1.22171 5.60131 0
M  V30 8516 H 798.717 -0.525898 5.97791 0
M  V30 8517 H 799.787 0.311346 4.83899 0
M  V30 8518 N 801.13 -1.57531 -0.0467866 0
M  V30 8519 C 802.379 -1.87632 -0.740069 0
M  V30 8520 C 802.692 -0.822691 -1.77457 0
M  V30 8521 O 803.898 -1.01235 -2.5192 0
M  V30 8522 C 802.354 -3.32917 -1.36727 0
M  V30 8523 C 801.962 -4.46469 -0.370035 0
M  V30 8524 C 803.706 -3.72189 -2.04146 0
M  V30 8525 C 801.613 -5.82806 -1.00457 0
M  V30 8526 H 800.543 -0.70002 -0.280158 0
M  V30 8527 H 803.194 -1.83499 0.00607151 0
M  V30 8528 H 801.576 -3.31739 -2.16252 0
M  V30 8529 H 802.75 -4.59085 0.397217 0
M  V30 8530 H 801.065 -4.15914 0.201079 0
M  V30 8531 H 803.662 -4.71357 -2.52441 0
M  V30 8532 H 804.005 -3.03268 -2.85192 0
M  V30 8533 H 804.538 -3.75465 -1.3142 0
M  V30 8534 H 801.277 -6.55083 -0.233907 0
M  V30 8535 H 800.797 -5.73944 -1.74209 0
M  V30 8536 H 802.476 -6.28961 -1.51713 0
M  V30 8537 N 802.608 0.318715 -1.54344 0
M  V30 8538 C 803.556 1.41254 -1.84798 0
M  V30 8539 C 804.55 1.53325 -0.720256 0
M  V30 8540 O 805.756 1.55653 -0.903992 0
M  V30 8541 H 802.131 0.471468 -0.585851 0
M  V30 8542 H 804.102 1.12795 -2.7626 0
M  V30 8543 C 802.851 2.77395 -2.09637 0
M  V30 8544 H 802.174 2.68881 -2.95876 0
M  V30 8545 H 803.614 3.52987 -2.34896 0
M  V30 8546 C 802.073 3.24948 -0.889398 0
M  V30 8547 O 802.603 4.01573 -0.101063 0
M  V30 8548 N 800.809 2.82051 -0.699684 0
M  V30 8549 H 800.356 2.19858 -1.3424 0
M  V30 8550 H 800.314 3.1422 0.106368 0
M  V30 8551 N 804.086 1.46499 0.581025 0
M  V30 8552 C 805.311 1.55708 1.37002 0
M  V30 8553 C 805.736 0.19942 1.8704 0
M  V30 8554 O 805.094 -0.820731 1.61659 0
M  V30 8555 C 805.142 2.56716 2.53238 0
M  V30 8556 O 804.246 2.10336 3.54729 0
M  V30 8557 H 803.587 0.523912 0.407937 0
M  V30 8558 H 806.117 1.92085 0.704602 0
M  V30 8559 H 806.127 2.76378 3.00132 0
M  V30 8560 H 804.802 3.55307 2.16171 0
M  V30 8561 H 803.379 2.00669 3.14303 0
M  V30 8562 N 805.565 -0.825799 1.34232 0
M  V30 8563 C 806.981 -1.11848 1.13851 0
M  V30 8564 C 807.181 -2.01405 -0.0619031 0
M  V30 8565 O 806.237 -2.41465 -0.738287 0
M  V30 8566 C 807.55 -1.76797 2.43235 0
M  V30 8567 C 809.098 -1.89304 2.49265 0
M  V30 8568 C 809.573 -2.57669 3.78643 0
M  V30 8569 N 811.064 -2.65171 3.79788 0
M  V30 8570 C 811.799 -3.1879 4.76614 0
M  V30 8571 N 811.295 -3.72995 5.83821 0
M  V30 8572 N 813.088 -3.17164 4.64073 0
M  V30 8573 H 805.239 -0.230049 2.11151 0
M  V30 8574 H 807.502 -0.164609 0.9336 0
M  V30 8575 H 807.208 -1.18455 3.31152 0
M  V30 8576 H 807.082 -2.76693 2.56361 0
M  V30 8577 H 809.469 -2.46796 1.6179 0
M  V30 8578 H 809.55 -0.883191 2.4007 0
M  V30 8579 H 809.194 -2.00833 4.66507 0
M  V30 8580 H 809.124 -3.59152 3.8512 0
M  V30 8581 H 811.615 -2.26746 3.02315 0
M  V30 8582 H 811.928 -4.12151 6.53721 0
M  V30 8583 H 810.273 -3.71246 5.87538 0
M  V30 8584 H 813.464 -2.74082 3.79469 0
M  V30 8585 H 813.637 -3.58647 5.397 0
M  V30 8586 N 807.043 -1.17915 -1.04565 0
M  V30 8587 C 808.268 -0.996749 -1.81878 0
M  V30 8588 C 808.693 0.450169 -1.82634 0
M  V30 8589 O 808.051 1.32268 -1.23995 0
M  V30 8590 C 808.099 -1.55005 -3.25585 0
M  V30 8591 O 807.203 -0.76804 -4.05185 0
M  V30 8592 H 806.544 -0.353456 -0.562108 0
M  V30 8593 H 809.074 -1.56557 -1.31723 0
M  V30 8594 H 809.084 -1.57503 -3.76373 0
M  V30 8595 H 807.759 -2.60327 -3.2435 0
M  V30 8596 H 806.336 -0.81498 -3.63885 0
M  V30 8597 N 808.521 1.23394 -0.980386 0
M  V30 8598 C 809.746 1.96384 -0.666935 0
M  V30 8599 C 810.171 1.72087 0.759456 0
M  V30 8600 O 809.529 0.992328 1.51732 0
M  V30 8601 C 809.577 3.47499 -0.963177 0
M  V30 8602 O 808.681 4.12363 -0.0552051 0
M  V30 8603 H 808.022 0.614797 -0.250839 0
M  V30 8604 H 810.552 1.56831 -1.31398 0
M  V30 8605 H 810.562 3.97953 -0.899877 0
M  V30 8606 H 809.237 3.6451 -2.00264 0
M  V30 8607 H 807.814 3.72499 -0.172914 0
M  V30 8608 N 809.999 0.752036 1.385 0
M  V30 8609 C 811.41 0.375385 1.82887 0
M  V30 8610 C 811.761 -1.09575 1.62751 0
M  V30 8611 O 810.886 -1.84685 1.12785 0
M  V30 8612 C 811.481 0.674563 3.32017 0
M  V30 8613 C 810.04 0.351208 3.74758 0
M  V30 8614 C 809.187 0.928531 2.61292 0
M  V30 8615 H 812.138 0.948313 1.27251 0
M  V30 8616 H 812.159 -0.0477781 3.8047 0
M  V30 8617 H 811.671 1.74533 3.46641 0
M  V30 8618 H 809.772 -0.713042 3.65714 0
M  V30 8619 H 809.885 0.845675 4.71577 0
M  V30 8620 H 808.249 0.354012 2.52228 0
M  V30 8621 H 809.032 2.0043 2.78716 0
M  V30 8622 N 811.477 -1.49425 0.500989 0
M  V30 8623 C 812.888 -1.86624 0.0532011 0
M  V30 8624 C 813.239 -1.41331 -1.36088 0
M  V30 8625 O 812.364 -0.791195 -2.01418 0
M  V30 8626 C 812.959 -3.38681 0.0897693 0
M  V30 8627 C 811.518 -3.75181 -0.302677 0
M  V30 8628 C 810.665 -2.73419 0.462307 0
M  V30 8629 H 813.616 -1.41743 0.713773 0
M  V30 8630 H 813.637 -3.73902 -0.705528 0
M  V30 8631 H 813.149 -3.71616 1.11907 0
M  V30 8632 H 811.25 -3.47855 -1.33521 0
M  V30 8633 H 811.363 -4.79097 0.0167653 0
M  V30 8634 H 809.727 -2.54548 -0.0878557 0
M  V30 8635 H 810.51 -3.09198 1.49169 0
M  V30 8636 N 812.955 -0.234822 -1.55841 0
M  V30 8637 C 813.918 0.656378 -2.196 0
M  V30 8638 C 814.918 1.11179 -1.16171 0
M  V30 8639 O 816.108 1.01845 -1.41326 0
M  V30 8640 C 813.24 1.90072 -2.82993 0
M  V30 8641 H 814.433 0.100281 -2.99732 0
M  V30 8642 H 811.986 0.0147613 -1.56293 0
M  V30 8643 H 812.721 2.49836 -2.06767 0
M  V30 8644 H 812.506 1.5825 -3.58747 0
M  V30 8645 H 813.996 2.53538 -3.31826 0
M  V30 8646 N 814.433 1.57553 0.0384317 0
M  V30 8647 C 815.658 1.93485 0.746872 0
M  V30 8648 C 816.083 0.834069 1.68597 0
M  V30 8649 O 815.441 -0.210902 1.80069 0
M  V30 8650 C 815.489 3.28463 1.4881 0
M  V30 8651 O 814.593 3.20051 2.60079 0
M  V30 8652 H 813.934 0.632675 0.201539 0
M  V30 8653 H 816.464 2.046 -0.00329815 0
M  V30 8654 H 816.474 3.63132 1.86009 0
M  V30 8655 H 815.149 4.08147 0.799297 0
M  V30 8656 H 813.726 2.96998 2.25492 0
M  V30 8657 N 815.911 -0.310526 1.54511 0
M  V30 8658 C 817.322 -0.884142 1.64438 0
M  V30 8659 C 817.673 -1.88425 0.546855 0
M  V30 8660 O 816.798 -2.14049 -0.31811 0
M  V30 8661 C 817.393 -1.6104 2.9808 0
M  V30 8662 C 815.952 -2.13255 3.1016 0
M  V30 8663 C 815.099 -0.96213 2.60074 0
M  V30 8664 H 818.05 -0.0877666 1.58457 0
M  V30 8665 H 818.071 -2.47541 2.8897 0
M  V30 8666 H 817.583 -0.882255 3.77939 0
M  V30 8667 H 815.684 -2.89145 2.35002 0
M  V30 8668 H 815.797 -2.37361 4.16169 0
M  V30 8669 H 814.161 -1.34501 2.16291 0
M  V30 8670 H 814.944 -0.248098 3.42402 0
M  V30 8671 N 817.389 -1.46805 -0.573248 0
M  V30 8672 C 818.617 -1.56191 -1.3569 0
M  V30 8673 C 819.032 -0.206362 -1.87669 0
M  V30 8674 O 818.389 0.797883 -1.64134 0
M  V30 8675 C 818.44 -2.57433 -2.53792 0
M  V30 8676 O 818.161 -3.87724 -2.03965 0
M  V30 8677 C 819.662 -2.76851 -3.4622 0
M  V30 8678 H 816.882 -0.527907 -0.414192 0
M  V30 8679 H 819.426 -1.92292 -0.695989 0
M  V30 8680 H 817.581 -2.24311 -3.15854 0
M  V30 8681 H 817.995 -4.42909 -2.80948 0
M  V30 8682 H 819.469 -3.5159 -4.25545 0
M  V30 8683 H 819.946 -1.84095 -3.98755 0
M  V30 8684 H 820.552 -3.11107 -2.89987 0
M  V30 8685 N 818.867 0.818669 -1.34668 0
M  V30 8686 C 820.116 1.57017 -1.26604 0
M  V30 8687 C 820.429 1.94936 0.161036 0
M  V30 8688 O 821.635 2.69051 0.36386 0
M  V30 8689 C 820.091 2.83305 -2.2196 0
M  V30 8690 C 819.699 2.52671 -3.69948 0
M  V30 8691 C 821.443 3.61324 -2.22813 0
M  V30 8692 C 819.35 3.75178 -4.5716 0
M  V30 8693 H 818.28 0.589323 -0.470335 0
M  V30 8694 H 820.931 0.900956 -1.59859 0
M  V30 8695 H 819.313 3.51874 -1.81661 0
M  V30 8696 H 820.487 1.92186 -4.18809 0
M  V30 8697 H 818.802 1.8792 -3.71584 0
M  V30 8698 H 821.399 4.52294 -2.85192 0
M  V30 8699 H 821.742 3.97759 -1.22857 0
M  V30 8700 H 822.275 2.99703 -2.61578 0
M  V30 8701 H 819.014 3.43861 -5.58068 0
M  V30 8702 H 818.534 4.34931 -4.13031 0
M  V30 8703 H 820.213 4.42542 -4.71981 0
M  V30 8704 N 820.346 1.18468 1.03938 0
M  V30 8705 C 821.595 0.975193 1.76558 0
M  V30 8706 C 821.908 -0.495978 1.89207 0
M  V30 8707 O 823.114 -0.824009 2.58694 0
M  V30 8708 C 821.57 1.69579 3.17444 0
M  V30 8709 C 821.178 3.20636 3.12884 0
M  V30 8710 C 822.922 1.56917 3.94433 0
M  V30 8711 C 820.829 3.8533 4.48636 0
M  V30 8712 H 819.759 0.361244 0.66183 0
M  V30 8713 H 822.41 1.41854 1.16403 0
M  V30 8714 H 820.792 1.18022 3.78004 0
M  V30 8715 H 821.966 3.79228 2.61768 0
M  V30 8716 H 820.281 3.33454 2.49394 0
M  V30 8717 H 822.878 2.02611 4.94826 0
M  V30 8718 H 823.221 0.521638 4.13019 0
M  V30 8719 H 823.754 2.05762 3.40451 0
M  V30 8720 H 820.493 4.90136 4.35255 0
M  V30 8721 H 820.013 3.31526 4.99851 0
M  V30 8722 H 821.692 3.88269 5.17549 0
M  V30 8723 N 821.824 -1.22873 0.986916 0
M  V30 8724 C 823.235 -1.73264 0.695438 0
M  V30 8725 C 823.586 -1.79679 -0.788023 0
M  V30 8726 O 822.711 -1.43905 -1.61618 0
M  V30 8727 C 823.306 -3.14671 1.2557 0
M  V30 8728 C 821.865 -3.62492 1.01373 0
M  V30 8729 C 821.012 -2.40551 1.37951 0
M  V30 8730 H 823.963 -1.08304 1.15999 0
M  V30 8731 H 823.984 -3.75226 0.631322 0
M  V30 8732 H 823.496 -3.0997 2.33539 0
M  V30 8733 H 821.597 -3.72567 -0.0495917 0
M  V30 8734 H 821.71 -4.48944 1.67289 0
M  V30 8735 H 820.074 -2.41875 0.798033 0
M  V30 8736 H 820.857 -2.38516 2.46911 0
M  V30 8737 N 823.302 -0.75937 -1.38099 0
M  V30 8738 C 824.718 -0.437606 -1.53483 0
M  V30 8739 C 824.918 1.04849 -1.72072 0
M  V30 8740 O 823.974 1.83448 -1.73502 0
M  V30 8741 C 825.287 -1.24189 -2.73857 0
M  V30 8742 C 826.835 -1.23255 -2.8771 0
M  V30 8743 C 827.31 -2.01992 -4.11051 0
M  V30 8744 N 828.801 -1.99282 -4.1814 0
M  V30 8745 C 829.536 -2.56996 -5.12583 0
M  V30 8746 N 829.032 -3.23446 -6.12662 0
M  V30 8747 N 830.825 -2.46894 -5.04975 0
M  V30 8748 H 822.976 -1.72242 -1.24283 0
M  V30 8749 H 825.239 -0.730507 -0.604205 0
M  V30 8750 H 824.945 -2.29449 -2.66545 0
M  V30 8751 H 824.819 -0.862672 -3.67203 0
M  V30 8752 H 827.206 -0.187988 -2.94501 0
M  V30 8753 H 827.287 -1.65132 -1.95359 0
M  V30 8754 H 826.931 -3.06462 -4.05023 0
M  V30 8755 H 826.861 -1.57505 -5.02494 0
M  V30 8756 H 829.352 -1.50893 -3.46467 0
M  V30 8757 H 829.665 -3.6489 -6.81231 0
M  V30 8758 H 828.01 -3.27543 -6.12977 0
M  V30 8759 H 831.201 -1.94604 -4.25731 0
M  V30 8760 H 831.374 -2.92168 -5.78396 0
M  V30 8761 N 824.78 1.49157 -0.508906 0
M  V30 8762 C 825.71 2.32109 0.254469 0
M  V30 8763 C 826.691 1.40754 0.955111 0
M  V30 8764 O 827.876 1.69658 0.944983 0
M  V30 8765 C 825.006 3.21458 1.3146 0
M  V30 8766 C 823.96 4.2167 0.733368 0
M  V30 8767 C 823.286 5.00009 1.8946 0
M  V30 8768 C 824.586 5.21544 -0.280875 0
M  V30 8769 H 826.28 2.9618 -0.43795 0
M  V30 8770 H 823.826 1.4243 -0.212062 0
M  V30 8771 H 825.779 3.78305 1.85643 0
M  V30 8772 H 824.503 2.55346 2.03632 0
M  V30 8773 H 823.162 3.65979 0.213231 0
M  V30 8774 H 822.81 4.30338 2.60419 0
M  V30 8775 H 822.51 5.67821 1.51173 0
M  V30 8776 H 824.034 5.59702 2.44061 0
M  V30 8777 H 825.448 5.73039 0.173095 0
M  V30 8778 H 823.845 5.97291 -0.580006 0
M  V30 8779 H 824.915 4.69969 -1.19404 0
M  V30 8780 N 826.258 0.243083 1.55714 0
M  V30 8781 C 827.674 -0.111853 1.59208 0
M  V30 8782 C 827.874 -1.5723 1.2602 0
M  V30 8783 O 826.93 -2.31608 1.00569 0
M  V30 8784 C 828.243 0.233885 2.99789 0
M  V30 8785 C 829.791 0.177873 3.12494 0
M  V30 8786 C 830.266 0.49759 4.55289 0
M  V30 8787 N 831.757 0.447949 4.61029 0
M  V30 8788 C 832.492 0.668545 5.69489 0
M  V30 8789 N 831.988 0.952064 6.86227 0
M  V30 8790 N 833.781 0.599512 5.58894 0
M  V30 8791 H 825.932 1.19554 1.75558 0
M  V30 8792 H 828.195 0.480765 0.817049 0
M  V30 8793 H 827.901 1.24835 3.28799 0
M  V30 8794 H 827.775 -0.440846 3.74615 0
M  V30 8795 H 830.162 -0.827263 2.83267 0
M  V30 8796 H 830.243 0.886399 2.39951 0
M  V30 8797 H 829.887 1.50026 4.85237 0
M  V30 8798 H 829.817 -0.232371 5.26087 0
M  V30 8799 H 832.308 0.237388 3.77154 0
M  V30 8800 H 832.621 1.10791 7.64817 0
M  V30 8801 H 830.966 0.989496 6.8792 0
M  V30 8802 H 834.157 0.378088 4.66571 0
M  V30 8803 H 834.33 0.774828 6.43351 0
M  V30 8804 N 827.736 -1.57571 -0.0300757 0
M  V30 8805 C 828.699 -2.05468 -1.01565 0
M  V30 8806 C 829.699 -0.958628 -1.29101 0
M  V30 8807 O 830.889 -1.22228 -1.24121 0
M  V30 8808 C 828.021 -2.47077 -2.34874 0
M  V30 8809 H 829.214 -2.93797 -0.601936 0
M  V30 8810 H 826.767 -1.53828 -0.276878 0
M  V30 8811 H 827.502 -1.61901 -2.80996 0
M  V30 8812 H 827.287 -3.27097 -2.16218 0
M  V30 8813 H 828.777 -2.84564 -3.05635 0
M  V30 8814 N 829.214 0.302327 -1.54673 0
M  V30 8815 C 830.463 1.03533 -1.73101 0
M  V30 8816 C 830.776 1.88473 -0.523174 0
M  V30 8817 O 831.982 2.65029 -0.589229 0
M  V30 8818 C 830.438 1.89043 -3.06252 0
M  V30 8819 C 830.046 1.09112 -4.3451 0
M  V30 8820 C 831.79 2.61951 -3.34039 0
M  V30 8821 C 829.697 1.93891 -5.58713 0
M  V30 8822 H 828.627 0.390261 -0.645145 0
M  V30 8823 H 831.278 0.2924 -1.81155 0
M  V30 8824 H 829.66 2.67319 -2.92159 0
M  V30 8825 H 830.834 0.354596 -4.59434 0
M  V30 8826 H 829.149 0.477923 -4.13648 0
M  V30 8827 H 831.746 3.25729 -4.24033 0
M  V30 8828 H 832.089 3.30711 -2.52855 0
M  V30 8829 H 832.622 1.90725 -3.49097 0
M  V30 8830 H 829.361 1.29604 -6.4256 0
M  V30 8831 H 828.881 2.6522 -5.37976 0
M  V30 8832 H 830.56 2.51971 -5.95919 0
M  V30 8833 N 830.692 1.47107 0.565454 0
M  V30 8834 C 831.624 1.55024 1.6882 0
M  V30 8835 C 832.637 0.4371 1.56822 0
M  V30 8836 O 833.826 0.706315 1.63931 0
M  V30 8837 C 830.926 1.43069 3.0722 0
M  V30 8838 C 830.099 2.68807 3.45053 0
M  V30 8839 C 829.158 2.50806 4.62583 0
M  V30 8840 O 828.184 3.24593 4.67577 0
M  V30 8841 N 829.386 1.58093 5.58558 0
M  V30 8842 H 832.151 2.51836 1.62477 0
M  V30 8843 H 829.712 1.43382 0.751885 0
M  V30 8844 H 831.704 1.28773 3.83666 0
M  V30 8845 H 830.274 0.543721 3.07835 0
M  V30 8846 H 829.494 2.97923 2.58138 0
M  V30 8847 H 830.782 3.52298 3.67101 0
M  V30 8848 H 830.18 0.972807 5.57273 0
M  V30 8849 H 828.737 1.49753 6.34364 0
M  V30 8850 N 832.17 -0.811516 1.35101 0
M  V30 8851 C 833.1 -1.9378 1.30275 0
M  V30 8852 C 834.081 -1.69165 0.178075 0
M  V30 8853 O 835.266 -1.90599 0.372256 0
M  V30 8854 C 832.396 -3.30439 1.06899 0
M  V30 8855 C 831.35 -3.69523 2.15955 0
M  V30 8856 C 830.676 -5.0429 1.77751 0
M  V30 8857 C 831.976 -3.80419 3.57881 0
M  V30 8858 H 833.67 -1.98075 2.24514 0
M  V30 8859 H 831.216 -0.951586 1.08078 0
M  V30 8860 H 833.169 -4.08828 1.02164 0
M  V30 8861 H 831.893 -3.26473 0.0910462 0
M  V30 8862 H 830.552 -2.93416 2.19778 0
M  V30 8863 H 830.2 -4.96823 0.785876 0
M  V30 8864 H 829.9 -5.31411 2.5075 0
M  V30 8865 H 831.424 -5.85125 1.74533 0
M  V30 8866 H 832.838 -4.49051 3.56407 0
M  V30 8867 H 831.235 -4.19005 4.29598 0
M  V30 8868 H 832.305 -2.82105 3.94391 0
M  V30 8869 N 833.648 -1.19017 -1.03309 0
M  V30 8870 C 834.876 -1.01534 -1.80273 0
M  V30 8871 C 835.291 0.43605 -1.83696 0
M  V30 8872 O 834.648 1.30288 -1.27794 0
M  V30 8873 C 834.699 -1.5722 -3.25522 0
M  V30 8874 O 834.42 -2.96677 -3.22358 0
M  V30 8875 C 835.921 -1.4446 -4.19102 0
M  V30 8876 H 833.141 -0.358094 -0.567459 0
M  V30 8877 H 835.685 -1.57738 -1.3015 0
M  V30 8878 H 833.84 -1.05174 -3.7285 0
M  V30 8879 H 834.254 -3.22795 -4.13405 0
M  V30 8880 H 835.728 -1.88209 -5.18923 0
M  V30 8881 H 836.205 -0.394471 -4.37425 0
M  V30 8882 H 836.811 -1.95616 -3.77643 0
M  V30 8883 N 835.127 1.22348 -0.993418 0
M  V30 8884 C 836.538 1.72893 -0.704616 0
M  V30 8885 C 836.889 1.80095 0.778483 0
M  V30 8886 O 836.014 1.4476 1.60853 0
M  V30 8887 C 836.609 3.14 -1.27237 0
M  V30 8888 C 835.168 3.61949 -1.03294 0
M  V30 8889 C 834.315 2.39816 -1.39225 0
M  V30 8890 H 837.266 1.07688 -1.16572 0
M  V30 8891 H 837.287 3.74886 -0.651212 0
M  V30 8892 H 836.799 3.08727 -2.3518 0
M  V30 8893 H 834.9 3.72588 0.0298329 0
M  V30 8894 H 835.013 4.48051 -1.69668 0
M  V30 8895 H 833.377 2.41448 -0.810849 0
M  V30 8896 H 834.16 2.37203 -2.48172 0
M  V30 8897 N 836.605 0.766683 1.37694 0
M  V30 8898 C 837.853 0.328065 1.9942 0
M  V30 8899 C 838.174 -1.09775 1.61166 0
M  V30 8900 O 837.444 -1.75288 0.874686 0
M  V30 8901 H 836.024 0.11831 0.737572 0
M  V30 8902 H 838.686 0.983686 1.68255 0
M  V30 8903 H 837.782 0.401647 3.09505 0
M  V30 8904 N 838.083 -1.48885 0.516809 0
M  V30 8905 C 838.993 -2.33185 -0.257293 0
M  V30 8906 C 840.009 -1.4565 -0.951952 0
M  V30 8907 O 841.185 -1.78651 -0.929834 0
M  V30 8908 C 838.25 -3.21465 -1.29851 0
M  V30 8909 C 837.311 -4.24863 -0.615608 0
M  V30 8910 C 836.544 -5.08925 -1.60722 0
M  V30 8911 O 836.767 -4.9475 -2.83863 0
M  V30 8912 O 835.701 -5.90737 -1.15384 0
M  V30 8913 H 839.527 -3.00596 0.433131 0
M  V30 8914 H 837.112 -1.46792 0.277908 0
M  V30 8915 H 838.994 -3.76108 -1.90055 0
M  V30 8916 H 837.669 -2.5673 -1.97158 0
M  V30 8917 H 836.576 -3.74091 0.0265829 0
M  V30 8918 H 837.909 -4.92198 0.0152871 0
M  V30 8919 N 839.561 -0.251338 -1.55583 0
M  V30 8920 C 840.786 0.379136 -2.03905 0
M  V30 8921 C 841.211 1.50428 -1.12929 0
M  V30 8922 O 840.569 1.80882 -0.123114 0
M  V30 8923 C 840.617 0.86009 -3.50193 0
M  V30 8924 O 839.721 1.96932 -3.62342 0
M  V30 8925 H 839.062 0.0820183 -0.658915 0
M  V30 8926 H 841.592 -0.378692 -2.01065 0
M  V30 8927 H 841.602 1.16214 -3.91099 0
M  V30 8928 H 840.277 0.0367559 -4.15884 0
M  V30 8929 H 838.854 1.67163 -3.33333 0
M  V30 8930 N 841.039 1.57585 0.0217189 0
M  V30 8931 C 842.264 1.94267 0.726309 0
M  V30 8932 C 842.689 0.851904 1.67703 0
M  V30 8933 O 842.047 -0.191792 1.80283 0
M  V30 8934 C 842.095 3.30023 1.45318 0
M  V30 8935 O 841.199 3.22791 2.5667 0
M  V30 8936 H 840.54 0.634777 0.194818 0
M  V30 8937 H 843.07 2.04585 -0.0249985 0
M  V30 8938 H 843.08 3.65084 1.82147 0
M  V30 8939 H 841.755 4.08972 0.755962 0
M  V30 8940 H 840.332 2.99373 2.2233 0
M  V30 8941 N 842.517 -0.29412 1.54831 0
M  V30 8942 C 843.464 -1.36296 1.86258 0
M  V30 8943 C 844.434 -1.50061 0.712097 0
M  V30 8944 O 845.619 -1.64809 0.961381 0
M  V30 8945 C 842.759 -2.72187 2.12151 0
M  V30 8946 C 841.872 -2.66816 3.39755 0
M  V30 8947 C 841.007 -3.94747 3.55455 0
M  V30 8948 C 840.046 -3.838 4.76827 0
M  V30 8949 N 839.183 -5.03521 4.89296 0
M  V30 8950 H 844.023 -1.08796 2.7743 0
M  V30 8951 H 841.56 -0.526069 1.37371 0
M  V30 8952 H 843.518 -3.51225 2.25159 0
M  V30 8953 H 842.148 -2.97934 1.24237 0
M  V30 8954 H 841.2 -1.79605 3.3533 0
M  V30 8955 H 842.512 -2.5462 4.28917 0
M  V30 8956 H 841.666 -4.82223 3.68166 0
M  V30 8957 H 840.405 -4.09785 2.64438 0
M  V30 8958 H 839.41 -2.94708 4.64141 0
M  V30 8959 H 840.635 -3.70301 5.69258 0
M  V30 8960 H 838.581 -5.1901 4.01204 0
M  V30 8961 H 838.498 -4.93775 5.72471 0
M  V30 8962 H 839.766 -5.92629 5.06371 0
M  V30 8963 N 843.995 -1.47404 -0.557645 0
M  V30 8964 C 845.223 -1.57622 -1.34026 0
M  V30 8965 C 845.638 -0.226256 -1.87439 0
M  V30 8966 O 844.995 0.78043 -1.64971 0
M  V30 8967 C 845.046 -2.60111 -2.51047 0
M  V30 8968 O 844.767 -3.89866 -1.99841 0
M  V30 8969 C 846.268 -2.80508 -3.43264 0
M  V30 8970 H 843.488 -0.532271 -0.40857 0
M  V30 8971 H 846.032 -1.93019 -0.675555 0
M  V30 8972 H 844.187 -2.27648 -3.13457 0
M  V30 8973 H 844.601 -4.45864 -2.76234 0
M  V30 8974 H 846.075 -3.56084 -4.21792 0
M  V30 8975 H 846.552 -1.88314 -3.9678 0
M  V30 8976 H 847.158 -3.14166 -2.86671 0
M  V30 8977 N 845.473 0.80434 -1.35529 0
M  V30 8978 C 846.719 1.56328 -1.30127 0
M  V30 8979 C 847.074 1.92008 0.122699 0
M  V30 8980 O 846.367 1.58693 1.07364 0
M  V30 8981 C 846.561 2.85988 -2.14349 0
M  V30 8982 C 846.39 2.62977 -3.64792 0
M  V30 8983 C 845.16 2.58757 -4.34019 0
M  V30 8984 C 847.358 2.332 -4.58391 0
M  V30 8985 N 845.34 2.27487 -5.70195 0
M  V30 8986 C 846.711 2.11788 -5.82706 0
M  V30 8987 C 848.766 2.19082 -4.4711 0
M  V30 8988 C 847.469 1.77688 -6.97008 0
M  V30 8989 C 849.495 1.86378 -5.61264 0
M  V30 8990 C 848.857 1.65804 -6.84608 0
M  V30 8991 H 844.956 0.57368 -0.531428 0
M  V30 8992 H 847.54 0.941313 -1.70433 0
M  V30 8993 H 845.711 3.46077 -1.76311 0
M  V30 8994 H 847.443 3.51571 -2.00449 0
M  V30 8995 H 844.198 2.73484 -3.86656 0
M  V30 8996 H 844.622 2.1464 -6.42074 0
M  V30 8997 H 849.264 2.33686 -3.5235 0
M  V30 8998 H 846.982 1.61822 -7.91732 0
M  V30 8999 H 850.568 1.7616 -5.5449 0
M  V30 9000 H 849.448 1.40868 -7.71444 0
M  V30 9001 N 846.951 1.19563 1.02676 0
M  V30 9002 C 848.199 0.997593 1.75763 0
M  V30 9003 C 848.52 -0.47253 1.89188 0
M  V30 9004 O 847.79 -1.34214 1.42701 0
M  V30 9005 H 846.37 0.366128 0.651122 0
M  V30 9006 H 849.032 1.50495 1.23844 0
M  V30 9007 H 848.128 1.44741 2.76508 0
M  V30 9008 N 848.429 -1.21819 0.999893 0
M  V30 9009 C 849.845 -1.42847 0.711824 0
M  V30 9010 C 850.045 -1.88391 -0.714928 0
M  V30 9011 O 849.101 -2.0422 -1.48494 0
M  V30 9012 C 850.414 -2.46417 1.72334 0
M  V30 9013 C 851.962 -2.60207 1.73958 0
M  V30 9014 C 852.437 -3.67005 2.73992 0
M  V30 9015 N 853.928 -3.7447 2.72628 0
M  V30 9016 C 854.663 -4.56718 3.46693 0
M  V30 9017 N 854.159 -5.42904 4.3038 0
M  V30 9018 N 855.952 -4.51094 3.35366 0
M  V30 9019 H 848.103 -0.905656 1.92124 0
M  V30 9020 H 850.366 -0.459893 0.828977 0
M  V30 9021 H 850.072 -2.19914 2.74465 0
M  V30 9022 H 849.946 -3.45137 1.52186 0
M  V30 9023 H 852.333 -2.8605 0.725217 0
M  V30 9024 H 852.414 -1.61739 1.98177 0
M  V30 9025 H 852.058 -3.41908 3.75582 0
M  V30 9026 H 851.988 -4.65058 2.4704 0
M  V30 9027 H 854.479 -3.12895 2.11909 0
M  V30 9028 H 854.792 -6.02704 4.83702 0
M  V30 9029 H 853.137 -5.42463 4.34464 0
M  V30 9030 H 856.328 -3.82791 2.69423 0
M  V30 9031 H 856.501 -5.1496 3.93344 0
M  V30 9032 N 849.908 -0.773975 -1.37286 0
M  V30 9033 C 851.133 -0.349561 -2.04433 0
M  V30 9034 C 851.558 1.02082 -1.5799 0
M  V30 9035 O 850.916 1.65458 -0.741172 0
M  V30 9036 C 850.964 -0.404292 -3.58326 0
M  V30 9037 O 850.068 0.594447 -4.08093 0
M  V30 9038 H 849.409 -0.150959 -0.646612 0
M  V30 9039 H 851.939 -1.05079 -1.75555 0
M  V30 9040 H 851.949 -0.262378 -4.07155 0
M  V30 9041 H 850.624 -1.40403 -3.91484 0
M  V30 9042 H 849.201 0.415468 -3.70578 0
M  V30 9043 N 851.386 1.48609 -0.524698 0
M  V30 9044 C 852.611 2.07398 0.00952139 0
M  V30 9045 C 853.036 1.37939 1.27884 0
M  V30 9046 O 852.394 0.443633 1.75788 0
M  V30 9047 C 852.442 3.59916 0.221956 0
M  V30 9048 O 851.546 3.91647 1.29175 0
M  V30 9049 H 850.887 0.662981 -0.0367729 0
M  V30 9050 H 853.417 1.91092 -0.7311 0
M  V30 9051 H 853.427 4.05552 0.446236 0
M  V30 9052 H 852.102 4.09876 -0.705306 0
M  V30 9053 H 850.679 3.57796 1.05055 0
M  V30 9054 N 852.864 0.259585 1.55447 0
M  V30 9055 C 854.11 -0.362143 1.9954 0
M  V30 9056 C 854.443 -1.5666 1.14767 0
M  V30 9057 O 853.718 -1.93319 0.214025 0
M  V30 9058 C 854.001 -0.759588 3.51998 0
M  V30 9059 C 853.854 0.451134 4.47532 0
M  V30 9060 C 855.173 -1.60186 4.09913 0
M  V30 9061 H 852.292 -0.130157 0.725416 0
M  V30 9062 H 854.934 0.363431 1.86492 0
M  V30 9063 H 853.084 -1.3778 3.63248 0
M  V30 9064 H 854.756 1.08965 4.48246 0
M  V30 9065 H 852.999 1.092 4.19831 0
M  V30 9066 H 853.67 0.129518 5.51848 0
M  V30 9067 H 856.146 -1.0799 4.01842 0
M  V30 9068 H 855.022 -1.84879 5.16828 0
M  V30 9069 H 855.283 -2.57787 3.59163 0
M  V30 9070 N 854.342 -1.57594 -0.0133615 0
M  V30 9071 C 855.588 -1.90262 -0.702019 0
M  V30 9072 C 855.921 -0.859219 -1.74158 0
M  V30 9073 O 855.196 0.123778 -1.94106 0
M  V30 9074 C 855.479 -3.3354 -1.35732 0
M  V30 9075 C 855.332 -4.48586 -0.330208 0
M  V30 9076 C 856.651 -3.76004 -2.28712 0
M  V30 9077 H 853.77 -0.691943 -0.253739 0
M  V30 9078 H 856.412 -1.89967 0.0351894 0
M  V30 9079 H 854.562 -3.33921 -1.98567 0
M  V30 9080 H 856.234 -4.6034 0.297433 0
M  V30 9081 H 854.477 -4.32394 0.348926 0
M  V30 9082 H 855.148 -5.45762 -0.827508 0
M  V30 9083 H 857.624 -3.77089 -1.75906 0
M  V30 9084 H 856.5 -4.77032 -2.71535 0
M  V30 9085 H 856.761 -3.09129 -3.16056 0
M  V30 9086 N 855.82 0.285905 -1.54985 0
M  V30 9087 C 857.231 0.857869 -1.65824 0
M  V30 9088 C 857.582 1.87531 -0.576763 0
M  V30 9089 O 856.707 2.14528 0.284016 0
M  V30 9090 C 857.302 1.56277 -3.00604 0
M  V30 9091 C 855.861 2.08294 -3.13513 0
M  V30 9092 C 855.008 0.920633 -2.61571 0
M  V30 9093 H 857.959 0.0625463 -1.58577 0
M  V30 9094 H 857.98 2.42912 -2.92872 0
M  V30 9095 H 857.492 0.822017 -3.79295 0
M  V30 9096 H 855.593 2.8537 -2.39572 0
M  V30 9097 H 855.706 2.3071 -4.19892 0
M  V30 9098 H 854.07 1.31043 -2.18403 0
M  V30 9099 H 854.853 0.193594 -3.42754 0
M  V30 9100 N 857.298 1.47698 0.54982 0
M  V30 9101 C 858.245 1.60739 1.65625 0
M  V30 9102 C 859.215 0.450129 1.59884 0
M  V30 9103 O 860.4 0.671123 1.78607 0
M  V30 9104 C 857.54 1.63457 3.03934 0
M  V30 9105 C 856.653 2.90152 3.20056 0
M  V30 9106 C 855.788 2.84157 4.48807 0
M  V30 9107 C 854.827 4.05644 4.58387 0
M  V30 9108 N 853.964 3.97843 5.78503 0
M  V30 9109 H 858.804 2.55234 1.53817 0
M  V30 9110 H 856.341 1.26593 0.749173 0
M  V30 9111 H 858.299 1.63015 3.84034 0
M  V30 9112 H 856.929 0.724689 3.1456 0
M  V30 9113 H 855.981 3.00428 2.33339 0
M  V30 9114 H 857.293 3.80097 3.22998 0
M  V30 9115 H 856.447 2.82006 5.37175 0
M  V30 9116 H 855.186 1.91908 4.48356 0
M  V30 9117 H 854.191 4.08092 3.6843 0
M  V30 9118 H 855.416 4.9903 4.60593 0
M  V30 9119 H 853.362 3.08401 5.78986 0
M  V30 9120 H 853.279 4.81473 5.82855 0
M  V30 9121 H 854.547 3.99719 6.69212 0
M  V30 9122 N 858.776 -0.797141 1.35954 0
M  V30 9123 C 859.686 -1.94088 1.31784 0
M  V30 9124 C 860.702 -1.72588 0.221227 0
M  V30 9125 O 861.878 -1.96256 0.452255 0
M  V30 9126 C 858.943 -3.28828 1.09878 0
M  V30 9127 C 858.004 -3.63158 2.28942 0
M  V30 9128 C 857.237 -4.91469 2.08072 0
M  V30 9129 O 857.46 -5.60616 1.05196 0
M  V30 9130 O 856.394 -5.24277 2.95664 0
M  V30 9131 H 860.22 -2.00554 2.28061 0
M  V30 9132 H 857.805 -0.936288 1.16422 0
M  V30 9133 H 859.687 -4.09473 0.995485 0
M  V30 9134 H 858.362 -3.23271 0.16659 0
M  V30 9135 H 857.269 -2.82851 2.44839 0
M  V30 9136 H 858.602 -3.7343 3.20641 0
M  V30 9137 N 860.254 -1.20106 -1.0204 0
M  V30 9138 C 861.164 -0.962051 -2.13967 0
M  V30 9139 C 862.18 0.0808053 -1.73812 0
M  V30 9140 O 863.356 -0.105774 -2.01122 0
M  V30 9141 C 860.421 -0.513108 -3.42882 0
M  V30 9142 C 859.482 -1.62636 -3.97301 0
M  V30 9143 C 858.715 -1.19875 -5.20063 0
M  V30 9144 O 858.938 -0.0658423 -5.70362 0
M  V30 9145 O 857.872 -2.00467 -5.67536 0
M  V30 9146 H 861.698 -1.8991 -2.36998 0
M  V30 9147 H 859.283 -0.984608 -1.12365 0
M  V30 9148 H 861.165 -0.271797 -4.20523 0
M  V30 9149 H 859.84 0.395402 -3.21276 0
M  V30 9150 H 858.747 -1.92192 -3.20957 0
M  V30 9151 H 860.08 -2.51174 -4.23288 0
M  V30 9152 N 861.732 1.21287 -1.00634 0
M  V30 9153 C 862.98 1.90013 -0.688438 0
M  V30 9154 C 863.301 1.78573 0.783365 0
M  V30 9155 O 862.571 1.1815 1.56261 0
M  V30 9156 H 861.151 0.703336 -0.251648 0
M  V30 9157 H 863.813 1.47346 -1.27574 0
M  V30 9158 H 862.909 2.96879 -0.962781 0
M  V30 9159 N 863.21 0.781244 1.36873 0
M  V30 9160 C 864.12 0.174981 2.33947 0
M  V30 9161 C 865.136 -0.668512 1.60645 0
M  V30 9162 O 866.312 -0.586213 1.9268 0
M  V30 9163 C 863.377 -0.686557 3.39834 0
M  V30 9164 C 862.438 0.174489 4.28945 0
M  V30 9165 C 861.671 -0.646024 5.29776 0
M  V30 9166 O 861.894 -1.88254 5.38439 0
M  V30 9167 O 860.828 -0.0502214 6.01879 0
M  V30 9168 H 864.654 0.977382 2.87543 0
M  V30 9169 H 862.239 0.542559 1.392 0
M  V30 9170 H 864.121 -1.1781 4.04597 0
M  V30 9171 H 862.796 -1.46699 2.8855 0
M  V30 9172 H 861.703 0.712604 3.6725 0
M  V30 9173 H 863.036 0.918232 4.83559 0
M  V30 9174 N 864.689 -1.48329 0.532571 0
M  V30 9175 C 865.599 -2.33445 -0.232546 0
M  V30 9176 C 866.615 -1.46651 -0.93645 0
M  V30 9177 O 867.791 -1.79627 -0.910834 0
M  V30 9178 C 864.856 -3.22824 -1.26434 0
M  V30 9179 C 863.917 -4.25492 -0.570511 0
M  V30 9180 C 863.15 -5.10601 -1.55315 0
M  V30 9181 O 863.373 -4.97733 -2.78599 0
M  V30 9182 O 862.307 -5.91927 -1.09112 0
M  V30 9183 H 866.133 -3.00119 0.464988 0
M  V30 9184 H 863.718 -1.46489 0.293462 0
M  V30 9185 H 865.6 -3.78103 -1.86055 0
M  V30 9186 H 864.275 -2.58807 -1.94424 0
M  V30 9187 H 863.182 -3.74041 0.0662587 0
M  V30 9188 H 864.515 -4.92154 0.0674904 0
M  V30 9189 N 866.167 -0.267825 -1.55308 0
M  V30 9190 C 867.077 0.633055 -2.25897 0
M  V30 9191 C 868.093 1.17613 -1.28231 0
M  V30 9192 O 869.269 1.20797 -1.61153 0
M  V30 9193 C 866.334 1.80397 -2.96071 0
M  V30 9194 C 865.395 1.29829 -4.09198 0
M  V30 9195 C 864.628 2.4134 -4.76016 0
M  V30 9196 O 864.851 3.60537 -4.42006 0
M  V30 9197 O 863.785 2.09909 -5.64111 0
M  V30 9198 H 867.611 0.0614381 -3.03638 0
M  V30 9199 H 865.196 -0.0355072 -1.49358 0
M  V30 9200 H 867.078 2.48685 -3.40197 0
M  V30 9201 H 865.753 2.36281 -2.21253 0
M  V30 9202 H 864.66 0.582086 -3.69544 0
M  V30 9203 H 865.993 0.785288 -4.85895 0
M  V30 9204 N 867.645 1.57599 0.00500368 0
M  V30 9205 C 868.555 2.11532 1.01446 0
M  V30 9206 C 869.571 1.05941 1.3803 0
M  V30 9207 O 870.747 1.37815 1.46864 0
M  V30 9208 C 867.812 2.60382 2.28915 0
M  V30 9209 C 866.873 3.80554 1.98689 0
M  V30 9210 C 866.106 4.27064 3.20081 0
M  V30 9211 O 866.329 3.72939 4.31593 0
M  V30 9212 O 865.263 5.1927 3.04371 0
M  V30 9213 H 869.089 2.97993 0.586011 0
M  V30 9214 H 866.674 1.47718 0.223519 0
M  V30 9215 H 868.556 2.92024 3.03809 0
M  V30 9216 H 867.231 1.77022 2.71007 0
M  V30 9217 H 866.138 3.53893 1.21286 0
M  V30 9218 H 867.471 4.64972 1.61437 0
M  V30 9219 N 869.123 -0.277682 1.55134 0
M  V30 9220 C 870.07 -1.34313 1.87693 0
M  V30 9221 C 871.04 -1.49298 0.727973 0
M  V30 9222 O 872.225 -1.6378 0.978807 0
M  V30 9223 C 869.365 -2.69922 2.15026 0
M  V30 9224 C 868.478 -2.63197 3.42565 0
M  V30 9225 C 867.613 -3.90955 3.59622 0
M  V30 9226 C 866.652 -3.78722 4.8087 0
M  V30 9227 N 865.789 -4.98303 4.94609 0
M  V30 9228 H 870.629 -1.05847 2.78569 0
M  V30 9229 H 868.166 -0.511469 1.37922 0
M  V30 9230 H 870.124 -3.48817 2.28872 0
M  V30 9231 H 868.754 -2.966 1.2739 0
M  V30 9232 H 867.806 -1.76038 3.37216 0
M  V30 9233 H 869.118 -2.50056 4.31594 0
M  V30 9234 H 868.272 -4.78291 3.7326 0
M  V30 9235 H 867.011 -4.06957 2.6877 0
M  V30 9236 H 866.016 -2.89769 4.67241 0
M  V30 9237 H 867.241 -3.64242 5.73153 0
M  V30 9238 H 865.187 -5.14725 4.06687 0
M  V30 9239 H 865.104 -4.87675 5.77676 0
M  V30 9240 H 866.372 -5.87225 5.12628 0
M  V30 9241 N 870.601 -1.47988 -0.541979 0
M  V30 9242 C 872.017 -1.33843 -0.869383 0
M  V30 9243 C 872.217 -0.340374 -1.98604 0
M  V30 9244 O 871.273 0.242696 -2.51331 0
M  V30 9245 C 872.586 -2.73568 -1.24823 0
M  V30 9246 C 874.134 -2.81967 -1.3588 0
M  V30 9247 C 874.609 -4.22368 -1.77114 0
M  V30 9248 N 876.1 -4.24983 -1.84237 0
M  V30 9249 C 876.835 -5.30547 -2.17503 0
M  V30 9250 N 876.331 -6.46401 -2.49275 0
M  V30 9251 N 878.124 -5.17933 -2.18406 0
M  V30 9252 H 870.275 -2.11503 0.195001 0
M  V30 9253 H 872.538 -0.947681 0.0245862 0
M  V30 9254 H 872.244 -3.48107 -0.501435 0
M  V30 9255 H 872.118 -3.06322 -2.20106 0
M  V30 9256 H 874.505 -2.07692 -2.09638 0
M  V30 9257 H 874.586 -2.52848 -0.387478 0
M  V30 9258 H 874.23 -4.97155 -1.0392 0
M  V30 9259 H 874.16 -4.48922 -2.75275 0
M  V30 9260 H 876.651 -3.41411 -1.62009 0
M  V30 9261 H 876.964 -7.22698 -2.73729 0
M  V30 9262 H 875.309 -6.49696 -2.46821 0
M  V30 9263 H 878.5 -4.26445 -1.93034 0
M  V30 9264 H 878.673 -6.00307 -2.44 0
M  V30 9265 N 872.079 0.78992 -1.36375 0
M  V30 9266 C 873.042 1.88414 -1.30509 0
M  V30 9267 C 874.042 1.59384 -0.2129 0
M  V30 9268 O 875.232 1.67805 -0.467651 0
M  V30 9269 C 872.364 3.25188 -1.02302 0
M  V30 9270 H 873.557 1.95031 -2.27822 0
M  V30 9271 H 871.11 0.987664 -1.2114 0
M  V30 9272 H 871.845 3.24254 -0.0544486 0
M  V30 9273 H 871.63 3.47647 -1.81338 0
M  V30 9274 H 873.12 4.05252 -1.00801 0
M  V30 9275 N 873.557 1.20646 1.01402 0
M  V30 9276 C 874.968 1.01823 1.56489 0
M  V30 9277 C 875.319 -0.42463 1.9155 0
M  V30 9278 O 874.444 -1.30644 1.72514 0
M  V30 9279 C 875.039 1.84208 2.84347 0
M  V30 9280 C 873.598 1.69743 3.35953 0
M  V30 9281 C 872.745 1.8198 2.09233 0
M  V30 9282 H 875.696 1.348 0.837539 0
M  V30 9283 H 875.717 1.34698 3.55861 0
M  V30 9284 H 875.229 2.89215 2.58798 0
M  V30 9285 H 873.33 0.673833 3.66456 0
M  V30 9286 H 873.443 2.51173 4.07981 0
M  V30 9287 H 871.807 1.25193 2.21808 0
M  V30 9288 H 872.59 2.88477 1.86107 0
M  V30 9289 N 875.035 -1.20752 1.01276 0
M  V30 9290 C 875.982 -2.234 0.579732 0
M  V30 9291 C 876.952 -1.61256 -0.398206 0
M  V30 9292 O 878.137 -1.8845 -0.29851 0
M  V30 9293 C 875.277 -3.45008 -0.0797006 0
M  V30 9294 C 874.39 -4.21597 0.942343 0
M  V30 9295 C 873.525 -5.30591 0.254364 0
M  V30 9296 C 872.564 -5.98919 1.26343 0
M  V30 9297 N 871.701 -6.99511 0.602384 0
M  V30 9298 H 876.541 -2.59801 1.45971 0
M  V30 9299 H 874.078 -1.27663 0.730787 0
M  V30 9300 H 876.036 -4.1444 -0.479125 0
M  V30 9301 H 874.666 -3.09312 -0.923354 0
M  V30 9302 H 873.718 -3.51268 1.45996 0
M  V30 9303 H 875.03 -4.68576 1.70992 0
M  V30 9304 H 874.184 -6.06368 -0.200763 0
M  V30 9305 H 872.923 -4.84639 -0.545553 0
M  V30 9306 H 871.928 -5.21906 1.72898 0
M  V30 9307 H 873.153 -6.46957 2.06456 0
M  V30 9308 H 871.099 -6.55759 -0.177734 0
M  V30 9309 H 871.016 -7.44597 1.30809 0
M  V30 9310 H 872.284 -7.79313 0.17072 0
M  V30 9311 N 876.513 -0.788492 -1.36457 0
M  V30 9312 C 877.46 -0.18435 -2.30063 0
M  V30 9313 C 878.43 0.67128 -1.51931 0
M  V30 9314 O 879.615 0.620152 -1.8044 0
M  V30 9315 C 876.755 0.675596 -3.38422 0
M  V30 9316 C 875.868 -0.198475 -4.31544 0
M  V30 9317 C 875.003 0.667757 -5.26986 0
M  V30 9318 C 874.042 -0.207825 -6.11747 0
M  V30 9319 N 873.179 0.617335 -6.99381 0
M  V30 9320 H 878.019 -0.988056 -2.81143 0
M  V30 9321 H 875.556 -0.498815 -1.38384 0
M  V30 9322 H 877.514 1.18916 -3.99894 0
M  V30 9323 H 876.144 1.44474 -2.88664 0
M  V30 9324 H 875.196 -0.829995 -3.71235 0
M  V30 9325 H 876.508 -0.873163 -4.91098 0
M  V30 9326 H 875.662 1.24716 -5.93743 0
M  V30 9327 H 874.401 1.37607 -4.67884 0
M  V30 9328 H 873.406 -0.799638 -5.43954 0
M  V30 9329 H 874.631 -0.913729 -6.72925 0
M  V30 9330 H 872.577 1.30996 -6.42788 0
M  V30 9331 H 872.494 0.000307255 -7.56 0
M  V30 9332 H 873.762 1.1806 -7.70508 0
M  V30 9333 N 877.991 1.48044 -0.54043 0
M  V30 9334 C 878.938 2.29781 0.216597 0
M  V30 9335 C 879.908 1.38021 0.924094 0
M  V30 9336 O 881.093 1.66985 0.923078 0
M  V30 9337 C 878.233 3.21623 1.2511 0
M  V30 9338 C 877.346 4.28467 0.551384 0
M  V30 9339 C 876.481 5.07477 1.56972 0
M  V30 9340 C 875.52 6.06113 0.854048 0
M  V30 9341 N 874.657 6.78143 1.81842 0
M  V30 9342 H 879.497 2.94001 -0.486578 0
M  V30 9343 H 877.034 1.44929 -0.251789 0
M  V30 9344 H 878.992 3.73279 1.8633 0
M  V30 9345 H 877.622 2.59305 1.92252 0
M  V30 9346 H 876.674 3.79997 -0.174982 0
M  V30 9347 H 877.986 4.98799 -0.0100542 0
M  V30 9348 H 877.14 5.63199 2.25592 0
M  V30 9349 H 875.879 4.37008 2.16507 0
M  V30 9350 H 874.884 5.49585 0.153838 0
M  V30 9351 H 876.109 6.78584 0.264675 0
M  V30 9352 H 874.055 6.10417 2.40265 0
M  V30 9353 H 873.972 7.44587 1.3087 0
M  V30 9354 H 875.24 7.38448 2.49628 0
M  V30 9355 N 879.47 0.276058 1.55163 0
M  V30 9356 C 880.718 -0.339782 1.99223 0
M  V30 9357 C 881.039 -1.56307 1.16589 0
M  V30 9358 O 880.309 -1.94225 0.25564 0
M  V30 9359 H 878.889 -0.128534 0.735859 0
M  V30 9360 H 881.551 0.381612 1.91128 0
M  V30 9361 H 880.647 -0.629 3.05696 0
M  V30 9362 N 880.948 -1.576 0.00335426 0
M  V30 9363 C 882.364 -1.55653 -0.352766 0
M  V30 9364 C 882.564 -1.00632 -1.74572 0
M  V30 9365 O 881.62 -0.641621 -2.44212 0
M  V30 9366 C 882.933 -2.99858 -0.224929 0
M  V30 9367 C 884.481 -3.11563 -0.299619 0
M  V30 9368 C 884.956 -4.57559 -0.200868 0
M  V30 9369 N 886.447 -4.62477 -0.258663 0
M  V30 9370 C 887.182 -5.73031 -0.205644 0
M  V30 9371 N 886.678 -6.92723 -0.103027 0
M  V30 9372 N 888.471 -5.61509 -0.257754 0
M  V30 9373 H 880.622 -1.91703 0.914539 0
M  V30 9374 H 882.885 -0.88068 0.350865 0
M  V30 9375 H 882.591 -3.43964 0.733595 0
M  V30 9376 H 882.465 -3.63547 -1.00564 0
M  V30 9377 H 884.852 -2.67384 -1.24859 0
M  V30 9378 H 884.933 -2.50644 0.511025 0
M  V30 9379 H 884.577 -5.02413 0.744572 0
M  V30 9380 H 884.507 -5.16428 -1.03004 0
M  V30 9381 H 886.998 -3.76375 -0.339168 0
M  V30 9382 H 887.311 -7.7277 -0.0685593 0
M  V30 9383 H 885.656 -6.94966 -0.0686069 0
M  V30 9384 H 888.847 -4.66892 -0.336142 0
M  V30 9385 H 889.02 -6.4765 -0.21297 0
M  V30 9386 N 882.426 0.269451 -1.5528 0
M  V30 9387 C 883.654 1.01872 -1.80082 0
M  V30 9388 C 884.069 1.79802 -0.575917 0
M  V30 9389 O 883.426 1.76735 0.455081 0
M  V30 9390 C 883.477 1.9745 -3.02813 0
M  V30 9391 O 883.198 1.22677 -4.20573 0
M  V30 9392 C 884.699 2.8416 -3.40247 0
M  V30 9393 H 881.919 0.300781 -0.59981 0
M  V30 9394 H 884.463 0.29916 -2.023 0
M  V30 9395 H 882.618 2.64864 -2.82712 0
M  V30 9396 H 883.032 1.87129 -4.89982 0
M  V30 9397 H 884.506 3.47014 -4.29284 0
M  V30 9398 H 884.983 3.54113 -2.59809 0
M  V30 9399 H 885.589 2.22232 -3.6262 0
M  V30 9400 N 883.904 1.48273 0.534124 0
M  V30 9401 C 885.15 1.5729 1.28963 0
M  V30 9402 C 885.505 0.241854 1.90874 0
M  V30 9403 O 884.798 -0.754874 1.76103 0
M  V30 9404 C 884.992 2.64468 2.40398 0
M  V30 9405 C 884.821 4.07865 1.8941 0
M  V30 9406 C 883.591 4.75052 1.72202 0
M  V30 9407 C 885.789 4.94163 1.42505 0
M  V30 9408 N 883.771 6.0288 1.15795 0
M  V30 9409 C 885.142 6.12203 0.980176 0
M  V30 9410 C 887.197 4.8042 1.30769 0
M  V30 9411 C 885.9 7.18016 0.429591 0
M  V30 9412 C 887.926 5.86351 0.771107 0
M  V30 9413 C 887.288 7.03597 0.336287 0
M  V30 9414 H 883.387 0.630141 0.463083 0
M  V30 9415 H 885.971 1.85135 0.602767 0
M  V30 9416 H 884.142 2.38453 3.06586 0
M  V30 9417 H 885.874 2.63194 3.07426 0
M  V30 9418 H 882.629 4.3132 1.95603 0
M  V30 9419 H 883.053 6.71043 0.896141 0
M  V30 9420 H 887.695 3.90119 1.62993 0
M  V30 9421 H 885.413 8.08044 0.0950224 0
M  V30 9422 H 888.999 5.77771 0.68354 0
M  V30 9423 H 887.879 7.84167 -0.0724668 0
M  V30 9424 N 885.382 -0.782676 1.36792 0
M  V30 9425 C 886.63 -1.53778 1.31136 0
M  V30 9426 C 886.951 -1.94706 -0.107014 0
M  V30 9427 O 886.221 -1.65465 -1.04872 0
M  V30 9428 H 884.801 -0.570328 0.482426 0
M  V30 9429 H 887.463 -0.932181 1.71162 0
M  V30 9430 H 886.559 -2.44224 1.94321 0
M  V30 9431 N 886.86 -1.21182 -1.00761 0
M  V30 9432 C 888.271 -1.02652 -1.55947 0
M  V30 9433 C 888.622 0.414466 -1.91772 0
M  V30 9434 O 887.747 1.29727 -1.73204 0
M  V30 9435 C 888.342 -1.85713 -2.83366 0
M  V30 9436 C 886.901 -1.71523 -3.35048 0
M  V30 9437 C 886.048 -1.83087 -2.08265 0
M  V30 9438 H 888.999 -1.35242 -0.830379 0
M  V30 9439 H 889.02 -1.36583 -3.55141 0
M  V30 9440 H 888.532 -2.90584 -2.5726 0
M  V30 9441 H 886.633 -0.693257 -3.66094 0
M  V30 9442 H 886.746 -2.53333 -4.06644 0
M  V30 9443 H 885.11 -1.26367 -2.21141 0
M  V30 9444 H 885.893 -2.8946 -1.84575 0
M  V30 9445 N 888.338 1.20213 -1.01915 0
M  V30 9446 C 889.586 1.89272 -0.708552 0
M  V30 9447 C 889.907 1.79394 0.76438 0
M  V30 9448 O 889.177 1.198 1.54999 0
M  V30 9449 H 887.757 0.700628 -0.259094 0
M  V30 9450 H 890.419 1.45985 -1.29129 0
M  V30 9451 H 889.515 2.95841 -0.994215 0
M  V30 9452 N 889.816 0.795718 1.36037 0
M  V30 9453 C 891.044 0.383153 2.03321 0
M  V30 9454 C 891.459 -1.00246 1.59988 0
M  V30 9455 O 890.816 -1.64406 0.792265 0
M  V30 9456 C 890.867 0.444467 3.58757 0
M  V30 9457 O 890.588 1.77544 4.00512 0
M  V30 9458 C 892.089 0.0233291 4.43294 0
M  V30 9459 H 889.309 0.157061 0.652359 0
M  V30 9460 H 891.853 1.07632 1.73884 0
M  V30 9461 H 890.008 -0.200341 3.86882 0
M  V30 9462 H 890.422 1.73065 4.95125 0
M  V30 9463 H 891.896 0.117361 5.51875 0
M  V30 9464 H 892.373 -1.03007 4.2695 0
M  V30 9465 H 892.979 0.64087 4.20444 0
M  V30 9466 N 891.294 -1.47756 0.548274 0
M  V30 9467 C 892.224 -2.32702 -0.19284 0
M  V30 9468 C 893.205 -1.43237 -0.917457 0
M  V30 9469 O 894.39 -1.72103 -0.89967 0
M  V30 9470 C 891.52 -3.24831 -1.22891 0
M  V30 9471 C 890.474 -4.23466 -0.621312 0
M  V30 9472 C 889.8 -5.04856 -1.76137 0
M  V30 9473 C 891.1 -5.20616 0.419055 0
M  V30 9474 H 892.794 -2.94914 0.516323 0
M  V30 9475 H 890.34 -1.41818 0.24975 0
M  V30 9476 H 892.293 -3.83094 -1.75547 0
M  V30 9477 H 891.017 -2.60656 -1.9679 0
M  V30 9478 H 889.676 -3.66416 -0.116123 0
M  V30 9479 H 889.324 -4.37091 -2.48918 0
M  V30 9480 H 889.024 -5.71629 -1.36065 0
M  V30 9481 H 890.548 -5.65976 -2.29136 0
M  V30 9482 H 891.962 -5.73296 -0.0211034 0
M  V30 9483 H 890.359 -5.95543 0.738163 0
M  V30 9484 H 891.429 -4.66638 1.31822 0
M  V30 9485 N 892.772 -0.284283 -1.55015 0
M  V30 9486 C 894.02 0.329212 -1.99401 0
M  V30 9487 C 894.341 1.55687 -1.17416 0
M  V30 9488 O 893.611 1.94087 -0.265937 0
M  V30 9489 H 892.191 0.12463 -0.73653 0
M  V30 9490 H 894.853 -0.391743 -1.90922 0
M  V30 9491 H 893.949 0.61278 -3.06025 0
M  V30 9492 N 894.251 1.57596 -0.0117121 0
M  V30 9493 C 895.183 2.06025 1.0043 0
M  V30 9494 C 896.196 0.980348 1.29973 0
M  V30 9495 O 897.385 1.25691 1.26744 0
M  V30 9496 C 894.485 2.45514 2.33615 0
M  V30 9497 C 893.658 3.76378 2.22842 0
M  V30 9498 C 892.717 4.02606 3.38814 0
M  V30 9499 O 891.743 4.73108 3.16477 0
M  V30 9500 N 892.945 3.51416 4.62047 0
M  V30 9501 H 895.71 2.93811 0.591206 0
M  V30 9502 H 893.271 1.60947 0.175427 0
M  V30 9503 H 895.263 2.60166 3.09993 0
M  V30 9504 H 893.833 1.63186 2.66625 0
M  V30 9505 H 893.053 3.71691 1.313 0
M  V30 9506 H 894.341 4.62149 2.12829 0
M  V30 9507 H 893.739 2.94346 4.83091 0
M  V30 9508 H 892.296 3.71377 5.35651 0
M  V30 9509 N 895.729 -0.261212 1.5542 0
M  V30 9510 C 896.676 -1.32315 1.89107 0
M  V30 9511 C 897.646 -1.48517 0.743767 0
M  V30 9512 O 898.831 -1.62733 0.996123 0
M  V30 9513 C 895.971 -2.67626 2.17877 0
M  V30 9514 C 895.084 -2.59549 3.45338 0
M  V30 9515 C 894.219 -3.87118 3.63748 0
M  V30 9516 C 893.258 -3.736 4.8486 0
M  V30 9517 N 892.395 -4.93029 4.99867 0
M  V30 9518 H 897.235 -1.02886 2.79675 0
M  V30 9519 H 894.772 -0.496812 1.38456 0
M  V30 9520 H 896.73 -3.4637 2.32559 0
M  V30 9521 H 895.36 -2.95232 1.30529 0
M  V30 9522 H 894.412 -1.72452 3.39064 0
M  V30 9523 H 895.724 -2.45465 4.34222 0
M  V30 9524 H 894.878 -4.74305 3.78312 0
M  V30 9525 H 893.617 -4.04084 2.73071 0
M  V30 9526 H 892.622 -2.84797 4.70288 0
M  V30 9527 H 893.847 -3.58143 5.76984 0
M  V30 9528 H 891.793 -5.10383 4.12123 0
M  V30 9529 H 891.71 -4.81521 5.82815 0
M  V30 9530 H 892.978 -5.81754 5.18828 0
M  V30 9531 N 897.207 -1.48554 -0.526253 0
M  V30 9532 C 898.117 -1.66044 -1.65731 0
M  V30 9533 C 899.133 -0.542951 -1.65312 0
M  V30 9534 O 900.309 -0.814495 -1.84195 0
M  V30 9535 C 897.374 -1.69959 -3.02184 0
M  V30 9536 C 896.435 -2.93362 -3.13428 0
M  V30 9537 C 895.668 -2.97081 -4.43372 0
M  V30 9538 O 895.891 -2.09103 -5.3069 0
M  V30 9539 O 894.825 -3.8929 -4.59061 0
M  V30 9540 H 898.651 -2.61811 -1.53912 0
M  V30 9541 H 896.236 -1.31999 -0.699759 0
M  V30 9542 H 898.118 -1.75033 -3.83329 0
M  V30 9543 H 896.793 -0.773658 -3.14319 0
M  V30 9544 H 895.7 -2.93818 -2.31564 0
M  V30 9545 H 897.033 -3.85352 -3.06211 0
M  V30 9546 N 898.685 0.775411 -1.37205 0
M  V30 9547 C 899.615 1.90258 -1.35367 0
M  V30 9548 C 900.596 1.68634 -0.222864 0
M  V30 9549 O 901.781 1.89545 -0.422659 0
M  V30 9550 C 898.911 3.27488 -1.15623 0
M  V30 9551 C 897.865 3.63668 -2.25676 0
M  V30 9552 C 897.191 4.994 -1.91059 0
M  V30 9553 C 898.491 3.70797 -3.67841 0
M  V30 9554 H 900.185 1.92053 -2.29687 0
M  V30 9555 H 897.731 0.922597 -1.10563 0
M  V30 9556 H 899.684 4.05976 -1.12968 0
M  V30 9557 H 898.408 3.26117 -0.177573 0
M  V30 9558 H 897.067 2.87486 -2.2748 0
M  V30 9559 H 896.715 4.94565 -0.917324 0
M  V30 9560 H 896.415 5.24576 -2.64751 0
M  V30 9561 H 897.939 5.80291 -1.89985 0
M  V30 9562 H 899.353 4.39444 -3.68187 0
M  V30 9563 H 897.75 4.07468 -4.40556 0
M  V30 9564 H 898.82 2.71549 -4.01732 0
M  V30 9565 N 900.163 1.21714 1.00117 0
M  V30 9566 C 901.126 0.981338 2.07129 0
M  V30 9567 C 902.126 -0.0491116 1.60725 0
M  V30 9568 O 903.316 0.188555 1.73177 0
M  V30 9569 C 900.448 0.480608 3.37495 0
M  V30 9570 H 901.641 1.93075 2.29482 0
M  V30 9571 H 899.194 1.03467 1.17151 0
M  V30 9572 H 899.929 -0.473552 3.20824 0
M  V30 9573 H 899.714 1.22393 3.72508 0
M  V30 9574 H 901.204 0.33561 4.16249 0
M  V30 9575 N 901.641 -1.19671 1.02551 0
M  V30 9576 C 902.866 -1.93774 0.739363 0
M  V30 9577 C 903.291 -1.74787 -0.695064 0
M  V30 9578 O 902.649 -1.04796 -1.47944 0
M  V30 9579 C 902.697 -3.43684 1.09149 0
M  V30 9580 O 901.801 -4.11874 0.208213 0
M  V30 9581 H 901.142 -0.605064 0.273484 0
M  V30 9582 H 903.672 -1.51846 1.37128 0
M  V30 9583 H 903.682 -3.94339 1.04695 0
M  V30 9584 H 902.357 -3.56826 2.13654 0
M  V30 9585 H 900.934 -3.716 0.311045 0
M  V30 9586 N 903.119 -0.802921 -1.35613 0
M  V30 9587 C 904.367 -0.380822 -1.9848 0
M  V30 9588 C 904.688 1.05464 -1.6402 0
M  V30 9589 O 903.958 1.72908 -0.920854 0
M  V30 9590 H 902.538 -0.137824 -0.734176 0
M  V30 9591 H 905.2 -1.02795 -1.65587 0
M  V30 9592 H 904.296 -0.483565 -3.08331 0
M  V30 9593 N 904.597 1.47463 -0.556102 0
M  V30 9594 C 905.874 1.9557 0.0339892 0
M  V30 9595 C 906.254 1.49869 1.48669 0
M  V30 9596 O 905.602 0.737019 2.16288 0
M  V30 9597 C 905.812 3.48826 -0.110343 0
M  V30 9598 C 907.16 4.24585 0.0355716 0
M  V30 9599 O 908.184 3.5618 -0.0378356 0
M  V30 9600 O 907.043 5.46158 0.193299 0
M  V30 9601 H 904.137 0.824461 0.0647521 0
M  V30 9602 H 906.683 1.57868 -0.622547 0
M  V30 9603 H 905.455 3.74891 -1.12126 0
M  V30 9604 H 905.078 3.9329 0.583855 0
M  V30 9605 N 906.075 0.2925 1.54862 0
M  V30 9606 C 906.985 -0.597036 2.26876 0
M  V30 9607 C 908.001 -1.15558 1.30086 0
M  V30 9608 O 909.177 -1.18217 1.63054 0
M  V30 9609 C 906.242 -1.75664 2.98903 0
M  V30 9610 C 905.303 -1.23303 4.11212 0
M  V30 9611 C 904.536 -2.33736 4.79795 0
M  V30 9612 O 904.759 -3.53459 4.47686 0
M  V30 9613 O 903.693 -2.00908 5.67379 0
M  V30 9614 H 907.519 -0.0131242 3.03697 0
M  V30 9615 H 905.104 0.0592642 1.49282 0
M  V30 9616 H 906.986 -2.43241 3.4411 0
M  V30 9617 H 905.661 -2.32731 2.24984 0
M  V30 9618 H 904.568 -0.523222 3.70423 0
M  V30 9619 H 905.901 -0.707887 4.87083 0
M  V30 9620 N 907.553 -1.57587 0.0200696 0
M  V30 9621 C 908.801 -1.91046 -0.65922 0
M  V30 9622 C 909.122 -0.896197 -1.73186 0
M  V30 9623 O 908.392 0.0635952 -1.95797 0
M  V30 9624 H 906.972 -0.705163 -0.246483 0
M  V30 9625 H 909.634 -1.94789 0.0657368 0
M  V30 9626 H 908.73 -2.91399 -1.11773 0
M  V30 9627 N 909.032 0.252966 -1.55557 0
M  V30 9628 C 910.257 1.0038 -1.8149 0
M  V30 9629 C 910.682 1.78397 -0.596318 0
M  V30 9630 O 910.04 1.7551 0.454535 0
M  V30 9631 C 910.088 1.9222 -3.05096 0
M  V30 9632 O 909.192 3.01302 -2.81587 0
M  V30 9633 H 908.533 0.285949 -0.599274 0
M  V30 9634 H 911.063 0.275795 -2.02733 0
M  V30 9635 H 911.073 2.338 -3.34368 0
M  V30 9636 H 909.748 1.34852 -3.93431 0
M  V30 9637 H 908.325 2.63894 -2.63466 0
M  V30 9638 N 910.51 1.48831 0.518367 0
M  V30 9639 C 911.921 1.50842 1.10016 0
M  V30 9640 C 912.272 0.284744 1.94123 0
M  V30 9641 O 911.397 -0.607088 2.0771 0
M  V30 9642 C 911.992 2.73329 2.00191 0
M  V30 9643 C 910.551 2.78175 2.53566 0
M  V30 9644 C 909.698 2.4452 1.30786 0
M  V30 9645 H 912.649 1.55779 0.303073 0
M  V30 9646 H 912.67 2.52506 2.84642 0
M  V30 9647 H 912.182 3.62374 1.3895 0
M  V30 9648 H 910.283 1.93368 3.18496 0
M  V30 9649 H 910.396 3.79905 2.91906 0
M  V30 9650 H 908.76 1.95924 1.62744 0
M  V30 9651 H 909.543 3.35819 0.712797 0
M  V30 9652 N 911.988 -0.768124 1.37614 0
M  V30 9653 C 912.92 -1.89076 1.29548 0
M  V30 9654 C 913.933 -1.61433 0.21056 0
M  V30 9655 O 915.122 -1.72283 0.466992 0
M  V30 9656 C 912.222 -3.24388 0.981102 0
M  V30 9657 C 911.395 -3.79649 2.17222 0
M  V30 9658 C 910.454 -4.93444 1.82754 0
M  V30 9659 O 909.48 -5.0884 2.5509 0
M  V30 9660 N 910.682 -5.75319 0.773819 0
M  V30 9661 H 913.447 -1.9651 2.26283 0
M  V30 9662 H 911.008 -0.947399 1.31286 0
M  V30 9663 H 913 -3.98038 0.731301 0
M  V30 9664 H 911.57 -3.12433 0.102203 0
M  V30 9665 H 910.79 -2.97735 2.58355 0
M  V30 9666 H 912.078 -4.13302 2.96748 0
M  V30 9667 H 911.476 -5.65433 0.173644 0
M  V30 9668 H 910.033 -6.4918 0.583882 0
M  V30 9669 N 913.466 -1.22244 -0.994698 0
M  V30 9670 C 914.882 -0.982006 -1.25813 0
M  V30 9671 C 915.082 0.325488 -1.98854 0
M  V30 9672 O 914.138 1.04857 -2.29698 0
M  V30 9673 C 915.451 -2.1795 -2.07167 0
M  V30 9674 C 916.999 -2.22287 -2.20358 0
M  V30 9675 C 917.474 -3.41583 -3.05098 0
M  V30 9676 N 918.965 -3.41734 -3.12686 0
M  V30 9677 C 919.7 -4.30692 -3.78539 0
M  V30 9678 N 919.196 -5.29865 -4.46335 0
M  V30 9679 N 920.989 -4.18473 -3.75283 0
M  V30 9680 H 913.14 -2.0631 -0.504963 0
M  V30 9681 H 915.403 -0.90395 -0.285618 0
M  V30 9682 H 915.109 -3.12758 -1.60858 0
M  V30 9683 H 914.983 -2.17862 -3.07922 0
M  V30 9684 H 917.37 -1.28028 -2.65881 0
M  V30 9685 H 917.451 -2.26414 -1.19039 0
M  V30 9686 H 917.095 -4.36141 -2.60275 0
M  V30 9687 H 917.025 -3.34695 -4.06555 0
M  V30 9688 H 919.516 -2.69969 -2.64433 0
M  V30 9689 H 919.829 -5.94027 -4.9432 0
M  V30 9690 H 918.174 -5.3378 -4.45089 0
M  V30 9691 H 921.365 -3.40249 -3.21478 0
M  V30 9692 H 921.538 -4.88007 -4.26326 0
M  V30 9693 N 914.944 1.19125 -1.03184 0
M  V30 9694 C 916.36 1.40909 -0.749447 0
M  V30 9695 C 916.56 1.9022 0.664729 0
M  V30 9696 O 915.616 2.08085 1.43028 0
M  V30 9697 C 916.929 2.41761 -1.78807 0
M  V30 9698 C 918.477 2.55503 -1.80796 0
M  V30 9699 C 918.952 3.59612 -2.83626 0
M  V30 9700 N 920.443 3.6711 -2.82461 0
M  V30 9701 C 921.178 4.47366 -3.5868 0
M  V30 9702 N 920.674 5.31302 -4.44623 0
M  V30 9703 N 922.467 4.42044 -3.47208 0
M  V30 9704 H 914.618 0.854399 -1.94458 0
M  V30 9705 H 916.881 0.437753 -0.840878 0
M  V30 9706 H 916.587 2.12559 -2.80199 0
M  V30 9707 H 916.461 3.40981 -1.61283 0
M  V30 9708 H 918.848 2.84027 -0.800803 0
M  V30 9709 H 918.929 1.56427 -2.02396 0
M  V30 9710 H 918.573 3.3183 -3.84515 0
M  V30 9711 H 918.503 4.58345 -2.59283 0
M  V30 9712 H 920.994 3.07166 -2.2013 0
M  V30 9713 H 921.307 5.89667 -4.99512 0
M  V30 9714 H 919.652 5.30753 -4.48694 0
M  V30 9715 H 922.843 3.75513 -2.79477 0
M  V30 9716 H 923.016 5.0435 -4.06859 0
M  V30 9717 N 916.422 0.810101 1.35185 0
M  V30 9718 C 917.332 0.224565 2.33523 0
M  V30 9719 C 918.348 -0.634287 1.62027 0
M  V30 9720 O 919.524 -0.545211 1.9388 0
M  V30 9721 C 916.589 -0.614319 3.41214 0
M  V30 9722 C 915.65 0.265435 4.28479 0
M  V30 9723 C 914.883 -0.533506 5.31027 0
M  V30 9724 O 915.106 -1.7679 5.42311 0
M  V30 9725 O 914.04 0.0774573 6.0185 0
M  V30 9726 H 917.866 1.03815 2.85405 0
M  V30 9727 H 915.451 0.571964 1.38018 0
M  V30 9728 H 917.333 -1.09201 4.07005 0
M  V30 9729 H 916.008 -1.40545 2.91597 0
M  V30 9730 H 914.915 0.790343 3.65656 0
M  V30 9731 H 916.248 1.0206 4.81503 0
M  V30 9732 N 917.9 -1.47166 0.563914 0
M  V30 9733 C 918.847 -2.30097 -0.180013 0
M  V30 9734 C 919.817 -1.39473 -0.902019 0
M  V30 9735 O 921.002 -1.68432 -0.896396 0
M  V30 9736 C 918.142 -3.23573 -1.19978 0
M  V30 9737 C 917.255 -4.2929 -0.483149 0
M  V30 9738 C 916.39 -5.0991 -1.48879 0
M  V30 9739 C 915.429 -6.07395 -0.757513 0
M  V30 9740 N 914.566 -6.8095 -1.71031 0
M  V30 9741 H 919.406 -2.93189 0.53329 0
M  V30 9742 H 916.943 -1.4451 0.274814 0
M  V30 9743 H 918.901 -3.76196 -1.80368 0
M  V30 9744 H 917.531 -2.6233 -1.88103 0
M  V30 9745 H 916.583 -3.79671 0.235414 0
M  V30 9746 H 917.895 -4.9872 0.0894075 0
M  V30 9747 H 917.049 -5.66717 -2.16603 0
M  V30 9748 H 915.788 -4.40397 -2.09527 0
M  V30 9749 H 914.793 -5.4976 -0.0663841 0
M  V30 9750 H 916.018 -6.78919 -0.156685 0
M  V30 9751 H 913.964 -6.14162 -2.30524 0
M  V30 9752 H 913.881 -7.46574 -1.19007 0
M  V30 9753 H 915.149 -7.42326 -2.37849 0
M  V30 9754 N 919.378 -0.300708 -1.54705 0
M  V30 9755 C 920.341 0.562648 -2.22187 0
M  V30 9756 C 921.341 1.06152 -1.20782 0
M  V30 9757 O 922.531 0.957596 -1.45519 0
M  V30 9758 C 919.663 1.77899 -2.908 0
M  V30 9759 H 920.856 -0.0269361 -2.99888 0
M  V30 9760 H 918.409 -0.0515412 -1.56215 0
M  V30 9761 H 919.144 2.40841 -2.17177 0
M  V30 9762 H 918.929 1.42892 -3.65136 0
M  V30 9763 H 920.419 2.39236 -3.42281 0
M  V30 9764 N 920.856 1.57574 -0.0284266 0
M  V30 9765 C 921.804 2.11332 0.971675 0
M  V30 9766 C 922.798 1.03974 1.33738 0
M  V30 9767 O 924.004 1.22409 1.31969 0
M  V30 9768 H 920.379 0.675174 0.331125 0
M  V30 9769 H 922.35 2.943 0.49296 0
M  V30 9770 C 921.099 2.65496 2.24516 0
M  V30 9771 H 920.422 3.47753 1.9725 0
M  V30 9772 H 921.862 3.06757 2.92705 0
M  V30 9773 C 920.321 1.58207 2.97443 0
M  V30 9774 O 920.851 0.981496 3.89525 0
M  V30 9775 N 919.057 1.30269 2.59766 0
M  V30 9776 H 918.604 1.79294 1.84963 0
M  V30 9777 H 918.562 0.587085 3.0887 0
M  V30 9778 N 922.334 -0.244713 1.55689 0
M  V30 9779 C 923.582 -0.970525 1.77272 0
M  V30 9780 C 923.903 -1.85771 0.592804 0
M  V30 9781 O 923.173 -1.91952 -0.391323 0
M  V30 9782 H 921.753 -0.361342 0.653789 0
M  V30 9783 H 924.415 -0.262134 1.93129 0
M  V30 9784 H 923.511 -1.59096 2.68505 0
M  V30 9785 N 923.813 -1.49104 -0.510467 0
M  V30 9786 C 924.743 -1.67981 -1.62187 0
M  V30 9787 C 925.724 -0.528529 -1.6168 0
M  V30 9788 O 926.909 -0.763305 -1.7857 0
M  V30 9789 C 924.039 -1.73755 -3.0071 0
M  V30 9790 C 922.993 -2.88579 -3.1608 0
M  V30 9791 C 922.319 -2.79457 -4.5586 0
M  V30 9792 C 923.619 -4.29638 -2.97 0
M  V30 9793 H 925.313 -2.61029 -1.46643 0
M  V30 9794 H 922.859 -1.25615 -0.704042 0
M  V30 9795 H 924.812 -1.85548 -3.78352 0
M  V30 9796 H 923.536 -0.772996 -3.17321 0
M  V30 9797 H 922.195 -2.76372 -2.40861 0
M  V30 9798 H 921.843 -1.80929 -4.69333 0
M  V30 9799 H 921.543 -3.56518 -4.67086 0
M  V30 9800 H 923.067 -2.93245 -5.35574 0
M  V30 9801 H 924.481 -4.42575 -3.64418 0
M  V30 9802 H 922.878 -5.07847 -3.19704 0
M  V30 9803 H 923.948 -4.44741 -1.93219 0
M  V30 9804 N 925.291 0.760815 -1.38019 0
M  V30 9805 C 926.516 1.55513 -1.37224 0
M  V30 9806 C 926.941 1.88062 0.037611 0
M  V30 9807 O 926.299 1.50042 1.0177 0
M  V30 9808 C 926.347 2.83539 -2.22796 0
M  V30 9809 O 925.451 3.78384 -1.64009 0
M  V30 9810 H 924.792 0.470642 -0.468393 0
M  V30 9811 H 927.322 0.940792 -1.81687 0
M  V30 9812 H 927.332 3.32535 -2.36399 0
M  V30 9813 H 926.007 2.59178 -3.25269 0
M  V30 9814 H 924.584 3.37063 -1.59508 0
M  V30 9815 N 926.769 1.22769 0.988202 0
M  V30 9816 C 927.997 1.08155 1.76381 0
M  V30 9817 C 928.412 -0.367573 1.85187 0
M  V30 9818 O 927.769 -1.25455 1.32541 0
M  V30 9819 C 927.82 1.69193 3.19462 0
M  V30 9820 O 927.541 3.08437 3.11125 0
M  V30 9821 C 929.042 1.59915 4.13451 0
M  V30 9822 H 926.262 0.378908 0.553778 0
M  V30 9823 H 928.806 1.6246 1.24206 0
M  V30 9824 H 926.961 1.18939 3.6869 0
M  V30 9825 H 927.375 3.37916 4.0114 0
M  V30 9826 H 928.849 2.07339 5.1158 0
M  V30 9827 H 929.326 0.556546 4.3566 0
M  V30 9828 H 929.932 2.09497 3.70123 0
M  V30 9829 N 928.247 -1.18576 1.03814 0
M  V30 9830 C 929.658 -1.70159 0.768299 0
M  V30 9831 C 930.009 -1.8286 -0.711106 0
M  V30 9832 O 929.134 -1.5063 -1.55369 0
M  V30 9833 C 929.729 -3.09062 1.38804 0
M  V30 9834 C 928.288 -3.57866 1.16656 0
M  V30 9835 C 927.435 -2.34484 1.48029 0
M  V30 9836 H 930.386 -1.03287 1.20488 0
M  V30 9837 H 930.407 -3.72211 0.7899 0
M  V30 9838 H 929.919 -2.99785 2.46476 0
M  V30 9839 H 928.02 -3.72442 0.108471 0
M  V30 9840 H 928.133 -4.41445 1.8618 0
M  V30 9841 H 926.497 -2.38273 0.899902 0
M  V30 9842 H 927.28 -2.27829 2.56805 0
M  V30 9843 N 929.725 -0.817259 -1.34754 0
M  V30 9844 C 930.95 -0.414423 -2.03217 0
M  V30 9845 C 931.375 0.970037 -1.61158 0
M  V30 9846 O 930.733 1.63016 -0.793436 0
M  V30 9847 C 930.781 -0.518087 -3.56859 0
M  V30 9848 O 929.885 0.464314 -4.09778 0
M  V30 9849 H 929.226 -0.171454 -0.641482 0
M  V30 9850 H 931.756 -1.10611 -1.72123 0
M  V30 9851 H 931.766 -0.391779 -4.06115 0
M  V30 9852 H 930.441 -1.52786 -3.86819 0
M  V30 9853 H 929.018 0.297361 -3.71712 0
M  V30 9854 N 931.203 1.46865 -0.571711 0
M  V30 9855 C 932.113 2.33979 0.170571 0
M  V30 9856 C 933.129 1.49083 0.897239 0
M  V30 9857 O 934.305 1.81979 0.862888 0
M  V30 9858 C 931.37 3.26063 1.17831 0
M  V30 9859 C 930.431 4.26855 0.457499 0
M  V30 9860 C 929.664 5.14539 1.41722 0
M  V30 9861 O 929.887 5.04945 2.65305 0
M  V30 9862 O 928.821 5.94612 0.9338 0
M  V30 9863 H 932.647 2.98781 -0.544396 0
M  V30 9864 H 930.232 1.4566 -0.332198 0
M  V30 9865 H 932.114 3.82903 1.75965 0
M  V30 9866 H 930.789 2.63871 1.87493 0
M  V30 9867 H 929.696 3.73734 -0.165406 0
M  V30 9868 H 931.029 4.91802 -0.197953 0
M  V30 9869 N 932.681 0.308908 1.54543 0
M  V30 9870 C 933.906 -0.303196 2.05172 0
M  V30 9871 C 934.331 -1.46133 1.18434 0
M  V30 9872 O 933.689 -1.803 0.190162 0
M  V30 9873 C 933.737 -0.729526 3.53143 0
M  V30 9874 O 932.841 -1.83348 3.69401 0
M  V30 9875 H 932.182 -0.0575066 0.661505 0
M  V30 9876 H 934.712 0.453055 1.99521 0
M  V30 9877 H 934.722 -1.01619 3.95143 0
M  V30 9878 H 933.397 0.117622 4.15734 0
M  V30 9879 H 931.974 -1.54676 3.39308 0
M  V30 9880 N 934.159 -1.57557 0.0367827 0
M  V30 9881 C 935.57 -1.79853 -0.500971 0
M  V30 9882 C 935.921 -0.947749 -1.71791 0
M  V30 9883 O 935.046 -0.160287 -2.15806 0
M  V30 9884 C 935.641 -3.26193 -0.915626 0
M  V30 9885 C 934.2 -3.49457 -1.39845 0
M  V30 9886 C 933.347 -2.74864 -0.366784 0
M  V30 9887 H 936.298 -1.56509 0.262768 0
M  V30 9888 H 936.319 -3.36324 -1.7795 0
M  V30 9889 H 935.831 -3.88089 -0.0297227 0
M  V30 9890 H 933.932 -2.92823 -2.30402 0
M  V30 9891 H 934.045 -4.58172 -1.40054 0
M  V30 9892 H 932.409 -2.4057 -0.836554 0
M  V30 9893 H 933.192 -3.39479 0.510785 0
M  V30 9894 N 935.637 0.236453 -1.55816 0
M  V30 9895 C 936.587 1.29603 -1.87582 0
M  V30 9896 C 937.571 1.42999 -0.737566 0
M  V30 9897 O 938.763 1.46065 -0.999701 0
M  V30 9898 C 935.892 2.64945 -2.1831 0
M  V30 9899 C 934.978 2.55511 -3.38489 0
M  V30 9900 N 935.369 2.15716 -4.57494 0
M  V30 9901 C 933.667 2.86502 -3.41808 0
M  V30 9902 C 934.368 2.17169 -5.39641 0
M  V30 9903 N 933.344 2.5708 -4.78969 0
M  V30 9904 H 937.146 0.979016 -2.77115 0
M  V30 9905 H 934.66 0.445058 -1.56183 0
M  V30 9906 H 936.657 3.41426 -2.39236 0
M  V30 9907 H 935.317 2.97504 -1.30082 0
M  V30 9908 H 936.328 1.87089 -4.82927 0
M  V30 9909 H 933.005 3.23533 -2.6388 0
M  V30 9910 H 934.395 1.88653 -6.44872 0
M  V30 9911 N 937.115 1.49373 0.502552 0
M  V30 9912 C 938.362 1.58781 1.25678 0
M  V30 9913 C 938.69 0.273819 1.92563 0
M  V30 9914 O 937.945 -0.738141 1.81246 0
M  V30 9915 C 938.244 2.69508 2.34735 0
M  V30 9916 C 937.91 4.11057 1.85318 0
M  V30 9917 C 936.572 4.49578 1.7156 0
M  V30 9918 C 938.924 4.99653 1.48312 0
M  V30 9919 C 936.252 5.74469 1.19172 0
M  V30 9920 C 938.604 6.2506 0.97377 0
M  V30 9921 C 937.268 6.62412 0.822573 0
M  V30 9922 H 936.538 0.581021 0.459887 0
M  V30 9923 H 939.185 1.83197 0.557767 0
M  V30 9924 H 937.49 2.39057 3.10418 0
M  V30 9925 H 939.187 2.73997 2.92791 0
M  V30 9926 H 935.777 3.80651 1.96985 0
M  V30 9927 H 939.961 4.70549 1.57789 0
M  V30 9928 H 935.217 6.0211 1.06176 0
M  V30 9929 H 939.391 6.93089 0.678233 0
M  V30 9930 H 937.018 7.59069 0.414453 0
M  V30 9931 N 938.594 -0.753485 1.38421 0
M  V30 9932 C 939.544 -1.85788 1.32162 0
M  V30 9933 C 940.528 -1.59577 0.20588 0
M  V30 9934 O 941.72 -1.71396 0.44186 0
M  V30 9935 C 938.849 -3.23498 1.14909 0
M  V30 9936 C 937.935 -3.556 2.31105 0
M  V30 9937 N 938.326 -3.58759 3.56547 0
M  V30 9938 C 936.624 -3.85866 2.23659 0
M  V30 9939 C 937.325 -3.8813 4.33278 0
M  V30 9940 N 936.301 -4.04966 3.62635 0
M  V30 9941 H 940.103 -1.86509 2.27138 0
M  V30 9942 H 937.617 -0.950843 1.31654 0
M  V30 9943 H 939.614 -4.02531 1.08509 0
M  V30 9944 H 938.274 -3.24029 0.20866 0
M  V30 9945 H 939.285 -3.40517 3.90216 0
M  V30 9946 H 935.962 -3.94112 1.37776 0
M  V30 9947 H 937.352 -3.97197 5.41926 0
M  V30 9948 N 940.072 -1.23292 -0.981677 0
M  V30 9949 C 941.002 -1.03738 -2.09191 0
M  V30 9950 C 941.983 0.0453041 -1.7004 0
M  V30 9951 O 943.168 -0.119092 -1.93834 0
M  V30 9952 C 940.298 -0.626426 -3.41604 0
M  V30 9953 C 939.252 -1.65631 -3.94652 0
M  V30 9954 C 938.578 -1.10084 -5.23245 0
M  V30 9955 C 939.878 -3.04903 -4.24066 0
M  V30 9956 H 941.572 -1.966 -2.25807 0
M  V30 9957 H 939.118 -0.946656 -1.0851 0
M  V30 9958 H 941.071 -0.476689 -4.18695 0
M  V30 9959 H 939.795 0.337873 -3.24848 0
M  V30 9960 H 938.454 -1.79402 -3.19704 0
M  V30 9961 H 938.102 -0.127562 -5.02838 0
M  V30 9962 H 937.802 -1.78896 -5.59705 0
M  V30 9963 H 939.326 -0.962928 -6.02959 0
M  V30 9964 H 940.74 -2.94441 -4.91912 0
M  V30 9965 H 939.137 -3.70941 -4.71724 0
M  V30 9966 H 940.207 -3.53991 -3.31389 0
M  V30 9967 N 941.55 1.18024 -1.04442 0
M  V30 9968 C 942.798 1.87727 -0.74854 0
M  V30 9969 C 943.119 1.80975 0.726156 0
M  V30 9970 O 942.389 1.23061 1.52423 0
M  V30 9971 H 940.969 0.694974 -0.273897 0
M  V30 9972 H 943.631 1.43213 -1.32197 0
M  V30 9973 H 942.727 2.93665 -1.05674 0
M  V30 9974 N 943.028 0.824394 1.34319 0
M  V30 9975 C 943.958 0.262077 2.32025 0
M  V30 9976 C 944.939 -0.622277 1.58309 0
M  V30 9977 O 946.124 -0.548848 1.86283 0
M  V30 9978 C 943.254 -0.57567 3.42496 0
M  V30 9979 C 942.208 0.21167 4.27476 0
M  V30 9980 C 941.534 -0.748913 5.29429 0
M  V30 9981 C 942.834 1.42068 5.02607 0
M  V30 9982 H 944.528 1.07842 2.79304 0
M  V30 9983 H 942.074 0.520022 1.34282 0
M  V30 9984 H 944.027 -0.979251 4.09864 0
M  V30 9985 H 942.751 -1.42508 2.93869 0
M  V30 9986 H 941.41 0.596636 3.61712 0
M  V30 9987 H 941.058 -1.59432 4.77064 0
M  V30 9988 H 940.758 -0.226313 5.87164 0
M  V30 9989 H 942.282 -1.15032 5.99667 0
M  V30 9990 H 943.696 1.09103 5.62823 0
M  V30 9991 H 942.093 1.87903 5.69923 0
M  V30 9992 H 943.163 2.1981 4.32217 0
M  V30 9993 N 944.506 -1.46559 0.579492 0
M  V30 9994 C 945.453 -2.30275 -0.155598 0
M  V30 9995 C 946.423 -1.40422 -0.887175 0
M  V30 9996 O 947.608 -1.69373 -0.878481 0
M  V30 9997 C 944.748 -3.24827 -1.16539 0
M  V30 9998 C 943.861 -4.29778 -0.43759 0
M  V30 9999 C 942.996 -5.11461 -1.43462 0
M  V30 10000 C 942.035 -6.08164 -0.693048 0
M  V30 10001 N 941.172 -6.82726 -1.63799 0
M  V30 10002 H 946.012 -2.92607 0.564356 0
M  V30 10003 H 943.549 -1.44211 0.290126 0
M  V30 10004 H 945.507 -3.78088 -1.76368 0
M  V30 10005 H 944.137 -2.64311 -1.8531 0
M  V30 10006 H 943.189 -3.794 0.27567 0
M  V30 10007 H 944.501 -4.98597 0.142298 0
M  V30 10008 H 943.655 -5.68982 -2.1058 0
M  V30 10009 H 942.394 -4.42595 -2.04844 0
M  V30 10010 H 941.399 -5.49799 -0.00807093 0
M  V30 10011 H 942.624 -6.79047 -0.0846678 0
M  V30 10012 H 940.57 -6.16572 -2.23997 0
M  V30 10013 H 940.487 -7.47795 -1.11082 0
M  V30 10014 H 941.755 -7.44807 -2.29962 0
M  V30 10015 N 945.984 -0.3171 -1.54377 0
M  V30 10016 C 947.209 0.292311 -2.0533 0
M  V30 10017 C 947.634 1.45503 -1.19207 0
M  V30 10018 O 946.992 1.80197 -0.199721 0
M  V30 10019 C 947.04 0.710787 -3.53525 0
M  V30 10020 O 946.144 1.81387 -3.70368 0
M  V30 10021 H 945.485 0.0539976 -0.661801 0
M  V30 10022 H 948.015 -0.463629 -1.99278 0
M  V30 10023 H 948.025 0.995216 -3.95676 0
M  V30 10024 H 946.7 -0.139668 -4.15665 0
M  V30 10025 H 945.277 1.52875 -3.40123 0
M  V30 10026 N 947.462 1.57535 -0.0451378 0
M  V30 10027 C 948.392 2.14208 0.929372 0
M  V30 10028 C 949.373 1.06221 1.32858 0
M  V30 10029 O 950.558 1.34132 1.40436 0
M  V30 10030 C 947.688 2.68217 2.20629 0
M  V30 10031 C 946.642 3.81134 1.94734 0
M  V30 10032 C 945.968 4.21636 3.28828 0
M  V30 10033 C 947.268 5.06531 1.27374 0
M  V30 10034 H 948.962 2.95886 0.457348 0
M  V30 10035 H 946.508 1.42332 0.218544 0
M  V30 10036 H 948.461 3.06502 2.89196 0
M  V30 10037 H 947.185 1.83722 2.70026 0
M  V30 10038 H 945.844 3.43312 1.28579 0
M  V30 10039 H 945.492 3.34099 3.76014 0
M  V30 10040 H 945.192 4.97736 3.12302 0
M  V30 10041 H 946.716 4.62516 3.98637 0
M  V30 10042 H 948.13 5.423 1.85967 0
M  V30 10043 H 946.527 5.87735 1.21194 0
M  V30 10044 H 947.597 4.84261 0.248913 0
M  V30 10045 N 948.94 -0.228186 1.55939 0
M  V30 10046 C 950.186 -0.954964 1.78909 0
M  V30 10047 C 950.519 -1.8425 0.613648 0
M  V30 10048 O 949.794 -1.90604 -0.38737 0
M  V30 10049 C 950.077 -1.79957 3.1191 0
M  V30 10050 C 949.93 -0.938968 4.3989 0
M  V30 10051 C 951.249 -2.77859 3.41295 0
M  V30 10052 H 948.368 -0.345745 0.650868 0
M  V30 10053 H 951.01 -0.224244 1.88672 0
M  V30 10054 H 949.16 -2.42256 3.03717 0
M  V30 10055 H 950.832 -0.333225 4.60095 0
M  V30 10056 H 949.075 -0.244096 4.33113 0
M  V30 10057 H 949.746 -1.56416 5.29375 0
M  V30 10058 H 952.222 -2.25695 3.49572 0
M  V30 10059 H 951.098 -3.34062 4.35538 0
M  V30 10060 H 951.359 -3.55266 2.63132 0
M  V30 10061 N 950.418 -1.49637 -0.494624 0
M  V30 10062 C 951.695 -1.4995 -1.25596 0
M  V30 10063 C 952.075 -0.230805 -2.09834 0
M  V30 10064 O 951.423 0.786625 -2.14533 0
M  V30 10065 C 951.633 -2.78204 -2.10721 0
M  V30 10066 C 952.981 -3.27946 -2.69698 0
M  V30 10067 O 954.005 -2.79365 -2.20984 0
M  V30 10068 O 952.864 -4.12571 -3.58395 0
M  V30 10069 H 949.958 -0.60044 -0.568684 0
M  V30 10070 H 952.504 -1.61906 -0.508371 0
M  V30 10071 H 951.276 -3.62029 -1.48494 0
M  V30 10072 H 950.899 -2.69139 -2.92661 0
M  V30 10073 N 951.896 0.746133 -1.38819 0
M  V30 10074 C 953.144 1.50247 -1.35167 0
M  V30 10075 C 953.465 1.94921 0.0553531 0
M  V30 10076 O 952.735 1.68187 1.00449 0
M  V30 10077 H 951.315 0.557337 -0.497377 0
M  V30 10078 H 953.977 0.886472 -1.73573 0
M  V30 10079 H 953.073 2.38986 -2.00728 0
M  V30 10080 N 953.375 1.23811 0.975125 0
M  V30 10081 C 954.605 1.0986 1.7497 0
M  V30 10082 C 955.013 -0.352366 1.8589 0
M  V30 10083 O 954.356 -1.2553 1.34119 0
M  V30 10084 C 954.418 1.65584 3.19096 0
M  V30 10085 C 954.082 3.14395 3.3167 0
M  V30 10086 C 955.079 4.1163 3.17579 0
M  V30 10087 C 952.764 3.54208 3.56149 0
M  V30 10088 C 954.758 5.46661 3.27781 0
M  V30 10089 C 952.445 4.89382 3.65989 0
M  V30 10090 C 953.443 5.85418 3.51817 0
M  V30 10091 O 953.131 7.18135 3.61299 0
M  V30 10092 H 952.863 0.384854 0.555755 0
M  V30 10093 H 955.417 1.64242 1.23343 0
M  V30 10094 H 953.647 1.05627 3.71994 0
M  V30 10095 H 955.336 1.47032 3.78334 0
M  V30 10096 H 956.102 3.82214 2.98559 0
M  V30 10097 H 951.981 2.79968 3.66249 0
M  V30 10098 H 955.525 6.21601 3.16636 0
M  V30 10099 H 951.422 5.18473 3.84521 0
M  V30 10100 H 952.19 7.25956 3.78061 0
M  V30 10101 N 954.853 -1.17469 1.05066 0
M  V30 10102 C 955.8 -2.21443 0.650512 0
M  V30 10103 C 956.77 -1.62441 -0.346702 0
M  V30 10104 O 957.955 -1.89305 -0.238404 0
M  V30 10105 C 955.095 -3.45087 0.0301014 0
M  V30 10106 C 954.208 -4.18385 1.07599 0
M  V30 10107 C 953.343 -5.29513 0.423038 0
M  V30 10108 C 952.382 -5.94596 1.45333 0
M  V30 10109 N 951.519 -6.97241 0.824623 0
M  V30 10110 H 956.359 -2.55025 1.54163 0
M  V30 10111 H 953.896 -1.25274 0.771032 0
M  V30 10112 H 955.854 -4.15754 -0.347032 0
M  V30 10113 H 954.484 -3.12093 -0.824481 0
M  V30 10114 H 953.536 -3.46446 1.57097 0
M  V30 10115 H 954.848 -4.62899 1.85813 0
M  V30 10116 H 954.002 -6.067 -0.00774975 0
M  V30 10117 H 952.741 -4.86129 -0.391092 0
M  V30 10118 H 951.746 -5.16142 1.89415 0
M  V30 10119 H 952.971 -6.40061 2.26934 0
M  V30 10120 H 950.917 -6.55993 0.0309804 0
M  V30 10121 H 950.834 -7.40059 1.54432 0
M  V30 10122 H 952.102 -7.78375 0.418567 0
M  V30 10123 N 956.331 -0.831506 -1.3388 0
M  V30 10124 C 957.263 -0.216908 -2.28171 0
M  V30 10125 C 958.276 0.598141 -1.51414 0
M  V30 10126 O 959.465 0.426416 -1.73332 0
M  V30 10127 C 956.565 0.713831 -3.31297 0
M  V30 10128 C 955.738 -0.0602673 -4.37358 0
M  V30 10129 C 954.797 0.792696 -5.20195 0
M  V30 10130 O 953.823 0.234564 -5.68716 0
M  V30 10131 N 955.025 2.11119 -5.40748 0
M  V30 10132 H 957.79 -1.02704 -2.81553 0
M  V30 10133 H 955.351 -0.689272 -1.46495 0
M  V30 10134 H 957.343 1.28925 -3.83615 0
M  V30 10135 H 955.913 1.42469 -2.78247 0
M  V30 10136 H 955.133 -0.817041 -3.8564 0
M  V30 10137 H 956.421 -0.592822 -5.05335 0
M  V30 10138 H 955.819 2.58828 -5.03016 0
M  V30 10139 H 954.376 2.63527 -5.96151 0
M  V30 10140 N 957.809 1.4625 -0.587256 0
M  V30 10141 C 959.055 2.0323 -0.0830359 0
M  V30 10142 C 959.41 1.45007 1.26455 0
M  V30 10143 O 958.703 0.607494 1.81714 0
M  V30 10144 C 958.897 3.57382 0.036328 0
M  V30 10145 C 958.726 4.30556 -1.29814 0
M  V30 10146 C 957.496 4.69285 -1.87349 0
M  V30 10147 C 959.694 4.63806 -2.22236 0
M  V30 10148 N 957.676 5.27229 -3.14488 0
M  V30 10149 C 959.047 5.22368 -3.33964 0
M  V30 10150 C 961.102 4.45738 -2.2186 0
M  V30 10151 C 959.805 5.64769 -4.45454 0
M  V30 10152 C 961.831 4.89158 -3.32383 0
M  V30 10153 C 961.193 5.47795 -4.42832 0
M  V30 10154 H 957.292 0.77856 -0.0732716 0
M  V30 10155 H 959.876 1.78343 -0.781152 0
M  V30 10156 H 958.047 3.81973 0.703621 0
M  V30 10157 H 959.779 4.01009 0.545347 0
M  V30 10158 H 956.534 4.5219 -1.40789 0
M  V30 10159 H 956.958 5.60719 -3.79372 0
M  V30 10160 H 961.6 3.99735 -1.37739 0
M  V30 10161 H 959.318 6.09748 -5.30314 0
M  V30 10162 H 962.904 4.76926 -3.33216 0
M  V30 10163 H 961.784 5.80778 -5.26941 0
M  V30 10164 N 959.287 0.325282 1.54207 0
M  V30 10165 C 960.512 -0.281418 2.05482 0
M  V30 10166 C 960.937 -1.44869 1.19977 0
M  V30 10167 O 960.295 -1.80088 0.209275 0
M  V30 10168 C 960.343 -0.692029 3.53897 0
M  V30 10169 O 959.447 -1.7942 3.71325 0
M  V30 10170 H 958.788 -0.0504872 0.662078 0
M  V30 10171 H 961.318 0.474191 1.99029 0
M  V30 10172 H 961.328 -0.974219 3.96198 0
M  V30 10173 H 960.003 0.161709 4.15586 0
M  V30 10174 H 958.58 -1.51069 3.40929 0
M  V30 10175 N 960.765 -1.57509 0.0534917 0
M  V30 10176 C 961.99 -1.97511 -0.632794 0
M  V30 10177 C 962.415 -0.930947 -1.63447 0
M  V30 10178 O 961.773 0.105558 -1.80992 0
M  V30 10179 C 961.821 -3.3658 -1.29407 0
M  V30 10180 O 960.925 -3.3467 -2.40977 0
M  V30 10181 H 960.266 -0.643349 -0.16431 0
M  V30 10182 H 962.796 -2.04232 0.12258 0
M  V30 10183 H 962.806 -3.73359 -1.64521 0
M  V30 10184 H 961.481 -4.12113 -0.559976 0
M  V30 10185 H 960.058 -3.09639 -2.07793 0
M  V30 10186 N 962.243 0.219913 -1.56058 0
M  V30 10187 C 963.468 0.965073 -1.83579 0
M  V30 10188 C 963.893 1.77092 -0.634024 0
M  V30 10189 O 963.251 1.76434 0.417205 0
M  V30 10190 C 963.299 1.85705 -3.09105 0
M  V30 10191 O 962.403 2.95261 -2.87914 0
M  V30 10192 H 961.744 0.273173 -0.605204 0
M  V30 10193 H 964.274 0.23273 -2.03272 0
M  V30 10194 H 964.284 2.26655 -3.39252 0
M  V30 10195 H 962.959 1.26476 -3.96203 0
M  V30 10196 H 961.536 2.58246 -2.69005 0
M  V30 10197 N 963.721 1.49897 0.486681 0
M  V30 10198 C 964.684 1.67086 1.56891 0
M  V30 10199 C 965.684 0.54209 1.51387 0
M  V30 10200 O 966.874 0.80883 1.54284 0
M  V30 10201 C 964.006 1.68159 2.96539 0
M  V30 10202 H 965.199 2.63626 1.42974 0
M  V30 10203 H 962.752 1.39143 0.711954 0
M  V30 10204 H 963.487 0.732562 3.15918 0
M  V30 10205 H 963.272 2.50147 3.01942 0
M  V30 10206 H 964.762 1.83466 3.7514 0
M  V30 10207 N 965.199 -0.738761 1.39212 0
M  V30 10208 C 966.61 -1.31684 1.32348 0
M  V30 10209 C 966.961 -1.96195 -0.0139041 0
M  V30 10210 O 966.086 -1.96056 -0.916025 0
M  V30 10211 C 966.681 -2.39444 2.39691 0
M  V30 10212 C 965.24 -2.92935 2.36359 0
M  V30 10213 C 964.387 -1.66465 2.21776 0
M  V30 10214 H 967.338 -0.536543 1.49355 0
M  V30 10215 H 967.359 -3.19744 2.06262 0
M  V30 10216 H 966.871 -1.92463 3.37016 0
M  V30 10217 H 964.972 -3.44207 1.42662 0
M  V30 10218 H 965.085 -3.46306 3.31073 0
M  V30 10219 H 963.449 -1.90657 1.68884 0
M  V30 10220 H 964.232 -1.21541 3.21065 0
M  V30 10221 N 966.677 -1.24326 -0.968545 0
M  V30 10222 C 967.625 -1.03256 -2.08425 0
M  V30 10223 C 968.619 0.0322356 -1.69369 0
M  V30 10224 O 969.825 -0.122251 -1.79584 0
M  V30 10225 H 966.2 -0.31688 -0.681976 0
M  V30 10226 H 968.171 -1.97873 -2.23358 0
M  V30 10227 C 966.92 -0.653144 -3.4151 0
M  V30 10228 H 966.243 -1.46424 -3.72021 0
M  V30 10229 H 967.683 -0.545316 -4.20479 0
M  V30 10230 C 966.142 0.639674 -3.30771 0
M  V30 10231 O 966.672 1.68563 -3.64622 0
M  V30 10232 N 964.878 0.620074 -2.83907 0
M  V30 10233 H 964.425 -0.231449 -2.56558 0
M  V30 10234 H 964.383 1.48528 -2.77104 0
M  V30 10235 N 968.156 1.1691 -1.05688 0
M  V30 10236 C 969.086 2.23275 -0.683402 0
M  V30 10237 C 970.067 1.6704 0.321206 0
M  V30 10238 O 971.252 1.93191 0.197691 0
M  V30 10239 C 968.382 3.47244 -0.0626006 0
M  V30 10240 C 967.336 4.16333 -0.992513 0
M  V30 10241 C 966.662 5.34182 -0.23533 0
M  V30 10242 C 967.962 4.68002 -2.31886 0
M  V30 10243 H 969.656 2.54771 -1.57264 0
M  V30 10244 H 967.202 1.2246 -0.757606 0
M  V30 10245 H 969.155 4.20874 0.210503 0
M  V30 10246 H 967.879 3.1503 0.861616 0
M  V30 10247 H 966.538 3.44622 -1.25026 0
M  V30 10248 H 966.186 4.9822 0.69181 0
M  V30 10249 H 965.886 5.81346 -0.855002 0
M  V30 10250 H 967.41 6.10592 0.0303717 0
M  V30 10251 H 968.824 5.33244 -2.10531 0
M  V30 10252 H 967.221 5.25764 -2.89296 0
M  V30 10253 H 968.291 3.84541 -2.95391 0
M  V30 10254 N 969.634 0.838594 1.33437 0
M  V30 10255 C 970.88 0.434813 1.98084 0
M  V30 10256 C 971.213 -1.00331 1.66275 0
M  V30 10257 O 970.488 -1.70139 0.942501 0
M  V30 10258 C 970.771 0.655602 3.54082 0
M  V30 10259 C 970.624 2.14097 3.95578 0
M  V30 10260 C 971.943 0.101576 4.39983 0
M  V30 10261 H 969.062 0.159456 0.719544 0
M  V30 10262 H 971.704 1.05406 1.58081 0
M  V30 10263 H 969.854 0.128501 3.88287 0
M  V30 10264 H 971.526 2.73292 3.71631 0
M  V30 10265 H 969.769 2.62558 3.4532 0
M  V30 10266 H 970.44 2.24621 5.04231 0
M  V30 10267 H 972.916 0.552122 4.12421 0
M  V30 10268 H 971.792 0.28575 5.48156 0
M  V30 10269 H 972.053 -0.994616 4.30767 0
M  V30 10270 N 971.112 -1.45937 0.595003 0
M  V30 10271 C 972.059 -2.30427 -0.131165 0
M  V30 10272 C 973.029 -1.41355 -0.872232 0
M  V30 10273 O 974.214 -1.70296 -0.860467 0
M  V30 10274 C 971.354 -3.26045 -1.13087 0
M  V30 10275 C 970.467 -4.30218 -0.391982 0
M  V30 10276 C 969.602 -5.12953 -1.3803 0
M  V30 10277 C 968.641 -6.08865 -0.628505 0
M  V30 10278 N 967.778 -6.84425 -1.56548 0
M  V30 10279 H 972.618 -2.91992 0.595359 0
M  V30 10280 H 970.155 -1.43895 0.305405 0
M  V30 10281 H 972.113 -3.79937 -1.72348 0
M  V30 10282 H 970.743 -2.66261 -1.82496 0
M  V30 10283 H 969.795 -3.79086 0.315895 0
M  V30 10284 H 971.107 -4.98418 0.195173 0
M  V30 10285 H 970.261 -5.71184 -2.04534 0
M  V30 10286 H 969 -4.44743 -2.00138 0
M  V30 10287 H 968.005 -5.49777 0.0502431 0
M  V30 10288 H 969.23 -6.79099 -0.012641 0
M  V30 10289 H 967.176 -6.18913 -2.17444 0
M  V30 10290 H 967.093 -7.48931 -1.03145 0
M  V30 10291 H 968.361 -7.47204 -2.22049 0
M  V30 10292 N 972.59 -0.333456 -1.54032 0
M  V30 10293 C 973.838 0.265608 -2.00347 0
M  V30 10294 C 974.159 1.51873 -1.2231 0
M  V30 10295 O 973.429 1.93142 -0.327549 0
M  V30 10296 H 972.009 0.101135 -0.740122 0
M  V30 10297 H 974.671 -0.452285 -1.8958 0
M  V30 10298 H 973.767 0.51511 -3.0782 0
M  V30 10299 N 974.068 1.57479 -0.061844 0
M  V30 10300 C 975.479 1.80627 0.472295 0
M  V30 10301 C 975.83 0.97496 1.70261 0
M  V30 10302 O 974.955 0.1946 2.15523 0
M  V30 10303 C 975.55 3.27608 0.863616 0
M  V30 10304 C 974.109 3.51638 1.34267 0
M  V30 10305 C 973.256 2.75412 0.323009 0
M  V30 10306 H 976.207 1.56072 -0.287634 0
M  V30 10307 H 976.228 3.39113 1.72577 0
M  V30 10308 H 975.74 3.88087 -0.0320226 0
M  V30 10309 H 973.841 2.96452 2.25714 0
M  V30 10310 H 973.954 4.60342 1.32747 0
M  V30 10311 H 972.318 2.4187 0.798175 0
M  V30 10312 H 973.101 3.38623 -0.564729 0
M  V30 10313 N 975.546 -0.211634 1.56173 0
M  V30 10314 C 976.962 -0.56177 1.49386 0
M  V30 10315 C 977.162 -1.86666 0.758813 0
M  V30 10316 O 976.218 -2.50681 0.302534 0
M  V30 10317 C 977.531 -0.631815 2.93987 0
M  V30 10318 C 979.079 -0.721773 3.04564 0
M  V30 10319 C 979.554 -0.823075 4.50544 0
M  V30 10320 N 981.045 -0.887038 4.54627 0
M  V30 10321 C 981.78 -0.985304 5.64871 0
M  V30 10322 N 981.276 -1.0469 6.84844 0
M  V30 10323 N 983.069 -1.02121 5.52746 0
M  V30 10324 H 975.22 0.64452 2.02385 0
M  V30 10325 H 977.483 0.227466 0.920306 0
M  V30 10326 H 977.189 0.257592 3.50755 0
M  V30 10327 H 977.063 -1.4921 3.46433 0
M  V30 10328 H 979.45 -1.60162 2.47855 0
M  V30 10329 H 979.531 0.164385 2.55271 0
M  V30 10330 H 979.175 0.0523511 5.07873 0
M  V30 10331 H 979.105 -1.72479 4.97552 0
M  V30 10332 H 981.596 -0.849352 3.68231 0
M  V30 10333 H 981.909 -1.12193 7.64613 0
M  V30 10334 H 980.254 -1.01586 6.87536 0
M  V30 10335 H 983.445 -0.969814 4.57943 0
M  V30 10336 H 983.618 -1.09434 6.38693 0
M  V30 10337 N 977.024 -1.50153 -0.478725 0
M  V30 10338 C 978.249 -1.64776 -1.2595 0
M  V30 10339 C 978.674 -0.327794 -1.85222 0
M  V30 10340 O 978.032 0.707418 -1.66929 0
M  V30 10341 C 978.08 -2.73551 -2.34952 0
M  V30 10342 O 977.184 -2.34273 -3.39397 0
M  V30 10343 H 976.525 -0.550769 -0.370877 0
M  V30 10344 H 979.055 -1.96482 -0.570605 0
M  V30 10345 H 979.065 -2.96397 -2.8038 0
M  V30 10346 H 977.74 -3.69354 -1.91181 0
M  V30 10347 H 976.317 -2.21844 -2.99733 0
M  V30 10348 N 978.502 0.731368 -1.39602 0
M  V30 10349 C 979.727 1.52567 -1.40492 0
M  V30 10350 C 980.152 1.881 -0.00228828 0
M  V30 10351 O 979.51 1.52167 0.985643 0
M  V30 10352 C 979.558 2.78749 -2.2876 0
M  V30 10353 O 978.662 3.7482 -1.71999 0
M  V30 10354 H 978.003 0.460601 -0.478271 0
M  V30 10355 H 980.533 0.902042 -1.83642 0
M  V30 10356 H 980.543 3.27446 -2.43399 0
M  V30 10357 H 979.218 2.5222 -3.30693 0
M  V30 10358 H 977.795 3.33604 -1.66622 0
M  V30 10359 N 979.98 1.24838 0.961938 0
M  V30 10360 C 981.391 1.08369 1.5203 0
M  V30 10361 C 981.742 -0.343005 1.93178 0
M  V30 10362 O 980.867 -1.2321 1.779 0
M  V30 10363 C 981.462 1.96102 2.76278 0
M  V30 10364 C 980.021 1.8384 3.28451 0
M  V30 10365 C 979.168 1.9069 2.01327 0
M  V30 10366 H 982.119 1.38231 0.779613 0
M  V30 10367 H 982.14 1.4967 3.49827 0
M  V30 10368 H 981.652 2.99931 2.46298 0
M  V30 10369 H 979.753 0.828653 3.63269 0
M  V30 10370 H 979.866 2.68251 3.96961 0
M  V30 10371 H 978.23 1.34488 2.16299 0
M  V30 10372 H 979.013 2.96111 1.73705 0
M  V30 10373 N 981.458 -1.16348 1.06306 0
M  V30 10374 C 982.421 -2.18941 0.678053 0
M  V30 10375 C 983.421 -1.58409 -0.276277 0
M  V30 10376 O 984.611 -1.74101 -0.0586435 0
M  V30 10377 C 981.743 -3.409 -0.00228684 0
M  V30 10378 H 982.936 -2.54516 1.58624 0
M  V30 10379 H 980.489 -1.30625 0.858298 0
M  V30 10380 H 981.224 -3.10881 -0.923212 0
M  V30 10381 H 981.009 -3.86089 0.683949 0
M  V30 10382 H 982.499 -4.16806 -0.257374 0
M  V30 10383 N 982.937 -0.845659 -1.3299 0
M  V30 10384 C 983.867 -0.298957 -2.31578 0
M  V30 10385 C 984.848 0.597012 -1.59279 0
M  V30 10386 O 986.033 0.519142 -1.87132 0
M  V30 10387 C 983.163 0.521109 -3.43368 0
M  V30 10388 C 982.117 -0.279651 -4.27085 0
M  V30 10389 C 981.443 0.664591 -5.30554 0
M  V30 10390 C 982.743 -1.50046 -5.00283 0
M  V30 10391 H 984.437 -1.12272 -2.77552 0
M  V30 10392 H 981.983 -0.54132 -1.33438 0
M  V30 10393 H 983.936 0.913921 -4.1137 0
M  V30 10394 H 982.66 1.37815 -2.96099 0
M  V30 10395 H 981.319 -0.654106 -3.60717 0
M  V30 10396 H 980.967 1.51822 -4.79541 0
M  V30 10397 H 980.667 0.132871 -5.8745 0
M  V30 10398 H 982.191 1.05477 -6.01421 0
M  V30 10399 H 983.605 -1.18044 -5.61016 0
M  V30 10400 H 982.002 -1.96946 -5.66862 0
M  V30 10401 H 983.072 -2.26659 -4.28665 0
M  V30 10402 N 984.415 1.45619 -0.602734 0
M  V30 10403 C 985.826 1.85814 -0.181636 0
M  V30 10404 C 986.177 1.5037 1.26029 0
M  V30 10405 O 985.302 0.928068 1.95489 0
M  V30 10406 C 985.897 3.37258 -0.322866 0
M  V30 10407 C 984.456 3.76375 0.043504 0
M  V30 10408 C 983.603 2.69585 -0.649561 0
M  V30 10409 H 986.554 1.36489 -0.809721 0
M  V30 10410 H 986.575 3.77874 0.446279 0
M  V30 10411 H 986.087 3.63024 -1.37241 0
M  V30 10412 H 984.188 3.56226 1.09241 0
M  V30 10413 H 984.301 4.77843 -0.346765 0
M  V30 10414 H 982.665 2.54549 -0.087706 0
M  V30 10415 H 983.448 2.98188 -1.70115 0
M  V30 10416 N 985.893 0.34162 1.53853 0
M  V30 10417 C 987.141 -0.254979 2.00485 0
M  V30 10418 C 987.462 -1.51222 1.23114 0
M  V30 10419 O 986.732 -1.92966 0.337787 0
M  V30 10420 H 985.312 -0.0972084 0.740648 0
M  V30 10421 H 987.974 0.462332 1.89337 0
M  V30 10422 H 987.07 -0.498778 3.08089 0
M  V30 10423 N 987.371 -1.57444 0.0701946 0
M  V30 10424 C 988.618 -1.93429 -0.59929 0
M  V30 10425 C 988.946 -0.9501 -1.69715 0
M  V30 10426 O 988.201 0.0345377 -1.9567 0
M  V30 10427 C 988.5 -3.36044 -1.21694 0
M  V30 10428 C 988.166 -4.50232 -0.245374 0
M  V30 10429 C 986.828 -4.81195 0.0219161 0
M  V30 10430 C 989.18 -5.1951 0.419396 0
M  V30 10431 C 986.508 -5.78775 0.96109 0
M  V30 10432 C 988.86 -6.18095 1.34688 0
M  V30 10433 C 987.524 -6.47477 1.62265 0
M  V30 10434 H 986.794 -0.707807 -0.219296 0
M  V30 10435 H 989.441 -1.90982 0.14073 0
M  V30 10436 H 987.746 -3.34948 -2.03265 0
M  V30 10437 H 989.443 -3.61176 -1.74221 0
M  V30 10438 H 986.033 -4.26082 -0.463887 0
M  V30 10439 H 990.217 -4.95785 0.226009 0
M  V30 10440 H 985.473 -5.99865 1.18202 0
M  V30 10441 H 989.647 -6.7088 1.86795 0
M  V30 10442 H 987.274 -7.229 2.352 0
M  V30 10443 N 988.849 0.203349 -1.56283 0
M  V30 10444 C 990.077 0.941426 -1.84241 0
M  V30 10445 C 990.492 1.77197 -0.651658 0
M  V30 10446 O 989.849 1.78506 0.379713 0
M  V30 10447 C 989.9 1.84429 -3.10915 0
M  V30 10448 O 989.621 1.04729 -4.25398 0
M  V30 10449 C 991.122 2.69474 -3.51993 0
M  V30 10450 H 988.342 0.27507 -0.612027 0
M  V30 10451 H 990.886 0.213088 -2.03387 0
M  V30 10452 H 989.041 2.52635 -2.93691 0
M  V30 10453 H 989.455 1.66179 -4.97478 0
M  V30 10454 H 990.929 3.28495 -4.43616 0
M  V30 10455 H 991.406 3.42775 -2.74594 0
M  V30 10456 H 992.012 2.06652 -3.71719 0
M  V30 10457 N 990.327 1.50405 0.470755 0
M  V30 10458 C 991.552 1.65442 1.25075 0
M  V30 10459 C 991.977 0.337612 1.85045 0
M  V30 10460 O 991.335 -0.698555 1.67302 0
M  V30 10461 C 991.383 2.74793 2.33498 0
M  V30 10462 O 990.487 2.36069 3.3815 0
M  V30 10463 H 989.828 0.552728 0.367951 0
M  V30 10464 H 992.358 1.96782 0.560177 0
M  V30 10465 H 992.368 2.97879 2.78804 0
M  V30 10466 H 991.043 3.70363 1.8922 0
M  V30 10467 H 989.62 2.2343 2.98552 0
M  V30 10468 N 991.805 -0.723954 1.39988 0
M  V30 10469 C 992.735 -1.85103 1.42335 0
M  V30 10470 C 993.716 -1.6769 0.285297 0
M  V30 10471 O 994.901 -1.87846 0.492716 0
M  V30 10472 C 992.031 -3.22972 1.27697 0
M  V30 10473 C 990.985 -3.55041 2.39018 0
M  V30 10474 C 990.311 -4.91965 2.09462 0
M  V30 10475 C 991.611 -3.56889 3.8135 0
M  V30 10476 H 993.305 -1.83396 2.36656 0
M  V30 10477 H 990.851 -0.880926 1.13911 0
M  V30 10478 H 992.804 -4.01503 1.27958 0
M  V30 10479 H 991.528 -3.25233 0.298487 0
M  V30 10480 H 990.187 -2.78845 2.37993 0
M  V30 10481 H 989.835 -4.90819 1.10025 0
M  V30 10482 H 989.535 -5.14389 2.84038 0
M  V30 10483 H 991.059 -5.7284 2.11391 0
M  V30 10484 H 992.473 -4.25476 3.84243 0
M  V30 10485 H 990.87 -3.90836 4.55376 0
M  V30 10486 H 991.94 -2.56452 4.11534 0
M  V30 10487 N 993.283 -1.25346 -0.955304 0
M  V30 10488 C 994.216 -0.999933 -2.05126 0
M  V30 10489 C 995.194 0.070585 -1.62447 0
M  V30 10490 O 996.378 -0.0689306 -1.88374 0
M  V30 10491 C 993.505 -0.511425 -3.34817 0
M  V30 10492 C 992.551 -1.57237 -3.96458 0
M  V30 10493 S 993.384 -3.15736 -4.32517 0
M  V30 10494 C 994.54 -2.68619 -5.65327 0
M  V30 10495 H 994.773 -1.92791 -2.26316 0
M  V30 10496 H 992.306 -1.08869 -1.09485 0
M  V30 10497 H 994.264 -0.236219 -4.0982 0
M  V30 10498 H 992.925 0.39604 -3.11593 0
M  V30 10499 H 992.118 -1.18125 -4.89962 0
M  V30 10500 H 991.72 -1.79822 -3.27933 0
M  V30 10501 H 994.012 -2.12203 -6.4341 0
M  V30 10502 H 994.955 -3.6076 -6.09309 0
M  V30 10503 H 995.363 -2.08638 -5.24529 0
M  V30 10504 N 994.761 1.15782 -1.06922 0
M  V30 10505 C 995.671 2.24008 -0.696948 0
M  V30 10506 C 996.687 1.71569 0.289862 0
M  V30 10507 O 997.863 2.00929 0.137585 0
M  V30 10508 C 994.928 3.46568 -0.0957895 0
M  V30 10509 C 993.989 4.14017 -1.13528 0
M  V30 10510 C 993.222 5.30725 -0.562713 0
M  V30 10511 O 993.445 5.66992 0.62259 0
M  V30 10512 O 992.379 5.87572 -1.30549 0
M  V30 10513 H 996.205 2.58174 -1.59938 0
M  V30 10514 H 993.79 1.2342 -0.841889 0
M  V30 10515 H 995.672 4.20731 0.237407 0
M  V30 10516 H 994.347 3.14161 0.780027 0
M  V30 10517 H 993.254 3.41795 -1.52076 0
M  V30 10518 H 994.587 4.50493 -1.98285 0
M  V30 10519 N 996.239 0.8527 1.3254 0
M  V30 10520 C 997.172 0.240733 2.26927 0
M  V30 10521 C 998.15 -0.620158 1.50309 0
M  V30 10522 O 999.334 -0.577389 1.79439 0
M  V30 10523 C 996.461 -0.660644 3.32195 0
M  V30 10524 C 995.507 0.126604 4.26312 0
M  V30 10525 S 996.34 1.49372 5.14245 0
M  V30 10526 C 997.496 0.598002 6.23037 0
M  V30 10527 H 997.729 1.04088 2.78483 0
M  V30 10528 H 995.262 0.650222 1.40041 0
M  V30 10529 H 997.22 -1.17506 3.93323 0
M  V30 10530 H 995.881 -1.43458 2.79426 0
M  V30 10531 H 995.074 -0.559851 5.00881 0
M  V30 10532 H 994.676 0.572536 3.69592 0
M  V30 10533 H 996.968 -0.198555 6.77209 0
M  V30 10534 H 997.911 1.31428 6.95796 0
M  V30 10535 H 998.319 0.173211 5.64234 0
M  V30 10536 N 997.718 -1.45297 0.610449 0
M  V30 10537 C 998.628 -2.34349 -0.108475 0
M  V30 10538 C 999.644 -1.51409 -0.857397 0
M  V30 10539 O 1000.82 -1.84202 -0.814337 0
M  V30 10540 C 997.885 -3.29072 -1.09144 0
M  V30 10541 C 996.946 -4.27918 -0.344165 0
M  V30 10542 C 996.179 -5.18116 -1.28031 0
M  V30 10543 O 996.402 -5.11802 -2.51824 0
M  V30 10544 O 995.336 -5.96879 -0.775821 0
M  V30 10545 H 999.162 -2.97232 0.623421 0
M  V30 10546 H 996.747 -1.44728 0.3707 0
M  V30 10547 H 998.629 -3.87433 -1.65751 0
M  V30 10548 H 997.304 -2.68749 -1.80431 0
M  V30 10549 H 996.211 -3.73164 0.264437 0
M  V30 10550 H 997.544 -4.91104 0.328275 0
M  V30 10551 N 999.196 -0.349774 -1.5367 0
M  V30 10552 C 1000.47 0.300419 -1.93279 0
M  V30 10553 C 1000.85 1.67721 -1.28191 0
M  V30 10554 O 1000.2 2.24319 -0.435127 0
M  V30 10555 C 1000.41 0.366466 -3.47071 0
M  V30 10556 C 1001.76 0.614349 -4.20132 0
M  V30 10557 O 1002.78 0.448327 -3.53367 0
M  V30 10558 O 1001.64 0.936421 -5.38417 0
M  V30 10559 H 998.736 0.176599 -0.807924 0
M  V30 10560 H 1001.28 -0.401405 -1.64884 0
M  V30 10561 H 1000.05 -0.599455 -3.86681 0
M  V30 10562 H 999.677 1.11482 -3.81651 0
M  V30 10563 N 1000.67 1.57404 -0.0785433 0
M  V30 10564 C 1001.58 2.16612 0.900902 0
M  V30 10565 C 1002.6 1.13109 1.32221 0
M  V30 10566 O 1003.78 1.45406 1.39352 0
M  V30 10567 C 1000.84 2.7215 2.14791 0
M  V30 10568 C 999.902 3.90551 1.78237 0
M  V30 10569 C 999.135 4.43431 2.96993 0
M  V30 10570 O 999.358 3.95292 4.11218 0
M  V30 10571 O 998.292 5.34674 2.76418 0
M  V30 10572 H 1002.12 3.0068 0.427227 0
M  V30 10573 H 999.703 1.48696 0.144902 0
M  V30 10574 H 1001.58 3.07718 2.87902 0
M  V30 10575 H 1000.26 1.91139 2.61243 0
M  V30 10576 H 999.167 3.59825 1.02357 0
M  V30 10577 H 1000.5 4.72876 1.36562 0
M  V30 10578 N 1002.15 -0.195058 1.56388 0
M  V30 10579 C 1003.43 -0.941335 1.71459 0
M  V30 10580 C 1003.81 -2.01375 0.633336 0
M  V30 10581 O 1003.16 -2.25715 -0.35567 0
M  V30 10582 C 1003.37 -1.52772 3.13786 0
M  V30 10583 C 1004.71 -2.00983 3.7402 0
M  V30 10584 O 1005.74 -1.62614 3.16915 0
M  V30 10585 O 1004.6 -2.71586 4.7424 0
M  V30 10586 H 1001.69 -0.441451 0.699321 0
M  V30 10587 H 1004.24 -0.184752 1.68691 0
M  V30 10588 H 1003.01 -0.754699 3.83953 0
M  V30 10589 H 1002.63 -2.34914 3.20782 0
M  V30 10590 N 1003.63 -1.50653 -0.462772 0
M  V30 10591 C 1004.85 -1.66103 -1.24196 0
M  V30 10592 C 1005.28 -0.347421 -1.84864 0
M  V30 10593 O 1004.64 0.689673 -1.6767 0
M  V30 10594 C 1004.69 -2.76027 -2.32037 0
M  V30 10595 O 1003.79 -2.37859 -3.36893 0
M  V30 10596 H 1003.13 -0.554672 -0.365014 0
M  V30 10597 H 1005.66 -1.97076 -0.549734 0
M  V30 10598 H 1005.67 -2.99354 -2.77221 0
M  V30 10599 H 1004.35 -3.71361 -1.87253 0
M  V30 10600 H 1002.92 -2.2501 -2.97363 0
M  V30 10601 N 1005.11 0.71652 -1.4037 0
M  V30 10602 C 1006.02 1.86074 -1.42876 0
M  V30 10603 C 1007.03 1.71005 -0.321475 0
M  V30 10604 O 1008.21 1.93286 -0.565909 0
M  V30 10605 C 1005.28 3.21862 -1.28863 0
M  V30 10606 C 1004.34 3.49193 -2.49726 0
M  V30 10607 C 1003.57 4.78502 -2.36372 0
M  V30 10608 O 1003.79 5.53529 -1.37703 0
M  V30 10609 O 1002.73 5.06147 -3.25728 0
M  V30 10610 H 1006.55 1.86916 -2.39366 0
M  V30 10611 H 1004.14 0.866818 -1.21683 0
M  V30 10612 H 1006.02 4.02972 -1.23253 0
M  V30 10613 H 1004.69 3.2175 -0.354783 0
M  V30 10614 H 1003.6 2.68095 -2.60913 0
M  V30 10615 H 1004.93 3.54101 -3.41868 0
M  V30 10616 N 1006.59 1.25851 0.948643 0
M  V30 10617 C 1007.83 1.10735 1.69062 0
M  V30 10618 C 1008.16 -0.351257 1.9181 0
M  V30 10619 O 1007.43 -1.24867 1.50947 0
M  V30 10620 H 1006.01 0.406796 0.626519 0
M  V30 10621 H 1008.67 1.58066 1.14022 0
M  V30 10622 H 1007.76 1.62033 2.66743 0
M  V30 10623 N 1008.06 -1.15214 1.07534 0
M  V30 10624 C 1009.48 -1.67628 0.822045 0
M  V30 10625 C 1009.83 -1.8503 -0.652571 0
M  V30 10626 O 1008.95 -1.55497 -1.50498 0
M  V30 10627 C 1009.55 -3.04489 1.48566 0
M  V30 10628 C 1008.11 -3.53974 1.27983 0
M  V30 10629 C 1007.25 -2.29656 1.55414 0
M  V30 10630 H 1010.2 -0.994016 1.23713 0
M  V30 10631 H 1010.22 -3.69509 0.907916 0
M  V30 10632 H 1009.74 -2.91792 2.55888 0
M  V30 10633 H 1007.84 -3.71908 0.226906 0
M  V30 10634 H 1007.95 -4.35298 2.0013 0
M  V30 10635 H 1006.31 -2.35289 0.975251 0
M  V30 10636 H 1007.1 -2.19544 2.63923 0
M  V30 10637 N 1009.54 -0.859717 -1.32086 0
M  V30 10638 C 1010.79 -0.464662 -1.96686 0
M  V30 10639 C 1011.11 0.98412 -1.68345 0
M  V30 10640 O 1010.38 1.68847 -0.993361 0
M  V30 10641 H 1008.96 -0.168838 -0.727669 0
M  V30 10642 H 1011.62 -1.09726 -1.61079 0
M  V30 10643 H 1010.72 -0.613904 -3.06003 0
M  V30 10644 N 1011.02 1.44971 -0.618145 0
M  V30 10645 C 1012.25 2.07039 -0.122395 0
M  V30 10646 C 1012.67 1.45793 1.18853 0
M  V30 10647 O 1012.03 0.55453 1.72611 0
M  V30 10648 C 1012.08 3.60599 -0.0073864 0
M  V30 10649 O 1011.18 3.99069 1.04007 0
M  V30 10650 H 1010.52 0.6593 -0.0788615 0
M  V30 10651 H 1013.05 1.86055 -0.851147 0
M  V30 10652 H 1013.06 4.07569 0.187417 0
M  V30 10653 H 1011.74 4.04561 -0.964544 0
M  V30 10654 H 1010.31 3.63753 0.820879 0
M  V30 10655 N 1012.5 0.357919 1.53482 0
M  V30 10656 C 1013.75 -0.2337 2.00744 0
M  V30 10657 C 1014.07 -1.49908 1.2471 0
M  V30 10658 O 1013.34 -1.92597 0.358235 0
M  V30 10659 H 1011.92 -0.0893474 0.741637 0
M  V30 10660 H 1014.58 0.482388 1.88836 0
M  V30 10661 H 1013.68 -0.466073 3.086 0
M  V30 10662 N 1013.98 -1.5736 0.0868897 0
M  V30 10663 C 1014.89 -2.17087 -0.889402 0
M  V30 10664 C 1015.9 -1.13809 -1.31619 0
M  V30 10665 O 1017.08 -1.46143 -1.38579 0
M  V30 10666 C 1014.14 -2.73286 -2.13344 0
M  V30 10667 C 1013.2 -3.91491 -1.76164 0
M  V30 10668 C 1012.44 -4.45 -2.94637 0
M  V30 10669 O 1012.66 -3.97467 -4.09116 0
M  V30 10670 O 1011.59 -5.36133 -2.73579 0
M  V30 10671 H 1015.42 -3.00902 -0.411275 0
M  V30 10672 H 1013.01 -1.4877 -0.137015 0
M  V30 10673 H 1014.89 -3.0924 -2.86266 0
M  V30 10674 H 1013.56 -1.92521 -2.60225 0
M  V30 10675 H 1012.47 -3.60363 -1.00447 0
M  V30 10676 H 1013.8 -4.73593 -1.34053 0
M  V30 10677 N 1015.45 0.186762 -1.56489 0
M  V30 10678 C 1016.68 0.925916 -1.85584 0
M  V30 10679 C 1017.1 1.75708 -0.671446 0
M  V30 10680 O 1016.46 1.7728 0.379687 0
M  V30 10681 C 1016.51 1.79107 -3.12975 0
M  V30 10682 O 1015.61 2.89088 -2.94112 0
M  V30 10683 H 1014.96 0.260275 -0.610863 0
M  V30 10684 H 1017.49 0.189561 -2.0372 0
M  V30 10685 H 1017.5 2.19408 -3.43983 0
M  V30 10686 H 1016.17 1.18044 -3.98796 0
M  V30 10687 H 1014.75 2.52482 -2.74422 0
M  V30 10688 N 1016.93 1.50896 0.454776 0
M  V30 10689 C 1018.35 1.38684 0.78987 0
M  V30 10690 C 1018.55 0.455587 1.96282 0
M  V30 10691 O 1017.6 -0.0957503 2.52318 0
M  V30 10692 C 1018.92 2.80381 1.08661 0
M  V30 10693 C 1020.47 2.8941 1.19209 0
M  V30 10694 C 1020.94 4.31976 1.52187 0
M  V30 10695 N 1022.43 4.35002 1.59146 0
M  V30 10696 C 1023.17 5.42326 1.862 0
M  V30 10697 N 1022.66 6.59835 2.11164 0
M  V30 10698 N 1024.46 5.29786 1.87838 0
M  V30 10699 H 1016.61 2.10006 -0.317981 0
M  V30 10700 H 1018.87 0.944636 -0.0797969 0
M  V30 10701 H 1018.58 3.50438 0.297626 0
M  V30 10702 H 1018.45 3.18634 2.01872 0
M  V30 10703 H 1020.84 2.19561 1.97173 0
M  V30 10704 H 1020.92 2.54677 0.239401 0
M  V30 10705 H 1020.56 5.02368 0.747576 0
M  V30 10706 H 1020.49 4.64208 2.48633 0
M  V30 10707 H 1022.98 3.50276 1.41828 0
M  V30 10708 H 1023.3 7.37428 2.31128 0
M  V30 10709 H 1021.64 6.62981 2.08522 0
M  V30 10710 H 1024.83 4.36974 1.67843 0
M  V30 10711 H 1025 6.13511 2.08585 0
M  V30 10712 N 1018.41 -0.709066 1.40748 0
M  V30 10713 C 1019.34 -1.83583 1.4429 0
M  V30 10714 C 1020.32 -1.67378 0.303067 0
M  V30 10715 O 1021.51 -1.87312 0.512612 0
M  V30 10716 C 1018.64 -3.21599 1.31116 0
M  V30 10717 C 1017.59 -3.52486 2.4277 0
M  V30 10718 C 1016.92 -4.89716 2.14668 0
M  V30 10719 C 1018.22 -3.52824 3.85113 0
M  V30 10720 H 1019.91 -1.80876 2.38588 0
M  V30 10721 H 1017.46 -0.868795 1.14839 0
M  V30 10722 H 1019.41 -4.00123 1.32209 0
M  V30 10723 H 1018.13 -3.24898 0.332965 0
M  V30 10724 H 1016.79 -2.76305 2.40937 0
M  V30 10725 H 1016.44 -4.89625 1.15224 0
M  V30 10726 H 1016.14 -5.11347 2.89478 0
M  V30 10727 H 1017.66 -5.70566 2.17455 0
M  V30 10728 H 1019.08 -4.21377 3.88734 0
M  V30 10729 H 1017.48 -3.85984 4.59496 0
M  V30 10730 H 1018.55 -2.52073 4.14231 0
M  V30 10731 N 1019.89 -1.26353 -0.941956 0
M  V30 10732 C 1020.82 -1.03634 -2.04432 0
M  V30 10733 C 1021.83 0.00295864 -1.628 0
M  V30 10734 O 1023.02 -0.237029 -1.76919 0
M  V30 10735 C 1020.12 -0.547231 -3.34453 0
M  V30 10736 C 1019.3 -1.65559 -4.04857 0
M  V30 10737 C 1018.36 -1.16466 -5.13149 0
M  V30 10738 O 1017.38 -1.86158 -5.37898 0
M  V30 10739 N 1018.58 -0.0126703 -5.80499 0
M  V30 10740 H 1021.35 -1.98558 -2.24488 0
M  V30 10741 H 1018.91 -1.17728 -1.11138 0
M  V30 10742 H 1020.9 -0.203004 -4.04191 0
M  V30 10743 H 1019.47 0.308401 -3.11075 0
M  V30 10744 H 1018.69 -2.17079 -3.29044 0
M  V30 10745 H 1019.98 -2.39985 -4.48647 0
M  V30 10746 H 1019.38 0.569358 -5.62828 0
M  V30 10747 H 1017.93 0.272486 -6.5123 0
M  V30 10748 N 1021.37 1.14642 -1.08144 0
M  V30 10749 C 1022.32 2.17665 -0.678661 0
M  V30 10750 C 1023.3 1.58072 0.300336 0
M  V30 10751 O 1024.49 1.7664 0.112781 0
M  V30 10752 C 1021.62 3.43191 -0.0866362 0
M  V30 10753 C 1020.71 4.0982 -1.09126 0
M  V30 10754 N 1021.1 4.51814 -2.27372 0
M  V30 10755 C 1019.4 4.36272 -0.926411 0
M  V30 10756 C 1020.1 5.03581 -2.91172 0
M  V30 10757 N 1019.07 4.97624 -2.18795 0
M  V30 10758 H 1022.88 2.47872 -1.57914 0
M  V30 10759 H 1020.39 1.31296 -0.955772 0
M  V30 10760 H 1022.39 4.1632 0.219859 0
M  V30 10761 H 1021.05 3.14464 0.80886 0
M  V30 10762 H 1022.06 4.44941 -2.65044 0
M  V30 10763 H 1018.74 4.17414 -0.084492 0
M  V30 10764 H 1020.13 5.45969 -3.91621 0
M  V30 10765 N 1022.85 0.866709 1.31628 0
M  V30 10766 C 1024.07 0.48956 2.01539 0
M  V30 10767 C 1024.5 -0.909556 1.64647 0
M  V30 10768 O 1023.85 -1.59959 0.853391 0
M  V30 10769 C 1023.9 0.650176 3.5469 0
M  V30 10770 O 1023.01 -0.311908 4.11219 0
M  V30 10771 H 1022.35 0.195144 0.634677 0
M  V30 10772 H 1024.88 1.16923 1.679 0
M  V30 10773 H 1024.89 0.542236 4.04381 0
M  V30 10774 H 1023.56 1.67038 3.80882 0
M  V30 10775 H 1022.14 -0.159197 3.7256 0
M  V30 10776 N 1024.32 -1.44642 0.625825 0
M  V30 10777 C 1025.73 -1.85502 0.211175 0
M  V30 10778 C 1026.09 -1.52356 -1.2362 0
M  V30 10779 O 1025.21 -0.959051 -1.93988 0
M  V30 10780 C 1025.81 -3.36702 0.37648 0
M  V30 10781 C 1024.36 -3.76396 0.0163795 0
M  V30 10782 C 1023.51 -2.68517 0.692368 0
M  V30 10783 H 1026.46 -1.35183 0.831333 0
M  V30 10784 H 1026.48 -3.78536 -0.386106 0
M  V30 10785 H 1026 -3.60795 1.42999 0
M  V30 10786 H 1024.1 -3.57919 -1.0356 0
M  V30 10787 H 1024.21 -4.77231 0.422742 0
M  V30 10788 H 1022.57 -2.54377 0.128191 0
M  V30 10789 H 1023.36 -2.95444 1.74837 0
M  V30 10790 N 1025.8 -0.366053 -1.5329 0
M  V30 10791 C 1027.03 0.226839 -2.06156 0
M  V30 10792 C 1027.45 1.41637 -1.23776 0
M  V30 10793 O 1026.81 1.7947 -0.256948 0
M  V30 10794 C 1026.86 0.597956 -3.55608 0
M  V30 10795 O 1025.96 1.69512 -3.75951 0
M  V30 10796 H 1025.3 0.0329156 -0.663184 0
M  V30 10797 H 1027.83 -0.526793 -1.97702 0
M  V30 10798 H 1027.84 0.868831 -3.98642 0
M  V30 10799 H 1026.52 -0.271838 -4.15011 0
M  V30 10800 H 1025.09 1.41976 -3.44815 0
M  V30 10801 N 1027.28 1.57312 -0.0952337 0
M  V30 10802 C 1028.21 2.11059 0.893678 0
M  V30 10803 C 1029.22 1.04787 1.24594 0
M  V30 10804 O 1030.41 1.32233 1.19903 0
M  V30 10805 C 1027.51 2.57552 2.20272 0
M  V30 10806 C 1026.69 3.87661 2.02578 0
M  V30 10807 C 1025.75 4.2 3.16996 0
M  V30 10808 O 1024.77 4.89219 2.90953 0
M  V30 10809 N 1025.97 3.75414 4.42769 0
M  V30 10810 H 1028.74 2.96532 0.434632 0
M  V30 10811 H 1026.3 1.6165 0.0898661 0
M  V30 10812 H 1028.29 2.76232 2.95766 0
M  V30 10813 H 1026.86 1.7709 2.576 0
M  V30 10814 H 1026.08 3.78128 1.11413 0
M  V30 10815 H 1027.37 4.7278 1.88032 0
M  V30 10816 H 1026.77 3.1954 4.66809 0
M  V30 10817 H 1025.32 3.99249 5.15212 0
M  V30 10818 N 1028.76 -0.17846 1.56586 0
M  V30 10819 C 1029.98 -0.916061 1.86073 0
M  V30 10820 C 1030.41 -1.75349 0.680754 0
M  V30 10821 O 1029.77 -1.77479 -0.37028 0
M  V30 10822 C 1029.81 -1.77445 3.1392 0
M  V30 10823 O 1028.92 -2.87524 2.95641 0
M  V30 10824 H 1028.26 -0.257031 0.612234 0
M  V30 10825 H 1030.79 -0.178755 2.03818 0
M  V30 10826 H 1030.8 -2.1758 3.45142 0
M  V30 10827 H 1029.47 -1.15927 3.99417 0
M  V30 10828 H 1028.05 -2.51023 2.75757 0
M  V30 10829 N 1030.24 -1.51135 -0.446768 0
M  V30 10830 C 1031.47 -1.66887 -1.21788 0
M  V30 10831 C 1031.87 -0.361729 -1.8571 0
M  V30 10832 O 1031.22 0.668784 -1.71093 0
M  V30 10833 C 1031.28 -2.72062 -2.34994 0
M  V30 10834 C 1030.94 -4.14935 -1.91516 0
M  V30 10835 C 1031.94 -5.00021 -1.42389 0
M  V30 10836 C 1029.62 -4.60985 -1.99495 0
M  V30 10837 C 1031.62 -6.29216 -1.01816 0
M  V30 10838 C 1029.31 -5.90179 -1.58532 0
M  V30 10839 C 1030.3 -6.74121 -1.09774 0
M  V30 10840 O 1029.99 -8.009 -0.69389 0
M  V30 10841 H 1029.72 -0.563431 -0.373525 0
M  V30 10842 H 1032.28 -1.98261 -0.536818 0
M  V30 10843 H 1030.51 -2.35983 -3.06348 0
M  V30 10844 H 1032.2 -2.76788 -2.96889 0
M  V30 10845 H 1032.96 -4.6565 -1.35627 0
M  V30 10846 H 1028.84 -3.95777 -2.36393 0
M  V30 10847 H 1032.39 -6.94687 -0.636879 0
M  V30 10848 H 1028.28 -6.24066 -1.64962 0
M  V30 10849 H 1029.05 -8.14376 -0.820582 0
M  V30 10850 N 1031.71 0.701592 -1.41122 0
M  V30 10851 C 1032.64 1.82815 -1.45262 0
M  V30 10852 C 1033.62 1.67215 -0.311939 0
M  V30 10853 O 1034.81 1.87038 -0.522538 0
M  V30 10854 C 1031.94 3.20899 -1.32819 0
M  V30 10855 C 1030.89 3.51194 -2.44636 0
M  V30 10856 C 1030.22 4.8857 -2.17263 0
M  V30 10857 C 1031.52 3.50777 -3.86979 0
M  V30 10858 H 1033.21 1.79608 -2.39544 0
M  V30 10859 H 1030.76 0.862693 -1.15298 0
M  V30 10860 H 1032.71 3.99417 -1.34329 0
M  V30 10861 H 1031.44 3.24717 -0.350191 0
M  V30 10862 H 1030.1 2.75024 -2.42399 0
M  V30 10863 H 1029.74 4.89007 -1.17819 0
M  V30 10864 H 1029.44 5.09805 -2.92186 0
M  V30 10865 H 1030.97 5.69405 -2.20478 0
M  V30 10866 H 1032.38 4.19309 -3.90964 0
M  V30 10867 H 1030.78 3.83542 -4.61536 0
M  V30 10868 H 1031.85 2.49873 -4.15562 0
M  V30 10869 N 1033.19 1.2685 0.935242 0
M  V30 10870 C 1034.43 1.13972 1.69675 0
M  V30 10871 C 1034.8 -0.310655 1.8947 0
M  V30 10872 O 1036 -0.561692 2.62866 0
M  V30 10873 C 1034.27 1.89387 3.03096 0
M  V30 10874 S 1035.83 1.92633 3.94256 0
M  V30 10875 H 1032.64 0.407009 0.582979 0
M  V30 10876 H 1035.25 1.60653 1.11404 0
M  V30 10877 H 1033.95 2.9397 2.86374 0
M  V30 10878 H 1033.48 1.43171 3.66423 0
M  V30 10879 H 1035.5 1.01732 4.85659 0
M  V30 10880 N 1034.67 -1.14067 1.0875 0
M  V30 10881 C 1035.92 -1.84535 0.814235 0
M  V30 10882 C 1036.23 -1.84044 -0.662355 0
M  V30 10883 O 1037.44 -2.50336 -1.05091 0
M  V30 10884 C 1035.89 -3.31273 1.40663 0
M  V30 10885 C 1035.5 -3.40171 2.91526 0
M  V30 10886 C 1037.25 -4.0683 1.21201 0
M  V30 10887 C 1035.15 -4.81141 3.43885 0
M  V30 10888 H 1034.08 -0.691346 0.300926 0
M  V30 10889 H 1036.73 -1.28562 1.30935 0
M  V30 10890 H 1035.12 -3.87005 0.839215 0
M  V30 10891 H 1036.29 -2.94471 3.54434 0
M  V30 10892 H 1034.61 -2.78073 3.09942 0
M  V30 10893 H 1037.2 -5.10891 1.57781 0
M  V30 10894 H 1037.55 -4.16022 0.152092 0
M  V30 10895 H 1038.08 -3.57408 1.74655 0
M  V30 10896 H 1034.82 -4.77138 4.49466 0
M  V30 10897 H 1034.34 -5.27365 2.85738 0
M  V30 10898 H 1036.02 -5.50042 3.40681 0
M  V30 10899 N 1036.15 -0.873678 -1.31166 0
M  V30 10900 C 1037.56 -0.53852 -1.78765 0
M  V30 10901 C 1037.91 0.944765 -1.71955 0
M  V30 10902 O 1037.04 1.73781 -1.28954 0
M  V30 10903 C 1037.63 -0.970749 -3.24595 0
M  V30 10904 C 1036.19 -0.687189 -3.70074 0
M  V30 10905 C 1035.34 -1.16001 -2.51871 0
M  V30 10906 H 1038.29 -1.05903 -1.18196 0
M  V30 10907 H 1038.31 -0.294966 -3.79355 0
M  V30 10908 H 1037.82 -2.05034 -3.29519 0
M  V30 10909 H 1035.92 0.380881 -3.70648 0
M  V30 10910 H 1036.03 -1.26682 -4.62048 0
M  V30 10911 H 1034.4 -0.579663 -2.48016 0
M  V30 10912 H 1035.18 -2.2471 -2.59539 0
M  V30 10913 N 1037.63 1.44308 -0.633487 0
M  V30 10914 C 1038.87 2.02023 -0.138917 0
M  V30 10915 C 1039.2 1.49841 1.24008 0
M  V30 10916 O 1038.46 0.673718 1.83738 0
M  V30 10917 C 1038.76 3.57316 -0.0773886 0
M  V30 10918 C 1038.42 4.28762 -1.39548 0
M  V30 10919 C 1037.08 4.47997 -1.75648 0
M  V30 10920 C 1039.44 4.69391 -2.26542 0
M  V30 10921 C 1036.76 5.05121 -2.98445 0
M  V30 10922 C 1039.12 5.27876 -3.48612 0
M  V30 10923 C 1037.78 5.45329 -3.84932 0
M  V30 10924 H 1037.05 0.739254 -0.0508333 0
M  V30 10925 H 1039.7 1.73043 -0.820271 0
M  V30 10926 H 1038 3.85724 0.687345 0
M  V30 10927 H 1039.7 3.99706 0.321837 0
M  V30 10928 H 1036.29 4.14122 -1.10456 0
M  V30 10929 H 1040.47 4.54241 -1.99946 0
M  V30 10930 H 1035.73 5.16821 -3.26658 0
M  V30 10931 H 1039.9 5.58307 -4.16253 0
M  V30 10932 H 1037.53 5.8936 -4.80166 0
M  V30 10933 N 1039.1 0.374177 1.53094 0
M  V30 10934 C 1040.52 -0.103172 1.86415 0
M  V30 10935 C 1040.87 -1.47439 1.29446 0
M  V30 10936 O 1039.99 -2.07333 0.619853 0
M  V30 10937 C 1040.59 -0.193988 3.38244 0
M  V30 10938 C 1039.15 -0.615605 3.71332 0
M  V30 10939 C 1038.29 0.23186 2.76329 0
M  V30 10940 H 1041.24 0.592644 1.47219 0
M  V30 10941 H 1041.26 -1.01597 3.66686 0
M  V30 10942 H 1040.78 0.80414 3.79678 0
M  V30 10943 H 1038.88 -1.62165 3.3546 0
M  V30 10944 H 1038.99 -0.38425 4.77557 0
M  V30 10945 H 1037.35 -0.300579 2.5292 0
M  V30 10946 H 1038.14 1.22769 3.20597 0
M  V30 10947 N 1040.58 -1.57259 0.103575 0
M  V30 10948 C 1042 -1.57581 -0.253062 0
M  V30 10949 C 1042.2 -1.11531 -1.67819 0
M  V30 10950 O 1041.25 -0.795632 -2.39637 0
M  V30 10951 C 1042.57 -3.00681 -0.0337753 0
M  V30 10952 C 1044.12 -3.12837 -0.10087 0
M  V30 10953 C 1044.59 -4.57911 0.0905295 0
M  V30 10954 N 1046.08 -4.63186 0.0359789 0
M  V30 10955 C 1046.82 -5.73179 0.159199 0
M  V30 10956 N 1046.31 -6.91976 0.337728 0
M  V30 10957 N 1048.11 -5.62011 0.0998662 0
M  V30 10958 H 1040.26 -1.85499 1.0346 0
M  V30 10959 H 1042.52 -0.856584 0.406163 0
M  V30 10960 H 1042.23 -3.38602 0.950858 0
M  V30 10961 H 1042.1 -3.69207 -0.772406 0
M  V30 10962 H 1044.49 -2.74783 -1.07601 0
M  V30 10963 H 1044.57 -2.46886 0.66939 0
M  V30 10964 H 1044.21 -4.9666 1.06258 0
M  V30 10965 H 1044.14 -5.21933 -0.699528 0
M  V30 10966 H 1046.63 -3.7777 -0.099121 0
M  V30 10967 H 1046.95 -7.71641 0.423032 0
M  V30 10968 H 1045.29 -6.93996 0.373504 0
M  V30 10969 H 1048.48 -4.68084 -0.0385356 0
M  V30 10970 H 1048.65 -6.47693 0.199342 0
M  V30 10971 N 1042.06 0.170153 -1.56679 0
M  V30 10972 C 1043.31 0.884841 -1.817 0
M  V30 10973 C 1043.63 1.82731 -0.680763 0
M  V30 10974 O 1042.9 1.936 0.299294 0
M  V30 10975 H 1041.48 0.329738 -0.670285 0
M  V30 10976 H 1044.14 0.169691 -1.9416 0
M  V30 10977 H 1043.24 1.46104 -2.7579 0
M  V30 10978 N 1043.54 1.5137 0.438746 0
M  V30 10979 C 1044.45 1.75424 1.55768 0
M  V30 10980 C 1045.46 0.638409 1.61865 0
M  V30 10981 O 1046.64 0.9205 1.79133 0
M  V30 10982 C 1043.71 1.87288 2.9176 0
M  V30 10983 C 1042.77 3.11137 2.95791 0
M  V30 10984 C 1042 3.22425 4.25297 0
M  V30 10985 O 1042.22 2.39688 5.17596 0
M  V30 10986 O 1041.16 4.15393 4.35583 0
M  V30 10987 H 1044.98 2.70339 1.38386 0
M  V30 10988 H 1042.57 1.35854 0.621609 0
M  V30 10989 H 1044.45 1.97085 3.72472 0
M  V30 10990 H 1043.12 0.955599 3.09273 0
M  V30 10991 H 1042.03 3.06819 2.1404 0
M  V30 10992 H 1043.36 4.02549 2.83223 0
M  V30 10993 N 1045.02 -0.694098 1.41492 0
M  V30 10994 C 1046.29 -1.44875 1.31418 0
M  V30 10995 C 1046.67 -2.11022 -0.0575538 0
M  V30 10996 O 1046.02 -2.01799 -1.07188 0
M  V30 10997 C 1046.23 -2.46698 2.46863 0
M  V30 10998 C 1047.58 -3.11907 2.88095 0
M  V30 10999 O 1048.6 -2.57022 2.46613 0
M  V30 11000 O 1047.46 -4.11318 3.59833 0
M  V30 11001 H 1044.56 -0.645266 0.517263 0
M  V30 11002 H 1047.1 -0.724452 1.53459 0
M  V30 11003 H 1045.87 -1.96485 3.38392 0
M  V30 11004 H 1045.5 -3.26634 2.26706 0
M  V30 11005 N 1046.49 -1.27344 -0.928501 0
M  V30 11006 C 1047.74 -1.13411 -1.67279 0
M  V30 11007 C 1048.06 0.320698 -1.92345 0
M  V30 11008 O 1047.33 1.2245 -1.52915 0
M  V30 11009 H 1045.91 -0.416712 -0.619968 0
M  V30 11010 H 1048.58 -1.5986 -1.11493 0
M  V30 11011 H 1047.67 -1.66256 -2.64131 0
M  V30 11012 N 1047.97 1.13488 -1.09353 0
M  V30 11013 C 1049.25 1.80998 -0.741559 0
M  V30 11014 C 1049.63 1.96418 0.773505 0
M  V30 11015 O 1048.98 1.53168 1.69563 0
M  V30 11016 C 1049.19 3.16078 -1.47972 0
M  V30 11017 C 1050.54 3.91438 -1.64504 0
M  V30 11018 O 1051.56 3.25699 -1.44218 0
M  V30 11019 O 1050.42 5.0935 -1.98054 0
M  V30 11020 H 1047.51 0.782953 -0.266297 0
M  V30 11021 H 1050.06 1.20422 -1.19569 0
M  V30 11022 H 1048.83 3.00076 -2.51137 0
M  V30 11023 H 1048.45 3.84354 -1.01772 0
M  V30 11024 N 1049.45 0.880621 1.30701 0
M  V30 11025 C 1050.7 0.495894 1.95922 0
M  V30 11026 C 1051.02 -0.957214 1.69889 0
M  V30 11027 O 1050.29 -1.67245 1.0201 0
M  V30 11028 H 1048.87 0.180394 0.724891 0
M  V30 11029 H 1051.53 1.12274 1.59313 0
M  V30 11030 H 1050.63 0.662508 3.04987 0
M  V30 11031 N 1050.93 -1.4397 0.641131 0
M  V30 11032 C 1052.34 -1.85267 0.230838 0
M  V30 11033 C 1052.69 -1.53659 -1.21998 0
M  V30 11034 O 1051.82 -0.979572 -1.92959 0
M  V30 11035 C 1052.41 -3.36284 0.412171 0
M  V30 11036 C 1050.97 -3.76358 0.0563004 0
M  V30 11037 C 1050.12 -2.67768 0.720809 0
M  V30 11038 H 1053.07 -1.34294 0.845624 0
M  V30 11039 H 1053.09 -3.78924 -0.345936 0
M  V30 11040 H 1052.6 -3.59258 1.46818 0
M  V30 11041 H 1050.7 -3.58997 -0.997582 0
M  V30 11042 H 1050.82 -4.76756 0.473335 0
M  V30 11043 H 1049.18 -2.54227 0.155164 0
M  V30 11044 H 1049.96 -2.93573 1.77961 0
M  V30 11045 N 1052.41 -0.382291 -1.52893 0
M  V30 11046 C 1053.63 0.204961 -2.06385 0
M  V30 11047 C 1054.06 1.40316 -1.25271 0
M  V30 11048 O 1053.42 1.79187 -0.275969 0
M  V30 11049 C 1053.46 0.560205 -3.56222 0
M  V30 11050 O 1052.57 1.65515 -3.77728 0
M  V30 11051 H 1051.91 0.0258798 -0.663495 0
M  V30 11052 H 1054.44 -0.547733 -1.97132 0
M  V30 11053 H 1054.45 0.826501 -3.99541 0
M  V30 11054 H 1053.12 -0.31584 -4.14699 0
M  V30 11055 H 1051.7 1.38311 -3.46301 0
M  V30 11056 N 1053.89 1.57202 -0.111913 0
M  V30 11057 C 1055.11 1.99723 0.559054 0
M  V30 11058 C 1055.54 0.990968 1.59879 0
M  V30 11059 O 1054.89 -0.038311 1.8126 0
M  V30 11060 C 1054.94 3.41151 1.16826 0
M  V30 11061 O 1054.05 3.43383 2.2839 0
M  V30 11062 H 1053.39 0.649004 0.140319 0
M  V30 11063 H 1055.92 2.03637 -0.198295 0
M  V30 11064 H 1055.93 3.79208 1.50551 0
M  V30 11065 H 1054.6 4.13907 0.406637 0
M  V30 11066 H 1053.18 3.17138 1.96158 0
M  V30 11067 N 1055.36 -0.161842 1.56767 0
M  V30 11068 C 1056.64 -0.904754 1.73417 0
M  V30 11069 C 1057.02 -1.99987 0.675908 0
M  V30 11070 O 1056.37 -2.26419 -0.307712 0
M  V30 11071 C 1056.58 -1.46082 3.16956 0
M  V30 11072 C 1057.93 -1.93004 3.78199 0
M  V30 11073 O 1058.95 -1.55856 3.20293 0
M  V30 11074 O 1057.81 -2.61465 4.79894 0
M  V30 11075 H 1054.9 -0.426518 0.708528 0
M  V30 11076 H 1057.45 -0.148928 1.69045 0
M  V30 11077 H 1056.22 -0.673087 3.85468 0
M  V30 11078 H 1055.84 -2.28056 3.25693 0
M  V30 11079 N 1056.84 -1.516 -0.430713 0
M  V30 11080 C 1058.09 -1.64271 -1.17726 0
M  V30 11081 C 1058.41 -0.364406 -1.91565 0
M  V30 11082 O 1057.68 0.619991 -1.8583 0
M  V30 11083 H 1056.26 -0.605432 -0.437562 0
M  V30 11084 H 1058.92 -1.88557 -0.493166 0
M  V30 11085 H 1058.02 -2.47355 -1.90321 0
M  V30 11086 N 1058.32 0.686584 -1.41858 0
M  V30 11087 C 1059.57 1.44235 -1.40994 0
M  V30 11088 C 1059.88 1.95583 -0.0254979 0
M  V30 11089 O 1061.09 2.71294 0.10576 0
M  V30 11090 C 1059.54 2.6086 -2.47952 0
M  V30 11091 C 1059.15 2.16259 -3.92347 0
M  V30 11092 C 1060.9 3.38441 -2.56237 0
M  V30 11093 C 1058.8 3.29896 -4.90838 0
M  V30 11094 H 1057.73 0.54181 -0.524364 0
M  V30 11095 H 1060.38 0.744486 -1.67719 0
M  V30 11096 H 1058.77 3.32957 -2.14373 0
M  V30 11097 H 1059.94 1.51392 -4.35221 0
M  V30 11098 H 1058.25 1.51648 -3.87804 0
M  V30 11099 H 1060.85 4.23052 -3.27003 0
M  V30 11100 H 1061.19 3.84238 -1.6021 0
M  V30 11101 H 1061.73 2.73406 -2.88953 0
M  V30 11102 H 1058.47 2.89104 -5.88302 0
M  V30 11103 H 1057.99 3.93584 -4.52606 0
M  V30 11104 H 1059.67 3.95541 -5.12012 0
M  V30 11105 N 1059.8 1.27835 0.921735 0
M  V30 11106 C 1060.75 1.07723 2.00947 0
M  V30 11107 C 1061.73 0.00336676 1.609 0
M  V30 11108 O 1062.92 0.222593 1.75595 0
M  V30 11109 C 1060.05 0.732732 3.35389 0
M  V30 11110 C 1059.14 1.84504 3.81863 0
M  V30 11111 N 1059.53 3.08551 4.00787 0
M  V30 11112 C 1057.83 1.73308 4.10951 0
M  V30 11113 C 1058.53 3.80974 4.39584 0
M  V30 11114 N 1057.5 3.08773 4.47393 0
M  V30 11115 H 1061.31 2.01854 2.13617 0
M  V30 11116 H 1058.82 1.18637 1.109 0
M  V30 11117 H 1060.82 0.56975 4.12988 0
M  V30 11118 H 1059.48 -0.200885 3.24078 0
M  V30 11119 H 1060.49 3.44248 3.86928 0
M  V30 11120 H 1057.17 0.870698 4.0832 0
M  V30 11121 H 1058.56 4.87617 4.62255 0
M  V30 11122 N 1061.28 -1.12907 1.09954 0
M  V30 11123 C 1062.19 -2.22082 0.756095 0
M  V30 11124 C 1063.2 -1.72277 -0.244272 0
M  V30 11125 O 1064.38 -2.01224 -0.0842637 0
M  V30 11126 C 1061.44 -3.46192 0.187642 0
M  V30 11127 C 1060.5 -4.10861 1.24465 0
M  V30 11128 C 1059.74 -5.29047 0.703227 0
M  V30 11129 O 1059.96 -5.68443 -0.472043 0
M  V30 11130 O 1058.89 -5.83904 1.46082 0
M  V30 11131 H 1062.72 -2.53842 1.66727 0
M  V30 11132 H 1060.3 -1.21145 0.874316 0
M  V30 11133 H 1062.19 -4.21212 -0.125774 0
M  V30 11134 H 1060.86 -3.16119 -0.696459 0
M  V30 11135 H 1059.77 -3.37643 1.61085 0
M  V30 11136 H 1061.1 -4.45078 2.10159 0
M  V30 11137 N 1062.75 -0.88754 -1.30232 0
M  V30 11138 C 1063.66 -0.360333 -2.31816 0
M  V30 11139 C 1064.68 0.538741 -1.6545 0
M  V30 11140 O 1065.86 0.431246 -1.96729 0
M  V30 11141 C 1062.92 0.414336 -3.44215 0
M  V30 11142 C 1061.98 -0.514799 -4.26202 0
M  V30 11143 C 1061.21 0.222994 -5.33234 0
M  V30 11144 O 1061.44 1.44871 -5.51696 0
M  V30 11145 O 1060.37 -0.428221 -6.00375 0
M  V30 11146 H 1064.2 -1.20279 -2.78867 0
M  V30 11147 H 1061.78 -0.651459 -1.34448 0
M  V30 11148 H 1063.66 0.852859 -4.12679 0
M  V30 11149 H 1062.34 1.23305 -2.99295 0
M  V30 11150 H 1061.25 -1.00219 -3.60426 0
M  V30 11151 H 1062.58 -1.29959 -4.74733 0
M  V30 11152 N 1064.23 1.43628 -0.648757 0
M  V30 11153 C 1065.64 1.85142 -0.24066 0
M  V30 11154 C 1065.99 1.54304 1.21181 0
M  V30 11155 O 1065.12 0.989792 1.92437 0
M  V30 11156 C 1065.71 3.3606 -0.429999 0
M  V30 11157 C 1064.27 3.76323 -0.0762588 0
M  V30 11158 C 1063.42 2.67382 -0.734999 0
M  V30 11159 H 1066.37 1.33844 -0.852734 0
M  V30 11160 H 1066.39 3.79102 0.325836 0
M  V30 11161 H 1065.9 3.58474 -1.48721 0
M  V30 11162 H 1064.01 3.59521 0.978529 0
M  V30 11163 H 1064.12 4.76498 -0.498612 0
M  V30 11164 H 1062.48 2.54141 -0.168644 0
M  V30 11165 H 1063.27 2.92625 -1.79515 0
M  V30 11166 N 1065.71 0.390394 1.52688 0
M  V30 11167 C 1066.94 -0.191485 2.06012 0
M  V30 11168 C 1067.35 -1.40422 1.26202 0
M  V30 11169 O 1066.71 -1.79866 0.308963 0
M  V30 11170 C 1066.76 -0.560521 3.57128 0
M  V30 11171 O 1066.48 0.60404 4.33916 0
M  V30 11172 C 1067.98 -1.19814 4.26801 0
M  V30 11173 H 1065.2 -0.0286311 0.670389 0
M  V30 11174 H 1067.75 0.555939 1.96798 0
M  V30 11175 H 1065.9 -1.25784 3.66411 0
M  V30 11176 H 1066.32 0.300467 5.23639 0
M  V30 11177 H 1067.79 -1.40672 5.33775 0
M  V30 11178 H 1068.27 -2.16582 3.82085 0
M  V30 11179 H 1068.87 -0.541558 4.21838 0
M  V30 11180 N 1067.19 -1.57141 0.120249 0
M  V30 11181 C 1068.6 -1.82256 -0.404931 0
M  V30 11182 C 1068.95 -1.03748 -1.66526 0
M  V30 11183 O 1068.08 -0.274456 -2.14653 0
M  V30 11184 C 1068.67 -3.30588 -0.741431 0
M  V30 11185 C 1067.23 -3.56379 -1.21124 0
M  V30 11186 C 1066.38 -2.76421 -0.220569 0
M  V30 11187 H 1069.33 -1.54897 0.345361 0
M  V30 11188 H 1069.35 -3.45284 -1.59872 0
M  V30 11189 H 1068.86 -3.87701 0.176036 0
M  V30 11190 H 1066.96 -3.04625 -2.14556 0
M  V30 11191 H 1067.07 -4.64952 -1.1557 0
M  V30 11192 H 1065.44 -2.44666 -0.707857 0
M  V30 11193 H 1066.22 -3.36294 0.690018 0
M  V30 11194 N 1068.67 0.153526 -1.5685 0
M  V30 11195 C 1069.91 0.868517 -1.83261 0
M  V30 11196 C 1070.25 1.81112 -0.700857 0
M  V30 11197 O 1069.52 1.92235 0.295989 0
M  V30 11198 C 1069.8 1.6487 -3.2014 0
M  V30 11199 C 1069.66 0.728021 -4.43869 0
M  V30 11200 C 1070.98 2.61259 -3.54163 0
M  V30 11201 H 1068.09 0.314297 -0.666623 0
M  V30 11202 H 1070.74 0.133971 -1.89527 0
M  V30 11203 H 1068.89 2.2749 -3.1493 0
M  V30 11204 H 1070.56 0.113328 -4.61161 0
M  V30 11205 H 1068.8 0.0371744 -4.33784 0
M  V30 11206 H 1069.47 1.30981 -5.36235 0
M  V30 11207 H 1071.95 2.0876 -3.59942 0
M  V30 11208 H 1070.82 3.12902 -4.50981 0
M  V30 11209 H 1071.09 3.42307 -2.79782 0
M  V30 11210 N 1070.14 1.51827 0.422667 0
M  V30 11211 C 1071.09 1.74791 1.53463 0
M  V30 11212 C 1072.09 0.614602 1.57858 0
M  V30 11213 O 1073.29 0.796336 1.61426 0
M  V30 11214 H 1069.67 0.552524 0.510118 0
M  V30 11215 H 1071.64 2.67974 1.31273 0
M  V30 11216 C 1070.39 1.90339 2.90975 0
M  V30 11217 H 1069.71 2.76958 2.8833 0
M  V30 11218 H 1071.15 2.10413 3.68106 0
M  V30 11219 C 1069.61 0.66695 3.30232 0
M  V30 11220 O 1070.14 -0.171542 4.01334 0
M  V30 11221 N 1068.35 0.506768 2.86147 0
M  V30 11222 H 1067.89 1.19019 2.28456 0
M  V30 11223 H 1067.85 -0.319247 3.12775 0
M  V30 11224 N 1071.62 -0.679052 1.4222 0
M  V30 11225 C 1072.85 -1.47248 1.46058 0
M  V30 11226 C 1073.27 -1.87962 0.0720987 0
M  V30 11227 O 1072.63 -1.5572 -0.928488 0
M  V30 11228 C 1072.68 -2.70067 2.38948 0
M  V30 11229 O 1071.78 -3.68178 1.85791 0
M  V30 11230 H 1071.12 -0.442533 0.495036 0
M  V30 11231 H 1073.65 -0.833263 1.86863 0
M  V30 11232 H 1073.66 -3.18187 2.55385 0
M  V30 11233 H 1072.34 -2.39773 3.39826 0
M  V30 11234 H 1070.92 -3.2719 1.78889 0
M  V30 11235 N 1073.1 -1.28322 -0.914942 0
M  V30 11236 C 1074.06 -1.12169 -1.99877 0
M  V30 11237 C 1075.06 -0.0617252 -1.60681 0
M  V30 11238 O 1076.25 -0.307405 -1.71466 0
M  V30 11239 C 1073.39 -0.711959 -3.33383 0
M  V30 11240 H 1074.58 -2.08425 -2.15636 0
M  V30 11241 H 1072.13 -1.11291 -1.09745 0
M  V30 11242 H 1072.87 0.251418 -3.23324 0
M  V30 11243 H 1072.65 -1.47764 -3.63192 0
M  V30 11244 H 1074.14 -0.621558 -4.12948 0
M  V30 11245 N 1074.58 1.12322 -1.10551 0
M  V30 11246 C 1075.81 1.87679 -0.87087 0
M  V30 11247 C 1076.22 1.79711 0.578733 0
M  V30 11248 O 1075.58 1.17185 1.39907 0
M  V30 11249 C 1075.63 3.36846 -1.31213 0
M  V30 11250 O 1075.35 3.44626 -2.70489 0
M  V30 11251 C 1076.85 4.29138 -1.11156 0
M  V30 11252 H 1074.07 0.593788 -0.3125 0
M  V30 11253 H 1076.62 1.42116 -1.47048 0
M  V30 11254 H 1074.77 3.79948 -0.756169 0
M  V30 11255 H 1075.18 4.37441 -2.89389 0
M  V30 11256 H 1076.66 5.32082 -1.46944 0
M  V30 11257 H 1077.14 4.39171 -0.0502963 0
M  V30 11258 H 1077.74 3.91818 -1.65405 0
M  V30 11259 N 1076.06 0.894434 1.2976 0
M  V30 11260 C 1077.28 0.5322 2.00455 0
M  V30 11261 C 1077.71 -0.874427 1.66539 0
M  V30 11262 O 1077.06 -1.58113 0.887129 0
M  V30 11263 C 1077.11 0.725264 3.53231 0
M  V30 11264 O 1076.22 -0.224612 4.11788 0
M  V30 11265 H 1075.56 0.208562 0.630395 0
M  V30 11266 H 1078.09 1.20458 1.65382 0
M  V30 11267 H 1078.1 0.627889 4.0314 0
M  V30 11268 H 1076.77 1.75079 3.77253 0
M  V30 11269 H 1075.35 -0.0801361 3.72814 0
M  V30 11270 N 1077.53 -1.43282 0.656365 0
M  V30 11271 C 1078.76 -2.06125 0.178879 0
M  V30 11272 C 1079.18 -1.49216 -1.15672 0
M  V30 11273 O 1078.53 -0.624693 -1.71475 0
M  V30 11274 C 1078.59 -3.614 0.0851785 0
M  V30 11275 O 1078.31 -4.16194 1.36798 0
M  V30 11276 C 1079.81 -4.41325 -0.41801 0
M  V30 11277 H 1077.03 -0.664753 0.0913504 0
M  V30 11278 H 1079.57 -1.83733 0.897901 0
M  V30 11279 H 1077.73 -3.82966 -0.584421 0
M  V30 11280 H 1078.14 -5.09892 1.22924 0
M  V30 11281 H 1079.61 -5.50303 -0.432519 0
M  V30 11282 H 1080.09 -4.14577 -1.44991 0
M  V30 11283 H 1080.7 -4.24735 0.219208 0
M  V30 11284 N 1079.01 -0.398486 -1.52479 0
M  V30 11285 C 1080.42 0.0735015 -1.86555 0
M  V30 11286 C 1080.78 1.45361 -1.31775 0
M  V30 11287 O 1079.9 2.0632 -0.652759 0
M  V30 11288 C 1080.5 0.140152 -3.3851 0
M  V30 11289 C 1079.05 0.556451 -3.72264 0
M  V30 11290 C 1078.2 -0.275792 -2.75925 0
M  V30 11291 H 1081.15 -0.615991 -1.46257 0
M  V30 11292 H 1081.17 0.957507 -3.68255 0
M  V30 11293 H 1080.69 -0.864442 -3.7835 0
M  V30 11294 H 1078.79 1.56808 -3.37997 0
M  V30 11295 H 1078.9 0.308227 -4.78107 0
M  V30 11296 H 1077.26 0.260304 -2.53366 0
M  V30 11297 H 1078.05 -1.27854 -3.18604 0
M  V30 11298 N 1080.49 1.57075 -0.12858 0
M  V30 11299 C 1081.42 2.12907 0.848708 0
M  V30 11300 C 1082.44 1.07406 1.22343 0
M  V30 11301 O 1083.63 1.34746 1.17071 0
M  V30 11302 C 1080.73 2.62167 2.1476 0
M  V30 11303 C 1079.9 3.91871 1.94309 0
M  V30 11304 C 1078.96 4.26629 3.08016 0
M  V30 11305 O 1077.98 4.9528 2.80511 0
M  V30 11306 N 1079.19 3.84721 4.34706 0
M  V30 11307 H 1081.95 2.97387 0.371636 0
M  V30 11308 H 1079.51 1.61805 0.0555574 0
M  V30 11309 H 1081.5 2.82444 2.89841 0
M  V30 11310 H 1080.07 1.82514 2.53786 0
M  V30 11311 H 1079.29 3.80406 1.03367 0
M  V30 11312 H 1080.58 4.76662 1.77962 0
M  V30 11313 H 1079.98 3.2937 4.59926 0
M  V30 11314 H 1078.54 4.10087 5.06628 0
M  V30 11315 N 1081.97 -0.145205 1.5693 0
M  V30 11316 C 1082.9 -1.18096 2.01434 0
M  V30 11317 C 1083.88 -1.447 0.894204 0
M  V30 11318 O 1085.07 -1.55589 1.16214 0
M  V30 11319 C 1082.2 -2.51369 2.39647 0
M  V30 11320 C 1081.15 -2.39283 3.54863 0
M  V30 11321 C 1080.48 -3.77283 3.78895 0
M  V30 11322 C 1081.78 -1.8754 4.87469 0
M  V30 11323 H 1083.47 -0.810897 2.8821 0
M  V30 11324 H 1081.02 -0.388624 1.38657 0
M  V30 11325 H 1082.97 -3.24054 2.69382 0
M  V30 11326 H 1081.69 -2.90214 1.49811 0
M  V30 11327 H 1080.35 -1.6905 3.25296 0
M  V30 11328 H 1080 -4.13567 2.86307 0
M  V30 11329 H 1079.7 -3.70057 4.56433 0
M  V30 11330 H 1081.22 -4.51514 4.11057 0
M  V30 11331 H 1082.64 -2.50019 5.1591 0
M  V30 11332 H 1081.03 -1.912 5.68826 0
M  V30 11333 H 1082.1 -0.831194 4.77723 0
M  V30 11334 N 1083.45 -1.52049 -0.414609 0
M  V30 11335 C 1084.68 -1.69679 -1.18392 0
M  V30 11336 C 1085.09 -0.403881 -1.84429 0
M  V30 11337 O 1084.45 0.619636 -1.71659 0
M  V30 11338 C 1084.5 -2.82855 -2.25112 0
M  V30 11339 O 1084.22 -4.07138 -1.61772 0
M  V30 11340 C 1085.72 -3.11948 -3.14965 0
M  V30 11341 H 1082.94 -0.56879 -0.355977 0
M  V30 11342 H 1085.48 -1.9858 -0.488505 0
M  V30 11343 H 1083.64 -2.56488 -2.90332 0
M  V30 11344 H 1084.05 -4.70163 -2.32479 0
M  V30 11345 H 1085.53 -3.94665 -3.85932 0
M  V30 11346 H 1086 -2.25276 -3.77024 0
M  V30 11347 H 1086.61 -3.40059 -2.55421 0
M  V30 11348 N 1084.93 0.6715 -1.42579 0
M  V30 11349 C 1086.34 1.2522 -1.38481 0
M  V30 11350 C 1086.69 1.96038 -0.079719 0
M  V30 11351 O 1085.81 2.00203 0.821441 0
M  V30 11352 C 1086.41 2.27736 -2.50842 0
M  V30 11353 C 1084.97 2.81325 -2.50067 0
M  V30 11354 C 1084.11 1.55694 -2.29466 0
M  V30 11355 H 1087.06 0.464673 -1.51745 0
M  V30 11356 H 1087.09 3.09539 -2.21283 0
M  V30 11357 H 1086.6 1.76164 -3.45815 0
M  V30 11358 H 1084.7 3.37008 -1.58922 0
M  V30 11359 H 1084.81 3.30116 -3.47218 0
M  V30 11360 H 1083.18 1.82383 -1.77788 0
M  V30 11361 H 1083.96 1.06084 -3.26498 0
M  V30 11362 N 1086.4 1.28806 0.908124 0
M  V30 11363 C 1087.63 1.19153 1.69146 0
M  V30 11364 C 1088.05 -0.249056 1.8715 0
M  V30 11365 O 1087.4 -1.16772 1.40251 0
M  V30 11366 C 1087.45 1.89167 3.08055 0
M  V30 11367 O 1087.18 3.27599 2.90879 0
M  V30 11368 C 1088.68 1.85886 4.02444 0
M  V30 11369 H 1085.9 0.413359 0.528559 0
M  V30 11370 H 1088.44 1.7003 1.13622 0
M  V30 11371 H 1086.6 1.42146 3.60379 0
M  V30 11372 H 1087.01 3.62743 3.78837 0
M  V30 11373 H 1088.48 2.39454 4.97359 0
M  V30 11374 H 1088.96 0.832483 4.31238 0
M  V30 11375 H 1089.57 2.32612 3.5605 0
M  V30 11376 N 1087.88 -1.11734 1.11145 0
M  V30 11377 C 1088.83 -2.19765 0.761982 0
M  V30 11378 C 1089.82 -1.67616 -0.24518 0
M  V30 11379 O 1091.03 -1.79695 -0.104781 0
M  V30 11380 H 1087.4 -0.71644 0.228513 0
M  V30 11381 H 1089.38 -2.4649 1.68183 0
M  V30 11382 C 1088.12 -3.47016 0.218057 0
M  V30 11383 H 1087.45 -3.87494 0.984299 0
M  V30 11384 H 1088.89 -4.23998 0.0116825 0
M  V30 11385 C 1087.35 -3.20088 -1.05096 0
M  V30 11386 O 1087.88 -3.40503 -2.1312 0
M  V30 11387 N 1086.08 -2.73844 -0.972523 0
M  V30 11388 H 1085.63 -2.57431 -0.0933459 0
M  V30 11389 H 1085.59 -2.56204 -1.82228 0
M  V30 11390 N 1089.36 -0.901303 -1.29284 0
M  V30 11391 C 1090.58 -0.542823 -2.0017 0
M  V30 11392 C 1091.01 0.865583 -1.67001 0
M  V30 11393 O 1090.37 1.5764 -0.895502 0
M  V30 11394 C 1090.42 -0.743987 -3.52842 0
M  V30 11395 O 1089.52 0.202771 -4.11901 0
M  V30 11396 H 1088.86 -0.211903 -0.62928 0
M  V30 11397 H 1091.39 -1.21333 -1.64741 0
M  V30 11398 H 1091.4 -0.64926 -4.02801 0
M  V30 11399 H 1090.08 -1.77077 -3.7632 0
M  V30 11400 H 1088.65 0.0603637 -3.72851 0
M  V30 11401 N 1090.84 1.42931 -0.663954 0
M  V30 11402 C 1091.77 2.33499 0.00731327 0
M  V30 11403 C 1092.75 1.50074 0.800733 0
M  V30 11404 O 1093.93 1.78708 0.760062 0
M  V30 11405 C 1091.06 3.33569 0.966897 0
M  V30 11406 C 1090.02 4.27064 0.282839 0
M  V30 11407 C 1089.34 5.17257 1.35461 0
M  V30 11408 C 1090.64 5.1564 -0.831438 0
M  V30 11409 H 1092.34 2.89879 -0.749044 0
M  V30 11410 H 1089.88 1.39385 -0.361656 0
M  V30 11411 H 1091.84 3.95833 1.44549 0
M  V30 11412 H 1090.56 2.75469 1.75455 0
M  V30 11413 H 1089.22 3.6618 -0.175417 0
M  V30 11414 H 1088.87 4.5549 2.13397 0
M  V30 11415 H 1088.57 5.80634 0.902098 0
M  V30 11416 H 1090.09 5.82395 1.83436 0
M  V30 11417 H 1091.51 5.71651 -0.434534 0
M  V30 11418 H 1089.9 5.87794 -1.20908 0
M  V30 11419 H 1090.97 4.54687 -1.68487 0
M  V30 11420 N 1092.32 0.406567 1.52266 0
M  V30 11421 C 1093.26 -0.420182 2.26943 0
M  V30 11422 C 1094.23 -1.04323 1.29251 0
M  V30 11423 O 1095.42 -1.06799 1.5811 0
M  V30 11424 C 1092.56 -1.5323 3.09216 0
M  V30 11425 C 1091.67 -0.930419 4.21862 0
M  V30 11426 C 1090.81 -2.01502 4.91498 0
M  V30 11427 C 1089.84 -1.38994 5.9611 0
M  V30 11428 N 1088.98 -2.41458 6.59274 0
M  V30 11429 H 1093.82 0.223066 2.97164 0
M  V30 11430 H 1091.36 0.121842 1.46595 0
M  V30 11431 H 1093.32 -2.18803 3.5522 0
M  V30 11432 H 1091.95 -2.14561 2.41171 0
M  V30 11433 H 1091 -0.163809 3.80047 0
M  V30 11434 H 1092.31 -0.433785 4.9691 0
M  V30 11435 H 1091.46 -2.74807 5.40894 0
M  V30 11436 H 1090.2 -2.5453 4.16012 0
M  V30 11437 H 1089.21 -0.642213 5.46036 0
M  V30 11438 H 1090.43 -0.867386 6.73538 0
M  V30 11439 H 1088.38 -2.93623 5.86619 0
M  V30 11440 H 1088.3 -1.96599 7.2999 0
M  V30 11441 H 1089.56 -3.14341 7.13309 0
M  V30 11442 N 1093.79 -1.57004 0.136909 0
M  V30 11443 C 1095.21 -1.58082 -0.21958 0
M  V30 11444 C 1095.41 -1.15065 -1.65415 0
M  V30 11445 O 1094.47 -0.846284 -2.37896 0
M  V30 11446 C 1095.78 -3.00685 0.0300112 0
M  V30 11447 C 1097.33 -3.12981 -0.0344899 0
M  V30 11448 C 1097.8 -4.57615 0.187639 0
M  V30 11449 N 1099.29 -4.63005 0.134219 0
M  V30 11450 C 1100.03 -5.72712 0.280743 0
M  V30 11451 N 1099.52 -6.91104 0.48443 0
M  V30 11452 N 1101.32 -5.61673 0.219055 0
M  V30 11453 H 1093.47 -1.83262 1.07372 0
M  V30 11454 H 1095.73 -0.847776 0.424241 0
M  V30 11455 H 1095.44 -3.36509 1.02247 0
M  V30 11456 H 1095.31 -3.70762 -0.693918 0
M  V30 11457 H 1097.7 -2.77004 -1.01749 0
M  V30 11458 H 1097.78 -2.45411 0.721608 0
M  V30 11459 H 1097.42 -4.94295 1.16769 0
M  V30 11460 H 1097.35 -5.23299 -0.588661 0
M  V30 11461 H 1099.84 -3.77895 -0.0189681 0
M  V30 11462 H 1100.16 -7.7057 0.586613 0
M  V30 11463 H 1098.5 -6.93047 0.520627 0
M  V30 11464 H 1101.69 -4.68061 0.0607606 0
M  V30 11465 H 1101.87 -6.47125 0.336683 0
M  V30 11466 N 1095.27 0.136881 -1.57004 0
M  V30 11467 C 1096.52 0.8461 -1.83536 0
M  V30 11468 C 1096.84 1.81246 -0.71937 0
M  V30 11469 O 1096.11 1.94191 0.258161 0
M  V30 11470 H 1094.69 0.315446 -0.677128 0
M  V30 11471 H 1097.35 0.128469 -1.94476 0
M  V30 11472 H 1096.45 1.40221 -2.78827 0
M  V30 11473 N 1096.75 1.52266 0.40654 0
M  V30 11474 C 1098 1.66123 1.15097 0
M  V30 11475 C 1098.32 0.394836 1.90961 0
M  V30 11476 O 1097.59 -0.590349 1.86793 0
M  V30 11477 H 1096.17 0.612317 0.427875 0
M  V30 11478 H 1098.83 1.89318 0.463106 0
M  V30 11479 H 1097.93 2.50351 1.86361 0
M  V30 11480 N 1098.23 -0.663929 1.42933 0
M  V30 11481 C 1099.19 -1.75899 1.46943 0
M  V30 11482 C 1100.19 -1.5682 0.355535 0
M  V30 11483 O 1101.38 -1.62914 0.616833 0
M  V30 11484 C 1098.51 -3.14657 1.31164 0
M  V30 11485 H 1099.71 -1.73727 2.44456 0
M  V30 11486 H 1097.26 -0.874587 1.2954 0
M  V30 11487 H 1097.99 -3.22447 0.346165 0
M  V30 11488 H 1097.78 -3.29909 2.11902 0
M  V30 11489 H 1099.27 -3.9453 1.36878 0
M  V30 11490 N 1099.71 -1.29285 -0.901281 0
M  V30 11491 C 1100.66 -1.10907 -1.99208 0
M  V30 11492 C 1101.64 -0.0289641 -1.60874 0
M  V30 11493 O 1102.83 -0.2505 -1.75218 0
M  V30 11494 C 1099.96 -0.785997 -3.34181 0
M  V30 11495 C 1099.05 -1.90556 -3.78879 0
M  V30 11496 N 1099.44 -3.14888 -3.95827 0
M  V30 11497 C 1097.74 -1.79824 -4.08141 0
M  V30 11498 C 1098.44 -3.87919 -4.33467 0
M  V30 11499 N 1097.41 -3.15852 -4.42424 0
M  V30 11500 H 1101.22 -2.05227 -2.10379 0
M  V30 11501 H 1098.73 -1.20387 -1.08999 0
M  V30 11502 H 1100.73 -0.635381 -4.1203 0
M  V30 11503 H 1099.39 0.149302 -3.24357 0
M  V30 11504 H 1100.4 -3.5036 -3.81403 0
M  V30 11505 H 1097.07 -0.935548 -4.06883 0
M  V30 11506 H 1098.46 -4.94909 -4.54439 0
M  V30 11507 N 1101.18 1.11143 -1.11736 0
M  V30 11508 C 1102.13 2.15396 -0.747566 0
M  V30 11509 C 1103.12 1.58948 0.249894 0
M  V30 11510 O 1104.31 1.7691 0.0565267 0
M  V30 11511 C 1101.44 3.42741 -0.195776 0
M  V30 11512 C 1100.53 4.06141 -1.22109 0
M  V30 11513 N 1100.92 4.44351 -2.41631 0
M  V30 11514 C 1099.21 4.33104 -1.06474 0
M  V30 11515 C 1099.92 4.94062 -3.07046 0
M  V30 11516 N 1098.89 4.90411 -2.34516 0
M  V30 11517 H 1102.69 2.42722 -1.6572 0
M  V30 11518 H 1100.21 1.28189 -0.997059 0
M  V30 11519 H 1102.2 4.16809 0.0872984 0
M  V30 11520 H 1100.86 3.16878 0.708406 0
M  V30 11521 H 1101.88 4.36283 -2.79065 0
M  V30 11522 H 1098.55 4.16934 -0.217246 0
M  V30 11523 H 1099.94 5.33234 -4.08792 0
M  V30 11524 N 1102.66 0.908147 1.28804 0
M  V30 11525 C 1104.08 0.605474 1.47669 0
M  V30 11526 C 1104.28 -0.850759 1.82659 0
M  V30 11527 O 1103.33 -1.63029 1.92816 0
M  V30 11528 C 1104.65 1.53856 2.58358 0
M  V30 11529 C 1106.2 1.54467 2.7223 0
M  V30 11530 C 1106.67 2.46424 3.86056 0
M  V30 11531 N 1108.16 2.44519 3.93402 0
M  V30 11532 C 1108.9 3.12371 4.80845 0
M  V30 11533 N 1108.39 3.89533 5.72919 0
M  V30 11534 N 1110.19 3.01486 4.74407 0
M  V30 11535 H 1102.34 1.84988 1.04371 0
M  V30 11536 H 1104.6 0.793132 0.519274 0
M  V30 11537 H 1104.31 2.57651 2.39393 0
M  V30 11538 H 1104.18 1.26543 3.5534 0
M  V30 11539 H 1106.57 0.514127 2.90587 0
M  V30 11540 H 1106.65 1.85821 1.75796 0
M  V30 11541 H 1106.29 3.49577 3.68454 0
M  V30 11542 H 1106.22 2.12375 4.81876 0
M  V30 11543 H 1108.71 1.88464 3.27551 0
M  V30 11544 H 1109.03 4.3834 6.36457 0
M  V30 11545 H 1107.37 3.93639 5.72777 0
M  V30 11546 H 1110.56 2.40713 4.01466 0
M  V30 11547 H 1110.73 3.5464 5.42342 0
M  V30 11548 N 1104.14 -1.42577 0.671525 0
M  V30 11549 C 1105.56 -1.5592 0.340769 0
M  V30 11550 C 1105.76 -1.65179 -1.15405 0
M  V30 11551 O 1104.81 -1.61691 -1.93939 0
M  V30 11552 C 1106.13 -2.81087 1.06821 0
M  V30 11553 C 1107.67 -2.94855 1.05022 0
M  V30 11554 C 1108.15 -4.22878 1.75892 0
M  V30 11555 N 1109.64 -4.29783 1.72744 0
M  V30 11556 C 1110.37 -5.2765 2.24439 0
M  V30 11557 N 1109.87 -6.31689 2.84501 0
M  V30 11558 N 1111.66 -5.19426 2.14832 0
M  V30 11559 H 1103.81 -1.34811 1.64133 0
M  V30 11560 H 1106.08 -0.648704 0.691294 0
M  V30 11561 H 1105.78 -2.80371 2.12332 0
M  V30 11562 H 1105.66 -3.71879 0.631356 0
M  V30 11563 H 1108.04 -2.951 0.00345633 0
M  V30 11564 H 1108.13 -2.05303 1.52592 0
M  V30 11565 H 1107.77 -4.23394 2.80535 0
M  V30 11566 H 1107.7 -5.1136 1.25773 0
M  V30 11567 H 1110.19 -3.55225 1.28932 0
M  V30 11568 H 1110.5 -7.02715 3.21575 0
M  V30 11569 H 1108.85 -6.3226 2.88569 0
M  V30 11570 H 1112.04 -4.37067 1.676 0
M  V30 11571 H 1112.21 -5.95535 2.55426 0
M  V30 11572 N 1105.62 -0.414636 -1.52048 0
M  V30 11573 C 1106.86 0.158807 -2.03782 0
M  V30 11574 C 1107.22 1.41912 -1.29325 0
M  V30 11575 O 1108.42 2.07136 -1.71313 0
M  V30 11576 C 1106.69 0.395092 -3.55209 0
M  V30 11577 S 1108.25 0.935193 -4.28719 0
M  V30 11578 H 1105.07 0.0424729 -0.70973 0
M  V30 11579 H 1107.67 -0.568822 -1.87042 0
M  V30 11580 H 1106.38 -0.528875 -4.06978 0
M  V30 11581 H 1105.91 1.15044 -3.76203 0
M  V30 11582 H 1107.92 2.21519 -4.44009 0
M  V30 11583 N 1107.1 1.56929 -0.145233 0
M  V30 11584 C 1108.01 2.20238 0.808219 0
M  V30 11585 C 1109.02 1.18615 1.27304 0
M  V30 11586 O 1110.2 1.51186 1.3306 0
M  V30 11587 C 1107.26 2.81016 2.03055 0
M  V30 11588 C 1106.32 3.97759 1.61512 0
M  V30 11589 C 1105.56 4.55628 2.77918 0
M  V30 11590 O 1105.78 4.12378 3.94082 0
M  V30 11591 O 1104.71 5.45917 2.53492 0
M  V30 11592 H 1108.54 3.02221 0.299314 0
M  V30 11593 H 1106.13 1.49176 0.0817051 0
M  V30 11594 H 1108.01 3.19652 2.74592 0
M  V30 11595 H 1106.68 2.02047 2.52901 0
M  V30 11596 H 1105.59 3.63842 0.870033 0
M  V30 11597 H 1106.92 4.78242 1.16383 0
M  V30 11598 N 1108.58 -0.128553 1.57075 0
M  V30 11599 C 1109.82 -0.839252 1.8462 0
M  V30 11600 C 1110.15 -1.79974 0.729582 0
M  V30 11601 O 1109.43 -1.92681 -0.265369 0
M  V30 11602 C 1109.71 -1.59756 3.22723 0
M  V30 11603 C 1109.57 -0.657313 4.44971 0
M  V30 11604 C 1110.88 -2.55592 3.58275 0
M  V30 11605 H 1108 -0.303652 0.671539 0
M  V30 11606 H 1110.65 -0.103802 1.89716 0
M  V30 11607 H 1108.8 -2.22451 3.18509 0
M  V30 11608 H 1110.47 -0.0399471 4.61283 0
M  V30 11609 H 1108.71 0.0318416 4.33788 0
M  V30 11610 H 1109.38 -1.22433 5.38251 0
M  V30 11611 H 1111.86 -2.03007 3.63218 0
M  V30 11612 H 1110.73 -3.05687 4.55902 0
M  V30 11613 H 1110.99 -3.37813 2.85193 0
M  V30 11614 N 1110.05 -1.5248 -0.398459 0
M  V30 11615 C 1111.02 -1.75949 -1.46883 0
M  V30 11616 C 1112.02 -0.629431 -1.47969 0
M  V30 11617 O 1113.21 -0.897407 -1.49306 0
M  V30 11618 C 1110.34 -1.85162 -2.8623 0
M  V30 11619 H 1111.53 -2.71513 -1.2736 0
M  V30 11620 H 1109.08 -1.43058 -0.629619 0
M  V30 11621 H 1109.82 -0.915505 -3.11109 0
M  V30 11622 H 1109.6 -2.67326 -2.86844 0
M  V30 11623 H 1111.09 -2.05025 -3.63805 0
M  V30 11624 N 1111.53 0.65634 -1.43283 0
M  V30 11625 C 1112.46 1.78101 -1.51004 0
M  V30 11626 C 1113.44 1.66138 -0.36498 0
M  V30 11627 O 1114.63 1.85281 -0.581778 0
M  V30 11628 C 1111.76 3.16511 -1.42961 0
M  V30 11629 C 1110.71 3.43233 -2.55685 0
M  V30 11630 C 1110.04 4.81411 -2.32696 0
M  V30 11631 C 1111.34 3.38288 -3.97943 0
M  V30 11632 H 1113.03 1.71896 -2.45137 0
M  V30 11633 H 1110.58 0.825575 -1.17984 0
M  V30 11634 H 1112.53 3.94941 -1.46968 0
M  V30 11635 H 1111.25 3.23439 -0.45332 0
M  V30 11636 H 1109.91 2.67173 -2.51026 0
M  V30 11637 H 1109.56 4.85011 -1.33317 0
M  V30 11638 H 1109.26 5.00251 -3.08257 0
M  V30 11639 H 1110.79 5.62102 -2.38481 0
M  V30 11640 H 1112.2 4.06659 -4.04106 0
M  V30 11641 H 1110.6 3.68664 -4.73505 0
M  V30 11642 H 1111.67 2.36525 -4.23301 0
M  V30 11643 N 1113.01 1.29761 0.894412 0
M  V30 11644 C 1113.94 1.17902 2.01547 0
M  V30 11645 C 1114.92 0.0719402 1.69948 0
M  V30 11646 O 1116.11 0.252338 1.92554 0
M  V30 11647 C 1113.24 0.860262 3.36477 0
M  V30 11648 C 1112.19 1.92424 3.82305 0
M  V30 11649 C 1111.52 1.45868 5.14419 0
M  V30 11650 C 1112.82 3.33391 4.02054 0
M  V30 11651 H 1114.51 2.11688 2.11727 0
M  V30 11652 H 1112.06 1.01916 1.01731 0
M  V30 11653 H 1114.01 0.763987 4.14417 0
M  V30 11654 H 1112.73 -0.113289 3.26403 0
M  V30 11655 H 1111.39 2.00999 3.06586 0
M  V30 11656 H 1111.04 0.473654 5.00765 0
M  V30 11657 H 1110.74 2.17028 5.46052 0
M  V30 11658 H 1112.26 1.37601 5.94894 0
M  V30 11659 H 1113.68 3.27628 4.7046 0
M  V30 11660 H 1112.07 4.02555 4.4505 0
M  V30 11661 H 1113.14 3.75978 3.06216 0
M  V30 11662 N 1114.49 -1.10549 1.12324 0
M  V30 11663 C 1115.74 -1.82124 0.876083 0
M  V30 11664 C 1116.06 -1.85547 -0.599761 0
M  V30 11665 O 1115.33 -1.33269 -1.43584 0
M  V30 11666 H 1113.91 -0.674455 0.321122 0
M  V30 11667 H 1116.57 -1.33766 1.41748 0
M  V30 11668 H 1115.66 -2.85688 1.25653 0
M  V30 11669 N 1115.97 -0.914965 -1.28321 0
M  V30 11670 C 1117.21 -0.555865 -1.96696 0
M  V30 11671 C 1117.57 0.8842 -1.70429 0
M  V30 11672 O 1118.77 1.35094 -2.32386 0
M  V30 11673 C 1117.04 -0.857942 -3.4695 0
M  V30 11674 S 1118.6 -0.605441 -4.34603 0
M  V30 11675 H 1115.42 -0.20564 -0.680612 0
M  V30 11676 H 1118.02 -1.18068 -1.55821 0
M  V30 11677 H 1116.72 -1.90394 -3.63563 0
M  V30 11678 H 1116.26 -0.221831 -3.92774 0
M  V30 11679 H 1118.27 0.542657 -4.93224 0
M  V30 11680 N 1117.44 1.42219 -0.679077 0
M  V30 11681 C 1118.69 2.01081 -0.202718 0
M  V30 11682 C 1119.01 1.53986 1.19639 0
M  V30 11683 O 1118.28 0.763359 1.80415 0
M  V30 11684 H 1116.86 0.743526 -0.0719547 0
M  V30 11685 H 1119.52 1.74077 -0.876544 0
M  V30 11686 H 1118.62 3.11411 -0.207314 0
M  V30 11687 N 1118.92 0.422693 1.51826 0
M  V30 11688 C 1119.88 -0.384307 2.25955 0
M  V30 11689 C 1120.88 -0.962184 1.28836 0
M  V30 11690 O 1122.07 -0.838931 1.52668 0
M  V30 11691 C 1119.21 -1.54228 3.04018 0
M  V30 11692 H 1120.4 0.265157 2.98726 0
M  V30 11693 H 1117.95 0.175515 1.55311 0
M  V30 11694 H 1118.69 -2.22822 2.35629 0
M  V30 11695 H 1118.47 -1.13425 3.75336 0
M  V30 11696 H 1119.96 -2.1128 3.60209 0
M  V30 11697 N 1120.4 -1.5685 0.153553 0
M  V30 11698 C 1121.65 -1.96625 -0.49665 0
M  V30 11699 C 1121.98 -1.03877 -1.64083 0
M  V30 11700 O 1121.25 -0.0824112 -1.94325 0
M  V30 11701 C 1121.54 -3.46035 -0.996585 0
M  V30 11702 C 1121.39 -4.49561 0.146551 0
M  V30 11703 C 1122.71 -3.98104 -1.8762 0
M  V30 11704 H 1119.83 -0.714917 -0.179059 0
M  V30 11705 H 1122.47 -1.88527 0.236104 0
M  V30 11706 H 1120.62 -3.53066 -1.621 0
M  V30 11707 H 1122.29 -4.54604 0.783108 0
M  V30 11708 H 1120.53 -4.26271 0.804727 0
M  V30 11709 H 1121.21 -5.51456 -0.245078 0
M  V30 11710 H 1123.68 -3.93593 -1.34997 0
M  V30 11711 H 1122.56 -5.03098 -2.19508 0
M  V30 11712 H 1122.82 -3.40852 -2.81554 0
M  V30 11713 N 1121.88 0.120221 -1.57141 0
M  V30 11714 C 1122.81 1.14876 -2.03287 0
M  V30 11715 C 1123.79 1.43259 -0.917112 0
M  V30 11716 O 1124.97 1.53721 -1.18674 0
M  V30 11717 C 1122.1 2.47525 -2.43616 0
M  V30 11718 C 1121.06 2.33607 -3.58625 0
M  V30 11719 C 1120.38 3.71207 -3.84849 0
M  V30 11720 C 1121.68 1.79761 -4.90391 0
M  V30 11721 H 1123.38 0.764943 -2.89463 0
M  V30 11722 H 1120.92 0.366516 -1.39258 0
M  V30 11723 H 1122.88 3.19728 -2.74504 0
M  V30 11724 H 1121.6 2.87794 -1.54409 0
M  V30 11725 H 1120.26 1.63853 -3.27945 0
M  V30 11726 H 1119.91 4.0896 -2.9285 0
M  V30 11727 H 1119.61 3.62749 -4.62263 0
M  V30 11728 H 1121.13 4.44917 -4.18188 0
M  V30 11729 H 1122.55 2.4178 -5.19822 0
M  V30 11730 H 1120.94 1.82126 -5.71795 0
M  V30 11731 H 1122.01 0.755087 -4.78985 0
M  V30 11732 N 1123.36 1.52689 0.390367 0
M  V30 11733 C 1124.32 1.76726 1.45947 0
M  V30 11734 C 1125.32 0.637269 1.47633 0
M  V30 11735 O 1126.51 0.905312 1.48828 0
M  V30 11736 C 1123.64 1.86678 2.85244 0
M  V30 11737 H 1124.83 2.72185 1.25918 0
M  V30 11738 H 1122.39 1.4339 0.622023 0
M  V30 11739 H 1123.12 0.931991 3.10619 0
M  V30 11740 H 1122.91 2.68843 2.85422 0
M  V30 11741 H 1124.4 2.06952 3.62713 0
M  V30 11742 N 1124.83 -0.648732 1.43629 0
M  V30 11743 C 1125.8 -1.74331 1.488 0
M  V30 11744 C 1126.8 -1.56434 0.372147 0
M  V30 11745 O 1127.99 -1.6225 0.634078 0
M  V30 11746 C 1125.12 -3.13248 1.34494 0
M  V30 11747 H 1126.31 -1.71125 2.46285 0
M  V30 11748 H 1123.87 -0.860798 1.30461 0
M  V30 11749 H 1124.6 -3.22062 0.380345 0
M  V30 11750 H 1124.39 -3.27643 2.15389 0
M  V30 11751 H 1125.88 -3.93056 1.41055 0
M  V30 11752 N 1126.31 -1.30234 -0.887518 0
M  V30 11753 C 1127.54 -1.21829 -1.67229 0
M  V30 11754 C 1127.96 0.219251 -1.87523 0
M  V30 11755 O 1127.31 1.14526 -1.42091 0
M  V30 11756 C 1127.36 -1.94044 -3.05007 0
M  V30 11757 O 1127.08 -3.32185 -2.85631 0
M  V30 11758 C 1128.59 -1.92265 -3.99436 0
M  V30 11759 H 1125.81 -0.421716 -0.521916 0
M  V30 11760 H 1128.35 -1.71816 -1.10903 0
M  V30 11761 H 1126.5 -1.47861 -3.58072 0
M  V30 11762 H 1126.92 -3.68724 -3.73018 0
M  V30 11763 H 1128.39 -2.47336 -4.93486 0
M  V30 11764 H 1128.87 -0.900984 -4.29859 0
M  V30 11765 H 1129.48 -2.38247 -3.52305 0
M  V30 11766 N 1127.79 1.09952 -1.12909 0
M  V30 11767 C 1129.04 1.81657 -0.885729 0
M  V30 11768 C 1129.36 1.85863 0.589913 0
M  V30 11769 O 1128.63 1.34028 1.42875 0
M  V30 11770 H 1127.21 0.672743 -0.324694 0
M  V30 11771 H 1129.87 1.33013 -1.42456 0
M  V30 11772 H 1128.97 2.85018 -1.27167 0
M  V30 11773 N 1129.27 0.921757 1.27833 0
M  V30 11774 C 1130.2 0.433466 2.29441 0
M  V30 11775 C 1131.18 -0.503133 1.62489 0
M  V30 11776 O 1132.36 -0.409156 1.89841 0
M  V30 11777 C 1129.49 -0.320029 3.45822 0
M  V30 11778 C 1128.45 0.528178 4.24728 0
M  V30 11779 C 1127.77 -0.354132 5.33526 0
M  V30 11780 C 1129.07 1.78959 4.90684 0
M  V30 11781 H 1130.77 1.28263 2.70535 0
M  V30 11782 H 1128.31 0.618197 1.30055 0
M  V30 11783 H 1130.27 -0.672526 4.15999 0
M  V30 11784 H 1128.99 -1.20317 3.0363 0
M  V30 11785 H 1127.65 0.863302 3.5629 0
M  V30 11786 H 1127.3 -1.23605 4.87576 0
M  V30 11787 H 1127 0.209855 5.87225 0
M  V30 11788 H 1128.52 -0.702333 6.06547 0
M  V30 11789 H 1129.94 1.50552 5.53179 0
M  V30 11790 H 1128.33 2.29661 5.54415 0
M  V30 11791 H 1129.4 2.51265 4.14721 0
M  V30 11792 N 1130.75 -1.41857 0.686609 0
M  V30 11793 C 1131.99 -2.0097 0.213378 0
M  V30 11794 C 1132.32 -1.54618 -1.1882 0
M  V30 11795 O 1131.59 -0.772916 -1.80008 0
M  V30 11796 H 1130.17 -0.743134 0.0758968 0
M  V30 11797 H 1132.83 -1.73609 0.885763 0
M  V30 11798 H 1131.92 -3.11296 0.223826 0
M  V30 11799 N 1132.22 -0.430739 -1.51599 0
M  V30 11800 C 1133.47 0.137929 -2.0203 0
M  V30 11801 C 1133.8 1.43287 -1.31526 0
M  V30 11802 O 1133.05 1.9121 -0.416814 0
M  V30 11803 C 1133.35 0.410694 -3.55032 0
M  V30 11804 C 1133.02 -0.797634 -4.43789 0
M  V30 11805 C 1131.68 -1.12902 -4.67768 0
M  V30 11806 C 1134.03 -1.60403 -4.95904 0
M  V30 11807 C 1131.36 -2.2676 -5.41107 0
M  V30 11808 C 1133.71 -2.73354 -5.70491 0
M  V30 11809 C 1132.38 -3.06955 -5.92735 0
M  V30 11810 H 1131.65 0.0504718 -0.739279 0
M  V30 11811 H 1134.29 -0.576585 -1.82614 0
M  V30 11812 H 1132.6 1.20703 -3.72744 0
M  V30 11813 H 1134.3 0.864006 -3.91581 0
M  V30 11814 H 1130.89 -0.529397 -4.25318 0
M  V30 11815 H 1135.07 -1.36122 -4.77268 0
M  V30 11816 H 1130.33 -2.53114 -5.56546 0
M  V30 11817 H 1134.5 -3.36213 -6.09864 0
M  V30 11818 H 1132.13 -3.95293 -6.49344 0
M  V30 11819 N 1133.7 1.56767 -0.161869 0
M  V30 11820 C 1134.98 1.88245 0.531352 0
M  V30 11821 C 1135.36 1.07025 1.81958 0
M  V30 11822 O 1134.71 0.161385 2.27929 0
M  V30 11823 C 1134.92 3.40117 0.782416 0
M  V30 11824 C 1136.27 4.09655 1.11661 0
M  V30 11825 O 1137.29 3.4538 0.871274 0
M  V30 11826 O 1136.15 5.23192 1.57901 0
M  V30 11827 H 1133.24 0.780725 0.272759 0
M  V30 11828 H 1135.79 1.68522 -0.199597 0
M  V30 11829 H 1134.56 3.91088 -0.128677 0
M  V30 11830 H 1134.18 3.65418 1.56702 0
M  V30 11831 N 1135.18 -0.111886 1.57202 0
M  V30 11832 C 1136.11 -1.13796 2.03894 0
M  V30 11833 C 1137.09 -1.4277 0.924696 0
M  V30 11834 O 1138.28 -1.53089 1.19488 0
M  V30 11835 C 1135.41 -2.46229 2.44925 0
M  V30 11836 C 1134.36 -2.31702 3.59859 0
M  V30 11837 C 1133.69 -3.69161 3.86813 0
M  V30 11838 C 1134.99 -1.77158 4.91337 0
M  V30 11839 H 1136.68 -0.749581 2.89865 0
M  V30 11840 H 1134.23 -0.359126 1.3945 0
M  V30 11841 H 1136.18 -3.18267 2.76195 0
M  V30 11842 H 1134.9 -2.86971 1.55933 0
M  V30 11843 H 1133.56 -1.62112 3.28809 0
M  V30 11844 H 1133.21 -4.07401 2.95015 0
M  V30 11845 H 1132.91 -3.60292 4.6418 0
M  V30 11846 H 1134.43 -4.42693 4.20542 0
M  V30 11847 H 1135.85 -2.3902 5.21097 0
M  V30 11848 H 1134.25 -1.79091 5.72753 0
M  V30 11849 H 1135.32 -0.729675 4.79379 0
M  V30 11850 N 1136.66 -1.52894 -0.382264 0
M  V30 11851 C 1137.59 -1.81122 -1.47367 0
M  V30 11852 C 1138.57 -0.663653 -1.56619 0
M  V30 11853 O 1139.75 -0.911898 -1.71459 0
M  V30 11854 C 1136.88 -1.98615 -2.84902 0
M  V30 11855 C 1135.84 -3.14328 -2.90485 0
M  V30 11856 C 1135.16 -3.17086 -4.30535 0
M  V30 11857 C 1136.46 -4.53263 -2.59519 0
M  V30 11858 H 1138.16 -2.72518 -1.23993 0
M  V30 11859 H 1135.7 -1.3113 -0.595049 0
M  V30 11860 H 1137.66 -2.16946 -3.61265 0
M  V30 11861 H 1136.38 -1.03915 -3.09628 0
M  V30 11862 H 1135.04 -2.95791 -2.16572 0
M  V30 11863 H 1134.69 -2.20055 -4.52311 0
M  V30 11864 H 1134.39 -3.94821 -4.3519 0
M  V30 11865 H 1135.91 -3.3758 -5.08795 0
M  V30 11866 H 1137.33 -4.71867 -3.25598 0
M  V30 11867 H 1135.72 -5.33115 -2.75514 0
M  V30 11868 H 1136.79 -4.59516 -1.54831 0
M  V30 11869 N 1138.14 0.641106 -1.43971 0
M  V30 11870 C 1139.05 1.78239 -1.52538 0
M  V30 11871 C 1140.06 1.6906 -0.411668 0
M  V30 11872 O 1141.24 1.90014 -0.66757 0
M  V30 11873 C 1138.3 3.14579 -1.45743 0
M  V30 11874 C 1137.37 3.35464 -2.67885 0
M  V30 11875 C 1136.6 4.65299 -2.61404 0
M  V30 11876 O 1136.82 5.45451 -1.66851 0
M  V30 11877 O 1135.76 4.8817 -3.521 0
M  V30 11878 H 1139.58 1.73965 -2.48937 0
M  V30 11879 H 1137.17 0.801098 -1.26106 0
M  V30 11880 H 1139.05 3.95873 -1.4444 0
M  V30 11881 H 1137.72 3.19417 -0.524837 0
M  V30 11882 H 1136.63 2.53888 -2.74758 0
M  V30 11883 H 1137.96 3.35481 -3.60157 0
M  V30 11884 N 1139.62 1.30703 0.880598 0
M  V30 11885 C 1140.58 1.17429 1.96832 0
M  V30 11886 C 1141.58 0.104305 1.60461 0
M  V30 11887 O 1142.77 0.352758 1.70591 0
M  V30 11888 C 1139.9 0.800099 3.31378 0
M  V30 11889 H 1141.09 2.14069 2.10034 0
M  V30 11890 H 1138.65 1.14162 1.06755 0
M  V30 11891 H 1139.38 -0.165606 3.23877 0
M  V30 11892 H 1139.17 1.57341 3.59146 0
M  V30 11893 H 1140.66 0.730826 4.11155 0
M  V30 11894 N 1141.09 -1.09351 1.1349 0
M  V30 11895 C 1142.34 -1.81185 0.89535 0
M  V30 11896 C 1142.66 -1.86173 -0.580048 0
M  V30 11897 O 1141.93 -1.34784 -1.42162 0
M  V30 11898 H 1140.51 -0.671011 0.328257 0
M  V30 11899 H 1143.17 -1.32255 1.43159 0
M  V30 11900 H 1142.27 -2.84339 1.28676 0
M  V30 11901 N 1142.57 -0.928524 -1.27343 0
M  V30 11902 C 1143.52 -0.426873 -2.26818 0
M  V30 11903 C 1144.49 0.506663 -1.58184 0
M  V30 11904 O 1145.67 0.425641 -1.85992 0
M  V30 11905 C 1142.81 0.313523 -3.43673 0
M  V30 11906 C 1141.93 -0.65422 -4.27018 0
M  V30 11907 C 1141.06 0.106102 -5.31094 0
M  V30 11908 C 1140.1 -0.854293 -6.06109 0
M  V30 11909 N 1139.24 -0.126545 -7.01986 0
M  V30 11910 H 1144.08 -1.28014 -2.69103 0
M  V30 11911 H 1141.61 -0.642515 -1.32326 0
M  V30 11912 H 1143.57 0.75912 -4.10236 0
M  V30 11913 H 1142.2 1.13102 -3.02337 0
M  V30 11914 H 1141.25 -1.21834 -3.60362 0
M  V30 11915 H 1142.57 -1.38817 -4.79094 0
M  V30 11916 H 1141.72 0.611577 -6.0361 0
M  V30 11917 H 1140.46 0.873009 -4.79823 0
M  V30 11918 H 1139.46 -1.37101 -5.32432 0
M  V30 11919 H 1140.69 -1.621 -6.5947 0
M  V30 11920 H 1138.64 0.622102 -6.53044 0
M  V30 11921 H 1138.55 -0.800046 -7.51755 0
M  V30 11922 H 1139.82 0.358251 -7.78676 0
M  V30 11923 N 1144.05 1.41491 -0.694123 0
M  V30 11924 C 1145.29 2.03117 -0.228614 0
M  V30 11925 C 1145.65 1.53782 1.14957 0
M  V30 11926 O 1146.85 2.07325 1.71084 0
M  V30 11927 C 1145.13 3.56283 -0.282341 0
M  V30 11928 S 1146.68 4.38664 0.109333 0
M  V30 11929 H 1143.5 0.704993 -0.092227 0
M  V30 11930 H 1146.1 1.72947 -0.911578 0
M  V30 11931 H 1144.81 3.89685 -1.2874 0
M  V30 11932 H 1144.34 3.91154 0.419818 0
M  V30 11933 H 1146.35 4.77835 1.33747 0
M  V30 11934 N 1145.53 0.438773 1.51369 0
M  V30 11935 C 1146.46 -0.407771 2.25543 0
M  V30 11936 C 1147.47 -0.985065 1.29616 0
M  V30 11937 O 1148.66 -0.878961 1.55359 0
M  V30 11938 C 1145.76 -1.58257 2.9968 0
M  V30 11939 C 1144.93 -1.12389 4.22714 0
M  V30 11940 C 1143.99 -2.16897 4.79418 0
M  V30 11941 O 1143.02 -1.76273 5.41218 0
M  V30 11942 N 1144.22 -3.49396 4.63576 0
M  V30 11943 H 1146.99 0.227963 2.98832 0
M  V30 11944 H 1144.55 0.267741 1.59671 0
M  V30 11945 H 1146.54 -2.27796 3.34501 0
M  V30 11946 H 1145.11 -2.12362 2.29393 0
M  V30 11947 H 1144.33 -0.255509 3.93371 0
M  V30 11948 H 1145.62 -0.794848 5.02553 0
M  V30 11949 H 1145.02 -3.85132 4.14355 0
M  V30 11950 H 1143.57 -4.14826 5.02755 0
M  V30 11951 N 1147.01 -1.56678 0.170181 0
M  V30 11952 C 1147.94 -2.20916 -0.756213 0
M  V30 11953 C 1148.92 -1.16442 -1.23997 0
M  V30 11954 O 1150.1 -1.44867 -1.29333 0
M  V30 11955 C 1147.23 -2.84901 -1.98617 0
M  V30 11956 C 1146.19 -3.95403 -1.63831 0
M  V30 11957 C 1145.51 -4.46432 -2.94282 0
M  V30 11958 C 1146.81 -5.15051 -0.867195 0
M  V30 11959 H 1148.51 -2.98585 -0.220776 0
M  V30 11960 H 1146.05 -1.43619 -0.104748 0
M  V30 11961 H 1148 -3.28514 -2.63926 0
M  V30 11962 H 1146.73 -2.04598 -2.54572 0
M  V30 11963 H 1145.39 -3.52444 -1.00891 0
M  V30 11964 H 1145.04 -3.62923 -3.48276 0
M  V30 11965 H 1144.74 -5.20979 -2.71762 0
M  V30 11966 H 1146.26 -4.92731 -3.60622 0
M  V30 11967 H 1147.67 -5.55363 -1.42285 0
M  V30 11968 H 1146.07 -5.95507 -0.741065 0
M  V30 11969 H 1147.14 -4.84707 0.136693 0
M  V30 11970 N 1148.48 0.103547 -1.57259 0
M  V30 11971 C 1149.41 1.12714 -2.04494 0
M  V30 11972 C 1150.39 1.42278 -0.932255 0
M  V30 11973 O 1151.58 1.52453 -1.20298 0
M  V30 11974 C 1148.71 2.44927 -2.46228 0
M  V30 11975 C 1147.66 2.2979 -3.61082 0
M  V30 11976 C 1146.99 3.67105 -3.88765 0
M  V30 11977 C 1148.29 1.7455 -4.9227 0
M  V30 11978 H 1149.98 0.734198 -2.90258 0
M  V30 11979 H 1147.53 0.351725 -1.39638 0
M  V30 11980 H 1149.48 3.16798 -2.77879 0
M  V30 11981 H 1148.21 2.8614 -1.57453 0
M  V30 11982 H 1146.87 1.60366 -3.29664 0
M  V30 11983 H 1146.51 4.05831 -2.97171 0
M  V30 11984 H 1146.21 3.57825 -4.66084 0
M  V30 11985 H 1147.74 4.40456 -4.22884 0
M  V30 11986 H 1149.15 2.36253 -5.22358 0
M  V30 11987 H 1147.55 1.76051 -5.73695 0
M  V30 11988 H 1148.62 0.704242 -4.79759 0
M  V30 11989 N 1149.96 1.53094 0.37415 0
M  V30 11990 C 1151.37 1.60641 0.951381 0
M  V30 11991 C 1151.72 0.468474 1.90525 0
M  V30 11992 O 1150.85 -0.406347 2.12551 0
M  V30 11993 C 1151.44 2.91166 1.73228 0
M  V30 11994 C 1150 3.01077 2.25898 0
M  V30 11995 C 1149.15 2.55873 1.06885 0
M  V30 11996 H 1152.1 1.57959 0.153214 0
M  V30 11997 H 1152.12 2.78487 2.59278 0
M  V30 11998 H 1151.63 3.73968 1.03778 0
M  V30 11999 H 1149.73 2.22844 2.98615 0
M  V30 12000 H 1149.85 4.05998 2.54367 0
M  V30 12001 H 1148.21 2.10544 1.43329 0
M  V30 12002 H 1148.99 3.41084 0.38947 0
M  V30 12003 N 1151.44 -0.633461 1.44309 0
M  V30 12004 C 1152.37 -1.75676 1.53819 0
M  V30 12005 C 1153.35 -1.65537 0.391365 0
M  V30 12006 O 1154.54 -1.84332 0.611181 0
M  V30 12007 C 1151.67 -3.14197 1.47979 0
M  V30 12008 C 1150.62 -3.39122 2.61113 0
M  V30 12009 C 1149.95 -4.77648 2.40325 0
M  V30 12010 C 1151.25 -3.31914 4.03274 0
M  V30 12011 H 1152.94 -1.67974 2.47841 0
M  V30 12012 H 1150.49 -0.8067 1.19283 0
M  V30 12013 H 1152.44 -3.92553 1.53233 0
M  V30 12014 H 1151.16 -3.22677 0.504718 0
M  V30 12015 H 1149.82 -2.63145 2.55245 0
M  V30 12016 H 1149.47 -4.82829 1.41016 0
M  V30 12017 H 1149.17 -4.95284 3.16177 0
M  V30 12018 H 1150.69 -5.58237 2.47394 0
M  V30 12019 H 1152.11 -4.00178 4.10524 0
M  V30 12020 H 1150.5 -3.61085 4.7931 0
M  V30 12021 H 1151.57 -2.29761 4.2701 0
M  V30 12022 N 1152.92 -1.31168 -0.873655 0
M  V30 12023 C 1153.83 -1.20458 -2.01313 0
M  V30 12024 C 1154.84 -0.122074 -1.73571 0
M  V30 12025 O 1156.02 -0.339176 -1.98523 0
M  V30 12026 C 1153.09 -0.90876 -3.34578 0
M  V30 12027 C 1152.15 -2.07779 -3.75668 0
M  V30 12028 C 1151.38 -1.79599 -5.02573 0
M  V30 12029 O 1151.6 -0.729338 -5.65718 0
M  V30 12030 O 1150.54 -2.65169 -5.40341 0
M  V30 12031 H 1154.36 -2.16207 -2.13279 0
M  V30 12032 H 1151.95 -1.10871 -1.00139 0
M  V30 12033 H 1153.83 -0.759469 -4.145 0
M  V30 12034 H 1152.5 0.0187249 -3.23695 0
M  V30 12035 H 1151.41 -2.28247 -2.96402 0
M  V30 12036 H 1152.74 -2.9874 -3.91172 0
M  V30 12037 N 1154.4 1.08748 -1.14068 0
M  V30 12038 C 1155.31 2.19123 -0.837998 0
M  V30 12039 C 1156.32 1.73065 0.180164 0
M  V30 12040 O 1157.5 2.01398 0.00952285 0
M  V30 12041 C 1154.56 3.45257 -0.316 0
M  V30 12042 C 1153.62 4.05959 -1.39628 0
M  V30 12043 C 1152.86 5.26072 -0.899095 0
M  V30 12044 O 1153.08 5.69804 0.260744 0
M  V30 12045 O 1152.01 5.7808 -1.67652 0
M  V30 12046 H 1155.84 2.4748 -1.76033 0
M  V30 12047 H 1153.43 1.17816 -0.918675 0
M  V30 12048 H 1155.31 4.21389 -0.0306425 0
M  V30 12049 H 1153.98 3.18486 0.578654 0
M  V30 12050 H 1152.89 3.31432 -1.73505 0
M  V30 12051 H 1154.22 4.36971 -2.26533 0
M  V30 12052 N 1155.87 0.935264 1.26849 0
M  V30 12053 C 1157.29 0.623198 1.75992 0
M  V30 12054 C 1157.64 -0.861647 1.76267 0
M  V30 12055 O 1156.76 -1.6743 1.37099 0
M  V30 12056 C 1157.36 1.12451 3.19594 0
M  V30 12057 C 1155.92 0.862974 3.66374 0
M  V30 12058 C 1155.06 1.27886 2.4605 0
M  V30 12059 H 1158.01 1.11422 1.13008 0
M  V30 12060 H 1158.03 0.475626 3.77516 0
M  V30 12061 H 1157.55 2.20522 3.19361 0
M  V30 12062 H 1155.65 -0.203606 3.72043 0
M  V30 12063 H 1155.76 1.48582 4.55478 0
M  V30 12064 H 1154.12 0.697335 2.44968 0
M  V30 12065 H 1154.91 2.36837 2.48522 0
M  V30 12066 N 1157.35 -1.41121 0.701616 0
M  V30 12067 C 1158.26 -2.34565 0.0407815 0
M  V30 12068 C 1159.28 -1.56555 -0.75937 0
M  V30 12069 O 1160.45 -1.89008 -0.695542 0
M  V30 12070 C 1157.52 -3.35347 -0.879954 0
M  V30 12071 C 1156.58 -4.29241 -0.0713279 0
M  V30 12072 C 1155.81 -5.25209 -0.948211 0
M  V30 12073 O 1156.04 -5.26781 -2.18766 0
M  V30 12074 O 1154.97 -6.00605 -0.394657 0
M  V30 12075 H 1158.8 -2.92666 0.811188 0
M  V30 12076 H 1156.38 -1.42077 0.461991 0
M  V30 12077 H 1158.26 -3.9719 -1.40776 0
M  V30 12078 H 1156.94 -2.7968 -1.62975 0
M  V30 12079 H 1155.85 -3.70727 0.50122 0
M  V30 12080 H 1157.18 -4.88022 0.639935 0
M  V30 12081 N 1158.83 -0.446794 -1.51134 0
M  V30 12082 C 1160.24 0.0141132 -1.86695 0
M  V30 12083 C 1160.59 1.41095 -1.36333 0
M  V30 12084 O 1159.72 2.04139 -0.718068 0
M  V30 12085 C 1160.31 0.0323866 -3.38785 0
M  V30 12086 C 1158.87 0.437737 -3.73846 0
M  V30 12087 C 1158.02 -0.363436 -2.74908 0
M  V30 12088 H 1160.97 -0.66221 -1.44224 0
M  V30 12089 H 1160.99 0.839865 -3.71115 0
M  V30 12090 H 1160.5 -0.984374 -3.75409 0
M  V30 12091 H 1158.6 1.45975 -3.42815 0
M  V30 12092 H 1158.72 0.155964 -4.78846 0
M  V30 12093 H 1157.08 0.179566 -2.54066 0
M  V30 12094 H 1157.86 -1.37925 -3.14375 0
M  V30 12095 N 1160.31 1.56586 -0.178487 0
M  V30 12096 C 1161.72 1.83633 0.337009 0
M  V30 12097 C 1162.07 1.09857 1.6256 0
M  V30 12098 O 1161.2 0.353933 2.13486 0
M  V30 12099 C 1161.79 3.33112 0.618225 0
M  V30 12100 C 1160.35 3.60629 1.07814 0
M  V30 12101 C 1159.5 2.7705 0.117825 0
M  V30 12102 H 1162.45 1.53508 -0.402612 0
M  V30 12103 H 1162.47 3.5098 1.46947 0
M  V30 12104 H 1161.98 3.8678 -0.319808 0
M  V30 12105 H 1160.08 3.12378 2.03103 0
M  V30 12106 H 1160.19 4.68921 0.982339 0
M  V30 12107 H 1158.56 2.47125 0.616563 0
M  V30 12108 H 1159.34 3.33501 -0.814356 0
M  V30 12109 N 1161.79 -0.095206 1.57312 0
M  V30 12110 C 1162.75 -1.09974 2.01093 0
M  V30 12111 C 1163.75 -1.32954 0.904424 0
M  V30 12112 O 1164.94 -1.29069 1.16991 0
M  V30 12113 C 1162.07 -2.4489 2.37153 0
M  V30 12114 H 1163.26 -0.722906 2.91057 0
M  V30 12115 H 1160.82 -0.340249 1.52552 0
M  V30 12116 H 1161.55 -2.8745 1.50143 0
M  V30 12117 H 1161.34 -2.29559 3.17876 0
M  V30 12118 H 1162.83 -3.17141 2.71683 0
M  V30 12119 N 1163.26 -1.53291 -0.366026 0
M  V30 12120 C 1164.68 -1.43053 -0.707669 0
M  V30 12121 C 1164.88 -0.56925 -1.93292 0
M  V30 12122 O 1163.94 -0.0515214 -2.52447 0
M  V30 12123 C 1165.25 -2.86239 -0.921292 0
M  V30 12124 C 1166.8 -2.95868 -1.02133 0
M  V30 12125 C 1167.27 -4.40114 -1.26743 0
M  V30 12126 N 1168.76 -4.43541 -1.33514 0
M  V30 12127 C 1169.5 -5.52259 -1.54264 0
M  V30 12128 N 1168.99 -6.71024 -1.72335 0
M  V30 12129 N 1170.79 -5.39836 -1.5663 0
M  V30 12130 H 1162.94 -2.07795 0.43988 0
M  V30 12131 H 1165.2 -0.938376 0.134736 0
M  V30 12132 H 1164.91 -3.51578 -0.0928042 0
M  V30 12133 H 1164.78 -3.29862 -1.82951 0
M  V30 12134 H 1167.17 -2.30683 -1.84036 0
M  V30 12135 H 1167.25 -2.5564 -0.0905097 0
M  V30 12136 H 1166.89 -5.05872 -0.453409 0
M  V30 12137 H 1166.82 -4.77914 -2.21146 0
M  V30 12138 H 1169.31 -3.57949 -1.21165 0
M  V30 12139 H 1169.63 -7.49649 -1.8774 0
M  V30 12140 H 1167.97 -6.7401 -1.69514 0
M  V30 12141 H 1171.16 -4.46017 -1.4208 0
M  V30 12142 H 1171.34 -6.24629 -1.72461 0
M  V30 12143 N 1164.74 0.6258 -1.44643 0
M  V30 12144 C 1165.65 1.76611 -1.5442 0
M  V30 12145 C 1166.67 1.68614 -0.429576 0
M  V30 12146 O 1167.84 1.89296 -0.687686 0
M  V30 12147 C 1164.91 3.13015 -1.49071 0
M  V30 12148 C 1163.97 3.32604 -2.71428 0
M  V30 12149 C 1163.2 4.62501 -2.66325 0
M  V30 12150 O 1163.43 5.43651 -1.72626 0
M  V30 12151 O 1162.36 4.84408 -3.57258 0
M  V30 12152 H 1166.19 1.71315 -2.50769 0
M  V30 12153 H 1163.77 0.787677 -1.26949 0
M  V30 12154 H 1165.65 3.94318 -1.48631 0
M  V30 12155 H 1164.33 3.18842 -0.558686 0
M  V30 12156 H 1163.24 2.50959 -2.77435 0
M  V30 12157 H 1164.57 3.31642 -3.63695 0
M  V30 12158 N 1166.22 1.31629 0.866686 0
M  V30 12159 C 1167.13 1.21524 2.00671 0
M  V30 12160 C 1168.15 0.131277 1.73504 0
M  V30 12161 O 1169.32 0.349699 1.98341 0
M  V30 12162 C 1166.39 0.926491 3.34091 0
M  V30 12163 C 1165.45 2.09769 3.7456 0
M  V30 12164 C 1164.68 1.82262 5.01614 0
M  V30 12165 O 1164.9 0.759329 5.65323 0
M  V30 12166 O 1163.84 2.68031 5.38928 0
M  V30 12167 H 1167.66 2.17335 2.1213 0
M  V30 12168 H 1165.25 1.11401 0.995499 0
M  V30 12169 H 1167.13 0.78144 4.14091 0
M  V30 12170 H 1165.81 -0.00155829 3.237 0
M  V30 12171 H 1164.71 2.29816 2.95187 0
M  V30 12172 H 1166.05 3.0081 3.89582 0
M  V30 12173 N 1167.7 -1.08142 1.14644 0
M  V30 12174 C 1168.65 -2.15133 0.835845 0
M  V30 12175 C 1169.62 -1.64795 -0.207785 0
M  V30 12176 O 1170.8 -1.90644 -0.07711 0
M  V30 12177 C 1167.94 -3.4359 0.322456 0
M  V30 12178 C 1167.05 -4.07761 1.42671 0
M  V30 12179 C 1166.19 -5.24022 0.870281 0
M  V30 12180 C 1165.23 -5.8014 1.95202 0
M  V30 12181 N 1164.37 -6.87743 1.41257 0
M  V30 12182 H 1169.21 -2.41042 1.75222 0
M  V30 12183 H 1166.74 -1.18288 0.874428 0
M  V30 12184 H 1168.7 -4.17199 0.00657059 0
M  V30 12185 H 1167.33 -3.17958 -0.557014 0
M  V30 12186 H 1166.38 -3.31885 1.85893 0
M  V30 12187 H 1167.69 -4.45485 2.24375 0
M  V30 12188 H 1166.85 -6.04582 0.506459 0
M  V30 12189 H 1165.59 -4.87695 0.0223118 0
M  V30 12190 H 1164.59 -4.98232 2.32476 0
M  V30 12191 H 1165.82 -6.18525 2.80363 0
M  V30 12192 H 1163.76 -6.5337 0.586826 0
M  V30 12193 H 1163.68 -7.24308 2.16596 0
M  V30 12194 H 1164.95 -7.72028 1.07674 0
M  V30 12195 N 1169.18 -0.941978 -1.26351 0
M  V30 12196 C 1170.12 -0.450906 -2.26353 0
M  V30 12197 C 1171.09 0.489857 -1.58712 0
M  V30 12198 O 1172.28 0.40589 -1.86433 0
M  V30 12199 C 1169.42 0.277054 -3.43986 0
M  V30 12200 C 1168.53 -0.699474 -4.263 0
M  V30 12201 C 1167.67 0.0497661 -5.31177 0
M  V30 12202 C 1166.71 -0.918531 -6.05169 0
M  V30 12203 N 1165.84 -0.200993 -7.01812 0
M  V30 12204 H 1170.68 -1.30861 -2.6773 0
M  V30 12205 H 1168.22 -0.656514 -1.31637 0
M  V30 12206 H 1170.18 0.715567 -4.11018 0
M  V30 12207 H 1168.81 1.09889 -3.0352 0
M  V30 12208 H 1167.86 -1.2565 -3.59049 0
M  V30 12209 H 1169.17 -1.4389 -4.77595 0
M  V30 12210 H 1168.33 0.547521 -6.04224 0
M  V30 12211 H 1167.07 0.822068 -4.80722 0
M  V30 12212 H 1166.07 -1.4274 -5.30947 0
M  V30 12213 H 1167.3 -1.69085 -6.57713 0
M  V30 12214 H 1165.24 0.552803 -6.53667 0
M  V30 12215 H 1165.16 -0.879735 -7.50864 0
M  V30 12216 H 1166.43 0.275642 -7.79012 0
M  V30 12217 N 1170.66 1.40747 -0.709091 0
M  V30 12218 C 1172.07 1.54961 -0.381989 0
M  V30 12219 C 1172.27 1.68181 1.10985 0
M  V30 12220 O 1171.33 1.66776 1.89584 0
M  V30 12221 C 1172.64 2.78156 -1.14236 0
M  V30 12222 C 1174.19 2.91967 -1.12803 0
M  V30 12223 C 1174.66 4.18066 -1.87042 0
M  V30 12224 N 1176.15 4.25052 -1.84078 0
M  V30 12225 C 1176.89 5.21514 -2.38349 0
M  V30 12226 N 1176.39 6.23924 -3.01149 0
M  V30 12227 N 1178.18 5.13548 -2.28528 0
M  V30 12228 H 1170.33 1.30412 -1.6765 0
M  V30 12229 H 1172.59 0.630147 -0.70825 0
M  V30 12230 H 1172.3 2.74643 -2.19691 0
M  V30 12231 H 1172.17 3.70074 -0.729731 0
M  V30 12232 H 1174.56 2.94987 -0.0816956 0
M  V30 12233 H 1174.64 2.01185 -1.57982 0
M  V30 12234 H 1174.28 4.15808 -2.91662 0
M  V30 12235 H 1174.21 5.07845 -1.39287 0
M  V30 12236 H 1176.71 3.51682 -1.38305 0
M  V30 12237 H 1177.02 6.93942 -3.40094 0
M  V30 12238 H 1175.36 6.24387 -3.05231 0
M  V30 12239 H 1178.55 4.3247 -1.79129 0
M  V30 12240 H 1178.73 5.88553 -2.71126 0
M  V30 12241 N 1172.13 0.454803 1.50895 0
M  V30 12242 C 1173.55 0.108037 1.59234 0
M  V30 12243 C 1173.75 -1.38416 1.46435 0
M  V30 12244 O 1172.81 -2.15586 1.31449 0
M  V30 12245 C 1174.12 0.643721 2.93729 0
M  V30 12246 C 1175.67 0.605703 3.07083 0
M  V30 12247 C 1176.14 1.11865 4.44128 0
M  V30 12248 N 1177.63 1.07738 4.50496 0
M  V30 12249 C 1178.37 1.44495 5.54895 0
M  V30 12250 N 1177.86 1.88624 6.66628 0
M  V30 12251 N 1179.66 1.36201 5.45349 0
M  V30 12252 H 1171.81 1.4255 1.57459 0
M  V30 12253 H 1174.07 0.588504 0.743214 0
M  V30 12254 H 1173.78 1.68844 3.0852 0
M  V30 12255 H 1173.65 0.0782404 3.77119 0
M  V30 12256 H 1176.04 -0.430065 2.91949 0
M  V30 12257 H 1176.12 1.2078 2.2549 0
M  V30 12258 H 1175.76 2.15297 4.6001 0
M  V30 12259 H 1175.69 0.492933 5.24288 0
M  V30 12260 H 1178.18 0.753526 3.70311 0
M  V30 12261 H 1178.5 2.14863 7.4233 0
M  V30 12262 H 1176.84 1.92564 6.6779 0
M  V30 12263 H 1180.03 1.01579 4.56946 0
M  V30 12264 H 1180.21 1.65175 6.26595 0
M  V30 12265 N 1173.61 -1.56489 0.186789 0
M  V30 12266 C 1174.52 -2.22304 -0.749543 0
M  V30 12267 C 1175.54 -1.21949 -1.24115 0
M  V30 12268 O 1176.71 -1.5466 -1.29005 0
M  V30 12269 C 1173.78 -2.863 -1.95533 0
M  V30 12270 C 1172.84 -4.01901 -1.5091 0
M  V30 12271 C 1172.07 -4.62837 -2.6574 0
M  V30 12272 O 1172.3 -4.22681 -3.8301 0
M  V30 12273 O 1171.23 -5.52446 -2.38929 0
M  V30 12274 H 1175.06 -3.02909 -0.21908 0
M  V30 12275 H 1172.64 -1.49341 -0.0421249 0
M  V30 12276 H 1174.52 -3.2682 -2.6602 0
M  V30 12277 H 1173.2 -2.08681 -2.47455 0
M  V30 12278 H 1172.1 -3.66021 -0.773261 0
M  V30 12279 H 1173.44 -4.8116 -1.03663 0
M  V30 12280 N 1175.09 0.086862 -1.5736 0
M  V30 12281 C 1176.34 0.787281 -1.86135 0
M  V30 12282 C 1176.66 1.78866 -0.776667 0
M  V30 12283 O 1175.93 1.94915 0.19625 0
M  V30 12284 H 1174.51 0.293744 -0.686821 0
M  V30 12285 H 1177.17 0.0665326 -1.94786 0
M  V30 12286 H 1176.27 1.3128 -2.83147 0
M  V30 12287 N 1176.57 1.53483 0.357892 0
M  V30 12288 C 1177.5 1.83444 1.44466 0
M  V30 12289 C 1178.48 0.688486 1.55544 0
M  V30 12290 O 1179.66 0.93906 1.69986 0
M  V30 12291 C 1176.79 2.03122 2.81707 0
M  V30 12292 C 1175.75 3.1891 2.85448 0
M  V30 12293 C 1175.07 3.23895 4.25436 0
M  V30 12294 C 1176.37 4.57334 2.52275 0
M  V30 12295 H 1178.07 2.74456 1.19642 0
M  V30 12296 H 1175.61 1.3206 0.574112 0
M  V30 12297 H 1177.57 2.22666 3.57768 0
M  V30 12298 H 1176.29 1.08827 3.07935 0
M  V30 12299 H 1174.95 2.99199 2.11838 0
M  V30 12300 H 1174.6 2.27223 4.48753 0
M  V30 12301 H 1174.3 4.01694 4.28854 0
M  V30 12302 H 1175.82 3.45632 5.0336 0
M  V30 12303 H 1177.24 4.76988 3.1805 0
M  V30 12304 H 1175.63 5.37431 2.66998 0
M  V30 12305 H 1176.7 4.61921 1.47501 0
M  V30 12306 N 1178.05 -0.61812 1.44973 0
M  V30 12307 C 1179.29 -1.3774 1.48439 0
M  V30 12308 C 1179.62 -1.94117 0.121999 0
M  V30 12309 O 1178.88 -1.749 -0.877974 0
M  V30 12310 C 1179.17 -2.55143 2.50274 0
M  V30 12311 C 1178.84 -2.16976 3.95262 0
M  V30 12312 C 1177.5 -2.06281 4.34743 0
M  V30 12313 C 1179.85 -1.8703 4.86486 0
M  V30 12314 C 1177.18 -1.63846 5.63357 0
M  V30 12315 C 1179.53 -1.46085 6.15501 0
M  V30 12316 C 1178.2 -1.3394 6.53924 0
M  V30 12317 H 1177.47 -0.504026 0.543175 0
M  V30 12318 H 1180.12 -0.699685 1.7826 0
M  V30 12319 H 1178.42 -3.28205 2.13983 0
M  V30 12320 H 1180.12 -3.13373 2.50197 0
M  V30 12321 H 1176.71 -2.26223 3.64034 0
M  V30 12322 H 1180.89 -1.94196 4.56729 0
M  V30 12323 H 1176.15 -1.53058 5.91932 0
M  V30 12324 H 1180.32 -1.21956 6.85638 0
M  V30 12325 H 1177.95 -1.00832 7.53483 0
M  V30 12326 N 1179.52 -1.32087 -0.859693 0
M  V30 12327 C 1180.46 -1.16426 -1.97428 0
M  V30 12328 C 1181.47 -0.100582 -1.62489 0
M  V30 12329 O 1182.66 -0.349063 -1.75054 0
M  V30 12330 C 1179.76 -0.758822 -3.30295 0
M  V30 12331 C 1178.93 -1.90971 -3.93508 0
M  V30 12332 C 1177.99 -1.48865 -5.04704 0
M  V30 12333 O 1177.02 -2.1999 -5.2497 0
M  V30 12334 N 1178.22 -0.38182 -5.79243 0
M  V30 12335 H 1180.98 -2.12433 -2.11406 0
M  V30 12336 H 1178.54 -1.24558 -1.03426 0
M  V30 12337 H 1180.54 -0.459643 -4.02081 0
M  V30 12338 H 1179.11 0.109944 -3.12407 0
M  V30 12339 H 1178.33 -2.37566 -3.14573 0
M  V30 12340 H 1179.61 -2.68032 -4.32477 0
M  V30 12341 H 1179.01 0.210268 -5.65309 0
M  V30 12342 H 1177.57 -0.142224 -6.51645 0
M  V30 12343 N 1181 1.07532 -1.15215 0
M  V30 12344 C 1182.42 1.32183 -0.894411 0
M  V30 12345 C 1182.62 1.96188 0.459614 0
M  V30 12346 O 1181.67 2.22057 1.20195 0
M  V30 12347 C 1182.99 2.21473 -2.03397 0
M  V30 12348 C 1184.53 2.34927 -2.06829 0
M  V30 12349 C 1185.01 3.27564 -3.20103 0
M  V30 12350 N 1186.5 3.35144 -3.19738 0
M  V30 12351 C 1187.24 4.0688 -4.04025 0
M  V30 12352 N 1186.73 4.81246 -4.98371 0
M  V30 12353 N 1188.52 4.02802 -3.92055 0
M  V30 12354 H 1180.68 0.643732 -2.0241 0
M  V30 12355 H 1182.94 0.346272 -0.882496 0
M  V30 12356 H 1182.64 1.81701 -3.01127 0
M  V30 12357 H 1182.52 3.2199 -1.96475 0
M  V30 12358 H 1184.91 2.73953 -1.09699 0
M  V30 12359 H 1184.99 1.34121 -2.17819 0
M  V30 12360 H 1184.63 2.89258 -4.17483 0
M  V30 12361 H 1184.56 4.2832 -3.06349 0
M  V30 12362 H 1187.05 2.82135 -2.51412 0
M  V30 12363 H 1187.36 5.33472 -5.59131 0
M  V30 12364 H 1185.71 4.80268 -5.02362 0
M  V30 12365 H 1188.9 3.43816 -3.17661 0
M  V30 12366 H 1189.07 4.58443 -4.57967 0
M  V30 12367 N 1182.48 0.948665 1.2585 0
M  V30 12368 C 1183.71 0.616741 1.98018 0
M  V30 12369 C 1184.13 -0.803005 1.70098 0
M  V30 12370 O 1183.49 -1.54208 0.953392 0
M  V30 12371 C 1183.54 0.874429 3.49837 0
M  V30 12372 O 1182.64 -0.0497568 4.1237 0
M  V30 12373 H 1181.98 0.235112 0.620982 0
M  V30 12374 H 1184.51 1.27364 1.60124 0
M  V30 12375 H 1184.52 0.798309 4.00114 0
M  V30 12376 H 1183.2 1.90922 3.69488 0
M  V30 12377 H 1181.77 0.0780591 3.72818 0
M  V30 12378 N 1183.96 -1.40369 0.716545 0
M  V30 12379 C 1185.18 -2.05704 0.264729 0
M  V30 12380 C 1185.61 -1.53634 -1.08527 0
M  V30 12381 O 1184.97 -0.67212 -1.68381 0
M  V30 12382 C 1185.01 -3.59692 0.255778 0
M  V30 12383 O 1184.12 -4.05286 -0.762686 0
M  V30 12384 H 1183.46 -0.652301 0.124092 0
M  V30 12385 H 1185.99 -1.7975 0.977295 0
M  V30 12386 H 1186 -4.07892 0.0937944 0
M  V30 12387 H 1184.67 -3.96955 1.24095 0
M  V30 12388 H 1183.25 -3.68543 -0.568347 0
M  V30 12389 N 1185.44 -0.462799 -1.50652 0
M  V30 12390 C 1186.85 -0.11648 -1.59174 0
M  V30 12391 C 1187.05 1.37638 -1.47167 0
M  V30 12392 O 1186.11 2.14886 -1.3259 0
M  V30 12393 C 1187.42 -0.659289 -2.93383 0
M  V30 12394 C 1188.97 -0.62198 -3.06758 0
M  V30 12395 C 1189.44 -1.14219 -4.43529 0
M  V30 12396 N 1190.94 -1.10125 -4.49919 0
M  V30 12397 C 1191.67 -1.47436 -5.54121 0
M  V30 12398 N 1191.17 -1.92156 -6.65618 0
M  V30 12399 N 1192.96 -1.39091 -5.44619 0
M  V30 12400 H 1185.11 -1.43383 -1.56701 0
M  V30 12401 H 1187.37 -0.592438 -0.740082 0
M  V30 12402 H 1187.08 -1.70477 -3.07621 0
M  V30 12403 H 1186.95 -0.0982388 -3.77072 0
M  V30 12404 H 1189.34 0.414576 -2.92173 0
M  V30 12405 H 1189.42 -1.21974 -2.24847 0
M  V30 12406 H 1189.07 -2.17734 -4.58862 0
M  V30 12407 H 1189 -0.52073 -5.24019 0
M  V30 12408 H 1191.49 -0.773154 -3.69906 0
M  V30 12409 H 1191.8 -2.18796 -7.4118 0
M  V30 12410 H 1190.14 -1.96103 -6.6676 0
M  V30 12411 H 1193.34 -1.04001 -4.564 0
M  V30 12412 H 1193.51 -1.68496 -6.2571 0
M  V30 12413 N 1186.91 1.56388 -0.195085 0
M  V30 12414 C 1188.33 1.8398 0.317513 0
M  V30 12415 C 1188.68 1.11575 1.61386 0
M  V30 12416 O 1187.8 0.376557 2.13099 0
M  V30 12417 C 1188.4 3.33749 0.582859 0
M  V30 12418 C 1186.96 3.61752 1.03983 0
M  V30 12419 C 1186.1 2.77159 0.088434 0
M  V30 12420 H 1189.05 1.53072 -0.418871 0
M  V30 12421 H 1189.07 3.52519 1.43216 0
M  V30 12422 H 1188.59 3.86419 -0.360813 0
M  V30 12423 H 1186.69 3.14515 1.99778 0
M  V30 12424 H 1186.8 4.69937 0.932549 0
M  V30 12425 H 1185.16 2.47765 0.590317 0
M  V30 12426 H 1185.95 3.32619 -0.849682 0
M  V30 12427 N 1188.39 -0.0785156 1.57404 0
M  V30 12428 C 1189.81 -0.433143 1.5361 0
M  V30 12429 C 1190.01 -1.79564 0.914283 0
M  V30 12430 O 1189.06 -2.47215 0.513899 0
M  V30 12431 C 1190.38 -0.380387 2.98284 0
M  V30 12432 C 1191.93 -0.461056 3.09586 0
M  V30 12433 C 1192.4 -0.438276 4.55898 0
M  V30 12434 N 1193.89 -0.498548 4.60509 0
M  V30 12435 C 1194.63 -0.503028 5.71189 0
M  V30 12436 N 1194.12 -0.462724 6.91253 0
M  V30 12437 N 1195.92 -0.549083 5.59412 0
M  V30 12438 H 1188.07 0.813724 1.96195 0
M  V30 12439 H 1190.33 0.304644 0.897717 0
M  V30 12440 H 1190.04 0.553932 3.4731 0
M  V30 12441 H 1189.91 -1.19313 3.57833 0
M  V30 12442 H 1192.3 -1.3858 2.60537 0
M  V30 12443 H 1192.38 0.380138 2.5296 0
M  V30 12444 H 1192.02 0.482588 5.05602 0
M  V30 12445 H 1191.95 -1.29691 5.1038 0
M  V30 12446 H 1194.44 -0.534219 3.74105 0
M  V30 12447 H 1194.76 -0.469883 7.7137 0
M  V30 12448 H 1193.1 -0.429515 6.93672 0
M  V30 12449 H 1196.29 -0.578215 4.64515 0
M  V30 12450 H 1196.46 -0.549105 6.45669 0
M  V30 12451 N 1189.87 -1.5367 -0.349747 0
M  V30 12452 C 1191.29 -1.43796 -0.692457 0
M  V30 12453 C 1191.49 -0.58972 -1.92677 0
M  V30 12454 O 1190.54 -0.078294 -2.52379 0
M  V30 12455 C 1191.86 -2.872 -0.890881 0
M  V30 12456 C 1193.4 -2.96935 -0.989892 0
M  V30 12457 C 1193.88 -4.41433 -1.22068 0
M  V30 12458 N 1195.37 -4.44932 -1.28802 0
M  V30 12459 C 1196.1 -5.53864 -1.48398 0
M  V30 12460 N 1195.6 -6.72814 -1.65208 0
M  V30 12461 N 1197.39 -5.41467 -1.50896 0
M  V30 12462 H 1189.54 -2.07317 0.461895 0
M  V30 12463 H 1191.81 -0.936895 0.144681 0
M  V30 12464 H 1191.51 -3.51656 -0.0555095 0
M  V30 12465 H 1191.39 -3.31784 -1.79442 0
M  V30 12466 H 1193.77 -2.32622 -1.81579 0
M  V30 12467 H 1193.86 -2.55721 -0.0633906 0
M  V30 12468 H 1193.5 -5.06325 -0.399729 0
M  V30 12469 H 1193.43 -4.80233 -2.16064 0
M  V30 12470 H 1195.92 -3.59214 -1.17361 0
M  V30 12471 H 1196.23 -7.51598 -1.79779 0
M  V30 12472 H 1194.58 -6.7577 -1.62356 0
M  V30 12473 H 1197.77 -4.47498 -1.37342 0
M  V30 12474 H 1197.94 -6.26423 -1.65826 0
M  V30 12475 N 1191.35 0.610423 -1.45298 0
M  V30 12476 C 1192.57 1.40112 -1.52917 0
M  V30 12477 C 1193 1.87404 -0.161696 0
M  V30 12478 O 1192.36 1.59973 0.853135 0
M  V30 12479 C 1192.4 2.58359 -2.51561 0
M  V30 12480 O 1191.51 3.58895 -2.03146 0
M  V30 12481 H 1190.85 0.41841 -0.515586 0
M  V30 12482 H 1193.38 0.743159 -1.90626 0
M  V30 12483 H 1193.39 3.0564 -2.70275 0
M  V30 12484 H 1192.06 2.23286 -3.50879 0
M  V30 12485 H 1190.64 3.18282 -1.94296 0
M  V30 12486 N 1192.83 1.32541 0.852676 0
M  V30 12487 C 1194.05 1.2622 1.6394 0
M  V30 12488 C 1194.47 -0.169455 1.88038 0
M  V30 12489 O 1193.83 -1.10719 1.45078 0
M  V30 12490 C 1193.88 2.02062 2.99755 0
M  V30 12491 O 1193.6 3.39641 2.76723 0
M  V30 12492 C 1195.1 2.02787 3.94198 0
M  V30 12493 H 1192.32 0.435405 0.510552 0
M  V30 12494 H 1194.86 1.74696 1.06309 0
M  V30 12495 H 1193.02 1.57303 3.54026 0
M  V30 12496 H 1193.43 3.78484 3.63111 0
M  V30 12497 H 1194.91 2.60333 4.86755 0
M  V30 12498 H 1195.38 1.01464 4.27319 0
M  V30 12499 H 1195.99 2.47504 3.45864 0
M  V30 12500 N 1194.3 -1.0692 1.15784 0
M  V30 12501 C 1195.53 -1.83849 0.959903 0
M  V30 12502 C 1195.95 -1.8169 -0.486873 0
M  V30 12503 O 1195.31 -1.21305 -1.34739 0
M  V30 12504 C 1195.36 -3.28642 1.48414 0
M  V30 12505 O 1194.46 -4.0665 0.686249 0
M  V30 12506 H 1193.81 -0.569115 0.342059 0
M  V30 12507 H 1196.34 -1.34851 1.53871 0
M  V30 12508 H 1196.35 -3.7947 1.49888 0
M  V30 12509 H 1195.02 -3.29529 2.53739 0
M  V30 12510 H 1193.6 -3.65453 0.741501 0
M  V30 12511 N 1195.78 -0.955326 -1.25345 0
M  V30 12512 C 1197.19 -0.651118 -1.74978 0
M  V30 12513 C 1197.54 0.833495 -1.77616 0
M  V30 12514 O 1196.67 1.65228 -1.39745 0
M  V30 12515 C 1197.26 -1.17521 -3.17764 0
M  V30 12516 C 1195.82 -0.921151 -3.64954 0
M  V30 12517 C 1194.97 -1.31784 -2.43984 0
M  V30 12518 H 1197.92 -1.13205 -1.11222 0
M  V30 12519 H 1197.94 -0.535625 -3.76711 0
M  V30 12520 H 1197.45 -2.25575 -3.15813 0
M  V30 12521 H 1195.56 0.144392 -3.7232 0
M  V30 12522 H 1195.67 -1.5581 -4.53056 0
M  V30 12523 H 1194.03 -0.736219 -2.43828 0
M  V30 12524 H 1194.82 -2.40761 -2.44723 0
M  V30 12525 N 1197.26 1.39987 -0.723979 0
M  V30 12526 C 1198.67 1.83606 -0.338461 0
M  V30 12527 C 1199.02 1.6051 1.12831 0
M  V30 12528 O 1198.15 1.09041 1.8692 0
M  V30 12529 C 1198.74 3.33308 -0.607533 0
M  V30 12530 C 1197.3 3.75389 -0.275632 0
M  V30 12531 C 1196.45 2.6311 -0.875699 0
M  V30 12532 H 1199.4 1.29135 -0.922483 0
M  V30 12533 H 1199.42 3.80297 0.124424 0
M  V30 12534 H 1198.93 3.50087 -1.67514 0
M  V30 12535 H 1197.03 3.64203 0.786579 0
M  V30 12536 H 1197.15 4.73185 -0.750492 0
M  V30 12537 H 1195.51 2.5289 -0.303122 0
M  V30 12538 H 1196.29 2.82698 -1.94774 0
M  V30 12539 N 1198.74 0.470782 1.50404 0
M  V30 12540 C 1199.96 -0.084284 2.07229 0
M  V30 12541 C 1200.39 -1.32774 1.33239 0
M  V30 12542 O 1199.75 -1.77274 0.379971 0
M  V30 12543 C 1199.8 -0.351565 3.58882 0
M  V30 12544 O 1198.9 -1.43211 3.86736 0
M  V30 12545 H 1198.24 0.0128479 0.663876 0
M  V30 12546 H 1200.77 0.661735 1.93603 0
M  V30 12547 H 1200.78 -0.592151 4.0368 0
M  V30 12548 H 1199.46 0.557084 4.12152 0
M  V30 12549 H 1198.03 -1.17886 3.53776 0
M  V30 12550 N 1200.22 -1.56282 0.203376 0
M  V30 12551 C 1201.63 -1.58871 -0.152335 0
M  V30 12552 C 1201.83 -1.21978 -1.60386 0
M  V30 12553 O 1200.89 -0.946422 -2.34092 0
M  V30 12554 C 1202.2 -3.00287 0.157515 0
M  V30 12555 C 1203.75 -3.12846 0.098287 0
M  V30 12556 C 1204.23 -4.56408 0.38156 0
M  V30 12557 N 1205.72 -4.6202 0.330475 0
M  V30 12558 C 1206.45 -5.71006 0.523397 0
M  V30 12559 N 1205.95 -6.88428 0.777115 0
M  V30 12560 N 1207.74 -5.60238 0.457082 0
M  V30 12561 H 1199.89 -1.78543 1.15048 0
M  V30 12562 H 1202.15 -0.829019 0.459816 0
M  V30 12563 H 1201.86 -3.3187 1.16427 0
M  V30 12564 H 1201.73 -3.73372 -0.536041 0
M  V30 12565 H 1204.12 -2.8107 -0.899085 0
M  V30 12566 H 1204.2 -2.42129 0.825045 0
M  V30 12567 H 1203.85 -4.88897 1.37629 0
M  V30 12568 H 1203.78 -5.25325 -0.366182 0
M  V30 12569 H 1206.27 -3.77636 0.141327 0
M  V30 12570 H 1206.58 -7.67389 0.912911 0
M  V30 12571 H 1204.93 -6.90215 0.814104 0
M  V30 12572 H 1208.12 -4.67382 0.259226 0
M  V30 12573 H 1208.29 -6.45114 0.610848 0
M  V30 12574 N 1201.7 0.070167 -1.57444 0
M  V30 12575 C 1202.64 1.08322 -2.03801 0
M  V30 12576 C 1203.61 1.38364 -0.918946 0
M  V30 12577 O 1204.8 1.49404 -1.18672 0
M  V30 12578 C 1201.94 2.39128 -2.48821 0
M  V30 12579 C 1201.05 2.15603 -3.74352 0
M  V30 12580 C 1200.19 3.39984 -4.08148 0
M  V30 12581 C 1199.22 3.1183 -5.26715 0
M  V30 12582 N 1198.36 4.28546 -5.56141 0
M  V30 12583 H 1203.2 0.680931 -2.90116 0
M  V30 12584 H 1200.74 0.324657 -1.43473 0
M  V30 12585 H 1202.7 3.15501 -2.72975 0
M  V30 12586 H 1201.33 2.77157 -1.65481 0
M  V30 12587 H 1200.38 1.29915 -3.57528 0
M  V30 12588 H 1201.69 1.90808 -4.60862 0
M  V30 12589 H 1200.84 4.2475 -4.33211 0
M  V30 12590 H 1199.58 3.67856 -3.20208 0
M  V30 12591 H 1198.59 2.2546 -5.01446 0
M  V30 12592 H 1199.81 2.85278 -6.16273 0
M  V30 12593 H 1197.76 4.56447 -4.71161 0
M  V30 12594 H 1197.68 4.0703 -6.37073 0
M  V30 12595 H 1198.94 5.14305 -5.85757 0
M  V30 12596 N 1203.17 1.53854 0.341593 0
M  V30 12597 C 1204.1 1.84966 1.42513 0
M  V30 12598 C 1205.08 0.704944 1.54805 0
M  V30 12599 O 1206.27 0.957036 1.68981 0
M  V30 12600 C 1203.4 2.06099 2.79536 0
M  V30 12601 C 1202.35 3.21919 2.82049 0
M  V30 12602 C 1201.68 3.28389 4.21977 0
M  V30 12603 C 1202.98 4.59984 2.4741 0
M  V30 12604 H 1204.67 2.7571 1.16724 0
M  V30 12605 H 1202.22 1.32662 0.560073 0
M  V30 12606 H 1204.17 2.26448 3.55386 0
M  V30 12607 H 1202.9 1.12087 3.06764 0
M  V30 12608 H 1201.56 3.01429 2.08653 0
M  V30 12609 H 1201.2 2.3197 4.46317 0
M  V30 12610 H 1200.9 4.0622 4.24569 0
M  V30 12611 H 1202.43 3.50951 4.99666 0
M  V30 12612 H 1203.84 4.80334 3.12973 0
M  V30 12613 H 1202.24 5.40233 2.61282 0
M  V30 12614 H 1203.31 4.6346 1.42594 0
M  V30 12615 N 1204.65 -0.602709 1.4562 0
M  V30 12616 C 1205.9 -1.36158 1.49891 0
M  V30 12617 C 1206.23 -1.93977 0.142581 0
M  V30 12618 O 1205.48 -1.75822 -0.859374 0
M  V30 12619 C 1205.78 -2.52474 2.52966 0
M  V30 12620 C 1205.45 -2.12772 3.97541 0
M  V30 12621 C 1204.11 -2.01658 4.36907 0
M  V30 12622 C 1206.46 -1.8186 4.88443 0
M  V30 12623 C 1203.79 -1.57862 5.65063 0
M  V30 12624 C 1206.14 -1.39548 6.17016 0
M  V30 12625 C 1204.8 -1.26997 6.55308 0
M  V30 12626 H 1204.07 -0.498236 0.54849 0
M  V30 12627 H 1206.72 -0.680738 1.78992 0
M  V30 12628 H 1205.03 -3.25917 2.17452 0
M  V30 12629 H 1206.72 -3.10701 2.53507 0
M  V30 12630 H 1203.31 -2.22349 3.66413 0
M  V30 12631 H 1207.5 -1.89341 4.58763 0
M  V30 12632 H 1202.75 -1.46771 5.93522 0
M  V30 12633 H 1206.93 -1.14677 6.86893 0
M  V30 12634 H 1204.55 -0.928346 7.5451 0
M  V30 12635 N 1206.13 -1.32992 -0.845635 0
M  V30 12636 C 1207.08 -1.22682 -1.95494 0
M  V30 12637 C 1208.05 -0.106942 -1.65755 0
M  V30 12638 O 1209.23 -0.28405 -1.88674 0
M  V30 12639 C 1206.37 -0.965068 -3.31331 0
M  V30 12640 C 1205.48 -2.17058 -3.7351 0
M  V30 12641 C 1204.62 -1.84355 -4.98183 0
M  V30 12642 C 1203.66 -3.01176 -5.32878 0
M  V30 12643 N 1202.8 -2.68506 -6.48729 0
M  V30 12644 H 1207.64 -2.17562 -2.03644 0
M  V30 12645 H 1205.17 -1.08194 -0.996613 0
M  V30 12646 H 1207.13 -0.793771 -4.09579 0
M  V30 12647 H 1205.76 -0.0530285 -3.22756 0
M  V30 12648 H 1204.81 -2.45185 -2.90841 0
M  V30 12649 H 1206.12 -3.04413 -3.95138 0
M  V30 12650 H 1205.28 -1.6383 -5.84162 0
M  V30 12651 H 1204.02 -0.942264 -4.78511 0
M  V30 12652 H 1203.02 -3.22323 -4.45408 0
M  V30 12653 H 1204.25 -3.9205 -5.54503 0
M  V30 12654 H 1202.19 -1.80929 -6.30556 0
M  V30 12655 H 1202.11 -3.49392 -6.70419 0
M  V30 12656 H 1203.38 -2.51432 -7.37836 0
M  V30 12657 N 1207.61 1.06304 -1.1635 0
M  V30 12658 C 1208.55 2.13776 -0.869965 0
M  V30 12659 C 1209.52 1.65105 0.181541 0
M  V30 12660 O 1210.71 1.90743 0.0467705 0
M  V30 12661 C 1207.85 3.43034 -0.377077 0
M  V30 12662 C 1206.96 4.0544 -1.4914 0
M  V30 12663 C 1206.1 5.22572 -0.953538 0
M  V30 12664 C 1205.14 5.76961 -2.04407 0
M  V30 12665 N 1204.27 6.85409 -1.52181 0
M  V30 12666 H 1209.11 2.38224 -1.79034 0
M  V30 12667 H 1206.65 1.16882 -0.893136 0
M  V30 12668 H 1208.61 4.17136 -0.0729426 0
M  V30 12669 H 1207.24 3.18804 0.506359 0
M  V30 12670 H 1206.29 3.28886 -1.9115 0
M  V30 12671 H 1207.6 4.41859 -2.31434 0
M  V30 12672 H 1206.76 6.037 -0.602579 0
M  V30 12673 H 1205.5 4.87598 -0.099897 0
M  V30 12674 H 1204.5 4.9447 -2.40373 0
M  V30 12675 H 1205.73 6.13987 -2.90167 0
M  V30 12676 H 1203.67 6.52354 -0.690697 0
M  V30 12677 H 1203.59 7.2077 -2.28092 0
M  V30 12678 H 1204.86 7.70217 -1.19942 0
M  V30 12679 N 1209.09 0.96196 1.24836 0
M  V30 12680 C 1210 0.494876 2.29321 0
M  V30 12681 C 1211.01 -0.441363 1.68309 0
M  V30 12682 O 1212.19 -0.315814 1.98908 0
M  V30 12683 C 1209.25 -0.212944 3.46045 0
M  V30 12684 C 1208.31 0.762411 4.22476 0
M  V30 12685 C 1207.55 0.0882756 5.33627 0
M  V30 12686 O 1207.77 -1.12459 5.59204 0
M  V30 12687 O 1206.7 0.777529 5.96857 0
M  V30 12688 H 1210.53 1.36333 2.7138 0
M  V30 12689 H 1208.11 0.728738 1.30421 0
M  V30 12690 H 1210 -0.610805 4.1695 0
M  V30 12691 H 1208.67 -1.05645 3.05975 0
M  V30 12692 H 1207.58 1.21062 3.5397 0
M  V30 12693 H 1208.91 1.57416 4.66349 0
M  V30 12694 N 1210.56 -1.39601 0.731392 0
M  V30 12695 C 1211.47 -2.34425 0.090527 0
M  V30 12696 C 1212.49 -1.58131 -0.725992 0
M  V30 12697 O 1213.67 -1.90441 -0.655294 0
M  V30 12698 C 1210.73 -3.37138 -0.808624 0
M  V30 12699 C 1209.79 -4.29295 0.0197365 0
M  V30 12700 C 1209.02 -5.27102 -0.836593 0
M  V30 12701 O 1209.25 -5.31302 -2.07543 0
M  V30 12702 O 1208.18 -6.01307 -0.267172 0
M  V30 12703 H 1212.01 -2.9088 0.873084 0
M  V30 12704 H 1209.59 -1.41066 0.492024 0
M  V30 12705 H 1211.47 -4.00087 -1.32319 0
M  V30 12706 H 1210.15 -2.83074 -1.57006 0
M  V30 12707 H 1209.06 -3.69581 0.579744 0
M  V30 12708 H 1210.39 -4.86555 0.743308 0
M  V30 12709 N 1212.04 -0.478751 -1.50152 0
M  V30 12710 C 1213.45 -0.0254907 -1.86683 0
M  V30 12711 C 1213.8 1.38171 -1.39295 0
M  V30 12712 O 1212.93 2.0257 -0.761207 0
M  V30 12713 C 1213.52 -0.0394819 -3.38777 0
M  V30 12714 C 1212.08 0.35834 -3.7469 0
M  V30 12715 C 1211.23 -0.421667 -2.74075 0
M  V30 12716 H 1214.18 -0.692653 -1.42787 0
M  V30 12717 H 1214.2 0.760957 -3.72813 0
M  V30 12718 H 1213.71 -1.06378 -3.73236 0
M  V30 12719 H 1211.82 1.38671 -3.45834 0
M  V30 12720 H 1211.93 0.0543589 -4.79069 0
M  V30 12721 H 1210.29 0.125634 -2.5439 0
M  V30 12722 H 1211.08 -1.44562 -3.11379 0
M  V30 12723 N 1213.52 1.56172 -0.211661 0
M  V30 12724 C 1214.45 2.15791 0.74225 0
M  V30 12725 C 1215.43 1.0994 1.198 0
M  V30 12726 O 1216.62 1.38143 1.28253 0
M  V30 12727 C 1213.74 2.73021 2.00443 0
M  V30 12728 C 1212.79 3.91611 1.68946 0
M  V30 12729 S 1213.62 5.29139 0.822949 0
M  V30 12730 C 1214.78 5.898 2.09491 0
M  V30 12731 H 1215.01 2.96366 0.235482 0
M  V30 12732 H 1212.54 1.544 0.0035357 0
M  V30 12733 H 1214.5 3.06635 2.7292 0
M  V30 12734 H 1213.16 1.92457 2.48232 0
M  V30 12735 H 1212.36 4.30122 2.62699 0
M  V30 12736 H 1211.96 3.59093 1.04539 0
M  V30 12737 H 1214.25 6.05172 3.04587 0
M  V30 12738 H 1215.19 6.86036 1.75386 0
M  V30 12739 H 1215.6 5.18546 2.23093 0
M  V30 12740 N 1215 -0.0618163 1.57479 0
M  V30 12741 C 1215.93 -1.07252 2.07411 0
M  V30 12742 C 1216.91 -1.39756 0.969649 0
M  V30 12743 O 1218.09 -1.4921 1.24298 0
M  V30 12744 C 1215.22 -2.38313 2.52635 0
M  V30 12745 C 1214.18 -2.20136 3.67048 0
M  V30 12746 C 1213.5 -3.56668 3.98361 0
M  V30 12747 C 1214.8 -1.61437 4.96725 0
M  V30 12748 H 1216.5 -0.656983 2.92103 0
M  V30 12749 H 1214.04 -0.314579 1.40522 0
M  V30 12750 H 1216 -3.09319 2.86181 0
M  V30 12751 H 1214.72 -2.81865 1.64984 0
M  V30 12752 H 1213.38 -1.51569 3.338 0
M  V30 12753 H 1213.03 -3.97809 3.07826 0
M  V30 12754 H 1212.73 -3.45342 4.75408 0
M  V30 12755 H 1214.25 -4.2909 4.34413 0
M  V30 12756 H 1215.67 -2.2232 5.28438 0
M  V30 12757 H 1214.06 -1.60779 5.78161 0
M  V30 12758 H 1215.13 -0.576795 4.81457 0
M  V30 12759 N 1216.48 -1.54033 -0.333429 0
M  V30 12760 C 1217.41 -1.85719 -1.4153 0
M  V30 12761 C 1218.39 -0.713144 -1.54429 0
M  V30 12762 O 1219.57 -0.965984 -1.68471 0
M  V30 12763 C 1216.7 -2.07578 -2.78439 0
M  V30 12764 C 1215.66 -3.23411 -2.80338 0
M  V30 12765 C 1214.98 -3.30622 -4.2023 0
M  V30 12766 C 1216.28 -4.6129 -2.44968 0
M  V30 12767 H 1217.98 -2.76325 -1.15261 0
M  V30 12768 H 1215.52 -1.32957 -0.55303 0
M  V30 12769 H 1217.48 -2.28329 -3.5418 0
M  V30 12770 H 1216.2 -1.13713 -3.06165 0
M  V30 12771 H 1214.86 -3.02531 -2.07052 0
M  V30 12772 H 1214.51 -2.34333 -4.45081 0
M  V30 12773 H 1214.21 -4.08466 -4.22409 0
M  V30 12774 H 1215.73 -3.53596 -4.97798 0
M  V30 12775 H 1217.14 -4.81987 -3.10421 0
M  V30 12776 H 1215.54 -5.41611 -2.58414 0
M  V30 12777 H 1216.61 -4.6421 -1.40134 0
M  V30 12778 N 1217.95 0.594978 -1.45938 0
M  V30 12779 C 1218.88 1.71536 -1.58422 0
M  V30 12780 C 1219.87 1.64441 -0.435116 0
M  V30 12781 O 1221.05 1.82647 -0.659839 0
M  V30 12782 C 1218.18 3.10163 -1.56257 0
M  V30 12783 C 1217.13 3.3208 -2.70013 0
M  V30 12784 C 1216.46 4.71108 -2.52905 0
M  V30 12785 C 1217.76 3.21105 -4.11933 0
M  V30 12786 H 1219.45 1.61344 -2.52207 0
M  V30 12787 H 1217 0.774791 -1.2138 0
M  V30 12788 H 1218.95 3.88352 -1.63587 0
M  V30 12789 H 1217.68 3.21225 -0.590093 0
M  V30 12790 H 1216.34 2.56286 -2.62132 0
M  V30 12791 H 1215.98 4.7892 -1.53768 0
M  V30 12792 H 1215.68 4.86727 -3.29197 0
M  V30 12793 H 1217.21 5.51482 -2.62107 0
M  V30 12794 H 1218.62 3.89153 -4.2099 0
M  V30 12795 H 1217.02 3.4825 -4.88715 0
M  V30 12796 H 1218.09 2.18359 -4.32952 0
M  V30 12797 N 1219.43 1.33438 0.838571 0
M  V30 12798 C 1220.68 1.24665 1.59069 0
M  V30 12799 C 1221 -0.187433 1.94097 0
M  V30 12800 O 1220.27 -1.11625 1.60987 0
M  V30 12801 H 1218.85 0.45843 0.589789 0
M  V30 12802 H 1221.51 1.67161 1.00216 0
M  V30 12803 H 1220.61 1.84057 2.52051 0
M  V30 12804 N 1220.91 -1.05686 1.16912 0
M  V30 12805 C 1222.19 -1.7546 0.864483 0
M  V30 12806 C 1222.57 -2.0128 -0.636359 0
M  V30 12807 O 1221.92 -1.64485 -1.58609 0
M  V30 12808 C 1222.13 -3.05134 1.69395 0
M  V30 12809 C 1223.47 -3.79176 1.91079 0
M  V30 12810 O 1224.5 -3.1499 1.66312 0
M  V30 12811 O 1223.36 -4.94496 2.32671 0
M  V30 12812 H 1220.45 -0.762748 0.319601 0
M  V30 12813 H 1223 -1.11899 1.27581 0
M  V30 12814 H 1221.77 -2.82063 2.71212 0
M  V30 12815 H 1221.39 -3.76431 1.28007 0
M  V30 12816 N 1222.39 -0.968567 -1.24324 0
M  V30 12817 C 1223.8 -0.66964 -1.74278 0
M  V30 12818 C 1224.15 0.81461 -1.7849 0
M  V30 12819 O 1223.28 1.63736 -1.4149 0
M  V30 12820 C 1223.87 -1.20885 -3.165 0
M  V30 12821 C 1222.43 -0.959808 -3.63957 0
M  V30 12822 C 1221.58 -1.34365 -2.42573 0
M  V30 12823 H 1224.53 -1.14379 -1.10015 0
M  V30 12824 H 1224.55 -0.57555 -3.76122 0
M  V30 12825 H 1224.06 -2.28912 -3.13402 0
M  V30 12826 H 1222.16 0.104894 -3.72452 0
M  V30 12827 H 1222.27 -1.60606 -4.51378 0
M  V30 12828 H 1220.64 -0.762039 -2.43033 0
M  V30 12829 H 1221.42 -2.43343 -2.42155 0
M  V30 12830 N 1223.87 1.39211 -0.738786 0
M  V30 12831 C 1225.09 2.05256 -0.297421 0
M  V30 12832 C 1225.52 1.55341 1.06069 0
M  V30 12833 O 1224.87 0.698823 1.67291 0
M  V30 12834 C 1224.92 3.59239 -0.312969 0
M  V30 12835 O 1224.03 4.06448 0.698112 0
M  V30 12836 H 1223.37 0.650245 -0.134454 0
M  V30 12837 H 1225.9 1.78173 -1.00577 0
M  V30 12838 H 1225.91 4.07691 -0.158675 0
M  V30 12839 H 1224.58 3.94931 -1.30394 0
M  V30 12840 H 1223.16 3.69401 0.509643 0
M  V30 12841 N 1225.34 0.486708 1.49896 0
M  V30 12842 C 1226.31 -0.288126 2.27382 0
M  V30 12843 C 1227.31 -0.906675 1.32801 0
M  V30 12844 O 1228.5 -0.773425 1.56089 0
M  V30 12845 C 1225.63 -1.41194 3.10285 0
M  V30 12846 H 1226.82 0.391618 2.97332 0
M  V30 12847 H 1224.38 0.24123 1.54427 0
M  V30 12848 H 1225.11 -2.12627 2.44868 0
M  V30 12849 H 1224.9 -0.974033 3.79809 0
M  V30 12850 H 1226.39 -1.95812 3.68846 0
M  V30 12851 N 1226.82 -1.56058 0.219941 0
M  V30 12852 C 1228.05 -2.031 -0.42014 0
M  V30 12853 C 1228.47 -1.09875 -1.52673 0
M  V30 12854 O 1227.83 -0.0866458 -1.81093 0
M  V30 12855 C 1227.88 -3.48389 -0.93047 0
M  V30 12856 O 1226.98 -3.583 -2.04192 0
M  V30 12857 H 1226.32 -0.657129 -0.0952772 0
M  V30 12858 H 1228.85 -2.01787 0.338105 0
M  V30 12859 H 1228.86 -3.88678 -1.2407 0
M  V30 12860 H 1227.54 -4.15725 -0.120539 0
M  V30 12861 H 1226.12 -3.29898 -1.73845 0
M  V30 12862 N 1228.3 0.053464 -1.57509 0
M  V30 12863 C 1229.23 1.06151 -2.07977 0
M  V30 12864 C 1230.21 1.3924 -0.977047 0
M  V30 12865 O 1231.4 1.48549 -1.25087 0
M  V30 12866 C 1228.53 2.36969 -2.53895 0
M  V30 12867 C 1227.48 2.18186 -3.6821 0
M  V30 12868 C 1226.81 3.54551 -4.00247 0
M  V30 12869 C 1228.11 1.588 -4.97574 0
M  V30 12870 H 1229.8 0.641483 -2.92447 0
M  V30 12871 H 1227.35 0.307122 -1.40687 0
M  V30 12872 H 1229.3 3.07797 -2.87817 0
M  V30 12873 H 1228.02 2.80986 -1.66476 0
M  V30 12874 H 1226.68 1.49796 -3.34599 0
M  V30 12875 H 1226.33 3.96171 -3.09932 0
M  V30 12876 H 1226.03 3.42816 -4.77232 0
M  V30 12877 H 1227.56 4.2678 -4.36682 0
M  V30 12878 H 1228.97 2.19515 -5.29609 0
M  V30 12879 H 1227.37 1.57711 -5.79006 0
M  V30 12880 H 1228.44 0.551254 -4.81756 0
M  V30 12881 N 1229.78 1.54207 0.325255 0
M  V30 12882 C 1231.01 1.76293 1.08298 0
M  V30 12883 C 1231.42 0.510722 1.81761 0
M  V30 12884 O 1230.78 -0.5185 1.7498 0
M  V30 12885 C 1230.83 2.95498 2.08238 0
M  V30 12886 O 1230.55 4.15877 1.37759 0
M  V30 12887 C 1232.05 3.29781 2.96242 0
M  V30 12888 H 1229.27 0.588576 0.322209 0
M  V30 12889 H 1231.82 2.0109 0.371896 0
M  V30 12890 H 1229.97 2.72979 2.74884 0
M  V30 12891 H 1230.39 4.82918 2.04672 0
M  V30 12892 H 1231.86 4.16495 3.62265 0
M  V30 12893 H 1232.34 2.46874 3.63249 0
M  V30 12894 H 1232.94 3.54372 2.3516 0
M  V30 12895 N 1231.26 -0.58723 1.46251 0
M  V30 12896 C 1232.19 -1.70694 1.5933 0
M  V30 12897 C 1233.17 -1.64208 0.443831 0
M  V30 12898 O 1234.35 -1.82294 0.669516 0
M  V30 12899 C 1231.48 -3.0933 1.579 0
M  V30 12900 C 1230.44 -3.30643 2.7177 0
M  V30 12901 C 1229.76 -4.69761 2.554 0
M  V30 12902 C 1231.06 -3.18916 4.1363 0
M  V30 12903 H 1232.76 -1.60004 2.53059 0
M  V30 12904 H 1230.3 -0.768343 1.21789 0
M  V30 12905 H 1232.26 -3.87479 1.65644 0
M  V30 12906 H 1230.98 -3.20907 0.60712 0
M  V30 12907 H 1229.64 -2.54892 2.63488 0
M  V30 12908 H 1229.29 -4.78098 1.56306 0
M  V30 12909 H 1228.99 -4.84974 3.31774 0
M  V30 12910 H 1230.51 -5.50084 2.65028 0
M  V30 12911 H 1231.93 -3.86915 4.23048 0
M  V30 12912 H 1230.32 -3.45653 4.90555 0
M  V30 12913 H 1231.39 -2.1606 4.34104 0
M  V30 12914 N 1232.74 -1.33881 -0.831482 0
M  V30 12915 C 1233.67 -1.27384 -1.95693 0
M  V30 12916 C 1234.65 -0.152943 -1.69411 0
M  V30 12917 O 1235.83 -0.34392 -1.9113 0
M  V30 12918 C 1232.96 -1.01982 -3.31989 0
M  V30 12919 C 1231.92 -2.10445 -3.72689 0
M  V30 12920 C 1231.24 -1.70245 -5.06873 0
M  V30 12921 C 1232.54 -3.52194 -3.8569 0
M  V30 12922 H 1234.24 -2.21549 -2.01386 0
M  V30 12923 H 1231.78 -1.06653 -0.967526 0
M  V30 12924 H 1233.73 -0.960841 -4.103 0
M  V30 12925 H 1232.46 -0.0425709 -3.26572 0
M  V30 12926 H 1231.12 -2.15398 -2.96647 0
M  V30 12927 H 1230.77 -0.712036 -4.97935 0
M  V30 12928 H 1230.47 -2.42834 -5.35075 0
M  V30 12929 H 1231.99 -1.65827 -5.87651 0
M  V30 12930 H 1233.4 -3.49701 -4.54293 0
M  V30 12931 H 1231.8 -4.23331 -4.25336 0
M  V30 12932 H 1232.87 -3.9016 -2.87929 0
M  V30 12933 N 1234.21 1.05064 -1.1747 0
M  V30 12934 C 1235.44 1.82299 -0.98903 0
M  V30 12935 C 1235.86 1.82441 0.457907 0
M  V30 12936 O 1235.22 1.23433 1.32793 0
M  V30 12937 C 1235.27 3.26239 -1.53624 0
M  V30 12938 O 1234.37 4.05507 -0.750857 0
M  V30 12939 H 1233.71 0.563601 -0.35107 0
M  V30 12940 H 1236.24 1.32386 -1.55997 0
M  V30 12941 H 1236.25 3.77038 -1.55906 0
M  V30 12942 H 1234.93 3.25451 -2.58949 0
M  V30 12943 H 1233.51 3.64227 -0.799548 0
M  V30 12944 N 1235.69 0.975146 1.23809 0
M  V30 12945 C 1236.62 0.530389 2.27396 0
M  V30 12946 C 1237.6 -0.433763 1.64476 0
M  V30 12947 O 1238.79 -0.32827 1.91405 0
M  V30 12948 C 1235.92 -0.173066 3.46869 0
M  V30 12949 C 1234.87 0.707844 4.22106 0
M  V30 12950 C 1234.2 -0.127527 5.34548 0
M  V30 12951 C 1235.5 1.99609 4.82652 0
M  V30 12952 H 1237.19 1.39622 2.64851 0
M  V30 12953 H 1234.74 0.672802 1.27316 0
M  V30 12954 H 1236.69 -0.495481 4.18477 0
M  V30 12955 H 1235.41 -1.0733 3.0846 0
M  V30 12956 H 1234.07 1.01364 3.52308 0
M  V30 12957 H 1233.72 -1.02814 4.9238 0
M  V30 12958 H 1233.42 0.458728 5.85807 0
M  V30 12959 H 1234.95 -0.444443 6.0898 0
M  V30 12960 H 1236.36 1.73878 5.46296 0
M  V30 12961 H 1234.76 2.52969 5.44175 0
M  V30 12962 H 1235.83 2.68629 4.03691 0
M  V30 12963 N 1237.17 -1.38817 0.746158 0
M  V30 12964 C 1238.39 -2.05096 0.308302 0
M  V30 12965 C 1238.82 -1.55902 -1.05244 0
M  V30 12966 O 1238.18 -0.707685 -1.66918 0
M  V30 12967 C 1238.23 -3.59068 0.332016 0
M  V30 12968 O 1237.33 -4.06813 -0.676547 0
M  V30 12969 H 1236.67 -0.649523 0.1379 0
M  V30 12970 H 1239.2 -1.77637 1.0152 0
M  V30 12971 H 1239.21 -4.07601 0.180293 0
M  V30 12972 H 1237.89 -3.94234 1.32487 0
M  V30 12973 H 1236.46 -3.69666 -0.490046 0
M  V30 12974 N 1238.65 -0.49465 -1.49636 0
M  V30 12975 C 1239.87 0.051305 -2.07337 0
M  V30 12976 C 1240.3 1.30637 -1.35335 0
M  V30 12977 O 1239.66 1.76647 -0.408126 0
M  V30 12978 C 1239.7 0.294425 -3.59396 0
M  V30 12979 O 1238.81 1.3704 -3.88965 0
M  V30 12980 H 1238.15 -0.023408 -0.663587 0
M  V30 12981 H 1240.68 -0.692451 -1.92526 0
M  V30 12982 H 1240.69 0.527854 -4.04571 0
M  V30 12983 H 1239.36 -0.622583 -4.11214 0
M  V30 12984 H 1237.94 1.12242 -3.55607 0
M  V30 12985 N 1240.13 1.55939 -0.228214 0
M  V30 12986 C 1241.37 1.97652 0.402067 0
M  V30 12987 C 1241.69 1.11911 1.60422 0
M  V30 12988 O 1242.89 1.43552 2.30445 0
M  V30 12989 C 1241.35 3.51638 0.766724 0
M  V30 12990 C 1240.96 4.46092 -0.412991 0
M  V30 12991 C 1242.7 4.02049 1.36224 0
M  V30 12992 C 1240.61 5.91394 -0.0255281 0
M  V30 12993 H 1239.54 0.738107 0.153994 0
M  V30 12994 H 1242.19 1.8059 -0.32548 0
M  V30 12995 H 1240.57 3.64325 1.55188 0
M  V30 12996 H 1241.75 4.45156 -1.19049 0
M  V30 12997 H 1240.06 4.0606 -0.92218 0
M  V30 12998 H 1242.66 5.08111 1.66514 0
M  V30 12999 H 1243 3.48292 2.28032 0
M  V30 13000 H 1243.53 3.92612 0.640378 0
M  V30 13001 H 1240.27 6.49149 -0.910269 0
M  V30 13002 H 1239.79 5.95509 0.716149 0
M  V30 13003 H 1241.47 6.4577 0.398839 0
M  V30 13004 N 1241.6 -0.0451101 1.57535 0
M  V30 13005 C 1242.83 -0.755068 1.93167 0
M  V30 13006 C 1243.25 -1.68949 0.826915 0
M  V30 13007 O 1242.61 -1.79978 -0.218534 0
M  V30 13008 C 1242.66 -1.50201 3.27829 0
M  V30 13009 O 1241.76 -2.61434 3.18945 0
M  V30 13010 H 1241.11 -0.204219 0.631815 0
M  V30 13011 H 1243.64 -0.00537504 2.04599 0
M  V30 13012 H 1243.65 -1.87547 3.6234 0
M  V30 13013 H 1242.32 -0.816591 4.07805 0
M  V30 13014 H 1240.9 -2.26749 2.96039 0
M  V30 13015 N 1243.08 -1.54377 -0.317073 0
M  V30 13016 C 1243.99 -1.87247 -1.41335 0
M  V30 13017 C 1245.01 -0.765017 -1.5628 0
M  V30 13018 O 1246.18 -1.05994 -1.71252 0
M  V30 13019 C 1243.25 -2.0988 -2.75955 0
M  V30 13020 C 1242.31 -3.33658 -2.70131 0
M  V30 13021 C 1241.54 -3.55202 -3.9833 0
M  V30 13022 O 1241.77 -2.80061 -4.96913 0
M  V30 13023 O 1240.7 -4.48693 -4.01196 0
M  V30 13024 H 1244.53 -2.80481 -1.16465 0
M  V30 13025 H 1242.11 -1.40364 -0.511687 0
M  V30 13026 H 1243.99 -2.2606 -3.55633 0
M  V30 13027 H 1242.67 -1.19834 -3.00702 0
M  V30 13028 H 1241.58 -3.22857 -1.88981 0
M  V30 13029 H 1242.91 -4.23782 -2.50338 0
M  V30 13030 N 1244.56 0.579466 -1.4656 0
M  V30 13031 C 1245.8 1.34857 -1.536 0
M  V30 13032 C 1246.16 1.91111 -0.184576 0
M  V30 13033 O 1247.37 2.68487 -0.129731 0
M  V30 13034 C 1245.64 2.44535 -2.60648 0
M  V30 13035 S 1247.2 3.31829 -2.87115 0
M  V30 13036 H 1244.01 0.459405 -0.542649 0
M  V30 13037 H 1246.62 0.665798 -1.83813 0
M  V30 13038 H 1245.32 2.01605 -3.57468 0
M  V30 13039 H 1244.85 3.17581 -2.32177 0
M  V30 13040 H 1246.87 4.43452 -2.22632 0
M  V30 13041 N 1246.04 1.3432 0.824371 0
M  V30 13042 C 1246.99 1.2578 1.95658 0
M  V30 13043 C 1247.98 0.156199 1.68678 0
M  V30 13044 O 1249.19 0.321081 1.77113 0
M  V30 13045 H 1245.56 0.390711 0.642533 0
M  V30 13046 H 1247.53 2.21471 1.99983 0
M  V30 13047 C 1246.28 1.02865 3.32136 0
M  V30 13048 H 1245.6 1.86863 3.53443 0
M  V30 13049 H 1247.04 1.00925 4.11813 0
M  V30 13050 C 1245.5 -0.268097 3.35832 0
M  V30 13051 O 1246.03 -1.26995 3.81097 0
M  V30 13052 N 1244.24 -0.300702 2.8904 0
M  V30 13053 H 1243.79 0.51515 2.52396 0
M  V30 13054 H 1243.74 -1.16811 2.91895 0
M  V30 13055 N 1247.52 -1.0444 1.18026 0
M  V30 13056 C 1248.74 -1.81772 0.998684 0
M  V30 13057 C 1249.17 -1.82682 -0.448225 0
M  V30 13058 O 1248.52 -1.24136 -1.32136 0
M  V30 13059 C 1248.57 -3.2542 1.55352 0
M  V30 13060 O 1247.68 -4.05103 0.772351 0
M  V30 13061 H 1247.02 -0.561731 0.354054 0
M  V30 13062 H 1249.55 -1.31557 1.56697 0
M  V30 13063 H 1249.56 -3.76206 1.57903 0
M  V30 13064 H 1248.23 -3.24073 2.60672 0
M  V30 13065 H 1246.81 -3.63798 0.818852 0
M  V30 13066 N 1248.99 -0.981699 -1.2329 0
M  V30 13067 C 1250.22 -0.66937 -1.95773 0
M  V30 13068 C 1250.64 0.763898 -1.72656 0
M  V30 13069 O 1249.99 1.51418 -1.01876 0
M  V30 13070 C 1250.05 -0.951863 -3.48743 0
M  V30 13071 O 1249.77 -2.3288 -3.71078 0
M  V30 13072 C 1251.27 -0.655668 -4.38424 0
M  V30 13073 H 1248.49 -0.248545 -0.623271 0
M  V30 13074 H 1251.03 -1.31343 -1.56746 0
M  V30 13075 H 1249.19 -0.353787 -3.85781 0
M  V30 13076 H 1249.6 -2.41948 -4.65362 0
M  V30 13077 H 1251.07 -0.903683 -5.44553 0
M  V30 13078 H 1251.55 0.410269 -4.3728 0
M  V30 13079 H 1252.16 -1.23428 -4.06996 0
M  V30 13080 N 1250.47 1.3842 -0.753509 0
M  V30 13081 C 1251.89 1.53668 -0.431095 0
M  V30 13082 C 1252.09 1.71626 1.05578 0
M  V30 13083 O 1251.14 1.72723 1.84182 0
M  V30 13084 C 1252.46 2.74381 -1.23027 0
M  V30 13085 C 1254.01 2.8823 -1.22034 0
M  V30 13086 C 1254.48 4.11904 -2.00248 0
M  V30 13087 N 1255.97 4.18981 -1.97508 0
M  V30 13088 C 1256.71 5.13667 -2.5482 0
M  V30 13089 N 1256.2 6.14027 -3.20846 0
M  V30 13090 N 1258 5.06017 -2.44751 0
M  V30 13091 H 1250.15 1.25012 -1.71714 0
M  V30 13092 H 1252.41 0.607296 -0.727939 0
M  V30 13093 H 1252.12 2.67515 -2.28317 0
M  V30 13094 H 1251.99 3.67565 -0.847098 0
M  V30 13095 H 1254.38 2.94578 -0.175502 0
M  V30 13096 H 1254.46 1.96057 -1.64303 0
M  V30 13097 H 1254.1 4.06318 -3.04742 0
M  V30 13098 H 1254.03 5.03157 -1.55373 0
M  V30 13099 H 1256.52 3.47104 -1.49423 0
M  V30 13100 H 1256.84 6.82771 -3.61999 0
M  V30 13101 H 1255.18 6.1436 -3.24941 0
M  V30 13102 H 1258.37 4.26552 -1.92797 0
M  V30 13103 H 1258.54 5.7963 -2.89713 0
M  V30 13104 N 1251.95 0.502579 1.49372 0
M  V30 13105 C 1253.18 -0.0403087 2.07361 0
M  V30 13106 C 1253.6 -1.29918 1.36026 0
M  V30 13107 O 1252.96 -1.76428 0.417488 0
M  V30 13108 C 1253.01 -0.275362 3.59547 0
M  V30 13109 O 1252.11 -1.34975 3.89686 0
M  V30 13110 H 1251.45 0.0269268 0.663454 0
M  V30 13111 H 1253.98 0.702652 1.92156 0
M  V30 13112 H 1253.99 -0.506392 4.04845 0
M  V30 13113 H 1252.67 0.644382 4.10878 0
M  V30 13114 H 1251.24 -1.10355 3.56197 0
M  V30 13115 N 1253.43 -1.55816 0.23648 0
M  V30 13116 C 1254.36 -2.23924 -0.661834 0
M  V30 13117 C 1255.34 -1.21597 -1.18946 0
M  V30 13118 O 1256.52 -1.50222 -1.23073 0
M  V30 13119 C 1253.65 -2.93069 -1.86355 0
M  V30 13120 C 1252.61 -4.01996 -1.46913 0
M  V30 13121 C 1251.93 -4.58512 -2.75083 0
M  V30 13122 C 1253.23 -5.18265 -0.647964 0
M  V30 13123 H 1254.93 -2.99253 -0.0939368 0
M  V30 13124 H 1252.47 -1.43934 -0.0437407 0
M  V30 13125 H 1254.43 -3.39412 -2.49755 0
M  V30 13126 H 1253.15 -2.15212 -2.45665 0
M  V30 13127 H 1251.81 -3.56406 -0.858522 0
M  V30 13128 H 1251.46 -3.77368 -3.3257 0
M  V30 13129 H 1251.16 -5.32037 -2.49421 0
M  V30 13130 H 1252.68 -5.07583 -3.39399 0
M  V30 13131 H 1254.1 -5.60898 -1.18602 0
M  V30 13132 H 1252.49 -5.98114 -0.487823 0
M  V30 13133 H 1253.56 -4.83691 0.342151 0
M  V30 13134 N 1254.91 0.036755 -1.57557 0
M  V30 13135 C 1255.84 1.03939 -2.09091 0
M  V30 13136 C 1256.82 1.38196 -0.991761 0
M  V30 13137 O 1258 1.47214 -1.26656 0
M  V30 13138 C 1255.13 2.34263 -2.56394 0
M  V30 13139 C 1254.09 2.14269 -3.70504 0
M  V30 13140 C 1253.41 3.50286 -4.03985 0
M  V30 13141 C 1254.71 1.53514 -4.9923 0
M  V30 13142 H 1256.41 0.610429 -2.93111 0
M  V30 13143 H 1253.95 0.292183 -1.41005 0
M  V30 13144 H 1255.91 3.04727 -2.91066 0
M  V30 13145 H 1254.63 2.79205 -1.69447 0
M  V30 13146 H 1253.29 1.46239 -3.36169 0
M  V30 13147 H 1252.94 3.92861 -3.14116 0
M  V30 13148 H 1252.64 3.37735 -4.80842 0
M  V30 13149 H 1254.16 4.22124 -4.41184 0
M  V30 13150 H 1255.57 2.13885 -5.31908 0
M  V30 13151 H 1253.97 1.51561 -5.80646 0
M  V30 13152 H 1255.04 0.500126 -4.82314 0
M  V30 13153 N 1256.39 1.54543 0.308881 0
M  V30 13154 C 1257.8 1.45581 0.654088 0
M  V30 13155 C 1258 0.640597 1.91046 0
M  V30 13156 O 1257.06 0.14518 2.52082 0
M  V30 13157 C 1258.37 2.89461 0.814422 0
M  V30 13158 C 1259.92 2.99455 0.910817 0
M  V30 13159 C 1260.39 4.44515 1.10321 0
M  V30 13160 N 1261.88 4.4819 1.1696 0
M  V30 13161 C 1262.62 5.57604 1.33661 0
M  V30 13162 N 1262.12 6.76957 1.47311 0
M  V30 13163 N 1263.91 5.45278 1.36487 0
M  V30 13164 H 1256.06 2.06019 -0.516699 0
M  V30 13165 H 1258.32 0.932729 -0.169471 0
M  V30 13166 H 1258.03 3.5168 -0.0377455 0
M  V30 13167 H 1257.9 3.36425 1.70582 0
M  V30 13168 H 1260.29 2.37355 1.75348 0
M  V30 13169 H 1260.37 2.558 -0.00443172 0
M  V30 13170 H 1260.01 5.07206 0.265346 0
M  V30 13171 H 1259.94 4.85793 2.03256 0
M  V30 13172 H 1262.44 3.62199 1.07796 0
M  V30 13173 H 1262.75 7.561 1.59788 0
M  V30 13174 H 1261.09 6.79837 1.44382 0
M  V30 13175 H 1264.28 4.50983 1.25429 0
M  V30 13176 H 1264.46 6.30599 1.4916 0
M  V30 13177 N 1257.86 -0.571685 1.46866 0
M  V30 13178 C 1259.09 -1.36008 1.56578 0
M  V30 13179 C 1259.51 -1.86909 0.211326 0
M  V30 13180 O 1258.87 -1.62179 -0.810421 0
M  V30 13181 C 1258.92 -2.51598 2.58323 0
M  V30 13182 O 1258.02 -3.53383 2.1259 0
M  V30 13183 H 1257.36 -0.404593 0.526498 0
M  V30 13184 H 1259.89 -0.692357 1.92529 0
M  V30 13185 H 1259.9 -2.98366 2.78283 0
M  V30 13186 H 1258.58 -2.13904 3.56676 0
M  V30 13187 H 1257.16 -3.13019 2.02666 0
M  V30 13188 N 1259.34 -1.34755 -0.817236 0
M  V30 13189 C 1260.62 -1.18007 -1.55993 0
M  V30 13190 C 1261 0.245079 -2.09673 0
M  V30 13191 O 1260.35 1.24718 -1.91462 0
M  V30 13192 C 1260.56 -2.23934 -2.67684 0
M  V30 13193 C 1261.9 -2.59201 -3.36303 0
M  V30 13194 O 1262.93 -2.22767 -2.77945 0
M  V30 13195 O 1261.79 -3.21809 -4.41702 0
M  V30 13196 H 1258.88 -0.4578 -0.688729 0
M  V30 13197 H 1261.43 -1.46405 -0.858117 0
M  V30 13198 H 1260.2 -3.19568 -2.25813 0
M  V30 13199 H 1259.82 -1.96745 -3.4551 0
M  V30 13200 N 1260.82 1.03812 -1.18578 0
M  V30 13201 C 1262.04 1.8124 -1.00831 0
M  V30 13202 C 1262.47 1.82917 0.43853 0
M  V30 13203 O 1261.83 1.24835 1.31476 0
M  V30 13204 C 1261.88 3.24592 -1.57075 0
M  V30 13205 O 1260.98 4.04688 -0.793824 0
M  V30 13206 H 1260.32 0.559846 -0.357028 0
M  V30 13207 H 1262.85 1.30724 -1.57393 0
M  V30 13208 H 1262.86 3.75363 -1.59896 0
M  V30 13209 H 1261.54 3.22686 -2.62387 0
M  V30 13210 H 1260.11 3.63359 -0.838134 0
M  V30 13211 N 1262.3 0.988223 1.22768 0
M  V30 13212 C 1263.57 0.577578 1.86878 0
M  V30 13213 C 1263.95 -0.945197 1.88757 0
M  V30 13214 O 1263.3 -1.82519 1.37474 0
M  V30 13215 C 1263.51 1.19263 3.2799 0
M  V30 13216 C 1264.86 1.29024 4.04522 0
M  V30 13217 O 1265.88 1.14667 3.37239 0
M  V30 13218 O 1264.74 1.51949 5.24951 0
M  V30 13219 H 1261.84 0.195579 0.803541 0
M  V30 13220 H 1264.38 1.0838 1.30582 0
M  V30 13221 H 1263.16 2.23442 3.21231 0
M  V30 13222 H 1262.78 0.671706 3.91885 0
M  V30 13223 N 1263.78 -1.38018 0.760839 0
M  V30 13224 C 1264.69 -2.34181 0.140232 0
M  V30 13225 C 1265.7 -1.59635 -0.692287 0
M  V30 13226 O 1266.88 -1.91788 -0.614752 0
M  V30 13227 C 1263.94 -3.38778 -0.73693 0
M  V30 13228 C 1263 -4.29157 0.110792 0
M  V30 13229 C 1262.24 -5.28758 -0.724599 0
M  V30 13230 O 1262.46 -5.35585 -1.96226 0
M  V30 13231 O 1261.39 -6.01738 -0.139565 0
M  V30 13232 H 1265.22 -2.88962 0.934588 0
M  V30 13233 H 1262.8 -1.3999 0.521835 0
M  V30 13234 H 1264.69 -4.02804 -1.23803 0
M  V30 13235 H 1263.36 -2.86341 -1.50966 0
M  V30 13236 H 1262.27 -3.68268 0.658007 0
M  V30 13237 H 1263.6 -4.84869 0.846346 0
M  V30 13238 N 1265.25 -0.510493 -1.49103 0
M  V30 13239 C 1266.5 0.0325393 -2.01674 0
M  V30 13240 C 1266.82 1.37162 -1.39448 0
M  V30 13241 O 1268.02 2.00189 -1.83402 0
M  V30 13242 C 1266.48 0.108433 -3.59737 0
M  V30 13243 C 1266.09 -1.22458 -4.30939 0
M  V30 13244 C 1267.83 0.601326 -4.20219 0
M  V30 13245 C 1265.74 -1.11033 -5.80884 0
M  V30 13246 H 1264.67 0.0159333 -0.753832 0
M  V30 13247 H 1267.32 -0.651344 -1.71551 0
M  V30 13248 H 1265.7 0.856974 -3.86616 0
M  V30 13249 H 1266.87 -1.98715 -4.15751 0
M  V30 13250 H 1265.19 -1.65166 -3.82242 0
M  V30 13251 H 1267.79 0.704462 -5.30039 0
M  V30 13252 H 1268.13 1.60247 -3.84222 0
M  V30 13253 H 1268.66 -0.0909561 -3.97696 0
M  V30 13254 H 1265.4 -2.08603 -6.21422 0
M  V30 13255 H 1264.92 -0.388798 -5.98539 0
M  V30 13256 H 1266.6 -0.792949 -6.42123 0
M  V30 13257 N 1266.73 1.55688 -0.24474 0
M  V30 13258 C 1267.98 1.99186 0.381167 0
M  V30 13259 C 1268.31 1.13266 1.57748 0
M  V30 13260 O 1267.59 0.195568 1.93514 0
M  V30 13261 C 1267.87 3.51257 0.793142 0
M  V30 13262 C 1267.72 4.47942 -0.408409 0
M  V30 13263 C 1269.04 4.08365 1.64091 0
M  V30 13264 H 1266.16 0.724141 0.137073 0
M  V30 13265 H 1268.8 1.8683 -0.345619 0
M  V30 13266 H 1266.95 3.61917 1.4124 0
M  V30 13267 H 1268.62 4.49265 -1.04682 0
M  V30 13268 H 1266.87 4.20854 -1.05189 0
M  V30 13269 H 1267.54 5.51946 -0.0768531 0
M  V30 13270 H 1270.01 4.00794 1.1182 0
M  V30 13271 H 1268.89 5.1504 1.89802 0
M  V30 13272 H 1269.15 3.56687 2.61202 0
M  V30 13273 N 1268.21 -0.0283989 1.57574 0
M  V30 13274 C 1269.46 -0.720142 1.89583 0
M  V30 13275 C 1269.79 -1.7497 0.842562 0
M  V30 13276 O 1269.06 -1.93979 -0.142294 0
M  V30 13277 C 1269.35 -1.38909 3.32229 0
M  V30 13278 C 1269.2 -0.372998 4.48251 0
M  V30 13279 C 1270.52 -2.32289 3.73804 0
M  V30 13280 H 1267.64 -0.26033 0.689491 0
M  V30 13281 H 1270.28 0.0170607 1.89992 0
M  V30 13282 H 1268.43 -2.01744 3.32011 0
M  V30 13283 H 1270.1 0.253492 4.60603 0
M  V30 13284 H 1268.34 0.30765 4.32708 0
M  V30 13285 H 1269.02 -0.879549 5.44948 0
M  V30 13286 H 1271.49 -1.79497 3.75393 0
M  V30 13287 H 1270.37 -2.76075 4.74419 0
M  V30 13288 H 1270.63 -3.18992 3.06099 0
M  V30 13289 N 1269.69 -1.54705 -0.300681 0
M  V30 13290 C 1270.92 -1.77735 -1.05327 0
M  V30 13291 C 1271.33 -0.53709 -1.81417 0
M  V30 13292 O 1270.67 0.502663 -1.76689 0
M  V30 13293 C 1270.73 -2.93222 -2.07993 0
M  V30 13294 C 1270.39 -4.313 -1.51095 0
M  V30 13295 C 1271.39 -5.11317 -0.94082 0
M  V30 13296 C 1269.08 -4.77901 -1.54648 0
M  V30 13297 C 1271.07 -6.36055 -0.413791 0
M  V30 13298 C 1268.76 -6.02602 -1.01558 0
M  V30 13299 C 1269.76 -6.81515 -0.450209 0
M  V30 13300 O 1269.44 -8.03867 0.0726375 0
M  V30 13301 H 1269.18 -0.596468 -0.318122 0
M  V30 13302 H 1271.73 -2.02475 -0.345404 0
M  V30 13303 H 1269.96 -2.64108 -2.82461 0
M  V30 13304 H 1271.65 -3.03826 -2.69156 0
M  V30 13305 H 1272.41 -4.76458 -0.906268 0
M  V30 13306 H 1268.29 -4.16507 -1.97594 0
M  V30 13307 H 1271.84 -6.97594 0.0281534 0
M  V30 13308 H 1267.73 -6.36948 -1.04728 0
M  V30 13309 H 1268.5 -8.1849 -0.0406321 0
M  V30 13310 N 1271.17 0.563888 -1.47167 0
M  V30 13311 C 1272.08 1.69903 -1.61772 0
M  V30 13312 C 1273.09 1.6664 -0.500705 0
M  V30 13313 O 1274.27 1.86209 -0.767354 0
M  V30 13314 C 1271.33 3.06411 -1.62213 0
M  V30 13315 C 1270.39 3.20793 -2.8529 0
M  V30 13316 C 1269.63 4.50789 -2.85701 0
M  V30 13317 O 1269.85 5.3584 -1.95529 0
M  V30 13318 O 1268.78 4.68819 -3.77481 0
M  V30 13319 H 1272.61 1.60525 -2.57809 0
M  V30 13320 H 1270.2 0.733125 -1.30175 0
M  V30 13321 H 1272.08 3.87659 -1.65221 0
M  V30 13322 H 1270.75 3.16186 -0.693415 0
M  V30 13323 H 1269.66 2.38967 -2.87829 0
M  V30 13324 H 1270.99 3.15918 -3.77434 0
M  V30 13325 N 1272.64 1.35187 0.810078 0
M  V30 13326 C 1273.58 1.22171 1.92742 0
M  V30 13327 C 1274.56 0.110393 1.62225 0
M  V30 13328 O 1275.74 0.27786 1.86441 0
M  V30 13329 C 1272.87 0.880367 3.27058 0
M  V30 13330 C 1271.91 2.00325 3.76527 0
M  V30 13331 S 1272.75 3.6185 3.94747 0
M  V30 13332 C 1273.9 3.29784 5.31971 0
M  V30 13333 H 1274.13 2.16749 2.03488 0
M  V30 13334 H 1271.67 1.20362 0.967072 0
M  V30 13335 H 1273.63 0.690224 4.04656 0
M  V30 13336 H 1272.29 -0.0472868 3.14064 0
M  V30 13337 H 1271.48 1.71847 4.73798 0
M  V30 13338 H 1271.08 2.15154 3.05916 0
M  V30 13339 H 1273.37 2.82396 6.1584 0
M  V30 13340 H 1274.32 4.26243 5.6544 0
M  V30 13341 H 1274.72 2.65641 4.98092 0
M  V30 13342 N 1274.12 -1.03182 1.19127 0
M  V30 13343 C 1275.53 -1.57984 0.994888 0
M  V30 13344 C 1275.88 -1.90898 -0.453019 0
M  V30 13345 O 1275.01 -1.70556 -1.33191 0
M  V30 13346 C 1275.6 -2.8705 1.79966 0
M  V30 13347 C 1274.16 -3.38435 1.64737 0
M  V30 13348 C 1273.31 -2.11912 1.78854 0
M  V30 13349 H 1276.26 -0.857458 1.33542 0
M  V30 13350 H 1276.28 -3.57821 1.294 0
M  V30 13351 H 1275.79 -2.63062 2.85341 0
M  V30 13352 H 1273.9 -3.67416 0.619358 0
M  V30 13353 H 1274.01 -4.11665 2.45089 0
M  V30 13354 H 1272.37 -2.23642 1.21886 0
M  V30 13355 H 1273.16 -1.90369 2.85682 0
M  V30 13356 N 1275.6 -0.99472 -1.22242 0
M  V30 13357 C 1276.85 -0.672596 -1.91322 0
M  V30 13358 C 1277.18 0.793542 -1.77247 0
M  V30 13359 O 1276.45 1.57407 -1.14251 0
M  V30 13360 C 1276.74 -1.08155 -3.43474 0
M  V30 13361 C 1276.59 -2.60638 -3.6659 0
M  V30 13362 C 1277.91 -0.636161 -4.35478 0
M  V30 13363 H 1275.03 -0.24582 -0.694796 0
M  V30 13364 H 1277.67 -1.23857 -1.44082 0
M  V30 13365 H 1275.82 -0.599987 -3.83839 0
M  V30 13366 H 1277.49 -3.16479 -3.35617 0
M  V30 13367 H 1275.74 -3.02624 -3.10808 0
M  V30 13368 H 1276.41 -2.84304 -4.73155 0
M  V30 13369 H 1278.88 -1.04982 -4.02639 0
M  V30 13370 H 1277.76 -0.950584 -5.40606 0
M  V30 13371 H 1278.02 0.4631 -4.39668 0
M  V30 13372 N 1277.08 1.37613 -0.768148 0
M  V30 13373 C 1278.3 2.04579 -0.340892 0
M  V30 13374 C 1278.73 1.57556 1.02751 0
M  V30 13375 O 1278.09 0.734151 1.65771 0
M  V30 13376 C 1278.13 3.58495 -0.389099 0
M  V30 13377 O 1277.24 4.07838 0.611741 0
M  V30 13378 H 1276.58 0.647246 -0.148216 0
M  V30 13379 H 1279.11 1.75999 -1.04333 0
M  V30 13380 H 1279.12 4.07263 -0.245116 0
M  V30 13381 H 1277.79 3.92076 -1.38742 0
M  V30 13382 H 1276.37 3.70399 0.431173 0
M  V30 13383 N 1278.56 0.518393 1.4883 0
M  V30 13384 C 1279.97 0.0749773 1.86549 0
M  V30 13385 C 1280.32 -1.34429 1.4291 0
M  V30 13386 O 1279.44 -2.00481 0.814648 0
M  V30 13387 C 1280.04 0.129289 3.38553 0
M  V30 13388 C 1278.6 -0.258871 3.75509 0
M  V30 13389 C 1277.74 0.494185 2.72861 0
M  V30 13390 H 1280.7 0.730266 1.409 0
M  V30 13391 H 1280.72 -0.661844 3.747 0
M  V30 13392 H 1280.23 1.16237 3.70285 0
M  V30 13393 H 1278.33 -1.29453 3.49389 0
M  V30 13394 H 1278.44 0.0726769 4.79045 0
M  V30 13395 H 1276.81 -0.0581428 2.54634 0
M  V30 13396 H 1277.59 1.52767 3.07436 0
M  V30 13397 N 1280.03 -1.55556 0.252993 0
M  V30 13398 C 1281.28 -1.99385 -0.370599 0
M  V30 13399 C 1281.61 -1.14101 -1.57145 0
M  V30 13400 O 1280.89 -0.205828 -1.93408 0
M  V30 13401 C 1281.17 -3.51672 -0.774503 0
M  V30 13402 C 1281.02 -4.47719 0.432159 0
M  V30 13403 C 1282.34 -4.0923 -1.61923 0
M  V30 13404 H 1279.46 -0.724858 -0.133231 0
M  V30 13405 H 1282.1 -1.86644 0.355522 0
M  V30 13406 H 1280.25 -3.62661 -1.39318 0
M  V30 13407 H 1281.93 -4.48704 1.07063 0
M  V30 13408 H 1280.17 -4.2029 1.07419 0
M  V30 13409 H 1280.84 -5.51898 0.106123 0
M  V30 13410 H 1283.32 -4.01381 -1.09693 0
M  V30 13411 H 1282.19 -5.16039 -1.87068 0
M  V30 13412 H 1282.45 -3.58067 -2.59307 0
M  V30 13413 N 1281.51 0.0200419 -1.57587 0
M  V30 13414 C 1282.42 1.0346 -2.10555 0
M  V30 13415 C 1283.44 1.39035 -1.0462 0
M  V30 13416 O 1284.61 1.48172 -1.36407 0
M  V30 13417 C 1281.68 2.31389 -2.58186 0
M  V30 13418 C 1280.74 2.02311 -3.7864 0
M  V30 13419 C 1279.97 3.24141 -4.23991 0
M  V30 13420 O 1280.2 4.35132 -3.68803 0
M  V30 13421 O 1279.13 3.09312 -5.16342 0
M  V30 13422 H 1282.96 0.614419 -2.9742 0
M  V30 13423 H 1280.54 0.237604 -1.47498 0
M  V30 13424 H 1282.42 3.06582 -2.89112 0
M  V30 13425 H 1281.1 2.72684 -1.74428 0
M  V30 13426 H 1280.01 1.24658 -3.5272 0
M  V30 13427 H 1281.34 1.65866 -4.6341 0
M  V30 13428 N 1282.99 1.54862 0.292472 0
M  V30 13429 C 1283.95 1.8565 1.34413 0
M  V30 13430 C 1284.95 0.729868 1.43281 0
M  V30 13431 O 1286.14 0.998128 1.42769 0
M  V30 13432 C 1283.28 2.0444 2.72795 0
M  V30 13433 H 1284.47 2.79642 1.08354 0
M  V30 13434 H 1282.02 1.47055 0.529574 0
M  V30 13435 H 1282.76 1.12765 3.04063 0
M  V30 13436 H 1282.54 2.86451 2.67747 0
M  V30 13437 H 1284.03 2.296 3.48817 0
M  V30 13438 N 1284.47 -0.556076 1.47464 0
M  V30 13439 C 1285.88 -1.1382 1.47993 0
M  V30 13440 C 1286.23 -1.94785 0.235249 0
M  V30 13441 O 1285.36 -2.06098 -0.659752 0
M  V30 13442 C 1285.95 -2.07082 2.68146 0
M  V30 13443 C 1284.51 -2.60564 2.71631 0
M  V30 13444 C 1283.66 -1.36967 2.41113 0
M  V30 13445 H 1286.61 -0.34262 1.54957 0
M  V30 13446 H 1286.63 -2.90975 2.45181 0
M  V30 13447 H 1286.14 -1.48127 3.5872 0
M  V30 13448 H 1284.24 -3.23314 1.852 0
M  V30 13449 H 1284.35 -3.0148 3.72353 0
M  V30 13450 H 1282.72 -1.67678 1.91719 0
M  V30 13451 H 1283.5 -0.79803 3.33896 0
M  V30 13452 N 1285.95 -1.35615 -0.802897 0
M  V30 13453 C 1287.36 -1.26062 -1.37715 0
M  V30 13454 C 1287.71 0.105411 -1.95917 0
M  V30 13455 O 1286.83 1.00648 -1.91569 0
M  V30 13456 C 1287.43 -2.28261 -2.50365 0
M  V30 13457 C 1285.99 -2.22437 -3.03642 0
M  V30 13458 C 1285.14 -2.1377 -1.76629 0
M  V30 13459 H 1288.09 -1.46689 -0.605631 0
M  V30 13460 H 1288.11 -1.91122 -3.29017 0
M  V30 13461 H 1287.62 -3.27671 -2.07975 0
M  V30 13462 H 1285.72 -1.2645 -3.50487 0
M  V30 13463 H 1285.83 -3.14558 -3.61373 0
M  V30 13464 H 1284.2 -1.59806 -1.98328 0
M  V30 13465 H 1284.98 -3.15046 -1.36385 0
M  V30 13466 N 1287.43 1.02549 -1.19673 0
M  V30 13467 C 1288.36 2.12794 -0.961289 0
M  V30 13468 C 1289.34 1.69766 0.106575 0
M  V30 13469 O 1290.52 1.94138 -0.0491358 0
M  V30 13470 C 1287.65 3.4364 -0.502868 0
M  V30 13471 C 1286.61 4.00367 -1.51296 0
M  V30 13472 C 1285.93 5.26874 -0.911491 0
M  V30 13473 C 1287.23 4.34782 -2.89416 0
M  V30 13474 H 1288.93 2.32748 -1.88331 0
M  V30 13475 H 1286.47 1.11852 -0.906922 0
M  V30 13476 H 1288.42 4.20141 -0.325436 0
M  V30 13477 H 1287.15 3.23418 0.454764 0
M  V30 13478 H 1285.81 3.25964 -1.67759 0
M  V30 13479 H 1285.46 5.02971 0.0537982 0
M  V30 13480 H 1285.16 5.65791 -1.58602 0
M  V30 13481 H 1286.68 6.06039 -0.74493 0
M  V30 13482 H 1288.09 5.02207 -2.76516 0
M  V30 13483 H 1286.49 4.8479 -3.53693 0
M  V30 13484 H 1287.56 3.43935 -3.41814 0
M  V30 13485 N 1288.9 1.00119 1.21713 0
M  V30 13486 C 1290.13 0.700172 1.95224 0
M  V30 13487 C 1290.55 -0.730138 1.73351 0
M  V30 13488 O 1289.91 -1.50026 1.01794 0
M  V30 13489 C 1289.96 1.02202 3.45814 0
M  V30 13490 O 1289.06 0.125188 4.1221 0
M  V30 13491 H 1288.4 0.261238 0.610451 0
M  V30 13492 H 1290.93 1.34041 1.54578 0
M  V30 13493 H 1290.94 0.967293 3.96368 0
M  V30 13494 H 1289.62 2.06422 3.61058 0
M  V30 13495 H 1288.2 0.236114 3.72152 0
M  V30 13496 N 1290.38 -1.37203 0.775435 0
M  V30 13497 C 1291.79 -1.82224 0.406372 0
M  V30 13498 C 1292.14 -1.64587 -1.06796 0
M  V30 13499 O 1291.27 -1.15903 -1.82744 0
M  V30 13500 C 1291.86 -3.30824 0.730819 0
M  V30 13501 C 1290.42 -3.74108 0.414766 0
M  V30 13502 C 1289.57 -2.59679 0.972747 0
M  V30 13503 H 1292.52 -1.25623 0.969775 0
M  V30 13504 H 1292.54 -3.80496 0.0168066 0
M  V30 13505 H 1292.05 -3.43628 1.80392 0
M  V30 13506 H 1290.15 -3.66871 -0.650866 0
M  V30 13507 H 1290.27 -4.70074 0.925595 0
M  V30 13508 H 1288.63 -2.51591 0.396772 0
M  V30 13509 H 1289.41 -2.75274 2.05132 0
M  V30 13510 N 1291.86 -0.526279 -1.48553 0
M  V30 13511 C 1293.1 0.00720852 -2.04399 0
M  V30 13512 C 1293.46 1.31928 -1.39495 0
M  V30 13513 O 1294.66 1.93857 -1.86206 0
M  V30 13514 C 1292.94 0.130517 -3.57162 0
M  V30 13515 S 1294.49 0.614604 -4.34474 0
M  V30 13516 H 1291.31 -0.0102902 -0.710926 0
M  V30 13517 H 1293.91 -0.705998 -1.82307 0
M  V30 13518 H 1292.62 -0.829304 -4.01934 0
M  V30 13519 H 1292.15 0.868213 -3.837 0
M  V30 13520 H 1294.16 1.87973 -4.59217 0
M  V30 13521 N 1293.34 1.5542 -0.261239 0
M  V30 13522 C 1294.57 2.03687 0.363225 0
M  V30 13523 C 1294.98 1.14007 1.50492 0
M  V30 13524 O 1294.34 0.157349 1.8182 0
M  V30 13525 C 1294.39 3.51184 0.857435 0
M  V30 13526 O 1294.11 4.37449 -0.238776 0
M  V30 13527 C 1295.61 4.15277 1.55113 0
M  V30 13528 H 1292.83 0.665641 0.0846356 0
M  V30 13529 H 1295.37 2.00761 -0.389288 0
M  V30 13530 H 1293.53 3.54599 1.56008 0
M  V30 13531 H 1293.94 5.24316 0.138821 0
M  V30 13532 H 1295.42 5.20129 1.8485 0
M  V30 13533 H 1295.89 3.62619 2.47799 0
M  V30 13534 H 1296.5 4.15826 0.892695 0
M  V30 13535 N 1294.82 -0.0116844 1.57596 0
M  V30 13536 C 1295.77 -1.01509 2.04157 0
M  V30 13537 C 1296.75 -1.31011 0.934076 0
M  V30 13538 O 1297.94 -1.30305 1.1979 0
M  V30 13539 C 1295.07 -2.31081 2.53883 0
M  V30 13540 C 1294.16 -2.04594 3.71486 0
M  V30 13541 N 1294.55 -1.48224 4.83594 0
M  V30 13542 C 1292.85 -2.34795 3.79193 0
M  V30 13543 C 1293.55 -1.37941 5.65108 0
M  V30 13544 N 1292.52 -1.861 5.10752 0
M  V30 13545 H 1296.32 -0.573556 2.88249 0
M  V30 13546 H 1293.84 -0.217632 1.60935 0
M  V30 13547 H 1295.84 -3.03793 2.85509 0
M  V30 13548 H 1294.5 -2.75897 1.71204 0
M  V30 13549 H 1295.51 -1.16261 5.04682 0
M  V30 13550 H 1292.18 -2.82566 3.07348 0
M  V30 13551 H 1293.57 -0.946997 6.65193 0
M  V30 13552 N 1296.29 -1.55015 -0.284256 0
M  V30 13553 C 1297.24 -1.87898 -1.37102 0
M  V30 13554 C 1298.24 -0.754231 -1.51683 0
M  V30 13555 O 1299.44 -0.93844 -1.53601 0
M  V30 13556 H 1295.82 -0.596208 -0.458301 0
M  V30 13557 H 1297.79 -2.78704 -1.06613 0
M  V30 13558 C 1296.54 -2.15764 -2.72656 0
M  V30 13559 H 1295.86 -3.01792 -2.62224 0
M  V30 13560 H 1297.3 -2.42701 -3.47667 0
M  V30 13561 C 1295.76 -0.961561 -3.22886 0
M  V30 13562 O 1296.29 -0.190489 -4.01248 0
M  V30 13563 N 1294.49 -0.762338 -2.80422 0
M  V30 13564 H 1294.04 -1.39104 -2.16813 0
M  V30 13565 H 1294 0.0363482 -3.14379 0
M  V30 13566 N 1297.77 0.548248 -1.47757 0
M  V30 13567 C 1299.18 1.13033 -1.48595 0
M  V30 13568 C 1299.53 1.94657 -0.245575 0
M  V30 13569 O 1298.66 2.06445 0.648813 0
M  V30 13570 C 1299.25 2.05657 -2.69241 0
M  V30 13571 C 1297.81 2.59119 -2.73009 0
M  V30 13572 C 1296.96 1.35686 -2.41836 0
M  V30 13573 H 1299.91 0.334397 -1.55137 0
M  V30 13574 H 1299.93 2.89671 -2.4672 0
M  V30 13575 H 1299.44 1.46222 -3.595 0
M  V30 13576 H 1297.54 3.22327 -1.86912 0
M  V30 13577 H 1297.66 2.99501 -3.73946 0
M  V30 13578 H 1296.02 1.66659 -1.92606 0
M  V30 13579 H 1296.8 0.780311 -3.34314 0
M  V30 13580 N 1299.25 1.36039 0.795694 0
M  V30 13581 C 1300.18 1.32528 1.92246 0
M  V30 13582 C 1301.16 0.197805 1.68946 0
M  V30 13583 O 1302.35 0.394474 1.90151 0
M  V30 13584 C 1299.48 1.10748 3.29169 0
M  V30 13585 C 1298.43 2.20253 3.66978 0
M  V30 13586 C 1297.76 1.83624 5.02181 0
M  V30 13587 C 1299.06 3.62296 3.76216 0
M  V30 13588 H 1300.75 2.2681 1.95442 0
M  V30 13589 H 1298.3 1.09181 0.938908 0
M  V30 13590 H 1300.25 1.06929 4.07608 0
M  V30 13591 H 1298.97 0.129141 3.26345 0
M  V30 13592 H 1297.63 2.23187 2.90832 0
M  V30 13593 H 1297.28 0.843804 4.95872 0
M  V30 13594 H 1296.98 2.56935 5.28449 0
M  V30 13595 H 1298.5 1.81349 5.83048 0
M  V30 13596 H 1299.92 3.61623 4.44861 0
M  V30 13597 H 1298.31 4.34459 4.13963 0
M  V30 13598 H 1299.38 3.97657 2.77483 0
M  V30 13599 N 1300.73 -1.01913 1.20215 0
M  V30 13600 C 1301.97 -1.7573 1.01226 0
M  V30 13601 C 1302.31 -1.88799 -0.45481 0
M  V30 13602 O 1301.58 -1.41196 -1.33768 0
M  V30 13603 C 1301.87 -3.17795 1.69348 0
M  V30 13604 C 1301.72 -3.12536 3.23483 0
M  V30 13605 C 1303.04 -4.16409 1.42448 0
M  V30 13606 H 1300.16 -0.637889 0.369144 0
M  V30 13607 H 1302.8 -1.18907 1.48193 0
M  V30 13608 H 1300.95 -3.66311 1.29416 0
M  V30 13609 H 1302.62 -2.71843 3.72692 0
M  V30 13610 H 1300.86 -2.49997 3.54519 0
M  V30 13611 H 1301.53 -4.12949 3.66302 0
M  V30 13612 H 1304.01 -3.76537 1.77086 0
M  V30 13613 H 1302.89 -5.13983 1.92648 0
M  V30 13614 H 1303.15 -4.407 0.351574 0
M  V30 13615 N 1302.21 -1.00763 -1.2118 0
M  V30 13616 C 1303.15 -0.563428 -2.25673 0
M  V30 13617 C 1304.15 0.393342 -1.6477 0
M  V30 13618 O 1305.35 0.264246 -1.7805 0
M  V30 13619 H 1301.73 -0.163862 -0.73393 0
M  V30 13620 H 1303.7 -1.45585 -2.60476 0
M  V30 13621 C 1302.45 0.0915599 -3.47579 0
M  V30 13622 H 1301.77 -0.635628 -3.94715 0
M  V30 13623 H 1303.21 0.36561 -4.22421 0
M  V30 13624 C 1301.67 1.33159 -3.09468 0
M  V30 13625 O 1302.2 2.42571 -3.20191 0
M  V30 13626 N 1300.41 1.21231 -2.64105 0
M  V30 13627 H 1299.95 0.322021 -2.55579 0
M  V30 13628 H 1299.91 2.04301 -2.38974 0
M  V30 13629 N 1303.68 1.3679 -0.7827 0
M  V30 13630 C 1304.93 1.99712 -0.352533 0
M  V30 13631 C 1305.26 1.61984 1.0712 0
M  V30 13632 O 1304.54 0.871342 1.7389 0
M  V30 13633 C 1304.82 3.5649 -0.508628 0
M  V30 13634 C 1304.67 4.04093 -1.97557 0
M  V30 13635 C 1305.99 4.40026 0.0804447 0
M  V30 13636 H 1303.11 0.725522 -0.129566 0
M  V30 13637 H 1305.75 1.62305 -0.987788 0
M  V30 13638 H 1303.9 3.88487 0.0321664 0
M  V30 13639 H 1305.58 3.82613 -2.57691 0
M  V30 13640 H 1303.82 3.55881 -2.48055 0
M  V30 13641 H 1304.49 5.13088 -2.03579 0
M  V30 13642 H 1306.97 4.14351 -0.381113 0
M  V30 13643 H 1305.84 5.48868 -0.0588424 0
M  V30 13644 H 1306.1 4.26285 1.17189 0
M  V30 13645 N 1305.16 0.53415 1.48272 0
M  V30 13646 C 1306.58 0.192291 1.58437 0
M  V30 13647 C 1306.78 -1.3046 1.53566 0
M  V30 13648 O 1305.83 -2.08316 1.42692 0
M  V30 13649 C 1307.15 0.798515 2.89904 0
M  V30 13650 C 1308.7 0.76763 3.03441 0
M  V30 13651 C 1309.17 1.3525 4.37574 0
M  V30 13652 N 1310.66 1.31466 4.44152 0
M  V30 13653 C 1311.4 1.73706 5.46456 0
M  V30 13654 N 1310.89 2.23695 6.55692 0
M  V30 13655 N 1312.69 1.64918 5.37363 0
M  V30 13656 H 1304.84 1.50696 1.49681 0
M  V30 13657 H 1307.1 0.627073 0.710973 0
M  V30 13658 H 1306.81 1.8496 2.99136 0
M  V30 13659 H 1306.68 0.278033 3.76174 0
M  V30 13660 H 1309.07 -0.274704 2.93819 0
M  V30 13661 H 1309.15 1.32562 2.18771 0
M  V30 13662 H 1308.79 2.39379 4.47951 0
M  V30 13663 H 1308.72 0.770153 5.20938 0
M  V30 13664 H 1311.21 0.948761 3.65796 0
M  V30 13665 H 1311.53 2.5391 7.29897 0
M  V30 13666 H 1309.87 2.27691 6.56644 0
M  V30 13667 H 1313.06 1.25658 4.50919 0
M  V30 13668 H 1313.23 1.98157 6.16958 0
M  V30 13669 N 1306.64 -1.55279 0.269478 0
M  V30 13670 C 1307.89 -1.99767 -0.34943 0
M  V30 13671 C 1308.22 -1.15762 -1.55926 0
M  V30 13672 O 1307.49 -0.22633 -1.93179 0
M  V30 13673 C 1307.78 -3.52474 -0.73716 0
M  V30 13674 C 1307.63 -4.47236 0.479621 0
M  V30 13675 C 1308.95 -4.10924 -1.57573 0
M  V30 13676 H 1306.07 -0.72623 -0.125535 0
M  V30 13677 H 1308.71 -1.86257 0.375298 0
M  V30 13678 H 1306.86 -3.64118 -1.35464 0
M  V30 13679 H 1308.53 -4.47543 1.11816 0
M  V30 13680 H 1306.78 -4.19127 1.11871 0
M  V30 13681 H 1307.45 -5.51754 0.164653 0
M  V30 13682 H 1309.92 -4.02522 -1.05429 0
M  V30 13683 H 1308.8 -5.17995 -1.81584 0
M  V30 13684 H 1309.06 -3.60798 -2.55495 0
M  V30 13685 N 1308.12 0.00332656 -1.576 0
M  V30 13686 C 1309.03 1.01221 -2.1164 0
M  V30 13687 C 1310.04 1.37918 -1.06088 0
M  V30 13688 O 1311.22 1.46717 -1.37971 0
M  V30 13689 C 1308.29 2.28638 -2.60626 0
M  V30 13690 C 1307.35 1.98284 -3.80765 0
M  V30 13691 C 1306.58 3.19626 -4.27405 0
M  V30 13692 O 1306.8 4.31196 -3.73398 0
M  V30 13693 O 1305.74 3.03819 -5.19594 0
M  V30 13694 H 1309.56 0.582839 -2.98055 0
M  V30 13695 H 1307.15 0.221947 -1.47742 0
M  V30 13696 H 1309.03 3.03498 -2.92347 0
M  V30 13697 H 1307.7 2.70819 -1.7731 0
M  V30 13698 H 1306.61 1.2091 -3.54022 0
M  V30 13699 H 1307.94 1.60942 -4.65144 0
M  V30 13700 N 1309.6 1.55164 0.276031 0
M  V30 13701 C 1311.01 1.46936 0.623061 0
M  V30 13702 C 1311.21 0.680977 1.89644 0
M  V30 13703 O 1310.27 0.198618 2.51718 0
M  V30 13704 C 1311.58 2.91123 0.752839 0
M  V30 13705 C 1313.13 3.01319 0.847093 0
M  V30 13706 C 1313.6 4.46755 1.00867 0
M  V30 13707 N 1315.1 4.5057 1.07427 0
M  V30 13708 C 1315.83 5.60314 1.21804 0
M  V30 13709 N 1315.33 6.7993 1.32919 0
M  V30 13710 N 1317.12 5.4805 1.2489 0
M  V30 13711 H 1309.27 2.04877 -0.560282 0
M  V30 13712 H 1311.53 0.928925 -0.189217 0
M  V30 13713 H 1311.24 3.51521 -0.112333 0
M  V30 13714 H 1311.11 3.39967 1.63408 0
M  V30 13715 H 1313.5 2.41021 1.70274 0
M  V30 13716 H 1313.58 2.55733 -0.0586896 0
M  V30 13717 H 1313.23 5.07655 0.1577 0
M  V30 13718 H 1313.16 4.89995 1.92906 0
M  V30 13719 H 1315.65 3.64404 1.00089 0
M  V30 13720 H 1315.96 7.59319 1.43714 0
M  V30 13721 H 1314.3 6.82747 1.29929 0
M  V30 13722 H 1317.5 4.53542 1.15834 0
M  V30 13723 H 1317.67 6.33621 1.3575 0
M  V30 13724 N 1311.07 -0.540404 1.48045 0
M  V30 13725 C 1312.32 -1.29678 1.55531 0
M  V30 13726 C 1312.65 -1.93197 0.224725 0
M  V30 13727 O 1311.9 -1.79308 -0.784028 0
M  V30 13728 C 1312.2 -2.41517 2.63447 0
M  V30 13729 C 1311.87 -1.95719 4.06208 0
M  V30 13730 C 1310.53 -1.82946 4.45067 0
M  V30 13731 C 1312.88 -1.6098 4.95717 0
M  V30 13732 C 1310.21 -1.33753 5.7125 0
M  V30 13733 C 1312.56 -1.13253 6.2238 0
M  V30 13734 C 1311.23 -0.990886 6.60104 0
M  V30 13735 H 1310.5 -0.474525 0.569129 0
M  V30 13736 H 1313.14 -0.604209 1.81718 0
M  V30 13737 H 1311.45 -3.16401 2.3108 0
M  V30 13738 H 1313.15 -2.9967 2.66457 0
M  V30 13739 H 1309.74 -2.06609 3.75514 0
M  V30 13740 H 1313.92 -1.69713 4.66381 0
M  V30 13741 H 1309.18 -1.21465 5.99213 0
M  V30 13742 H 1313.35 -0.854401 6.91139 0
M  V30 13743 H 1310.98 -0.607497 7.57769 0
M  V30 13744 N 1312.55 -1.36459 -0.788468 0
M  V30 13745 C 1313.5 -1.30863 -1.90115 0
M  V30 13746 C 1314.47 -0.177148 -1.65153 0
M  V30 13747 O 1315.65 -0.363817 -1.87299 0
M  V30 13748 C 1312.79 -1.10473 -3.2694 0
M  V30 13749 C 1311.91 -2.32704 -3.63968 0
M  V30 13750 C 1311.04 -2.05319 -4.89916 0
M  V30 13751 C 1310.08 -3.23506 -5.19625 0
M  V30 13752 N 1309.22 -2.9578 -6.36756 0
M  V30 13753 H 1314.06 -2.26003 -1.94233 0
M  V30 13754 H 1311.6 -1.12324 -0.949827 0
M  V30 13755 H 1313.55 -0.966773 -4.05844 0
M  V30 13756 H 1312.18 -0.189873 -3.22241 0
M  V30 13757 H 1311.24 -2.573 -2.8018 0
M  V30 13758 H 1312.55 -3.20899 -3.81871 0
M  V30 13759 H 1311.7 -1.88459 -5.76687 0
M  V30 13760 H 1310.44 -1.14437 -4.74084 0
M  V30 13761 H 1309.45 -3.40924 -4.31336 0
M  V30 13762 H 1310.67 -4.15216 -5.37376 0
M  V30 13763 H 1308.62 -2.0751 -6.22315 0
M  V30 13764 H 1308.53 -3.77513 -6.54996 0
M  V30 13765 H 1309.8 -2.825 -7.26508 0
M  V30 13766 N 1314.03 1.01274 -1.20754 0
M  V30 13767 C 1315.45 1.27256 -0.963221 0
M  V30 13768 C 1315.65 1.98349 0.354972 0
M  V30 13769 O 1314.7 2.28116 1.08255 0
M  V30 13770 C 1316.02 2.1038 -2.14851 0
M  V30 13771 C 1317.56 2.23633 -2.18991 0
M  V30 13772 C 1318.04 3.10136 -3.37016 0
M  V30 13773 N 1319.53 3.17724 -3.37054 0
M  V30 13774 C 1320.26 3.84891 -4.25025 0
M  V30 13775 N 1319.76 4.54152 -5.23181 0
M  V30 13776 N 1321.55 3.81454 -4.12855 0
M  V30 13777 H 1313.7 0.535534 -2.05538 0
M  V30 13778 H 1315.97 0.299006 -0.899611 0
M  V30 13779 H 1315.67 1.65484 -3.10335 0
M  V30 13780 H 1315.55 3.11122 -2.13267 0
M  V30 13781 H 1317.93 2.67753 -1.24067 0
M  V30 13782 H 1318.02 1.22387 -2.24622 0
M  V30 13783 H 1317.66 2.66721 -4.32229 0
M  V30 13784 H 1317.59 4.11478 -3.28623 0
M  V30 13785 H 1320.08 2.68412 -2.66014 0
M  V30 13786 H 1320.39 5.03084 -5.86623 0
M  V30 13787 H 1318.74 4.52964 -5.27113 0
M  V30 13788 H 1321.93 3.26494 -3.35439 0
M  V30 13789 H 1322.1 4.33523 -4.81624 0
M  V30 13790 N 1315.51 1.01404 1.20644 0
M  V30 13791 C 1316.79 0.617088 1.85611 0
M  V30 13792 C 1317.17 -0.904947 1.9072 0
M  V30 13793 O 1316.51 -1.79562 1.41315 0
M  V30 13794 C 1316.72 1.26193 3.25386 0
M  V30 13795 C 1318.07 1.37575 4.01694 0
M  V30 13796 O 1319.1 1.21795 3.34731 0
M  V30 13797 O 1317.96 1.6305 5.2161 0
M  V30 13798 H 1315.05 0.212579 0.799211 0
M  V30 13799 H 1317.6 1.11126 1.28254 0
M  V30 13800 H 1316.37 2.30206 3.16419 0
M  V30 13801 H 1315.99 0.754679 3.90372 0
M  V30 13802 N 1316.99 -1.36373 0.789944 0
M  V30 13803 C 1318.4 -1.81783 0.425677 0
M  V30 13804 C 1318.75 -1.65711 -1.05045 0
M  V30 13805 O 1317.87 -1.17835 -1.81505 0
M  V30 13806 C 1318.47 -3.3003 0.765866 0
M  V30 13807 C 1317.03 -3.73647 0.454421 0
M  V30 13808 C 1316.18 -2.58632 1.00023 0
M  V30 13809 H 1319.13 -1.24587 0.983044 0
M  V30 13810 H 1319.15 -3.80457 0.0571624 0
M  V30 13811 H 1318.66 -3.41696 1.84026 0
M  V30 13812 H 1316.76 -3.67541 -0.611918 0
M  V30 13813 H 1316.87 -4.69066 0.975401 0
M  V30 13814 H 1315.24 -2.51156 0.423434 0
M  V30 13815 H 1316.02 -2.73083 2.0804 0
M  V30 13816 N 1318.47 -0.542005 -1.47987 0
M  V30 13817 C 1319.41 0.227398 -2.31486 0
M  V30 13818 C 1320.41 0.923984 -1.41982 0
M  V30 13819 O 1321.61 0.847 -1.58827 0
M  V30 13820 H 1317.99 0.0922034 -0.746326 0
M  V30 13821 H 1319.96 -0.49625 -2.94245 0
M  V30 13822 C 1318.71 1.25384 -3.24306 0
M  V30 13823 H 1318.03 0.727243 -3.9313 0
M  V30 13824 H 1319.47 1.76337 -3.85592 0
M  V30 13825 C 1317.93 2.29378 -2.46754 0
M  V30 13826 O 1318.46 3.36034 -2.201 0
M  V30 13827 N 1316.67 2.02905 -2.08033 0
M  V30 13828 H 1316.21 1.16186 -2.2991 0
M  V30 13829 H 1316.17 2.72705 -1.56458 0
M  V30 13830 N 1319.94 1.55134 -0.277709 0
M  V30 13831 C 1320.88 2.20028 0.641913 0
M  V30 13832 C 1321.89 1.18578 1.11549 0
M  V30 13833 O 1323.08 1.45291 1.03695 0
M  V30 13834 C 1320.18 2.81443 1.88794 0
M  V30 13835 C 1319.35 4.08607 1.56074 0
M  V30 13836 C 1318.41 4.54045 2.6595 0
M  V30 13837 O 1317.44 5.19762 2.32026 0
M  V30 13838 N 1318.64 4.24403 3.96058 0
M  V30 13839 H 1321.4 2.99575 0.0864929 0
M  V30 13840 H 1318.96 1.61598 -0.0989178 0
M  V30 13841 H 1320.96 3.08784 2.616 0
M  V30 13842 H 1319.53 2.05873 2.35234 0
M  V30 13843 H 1318.75 3.88527 0.666388 0
M  V30 13844 H 1320.03 4.91455 1.31719 0
M  V30 13845 H 1319.43 3.71708 4.26439 0
M  V30 13846 H 1317.99 4.56509 4.65234 0
M  V30 13847 N 1321.42 0.00503138 1.57599 0
M  V30 13848 C 1322.65 -0.693231 1.95471 0
M  V30 13849 C 1323.07 -1.66233 0.880246 0
M  V30 13850 O 1322.43 -1.80582 -0.161164 0
M  V30 13851 C 1322.48 -1.39696 3.32442 0
M  V30 13852 O 1321.58 -2.51154 3.27101 0
M  V30 13853 H 1320.92 -0.184015 0.637992 0
M  V30 13854 H 1323.45 0.0597194 2.04513 0
M  V30 13855 H 1323.46 -1.75924 3.68123 0
M  V30 13856 H 1322.14 -0.686438 4.10196 0
M  V30 13857 H 1320.71 -2.17216 3.03103 0
M  V30 13858 N 1322.9 -1.55308 -0.267798 0
M  V30 13859 C 1323.83 -1.91555 -1.33525 0
M  V30 13860 C 1324.81 -0.778001 -1.51265 0
M  V30 13861 O 1326 -1.03657 -1.64222 0
M  V30 13862 C 1323.13 -2.19201 -2.69385 0
M  V30 13863 C 1322.08 -3.3501 -2.66369 0
M  V30 13864 C 1321.41 -3.48148 -4.05829 0
M  V30 13865 C 1322.71 -4.71265 -2.25182 0
M  V30 13866 H 1324.4 -2.80965 -1.03437 0
M  V30 13867 H 1321.95 -1.35183 -0.496141 0
M  V30 13868 H 1323.9 -2.43146 -3.44177 0
M  V30 13869 H 1322.62 -1.26596 -3.01067 0
M  V30 13870 H 1321.28 -3.11041 -1.94034 0
M  V30 13871 H 1320.93 -2.53 -4.34741 0
M  V30 13872 H 1320.63 -4.26014 -4.04704 0
M  V30 13873 H 1322.15 -3.74391 -4.82352 0
M  V30 13874 H 1323.57 -4.94719 -2.89699 0
M  V30 13875 H 1321.96 -5.52084 -2.3521 0
M  V30 13876 H 1323.03 -4.69735 -1.20319 0
M  V30 13877 N 1324.38 0.532545 -1.4833 0
M  V30 13878 C 1325.61 1.31331 -1.59874 0
M  V30 13879 C 1326.02 1.87028 -0.258037 0
M  V30 13880 O 1325.38 1.66272 0.752317 0
M  V30 13881 C 1325.43 2.46596 -2.64334 0
M  V30 13882 O 1325.15 1.93195 -3.93201 0
M  V30 13883 C 1326.65 3.38454 -2.86294 0
M  V30 13884 H 1323.87 0.399476 -0.539129 0
M  V30 13885 H 1326.41 0.642696 -1.94138 0
M  V30 13886 H 1324.57 3.09548 -2.32936 0
M  V30 13887 H 1324.98 2.68627 -4.50489 0
M  V30 13888 H 1326.46 4.15687 -3.63192 0
M  V30 13889 H 1326.93 3.93526 -1.95022 0
M  V30 13890 H 1327.54 2.81297 -3.18986 0
M  V30 13891 N 1325.86 1.36875 0.78122 0
M  V30 13892 C 1327.27 1.28236 1.35692 0
M  V30 13893 C 1327.62 -0.0742286 1.9606 0
M  V30 13894 O 1326.74 -0.97588 1.93146 0
M  V30 13895 C 1327.34 2.32215 2.46702 0
M  V30 13896 C 1325.9 2.2724 3.00065 0
M  V30 13897 C 1325.04 2.16553 1.73206 0
M  V30 13898 H 1327.99 1.47634 0.582217 0
M  V30 13899 H 1328.02 1.96333 3.25935 0
M  V30 13900 H 1327.53 3.30938 2.02735 0
M  V30 13901 H 1325.63 1.3201 3.48431 0
M  V30 13902 H 1325.74 3.20267 3.56323 0
M  V30 13903 H 1324.11 1.62941 1.95761 0
M  V30 13904 H 1324.89 3.17176 1.31356 0
M  V30 13905 N 1327.33 -1.00632 1.21289 0
M  V30 13906 C 1328.56 -1.77967 1.05524 0
M  V30 13907 C 1328.98 -1.84621 -0.395023 0
M  V30 13908 O 1328.33 -1.30664 -1.27409 0
M  V30 13909 C 1328.38 -3.21939 1.64432 0
M  V30 13910 O 1328.11 -3.15669 3.03784 0
M  V30 13911 C 1329.61 -4.1578 1.5376 0
M  V30 13912 H 1326.83 -0.559341 0.370646 0
M  V30 13913 H 1329.37 -1.26604 1.60598 0
M  V30 13914 H 1327.53 -3.70415 1.13453 0
M  V30 13915 H 1327.94 -4.06112 3.31924 0
M  V30 13916 H 1329.41 -5.14602 1.99722 0
M  V30 13917 H 1329.89 -4.36438 0.491811 0
M  V30 13918 H 1330.5 -3.73192 2.0398 0
M  V30 13919 N 1328.81 -1.02043 -1.20104 0
M  V30 13920 C 1329.76 -0.564679 -2.20897 0
M  V30 13921 C 1330.75 0.382041 -1.56299 0
M  V30 13922 O 1331.94 0.204384 -1.75816 0
M  V30 13923 C 1329.07 0.0917516 -3.43177 0
M  V30 13924 C 1328.15 -0.876903 -4.14935 0
M  V30 13925 N 1328.54 -2.03596 -4.63014 0
M  V30 13926 C 1326.84 -0.698538 -4.40496 0
M  V30 13927 C 1327.54 -2.64621 -5.18026 0
M  V30 13928 N 1326.52 -1.92651 -5.08317 0
M  V30 13929 H 1330.32 -1.44825 -2.5574 0
M  V30 13930 H 1327.83 -0.88628 -1.36084 0
M  V30 13931 H 1329.83 0.43582 -4.14616 0
M  V30 13932 H 1328.49 0.971116 -3.09838 0
M  V30 13933 H 1329.5 -2.41573 -4.58108 0
M  V30 13934 H 1326.18 0.132449 -4.1729 0
M  V30 13935 H 1327.57 -3.62732 -5.65575 0
M  V30 13936 N 1330.29 1.35952 -0.797165 0
M  V30 13937 C 1331.54 1.99327 -0.373695 0
M  V30 13938 C 1331.87 1.63111 1.05396 0
M  V30 13939 O 1331.14 0.889736 1.72956 0
M  V30 13940 C 1331.43 3.5593 -0.54641 0
M  V30 13941 C 1331.28 4.01975 -2.01832 0
M  V30 13942 C 1332.6 4.40087 0.0337694 0
M  V30 13943 H 1329.72 0.724107 -0.137254 0
M  V30 13944 H 1332.36 1.61248 -1.00495 0
M  V30 13945 H 1330.51 3.88499 -0.00903959 0
M  V30 13946 H 1332.18 3.79859 -2.61735 0
M  V30 13947 H 1330.43 3.5323 -2.51815 0
M  V30 13948 H 1331.1 5.109 -2.09009 0
M  V30 13949 H 1333.57 4.13923 -0.425039 0
M  V30 13950 H 1332.45 5.48775 -0.117054 0
M  V30 13951 H 1332.71 4.27504 1.12661 0
M  V30 13952 N 1331.77 0.549846 1.47697 0
M  V30 13953 C 1333 0.0276889 2.06881 0
M  V30 13954 C 1333.41 -1.26273 1.40359 0
M  V30 13955 O 1332.77 -1.75584 0.497644 0
M  V30 13956 C 1332.82 -0.179291 3.61055 0
M  V30 13957 O 1332.54 1.06002 4.25083 0
M  V30 13958 C 1334.04 -0.739571 4.37087 0
M  V30 13959 H 1331.26 0.0425016 0.669653 0
M  V30 13960 H 1333.81 0.761158 1.89807 0
M  V30 13961 H 1331.96 -0.862867 3.77668 0
M  V30 13962 H 1332.37 0.853137 5.17515 0
M  V30 13963 H 1333.85 -0.833722 5.45668 0
M  V30 13964 H 1334.33 -1.74915 4.02867 0
M  V30 13965 H 1334.93 -0.0919294 4.25201 0
M  V30 13966 N 1333.25 -1.54984 0.285932 0
M  V30 13967 C 1334.18 -2.25916 -0.590259 0
M  V30 13968 C 1335.16 -1.25319 -1.15018 0
M  V30 13969 O 1336.34 -1.54062 -1.18231 0
M  V30 13970 C 1333.47 -2.98849 -1.76936 0
M  V30 13971 C 1332.43 -4.06466 -1.3405 0
M  V30 13972 C 1331.75 -4.67032 -2.60356 0
M  V30 13973 C 1333.05 -5.20064 -0.482754 0
M  V30 13974 H 1334.75 -2.994 0.00131571 0
M  V30 13975 H 1332.29 -1.44 0.00207281 0
M  V30 13976 H 1334.25 -3.47186 -2.3883 0
M  V30 13977 H 1332.97 -2.22918 -2.38694 0
M  V30 13978 H 1331.63 -3.58957 -0.7447 0
M  V30 13979 H 1331.28 -3.87757 -3.20396 0
M  V30 13980 H 1330.98 -5.39703 -2.32368 0
M  V30 13981 H 1332.5 -5.18124 -3.23079 0
M  V30 13982 H 1333.91 -5.64387 -1.00697 0
M  V30 13983 H 1332.31 -5.99363 -0.297291 0
M  V30 13984 H 1333.38 -4.82358 0.495861 0
M  V30 13985 N 1334.72 -0.0133892 -1.57594 0
M  V30 13986 C 1335.95 0.679255 -1.95432 0
M  V30 13987 C 1336.37 1.66558 -0.889028 0
M  V30 13988 O 1335.72 1.82031 0.130755 0
M  V30 13989 C 1335.78 1.39943 -3.33314 0
M  V30 13990 O 1335.5 0.452643 -4.35755 0
M  V30 13991 C 1337 2.18535 -3.85691 0
M  V30 13992 H 1334.22 0.188337 -0.644026 0
M  V30 13993 H 1336.76 -0.0684861 -2.04385 0
M  V30 13994 H 1334.92 2.0987 -3.25628 0
M  V30 13995 H 1335.33 0.962243 -5.15598 0
M  V30 13996 H 1336.8 2.64403 -4.84557 0
M  V30 13997 H 1337.28 3.01779 -3.19102 0
M  V30 13998 H 1337.89 1.53598 -3.96595 0
M  V30 13999 N 1336.2 1.55448 0.259558 0
M  V30 14000 C 1337.43 1.80727 1.00723 0
M  V30 14001 C 1337.85 0.587354 1.79431 0
M  V30 14002 O 1337.2 -0.443819 1.77021 0
M  V30 14003 C 1337.25 3.04064 1.95517 0
M  V30 14004 O 1336.97 4.21346 1.19996 0
M  V30 14005 C 1338.48 3.42049 2.81988 0
M  V30 14006 H 1335.7 0.601713 0.296956 0
M  V30 14007 H 1338.24 2.02486 0.286273 0
M  V30 14008 H 1336.39 2.84392 2.63058 0
M  V30 14009 H 1336.81 4.91164 1.84006 0
M  V30 14010 H 1338.28 4.31485 3.44274 0
M  V30 14011 H 1338.76 2.62059 3.52451 0
M  V30 14012 H 1339.37 3.64027 2.19918 0
M  V30 14013 N 1337.68 -0.524672 1.4861 0
M  V30 14014 C 1339.09 -1.10655 1.50374 0
M  V30 14015 C 1339.44 -1.94242 0.276512 0
M  V30 14016 O 1338.57 -2.07451 -0.615887 0
M  V30 14017 C 1339.16 -2.01348 2.72478 0
M  V30 14018 C 1337.72 -2.54743 2.77097 0
M  V30 14019 C 1336.87 -1.31822 2.43964 0
M  V30 14020 H 1339.82 -0.309674 1.55649 0
M  V30 14021 H 1339.84 -2.85709 2.51297 0
M  V30 14022 H 1339.35 -1.40485 3.61781 0
M  V30 14023 H 1337.45 -3.19313 1.92016 0
M  V30 14024 H 1337.57 -2.93514 3.78664 0
M  V30 14025 H 1335.93 -1.63574 1.95233 0
M  V30 14026 H 1336.71 -0.727026 3.35513 0
M  V30 14027 N 1339.16 -1.37287 -0.77395 0
M  V30 14028 C 1340.38 -1.35734 -1.56815 0
M  V30 14029 C 1340.81 0.0555546 -1.88018 0
M  V30 14030 O 1340.17 1.03197 -1.49064 0
M  V30 14031 C 1340.21 -2.2008 -2.85652 0
M  V30 14032 O 1339.32 -1.60391 -3.79932 0
M  V30 14033 H 1338.66 -0.463881 -0.47509 0
M  V30 14034 H 1341.19 -1.80781 -0.958087 0
M  V30 14035 H 1341.2 -2.33215 -3.34776 0
M  V30 14036 H 1339.87 -3.22781 -2.6227 0
M  V30 14037 H 1338.45 -1.56285 -3.3857 0
M  V30 14038 N 1340.64 0.999871 -1.21821 0
M  V30 14039 C 1341.57 2.09044 -0.939852 0
M  V30 14040 C 1342.58 1.62609 0.0788987 0
M  V30 14041 O 1343.77 1.77832 -0.154241 0
M  V30 14042 C 1340.87 3.36641 -0.390618 0
M  V30 14043 C 1340.04 4.12139 -1.46493 0
M  V30 14044 C 1339.1 5.18023 -0.924019 0
M  V30 14045 O 1338.13 5.45996 -1.60864 0
M  V30 14046 N 1339.33 5.79926 0.258136 0
M  V30 14047 H 1342.1 2.33506 -1.8787 0
M  V30 14048 H 1339.66 1.16509 -1.12415 0
M  V30 14049 H 1341.65 4.04697 -0.0142349 0
M  V30 14050 H 1340.22 3.09298 0.453176 0
M  V30 14051 H 1339.44 3.38813 -2.01494 0
M  V30 14052 H 1340.73 4.59354 -2.18795 0
M  V30 14053 H 1340.12 5.59559 0.831288 0
M  V30 14054 H 1338.68 6.4925 0.575977 0
M  V30 14055 N 1342.11 1.02678 1.19562 0
M  V30 14056 C 1343.53 0.752027 1.70884 0
M  V30 14057 C 1343.88 -0.728523 1.82173 0
M  V30 14058 O 1343 -1.56799 1.49141 0
M  V30 14059 C 1343.6 1.35848 3.10372 0
M  V30 14060 C 1342.16 1.13236 3.58963 0
M  V30 14061 C 1341.3 1.45785 2.35886 0
M  V30 14062 H 1344.25 1.19497 1.04432 0
M  V30 14063 H 1344.27 0.754347 3.72948 0
M  V30 14064 H 1343.79 2.43604 3.02124 0
M  V30 14065 H 1341.89 0.0729271 3.72529 0
M  V30 14066 H 1342 1.81959 4.43202 0
M  V30 14067 H 1340.36 0.877125 2.3912 0
M  V30 14068 H 1341.15 2.54619 2.30269 0
M  V30 14069 N 1343.59 -1.35528 0.804364 0
M  V30 14070 C 1344.82 -2.03604 0.395013 0
M  V30 14071 C 1345.24 -1.60225 -0.985371 0
M  V30 14072 O 1344.6 -0.777844 -1.63766 0
M  V30 14073 C 1344.65 -3.57337 0.484011 0
M  V30 14074 O 1343.75 -4.09316 -0.503395 0
M  V30 14075 H 1343.09 -0.643089 0.165325 0
M  V30 14076 H 1345.62 -1.73171 1.08963 0
M  V30 14077 H 1345.63 -4.0647 0.353009 0
M  V30 14078 H 1344.31 -3.8826 1.49088 0
M  V30 14079 H 1342.89 -3.71412 -0.332817 0
M  V30 14080 N 1345.07 -0.557671 -1.47404 0
M  V30 14081 C 1346.3 -0.0366797 -2.07368 0
M  V30 14082 C 1346.72 1.2478 -1.40754 0
M  V30 14083 O 1346.08 1.74757 -0.48268 0
M  V30 14084 C 1346.13 0.141728 -3.60321 0
M  V30 14085 O 1345.23 1.20419 -3.94427 0
M  V30 14086 H 1344.57 -0.0515319 -0.661997 0
M  V30 14087 H 1347.1 -0.773485 -1.89416 0
M  V30 14088 H 1347.11 0.355787 -4.06446 0
M  V30 14089 H 1345.79 -0.796433 -4.08203 0
M  V30 14090 H 1344.36 0.970589 -3.60047 0
M  V30 14091 N 1346.55 1.54831 -0.294147 0
M  V30 14092 C 1347.5 2.19966 0.599919 0
M  V30 14093 C 1348.48 1.1704 1.1041 0
M  V30 14094 O 1349.68 1.42785 1.04601 0
M  V30 14095 C 1346.8 2.93875 1.77461 0
M  V30 14096 C 1345.89 4.0411 1.28671 0
M  V30 14097 N 1346.28 5.03158 0.516316 0
M  V30 14098 C 1344.58 4.17527 1.56804 0
M  V30 14099 C 1345.28 5.8113 0.257361 0
M  V30 14100 N 1344.26 5.37145 0.835221 0
M  V30 14101 H 1348.06 2.939 0.00369516 0
M  V30 14102 H 1345.57 1.621 -0.0985855 0
M  V30 14103 H 1347.57 3.39001 2.4266 0
M  V30 14104 H 1346.23 2.21456 2.3746 0
M  V30 14105 H 1347.24 5.17647 0.161855 0
M  V30 14106 H 1343.92 3.56309 2.17601 0
M  V30 14107 H 1345.31 6.7093 -0.360924 0
M  V30 14108 N 1348.03 0.0217466 1.57585 0
M  V30 14109 C 1349.44 -0.334576 1.56054 0
M  V30 14110 C 1349.64 -1.73386 1.02663 0
M  V30 14111 O 1348.7 -2.43447 0.670078 0
M  V30 14112 C 1350.01 -0.189919 3.001 0
M  V30 14113 C 1351.56 -0.263238 3.11891 0
M  V30 14114 C 1352.04 -0.147455 4.57763 0
M  V30 14115 N 1353.53 -0.204672 4.62748 0
M  V30 14116 C 1354.26 -0.138755 5.73232 0
M  V30 14117 N 1353.76 -0.0221762 6.92796 0
M  V30 14118 N 1355.55 -0.192206 5.61771 0
M  V30 14119 H 1347.7 0.936849 1.90622 0
M  V30 14120 H 1349.96 0.361119 0.876526 0
M  V30 14121 H 1349.67 0.773687 3.43084 0
M  V30 14122 H 1349.54 -0.963148 3.64696 0
M  V30 14123 H 1351.93 -1.2173 2.68823 0
M  V30 14124 H 1352.01 0.540241 2.5003 0
M  V30 14125 H 1351.66 0.803155 5.0151 0
M  V30 14126 H 1351.59 -0.969703 5.17595 0
M  V30 14127 H 1354.08 -0.29522 3.76745 0
M  V30 14128 H 1354.39 0.021631 7.72797 0
M  V30 14129 H 1352.74 0.0125033 6.94999 0
M  V30 14130 H 1355.93 -0.28163 4.67252 0
M  V30 14131 H 1356.1 -0.137372 6.47854 0
M  V30 14132 N 1349.51 -1.55583 -0.251311 0
M  V30 14133 C 1350.92 -1.47908 -0.599606 0
M  V30 14134 C 1351.12 -0.711061 -1.88537 0
M  V30 14135 O 1350.18 -0.238639 -2.5137 0
M  V30 14136 C 1351.49 -2.92284 -0.706429 0
M  V30 14137 C 1353.04 -3.02629 -0.799049 0
M  V30 14138 C 1353.51 -4.48303 -0.93747 0
M  V30 14139 N 1355 -4.52222 -1.00245 0
M  V30 14140 C 1355.74 -5.62181 -1.12874 0
M  V30 14141 N 1355.24 -6.81958 -1.22085 0
M  V30 14142 N 1357.03 -5.49968 -1.16155 0
M  V30 14143 H 1349.18 -2.0396 0.592806 0
M  V30 14144 H 1351.44 -0.925797 0.203971 0
M  V30 14145 H 1351.15 -3.51297 0.168243 0
M  V30 14146 H 1351.02 -3.42524 -1.57979 0
M  V30 14147 H 1353.41 -2.43699 -1.66418 0
M  V30 14148 H 1353.49 -2.55607 0.099367 0
M  V30 14149 H 1353.13 -5.07842 -0.0769166 0
M  V30 14150 H 1353.06 -4.93002 -1.85086 0
M  V30 14151 H 1355.56 -3.65951 -0.94279 0
M  V30 14152 H 1355.87 -7.6151 -1.31616 0
M  V30 14153 H 1354.21 -6.84728 -1.1905 0
M  V30 14154 H 1357.4 -4.55327 -1.08604 0
M  V30 14155 H 1357.58 -6.35701 -1.25653 0
M  V30 14156 N 1350.98 0.516783 -1.48886 0
M  V30 14157 C 1352.21 1.29628 -1.61258 0
M  V30 14158 C 1352.63 1.86744 -0.27786 0
M  V30 14159 O 1351.98 1.67061 0.734639 0
M  V30 14160 C 1352.03 2.43779 -2.66935 0
M  V30 14161 O 1351.76 1.89014 -3.95228 0
M  V30 14162 C 1353.26 3.35398 -2.89867 0
M  V30 14163 H 1350.48 0.393736 -0.543335 0
M  V30 14164 H 1353.02 0.622069 -1.94809 0
M  V30 14165 H 1351.18 3.0706 -2.36206 0
M  V30 14166 H 1351.59 2.63833 -4.53312 0
M  V30 14167 H 1353.06 4.11812 -3.6758 0
M  V30 14168 H 1353.54 3.91436 -1.99185 0
M  V30 14169 H 1354.15 2.77898 -3.21952 0
M  V30 14170 N 1352.46 1.37696 0.766659 0
M  V30 14171 C 1353.87 1.29668 1.34324 0
M  V30 14172 C 1354.22 -0.0534297 1.96127 0
M  V30 14173 O 1353.35 -0.95534 1.94171 0
M  V30 14174 C 1353.94 2.34818 2.44225 0
M  V30 14175 C 1352.5 2.3041 2.97638 0
M  V30 14176 C 1351.65 2.18378 1.70899 0
M  V30 14177 H 1354.6 1.48244 0.566526 0
M  V30 14178 H 1354.62 1.99778 3.23835 0
M  V30 14179 H 1354.13 3.3307 1.99214 0
M  V30 14180 H 1352.23 1.35698 3.47011 0
M  V30 14181 H 1352.35 3.24028 3.52906 0
M  V30 14182 H 1350.71 1.65008 1.94021 0
M  V30 14183 H 1351.49 3.18551 1.27985 0
M  V30 14184 N 1353.94 -0.993397 1.22349 0
M  V30 14185 C 1355.16 -1.77373 1.07488 0
M  V30 14186 C 1355.59 -1.84418 -0.37034 0
M  V30 14187 O 1354.95 -1.29629 -1.26752 0
M  V30 14188 C 1355 -3.18538 1.69014 0
M  V30 14189 O 1354.1 -4.01463 0.943474 0
M  V30 14190 H 1353.44 -0.546209 0.37756 0
M  V30 14191 H 1355.97 -1.24792 1.62136 0
M  V30 14192 H 1355.98 -3.6917 1.73717 0
M  V30 14193 H 1354.66 -3.12725 2.74182 0
M  V30 14194 H 1353.23 -3.59998 0.972415 0
M  V30 14195 N 1355.42 -1.03311 -1.19015 0
M  V30 14196 C 1356.69 -0.646539 -1.84606 0
M  V30 14197 C 1357.07 0.87449 -1.92135 0
M  V30 14198 O 1356.42 1.77291 -1.44154 0
M  V30 14199 C 1356.63 -1.31354 -3.23338 0
M  V30 14200 C 1357.98 -1.43949 -3.99455 0
M  V30 14201 O 1359 -1.27104 -3.32751 0
M  V30 14202 O 1357.86 -1.71328 -5.1895 0
M  V30 14203 H 1354.96 -0.225267 -0.795728 0
M  V30 14204 H 1357.5 -1.13152 -1.2647 0
M  V30 14205 H 1356.28 -2.3521 -3.12717 0
M  V30 14206 H 1355.9 -0.816688 -3.89122 0
M  V30 14207 N 1356.9 1.35099 -0.81154 0
M  V30 14208 C 1358.14 1.98233 -0.393453 0
M  V30 14209 C 1358.46 1.64688 1.04417 0
M  V30 14210 O 1357.73 0.931845 1.72318 0
M  V30 14211 H 1356.31 0.733283 -0.142496 0
M  V30 14212 H 1358.98 1.6493 -1.03847 0
M  V30 14213 H 1358.07 3.08017 -0.503188 0
M  V30 14214 N 1358.37 0.56548 1.47106 0
M  V30 14215 C 1359.34 -0.167191 2.28589 0
M  V30 14216 C 1360.34 -0.835005 1.3742 0
M  V30 14217 O 1361.53 -0.689598 1.59969 0
M  V30 14218 C 1358.66 -1.24548 3.17333 0
M  V30 14219 H 1359.85 0.548677 2.94838 0
M  V30 14220 H 1357.4 0.322749 1.52931 0
M  V30 14221 H 1358.14 -1.99348 2.55794 0
M  V30 14222 H 1357.92 -0.771335 3.84438 0
M  V30 14223 H 1359.41 -1.75985 3.78707 0
M  V30 14224 N 1359.85 -1.54672 0.302354 0
M  V30 14225 C 1360.78 -2.2653 -0.566265 0
M  V30 14226 C 1361.76 -1.26532 -1.13682 0
M  V30 14227 O 1362.95 -1.55307 -1.1659 0
M  V30 14228 C 1360.08 -3.00709 -1.73757 0
M  V30 14229 C 1359.03 -4.07865 -1.29731 0
M  V30 14230 C 1358.36 -4.69767 -2.55388 0
M  V30 14231 C 1359.66 -5.20547 -0.427567 0
M  V30 14232 H 1361.35 -2.99382 0.033071 0
M  V30 14233 H 1358.9 -1.4399 0.0173458 0
M  V30 14234 H 1360.85 -3.497 -2.35134 0
M  V30 14235 H 1359.58 -2.25437 -2.36317 0
M  V30 14236 H 1358.23 -3.59726 -0.706586 0
M  V30 14237 H 1357.88 -3.91134 -3.16265 0
M  V30 14238 H 1357.58 -5.42137 -2.26631 0
M  V30 14239 H 1359.11 -5.21521 -3.17566 0
M  V30 14240 H 1360.52 -5.65424 -0.947053 0
M  V30 14241 H 1358.92 -5.99645 -0.233704 0
M  V30 14242 H 1359.99 -4.81805 0.546993 0
M  V30 14243 N 1361.33 -0.0301034 -1.57571 0
M  V30 14244 C 1362.28 0.951421 -2.10277 0
M  V30 14245 C 1363.25 1.3224 -1.00508 0
M  V30 14246 O 1364.43 1.41554 -1.27934 0
M  V30 14247 C 1361.57 2.2282 -2.63525 0
M  V30 14248 C 1360.69 1.91359 -3.87306 0
M  V30 14249 C 1359.82 3.13339 -4.28943 0
M  V30 14250 C 1358.86 2.77701 -5.4548 0
M  V30 14251 N 1358 3.9231 -5.82269 0
M  V30 14252 H 1362.84 0.495049 -2.93859 0
M  V30 14253 H 1360.37 0.232756 -1.45247 0
M  V30 14254 H 1362.33 2.97502 -2.92487 0
M  V30 14255 H 1360.96 2.66072 -1.82772 0
M  V30 14256 H 1360.01 1.06915 -3.65066 0
M  V30 14257 H 1361.33 1.61112 -4.72064 0
M  V30 14258 H 1360.48 3.9634 -4.59347 0
M  V30 14259 H 1359.22 3.46747 -3.42954 0
M  V30 14260 H 1358.22 1.93113 -5.14769 0
M  V30 14261 H 1359.45 2.45508 -6.33169 0
M  V30 14262 H 1357.39 4.25559 -4.99235 0
M  V30 14263 H 1357.31 3.65691 -6.61669 0
M  V30 14264 H 1358.58 4.76012 -6.17279 0
M  V30 14265 N 1362.81 1.55714 0.243056 0
M  V30 14266 C 1364.22 1.68126 0.811814 0
M  V30 14267 C 1364.57 0.628259 1.85869 0
M  V30 14268 O 1363.7 -0.224747 2.1523 0
M  V30 14269 C 1364.29 3.048 1.47928 0
M  V30 14270 C 1362.85 3.19138 1.99569 0
M  V30 14271 C 1362 2.64011 0.848149 0
M  V30 14272 H 1364.95 1.58689 0.0187918 0
M  V30 14273 H 1364.97 2.99459 2.34743 0
M  V30 14274 H 1364.48 3.81417 0.717106 0
M  V30 14275 H 1362.58 2.4735 2.78655 0
M  V30 14276 H 1362.69 4.26095 2.19043 0
M  V30 14277 H 1361.06 2.21934 1.2497 0
M  V30 14278 H 1361.84 3.43157 0.0989987 0
M  V30 14279 N 1364.29 -0.50888 1.49158 0
M  V30 14280 C 1365.2 -1.63782 1.67966 0
M  V30 14281 C 1366.21 -1.64667 0.562207 0
M  V30 14282 O 1367.39 -1.83232 0.835935 0
M  V30 14283 C 1364.45 -3.00179 1.73474 0
M  V30 14284 C 1363.51 -3.09983 2.97 0
M  V30 14285 C 1362.75 -4.39875 3.02235 0
M  V30 14286 O 1362.97 -5.28214 2.15282 0
M  V30 14287 O 1361.9 -4.54486 3.94621 0
M  V30 14288 H 1365.73 -1.50846 2.63589 0
M  V30 14289 H 1363.32 -0.684306 1.32807 0
M  V30 14290 H 1365.2 -3.8126 1.79495 0
M  V30 14291 H 1363.87 -3.13394 0.810287 0
M  V30 14292 H 1362.78 -2.28119 2.965 0
M  V30 14293 H 1364.11 -3.01693 3.88899 0
M  V30 14294 N 1365.76 -1.381 -0.759346 0
M  V30 14295 C 1366.99 -1.37213 -1.54855 0
M  V30 14296 C 1367.41 0.0395175 -1.88759 0
M  V30 14297 O 1366.76 1.00462 -1.5236 0
M  V30 14298 C 1366.82 -2.22232 -2.85123 0
M  V30 14299 O 1366.54 -3.57897 -2.52668 0
M  V30 14300 C 1368.04 -2.29461 -3.79292 0
M  V30 14301 H 1365.26 -0.469542 -0.479345 0
M  V30 14302 H 1367.8 -1.81604 -0.940216 0
M  V30 14303 H 1365.96 -1.81317 -3.42349 0
M  V30 14304 H 1366.37 -4.02599 -3.36176 0
M  V30 14305 H 1367.84 -2.93246 -4.67665 0
M  V30 14306 H 1368.32 -1.3066 -4.19315 0
M  V30 14307 H 1368.93 -2.70741 -3.27993 0
M  V30 14308 N 1367.24 0.986894 -1.22875 0
M  V30 14309 C 1368.17 2.09628 -1.0285 0
M  V30 14310 C 1369.15 1.70019 0.0525118 0
M  V30 14311 O 1370.34 1.93883 -0.110874 0
M  V30 14312 C 1367.47 3.41866 -0.61194 0
M  V30 14313 C 1366.42 3.95351 -1.63956 0
M  V30 14314 C 1365.75 5.23707 -1.07865 0
M  V30 14315 C 1367.05 4.25354 -3.03102 0
M  V30 14316 H 1368.74 2.26639 -1.95641 0
M  V30 14317 H 1366.29 1.0891 -0.942048 0
M  V30 14318 H 1368.24 4.18893 -0.458936 0
M  V30 14319 H 1366.97 3.24701 0.35164 0
M  V30 14320 H 1365.62 3.20462 -1.78045 0
M  V30 14321 H 1365.27 5.02888 -0.106246 0
M  V30 14322 H 1364.97 5.60459 -1.76522 0
M  V30 14323 H 1366.5 6.03362 -0.937359 0
M  V30 14324 H 1367.91 4.93156 -2.92353 0
M  V30 14325 H 1366.31 4.73292 -3.68938 0
M  V30 14326 H 1367.38 3.32887 -3.52583 0
M  V30 14327 N 1368.72 1.0394 1.18466 0
M  V30 14328 C 1369.65 0.650182 2.24265 0
M  V30 14329 C 1370.63 -0.345968 1.66545 0
M  V30 14330 O 1371.82 -0.226348 1.92876 0
M  V30 14331 C 1368.95 0.0110451 3.47298 0
M  V30 14332 C 1367.9 0.930599 4.17761 0
M  V30 14333 C 1367.23 0.156005 5.34472 0
M  V30 14334 C 1368.53 2.24913 4.71393 0
M  V30 14335 H 1370.22 1.53465 2.57078 0
M  V30 14336 H 1367.77 0.739343 1.23571 0
M  V30 14337 H 1369.72 -0.272959 4.20515 0
M  V30 14338 H 1368.44 -0.908288 3.13716 0
M  V30 14339 H 1367.1 1.19897 3.4644 0
M  V30 14340 H 1366.75 -0.765695 4.97138 0
M  V30 14341 H 1366.45 0.768606 5.82551 0
M  V30 14342 H 1367.97 -0.121011 6.1048 0
M  V30 14343 H 1369.39 2.02592 5.36311 0
M  V30 14344 H 1367.79 2.81459 5.30001 0
M  V30 14345 H 1368.86 2.8965 3.88884 0
M  V30 14346 N 1370.2 -1.34667 0.818693 0
M  V30 14347 C 1371.16 -2.27908 0.243037 0
M  V30 14348 C 1372.16 -1.50106 -0.576622 0
M  V30 14349 O 1373.35 -1.69701 -0.393342 0
M  V30 14350 C 1370.48 -3.34455 -0.659759 0
M  V30 14351 H 1371.68 -2.80332 1.06555 0
M  V30 14352 H 1369.23 -1.44727 0.590237 0
M  V30 14353 H 1369.96 -2.87238 -1.50549 0
M  V30 14354 H 1369.75 -3.92031 -0.073567 0
M  V30 14355 H 1371.24 -4.04016 -1.05646 0
M  V30 14356 N 1371.68 -0.573274 -1.46804 0
M  V30 14357 C 1372.9 -0.0586717 -2.07317 0
M  V30 14358 C 1373.33 1.2328 -1.42069 0
M  V30 14359 O 1372.68 1.74235 -0.501188 0
M  V30 14360 C 1372.73 0.103503 -3.60451 0
M  V30 14361 O 1371.84 1.16229 -3.95682 0
M  V30 14362 H 1371.18 -0.0585504 -0.661414 0
M  V30 14363 H 1373.71 -0.793532 -1.88585 0
M  V30 14364 H 1373.72 0.312658 -4.068 0
M  V30 14365 H 1372.39 -0.839684 -4.07335 0
M  V30 14366 H 1370.97 0.932347 -3.61056 0
M  V30 14367 N 1373.15 1.5451 -0.310553 0
M  V30 14368 C 1374.57 1.59543 0.0425296 0
M  V30 14369 C 1374.77 1.32737 1.51602 0
M  V30 14370 O 1373.83 1.10543 2.27016 0
M  V30 14371 C 1375.14 2.98489 -0.364002 0
M  V30 14372 C 1376.69 3.11425 -0.313566 0
M  V30 14373 C 1377.16 4.52695 -0.695064 0
M  V30 14374 N 1378.65 4.58645 -0.647966 0
M  V30 14375 C 1379.39 5.66044 -0.915508 0
M  V30 14376 N 1378.88 6.81439 -1.24951 0
M  V30 14377 N 1380.68 5.55759 -0.841933 0
M  V30 14378 H 1372.83 1.70194 -1.27074 0
M  V30 14379 H 1375.09 0.795374 -0.515833 0
M  V30 14380 H 1374.8 3.23061 -1.39012 0
M  V30 14381 H 1374.67 3.76177 0.27756 0
M  V30 14382 H 1377.06 2.86596 0.703326 0
M  V30 14383 H 1377.14 2.35871 -0.989883 0
M  V30 14384 H 1376.78 4.78255 -1.70981 0
M  V30 14385 H 1376.71 5.266 0.00342684 0
M  V30 14386 H 1379.2 3.75765 -0.401137 0
M  V30 14387 H 1379.52 7.59277 -1.43938 0
M  V30 14388 H 1377.86 6.82968 -1.28764 0
M  V30 14389 H 1381.05 4.64486 -0.58058 0
M  V30 14390 H 1381.23 6.39374 -1.0538 0
M  V30 14391 N 1374.63 0.0384594 1.57553 0
M  V30 14392 C 1375.86 -0.651613 1.96898 0
M  V30 14393 C 1376.28 -1.64328 0.915308 0
M  V30 14394 O 1375.64 -1.80883 -0.122824 0
M  V30 14395 C 1375.69 -1.32613 3.3533 0
M  V30 14396 O 1374.79 -2.44159 3.32355 0
M  V30 14397 H 1374.13 -0.170441 0.641752 0
M  V30 14398 H 1376.66 0.103086 2.0434 0
M  V30 14399 H 1376.67 -1.68076 3.71772 0
M  V30 14400 H 1375.35 -0.599275 4.1156 0
M  V30 14401 H 1373.93 -2.10738 3.07642 0
M  V30 14402 N 1376.11 -1.55841 -0.234795 0
M  V30 14403 C 1377.52 -1.68555 -0.802886 0
M  V30 14404 C 1377.87 -0.638107 -1.85533 0
M  V30 14405 O 1377 0.21333 -2.15346 0
M  V30 14406 C 1377.59 -3.0558 -1.46309 0
M  V30 14407 C 1376.15 -3.20192 -1.97874 0
M  V30 14408 C 1375.3 -2.64457 -0.834136 0
M  V30 14409 H 1378.25 -1.58697 -0.0103759 0
M  V30 14410 H 1378.27 -3.007 -2.33152 0
M  V30 14411 H 1377.78 -3.81792 -0.696868 0
M  V30 14412 H 1375.88 -2.48825 -2.77339 0
M  V30 14413 H 1376 -4.27251 -2.1678 0
M  V30 14414 H 1374.36 -2.22593 -1.23791 0
M  V30 14415 H 1375.14 -3.43205 -0.0807988 0
M  V30 14416 N 1377.59 0.500963 -1.49426 0
M  V30 14417 C 1378.81 1.28383 -1.62888 0
M  V30 14418 C 1379.24 1.85688 -0.300262 0
M  V30 14419 O 1378.6 1.6586 0.73212 0
M  V30 14420 C 1378.65 2.38987 -2.70033 0
M  V30 14421 O 1377.75 3.42837 -2.29208 0
M  V30 14422 H 1377.09 0.379012 -0.545202 0
M  V30 14423 H 1379.62 0.59971 -1.95613 0
M  V30 14424 H 1379.63 2.84749 -2.92202 0
M  V30 14425 H 1378.31 1.96643 -3.66475 0
M  V30 14426 H 1376.88 3.02993 -2.1737 0
M  V30 14427 N 1379.07 1.38501 0.752011 0
M  V30 14428 C 1380.29 1.38212 1.54636 0
M  V30 14429 C 1380.72 -0.0256356 1.88083 0
M  V30 14430 O 1380.08 -1.00812 1.50687 0
M  V30 14431 C 1380.12 2.24597 2.82114 0
M  V30 14432 O 1379.23 1.66415 3.77332 0
M  V30 14433 H 1378.57 0.47138 0.46765 0
M  V30 14434 H 1381.1 1.82283 0.929205 0
M  V30 14435 H 1381.11 2.38511 3.31023 0
M  V30 14436 H 1379.78 3.26913 2.57101 0
M  V30 14437 H 1378.36 1.61651 3.36041 0
M  V30 14438 N 1380.55 -0.980364 1.23396 0
M  V30 14439 C 1381.49 -2.09401 1.01262 0
M  V30 14440 C 1382.49 -1.69331 -0.0483957 0
M  V30 14441 O 1383.69 -1.79693 0.105109 0
M  V30 14442 H 1380.07 -0.684969 0.310358 0
M  V30 14443 H 1382.04 -2.25236 1.95732 0
M  V30 14444 C 1380.79 -3.42118 0.620526 0
M  V30 14445 H 1380.11 -3.73402 1.42868 0
M  V30 14446 H 1381.55 -4.2098 0.505169 0
M  V30 14447 C 1380.01 -3.30146 -0.671208 0
M  V30 14448 O 1380.54 -3.62997 -1.72034 0
M  V30 14449 N 1378.75 -2.83303 -0.647137 0
M  V30 14450 H 1378.29 -2.56767 0.206957 0
M  V30 14451 H 1378.25 -2.75675 -1.51165 0
M  V30 14452 N 1382.02 -1.04567 -1.17913 0
M  V30 14453 C 1383.27 -0.750538 -1.87647 0
M  V30 14454 C 1383.59 0.72423 -1.81052 0
M  V30 14455 O 1382.86 1.52292 -1.23223 0
M  V30 14456 H 1381.44 -0.274636 -0.694683 0
M  V30 14457 H 1384.1 -1.32349 -1.43072 0
M  V30 14458 H 1383.2 -1.05987 -2.93553 0
M  V30 14459 N 1383.5 1.34231 -0.825823 0
M  V30 14460 C 1384.43 2.31997 -0.264546 0
M  V30 14461 C 1385.41 1.58375 0.620592 0
M  V30 14462 O 1386.6 1.86341 0.546865 0
M  V30 14463 C 1383.73 3.42557 0.572025 0
M  V30 14464 C 1382.68 4.27454 -0.216219 0
M  V30 14465 C 1382.01 5.29509 0.743279 0
M  V30 14466 C 1383.31 5.02456 -1.42603 0
M  V30 14467 H 1385 2.79189 -1.08139 0
M  V30 14468 H 1382.55 1.34227 -0.521451 0
M  V30 14469 H 1384.5 4.09968 0.974889 0
M  V30 14470 H 1383.22 2.94021 1.42195 0
M  V30 14471 H 1381.88 3.61649 -0.600485 0
M  V30 14472 H 1381.53 4.77234 1.58924 0
M  V30 14473 H 1381.23 5.87188 0.220064 0
M  V30 14474 H 1382.76 5.99789 1.14394 0
M  V30 14475 H 1384.17 5.62706 -1.09702 0
M  V30 14476 H 1382.57 5.69723 -1.88509 0
M  V30 14477 H 1383.64 4.31983 -2.2027 0
M  V30 14478 N 1384.98 0.581051 1.46498 0
M  V30 14479 C 1386.2 0.0696654 2.07283 0
M  V30 14480 C 1386.63 -1.22525 1.42721 0
M  V30 14481 O 1385.99 -1.73967 0.510421 0
M  V30 14482 C 1386.04 -0.0843864 3.60501 0
M  V30 14483 O 1385.14 -1.14129 3.96293 0
M  V30 14484 H 1384.48 0.0620572 0.661094 0
M  V30 14485 H 1387.01 0.803522 1.88161 0
M  V30 14486 H 1387.02 -0.29108 4.0696 0
M  V30 14487 H 1385.7 0.861274 4.06884 0
M  V30 14488 H 1384.27 -0.913186 3.61546 0
M  V30 14489 N 1386.46 -1.54343 0.318742 0
M  V30 14490 C 1387.87 -1.85922 -0.170309 0
M  V30 14491 C 1388.22 -1.24047 -1.52009 0
M  V30 14492 O 1387.34 -0.544705 -2.09432 0
M  V30 14493 C 1387.94 -3.37325 -0.315802 0
M  V30 14494 C 1386.5 -3.68871 -0.749073 0
M  V30 14495 C 1385.65 -2.76985 0.13209 0
M  V30 14496 H 1388.6 -1.4926 0.539185 0
M  V30 14497 H 1388.62 -3.62784 -1.14751 0
M  V30 14498 H 1388.13 -3.8233 0.66674 0
M  V30 14499 H 1386.23 -3.29396 -1.74153 0
M  V30 14500 H 1386.34 -4.75861 -0.556164 0
M  V30 14501 H 1384.71 -2.51672 -0.391564 0
M  V30 14502 H 1385.49 -3.24815 1.11131 0
M  V30 14503 N 1387.94 -0.0468143 -1.5753 0
M  V30 14504 C 1389.16 0.641161 -1.97241 0
M  V30 14505 C 1389.59 1.6384 -0.92401 0
M  V30 14506 O 1388.94 1.80946 0.113229 0
M  V30 14507 C 1388.99 1.30832 -3.36029 0
M  V30 14508 O 1388.1 2.42394 -3.33645 0
M  V30 14509 H 1387.44 0.167035 -0.642647 0
M  V30 14510 H 1389.97 -0.113921 -2.04283 0
M  V30 14511 H 1389.98 1.66102 -3.72658 0
M  V30 14512 H 1388.65 0.57744 -4.11872 0
M  V30 14513 H 1387.23 2.09104 -3.08756 0
M  V30 14514 N 1389.41 1.55964 0.226527 0
M  V30 14515 C 1390.83 1.68978 0.793936 0
M  V30 14516 C 1391.18 0.647938 1.85192 0
M  V30 14517 O 1390.3 -0.201907 2.15456 0
M  V30 14518 C 1390.9 3.06351 1.44687 0
M  V30 14519 C 1389.46 3.21237 1.96173 0
M  V30 14520 C 1388.6 2.64896 0.8201 0
M  V30 14521 H 1391.55 1.587 0.00195967 0
M  V30 14522 H 1391.57 3.01932 2.31554 0
M  V30 14523 H 1391.09 3.82156 0.676611 0
M  V30 14524 H 1389.19 2.50292 2.76016 0
M  V30 14525 H 1389.3 4.28394 2.14512 0
M  V30 14526 H 1387.66 2.23247 1.22609 0
M  V30 14527 H 1388.45 3.43243 0.0625967 0
M  V30 14528 N 1390.89 -0.493031 1.4969 0
M  V30 14529 C 1392.14 -1.24418 1.59263 0
M  V30 14530 C 1392.46 -1.92908 0.284882 0
M  V30 14531 O 1391.73 -1.83108 -0.696302 0
M  V30 14532 H 1390.31 -0.462223 0.586821 0
M  V30 14533 H 1392.97 -0.570713 1.86357 0
M  V30 14534 H 1392.07 -2.00386 2.39274 0
M  V30 14535 N 1392.37 -1.38898 -0.744656 0
M  V30 14536 C 1393.33 -1.36633 -1.84022 0
M  V30 14537 C 1394.33 -0.265187 -1.58598 0
M  V30 14538 O 1395.52 -0.522569 -1.66177 0
M  V30 14539 C 1392.66 -1.12938 -3.21649 0
M  V30 14540 H 1393.85 -2.34111 -1.87435 0
M  V30 14541 H 1391.4 -1.24322 -0.947302 0
M  V30 14542 H 1392.14 -0.161027 -3.239 0
M  V30 14543 H 1391.92 -1.9267 -3.41498 0
M  V30 14544 H 1393.41 -1.14071 -4.01718 0
M  V30 14545 N 1393.85 0.973806 -1.23914 0
M  V30 14546 C 1395.1 1.71259 -1.07307 0
M  V30 14547 C 1395.42 1.91064 0.389831 0
M  V30 14548 O 1394.69 1.48401 1.27883 0
M  V30 14549 H 1393.27 0.634588 -0.39409 0
M  V30 14550 H 1395.93 1.17184 -1.55737 0
M  V30 14551 H 1395.03 2.69953 -1.56626 0
M  V30 14552 N 1395.33 1.05191 1.17357 0
M  V30 14553 C 1396.26 0.597207 2.20247 0
M  V30 14554 C 1397.24 -0.374194 1.58236 0
M  V30 14555 O 1398.42 -0.285815 1.86321 0
M  V30 14556 C 1395.55 -0.126012 3.38466 0
M  V30 14557 C 1394.59 0.800401 4.18922 0
M  V30 14558 S 1395.43 2.28956 4.84086 0
M  V30 14559 C 1396.58 1.57751 6.05694 0
M  V30 14560 H 1396.82 1.46893 2.58476 0
M  V30 14561 H 1394.35 0.863874 1.27971 0
M  V30 14562 H 1396.31 -0.537086 4.06971 0
M  V30 14563 H 1394.97 -0.97377 2.98624 0
M  V30 14564 H 1394.16 0.240754 5.03425 0
M  V30 14565 H 1393.76 1.15084 3.55853 0
M  V30 14566 H 1396.06 0.876839 6.71802 0
M  V30 14567 H 1397 2.40001 6.66187 0
M  V30 14568 H 1397.41 1.06493 5.54364 0
M  V30 14569 N 1396.8 -1.33791 0.83293 0
M  V30 14570 C 1397.73 -2.31853 0.276846 0
M  V30 14571 C 1398.72 -1.58702 -0.612184 0
M  V30 14572 O 1399.9 -1.86629 -0.536975 0
M  V30 14573 C 1397.03 -3.42855 -0.55385 0
M  V30 14574 C 1395.98 -4.27333 0.238884 0
M  V30 14575 C 1395.31 -5.29895 -0.715187 0
M  V30 14576 C 1396.61 -5.01692 1.45265 0
M  V30 14577 H 1398.3 -2.78611 1.09618 0
M  V30 14578 H 1395.85 -1.33949 0.528562 0
M  V30 14579 H 1397.8 -4.10479 -0.953133 0
M  V30 14580 H 1396.53 -2.94771 -1.40634 0
M  V30 14581 H 1395.19 -3.61325 0.619656 0
M  V30 14582 H 1394.83 -4.7807 -1.56391 0
M  V30 14583 H 1394.53 -5.87296 -0.188921 0
M  V30 14584 H 1396.06 -6.00387 -1.11211 0
M  V30 14585 H 1397.47 -5.62117 1.12685 0
M  V30 14586 H 1395.87 -5.68715 1.91528 0
M  V30 14587 H 1396.94 -4.30809 2.22558 0
M  V30 14588 N 1398.28 -0.588812 -1.46187 0
M  V30 14589 C 1399.23 0.140932 -2.30369 0
M  V30 14590 C 1400.2 0.878216 -1.40984 0
M  V30 14591 O 1401.38 0.867678 -1.69929 0
M  V30 14592 C 1398.52 1.14468 -3.25563 0
M  V30 14593 C 1397.64 0.410215 -4.30048 0
M  V30 14594 C 1396.77 1.40203 -5.12364 0
M  V30 14595 C 1395.81 0.65431 -6.08593 0
M  V30 14596 N 1394.95 1.59448 -6.83755 0
M  V30 14597 H 1399.79 -0.582976 -2.92242 0
M  V30 14598 H 1397.33 -0.299302 -1.44023 0
M  V30 14599 H 1399.28 1.73957 -3.79203 0
M  V30 14600 H 1397.91 1.83623 -2.65485 0
M  V30 14601 H 1396.97 -0.299822 -3.79217 0
M  V30 14602 H 1398.28 -0.174043 -4.98496 0
M  V30 14603 H 1397.43 2.06953 -5.70312 0
M  V30 14604 H 1396.17 2.02022 -4.4389 0
M  V30 14605 H 1395.18 -0.0269371 -5.49793 0
M  V30 14606 H 1396.4 0.0414285 -6.79087 0
M  V30 14607 H 1394.35 2.20066 -6.17986 0
M  V30 14608 H 1394.26 1.06318 -7.48487 0
M  V30 14609 H 1395.53 2.25215 -7.46256 0
M  V30 14610 N 1399.76 1.54172 -0.326923 0
M  V30 14611 C 1400.99 2.05044 0.276508 0
M  V30 14612 C 1401.4 1.20288 1.45521 0
M  V30 14613 O 1400.76 0.234324 1.80989 0
M  V30 14614 C 1400.81 3.54505 0.707714 0
M  V30 14615 O 1400.53 4.36042 -0.424098 0
M  V30 14616 C 1402.03 4.21482 1.3736 0
M  V30 14617 H 1399.25 0.668632 0.0563273 0
M  V30 14618 H 1401.8 1.98929 -0.474087 0
M  V30 14619 H 1399.95 3.60896 1.40828 0
M  V30 14620 H 1400.37 5.24433 -0.0836846 0
M  V30 14621 H 1401.84 5.27501 1.62623 0
M  V30 14622 H 1402.32 3.72802 2.32196 0
M  V30 14623 H 1402.92 4.19238 0.715526 0
M  V30 14624 N 1401.24 0.0551678 1.57503 0
M  V30 14625 C 1402.65 -0.479948 1.80426 0
M  V30 14626 C 1403 -1.70673 0.967733 0
M  V30 14627 O 1402.13 -2.15604 0.185462 0
M  V30 14628 C 1402.72 -0.877496 3.27239 0
M  V30 14629 C 1401.28 -1.35757 3.51066 0
M  V30 14630 C 1400.43 -0.334681 2.75273 0
M  V30 14631 H 1403.38 0.281016 1.56192 0
M  V30 14632 H 1403.4 -1.74013 3.38378 0
M  V30 14633 H 1402.91 0.015571 3.88097 0
M  V30 14634 H 1401.01 -2.26969 2.95492 0
M  V30 14635 H 1401.12 -1.34697 4.59776 0
M  V30 14636 H 1399.49 -0.808421 2.4153 0
M  V30 14637 H 1400.27 0.550369 3.3886 0
M  V30 14638 N 1402.72 -1.56081 -0.218252 0
M  V30 14639 C 1403.94 -1.83681 -0.963119 0
M  V30 14640 C 1404.37 -0.635909 -1.77025 0
M  V30 14641 O 1403.72 0.415327 -1.76479 0
M  V30 14642 C 1403.77 -3.09302 -1.85376 0
M  V30 14643 O 1402.88 -2.88228 -2.94955 0
M  V30 14644 H 1402.22 -0.605495 -0.272529 0
M  V30 14645 H 1404.75 -2.03297 -0.230567 0
M  V30 14646 H 1404.76 -3.39493 -2.26294 0
M  V30 14647 H 1403.43 -3.96337 -1.26054 0
M  V30 14648 H 1402.01 -2.69279 -2.57959 0
M  V30 14649 N 1404.2 0.485086 -1.49949 0
M  V30 14650 C 1405.61 1.06629 -1.53255 0
M  V30 14651 C 1405.96 1.9344 -0.327915 0
M  V30 14652 O 1405.08 2.09011 0.560669 0
M  V30 14653 C 1405.68 1.94053 -2.77721 0
M  V30 14654 C 1404.24 2.47307 -2.83754 0
M  V30 14655 C 1403.38 1.25307 -2.47373 0
M  V30 14656 H 1406.33 0.268297 -1.56416 0
M  V30 14657 H 1406.36 2.78946 -2.58784 0
M  V30 14658 H 1405.87 1.30843 -3.65379 0
M  V30 14659 H 1403.97 3.1411 -2.00414 0
M  V30 14660 H 1404.08 2.83371 -3.86313 0
M  V30 14661 H 1402.45 1.5834 -1.99501 0
M  V30 14662 H 1403.23 0.637815 -3.37323 0
M  V30 14663 N 1405.67 1.39291 0.737279 0
M  V30 14664 C 1406.9 1.39844 1.53162 0
M  V30 14665 C 1407.32 -0.00568546 1.88099 0
M  V30 14666 O 1406.68 -0.992085 1.51748 0
M  V30 14667 C 1406.73 2.27577 2.79716 0
M  V30 14668 O 1405.83 1.70408 3.75546 0
M  V30 14669 H 1405.17 0.476314 0.462624 0
M  V30 14670 H 1407.7 1.83258 0.909819 0
M  V30 14671 H 1407.71 2.42009 3.28475 0
M  V30 14672 H 1406.39 3.29621 2.53619 0
M  V30 14673 H 1404.97 1.65206 3.34307 0
M  V30 14674 N 1407.15 -0.967221 1.24429 0
M  V30 14675 C 1408.57 -1.23594 1.00979 0
M  V30 14676 C 1408.77 -1.99529 -0.281112 0
M  V30 14677 O 1407.82 -2.31977 -0.997139 0
M  V30 14678 C 1409.14 -2.02261 2.22511 0
M  V30 14679 C 1410.68 -2.15352 2.2714 0
M  V30 14680 C 1411.16 -2.97414 3.48294 0
M  V30 14681 N 1412.65 -3.04996 3.48614 0
M  V30 14682 C 1413.39 -3.68851 4.39017 0
M  V30 14683 N 1412.88 -4.34421 5.39676 0
M  V30 14684 N 1414.67 -3.65868 4.26728 0
M  V30 14685 H 1406.83 -0.458881 2.07384 0
M  V30 14686 H 1409.09 -0.265411 0.910088 0
M  V30 14687 H 1408.79 -1.53852 3.16263 0
M  V30 14688 H 1408.67 -3.02993 2.24667 0
M  V30 14689 H 1411.06 -2.62964 1.33919 0
M  V30 14690 H 1411.14 -1.13966 2.2901 0
M  V30 14691 H 1410.78 -2.50495 4.41831 0
M  V30 14692 H 1410.71 -3.98998 3.43668 0
M  V30 14693 H 1413.2 -2.58354 2.75793 0
M  V30 14694 H 1413.51 -4.80965 6.04891 0
M  V30 14695 H 1411.86 -4.33089 5.43562 0
M  V30 14696 H 1415.05 -3.13819 3.47325 0
M  V30 14697 H 1415.22 -4.15349 4.97382 0
M  V30 14698 N 1408.63 -1.05812 -1.16797 0
M  V30 14699 C 1409.91 -0.685551 -1.83193 0
M  V30 14700 C 1410.29 0.833539 -1.93947 0
M  V30 14701 O 1409.63 1.74193 -1.47882 0
M  V30 14702 C 1409.84 -1.38183 -3.20479 0
M  V30 14703 C 1411.19 -1.52389 -3.96311 0
M  V30 14704 O 1412.22 -1.34134 -3.2998 0
M  V30 14705 O 1411.08 -1.82297 -5.15199 0
M  V30 14706 H 1408.17 -0.242095 -0.790771 0
M  V30 14707 H 1410.72 -1.15809 -1.24041 0
M  V30 14708 H 1409.49 -2.41791 -3.07657 0
M  V30 14709 H 1409.11 -0.899043 -3.87302 0
M  V30 14710 N 1410.11 1.33347 -0.840014 0
M  V30 14711 C 1411.52 1.80077 -0.492851 0
M  V30 14712 C 1411.87 1.69495 0.988221 0
M  V30 14713 O 1410.99 1.2449 1.77006 0
M  V30 14714 C 1411.59 3.2696 -0.887827 0
M  V30 14715 C 1410.15 3.71703 -0.592785 0
M  V30 14716 C 1409.3 2.54742 -1.09554 0
M  V30 14717 H 1412.25 1.20853 -1.02861 0
M  V30 14718 H 1412.27 3.79983 -0.198327 0
M  V30 14719 H 1411.78 3.3463 -1.96581 0
M  V30 14720 H 1409.88 3.69559 0.475086 0
M  V30 14721 H 1409.99 4.65123 -1.14882 0
M  V30 14722 H 1408.36 2.49411 -0.516357 0
M  V30 14723 H 1409.14 2.65173 -2.18032 0
M  V30 14724 N 1411.59 0.596556 1.45873 0
M  V30 14725 C 1412.83 0.0872856 2.01911 0
M  V30 14726 C 1413.15 -1.28257 1.46885 0
M  V30 14727 O 1412.42 -1.84489 0.658837 0
M  V30 14728 H 1411 0.0292769 0.746426 0
M  V30 14729 H 1413.67 0.775464 1.78809 0
M  V30 14730 H 1412.76 0.0287213 3.12087 0
M  V30 14731 N 1413.06 -1.53996 0.335095 0
M  V30 14732 C 1413.97 -2.28436 -0.534244 0
M  V30 14733 C 1414.99 -1.33224 -1.11926 0
M  V30 14734 O 1416.17 -1.66252 -1.13676 0
M  V30 14735 C 1413.23 -3.03634 -1.67354 0
M  V30 14736 C 1412.29 -4.14455 -1.11916 0
M  V30 14737 C 1411.52 -4.86058 -2.20416 0
M  V30 14738 O 1411.75 -4.57263 -3.40979 0
M  V30 14739 O 1410.68 -5.72704 -1.85185 0
M  V30 14740 H 1414.51 -3.03618 0.0706314 0
M  V30 14741 H 1412.09 -1.49062 0.100409 0
M  V30 14742 H 1413.97 -3.50687 -2.33659 0
M  V30 14743 H 1412.65 -2.31317 -2.26438 0
M  V30 14744 H 1411.56 -3.71725 -0.420871 0
M  V30 14745 H 1412.89 -4.8885 -0.573295 0
M  V30 14746 N 1414.54 -0.0635198 -1.57472 0
M  V30 14747 C 1415.79 0.607484 -1.93173 0
M  V30 14748 C 1416.12 1.70117 -0.942897 0
M  V30 14749 O 1415.37 1.95653 0.042832 0
M  V30 14750 C 1415.67 1.23117 -3.35525 0
M  V30 14751 C 1415.34 0.264457 -4.50124 0
M  V30 14752 C 1414 -0.00151762 -4.812 0
M  V30 14753 C 1416.35 -0.39737 -5.19683 0
M  V30 14754 C 1413.68 -0.936547 -5.79177 0
M  V30 14755 C 1416.03 -1.32067 -6.18661 0
M  V30 14756 C 1414.69 -1.59519 -6.48159 0
M  V30 14757 H 1413.96 0.222294 -0.706871 0
M  V30 14758 H 1416.61 -0.132633 -1.9104 0
M  V30 14759 H 1414.92 2.04684 -3.34084 0
M  V30 14760 H 1416.61 1.7575 -3.60434 0
M  V30 14761 H 1413.2 0.481945 -4.25882 0
M  V30 14762 H 1417.39 -0.20499 -4.95876 0
M  V30 14763 H 1412.64 -1.15658 -6.00361 0
M  V30 14764 H 1416.82 -1.83949 -6.71666 0
M  V30 14765 H 1414.44 -2.32134 -7.23891 0
M  V30 14766 N 1416.02 1.56195 0.209972 0
M  V30 14767 C 1417.43 1.69811 0.775969 0
M  V30 14768 C 1417.78 0.667543 1.84495 0
M  V30 14769 O 1416.91 -0.179043 2.15658 0
M  V30 14770 C 1417.5 3.07869 1.41429 0
M  V30 14771 C 1416.06 3.233 1.92755 0
M  V30 14772 C 1415.21 2.6575 0.791958 0
M  V30 14773 H 1418.16 1.58693 -0.0148727 0
M  V30 14774 H 1418.18 3.04371 2.28339 0
M  V30 14775 H 1417.69 3.82853 0.63604 0
M  V30 14776 H 1415.79 2.53206 2.73345 0
M  V30 14777 H 1415.91 4.30645 2.09956 0
M  V30 14778 H 1414.27 2.24535 1.20234 0
M  V30 14779 H 1415.05 3.4329 0.0261877 0
M  V30 14780 N 1417.5 -0.477127 1.50204 0
M  V30 14781 C 1418.91 -0.81037 1.37496 0
M  V30 14782 C 1419.11 -1.96937 0.426399 0
M  V30 14783 O 1418.17 -2.52148 -0.133197 0
M  V30 14784 C 1419.48 -1.12811 2.78737 0
M  V30 14785 C 1421.03 -1.23492 2.87608 0
M  V30 14786 C 1421.51 -1.58583 4.29669 0
M  V30 14787 N 1423 -1.65586 4.32591 0
M  V30 14788 C 1423.73 -1.94231 5.39502 0
M  V30 14789 N 1423.23 -2.20936 6.56627 0
M  V30 14790 N 1425.02 -1.95682 5.26939 0
M  V30 14791 H 1417.17 0.286771 2.10455 0
M  V30 14792 H 1419.43 0.0657649 0.945716 0
M  V30 14793 H 1419.14 -0.349616 3.49958 0
M  V30 14794 H 1419.01 -2.0658 3.15602 0
M  V30 14795 H 1421.4 -2.0041 2.1661 0
M  V30 14796 H 1421.48 -0.277182 2.54294 0
M  V30 14797 H 1421.13 -0.822071 5.01203 0
M  V30 14798 H 1421.06 -2.55497 4.60466 0
M  V30 14799 H 1423.55 -1.47012 3.48132 0
M  V30 14800 H 1423.86 -2.42049 7.33916 0
M  V30 14801 H 1422.21 -2.18341 6.59812 0
M  V30 14802 H 1425.4 -1.74311 4.34434 0
M  V30 14803 H 1425.57 -2.1767 6.10347 0
M  V30 14804 N 1418.98 -1.3968 -0.729882 0
M  V30 14805 C 1419.91 -1.41549 -1.85704 0
M  V30 14806 C 1420.89 -0.278186 -1.6781 0
M  V30 14807 O 1422.07 -0.484749 -1.88053 0
M  V30 14808 C 1419.2 -1.26327 -3.2351 0
M  V30 14809 C 1418.16 -2.37511 -3.56051 0
M  V30 14810 C 1417.48 -2.07375 -4.92849 0
M  V30 14811 C 1418.78 -3.79833 -3.58502 0
M  V30 14812 H 1420.48 -2.35877 -1.84398 0
M  V30 14813 H 1418.02 -1.13536 -0.885747 0
M  V30 14814 H 1419.98 -1.26254 -4.02042 0
M  V30 14815 H 1418.7 -0.284697 -3.25357 0
M  V30 14816 H 1417.36 -2.36809 -2.79852 0
M  V30 14817 H 1417.01 -1.07943 -4.91281 0
M  V30 14818 H 1416.71 -2.81855 -5.15588 0
M  V30 14819 H 1418.23 -2.08961 -5.73731 0
M  V30 14820 H 1419.64 -3.82436 -4.27101 0
M  V30 14821 H 1418.04 -4.53715 -3.92763 0
M  V30 14822 H 1419.11 -4.10443 -2.58195 0
M  V30 14823 N 1420.45 0.960609 -1.2494 0
M  V30 14824 C 1421.87 1.51915 -1.0853 0
M  V30 14825 C 1422.22 1.93215 0.340949 0
M  V30 14826 O 1421.34 1.78031 1.2302 0
M  V30 14827 C 1421.94 2.76069 -1.96396 0
M  V30 14828 C 1420.5 3.28255 -1.84189 0
M  V30 14829 C 1419.64 2.01124 -1.90905 0
M  V30 14830 H 1422.59 0.778141 -1.38314 0
M  V30 14831 H 1422.61 3.49668 -1.50042 0
M  V30 14832 H 1422.13 2.45979 -3.00193 0
M  V30 14833 H 1420.23 3.6318 -0.832518 0
M  V30 14834 H 1420.34 3.96675 -2.68673 0
M  V30 14835 H 1418.7 2.16155 -1.34718 0
M  V30 14836 H 1419.49 1.73389 -2.96295 0
M  V30 14837 N 1421.93 1.0643 1.16234 0
M  V30 14838 C 1423.21 0.695256 1.82827 0
M  V30 14839 C 1423.59 -0.823242 1.94386 0
M  V30 14840 O 1422.94 -1.73406 1.48804 0
M  V30 14841 C 1423.15 1.3988 3.19741 0
M  V30 14842 C 1424.5 1.54489 3.95498 0
M  V30 14843 O 1425.52 1.35882 3.29264 0
M  V30 14844 O 1424.38 1.85027 5.14225 0
M  V30 14845 H 1421.47 0.246285 0.789476 0
M  V30 14846 H 1424.02 1.16466 1.23426 0
M  V30 14847 H 1422.79 2.43419 3.06371 0
M  V30 14848 H 1422.41 0.91957 3.8682 0
M  V30 14849 N 1423.41 -1.329 0.847073 0
M  V30 14850 C 1424.82 -1.79813 0.502394 0
M  V30 14851 C 1425.17 -1.70017 -0.979218 0
M  V30 14852 O 1424.3 -1.25427 -1.76344 0
M  V30 14853 C 1424.89 -3.26485 0.905154 0
M  V30 14854 C 1423.45 -3.71383 0.612489 0
M  V30 14855 C 1422.6 -2.54157 1.10903 0
M  V30 14856 H 1425.55 -1.20306 1.035 0
M  V30 14857 H 1425.57 -3.79872 0.218476 0
M  V30 14858 H 1425.08 -3.33583 1.98353 0
M  V30 14859 H 1423.18 -3.69806 -0.45548 0
M  V30 14860 H 1423.3 -4.64507 1.17347 0
M  V30 14861 H 1421.66 -2.49134 0.529576 0
M  V30 14862 H 1422.44 -2.64013 2.19435 0
M  V30 14863 N 1424.89 -0.604284 -1.45555 0
M  V30 14864 C 1425.84 0.129013 -2.32242 0
M  V30 14865 C 1426.83 0.862933 -1.45773 0
M  V30 14866 O 1428.04 0.778874 -1.62276 0
M  V30 14867 H 1424.41 0.0604661 -0.749565 0
M  V30 14868 H 1426.38 -0.620603 -2.91875 0
M  V30 14869 C 1425.13 1.11516 -3.29332 0
M  V30 14870 H 1424.45 0.559849 -3.95861 0
M  V30 14871 H 1425.89 1.59824 -3.92724 0
M  V30 14872 C 1424.35 2.18706 -2.5626 0
M  V30 14873 O 1424.88 3.26397 -2.34154 0
M  V30 14874 N 1423.09 1.93899 -2.16452 0
M  V30 14875 H 1422.64 1.0633 -2.34631 0
M  V30 14876 H 1422.59 2.65824 -1.67884 0
M  V30 14877 N 1426.37 1.53816 -0.343257 0
M  V30 14878 C 1427.61 2.01207 0.253721 0
M  V30 14879 C 1427.95 1.23069 1.50225 0
M  V30 14880 O 1427.22 0.31824 1.91879 0
M  V30 14881 C 1427.5 3.5559 0.56815 0
M  V30 14882 C 1427.36 4.44438 -0.692457 0
M  V30 14883 C 1428.68 4.17974 1.37788 0
M  V30 14884 H 1425.79 0.731392 0.0907427 0
M  V30 14885 H 1428.44 1.84254 -0.463736 0
M  V30 14886 H 1426.59 3.70166 1.17937 0
M  V30 14887 H 1428.26 4.41698 -1.33042 0
M  V30 14888 H 1426.5 4.13312 -1.3174 0
M  V30 14889 H 1427.17 5.5034 -0.427715 0
M  V30 14890 H 1429.65 4.07094 0.861043 0
M  V30 14891 H 1428.52 5.26068 1.56663 0
M  V30 14892 H 1428.79 3.72577 2.3799 0
M  V30 14893 N 1427.84 0.0718701 1.57436 0
M  V30 14894 C 1429.09 -0.598116 1.93779 0
M  V30 14895 C 1429.42 -1.69258 0.952131 0
M  V30 14896 O 1428.7 -1.94491 -0.0186426 0
M  V30 14897 C 1428.98 -1.17499 3.40391 0
M  V30 14898 C 1428.83 -0.0871719 4.49716 0
M  V30 14899 C 1430.15 -2.08047 3.8782 0
M  V30 14900 H 1427.27 -0.215954 0.704651 0
M  V30 14901 H 1429.91 0.137854 1.89499 0
M  V30 14902 H 1428.06 -1.80221 3.44169 0
M  V30 14903 H 1429.74 0.545906 4.58058 0
M  V30 14904 H 1427.98 0.582213 4.29875 0
M  V30 14905 H 1428.65 -0.531202 5.49438 0
M  V30 14906 H 1431.13 -1.5526 3.86049 0
M  V30 14907 H 1430 -2.45345 4.91016 0
M  V30 14908 H 1430.26 -2.98879 3.25766 0
M  V30 14909 N 1429.32 -1.56304 -0.201686 0
M  V30 14910 C 1430.57 -1.80237 -0.923093 0
M  V30 14911 C 1430.9 -0.643994 -1.83529 0
M  V30 14912 O 1430.15 0.370613 -1.92159 0
M  V30 14913 C 1430.45 -3.10101 -1.77686 0
M  V30 14914 C 1430.12 -4.393 -1.0162 0
M  V30 14915 C 1428.78 -4.74399 -0.806161 0
M  V30 14916 C 1431.13 -5.1898 -0.480515 0
M  V30 14917 C 1428.46 -5.8668 -0.0488423 0
M  V30 14918 C 1430.81 -6.32051 0.26356 0
M  V30 14919 C 1429.48 -6.65738 0.484679 0
M  V30 14920 H 1428.75 -0.659533 -0.337784 0
M  V30 14921 H 1431.39 -1.90556 -0.189895 0
M  V30 14922 H 1429.7 -2.9499 -2.57853 0
M  V30 14923 H 1431.39 -3.25823 -2.33753 0
M  V30 14924 H 1427.98 -4.11751 -1.18992 0
M  V30 14925 H 1432.17 -4.92283 -0.630208 0
M  V30 14926 H 1427.42 -6.11256 0.13251 0
M  V30 14927 H 1431.6 -6.93012 0.686058 0
M  V30 14928 H 1429.23 -7.52583 1.07341 0
M  V30 14929 N 1430.8 0.469154 -1.50455 0
M  V30 14930 C 1432.21 1.04997 -1.54378 0
M  V30 14931 C 1432.56 1.93082 -0.348414 0
M  V30 14932 O 1431.69 2.09594 0.538469 0
M  V30 14933 C 1432.28 1.91096 -2.79764 0
M  V30 14934 C 1430.84 2.44283 -2.86361 0
M  V30 14935 C 1429.99 1.22676 -2.48688 0
M  V30 14936 H 1432.94 0.251692 -1.56691 0
M  V30 14937 H 1432.96 2.76186 -2.61728 0
M  V30 14938 H 1432.47 1.26961 -3.66746 0
M  V30 14939 H 1430.57 3.11966 -2.03735 0
M  V30 14940 H 1430.69 2.79258 -3.89297 0
M  V30 14941 H 1429.05 1.56215 -2.01169 0
M  V30 14942 H 1429.83 0.602002 -3.37981 0
M  V30 14943 N 1432.28 1.40065 0.722464 0
M  V30 14944 C 1433.69 1.33876 1.30131 0
M  V30 14945 C 1434.04 0.00899369 1.96198 0
M  V30 14946 O 1433.17 -0.893082 1.97112 0
M  V30 14947 C 1433.76 2.42469 2.36631 0
M  V30 14948 C 1432.32 2.39762 2.90157 0
M  V30 14949 C 1431.47 2.23704 1.63865 0
M  V30 14950 H 1434.42 1.49971 0.519077 0
M  V30 14951 H 1434.44 2.0998 3.17315 0
M  V30 14952 H 1433.95 3.39239 1.88517 0
M  V30 14953 H 1432.05 1.46669 3.42519 0
M  V30 14954 H 1432.16 3.35092 3.42419 0
M  V30 14955 H 1430.53 1.71098 1.88674 0
M  V30 14956 H 1431.31 3.22462 1.17785 0
M  V30 14957 N 1433.76 -0.95397 1.25448 0
M  V30 14958 C 1434.99 -1.73331 1.12977 0
M  V30 14959 C 1435.4 -1.86131 -0.316364 0
M  V30 14960 O 1434.76 -1.35951 -1.21753 0
M  V30 14961 C 1434.81 -3.14675 1.77938 0
M  V30 14962 O 1434.53 -3.025 3.16899 0
M  V30 14963 C 1436.03 -4.08884 1.71256 0
M  V30 14964 H 1433.25 -0.543118 0.394036 0
M  V30 14965 H 1435.79 -1.19678 1.65823 0
M  V30 14966 H 1433.95 -3.6527 1.29062 0
M  V30 14967 H 1434.36 -3.91668 3.4885 0
M  V30 14968 H 1435.84 -5.05668 2.21368 0
M  V30 14969 H 1436.31 -4.33959 0.676476 0
M  V30 14970 H 1436.92 -3.64205 2.19624 0
M  V30 14971 N 1435.24 -1.07045 -1.15668 0
M  V30 14972 C 1436.65 -0.814932 -1.67975 0
M  V30 14973 C 1437 0.660408 -1.84751 0
M  V30 14974 O 1436.12 1.51156 -1.54857 0
M  V30 14975 C 1436.72 -1.47274 -3.05116 0
M  V30 14976 C 1435.28 -1.26481 -3.54513 0
M  V30 14977 C 1434.42 -1.54439 -2.30312 0
M  V30 14978 H 1437.37 -1.23291 -0.999251 0
M  V30 14979 H 1437.4 -0.892244 -3.69891 0
M  V30 14980 H 1436.91 -2.54649 -2.92874 0
M  V30 14981 H 1435.01 -0.211138 -3.72001 0
M  V30 14982 H 1435.12 -1.98283 -4.36143 0
M  V30 14983 H 1433.49 -0.965269 -2.357 0
M  V30 14984 H 1434.27 -2.6299 -2.20661 0
M  V30 14985 N 1436.71 1.32449 -0.85411 0
M  V30 14986 C 1438.13 1.50046 -0.543895 0
M  V30 14987 C 1438.33 1.78985 0.925561 0
M  V30 14988 O 1437.39 1.85909 1.70862 0
M  V30 14989 C 1438.7 2.64499 -1.43041 0
M  V30 14990 C 1440.25 2.78384 -1.43078 0
M  V30 14991 C 1440.72 3.95915 -2.3025 0
M  V30 14992 N 1442.21 4.03176 -2.28043 0
M  V30 14993 C 1442.95 4.9335 -2.92221 0
M  V30 14994 N 1442.44 5.88536 -3.6551 0
M  V30 14995 N 1444.24 4.86468 -2.81612 0
M  V30 14996 H 1436.39 1.11931 -1.80514 0
M  V30 14997 H 1438.65 0.551626 -0.770982 0
M  V30 14998 H 1438.36 2.49842 -2.47532 0
M  V30 14999 H 1438.23 3.60269 -1.11742 0
M  V30 15000 H 1440.62 2.92464 -0.393529 0
M  V30 15001 H 1440.7 1.83329 -1.78393 0
M  V30 15002 H 1440.34 3.82594 -3.34043 0
M  V30 15003 H 1440.27 4.90245 -1.92268 0
M  V30 15004 H 1442.76 3.35064 -1.74759 0
M  V30 15005 H 1443.08 6.54038 -4.11648 0
M  V30 15006 H 1441.42 5.88564 -3.69618 0
M  V30 15007 H 1444.61 4.11076 -2.23907 0
M  V30 15008 H 1444.79 5.56542 -3.3191 0
M  V30 15009 N 1438.19 0.611994 1.45232 0
M  V30 15010 C 1439.61 0.276005 1.57195 0
M  V30 15011 C 1439.81 -1.22136 1.60266 0
M  V30 15012 O 1438.86 -2.00459 1.53533 0
M  V30 15013 C 1440.18 0.951064 2.85263 0
M  V30 15014 C 1441.72 0.927398 2.98945 0
M  V30 15015 C 1442.2 1.58255 4.2979 0
M  V30 15016 N 1443.69 1.54825 4.36559 0
M  V30 15017 C 1444.43 2.02428 5.3648 0
M  V30 15018 N 1443.92 2.58137 6.42913 0
M  V30 15019 N 1445.71 1.9317 5.27865 0
M  V30 15020 H 1437.87 1.58418 1.41483 0
M  V30 15021 H 1440.13 0.663879 0.676734 0
M  V30 15022 H 1439.83 2.00557 2.88912 0
M  V30 15023 H 1439.71 0.477044 3.74171 0
M  V30 15024 H 1442.1 -0.118571 2.94862 0
M  V30 15025 H 1442.18 1.43973 2.11437 0
M  V30 15026 H 1441.82 2.62787 4.34632 0
M  V30 15027 H 1441.75 1.04521 5.16123 0
M  V30 15028 H 1444.24 1.14133 3.60253 0
M  V30 15029 H 1444.55 2.92243 7.15412 0
M  V30 15030 H 1442.9 2.62179 6.43652 0
M  V30 15031 H 1446.09 1.49384 4.43624 0
M  V30 15032 H 1446.26 2.30582 6.05587 0
M  V30 15033 N 1439.67 -1.53632 0.351409 0
M  V30 15034 C 1440.92 -2.0203 -0.235687 0
M  V30 15035 C 1441.27 -1.23456 -1.47569 0
M  V30 15036 O 1440.56 -0.315958 -1.88977 0
M  V30 15037 C 1440.76 -3.5242 -0.594561 0
M  V30 15038 C 1440.59 -4.45556 0.60911 0
M  V30 15039 C 1439.36 -4.92803 1.11684 0
M  V30 15040 C 1441.55 -4.92845 1.46999 0
M  V30 15041 N 1439.54 -5.6991 2.28201 0
M  V30 15042 C 1440.91 -5.68153 2.48198 0
M  V30 15043 C 1442.96 -4.7494 1.49452 0
M  V30 15044 C 1441.67 -6.27461 3.51689 0
M  V30 15045 C 1443.69 -5.35104 2.51829 0
M  V30 15046 C 1443.05 -6.10286 3.51753 0
M  V30 15047 H 1439.15 -0.780442 -0.0493383 0
M  V30 15048 H 1441.74 -1.88361 0.492752 0
M  V30 15049 H 1439.91 -3.66278 -1.29209 0
M  V30 15050 H 1441.64 -3.87553 -1.16552 0
M  V30 15051 H 1438.39 -4.68639 0.683686 0
M  V30 15052 H 1438.82 -6.13131 2.87053 0
M  V30 15053 H 1443.46 -4.16352 0.73557 0
M  V30 15054 H 1441.18 -6.85153 4.28475 0
M  V30 15055 H 1444.76 -5.23153 2.54563 0
M  V30 15056 H 1443.64 -6.56012 4.29672 0
M  V30 15057 N 1441.15 -0.0802183 -1.57396 0
M  V30 15058 C 1442.1 0.901668 -2.14412 0
M  V30 15059 C 1443.09 1.30247 -1.08314 0
M  V30 15060 O 1444.3 1.27873 -1.26682 0
M  V30 15061 H 1440.67 0.308748 -0.685696 0
M  V30 15062 H 1442.64 0.395934 -2.95762 0
M  V30 15063 C 1441.39 2.15665 -2.72734 0
M  V30 15064 H 1440.71 1.8571 -3.54051 0
M  V30 15065 H 1442.15 2.82461 -3.16214 0
M  V30 15066 C 1440.61 2.9208 -1.67901 0
M  V30 15067 O 1441.14 3.86087 -1.10903 0
M  V30 15068 N 1439.35 2.55343 -1.38739 0
M  V30 15069 H 1438.9 1.78969 -1.85278 0
M  V30 15070 H 1438.85 3.06773 -0.688317 0
M  V30 15071 N 1442.63 1.56409 0.193394 0
M  V30 15072 C 1443.85 1.84837 0.929676 0
M  V30 15073 C 1444.27 0.662928 1.76779 0
M  V30 15074 O 1443.63 -0.368339 1.78744 0
M  V30 15075 C 1443.68 3.12083 1.82445 0
M  V30 15076 O 1443.4 4.26056 1.02018 0
M  V30 15077 C 1444.9 3.53701 2.67227 0
M  V30 15078 H 1442.12 0.613766 0.271168 0
M  V30 15079 H 1444.66 2.03518 0.200134 0
M  V30 15080 H 1442.82 2.95294 2.5076 0
M  V30 15081 H 1443.23 4.98526 1.63008 0
M  V30 15082 H 1444.71 4.45699 3.25663 0
M  V30 15083 H 1445.18 2.76771 3.41019 0
M  V30 15084 H 1445.79 3.73027 2.04281 0
M  V30 15085 N 1444.1 -0.461169 1.50702 0
M  V30 15086 C 1445.04 -1.57562 1.66453 0
M  V30 15087 C 1446.05 -1.53381 0.545726 0
M  V30 15088 O 1447.24 -1.58589 0.819254 0
M  V30 15089 C 1444.34 -2.9646 1.64209 0
M  V30 15090 C 1443.51 -3.25405 2.92285 0
M  V30 15091 C 1442.57 -4.43906 2.82549 0
M  V30 15092 O 1441.6 -4.43726 3.56505 0
M  V30 15093 N 1442.8 -5.46131 1.96777 0
M  V30 15094 H 1445.56 -1.44463 2.62584 0
M  V30 15095 H 1443.12 -0.649749 1.4829 0
M  V30 15096 H 1445.12 -3.73719 1.55295 0
M  V30 15097 H 1443.69 -3.03278 0.757718 0
M  V30 15098 H 1442.91 -2.36666 3.1525 0
M  V30 15099 H 1444.19 -3.41559 3.77114 0
M  V30 15100 H 1443.59 -5.49103 1.36023 0
M  V30 15101 H 1442.15 -6.22335 1.9376 0
M  V30 15102 N 1445.58 -1.40446 -0.715026 0
M  V30 15103 C 1446.51 -1.36673 -1.83993 0
M  V30 15104 C 1447.53 -0.272038 -1.60511 0
M  V30 15105 O 1448.72 -0.532425 -1.70375 0
M  V30 15106 C 1445.82 -1.10423 -3.20406 0
M  V30 15107 C 1444.99 -2.31557 -3.71079 0
M  V30 15108 C 1444.05 -2.01459 -4.86108 0
M  V30 15109 O 1443.07 -2.7433 -4.9873 0
M  V30 15110 N 1444.28 -0.992899 -5.71946 0
M  V30 15111 H 1447.04 -2.3362 -1.87728 0
M  V30 15112 H 1444.6 -1.34807 -0.896586 0
M  V30 15113 H 1446.59 -0.88273 -3.94956 0
M  V30 15114 H 1445.16 -0.221408 -3.11815 0
M  V30 15115 H 1444.38 -2.69534 -2.87655 0
M  V30 15116 H 1445.67 -3.1231 -4.01671 0
M  V30 15117 H 1445.07 -0.389387 -5.64358 0
M  V30 15118 H 1443.63 -0.831299 -6.46477 0
M  V30 15119 N 1447.06 0.947303 -1.25952 0
M  V30 15120 C 1448.34 1.66964 -1.01894 0
M  V30 15121 C 1448.72 2.06192 0.452555 0
M  V30 15122 O 1448.06 1.78098 1.43156 0
M  V30 15123 C 1448.27 2.88643 -1.96179 0
M  V30 15124 C 1449.62 3.60432 -2.24441 0
M  V30 15125 O 1450.65 2.98737 -1.93996 0
M  V30 15126 O 1449.51 4.7154 -2.76247 0
M  V30 15127 H 1446.6 0.730875 -0.386976 0
M  V30 15128 H 1449.15 0.999577 -1.37137 0
M  V30 15129 H 1447.92 2.565 -2.95506 0
M  V30 15130 H 1447.54 3.63377 -1.61379 0
M  V30 15131 N 1448.54 1.07657 1.15099 0
M  V30 15132 C 1449.76 0.82291 1.90376 0
M  V30 15133 C 1450.19 -0.618415 1.77644 0
M  V30 15134 O 1449.55 -1.43248 1.11129 0
M  V30 15135 C 1449.59 1.23988 3.38614 0
M  V30 15136 O 1448.7 0.387085 4.10579 0
M  V30 15137 H 1448.04 0.299532 0.592602 0
M  V30 15138 H 1450.57 1.436 1.4574 0
M  V30 15139 H 1450.58 1.21741 3.89414 0
M  V30 15140 H 1449.25 2.28966 3.472 0
M  V30 15141 H 1447.83 0.472311 3.69897 0
M  V30 15142 N 1450.02 -1.31994 0.861122 0
M  V30 15143 C 1451.24 -2.01211 0.481865 0
M  V30 15144 C 1451.66 -1.64687 -0.923233 0
M  V30 15145 O 1451.02 -0.87151 -1.60346 0
M  V30 15146 C 1451.07 -3.56162 0.618919 0
M  V30 15147 O 1450.79 -3.91376 1.96868 0
M  V30 15148 C 1452.29 -4.42652 0.239514 0
M  V30 15149 H 1449.51 -0.643922 0.188693 0
M  V30 15150 H 1452.05 -1.68427 1.15985 0
M  V30 15151 H 1450.21 -3.87398 -0.0114042 0
M  V30 15152 H 1450.62 -4.86095 1.97008 0
M  V30 15153 H 1452.1 -5.50646 0.386394 0
M  V30 15154 H 1452.57 -4.31466 -0.820598 0
M  V30 15155 H 1453.18 -4.16818 0.845175 0
M  V30 15156 N 1451.49 -0.619688 -1.44906 0
M  V30 15157 C 1452.42 0.0791121 -2.33366 0
M  V30 15158 C 1453.41 0.846503 -1.47541 0
M  V30 15159 O 1454.59 0.814657 -1.76287 0
M  V30 15160 C 1451.72 1.06901 -3.30438 0
M  V30 15161 C 1450.67 0.41403 -4.25993 0
M  V30 15162 C 1450 1.51303 -5.12846 0
M  V30 15163 C 1451.3 -0.672483 -5.17953 0
M  V30 15164 H 1452.99 -0.659551 -2.92045 0
M  V30 15165 H 1450.54 -0.318623 -1.40431 0
M  V30 15166 H 1452.49 1.56653 -3.912 0
M  V30 15167 H 1451.22 1.83842 -2.69944 0
M  V30 15168 H 1449.88 -0.0627315 -3.66546 0
M  V30 15169 H 1449.52 2.27303 -4.48712 0
M  V30 15170 H 1449.22 1.08022 -5.77586 0
M  V30 15171 H 1450.75 2.01258 -5.76479 0
M  V30 15172 H 1452.16 -0.258542 -5.72717 0
M  V30 15173 H 1450.56 -1.02776 -5.91234 0
M  V30 15174 H 1451.63 -1.54425 -4.59653 0
M  V30 15175 N 1452.97 1.53444 -0.359552 0
M  V30 15176 C 1453.88 2.29257 0.497834 0
M  V30 15177 C 1454.9 1.34987 1.09793 0
M  V30 15178 O 1456.07 1.68039 1.11017 0
M  V30 15179 C 1453.14 3.06258 1.62502 0
M  V30 15180 C 1452.2 4.16183 1.05308 0
M  V30 15181 C 1451.43 4.89503 2.12655 0
M  V30 15182 O 1451.66 4.6263 3.33661 0
M  V30 15183 O 1450.59 5.75578 1.76051 0
M  V30 15184 H 1454.42 3.03467 -0.118925 0
M  V30 15185 H 1452 1.48884 -0.124111 0
M  V30 15186 H 1453.88 3.5436 2.2805 0
M  V30 15187 H 1452.56 2.3489 2.22729 0
M  V30 15188 H 1451.47 3.72348 0.361679 0
M  V30 15189 H 1452.8 4.897 0.49545 0
M  V30 15190 N 1454.45 0.0885642 1.57351 0
M  V30 15191 C 1455.87 -0.268088 1.57332 0
M  V30 15192 C 1456.07 -1.68875 1.09924 0
M  V30 15193 O 1455.12 -2.40385 0.772729 0
M  V30 15194 C 1456.44 -0.0624654 3.00635 0
M  V30 15195 C 1457.98 -0.130717 3.12727 0
M  V30 15196 C 1458.46 0.0468305 4.57976 0
M  V30 15197 N 1459.95 -0.00822093 4.63199 0
M  V30 15198 C 1460.68 0.104497 5.73305 0
M  V30 15199 N 1460.18 0.271682 6.92267 0
M  V30 15200 N 1461.97 0.0462333 5.62081 0
M  V30 15201 H 1454.12 1.01686 1.86477 0
M  V30 15202 H 1456.39 0.397971 0.86042 0
M  V30 15203 H 1456.09 0.918505 3.39494 0
M  V30 15204 H 1455.97 -0.807602 3.68453 0
M  V30 15205 H 1458.35 -1.10219 2.73744 0
M  V30 15206 H 1458.44 0.645801 2.47514 0
M  V30 15207 H 1458.08 1.01514 4.97652 0
M  V30 15208 H 1458.01 -0.7493 5.21242 0
M  V30 15209 H 1460.5 -0.135164 3.77658 0
M  V30 15210 H 1460.81 0.349381 7.7201 0
M  V30 15211 H 1459.16 0.307265 6.9432 0
M  V30 15212 H 1462.35 -0.0831995 4.68026 0
M  V30 15213 H 1462.52 0.137529 6.47854 0
M  V30 15214 N 1455.93 -1.56509 -0.185096 0
M  V30 15215 C 1457.34 -1.71024 -0.748856 0
M  V30 15216 C 1457.69 -0.69681 -1.83409 0
M  V30 15217 O 1456.82 0.144711 -2.15916 0
M  V30 15218 C 1457.41 -3.1008 -1.36513 0
M  V30 15219 C 1455.97 -3.26325 -1.87587 0
M  V30 15220 C 1455.12 -2.66977 -0.749579 0
M  V30 15221 H 1458.07 -1.58649 0.0401175 0
M  V30 15222 H 1458.09 -3.07965 -2.23468 0
M  V30 15223 H 1457.6 -3.83816 -0.575051 0
M  V30 15224 H 1455.7 -2.57522 -2.69283 0
M  V30 15225 H 1455.81 -4.33931 -2.03078 0
M  V30 15226 H 1454.18 -2.26419 -1.16647 0
M  V30 15227 H 1454.96 -3.43288 0.0284301 0
M  V30 15228 N 1457.41 0.45317 -1.50944 0
M  V30 15229 C 1458.35 1.54885 -1.71112 0
M  V30 15230 C 1459.32 1.56639 -0.552566 0
M  V30 15231 O 1460.51 1.73894 -0.785203 0
M  V30 15232 C 1457.65 2.92729 -1.82766 0
M  V30 15233 C 1456.76 3.00626 -3.10239 0
M  V30 15234 C 1455.9 4.29495 -3.12582 0
M  V30 15235 C 1454.94 4.312 -4.34434 0
M  V30 15236 N 1454.07 5.51568 -4.34415 0
M  V30 15237 H 1458.91 1.36992 -2.64645 0
M  V30 15238 H 1456.45 0.665753 -1.31172 0
M  V30 15239 H 1458.41 3.7269 -1.87505 0
M  V30 15240 H 1457.04 3.09216 -0.926561 0
M  V30 15241 H 1456.09 2.13426 -3.14886 0
M  V30 15242 H 1457.4 2.97746 -4.00186 0
M  V30 15243 H 1456.56 5.17817 -3.16149 0
M  V30 15244 H 1455.29 4.35009 -2.20496 0
M  V30 15245 H 1454.3 3.41272 -4.3106 0
M  V30 15246 H 1455.52 4.27363 -5.27767 0
M  V30 15247 H 1453.47 5.57834 -3.45192 0
M  V30 15248 H 1453.39 5.50504 -5.18152 0
M  V30 15249 H 1454.66 6.41966 -4.42153 0
M  V30 15250 N 1458.88 1.40823 0.707568 0
M  V30 15251 C 1460.11 1.42866 1.49656 0
M  V30 15252 C 1460.53 0.0305663 1.88775 0
M  V30 15253 O 1459.88 -0.947376 1.55984 0
M  V30 15254 C 1459.94 2.32661 2.76679 0
M  V30 15255 O 1459.66 3.67028 2.39211 0
M  V30 15256 C 1461.16 2.4338 3.70514 0
M  V30 15257 H 1458.38 0.487009 0.461588 0
M  V30 15258 H 1460.92 1.84969 0.872167 0
M  V30 15259 H 1459.08 1.93898 3.35384 0
M  V30 15260 H 1459.49 4.14799 3.21002 0
M  V30 15261 H 1460.96 3.10401 4.56459 0
M  V30 15262 H 1461.44 1.46132 4.14176 0
M  V30 15263 H 1462.05 2.82728 3.17718 0
M  V30 15264 N 1460.36 -0.94061 1.26453 0
M  V30 15265 C 1461.29 -2.05667 1.10559 0
M  V30 15266 C 1462.27 -1.70097 0.0106258 0
M  V30 15267 O 1463.46 -1.93338 0.182756 0
M  V30 15268 C 1460.59 -3.3936 0.7384 0
M  V30 15269 C 1459.54 -3.88993 1.78517 0
M  V30 15270 C 1458.87 -5.19343 1.27228 0
M  V30 15271 C 1460.17 -4.13812 3.1868 0
M  V30 15272 H 1461.86 -2.19221 2.03918 0
M  V30 15273 H 1459.41 -1.05339 0.98182 0
M  V30 15274 H 1461.36 -4.16902 0.61409 0
M  V30 15275 H 1460.09 -3.25783 -0.230887 0
M  V30 15276 H 1458.74 -3.13633 1.89816 0
M  V30 15277 H 1458.39 -5.02147 0.292816 0
M  V30 15278 H 1458.09 -5.53521 1.97201 0
M  V30 15279 H 1459.62 -5.99468 1.16065 0
M  V30 15280 H 1461.03 -4.81966 3.10455 0
M  V30 15281 H 1459.43 -4.59273 3.86249 0
M  V30 15282 H 1460.5 -3.19571 3.64695 0
M  V30 15283 N 1461.84 -1.08266 -1.14527 0
M  V30 15284 C 1462.75 -0.723043 -2.2318 0
M  V30 15285 C 1463.77 0.269819 -1.71895 0
M  V30 15286 O 1464.94 0.114126 -2.01076 0
M  V30 15287 C 1462.01 -0.136229 -3.46432 0
M  V30 15288 C 1461.07 -1.18352 -4.12664 0
M  V30 15289 C 1460.3 -0.624612 -5.30032 0
M  V30 15290 O 1460.52 0.556377 -5.6768 0
M  V30 15291 O 1459.46 -1.37397 -5.86008 0
M  V30 15292 H 1463.28 -1.6294 -2.56289 0
M  V30 15293 H 1460.87 -0.856235 -1.22429 0
M  V30 15294 H 1462.75 0.18829 -4.20979 0
M  V30 15295 H 1461.43 0.74331 -3.1505 0
M  V30 15296 H 1460.33 -1.56054 -3.39997 0
M  V30 15297 H 1461.67 -2.03528 -4.48148 0
M  V30 15298 N 1463.32 1.31536 -0.86811 0
M  V30 15299 C 1464.57 1.96775 -0.47812 0
M  V30 15300 C 1464.89 1.68632 0.9692 0
M  V30 15301 O 1464.15 0.974357 1.6972 0
M  V30 15302 C 1464.45 3.50876 -0.679752 0
M  V30 15303 C 1464.11 3.99034 -2.09958 0
M  V30 15304 C 1462.78 4.11896 -2.48787 0
M  V30 15305 C 1465.13 4.24387 -3.02564 0
M  V30 15306 C 1462.46 4.47461 -3.79468 0
M  V30 15307 C 1464.81 4.61415 -4.32757 0
M  V30 15308 C 1463.47 4.72484 -4.71503 0
M  V30 15309 H 1462.74 0.720049 -0.174957 0
M  V30 15310 H 1465.39 1.56703 -1.10074 0
M  V30 15311 H 1463.69 3.91791 0.0260174 0
M  V30 15312 H 1465.39 3.994 -0.357855 0
M  V30 15313 H 1461.98 3.89518 -1.78811 0
M  V30 15314 H 1466.17 4.13947 -2.73791 0
M  V30 15315 H 1461.42 4.54227 -4.09252 0
M  V30 15316 H 1465.6 4.79985 -5.04566 0
M  V30 15317 H 1463.22 4.99798 -5.72806 0
M  V30 15318 N 1464.8 0.627364 1.44575 0
M  V30 15319 C 1465.73 -0.066735 2.33405 0
M  V30 15320 C 1466.71 -0.838666 1.47988 0
M  V30 15321 O 1467.89 -0.805296 1.76716 0
M  V30 15322 C 1465.02 -1.05148 3.31 0
M  V30 15323 C 1463.98 -0.391433 4.26206 0
M  V30 15324 C 1463.3 -1.48581 5.13642 0
M  V30 15325 C 1464.6 0.699942 5.17589 0
M  V30 15326 H 1466.3 0.675029 2.91691 0
M  V30 15327 H 1463.84 0.326066 1.4026 0
M  V30 15328 H 1465.8 -1.54576 3.92026 0
M  V30 15329 H 1464.52 -1.82408 2.70915 0
M  V30 15330 H 1463.18 0.0821694 3.66508 0
M  V30 15331 H 1462.83 -2.2492 4.49911 0
M  V30 15332 H 1462.53 -1.04957 5.7815 0
M  V30 15333 H 1464.05 -1.98198 5.77538 0
M  V30 15334 H 1465.47 0.288911 5.72572 0
M  V30 15335 H 1463.86 1.0591 5.9068 0
M  V30 15336 H 1464.93 1.5686 4.58828 0
M  V30 15337 N 1466.28 -1.53251 0.367684 0
M  V30 15338 C 1467.69 -1.86369 -0.111073 0
M  V30 15339 C 1468.04 -1.2882 -1.47986 0
M  V30 15340 O 1467.16 -0.611058 -2.07593 0
M  V30 15341 C 1467.76 -3.38159 -0.208325 0
M  V30 15342 C 1466.32 -3.71067 -0.63134 0
M  V30 15343 C 1465.46 -2.76425 0.220144 0
M  V30 15344 H 1468.41 -1.47469 0.586398 0
M  V30 15345 H 1468.44 -3.66252 -1.03151 0
M  V30 15346 H 1467.95 -3.80015 0.788038 0
M  V30 15347 H 1466.05 -3.34769 -1.63586 0
M  V30 15348 H 1466.16 -4.77389 -0.404491 0
M  V30 15349 H 1464.53 -2.5279 -0.311298 0
M  V30 15350 H 1465.31 -3.21115 1.21409 0
M  V30 15351 N 1467.75 -0.0969077 -1.57302 0
M  V30 15352 C 1469.17 0.25974 -1.57472 0
M  V30 15353 C 1469.37 1.6829 -1.10818 0
M  V30 15354 O 1468.43 2.39972 -0.785466 0
M  V30 15355 C 1469.74 0.0465211 -3.00664 0
M  V30 15356 C 1471.29 0.114131 -3.12792 0
M  V30 15357 C 1471.76 -0.0711175 -4.57945 0
M  V30 15358 N 1473.25 -0.0163438 -4.63197 0
M  V30 15359 C 1473.99 -0.1349 -5.73241 0
M  V30 15360 N 1473.48 -0.308391 -6.92113 0
M  V30 15361 N 1475.28 -0.0760411 -5.62049 0
M  V30 15362 H 1467.43 -1.02673 -1.85935 0
M  V30 15363 H 1469.69 -0.402528 -0.858298 0
M  V30 15364 H 1469.4 -0.936496 -3.39002 0
M  V30 15365 H 1469.27 0.78805 -3.68876 0
M  V30 15366 H 1471.66 1.08765 -2.74325 0
M  V30 15367 H 1471.74 -0.658918 -2.47168 0
M  V30 15368 H 1471.38 -1.04152 -4.97106 0
M  V30 15369 H 1471.31 0.721647 -5.21632 0
M  V30 15370 H 1473.8 0.115134 -3.77725 0
M  V30 15371 H 1474.12 -0.390318 -7.71814 0
M  V30 15372 H 1472.46 -0.344082 -6.94148 0
M  V30 15373 H 1475.65 0.0583778 -4.68064 0
M  V30 15374 H 1475.83 -0.171884 -6.47772 0
M  V30 15375 N 1469.23 1.56605 0.176793 0
M  V30 15376 C 1470.64 1.71418 0.739775 0
M  V30 15377 C 1470.99 0.706527 1.83037 0
M  V30 15378 O 1470.12 -0.133259 2.15989 0
M  V30 15379 C 1470.71 3.10799 1.34867 0
M  V30 15380 C 1469.27 3.27315 1.85854 0
M  V30 15381 C 1468.42 2.67371 0.73541 0
M  V30 15382 H 1471.37 1.58626 -0.0485305 0
M  V30 15383 H 1471.39 3.09146 2.21831 0
M  V30 15384 H 1470.9 3.84116 0.554688 0
M  V30 15385 H 1469 2.58947 2.67913 0
M  V30 15386 H 1469.12 4.35002 2.00774 0
M  V30 15387 H 1467.48 2.27035 1.15444 0
M  V30 15388 H 1468.26 3.43268 -0.0466351 0
M  V30 15389 N 1470.71 -0.445159 1.51182 0
M  V30 15390 C 1472.13 -0.781023 1.39184 0
M  V30 15391 C 1472.33 -1.95988 0.468076 0
M  V30 15392 O 1471.38 -2.52374 -0.0796822 0
M  V30 15393 C 1472.69 -1.06874 2.81067 0
M  V30 15394 C 1474.24 -1.17364 2.90163 0
M  V30 15395 C 1474.72 -1.49433 4.32936 0
M  V30 15396 N 1476.21 -1.56373 4.36006 0
M  V30 15397 C 1476.94 -1.82743 5.435 0
M  V30 15398 N 1476.44 -2.06958 6.61166 0
M  V30 15399 N 1478.23 -1.84461 5.30971 0
M  V30 15400 H 1470.38 0.331347 2.098 0
M  V30 15401 H 1472.65 0.0858102 0.944108 0
M  V30 15402 H 1472.35 -0.275306 3.50621 0
M  V30 15403 H 1472.23 -1.99839 3.19913 0
M  V30 15404 H 1474.61 -1.95771 2.20812 0
M  V30 15405 H 1474.69 -0.22318 2.54825 0
M  V30 15406 H 1474.34 -0.715573 5.02834 0
M  V30 15407 H 1474.27 -2.45673 4.65782 0
M  V30 15408 H 1476.76 -1.39595 3.51172 0
M  V30 15409 H 1477.07 -2.26427 7.38885 0
M  V30 15410 H 1475.42 -2.04297 6.64295 0
M  V30 15411 H 1478.61 -1.65057 4.38034 0
M  V30 15412 H 1478.78 -2.04675 6.14827 0
M  V30 15413 N 1472.19 -1.41197 -0.700089 0
M  V30 15414 C 1473.6 -1.3593 -1.27985 0
M  V30 15415 C 1473.95 -0.0402059 -1.96159 0
M  V30 15416 O 1473.07 0.861611 -1.98508 0
M  V30 15417 C 1473.67 -2.46203 -2.32743 0
M  V30 15418 C 1472.23 -2.44348 -2.86306 0
M  V30 15419 C 1471.38 -2.26283 -1.60285 0
M  V30 15420 H 1474.33 -1.50778 -0.495152 0
M  V30 15421 H 1474.35 -2.15001 -3.13934 0
M  V30 15422 H 1473.86 -3.42195 -1.83096 0
M  V30 15423 H 1471.96 -1.521 -3.40142 0
M  V30 15424 H 1472.07 -3.40497 -3.37044 0
M  V30 15425 H 1470.44 -1.74078 -1.85928 0
M  V30 15426 H 1471.22 -3.24295 -1.1264 0
M  V30 15427 N 1473.67 0.933891 -1.2695 0
M  V30 15428 C 1474.89 1.72042 -1.15828 0
M  V30 15429 C 1475.32 1.85975 0.28193 0
M  V30 15430 O 1474.67 1.35528 1.20423 0
M  V30 15431 C 1474.72 3.10112 -1.84019 0
M  V30 15432 O 1473.83 3.96504 -1.13394 0
M  V30 15433 H 1473.17 0.527573 -0.40319 0
M  V30 15434 H 1475.7 1.16914 -1.67905 0
M  V30 15435 H 1475.71 3.60461 -1.91133 0
M  V30 15436 H 1474.38 2.99287 -2.8879 0
M  V30 15437 H 1472.96 3.54948 -1.14307 0
M  V30 15438 N 1475.14 1.08871 1.13951 0
M  V30 15439 C 1476.11 0.726655 2.17376 0
M  V30 15440 C 1477.11 -0.240922 1.58985 0
M  V30 15441 O 1478.3 -0.0198472 1.74189 0
M  V30 15442 C 1475.43 0.0736505 3.4082 0
M  V30 15443 H 1476.62 1.64254 2.5092 0
M  V30 15444 H 1474.17 0.887183 1.28681 0
M  V30 15445 H 1474.91 -0.853733 3.12861 0
M  V30 15446 H 1474.69 0.769782 3.84469 0
M  V30 15447 H 1476.18 -0.164465 4.17276 0
M  V30 15448 N 1476.62 -1.31073 0.875073 0
M  V30 15449 C 1477.57 -2.30335 0.3238 0
M  V30 15450 C 1478.56 -1.5974 -0.563869 0
M  V30 15451 O 1479.77 -1.743 -0.449402 0
M  V30 15452 H 1476.14 -0.747062 0.0860376 0
M  V30 15453 H 1478.12 -2.743 1.17483 0
M  V30 15454 C 1476.86 -3.44705 -0.455348 0
M  V30 15455 H 1476.19 -3.99203 0.218433 0
M  V30 15456 H 1477.63 -4.16262 -0.806329 0
M  V30 15457 C 1476.09 -2.93807 -1.6486 0
M  V30 15458 O 1476.62 -2.93004 -2.74794 0
M  V30 15459 N 1474.82 -2.49944 -1.48244 0
M  V30 15460 H 1474.37 -2.50797 -0.588116 0
M  V30 15461 H 1474.33 -2.16245 -2.28222 0
M  V30 15462 N 1478.1 -0.635022 -1.4424 0
M  V30 15463 C 1479.52 -0.300978 -1.56736 0
M  V30 15464 C 1479.72 1.19571 -1.62188 0
M  V30 15465 O 1478.77 1.97991 -1.56703 0
M  V30 15466 C 1480.09 -0.996327 -2.83714 0
M  V30 15467 C 1481.63 -0.97484 -2.97432 0
M  V30 15468 C 1482.11 -1.65073 -4.27218 0
M  V30 15469 N 1483.6 -1.6175 -4.3404 0
M  V30 15470 C 1484.33 -2.10938 -5.33191 0
M  V30 15471 N 1483.83 -2.68333 -6.38725 0
M  V30 15472 N 1485.62 -2.01544 -5.24725 0
M  V30 15473 H 1477.77 -1.60649 -1.38945 0
M  V30 15474 H 1480.04 -0.674561 -0.666087 0
M  V30 15475 H 1479.74 -2.05128 -2.85684 0
M  V30 15476 H 1479.62 -0.536511 -3.73365 0
M  V30 15477 H 1482 0.071646 -2.95013 0
M  V30 15478 H 1482.09 -1.47318 -2.0912 0
M  V30 15479 H 1481.73 -2.69669 -4.30397 0
M  V30 15480 H 1481.66 -1.12719 -5.14395 0
M  V30 15481 H 1484.15 -1.1985 -3.58392 0
M  V30 15482 H 1484.46 -3.03588 -7.10672 0
M  V30 15483 H 1482.81 -2.72385 -6.39399 0
M  V30 15484 H 1486 -1.56423 -4.41191 0
M  V30 15485 H 1486.17 -2.40187 -6.01842 0
M  V30 15486 N 1479.58 1.53054 -0.375806 0
M  V30 15487 C 1480.51 2.23664 0.500685 0
M  V30 15488 C 1481.52 1.25432 1.03782 0
M  V30 15489 O 1482.71 1.51592 0.942451 0
M  V30 15490 C 1479.81 2.9288 1.70513 0
M  V30 15491 C 1478.99 4.17706 1.29772 0
M  V30 15492 C 1478.04 4.7004 2.36536 0
M  V30 15493 O 1477.07 5.33466 1.98502 0
M  V30 15494 N 1478.27 4.48732 3.68266 0
M  V30 15495 H 1481.04 2.99519 -0.104201 0
M  V30 15496 H 1478.6 1.60641 -0.201488 0
M  V30 15497 H 1480.59 3.24795 2.41433 0
M  V30 15498 H 1479.16 2.20416 2.21665 0
M  V30 15499 H 1478.38 3.91978 0.41795 0
M  V30 15500 H 1479.67 4.98837 1.00197 0
M  V30 15501 H 1479.07 3.98075 4.01936 0
M  V30 15502 H 1477.62 4.85172 4.3526 0
M  V30 15503 N 1481.06 0.105248 1.57248 0
M  V30 15504 C 1482.47 -0.251385 1.57608 0
M  V30 15505 C 1482.67 -1.677 1.11709 0
M  V30 15506 O 1481.73 -2.39552 0.798182 0
M  V30 15507 C 1483.04 -0.0305755 3.00684 0
M  V30 15508 C 1484.59 -0.0975409 3.12848 0
M  V30 15509 C 1485.06 0.0954024 4.57901 0
M  V30 15510 N 1486.56 0.040908 4.63182 0
M  V30 15511 C 1487.29 0.165298 5.73162 0
M  V30 15512 N 1486.79 0.345091 6.9194 0
M  V30 15513 N 1488.58 0.105847 5.62 0
M  V30 15514 H 1480.73 1.03658 1.85388 0
M  V30 15515 H 1482.99 0.407074 0.856151 0
M  V30 15516 H 1482.7 0.954461 3.38501 0
M  V30 15517 H 1482.57 -0.768477 3.69289 0
M  V30 15518 H 1484.96 -1.07309 2.74898 0
M  V30 15519 H 1485.04 0.672017 2.46815 0
M  V30 15520 H 1484.69 1.06786 4.96547 0
M  V30 15521 H 1484.62 -0.693974 5.22007 0
M  V30 15522 H 1487.11 -0.0951009 3.7778 0
M  V30 15523 H 1487.42 0.431243 7.71596 0
M  V30 15524 H 1485.76 0.38089 6.93955 0
M  V30 15525 H 1488.96 -0.0335544 4.68088 0
M  V30 15526 H 1489.13 0.206235 6.47672 0
M  V30 15527 N 1482.53 -1.56697 -0.168486 0
M  V30 15528 C 1483.46 -1.99659 -1.21073 0
M  V30 15529 C 1484.45 -0.872625 -1.46011 0
M  V30 15530 O 1485.63 -1.13891 -1.57297 0
M  V30 15531 C 1482.76 -2.35889 -2.54899 0
M  V30 15532 C 1481.71 -3.51272 -2.44524 0
M  V30 15533 C 1481.04 -3.73253 -3.82866 0
M  V30 15534 C 1482.34 -4.84631 -1.94756 0
M  V30 15535 H 1484.03 -2.86974 -0.853593 0
M  V30 15536 H 1481.58 -1.38065 -0.409165 0
M  V30 15537 H 1483.53 -2.64542 -3.28017 0
M  V30 15538 H 1482.26 -1.45486 -2.92406 0
M  V30 15539 H 1480.92 -3.22751 -1.7386 0
M  V30 15540 H 1480.56 -2.80136 -4.17772 0
M  V30 15541 H 1480.26 -4.5089 -3.76792 0
M  V30 15542 H 1481.79 -4.04309 -4.57566 0
M  V30 15543 H 1483.2 -5.12142 -2.5765 0
M  V30 15544 H 1481.6 -5.65925 -1.99623 0
M  V30 15545 H 1482.67 -4.76436 -0.902021 0
M  V30 15546 N 1484.01 0.437135 -1.51416 0
M  V30 15547 C 1485.29 1.1978 -1.54636 0
M  V30 15548 C 1485.67 2.088 -0.310747 0
M  V30 15549 O 1485.02 2.1738 0.704148 0
M  V30 15550 C 1485.23 1.99947 -2.86046 0
M  V30 15551 C 1486.58 2.56981 -3.38003 0
M  V30 15552 O 1487.6 2.10157 -2.87598 0
M  V30 15553 O 1486.46 3.42383 -4.25953 0
M  V30 15554 H 1483.55 0.545346 -0.621713 0
M  V30 15555 H 1486.1 0.446189 -1.63729 0
M  V30 15556 H 1484.87 1.34564 -3.67435 0
M  V30 15557 H 1484.49 2.82172 -2.80115 0
M  V30 15558 N 1485.49 1.41566 0.692592 0
M  V30 15559 C 1486.9 1.36606 1.27262 0
M  V30 15560 C 1487.25 0.0506082 1.96135 0
M  V30 15561 O 1486.38 -0.851071 1.98962 0
M  V30 15562 C 1486.97 2.47434 2.31434 0
M  V30 15563 C 1485.53 2.45863 2.85006 0
M  V30 15564 C 1484.68 2.2713 1.59083 0
M  V30 15565 H 1487.63 1.51038 0.487149 0
M  V30 15566 H 1487.65 2.16663 3.12789 0
M  V30 15567 H 1487.16 3.43161 1.81278 0
M  V30 15568 H 1485.26 1.53901 3.3933 0
M  V30 15569 H 1485.38 3.42279 3.35234 0
M  V30 15570 H 1483.74 1.75061 1.85002 0
M  V30 15571 H 1484.52 3.24887 1.10919 0
M  V30 15572 N 1486.97 -0.927146 1.27443 0
M  V30 15573 C 1488.21 -1.67775 1.14991 0
M  V30 15574 C 1488.57 -1.90029 -0.301107 0
M  V30 15575 O 1487.86 -1.47997 -1.21686 0
M  V30 15576 C 1488.06 -3.0472 1.86764 0
M  V30 15577 C 1487.89 -2.95829 3.38696 0
M  V30 15578 C 1486.66 -2.9808 4.08015 0
M  V30 15579 C 1488.85 -2.74905 4.34663 0
M  V30 15580 N 1486.84 -2.79636 5.46513 0
M  V30 15581 C 1488.21 -2.65172 5.60432 0
M  V30 15582 C 1490.26 -2.59797 4.24747 0
M  V30 15583 C 1488.96 -2.41872 6.77415 0
M  V30 15584 C 1490.99 -2.37874 5.41452 0
M  V30 15585 C 1490.35 -2.28884 6.66177 0
M  V30 15586 H 1486.45 -0.620709 0.475651 0
M  V30 15587 H 1489.04 -1.09605 1.60919 0
M  V30 15588 H 1487.21 -3.61002 1.43291 0
M  V30 15589 H 1488.94 -3.68722 1.66812 0
M  V30 15590 H 1485.69 -3.08329 3.59486 0
M  V30 15591 H 1486.12 -2.73544 6.19276 0
M  V30 15592 H 1490.76 -2.65506 3.29039 0
M  V30 15593 H 1488.48 -2.34903 7.73205 0
M  V30 15594 H 1492.06 -2.27069 5.35659 0
M  V30 15595 H 1490.94 -2.12149 7.54959 0
M  V30 15596 N 1488.45 -1.09474 -1.13372 0
M  V30 15597 C 1489.69 -0.842198 -1.85145 0
M  V30 15598 C 1490.05 0.625443 -1.8195 0
M  V30 15599 O 1489.34 1.45464 -1.24703 0
M  V30 15600 C 1489.53 -1.31208 -3.32444 0
M  V30 15601 C 1489.36 -2.82387 -3.49983 0
M  V30 15602 C 1488.13 -3.5027 -3.64196 0
M  V30 15603 C 1490.33 -3.80526 -3.45983 0
M  V30 15604 N 1488.31 -4.8987 -3.70001 0
M  V30 15605 C 1489.68 -5.06082 -3.58163 0
M  V30 15606 C 1491.74 -3.73375 -3.29387 0
M  V30 15607 C 1490.44 -6.25332 -3.55461 0
M  V30 15608 C 1492.47 -4.92113 -3.27993 0
M  V30 15609 C 1491.83 -6.16512 -3.40724 0
M  V30 15610 H 1487.93 -0.361049 -0.693663 0
M  V30 15611 H 1490.51 -1.39521 -1.35801 0
M  V30 15612 H 1488.68 -0.786508 -3.80353 0
M  V30 15613 H 1490.42 -1.00481 -3.92028 0
M  V30 15614 H 1487.17 -3.007 -3.65891 0
M  V30 15615 H 1487.6 -5.6259 -3.76593 0
M  V30 15616 H 1492.24 -2.78123 -3.18446 0
M  V30 15617 H 1489.96 -7.20883 -3.65175 0
M  V30 15618 H 1493.54 -4.88278 -3.16348 0
M  V30 15619 H 1492.42 -7.0685 -3.39607 0
M  V30 15620 N 1489.92 1.30607 -0.882012 0
M  V30 15621 C 1491.17 1.96256 -0.498964 0
M  V30 15622 C 1491.5 1.69651 0.951259 0
M  V30 15623 O 1490.75 0.992303 1.68677 0
M  V30 15624 C 1491.05 3.50136 -0.716929 0
M  V30 15625 C 1490.72 3.96785 -2.14178 0
M  V30 15626 C 1489.38 4.09234 -2.53142 0
M  V30 15627 C 1491.73 4.21154 -3.07048 0
M  V30 15628 C 1489.06 4.43411 -3.84192 0
M  V30 15629 C 1491.41 4.56799 -4.37627 0
M  V30 15630 C 1490.08 4.67456 -4.76488 0
M  V30 15631 H 1489.35 0.718153 -0.182584 0
M  V30 15632 H 1491.99 1.55527 -1.1173 0
M  V30 15633 H 1490.3 3.91797 -0.0155388 0
M  V30 15634 H 1492 3.98998 -0.400196 0
M  V30 15635 H 1488.59 3.876 -1.82932 0
M  V30 15636 H 1492.77 4.1102 -2.78167 0
M  V30 15637 H 1488.03 4.49861 -4.14047 0
M  V30 15638 H 1492.2 4.74607 -5.09629 0
M  V30 15639 H 1489.83 4.93694 -5.78074 0
M  V30 15640 N 1491.4 0.642663 1.43901 0
M  V30 15641 C 1492.65 0.152003 2.0223 0
M  V30 15642 C 1492.98 -1.22711 1.50518 0
M  V30 15643 O 1492.26 -1.817 0.693937 0
M  V30 15644 C 1492.54 0.151278 3.59782 0
M  V30 15645 C 1492.39 1.56356 4.2175 0
M  V30 15646 C 1493.71 -0.518016 4.37041 0
M  V30 15647 H 1490.83 0.0567094 0.734815 0
M  V30 15648 H 1493.47 0.821337 1.7133 0
M  V30 15649 H 1491.62 -0.418679 3.86237 0
M  V30 15650 H 1493.29 2.18329 4.06362 0
M  V30 15651 H 1491.54 2.11401 3.78803 0
M  V30 15652 H 1492.21 1.51499 5.30803 0
M  V30 15653 H 1494.68 -0.0331947 4.16087 0
M  V30 15654 H 1493.56 -0.487754 5.46729 0
M  V30 15655 H 1493.82 -1.59036 4.12504 0
M  V30 15656 N 1492.88 -1.52852 0.383918 0
M  V30 15657 C 1494.11 -2.06406 -0.202764 0
M  V30 15658 C 1494.53 -1.25421 -1.40183 0
M  V30 15659 O 1493.89 -0.277876 -1.79158 0
M  V30 15660 C 1493.94 -3.56281 -0.556414 0
M  V30 15661 O 1493.04 -3.77904 -1.65113 0
M  V30 15662 H 1492.38 -0.663523 -0.0251737 0
M  V30 15663 H 1494.91 -1.97074 0.54983 0
M  V30 15664 H 1494.92 -3.99629 -0.822249 0
M  V30 15665 H 1493.6 -4.14665 0.320253 0
M  V30 15666 H 1492.17 -3.46448 -1.37943 0
M  V30 15667 N 1494.36 -0.113586 -1.5719 0
M  V30 15668 C 1495.77 0.412653 -1.82083 0
M  V30 15669 C 1496.12 1.66964 -1.03041 0
M  V30 15670 O 1495.25 2.14767 -0.265354 0
M  V30 15671 C 1495.84 0.755439 -3.3027 0
M  V30 15672 C 1494.4 1.22634 -3.55862 0
M  V30 15673 C 1493.55 0.232285 -2.76325 0
M  V30 15674 H 1496.5 -0.338792 -1.55042 0
M  V30 15675 H 1496.52 1.61335 -3.44603 0
M  V30 15676 H 1496.03 -0.1596 -3.87772 0
M  V30 15677 H 1494.13 2.15846 -3.03713 0
M  V30 15678 H 1494.25 1.1754 -4.64458 0
M  V30 15679 H 1492.61 0.718222 -2.44364 0
M  V30 15680 H 1493.39 -0.675756 -3.36583 0
M  V30 15681 N 1495.84 1.56784 0.160173 0
M  V30 15682 C 1497.06 1.87129 0.894283 0
M  V30 15683 C 1497.49 0.701172 1.74543 0
M  V30 15684 O 1496.85 -0.349542 1.77899 0
M  V30 15685 C 1496.89 3.15969 1.73769 0
M  V30 15686 O 1496 2.98977 2.84054 0
M  V30 15687 H 1495.34 0.615192 0.249869 0
M  V30 15688 H 1497.87 2.04012 0.154956 0
M  V30 15689 H 1497.88 3.47657 2.13538 0
M  V30 15690 H 1496.55 4.00742 1.11258 0
M  V30 15691 H 1495.13 2.78668 2.47788 0
M  V30 15692 N 1497.32 -0.429099 1.51646 0
M  V30 15693 C 1498.27 -1.52004 1.69937 0
M  V30 15694 C 1499.25 -1.51087 0.5533 0
M  V30 15695 O 1500.44 -1.57401 0.809558 0
M  V30 15696 C 1497.57 -2.90123 1.83531 0
M  V30 15697 C 1496.66 -2.95764 3.03948 0
M  V30 15698 N 1497.05 -2.71135 4.26989 0
M  V30 15699 C 1495.35 -3.26927 3.03372 0
M  V30 15700 C 1496.05 -2.82831 5.08312 0
M  V30 15701 N 1495.02 -3.14856 4.43133 0
M  V30 15702 H 1498.82 -1.31726 2.62727 0
M  V30 15703 H 1496.34 -0.63653 1.49406 0
M  V30 15704 H 1498.34 -3.68618 1.94747 0
M  V30 15705 H 1497 -3.11415 0.919285 0
M  V30 15706 H 1498.01 -2.45906 4.55797 0
M  V30 15707 H 1494.68 -3.53941 2.21432 0
M  V30 15708 H 1496.07 -2.67673 6.1628 0
M  V30 15709 N 1498.79 -1.41931 -0.685074 0
M  V30 15710 C 1499.76 -1.44315 -1.78061 0
M  V30 15711 C 1500.76 -0.332215 -1.57331 0
M  V30 15712 O 1501.95 -0.59258 -1.63811 0
M  V30 15713 C 1499.08 -1.26479 -3.16569 0
M  V30 15714 H 1500.27 -2.4185 -1.77337 0
M  V30 15715 H 1497.82 -1.28228 -0.893721 0
M  V30 15716 H 1498.56 -0.298259 -3.22926 0
M  V30 15717 H 1498.34 -2.06981 -3.33018 0
M  V30 15718 H 1499.83 -1.31006 -3.96519 0
M  V30 15719 N 1500.27 0.920374 -1.27933 0
M  V30 15720 C 1501.69 1.19761 -1.05496 0
M  V30 15721 C 1501.89 2.00435 0.206864 0
M  V30 15722 O 1500.94 2.35518 0.910356 0
M  V30 15723 C 1502.26 1.93863 -2.29864 0
M  V30 15724 C 1503.8 2.06773 -2.34976 0
M  V30 15725 C 1504.28 2.84282 -3.59093 0
M  V30 15726 N 1505.77 2.91847 -3.59694 0
M  V30 15727 C 1506.51 3.52303 -4.52404 0
M  V30 15728 N 1506 4.14092 -5.55427 0
M  V30 15729 N 1507.79 3.49778 -4.40013 0
M  V30 15730 H 1499.95 0.381596 -2.08944 0
M  V30 15731 H 1502.21 0.231451 -0.919312 0
M  V30 15732 H 1501.91 1.42008 -3.21756 0
M  V30 15733 H 1501.79 2.94446 -2.35757 0
M  V30 15734 H 1504.18 2.57812 -1.43586 0
M  V30 15735 H 1504.26 1.05388 -2.33082 0
M  V30 15736 H 1503.9 2.33925 -4.50823 0
M  V30 15737 H 1503.83 3.85968 -3.5824 0
M  V30 15738 H 1506.32 2.4794 -2.85191 0
M  V30 15739 H 1506.63 4.58183 -6.22325 0
M  V30 15740 H 1504.98 4.12616 -5.59261 0
M  V30 15741 H 1508.17 3.00712 -3.58733 0
M  V30 15742 H 1508.34 3.96603 -5.12455 0
M  V30 15743 N 1501.75 1.10074 1.1279 0
M  V30 15744 C 1502.97 0.863106 1.88587 0
M  V30 15745 C 1503.4 -0.580595 1.78915 0
M  V30 15746 O 1502.76 -1.40859 1.14142 0
M  V30 15747 C 1502.81 1.31142 3.35908 0
M  V30 15748 O 1501.91 0.474088 4.09666 0
M  V30 15749 H 1501.25 0.312034 0.586115 0
M  V30 15750 H 1503.78 1.46659 1.42662 0
M  V30 15751 H 1503.79 1.29974 3.86744 0
M  V30 15752 H 1502.47 2.36279 3.42265 0
M  V30 15753 H 1501.04 0.550665 3.68812 0
M  V30 15754 N 1503.23 -1.30138 0.888926 0
M  V30 15755 C 1504.46 -2.00143 0.524437 0
M  V30 15756 C 1504.87 -1.66608 -0.888093 0
M  V30 15757 O 1504.23 -0.905326 -1.58462 0
M  V30 15758 C 1504.28 -3.54769 0.694327 0
M  V30 15759 O 1504 -3.87112 2.05125 0
M  V30 15760 C 1505.5 -4.42045 0.333354 0
M  V30 15761 H 1502.72 -0.639775 0.202309 0
M  V30 15762 H 1505.26 -1.65929 1.19531 0
M  V30 15763 H 1503.42 -3.87335 0.0707712 0
M  V30 15764 H 1503.83 -4.81807 2.07275 0
M  V30 15765 H 1505.31 -5.49702 0.503107 0
M  V30 15766 H 1505.78 -4.33109 -0.728893 0
M  V30 15767 H 1506.39 -4.14931 0.933398 0
M  V30 15768 N 1504.71 -0.650285 -1.43559 0
M  V30 15769 C 1505.93 -0.168483 -2.06715 0
M  V30 15770 C 1506.36 1.15576 -1.48404 0
M  V30 15771 O 1505.71 1.71333 -0.592842 0
M  V30 15772 C 1505.76 -0.0877095 -3.60493 0
M  V30 15773 O 1504.87 0.950915 -4.01287 0
M  V30 15774 H 1504.21 -0.0935281 -0.65738 0
M  V30 15775 H 1506.74 -0.892381 -1.84113 0
M  V30 15776 H 1506.75 0.0965825 -4.07886 0
M  V30 15777 H 1505.42 -1.05442 -4.02312 0
M  V30 15778 H 1504 0.739648 -3.65491 0
M  V30 15779 N 1506.18 1.52647 -0.392018 0
M  V30 15780 C 1507.59 1.86522 0.0814091 0
M  V30 15781 C 1507.95 1.31158 1.45918 0
M  V30 15782 O 1507.07 0.644007 2.06595 0
M  V30 15783 C 1507.67 3.38448 0.1545 0
M  V30 15784 C 1506.22 3.72025 0.572227 0
M  V30 15785 C 1505.37 2.7604 -0.264093 0
M  V30 15786 H 1508.32 1.46517 -0.609785 0
M  V30 15787 H 1508.34 3.67846 0.973109 0
M  V30 15788 H 1507.86 3.78713 -0.848396 0
M  V30 15789 H 1505.96 3.37329 1.58239 0
M  V30 15790 H 1506.07 4.77973 0.328491 0
M  V30 15791 H 1504.43 2.53254 0.271042 0
M  V30 15792 H 1505.22 3.19143 -1.26502 0
M  V30 15793 N 1507.66 0.121921 1.57128 0
M  V30 15794 C 1508.63 -0.812905 2.143 0
M  V30 15795 C 1509.63 -1.19261 1.07858 0
M  V30 15796 O 1510.82 -1.11764 1.33621 0
M  V30 15797 C 1507.95 -2.09969 2.68562 0
M  V30 15798 H 1509.14 -0.315992 2.98231 0
M  V30 15799 H 1506.69 -0.12734 1.5578 0
M  V30 15800 H 1507.43 -2.64085 1.88228 0
M  V30 15801 H 1507.21 -1.83688 3.46412 0
M  V30 15802 H 1508.7 -2.76788 3.12695 0
M  V30 15803 N 1509.14 -1.56867 -0.151857 0
M  V30 15804 C 1510.09 -1.98842 -1.20685 0
M  V30 15805 C 1511.08 -0.88007 -1.44745 0
M  V30 15806 O 1512.29 -1.06524 -1.45095 0
M  V30 15807 H 1508.66 -0.632904 -0.406123 0
M  V30 15808 H 1510.63 -2.86737 -0.826095 0
M  V30 15809 C 1509.38 -2.38095 -2.53389 0
M  V30 15810 H 1508.71 -3.2293 -2.35703 0
M  V30 15811 H 1510.15 -2.71292 -3.25847 0
M  V30 15812 C 1508.61 -1.23175 -3.13575 0
M  V30 15813 O 1509.14 -0.529864 -3.9819 0
M  V30 15814 N 1507.34 -0.997255 -2.72953 0
M  V30 15815 H 1506.89 -1.56979 -2.04243 0
M  V30 15816 H 1506.85 -0.23022 -3.13556 0
M  V30 15817 N 1510.62 0.421051 -1.51871 0
M  V30 15818 C 1511.84 1.19568 -1.69465 0
M  V30 15819 C 1512.27 1.83835 -0.398269 0
M  V30 15820 O 1511.63 1.69508 0.643172 0
M  V30 15821 C 1511.67 2.24337 -2.82321 0
M  V30 15822 O 1510.78 3.30205 -2.47059 0
M  V30 15823 H 1510.12 0.349579 -0.564527 0
M  V30 15824 H 1512.65 0.495177 -1.98517 0
M  V30 15825 H 1512.66 2.6886 -3.06885 0
M  V30 15826 H 1511.33 1.76941 -3.76384 0
M  V30 15827 H 1509.91 2.91045 -2.33125 0
M  V30 15828 N 1512.1 1.42293 0.677538 0
M  V30 15829 C 1513.32 1.46214 1.47092 0
M  V30 15830 C 1513.75 0.0740989 1.87954 0
M  V30 15831 O 1513.1 -0.926831 1.55819 0
M  V30 15832 C 1513.15 2.39236 2.69812 0
M  V30 15833 O 1512.26 1.86183 3.6798 0
M  V30 15834 H 1511.6 0.495507 0.442006 0
M  V30 15835 H 1514.13 1.86952 0.831274 0
M  V30 15836 H 1514.14 2.55723 3.17915 0
M  V30 15837 H 1512.81 3.40081 2.39411 0
M  V30 15838 H 1511.39 1.79237 3.26999 0
M  V30 15839 N 1513.57 -0.913576 1.28419 0
M  V30 15840 C 1514.8 -1.70178 1.18551 0
M  V30 15841 C 1515.22 -1.864 -0.252307 0
M  V30 15842 O 1514.58 -1.37427 -1.18252 0
M  V30 15843 C 1514.63 -3.07145 1.8893 0
M  V30 15844 O 1513.73 -3.9465 1.19688 0
M  V30 15845 H 1513.08 -0.521092 0.411533 0
M  V30 15846 H 1515.61 -1.14228 1.69744 0
M  V30 15847 H 1515.62 -3.57375 1.96843 0
M  V30 15848 H 1514.29 -2.94655 2.93515 0
M  V30 15849 H 1512.87 -3.53085 1.19939 0
M  V30 15850 N 1515.05 -1.1067 -1.12204 0
M  V30 15851 C 1516.28 -0.872867 -1.87586 0
M  V30 15852 C 1516.7 0.57682 -1.79773 0
M  V30 15853 O 1516.05 1.39782 -1.17334 0
M  V30 15854 C 1516.1 -1.31572 -3.36706 0
M  V30 15855 O 1515.82 -2.70856 -3.44338 0
M  V30 15856 C 1517.33 -1.11613 -4.29019 0
M  V30 15857 H 1514.55 -0.313132 -0.593455 0
M  V30 15858 H 1517.09 -1.47199 -1.4196 0
M  V30 15859 H 1515.24 -0.760212 -3.79868 0
M  V30 15860 H 1515.66 -2.89854 -4.37132 0
M  V30 15861 H 1517.13 -1.4751 -5.31925 0
M  V30 15862 H 1517.61 -0.0549698 -4.39166 0
M  V30 15863 H 1518.22 -1.65822 -3.91642 0
M  V30 15864 N 1516.53 1.29665 -0.895815 0
M  V30 15865 C 1517.44 2.31582 -0.375086 0
M  V30 15866 C 1518.46 1.65789 0.528196 0
M  V30 15867 O 1519.63 1.96999 0.41871 0
M  V30 15868 C 1516.7 3.44472 0.39241 0
M  V30 15869 C 1515.76 4.25866 -0.541926 0
M  V30 15870 C 1514.99 5.33365 0.189037 0
M  V30 15871 O 1515.21 5.52607 1.41355 0
M  V30 15872 O 1514.15 6.0009 -0.466441 0
M  V30 15873 H 1517.97 2.78095 -1.22052 0
M  V30 15874 H 1515.56 1.34031 -0.660007 0
M  V30 15875 H 1517.44 4.13214 0.826565 0
M  V30 15876 H 1516.12 3.00074 1.21397 0
M  V30 15877 H 1515.02 3.59781 -1.02512 0
M  V30 15878 H 1516.36 4.73896 -1.32979 0
M  V30 15879 N 1518.01 0.657889 1.43212 0
M  V30 15880 C 1519.24 0.181072 2.06106 0
M  V30 15881 C 1519.65 -1.15513 1.49339 0
M  V30 15882 O 1519.01 -1.71409 0.626517 0
M  V30 15883 C 1519.06 0.0890244 3.6139 0
M  V30 15884 O 1518.78 1.37241 4.16049 0
M  V30 15885 C 1520.28 -0.413313 4.41369 0
M  V30 15886 H 1517.5 0.0920577 0.664655 0
M  V30 15887 H 1520.05 0.899855 1.83638 0
M  V30 15888 H 1518.2 -0.580345 3.83028 0
M  V30 15889 H 1518.61 1.23467 5.09761 0
M  V30 15890 H 1520.09 -0.426663 5.50349 0
M  V30 15891 H 1520.57 -1.44549 4.14731 0
M  V30 15892 H 1521.17 0.223727 4.24711 0
M  V30 15893 N 1519.49 -1.52437 0.400108 0
M  V30 15894 C 1520.9 -1.86563 -0.0715162 0
M  V30 15895 C 1521.25 -1.3193 -1.4522 0
M  V30 15896 O 1520.37 -0.654955 -2.06251 0
M  V30 15897 C 1520.97 -3.38525 -0.13655 0
M  V30 15898 C 1519.53 -3.72323 -0.55249 0
M  V30 15899 C 1518.67 -2.75896 0.278729 0
M  V30 15900 H 1521.63 -1.46192 0.617547 0
M  V30 15901 H 1521.65 -3.68357 -0.953588 0
M  V30 15902 H 1521.16 -3.78258 0.868468 0
M  V30 15903 H 1519.26 -3.38164 -1.56448 0
M  V30 15904 H 1519.37 -4.7814 -0.303139 0
M  V30 15905 H 1517.74 -2.53394 -0.257608 0
M  V30 15906 H 1518.52 -3.18467 1.28193 0
M  V30 15907 N 1520.96 -0.130252 -1.57061 0
M  V30 15908 C 1522.19 0.535707 -2.00362 0
M  V30 15909 C 1522.61 1.58712 -1.00956 0
M  V30 15910 O 1521.97 1.81292 0.0171546 0
M  V30 15911 C 1522.02 1.12836 -3.42491 0
M  V30 15912 O 1521.12 2.24367 -3.46025 0
M  V30 15913 H 1520.47 0.132735 -0.650598 0
M  V30 15914 H 1523 -0.222047 -2.03392 0
M  V30 15915 H 1523.01 1.46115 -3.80939 0
M  V30 15916 H 1521.68 0.358304 -4.14354 0
M  V30 15917 H 1520.26 1.92443 -3.19406 0
M  V30 15918 N 1522.44 1.56945 0.143535 0
M  V30 15919 C 1523.39 1.99479 1.19628 0
M  V30 15920 C 1524.39 0.887733 1.44276 0
M  V30 15921 O 1525.59 1.07292 1.44528 0
M  V30 15922 H 1521.97 0.635049 0.402761 0
M  V30 15923 H 1523.94 2.87171 0.810877 0
M  V30 15924 C 1522.69 2.39436 2.52123 0
M  V30 15925 H 1522.01 3.24176 2.33987 0
M  V30 15926 H 1523.45 2.73017 3.24404 0
M  V30 15927 C 1521.91 1.24836 3.12918 0
M  V30 15928 O 1522.44 0.550973 3.97903 0
M  V30 15929 N 1520.64 1.01172 2.7242 0
M  V30 15930 H 1520.19 1.5806 2.03408 0
M  V30 15931 H 1520.15 0.246846 3.13429 0
M  V30 15932 N 1523.92 -0.412991 1.52093 0
M  V30 15933 C 1524.85 -1.50986 1.78117 0
M  V30 15934 C 1525.83 -1.57925 0.631963 0
M  V30 15935 O 1527.02 -1.73261 0.877168 0
M  V30 15936 C 1524.15 -2.88846 1.92835 0
M  V30 15937 C 1523.1 -2.96759 3.08412 0
M  V30 15938 C 1522.43 -4.36837 3.08347 0
M  V30 15939 C 1523.73 -2.68599 4.47942 0
M  V30 15940 H 1525.42 -1.29459 2.69964 0
M  V30 15941 H 1522.97 -0.621348 1.29905 0
M  V30 15942 H 1524.92 -3.65563 2.09623 0
M  V30 15943 H 1523.64 -3.11658 0.976553 0
M  V30 15944 H 1522.3 -2.22487 2.91368 0
M  V30 15945 H 1521.95 -4.56652 2.10897 0
M  V30 15946 H 1521.65 -4.43056 3.85973 0
M  V30 15947 H 1523.18 -5.15493 3.2726 0
M  V30 15948 H 1524.59 -3.35039 4.65212 0
M  V30 15949 H 1522.99 -2.86199 5.27456 0
M  V30 15950 H 1524.06 -1.64058 4.56304 0
M  V30 15951 N 1525.4 -1.4265 -0.669982 0
M  V30 15952 C 1526.68 -1.33858 -1.42623 0
M  V30 15953 C 1527.06 0.0217285 -2.11089 0
M  V30 15954 O 1526.4 1.03748 -2.03589 0
M  V30 15955 C 1526.61 -2.51015 -2.42472 0
M  V30 15956 C 1527.96 -2.93348 -3.06972 0
M  V30 15957 O 1528.99 -2.5094 -2.52799 0
M  V30 15958 O 1527.85 -3.66762 -4.05151 0
M  V30 15959 H 1524.94 -0.528141 -0.636393 0
M  V30 15960 H 1527.49 -1.54667 -0.6983 0
M  V30 15961 H 1526.26 -3.41679 -1.90713 0
M  V30 15962 H 1525.88 -2.32218 -3.2274 0
M  V30 15963 N 1526.88 0.906753 -1.28902 0
M  V30 15964 C 1528.1 1.69547 -1.19452 0
M  V30 15965 C 1528.53 1.86531 0.242418 0
M  V30 15966 O 1527.89 1.38052 1.17521 0
M  V30 15967 C 1527.93 3.06139 -1.90556 0
M  V30 15968 O 1527.04 3.9401 -1.21779 0
M  V30 15969 H 1526.38 0.518902 -0.41429 0
M  V30 15970 H 1528.91 1.13327 -1.70347 0
M  V30 15971 H 1528.92 3.56326 -1.98736 0
M  V30 15972 H 1527.59 2.93094 -2.95074 0
M  V30 15973 H 1526.17 3.52444 -1.2181 0
M  V30 15974 N 1528.36 1.11264 1.11616 0
M  V30 15975 C 1529.6 0.870286 1.84947 0
M  V30 15976 C 1529.96 -0.593351 1.82602 0
M  V30 15977 O 1531.16 -0.952396 2.51362 0
M  V30 15978 C 1529.43 1.4142 3.2823 0
M  V30 15979 S 1530.99 1.30856 4.18834 0
M  V30 15980 H 1527.81 0.314257 0.63778 0
M  V30 15981 H 1530.41 1.41978 1.34397 0
M  V30 15982 H 1529.11 2.47328 3.27501 0
M  V30 15983 H 1528.65 0.861661 3.83848 0
M  V30 15984 H 1530.66 0.271878 4.95455 0
M  V30 15985 N 1529.83 -1.29188 0.902679 0
M  V30 15986 C 1531.08 -1.95438 0.530124 0
M  V30 15987 C 1531.41 -1.71142 -0.924149 0
M  V30 15988 O 1530.66 -1.01901 -1.67077 0
M  V30 15989 C 1530.96 -3.48951 0.772542 0
M  V30 15990 C 1530.63 -3.93328 2.20464 0
M  V30 15991 C 1529.29 -4.05155 2.59621 0
M  V30 15992 C 1531.64 -4.16216 3.13709 0
M  V30 15993 C 1528.97 -4.37242 3.91198 0
M  V30 15994 C 1531.32 -4.49779 4.44839 0
M  V30 15995 C 1529.99 -4.59817 4.83865 0
M  V30 15996 H 1529.26 -0.715158 0.193986 0
M  V30 15997 H 1531.9 -1.5373 1.1419 0
M  V30 15998 H 1530.21 -3.91723 0.0778683 0
M  V30 15999 H 1531.91 -3.98311 0.463623 0
M  V30 16000 H 1528.5 -3.84641 1.89075 0
M  V30 16001 H 1532.68 -4.06542 2.8467 0
M  V30 16002 H 1527.94 -4.43217 4.21152 0
M  V30 16003 H 1532.11 -4.66439 5.17115 0
M  V30 16004 H 1529.74 -4.84435 5.85856 0
M  V30 16005 N 1531.31 -0.665475 -1.42861 0
M  V30 16006 C 1532.27 0.00932351 -2.29198 0
M  V30 16007 C 1533.27 0.738356 -1.42846 0
M  V30 16008 O 1534.46 0.57776 -1.6434 0
M  V30 16009 C 1531.6 1.02392 -3.25159 0
M  V30 16010 H 1532.79 -0.750481 -2.90358 0
M  V30 16011 H 1530.34 -0.427334 -1.50345 0
M  V30 16012 H 1531.08 1.81254 -2.68919 0
M  V30 16013 H 1530.86 0.504671 -3.88839 0
M  V30 16014 H 1532.35 1.49479 -3.89931 0
M  V30 16015 N 1532.79 1.52222 -0.408187 0
M  V30 16016 C 1534.01 2.06703 0.169901 0
M  V30 16017 C 1534.44 1.27635 1.3817 0
M  V30 16018 O 1533.8 0.306343 1.78693 0
M  V30 16019 C 1533.85 3.57121 0.499663 0
M  V30 16020 O 1532.95 3.80483 1.5908 0
M  V30 16021 H 1532.29 0.663839 0.0146145 0
M  V30 16022 H 1534.82 1.96174 -0.581113 0
M  V30 16023 H 1534.83 4.00886 0.758567 0
M  V30 16024 H 1533.51 4.14103 -0.386182 0
M  V30 16025 H 1532.08 3.48599 1.32413 0
M  V30 16026 N 1534.27 0.138579 1.5699 0
M  V30 16027 C 1535.49 -0.525074 2.00643 0
M  V30 16028 C 1535.92 -1.58174 1.01796 0
M  V30 16029 O 1535.28 -1.81298 -0.00754003 0
M  V30 16030 C 1535.32 -1.11019 3.43085 0
M  V30 16031 O 1534.43 -2.22529 3.4721 0
M  V30 16032 H 1533.77 -0.129283 0.651292 0
M  V30 16033 H 1536.3 0.23283 2.03271 0
M  V30 16034 H 1536.31 -1.44093 3.81708 0
M  V30 16035 H 1534.98 -0.336325 4.14538 0
M  V30 16036 H 1533.56 -1.90747 3.20422 0
M  V30 16037 N 1535.75 -1.57019 -0.13521 0
M  V30 16038 C 1536.97 -1.88528 -0.864399 0
M  V30 16039 C 1537.4 -0.728852 -1.73405 0
M  V30 16040 O 1536.75 0.321196 -1.78432 0
M  V30 16041 C 1536.8 -3.18694 -1.6872 0
M  V30 16042 O 1535.91 -3.03458 -2.79262 0
M  V30 16043 H 1535.25 -0.61909 -0.24005 0
M  V30 16044 H 1537.78 -2.04233 -0.12248 0
M  V30 16045 H 1537.79 -3.51011 -2.0798 0
M  V30 16046 H 1536.46 -4.02462 -1.04868 0
M  V30 16047 H 1535.04 -2.82575 -2.43323 0
M  V30 16048 N 1537.22 0.404919 -1.52309 0
M  V30 16049 C 1538.45 1.17764 -1.70723 0
M  V30 16050 C 1538.87 1.83403 -0.417744 0
M  V30 16051 O 1538.23 1.70181 0.625157 0
M  V30 16052 C 1538.28 2.2133 -2.84685 0
M  V30 16053 O 1537.38 3.27566 -2.50548 0
M  V30 16054 H 1536.73 0.343572 -0.568203 0
M  V30 16055 H 1539.26 0.474093 -1.99031 0
M  V30 16056 H 1539.27 2.6559 -3.09719 0
M  V30 16057 H 1537.94 1.72939 -3.78239 0
M  V30 16058 H 1536.52 2.88556 -2.36199 0
M  V30 16059 N 1538.7 1.43003 0.662408 0
M  V30 16060 C 1539.93 1.47555 1.45035 0
M  V30 16061 C 1540.35 0.0906083 1.88582 0
M  V30 16062 O 1539.7 -0.897271 1.58919 0
M  V30 16063 C 1539.75 2.41345 2.69137 0
M  V30 16064 O 1539.47 3.74453 2.27413 0
M  V30 16065 C 1540.98 2.55045 3.62584 0
M  V30 16066 H 1538.2 0.501448 0.44586 0
M  V30 16067 H 1540.74 1.8765 0.812879 0
M  V30 16068 H 1538.89 2.0447 3.29045 0
M  V30 16069 H 1539.31 4.24801 3.07643 0
M  V30 16070 H 1540.78 3.24766 4.46353 0
M  V30 16071 H 1541.26 1.59235 4.09318 0
M  V30 16072 H 1541.87 2.92693 3.08563 0
M  V30 16073 N 1540.18 -0.899904 1.29381 0
M  V30 16074 C 1541.43 -1.65282 1.17515 0
M  V30 16075 C 1541.76 -1.92275 -0.272788 0
M  V30 16076 O 1541.03 -1.53303 -1.19701 0
M  V30 16077 C 1541.32 -3.00207 1.98867 0
M  V30 16078 C 1541.17 -2.80281 3.51799 0
M  V30 16079 C 1542.49 -4.00936 1.81489 0
M  V30 16080 H 1539.61 -0.5998 0.428263 0
M  V30 16081 H 1542.25 -1.04241 1.58852 0
M  V30 16082 H 1540.4 -3.52308 1.63741 0
M  V30 16083 H 1542.07 -2.35082 3.96905 0
M  V30 16084 H 1540.32 -2.15068 3.76733 0
M  V30 16085 H 1540.99 -3.76155 4.03994 0
M  V30 16086 H 1543.46 -3.57944 2.12169 0
M  V30 16087 H 1542.34 -4.9328 2.4076 0
M  V30 16088 H 1542.6 -4.35342 0.770021 0
M  V30 16089 N 1541.66 -1.11854 -1.11024 0
M  V30 16090 C 1542.57 -0.79368 -2.20767 0
M  V30 16091 C 1543.58 0.214996 -1.72667 0
M  V30 16092 O 1544.76 0.0500976 -2.01338 0
M  V30 16093 C 1541.83 -0.246375 -3.45823 0
M  V30 16094 C 1540.89 -1.31421 -4.0869 0
M  V30 16095 C 1540.12 -0.792922 -5.27777 0
M  V30 16096 O 1540.34 0.375492 -5.69163 0
M  V30 16097 O 1539.28 -1.55971 -5.8134 0
M  V30 16098 H 1543.1 -1.71011 -2.50976 0
M  V30 16099 H 1540.69 -0.894752 -1.19643 0
M  V30 16100 H 1542.57 0.0542632 -4.21365 0
M  V30 16101 H 1541.24 0.642703 -3.17255 0
M  V30 16102 H 1540.15 -1.66792 -3.3486 0
M  V30 16103 H 1541.48 -2.17683 -4.41446 0
M  V30 16104 N 1543.14 1.28707 -0.909517 0
M  V30 16105 C 1544.05 2.31171 -0.399628 0
M  V30 16106 C 1545.06 1.6634 0.510582 0
M  V30 16107 O 1546.24 1.97432 0.397792 0
M  V30 16108 C 1543.3 3.44869 0.355852 0
M  V30 16109 C 1542.36 4.25267 -0.587065 0
M  V30 16110 C 1541.6 5.33536 0.132456 0
M  V30 16111 O 1541.82 5.54075 1.35486 0
M  V30 16112 O 1540.75 5.99561 -0.530062 0
M  V30 16113 H 1544.58 2.76785 -1.24995 0
M  V30 16114 H 1542.17 1.33323 -0.674186 0
M  V30 16115 H 1544.05 4.14068 0.782692 0
M  V30 16116 H 1542.72 3.01345 1.18207 0
M  V30 16117 H 1541.63 3.58673 -1.06322 0
M  V30 16118 H 1542.96 4.72459 -1.37998 0
M  V30 16119 N 1544.61 0.673042 1.42506 0
M  V30 16120 C 1546.03 0.342429 1.55883 0
M  V30 16121 C 1546.23 -1.15229 1.65302 0
M  V30 16122 O 1545.29 -1.93767 1.61897 0
M  V30 16123 C 1546.6 1.0712 2.80973 0
M  V30 16124 C 1548.15 1.05336 2.94743 0
M  V30 16125 C 1548.62 1.76342 4.22691 0
M  V30 16126 N 1550.11 1.73201 4.29599 0
M  V30 16127 C 1550.85 2.25 5.27411 0
M  V30 16128 N 1550.34 2.85173 6.31386 0
M  V30 16129 N 1552.14 2.15385 5.19197 0
M  V30 16130 H 1544.29 1.64277 1.34636 0
M  V30 16131 H 1546.55 0.691984 0.647968 0
M  V30 16132 H 1546.26 2.1263 2.80145 0
M  V30 16133 H 1546.13 0.635313 3.71811 0
M  V30 16134 H 1548.52 0.00659669 2.95099 0
M  V30 16135 H 1548.6 1.52811 2.0514 0
M  V30 16136 H 1548.24 2.80985 4.23096 0
M  V30 16137 H 1548.17 1.26317 5.11225 0
M  V30 16138 H 1550.66 1.2931 3.55088 0
M  V30 16139 H 1550.98 3.22323 7.02373 0
M  V30 16140 H 1549.32 2.89242 6.31953 0
M  V30 16141 H 1552.51 1.68065 4.36889 0
M  V30 16142 H 1552.69 2.5606 5.95262 0
M  V30 16143 N 1546.09 -1.52004 0.416254 0
M  V30 16144 C 1547.5 -1.86628 -0.0517247 0
M  V30 16145 C 1547.85 -1.33463 -1.43813 0
M  V30 16146 O 1546.98 -0.676793 -2.05544 0
M  V30 16147 C 1547.57 -3.38651 -0.100637 0
M  V30 16148 C 1546.13 -3.72888 -0.512969 0
M  V30 16149 C 1545.28 -2.75584 0.307975 0
M  V30 16150 H 1548.23 -1.45529 0.633018 0
M  V30 16151 H 1548.25 -3.69348 -0.914465 0
M  V30 16152 H 1547.76 -3.77316 0.908538 0
M  V30 16153 H 1545.87 -3.39804 -1.52852 0
M  V30 16154 H 1545.98 -4.78435 -0.252408 0
M  V30 16155 H 1544.34 -2.53653 -0.230717 0
M  V30 16156 H 1545.13 -3.1709 1.31563 0
M  V30 16157 N 1547.57 -0.146903 -1.56914 0
M  V30 16158 C 1548.82 0.503237 -1.95734 0
M  V30 16159 C 1549.14 1.65407 -1.03275 0
M  V30 16160 O 1548.41 1.95673 -0.0942784 0
M  V30 16161 H 1546.99 0.188899 -0.722721 0
M  V30 16162 H 1549.65 -0.222379 -1.93627 0
M  V30 16163 H 1548.75 0.879445 -2.99453 0
M  V30 16164 N 1549.05 1.57088 0.126881 0
M  V30 16165 C 1549.98 2.02799 1.15737 0
M  V30 16166 C 1550.96 0.911031 1.43646 0
M  V30 16167 O 1552.14 1.18021 1.54223 0
M  V30 16168 C 1549.27 2.42565 2.48555 0
M  V30 16169 C 1548.23 3.57631 2.35125 0
M  V30 16170 C 1547.55 3.83272 3.72836 0
M  V30 16171 C 1548.85 4.89625 1.81838 0
M  V30 16172 H 1550.55 2.89136 0.777207 0
M  V30 16173 H 1548.09 1.39101 0.372416 0
M  V30 16174 H 1550.05 2.73146 3.20888 0
M  V30 16175 H 1548.77 1.53188 2.88446 0
M  V30 16176 H 1547.43 3.27247 1.65242 0
M  V30 16177 H 1547.08 2.91114 4.10197 0
M  V30 16178 H 1546.78 4.60721 3.64705 0
M  V30 16179 H 1548.3 4.16298 4.46686 0
M  V30 16180 H 1549.72 5.18793 2.43981 0
M  V30 16181 H 1548.11 5.71018 1.84548 0
M  V30 16182 H 1549.18 4.7866 0.775385 0
M  V30 16183 N 1550.53 -0.396836 1.52522 0
M  V30 16184 C 1551.94 -0.975124 1.59211 0
M  V30 16185 C 1552.29 -1.91199 0.440138 0
M  V30 16186 O 1551.41 -2.11924 -0.437856 0
M  V30 16187 C 1552.01 -1.77531 2.88562 0
M  V30 16188 C 1550.57 -2.30343 2.9769 0
M  V30 16189 C 1549.71 -1.10671 2.54258 0
M  V30 16190 H 1552.67 -0.176646 1.57714 0
M  V30 16191 H 1552.69 -2.63384 2.74607 0
M  V30 16192 H 1552.2 -1.09318 3.72386 0
M  V30 16193 H 1550.3 -3.01891 2.18387 0
M  V30 16194 H 1550.41 -2.60366 4.02177 0
M  V30 16195 H 1548.78 -1.46439 2.08393 0
M  V30 16196 H 1549.56 -0.440061 3.40468 0
M  V30 16197 N 1552.01 -1.43353 -0.654814 0
M  V30 16198 C 1552.97 -1.4806 -1.7496 0
M  V30 16199 C 1553.97 -0.365513 -1.56591 0
M  V30 16200 O 1555.16 -0.627194 -1.62517 0
M  V30 16201 C 1552.29 -1.33165 -3.13815 0
M  V30 16202 H 1553.48 -2.45557 -1.72167 0
M  V30 16203 H 1551.04 -1.30094 -0.86632 0
M  V30 16204 H 1551.77 -0.366689 -3.2222 0
M  V30 16205 H 1551.56 -2.13998 -3.28553 0
M  V30 16206 H 1553.05 -1.39388 -3.93651 0
M  V30 16207 N 1553.48 0.89303 -1.29857 0
M  V30 16208 C 1554.41 2.01422 -1.18117 0
M  V30 16209 C 1555.39 1.6994 -0.0737487 0
M  V30 16210 O 1556.58 1.92527 -0.254387 0
M  V30 16211 C 1553.71 3.36385 -0.863842 0
M  V30 16212 C 1552.66 3.821 -1.92831 0
M  V30 16213 C 1551.99 5.14263 -1.46415 0
M  V30 16214 C 1553.29 4.01699 -3.33819 0
M  V30 16215 H 1554.98 2.11502 -2.11913 0
M  V30 16216 H 1552.53 1.01622 -1.02024 0
M  V30 16217 H 1554.48 4.14335 -0.768397 0
M  V30 16218 H 1553.21 3.26415 0.109816 0
M  V30 16219 H 1551.87 3.06372 -2.01325 0
M  V30 16220 H 1551.51 5.00714 -0.478983 0
M  V30 16221 H 1551.21 5.45821 -2.17609 0
M  V30 16222 H 1552.74 5.94747 -1.38234 0
M  V30 16223 H 1554.15 4.70111 -3.28129 0
M  V30 16224 H 1552.55 4.44621 -4.03029 0
M  V30 16225 H 1553.62 3.05816 -3.76304 0
M  V30 16226 N 1554.96 1.12442 1.10429 0
M  V30 16227 C 1555.89 0.814745 2.18824 0
M  V30 16228 C 1556.87 -0.221476 1.68652 0
M  V30 16229 O 1558.06 -0.0826537 1.94024 0
M  V30 16230 C 1555.19 0.268632 3.4626 0
M  V30 16231 C 1554.14 1.23792 4.09707 0
M  V30 16232 C 1553.47 0.552034 5.31843 0
M  V30 16233 C 1554.77 2.5926 4.53411 0
M  V30 16234 H 1556.46 1.72111 2.44986 0
M  V30 16235 H 1554.01 0.828968 1.17746 0
M  V30 16236 H 1555.96 0.0397207 4.21381 0
M  V30 16237 H 1554.68 -0.673079 3.19589 0
M  V30 16238 H 1553.34 1.45264 3.36592 0
M  V30 16239 H 1552.99 -0.394821 5.01448 0
M  V30 16240 H 1552.69 1.19861 5.75245 0
M  V30 16241 H 1554.22 0.332161 6.09696 0
M  V30 16242 H 1555.63 2.41816 5.19806 0
M  V30 16243 H 1554.03 3.19997 5.07663 0
M  V30 16244 H 1555.1 3.17699 3.66327 0
M  V30 16245 N 1556.44 -1.28223 0.91633 0
M  V30 16246 C 1557.85 -1.76898 0.597003 0
M  V30 16247 C 1558.2 -1.74969 -0.887719 0
M  V30 16248 O 1557.33 -1.34598 -1.69447 0
M  V30 16249 C 1557.92 -3.21228 1.07694 0
M  V30 16250 C 1556.48 -3.67614 0.80849 0
M  V30 16251 C 1555.63 -2.47921 1.24219 0
M  V30 16252 H 1558.58 -1.1465 1.09732 0
M  V30 16253 H 1558.6 -3.7818 0.419531 0
M  V30 16254 H 1558.11 -3.226 2.15757 0
M  V30 16255 H 1556.21 -3.717 -0.258814 0
M  V30 16256 H 1556.33 -4.57633 1.41804 0
M  V30 16257 H 1554.69 -2.45976 0.660892 0
M  V30 16258 H 1555.47 -2.5201 2.33122 0
M  V30 16259 N 1557.92 -0.68059 -1.42147 0
M  V30 16260 C 1559.16 -0.205263 -2.01457 0
M  V30 16261 C 1559.49 1.19015 -1.53837 0
M  V30 16262 O 1558.75 1.81423 -0.733763 0
M  V30 16263 C 1559.05 -0.194825 -3.56869 0
M  V30 16264 C 1558.71 -1.5357 -4.23942 0
M  V30 16265 C 1557.37 -1.90282 -4.4198 0
M  V30 16266 C 1559.73 -2.41852 -4.61689 0
M  V30 16267 C 1557.05 -3.14891 -4.95036 0
M  V30 16268 C 1559.41 -3.65779 -5.16129 0
M  V30 16269 C 1558.07 -4.02653 -5.32379 0
M  V30 16270 H 1557.34 -0.0751109 -0.737183 0
M  V30 16271 H 1559.99 -0.87672 -1.70252 0
M  V30 16272 H 1558.29 0.560155 -3.87775 0
M  V30 16273 H 1559.99 0.190248 -4.00548 0
M  V30 16274 H 1556.58 -1.24012 -4.10267 0
M  V30 16275 H 1560.76 -2.14773 -4.47422 0
M  V30 16276 H 1556.02 -3.43474 -5.05802 0
M  V30 16277 H 1560.19 -4.34384 -5.4432 0
M  V30 16278 H 1557.82 -4.99283 -5.73254 0
M  V30 16279 N 1559.4 1.51781 -0.424309 0
M  V30 16280 C 1560.33 2.25144 0.429274 0
M  V30 16281 C 1561.34 1.2867 0.997389 0
M  V30 16282 O 1562.53 1.54514 0.893746 0
M  V30 16283 C 1559.63 2.98156 1.61109 0
M  V30 16284 C 1558.8 4.21623 1.16417 0
M  V30 16285 C 1557.86 4.77327 2.21462 0
M  V30 16286 O 1556.89 5.39511 1.8143 0
M  V30 16287 N 1558.09 4.60221 3.53803 0
M  V30 16288 H 1560.85 2.99036 -0.199438 0
M  V30 16289 H 1558.42 1.59919 -0.252492 0
M  V30 16290 H 1560.41 3.32312 2.30978 0
M  V30 16291 H 1558.98 2.27356 2.14541 0
M  V30 16292 H 1558.2 3.93109 0.293034 0
M  V30 16293 H 1559.49 5.01772 0.842767 0
M  V30 16294 H 1558.88 4.10661 3.89068 0
M  V30 16295 H 1557.44 4.98774 4.19604 0
M  V30 16296 N 1560.87 0.155222 1.56834 0
M  V30 16297 C 1561.84 -0.767266 2.15976 0
M  V30 16298 C 1562.84 -1.16946 1.10364 0
M  V30 16299 O 1564.03 -1.08905 1.35961 0
M  V30 16300 C 1561.16 -2.04226 2.72956 0
M  V30 16301 H 1562.35 -0.252662 2.98834 0
M  V30 16302 H 1559.9 -0.0942677 1.56015 0
M  V30 16303 H 1560.64 -2.60033 1.93787 0
M  V30 16304 H 1560.42 -1.76299 3.5023 0
M  V30 16305 H 1561.91 -2.70093 3.18495 0
M  V30 16306 N 1562.35 -1.57153 -0.118549 0
M  V30 16307 C 1563.6 -1.84511 -0.824623 0
M  V30 16308 C 1563.92 -0.740473 -1.80394 0
M  V30 16309 O 1563.19 0.235481 -1.9448 0
M  V30 16310 H 1561.77 -0.680764 -0.307522 0
M  V30 16311 H 1564.43 -1.94613 -0.105764 0
M  V30 16312 H 1563.53 -2.80444 -1.36958 0
M  V30 16313 N 1563.83 0.388742 -1.5273 0
M  V30 16314 C 1565.24 0.966667 -1.59726 0
M  V30 16315 C 1565.59 1.90963 -0.450272 0
M  V30 16316 O 1564.72 2.12153 0.426611 0
M  V30 16317 C 1565.31 1.75998 -2.895 0
M  V30 16318 C 1563.87 2.28761 -2.98907 0
M  V30 16319 C 1563.02 1.09322 -2.54841 0
M  V30 16320 H 1565.97 0.16828 -1.57805 0
M  V30 16321 H 1565.99 2.61924 -2.76 0
M  V30 16322 H 1565.5 1.07342 -3.7296 0
M  V30 16323 H 1563.6 3.00728 -2.19985 0
M  V30 16324 H 1563.72 2.58229 -4.03552 0
M  V30 16325 H 1562.08 1.45332 -2.09167 0
M  V30 16326 H 1562.86 0.421999 -3.40696 0
M  V30 16327 N 1565.31 1.43698 0.647203 0
M  V30 16328 C 1566.24 1.52135 1.77136 0
M  V30 16329 C 1567.22 0.375551 1.65902 0
M  V30 16330 O 1568.4 0.593564 1.84907 0
M  V30 16331 C 1565.53 1.44974 3.15594 0
M  V30 16332 C 1564.49 2.57866 3.41598 0
M  V30 16333 C 1563.81 2.35757 4.7992 0
M  V30 16334 C 1565.11 4.00089 3.35747 0
M  V30 16335 H 1566.81 2.46227 1.70332 0
M  V30 16336 H 1564.35 1.18507 0.818046 0
M  V30 16337 H 1566.31 1.4948 3.93997 0
M  V30 16338 H 1565.03 0.473905 3.23143 0
M  V30 16339 H 1563.69 2.52722 2.65569 0
M  V30 16340 H 1563.34 1.36403 4.84152 0
M  V30 16341 H 1563.04 3.11436 4.98278 0
M  V30 16342 H 1564.56 2.42055 5.60572 0
M  V30 16343 H 1565.98 4.06687 4.04078 0
M  V30 16344 H 1564.37 4.75842 3.65642 0
M  V30 16345 H 1565.44 4.24798 2.33825 0
M  V30 16346 N 1566.79 -0.886131 1.30328 0
M  V30 16347 C 1568.2 -1.45328 1.17203 0
M  V30 16348 C 1568.55 -1.94874 -0.227719 0
M  V30 16349 O 1567.67 -1.84901 -1.12431 0
M  V30 16350 C 1568.27 -2.64149 2.12157 0
M  V30 16351 C 1566.83 -3.16958 2.03014 0
M  V30 16352 C 1565.97 -1.89651 2.02306 0
M  V30 16353 H 1568.93 -0.696177 1.42615 0
M  V30 16354 H 1568.95 -3.40325 1.70173 0
M  V30 16355 H 1568.46 -2.28058 3.14024 0
M  V30 16356 H 1566.56 -3.57709 1.04285 0
M  V30 16357 H 1566.67 -3.80336 2.91344 0
M  V30 16358 H 1565.04 -2.07933 1.47091 0
M  V30 16359 H 1565.82 -1.5582 3.05901 0
M  V30 16360 N 1568.26 -1.13026 -1.09832 0
M  V30 16361 C 1569.68 -0.902826 -1.6342 0
M  V30 16362 C 1570.03 0.561547 -1.87992 0
M  V30 16363 O 1569.15 1.42735 -1.62652 0
M  V30 16364 C 1569.75 -1.6324 -2.96881 0
M  V30 16365 C 1568.31 -1.45095 -3.4731 0
M  V30 16366 C 1567.45 -1.66431 -2.21802 0
M  V30 16367 H 1570.4 -1.28414 -0.932492 0
M  V30 16368 H 1570.42 -1.08706 -3.64641 0
M  V30 16369 H 1569.94 -2.69816 -2.78964 0
M  V30 16370 H 1568.04 -0.408031 -3.70359 0
M  V30 16371 H 1568.15 -2.21123 -4.25019 0
M  V30 16372 H 1566.51 -1.08885 -2.30252 0
M  V30 16373 H 1567.3 -2.74317 -2.0641 0
M  V30 16374 N 1569.74 1.27735 -0.923117 0
M  V30 16375 C 1570.97 1.98682 -0.577317 0
M  V30 16376 C 1571.39 1.68904 0.843608 0
M  V30 16377 O 1570.74 0.947021 1.56006 0
M  V30 16378 C 1570.79 3.52804 -0.788144 0
M  V30 16379 O 1570.51 3.81537 -2.15316 0
M  V30 16380 C 1572.02 4.41006 -0.450437 0
M  V30 16381 H 1569.24 0.634186 -0.2192 0
M  V30 16382 H 1571.78 1.62702 -1.23888 0
M  V30 16383 H 1569.93 3.87012 -0.173441 0
M  V30 16384 H 1570.35 4.76142 -2.19976 0
M  V30 16385 H 1571.82 5.48175 -0.648674 0
M  V30 16386 H 1572.3 4.3489 0.613806 0
M  V30 16387 H 1572.91 4.1231 -1.04308 0
M  V30 16388 N 1571.22 0.688118 1.41784 0
M  V30 16389 C 1572.13 0.018397 2.34593 0
M  V30 16390 C 1573.15 -0.774275 1.55824 0
M  V30 16391 O 1574.32 -0.713546 1.88336 0
M  V30 16392 C 1571.39 -0.911914 3.34492 0
M  V30 16393 C 1570.45 -0.112284 4.29153 0
M  V30 16394 C 1569.68 -0.998285 5.2428 0
M  V30 16395 O 1569.9 -2.23782 5.24669 0
M  V30 16396 O 1568.84 -0.451951 6.00201 0
M  V30 16397 H 1572.66 0.783224 2.93427 0
M  V30 16398 H 1570.25 0.448413 1.42512 0
M  V30 16399 H 1572.13 -1.4456 3.95829 0
M  V30 16400 H 1570.81 -1.65636 2.78112 0
M  V30 16401 H 1569.71 0.465822 3.71189 0
M  V30 16402 H 1571.05 0.593338 4.88611 0
M  V30 16403 N 1572.7 -1.51554 0.432352 0
M  V30 16404 C 1574.11 -1.59377 0.0843863 0
M  V30 16405 C 1574.31 -1.44364 -1.40575 0
M  V30 16406 O 1573.37 -1.28234 -2.17514 0
M  V30 16407 C 1574.68 -2.94652 0.600046 0
M  V30 16408 C 1576.23 -3.07949 0.560049 0
M  V30 16409 C 1576.71 -4.4574 1.0526 0
M  V30 16410 N 1578.2 -4.52046 1.01038 0
M  V30 16411 C 1578.93 -5.56979 1.36242 0
M  V30 16412 N 1578.43 -6.69355 1.78707 0
M  V30 16413 N 1580.22 -5.47311 1.2809 0
M  V30 16414 H 1572.37 -1.59558 1.40197 0
M  V30 16415 H 1574.64 -0.751868 0.577406 0
M  V30 16416 H 1574.34 -3.10993 1.64245 0
M  V30 16417 H 1574.22 -3.77193 0.0222482 0
M  V30 16418 H 1576.6 -2.91279 -0.473357 0
M  V30 16419 H 1576.68 -2.27259 1.17419 0
M  V30 16420 H 1576.33 -4.63156 2.08445 0
M  V30 16421 H 1576.26 -5.24962 0.415047 0
M  V30 16422 H 1578.75 -3.71389 0.69847 0
M  V30 16423 H 1579.06 -7.45438 2.03819 0
M  V30 16424 H 1577.41 -6.70576 1.82629 0
M  V30 16425 H 1580.6 -4.58403 0.947848 0
M  V30 16426 H 1580.77 -6.28978 1.55855 0
M  V30 16427 N 1574.18 -0.163538 -1.56749 0
M  V30 16428 C 1575.4 0.489888 -2.01017 0
M  V30 16429 C 1575.82 1.57327 -1.04373 0
M  V30 16430 O 1575.18 1.82449 -0.0433414 0
M  V30 16431 C 1575.23 1.07537 -3.45135 0
M  V30 16432 O 1574.95 0.0352465 -4.38086 0
M  V30 16433 C 1576.45 1.80779 -4.04764 0
M  V30 16434 H 1573.67 0.126095 -0.659046 0
M  V30 16435 H 1576.21 -0.262982 -2.02802 0
M  V30 16436 H 1574.37 1.77877 -3.44149 0
M  V30 16437 H 1574.78 0.466426 -5.22422 0
M  V30 16438 H 1576.26 2.17014 -5.07552 0
M  V30 16439 H 1576.73 2.6999 -3.46413 0
M  V30 16440 H 1577.34 1.15098 -4.09429 0
M  V30 16441 N 1575.65 1.57214 0.110213 0
M  V30 16442 C 1576.58 2.04015 1.13579 0
M  V30 16443 C 1577.57 0.926215 1.42672 0
M  V30 16444 O 1578.75 1.19651 1.52962 0
M  V30 16445 C 1575.88 2.45187 2.45969 0
M  V30 16446 C 1574.83 3.60105 2.31319 0
M  V30 16447 C 1574.16 3.87205 3.68749 0
M  V30 16448 C 1575.46 4.91526 1.76635 0
M  V30 16449 H 1577.15 2.89944 0.746496 0
M  V30 16450 H 1574.7 1.39488 0.357642 0
M  V30 16451 H 1576.65 2.76534 3.17973 0
M  V30 16452 H 1575.38 1.56238 2.86805 0
M  V30 16453 H 1574.04 3.28981 1.61762 0
M  V30 16454 H 1573.68 2.95448 4.07087 0
M  V30 16455 H 1573.38 4.64563 3.59798 0
M  V30 16456 H 1574.91 4.21013 4.42245 0
M  V30 16457 H 1576.32 5.21351 2.38465 0
M  V30 16458 H 1574.72 5.72944 1.78482 0
M  V30 16459 H 1575.79 4.79456 0.724573 0
M  V30 16460 N 1577.13 -0.380637 1.52934 0
M  V30 16461 C 1578.06 -1.47174 1.81279 0
M  V30 16462 C 1579.04 -1.56549 0.665319 0
M  V30 16463 O 1580.23 -1.71362 0.913722 0
M  V30 16464 C 1577.36 -2.84691 1.98918 0
M  V30 16465 C 1576.31 -2.90151 3.14637 0
M  V30 16466 C 1575.64 -4.30198 3.17544 0
M  V30 16467 C 1576.94 -2.59037 4.53539 0
M  V30 16468 H 1578.63 -1.23703 2.7265 0
M  V30 16469 H 1576.18 -0.593654 1.31194 0
M  V30 16470 H 1578.13 -3.61034 2.1733 0
M  V30 16471 H 1576.86 -3.09517 1.04244 0
M  V30 16472 H 1575.51 -2.16257 2.96021 0
M  V30 16473 H 1575.16 -4.52076 2.20536 0
M  V30 16474 H 1574.86 -4.3477 3.95284 0
M  V30 16475 H 1576.39 -5.08435 3.38121 0
M  V30 16476 H 1577.8 -3.25096 4.72214 0
M  V30 16477 H 1576.2 -2.74946 5.33408 0
M  V30 16478 H 1577.27 -1.54342 4.59681 0
M  V30 16479 N 1578.61 -1.44039 -0.639573 0
M  V30 16480 C 1579.89 -1.36853 -1.39752 0
M  V30 16481 C 1580.27 -0.0230515 -2.11087 0
M  V30 16482 O 1579.62 0.994061 -2.05744 0
M  V30 16483 C 1579.83 -2.56101 -2.37093 0
M  V30 16484 C 1581.17 -2.99793 -3.00681 0
M  V30 16485 O 1582.2 -2.56246 -2.4742 0
M  V30 16486 O 1581.06 -3.75274 -3.97281 0
M  V30 16487 H 1578.15 -0.541521 -0.625047 0
M  V30 16488 H 1580.7 -1.56113 -0.665336 0
M  V30 16489 H 1579.47 -3.45647 -1.83422 0
M  V30 16490 H 1579.09 -2.39011 -3.17741 0
M  V30 16491 N 1580.09 0.879207 -1.30796 0
M  V30 16492 C 1581.02 2.00158 -1.20246 0
M  V30 16493 C 1582 1.69852 -0.091769 0
M  V30 16494 O 1583.18 1.92246 -0.274792 0
M  V30 16495 C 1580.31 3.3545 -0.899472 0
M  V30 16496 C 1579.27 3.80033 -1.96873 0
M  V30 16497 C 1578.59 5.12681 -1.51861 0
M  V30 16498 C 1579.89 3.98136 -3.38061 0
M  V30 16499 H 1581.59 2.09242 -2.14145 0
M  V30 16500 H 1579.13 1.00535 -1.03096 0
M  V30 16501 H 1581.09 4.13497 -0.812299 0
M  V30 16502 H 1579.81 3.26513 0.075189 0
M  V30 16503 H 1578.47 3.04219 -2.04564 0
M  V30 16504 H 1578.12 5.00178 -0.532063 0
M  V30 16505 H 1577.82 5.43482 -2.23386 0
M  V30 16506 H 1579.34 5.93247 -1.44534 0
M  V30 16507 H 1580.76 4.66604 -3.33096 0
M  V30 16508 H 1579.15 4.40321 -4.07722 0
M  V30 16509 H 1580.22 3.01807 -3.79526 0
M  V30 16510 N 1581.57 1.13606 1.09231 0
M  V30 16511 C 1582.84 0.81012 1.78035 0
M  V30 16512 C 1583.22 -0.697953 1.99228 0
M  V30 16513 O 1582.57 -1.63592 1.5953 0
M  V30 16514 C 1582.78 1.59932 3.10198 0
M  V30 16515 C 1584.13 1.79328 3.84872 0
M  V30 16516 O 1585.15 1.56547 3.19955 0
M  V30 16517 O 1584.01 2.17355 5.01417 0
M  V30 16518 H 1581.11 0.295995 0.772215 0
M  V30 16519 H 1583.65 1.24079 1.15769 0
M  V30 16520 H 1582.43 2.6241 2.9027 0
M  V30 16521 H 1582.05 1.16371 3.80189 0
M  V30 16522 N 1583.05 -1.27244 0.929878 0
M  V30 16523 C 1584.01 -2.25028 0.435315 0
M  V30 16524 C 1585.01 -1.54453 -0.447332 0
M  V30 16525 O 1586.2 -1.72424 -0.248105 0
M  V30 16526 C 1583.33 -3.38843 -0.373933 0
M  V30 16527 H 1584.52 -2.70293 1.2993 0
M  V30 16528 H 1582.08 -1.39204 0.710771 0
M  V30 16529 H 1582.81 -2.98963 -1.25664 0
M  V30 16530 H 1582.6 -3.91244 0.258946 0
M  V30 16531 H 1584.09 -4.11516 -0.710255 0
M  V30 16532 N 1584.52 -0.695628 -1.41417 0
M  V30 16533 C 1585.43 -0.0308378 -2.3458 0
M  V30 16534 C 1586.45 0.766 -1.56232 0
M  V30 16535 O 1587.63 0.703548 -1.88712 0
M  V30 16536 C 1584.69 0.894162 -3.34971 0
M  V30 16537 C 1583.75 0.0895231 -4.29207 0
M  V30 16538 C 1582.98 0.970467 -5.24802 0
M  V30 16539 O 1583.21 2.20997 -5.25848 0
M  V30 16540 O 1582.14 0.420114 -6.00432 0
M  V30 16541 H 1585.97 -0.798775 -2.93007 0
M  V30 16542 H 1583.55 -0.455964 -1.42272 0
M  V30 16543 H 1585.43 1.42458 -3.9659 0
M  V30 16544 H 1584.11 1.64159 -2.78987 0
M  V30 16545 H 1583.02 -0.4855 -3.70936 0
M  V30 16546 H 1584.35 -0.619241 -4.88289 0
M  V30 16547 N 1586 1.51322 -0.440383 0
M  V30 16548 C 1587.25 2.01714 0.124815 0
M  V30 16549 C 1587.57 1.32634 1.42945 0
M  V30 16550 O 1586.84 0.461849 1.90378 0
M  V30 16551 H 1585.42 0.745384 0.049116 0
M  V30 16552 H 1588.08 1.85951 -0.583787 0
M  V30 16553 H 1587.18 3.10669 0.29853 0
M  V30 16554 N 1587.48 0.171848 1.5666 0
M  V30 16555 C 1588.41 -0.789671 2.15167 0
M  V30 16556 C 1589.42 -1.19335 1.10739 0
M  V30 16557 O 1590.61 -1.13311 1.37924 0
M  V30 16558 C 1587.71 -2.07448 2.6799 0
M  V30 16559 C 1586.89 -1.83429 3.9708 0
M  V30 16560 C 1585.95 -2.96134 4.34961 0
M  V30 16561 O 1584.97 -2.66746 5.02827 0
M  V30 16562 N 1586.17 -4.23932 3.96563 0
M  V30 16563 H 1588.94 -0.289484 2.98299 0
M  V30 16564 H 1586.5 -0.0109154 1.61896 0
M  V30 16565 H 1588.49 -2.81941 2.90329 0
M  V30 16566 H 1587.06 -2.48656 1.89444 0
M  V30 16567 H 1586.28 -0.928376 3.83112 0
M  V30 16568 H 1587.57 -1.64749 4.81389 0
M  V30 16569 H 1586.97 -4.50668 3.41928 0
M  V30 16570 H 1585.52 -4.95126 4.23903 0
M  V30 16571 N 1588.96 -1.5727 -0.101874 0
M  V30 16572 C 1590.18 -1.90319 -0.824215 0
M  V30 16573 C 1590.61 -0.765469 -1.7182 0
M  V30 16574 O 1589.97 0.283275 -1.79073 0
M  V30 16575 C 1590.01 -3.22201 -1.61922 0
M  V30 16576 O 1589.12 -3.09313 -2.72762 0
M  V30 16577 H 1588.46 -0.624042 -0.226864 0
M  V30 16578 H 1590.99 -2.04447 -0.0791314 0
M  V30 16579 H 1591 -3.55343 -2.00487 0
M  V30 16580 H 1589.67 -4.04596 -0.963078 0
M  V30 16581 H 1588.25 -2.87672 -2.37274 0
M  V30 16582 N 1590.44 0.372521 -1.53134 0
M  V30 16583 C 1591.37 1.4759 -1.75357 0
M  V30 16584 C 1592.38 1.49938 -0.634223 0
M  V30 16585 O 1593.57 1.53543 -0.910322 0
M  V30 16586 C 1590.67 2.86382 -1.81214 0
M  V30 16587 C 1589.84 3.0781 -3.1076 0
M  V30 16588 C 1588.9 4.26677 -3.07949 0
M  V30 16589 O 1587.93 4.22186 -3.81769 0
M  V30 16590 N 1589.13 5.33729 -2.28283 0
M  V30 16591 H 1591.89 1.28908 -2.7056 0
M  V30 16592 H 1589.46 0.562186 -1.51826 0
M  V30 16593 H 1591.45 3.64029 -1.7682 0
M  V30 16594 H 1590.02 2.98344 -0.933249 0
M  V30 16595 H 1589.24 2.17884 -3.28512 0
M  V30 16596 H 1590.53 3.18991 -3.96386 0
M  V30 16597 H 1589.92 5.40238 -1.67806 0
M  V30 16598 H 1588.48 6.09979 -2.29714 0
M  V30 16599 N 1591.91 1.44376 0.631925 0
M  V30 16600 C 1593.19 1.37592 1.39024 0
M  V30 16601 C 1593.57 0.0342456 2.11072 0
M  V30 16602 O 1592.92 -0.983136 2.06268 0
M  V30 16603 C 1593.13 2.57355 2.35732 0
M  V30 16604 C 1594.48 3.01384 2.99087 0
M  V30 16605 O 1595.5 2.57554 2.46057 0
M  V30 16606 O 1594.36 3.77375 3.95285 0
M  V30 16607 H 1591.45 0.544828 0.622167 0
M  V30 16608 H 1594 1.56464 0.657048 0
M  V30 16609 H 1592.77 3.46615 1.81587 0
M  V30 16610 H 1592.39 2.40693 3.16469 0
M  V30 16611 N 1593.39 -0.872258 1.31261 0
M  V30 16612 C 1594.62 -1.6632 1.23905 0
M  V30 16613 C 1595.04 -1.87109 -0.192878 0
M  V30 16614 O 1594.4 -1.4112 -1.1382 0
M  V30 16615 C 1594.45 -3.00979 1.98606 0
M  V30 16616 O 1593.55 -3.90642 1.32183 0
M  V30 16617 H 1592.89 -0.507736 0.427902 0
M  V30 16618 H 1595.42 -1.0877 1.73292 0
M  V30 16619 H 1595.43 -3.50931 2.08113 0
M  V30 16620 H 1594.11 -2.85168 3.02741 0
M  V30 16621 H 1592.68 -3.4909 1.31112 0
M  V30 16622 N 1594.87 -1.14184 -1.08627 0
M  V30 16623 C 1596.1 -0.932104 -1.84714 0
M  V30 16624 C 1596.51 0.519335 -1.81517 0
M  V30 16625 O 1595.87 1.35978 -1.21722 0
M  V30 16626 C 1595.92 -1.42217 -3.3235 0
M  V30 16627 O 1595.64 -2.81674 -3.35547 0
M  V30 16628 C 1597.14 -1.25205 -4.25251 0
M  V30 16629 H 1594.36 -0.331854 -0.583193 0
M  V30 16630 H 1596.91 -1.51641 -1.37205 0
M  V30 16631 H 1595.06 -0.880679 -3.77257 0
M  V30 16632 H 1595.48 -3.03615 -4.2769 0
M  V30 16633 H 1596.95 -1.64358 -5.26963 0
M  V30 16634 H 1597.43 -0.194659 -4.38768 0
M  V30 16635 H 1598.03 -1.78198 -3.86168 0
M  V30 16636 N 1596.35 1.26749 -0.936613 0
M  V30 16637 C 1597.59 1.94251 -0.582616 0
M  V30 16638 C 1597.93 1.73352 0.875361 0
M  V30 16639 O 1597.2 1.06784 1.62565 0
M  V30 16640 C 1597.49 3.48145 -0.920151 0
M  V30 16641 C 1597.34 3.78349 -2.43253 0
M  V30 16642 C 1598.66 4.37971 -0.432326 0
M  V30 16643 H 1595.78 0.705507 -0.213141 0
M  V30 16644 H 1598.42 1.49703 -1.17001 0
M  V30 16645 H 1596.57 3.8622 -0.420279 0
M  V30 16646 H 1598.24 3.50015 -3.00478 0
M  V30 16647 H 1596.48 3.24586 -2.87795 0
M  V30 16648 H 1597.15 4.85902 -2.61922 0
M  V30 16649 H 1599.63 4.07098 -0.860857 0
M  V30 16650 H 1598.51 5.44452 -0.697366 0
M  V30 16651 H 1598.77 4.37029 0.667694 0
M  V30 16652 N 1597.83 0.703118 1.41046 0
M  V30 16653 C 1599.24 0.311167 1.84089 0
M  V30 16654 C 1599.59 -1.15202 1.58818 0
M  V30 16655 O 1598.71 -1.88518 1.06254 0
M  V30 16656 C 1599.31 0.557986 3.34174 0
M  V30 16657 C 1597.87 0.219875 3.75757 0
M  V30 16658 C 1597.01 0.836543 2.64381 0
M  V30 16659 H 1599.97 0.903211 1.30491 0
M  V30 16660 H 1599.99 -0.180865 3.8007 0
M  V30 16661 H 1599.5 1.62298 3.52535 0
M  V30 16662 H 1597.6 -0.840559 3.62995 0
M  V30 16663 H 1597.71 0.680165 4.74247 0
M  V30 16664 H 1596.08 0.265547 2.53312 0
M  V30 16665 H 1596.86 1.90556 2.85558 0
M  V30 16666 N 1599.3 -1.51086 0.448402 0
M  V30 16667 C 1600.23 -2.30896 -0.347773 0
M  V30 16668 C 1601.22 -1.36792 -1.01104 0
M  V30 16669 O 1602.4 -1.65713 -1.01257 0
M  V30 16670 C 1599.53 -3.15901 -1.44304 0
M  V30 16671 C 1598.48 -4.18373 -0.90265 0
M  V30 16672 C 1597.81 -4.9197 -2.0945 0
M  V30 16673 C 1599.11 -5.22252 0.0705335 0
M  V30 16674 H 1600.8 -2.97704 0.318273 0
M  V30 16675 H 1598.35 -1.43169 0.154509 0
M  V30 16676 H 1600.3 -3.70519 -2.00733 0
M  V30 16677 H 1599.03 -2.46935 -2.13753 0
M  V30 16678 H 1597.69 -3.64823 -0.3605 0
M  V30 16679 H 1597.33 -4.19497 -2.77545 0
M  V30 16680 H 1597.03 -5.6127 -1.73926 0
M  V30 16681 H 1598.56 -5.49415 -2.66412 0
M  V30 16682 H 1599.97 -5.71876 -0.403814 0
M  V30 16683 H 1598.37 -5.99142 0.338905 0
M  V30 16684 H 1599.44 -4.74398 1.00373 0
M  V30 16685 N 1600.78 -0.180154 -1.56567 0
M  V30 16686 C 1602.02 0.464869 -1.99044 0
M  V30 16687 C 1602.39 1.59822 -1.06399 0
M  V30 16688 O 1603.59 2.30641 -1.38052 0
M  V30 16689 C 1601.86 0.927227 -3.45163 0
M  V30 16690 S 1603.42 1.57219 -4.09668 0
M  V30 16691 H 1600.24 0.149215 -0.695166 0
M  V30 16692 H 1602.84 -0.279699 -1.93489 0
M  V30 16693 H 1601.54 0.0920814 -4.10297 0
M  V30 16694 H 1601.07 1.70562 -3.54503 0
M  V30 16695 H 1603.09 2.86059 -4.05444 0
M  V30 16696 N 1602.26 1.57322 0.0935319 0
M  V30 16697 C 1603.68 1.5319 0.447781 0
M  V30 16698 C 1603.88 0.897107 1.80428 0
M  V30 16699 O 1602.93 0.490285 2.47694 0
M  V30 16700 C 1604.25 2.97908 0.408832 0
M  V30 16701 C 1605.79 3.09132 0.490576 0
M  V30 16702 C 1606.27 4.55459 0.481759 0
M  V30 16703 N 1607.76 4.60013 0.542468 0
M  V30 16704 C 1608.49 5.70683 0.557509 0
M  V30 16705 N 1607.99 6.9078 0.528664 0
M  V30 16706 N 1609.78 5.58862 0.602438 0
M  V30 16707 H 1601.93 1.96962 -0.794965 0
M  V30 16708 H 1604.2 0.900583 -0.296064 0
M  V30 16709 H 1603.9 3.47823 -0.520766 0
M  V30 16710 H 1603.78 3.56678 1.22722 0
M  V30 16711 H 1606.16 2.59203 1.41059 0
M  V30 16712 H 1606.25 2.53311 -0.355982 0
M  V30 16713 H 1605.89 5.0604 -0.43432 0
M  V30 16714 H 1605.82 5.09119 1.34555 0
M  V30 16715 H 1608.31 3.73578 0.569892 0
M  V30 16716 H 1608.62 7.70887 0.543467 0
M  V30 16717 H 1606.97 6.9323 0.495687 0
M  V30 16718 H 1610.16 4.63942 0.622514 0
M  V30 16719 H 1610.33 6.45116 0.610691 0
M  V30 16720 N 1603.74 -0.364395 1.53329 0
M  V30 16721 C 1604.7 -1.42927 1.79178 0
M  V30 16722 C 1605.7 -1.4653 0.662235 0
M  V30 16723 O 1606.89 -1.4727 0.930442 0
M  V30 16724 C 1604.02 -2.82035 1.91492 0
M  V30 16725 H 1605.22 -1.21281 2.74283 0
M  V30 16726 H 1602.77 -0.597596 1.44425 0
M  V30 16727 H 1603.5 -3.08993 0.984579 0
M  V30 16728 H 1603.29 -2.80818 2.73649 0
M  V30 16729 H 1604.78 -3.59148 2.13078 0
M  V30 16730 N 1605.22 -1.44709 -0.62426 0
M  V30 16731 C 1606.13 -1.54608 -1.76447 0
M  V30 16732 C 1607.14 -0.43137 -1.68568 0
M  V30 16733 O 1608.32 -0.6897 -1.89222 0
M  V30 16734 C 1605.38 -1.49404 -3.12857 0
M  V30 16735 C 1604.44 -2.71782 -3.32315 0
M  V30 16736 C 1603.68 -2.66817 -4.62217 0
M  V30 16737 O 1603.9 -1.73205 -5.43467 0
M  V30 16738 O 1602.83 -3.57773 -4.84027 0
M  V30 16739 H 1606.66 -2.50951 -1.71048 0
M  V30 16740 H 1604.25 -1.27033 -0.786326 0
M  V30 16741 H 1606.13 -1.4905 -3.9416 0
M  V30 16742 H 1604.8 -0.562078 -3.18783 0
M  V30 16743 H 1603.71 -2.77702 -2.50664 0
M  V30 16744 H 1605.04 -3.64048 -3.31255 0
M  V30 16745 N 1606.69 0.865285 -1.31722 0
M  V30 16746 C 1607.62 1.98871 -1.22362 0
M  V30 16747 C 1608.61 1.69745 -0.109779 0
M  V30 16748 O 1609.79 1.91944 -0.295167 0
M  V30 16749 C 1606.92 3.34477 -0.935 0
M  V30 16750 C 1605.87 3.77924 -2.00892 0
M  V30 16751 C 1605.2 5.11042 -1.57291 0
M  V30 16752 C 1606.5 3.94528 -3.42264 0
M  V30 16753 H 1608.19 2.06959 -2.16352 0
M  V30 16754 H 1605.74 0.994355 -1.04157 0
M  V30 16755 H 1607.69 4.12612 -0.856111 0
M  V30 16756 H 1606.42 3.26575 0.0405536 0
M  V30 16757 H 1605.08 3.02032 -2.07779 0
M  V30 16758 H 1604.72 4.99586 -0.585084 0
M  V30 16759 H 1604.42 5.41082 -2.29138 0
M  V30 16760 H 1605.95 5.91681 -1.50818 0
M  V30 16761 H 1607.36 4.63045 -3.38027 0
M  V30 16762 H 1605.76 4.35972 -4.12369 0
M  V30 16763 H 1606.83 2.97765 -3.82706 0
M  V30 16764 N 1608.17 1.14759 1.0802 0
M  V30 16765 C 1609.12 0.833824 2.17141 0
M  V30 16766 C 1610.11 -0.189939 1.68332 0
M  V30 16767 O 1611.32 -0.0456447 1.79942 0
M  V30 16768 H 1607.7 0.251944 0.70854 0
M  V30 16769 H 1609.67 1.76196 2.40827 0
M  V30 16770 C 1608.42 0.33203 3.46111 0
M  V30 16771 H 1607.74 1.11117 3.84048 0
M  V30 16772 H 1609.18 0.151078 4.23731 0
M  V30 16773 C 1607.64 -0.945153 3.2337 0
M  V30 16774 O 1608.17 -2.0181 3.47326 0
M  V30 16775 N 1606.37 -0.881963 2.76893 0
M  V30 16776 H 1605.92 -0.00865768 2.57599 0
M  V30 16777 H 1605.88 -1.73706 2.62056 0
M  V30 16778 N 1609.65 -1.26251 0.943322 0
M  V30 16779 C 1610.88 -1.97739 0.608852 0
M  V30 16780 C 1611.29 -1.70225 -0.81663 0
M  V30 16781 O 1610.65 -0.97172 -1.54479 0
M  V30 16782 C 1610.7 -3.51505 0.844172 0
M  V30 16783 O 1610.42 -3.78063 2.21359 0
M  V30 16784 C 1611.92 -4.40233 0.52054 0
M  V30 16785 H 1609.14 -0.630619 0.229262 0
M  V30 16786 H 1611.69 -1.6071 1.26461 0
M  V30 16787 H 1609.84 -3.86687 0.23499 0
M  V30 16788 H 1610.26 -4.72582 2.27523 0
M  V30 16789 H 1611.73 -5.47074 0.735802 0
M  V30 16790 H 1612.21 -4.35811 -0.544541 0
M  V30 16791 H 1612.81 -4.10599 1.10854 0
M  V30 16792 N 1611.13 -0.710588 -1.40671 0
M  V30 16793 C 1612.08 -0.031353 -2.27978 0
M  V30 16794 C 1613.06 0.737643 -1.42995 0
M  V30 16795 O 1614.26 0.610666 -1.66132 0
M  V30 16796 C 1611.38 0.893329 -3.31473 0
M  V30 16797 C 1610.47 0.119785 -4.23931 0
M  V30 16798 N 1610.86 -0.894341 -4.9783 0
M  V30 16799 C 1609.16 0.353077 -4.446 0
M  V30 16800 C 1609.86 -1.3587 -5.6561 0
M  V30 16801 N 1608.84 -0.681786 -5.39308 0
M  V30 16802 H 1612.64 -0.808683 -2.82555 0
M  V30 16803 H 1610.15 -0.542734 -1.53063 0
M  V30 16804 H 1612.15 1.39521 -3.92861 0
M  V30 16805 H 1610.81 1.67009 -2.78457 0
M  V30 16806 H 1611.82 -1.27504 -5.01959 0
M  V30 16807 H 1608.5 1.10655 -4.02569 0
M  V30 16808 H 1609.89 -2.20108 -6.34825 0
M  V30 16809 N 1612.61 1.50847 -0.456408 0
M  V30 16810 C 1614.02 1.59222 -0.109731 0
M  V30 16811 C 1614.22 1.46582 1.3826 0
M  V30 16812 O 1613.28 1.31678 2.15446 0
M  V30 16813 C 1614.59 2.9366 -0.646846 0
M  V30 16814 C 1616.14 3.07019 -0.60897 0
M  V30 16815 C 1616.62 4.44009 -1.12338 0
M  V30 16816 N 1618.11 4.50381 -1.08217 0
M  V30 16817 C 1618.84 5.54741 -1.45086 0
M  V30 16818 N 1618.34 6.66427 -1.89333 0
M  V30 16819 N 1620.13 5.45204 -1.36782 0
M  V30 16820 H 1612.28 1.57307 -1.42717 0
M  V30 16821 H 1614.54 0.742587 -0.589295 0
M  V30 16822 H 1614.25 3.0834 -1.69172 0
M  V30 16823 H 1614.12 3.7711 -0.0822535 0
M  V30 16824 H 1616.51 2.91995 0.426958 0
M  V30 16825 H 1616.59 2.25362 -1.21019 0
M  V30 16826 H 1616.24 4.59781 -2.15787 0
M  V30 16827 H 1616.17 5.24235 -0.498512 0
M  V30 16828 H 1618.66 3.70231 -0.757467 0
M  V30 16829 H 1618.97 7.42101 -2.15652 0
M  V30 16830 H 1617.32 6.67585 -1.93275 0
M  V30 16831 H 1620.51 4.56837 -1.02066 0
M  V30 16832 H 1620.68 6.26419 -1.65842 0
M  V30 16833 N 1614.09 0.188454 1.56469 0
M  V30 16834 C 1615.5 -0.325309 1.83844 0
M  V30 16835 C 1615.85 -1.61858 1.1089 0
M  V30 16836 O 1614.97 -2.13256 0.36752 0
M  V30 16837 C 1615.57 -0.597002 3.33499 0
M  V30 16838 C 1614.13 -1.05515 3.61308 0
M  V30 16839 C 1613.27 -0.100182 2.77119 0
M  V30 16840 H 1616.22 0.412378 1.53249 0
M  V30 16841 H 1616.25 -1.44709 3.51908 0
M  V30 16842 H 1615.76 0.344429 3.86569 0
M  V30 16843 H 1613.86 -2.01109 3.13665 0
M  V30 16844 H 1613.97 -0.952461 4.69537 0
M  V30 16845 H 1612.34 -0.600815 2.47512 0
M  V30 16846 H 1613.12 0.835574 3.32976 0
M  V30 16847 N 1615.56 -1.5737 -0.0851874 0
M  V30 16848 C 1616.53 -2.01789 -1.08692 0
M  V30 16849 C 1617.53 -0.912872 -1.32376 0
M  V30 16850 O 1618.72 -1.1781 -1.28322 0
M  V30 16851 C 1615.85 -2.38708 -2.43375 0
M  V30 16852 H 1617.04 -2.91511 -0.704359 0
M  V30 16853 H 1614.59 -1.52765 -0.330528 0
M  V30 16854 H 1615.33 -1.5197 -2.86488 0
M  V30 16855 H 1615.11 -3.19331 -2.2753 0
M  V30 16856 H 1616.6 -2.73697 -3.15404 0
M  V30 16857 N 1617.04 0.356258 -1.53521 0
M  V30 16858 C 1618.45 0.932569 -1.61741 0
M  V30 16859 C 1618.8 1.89965 -0.490677 0
M  V30 16860 O 1617.93 2.1301 0.381514 0
M  V30 16861 C 1618.52 1.69818 -2.93168 0
M  V30 16862 C 1617.08 2.22369 -3.03692 0
M  V30 16863 C 1616.23 1.03891 -2.57103 0
M  V30 16864 H 1619.18 0.134769 -1.58127 0
M  V30 16865 H 1619.2 2.56011 -2.81494 0
M  V30 16866 H 1618.71 0.994065 -3.75153 0
M  V30 16867 H 1616.81 2.95994 -2.26314 0
M  V30 16868 H 1616.93 2.49611 -4.08939 0
M  V30 16869 H 1615.29 1.40862 -2.12202 0
M  V30 16870 H 1616.07 0.349637 -3.41515 0
M  V30 16871 N 1618.52 1.45038 0.616577 0
M  V30 16872 C 1619.75 1.51874 1.40064 0
M  V30 16873 C 1620.16 0.147105 1.88627 0
M  V30 16874 O 1619.5 -0.85995 1.62329 0
M  V30 16875 C 1619.56 2.43421 2.64549 0
M  V30 16876 C 1619.23 3.90326 2.37685 0
M  V30 16877 C 1620.22 4.80471 1.98605 0
M  V30 16878 C 1617.91 4.35163 2.50875 0
M  V30 16879 C 1619.9 6.13456 1.73064 0
M  V30 16880 C 1617.59 5.68192 2.24947 0
M  V30 16881 C 1618.59 6.57157 1.86102 0
M  V30 16882 O 1618.28 7.87721 1.60472 0
M  V30 16883 H 1618.01 0.517048 0.435474 0
M  V30 16884 H 1620.56 1.90826 0.759899 0
M  V30 16885 H 1618.79 1.99423 3.31312 0
M  V30 16886 H 1620.48 2.41042 3.26579 0
M  V30 16887 H 1621.25 4.47098 1.87959 0
M  V30 16888 H 1617.13 3.66165 2.80078 0
M  V30 16889 H 1620.67 6.82855 1.42669 0
M  V30 16890 H 1616.57 6.01122 2.35207 0
M  V30 16891 H 1617.33 7.99661 1.74598 0
M  V30 16892 N 1620 -0.858287 1.32179 0
M  V30 16893 C 1620.91 -1.99894 1.228 0
M  V30 16894 C 1621.92 -1.73417 0.142323 0
M  V30 16895 O 1623.1 -1.98114 0.362321 0
M  V30 16896 C 1620.16 -3.33495 0.947745 0
M  V30 16897 C 1619.23 -3.73217 2.12149 0
M  V30 16898 C 1618.46 -5.00443 1.85452 0
M  V30 16899 O 1618.68 -5.64828 0.79531 0
M  V30 16900 O 1617.62 -5.3721 2.71457 0
M  V30 16901 H 1621.44 -2.10742 2.18682 0
M  V30 16902 H 1619.03 -0.988385 1.12033 0
M  V30 16903 H 1620.91 -4.13585 0.807791 0
M  V30 16904 H 1619.58 -3.23694 0.019053 0
M  V30 16905 H 1618.49 -2.93718 2.3169 0
M  V30 16906 H 1619.82 -3.87659 3.03285 0
M  V30 16907 N 1621.48 -1.1533 -1.07409 0
M  V30 16908 C 1622.72 -0.922348 -1.79376 0
M  V30 16909 C 1623.04 0.551929 -1.87652 0
M  V30 16910 O 1624.24 0.900444 -2.56133 0
M  V30 16911 C 1622.7 -1.60081 -3.22339 0
M  V30 16912 C 1622.31 -3.11206 -3.22265 0
M  V30 16913 C 1624.05 -1.45138 -3.98917 0
M  V30 16914 C 1621.96 -3.71842 -4.59878 0
M  V30 16915 H 1620.89 -0.341438 -0.672262 0
M  V30 16916 H 1623.54 -1.38336 -1.20562 0
M  V30 16917 H 1621.92 -1.06748 -3.81341 0
M  V30 16918 H 1623.1 -3.7129 -2.72911 0
M  V30 16919 H 1621.41 -3.25903 -2.59183 0
M  V30 16920 H 1624.01 -1.87832 -5.00623 0
M  V30 16921 H 1624.35 -0.398796 -4.14385 0
M  V30 16922 H 1624.88 -1.95564 -3.46409 0
M  V30 16923 H 1621.62 -4.76998 -4.49614 0
M  V30 16924 H 1621.14 -3.16541 -5.09472 0
M  V30 16925 H 1622.82 -3.72733 -5.28847 0
M  V30 16926 N 1622.95 1.25748 -0.950004 0
M  V30 16927 C 1623.89 2.25247 -0.423855 0
M  V30 16928 C 1624.9 1.56233 0.457726 0
M  V30 16929 O 1626.09 1.76496 0.266749 0
M  V30 16930 C 1623.19 3.36422 0.409074 0
M  V30 16931 C 1622.36 4.34991 -0.458421 0
M  V30 16932 C 1621.42 5.25253 0.315537 0
M  V30 16933 O 1620.45 5.68489 -0.284474 0
M  V30 16934 N 1621.65 5.57732 1.60983 0
M  V30 16935 H 1624.41 2.71026 -1.27925 0
M  V30 16936 H 1621.97 1.39607 -0.819853 0
M  V30 16937 H 1623.97 3.93764 0.934447 0
M  V30 16938 H 1622.54 2.90068 1.1653 0
M  V30 16939 H 1621.76 3.76594 -1.16494 0
M  V30 16940 H 1623.04 4.97833 -1.05068 0
M  V30 16941 H 1622.44 5.24502 2.1193 0
M  V30 16942 H 1621 6.17678 2.08126 0
M  V30 16943 N 1624.43 0.718038 1.40292 0
M  V30 16944 C 1625.36 0.0276294 2.29183 0
M  V30 16945 C 1626.38 -0.721208 1.45954 0
M  V30 16946 O 1627.57 -0.568181 1.69216 0
M  V30 16947 C 1624.67 -0.985139 3.24266 0
M  V30 16948 C 1623.84 -0.301327 4.36361 0
M  V30 16949 C 1622.9 -1.21982 5.11866 0
M  V30 16950 O 1621.92 -0.70369 5.64833 0
M  V30 16951 N 1623.13 -2.55079 5.21455 0
M  V30 16952 H 1625.89 0.790884 2.89076 0
M  V30 16953 H 1623.45 0.565867 1.51689 0
M  V30 16954 H 1625.44 -1.60183 3.7165 0
M  V30 16955 H 1624.01 -1.64973 2.65523 0
M  V30 16956 H 1623.23 0.495594 3.91072 0
M  V30 16957 H 1624.52 0.173238 5.08505 0
M  V30 16958 H 1623.92 -2.99506 4.79909 0
M  V30 16959 H 1622.48 -3.11886 5.72338 0
M  V30 16960 N 1625.91 -1.50602 0.464402 0
M  V30 16961 C 1626.82 -2.32142 -0.338721 0
M  V30 16962 C 1627.84 -1.4223 -1.00233 0
M  V30 16963 O 1629.01 -1.75288 -0.99177 0
M  V30 16964 C 1626.08 -3.16725 -1.41019 0
M  V30 16965 C 1625.14 -4.22449 -0.76388 0
M  V30 16966 C 1624.37 -5.0299 -1.78429 0
M  V30 16967 O 1624.59 -4.84516 -3.00999 0
M  V30 16968 O 1623.53 -5.86338 -1.35982 0
M  V30 16969 H 1627.35 -3.01927 0.327695 0
M  V30 16970 H 1624.94 -1.47675 0.226379 0
M  V30 16971 H 1626.82 -3.69228 -2.03097 0
M  V30 16972 H 1625.5 -2.49675 -2.06019 0
M  V30 16973 H 1624.4 -3.73955 -0.104318 0
M  V30 16974 H 1625.74 -4.9195 -0.156929 0
M  V30 16975 N 1627.39 -0.19675 -1.56367 0
M  V30 16976 C 1628.64 0.441584 -1.97627 0
M  V30 16977 C 1628.96 1.61514 -1.08368 0
M  V30 16978 O 1628.22 1.95312 -0.123139 0
M  V30 16979 C 1628.52 0.942382 -3.44752 0
M  V30 16980 C 1628.18 -0.117977 -4.50746 0
M  V30 16981 C 1626.85 -0.409332 -4.79456 0
M  V30 16982 C 1629.2 -0.836374 -5.14446 0
M  V30 16983 C 1626.53 -1.42403 -5.69156 0
M  V30 16984 C 1628.88 -1.84024 -6.05242 0
M  V30 16985 C 1627.54 -2.13877 -6.32308 0
M  V30 16986 H 1626.81 0.161587 -0.723167 0
M  V30 16987 H 1629.46 -0.294063 -1.89229 0
M  V30 16988 H 1627.76 1.75633 -3.50229 0
M  V30 16989 H 1629.46 1.44571 -3.74032 0
M  V30 16990 H 1626.05 0.119274 -4.28434 0
M  V30 16991 H 1630.23 -0.62451 -4.92355 0
M  V30 16992 H 1625.49 -1.66122 -5.88399 0
M  V30 16993 H 1629.66 -2.40212 -6.5366 0
M  V30 16994 H 1627.29 -2.92649 -7.01613 0
M  V30 16995 N 1628.87 1.57413 0.0768405 0
M  V30 16996 C 1630.11 1.88144 0.772882 0
M  V30 16997 C 1630.47 0.789834 1.75441 0
M  V30 16998 O 1629.76 -0.206487 1.90484 0
M  V30 16999 C 1629.95 3.2324 1.52482 0
M  V30 17000 C 1629.78 4.45439 0.61762 0
M  V30 17001 C 1628.55 5.04649 0.256461 0
M  V30 17002 C 1630.75 5.14232 -0.0834364 0
M  V30 17003 N 1628.73 6.10374 -0.656988 0
M  V30 17004 C 1630.1 6.14087 -0.854262 0
M  V30 17005 C 1632.16 4.97657 -0.155439 0
M  V30 17006 C 1630.86 6.99155 -1.69039 0
M  V30 17007 C 1632.89 5.83248 -0.978528 0
M  V30 17008 C 1632.25 6.82637 -1.73742 0
M  V30 17009 H 1628.35 0.738071 0.258409 0
M  V30 17010 H 1630.93 1.94669 0.0346081 0
M  V30 17011 H 1629.1 3.17732 2.23385 0
M  V30 17012 H 1630.84 3.41637 2.16948 0
M  V30 17013 H 1627.59 4.69679 0.608199 0
M  V30 17014 H 1628.02 6.67891 -1.10681 0
M  V30 17015 H 1632.66 4.20739 0.416946 0
M  V30 17016 H 1630.38 7.75452 -2.27377 0
M  V30 17017 H 1633.96 5.72481 -1.03715 0
M  V30 17018 H 1632.84 7.47718 -2.36405 0
M  V30 17019 N 1630.34 -0.348112 1.53707 0
M  V30 17020 C 1631.57 -1.11346 1.74976 0
M  V30 17021 C 1631.99 -1.81726 0.485525 0
M  V30 17022 O 1631.35 -1.72384 -0.561565 0
M  V30 17023 C 1631.4 -2.10611 2.92703 0
M  V30 17024 O 1630.5 -3.18042 2.62532 0
M  V30 17025 H 1629.85 -0.322247 0.580563 0
M  V30 17026 H 1632.38 -0.399898 2.00654 0
M  V30 17027 H 1632.39 -2.53912 3.19363 0
M  V30 17028 H 1631.06 -1.58782 3.84397 0
M  V30 17029 H 1629.64 -2.79591 2.46746 0
M  V30 17030 O 1631.86 -1.53756 -0.49409 0
M  V30 17031 H 1632.55 -1.55951 -1.14887 0
M  V30 END ATOM
M  V30 BEGIN BOND
M  V30 END BOND
M  V30 END CTAB
M  END
$$$$
