drugbank_target|P80294 Metallothionein-1H (DB12965)
 OpenBabel12092121043D

791792  0  0  0  0  0  0  0  0999 V2000
   -0.9080    1.9825   -0.1171 H   0  0  0  0  0 15  0  0  0  0  0  0
    0.0000    1.5760    0.0000 N   0  0  0  0  0 15  0  0  0  0  0  0
    0.9330    2.0387    1.0253 C   0  0  0  0  0 15  0  0  0  0  0  0
    1.9110    0.9285    1.3348 C   0  0  0  0  0 15  0  0  0  0  0  0
    3.0950    1.1967    1.4564 O   0  0  0  0  0 15  0  0  0  0  0  0
    0.2220    2.4363    2.3529 C   0  0  0  0  0 15  0  0  0  0  0  0
   -0.7320    3.6537    2.2001 C   0  0  0  0  0 15  0  0  0  0  0  0
    0.1010    5.1329    1.5261 S   0  0  0  0  0 15  0  0  0  0  0  0
    1.2570    5.5632    2.8680 C   0  0  0  0  0 15  0  0  0  0  0  0
    1.4900    2.9052    0.6314 H   0  0  0  0  0 15  0  0  0  0  0  0
   -0.9770    1.5295    0.2109 H   0  0  0  0  0 15  0  0  0  0  0  0
    0.9810    2.6720    3.1163 H   0  0  0  0  0 15  0  0  0  0  0  0
   -0.3580    1.5738    2.7183 H   0  0  0  0  0 15  0  0  0  0  0  0
   -1.1650    3.9094    3.1809 H   0  0  0  0  0 15  0  0  0  0  0  0
   -1.5630    3.4180    1.5182 H   0  0  0  0  0 15  0  0  0  0  0  0
    0.7290    5.5878    3.8310 H   0  0  0  0  0 15  0  0  0  0  0  0
    1.6720    6.5627    2.6593 H   0  0  0  0  0 15  0  0  0  0  0  0
    2.0800    4.8389    2.9071 H   0  0  0  0  0 15  0  0  0  0  0  0
    1.4781   -0.2728    1.5522 N   0  0  0  0  0 15  0  0  0  0  0  0
    2.7551   -1.0256    1.6655 C   0  0  0  0  0 15  0  0  0  0  0  0
    3.1351   -2.0428    0.5322 C   0  0  0  0  0 15  0  0  0  0  0  0
    2.4831   -2.2366   -0.4677 O   0  0  0  0  0 15  0  0  0  0  0  0
    2.6931   -1.6822    3.0578 C   0  0  0  0  0 15  0  0  0  0  0  0
    4.0411   -2.1937    3.6354 C   0  0  0  0  0 15  0  0  0  0  0  0
    5.0651   -1.7821    3.0842 O   0  0  0  0  0 15  0  0  0  0  0  0
    3.9241   -2.9488    4.6012 O   0  0  0  0  0 15  0  0  0  0  0  0
    1.0181   -0.4758    0.6765 H   0  0  0  0  0 15  0  0  0  0  0  0
    3.5641   -0.2686    1.6756 H   0  0  0  0  0 15  0  0  0  0  0  0
    2.3361   -0.9451    3.7971 H   0  0  0  0  0 15  0  0  0  0  0  0
    1.9591   -2.5061    3.0868 H   0  0  0  0  0 15  0  0  0  0  0  0
    2.9562   -1.4816   -0.5373 N   0  0  0  0  0 15  0  0  0  0  0  0
    4.3672   -1.4943   -1.1193 C   0  0  0  0  0 15  0  0  0  0  0  0
    4.7182   -0.2600   -1.9447 C   0  0  0  0  0 15  0  0  0  0  0  0
    3.8432    0.6335   -2.0692 O   0  0  0  0  0 15  0  0  0  0  0  0
    4.4382   -2.7076   -2.0366 C   0  0  0  0  0 15  0  0  0  0  0  0
    2.9972   -2.7492   -2.5709 C   0  0  0  0  0 15  0  0  0  0  0  0
    2.1442   -2.4284   -1.3389 C   0  0  0  0  0 15  0  0  0  0  0  0
    5.0952   -1.5538   -0.3229 H   0  0  0  0  0 15  0  0  0  0  0  0
    5.1162   -2.4886   -2.8783 H   0  0  0  0  0 15  0  0  0  0  0  0
    4.6282   -3.6057   -1.4355 H   0  0  0  0  0 15  0  0  0  0  0  0
    2.7292   -1.8930   -3.2093 H   0  0  0  0  0 15  0  0  0  0  0  0
    2.8422   -3.7616   -2.9672 H   0  0  0  0  0 15  0  0  0  0  0  0
    1.2062   -1.9384   -1.6523 H   0  0  0  0  0 15  0  0  0  0  0  0
    1.9892   -3.3488   -0.7555 H   0  0  0  0  0 15  0  0  0  0  0  0
    4.4343    0.7856   -1.3662 N   0  0  0  0  0 15  0  0  0  0  0  0
    5.3823    1.9198   -1.3133 C   0  0  0  0  0 15  0  0  0  0  0  0
    6.3763    1.6816   -0.2044 C   0  0  0  0  0 15  0  0  0  0  0  0
    7.5823    1.7612   -0.3716 O   0  0  0  0  0 15  0  0  0  0  0  0
    3.9573    0.6311   -0.4089 H   0  0  0  0  0 15  0  0  0  0  0  0
    5.9283    1.9356   -2.2710 H   0  0  0  0  0 15  0  0  0  0  0  0
    4.6773    3.2906   -1.1233 C   0  0  0  0  0 15  0  0  0  0  0  0
    4.0003    3.4795   -1.9690 H   0  0  0  0  0 15  0  0  0  0  0  0
    5.4403    4.0876   -1.1267 H   0  0  0  0  0 15  0  0  0  0  0  0
    3.8993    3.3646    0.1719 C   0  0  0  0  0 15  0  0  0  0  0  0
    4.4293    3.8458    1.1603 O   0  0  0  0  0 15  0  0  0  0  0  0
    2.6353    2.8978    0.2178 N   0  0  0  0  0 15  0  0  0  0  0  0
    2.1823    2.5082   -0.5872 H   0  0  0  0  0 15  0  0  0  0  0  0
    2.1403    2.9512    1.0841 H   0  0  0  0  0 15  0  0  0  0  0  0
    5.9124    1.2097    1.0102 N   0  0  0  0  0 15  0  0  0  0  0  0
    7.1524    1.0351    1.7625 C   0  0  0  0  0 15  0  0  0  0  0  0
    7.5164   -0.4246    1.8725 C   0  0  0  0  0 15  0  0  0  0  0  0
    8.7174   -0.7195    2.5899 O   0  0  0  0  0 15  0  0  0  0  0  0
    6.9884    1.7073    3.1399 C   0  0  0  0  0 15  0  0  0  0  0  0
    8.5474    1.6846    4.0518 S   0  0  0  0  0 15  0  0  0  0  0  0
    5.3654    0.3710    0.6065 H   0  0  0  0  0 15  0  0  0  0  0  0
    7.9674    1.5363    1.2091 H   0  0  0  0  0 15  0  0  0  0  0  0
    6.6714    2.7613    3.0361 H   0  0  0  0  0 15  0  0  0  0  0  0
    6.2024    1.2077    3.7440 H   0  0  0  0  0 15  0  0  0  0  0  0
    8.2174    0.7220    4.9092 H   0  0  0  0  0 15  0  0  0  0  0  0
    7.3905   -1.2043    1.0166 N   0  0  0  0  0 15  0  0  0  0  0  0
    8.6155   -1.9432    0.7249 C   0  0  0  0  0 15  0  0  0  0  0  0
    9.0405   -1.7427   -0.7080 C   0  0  0  0  0 15  0  0  0  0  0  0
    8.3985   -1.0369   -1.4872 O   0  0  0  0  0 15  0  0  0  0  0  0
    8.4465   -3.4449    1.0659 C   0  0  0  0  0 15  0  0  0  0  0  0
    7.5505   -4.1202    0.1776 O   0  0  0  0  0 15  0  0  0  0  0  0
    6.8915   -0.6071    0.2690 H   0  0  0  0  0 15  0  0  0  0  0  0
    9.4215   -1.5286    1.3600 H   0  0  0  0  0 15  0  0  0  0  0  0
    9.4315   -3.9511    1.0176 H   0  0  0  0  0 15  0  0  0  0  0  0
    8.1065   -3.5840    2.1100 H   0  0  0  0  0 15  0  0  0  0  0  0
    6.6835   -3.7182    0.2834 H   0  0  0  0  0 15  0  0  0  0  0  0
    8.8686   -0.7928   -1.3621 N   0  0  0  0  0 15  0  0  0  0  0  0
   10.1086   -0.3722   -2.0098 C   0  0  0  0  0 15  0  0  0  0  0  0
   10.4726    1.0375   -1.6156 C   0  0  0  0  0 15  0  0  0  0  0  0
   11.6736    1.5593   -2.1895 O   0  0  0  0  0 15  0  0  0  0  0  0
    9.9446   -0.5346   -3.5338 C   0  0  0  0  0 15  0  0  0  0  0  0
   11.5036   -0.2024   -4.3833 S   0  0  0  0  0 15  0  0  0  0  0  0
    8.3216   -0.1420   -0.6967 H   0  0  0  0  0 15  0  0  0  0  0  0
   10.9236   -1.0321   -1.6604 H   0  0  0  0  0 15  0  0  0  0  0  0
    9.6276   -1.5608   -3.7956 H   0  0  0  0  0 15  0  0  0  0  0  0
    9.1586    0.1411   -3.9315 H   0  0  0  0  0 15  0  0  0  0  0  0
   11.1736    0.9949   -4.8612 H   0  0  0  0  0 15  0  0  0  0  0  0
   10.3467    1.4787   -0.5451 N   0  0  0  0  0 15  0  0  0  0  0  0
   11.2567    2.3363    0.2127 C   0  0  0  0  0 15  0  0  0  0  0  0
   12.2727    1.4744    0.9240 C   0  0  0  0  0 15  0  0  0  0  0  0
   13.4487    1.8039    0.8956 O   0  0  0  0  0 15  0  0  0  0  0  0
   10.5137    3.2388    1.2369 C   0  0  0  0  0 15  0  0  0  0  0  0
    9.5747    4.2596    0.5344 C   0  0  0  0  0 15  0  0  0  0  0  0
    8.8077    5.1190    1.5098 C   0  0  0  0  0 15  0  0  0  0  0  0
    9.0307    5.0008    2.7437 O   0  0  0  0  0 15  0  0  0  0  0  0
    7.9647    5.9283    1.0409 O   0  0  0  0  0 15  0  0  0  0  0  0
   11.7907    2.9971   -0.4904 H   0  0  0  0  0 15  0  0  0  0  0  0
    9.3757    1.4624   -0.3059 H   0  0  0  0  0 15  0  0  0  0  0  0
   11.2577    3.7967    1.8284 H   0  0  0  0  0 15  0  0  0  0  0  0
    9.9327    2.6045    1.9222 H   0  0  0  0  0 15  0  0  0  0  0  0
    8.8397    3.7397   -0.0980 H   0  0  0  0  0 15  0  0  0  0  0  0
   10.1727    4.9208   -0.1092 H   0  0  0  0  0 15  0  0  0  0  0  0
   11.8248    0.2810    1.5507 N   0  0  0  0  0 15  0  0  0  0  0  0
   12.7878   -0.5909    2.2145 C   0  0  0  0  0 15  0  0  0  0  0  0
   13.7878   -1.0768    1.1942 C   0  0  0  0  0 15  0  0  0  0  0  0
   14.9778   -0.9760    1.4429 O   0  0  0  0  0 15  0  0  0  0  0  0
   12.1098   -1.8159    2.8851 C   0  0  0  0  0 15  0  0  0  0  0  0
   13.3028   -0.0113    2.9990 H   0  0  0  0  0 15  0  0  0  0  0  0
   10.8558    0.0316    1.5627 H   0  0  0  0  0 15  0  0  0  0  0  0
   11.5908   -2.4359    2.1409 H   0  0  0  0  0 15  0  0  0  0  0  0
   11.3758   -1.4753    3.6329 H   0  0  0  0  0 15  0  0  0  0  0  0
   12.8658   -2.4358    3.3921 H   0  0  0  0  0 15  0  0  0  0  0  0
   13.3029   -1.5760    0.0084 N   0  0  0  0  0 15  0  0  0  0  0  0
   14.5509   -1.9055   -0.6734 C   0  0  0  0  0 15  0  0  0  0  0  0
   14.8719   -0.8833   -1.7385 C   0  0  0  0  0 15  0  0  0  0  0  0
   14.1419    0.0781   -1.9574 O   0  0  0  0  0 15  0  0  0  0  0  0
   12.7219   -0.7033   -0.2517 H   0  0  0  0  0 15  0  0  0  0  0  0
   15.3839   -1.9483    0.0513 H   0  0  0  0  0 15  0  0  0  0  0  0
   14.4799   -2.9056   -1.1394 H   0  0  0  0  0 15  0  0  0  0  0  0
   14.7810    0.2645   -1.5536 N   0  0  0  0  0 15  0  0  0  0  0  0
   16.0290    0.9930   -1.7602 C   0  0  0  0  0 15  0  0  0  0  0  0
   16.3500    1.8651   -0.5691 C   0  0  0  0  0 15  0  0  0  0  0  0
   15.6200    1.9144    0.4157 O   0  0  0  0  0 15  0  0  0  0  0  0
   14.2000    0.3696   -0.6491 H   0  0  0  0  0 15  0  0  0  0  0  0
   16.8620    0.2867   -1.9278 H   0  0  0  0  0 15  0  0  0  0  0  0
   15.9580    1.6250   -2.6646 H   0  0  0  0  0 15  0  0  0  0  0  0
   16.2591    1.4844    0.5294 N   0  0  0  0  0 15  0  0  0  0  0  0
   17.4841    1.6041    1.3147 C   0  0  0  0  0 15  0  0  0  0  0  0
   17.9091    0.2647    1.8623 C   0  0  0  0  0 15  0  0  0  0  0  0
   17.2671   -0.7637    1.6443 O   0  0  0  0  0 15  0  0  0  0  0  0
   17.3151    2.6542    2.4410 C   0  0  0  0  0 15  0  0  0  0  0  0
   16.4191    2.2262    3.4715 O   0  0  0  0  0 15  0  0  0  0  0  0
   15.7601    0.5379    0.3894 H   0  0  0  0  0 15  0  0  0  0  0  0
   18.2901    1.9443    0.6370 H   0  0  0  0  0 15  0  0  0  0  0  0
   18.3001    2.8671    2.9028 H   0  0  0  0  0 15  0  0  0  0  0  0
   16.9751    3.6265    2.0361 H   0  0  0  0  0 15  0  0  0  0  0  0
   15.5521    2.1154    3.0709 H   0  0  0  0  0 15  0  0  0  0  0  0
   17.7372   -0.7783    1.3704 N   0  0  0  0  0 15  0  0  0  0  0  0
   18.9772   -1.5497    1.3328 C   0  0  0  0  0 15  0  0  0  0  0  0
   19.3412   -1.9182   -0.0839 C   0  0  0  0  0 15  0  0  0  0  0  0
   20.5422   -2.6767   -0.2462 O   0  0  0  0  0 15  0  0  0  0  0  0
   18.8132   -2.7852    2.2397 C   0  0  0  0  0 15  0  0  0  0  0  0
   20.3722   -3.6865    2.3800 S   0  0  0  0  0 15  0  0  0  0  0  0
   17.1902   -0.5306    0.4732 H   0  0  0  0  0 15  0  0  0  0  0  0
   19.7922   -0.9158    1.7272 H   0  0  0  0  0 15  0  0  0  0  0  0
   18.4962   -2.4952    3.2583 H   0  0  0  0  0 15  0  0  0  0  0  0
   18.0272   -3.4687    1.8558 H   0  0  0  0  0 15  0  0  0  0  0  0
   20.0422   -4.7018    1.5857 H   0  0  0  0  0 15  0  0  0  0  0  0
   19.2153   -1.2150   -1.0038 N   0  0  0  0  0 15  0  0  0  0  0  0
   20.1783   -0.9769   -2.0734 C   0  0  0  0  0 15  0  0  0  0  0  0
   21.1783    0.0525   -1.6071 C   0  0  0  0  0 15  0  0  0  0  0  0
   22.3683   -0.1849   -1.7322 O   0  0  0  0  0 15  0  0  0  0  0  0
   19.5003   -0.4734   -3.3760 C   0  0  0  0  0 15  0  0  0  0  0  0
   20.6933   -1.9259   -2.2989 H   0  0  0  0  0 15  0  0  0  0  0  0
   18.2463   -1.0322   -1.1737 H   0  0  0  0  0 15  0  0  0  0  0  0
   18.9813    0.4804   -3.2072 H   0  0  0  0  0 15  0  0  0  0  0  0
   18.7663   -1.2160   -3.7277 H   0  0  0  0  0 15  0  0  0  0  0  0
   20.2563   -0.3268   -4.1632 H   0  0  0  0  0 15  0  0  0  0  0  0
   20.6934    1.1989   -1.0230 N   0  0  0  0  0 15  0  0  0  0  0  0
   21.9334    1.9113   -0.7246 C   0  0  0  0  0 15  0  0  0  0  0  0
   22.2974    1.7746    0.7328 C   0  0  0  0  0 15  0  0  0  0  0  0
   23.4984    2.4324    1.1440 O   0  0  0  0  0 15  0  0  0  0  0  0
   21.7694    3.3819   -1.1560 C   0  0  0  0  0 15  0  0  0  0  0  0
   23.3284    4.2770   -0.9806 S   0  0  0  0  0 15  0  0  0  0  0  0
   20.1464    0.6602   -0.2640 H   0  0  0  0  0 15  0  0  0  0  0  0
   22.7484    1.4498   -1.3116 H   0  0  0  0  0 15  0  0  0  0  0  0
   21.4524    3.4565   -2.2125 H   0  0  0  0  0 15  0  0  0  0  0  0
   20.9834    3.8936   -0.5621 H   0  0  0  0  0 15  0  0  0  0  0  0
   22.9984    4.9607    0.1122 H   0  0  0  0  0 15  0  0  0  0  0  0
   22.1715    0.8000    1.3578 N   0  0  0  0  0 15  0  0  0  0  0  0
   23.1345    0.2116    2.2822 C   0  0  0  0  0 15  0  0  0  0  0  0
   24.1345   -0.5973    1.4930 C   0  0  0  0  0 15  0  0  0  0  0  0
   25.3245   -0.4167    1.6914 O   0  0  0  0  0 15  0  0  0  0  0  0
   22.4565   -0.7058    3.3351 C   0  0  0  0  0 15  0  0  0  0  0  0
   23.6495    1.0268    2.8178 H   0  0  0  0  0 15  0  0  0  0  0  0
   21.2025    0.5702    1.4553 H   0  0  0  0  0 15  0  0  0  0  0  0
   21.9375   -1.5450    2.8513 H   0  0  0  0  0 15  0  0  0  0  0  0
   21.7225   -0.1277    3.9189 H   0  0  0  0  0 15  0  0  0  0  0  0
   23.2125   -1.1121    4.0252 H   0  0  0  0  0 15  0  0  0  0  0  0
   23.6496   -1.4758    0.5530 N   0  0  0  0  0 15  0  0  0  0  0  0
   24.8976   -2.0208    0.0273 C   0  0  0  0  0 15  0  0  0  0  0  0
   25.2186   -1.4301   -1.3256 C   0  0  0  0  0 15  0  0  0  0  0  0
   24.4886   -0.6037   -1.8636 O   0  0  0  0  0 15  0  0  0  0  0  0
   23.0686   -0.7470    0.0071 H   0  0  0  0  0 15  0  0  0  0  0  0
   25.7306   -1.8103    0.7220 H   0  0  0  0  0 15  0  0  0  0  0  0
   24.8266   -3.1203   -0.0640 H   0  0  0  0  0 15  0  0  0  0  0  0
   25.1277   -0.2892   -1.5492 N   0  0  0  0  0 15  0  0  0  0  0  0
   26.3527    0.3293   -2.0477 C   0  0  0  0  0 15  0  0  0  0  0  0
   26.7777    1.4763   -1.1656 C   0  0  0  0  0 15  0  0  0  0  0  0
   26.1357    1.8053   -0.1672 O   0  0  0  0  0 15  0  0  0  0  0  0
   26.1837    0.7744   -3.5219 C   0  0  0  0  0 15  0  0  0  0  0  0
   25.2877    1.8804   -3.6704 O   0  0  0  0  0 15  0  0  0  0  0  0
   24.6287    0.0659   -0.6607 H   0  0  0  0  0 15  0  0  0  0  0  0
   27.1587   -0.4276   -2.0008 H   0  0  0  0  0 15  0  0  0  0  0  0
   27.1687    1.0664   -3.9382 H   0  0  0  0  0 15  0  0  0  0  0  0
   25.8437   -0.0647   -4.1585 H   0  0  0  0  0 15  0  0  0  0  0  0
   24.4207    1.5898   -3.3731 H   0  0  0  0  0 15  0  0  0  0  0  0
   26.6058    1.5759   -0.0167 N   0  0  0  0  0 15  0  0  0  0  0  0
   27.8458    1.9315    0.6689 C   0  0  0  0  0 15  0  0  0  0  0  0
   28.2098    0.8924    1.7000 C   0  0  0  0  0 15  0  0  0  0  0  0
   29.4108    1.1337    2.4372 O   0  0  0  0  0 15  0  0  0  0  0  0
   27.6818    3.3368    1.2804 C   0  0  0  0  0 15  0  0  0  0  0  0
   29.2408    3.9114    1.9888 S   0  0  0  0  0 15  0  0  0  0  0  0
   26.0588    0.6759    0.2205 H   0  0  0  0  0 15  0  0  0  0  0  0
   28.6608    1.9535   -0.0774 H   0  0  0  0  0 15  0  0  0  0  0  0
   27.3648    4.0713    0.5173 H   0  0  0  0  0 15  0  0  0  0  0  0
   26.8958    3.3489    2.0643 H   0  0  0  0  0 15  0  0  0  0  0  0
   28.9108    3.7357    3.2659 H   0  0  0  0  0 15  0  0  0  0  0  0
   28.0839   -0.2563    1.5550 N   0  0  0  0  0 15  0  0  0  0  0  0
   29.0309   -1.3171    1.8953 C   0  0  0  0  0 15  0  0  0  0  0  0
   30.0009   -1.4828    0.7485 C   0  0  0  0  0 15  0  0  0  0  0  0
   31.1859   -1.6242    1.0013 O   0  0  0  0  0 15  0  0  0  0  0  0
   28.3259   -2.6693    2.1873 C   0  0  0  0  0 15  0  0  0  0  0  0
   27.4389   -2.5845    3.4616 C   0  0  0  0  0 15  0  0  0  0  0  0
   26.5739   -3.8596    3.6498 C   0  0  0  0  0 15  0  0  0  0  0  0
   25.6129   -3.7206    4.8604 C   0  0  0  0  0 15  0  0  0  0  0  0
   24.7499   -4.9144    5.0143 N   0  0  0  0  0 15  0  0  0  0  0  0
   29.5899   -1.0200    2.8000 H   0  0  0  0  0 15  0  0  0  0  0  0
   27.1269   -0.4924    1.3861 H   0  0  0  0  0 15  0  0  0  0  0  0
   29.0849   -3.4563    2.3366 H   0  0  0  0  0 15  0  0  0  0  0  0
   27.7149   -2.9482    1.3147 H   0  0  0  0  0 15  0  0  0  0  0  0
   26.7669   -1.7137    3.3961 H   0  0  0  0  0 15  0  0  0  0  0  0
   28.0789   -2.4408    4.3500 H   0  0  0  0  0 15  0  0  0  0  0  0
   27.2329   -4.7310    3.7982 H   0  0  0  0  0 15  0  0  0  0  0  0
   25.9719   -4.0321    2.7435 H   0  0  0  0  0 15  0  0  0  0  0  0
   24.9769   -2.8330    4.7119 H   0  0  0  0  0 15  0  0  0  0  0  0
   26.2019   -3.5631    5.7812 H   0  0  0  0  0 15  0  0  0  0  0  0
   24.1479   -5.0907    4.1374 H   0  0  0  0  0 15  0  0  0  0  0  0
   24.0649   -4.7967    5.8434 H   0  0  0  0  0 15  0  0  0  0  0  0
   25.3329   -5.8010    5.2067 H   0  0  0  0  0 15  0  0  0  0  0  0
   29.5620   -1.4872   -0.5215 N   0  0  0  0  0 15  0  0  0  0  0  0
   30.8020   -1.5877   -1.2873 C   0  0  0  0  0 15  0  0  0  0  0  0
   31.1660   -0.2594   -1.9024 C   0  0  0  0  0 15  0  0  0  0  0  0
   32.3670   -0.2349   -2.6777 O   0  0  0  0  0 15  0  0  0  0  0  0
   30.6380   -2.7004   -2.3412 C   0  0  0  0  0 15  0  0  0  0  0  0
   32.1970   -2.9991   -3.2031 S   0  0  0  0  0 15  0  0  0  0  0  0
   29.0150   -0.5603   -0.4378 H   0  0  0  0  0 15  0  0  0  0  0  0
   31.6170   -1.8628   -0.5932 H   0  0  0  0  0 15  0  0  0  0  0  0
   30.3210   -3.6510   -1.8743 H   0  0  0  0  0 15  0  0  0  0  0  0
   29.8520   -2.4445   -3.0823 H   0  0  0  0  0 15  0  0  0  0  0  0
   31.8670   -2.3985   -4.3438 H   0  0  0  0  0 15  0  0  0  0  0  0
   31.0401    0.7711   -1.3745 N   0  0  0  0  0 15  0  0  0  0  0  0
   31.9871    1.8844   -1.3327 C   0  0  0  0  0 15  0  0  0  0  0  0
   32.9571    1.6491   -0.1981 C   0  0  0  0  0 15  0  0  0  0  0  0
   34.1421    1.8682   -0.3876 O   0  0  0  0  0 15  0  0  0  0  0  0
   31.2821    3.2551   -1.1462 C   0  0  0  0  0 15  0  0  0  0  0  0
   30.3951    3.6098   -2.3731 C   0  0  0  0  0 15  0  0  0  0  0  0
   29.5301    4.8727   -2.1153 C   0  0  0  0  0 15  0  0  0  0  0  0
   28.5691    5.1547   -3.3009 C   0  0  0  0  0 15  0  0  0  0  0  0
   27.7061    6.3294   -3.0385 N   0  0  0  0  0 15  0  0  0  0  0  0
   32.5461    1.9134   -2.2845 H   0  0  0  0  0 15  0  0  0  0  0  0
   30.0831    0.9355   -1.1352 H   0  0  0  0  0 15  0  0  0  0  0  0
   32.0411    4.0458   -1.0183 H   0  0  0  0  0 15  0  0  0  0  0  0
   30.6711    3.2197   -0.2308 H   0  0  0  0  0 15  0  0  0  0  0  0
   29.7231    2.7689   -2.6084 H   0  0  0  0  0 15  0  0  0  0  0  0
   31.0351    3.7776   -3.2573 H   0  0  0  0  0 15  0  0  0  0  0  0
   30.1891    5.7424   -1.9578 H   0  0  0  0  0 15  0  0  0  0  0  0
   28.9281    4.7259   -1.2046 H   0  0  0  0  0 15  0  0  0  0  0  0
   27.9331    4.2697   -3.4638 H   0  0  0  0  0 15  0  0  0  0  0  0
   29.1581    5.3205   -4.2202 H   0  0  0  0  0 15  0  0  0  0  0  0
   27.1041    6.1963   -2.1541 H   0  0  0  0  0 15  0  0  0  0  0  0
   27.0211    6.5014   -3.8581 H   0  0  0  0  0 15  0  0  0  0  0  0
   28.2891    7.2286   -2.9172 H   0  0  0  0  0 15  0  0  0  0  0  0
   32.5182    1.2203    0.9973 N   0  0  0  0  0 15  0  0  0  0  0  0
   33.4652    0.9865    2.0866 C   0  0  0  0  0 15  0  0  0  0  0  0
   34.4352   -0.0903    1.6585 C   0  0  0  0  0 15  0  0  0  0  0  0
   35.6202    0.0584    1.9071 O   0  0  0  0  0 15  0  0  0  0  0  0
   32.7602    0.5656    3.4043 C   0  0  0  0  0 15  0  0  0  0  0  0
   31.8732    1.7126    3.9660 C   0  0  0  0  0 15  0  0  0  0  0  0
   31.0082    1.2401    5.1652 C   0  0  0  0  0 15  0  0  0  0  0  0
   30.0472    2.3590    5.6482 C   0  0  0  0  0 15  0  0  0  0  0  0
   29.1842    1.8973    6.7598 N   0  0  0  0  0 15  0  0  0  0  0  0
   34.0242    1.9189    2.2799 H   0  0  0  0  0 15  0  0  0  0  0  0
   31.5612    0.9562    1.1178 H   0  0  0  0  0 15  0  0  0  0  0  0
   33.5192    0.3027    4.1610 H   0  0  0  0  0 15  0  0  0  0  0  0
   32.1492   -0.3299    3.2111 H   0  0  0  0  0 15  0  0  0  0  0  0
   31.2012    2.0899    3.1785 H   0  0  0  0  0 15  0  0  0  0  0  0
   32.5132    2.5544    4.2843 H   0  0  0  0  0 15  0  0  0  0  0  0
   31.6672    0.9344    5.9946 H   0  0  0  0  0 15  0  0  0  0  0  0
   30.4062    0.3685    4.8631 H   0  0  0  0  0 15  0  0  0  0  0  0
   29.4112    2.6726    4.8047 H   0  0  0  0  0 15  0  0  0  0  0  0
   30.6362    3.2357    5.9706 H   0  0  0  0  0 15  0  0  0  0  0  0
   28.5822    1.0492    6.4756 H   0  0  0  0  0 15  0  0  0  0  0  0
   28.4992    2.6747    7.0710 H   0  0  0  0  0 15  0  0  0  0  0  0
   29.7672    1.6221    7.6244 H   0  0  0  0  0 15  0  0  0  0  0  0
   33.9963   -1.1934    1.0293 N   0  0  0  0  0 15  0  0  0  0  0  0
   35.2363   -1.9074    0.7347 C   0  0  0  0  0 15  0  0  0  0  0  0
   35.6003   -1.7785   -0.7234 C   0  0  0  0  0 15  0  0  0  0  0  0
   36.8013   -2.4384   -1.1311 O   0  0  0  0  0 15  0  0  0  0  0  0
   35.0723   -3.3757    1.1740 C   0  0  0  0  0 15  0  0  0  0  0  0
   36.6313   -4.2718    1.0033 S   0  0  0  0  0 15  0  0  0  0  0  0
   33.4493   -0.6588    0.2675 H   0  0  0  0  0 15  0  0  0  0  0  0
   36.0513   -1.4428    1.3192 H   0  0  0  0  0 15  0  0  0  0  0  0
   34.7553   -3.4447    2.2308 H   0  0  0  0  0 15  0  0  0  0  0  0
   34.2863   -3.8906    0.5828 H   0  0  0  0  0 15  0  0  0  0  0  0
   36.3013   -4.9613   -0.0859 H   0  0  0  0  0 15  0  0  0  0  0  0
   35.4744   -0.8072   -1.3536 N   0  0  0  0  0 15  0  0  0  0  0  0
   36.4214   -0.2160   -2.2979 C   0  0  0  0  0 15  0  0  0  0  0  0
   37.3914    0.6503   -1.5284 C   0  0  0  0  0 15  0  0  0  0  0  0
   38.5764    0.5952   -1.8128 O   0  0  0  0  0 15  0  0  0  0  0  0
   35.7164    0.6289   -3.3932 C   0  0  0  0  0 15  0  0  0  0  0  0
   34.8294   -0.2579   -4.3123 C   0  0  0  0  0 15  0  0  0  0  0  0
   33.9644    0.5951   -5.2786 C   0  0  0  0  0 15  0  0  0  0  0  0
   33.0034   -0.2921   -6.1140 C   0  0  0  0  0 15  0  0  0  0  0  0
   32.1404    0.5209   -7.0017 N   0  0  0  0  0 15  0  0  0  0  0  0
   36.9804   -1.0267   -2.7975 H   0  0  0  0  0 15  0  0  0  0  0  0
   34.5174   -0.5178   -1.3768 H   0  0  0  0  0 15  0  0  0  0  0  0
   36.4754    1.1339   -4.0149 H   0  0  0  0  0 15  0  0  0  0  0  0
   35.1054    1.4048   -2.9063 H   0  0  0  0  0 15  0  0  0  0  0  0
   34.1574   -0.8811   -3.7006 H   0  0  0  0  0 15  0  0  0  0  0  0
   35.4694   -0.9408   -4.8985 H   0  0  0  0  0 15  0  0  0  0  0  0
   34.6234    1.1652   -5.9541 H   0  0  0  0  0 15  0  0  0  0  0  0
   33.3624    1.3115   -4.6974 H   0  0  0  0  0 15  0  0  0  0  0  0
   32.3674   -0.8745   -5.4280 H   0  0  0  0  0 15  0  0  0  0  0  0
   33.5924   -1.0064   -6.7160 H   0  0  0  0  0 15  0  0  0  0  0  0
   31.5384    1.2213   -6.4453 H   0  0  0  0  0 15  0  0  0  0  0  0
   31.4554   -0.1039   -7.5593 H   0  0  0  0  0 15  0  0  0  0  0  0
   32.7234    1.0743   -7.7206 H   0  0  0  0  0 15  0  0  0  0  0  0
   36.9525    1.4729   -0.5608 N   0  0  0  0  0 15  0  0  0  0  0  0
   38.1925    2.0436   -0.0405 C   0  0  0  0  0 15  0  0  0  0  0  0
   38.5565    1.4253    1.2864 C   0  0  0  0  0 15  0  0  0  0  0  0
   39.7575    1.9068    1.8946 O   0  0  0  0  0 15  0  0  0  0  0  0
   38.0285    3.5737    0.0472 C   0  0  0  0  0 15  0  0  0  0  0  0
   39.5875    4.3579    0.5131 S   0  0  0  0  0 15  0  0  0  0  0  0
   36.4055    0.7105   -0.0269 H   0  0  0  0  0 15  0  0  0  0  0  0
   39.0075    1.8061   -0.7483 H   0  0  0  0  0 15  0  0  0  0  0  0
   37.7115    3.9989   -0.9228 H   0  0  0  0  0 15  0  0  0  0  0  0
   37.2425    3.8562    0.7785 H   0  0  0  0  0 15  0  0  0  0  0  0
   39.2575    4.6348    1.7721 H   0  0  0  0  0 15  0  0  0  0  0  0
   38.4306    0.2974    1.5477 N   0  0  0  0  0 15  0  0  0  0  0  0
   39.6586   -0.3156    2.0448 C   0  0  0  0  0 15  0  0  0  0  0  0
   40.0736   -1.4779    1.1749 C   0  0  0  0  0 15  0  0  0  0  0  0
   39.4306   -1.8140    0.1997 O   0  0  0  0  0 15  0  0  0  0  0  0
   39.4816   -0.7753    3.5309 C   0  0  0  0  0 15  0  0  0  0  0  0
   39.2026    0.3407    4.3677 O   0  0  0  0  0 15  0  0  0  0  0  0
   40.7036   -1.4539    4.1878 C   0  0  0  0  0 15  0  0  0  0  0  0
   37.9236   -0.0691    0.6674 H   0  0  0  0  0 15  0  0  0  0  0  0
   40.4676    0.4360    1.9980 H   0  0  0  0  0 15  0  0  0  0  0  0
   38.6226   -1.4770    3.5814 H   0  0  0  0  0 15  0  0  0  0  0  0
   39.0366   -0.0165    5.2450 H   0  0  0  0  0 15  0  0  0  0  0  0
   40.5106   -1.7267    5.2430 H   0  0  0  0  0 15  0  0  0  0  0  0
   40.9876   -2.3927    3.6830 H   0  0  0  0  0 15  0  0  0  0  0  0
   41.5936   -0.7955    4.1779 H   0  0  0  0  0 15  0  0  0  0  0  0
   39.9087   -1.5758    0.0251 N   0  0  0  0  0 15  0  0  0  0  0  0
   41.1337   -1.9634   -0.6683 C   0  0  0  0  0 15  0  0  0  0  0  0
   41.5587   -0.9013   -1.6510 C   0  0  0  0  0 15  0  0  0  0  0  0
   40.9167    0.1382   -1.8077 O   0  0  0  0  0 15  0  0  0  0  0  0
   40.9647   -3.3419   -1.3546 C   0  0  0  0  0 15  0  0  0  0  0  0
   40.0687   -3.3027   -2.4697 O   0  0  0  0  0 15  0  0  0  0  0  0
   39.4097   -0.6403   -0.1759 H   0  0  0  0  0 15  0  0  0  0  0  0
   41.9397   -2.0442    0.0857 H   0  0  0  0  0 15  0  0  0  0  0  0
   41.9497   -3.7033   -1.7123 H   0  0  0  0  0 15  0  0  0  0  0  0
   40.6247   -4.1104   -0.6342 H   0  0  0  0  0 15  0  0  0  0  0  0
   39.2017   -3.0584   -2.1334 H   0  0  0  0  0 15  0  0  0  0  0  0
   41.3868    0.2480   -1.5564 N   0  0  0  0  0 15  0  0  0  0  0  0
   42.6268    0.9836   -1.7918 C   0  0  0  0  0 15  0  0  0  0  0  0
   42.9908    1.8257   -0.5944 C   0  0  0  0  0 15  0  0  0  0  0  0
   44.1918    2.5929   -0.7086 O   0  0  0  0  0 15  0  0  0  0  0  0
   42.4628    1.8223   -3.0745 C   0  0  0  0  0 15  0  0  0  0  0  0
   44.0218    2.6171   -3.5221 S   0  0  0  0  0 15  0  0  0  0  0  0
   40.8398    0.3309   -0.6293 H   0  0  0  0  0 15  0  0  0  0  0  0
   43.4418    0.2516   -1.9387 H   0  0  0  0  0 15  0  0  0  0  0  0
   42.1458    1.1933   -3.9267 H   0  0  0  0  0 15  0  0  0  0  0  0
   41.6768    2.5971   -2.9549 H   0  0  0  0  0 15  0  0  0  0  0  0
   43.6918    3.8465   -3.1346 H   0  0  0  0  0 15  0  0  0  0  0  0
   42.8649    1.4899    0.5136 N   0  0  0  0  0 15  0  0  0  0  0  0
   43.8119    1.6473    1.6166 C   0  0  0  0  0 15  0  0  0  0  0  0
   44.7819    0.4890    1.5874 C   0  0  0  0  0 15  0  0  0  0  0  0
   45.9669    0.7145    1.7692 O   0  0  0  0  0 15  0  0  0  0  0  0
   43.1069    1.7082    2.9986 C   0  0  0  0  0 15  0  0  0  0  0  0
   42.2199    2.9787    3.1289 C   0  0  0  0  0 15  0  0  0  0  0  0
   41.3549    2.9502    4.4174 C   0  0  0  0  0 15  0  0  0  0  0  0
   40.3939    4.1670    4.4836 C   0  0  0  0  0 15  0  0  0  0  0  0
   39.5309    4.1183    5.6863 N   0  0  0  0  0 15  0  0  0  0  0  0
   44.3709    2.5891    1.4755 H   0  0  0  0  0 15  0  0  0  0  0  0
   41.9079    1.2838    0.7181 H   0  0  0  0  0 15  0  0  0  0  0  0
   43.8659    1.7233    3.7994 H   0  0  0  0  0 15  0  0  0  0  0  0
   42.4959    0.8012    3.1270 H   0  0  0  0  0 15  0  0  0  0  0  0
   41.5479    3.0603    2.2594 H   0  0  0  0  0 15  0  0  0  0  0  0
   42.8599    3.8786    3.1363 H   0  0  0  0  0 15  0  0  0  0  0  0
   42.0139    2.9502    5.3014 H   0  0  0  0  0 15  0  0  0  0  0  0
   40.7529    2.0278    4.4354 H   0  0  0  0  0 15  0  0  0  0  0  0
   39.7579    4.1696    3.5837 H   0  0  0  0  0 15  0  0  0  0  0  0
   40.9829    5.1011    4.4829 H   0  0  0  0  0 15  0  0  0  0  0  0
   38.9289    3.2243    5.7129 H   0  0  0  0  0 15  0  0  0  0  0  0
   38.8459    4.9554    5.7094 H   0  0  0  0  0 15  0  0  0  0  0  0
   40.1139    4.1592    6.5927 H   0  0  0  0  0 15  0  0  0  0  0  0
   44.3430   -0.7638    1.3786 N   0  0  0  0  0 15  0  0  0  0  0  0
   45.2900   -1.8773    1.3427 C   0  0  0  0  0 15  0  0  0  0  0  0
   46.2600   -1.6481    0.2069 C   0  0  0  0  0 15  0  0  0  0  0  0
   47.4450   -1.8661    0.3975 O   0  0  0  0  0 15  0  0  0  0  0  0
   44.5850   -3.2490    1.1635 C   0  0  0  0  0 15  0  0  0  0  0  0
   43.6980   -3.5972    2.3923 C   0  0  0  0  0 15  0  0  0  0  0  0
   42.8330   -4.8614    2.1411 C   0  0  0  0  0 15  0  0  0  0  0  0
   41.8720   -5.1371    3.3282 C   0  0  0  0  0 15  0  0  0  0  0  0
   41.0090   -6.3132    3.0721 N   0  0  0  0  0 15  0  0  0  0  0  0
   45.8490   -1.9013    2.2947 H   0  0  0  0  0 15  0  0  0  0  0  0
   43.3860   -0.9294    1.1402 H   0  0  0  0  0 15  0  0  0  0  0  0
   45.3440   -4.0404    1.0397 H   0  0  0  0  0 15  0  0  0  0  0  0
   43.9740   -3.2185    0.2479 H   0  0  0  0  0 15  0  0  0  0  0  0
   43.0260   -2.7550    2.6231 H   0  0  0  0  0 15  0  0  0  0  0  0
   44.3380   -3.7603    3.2773 H   0  0  0  0  0 15  0  0  0  0  0  0
   43.4920   -5.7320    1.9882 H   0  0  0  0  0 15  0  0  0  0  0  0
   42.2310   -4.7194    1.2296 H   0  0  0  0  0 15  0  0  0  0  0  0
   41.2360   -4.2512    3.4864 H   0  0  0  0  0 15  0  0  0  0  0  0
   42.4610   -5.2981    4.2483 H   0  0  0  0  0 15  0  0  0  0  0  0
   40.4070   -6.1847    2.1869 H   0  0  0  0  0 15  0  0  0  0  0  0
   40.3240   -6.4809    3.8925 H   0  0  0  0  0 15  0  0  0  0  0  0
   41.5920   -7.2130    2.9555 H   0  0  0  0  0 15  0  0  0  0  0  0
   45.8211   -1.2256   -0.9908 N   0  0  0  0  0 15  0  0  0  0  0  0
   47.0461   -1.0786   -1.7715 C   0  0  0  0  0 15  0  0  0  0  0  0
   47.4711    0.3664   -1.8450 C   0  0  0  0  0 15  0  0  0  0  0  0
   46.8291    1.2648   -1.2990 O   0  0  0  0  0 15  0  0  0  0  0  0
   46.8771   -1.6969   -3.1818 C   0  0  0  0  0 15  0  0  0  0  0  0
   45.9811   -0.9519   -4.0126 O   0  0  0  0  0 15  0  0  0  0  0  0
   45.3221   -0.3787   -0.5454 H   0  0  0  0  0 15  0  0  0  0  0  0
   47.8521   -1.6240   -1.2445 H   0  0  0  0  0 15  0  0  0  0  0  0
   47.8621   -1.7450   -3.6880 H   0  0  0  0  0 15  0  0  0  0  0  0
   46.5371   -2.7484   -3.1215 H   0  0  0  0  0 15  0  0  0  0  0  0
   45.1141   -0.9800   -3.5979 H   0  0  0  0  0 15  0  0  0  0  0  0
   47.2992    1.1880   -1.0356 N   0  0  0  0  0 15  0  0  0  0  0  0
   48.5392    1.9035   -0.7448 C   0  0  0  0  0 15  0  0  0  0  0  0
   48.9032    1.7823    0.7140 C   0  0  0  0  0 15  0  0  0  0  0  0
   50.1042    2.4444    1.1181 O   0  0  0  0  0 15  0  0  0  0  0  0
   48.3752    3.3694   -1.1918 C   0  0  0  0  0 15  0  0  0  0  0  0
   49.9342    4.2664   -1.0259 S   0  0  0  0  0 15  0  0  0  0  0  0
   46.7522    0.6573   -0.2710 H   0  0  0  0  0 15  0  0  0  0  0  0
   49.3542    1.4358   -1.3269 H   0  0  0  0  0 15  0  0  0  0  0  0
   48.0582    3.4329   -2.2490 H   0  0  0  0  0 15  0  0  0  0  0  0
   47.5892    3.8875   -0.6034 H   0  0  0  0  0 15  0  0  0  0  0  0
   49.6042    4.9616    0.0596 H   0  0  0  0  0 15  0  0  0  0  0  0
   48.7773    0.8144    1.3493 N   0  0  0  0  0 15  0  0  0  0  0  0
   50.0173    0.4042    2.0036 C   0  0  0  0  0 15  0  0  0  0  0  0
   50.3813   -1.0117    1.6319 C   0  0  0  0  0 15  0  0  0  0  0  0
   51.5823   -1.5243    2.2140 O   0  0  0  0  0 15  0  0  0  0  0  0
   49.8533    0.5907    3.5248 C   0  0  0  0  0 15  0  0  0  0  0  0
   51.4123    0.2721    4.3796 S   0  0  0  0  0 15  0  0  0  0  0  0
   48.2303    0.1531    0.6943 H   0  0  0  0  0 15  0  0  0  0  0  0
   50.8323    1.0583    1.6438 H   0  0  0  0  0 15  0  0  0  0  0  0
   49.5363    1.6210    3.7703 H   0  0  0  0  0 15  0  0  0  0  0  0
   49.0673   -0.0785    3.9332 H   0  0  0  0  0 15  0  0  0  0  0  0
   51.0823   -0.9174    4.8765 H   0  0  0  0  0 15  0  0  0  0  0  0
   50.2554   -1.4699    0.5686 N   0  0  0  0  0 15  0  0  0  0  0  0
   51.4804   -2.0733    0.0521 C   0  0  0  0  0 15  0  0  0  0  0  0
   51.9054   -1.4167   -1.2373 C   0  0  0  0  0 15  0  0  0  0  0  0
   51.2634   -0.4956   -1.7439 O   0  0  0  0  0 15  0  0  0  0  0  0
   51.3114   -3.6042   -0.1150 C   0  0  0  0  0 15  0  0  0  0  0  0
   50.4154   -3.9531   -1.1749 O   0  0  0  0  0 15  0  0  0  0  0  0
   49.7564   -0.6616    0.0564 H   0  0  0  0  0 15  0  0  0  0  0  0
   52.2864   -1.8884    0.7875 H   0  0  0  0  0 15  0  0  0  0  0  0
   52.2964   -4.0670   -0.3256 H   0  0  0  0  0 15  0  0  0  0  0  0
   50.9714   -4.0760    0.8267 H   0  0  0  0  0 15  0  0  0  0  0  0
   49.5484   -3.6076   -0.9439 H   0  0  0  0  0 15  0  0  0  0  0  0
   51.7335   -0.3056   -1.5461 N   0  0  0  0  0 15  0  0  0  0  0  0
   52.9735    0.3031   -2.0214 C   0  0  0  0  0 15  0  0  0  0  0  0
   53.3375    1.5074   -1.1892 C   0  0  0  0  0 15  0  0  0  0  0  0
   54.5385    2.1878   -1.5617 O   0  0  0  0  0 15  0  0  0  0  0  0
   52.8095    0.6463   -3.5151 C   0  0  0  0  0 15  0  0  0  0  0  0
   54.3685    1.2373   -4.2100 S   0  0  0  0  0 15  0  0  0  0  0  0
   51.1865    0.0928   -0.7049 H   0  0  0  0  0 15  0  0  0  0  0  0
   53.7885   -0.4346   -1.9061 H   0  0  0  0  0 15  0  0  0  0  0  0
   52.4925   -0.2385   -4.0971 H   0  0  0  0  0 15  0  0  0  0  0  0
   52.0235    1.4147   -3.6708 H   0  0  0  0  0 15  0  0  0  0  0  0
   54.0385    2.5249   -4.2716 H   0  0  0  0  0 15  0  0  0  0  0  0
   53.2116    1.5756   -0.0334 N   0  0  0  0  0 15  0  0  0  0  0  0
   54.4516    1.9384    0.6484 C   0  0  0  0  0 15  0  0  0  0  0  0
   54.8156    0.9104    1.6904 C   0  0  0  0  0 15  0  0  0  0  0  0
   56.0166    1.1595    2.4250 O   0  0  0  0  0 15  0  0  0  0  0  0
   54.2876    3.3502    1.2449 C   0  0  0  0  0 15  0  0  0  0  0  0
   55.8466    3.9323    1.9472 S   0  0  0  0  0 15  0  0  0  0  0  0
   52.6646    0.6782    0.2134 H   0  0  0  0  0 15  0  0  0  0  0  0
   55.2666    1.9525   -0.0981 H   0  0  0  0  0 15  0  0  0  0  0  0
   53.9706    4.0765    0.4741 H   0  0  0  0  0 15  0  0  0  0  0  0
   53.5016    3.3706    2.0286 H   0  0  0  0  0 15  0  0  0  0  0  0
   55.5166    3.7701    3.2261 H   0  0  0  0  0 15  0  0  0  0  0  0
   54.6897   -0.2398    1.5577 N   0  0  0  0  0 15  0  0  0  0  0  0
   56.1007   -0.8083    1.6830 C   0  0  0  0  0 15  0  0  0  0  0  0
   56.4517   -1.8574    0.6322 C   0  0  0  0  0 15  0  0  0  0  0  0
   55.5767   -2.1528   -0.2202 O   0  0  0  0  0 15  0  0  0  0  0  0
   56.1717   -1.4728    3.0511 C   0  0  0  0  0 15  0  0  0  0  0  0
   54.7307   -1.9889    3.1956 C   0  0  0  0  0 15  0  0  0  0  0  0
   53.8777   -0.8426    2.6419 C   0  0  0  0  0 15  0  0  0  0  0  0
   56.8287   -0.0154    1.5869 H   0  0  0  0  0 15  0  0  0  0  0  0
   56.8497   -2.3411    2.9995 H   0  0  0  0  0 15  0  0  0  0  0  0
   56.3617   -0.7091    3.8157 H   0  0  0  0  0 15  0  0  0  0  0  0
   54.4627   -2.7813    2.4794 H   0  0  0  0  0 15  0  0  0  0  0  0
   54.5757   -2.1814    4.2656 H   0  0  0  0  0 15  0  0  0  0  0  0
   52.9397   -1.2450    2.2220 H   0  0  0  0  0 15  0  0  0  0  0  0
   53.7227   -0.0918    3.4318 H   0  0  0  0  0 15  0  0  0  0  0  0
   56.1678   -1.4927   -0.5057 N   0  0  0  0  0 15  0  0  0  0  0  0
   57.0978   -1.6850   -1.6165 C   0  0  0  0  0 15  0  0  0  0  0  0
   58.0788   -0.5337   -1.6151 C   0  0  0  0  0 15  0  0  0  0  0  0
   59.2638   -0.7690   -1.7833 O   0  0  0  0  0 15  0  0  0  0  0  0
   56.3938   -1.7471   -3.0016 C   0  0  0  0  0 15  0  0  0  0  0  0
   55.3478   -2.8958   -3.1516 C   0  0  0  0  0 15  0  0  0  0  0  0
   54.6738   -2.8090   -4.5497 C   0  0  0  0  0 15  0  0  0  0  0  0
   55.9738   -4.3058   -2.9563 C   0  0  0  0  0 15  0  0  0  0  0  0
   57.6678   -2.6149   -1.4581 H   0  0  0  0  0 15  0  0  0  0  0  0
   55.2138   -1.2584   -0.7001 H   0  0  0  0  0 15  0  0  0  0  0  0
   57.1668   -1.8675   -3.7776 H   0  0  0  0  0 15  0  0  0  0  0  0
   55.8908   -0.7831   -3.1707 H   0  0  0  0  0 15  0  0  0  0  0  0
   54.5498   -2.7714   -2.3998 H   0  0  0  0  0 15  0  0  0  0  0  0
   54.1978   -1.8242   -4.6876 H   0  0  0  0  0 15  0  0  0  0  0  0
   53.8978   -3.5800   -4.6595 H   0  0  0  0  0 15  0  0  0  0  0  0
   55.4218   -2.9494   -5.3464 H   0  0  0  0  0 15  0  0  0  0  0  0
   56.8358   -4.4373   -3.6301 H   0  0  0  0  0 15  0  0  0  0  0  0
   55.2328   -5.0886   -3.1809 H   0  0  0  0  0 15  0  0  0  0  0  0
   56.3028   -4.4535   -1.9181 H   0  0  0  0  0 15  0  0  0  0  0  0
   57.6459    0.7564   -1.3826 N   0  0  0  0  0 15  0  0  0  0  0  0
   58.8939    1.5125   -1.3405 C   0  0  0  0  0 15  0  0  0  0  0  0
   59.2149    1.9487    0.0698 C   0  0  0  0  0 15  0  0  0  0  0  0
   58.4849    1.6744    1.0170 O   0  0  0  0  0 15  0  0  0  0  0  0
   57.0649    0.5610   -0.4932 H   0  0  0  0  0 15  0  0  0  0  0  0
   59.7269    0.8993   -1.7291 H   0  0  0  0  0 15  0  0  0  0  0  0
   58.8229    2.4047   -1.9895 H   0  0  0  0  0 15  0  0  0  0  0  0
   59.1240    1.2308    0.9843 N   0  0  0  0  0 15  0  0  0  0  0  0
   60.3640    1.0723    1.7402 C   0  0  0  0  0 15  0  0  0  0  0  0
   60.7280   -0.3848    1.8811 C   0  0  0  0  0 15  0  0  0  0  0  0
   61.9290   -0.6644    2.6046 O   0  0  0  0  0 15  0  0  0  0  0  0
   60.2000    1.7735    3.1029 C   0  0  0  0  0 15  0  0  0  0  0  0
   61.7590    1.7701    4.0151 S   0  0  0  0  0 15  0  0  0  0  0  0
   58.5770    0.3838    0.5985 H   0  0  0  0  0 15  0  0  0  0  0  0
   61.1790    1.5616    1.1762 H   0  0  0  0  0 15  0  0  0  0  0  0
   59.8830    2.8251    2.9769 H   0  0  0  0  0 15  0  0  0  0  0  0
   59.4140    1.2868    3.7176 H   0  0  0  0  0 15  0  0  0  0  0  0
   61.4290    0.8260    4.8928 H   0  0  0  0  0 15  0  0  0  0  0  0
   60.6021   -1.1825    1.0419 N   0  0  0  0  0 15  0  0  0  0  0  0
   61.5651   -2.2013    0.6385 C   0  0  0  0  0 15  0  0  0  0  0  0
   62.5651   -1.5788   -0.3048 C   0  0  0  0  0 15  0  0  0  0  0  0
   63.7551   -1.7397   -0.0900 O   0  0  0  0  0 15  0  0  0  0  0  0
   60.8871   -3.4084   -0.0638 C   0  0  0  0  0 15  0  0  0  0  0  0
   62.0801   -2.5734    1.5401 H   0  0  0  0  0 15  0  0  0  0  0  0
   59.6331   -1.3215    0.8346 H   0  0  0  0  0 15  0  0  0  0  0  0
   60.3681   -3.0917   -0.9791 H   0  0  0  0  0 15  0  0  0  0  0  0
   60.1531   -3.8726    0.6142 H   0  0  0  0  0 15  0  0  0  0  0  0
   61.6431   -4.1627   -0.3325 H   0  0  0  0  0 15  0  0  0  0  0  0
   62.0802   -0.8215   -1.3449 N   0  0  0  0  0 15  0  0  0  0  0  0
   63.0272   -0.2404   -2.2954 C   0  0  0  0  0 15  0  0  0  0  0  0
   63.9972    0.6340   -1.5352 C   0  0  0  0  0 15  0  0  0  0  0  0
   65.1822    0.5760   -1.8190 O   0  0  0  0  0 15  0  0  0  0  0  0
   62.3222    0.5929   -3.3997 C   0  0  0  0  0 15  0  0  0  0  0  0
   61.4352   -0.3036   -4.3093 C   0  0  0  0  0 15  0  0  0  0  0  0
   60.5702    0.5390   -5.2846 C   0  0  0  0  0 15  0  0  0  0  0  0
   59.6092   -0.3569   -6.1106 C   0  0  0  0  0 15  0  0  0  0  0  0
   58.7462    0.4466   -7.0068 N   0  0  0  0  0 15  0  0  0  0  0  0
   63.5862   -1.0563   -2.7865 H   0  0  0  0  0 15  0  0  0  0  0  0
   61.1232   -0.5324   -1.3713 H   0  0  0  0  0 15  0  0  0  0  0  0
   63.0812    1.0913   -4.0267 H   0  0  0  0  0 15  0  0  0  0  0  0
   61.7112    1.3739   -2.9210 H   0  0  0  0  0 15  0  0  0  0  0  0
   60.7632   -0.9203   -3.6910 H   0  0  0  0  0 15  0  0  0  0  0  0
   62.0752   -0.9927   -4.8882 H   0  0  0  0  0 15  0  0  0  0  0  0
   61.2292    1.1020   -5.9661 H   0  0  0  0  0 15  0  0  0  0  0  0
   59.9682    1.2616   -4.7110 H   0  0  0  0  0 15  0  0  0  0  0  0
   58.9732   -0.9320   -5.4184 H   0  0  0  0  0 15  0  0  0  0  0  0
   60.1982   -1.0776   -6.7050 H   0  0  0  0  0 15  0  0  0  0  0  0
   58.1442    1.1528   -6.4579 H   0  0  0  0  0 15  0  0  0  0  0  0
   58.0612   -0.1840   -7.5578 H   0  0  0  0  0 15  0  0  0  0  0  0
   59.3292    0.9924   -7.7316 H   0  0  0  0  0 15  0  0  0  0  0  0
   63.5583    1.4668   -0.5764 N   0  0  0  0  0 15  0  0  0  0  0  0
   64.7983    2.0431   -0.0621 C   0  0  0  0  0 15  0  0  0  0  0  0
   65.1623    1.4389    1.2712 C   0  0  0  0  0 15  0  0  0  0  0  0
   66.3633    1.9268    1.8743 O   0  0  0  0  0 15  0  0  0  0  0  0
   64.6343    3.5740    0.0093 C   0  0  0  0  0 15  0  0  0  0  0  0
   66.1933    4.3631    0.4669 S   0  0  0  0  0 15  0  0  0  0  0  0
   63.0113    0.7102   -0.0344 H   0  0  0  0  0 15  0  0  0  0  0  0
   65.6133    1.7981   -0.7674 H   0  0  0  0  0 15  0  0  0  0  0  0
   64.3173    3.9889   -0.9652 H   0  0  0  0  0 15  0  0  0  0  0  0
   63.8483    3.8642    0.7375 H   0  0  0  0  0 15  0  0  0  0  0  0
   65.8633    4.6533    1.7229 H   0  0  0  0  0 15  0  0  0  0  0  0
   65.0364    0.3138    1.5444 N   0  0  0  0  0 15  0  0  0  0  0  0
   65.9994   -0.5438    2.2266 C   0  0  0  0  0 15  0  0  0  0  0  0
   66.9994   -1.0512    1.2168 C   0  0  0  0  0 15  0  0  0  0  0  0
   68.1894   -0.9452    1.4633 O   0  0  0  0  0 15  0  0  0  0  0  0
   65.3214   -1.7543    2.9230 C   0  0  0  0  0 15  0  0  0  0  0  0
   66.5144    0.0524    2.9985 H   0  0  0  0  0 15  0  0  0  0  0  0
   64.0674    0.0648    1.5617 H   0  0  0  0  0 15  0  0  0  0  0  0
   64.8024   -2.3899    2.1921 H   0  0  0  0  0 15  0  0  0  0  0  0
   64.5874   -1.3979    3.6633 H   0  0  0  0  0 15  0  0  0  0  0  0
   66.0774   -2.3633    3.4430 H   0  0  0  0  0 15  0  0  0  0  0  0
   66.5145   -1.5754    0.0418 N   0  0  0  0  0 15  0  0  0  0  0  0
   67.4465   -2.0790   -0.9648 C   0  0  0  0  0 15  0  0  0  0  0  0
   68.4595   -1.0050   -1.2808 C   0  0  0  0  0 15  0  0  0  0  0  0
   69.6485   -1.2809   -1.2432 O   0  0  0  0  0 15  0  0  0  0  0  0
   66.7485   -2.4993   -2.2889 C   0  0  0  0  0 15  0  0  0  0  0  0
   65.9215   -3.8056   -2.1562 C   0  0  0  0  0 15  0  0  0  0  0  0
   64.9805   -4.0900   -3.3107 C   0  0  0  0  0 15  0  0  0  0  0  0
   64.0065   -4.7906   -3.0739 O   0  0  0  0  0 15  0  0  0  0  0  0
   65.2085   -3.6017   -4.5526 N   0  0  0  0  0 15  0  0  0  0  0  0
   67.9735   -2.9489   -0.5350 H   0  0  0  0  0 15  0  0  0  0  0  0
   65.5345   -1.6125   -0.1447 H   0  0  0  0  0 15  0  0  0  0  0  0
   67.5265   -2.6603   -3.0497 H   0  0  0  0  0 15  0  0  0  0  0  0
   66.0965   -1.6824   -2.6346 H   0  0  0  0  0 15  0  0  0  0  0  0
   65.3165   -3.7413   -1.2418 H   0  0  0  0  0 15  0  0  0  0  0  0
   66.6045   -4.6613   -2.0397 H   0  0  0  0  0 15  0  0  0  0  0  0
   66.0025   -3.0351   -4.7739 H   0  0  0  0  0 15  0  0  0  0  0  0
   64.5595   -3.8153   -5.2847 H   0  0  0  0  0 15  0  0  0  0  0  0
   67.9926    0.2315   -1.5589 N   0  0  0  0  0 15  0  0  0  0  0  0
   69.2406    0.9555   -1.7809 C   0  0  0  0  0 15  0  0  0  0  0  0
   69.5616    1.8526   -0.6085 C   0  0  0  0  0 15  0  0  0  0  0  0
   68.8316    1.9228    0.3750 O   0  0  0  0  0 15  0  0  0  0  0  0
   67.4116    0.3558   -0.6568 H   0  0  0  0  0 15  0  0  0  0  0  0
   70.0736    0.2458   -1.9334 H   0  0  0  0  0 15  0  0  0  0  0  0
   69.1696    1.5681   -2.6984 H   0  0  0  0  0 15  0  0  0  0  0  0
   69.4707    1.4953    0.4978 N   0  0  0  0  0 15  0  0  0  0  0  0
   70.7107    1.6080    1.2619 C   0  0  0  0  0 15  0  0  0  0  0  0
   71.0747    0.2896    1.8980 C   0  0  0  0  0 15  0  0  0  0  0  0
   72.2757    0.2775    2.6736 O   0  0  0  0  0 15  0  0  0  0  0  0
   70.5467    2.7373    2.2980 C   0  0  0  0  0 15  0  0  0  0  0  0
   72.1057    3.0497    3.1550 S   0  0  0  0  0 15  0  0  0  0  0  0
   68.9237    0.5671    0.4288 H   0  0  0  0  0 15  0  0  0  0  0  0
   71.5257    1.8720    0.5635 H   0  0  0  0  0 15  0  0  0  0  0  0
   70.2297    3.6804    1.8160 H   0  0  0  0  0 15  0  0  0  0  0  0
   69.7607    2.4933    3.0430 H   0  0  0  0  0 15  0  0  0  0  0  0
   71.7757    2.4674    4.3051 H   0  0  0  0  0 15  0  0  0  0  0  0
   70.9488   -0.7491    1.3866 N   0  0  0  0  0 15  0  0  0  0  0  0
   72.1978   -1.5037    1.3443 C   0  0  0  0  0 15  0  0  0  0  0  0
   72.5108   -1.9550   -0.0616 C   0  0  0  0  0 15  0  0  0  0  0  0
   73.7168   -2.7055   -0.2265 O   0  0  0  0  0 15  0  0  0  0  0  0
   72.1728   -2.7164    2.3609 C   0  0  0  0  0 15  0  0  0  0  0  0
   71.7808   -2.3352    3.8233 C   0  0  0  0  0 15  0  0  0  0  0  0
   73.5248   -3.4952    2.4091 C   0  0  0  0  0 15  0  0  0  0  0  0
   71.4318   -3.5143    4.7566 C   0  0  0  0  0 15  0  0  0  0  0  0
   70.3618   -0.5646    0.4997 H   0  0  0  0  0 15  0  0  0  0  0  0
   73.0128   -0.8184    1.6424 H   0  0  0  0  0 15  0  0  0  0  0  0
   71.3948   -3.4217    1.9933 H   0  0  0  0  0 15  0  0  0  0  0  0
   72.5688   -1.7063    4.2805 H   0  0  0  0  0 15  0  0  0  0  0  0
   70.8838   -1.6877    3.8066 H   0  0  0  0  0 15  0  0  0  0  0  0
   73.4808   -4.3720    3.0784 H   0  0  0  0  0 15  0  0  0  0  0  0
   73.8238   -3.9099    1.4294 H   0  0  0  0  0 15  0  0  0  0  0  0
   74.3568   -2.8601    2.7649 H   0  0  0  0  0 15  0  0  0  0  0  0
   71.0958   -3.1502    5.7484 H   0  0  0  0  0 15  0  0  0  0  0  0
   70.6158   -4.1335    4.3463 H   0  0  0  0  0 15  0  0  0  0  0  0
   72.2948   -4.1795    4.9389 H   0  0  0  0  0 15  0  0  0  0  0  0
   72.4269   -1.2360   -0.9778 N   0  0  0  0  0 15  0  0  0  0  0  0
   73.6669   -1.0815   -1.7345 C   0  0  0  0  0 15  0  0  0  0  0  0
   74.0309    0.3748   -1.8831 C   0  0  0  0  0 15  0  0  0  0  0  0
   75.2319    0.6506   -2.6081 O   0  0  0  0  0 15  0  0  0  0  0  0
   73.5029   -1.7899   -3.0935 C   0  0  0  0  0 15  0  0  0  0  0  0
   75.0619   -1.7914   -4.0057 S   0  0  0  0  0 15  0  0  0  0  0  0
   71.8799   -0.3870   -0.5965 H   0  0  0  0  0 15  0  0  0  0  0  0
   74.4819   -1.5678   -1.1679 H   0  0  0  0  0 15  0  0  0  0  0  0
   73.1859   -2.8408   -2.9619 H   0  0  0  0  0 15  0  0  0  0  0  0
   72.7169   -1.3065   -3.7107 H   0  0  0  0  0 15  0  0  0  0  0  0
   74.7319   -0.8519   -4.8883 H   0  0  0  0  0 15  0  0  0  0  0  0
   73.9050    1.1769   -1.0482 N   0  0  0  0  0 15  0  0  0  0  0  0
   74.8520    2.2158   -0.6458 C   0  0  0  0  0 15  0  0  0  0  0  0
   75.8220    1.6237    0.3502 C   0  0  0  0  0 15  0  0  0  0  0  0
   77.0070    1.8925    0.2424 O   0  0  0  0  0 15  0  0  0  0  0  0
   74.1470    3.4509   -0.0228 C   0  0  0  0  0 15  0  0  0  0  0  0
   73.2600    4.1861   -1.0671 C   0  0  0  0  0 15  0  0  0  0  0  0
   72.3950    5.2960   -0.4118 C   0  0  0  0  0 15  0  0  0  0  0  0
   71.4340    5.9490   -1.4407 C   0  0  0  0  0 15  0  0  0  0  0  0
   70.5710    6.9741   -0.8098 N   0  0  0  0  0 15  0  0  0  0  0  0
   75.4110    2.5535   -1.5362 H   0  0  0  0  0 15  0  0  0  0  0  0
   72.9480    1.2544   -0.7684 H   0  0  0  0  0 15  0  0  0  0  0  0
   74.9060    4.1568    0.3559 H   0  0  0  0  0 15  0  0  0  0  0  0
   73.5360    3.1192    0.8311 H   0  0  0  0  0 15  0  0  0  0  0  0
   72.5880    3.4678   -1.5636 H   0  0  0  0  0 15  0  0  0  0  0  0
   73.9000    4.6329   -1.8483 H   0  0  0  0  0 15  0  0  0  0  0  0
   73.0540    6.0670    0.0207 H   0  0  0  0  0 15  0  0  0  0  0  0
   71.7930    4.8605    0.4014 H   0  0  0  0  0 15  0  0  0  0  0  0
   70.7980    5.1654   -1.8832 H   0  0  0  0  0 15  0  0  0  0  0  0
   72.0230    6.4054   -2.2557 H   0  0  0  0  0 15  0  0  0  0  0  0
   69.9690    6.5600   -0.0170 H   0  0  0  0  0 15  0  0  0  0  0  0
   69.8860    7.4039   -1.5286 H   0  0  0  0  0 15  0  0  0  0  0  0
   71.1540    7.7846   -0.4020 H   0  0  0  0  0 15  0  0  0  0  0  0
   75.3831    0.8287    1.3406 N   0  0  0  0  0 15  0  0  0  0  0  0
   76.6311    0.4186    1.9772 C   0  0  0  0  0 15  0  0  0  0  0  0
   76.9521   -1.0231    1.6600 C   0  0  0  0  0 15  0  0  0  0  0  0
   76.2221   -1.7112    0.9537 O   0  0  0  0  0 15  0  0  0  0  0  0
   74.8021    0.1518    0.7314 H   0  0  0  0  0 15  0  0  0  0  0  0
   77.4641    1.0594    1.6360 H   0  0  0  0  0 15  0  0  0  0  0  0
   76.5601    0.5423    3.0735 H   0  0  0  0  0 15  0  0  0  0  0  0
   76.8612   -1.4637    0.5841 N   0  0  0  0  0 15  0  0  0  0  0  0
   77.8242   -2.2878   -0.1381 C   0  0  0  0  0 15  0  0  0  0  0  0
   78.8242   -1.3847   -0.8175 C   0  0  0  0  0 15  0  0  0  0  0  0
   80.0142   -1.6083   -0.6692 O   0  0  0  0  0 15  0  0  0  0  0  0
   77.1462   -3.1889   -1.2050 C   0  0  0  0  0 15  0  0  0  0  0  0
   78.3392   -2.9412    0.5861 H   0  0  0  0  0 15  0  0  0  0  0  0
   75.8922   -1.5251    0.3422 H   0  0  0  0  0 15  0  0  0  0  0  0
   76.6272   -2.5831   -1.9608 H   0  0  0  0  0 15  0  0  0  0  0  0
   76.4122   -3.8539   -0.7224 H   0  0  0  0  0 15  0  0  0  0  0  0
   77.9022   -3.8091   -1.7115 H   0  0  0  0  0 15  0  0  0  0  0  0
   78.3393   -0.3220   -1.5428 N   0  0  0  0  0 15  0  0  0  0  0  0
   79.5643    0.2858   -2.0542 C   0  0  0  0  0 15  0  0  0  0  0  0
   79.9893    1.4512   -1.1967 C   0  0  0  0  0 15  0  0  0  0  0  0
   79.3473    1.8013   -0.2054 O   0  0  0  0  0 15  0  0  0  0  0  0
   79.3953    0.6996   -3.5375 C   0  0  0  0  0 15  0  0  0  0  0  0
   78.4993    1.8021   -3.7094 O   0  0  0  0  0 15  0  0  0  0  0  0
   77.8403    0.0519   -0.6620 H   0  0  0  0  0 15  0  0  0  0  0  0
   80.3703   -0.4700   -1.9913 H   0  0  0  0  0 15  0  0  0  0  0  0
   80.3803    0.9826   -3.9599 H   0  0  0  0  0 15  0  0  0  0  0  0
   79.0553   -0.1529   -4.1562 H   0  0  0  0  0 15  0  0  0  0  0  0
   77.6323    1.5179   -3.4061 H   0  0  0  0  0 15  0  0  0  0  0  0
   79.8174    1.5752   -0.0501 N   0  0  0  0  0 15  0  0  0  0  0  0
   80.7274    2.1495    0.9398 C   0  0  0  0  0 15  0  0  0  0  0  0
   81.7434    1.1071    1.3424 C   0  0  0  0  0 15  0  0  0  0  0  0
   82.9194    1.4287    1.4195 O   0  0  0  0  0 15  0  0  0  0  0  0
   79.9844    2.6823    2.1966 C   0  0  0  0  0 15  0  0  0  0  0  0
   79.0454    3.8727    1.8525 C   0  0  0  0  0 15  0  0  0  0  0  0
   78.2784    4.3800    3.0494 C   0  0  0  0  0 15  0  0  0  0  0  0
   78.5014    3.8781    4.1828 O   0  0  0  0  0 15  0  0  0  0  0  0
   77.4354    5.2960    2.8602 O   0  0  0  0  0 15  0  0  0  0  0  0
   81.2614    2.9986    0.4814 H   0  0  0  0  0 15  0  0  0  0  0  0
   78.8464    1.4841    0.1717 H   0  0  0  0  0 15  0  0  0  0  0  0
   80.7284    3.0247    2.9341 H   0  0  0  0  0 15  0  0  0  0  0  0
   79.4034    1.8640    2.6465 H   0  0  0  0  0 15  0  0  0  0  0  0
   78.3104    3.5792    1.0883 H   0  0  0  0  0 15  0  0  0  0  0  0
   79.6434    4.7034    1.4507 H   0  0  0  0  0 15  0  0  0  0  0  0
   81.2955   -0.2232    1.5601 N   0  0  0  0  0 15  0  0  0  0  0  0
   82.2425   -1.2766    1.9228 C   0  0  0  0  0 15  0  0  0  0  0  0
   83.2125   -1.4666    0.7798 C   0  0  0  0  0 15  0  0  0  0  0  0
   84.3975   -1.6026    1.0355 O   0  0  0  0  0 15  0  0  0  0  0  0
   81.5375   -2.6223    2.2434 C   0  0  0  0  0 15  0  0  0  0  0  0
   80.6505   -2.5105    3.5156 C   0  0  0  0  0 15  0  0  0  0  0  0
   79.7855   -3.7813    3.7308 C   0  0  0  0  0 15  0  0  0  0  0  0
   78.8245   -3.6167    4.9383 C   0  0  0  0  0 15  0  0  0  0  0  0
   77.9615   -4.8069    5.1174 N   0  0  0  0  0 15  0  0  0  0  0  0
   82.8015   -0.9604    2.8210 H   0  0  0  0  0 15  0  0  0  0  0  0
   80.3385   -0.4629    1.3963 H   0  0  0  0  0 15  0  0  0  0  0  0
   82.2965   -3.4060    2.4094 H   0  0  0  0  0 15  0  0  0  0  0  0
   80.9265   -2.9196    1.3769 H   0  0  0  0  0 15  0  0  0  0  0  0
   79.9785   -1.6413    3.4317 H   0  0  0  0  0 15  0  0  0  0  0  0
   81.2905   -2.3480    4.4008 H   0  0  0  0  0 15  0  0  0  0  0  0
   80.4445   -4.6494    3.8977 H   0  0  0  0  0 15  0  0  0  0  0  0
   79.1835   -3.9730    2.8284 H   0  0  0  0  0 15  0  0  0  0  0  0
   78.1885   -2.7324    4.7709 H   0  0  0  0  0 15  0  0  0  0  0  0
   79.4135   -3.4397    5.8555 H   0  0  0  0  0 15  0  0  0  0  0  0
   77.3595   -5.0018    4.2445 H   0  0  0  0  0 15  0  0  0  0  0  0
   77.2765   -4.6717    5.9438 H   0  0  0  0  0 15  0  0  0  0  0  0
   78.5445   -5.6893    5.3286 H   0  0  0  0  0 15  0  0  0  0  0  0
   82.7736   -1.4979   -0.4899 N   0  0  0  0  0 15  0  0  0  0  0  0
   84.0136   -1.6147   -1.2533 C   0  0  0  0  0 15  0  0  0  0  0  0
   84.3776   -0.2997   -1.8965 C   0  0  0  0  0 15  0  0  0  0  0  0
   85.5786   -0.2917   -2.6721 O   0  0  0  0  0 15  0  0  0  0  0  0
   83.8496   -2.7494   -2.2834 C   0  0  0  0  0 15  0  0  0  0  0  0
   85.4086   -3.0664   -3.1388 S   0  0  0  0  0 15  0  0  0  0  0  0
   82.2266   -0.5694   -0.4258 H   0  0  0  0  0 15  0  0  0  0  0  0
   84.8286   -1.8750   -0.5535 H   0  0  0  0  0 15  0  0  0  0  0  0
   83.5326   -3.6899   -1.7964 H   0  0  0  0  0 15  0  0  0  0  0  0
   83.0636   -2.5094   -3.0297 H   0  0  0  0  0 15  0  0  0  0  0  0
   85.0786   -2.4901   -4.2919 H   0  0  0  0  0 15  0  0  0  0  0  0
   84.2517    0.7417   -1.3905 N   0  0  0  0  0 15  0  0  0  0  0  0
   85.4767    1.5361   -1.3935 C   0  0  0  0  0 15  0  0  0  0  0  0
   85.9017    1.8810    0.0117 C   0  0  0  0  0 15  0  0  0  0  0  0
   85.2597    1.5143    0.9969 O   0  0  0  0  0 15  0  0  0  0  0  0
   85.3077    2.8044   -2.2668 C   0  0  0  0  0 15  0  0  0  0  0  0
   84.4117    3.7609   -1.6921 O   0  0  0  0  0 15  0  0  0  0  0  0
   83.7527    0.4641   -0.4748 H   0  0  0  0  0 15  0  0  0  0  0  0
   86.2827    0.9157   -1.8297 H   0  0  0  0  0 15  0  0  0  0  0  0
   86.2927    3.2925   -2.4096 H   0  0  0  0  0 15  0  0  0  0  0  0
   84.9677    2.5467   -3.2881 H   0  0  0  0  0 15  0  0  0  0  0  0
   83.5447    3.3483   -1.6414 H   0  0  0  0  0 15  0  0  0  0  0  0
   85.7298    1.2412    0.9712 N   0  0  0  0  0 15  0  0  0  0  0  0
   86.9698    1.0907    1.7287 C   0  0  0  0  0 15  0  0  0  0  0  0
   87.3338   -0.3648    1.8850 C   0  0  0  0  0 15  0  0  0  0  0  0
   88.5348   -0.6367    2.6115 O   0  0  0  0  0 15  0  0  0  0  0  0
   86.8058    1.8063    3.0840 C   0  0  0  0  0 15  0  0  0  0  0  0
   88.3648    1.8126    3.9961 S   0  0  0  0  0 15  0  0  0  0  0  0
   85.1828    0.3901    0.5944 H   0  0  0  0  0 15  0  0  0  0  0  0
   87.7848    1.5740    1.1596 H   0  0  0  0  0 15  0  0  0  0  0  0
   86.4888    2.8565    2.9468 H   0  0  0  0  0 15  0  0  0  0  0  0
   86.0198    1.3262    3.7037 H   0  0  0  0  0 15  0  0  0  0  0  0
   88.0348    0.8778    4.8837 H   0  0  0  0  0 15  0  0  0  0  0  0
   87.2079   -1.1713    1.0544 N   0  0  0  0  0 15  0  0  0  0  0  0
   88.4479   -1.8914    0.7750 C   0  0  0  0  0 15  0  0  0  0  0  0
   88.8119   -1.7934   -0.6855 C   0  0  0  0  0 15  0  0  0  0  0  0
   90.0129   -2.4619   -1.0791 O   0  0  0  0  0 15  0  0  0  0  0  0
   88.2839   -3.3500    1.2453 C   0  0  0  0  0 15  0  0  0  0  0  0
   89.8429   -4.2495    1.0937 S   0  0  0  0  0 15  0  0  0  0  0  0
   86.6609   -0.6529    0.2814 H   0  0  0  0  0 15  0  0  0  0  0  0
   89.2629   -1.4145    1.3495 H   0  0  0  0  0 15  0  0  0  0  0  0
   87.9669   -3.3967    2.3034 H   0  0  0  0  0 15  0  0  0  0  0  0
   87.4979   -3.8774    0.6652 H   0  0  0  0  0 15  0  0  0  0  0  0
   89.5129   -4.9620    0.0193 H   0  0  0  0  0 15  0  0  0  0  0  0
   88.6860   -0.8358   -1.3361 N   0  0  0  0  0 15  0  0  0  0  0  0
   89.6490   -0.2720   -2.2758 C   0  0  0  0  0 15  0  0  0  0  0  0
   90.6490    0.5575   -1.5083 C   0  0  0  0  0 15  0  0  0  0  0  0
   91.8390    0.3717   -1.7019 O   0  0  0  0  0 15  0  0  0  0  0  0
   88.9710    0.6172   -3.3527 C   0  0  0  0  0 15  0  0  0  0  0  0
   90.1640   -1.1011   -2.7895 H   0  0  0  0  0 15  0  0  0  0  0  0
   87.7170   -0.6086   -1.4396 H   0  0  0  0  0 15  0  0  0  0  0  0
   88.4520    1.4688   -2.8913 H   0  0  0  0  0 15  0  0  0  0  0  0
   88.2370    0.0237   -3.9209 H   0  0  0  0  0 15  0  0  0  0  0  0
   89.7270    1.0050   -4.0533 H   0  0  0  0  0 15  0  0  0  0  0  0
   90.2030    1.4393   -0.7325 O   0  0  0  0  0 15  0  0  0  0  0  0
   90.8940    1.9162   -0.2832 H   0  0  0  0  0 15  0  0  0  0  0  0
M  END
$$$$
