drugbank_target|P80374 30S ribosomal protein S9 (DB08185)
 OpenBabel12092120483D

  0  0  0     0  0            999 V3000
M  V30 BEGIN CTAB
M  V30 COUNTS 2067 2086 0 0 0
M  V30 BEGIN ATOM
M  V30 1 H -0.908 1.98254 -0.117106 0
M  V30 2 N 0 1.576 0 0
M  V30 3 C 0.933 2.03868 1.02534 0
M  V30 4 C 1.911 0.928543 1.3348 0
M  V30 5 O 3.095 1.19667 1.45644 0
M  V30 6 C 0.222 2.43627 2.35294 0
M  V30 7 C -0.732 3.65373 2.2001 0
M  V30 8 S 0.101 5.13292 1.52614 0
M  V30 9 C 1.257 5.56322 2.86805 0
M  V30 10 H 1.49 2.90518 0.631377 0
M  V30 11 H -0.977 1.52953 0.210867 0
M  V30 12 H 0.981 2.67203 3.11629 0
M  V30 13 H -0.358 1.57376 2.7183 0
M  V30 14 H -1.165 3.90944 3.18086 0
M  V30 15 H -1.563 3.418 1.51819 0
M  V30 16 H 0.729 5.58782 3.83104 0
M  V30 17 H 1.672 6.56266 2.65933 0
M  V30 18 H 2.08 4.83886 2.90714 0
M  V30 19 N 1.4781 -0.272755 1.55222 0
M  V30 20 C 2.3881 -1.35918 1.91216 0
M  V30 21 C 3.4041 -1.54026 0.809436 0
M  V30 22 O 4.5801 -1.68148 1.10852 0
M  V30 23 C 1.6451 -2.69834 2.17693 0
M  V30 24 C 0.7061 -2.6047 3.41253 0
M  V30 25 C -0.0609 -3.88 3.66458 0
M  V30 26 O 0.1621 -4.88693 2.94169 0
M  V30 27 O -0.9039 -3.88189 4.59992 0
M  V30 28 H 2.9221 -1.0839 2.83699 0
M  V30 29 H 0.5071 -0.471301 1.41771 0
M  V30 30 H 2.3891 -3.49017 2.36147 0
M  V30 31 H 1.0641 -2.97148 1.28392 0
M  V30 32 H -0.0289 -1.79663 3.28134 0
M  V30 33 H 1.3041 -2.38106 4.30774 0
M  V30 34 N 2.9562 -1.48159 -0.537278 0
M  V30 35 C 3.8882 -1.58218 -1.65831 0
M  V30 36 C 4.9012 -0.466948 -1.5596 0
M  V30 37 O 6.0902 -0.73747 -1.62553 0
M  V30 38 C 3.1902 -1.48906 -3.04434 0
M  V30 39 C 2.3632 -2.75343 -3.3986 0
M  V30 40 C 1.4222 -2.59588 -4.57712 0
M  V30 41 O 0.4482 -3.33457 -4.61297 0
M  V30 42 N 1.6502 -1.68724 -5.55439 0
M  V30 43 H 4.4152 -2.54891 -1.57641 0
M  V30 44 H 1.9762 -1.4479 -0.724386 0
M  V30 45 H 3.9682 -1.36072 -3.81139 0
M  V30 46 H 2.5382 -0.602368 -3.06741 0
M  V30 47 H 1.7582 -3.02795 -2.52406 0
M  V30 48 H 3.0462 -3.5924 -3.60311 0
M  V30 49 H 2.4442 -1.07898 -5.55315 0
M  V30 50 H 1.0012 -1.61832 -6.3139 0
M  V30 51 N 4.4343 0.785586 -1.36625 0
M  V30 52 C 5.6643 1.5722 -1.34036 0
M  V30 53 C 6.0723 1.89033 0.0795062 0
M  V30 54 O 5.4153 1.50881 1.04789 0
M  V30 55 C 5.4773 2.91759 -2.10041 0
M  V30 56 C 5.1413 2.82654 -3.59104 0
M  V30 57 C 6.1383 2.54634 -4.53274 0
M  V30 58 C 3.8233 3.01111 -4.02042 0
M  V30 59 C 5.8173 2.45177 -5.88359 0
M  V30 60 C 3.5043 2.91276 -5.37216 0
M  V30 61 C 4.5023 2.63348 -6.30188 0
M  V30 62 O 4.1903 2.53514 -7.6288 0
M  V30 63 H 3.9223 0.494177 -0.461265 0
M  V30 64 H 6.4763 0.982632 -1.8037 0
M  V30 65 H 4.7063 3.52781 -1.58375 0
M  V30 66 H 6.3953 3.53059 -2.00261 0
M  V30 67 H 7.1613 2.40073 -4.21414 0
M  V30 68 H 3.0403 3.21854 -3.30047 0
M  V30 69 H 6.5843 2.23299 -6.60896 0
M  V30 70 H 2.4813 3.054 -5.68684 0
M  V30 71 H 3.2493 2.68967 -7.73045 0
M  V30 72 N 5.9124 1.20967 1.01018 0
M  V30 73 C 7.1424 1.04803 1.78044 0
M  V30 74 C 7.5504 -0.405462 1.84804 0
M  V30 75 O 6.8934 -1.2932 1.30468 0
M  V30 76 C 6.9554 1.56377 3.23707 0
M  V30 77 C 6.6194 3.04767 3.40538 0
M  V30 78 C 7.6164 4.02366 3.29239 0
M  V30 79 C 5.3014 3.43862 3.66147 0
M  V30 80 C 7.2954 5.37049 3.43304 0
M  V30 81 C 4.9824 4.78699 3.79855 0
M  V30 82 C 5.9804 5.75101 3.68439 0
M  V30 83 O 5.6684 7.07493 3.81719 0
M  V30 84 H 5.4004 0.368778 0.56655 0
M  V30 85 H 7.9544 1.60642 1.27997 0
M  V30 86 H 6.1844 0.949297 3.74867 0
M  V30 87 H 7.8734 1.36136 3.8239 0
M  V30 88 H 8.6394 3.73506 3.09384 0
M  V30 89 H 4.5184 2.69364 3.74118 0
M  V30 90 H 8.0624 6.12277 3.34309 0
M  V30 91 H 3.9594 5.07247 3.99213 0
M  V30 92 H 4.7274 7.1483 3.98697 0
M  V30 93 N 7.3905 -1.2043 1.01659 0
M  V30 94 C 8.6385 -1.89423 0.704522 0
M  V30 95 C 8.9595 -1.79231 -0.768197 0
M  V30 96 O 8.2295 -1.1947 -1.55254 0
M  V30 97 H 6.8095 -0.701178 0.257602 0
M  V30 98 H 9.4715 -1.4626 1.28818 0
M  V30 99 H 8.5675 -2.96052 0.987916 0
M  V30 100 N 8.8686 -0.792821 -1.36206 0
M  V30 101 C 10.0966 -0.378825 -2.03402 0
M  V30 102 C 10.5116 1.00586 -1.59774 0
M  V30 103 O 9.8686 1.64574 -0.788764 0
M  V30 104 C 9.9196 -0.43683 -3.58851 0
M  V30 105 O 9.6406 -1.76691 -4.00889 0
M  V30 106 C 11.1416 -0.0138943 -4.43298 0
M  V30 107 H 8.3616 -0.155673 -0.652692 0
M  V30 108 H 10.9056 -1.07261 -1.74113 0
M  V30 109 H 9.0606 0.208575 -3.86838 0
M  V30 110 H 9.4746 -1.72011 -4.95492 0
M  V30 111 H 10.9486 -0.105615 -5.51899 0
M  V30 112 H 11.4256 1.03915 -4.2673 0
M  V30 113 H 12.0316 -0.63192 -4.20579 0
M  V30 114 N 10.3467 1.47872 -0.545128 0
M  V30 115 C 11.5947 2.02093 -0.016553 0
M  V30 116 C 11.9157 1.42305 1.3332 0
M  V30 117 O 11.1857 0.593853 1.86682 0
M  V30 118 H 9.7657 0.746993 -0.00313038 0
M  V30 119 H 12.4277 1.81414 -0.712397 0
M  V30 120 H 11.5237 3.11996 0.0805422 0
M  V30 121 N 11.8248 0.280983 1.55075 0
M  V30 122 C 13.2408 -0.0729964 1.59433 0
M  V30 123 C 13.4408 -1.5411 1.29817 0
M  V30 124 O 12.4968 -2.29086 1.06187 0
M  V30 125 C 13.8098 0.306921 2.9913 0
M  V30 126 C 15.3578 0.254023 3.11968 0
M  V30 127 C 15.8328 0.608467 4.5394 0
M  V30 128 N 17.3238 0.560241 4.59799 0
M  V30 129 C 18.0588 0.80722 5.6769 0
M  V30 130 N 17.5548 1.11912 6.83701 0
M  V30 131 N 19.3478 0.735623 5.57266 0
M  V30 132 H 11.4988 1.238 1.7259 0
M  V30 133 H 13.7618 0.500547 0.805082 0
M  V30 134 H 13.4678 1.32816 3.25657 0
M  V30 135 H 13.3418 -0.349363 3.75579 0
M  V30 136 H 15.7288 -0.75794 2.852 0
M  V30 137 H 15.8098 0.944649 2.37718 0
M  V30 138 H 15.4538 1.61814 4.81434 0
M  V30 139 H 15.3838 -0.104013 5.26497 0
M  V30 140 H 17.8748 0.329288 3.76463 0
M  V30 141 H 18.1878 1.29409 7.61888 0
M  V30 142 H 16.5328 1.15695 6.85303 0
M  V30 143 H 19.7238 0.491752 4.6551 0
M  V30 144 H 19.8968 0.931482 6.4127 0
M  V30 145 N 13.3029 -1.57598 0.00835791 0
M  V30 146 C 14.7189 -1.55764 -0.347822 0
M  V30 147 C 14.9189 -1.01186 -1.74252 0
M  V30 148 O 13.9749 -0.649371 -2.44007 0
M  V30 149 C 15.2879 -2.99927 -0.215407 0
M  V30 150 C 16.8359 -3.11656 -0.289725 0
M  V30 151 C 17.3109 -4.57621 -0.18634 0
M  V30 152 N 18.8019 -4.62557 -0.243978 0
M  V30 153 C 19.5369 -5.73094 -0.18745 0
M  V30 154 N 19.0329 -6.92753 -0.0810331 0
M  V30 155 N 20.8259 -5.61588 -0.239925 0
M  V30 156 H 12.9769 -1.91411 0.92062 0
M  V30 157 H 15.2399 -0.879562 0.353659 0
M  V30 158 H 14.9459 -3.43729 0.744512 0
M  V30 159 H 14.8199 -3.63865 -0.994097 0
M  V30 160 H 17.2069 -2.67779 -1.24009 0
M  V30 161 H 17.2879 -2.5048 0.51898 0
M  V30 162 H 16.9319 -5.02174 0.760519 0
M  V30 163 H 16.8619 -5.16752 -1.01364 0
M  V30 164 H 19.3529 -3.76481 -0.327217 0
M  V30 165 H 19.6659 -7.72787 -0.0440241 0
M  V30 166 H 18.0109 -6.94984 -0.0465419 0
M  V30 167 H 21.2019 -4.66996 -0.321317 0
M  V30 168 H 21.3749 -6.47714 -0.192407 0
M  V30 169 N 14.781 0.264519 -1.55364 0
M  V30 170 C 15.728 1.32717 -1.88825 0
M  V30 171 C 16.698 1.48675 -0.740605 0
M  V30 172 O 17.883 1.62945 -0.992657 0
M  V30 173 C 15.023 2.68089 -2.17307 0
M  V30 174 C 14.136 2.60284 -3.44785 0
M  V30 175 C 13.271 3.87892 -3.62924 0
M  V30 176 C 12.31 3.74631 -4.84064 0
M  V30 177 N 11.447 4.94092 -4.98816 0
M  V30 178 H 16.287 1.03481 -2.79456 0
M  V30 179 H 13.824 0.499757 -1.3835 0
M  V30 180 H 15.782 3.46864 -2.31821 0
M  V30 181 H 14.412 2.95509 -1.299 0
M  V30 182 H 13.464 1.73173 -3.38697 0
M  V30 183 H 14.776 2.46388 -4.33698 0
M  V30 184 H 13.93 4.75109 -3.77302 0
M  V30 185 H 12.669 4.04664 -2.7221 0
M  V30 186 H 11.674 2.85797 -4.69681 0
M  V30 187 H 12.899 3.5937 -5.76221 0
M  V30 188 H 10.845 5.11259 -4.11036 0
M  V30 189 H 10.762 4.8276 -5.81789 0
M  V30 190 H 12.03 5.82857 -5.17588 0
M  V30 191 N 16.2591 1.48442 0.529413 0
M  V30 192 C 17.1691 1.6569 1.66084 0
M  V30 193 C 18.1851 0.539432 1.65427 0
M  V30 194 O 19.3611 0.810572 1.84368 0
M  V30 195 C 16.4261 1.69315 3.02545 0
M  V30 196 C 15.4871 2.92694 3.14052 0
M  V30 197 C 14.7201 2.96137 4.44003 0
M  V30 198 O 14.9431 2.07973 5.31134 0
M  V30 199 O 13.8771 3.88312 4.59888 0
M  V30 200 H 17.7031 2.61483 1.54469 0
M  V30 201 H 15.2881 1.3185 0.702567 0
M  V30 202 H 17.1701 1.74217 3.83701 0
M  V30 203 H 15.8451 0.766966 3.14483 0
M  V30 204 H 14.7521 2.93324 2.32189 0
M  V30 205 H 16.0851 3.84699 3.0703 0
M  V30 206 N 17.7372 -0.778329 1.37039 0
M  V30 207 C 18.7002 -1.87301 1.32102 0
M  V30 208 C 19.7002 -1.59198 0.226405 0
M  V30 209 O 20.8902 -1.67403 0.481861 0
M  V30 210 C 18.0222 -3.24309 1.05055 0
M  V30 211 H 19.2152 -1.93093 2.29467 0
M  V30 212 H 16.7682 -0.977358 1.21973 0
M  V30 213 H 17.5032 -3.24196 0.0819373 0
M  V30 214 H 17.2882 -3.46098 1.84279 0
M  V30 215 H 18.7782 -4.04382 1.04234 0
M  V30 216 N 19.2153 -1.21501 -1.00376 0
M  V30 217 C 20.4613 -1.03452 -1.74429 0
M  V30 218 C 20.7943 0.430764 -1.89362 0
M  V30 219 O 20.0693 1.31962 -1.42886 0
M  V30 220 C 20.3523 -1.73375 -3.15615 0
M  V30 221 C 20.2053 -3.27431 -3.08397 0
M  V30 222 C 21.5243 -1.47732 -4.14564 0
M  V30 223 H 18.6433 -0.377226 -0.633143 0
M  V30 224 H 21.2853 -1.49693 -1.17013 0
M  V30 225 H 19.4353 -1.34064 -3.64636 0
M  V30 226 H 21.1073 -3.76119 -2.67081 0
M  V30 227 H 19.3503 -3.5767 -2.45468 0
M  V30 228 H 20.0213 -3.71524 -4.08258 0
M  V30 229 H 22.4973 -1.8186 -3.74254 0
M  V30 230 H 21.3733 -1.99169 -5.11491 0
M  V30 231 H 21.6343 -0.407589 -4.40217 0
M  V30 232 N 20.6934 1.19889 -1.02296 0
M  V30 233 C 21.6564 2.21116 -0.603351 0
M  V30 234 C 22.6564 1.5738 0.329884 0
M  V30 235 O 23.8464 1.73802 0.117702 0
M  V30 236 C 20.9784 3.40696 0.117992 0
M  V30 237 H 22.1714 2.59754 -1.49893 0
M  V30 238 H 19.7244 1.33463 -0.813468 0
M  V30 239 H 20.4594 3.07569 1.0282 0
M  V30 240 H 20.2444 3.88188 -0.552511 0
M  V30 241 H 21.7344 4.15692 0.398696 0
M  V30 242 N 22.1715 0.800033 1.35784 0
M  V30 243 C 23.5875 0.482977 1.52117 0
M  V30 244 C 23.7875 -0.996948 1.75109 0
M  V30 245 O 22.8435 -1.78216 1.78872 0
M  V30 246 C 24.1565 1.32264 2.70049 0
M  V30 247 C 25.7045 1.31742 2.83924 0
M  V30 248 C 26.1795 2.14106 4.04874 0
M  V30 249 N 27.6705 2.11607 4.12039 0
M  V30 250 C 28.4055 2.72099 5.04727 0
M  V30 251 N 27.9015 3.41492 6.02789 0
M  V30 252 N 29.6945 2.61776 4.97423 0
M  V30 253 H 21.8455 1.75856 1.19115 0
M  V30 254 H 24.1085 0.748122 0.582252 0
M  V30 255 H 23.8145 2.37261 2.59616 0
M  V30 256 H 23.6885 0.971303 3.6448 0
M  V30 257 H 26.0755 0.275333 2.93813 0
M  V30 258 H 26.1565 1.70859 1.9037 0
M  V30 259 H 25.8005 3.18351 3.95746 0
M  V30 260 H 25.7305 1.72353 4.97596 0
M  V30 261 H 28.2215 1.61112 3.41835 0
M  V30 262 H 28.5345 3.84953 6.70098 0
M  V30 263 H 26.8795 3.45596 6.02983 0
M  V30 264 H 30.0705 2.07157 4.19766 0
M  V30 265 H 30.2435 3.0921 5.69468 0
M  V30 266 N 23.6496 -1.47581 0.552962 0
M  V30 267 C 24.8956 -2.02782 0.0273648 0
M  V30 268 C 25.2286 -1.42687 -1.31734 0
M  V30 269 O 24.5036 -0.580897 -1.85623 0
M  V30 270 C 24.7866 -3.60031 -0.0702371 0
M  V30 271 C 24.6396 -4.30566 1.30126 0
M  V30 272 C 25.9586 -4.33028 -0.785771 0
M  V30 273 H 23.0776 -0.736912 0.0114185 0
M  V30 274 H 25.7196 -1.76056 0.714432 0
M  V30 275 H 23.8696 -3.82932 -0.655382 0
M  V30 276 H 25.5416 -4.19018 1.92929 0
M  V30 277 H 23.7846 -3.91086 1.87709 0
M  V30 278 H 24.4556 -5.39114 1.18573 0
M  V30 279 H 26.9316 -4.15095 -0.288982 0
M  V30 280 H 25.8076 -5.42695 -0.823013 0
M  V30 281 H 26.0686 -4.01945 -1.841 0
M  V30 282 N 25.1277 -0.289203 -1.54924 0
M  V30 283 C 26.3747 0.323519 -1.99899 0
M  V30 284 C 26.7027 1.54797 -1.17762 0
M  V30 285 O 25.9577 1.94237 -0.238835 0
M  V30 286 C 26.2567 0.736119 -3.49737 0
M  V30 287 C 25.9227 -0.385276 -4.49251 0
M  V30 288 C 24.5847 -0.693156 -4.76181 0
M  V30 289 C 26.9367 -1.14021 -5.08575 0
M  V30 290 C 24.2647 -1.7593 -5.59701 0
M  V30 291 C 26.6167 -2.19619 -5.93254 0
M  V30 292 C 25.2807 -2.51026 -6.185 0
M  V30 293 H 24.5507 0.118384 -0.731482 0
M  V30 294 H 27.1977 -0.405847 -1.8715 0
M  V30 295 H 25.5027 1.54539 -3.60035 0
M  V30 296 H 27.1997 1.22118 -3.81953 0
M  V30 297 H 23.7897 -0.135202 -4.28387 0
M  V30 298 H 27.9737 -0.915611 -4.87781 0
M  V30 299 H 23.2297 -2.0075 -5.77503 0
M  V30 300 H 27.4037 -2.78581 -6.38252 0
M  V30 301 H 25.0307 -3.33772 -6.83008 0
M  V30 302 N 26.6058 1.57591 -0.0167156 0
M  V30 303 C 27.5358 2.12496 0.967858 0
M  V30 304 C 28.5168 1.03807 1.34752 0
M  V30 305 O 29.7018 1.31577 1.42833 0
M  V30 306 C 26.8318 2.64194 2.25431 0
M  V30 307 C 25.7858 3.77559 2.01576 0
M  V30 308 C 25.1118 4.15636 3.36379 0
M  V30 309 C 26.4118 5.04151 1.36489 0
M  V30 310 H 28.1058 2.95013 0.510643 0
M  V30 311 H 25.6518 1.41915 0.244181 0
M  V30 312 H 27.6048 3.01236 2.94678 0
M  V30 313 H 26.3288 1.78821 2.73296 0
M  V30 314 H 24.9878 3.40937 1.34751 0
M  V30 315 H 24.6358 3.27263 3.81979 0
M  V30 316 H 24.3358 4.92022 3.21229 0
M  V30 317 H 25.8598 4.5525 4.06915 0
M  V30 318 H 27.2738 5.38857 1.95718 0
M  V30 319 H 25.6708 5.85453 1.31776 0
M  V30 320 H 26.7408 4.83733 0.336219 0
M  V30 321 N 28.0839 -0.256276 1.55502 0
M  V30 322 C 29.4999 -0.604325 1.47716 0
M  V30 323 C 29.6999 -1.88763 0.705039 0
M  V30 324 O 28.7559 -2.51445 0.230613 0
M  V30 325 C 30.0689 -0.715756 2.92057 0
M  V30 326 C 31.6169 -0.808706 3.02372 0
M  V30 327 C 32.0919 -0.951777 4.48001 0
M  V30 328 N 33.5829 -1.01688 4.519 0
M  V30 329 C 34.3179 -1.14668 5.61817 0
M  V30 330 N 33.8139 -1.24261 6.81565 0
M  V30 331 N 35.6069 -1.1791 5.49594 0
M  V30 332 H 27.7579 0.586291 2.04148 0
M  V30 333 H 30.0209 0.201015 0.926443 0
M  V30 334 H 29.7269 0.157027 3.51349 0
M  V30 335 H 29.6009 -1.59071 3.42018 0
M  V30 336 H 31.9879 -1.67195 2.43166 0
M  V30 337 H 32.0689 0.0912063 2.55637 0
M  V30 338 H 31.7129 -0.0931291 5.07815 0
M  V30 339 H 31.6429 -1.86659 4.92408 0
M  V30 340 H 34.1339 -0.954468 3.65648 0
M  V30 341 H 34.4469 -1.34046 7.61086 0
M  V30 342 H 32.7919 -1.21236 6.84344 0
M  V30 343 H 35.9829 -1.10057 4.54978 0
M  V30 344 H 36.1559 -1.27681 6.35296 0
M  V30 345 N 29.562 -1.4872 -0.521534 0
M  V30 346 C 30.973 -1.50607 -1.10337 0
M  V30 347 C 31.324 -0.280612 -1.94183 0
M  V30 348 O 30.449 0.611507 -2.0758 0
M  V30 349 C 31.044 -2.72903 -2.00772 0
M  V30 350 C 29.603 -2.77634 -2.54158 0
M  V30 351 C 28.75 -2.44241 -1.31307 0
M  V30 352 H 31.701 -1.55714 -0.306388 0
M  V30 353 H 31.722 -2.519 -2.85178 0
M  V30 354 H 31.234 -3.62077 -1.39721 0
M  V30 355 H 29.335 -1.92689 -3.18907 0
M  V30 356 H 29.448 -3.79283 -2.92714 0
M  V30 357 H 27.812 -1.95577 -1.63161 0
M  V30 358 H 28.595 -3.35666 -0.719943 0
M  V30 359 N 31.0401 0.771051 -1.3745 0
M  V30 360 C 32.2881 1.52661 -1.32435 0
M  V30 361 C 32.6091 1.9479 0.0905024 0
M  V30 362 O 31.8791 1.66348 1.03466 0
M  V30 363 H 30.4591 0.566218 -0.487244 0
M  V30 364 H 33.1211 0.917636 -1.71946 0
M  V30 365 H 32.2171 2.42568 -1.96385 0
M  V30 366 N 32.5182 1.22032 0.997298 0
M  V30 367 C 33.4662 0.983634 2.10778 0
M  V30 368 C 34.4602 -0.0717564 1.69248 0
M  V30 369 O 35.6662 0.080304 1.79821 0
M  V30 370 H 32.0412 0.300877 0.689186 0
M  V30 371 H 34.0122 1.92606 2.27916 0
M  V30 372 C 32.7612 0.57326 3.42942 0
M  V30 373 H 32.0842 1.37702 3.75338 0
M  V30 374 H 33.5242 0.447031 4.21637 0
M  V30 375 C 31.9832 -0.7167 3.29188 0
M  V30 376 O 32.5132 -1.77027 3.60589 0
M  V30 377 N 30.7192 -0.686167 2.82383 0
M  V30 378 H 30.2662 0.171507 2.57028 0
M  V30 379 H 30.2242 -1.54955 2.73562 0
M  V30 380 N 33.9963 -1.19345 1.0293 0
M  V30 381 C 35.2443 -1.88665 0.724574 0
M  V30 382 C 35.5653 -1.80036 -0.749144 0
M  V30 383 O 34.8353 -1.2111 -1.53978 0
M  V30 384 H 33.4153 -0.698406 0.265025 0
M  V30 385 H 36.0773 -1.44885 1.30362 0
M  V30 386 H 35.1733 -2.94987 1.01926 0
M  V30 387 N 35.4744 -0.807222 -1.35358 0
M  V30 388 C 36.4214 -0.216037 -2.29787 0
M  V30 389 C 37.3914 0.650278 -1.52842 0
M  V30 390 O 38.5764 0.595227 -1.81278 0
M  V30 391 C 35.7164 0.628893 -3.39321 0
M  V30 392 C 34.8294 -0.257927 -4.31229 0
M  V30 393 C 33.9644 0.595069 -5.27856 0
M  V30 394 C 33.0034 -0.292111 -6.11403 0
M  V30 395 N 32.1404 0.520895 -7.00165 0
M  V30 396 H 36.9804 -1.02671 -2.79755 0
M  V30 397 H 34.5174 -0.517839 -1.37684 0
M  V30 398 H 36.4754 1.13393 -4.01494 0
M  V30 399 H 35.1054 1.40482 -2.90628 0
M  V30 400 H 34.1574 -0.881076 -3.70056 0
M  V30 401 H 35.4694 -0.940759 -4.89848 0
M  V30 402 H 34.6234 1.16522 -5.95405 0
M  V30 403 H 33.3624 1.31146 -4.69736 0
M  V30 404 H 32.3674 -0.874525 -5.428 0
M  V30 405 H 33.5924 -1.00638 -6.71602 0
M  V30 406 H 31.5384 1.22125 -6.44532 0
M  V30 407 H 31.4554 -0.103877 -7.55929 0
M  V30 408 H 32.7234 1.0743 -7.72062 0
M  V30 409 N 36.9525 1.47285 -0.560781 0
M  V30 410 C 38.1985 2.02764 -0.0381184 0
M  V30 411 C 38.5315 1.43384 1.30976 0
M  V30 412 O 37.8065 0.590733 1.85312 0
M  V30 413 C 38.0895 3.60064 0.0511427 0
M  V30 414 C 37.9425 4.2987 -1.32408 0
M  V30 415 C 39.2615 4.33439 0.762795 0
M  V30 416 H 36.3805 0.736841 -0.0153264 0
M  V30 417 H 39.0225 1.75675 -0.723759 0
M  V30 418 H 37.1725 3.83274 0.635065 0
M  V30 419 H 38.8445 4.17989 -1.95148 0
M  V30 420 H 37.0875 3.90085 -1.8978 0
M  V30 421 H 37.7585 5.38478 -1.21431 0
M  V30 422 H 40.2345 4.15243 0.266965 0
M  V30 423 H 39.1105 5.43124 0.794221 0
M  V30 424 H 39.3715 4.02915 1.81966 0
M  V30 425 N 38.4306 0.297415 1.54768 0
M  V30 426 C 39.6586 -0.315623 2.04478 0
M  V30 427 C 40.0736 -1.47792 1.17486 0
M  V30 428 O 39.4306 -1.81404 0.19971 0
M  V30 429 C 39.4816 -0.7753 3.53088 0
M  V30 430 O 39.2026 0.340732 4.36773 0
M  V30 431 C 40.7036 -1.45386 4.18781 0
M  V30 432 H 37.9236 -0.0690887 0.667434 0
M  V30 433 H 40.4676 0.436003 1.99798 0
M  V30 434 H 38.6226 -1.47696 3.58141 0
M  V30 435 H 39.0366 -0.0165035 5.24497 0
M  V30 436 H 40.5106 -1.72669 5.24299 0
M  V30 437 H 40.9876 -2.39275 3.68299 0
M  V30 438 H 41.5936 -0.795475 4.17795 0
M  V30 439 N 39.9087 -1.5758 0.0250728 0
M  V30 440 C 41.1547 -1.91917 -0.655413 0
M  V30 441 C 41.4877 -0.901433 -1.72011 0
M  V30 442 O 40.7627 0.0764069 -1.9435 0
M  V30 443 C 41.0457 -3.36751 -1.27558 0
M  V30 444 C 40.8987 -4.49258 -0.220719 0
M  V30 445 C 42.2177 -3.81469 -2.19475 0
M  V30 446 H 39.3367 -0.697925 -0.23679 0
M  V30 447 H 41.9787 -1.89825 0.0815036 0
M  V30 448 H 40.1287 -3.38664 -1.90365 0
M  V30 449 H 41.8007 -4.59478 0.409601 0
M  V30 450 H 40.0437 -4.31415 0.454264 0
M  V30 451 H 40.7147 -5.47618 -0.694175 0
M  V30 452 H 43.1907 -3.81266 -1.66659 0
M  V30 453 H 42.0667 -4.83512 -2.59822 0
M  V30 454 H 42.3277 -3.16744 -3.08424 0
M  V30 455 N 41.3868 0.248026 -1.55636 0
M  V30 456 C 42.3348 1.32683 -1.91045 0
M  V30 457 C 43.3288 1.49883 -0.789401 0
M  V30 458 O 44.5348 1.51371 -0.974007 0
M  V30 459 H 40.9098 0.444272 -0.606734 0
M  V30 460 H 42.8808 1.00085 -2.81115 0
M  V30 461 C 41.6298 2.6755 -2.22064 0
M  V30 462 H 40.9528 2.55114 -3.07826 0
M  V30 463 H 42.3928 3.41912 -2.50743 0
M  V30 464 C 40.8518 3.20556 -1.0366 0
M  V30 465 O 41.3818 4.00695 -0.284016 0
M  V30 466 N 39.5878 2.78568 -0.82753 0
M  V30 467 H 39.1348 2.1351 -1.44123 0
M  V30 468 H 39.0928 3.14378 -0.0369803 0
M  V30 469 N 42.8649 1.48995 0.513639 0
M  V30 470 C 44.1129 1.57531 1.26604 0
M  V30 471 C 44.4339 0.258236 1.93283 0
M  V30 472 O 43.7039 -0.721502 1.8213 0
M  V30 473 H 42.2839 0.580387 0.470276 0
M  V30 474 H 44.9459 1.85552 0.596373 0
M  V30 475 H 44.0419 2.36486 2.03669 0
M  V30 476 N 44.343 -0.763751 1.37857 0
M  V30 477 C 45.275 -1.88664 1.30148 0
M  V30 478 C 46.288 -1.61365 0.215685 0
M  V30 479 O 47.477 -1.72134 0.472459 0
M  V30 480 C 44.577 -3.24075 0.991396 0
M  V30 481 C 43.75 -3.78958 2.18426 0
M  V30 482 C 42.809 -4.92862 1.8432 0
M  V30 483 O 41.835 -5.08027 2.56704 0
M  V30 484 N 43.037 -5.75071 0.792081 0
M  V30 485 H 45.802 -1.95791 2.26905 0
M  V30 486 H 43.363 -0.943226 1.31586 0
M  V30 487 H 45.355 -3.97804 0.743935 0
M  V30 488 H 43.925 -3.12399 0.112122 0
M  V30 489 H 43.145 -2.96913 2.59299 0
M  V30 490 H 44.433 -4.12357 2.98058 0
M  V30 491 H 43.831 -5.65375 0.191595 0
M  V30 492 H 42.388 -6.48991 0.60449 0
M  V30 493 N 45.8211 -1.22559 -0.990812 0
M  V30 494 C 47.0981 -0.959875 -1.70428 0
M  V30 495 C 47.4781 0.524455 -2.04481 0
M  V30 496 O 46.8261 1.49302 -1.72977 0
M  V30 497 C 47.0361 -1.85955 -2.95333 0
M  V30 498 C 48.3841 -2.11687 -3.68068 0
M  V30 499 O 49.4081 -1.8342 -3.05345 0
M  V30 500 O 48.2671 -2.59572 -4.80921 0
M  V30 501 H 45.3611 -0.361154 -0.743974 0
M  V30 502 H 47.9071 -1.33554 -1.04697 0
M  V30 503 H 46.6791 -2.86346 -2.66687 0
M  V30 504 H 46.3021 -1.4856 -3.68803 0
M  V30 505 N 47.2992 1.18797 -1.03562 0
M  V30 506 C 48.5462 1.8865 -0.736023 0
M  V30 507 C 48.8742 1.80041 0.735889 0
M  V30 508 O 48.1292 1.19179 1.55225 0
M  V30 509 C 48.4282 3.38692 -1.14117 0
M  V30 510 C 48.0942 3.67504 -2.6125 0
M  V30 511 C 46.7562 3.75078 -3.01447 0
M  V30 512 C 49.1082 3.80293 -3.56408 0
M  V30 513 C 46.4362 3.92915 -4.35701 0
M  V30 514 C 48.7882 3.99645 -4.90374 0
M  V30 515 C 47.4522 4.05453 -5.30249 0
M  V30 516 H 46.7222 0.690321 -0.26933 0
M  V30 517 H 49.3692 1.40641 -1.29971 0
M  V30 518 H 47.6742 3.88645 -0.496202 0
M  V30 519 H 49.3712 3.91072 -0.886789 0
M  V30 520 H 45.9612 3.62223 -2.29113 0
M  V30 521 H 50.1452 3.73779 -3.26501 0
M  V30 522 H 45.4012 3.95653 -4.66121 0
M  V30 523 H 49.5752 4.08482 -5.64017 0
M  V30 524 H 47.2022 4.19027 -6.34288 0
M  V30 525 N 48.7773 0.814389 1.34928 0
M  V30 526 C 49.7253 0.218424 2.31572 0
M  V30 527 C 50.7193 -0.636128 1.57002 0
M  V30 528 O 51.9253 -0.52842 1.72069 0
M  V30 529 H 48.3003 0.0518799 0.750208 0
M  V30 530 H 50.2713 1.04852 2.79372 0
M  V30 531 C 49.0203 -0.61207 3.4227 0
M  V30 532 H 48.3433 0.0361578 3.99784 0
M  V30 533 H 49.7833 -0.995317 4.12152 0
M  V30 534 C 48.2423 -1.78087 2.85984 0
M  V30 535 O 48.7723 -2.8787 2.80168 0
M  V30 536 N 46.9783 -1.59488 2.42924 0
M  V30 537 H 46.5253 -0.701874 2.47854 0
M  V30 538 H 46.4833 -2.37846 2.05613 0
M  V30 539 N 50.2554 -1.46986 0.568584 0
M  V30 540 C 51.1654 -2.33942 -0.17555 0
M  V30 541 C 52.1814 -1.48891 -0.90041 0
M  V30 542 O 53.3574 -1.81794 -0.86676 0
M  V30 543 C 50.4224 -3.25811 -1.18524 0
M  V30 544 C 49.4834 -4.26757 -0.466582 0
M  V30 545 C 48.7164 -5.14236 -1.42817 0
M  V30 546 O 48.9394 -5.04379 -2.66379 0
M  V30 547 O 47.8734 -5.94412 -0.946453 0
M  V30 548 H 51.6994 -2.98896 0.538036 0
M  V30 549 H 49.2844 -1.4573 0.329097 0
M  V30 550 H 51.1664 -3.82527 -1.76779 0
M  V30 551 H 49.8414 -2.63471 -1.88055 0
M  V30 552 H 48.7484 -3.73769 0.157451 0
M  V30 553 H 50.0814 -4.91843 0.187485 0
M  V30 554 N 51.7335 -0.305618 -1.54608 0
M  V30 555 C 52.9635 0.304333 -2.04346 0
M  V30 556 C 53.3715 1.47715 -1.18224 0
M  V30 557 O 52.7145 1.82591 -0.201577 0
M  V30 558 C 52.7765 0.819031 -3.50046 0
M  V30 559 C 52.4405 -0.22912 -4.56425 0
M  V30 560 C 53.4375 -1.05914 -5.08997 0
M  V30 561 C 51.1225 -0.372148 -5.0092 0
M  V30 562 C 53.1165 -2.01809 -6.04609 0
M  V30 563 C 50.8035 -1.33454 -5.9635 0
M  V30 564 C 51.8015 -2.15599 -6.48079 0
M  V30 565 O 51.4895 -3.10205 -7.41639 0
M  V30 566 H 51.2215 0.0693996 -0.672428 0
M  V30 567 H 53.7755 -0.444548 -2.00532 0
M  V30 568 H 52.0055 1.61852 -3.51199 0
M  V30 569 H 53.6945 1.34537 -3.82955 0
M  V30 570 H 54.4605 -0.959538 -4.75413 0
M  V30 571 H 50.3395 0.257304 -4.60281 0
M  V30 572 H 53.8835 -2.65966 -6.44909 0
M  V30 573 H 49.7805 -1.43485 -6.29351 0
M  V30 574 H 50.5485 -3.05237 -7.59455 0
M  V30 575 N 53.2116 1.57565 -0.0334293 0
M  V30 576 C 54.4586 1.91978 0.644272 0
M  V30 577 C 54.7866 0.910231 1.71887 0
M  V30 578 O 54.0416 -0.0801961 1.95536 0
M  V30 579 C 54.3406 3.33112 1.29504 0
M  V30 580 C 54.0066 4.49537 0.350388 0
M  V30 581 C 52.6686 4.81115 0.0903974 0
M  V30 582 C 55.0206 5.20347 -0.298032 0
M  V30 583 C 52.3486 5.8086 -0.825746 0
M  V30 584 C 54.7006 6.2107 -1.20226 0
M  V30 585 C 53.3646 6.51088 -1.4711 0
M  V30 586 H 52.6346 0.702496 0.235756 0
M  V30 587 H 55.2816 1.91259 -0.0961176 0
M  V30 588 H 53.5866 3.30113 2.11028 0
M  V30 589 H 55.2836 3.57011 1.82603 0
M  V30 590 H 51.8736 4.24883 0.563205 0
M  V30 591 H 56.0576 4.96178 -0.110234 0
M  V30 592 H 51.3136 6.02461 -1.04169 0
M  V30 593 H 55.4876 6.75057 -1.71086 0
M  V30 594 H 53.1146 7.28193 -2.18264 0
M  V30 595 N 54.6897 -0.239769 1.55765 0
M  V30 596 C 55.6217 -1.32001 1.87372 0
M  V30 597 C 56.6347 -1.43944 0.760522 0
M  V30 598 O 57.8237 -1.45167 1.0387 0
M  V30 599 C 54.9237 -2.69779 2.05115 0
M  V30 600 C 54.0967 -2.80014 3.36022 0
M  V30 601 C 53.1557 -3.98684 3.4342 0
M  V30 602 O 52.1817 -3.87877 4.16582 0
M  V30 603 N 53.3837 -5.12176 2.73232 0
M  V30 604 H 56.1487 -1.0522 2.80622 0
M  V30 605 H 53.7097 -0.429857 1.56089 0
M  V30 606 H 55.7017 -3.47517 2.07399 0
M  V30 607 H 54.2717 -2.89237 1.18577 0
M  V30 608 H 53.4917 -1.88896 3.45994 0
M  V30 609 H 54.7797 -2.83808 4.22292 0
M  V30 610 H 54.1777 -5.2385 2.13536 0
M  V30 611 H 52.7347 -5.88022 2.81199 0
M  V30 612 N 56.1678 -1.49265 -0.50573 0
M  V30 613 C 57.4158 -1.582 -1.25766 0
M  V30 614 C 57.7368 -0.268482 -1.93143 0
M  V30 615 O 57.0068 0.711833 -1.8251 0
M  V30 616 H 55.5868 -0.582873 -0.467191 0
M  V30 617 H 58.2488 -1.85865 -0.586525 0
M  V30 618 H 57.3448 -2.37563 -2.02412 0
M  V30 619 N 57.6459 0.756429 -1.3826 0
M  V30 620 C 58.5759 1.88374 -1.37976 0
M  V30 621 C 59.5569 1.68311 -0.246082 0
M  V30 622 O 60.7419 1.88944 -0.44874 0
M  V30 623 C 57.8719 3.25864 -1.20125 0
M  V30 624 C 56.8259 3.60523 -2.30666 0
M  V30 625 C 56.1519 4.9672 -1.97923 0
M  V30 626 C 57.4519 3.65692 -3.72916 0
M  V30 627 H 59.1459 1.88869 -2.32312 0
M  V30 628 H 56.6919 0.907272 -1.11824 0
M  V30 629 H 58.6449 4.0438 -1.18552 0
M  V30 630 H 57.3689 3.25841 -0.222498 0
M  V30 631 H 56.0279 2.84324 -2.3142 0
M  V30 632 H 55.6759 4.93253 -0.985393 0
M  V30 633 H 55.3759 5.20878 -2.71955 0
M  V30 634 H 56.8999 5.77618 -1.97964 0
M  V30 635 H 58.3139 4.34328 -3.74208 0
M  V30 636 H 56.7109 4.01358 -4.4613 0
M  V30 637 H 57.7809 2.65987 -4.05436 0
M  V30 638 N 59.124 1.23083 0.984299 0
M  V30 639 C 60.37 1.06214 1.72761 0
M  V30 640 C 60.703 -0.400584 1.90024 0
M  V30 641 O 59.978 -1.29672 1.44967 0
M  V30 642 C 60.261 1.78375 3.12817 0
M  V30 643 C 60.114 3.32296 3.03149 0
M  V30 644 C 61.433 1.54309 4.12161 0
M  V30 645 H 58.552 0.387251 0.627061 0
M  V30 646 H 61.194 1.51536 1.14616 0
M  V30 647 H 59.344 1.39848 3.62457 0
M  V30 648 H 61.016 3.8032 2.61064 0
M  V30 649 H 59.259 3.6153 2.39747 0
M  V30 650 H 59.93 3.77972 4.02295 0
M  V30 651 H 62.406 1.87791 3.71314 0
M  V30 652 H 61.282 2.07281 5.08258 0
M  V30 653 H 61.543 0.477572 4.39513 0
M  V30 654 N 60.6021 -1.18246 1.0419 0
M  V30 655 C 62.0181 -1.40269 0.761366 0
M  V30 656 C 62.2181 -1.90777 -0.648578 0
M  V30 657 O 61.2741 -2.0929 -1.41258 0
M  V30 658 C 62.5871 -2.40237 1.8085 0
M  V30 659 C 64.1351 -2.53961 1.82955 0
M  V30 660 C 64.6101 -3.57194 2.86664 0
M  V30 661 N 66.1011 -3.64702 2.85563 0
M  V30 662 C 66.8361 -4.44309 3.6246 0
M  V30 663 N 66.3321 -5.27514 4.49111 0
M  V30 664 N 68.1251 -4.39084 3.50944 0
M  V30 665 H 60.2761 -0.837882 1.95175 0
M  V30 666 H 62.5391 -0.430608 0.84456 0
M  V30 667 H 62.2451 -2.10176 2.81991 0
M  V30 668 H 62.1191 -3.39601 1.64168 0
M  V30 669 H 64.5061 -2.83338 0.824855 0
M  V30 670 H 64.5871 -1.54706 2.03715 0
M  V30 671 H 64.2311 -3.28558 3.87314 0
M  V30 672 H 64.1611 -4.5613 2.6316 0
M  V30 673 H 66.6521 -3.05289 2.22727 0
M  V30 674 H 66.9651 -5.85411 5.04493 0
M  V30 675 H 65.3101 -5.2693 4.53178 0
M  V30 676 H 68.5011 -3.7313 2.82651 0
M  V30 677 H 68.6741 -5.00883 4.11121 0
M  V30 678 N 62.0802 -0.821533 -1.34494 0
M  V30 679 C 63.0432 -0.247847 -2.27856 0
M  V30 680 C 64.0432 0.573453 -1.50227 0
M  V30 681 O 65.2332 0.389759 -1.69784 0
M  V30 682 C 62.3652 0.652698 -3.34593 0
M  V30 683 H 63.5582 -1.07146 -2.80107 0
M  V30 684 H 61.1112 -0.593291 -1.44602 0
M  V30 685 H 61.8462 1.49943 -2.87555 0
M  V30 686 H 61.6312 0.065292 -3.92046 0
M  V30 687 H 63.1212 1.04793 -4.04238 0
M  V30 688 N 63.5583 1.46682 -0.576371 0
M  V30 689 C 64.8043 2.02712 -0.0596221 0
M  V30 690 C 65.1373 1.44765 1.29448 0
M  V30 691 O 64.4123 0.610355 1.84675 0
M  V30 692 C 64.6953 3.60098 0.0129503 0
M  V30 693 C 64.5483 4.28441 -1.3696 0
M  V30 694 C 65.8673 4.34224 0.71678 0
M  V30 695 H 62.9863 0.736637 -0.0231407 0
M  V30 696 H 65.6283 1.74898 -0.742351 0
M  V30 697 H 63.7783 3.83926 0.594378 0
M  V30 698 H 65.4503 4.15896 -1.9957 0
M  V30 699 H 63.6933 3.8805 -1.93907 0
M  V30 700 H 64.3643 5.3716 -1.27135 0
M  V30 701 H 66.8403 4.15503 0.222908 0
M  V30 702 H 65.7163 5.43936 0.73657 0
M  V30 703 H 65.9773 4.04823 1.77682 0
M  V30 704 N 65.0364 0.313813 1.54444 0
M  V30 705 C 65.9994 -0.54379 2.22656 0
M  V30 706 C 66.9994 -1.05124 1.21678 0
M  V30 707 O 68.1894 -0.945225 1.46325 0
M  V30 708 C 65.3214 -1.75427 2.92298 0
M  V30 709 H 66.5144 0.0523599 2.99854 0
M  V30 710 H 64.0674 0.0647834 1.56166 0
M  V30 711 H 64.8024 -2.38991 2.19211 0
M  V30 712 H 64.5874 -1.39791 3.66334 0
M  V30 713 H 66.0774 -2.36325 3.44297 0
M  V30 714 N 66.5145 -1.57545 0.0417849 0
M  V30 715 C 67.4775 -2.09885 -0.92093 0
M  V30 716 C 68.4775 -1.01648 -1.24596 0
M  V30 717 O 69.6675 -1.27759 -1.1842 0
M  V30 718 C 66.7995 -2.57527 -2.23367 0
M  V30 719 H 67.9925 -2.96236 -0.467382 0
M  V30 720 H 65.5455 -1.5493 -0.206467 0
M  V30 721 H 66.2805 -1.74542 -2.73323 0
M  V30 722 H 66.0655 -3.36613 -2.01083 0
M  V30 723 H 67.5555 -2.98201 -2.92346 0
M  V30 724 N 67.9926 0.231505 -1.5589 0
M  V30 725 C 68.9226 1.29022 -1.94617 0
M  V30 726 C 69.9036 1.4941 -0.813067 0
M  V30 727 O 71.0886 1.6176 -1.07459 0
M  V30 728 C 68.2186 2.64199 -2.25424 0
M  V30 729 C 67.1726 2.58484 -3.41131 0
M  V30 730 C 66.4986 3.97599 -3.57518 0
M  V30 731 C 67.7986 2.1413 -4.76388 0
M  V30 732 H 69.4926 0.968563 -2.83301 0
M  V30 733 H 67.0386 0.464479 -1.36303 0
M  V30 734 H 68.9916 3.38413 -2.51107 0
M  V30 735 H 67.7156 2.98032 -1.33583 0
M  V30 736 H 66.3746 1.86727 -3.15481 0
M  V30 737 H 66.0226 4.28723 -2.6307 0
M  V30 738 H 65.7226 3.94659 -4.35337 0
M  V30 739 H 67.2466 4.7349 -3.85538 0
M  V30 740 H 68.6606 2.78083 -5.01341 0
M  V30 741 H 67.0576 2.2227 -5.57419 0
M  V30 742 H 68.1276 1.09331 -4.72414 0
M  V30 743 N 69.4707 1.49531 0.497807 0
M  V30 744 C 70.3807 1.69176 1.62532 0
M  V30 745 C 71.3967 0.5744 1.64246 0
M  V30 746 O 72.5727 0.849497 1.82608 0
M  V30 747 C 69.6377 1.75695 2.98885 0
M  V30 748 C 68.6987 2.9929 3.07773 0
M  V30 749 C 67.9317 3.05488 4.37622 0
M  V30 750 O 68.1547 2.19192 5.26603 0
M  V30 751 O 67.0887 3.9798 4.51548 0
M  V30 752 H 70.9147 2.647 1.48887 0
M  V30 753 H 68.4997 1.3331 0.674441 0
M  V30 754 H 70.3817 1.82317 3.79919 0
M  V30 755 H 69.0567 0.8335 3.12785 0
M  V30 756 H 67.9637 2.98183 2.25915 0
M  V30 757 H 69.2967 3.91125 2.98801 0
M  V30 758 N 70.9488 -0.749086 1.3866 0
M  V30 759 C 72.3598 -1.32664 1.31366 0
M  V30 760 C 72.7108 -1.96179 -0.028484 0
M  V30 761 O 71.8358 -1.9537 -0.93057 0
M  V30 762 C 72.4308 -2.41219 2.37905 0
M  V30 763 C 70.9898 -2.94684 2.34176 0
M  V30 764 C 70.1368 -1.68108 2.20533 0
M  V30 765 H 73.0878 -0.547628 1.48952 0
M  V30 766 H 73.1088 -3.21268 2.0388 0
M  V30 767 H 72.6208 -1.94962 3.35576 0
M  V30 768 H 70.7218 -3.45258 1.401 0
M  V30 769 H 70.8348 -3.48757 3.2849 0
M  V30 770 H 69.1988 -1.91907 1.67463 0
M  V30 771 H 69.9818 -1.23923 3.20153 0
M  V30 772 N 72.4269 -1.23603 -0.977757 0
M  V30 773 C 73.3569 -1.04401 -2.0886 0
M  V30 774 C 74.3379 0.0399052 -1.70053 0
M  V30 775 O 75.5229 -0.125246 -1.93796 0
M  V30 776 C 72.6529 -0.637269 -3.41403 0
M  V30 777 C 71.6069 -1.66883 -3.94124 0
M  V30 778 C 70.9329 -1.11745 -5.22893 0
M  V30 779 C 72.2329 -3.06247 -4.23096 0
M  V30 780 H 73.9269 -1.97316 -2.25182 0
M  V30 781 H 71.4729 -0.950096 -1.08209 0
M  V30 782 H 73.4259 -0.48998 -4.18542 0
M  V30 783 H 72.1499 0.327557 -3.24953 0
M  V30 784 H 70.8089 -1.80416 -3.19133 0
M  V30 785 H 70.4569 -0.143527 -5.02795 0
M  V30 786 H 70.1569 -1.80672 -5.59134 0
M  V30 787 H 71.6809 -0.982067 -6.02651 0
M  V30 788 H 73.0949 -2.96001 -4.90975 0
M  V30 789 H 71.4919 -3.72436 -4.70544 0
M  V30 790 H 72.5619 -3.55041 -3.30263 0
M  V30 791 N 73.905 1.17692 -1.04816 0
M  V30 792 C 75.321 1.39863 -0.768794 0
M  V30 793 C 75.521 1.91118 0.638451 0
M  V30 794 O 74.577 2.10036 1.40146 0
M  V30 795 C 75.89 2.39274 -1.82122 0
M  V30 796 C 77.438 2.52987 -1.843 0
M  V30 797 C 77.913 3.55669 -2.88555 0
M  V30 798 N 79.404 3.63183 -2.87493 0
M  V30 799 C 80.139 4.42381 -3.64811 0
M  V30 800 N 79.635 5.25125 -4.51903 0
M  V30 801 N 81.428 4.37217 -3.53267 0
M  V30 802 H 73.579 0.82752 -1.95617 0
M  V30 803 H 75.842 0.426123 -0.846831 0
M  V30 804 H 75.548 2.08678 -2.83102 0
M  V30 805 H 75.422 3.38725 -1.65967 0
M  V30 806 H 77.809 2.82896 -0.839869 0
M  V30 807 H 77.89 1.53623 -2.04532 0
M  V30 808 H 77.534 3.26499 -3.89051 0
M  V30 809 H 77.464 4.54728 -2.65575 0
M  V30 810 H 79.955 3.04103 -2.24343 0
M  V30 811 H 80.268 5.82728 -5.07591 0
M  V30 812 H 78.613 5.24519 -4.55966 0
M  V30 813 H 81.804 3.71626 -2.84625 0
M  V30 814 H 81.977 4.98696 -4.13771 0
M  V30 815 N 75.3831 0.828654 1.34056 0
M  V30 816 C 76.3461 0.259927 2.27721 0
M  V30 817 C 77.3461 -0.565478 1.50529 0
M  V30 818 O 78.5361 -0.38075 1.69988 0
M  V30 819 C 75.6681 -0.634944 3.34935 0
M  V30 820 H 76.8611 1.0863 2.79534 0
M  V30 821 H 74.4141 0.600951 1.44285 0
M  V30 822 H 75.1491 -1.48416 2.88346 0
M  V30 823 H 74.9341 -0.0444999 3.92075 0
M  V30 824 H 76.4241 -1.02648 4.04788 0
M  V30 825 N 76.8612 -1.46375 0.584142 0
M  V30 826 C 78.1072 -2.02678 0.0703716 0
M  V30 827 C 78.4402 -1.4545 -1.28678 0
M  V30 828 O 77.7152 -0.62014 -1.84349 0
M  V30 829 C 77.9982 -3.60099 0.00614674 0
M  V30 830 C 77.8512 -4.27709 1.3923 0
M  V30 831 C 79.1702 -4.34598 -0.693742 0
M  V30 832 H 76.2892 -0.736504 0.027047 0
M  V30 833 H 78.9312 -1.74501 0.751615 0
M  V30 834 H 77.0812 -3.84236 -0.574009 0
M  V30 835 H 78.7532 -4.14832 2.01773 0
M  V30 836 H 76.9962 -3.87016 1.95962 0
M  V30 837 H 77.6672 -5.36478 1.29982 0
M  V30 838 H 80.1432 -4.15615 -0.200869 0
M  V30 839 H 79.0192 -5.44318 -0.707714 0
M  V30 840 H 79.2802 -4.05759 -1.75533 0
M  V30 841 N 78.3393 -0.321999 -1.54275 0
M  V30 842 C 79.6163 0.335232 -1.92706 0
M  V30 843 C 79.9963 1.70006 -1.25145 0
M  V30 844 O 79.3443 2.25067 -0.394596 0
M  V30 845 C 79.5543 0.429008 -3.46353 0
M  V30 846 C 80.9023 0.690029 -4.18956 0
M  V30 847 O 81.9263 0.511992 -3.52501 0
M  V30 848 O 80.7853 1.03338 -5.36641 0
M  V30 849 H 77.8793 0.191143 -0.804608 0
M  V30 850 H 80.4253 -0.3716 -1.65581 0
M  V30 851 H 79.1973 -0.529611 -3.87699 0
M  V30 852 H 78.8203 1.18348 -3.79578 0
M  V30 853 N 79.8174 1.5752 -0.0501392 0
M  V30 854 C 80.7804 2.1037 0.909786 0
M  V30 855 C 81.7804 1.02308 1.24056 0
M  V30 856 O 82.9704 1.28385 1.17741 0
M  V30 857 C 80.1024 2.58708 2.21998 0
M  V30 858 H 81.2954 2.96479 0.451665 0
M  V30 859 H 78.8484 1.55038 0.198248 0
M  V30 860 H 79.5834 1.75989 2.72394 0
M  V30 861 H 79.3684 3.37675 1.99295 0
M  V30 862 H 80.8584 2.99747 2.9076 0
M  V30 863 N 81.2955 -0.223234 1.56011 0
M  V30 864 C 82.2255 -1.27988 1.95298 0
M  V30 865 C 83.2065 -1.48976 0.820979 0
M  V30 866 O 84.3915 -1.61188 1.08315 0
M  V30 867 C 81.5215 -2.63 2.26822 0
M  V30 868 C 80.4755 -2.56671 3.42497 0
M  V30 869 C 79.8015 -3.95697 3.59622 0
M  V30 870 C 81.1015 -2.11601 4.77517 0
M  V30 871 H 82.7955 -0.953525 2.8381 0
M  V30 872 H 80.3415 -0.457244 1.36548 0
M  V30 873 H 82.2945 -3.37077 2.52898 0
M  V30 874 H 81.0185 -2.9732 1.35161 0
M  V30 875 H 79.6775 -1.85051 3.16467 0
M  V30 876 H 79.3255 -4.27322 2.6534 0
M  V30 877 H 79.0255 -3.92345 4.37424 0
M  V30 878 H 80.5495 -4.71438 3.88044 0
M  V30 879 H 81.9635 -2.7542 5.02809 0
M  V30 880 H 80.3605 -2.19311 5.5859 0
M  V30 881 H 81.4305 -1.06824 4.72987 0
M  V30 882 N 82.7736 -1.49793 -0.48987 0
M  V30 883 C 84.0216 -1.59525 -1.24081 0
M  V30 884 C 84.3426 -0.288953 -1.92847 0
M  V30 885 O 83.6126 0.692436 -1.83254 0
M  V30 886 H 82.1926 -0.587796 -0.460983 0
M  V30 887 H 84.8546 -1.86477 -0.566778 0
M  V30 888 H 83.9506 -2.39696 -1.99881 0
M  V30 889 N 84.2517 0.741722 -1.39055 0
M  V30 890 C 85.2017 1.84661 -1.33732 0
M  V30 891 C 86.1857 1.59397 -0.219401 0
M  V30 892 O 87.3777 1.71015 -0.456375 0
M  V30 893 C 84.5067 3.22512 -1.17647 0
M  V30 894 C 83.5927 3.53628 -2.34112 0
M  V30 895 N 83.9837 3.55723 -3.59576 0
M  V30 896 C 82.2817 3.83956 -2.26923 0
M  V30 897 C 82.9827 3.84443 -4.36553 0
M  V30 898 N 81.9587 4.01877 -3.66055 0
M  V30 899 H 85.7607 1.84576 -2.28711 0
M  V30 900 H 83.2747 0.939647 -1.32455 0
M  V30 901 H 85.2717 4.01597 -1.11917 0
M  V30 902 H 83.9317 3.2384 -0.236124 0
M  V30 903 H 84.9427 3.37196 -3.93089 0
M  V30 904 H 81.6197 3.92929 -1.41113 0
M  V30 905 H 83.0097 3.92588 -5.45274 0
M  V30 906 N 85.7298 1.2412 0.971189 0
M  V30 907 C 86.9768 1.07881 1.71371 0
M  V30 908 C 87.3048 -0.382901 1.90694 0
M  V30 909 O 86.5598 -1.29945 1.46331 0
M  V30 910 C 86.8588 1.75983 3.11071 0
M  V30 911 C 86.5248 3.25909 3.11599 0
M  V30 912 C 85.1868 3.66813 3.11451 0
M  V30 913 C 87.5388 4.21771 3.062 0
M  V30 914 C 84.8668 5.02021 3.03631 0
M  V30 915 C 87.2188 5.56982 2.99923 0
M  V30 916 C 85.8828 5.97237 2.98102 0
M  V30 917 H 85.1528 0.394764 0.62709 0
M  V30 918 H 87.7998 1.54176 1.13587 0
M  V30 919 H 86.1048 1.22072 3.72298 0
M  V30 920 H 87.8018 1.60887 3.6731 0
M  V30 921 H 84.3918 2.93353 3.12477 0
M  V30 922 H 88.5758 3.91172 3.05447 0
M  V30 923 H 83.8318 5.32411 3.0058 0
M  V30 924 H 88.0058 6.30969 2.94704 0
M  V30 925 H 85.6328 7.01967 2.91798 0
M  V30 926 N 87.2079 -1.17134 1.05439 0
M  V30 927 C 88.4849 -1.83411 0.679699 0
M  V30 928 C 88.8649 -1.9368 -0.839726 0
M  V30 929 O 88.2129 -1.47325 -1.74664 0
M  V30 930 C 88.4229 -3.20918 1.37159 0
M  V30 931 C 89.7709 -3.96796 1.51123 0
M  V30 932 O 90.7949 -3.30406 1.3308 0
M  V30 933 O 89.6539 -5.15778 1.80651 0
M  V30 934 H 86.7479 -0.79154 0.239569 0
M  V30 935 H 89.2939 -1.24411 1.15413 0
M  V30 936 H 88.0659 -3.08428 2.40807 0
M  V30 937 H 87.6889 -3.87587 0.886674 0
M  V30 938 N 88.686 -0.835752 -1.33615 0
M  V30 939 C 89.649 -0.272 -2.2758 0
M  V30 940 C 90.649 0.557487 -1.50827 0
M  V30 941 O 91.839 0.37173 -1.70188 0
M  V30 942 C 88.971 0.617173 -3.35267 0
M  V30 943 H 90.164 -1.10111 -2.78954 0
M  V30 944 H 87.717 -0.608594 -1.43965 0
M  V30 945 H 88.452 1.46884 -2.89129 0
M  V30 946 H 88.237 0.0237066 -3.92093 0
M  V30 947 H 89.727 1.005 -4.05326 0
M  V30 948 N 90.1641 1.46063 -0.591896 0
M  V30 949 C 91.3941 2.06418 -0.0867676 0
M  V30 950 C 91.8021 1.43975 1.22751 0
M  V30 951 O 91.1451 0.542531 1.75506 0
M  V30 952 C 91.2071 3.59213 0.143725 0
M  V30 953 C 90.8711 4.439 -1.08635 0
M  V30 954 C 91.8681 4.79864 -2.00067 0
M  V30 955 C 89.5531 4.84896 -1.31077 0
M  V30 956 C 91.5471 5.55661 -3.12282 0
M  V30 957 C 89.2341 5.6045 -2.43596 0
M  V30 958 C 90.2321 5.95747 -3.34027 0
M  V30 959 O 89.9201 6.69772 -4.4459 0
M  V30 960 H 89.6521 0.673443 -0.0587447 0
M  V30 961 H 92.2061 1.88539 -0.814994 0
M  V30 962 H 90.4361 3.75433 0.926668 0
M  V30 963 H 92.1251 4.01463 0.5985 0
M  V30 964 H 92.8911 4.48763 -1.83947 0
M  V30 965 H 88.7701 4.56867 -0.61594 0
M  V30 966 H 92.3141 5.8313 -3.82891 0
M  V30 967 H 88.2111 5.90965 -2.59674 0
M  V30 968 H 88.9791 6.88207 -4.43073 0
M  V30 969 N 91.6422 0.330177 1.54103 0
M  V30 970 C 92.8912 -0.271336 1.99867 0
M  V30 971 C 93.2042 -1.52723 1.22209 0
M  V30 972 O 94.4102 -2.20515 1.58383 0
M  V30 973 C 92.8662 -0.534032 3.55916 0
M  V30 974 C 92.4742 0.705193 4.42415 0
M  V30 975 C 94.2182 -1.09514 4.1013 0
M  V30 976 C 92.1252 0.414035 5.89949 0
M  V30 977 H 91.0552 -0.105166 0.74663 0
M  V30 978 H 93.7062 0.443429 1.78062 0
M  V30 979 H 92.0882 -1.30915 3.73734 0
M  V30 980 H 93.2622 1.4804 4.36372 0
M  V30 981 H 91.5772 1.18698 3.99124 0
M  V30 982 H 94.1742 -1.3277 5.17954 0
M  V30 983 H 94.5172 -2.04656 3.62521 0
M  V30 984 H 95.0502 -0.381038 3.95971 0
M  V30 985 H 91.7892 1.33481 6.41766 0
M  V30 986 H 91.3092 -0.323336 5.98928 0
M  V30 987 H 92.9882 0.0263105 6.46995 0
M  V30 988 N 93.1203 -1.57491 0.0584922 0
M  V30 989 C 94.3483 -1.97296 -0.623037 0
M  V30 990 C 94.7633 -0.936338 -1.63946 0
M  V30 991 O 94.1203 0.0785981 -1.82331 0
M  V30 992 C 94.1713 -3.37183 -1.30345 0
M  V30 993 O 93.8923 -4.36872 -0.32773 0
M  V30 994 C 95.3933 -3.91788 -2.07406 0
M  V30 995 H 92.6133 -0.649153 -0.169826 0
M  V30 996 H 95.1573 -2.04106 0.12696 0
M  V30 997 H 93.3123 -3.31502 -2.00463 0
M  V30 998 H 93.7263 -5.18141 -0.814269 0
M  V30 999 H 95.2003 -4.91926 -2.50425 0
M  V30 1000 H 95.6773 -3.27609 -2.92521 0
M  V30 1001 H 96.2833 -4.00829 -1.42184 0
M  V30 1002 N 94.5984 0.214957 -1.56127 0
M  V30 1003 C 95.8444 0.939762 -1.79712 0
M  V30 1004 C 96.1774 1.83723 -0.629247 0
M  V30 1005 O 95.4524 1.90925 0.371197 0
M  V30 1006 C 95.7354 1.77306 -3.13424 0
M  V30 1007 C 95.5884 0.90164 -4.40671 0
M  V30 1008 C 96.9074 2.74956 -3.43638 0
M  V30 1009 H 94.0264 0.340214 -0.653776 0
M  V30 1010 H 96.6684 0.20824 -1.88855 0
M  V30 1011 H 94.8184 2.39673 -3.0576 0
M  V30 1012 H 96.4904 0.294206 -4.60361 0
M  V30 1013 H 94.7334 0.207368 -4.33304 0
M  V30 1014 H 95.4044 1.51923 -5.30682 0
M  V30 1015 H 97.8804 2.22724 -3.51473 0
M  V30 1016 H 96.7564 3.30358 -4.38355 0
M  V30 1017 H 97.0174 3.53023 -2.66134 0
M  V30 1018 N 96.0765 1.50051 0.48192 0
M  V30 1019 C 97.4925 1.37237 0.814756 0
M  V30 1020 C 97.6925 0.420109 1.97072 0
M  V30 1021 O 96.7485 -0.141246 2.52105 0
M  V30 1022 C 98.0615 2.78375 1.13701 0
M  V30 1023 C 99.6095 2.87213 1.2441 0
M  V30 1024 C 100.084 4.29161 1.59954 0
M  V30 1025 N 101.575 4.32061 1.66967 0
M  V30 1026 C 102.31 5.38879 1.95952 0
M  V30 1027 N 101.806 6.55918 2.23031 0
M  V30 1028 N 103.599 5.26312 1.97363 0
M  V30 1029 H 95.7505 2.10546 -0.28005 0
M  V30 1030 H 98.0135 0.945921 -0.0627454 0
M  V30 1031 H 97.7195 3.49845 0.360787 0
M  V30 1032 H 97.5935 3.14941 2.07586 0
M  V30 1033 H 99.9805 2.15969 2.01101 0
M  V30 1034 H 100.061 2.54204 0.285299 0
M  V30 1035 H 99.7055 5.00938 0.838067 0
M  V30 1036 H 99.6355 4.59648 2.56966 0
M  V30 1037 H 102.126 3.47661 1.48123 0
M  V30 1038 H 102.439 7.33139 2.44391 0
M  V30 1039 H 100.784 6.59112 2.20447 0
M  V30 1040 H 103.975 4.33876 1.75697 0
M  V30 1041 H 104.148 6.09649 2.19618 0
M  V30 1042 N 97.5546 -0.734337 1.39446 0
M  V30 1043 C 98.8026 -1.49096 1.36436 0
M  V30 1044 C 99.1236 -1.94961 -0.0388255 0
M  V30 1045 O 98.3936 -1.69033 -0.990191 0
M  V30 1046 H 96.9736 -0.5531 0.502085 0
M  V30 1047 H 99.6356 -0.871725 1.74319 0
M  V30 1048 H 98.7316 -2.37276 2.02747 0
M  V30 1049 N 99.0327 -1.24633 -0.964593 0
M  V30 1050 C 100.281 -1.08573 -1.70459 0
M  V30 1051 C 100.602 0.375655 -1.91347 0
M  V30 1052 O 99.8717 1.26779 -1.49345 0
M  V30 1053 H 98.4517 -0.398784 -0.631649 0
M  V30 1054 H 101.114 -1.56601 -1.16026 0
M  V30 1055 H 100.21 -1.58623 -2.68785 0
M  V30 1056 N 100.511 1.16574 -1.06058 0
M  V30 1057 C 101.759 1.86677 -0.77434 0
M  V30 1058 C 102.08 1.81959 0.701147 0
M  V30 1059 O 101.35 1.2515 1.50713 0
M  V30 1060 H 99.9298 0.691134 -0.283449 0
M  V30 1061 H 102.592 1.41378 -1.34158 0
M  V30 1062 H 101.688 2.92181 -1.09711 0
M  V30 1063 N 101.989 0.842826 1.3317 0
M  V30 1064 C 102.936 0.276885 2.29133 0
M  V30 1065 C 103.906 -0.609527 1.54512 0
M  V30 1066 O 105.091 -0.546955 1.82792 0
M  V30 1067 C 102.231 -0.538707 3.40869 0
M  V30 1068 C 101.344 0.372169 4.30394 0
M  V30 1069 C 100.479 -0.454908 5.29249 0
M  V30 1070 C 99.5179 0.45411 6.10413 0
M  V30 1071 N 98.6549 -0.335075 7.013 0
M  V30 1072 H 103.495 1.10052 2.76934 0
M  V30 1073 H 101.032 0.554161 1.36262 0
M  V30 1074 H 102.99 -1.02709 4.0436 0
M  V30 1075 H 101.62 -1.32727 2.9425 0
M  V30 1076 H 100.672 0.97888 3.6759 0
M  V30 1077 H 101.984 1.0703 4.87182 0
M  V30 1078 H 101.138 -1.00695 5.98285 0
M  V30 1079 H 99.8769 -1.18646 4.73048 0
M  V30 1080 H 98.8819 1.01813 5.40291 0
M  V30 1081 H 100.107 1.18409 6.68697 0
M  V30 1082 H 98.0529 -1.04994 6.47543 0
M  V30 1083 H 97.9699 0.304262 7.55387 0
M  V30 1084 H 99.2379 -0.869224 7.74638 0
M  V30 1085 N 103.467 -1.45747 0.599634 0
M  V30 1086 C 104.692 -2.07178 0.0960198 0
M  V30 1087 C 105.117 -1.44268 -1.207 0
M  V30 1088 O 104.475 -0.532503 -1.73303 0
M  V30 1089 C 104.523 -3.60579 -0.0385348 0
M  V30 1090 O 103.627 -3.97713 -1.0908 0
M  V30 1091 H 102.968 -0.660251 0.0704593 0
M  V30 1092 H 105.498 -1.87124 0.827385 0
M  V30 1093 H 105.508 -4.07298 -0.239304 0
M  V30 1094 H 104.183 -4.05756 0.912947 0
M  V30 1095 H 102.76 -3.62678 -0.867135 0
M  V30 1096 N 104.945 -0.338344 -1.53925 0
M  V30 1097 C 106.193 0.259245 -2.0043 0
M  V30 1098 C 106.514 1.51484 -1.22791 0
M  V30 1099 O 105.784 1.93037 -0.33368 0
M  V30 1100 H 104.364 0.0987845 -0.740439 0
M  V30 1101 H 107.026 -0.458302 -1.89435 0
M  V30 1102 H 106.122 0.505334 -3.07982 0
M  V30 1103 N 106.423 1.57458 -0.0668435 0
M  V30 1104 C 107.355 2.09413 0.931601 0
M  V30 1105 C 108.368 1.02522 1.26464 0
M  V30 1106 O 109.557 1.30049 1.22269 0
M  V30 1107 C 106.657 2.53537 2.24882 0
M  V30 1108 C 105.83 3.83944 2.09537 0
M  V30 1109 C 104.889 4.14214 3.2452 0
M  V30 1110 O 103.915 4.83891 2.9973 0
M  V30 1111 N 105.117 3.67367 4.49469 0
M  V30 1112 H 107.882 2.95699 0.488048 0
M  V30 1113 H 105.443 1.61462 0.119009 0
M  V30 1114 H 107.435 2.70853 3.00701 0
M  V30 1115 H 106.005 1.72415 2.60753 0
M  V30 1116 H 105.225 3.76057 1.18215 0
M  V30 1117 H 106.513 4.69312 1.96529 0
M  V30 1118 H 105.911 3.11068 4.72497 0
M  V30 1119 H 104.468 3.89891 5.2233 0
M  V30 1120 N 107.901 -0.206675 1.56239 0
M  V30 1121 C 109.15 -0.926964 1.79138 0
M  V30 1122 C 109.463 -1.84901 0.638043 0
M  V30 1123 O 110.669 -2.60906 0.751033 0
M  V30 1124 C 109.125 -1.6986 3.17294 0
M  V30 1125 C 108.733 -0.821956 4.40395 0
M  V30 1126 C 110.477 -2.40922 3.4951 0
M  V30 1127 C 108.384 -1.59179 5.69575 0
M  V30 1128 H 107.314 -0.349864 0.667915 0
M  V30 1129 H 109.965 -0.180487 1.8261 0
M  V30 1130 H 108.347 -2.48853 3.08039 0
M  V30 1131 H 109.521 -0.0715019 4.60745 0
M  V30 1132 H 107.836 -0.222741 4.15804 0
M  V30 1133 H 110.433 -2.99047 4.43255 0
M  V30 1134 H 110.776 -3.14542 2.72707 0
M  V30 1135 H 111.309 -1.68905 3.60161 0
M  V30 1136 H 108.048 -0.898589 6.49312 0
M  V30 1137 H 107.568 -2.31648 5.53262 0
M  V30 1138 H 109.247 -2.14862 6.10281 0
M  V30 1139 N 109.379 -1.50304 -0.473955 0
M  V30 1140 C 110.656 -1.51667 -1.23518 0
M  V30 1141 C 111.036 -0.259701 -2.09496 0
M  V30 1142 O 110.384 0.756986 -2.15597 0
M  V30 1143 C 110.594 -2.81082 -2.06868 0
M  V30 1144 C 111.942 -3.31631 -2.65153 0
M  V30 1145 O 112.966 -2.82384 -2.17113 0
M  V30 1146 O 111.825 -4.17471 -3.52675 0
M  V30 1147 H 108.919 -0.60822 -0.560355 0
M  V30 1148 H 111.465 -1.62592 -0.486011 0
M  V30 1149 H 110.237 -3.64041 -1.4349 0
M  V30 1150 H 109.86 -2.73146 -2.88924 0
M  V30 1151 N 110.857 0.726932 -1.39834 0
M  V30 1152 C 111.82 1.82269 -1.38962 0
M  V30 1153 C 112.82 1.58248 -0.285334 0
M  V30 1154 O 114.01 1.65499 -0.54366 0
M  V30 1155 C 111.142 3.20186 -1.17019 0
M  V30 1156 H 112.335 1.84443 -2.36476 0
M  V30 1157 H 109.888 0.931416 -1.25516 0
M  V30 1158 H 110.623 3.23669 -0.202204 0
M  V30 1159 H 110.408 3.3902 -1.96998 0
M  V30 1160 H 111.898 4.00235 -1.1917 0
M  V30 1161 N 112.336 1.25143 0.95797 0
M  V30 1162 C 113.585 1.0909 1.69654 0
M  V30 1163 C 113.898 -0.368548 1.92097 0
M  V30 1164 O 115.104 -0.649455 2.63618 0
M  V30 1165 C 113.56 1.90395 3.05414 0
M  V30 1166 C 113.168 3.4081 2.90779 0
M  V30 1167 C 114.912 1.82901 3.83076 0
M  V30 1168 C 112.819 4.14423 4.21909 0
M  V30 1169 H 111.749 0.404625 0.636235 0
M  V30 1170 H 114.4 1.4931 1.06672 0
M  V30 1171 H 112.782 1.42996 3.69281 0
M  V30 1172 H 113.956 3.95859 2.35865 0
M  V30 1173 H 112.271 3.49361 2.26575 0
M  V30 1174 H 114.868 2.35196 4.80195 0
M  V30 1175 H 115.211 0.796224 4.08615 0
M  V30 1176 H 115.744 2.28033 3.25954 0
M  V30 1177 H 112.483 5.18102 4.01561 0
M  V30 1178 H 112.003 3.64159 4.76601 0
M  V30 1179 H 113.682 4.21956 4.90471 0
M  V30 1180 N 113.814 -1.1601 1.06675 0
M  V30 1181 C 114.761 -2.20525 0.680967 0
M  V30 1182 C 115.731 -1.62904 -0.324283 0
M  V30 1183 O 116.916 -1.89615 -0.212294 0
M  V30 1184 C 114.056 -3.45013 0.0776551 0
M  V30 1185 C 113.169 -4.16863 1.13355 0
M  V30 1186 C 112.304 -5.2888 0.49597 0
M  V30 1187 C 111.343 -5.92537 1.53513 0
M  V30 1188 N 110.48 -6.96038 0.920631 0
M  V30 1189 H 115.32 -2.52876 1.57663 0
M  V30 1190 H 112.857 -1.24199 0.788223 0
M  V30 1191 H 114.815 -4.16193 -0.289704 0
M  V30 1192 H 113.445 -3.132 -0.781393 0
M  V30 1193 H 112.497 -3.44248 1.61857 0
M  V30 1194 H 113.809 -4.60294 1.92174 0
M  V30 1195 H 112.963 -6.06653 0.0758604 0
M  V30 1196 H 111.702 -4.86622 -0.324062 0
M  V30 1197 H 110.707 -5.13482 1.9651 0
M  V30 1198 H 111.932 -6.36873 2.35733 0
M  V30 1199 H 109.878 -6.55888 0.12138 0
M  V30 1200 H 109.795 -7.3786 1.64616 0
M  V30 1201 H 111.063 -7.77725 0.525795 0
M  V30 1202 N 115.292 -0.849877 -1.32721 0
M  V30 1203 C 116.222 -0.306308 -2.31482 0
M  V30 1204 C 117.203 0.591952 -1.59468 0
M  V30 1205 O 118.388 0.513199 -1.87296 0
M  V30 1206 C 115.518 0.510204 -3.43532 0
M  V30 1207 C 114.472 -0.293209 -4.26994 0
M  V30 1208 C 113.798 0.647743 -5.30762 0
M  V30 1209 C 115.098 -1.51634 -4.99804 0
M  V30 1210 H 116.792 -1.13153 -2.77195 0
M  V30 1211 H 114.338 -0.545553 -1.33266 0
M  V30 1212 H 116.291 0.900856 -4.11658 0
M  V30 1213 H 115.015 1.36874 -2.96535 0
M  V30 1214 H 113.674 -0.665555 -3.60508 0
M  V30 1215 H 113.322 1.50299 -4.8002 0
M  V30 1216 H 113.022 0.11422 -5.87489 0
M  V30 1217 H 114.546 1.03567 -6.01753 0
M  V30 1218 H 115.96 -1.19824 -5.60638 0
M  V30 1219 H 114.357 -1.98745 -5.66234 0
M  V30 1220 H 115.427 -2.28018 -4.27943 0
M  V30 1221 N 116.77 1.45427 -0.607355 0
M  V30 1222 C 118.018 2.01841 -0.102253 0
M  V30 1223 C 118.339 1.47832 1.27164 0
M  V30 1224 O 117.609 0.672497 1.83995 0
M  V30 1225 H 116.189 0.746188 -0.0348101 0
M  V30 1226 H 118.851 1.78229 -0.7887 0
M  V30 1227 H 117.947 3.12057 -0.0518585 0
M  V30 1228 N 118.248 0.346503 1.53744 0
M  V30 1229 C 119.497 -0.250122 2.00143 0
M  V30 1230 C 119.81 -1.51418 1.23822 0
M  V30 1231 O 121.016 -2.18823 1.60713 0
M  V30 1232 C 119.472 -0.496252 3.56462 0
M  V30 1233 C 119.08 0.752077 4.41642 0
M  V30 1234 C 120.824 -1.05157 4.11269 0
M  V30 1235 C 118.731 0.476583 5.89477 0
M  V30 1236 H 117.661 -0.0972409 0.747703 0
M  V30 1237 H 120.312 0.46229 1.77581 0
M  V30 1238 H 118.694 -1.26944 3.75102 0
M  V30 1239 H 119.868 1.5266 4.34778 0
M  V30 1240 H 118.183 1.22925 3.97842 0
M  V30 1241 H 120.78 -1.27269 5.19333 0
M  V30 1242 H 121.123 -2.00799 3.64672 0
M  V30 1243 H 121.656 -0.339019 3.96353 0
M  V30 1244 H 118.395 1.4028 6.40314 0
M  V30 1245 H 117.915 -0.259794 5.99237 0
M  V30 1246 H 119.594 0.0949315 6.4693 0
M  V30 1247 N 119.726 -1.57421 0.075193 0
M  V30 1248 C 120.689 -2.11791 -0.876203 0
M  V30 1249 C 121.689 -1.04268 -1.22412 0
M  V30 1250 O 122.879 -1.30242 -1.15684 0
M  V30 1251 C 120.011 -2.62207 -2.17854 0
M  V30 1252 H 121.204 -2.9716 -0.40444 0
M  V30 1253 H 118.757 -1.55333 -0.173557 0
M  V30 1254 H 119.492 -1.803 -2.6956 0
M  V30 1255 H 119.277 -3.40802 -1.93897 0
M  V30 1256 H 120.767 -3.04335 -2.85955 0
M  V30 1257 N 121.204 0.198386 -1.56346 0
M  V30 1258 C 122.62 0.549085 -1.49857 0
M  V30 1259 C 122.82 1.86016 -0.774611 0
M  V30 1260 O 121.876 2.50416 -0.323776 0
M  V30 1261 C 123.189 0.606868 -2.94512 0
M  V30 1262 C 124.737 0.695925 -3.05165 0
M  V30 1263 C 125.212 0.784848 -4.51225 0
M  V30 1264 N 126.703 0.848463 -4.55363 0
M  V30 1265 C 127.438 0.937378 -5.65686 0
M  V30 1266 N 126.934 0.9888 -6.85707 0
M  V30 1267 N 128.727 0.974312 -5.53592 0
M  V30 1268 H 120.878 -0.661655 -2.01831 0
M  V30 1269 H 123.141 -0.235261 -0.918344 0
M  V30 1270 H 122.847 -0.28732 -3.50524 0
M  V30 1271 H 122.721 1.46268 -3.47686 0
M  V30 1272 H 125.108 1.58055 -2.49204 0
M  V30 1273 H 125.189 -0.186022 -2.55123 0
M  V30 1274 H 124.833 -0.0954072 -5.0781 0
M  V30 1275 H 124.763 1.68255 -4.98997 0
M  V30 1276 H 127.254 0.818103 -3.68938 0
M  V30 1277 H 127.567 1.05707 -7.65536 0
M  V30 1278 H 125.912 0.957534 -6.88372 0
M  V30 1279 H 129.103 0.930954 -4.58749 0
M  V30 1280 H 129.276 1.04015 -6.39597 0
M  V30 1281 N 122.682 1.50554 0.465978 0
M  V30 1282 C 123.645 1.69233 1.54574 0
M  V30 1283 C 124.645 0.562901 1.50626 0
M  V30 1284 O 125.835 0.830016 1.53155 0
M  V30 1285 C 122.967 1.7223 2.94193 0
M  V30 1286 H 124.16 2.65571 1.39327 0
M  V30 1287 H 121.713 1.40111 0.692711 0
M  V30 1288 H 122.448 0.77603 3.14878 0
M  V30 1289 H 122.233 2.54285 2.98466 0
M  V30 1290 H 123.723 1.88618 3.72576 0
M  V30 1291 N 124.16 -0.719506 1.40217 0
M  V30 1292 C 125.09 -1.8465 1.42922 0
M  V30 1293 C 126.071 -1.67599 0.29062 0
M  V30 1294 O 127.256 -1.87688 0.498677 0
M  V30 1295 C 124.386 -3.22565 1.28722 0
M  V30 1296 C 123.34 -3.54281 2.40144 0
M  V30 1297 C 122.666 -4.91298 2.11023 0
M  V30 1298 C 123.966 -3.55676 3.82481 0
M  V30 1299 H 125.66 -1.82644 2.37237 0
M  V30 1300 H 123.206 -0.877305 1.1419 0
M  V30 1301 H 125.159 -4.01095 1.29232 0
M  V30 1302 H 123.883 -3.25137 0.308811 0
M  V30 1303 H 122.542 -2.78088 2.38877 0
M  V30 1304 H 122.19 -4.90468 1.11582 0
M  V30 1305 H 121.89 -5.13485 2.8567 0
M  V30 1306 H 123.414 -5.72166 2.13209 0
M  V30 1307 H 124.828 -4.24254 3.85592 0
M  V30 1308 H 123.225 -3.89388 4.56614 0
M  V30 1309 H 124.295 -2.55144 4.12346 0
M  V30 1310 N 125.638 -1.25649 -0.95132 0
M  V30 1311 C 126.884 -1.10757 -1.69884 0
M  V30 1312 C 127.217 0.350061 -1.91019 0
M  V30 1313 O 126.492 1.25783 -1.48354 0
M  V30 1314 C 126.775 -1.86606 -3.07978 0
M  V30 1315 C 126.628 -3.40217 -2.94232 0
M  V30 1316 C 127.947 -1.65182 -4.07925 0
M  V30 1317 H 125.066 -0.40374 -0.616574 0
M  V30 1318 H 127.708 -1.54521 -1.10558 0
M  V30 1319 H 125.858 -1.49409 -3.58621 0
M  V30 1320 H 127.53 -3.87108 -2.50889 0
M  V30 1321 H 125.773 -3.67759 -2.30078 0
M  V30 1322 H 126.444 -3.88505 -3.92133 0
M  V30 1323 H 128.92 -1.9757 -3.66204 0
M  V30 1324 H 127.796 -2.20683 -5.02583 0
M  V30 1325 H 128.057 -0.593933 -4.38092 0
M  V30 1326 N 127.117 1.15442 -1.07289 0
M  V30 1327 C 128.049 2.19773 -0.650585 0
M  V30 1328 C 129.062 1.60076 0.296572 0
M  V30 1329 O 130.251 1.78293 0.0859905 0
M  V30 1330 C 127.351 3.38838 0.0650398 0
M  V30 1331 C 126.524 4.2808 -0.898141 0
M  V30 1332 C 125.583 5.2574 -0.219926 0
M  V30 1333 O 124.609 5.62654 -0.860773 0
M  V30 1334 N 125.811 5.71205 1.03466 0
M  V30 1335 H 128.576 2.56622 -1.54808 0
M  V30 1336 H 126.137 1.30551 -0.957494 0
M  V30 1337 H 128.129 4.01222 0.529415 0
M  V30 1338 H 126.699 3.00409 0.864466 0
M  V30 1339 H 125.919 3.62804 -1.54165 0
M  V30 1340 H 127.207 4.84577 -1.5512 0
M  V30 1341 H 126.605 5.43325 1.57526 0
M  V30 1342 H 125.162 6.35633 1.44272 0
M  V30 1343 N 128.595 0.856903 1.32268 0
M  V30 1344 C 129.825 0.47475 2.01071 0
M  V30 1345 C 130.233 -0.933746 1.64553 0
M  V30 1346 O 129.576 -1.62114 0.863989 0
M  V30 1347 C 129.638 0.536746 3.55471 0
M  V30 1348 C 129.302 1.90453 4.15423 0
M  V30 1349 C 130.299 2.87029 4.33486 0
M  V30 1350 C 127.984 2.20229 4.51447 0
M  V30 1351 C 129.978 4.11532 4.86744 0
M  V30 1352 C 127.665 3.44984 5.0441 0
M  V30 1353 C 128.663 4.40452 5.22007 0
M  V30 1354 O 128.351 5.62998 5.73837 0
M  V30 1355 H 128.083 0.184778 0.650256 0
M  V30 1356 H 130.637 1.15615 1.69771 0
M  V30 1357 H 128.867 -0.20152 3.86175 0
M  V30 1358 H 130.556 0.169875 4.05544 0
M  V30 1359 H 131.322 2.6533 4.05986 0
M  V30 1360 H 127.201 1.46705 4.37034 0
M  V30 1361 H 130.745 4.86056 5.00395 0
M  V30 1362 H 126.642 3.66532 5.31342 0
M  V30 1363 H 127.41 5.64987 5.92226 0
M  V30 1364 N 130.073 -1.45103 0.615059 0
M  V30 1365 C 131.021 -2.32331 -0.111791 0
M  V30 1366 C 132.015 -1.46409 -0.852102 0
M  V30 1367 O 133.221 -1.62849 -0.766821 0
M  V30 1368 H 129.596 -0.749993 -0.0549072 0
M  V30 1369 H 131.567 -2.91407 0.642225 0
M  V30 1370 C 130.316 -3.3015 -1.09071 0
M  V30 1371 H 129.639 -3.96265 -0.530485 0
M  V30 1372 H 131.079 -3.93898 -1.56908 0
M  V30 1373 C 129.538 -2.57875 -2.168 0
M  V30 1374 O 130.068 -2.36567 -3.24652 0
M  V30 1375 N 128.274 -2.17884 -1.92289 0
M  V30 1376 H 127.821 -2.35413 -1.04587 0
M  V30 1377 H 127.779 -1.6985 -2.64572 0
M  V30 1378 N 131.551 -0.354651 -1.53558 0
M  V30 1379 C 132.962 0.126902 -1.86268 0
M  V30 1380 C 133.313 1.49075 -1.27558 0
M  V30 1381 O 132.438 2.08105 -0.5934 0
M  V30 1382 C 133.033 0.237046 -3.3797 0
M  V30 1383 C 131.592 0.662842 -3.70518 0
M  V30 1384 C 130.739 -0.196652 -2.76602 0
M  V30 1385 H 133.69 -0.573849 -1.47962 0
M  V30 1386 H 133.711 1.06259 -3.65362 0
M  V30 1387 H 133.223 -0.755725 -3.80671 0
M  V30 1388 H 131.324 1.66424 -3.33367 0
M  V30 1389 H 131.437 0.445034 -4.77029 0
M  V30 1390 H 129.801 0.332763 -2.52517 0
M  V30 1391 H 130.584 -1.18676 -3.22135 0
M  V30 1392 N 133.029 1.57378 -0.0835403 0
M  V30 1393 C 134.306 1.85363 0.624507 0
M  V30 1394 C 134.686 0.978239 1.87066 0
M  V30 1395 O 134.034 0.0475908 2.2845 0
M  V30 1396 C 134.244 3.35795 0.950947 0
M  V30 1397 C 135.592 4.03581 1.31939 0
M  V30 1398 O 136.616 3.40609 1.04232 0
M  V30 1399 O 135.475 5.14672 1.83779 0
M  V30 1400 H 132.569 0.766162 0.311329 0
M  V30 1401 H 135.115 1.69307 -0.115362 0
M  V30 1402 H 133.887 3.91244 0.0663899 0
M  V30 1403 H 133.51 3.57154 1.74719 0
M  V30 1404 N 134.507 -0.190092 1.56449 0
M  V30 1405 C 135.737 -0.92443 1.84764 0
M  V30 1406 C 136.145 -1.77146 0.664529 0
M  V30 1407 O 135.488 -1.79812 -0.375957 0
M  V30 1408 C 135.55 -1.86651 3.07248 0
M  V30 1409 C 135.214 -1.20094 4.40938 0
M  V30 1410 C 136.211 -0.575445 5.16706 0
M  V30 1411 C 133.896 -1.2033 4.87674 0
M  V30 1412 C 135.89 0.0388111 6.37388 0
M  V30 1413 C 133.577 -0.585214 6.08291 0
M  V30 1414 C 134.575 0.0347578 6.82991 0
M  V30 1415 O 134.263 0.643147 8.01323 0
M  V30 1416 H 133.995 -0.274974 0.617548 0
M  V30 1417 H 136.549 -0.200788 2.04416 0
M  V30 1418 H 134.779 -2.62998 2.83494 0
M  V30 1419 H 136.468 -2.46907 3.22167 0
M  V30 1420 H 137.234 -0.565728 4.81689 0
M  V30 1421 H 133.113 -1.67526 4.29484 0
M  V30 1422 H 136.657 0.523329 6.95634 0
M  V30 1423 H 132.554 -0.592451 6.42775 0
M  V30 1424 H 133.322 0.540545 8.16713 0
M  V30 1425 N 135.985 -1.50799 -0.457987 0
M  V30 1426 C 137.401 -1.38515 -0.792819 0
M  V30 1427 C 137.601 -0.451409 -1.96379 0
M  V30 1428 O 136.657 0.10112 -2.52297 0
M  V30 1429 C 137.97 -2.80149 -1.09258 0
M  V30 1430 C 139.518 -2.89156 -1.19825 0
M  V30 1431 C 139.993 -4.31651 -1.53106 0
M  V30 1432 N 141.484 -4.34662 -1.60072 0
M  V30 1433 C 142.219 -5.41928 -1.87354 0
M  V30 1434 N 141.715 -6.59384 -2.12568 0
M  V30 1435 N 143.508 -5.29385 -1.88965 0
M  V30 1436 H 135.659 -2.10073 0.313511 0
M  V30 1437 H 137.922 -0.944803 0.0777862 0
M  V30 1438 H 137.628 -3.50374 -0.305084 0
M  V30 1439 H 137.502 -3.18204 -2.02549 0
M  V30 1440 H 139.889 -2.19141 -1.97639 0
M  V30 1441 H 139.97 -2.54626 -0.244821 0
M  V30 1442 H 139.614 -5.02208 -0.758266 0
M  V30 1443 H 139.544 -4.63678 -2.49621 0
M  V30 1444 H 142.035 -3.49973 -1.42573 0
M  V30 1445 H 142.348 -7.36934 -2.32696 0
M  V30 1446 H 140.693 -6.62535 -2.09933 0
M  V30 1447 H 143.884 -4.36616 -1.68772 0
M  V30 1448 H 144.057 -6.13066 -2.09891 0
M  V30 1449 N 137.463 0.71206 -1.40597 0
M  V30 1450 C 138.426 1.80785 -1.40888 0
M  V30 1451 C 139.426 1.57937 -0.302103 0
M  V30 1452 O 140.616 1.64913 -0.561182 0
M  V30 1453 C 137.748 3.18927 -1.20409 0
M  V30 1454 H 138.941 1.81924 -2.38419 0
M  V30 1455 H 136.494 0.91805 -1.26497 0
M  V30 1456 H 137.229 3.23436 -0.236522 0
M  V30 1457 H 137.014 3.36911 -2.00582 0
M  V30 1458 H 138.504 3.98949 -1.23408 0
M  V30 1459 N 138.941 1.26152 0.944643 0
M  V30 1460 C 139.888 1.07408 2.04285 0
M  V30 1461 C 140.858 -0.0198413 1.66088 0
M  V30 1462 O 142.043 0.139264 1.90291 0
M  V30 1463 C 139.183 0.70945 3.37729 0
M  V30 1464 C 138.296 1.87926 3.88983 0
M  V30 1465 C 137.431 1.45807 5.10797 0
M  V30 1466 C 136.47 2.5964 5.54305 0
M  V30 1467 N 135.607 2.18226 6.67324 0
M  V30 1468 H 140.447 2.01389 2.1965 0
M  V30 1469 H 137.984 1.00275 1.07626 0
M  V30 1470 H 139.942 0.478948 4.14442 0
M  V30 1471 H 138.572 -0.193389 3.2222 0
M  V30 1472 H 137.624 2.22279 3.08701 0
M  V30 1473 H 138.936 2.73377 4.17213 0
M  V30 1474 H 138.09 1.18781 5.94959 0
M  V30 1475 H 136.829 0.574414 4.84305 0
M  V30 1476 H 135.834 2.87399 4.68702 0
M  V30 1477 H 137.059 3.48599 5.828 0
M  V30 1478 H 135.005 1.3229 6.42523 0
M  V30 1479 H 134.922 2.97221 6.95123 0
M  V30 1480 H 136.19 1.94403 7.54869 0
M  V30 1481 N 140.419 -1.14872 1.07899 0
M  V30 1482 C 141.349 -2.2193 0.725887 0
M  V30 1483 C 142.33 -1.67622 -0.28927 0
M  V30 1484 O 143.515 -1.93533 -0.160787 0
M  V30 1485 C 140.645 -3.47061 0.128856 0
M  V30 1486 C 139.599 -4.14363 1.07178 0
M  V30 1487 C 138.925 -5.33636 0.337229 0
M  V30 1488 C 140.225 -4.63492 2.40775 0
M  V30 1489 H 141.919 -2.51724 1.62097 0
M  V30 1490 H 139.465 -1.20991 0.780838 0
M  V30 1491 H 141.418 -4.21199 -0.130147 0
M  V30 1492 H 140.142 -3.16617 -0.80134 0
M  V30 1493 H 138.801 -3.42173 1.3158 0
M  V30 1494 H 138.449 -4.99449 -0.596606 0
M  V30 1495 H 138.149 -5.79609 0.965788 0
M  V30 1496 H 139.673 -6.10539 0.0861567 0
M  V30 1497 H 141.087 -5.2913 2.20669 0
M  V30 1498 H 139.484 -5.20148 2.99276 0
M  V30 1499 H 140.554 -3.78834 3.02676 0
M  V30 1500 N 141.898 -0.863906 -1.31812 0
M  V30 1501 C 142.845 -0.313303 -2.28664 0
M  V30 1502 C 143.815 0.584868 -1.55462 0
M  V30 1503 O 145 0.517805 -1.83639 0
M  V30 1504 C 142.14 0.48441 -3.41683 0
M  V30 1505 C 141.253 -0.440594 -4.29747 0
M  V30 1506 C 140.388 0.370652 -5.29905 0
M  V30 1507 C 139.427 -0.551164 -6.09613 0
M  V30 1508 N 138.564 0.223462 -7.01744 0
M  V30 1509 H 143.404 -1.14444 -2.75148 0
M  V30 1510 H 140.941 -0.575769 -1.35364 0
M  V30 1511 H 142.899 0.962627 -4.05943 0
M  V30 1512 H 141.529 1.28029 -2.96325 0
M  V30 1513 H 140.581 -1.03724 -3.65986 0
M  V30 1514 H 141.893 -1.14767 -4.85417 0
M  V30 1515 H 141.047 0.911638 -5.99812 0
M  V30 1516 H 139.786 1.11105 -4.74876 0
M  V30 1517 H 138.791 -1.10396 -5.38603 0
M  V30 1518 H 140.016 -1.29032 -6.66729 0
M  V30 1519 H 137.962 0.946787 -6.49132 0
M  V30 1520 H 137.879 -0.424399 -7.54808 0
M  V30 1521 H 139.147 0.745876 -7.75923 0
M  V30 1522 N 143.376 1.44774 -0.622745 0
M  V30 1523 C 144.787 1.85546 -0.207226 0
M  V30 1524 C 145.138 1.52093 1.23944 0
M  V30 1525 O 144.263 0.95492 1.94191 0
M  V30 1526 C 144.858 3.36781 -0.369313 0
M  V30 1527 C 143.417 3.76399 -0.00836847 0
M  V30 1528 C 142.564 2.68664 -0.686651 0
M  V30 1529 H 145.515 1.3536 -0.828454 0
M  V30 1530 H 145.536 3.78453 0.394162 0
M  V30 1531 H 145.048 3.61098 -1.42231 0
M  V30 1532 H 143.149 3.57698 1.04322 0
M  V30 1533 H 143.262 4.7732 -0.412584 0
M  V30 1534 H 141.626 2.54404 -0.122777 0
M  V30 1535 H 142.409 2.95815 -1.74208 0
M  V30 1536 N 144.854 0.36279 1.53368 0
M  V30 1537 C 145.784 -0.476976 2.28576 0
M  V30 1538 C 146.765 -1.08631 1.30894 0
M  V30 1539 O 147.95 -1.10409 1.59761 0
M  V30 1540 C 145.08 -1.61828 3.07293 0
M  V30 1541 C 144.034 -1.13633 4.1264 0
M  V30 1542 C 143.36 -2.36766 4.79423 0
M  V30 1543 C 144.66 -0.223061 5.21823 0
M  V30 1544 H 146.354 0.150474 2.99022 0
M  V30 1545 H 143.9 0.0738103 1.43811 0
M  V30 1546 H 145.853 -2.21237 3.58653 0
M  V30 1547 H 144.577 -2.27292 2.34533 0
M  V30 1548 H 143.236 -0.564945 3.62221 0
M  V30 1549 H 142.884 -3.0068 4.03238 0
M  V30 1550 H 142.584 -2.05192 5.50609 0
M  V30 1551 H 144.108 -2.96865 5.33576 0
M  V30 1552 H 145.522 -0.724545 5.68703 0
M  V30 1553 H 143.919 0.001678 6.001 0
M  V30 1554 H 144.989 0.735553 4.79289 0
M  V30 1555 N 146.332 -1.57332 0.0918853 0
M  V30 1556 C 147.58 -1.93853 -0.571446 0
M  V30 1557 C 147.901 -0.974212 -1.6892 0
M  V30 1558 O 147.171 -0.0257254 -1.95883 0
M  V30 1559 H 145.751 -0.715666 -0.214082 0
M  V30 1560 H 148.413 -1.94287 0.154464 0
M  V30 1561 H 147.509 -2.96191 -0.983729 0
M  V30 1562 N 147.81 0.181792 -1.56548 0
M  V30 1563 C 149.057 0.900097 -1.81396 0
M  V30 1564 C 149.385 1.82695 -0.667281 0
M  V30 1565 O 148.64 1.92614 0.346146 0
M  V30 1566 C 148.939 1.73728 -3.12335 0
M  V30 1567 C 148.605 0.960255 -4.40556 0
M  V30 1568 C 147.267 0.745766 -4.75386 0
M  V30 1569 C 149.619 0.414477 -5.19549 0
M  V30 1570 C 146.947 -0.0257694 -5.86694 0
M  V30 1571 C 149.299 -0.343916 -6.31664 0
M  V30 1572 C 147.963 -0.569301 -6.65068 0
M  V30 1573 H 147.233 0.329369 -0.663775 0
M  V30 1574 H 149.88 0.165647 -1.90782 0
M  V30 1575 H 148.185 2.54081 -2.98245 0
M  V30 1576 H 149.882 2.29591 -3.28769 0
M  V30 1577 H 146.472 1.13746 -4.13231 0
M  V30 1578 H 150.656 0.567554 -4.93044 0
M  V30 1579 H 145.912 -0.210233 -6.11038 0
M  V30 1580 H 150.086 -0.774133 -6.92084 0
M  V30 1581 H 147.713 -1.16903 -7.51158 0
M  V30 1582 N 149.288 1.51039 0.449983 0
M  V30 1583 C 150.218 1.74379 1.55288 0
M  V30 1584 C 151.199 0.593236 1.5942 0
M  V30 1585 O 152.384 0.834625 1.7535 0
M  V30 1586 C 149.514 1.85728 2.93466 0
M  V30 1587 C 148.468 3.01078 3.04197 0
M  V30 1588 C 147.794 2.97595 4.44231 0
M  V30 1589 C 149.094 4.41254 2.7945 0
M  V30 1590 H 150.788 2.66725 1.36008 0
M  V30 1591 H 148.334 1.2835 0.652864 0
M  V30 1592 H 150.287 2.0064 3.70569 0
M  V30 1593 H 149.011 0.900207 3.13949 0
M  V30 1594 H 147.67 2.85851 2.29531 0
M  V30 1595 H 147.318 1.99691 4.61663 0
M  V30 1596 H 147.018 3.75046 4.52343 0
M  V30 1597 H 148.542 3.14583 5.23326 0
M  V30 1598 H 149.956 4.56897 3.46292 0
M  V30 1599 H 148.353 5.20315 2.98985 0
M  V30 1600 H 149.423 4.52164 1.75144 0
M  V30 1601 N 150.766 -0.704594 1.40972 0
M  V30 1602 C 151.994 -1.49354 1.43182 0
M  V30 1603 C 152.409 -1.88768 0.0345508 0
M  V30 1604 O 151.766 -1.56184 -0.944081 0
M  V30 1605 C 151.817 -2.76187 2.33244 0
M  V30 1606 O 151.538 -2.38436 3.67532 0
M  V30 1607 C 153.039 -3.7 2.44162 0
M  V30 1608 H 150.259 -0.460559 0.487982 0
M  V30 1609 H 152.803 -0.868261 1.85153 0
M  V30 1610 H 150.958 -3.34974 1.94606 0
M  V30 1611 H 151.372 -3.20126 4.15475 0
M  V30 1612 H 152.846 -4.55803 3.11364 0
M  V30 1613 H 153.323 -4.13867 1.47006 0
M  V30 1614 H 153.929 -3.17121 2.83398 0
M  V30 1615 N 152.244 -1.26651 -0.937939 0
M  V30 1616 C 153.66 -1.03834 -1.21205 0
M  V30 1617 C 153.86 0.234502 -2.00131 0
M  V30 1618 O 152.916 0.942767 -2.3424 0
M  V30 1619 C 154.229 -2.27167 -1.97017 0
M  V30 1620 C 155.777 -2.32101 -2.09996 0
M  V30 1621 C 156.252 -3.55136 -2.8921 0
M  V30 1622 N 157.743 -3.55632 -2.96783 0
M  V30 1623 C 158.478 -4.475 -3.58512 0
M  V30 1624 N 157.974 -5.4966 -4.21717 0
M  V30 1625 N 159.767 -4.35145 -3.55816 0
M  V30 1626 H 151.918 -2.08398 -0.410391 0
M  V30 1627 H 154.181 -0.916031 -0.244114 0
M  V30 1628 H 153.887 -3.19765 -1.46434 0
M  V30 1629 H 153.761 -2.31672 -2.97671 0
M  V30 1630 H 156.148 -1.40015 -2.59769 0
M  V30 1631 H 156.229 -2.31605 -1.08594 0
M  V30 1632 H 155.873 -4.47553 -2.40123 0
M  V30 1633 H 155.803 -3.5288 -3.90875 0
M  V30 1634 H 158.294 -2.81743 -2.51852 0
M  V30 1635 H 158.607 -6.15943 -4.66727 0
M  V30 1636 H 156.952 -5.53514 -4.20294 0
M  V30 1637 H 160.143 -3.5455 -3.05634 0
M  V30 1638 H 160.316 -5.06934 -4.03636 0
M  V30 1639 N 153.722 1.14298 -1.08507 0
M  V30 1640 C 154.999 1.81544 -0.728088 0
M  V30 1641 C 155.379 1.95838 0.78808 0
M  V30 1642 O 154.727 1.51904 1.70697 0
M  V30 1643 C 154.937 3.17169 -1.45619 0
M  V30 1644 C 156.285 3.9265 -1.61591 0
M  V30 1645 O 157.309 3.26762 -1.41793 0
M  V30 1646 O 156.168 5.10807 -1.94263 0
M  V30 1647 H 153.262 0.78491 -0.260471 0
M  V30 1648 H 155.808 1.21307 -1.18671 0
M  V30 1649 H 154.58 3.01934 -2.489 0
M  V30 1650 H 154.203 3.851 -0.989124 0
M  V30 1651 N 155.201 0.870884 1.31352 0
M  V30 1652 C 156.164 0.332243 2.26779 0
M  V30 1653 C 157.164 -0.517302 1.52252 0
M  V30 1654 O 158.354 -0.326477 1.71113 0
M  V30 1655 C 155.486 -0.528066 3.36785 0
M  V30 1656 H 156.679 1.17469 2.75937 0
M  V30 1657 H 154.232 0.64655 1.423 0
M  V30 1658 H 154.967 -1.39167 2.92922 0
M  V30 1659 H 154.752 0.0802582 3.92018 0
M  V30 1660 H 156.242 -0.897179 4.07849 0
M  V30 1661 N 156.679 -1.44442 0.630414 0
M  V30 1662 C 158.095 -1.56832 0.295973 0
M  V30 1663 C 158.295 -1.61806 -1.20088 0
M  V30 1664 O 157.351 -1.5607 -1.9849 0
M  V30 1665 C 158.664 -2.84031 0.987264 0
M  V30 1666 C 160.212 -2.97742 0.96534 0
M  V30 1667 C 160.687 -4.27743 1.63708 0
M  V30 1668 N 162.178 -4.34555 1.60364 0
M  V30 1669 C 162.913 -5.33862 2.09234 0
M  V30 1670 N 162.409 -6.39578 2.66292 0
M  V30 1671 N 164.202 -5.25366 1.99867 0
M  V30 1672 H 156.353 -1.39457 1.60205 0
M  V30 1673 H 158.616 -0.668237 0.672431 0
M  V30 1674 H 158.322 -2.86338 2.04215 0
M  V30 1675 H 158.196 -3.73534 0.524588 0
M  V30 1676 H 160.583 -2.94989 -0.0810639 0
M  V30 1677 H 160.664 -2.09589 1.4665 0
M  V30 1678 H 160.308 -4.31255 2.68293 0
M  V30 1679 H 160.238 -5.14752 1.11076 0
M  V30 1680 H 162.729 -3.58772 1.18705 0
M  V30 1681 H 163.042 -7.11637 3.01317 0
M  V30 1682 H 161.387 -6.40265 2.70343 0
M  V30 1683 H 164.578 -4.41688 1.55013 0
M  V30 1684 H 164.751 -6.02606 2.38265 0
M  V30 1685 N 158.157 -0.370918 -1.53173 0
M  V30 1686 C 159.403 0.217423 -2.01631 0
M  V30 1687 C 159.736 1.47983 -1.25756 0
M  V30 1688 O 159.011 1.91274 -0.352764 0
M  V30 1689 C 159.294 0.503982 -3.56556 0
M  V30 1690 C 159.147 -0.77243 -4.43118 0
M  V30 1691 C 160.466 1.30234 -4.20389 0
M  V30 1692 H 157.585 0.0775486 -0.732909 0
M  V30 1693 H 160.227 -0.496863 -1.83388 0
M  V30 1694 H 158.377 1.11248 -3.72231 0
M  V30 1695 H 160.049 -1.4098 -4.39229 0
M  V30 1696 H 158.292 -1.39167 -4.10871 0
M  V30 1697 H 158.963 -0.526815 -5.4948 0
M  V30 1698 H 161.439 0.787546 -4.08579 0
M  V30 1699 H 160.315 1.47158 -5.28806 0
M  V30 1700 H 160.576 2.31237 -3.76805 0
M  V30 1701 N 159.635 1.57281 -0.100228 0
M  V30 1702 C 160.881 1.94826 0.563101 0
M  V30 1703 C 161.214 0.982475 1.67514 0
M  V30 1704 O 160.489 0.0164069 1.94493 0
M  V30 1705 C 160.772 3.42453 1.11346 0
M  V30 1706 C 160.625 4.498 0.00612081 0
M  V30 1707 C 161.944 3.91506 2.01024 0
M  V30 1708 H 159.063 0.708428 0.203221 0
M  V30 1709 H 161.705 1.8922 -0.171979 0
M  V30 1710 H 159.855 3.47361 1.7399 0
M  V30 1711 H 161.527 4.57 -0.628357 0
M  V30 1712 H 159.77 4.28756 -0.659581 0
M  V30 1713 H 160.441 5.50306 0.432109 0
M  V30 1714 H 162.917 3.88784 1.48278 0
M  V30 1715 H 161.793 4.95358 2.36457 0
M  V30 1716 H 162.054 3.31099 2.92961 0
M  V30 1717 N 161.113 -0.173488 1.56642 0
M  V30 1718 C 162.023 -1.23482 1.99473 0
M  V30 1719 C 163.039 -1.48567 0.905752 0
M  V30 1720 O 164.215 -1.60758 1.21321 0
M  V30 1721 C 161.28 -2.55444 2.34413 0
M  V30 1722 C 160.341 -2.38241 3.57127 0
M  V30 1723 C 159.574 -3.63909 3.90392 0
M  V30 1724 O 159.797 -4.68996 3.24653 0
M  V30 1725 O 158.731 -3.58149 4.83749 0
M  V30 1726 H 162.557 -0.901279 2.90018 0
M  V30 1727 H 160.142 -0.380185 1.44482 0
M  V30 1728 H 162.024 -3.33292 2.57865 0
M  V30 1729 H 160.699 -2.88382 1.4703 0
M  V30 1730 H 159.606 -1.58431 3.38896 0
M  V30 1731 H 160.939 -2.10228 4.45045 0
M  V30 1732 N 162.591 -1.51276 -0.441967 0
M  V30 1733 C 164.007 -1.39349 -0.778083 0
M  V30 1734 C 164.207 -0.472212 -1.95889 0
M  V30 1735 O 163.263 0.0743551 -2.5239 0
M  V30 1736 C 164.576 -2.81292 -1.0628 0
M  V30 1737 C 166.124 -2.9041 -1.16751 0
M  V30 1738 C 166.599 -4.33251 -1.48519 0
M  V30 1739 N 168.09 -4.36336 -1.55453 0
M  V30 1740 C 168.825 -5.43885 -1.81596 0
M  V30 1741 N 168.321 -6.61601 -2.05562 0
M  V30 1742 N 170.114 -5.3136 -1.8334 0
M  V30 1743 H 162.265 -2.09729 0.335774 0
M  V30 1744 H 164.528 -0.943925 0.0878028 0
M  V30 1745 H 164.234 -3.50678 -0.267905 0
M  V30 1746 H 164.108 -3.20334 -1.99163 0
M  V30 1747 H 166.495 -2.21225 -1.95304 0
M  V30 1748 H 166.576 -2.54871 -0.217801 0
M  V30 1749 H 166.22 -5.02984 -0.704958 0
M  V30 1750 H 166.15 -4.66299 -2.44689 0
M  V30 1751 H 168.641 -3.51466 -1.38853 0
M  V30 1752 H 168.954 -7.39361 -2.24867 0
M  V30 1753 H 167.299 -6.64725 -2.02894 0
M  V30 1754 H 170.49 -4.38382 -1.64132 0
M  V30 1755 H 170.663 -6.15258 -2.03377 0
M  V30 1756 N 164.069 0.697108 -1.41344 0
M  V30 1757 C 165.016 1.81106 -1.43071 0
M  V30 1758 C 165.986 1.63632 -0.285275 0
M  V30 1759 O 167.171 1.84504 -0.486091 0
M  V30 1760 C 164.311 3.18975 -1.31715 0
M  V30 1761 C 163.424 3.47892 -2.56115 0
M  V30 1762 C 162.559 4.75367 -2.37064 0
M  V30 1763 C 161.598 4.97247 -3.56948 0
M  V30 1764 N 160.735 6.15947 -3.36977 0
M  V30 1765 H 165.575 1.78965 -2.38276 0
M  V30 1766 H 163.112 0.873975 -1.18322 0
M  V30 1767 H 165.07 3.98615 -1.23133 0
M  V30 1768 H 163.7 3.20297 -0.401183 0
M  V30 1769 H 162.752 2.62669 -2.75153 0
M  V30 1770 H 164.064 3.59962 -3.45295 0
M  V30 1771 H 163.218 5.63059 -2.25941 0
M  V30 1772 H 161.957 4.65541 -1.45338 0
M  V30 1773 H 160.962 4.08004 -3.68527 0
M  V30 1774 H 162.187 5.08934 -4.49626 0
M  V30 1775 H 160.133 6.07336 -2.47949 0
M  V30 1776 H 160.05 6.28777 -4.19732 0
M  V30 1777 H 161.318 7.06377 -3.29623 0
M  V30 1778 N 165.547 1.27147 0.931209 0
M  V30 1779 C 166.494 1.09568 2.03134 0
M  V30 1780 C 167.464 -0.00222433 1.661 0
M  V30 1781 O 168.649 0.159439 1.90133 0
M  V30 1782 C 165.789 0.745231 3.36957 0
M  V30 1783 C 164.902 1.92041 3.86968 0
M  V30 1784 C 164.037 1.51216 5.09222 0
M  V30 1785 C 163.076 2.65504 5.5152 0
M  V30 1786 N 162.213 2.25291 6.64972 0
M  V30 1787 H 167.053 2.03708 2.17502 0
M  V30 1788 H 164.59 1.01411 1.06556 0
M  V30 1789 H 166.548 0.522878 4.1391 0
M  V30 1790 H 165.178 -0.159202 3.22407 0
M  V30 1791 H 164.23 2.25541 3.06326 0
M  V30 1792 H 165.542 2.77787 4.1429 0
M  V30 1793 H 164.696 1.25084 5.93666 0
M  V30 1794 H 163.435 0.625749 4.83669 0
M  V30 1795 H 162.44 2.92354 4.65628 0
M  V30 1796 H 163.665 3.54761 5.7907 0
M  V30 1797 H 161.611 1.39098 6.41083 0
M  V30 1798 H 161.528 3.04577 6.91931 0
M  V30 1799 H 162.796 2.02398 7.52765 0
M  V30 1800 N 167.025 -1.13721 1.09112 0
M  V30 1801 C 168.255 -1.88499 0.845671 0
M  V30 1802 C 168.663 -1.79218 -0.606432 0
M  V30 1803 O 168.006 -1.1544 -1.42896 0
M  V30 1804 C 168.068 -3.38954 1.19793 0
M  V30 1805 C 167.732 -3.72018 2.65428 0
M  V30 1806 C 168.729 -3.7153 3.63677 0
M  V30 1807 C 166.414 -4.01775 3.01467 0
M  V30 1808 C 168.408 -4.00336 4.95994 0
M  V30 1809 C 166.095 -4.30243 4.33975 0
M  V30 1810 C 167.093 -4.29508 5.31048 0
M  V30 1811 O 166.781 -4.5728 6.61173 0
M  V30 1812 H 166.513 -0.603702 0.304171 0
M  V30 1813 H 169.067 -1.44903 1.45576 0
M  V30 1814 H 167.297 -3.83039 0.530871 0
M  V30 1815 H 168.986 -3.95052 0.932146 0
M  V30 1816 H 169.752 -3.4862 3.37179 0
M  V30 1817 H 165.631 -4.01496 2.26544 0
M  V30 1818 H 169.175 -3.99678 5.71755 0
M  V30 1819 H 165.072 -4.52625 4.60219 0
M  V30 1820 H 165.84 -4.74964 6.66597 0
M  V30 1821 N 168.503 -0.877838 -1.30888 0
M  V30 1822 C 169.751 -0.491723 -1.96027 0
M  V30 1823 C 170.072 0.960827 -1.69685 0
M  V30 1824 O 169.342 1.67462 -1.01654 0
M  V30 1825 H 167.922 -0.17885 -0.725273 0
M  V30 1826 H 170.584 -1.11935 -1.59551 0
M  V30 1827 H 169.68 -0.656016 -3.05128 0
M  V30 1828 N 169.982 1.44106 -0.638065 0
M  V30 1829 C 170.929 2.30715 0.062701 0
M  V30 1830 C 171.899 1.43882 0.829883 0
M  V30 1831 O 173.084 1.72775 0.809532 0
M  V30 1832 C 170.224 3.29258 1.03358 0
M  V30 1833 C 169.337 4.31192 0.26409 0
M  V30 1834 C 168.472 5.16825 1.22741 0
M  V30 1835 C 167.511 6.10462 0.447475 0
M  V30 1836 N 166.648 6.8877 1.36161 0
M  V30 1837 H 171.488 2.90096 -0.681781 0
M  V30 1838 H 169.025 1.42925 -0.347988 0
M  V30 1839 H 170.983 3.84886 1.60992 0
M  V30 1840 H 169.613 2.71562 1.74511 0
M  V30 1841 H 168.665 3.77981 -0.428295 0
M  V30 1842 H 169.977 4.97619 -0.343052 0
M  V30 1843 H 169.131 5.77004 1.87487 0
M  V30 1844 H 167.87 4.50488 1.86847 0
M  V30 1845 H 166.875 5.49386 -0.213433 0
M  V30 1846 H 168.1 6.78837 -0.188968 0
M  V30 1847 H 166.046 6.25096 1.98975 0
M  V30 1848 H 165.963 7.51663 0.808656 0
M  V30 1849 H 167.231 7.53467 1.99769 0
M  V30 1850 N 171.46 0.379036 1.52974 0
M  V30 1851 C 172.41 -0.477772 2.22938 0
M  V30 1852 C 173.394 -1.03792 1.22948 0
M  V30 1853 O 174.586 -0.965725 1.48333 0
M  V30 1854 C 171.715 -1.60994 3.03209 0
M  V30 1855 C 170.801 -1.06203 4.10587 0
M  V30 1856 N 171.192 -0.238214 5.05239 0
M  V30 1857 C 169.49 -1.33554 4.25534 0
M  V30 1858 C 170.191 0.0633235 5.81666 0
M  V30 1859 N 169.167 -0.537901 5.40932 0
M  V30 1860 H 172.969 0.158295 2.93473 0
M  V30 1861 H 170.483 0.187778 1.61311 0
M  V30 1862 H 172.48 -2.23607 3.5186 0
M  V30 1863 H 171.14 -2.24893 2.34207 0
M  V30 1864 H 172.151 0.123695 5.17752 0
M  V30 1865 H 168.828 -1.97632 3.6776 0
M  V30 1866 H 170.218 0.730161 6.67921 0
M  V30 1867 N 172.938 -1.57226 0.108567 0
M  V30 1868 C 173.885 -2.14756 -0.845481 0
M  V30 1869 C 174.855 -1.06971 -1.27068 0
M  V30 1870 O 176.04 -1.34827 -1.35005 0
M  V30 1871 C 173.18 -2.74298 -2.09415 0
M  V30 1872 C 172.293 -3.96358 -1.71826 0
M  V30 1873 C 171.428 -4.44021 -2.9158 0
M  V30 1874 C 170.467 -5.58637 -2.50181 0
M  V30 1875 N 169.604 -6.01091 -3.62814 0
M  V30 1876 H 174.444 -2.95961 -0.348035 0
M  V30 1877 H 171.981 -1.46226 -0.160106 0
M  V30 1878 H 173.939 -3.06945 -2.82561 0
M  V30 1879 H 172.569 -1.95801 -2.56636 0
M  V30 1880 H 171.621 -3.69939 -0.885947 0
M  V30 1881 H 172.933 -4.79504 -1.37394 0
M  V30 1882 H 172.087 -4.78522 -3.72963 0
M  V30 1883 H 170.826 -3.59803 -3.29231 0
M  V30 1884 H 169.831 -5.23751 -1.67228 0
M  V30 1885 H 171.056 -6.44613 -2.13659 0
M  V30 1886 H 169.002 -5.19817 -4.00158 0
M  V30 1887 H 168.919 -6.79066 -3.32273 0
M  V30 1888 H 170.187 -6.40227 -4.44668 0
M  V30 1889 N 174.416 0.165178 -1.56732 0
M  V30 1890 C 175.379 1.18822 -1.95995 0
M  V30 1891 C 176.379 1.3685 -0.84431 0
M  V30 1892 O 177.569 1.34152 -1.11126 0
M  V30 1893 C 174.701 2.5521 -2.26011 0
M  V30 1894 H 175.894 0.851825 -2.87548 0
M  V30 1895 H 173.447 0.407857 -1.50885 0
M  V30 1896 H 174.182 2.93852 -1.37191 0
M  V30 1897 H 173.967 2.43489 -3.07336 0
M  V30 1898 H 175.457 3.28927 -2.57288 0
M  V30 1899 N 175.894 1.51508 0.433938 0
M  V30 1900 C 177.31 1.39759 0.770682 0
M  V30 1901 C 177.51 0.482594 1.95636 0
M  V30 1902 O 176.566 -0.0609691 2.52426 0
M  V30 1903 C 177.879 2.81851 1.04787 0
M  V30 1904 C 179.427 2.91025 1.1521 0
M  V30 1905 C 179.902 4.34032 1.46219 0
M  V30 1906 N 181.393 4.37154 1.53136 0
M  V30 1907 C 182.128 5.4484 1.78709 0
M  V30 1908 N 181.624 6.62682 2.02051 0
M  V30 1909 N 183.417 5.32324 1.80519 0
M  V30 1910 H 175.568 2.09548 -0.346892 0
M  V30 1911 H 177.831 0.943446 -0.0928074 0
M  V30 1912 H 177.537 3.50815 0.249304 0
M  V30 1913 H 177.411 3.21386 1.97461 0
M  V30 1914 H 179.798 2.22257 1.94128 0
M  V30 1915 H 179.879 2.54983 0.204281 0
M  V30 1916 H 179.523 5.03351 0.678274 0
M  V30 1917 H 179.453 4.6759 2.42212 0
M  V30 1918 H 181.944 3.52197 1.36987 0
M  V30 1919 H 182.257 7.40543 2.20943 0
M  V30 1920 H 180.602 6.65791 1.99366 0
M  V30 1921 H 183.793 4.39246 1.61805 0
M  V30 1922 H 183.966 6.16328 2.00111 0
M  V30 1923 N 177.372 -0.689602 1.41712 0
M  V30 1924 C 178.788 -1.00093 1.24312 0
M  V30 1925 C 178.988 -2.01036 0.136729 0
M  V30 1926 O 178.044 -2.47562 -0.496918 0
M  V30 1927 C 179.357 -1.51985 2.59463 0
M  V30 1928 C 180.905 -1.63838 2.66695 0
M  V30 1929 C 181.38 -2.1913 4.02177 0
M  V30 1930 N 182.871 -2.26483 4.04054 0
M  V30 1931 C 183.606 -2.70306 5.0569 0
M  V30 1932 N 183.102 -3.13691 6.17713 0
M  V30 1933 N 184.895 -2.69923 4.9305 0
M  V30 1934 H 177.046 -0.0210029 2.1239 0
M  V30 1935 H 179.309 -0.0718733 0.945272 0
M  V30 1936 H 179.015 -0.85269 3.41207 0
M  V30 1937 H 178.889 -2.50103 2.82362 0
M  V30 1938 H 181.276 -2.29664 1.85306 0
M  V30 1939 H 181.357 -0.642492 2.476 0
M  V30 1940 H 181.001 -1.53918 4.84016 0
M  V30 1941 H 180.931 -3.19482 4.18615 0
M  V30 1942 H 183.422 -1.95874 3.23174 0
M  V30 1943 H 183.735 -3.45773 6.9113 0
M  V30 1944 H 182.08 -3.11585 6.21241 0
M  V30 1945 H 185.271 -2.35382 4.04614 0
M  V30 1946 H 185.444 -3.03758 5.72394 0
M  V30 1947 N 178.85 -1.27639 -0.924453 0
M  V30 1948 C 179.813 -1.10681 -2.00705 0
M  V30 1949 C 180.813 -0.0497823 -1.60723 0
M  V30 1950 O 182.003 -0.294654 -1.7169 0
M  V30 1951 C 179.135 -0.687164 -3.33902 0
M  V30 1952 H 180.328 -2.06817 -2.17179 0
M  V30 1953 H 177.881 -1.10473 -1.10569 0
M  V30 1954 H 178.616 0.275439 -3.23128 0
M  V30 1955 H 178.401 -1.45061 -3.6428 0
M  V30 1956 H 179.891 -0.590853 -4.13399 0
M  V30 1957 N 180.328 1.1314 -1.09713 0
M  V30 1958 C 181.739 1.66029 -0.853885 0
M  V30 1959 C 182.09 1.86241 0.617142 0
M  V30 1960 O 181.215 1.5834 1.47503 0
M  V30 1961 C 181.81 3.01599 -1.5435 0
M  V30 1962 C 180.369 3.51467 -1.34714 0
M  V30 1963 C 179.516 2.26648 -1.59769 0
M  V30 1964 H 182.467 0.970226 -1.25588 0
M  V30 1965 H 182.488 3.67709 -0.978267 0
M  V30 1966 H 182 2.86856 -2.6141 0
M  V30 1967 H 180.101 3.71408 -0.297838 0
M  V30 1968 H 180.214 4.314 -2.08401 0
M  V30 1969 H 178.578 2.33385 -1.01998 0
M  V30 1970 H 179.361 2.14467 -2.68065 0
M  V30 1971 N 181.806 0.884767 1.30421 0
M  V30 1972 C 182.738 0.308655 2.27112 0
M  V30 1973 C 183.751 -0.536655 1.53701 0
M  V30 1974 O 184.94 -0.35624 1.74909 0
M  V30 1975 C 182.04 -0.579782 3.33904 0
M  V30 1976 C 181.213 0.236417 4.36761 0
M  V30 1977 C 180.272 -0.582482 5.22966 0
M  V30 1978 O 179.298 -0.00525502 5.692 0
M  V30 1979 N 180.5 -1.89163 5.48815 0
M  V30 1980 H 183.265 1.13964 2.77186 0
M  V30 1981 H 180.826 0.747731 1.43599 0
M  V30 1982 H 182.818 -1.13366 3.88497 0
M  V30 1983 H 181.388 -1.31144 2.83761 0
M  V30 1984 H 180.608 0.97174 3.82035 0
M  V30 1985 H 181.896 0.795924 5.02536 0
M  V30 1986 H 181.294 -2.38352 5.13035 0
M  V30 1987 H 179.851 -2.39296 6.06284 0
M  V30 1988 N 183.284 -1.43765 0.645699 0
M  V30 1989 C 184.514 -2.05953 0.163318 0
M  V30 1990 C 184.922 -1.48432 -1.17322 0
M  V30 1991 O 184.265 -0.607295 -1.73371 0
M  V30 1992 C 184.327 -3.59499 -0.0103065 0
M  V30 1993 C 183.991 -4.39563 1.25035 0
M  V30 1994 C 184.988 -4.72108 2.17739 0
M  V30 1995 C 182.673 -4.79697 1.48983 0
M  V30 1996 C 184.667 -5.43688 3.3269 0
M  V30 1997 C 182.354 -5.51023 2.64229 0
M  V30 1998 C 183.352 -5.8294 3.55908 0
M  V30 1999 O 183.04 -6.5281 4.69142 0
M  V30 2000 H 182.772 -0.670798 0.0836986 0
M  V30 2001 H 185.326 -1.85384 0.884407 0
M  V30 2002 H 183.556 -3.78613 -0.78669 0
M  V30 2003 H 185.245 -4.03408 -0.449087 0
M  V30 2004 H 186.011 -4.41627 2.00476 0
M  V30 2005 H 181.89 -4.54266 0.785078 0
M  V30 2006 H 185.434 -5.68517 4.04269 0
M  V30 2007 H 181.331 -5.8092 2.81429 0
M  V30 2008 H 182.099 -6.71288 4.6831 0
M  V30 2009 N 184.763 -0.387143 -1.52771 0
M  V30 2010 C 185.988 0.198407 -2.06449 0
M  V30 2011 C 186.413 1.39918 -1.25716 0
M  V30 2012 O 185.771 1.79099 -0.281657 0
M  V30 2013 C 185.819 0.548893 -3.56398 0
M  V30 2014 O 184.923 1.64315 -3.78252 0
M  V30 2015 H 184.264 0.0237731 -0.663574 0
M  V30 2016 H 186.794 -0.553989 -1.96957 0
M  V30 2017 H 186.804 0.813812 -3.99801 0
M  V30 2018 H 185.479 -0.329005 -4.14597 0
M  V30 2019 H 184.056 1.37211 -3.46738 0
M  V30 2020 N 186.241 1.57166 -0.116904 0
M  V30 2021 C 187.188 2.15202 0.83408 0
M  V30 2022 C 188.158 1.07644 1.26499 0
M  V30 2023 O 189.343 1.35541 1.34288 0
M  V30 2024 C 186.483 2.75405 2.07957 0
M  V30 2025 C 185.596 3.97264 1.69721 0
M  V30 2026 C 184.731 4.45561 2.89221 0
M  V30 2027 C 183.77 5.59956 2.47215 0
M  V30 2028 N 182.907 6.03006 3.59622 0
M  V30 2029 H 187.747 2.96141 0.332335 0
M  V30 2030 H 185.284 1.46309 0.152349 0
M  V30 2031 H 187.242 3.08439 2.80929 0
M  V30 2032 H 185.872 1.97159 2.55594 0
M  V30 2033 H 184.924 3.70404 0.866316 0
M  V30 2034 H 186.236 4.80226 1.34849 0
M  V30 2035 H 185.39 4.80493 3.7042 0
M  V30 2036 H 184.129 3.61544 3.27318 0
M  V30 2037 H 183.134 5.2463 1.64448 0
M  V30 2038 H 184.359 6.45738 2.10238 0
M  V30 2039 H 182.305 5.21931 3.97396 0
M  V30 2040 H 182.222 6.80819 3.28667 0
M  V30 2041 H 183.49 6.42576 4.41267 0
M  V30 2042 N 187.719 -0.156864 1.56817 0
M  V30 2043 C 189.135 -0.50916 1.5126 0
M  V30 2044 C 189.335 -1.83897 0.823658 0
M  V30 2045 O 188.391 -2.49469 0.390055 0
M  V30 2046 C 189.704 -0.52857 2.96018 0
M  V30 2047 C 191.252 -0.614771 3.06903 0
M  V30 2048 C 191.727 -0.664938 4.53147 0
M  V30 2049 N 193.218 -0.727433 4.57452 0
M  V30 2050 C 193.953 -0.787067 5.67973 0
M  V30 2051 N 193.449 -0.806649 6.88088 0
M  V30 2052 N 195.242 -0.827195 5.5598 0
M  V30 2053 H 187.393 0.714935 2.00006 0
M  V30 2054 H 189.656 0.259526 0.911784 0
M  V30 2055 H 189.362 0.380154 3.49639 0
M  V30 2056 H 189.236 -1.36998 3.51442 0
M  V30 2057 H 191.623 -1.51392 2.53307 0
M  V30 2058 H 191.704 0.253597 2.5454 0
M  V30 2059 H 191.348 0.230011 5.07379 0
M  V30 2060 H 191.278 -1.54966 5.03282 0
M  V30 2061 H 193.769 -0.719998 3.70978 0
M  V30 2062 H 194.082 -0.853727 7.6807 0
M  V30 2063 H 192.427 -0.774687 6.90669 0
M  V30 2064 H 195.618 -0.808998 4.61056 0
M  V30 2065 H 195.791 -0.870206 6.4213 0
M  V30 2066 O 189.236 -1.58657 -0.301679 0
M  V30 2067 H 189.927 -1.6887 -0.948812 0
M  V30 END ATOM
M  V30 BEGIN BOND
M  V30 END BOND
M  V30 END CTAB
M  END
$$$$
