drugbank_target|P80303 Nucleobindin-2 (DB11093; DB11348; DB14481)
 OpenBabel12092121053D

  0  0  0     0  0            999 V3000
M  V30 BEGIN CTAB
M  V30 COUNTS 7006 7070 0 0 0
M  V30 BEGIN ATOM
M  V30 1 H -0.908 1.98254 -0.117106 0
M  V30 2 N 0 1.576 0 0
M  V30 3 C 0.933 2.03868 1.02534 0
M  V30 4 C 1.911 0.928543 1.3348 0
M  V30 5 O 3.095 1.19667 1.45644 0
M  V30 6 C 0.222 2.43627 2.35294 0
M  V30 7 C -0.732 3.65373 2.2001 0
M  V30 8 S 0.101 5.13292 1.52614 0
M  V30 9 C 1.257 5.56322 2.86805 0
M  V30 10 H 1.49 2.90518 0.631377 0
M  V30 11 H -0.977 1.52953 0.210867 0
M  V30 12 H 0.981 2.67203 3.11629 0
M  V30 13 H -0.358 1.57376 2.7183 0
M  V30 14 H -1.165 3.90944 3.18086 0
M  V30 15 H -1.563 3.418 1.51819 0
M  V30 16 H 0.729 5.58782 3.83104 0
M  V30 17 H 1.672 6.56266 2.65933 0
M  V30 18 H 2.08 4.83886 2.90714 0
M  V30 19 N 1.4781 -0.272755 1.55222 0
M  V30 20 C 2.8941 -0.619959 1.47067 0
M  V30 21 C 3.0941 -1.895 0.684978 0
M  V30 22 O 2.1501 -2.51675 0.203931 0
M  V30 23 C 3.4631 -0.746693 2.91282 0
M  V30 24 C 5.0111 -0.840731 3.01497 0
M  V30 25 C 5.4861 -0.99924 4.46967 0
M  V30 26 N 6.9771 -1.06476 4.50796 0
M  V30 27 C 7.7121 -1.20621 5.6057 0
M  V30 28 N 7.2081 -1.31483 6.80209 0
M  V30 29 N 9.0011 -1.23733 5.48312 0
M  V30 30 H 1.1521 0.564606 2.04758 0
M  V30 31 H 3.4151 0.191177 0.928523 0
M  V30 32 H 3.1211 0.119753 3.51496 0
M  V30 33 H 2.9951 -1.6269 3.40311 0
M  V30 34 H 5.3821 -1.69764 2.41379 0
M  V30 35 H 5.4631 0.0640874 2.5572 0
M  V30 36 H 5.1071 -0.146984 5.07687 0
M  V30 37 H 5.0371 -1.91871 4.90401 0
M  V30 38 H 7.5281 -0.993196 3.64615 0
M  V30 39 H 7.8411 -1.42111 7.59621 0
M  V30 40 H 6.1861 -1.28487 6.8302 0
M  V30 41 H 9.3771 -1.14877 4.53785 0
M  V30 42 H 9.5501 -1.34412 6.33906 0
M  V30 43 N 2.9562 -1.48159 -0.537278 0
M  V30 44 C 4.2022 -1.57015 -1.29297 0
M  V30 45 C 4.5572 -0.237791 -1.90925 0
M  V30 46 O 3.8502 0.758621 -1.75942 0
M  V30 47 C 4.0442 -2.63956 -2.40961 0
M  V30 48 C 3.8732 -4.07461 -1.90278 0
M  V30 49 C 2.6432 -4.74685 -1.73213 0
M  V30 50 C 4.8412 -4.93858 -1.43556 0
M  V30 51 N 2.8232 -6.02633 -1.17078 0
M  V30 52 C 4.1942 -6.11993 -0.993204 0
M  V30 53 C 6.2492 -4.80141 -1.31792 0
M  V30 54 C 4.9522 -7.17923 -0.444872 0
M  V30 55 C 6.9782 -5.86186 -0.783585 0
M  V30 56 C 6.3402 -7.03524 -0.351261 0
M  V30 57 H 2.4392 -0.629154 -0.464423 0
M  V30 58 H 5.0232 -1.85006 -0.606705 0
M  V30 59 H 3.1942 -2.378 -3.07093 0
M  V30 60 H 4.9262 -2.62539 -3.07986 0
M  V30 61 H 1.6812 -4.30902 -1.9652 0
M  V30 62 H 2.1052 -6.7085 -0.910421 0
M  V30 63 H 6.7472 -3.89772 -1.63823 0
M  V30 64 H 4.4652 -8.08022 -0.11222 0
M  V30 65 H 8.0512 -5.77624 -0.695835 0
M  V30 66 H 6.9312 -7.8418 0.055777 0
M  V30 67 N 4.4343 0.785586 -1.36625 0
M  V30 68 C 5.8503 1.08419 -1.17122 0
M  V30 69 C 6.0503 2.015 0.00208491 0
M  V30 70 O 5.1063 2.43551 0.666278 0
M  V30 71 C 6.4193 1.69498 -2.48377 0
M  V30 72 C 7.9673 1.81821 -2.54775 0
M  V30 73 C 8.4423 2.46315 -3.86126 0
M  V30 74 N 9.9333 2.53779 -3.87492 0
M  V30 75 C 10.6683 3.045 -4.85868 0
M  V30 76 N 10.1643 3.55499 -5.94637 0
M  V30 77 N 11.9573 3.03247 -4.73284 0
M  V30 78 H 4.1083 0.167264 -2.1174 0
M  V30 79 H 6.3713 0.13682 -0.938075 0
M  V30 80 H 6.0773 1.08571 -3.34522 0
M  V30 81 H 5.9513 2.6896 -2.64462 0
M  V30 82 H 8.3383 2.41884 -1.69045 0
M  V30 83 H 8.4193 0.811532 -2.42586 0
M  V30 84 H 8.0633 1.86895 -4.72263 0
M  V30 85 H 7.9933 3.47561 -3.95612 0
M  V30 86 H 10.4843 2.17672 -3.08913 0
M  V30 87 H 10.7973 3.92562 -6.65669 0
M  V30 88 H 9.1423 3.5364 -5.98301 0
M  V30 89 H 12.3333 2.62696 -3.87438 0
M  V30 90 H 12.5063 3.42467 -5.50109 0
M  V30 91 N 5.9124 1.20967 1.01018 0
M  V30 92 C 7.1404 1.04956 1.78303 0
M  V30 93 C 7.5554 -0.400915 1.84494 0
M  V30 94 O 6.9124 -1.27826 1.30257 0
M  V30 95 C 6.9634 1.63403 3.22462 0
M  V30 96 O 6.6844 3.02775 3.16637 0
M  V30 97 C 8.1854 1.52432 4.16268 0
M  V30 98 H 5.4054 0.368858 0.560522 0
M  V30 99 H 7.9494 1.60193 1.27116 0
M  V30 100 H 6.1044 1.1227 3.70775 0
M  V30 101 H 6.5184 3.30626 4.07169 0
M  V30 102 H 7.9924 1.98078 5.15237 0
M  V30 103 H 8.4694 0.477875 4.36592 0
M  V30 104 H 9.0754 2.02787 3.73841 0
M  V30 105 N 7.3905 -1.2043 1.01659 0
M  V30 106 C 8.6395 -1.89118 0.701237 0
M  V30 107 C 8.9525 -1.79705 -0.772358 0
M  V30 108 O 10.1585 -2.43528 -1.20026 0
M  V30 109 C 8.6145 -3.39168 1.20388 0
M  V30 110 C 8.2225 -3.57166 2.70438 0
M  V30 111 C 9.9665 -4.1341 0.963953 0
M  V30 112 C 7.8735 -5.01042 3.14183 0
M  V30 113 H 6.8035 -0.708267 0.2586 0
M  V30 114 H 9.4545 -1.36239 1.22927 0
M  V30 115 H 7.8365 -3.91369 0.603824 0
M  V30 116 H 9.0105 -3.15351 3.35992 0
M  V30 117 H 7.3255 -2.96294 2.92572 0
M  V30 118 H 9.9225 -5.19491 1.26621 0
M  V30 119 H 10.2655 -4.16181 -0.099578 0
M  V30 120 H 10.7985 -3.67309 1.52738 0
M  V30 121 H 7.5375 -5.03426 4.19812 0
M  V30 122 H 7.0575 -5.43668 2.53348 0
M  V30 123 H 8.7365 -5.69623 3.0682 0
M  V30 124 N 8.8686 -0.792821 -1.36206 0
M  V30 125 C 9.7986 -0.207853 -2.32573 0
M  V30 126 C 10.7796 0.659055 -1.56813 0
M  V30 127 O 11.9646 0.592176 -1.84951 0
M  V30 128 C 9.0946 0.655449 -3.41059 0
M  V30 129 C 8.0486 -0.111842 -4.27854 0
M  V30 130 C 7.3746 0.872274 -5.27537 0
M  V30 131 C 8.6746 -1.30299 -5.05786 0
M  V30 132 H 10.3686 -1.01294 -2.81744 0
M  V30 133 H 7.9146 -0.48854 -1.3546 0
M  V30 134 H 9.8676 1.07464 -4.07467 0
M  V30 135 H 8.5916 1.49328 -2.90463 0
M  V30 136 H 7.2506 -0.512053 -3.63006 0
M  V30 137 H 6.8986 1.70523 -4.73214 0
M  V30 138 H 6.5986 0.363291 -5.86476 0
M  V30 139 H 8.1226 1.28996 -5.96818 0
M  V30 140 H 9.5366 -0.959379 -5.65216 0
M  V30 141 H 7.9336 -1.7455 -5.74154 0
M  V30 142 H 9.0036 -2.09663 -4.37229 0
M  V30 143 N 10.3467 1.47872 -0.545128 0
M  V30 144 C 11.2767 2.32661 0.197793 0
M  V30 145 C 12.2577 1.43041 0.920504 0
M  V30 146 O 13.4427 1.71912 0.90333 0
M  V30 147 C 10.5727 3.24569 1.23582 0
M  V30 148 C 9.5267 4.23333 0.630323 0
M  V30 149 C 8.8527 5.0448 1.77211 0
M  V30 150 C 10.1527 5.20704 -0.407974 0
M  V30 151 H 11.8467 2.95024 -0.510045 0
M  V30 152 H 9.3927 1.4187 -0.246731 0
M  V30 153 H 11.3457 3.8272 1.76362 0
M  V30 154 H 10.0697 2.60236 1.97344 0
M  V30 155 H 8.7287 3.6639 0.123922 0
M  V30 156 H 8.3767 4.36561 2.49847 0
M  V30 157 H 8.0767 5.71339 1.37281 0
M  V30 158 H 9.6007 5.65487 2.3034 0
M  V30 159 H 11.0147 5.7329 0.033305 0
M  V30 160 H 9.4117 5.95699 -0.725486 0
M  V30 161 H 10.4817 4.66917 -1.30828 0
M  V30 162 N 11.8248 0.280983 1.55075 0
M  V30 163 C 12.7568 -0.637268 2.20163 0
M  V30 164 C 13.7698 -1.11298 1.18813 0
M  V30 165 O 14.9588 -1.03388 1.4551 0
M  V30 166 C 12.0588 -1.88199 2.81841 0
M  V30 167 C 11.2318 -1.55211 4.08936 0
M  V30 168 C 10.2908 -2.64991 4.54606 0
M  V30 169 O 9.3168 -2.30929 5.2025 0
M  V30 170 N 10.5188 -3.95161 4.25238 0
M  V30 171 H 13.2838 -0.0801694 2.99593 0
M  V30 172 H 10.8448 0.102329 1.61576 0
M  V30 173 H 12.8368 -2.60948 3.09335 0
M  V30 174 H 11.4068 -2.34799 2.06369 0
M  V30 175 H 10.6268 -0.658185 3.88666 0
M  V30 176 H 11.9148 -1.30681 4.91732 0
M  V30 177 H 11.3128 -4.25653 3.72607 0
M  V30 178 H 9.8698 -4.6427 4.5749 0
M  V30 179 N 13.3029 -1.57598 0.00835791 0
M  V30 180 C 14.5329 -1.94931 -0.684496 0
M  V30 181 C 14.9409 -0.882233 -1.67372 0
M  V30 182 O 14.2839 0.146621 -1.83114 0
M  V30 183 C 14.3459 -3.283 -1.4649 0
M  V30 184 C 14.0099 -4.52548 -0.63634 0
M  V30 185 C 15.0069 -5.19839 0.0795586 0
M  V30 186 C 12.6919 -4.98942 -0.579849 0
M  V30 187 C 14.6859 -6.3183 0.840843 0
M  V30 188 C 12.3729 -6.10819 0.185155 0
M  V30 189 C 13.3709 -6.77121 0.894227 0
M  V30 190 O 13.0589 -7.86853 1.64673 0
M  V30 191 H 12.7909 -0.647249 -0.19505 0
M  V30 192 H 15.3449 -2.05318 0.0581272 0
M  V30 193 H 13.5749 -3.14345 -2.2522 0
M  V30 194 H 15.2639 -3.50685 -2.04389 0
M  V30 195 H 16.0299 -4.84979 0.0451202 0
M  V30 196 H 11.9089 -4.47155 -1.1213 0
M  V30 197 H 15.4529 -6.83513 1.39483 0
M  V30 198 H 11.3499 -6.4512 0.221384 0
M  V30 199 H 12.1179 -8.03412 1.56432 0
M  V30 200 N 14.781 0.264519 -1.55364 0
M  V30 201 C 16.021 1.00254 -1.78125 0
M  V30 202 C 16.385 1.83187 -0.575017 0
M  V30 203 O 17.586 2.60029 -0.681042 0
M  V30 204 C 15.857 1.85478 -3.05504 0
M  V30 205 S 17.416 2.6543 -3.49417 0
M  V30 206 H 14.234 0.337522 -0.625779 0
M  V30 207 H 16.836 0.272111 -1.93597 0
M  V30 208 H 15.54 1.23491 -3.9138 0
M  V30 209 H 15.071 2.62827 -2.92721 0
M  V30 210 H 17.086 3.87958 -3.09359 0
M  V30 211 N 16.2591 1.48442 0.529413 0
M  V30 212 C 17.5061 1.56488 1.28521 0
M  V30 213 C 17.8341 0.239042 1.93025 0
M  V30 214 O 17.0891 -0.770713 1.79885 0
M  V30 215 C 17.3881 2.6523 2.39558 0
M  V30 216 C 17.0541 4.07648 1.92702 0
M  V30 217 C 15.7161 4.46411 1.79641 0
M  V30 218 C 18.0681 4.96896 1.573 0
M  V30 219 C 15.3961 5.72226 1.29514 0
M  V30 220 C 17.7481 6.23202 1.08636 0
M  V30 221 C 16.4121 6.60821 0.941919 0
M  V30 222 H 15.6821 0.572631 0.470292 0
M  V30 223 H 18.3291 1.82161 0.59072 0
M  V30 224 H 16.6341 2.33419 3.14679 0
M  V30 225 H 18.3311 2.68671 2.97686 0
M  V30 226 H 14.9211 3.77036 2.03819 0
M  V30 227 H 19.1051 4.67626 1.66251 0
M  V30 228 H 14.3611 6.00097 1.17019 0
M  V30 229 H 18.5351 6.91753 0.803136 0
M  V30 230 H 16.1621 7.58198 0.5513 0
M  V30 231 N 17.7372 -0.778329 1.37039 0
M  V30 232 C 18.6672 -1.90546 1.34962 0
M  V30 233 C 19.6482 -1.68681 0.219274 0
M  V30 234 O 20.8332 -1.89634 0.418624 0
M  V30 235 C 17.9632 -3.27734 1.14925 0
M  V30 236 C 16.9172 -3.64147 2.24902 0
M  V30 237 C 16.2432 -4.99806 1.89996 0
M  V30 238 C 17.5432 -3.71579 3.67051 0
M  V30 239 H 19.2372 -1.92541 2.29277 0
M  V30 240 H 16.7832 -0.924948 1.10366 0
M  V30 241 H 18.7362 -4.06215 1.12104 0
M  V30 242 H 17.4602 -3.26154 0.170631 0
M  V30 243 H 16.1192 -2.8797 2.26868 0
M  V30 244 H 15.7672 -4.94759 0.906796 0
M  V30 245 H 15.4672 -5.25139 2.63634 0
M  V30 246 H 16.9912 -5.80694 1.88749 0
M  V30 247 H 18.4052 -4.40227 3.67251 0
M  V30 248 H 16.8022 -4.08405 4.39688 0
M  V30 249 H 17.8722 -2.72404 4.01154 0
M  V30 250 N 19.2153 -1.21501 -1.00376 0
M  V30 251 C 20.1453 -0.999478 -2.11028 0
M  V30 252 C 21.1263 0.0759671 -1.6993 0
M  V30 253 O 22.3113 -0.0841106 -1.94018 0
M  V30 254 C 19.4413 -0.564709 -3.42678 0
M  V30 255 C 18.3953 -1.58486 -3.97576 0
M  V30 256 C 17.7213 -1.00628 -5.25146 0
M  V30 257 C 19.0213 -2.97204 -4.29496 0
M  V30 258 H 20.7153 -1.92495 -2.29317 0
M  V30 259 H 18.2613 -0.92693 -1.102 0
M  V30 260 H 20.2143 -0.401091 -4.19487 0
M  V30 261 H 18.9383 0.396411 -3.24185 0
M  V30 262 H 17.5973 -1.73606 -3.22888 0
M  V30 263 H 17.2453 -0.0368439 -5.02987 0
M  V30 264 H 16.9453 -1.68771 -5.62841 0
M  V30 265 H 18.4693 -0.854015 -6.04598 0
M  V30 266 H 19.8833 -2.8552 -4.97143 0
M  V30 267 H 18.2803 -3.62372 -4.78338 0
M  V30 268 H 19.3503 -3.47956 -3.3772 0
M  V30 269 N 20.6934 1.19889 -1.02296 0
M  V30 270 C 21.9424 1.88743 -0.711257 0
M  V30 271 C 22.2554 1.80112 0.762817 0
M  V30 272 O 23.4614 2.44161 1.18733 0
M  V30 273 C 21.9174 3.38525 -1.22185 0
M  V30 274 C 21.5254 3.55727 -2.72328 0
M  V30 275 C 23.2694 4.12893 -0.985864 0
M  V30 276 C 21.1764 4.99369 -3.16835 0
M  V30 277 H 20.1064 0.706885 -0.262353 0
M  V30 278 H 22.7574 1.35586 -1.23648 0
M  V30 279 H 21.1394 3.91044 -0.624571 0
M  V30 280 H 22.3134 3.13564 -3.3766 0
M  V30 281 H 20.6284 2.94739 -2.9414 0
M  V30 282 H 23.2254 5.18813 -1.29374 0
M  V30 283 H 23.5684 4.16228 0.0775055 0
M  V30 284 H 24.1014 3.66494 -1.54684 0
M  V30 285 H 20.8404 5.01193 -4.22476 0
M  V30 286 H 20.3604 5.42317 -2.56228 0
M  V30 287 H 22.0394 5.67988 -3.09837 0
M  V30 288 N 22.1715 0.800033 1.35784 0
M  V30 289 C 23.3995 0.389606 2.03199 0
M  V30 290 C 23.8145 -0.997375 1.60306 0
M  V30 291 O 23.1715 -1.64154 0.797481 0
M  V30 292 C 23.2225 0.455855 3.58614 0
M  V30 293 O 22.9435 1.78815 3.99946 0
M  V30 294 C 24.4445 0.0374032 4.43284 0
M  V30 295 H 21.6645 0.159132 0.651857 0
M  V30 296 H 24.2085 1.08183 1.73541 0
M  V30 297 H 22.3635 -0.188057 3.86943 0
M  V30 298 H 22.7775 1.74636 4.94573 0
M  V30 299 H 24.2515 0.134882 5.51835 0
M  V30 300 H 24.7285 -1.01651 4.27275 0
M  V30 301 H 25.3345 0.654215 4.20238 0
M  V30 302 N 23.6496 -1.47581 0.552962 0
M  V30 303 C 24.8896 -2.04379 0.0296245 0
M  V30 304 C 25.2536 -1.4185 -1.29393 0
M  V30 305 O 26.4546 -1.89669 -1.90471 0
M  V30 306 C 24.7256 -3.57339 -0.0661371 0
M  V30 307 S 26.2846 -4.35511 -0.536213 0
M  V30 308 H 23.1026 -0.710625 0.0230991 0
M  V30 309 H 25.7046 -1.81005 0.738734 0
M  V30 310 H 24.4086 -4.00374 0.901596 0
M  V30 311 H 23.9396 -3.85202 -0.798931 0
M  V30 312 H 25.9546 -4.6253 -1.79668 0
M  V30 313 N 25.1277 -0.289203 -1.54924 0
M  V30 314 C 26.0577 0.58549 -2.2604 0
M  V30 315 C 27.0387 1.14753 -1.25562 0
M  V30 316 O 28.2237 1.17906 -1.54311 0
M  V30 317 C 25.3537 1.76305 -2.99222 0
M  V30 318 C 24.3077 1.33191 -4.06748 0
M  V30 319 C 23.6337 2.5937 -4.6758 0
M  V30 320 C 24.9337 0.471775 -5.20165 0
M  V30 321 H 26.6277 -0.00763532 -2.99399 0
M  V30 322 H 24.1737 -0.00511229 -1.43999 0
M  V30 323 H 26.1267 2.38097 -3.47689 0
M  V30 324 H 24.8507 2.38223 -2.23422 0
M  V30 325 H 23.5097 0.737121 -3.59113 0
M  V30 326 H 23.1577 3.19576 -3.88433 0
M  V30 327 H 22.8577 2.31228 -5.40192 0
M  V30 328 H 24.3817 3.21985 -5.18804 0
M  V30 329 H 25.7957 0.995056 -5.64599 0
M  V30 330 H 24.1927 0.284639 -5.99425 0
M  V30 331 H 25.2627 -0.506041 -4.82252 0
M  V30 332 N 26.6058 1.57591 -0.0167156 0
M  V30 333 C 27.5358 2.12496 0.967858 0
M  V30 334 C 28.5168 1.03807 1.34752 0
M  V30 335 O 29.7018 1.31577 1.42833 0
M  V30 336 C 26.8318 2.64194 2.25431 0
M  V30 337 C 25.7858 3.77559 2.01576 0
M  V30 338 C 25.1118 4.15636 3.36379 0
M  V30 339 C 26.4118 5.04151 1.36489 0
M  V30 340 H 28.1058 2.95013 0.510643 0
M  V30 341 H 25.6518 1.41915 0.244181 0
M  V30 342 H 27.6048 3.01236 2.94678 0
M  V30 343 H 26.3288 1.78821 2.73296 0
M  V30 344 H 24.9878 3.40937 1.34751 0
M  V30 345 H 24.6358 3.27263 3.81979 0
M  V30 346 H 24.3358 4.92022 3.21229 0
M  V30 347 H 25.8598 4.5525 4.06915 0
M  V30 348 H 27.2738 5.38857 1.95718 0
M  V30 349 H 25.6708 5.85453 1.31776 0
M  V30 350 H 26.7408 4.83733 0.336219 0
M  V30 351 N 28.0839 -0.256276 1.55502 0
M  V30 352 C 29.3119 -1.00342 1.8094 0
M  V30 353 C 29.7269 -1.79307 0.59114 0
M  V30 354 O 29.0839 -1.77114 -0.440081 0
M  V30 355 C 29.1349 -1.94875 3.04476 0
M  V30 356 O 28.8559 -1.19107 4.21598 0
M  V30 357 C 30.3569 -2.81266 3.42644 0
M  V30 358 H 27.5769 -0.295685 0.602338 0
M  V30 359 H 30.1209 -0.281998 2.02546 0
M  V30 360 H 28.2759 -2.62457 2.84947 0
M  V30 361 H 28.6899 -1.82969 4.91551 0
M  V30 362 H 30.1639 -3.43362 4.32211 0
M  V30 363 H 30.6409 -3.51897 2.62802 0
M  V30 364 H 31.2469 -2.1915 3.64491 0
M  V30 365 N 29.562 -1.4872 -0.521534 0
M  V30 366 C 30.525 -1.63379 -1.60748 0
M  V30 367 C 31.525 -0.50661 -1.52611 0
M  V30 368 O 32.715 -0.772601 -1.5613 0
M  V30 369 C 29.847 -1.61192 -3.00383 0
M  V30 370 H 31.04 -2.60217 -1.49087 0
M  V30 371 H 28.593 -1.37444 -0.744235 0
M  V30 372 H 29.328 -0.65863 -3.17541 0
M  V30 373 H 29.113 -2.43032 -3.07698 0
M  V30 374 H 30.603 -1.7466 -3.7932 0
M  V30 375 N 31.0401 0.771051 -1.3745 0
M  V30 376 C 31.9701 1.89827 -1.3597 0
M  V30 377 C 32.9511 1.68562 -0.228216 0
M  V30 378 O 34.1361 1.8941 -0.428675 0
M  V30 379 C 31.2661 3.2712 -1.16662 0
M  V30 380 C 30.2201 3.6295 -2.2683 0
M  V30 381 C 29.5461 4.98791 -1.92644 0
M  V30 382 C 30.8461 3.69627 -3.69017 0
M  V30 383 H 32.5401 1.91323 -2.30295 0
M  V30 384 H 30.0861 0.919082 -1.10855 0
M  V30 385 H 32.0391 4.05615 -1.14256 0
M  V30 386 H 30.7631 3.26059 -0.187926 0
M  V30 387 H 29.4221 2.86763 -2.28392 0
M  V30 388 H 29.0701 4.94271 -0.933021 0
M  V30 389 H 28.7701 5.23733 -2.66416 0
M  V30 390 H 30.2941 5.79685 -1.91826 0
M  V30 391 H 31.7081 4.38273 -3.69581 0
M  V30 392 H 30.1051 4.06067 -4.41848 0
M  V30 393 H 31.1751 2.70273 -4.02592 0
M  V30 394 N 32.5182 1.22032 0.997298 0
M  V30 395 C 33.4282 1.00271 2.12092 0
M  V30 396 C 34.4442 -0.047621 1.73935 0
M  V30 397 O 35.6202 0.144136 2.00884 0
M  V30 398 C 32.6852 0.578449 3.4184 0
M  V30 399 C 31.7462 1.70189 3.94125 0
M  V30 400 C 30.9792 1.29778 5.17681 0
M  V30 401 O 31.2022 0.174676 5.70132 0
M  V30 402 O 30.1362 2.11261 5.63607 0
M  V30 403 H 33.9622 1.94398 2.3333 0
M  V30 404 H 31.5472 1.00587 1.10465 0
M  V30 405 H 33.4292 0.351998 4.19927 0
M  V30 406 H 32.1042 -0.334019 3.21972 0
M  V30 407 H 31.0112 1.98282 3.1723 0
M  V30 408 H 32.3442 2.59206 4.18417 0
M  V30 409 N 33.9963 -1.19345 1.0293 0
M  V30 410 C 34.9593 -2.20793 0.615069 0
M  V30 411 C 35.9593 -1.57553 -0.321533 0
M  V30 412 O 37.1493 -1.73862 -0.108483 0
M  V30 413 C 34.2813 -3.40754 -0.0999222 0
M  V30 414 H 35.4743 -2.58955 1.51269 0
M  V30 415 H 33.0273 -1.3303 0.820534 0
M  V30 416 H 33.7623 -3.0811 -1.01187 0
M  V30 417 H 33.5473 -3.87889 0.57309 0
M  V30 418 H 35.0373 -4.15898 -0.376645 0
M  V30 419 N 35.4744 -0.807222 -1.35358 0
M  V30 420 C 36.7204 -0.388463 -1.99045 0
M  V30 421 C 37.0534 1.04184 -1.63888 0
M  V30 422 O 36.3284 1.72292 -0.902535 0
M  V30 423 C 36.6114 -0.572783 -3.55515 0
M  V30 424 C 36.4644 -2.04807 -4.00468 0
M  V30 425 C 37.7834 0.00114064 -4.401 0
M  V30 426 H 34.9024 -0.142619 -0.723069 0
M  V30 427 H 37.5444 -1.01687 -1.60498 0
M  V30 428 H 35.6944 -0.0378425 -3.88482 0
M  V30 429 H 37.3664 -2.64544 -3.77908 0
M  V30 430 H 35.6094 -2.54427 -3.51353 0
M  V30 431 H 36.2804 -2.12792 -5.09337 0
M  V30 432 H 38.7564 -0.455716 -4.13597 0
M  V30 433 H 37.6324 -0.157737 -5.48673 0
M  V30 434 H 37.8934 1.09488 -4.28328 0
M  V30 435 N 36.9525 1.47285 -0.560781 0
M  V30 436 C 38.3635 1.86258 -0.128343 0
M  V30 437 C 38.7145 1.46699 1.30284 0
M  V30 438 O 37.8395 0.871698 1.98067 0
M  V30 439 C 38.4345 3.38044 -0.22614 0
M  V30 440 C 36.9935 3.76096 0.151283 0
M  V30 441 C 36.1405 2.71335 -0.572084 0
M  V30 442 H 39.0915 1.38752 -0.770297 0
M  V30 443 H 39.1125 3.76441 0.554322 0
M  V30 444 H 38.6245 3.66806 -1.26788 0
M  V30 445 H 36.7255 3.52951 1.19399 0
M  V30 446 H 36.8385 4.78641 -0.209765 0
M  V30 447 H 35.2025 2.54696 -0.0147653 0
M  V30 448 H 35.9855 3.02938 -1.61504 0
M  V30 449 N 38.4306 0.297415 1.54768 0
M  V30 450 C 39.6796 -0.313669 1.99246 0
M  V30 451 C 39.9926 -1.55281 1.18942 0
M  V30 452 O 41.1986 -2.23825 1.5367 0
M  V30 453 C 39.6546 -0.609407 3.54703 0
M  V30 454 C 39.2626 0.611192 4.43811 0
M  V30 455 C 41.0066 -1.18188 4.07715 0
M  V30 456 C 38.9136 0.288805 5.90694 0
M  V30 457 H 37.8436 -0.120979 0.744231 0
M  V30 458 H 40.4946 0.40556 1.78962 0
M  V30 459 H 38.8766 -1.38813 3.70873 0
M  V30 460 H 40.0506 1.3875 4.39414 0
M  V30 461 H 38.3656 1.10205 4.01552 0
M  V30 462 H 40.9626 -1.43727 5.15021 0
M  V30 463 H 41.3056 -2.12299 3.58099 0
M  V30 464 H 41.8386 -0.464944 3.95074 0
M  V30 465 H 38.5776 1.19838 6.44453 0
M  V30 466 H 38.0976 -0.450305 5.98107 0
M  V30 467 H 39.7766 -0.110933 6.46905 0
M  V30 468 N 39.9087 -1.5758 0.0250728 0
M  V30 469 C 41.1857 -1.82917 -0.692873 0
M  V30 470 C 41.5657 -0.908137 -1.90568 0
M  V30 471 O 40.9137 0.0372298 -2.2847 0
M  V30 472 C 41.1237 -3.32034 -1.07492 0
M  V30 473 C 42.4717 -3.98406 -1.46826 0
M  V30 474 O 43.4957 -3.36505 -1.16801 0
M  V30 475 O 42.3547 -5.07497 -2.02754 0
M  V30 476 H 39.4487 -0.754079 -0.33955 0
M  V30 477 H 41.9947 -1.69619 0.0524456 0
M  V30 478 H 40.7667 -3.90728 -0.211552 0
M  V30 479 H 40.3897 -3.50424 -1.87854 0
M  V30 480 N 41.3868 0.248026 -1.55636 0
M  V30 481 C 42.6358 0.974134 -1.76617 0
M  V30 482 C 42.9488 1.86528 -0.588796 0
M  V30 483 O 44.1548 2.62805 -0.681594 0
M  V30 484 C 42.6108 1.78213 -3.12679 0
M  V30 485 C 42.2188 0.93843 -4.38061 0
M  V30 486 C 43.9628 2.50104 -3.42999 0
M  V30 487 C 41.8698 1.74225 -5.65155 0
M  V30 488 H 40.7998 0.36745 -0.658405 0
M  V30 489 H 43.4508 0.22884 -1.82067 0
M  V30 490 H 41.8328 2.56933 -3.01333 0
M  V30 491 H 43.0068 0.193635 -4.60393 0
M  V30 492 H 41.3218 0.332905 -4.15067 0
M  V30 493 H 43.9188 3.10694 -4.3517 0
M  V30 494 H 44.2618 3.21662 -2.64271 0
M  V30 495 H 44.7948 1.78395 -3.55556 0
M  V30 496 H 41.5338 1.07043 -6.46701 0
M  V30 497 H 41.0538 2.46235 -5.46926 0
M  V30 498 H 42.7328 2.30967 -6.0437 0
M  V30 499 N 42.8649 1.48995 0.513639 0
M  V30 500 C 44.1419 1.48338 1.27495 0
M  V30 501 C 44.5219 0.204065 2.10111 0
M  V30 502 O 43.8699 -0.813881 2.13514 0
M  V30 503 C 44.0799 2.75498 2.14247 0
M  V30 504 C 45.4279 3.24484 2.73852 0
M  V30 505 O 46.4519 2.76528 2.24523 0
M  V30 506 O 45.3109 4.07974 3.6362 0
M  V30 507 H 42.4049 0.593149 0.576284 0
M  V30 508 H 44.9509 1.61246 0.528948 0
M  V30 509 H 43.7229 3.60109 1.53092 0
M  V30 510 H 43.3459 2.6539 2.96064 0
M  V30 511 N 44.343 -0.763751 1.37857 0
M  V30 512 C 45.29 -1.87726 1.34267 0
M  V30 513 C 46.26 -1.64807 0.206879 0
M  V30 514 O 47.445 -1.86613 0.397508 0
M  V30 515 C 44.585 -3.24896 1.16346 0
M  V30 516 C 43.698 -3.59716 2.39225 0
M  V30 517 C 42.833 -4.86137 2.14114 0
M  V30 518 C 41.872 -5.13711 3.32817 0
M  V30 519 N 41.009 -6.31323 3.07206 0
M  V30 520 H 45.849 -1.90129 2.29466 0
M  V30 521 H 43.386 -0.929433 1.14017 0
M  V30 522 H 45.344 -4.04036 1.03975 0
M  V30 523 H 43.974 -3.21847 0.247909 0
M  V30 524 H 43.026 -2.75498 2.62307 0
M  V30 525 H 44.338 -3.76027 3.27728 0
M  V30 526 H 43.492 -5.73198 1.9882 0
M  V30 527 H 42.231 -4.71945 1.22961 0
M  V30 528 H 41.236 -4.25123 3.48641 0
M  V30 529 H 42.461 -5.29807 4.24832 0
M  V30 530 H 40.407 -6.18474 2.1869 0
M  V30 531 H 40.324 -6.48087 3.89254 0
M  V30 532 H 41.592 -7.213 2.95546 0
M  V30 533 N 45.8211 -1.22559 -0.990812 0
M  V30 534 C 47.0491 -1.07779 -1.76611 0
M  V30 535 C 47.4641 0.371513 -1.85109 0
M  V30 536 O 46.8211 1.25737 -1.32274 0
M  V30 537 C 46.8721 -1.68512 -3.19822 0
M  V30 538 O 46.5931 -3.07774 -3.1178 0
M  V30 539 C 48.0941 -1.59035 -4.13791 0
M  V30 540 H 45.3141 -0.377729 -0.554583 0
M  V30 541 H 47.8581 -1.62195 -1.24551 0
M  V30 542 H 46.0131 -1.18154 -3.68942 0
M  V30 543 H 46.4271 -3.37062 -4.01858 0
M  V30 544 H 47.9011 -2.0625 -5.1202 0
M  V30 545 H 48.3781 -0.547273 -4.35777 0
M  V30 546 H 48.9841 -2.08709 -3.70568 0
M  V30 547 N 47.2992 1.18797 -1.03562 0
M  V30 548 C 48.2462 2.22253 -0.622259 0
M  V30 549 C 49.2162 1.61987 0.36736 0
M  V30 550 O 50.4012 1.88986 0.262492 0
M  V30 551 C 47.5412 3.45097 0.0138462 0
M  V30 552 C 46.6542 4.19722 -1.02263 0
M  V30 553 C 45.7892 5.30009 -0.355573 0
M  V30 554 C 44.8282 5.96399 -1.37749 0
M  V30 555 N 43.9652 6.98234 -0.735766 0
M  V30 556 H 48.8052 2.56968 -1.50903 0
M  V30 557 H 46.3422 1.26245 -0.755017 0
M  V30 558 H 48.3002 4.15279 0.399948 0
M  V30 559 H 46.9302 3.11018 0.864158 0
M  V30 560 H 45.9822 3.48418 -1.52673 0
M  V30 561 H 47.2942 4.65227 -1.79903 0
M  V30 562 H 46.4482 6.0664 0.0850095 0
M  V30 563 H 45.1872 4.85592 0.452967 0
M  V30 564 H 44.1922 5.18512 -1.82826 0
M  V30 565 H 45.4172 6.42899 -2.18764 0
M  V30 566 H 43.3632 6.55979 0.0525597 0
M  V30 567 H 43.2802 7.41965 -1.44995 0
M  V30 568 H 44.5482 7.78845 -0.31941 0
M  V30 569 N 48.7773 0.814389 1.34928 0
M  V30 570 C 50.0233 0.399013 1.98836 0
M  V30 571 C 50.3563 -1.03314 1.64438 0
M  V30 572 O 49.6313 -1.71811 0.911659 0
M  V30 573 C 49.9143 0.591629 3.55207 0
M  V30 574 C 49.7673 2.06928 3.99376 0
M  V30 575 C 51.0863 0.022199 4.40094 0
M  V30 576 H 48.2053 0.146451 0.722303 0
M  V30 577 H 50.8473 1.02537 1.59957 0
M  V30 578 H 48.9973 0.0584441 3.88456 0
M  V30 579 H 50.6693 2.66544 3.76499 0
M  V30 580 H 48.9123 2.56287 3.49999 0
M  V30 581 H 49.5833 2.1549 5.08201 0
M  V30 582 H 52.0593 0.477643 4.13349 0
M  V30 583 H 50.9353 0.186832 5.48582 0
M  V30 584 H 51.1963 -1.07215 4.28902 0
M  V30 585 N 50.2554 -1.46986 0.568584 0
M  V30 586 C 51.1874 -2.28233 -0.210337 0
M  V30 587 C 52.2004 -1.37682 -0.868767 0
M  V30 588 O 53.3894 -1.62406 -0.740705 0
M  V30 589 C 50.4894 -3.12293 -1.3163 0
M  V30 590 C 49.6624 -4.30878 -0.7525 0
M  V30 591 C 48.7214 -4.96445 -1.74439 0
M  V30 592 O 47.7474 -5.54482 -1.286 0
M  V30 593 N 48.9494 -4.92171 -3.07812 0
M  V30 594 H 51.7144 -2.95723 0.486648 0
M  V30 595 H 49.2754 -1.56742 0.405409 0
M  V30 596 H 51.2674 -3.53022 -1.97883 0
M  V30 597 H 49.8374 -2.46971 -1.91636 0
M  V30 598 H 49.0574 -3.94104 0.0871128 0
M  V30 599 H 50.3454 -5.07558 -0.35536 0
M  V30 600 H 49.7434 -4.46239 -3.47688 0
M  V30 601 H 48.3004 -5.36884 -3.69592 0
M  V30 602 N 51.7335 -0.305618 -1.54608 0
M  V30 603 C 52.6815 0.584119 -2.25146 0
M  V30 604 C 53.6755 1.13326 -1.25911 0
M  V30 605 O 54.8815 1.08337 -1.43747 0
M  V30 606 H 51.2565 0.206983 -0.722954 0
M  V30 607 H 53.2275 -0.033291 -2.98381 0
M  V30 608 C 51.9765 1.74225 -3.009 0
M  V30 609 H 51.2995 1.32892 -3.77067 0
M  V30 610 H 52.7395 2.34077 -3.53531 0
M  V30 611 C 51.1985 2.64914 -2.0814 0
M  V30 612 O 51.7285 3.66137 -1.65246 0
M  V30 613 N 49.9345 2.3275 -1.74 0
M  V30 614 H 49.4815 1.50479 -2.09078 0
M  V30 615 H 49.4395 2.93694 -1.12211 0
M  V30 616 N 53.2116 1.57565 -0.0334293 0
M  V30 617 C 54.4606 1.91155 0.643639 0
M  V30 618 C 54.7736 0.91192 1.73042 0
M  V30 619 O 55.9796 1.13923 2.46442 0
M  V30 620 C 54.4356 3.39443 1.1961 0
M  V30 621 C 54.0436 4.47774 0.142381 0
M  V30 622 C 55.7876 3.82094 1.84944 0
M  V30 623 C 53.6946 5.87162 0.706727 0
M  V30 624 H 52.6246 0.713368 0.244176 0
M  V30 625 H 55.2756 1.8323 -0.0994323 0
M  V30 626 H 53.6576 3.42313 1.99092 0
M  V30 627 H 54.8316 4.56469 -0.630296 0
M  V30 628 H 53.1466 4.14352 -0.412446 0
M  V30 629 H 55.7436 4.83591 2.2813 0
M  V30 630 H 56.0866 3.17386 2.69392 0
M  V30 631 H 56.6196 3.81665 1.12145 0
M  V30 632 H 53.3586 6.55424 -0.0997178 0
M  V30 633 H 52.8786 5.82064 1.44779 0
M  V30 634 H 54.5576 6.35866 1.19514 0
M  V30 635 N 54.6897 -0.239769 1.55765 0
M  V30 636 C 55.6397 -1.30002 1.87306 0
M  V30 637 C 56.6237 -1.43156 0.73452 0
M  V30 638 O 57.8157 -1.46277 0.99659 0
M  V30 639 C 54.9447 -2.65409 2.17745 0
M  V30 640 C 54.0307 -2.56231 3.37945 0
M  V30 641 N 54.4217 -2.16689 4.57033 0
M  V30 642 C 52.7197 -2.87229 3.41197 0
M  V30 643 C 53.4207 -2.18318 5.39177 0
M  V30 644 N 52.3967 -2.58098 4.78421 0
M  V30 645 H 56.1987 -0.984912 2.76906 0
M  V30 646 H 53.7127 -0.448381 1.56087 0
M  V30 647 H 55.7097 -3.41934 2.38509 0
M  V30 648 H 54.3697 -2.97781 1.29448 0
M  V30 649 H 55.3807 -1.88116 4.82528 0
M  V30 650 H 52.0577 -3.24094 2.63191 0
M  V30 651 H 53.4477 -1.90025 6.44469 0
M  V30 652 N 56.1678 -1.49265 -0.50573 0
M  V30 653 C 57.5788 -1.51769 -1.08734 0
M  V30 654 C 57.9298 -0.301192 -1.93874 0
M  V30 655 O 57.0548 0.589456 -2.08217 0
M  V30 656 C 57.6498 -2.75017 -1.97867 0
M  V30 657 C 56.2088 -2.80314 -2.51199 0
M  V30 658 C 55.3558 -2.4562 -1.28709 0
M  V30 659 H 58.3068 -1.56031 -0.289855 0
M  V30 660 H 58.3278 -2.5491 -2.82491 0
M  V30 661 H 57.8398 -3.63539 -1.35873 0
M  V30 662 H 55.9408 -1.96061 -3.16845 0
M  V30 663 H 56.0538 -3.82366 -2.88675 0
M  V30 664 H 54.4178 -1.97297 -1.61078 0
M  V30 665 H 55.2008 -3.36411 -0.6843 0
M  V30 666 N 57.6459 0.756429 -1.3826 0
M  V30 667 C 58.8919 1.51772 -1.34511 0
M  V30 668 C 59.2249 1.94089 0.0656691 0
M  V30 669 O 58.4999 1.65221 1.02626 0
M  V30 670 C 58.7829 2.77226 -2.29821 0
M  V30 671 C 58.6359 2.41065 -3.79747 0
M  V30 672 C 59.9549 3.79236 -2.23312 0
M  V30 673 H 57.0739 0.550578 -0.489931 0
M  V30 674 H 59.7159 0.866607 -1.69086 0
M  V30 675 H 57.8659 3.32784 -2.00467 0
M  V30 676 H 59.5379 1.91303 -4.19763 0
M  V30 677 H 57.7809 1.7356 -3.97567 0
M  V30 678 H 58.4519 3.3081 -4.41892 0
M  V30 679 H 60.9279 3.3321 -2.49219 0
M  V30 680 H 59.8039 4.64714 -2.92116 0
M  V30 681 H 60.0649 4.24615 -1.23102 0
M  V30 682 N 59.124 1.23083 0.984299 0
M  V30 683 C 60.034 1.02515 2.11016 0
M  V30 684 C 61.05 -0.0291702 1.73976 0
M  V30 685 O 62.226 0.165434 2.00719 0
M  V30 686 C 59.291 0.614673 3.41208 0
M  V30 687 C 58.352 1.74359 3.92297 0
M  V30 688 C 57.585 1.35261 5.16275 0
M  V30 689 O 57.808 0.235136 5.69915 0
M  V30 690 O 56.742 2.17227 5.61334 0
M  V30 691 H 60.568 1.96862 2.31255 0
M  V30 692 H 58.153 1.01753 1.09392 0
M  V30 693 H 60.035 0.396518 4.1953 0
M  V30 694 H 58.71 -0.299851 3.22308 0
M  V30 695 H 57.617 2.01635 3.1511 0
M  V30 696 H 58.95 2.63629 4.15645 0
M  V30 697 N 60.6021 -1.18246 1.0419 0
M  V30 698 C 61.8271 -1.92736 0.765996 0
M  V30 699 C 62.2521 -1.75728 -0.67091 0
M  V30 700 O 61.6101 -1.06825 -1.46486 0
M  V30 701 C 61.6581 -3.42148 1.13875 0
M  V30 702 O 60.7621 -4.11548 0.264954 0
M  V30 703 H 60.1031 -0.601238 0.281797 0
M  V30 704 H 62.6331 -1.49942 1.39207 0
M  V30 705 H 62.6431 -3.92858 1.1012 0
M  V30 706 H 61.3181 -3.53848 2.18551 0
M  V30 707 H 59.8951 -3.71137 0.362226 0
M  V30 708 N 62.0802 -0.821533 -1.34494 0
M  V30 709 C 63.0432 -0.247847 -2.27856 0
M  V30 710 C 64.0432 0.573453 -1.50227 0
M  V30 711 O 65.2332 0.389759 -1.69784 0
M  V30 712 C 62.3652 0.652698 -3.34593 0
M  V30 713 H 63.5582 -1.07146 -2.80107 0
M  V30 714 H 61.1112 -0.593291 -1.44602 0
M  V30 715 H 61.8462 1.49943 -2.87555 0
M  V30 716 H 61.6312 0.065292 -3.92046 0
M  V30 717 H 63.1212 1.04793 -4.04238 0
M  V30 718 N 63.5583 1.46682 -0.576371 0
M  V30 719 C 64.5053 2.30241 0.160499 0
M  V30 720 C 65.4753 1.40233 0.890162 0
M  V30 721 O 66.6603 1.69186 0.882084 0
M  V30 722 C 63.8003 3.24578 1.1723 0
M  V30 723 C 62.9133 4.29684 0.446736 0
M  V30 724 C 62.0483 5.11154 1.44551 0
M  V30 725 C 61.0873 6.08015 0.70599 0
M  V30 726 N 60.2243 6.82376 1.65251 0
M  V30 727 H 65.0643 2.92727 -0.558127 0
M  V30 728 H 62.6013 1.44272 -0.287056 0
M  V30 729 H 64.5593 3.77711 1.77172 0
M  V30 730 H 63.1893 2.63916 1.85872 0
M  V30 731 H 62.2413 3.79458 -0.267594 0
M  V30 732 H 63.5533 4.98626 -0.131686 0
M  V30 733 H 62.7073 5.68533 2.11791 0
M  V30 734 H 61.4463 4.42158 2.05786 0
M  V30 735 H 60.4513 5.49796 0.0197725 0
M  V30 736 H 61.6763 6.79028 0.09912 0
M  V30 737 H 59.6223 6.16094 2.25308 0
M  V30 738 H 59.5393 7.47556 1.12673 0
M  V30 739 H 60.8073 7.44316 2.31546 0
M  V30 740 N 65.0364 0.313813 1.54444 0
M  V30 741 C 66.2854 -0.292519 1.99568 0
M  V30 742 C 66.5984 -1.54011 1.20582 0
M  V30 743 O 67.8044 -2.22183 1.56035 0
M  V30 744 C 66.2604 -0.571752 3.55329 0
M  V30 745 C 65.8684 0.658229 4.43138 0
M  V30 746 C 67.6124 -1.13857 4.08946 0
M  V30 747 C 65.5194 0.351439 5.90355 0
M  V30 748 H 64.4494 -0.113079 0.745472 0
M  V30 749 H 67.1004 0.424518 1.78522 0
M  V30 750 H 65.4824 -1.34872 3.72325 0
M  V30 751 H 66.6564 1.43403 4.37918 0
M  V30 752 H 64.9714 1.14458 4.0036 0
M  V30 753 H 67.5684 -1.38257 5.16516 0
M  V30 754 H 67.9114 -2.08489 3.6033 0
M  V30 755 H 68.4444 -0.423015 3.95544 0
M  V30 756 H 65.1834 1.26667 6.43145 0
M  V30 757 H 64.7034 -0.386842 5.98551 0
M  V30 758 H 66.3824 -0.0423134 6.46986 0
M  V30 759 N 66.5145 -1.57545 0.0417849 0
M  V30 760 C 67.4245 -2.14451 -0.951213 0
M  V30 761 C 68.4405 -1.09992 -1.34825 0
M  V30 762 O 69.6165 -1.42114 -1.42708 0
M  V30 763 C 66.6815 -2.67063 -2.21084 0
M  V30 764 C 65.7425 -3.86284 -1.87304 0
M  V30 765 C 64.9755 -4.36378 -3.07261 0
M  V30 766 O 65.1985 -3.85587 -4.20332 0
M  V30 767 O 64.1325 -5.28077 -2.88822 0
M  V30 768 H 67.9585 -2.99601 -0.497287 0
M  V30 769 H 65.5435 -1.48317 -0.179567 0
M  V30 770 H 67.4255 -3.00914 -2.95006 0
M  V30 771 H 66.1005 -1.84989 -2.65633 0
M  V30 772 H 65.0075 -3.57338 -1.10727 0
M  V30 773 H 66.3405 -4.6956 -1.47562 0
M  V30 774 N 67.9926 0.231505 -1.5589 0
M  V30 775 C 69.4036 0.799327 -1.68724 0
M  V30 776 C 69.7546 1.85398 -0.642022 0
M  V30 777 O 68.8796 2.1539 0.208784 0
M  V30 778 C 69.4746 1.45664 -3.05888 0
M  V30 779 C 68.0336 1.97197 -3.20609 0
M  V30 780 C 67.1806 0.828552 -2.64632 0
M  V30 781 H 70.1316 0.00702616 -1.58698 0
M  V30 782 H 70.1526 2.32517 -3.01191 0
M  V30 783 H 69.6646 0.688808 -3.81939 0
M  V30 784 H 67.7656 2.76813 -2.4941 0
M  V30 785 H 67.8786 2.15878 -4.27707 0
M  V30 786 H 66.2426 1.23321 -2.22854 0
M  V30 787 H 67.0256 0.0735544 -3.43221 0
M  V30 788 N 69.4707 1.49531 0.497807 0
M  V30 789 C 70.8817 1.52344 1.07927 0
M  V30 790 C 71.2327 0.311469 1.93712 0
M  V30 791 O 70.3577 -0.578405 2.08527 0
M  V30 792 C 70.9527 2.76062 1.96405 0
M  V30 793 C 69.5117 2.81643 2.49709 0
M  V30 794 C 68.6587 2.46299 1.27404 0
M  V30 795 H 71.6097 1.56182 0.281576 0
M  V30 796 H 71.6307 2.56405 2.81135 0
M  V30 797 H 71.1427 3.64254 1.33943 0
M  V30 798 H 69.2437 1.97739 3.15801 0
M  V30 799 H 69.3567 3.83891 2.86643 0
M  V30 800 H 67.7207 1.98148 1.60029 0
M  V30 801 H 68.5037 3.36769 0.66645 0
M  V30 802 N 70.9488 -0.749086 1.3866 0
M  V30 803 C 72.2258 -1.4992 1.25632 0
M  V30 804 C 72.6058 -2.10633 -0.140317 0
M  V30 805 O 71.9538 -1.97437 -1.15025 0
M  V30 806 C 72.1638 -2.56195 2.36992 0
M  V30 807 C 73.5118 -3.22972 2.75634 0
M  V30 808 O 74.5358 -2.66502 2.36337 0
M  V30 809 O 73.3948 -4.25122 3.43415 0
M  V30 810 H 70.4888 -0.665067 0.491544 0
M  V30 811 H 73.0348 -0.784113 1.50498 0
M  V30 812 H 71.8068 -2.09612 3.30422 0
M  V30 813 H 71.4298 -3.35279 2.13714 0
M  V30 814 N 72.4269 -1.23603 -0.977757 0
M  V30 815 C 73.6549 -1.09646 -1.75458 0
M  V30 816 C 74.0699 0.351859 -1.85492 0
M  V30 817 O 73.4269 1.24327 -1.336 0
M  V30 818 C 73.4779 -1.71895 -3.18016 0
M  V30 819 O 73.1989 -3.11063 -3.08498 0
M  V30 820 C 74.6999 -1.63415 -4.12081 0
M  V30 821 H 71.9199 -0.38359 -0.550545 0
M  V30 822 H 74.4639 -1.63507 -1.22824 0
M  V30 823 H 72.6189 -1.22061 -3.67668 0
M  V30 824 H 73.0329 -3.41305 -3.9826 0
M  V30 825 H 74.5069 -2.11669 -5.09804 0
M  V30 826 H 74.9839 -0.593462 -4.35172 0
M  V30 827 H 75.5899 -2.12628 -3.68334 0
M  V30 828 N 73.905 1.17692 -1.04816 0
M  V30 829 C 75.153 1.87488 -0.754497 0
M  V30 830 C 75.474 1.81205 0.720407 0
M  V30 831 O 74.744 1.23544 1.52032 0
M  V30 832 H 73.324 0.694101 -0.276102 0
M  V30 833 H 75.986 1.42793 -1.32651 0
M  V30 834 H 75.082 2.93328 -1.06606 0
M  V30 835 N 75.3831 0.828654 1.34056 0
M  V30 836 C 76.3131 0.269443 2.3194 0
M  V30 837 C 77.2941 -0.617247 1.58506 0
M  V30 838 O 78.4791 -0.542931 1.86456 0
M  V30 839 C 75.6091 -0.564793 3.42677 0
M  V30 840 C 74.5631 0.225241 4.27407 0
M  V30 841 C 73.8891 -0.7321 5.29664 0
M  V30 842 C 75.1891 1.43663 5.02154 0
M  V30 843 H 76.8831 1.08728 2.7896 0
M  V30 844 H 74.4291 0.524283 1.34117 0
M  V30 845 H 76.3821 -0.966233 4.10173 0
M  V30 846 H 75.1061 -1.41574 2.9432 0
M  V30 847 H 73.7651 0.608117 3.61521 0
M  V30 848 H 73.4131 -1.57916 4.77568 0
M  V30 849 H 73.1131 -0.20767 5.87233 0
M  V30 850 H 74.6371 -1.13128 6.00029 0
M  V30 851 H 76.0511 1.1089 5.62473 0
M  V30 852 H 74.4481 1.89711 5.69324 0
M  V30 853 H 75.5181 2.21181 4.31517 0
M  V30 854 N 76.8612 -1.46375 0.584142 0
M  V30 855 C 78.0912 -2.06461 0.0758195 0
M  V30 856 C 78.4992 -1.43322 -1.23512 0
M  V30 857 O 77.8422 -0.533216 -1.75791 0
M  V30 858 C 77.9042 -3.59131 -0.162773 0
M  V30 859 C 77.5682 -4.4447 1.06279 0
M  V30 860 C 78.5652 -4.80918 1.97519 0
M  V30 861 C 76.2502 -4.85584 1.28504 0
M  V30 862 C 78.2442 -5.57309 3.09331 0
M  V30 863 C 75.9312 -5.61734 2.4062 0
M  V30 864 C 76.9292 -5.9751 3.30863 0
M  V30 865 O 76.6172 -6.72121 4.41032 0
M  V30 866 H 76.3492 -0.673745 0.0551725 0
M  V30 867 H 78.9032 -1.88969 0.804984 0
M  V30 868 H 77.1332 -3.74936 -0.946565 0
M  V30 869 H 78.8222 -4.0114 -0.619782 0
M  V30 870 H 79.5882 -4.49732 1.81565 0
M  V30 871 H 75.4672 -4.57187 0.591702 0
M  V30 872 H 79.0112 -5.85152 3.79793 0
M  V30 873 H 74.9082 -5.92334 2.56537 0
M  V30 874 H 75.6762 -6.90547 4.39417 0
M  V30 875 N 78.3393 -0.321999 -1.54275 0
M  V30 876 C 79.5693 0.282642 -2.04658 0
M  V30 877 C 79.9773 1.46453 -1.19784 0
M  V30 878 O 79.3203 1.82367 -0.220932 0
M  V30 879 C 79.3823 0.781857 -3.50895 0
M  V30 880 C 79.0463 -0.277517 -4.56157 0
M  V30 881 C 80.0433 -1.11307 -5.07845 0
M  V30 882 C 77.7283 -0.425256 -5.00497 0
M  V30 883 C 79.7223 -2.08211 -6.02434 0
M  V30 884 C 77.4093 -1.39771 -5.94901 0
M  V30 885 C 78.4073 -2.2246 -6.45756 0
M  V30 886 O 78.0953 -3.18054 -7.38307 0
M  V30 887 H 77.8273 0.0622636 -0.673126 0
M  V30 888 H 80.3813 -0.465792 -2.00049 0
M  V30 889 H 78.6113 1.58118 -3.52896 0
M  V30 890 H 80.3003 1.30467 -3.84361 0
M  V30 891 H 81.0663 -1.00991 -4.74369 0
M  V30 892 H 76.9453 0.20847 -4.60528 0
M  V30 893 H 80.4893 -2.72791 -6.42052 0
M  V30 894 H 76.3863 -1.50152 -6.27794 0
M  V30 895 H 77.1543 -3.13275 -7.56175 0
M  V30 896 N 79.8174 1.5752 -0.0501392 0
M  V30 897 C 81.0944 1.83996 0.663685 0
M  V30 898 C 81.4744 0.938339 1.89099 0
M  V30 899 O 80.8224 -0.00087759 2.285 0
M  V30 900 C 81.0324 3.33702 1.02196 0
M  V30 901 C 82.3804 4.00691 1.40469 0
M  V30 902 O 83.4044 3.38321 1.11433 0
M  V30 903 O 82.2634 5.10658 1.94654 0
M  V30 904 H 79.3574 0.759385 0.32751 0
M  V30 905 H 81.9034 1.69514 -0.0794238 0
M  V30 906 H 80.6754 3.91015 0.149364 0
M  V30 907 H 80.2984 3.53368 1.82255 0
M  V30 908 N 81.2955 -0.223234 1.56011 0
M  V30 909 C 82.2055 -1.29766 1.95443 0
M  V30 910 C 83.2215 -1.51373 0.858028 0
M  V30 911 O 84.3975 -1.64536 1.16146 0
M  V30 912 C 81.4625 -2.62772 2.26167 0
M  V30 913 C 80.5235 -2.49482 3.49367 0
M  V30 914 C 79.7565 -3.76145 3.78616 0
M  V30 915 O 79.9795 -4.79087 3.09568 0
M  V30 916 O 78.9135 -3.73358 4.72109 0
M  V30 917 H 82.7395 -0.99309 2.87004 0
M  V30 918 H 80.3245 -0.425958 1.43199 0
M  V30 919 H 82.2065 -3.41327 2.47131 0
M  V30 920 H 80.8815 -2.92913 1.37781 0
M  V30 921 H 79.7885 -1.69133 3.33684 0
M  V30 922 H 81.1215 -2.2428 4.38131 0
M  V30 923 N 82.7736 -1.49793 -0.48987 0
M  V30 924 C 84.0036 -1.6333 -1.26518 0
M  V30 925 C 84.4116 -0.308392 -1.8667 0
M  V30 926 O 83.7546 0.717512 -1.69108 0
M  V30 927 C 83.8166 -2.6522 -2.4269 0
M  V30 928 C 83.4806 -4.09279 -2.03321 0
M  V30 929 C 84.4776 -4.95738 -1.56652 0
M  V30 930 C 82.1626 -4.55082 -2.12616 0
M  V30 931 C 84.1566 -6.26041 -1.19795 0
M  V30 932 C 81.8436 -5.85396 -1.75371 0
M  V30 933 C 82.8416 -6.707 -1.29036 0
M  V30 934 O 82.5296 -7.98584 -0.92299 0
M  V30 935 H 82.2616 -0.552502 -0.389509 0
M  V30 936 H 84.8156 -1.96642 -0.593381 0
M  V30 937 H 83.0456 -2.27112 -3.12981 0
M  V30 938 H 84.7346 -2.68171 -3.04695 0
M  V30 939 H 85.5006 -4.61575 -1.48908 0
M  V30 940 H 81.3796 -3.88844 -2.47631 0
M  V30 941 H 84.9236 -6.92578 -0.835582 0
M  V30 942 H 80.8206 -6.19085 -1.82768 0
M  V30 943 H 81.5886 -8.11692 -1.05349 0
M  V30 944 N 84.2517 0.741722 -1.39055 0
M  V30 945 C 85.1817 1.869 -1.39966 0
M  V30 946 C 86.1627 1.6804 -0.26392 0
M  V30 947 O 87.3477 1.88458 -0.468755 0
M  V30 948 C 84.4777 3.24572 -1.23574 0
M  V30 949 C 83.4317 3.58056 -2.34477 0
M  V30 950 C 82.7577 4.94593 -2.0318 0
M  V30 951 C 84.0577 3.61716 -3.76774 0
M  V30 952 H 85.7517 1.86395 -2.34302 0
M  V30 953 H 83.2977 0.895361 -1.1278 0
M  V30 954 H 85.2507 4.031 -1.22834 0
M  V30 955 H 83.9747 3.25587 -0.257045 0
M  V30 956 H 82.6337 2.81854 -2.34423 0
M  V30 957 H 82.2817 4.92181 -1.03765 0
M  V30 958 H 81.9817 5.17964 -2.77465 0
M  V30 959 H 83.5057 5.75486 -2.04079 0
M  V30 960 H 84.9197 4.30335 -3.78794 0
M  V30 961 H 83.3167 3.96603 -4.50362 0
M  V30 962 H 84.3867 2.61672 -4.08235 0
M  V30 963 N 85.7298 1.2412 0.971189 0
M  V30 964 C 86.6768 1.0305 2.06517 0
M  V30 965 C 87.6468 -0.0550666 1.66009 0
M  V30 966 O 88.8318 0.0988688 1.90544 0
M  V30 967 C 85.9718 0.637653 3.39158 0
M  V30 968 C 85.0848 1.79633 3.92882 0
M  V30 969 C 84.2198 1.34939 5.13775 0
M  V30 970 C 83.2588 2.47823 5.59687 0
M  V30 971 N 82.3958 2.04022 6.71803 0
M  V30 972 H 87.2358 1.96685 2.23873 0
M  V30 973 H 84.7728 0.979694 1.09729 0
M  V30 974 H 86.7308 0.390931 4.15364 0
M  V30 975 H 85.3608 -0.261693 3.21737 0
M  V30 976 H 84.4128 2.15681 3.13346 0
M  V30 977 H 85.7248 2.64466 4.22918 0
M  V30 978 H 84.8788 1.06134 5.97345 0
M  V30 979 H 83.6178 0.471557 4.85415 0
M  V30 980 H 82.6228 2.77392 4.74693 0
M  V30 981 H 83.8478 3.36158 5.90063 0
M  V30 982 H 81.7938 1.18632 6.45184 0
M  V30 983 H 81.7108 2.82409 7.01271 0
M  V30 984 H 82.9788 1.78347 7.58823 0
M  V30 985 N 87.2079 -1.17134 1.05439 0
M  V30 986 C 88.1399 -2.2078 0.615539 0
M  V30 987 C 89.1529 -1.59584 -0.322001 0
M  V30 988 O 90.3419 -1.78133 -0.114344 0
M  V30 989 C 87.4419 -3.38691 -0.118938 0
M  V30 990 C 86.6149 -4.29454 0.829924 0
M  V30 991 C 85.6739 -5.26024 0.136258 0
M  V30 992 O 84.6999 -5.63952 0.77115 0
M  V30 993 N 85.9019 -5.69487 -1.1254 0
M  V30 994 H 88.6669 -2.59052 1.50705 0
M  V30 995 H 86.2279 -1.32058 0.936603 0
M  V30 996 H 88.2199 -4.00329 -0.593179 0
M  V30 997 H 86.7899 -2.98996 -0.91215 0
M  V30 998 H 86.0099 -3.65211 1.48373 0
M  V30 999 H 87.2979 -4.86984 1.47392 0
M  V30 1000 H 86.6959 -5.4075 -1.6615 0
M  V30 1001 H 85.2529 -6.33257 -1.54366 0
M  V30 1002 N 88.686 -0.835752 -1.33615 0
M  V30 1003 C 89.932 -0.430596 -1.98176 0
M  V30 1004 C 90.265 1.00684 -1.66061 0
M  V30 1005 O 89.54 1.70339 -0.938877 0
M  V30 1006 C 89.823 -0.648065 -3.5422 0
M  V30 1007 C 89.676 -2.13255 -3.96033 0
M  V30 1008 C 90.995 -0.0922113 -4.40003 0
M  V30 1009 H 88.114 -0.157924 -0.719881 0
M  V30 1010 H 90.756 -1.05069 -1.58305 0
M  V30 1011 H 88.906 -0.120237 -3.88314 0
M  V30 1012 H 90.578 -2.725 -3.72211 0
M  V30 1013 H 88.821 -2.61823 -3.45878 0
M  V30 1014 H 89.492 -2.23547 -5.04708 0
M  V30 1015 H 91.968 -0.543343 -4.12537 0
M  V30 1016 H 90.844 -0.274083 -5.48215 0
M  V30 1017 H 91.105 1.00378 -4.30554 0
M  V30 1018 N 90.1641 1.46063 -0.591896 0
M  V30 1019 C 91.4131 2.01547 -0.0786637 0
M  V30 1020 C 91.7261 1.46796 1.29268 0
M  V30 1021 O 92.9321 1.94157 1.89777 0
M  V30 1022 C 91.3881 3.59787 -0.0900024 0
M  V30 1023 C 90.9961 4.23534 -1.46023 0
M  V30 1024 C 92.7401 4.22895 0.368806 0
M  V30 1025 C 90.6471 5.73881 -1.4288 0
M  V30 1026 H 89.5771 0.753564 -0.0256388 0
M  V30 1027 H 92.2281 1.677 -0.744905 0
M  V30 1028 H 90.6101 3.90752 0.642586 0
M  V30 1029 H 91.7841 4.04167 -2.21328 0
M  V30 1030 H 90.0991 3.72558 -1.85982 0
M  V30 1031 H 92.6961 5.33116 0.411258 0
M  V30 1032 H 93.0391 3.9247 1.38827 0
M  V30 1033 H 93.5721 3.9659 -0.31001 0
M  V30 1034 H 90.3111 6.0898 -2.42536 0
M  V30 1035 H 89.8311 5.95486 -0.718095 0
M  V30 1036 H 91.5101 6.36776 -1.14565 0
M  V30 1037 N 91.6422 0.330177 1.54103 0
M  V30 1038 C 92.9192 -0.325007 1.92881 0
M  V30 1039 C 93.2992 -1.6934 1.26045 0
M  V30 1040 O 92.6472 -2.24855 0.406526 0
M  V30 1041 C 92.8572 -0.410634 3.46576 0
M  V30 1042 C 94.2052 -0.667801 4.19316 0
M  V30 1043 O 95.2292 -0.49329 3.52768 0
M  V30 1044 O 94.0882 -1.00491 5.37181 0
M  V30 1045 H 91.1822 -0.186873 0.80561 0
M  V30 1046 H 93.7282 0.380376 1.65382 0
M  V30 1047 H 92.5002 0.550164 3.87413 0
M  V30 1048 H 92.1232 -1.16333 3.802 0
M  V30 1049 N 93.1203 -1.57491 0.0584922 0
M  V30 1050 C 94.3663 -1.93264 -0.614558 0
M  V30 1051 C 94.6993 -0.937717 -1.7006 0
M  V30 1052 O 93.9743 0.0351652 -1.94468 0
M  V30 1053 C 94.2573 -3.3938 -1.20386 0
M  V30 1054 C 94.1103 -4.49625 -0.125375 0
M  V30 1055 C 95.4293 -3.86039 -2.11334 0
M  V30 1056 H 92.5483 -0.702791 -0.221933 0
M  V30 1057 H 95.1903 -1.8961 0.12175 0
M  V30 1058 H 93.3403 -3.42626 -1.83139 0
M  V30 1059 H 95.0123 -4.58506 0.506971 0
M  V30 1060 H 93.2553 -4.30354 0.545672 0
M  V30 1061 H 93.9263 -5.48967 -0.577861 0
M  V30 1062 H 96.4023 -3.84716 -1.58534 0
M  V30 1063 H 95.2783 -4.88914 -2.49507 0
M  V30 1064 H 95.5393 -3.23215 -3.01636 0
M  V30 1065 N 94.5984 0.214957 -1.56127 0
M  V30 1066 C 95.5284 1.2695 -1.95974 0
M  V30 1067 C 96.5094 1.48539 -0.828868 0
M  V30 1068 O 97.6944 1.60611 -1.09168 0
M  V30 1069 C 94.8244 2.61794 -2.28214 0
M  V30 1070 C 93.7784 2.54851 -3.43853 0
M  V30 1071 C 93.1044 3.93785 -3.61715 0
M  V30 1072 C 94.4044 2.09065 -4.78632 0
M  V30 1073 H 96.0984 0.93846 -2.84312 0
M  V30 1074 H 93.6444 0.449996 -1.36788 0
M  V30 1075 H 95.5974 3.35731 -2.54682 0
M  V30 1076 H 94.3214 2.96599 -1.36736 0
M  V30 1077 H 92.9804 1.8337 -3.17444 0
M  V30 1078 H 92.6284 4.25908 -2.67602 0
M  V30 1079 H 92.3284 3.90019 -4.39498 0
M  V30 1080 H 93.8524 4.69374 -3.90539 0
M  V30 1081 H 95.2664 2.7275 -5.04262 0
M  V30 1082 H 93.6634 2.16346 -5.59745 0
M  V30 1083 H 94.7334 1.04315 -4.73547 0
M  V30 1084 N 96.0765 1.50051 0.48192 0
M  V30 1085 C 96.9865 1.7089 1.60728 0
M  V30 1086 C 98.0025 0.591788 1.63627 0
M  V30 1087 O 99.1785 0.868817 1.81696 0
M  V30 1088 C 96.2435 1.78855 2.97005 0
M  V30 1089 C 95.3045 3.02537 3.04581 0
M  V30 1090 C 94.5375 3.10112 4.34357 0
M  V30 1091 O 94.7605 2.24765 5.24249 0
M  V30 1092 O 93.6945 4.02747 4.47301 0
M  V30 1093 H 97.5205 2.66264 1.46072 0
M  V30 1094 H 95.1055 1.34018 0.660264 0
M  V30 1095 H 96.9875 1.86336 3.77964 0
M  V30 1096 H 95.6625 0.866628 3.11883 0
M  V30 1097 H 94.5695 3.00563 2.22739 0
M  V30 1098 H 95.9025 3.94272 2.94636 0
M  V30 1099 N 97.5546 -0.734337 1.39446 0
M  V30 1100 C 98.7826 -1.52358 1.39981 0
M  V30 1101 C 99.1976 -1.88799 -0.0054975 0
M  V30 1102 O 98.5546 -1.54146 -0.976998 0
M  V30 1103 C 98.6056 -2.81072 2.27333 0
M  V30 1104 O 98.3266 -2.46178 3.62392 0
M  V30 1105 C 99.8276 -3.75096 2.36259 0
M  V30 1106 H 97.0476 -0.470806 0.478103 0
M  V30 1107 H 99.5916 -0.907339 1.83269 0
M  V30 1108 H 97.7466 -3.39026 1.87457 0
M  V30 1109 H 98.1606 -3.28866 4.08592 0
M  V30 1110 H 99.6346 -4.62305 3.01626 0
M  V30 1111 H 100.112 -4.16892 1.38194 0
M  V30 1112 H 100.718 -3.23061 2.76608 0
M  V30 1113 N 99.0327 -1.24633 -0.964593 0
M  V30 1114 C 100.31 -0.995809 -1.68354 0
M  V30 1115 C 100.69 0.480964 -2.05548 0
M  V30 1116 O 100.038 1.45599 -1.76105 0
M  V30 1117 C 100.248 -1.92177 -2.91323 0
M  V30 1118 C 101.596 -2.19446 -3.63495 0
M  V30 1119 O 102.62 -1.89855 -3.01386 0
M  V30 1120 O 101.479 -2.69714 -4.75307 0
M  V30 1121 H 98.5727 -0.376854 -0.736146 0
M  V30 1122 H 101.119 -1.35745 -1.0184 0
M  V30 1123 H 99.8907 -2.91938 -2.60553 0
M  V30 1124 H 99.5137 -1.56349 -3.65569 0
M  V30 1125 N 100.511 1.16574 -1.06058 0
M  V30 1126 C 101.458 2.20883 -0.669263 0
M  V30 1127 C 102.428 1.62729 0.332918 0
M  V30 1128 O 103.613 1.895 0.222346 0
M  V30 1129 C 100.753 3.45049 -0.0593572 0
M  V30 1130 C 99.8658 4.17458 -1.11143 0
M  V30 1131 C 99.0008 5.29135 -0.467916 0
M  V30 1132 C 98.0398 5.93343 -1.50369 0
M  V30 1133 N 97.1768 6.96516 -0.883706 0
M  V30 1134 H 102.017 2.53709 -1.5632 0
M  V30 1135 H 99.5538 1.24616 -0.781625 0
M  V30 1136 H 101.512 4.16033 0.311771 0
M  V30 1137 H 100.142 3.12781 0.797992 0
M  V30 1138 H 99.1938 3.45101 -1.60029 0
M  V30 1139 H 100.506 4.61307 -1.89731 0
M  V30 1140 H 99.6598 6.06684 -0.0436871 0
M  V30 1141 H 98.3988 4.86443 0.349864 0
M  V30 1142 H 97.4038 5.14517 -1.93784 0
M  V30 1143 H 98.6288 6.38114 -2.32352 0
M  V30 1144 H 96.5748 6.55943 -0.086595 0
M  V30 1145 H 96.4918 7.38723 -1.607 0
M  V30 1146 H 97.7598 7.77993 -0.484543 0
M  V30 1147 N 101.989 0.842826 1.3317 0
M  V30 1148 C 102.939 0.250877 2.26616 0
M  V30 1149 C 103.923 -0.596427 1.49437 0
M  V30 1150 O 105.115 -0.447747 1.71243 0
M  V30 1151 C 102.244 -0.569779 3.38539 0
M  V30 1152 C 101.33 0.289254 4.23112 0
M  V30 1153 N 101.721 1.36987 4.86897 0
M  V30 1154 C 100.019 0.0769631 4.45934 0
M  V30 1155 C 100.72 1.89737 5.49886 0
M  V30 1156 N 99.6959 1.19827 5.30229 0
M  V30 1157 H 103.498 1.07718 2.73448 0
M  V30 1158 H 101.012 0.687693 1.47121 0
M  V30 1159 H 103.009 -1.01018 4.04476 0
M  V30 1160 H 101.669 -1.39401 2.93253 0
M  V30 1161 H 102.68 1.75277 4.87338 0
M  V30 1162 H 99.3569 -0.713507 4.11358 0
M  V30 1163 H 100.747 2.80253 6.10662 0
M  V30 1164 N 103.467 -1.45747 0.599634 0
M  V30 1165 C 104.714 -2.02292 0.0917284 0
M  V30 1166 C 105.042 -1.46906 -1.27472 0
M  V30 1167 O 104.297 -0.630652 -1.8526 0
M  V30 1168 C 104.596 -3.57399 -0.00602758 0
M  V30 1169 C 104.262 -4.31902 1.29503 0
M  V30 1170 C 102.924 -4.51974 1.65144 0
M  V30 1171 C 105.276 -4.74551 2.15525 0
M  V30 1172 C 102.604 -5.11949 2.86574 0
M  V30 1173 C 104.956 -5.35868 3.36196 0
M  V30 1174 C 103.62 -5.54165 3.72099 0
M  V30 1175 H 102.89 -0.740239 0.0335658 0
M  V30 1176 H 105.537 -1.7491 0.779661 0
M  V30 1177 H 103.842 -3.84014 -0.777183 0
M  V30 1178 H 105.539 -3.98846 -0.415038 0
M  V30 1179 H 102.129 -4.16588 1.00761 0
M  V30 1180 H 106.313 -4.58784 1.8929 0
M  V30 1181 H 101.569 -5.24305 3.14507 0
M  V30 1182 H 105.743 -5.6787 4.03109 0
M  V30 1183 H 103.37 -6.00406 4.6628 0
M  V30 1184 N 104.945 -0.338344 -1.53925 0
M  V30 1185 C 106.361 0.0137736 -1.59594 0
M  V30 1186 C 106.561 1.49186 -1.35447 0
M  V30 1187 O 105.617 2.24987 -1.14616 0
M  V30 1188 C 106.93 -0.41773 -2.97784 0
M  V30 1189 C 108.478 -0.369633 -3.1081 0
M  V30 1190 C 108.953 -0.776524 -4.51369 0
M  V30 1191 N 110.444 -0.730506 -4.57403 0
M  V30 1192 C 111.179 -1.01736 -5.64303 0
M  V30 1193 N 110.675 -1.3721 -6.79077 0
M  V30 1194 N 112.468 -0.941942 -5.54151 0
M  V30 1195 H 104.619 -1.3012 -1.67876 0
M  V30 1196 H 106.882 -0.530082 -0.78595 0
M  V30 1197 H 106.588 -1.44811 -3.20504 0
M  V30 1198 H 106.462 0.209729 -3.76616 0
M  V30 1199 H 108.849 0.651568 -2.87817 0
M  V30 1200 H 108.93 -1.03223 -2.34049 0
M  V30 1201 H 108.574 -1.79571 -4.75096 0
M  V30 1202 H 108.504 -0.0914649 -5.26521 0
M  V30 1203 H 110.995 -0.468783 -3.74981 0
M  V30 1204 H 111.308 -1.57597 -7.5656 0
M  V30 1205 H 109.653 -1.4105 -6.80536 0
M  V30 1206 H 112.844 -0.664184 -4.63364 0
M  V30 1207 H 113.017 -1.16884 -6.37371 0
M  V30 1208 N 106.423 1.57458 -0.0668435 0
M  V30 1209 C 107.333 2.15937 0.916975 0
M  V30 1210 C 108.349 1.12123 1.33058 0
M  V30 1211 O 109.525 1.44366 1.40429 0
M  V30 1212 C 106.59 2.70547 2.16807 0
M  V30 1213 C 105.651 3.89215 1.81135 0
M  V30 1214 C 104.884 4.41211 3.0028 0
M  V30 1215 O 105.107 3.92225 4.14144 0
M  V30 1216 O 104.041 5.32605 2.80384 0
M  V30 1217 H 107.867 3.00354 0.449561 0
M  V30 1218 H 105.452 1.48584 0.155949 0
M  V30 1219 H 107.334 3.0557 2.90181 0
M  V30 1220 H 106.009 1.89192 2.62656 0
M  V30 1221 H 104.916 3.59054 1.05028 0
M  V30 1222 H 106.249 4.71848 1.40073 0
M  V30 1223 N 107.901 -0.206675 1.56239 0
M  V30 1224 C 108.848 -1.25617 1.93621 0
M  V30 1225 C 109.818 -1.45824 0.795274 0
M  V30 1226 O 111.003 -1.59148 1.05245 0
M  V30 1227 C 108.143 -2.59839 2.27107 0
M  V30 1228 C 107.256 -2.47308 3.54207 0
M  V30 1229 C 106.391 -3.74155 3.7707 0
M  V30 1230 C 105.43 -3.56407 4.97635 0
M  V30 1231 N 104.567 -4.75238 5.1681 0
M  V30 1232 H 109.407 -0.930383 2.83104 0
M  V30 1233 H 106.944 -0.448065 1.4011 0
M  V30 1234 H 108.902 -3.38021 2.44535 0
M  V30 1235 H 107.532 -2.90485 1.40778 0
M  V30 1236 H 106.584 -1.60483 3.4489 0
M  V30 1237 H 107.896 -2.30122 4.42544 0
M  V30 1238 H 107.05 -4.60778 3.94675 0
M  V30 1239 H 105.789 -3.94282 2.87042 0
M  V30 1240 H 104.794 -2.68168 4.79964 0
M  V30 1241 H 106.019 -3.37736 5.89161 0
M  V30 1242 H 103.965 -4.95651 4.29728 0
M  V30 1243 H 103.882 -4.60835 5.99306 0
M  V30 1244 H 105.15 -5.63246 5.38864 0
M  V30 1245 N 109.379 -1.50304 -0.473955 0
M  V30 1246 C 110.309 -1.71886 -1.58042 0
M  V30 1247 C 111.29 -0.567799 -1.60344 0
M  V30 1248 O 112.475 -0.806623 -1.76656 0
M  V30 1249 C 109.605 -1.81036 -2.96384 0
M  V30 1250 C 108.559 -2.962 -3.08949 0
M  V30 1251 C 107.885 -2.9049 -4.48909 0
M  V30 1252 C 109.185 -4.36752 -2.86434 0
M  V30 1253 H 110.879 -2.64527 -1.40234 0
M  V30 1254 H 108.425 -1.27295 -0.673201 0
M  V30 1255 H 110.378 -1.94719 -3.73714 0
M  V30 1256 H 109.102 -0.850147 -3.15341 0
M  V30 1257 H 107.761 -2.82164 -2.3405 0
M  V30 1258 H 107.409 -1.92321 -4.64781 0
M  V30 1259 H 107.109 -3.67802 -4.58253 0
M  V30 1260 H 108.633 -3.06218 -5.28264 0
M  V30 1261 H 110.047 -4.5133 -3.53517 0
M  V30 1262 H 108.444 -5.15493 -3.07225 0
M  V30 1263 H 109.514 -4.49321 -1.82316 0
M  V30 1264 N 110.857 0.726932 -1.39834 0
M  V30 1265 C 111.789 1.85147 -1.35104 0
M  V30 1266 C 112.802 1.60736 -0.258392 0
M  V30 1267 O 113.991 1.70821 -0.517931 0
M  V30 1268 C 111.091 3.21332 -1.07697 0
M  V30 1269 C 110.264 3.73033 -2.28396 0
M  V30 1270 C 109.323 4.87802 -1.97322 0
M  V30 1271 O 108.349 5.01043 -2.70083 0
M  V30 1272 N 109.551 5.72768 -0.944273 0
M  V30 1273 H 112.316 1.89706 -2.32017 0
M  V30 1274 H 109.877 0.908006 -1.3404 0
M  V30 1275 H 111.869 3.95691 -0.849144 0
M  V30 1276 H 110.439 3.11992 -0.194909 0
M  V30 1277 H 109.659 2.89934 -2.6708 0
M  V30 1278 H 110.947 4.0431 -3.08887 0
M  V30 1279 H 110.345 5.64669 -0.341427 0
M  V30 1280 H 108.902 6.4716 -0.776346 0
M  V30 1281 N 112.336 1.25143 0.95797 0
M  V30 1282 C 113.283 1.05235 2.05412 0
M  V30 1283 C 114.253 -0.0374561 1.66058 0
M  V30 1284 O 115.438 0.119073 1.90428 0
M  V30 1285 C 112.578 0.673589 3.38462 0
M  V30 1286 C 111.691 1.8379 3.90954 0
M  V30 1287 C 110.826 1.40381 5.12315 0
M  V30 1288 C 109.865 2.53746 5.57027 0
M  V30 1289 N 109.002 2.11136 6.69601 0
M  V30 1290 H 113.842 1.99048 2.21774 0
M  V30 1291 H 111.379 0.991277 1.08683 0
M  V30 1292 H 113.337 0.434964 4.14926 0
M  V30 1293 H 111.967 -0.227554 3.21997 0
M  V30 1294 H 111.019 2.18992 3.11041 0
M  V30 1295 H 112.331 2.68937 4.20089 0
M  V30 1296 H 111.485 1.12464 5.96185 0
M  V30 1297 H 110.224 0.523015 4.84887 0
M  V30 1298 H 109.229 2.82412 4.71724 0
M  V30 1299 H 110.454 3.42398 5.86464 0
M  V30 1300 H 108.4 1.25468 6.4389 0
M  V30 1301 H 108.317 2.89832 6.98236 0
M  V30 1302 H 109.585 1.86385 7.56889 0
M  V30 1303 N 113.814 -1.1601 1.06675 0
M  V30 1304 C 114.777 -2.18724 0.685001 0
M  V30 1305 C 115.777 -1.58496 -0.271246 0
M  V30 1306 O 116.967 -1.74119 -0.0531156 0
M  V30 1307 C 114.099 -3.40899 0.00853648 0
M  V30 1308 H 115.292 -2.54011 1.59431 0
M  V30 1309 H 112.845 -1.30352 0.862441 0
M  V30 1310 H 113.58 -3.11173 -0.913337 0
M  V30 1311 H 113.365 -3.8587 0.696204 0
M  V30 1312 H 114.855 -4.16886 -0.24414 0
M  V30 1313 N 115.292 -0.849877 -1.32721 0
M  V30 1314 C 116.569 -0.372405 -1.92022 0
M  V30 1315 C 116.949 1.1435 -1.77447 0
M  V30 1316 O 116.297 1.96296 -1.16962 0
M  V30 1317 C 116.507 -0.831482 -3.3895 0
M  V30 1318 C 117.855 -0.845882 -4.16089 0
M  V30 1319 O 118.879 -0.775806 -3.47649 0
M  V30 1320 O 117.738 -0.943753 -5.38289 0
M  V30 1321 H 114.832 -0.107667 -0.819961 0
M  V30 1322 H 117.378 -0.93646 -1.41522 0
M  V30 1323 H 116.15 -1.87448 -3.4348 0
M  V30 1324 H 115.773 -0.24461 -3.96847 0
M  V30 1325 N 116.77 1.45427 -0.607355 0
M  V30 1326 C 118.019 2.01452 -0.100036 0
M  V30 1327 C 118.332 1.48159 1.27704 0
M  V30 1328 O 119.538 1.96159 1.87707 0
M  V30 1329 C 117.994 3.59672 -0.128158 0
M  V30 1330 C 117.602 4.21962 -1.50507 0
M  V30 1331 C 119.346 4.23262 0.323932 0
M  V30 1332 C 117.253 5.72333 -1.48959 0
M  V30 1333 H 116.183 0.75325 -0.0336299 0
M  V30 1334 H 118.834 1.66901 -0.76265 0
M  V30 1335 H 117.216 3.91411 0.601105 0
M  V30 1336 H 118.39 4.01796 -2.25602 0
M  V30 1337 H 116.705 3.70565 -1.89923 0
M  V30 1338 H 119.302 5.33522 0.354691 0
M  V30 1339 H 119.645 3.93921 1.34656 0
M  V30 1340 H 120.178 3.96239 -0.352056 0
M  V30 1341 H 116.917 6.06373 -2.48981 0
M  V30 1342 H 116.437 5.94691 -0.781214 0
M  V30 1343 H 118.116 6.35525 -1.21313 0
M  V30 1344 N 118.248 0.346503 1.53744 0
M  V30 1345 C 119.158 -0.517293 2.28826 0
M  V30 1346 C 120.174 -1.10935 1.3405 0
M  V30 1347 O 121.35 -1.1244 1.6709 0
M  V30 1348 C 118.415 -1.65098 3.04866 0
M  V30 1349 C 117.476 -1.0884 4.15274 0
M  V30 1350 C 116.709 -2.16806 4.87679 0
M  V30 1351 O 116.932 -3.3758 4.59778 0
M  V30 1352 O 115.866 -1.80934 5.74061 0
M  V30 1353 H 119.692 0.0931396 3.03557 0
M  V30 1354 H 117.277 0.111458 1.48984 0
M  V30 1355 H 119.159 -2.31053 3.5241 0
M  V30 1356 H 117.834 -2.24717 2.32989 0
M  V30 1357 H 116.741 -0.3933 3.72027 0
M  V30 1358 H 118.074 -0.537036 4.89261 0
M  V30 1359 N 119.726 -1.57421 0.075193 0
M  V30 1360 C 120.636 -2.1642 -0.905511 0
M  V30 1361 C 121.652 -1.12828 -1.32461 0
M  V30 1362 O 122.828 -1.45109 -1.39661 0
M  V30 1363 C 119.893 -2.71693 -2.15369 0
M  V30 1364 C 118.954 -3.90171 -1.79068 0
M  V30 1365 C 118.187 -4.42798 -2.97936 0
M  V30 1366 O 118.41 -3.94416 -4.12058 0
M  V30 1367 O 117.344 -5.34085 -2.77555 0
M  V30 1368 H 121.17 -3.00588 -0.433626 0
M  V30 1369 H 118.755 -1.48664 -0.148067 0
M  V30 1370 H 120.637 -3.07104 -2.88557 0
M  V30 1371 H 119.312 -1.90582 -2.61649 0
M  V30 1372 H 118.219 -3.59606 -1.03122 0
M  V30 1373 H 119.552 -4.72584 -1.37569 0
M  V30 1374 N 121.204 0.198386 -1.56346 0
M  V30 1375 C 122.453 0.917451 -1.79627 0
M  V30 1376 C 122.766 1.8456 -0.64784 0
M  V30 1377 O 123.972 2.60504 -0.764859 0
M  V30 1378 C 122.428 1.68175 -3.18191 0
M  V30 1379 C 122.036 0.798589 -4.40825 0
M  V30 1380 C 123.78 2.39065 -3.50782 0
M  V30 1381 C 121.687 1.56157 -5.70411 0
M  V30 1382 H 120.617 0.346317 -0.669762 0
M  V30 1383 H 123.268 0.170801 -1.82703 0
M  V30 1384 H 121.65 2.47216 -3.09354 0
M  V30 1385 H 122.824 0.0470665 -4.60776 0
M  V30 1386 H 121.139 0.200686 -4.15916 0
M  V30 1387 H 123.736 2.96692 -4.44835 0
M  V30 1388 H 124.079 3.13091 -2.74371 0
M  V30 1389 H 124.612 1.66993 -3.61052 0
M  V30 1390 H 121.351 0.864142 -6.49779 0
M  V30 1391 H 120.871 2.2871 -5.54483 0
M  V30 1392 H 122.55 2.11622 -6.11412 0
M  V30 1393 N 122.682 1.50554 0.465978 0
M  V30 1394 C 123.629 1.6979 1.56333 0
M  V30 1395 C 124.599 0.539239 1.57103 0
M  V30 1396 O 125.784 0.770401 1.74555 0
M  V30 1397 C 122.924 1.80273 2.94271 0
M  V30 1398 C 122.037 3.07674 3.0325 0
M  V30 1399 C 121.172 3.08922 4.32135 0
M  V30 1400 C 120.211 4.30755 4.34875 0
M  V30 1401 N 119.348 4.29714 5.55239 0
M  V30 1402 H 124.188 2.63472 1.39235 0
M  V30 1403 H 121.725 1.30602 0.676873 0
M  V30 1404 H 123.683 1.84332 3.74269 0
M  V30 1405 H 122.313 0.900258 3.09992 0
M  V30 1406 H 121.365 3.13062 2.16094 0
M  V30 1407 H 122.677 3.97642 3.01135 0
M  V30 1408 H 121.831 3.11738 5.20485 0
M  V30 1409 H 120.57 2.16792 4.36866 0
M  V30 1410 H 119.575 4.28146 3.44922 0
M  V30 1411 H 120.8 5.24117 4.31831 0
M  V30 1412 H 118.746 3.4044 5.60746 0
M  V30 1413 H 118.663 5.13456 5.54886 0
M  V30 1414 H 119.931 4.36683 6.457 0
M  V30 1415 N 124.16 -0.719506 1.40217 0
M  V30 1416 C 125.385 -1.51371 1.4178 0
M  V30 1417 C 125.81 -1.88091 0.0182355 0
M  V30 1418 O 125.168 -1.52997 -0.972707 0
M  V30 1419 C 125.216 -2.768 2.31115 0
M  V30 1420 O 124.32 -3.73349 1.7517 0
M  V30 1421 H 123.661 -0.456529 0.482159 0
M  V30 1422 H 126.191 -0.88644 1.844 0
M  V30 1423 H 126.201 -3.25371 2.46167 0
M  V30 1424 H 124.876 -2.49407 3.3282 0
M  V30 1425 H 123.453 -3.32179 1.69444 0
M  V30 1426 N 125.638 -1.25649 -0.95132 0
M  V30 1427 C 126.886 -1.10375 -1.69298 0
M  V30 1428 C 127.207 0.355339 -1.91735 0
M  V30 1429 O 126.477 1.25188 -1.50681 0
M  V30 1430 H 125.057 -0.405461 -0.627384 0
M  V30 1431 H 127.719 -1.57823 -1.14358 0
M  V30 1432 H 126.815 -1.61465 -2.67087 0
M  V30 1433 N 127.117 1.15442 -1.07289 0
M  V30 1434 C 128.533 1.38201 -0.798288 0
M  V30 1435 C 128.733 1.92429 0.597769 0
M  V30 1436 O 127.789 2.12962 1.3566 0
M  V30 1437 C 129.102 2.35357 -1.87156 0
M  V30 1438 C 130.65 2.49021 -1.89624 0
M  V30 1439 C 131.125 3.49468 -2.96034 0
M  V30 1440 N 132.616 3.57003 -2.95132 0
M  V30 1441 C 133.351 4.34543 -3.74112 0
M  V30 1442 N 132.847 5.15421 -4.6294 0
M  V30 1443 N 134.64 4.29625 -3.62462 0
M  V30 1444 H 126.791 0.78584 -1.97328 0
M  V30 1445 H 129.054 0.408065 -0.855679 0
M  V30 1446 H 128.76 2.02626 -2.87464 0
M  V30 1447 H 128.634 3.35129 -1.73114 0
M  V30 1448 H 131.021 2.81051 -0.899687 0
M  V30 1449 H 131.102 1.4925 -2.07745 0
M  V30 1450 H 130.746 3.18173 -3.95889 0
M  V30 1451 H 130.676 4.48992 -2.75161 0
M  V30 1452 H 133.167 2.99276 -2.30743 0
M  V30 1453 H 133.48 5.7183 -5.19837 0
M  V30 1454 H 131.825 5.14729 -4.66989 0
M  V30 1455 H 135.016 3.65505 -2.92444 0
M  V30 1456 H 135.189 4.89807 -4.24256 0
M  V30 1457 N 128.595 0.856903 1.32268 0
M  V30 1458 C 129.525 0.31858 2.31316 0
M  V30 1459 C 130.506 -0.583487 1.59779 0
M  V30 1460 O 131.691 -0.503259 1.87566 0
M  V30 1461 C 128.821 -0.491979 3.43798 0
M  V30 1462 C 127.775 0.315849 4.26833 0
M  V30 1463 C 127.101 -0.619586 5.31098 0
M  V30 1464 C 128.401 1.54282 4.98993 0
M  V30 1465 H 130.095 1.14621 2.76591 0
M  V30 1466 H 127.641 0.552613 1.32974 0
M  V30 1467 H 129.594 -0.879012 4.1213 0
M  V30 1468 H 128.318 -1.35299 2.97257 0
M  V30 1469 H 126.977 0.684664 3.6015 0
M  V30 1470 H 126.625 -1.47751 4.8081 0
M  V30 1471 H 126.325 -0.0830621 5.87541 0
M  V30 1472 H 127.849 -1.00375 6.02293 0
M  V30 1473 H 129.263 1.22796 5.59995 0
M  V30 1474 H 127.66 2.01745 5.65172 0
M  V30 1475 H 128.73 2.30285 4.26728 0
M  V30 1476 N 130.073 -1.45103 0.615059 0
M  V30 1477 C 131.298 -2.07064 0.117988 0
M  V30 1478 C 131.723 -1.4554 -1.19163 0
M  V30 1479 O 131.081 -0.550855 -1.72729 0
M  V30 1480 C 131.129 -3.606 -0.000288387 0
M  V30 1481 O 130.233 -3.98847 -1.04856 0
M  V30 1482 H 129.574 -0.659467 0.0774581 0
M  V30 1483 H 132.104 -1.86236 0.847186 0
M  V30 1484 H 132.114 -4.07529 -0.196091 0
M  V30 1485 H 130.789 -4.04765 0.955932 0
M  V30 1486 H 129.366 -3.63577 -0.828619 0
M  V30 1487 N 131.551 -0.354651 -1.53558 0
M  V30 1488 C 132.498 0.496968 -2.25386 0
M  V30 1489 C 133.468 1.0865 -1.25636 0
M  V30 1490 O 134.653 1.12104 -1.54394 0
M  V30 1491 C 131.793 1.63637 -3.03837 0
M  V30 1492 C 130.906 1.07307 -4.18461 0
M  V30 1493 C 130.041 2.18068 -4.84376 0
M  V30 1494 C 129.08 1.59147 -5.91049 0
M  V30 1495 N 128.217 2.63695 -6.50699 0
M  V30 1496 H 133.057 -0.122075 -2.9775 0
M  V30 1497 H 130.594 -0.0720154 -1.46924 0
M  V30 1498 H 132.552 2.30734 -3.47589 0
M  V30 1499 H 131.182 2.22623 -2.33749 0
M  V30 1500 H 130.234 0.292708 -3.79272 0
M  V30 1501 H 131.546 0.602193 -4.95152 0
M  V30 1502 H 130.7 2.93007 -5.31255 0
M  V30 1503 H 129.439 2.68504 -4.07133 0
M  V30 1504 H 128.444 0.827175 -5.43542 0
M  V30 1505 H 129.669 1.09549 -6.70206 0
M  V30 1506 H 127.615 3.13365 -5.76315 0
M  V30 1507 H 127.532 2.21263 -7.22896 0
M  V30 1508 H 128.8 3.3837 -7.02229 0
M  V30 1509 N 133.029 1.57378 -0.0835403 0
M  V30 1510 C 133.939 2.16897 0.894021 0
M  V30 1511 C 134.955 1.13528 1.31861 0
M  V30 1512 O 136.131 1.45848 1.3889 0
M  V30 1513 C 133.196 2.72831 2.13925 0
M  V30 1514 C 132.257 3.91115 1.76997 0
M  V30 1515 C 131.49 4.44371 2.95584 0
M  V30 1516 O 131.713 3.96596 4.09961 0
M  V30 1517 O 130.647 5.35549 2.74719 0
M  V30 1518 H 134.473 3.00814 0.417679 0
M  V30 1519 H 132.058 1.48741 0.140181 0
M  V30 1520 H 133.94 3.0863 2.86924 0
M  V30 1521 H 132.615 1.91967 2.60635 0
M  V30 1522 H 131.522 3.60148 1.01214 0
M  V30 1523 H 132.855 4.73307 1.3506 0
M  V30 1524 N 134.507 -0.190092 1.56449 0
M  V30 1525 C 135.437 -1.23816 1.97969 0
M  V30 1526 C 136.418 -1.47201 0.852395 0
M  V30 1527 O 137.603 -1.58854 1.1171 0
M  V30 1528 C 134.733 -2.5813 2.3235 0
M  V30 1529 C 133.687 -2.49348 3.47864 0
M  V30 1530 C 133.013 -3.8798 3.67934 0
M  V30 1531 C 134.313 -2.01424 4.81898 0
M  V30 1532 H 136.007 -0.89311 2.85769 0
M  V30 1533 H 133.553 -0.428177 1.37487 0
M  V30 1534 H 135.506 -3.31637 2.59991 0
M  V30 1535 H 134.23 -2.94386 1.41438 0
M  V30 1536 H 132.889 -1.78297 3.20321 0
M  V30 1537 H 132.537 -4.21597 2.74344 0
M  V30 1538 H 132.237 -3.82978 4.45648 0
M  V30 1539 H 133.761 -4.63101 3.97957 0
M  V30 1540 H 135.175 -2.64693 5.08538 0
M  V30 1541 H 133.572 -2.07413 5.63116 0
M  V30 1542 H 134.642 -0.967677 4.75146 0
M  V30 1543 N 135.985 -1.50799 -0.457987 0
M  V30 1544 C 137.262 -1.52968 -1.21902 0
M  V30 1545 C 137.642 -0.281906 -2.09209 0
M  V30 1546 O 136.99 0.734076 -2.16388 0
M  V30 1547 C 137.2 -2.8326 -2.03875 0
M  V30 1548 C 138.548 -3.34425 -2.6162 0
M  V30 1549 O 139.572 -2.8467 -2.14106 0
M  V30 1550 O 138.431 -4.21188 -3.48228 0
M  V30 1551 H 135.525 -0.614129 -0.553873 0
M  V30 1552 H 138.071 -1.63098 -0.468739 0
M  V30 1553 H 136.843 -3.65543 -1.39621 0
M  V30 1554 H 136.466 -2.76195 -2.8601 0
M  V30 1555 N 137.463 0.71206 -1.40597 0
M  V30 1556 C 138.393 1.83889 -1.43899 0
M  V30 1557 C 139.374 1.67442 -0.299504 0
M  V30 1558 O 140.559 1.87421 -0.508624 0
M  V30 1559 C 137.689 3.21877 -1.30431 0
M  V30 1560 C 136.643 3.53002 -2.42019 0
M  V30 1561 C 135.969 4.90172 -2.13626 0
M  V30 1562 C 137.269 3.53643 -3.84362 0
M  V30 1563 H 138.963 1.81383 -2.38203 0
M  V30 1564 H 136.509 0.871237 -1.14654 0
M  V30 1565 H 138.462 4.00404 -1.31357 0
M  V30 1566 H 137.186 3.24968 -0.326049 0
M  V30 1567 H 135.845 2.76818 -2.40349 0
M  V30 1568 H 135.493 4.89869 -1.14182 0
M  V30 1569 H 135.193 5.11962 -2.88389 0
M  V30 1570 H 136.717 5.71028 -2.1624 0
M  V30 1571 H 138.131 4.22203 -3.87837 0
M  V30 1572 H 136.528 3.86961 -4.58673 0
M  V30 1573 H 137.598 2.52954 -4.13693 0
M  V30 1574 N 138.941 1.26152 0.944643 0
M  V30 1575 C 140.187 1.11657 1.69294 0
M  V30 1576 C 140.52 -0.339926 1.91202 0
M  V30 1577 O 139.795 -1.24994 1.49019 0
M  V30 1578 C 140.078 1.88236 3.06984 0
M  V30 1579 C 139.931 3.41772 2.92424 0
M  V30 1580 C 141.25 1.67343 4.07043 0
M  V30 1581 H 138.369 0.407004 0.614424 0
M  V30 1582 H 141.011 1.55106 1.09737 0
M  V30 1583 H 139.161 1.51308 3.57824 0
M  V30 1584 H 140.833 3.88433 2.48832 0
M  V30 1585 H 139.076 3.68974 2.28124 0
M  V30 1586 H 139.747 3.90579 3.90067 0
M  V30 1587 H 142.223 1.99509 3.65151 0
M  V30 1588 H 141.099 2.23346 5.01406 0
M  V30 1589 H 141.36 0.617158 4.37771 0
M  V30 1590 N 140.419 -1.14872 1.07899 0
M  V30 1591 C 141.644 -1.90202 0.826926 0
M  V30 1592 C 142.069 -1.77774 -0.614664 0
M  V30 1593 O 141.427 -1.11431 -1.43013 0
M  V30 1594 C 141.475 -3.38352 1.24702 0
M  V30 1595 O 140.579 -4.10497 0.39575 0
M  V30 1596 H 139.92 -0.591968 0.300782 0
M  V30 1597 H 142.45 -1.45437 1.43907 0
M  V30 1598 H 142.46 -3.89156 1.22563 0
M  V30 1599 H 141.135 -3.46715 2.29698 0
M  V30 1600 H 139.712 -3.69796 0.480117 0
M  V30 1601 N 141.898 -0.863906 -1.31812 0
M  V30 1602 C 142.848 -0.286898 -2.26188 0
M  V30 1603 C 143.832 0.572577 -1.50367 0
M  V30 1604 O 145.024 0.420447 -1.71934 0
M  V30 1605 C 142.153 0.515849 -3.39402 0
M  V30 1606 C 141.239 -0.356531 -4.22599 0
M  V30 1607 N 141.63 -1.44716 -4.84656 0
M  V30 1608 C 139.928 -0.147898 -4.45755 0
M  V30 1609 C 140.629 -1.98462 -5.46798 0
M  V30 1610 N 139.605 -1.28247 -5.28255 0
M  V30 1611 H 143.407 -1.12055 -2.717 0
M  V30 1612 H 140.921 -0.711012 -1.46008 0
M  V30 1613 H 142.918 0.945701 -4.06032 0
M  V30 1614 H 141.578 1.34718 -2.95434 0
M  V30 1615 H 142.589 -1.83008 -4.84488 0
M  V30 1616 H 139.266 0.647973 -4.12441 0
M  V30 1617 H 140.656 -2.89932 -6.06126 0
M  V30 1618 N 143.376 1.44774 -0.622745 0
M  V30 1619 C 144.326 2.2774 0.108889 0
M  V30 1620 C 145.31 1.38189 0.824175 0
M  V30 1621 O 146.502 1.62063 0.711664 0
M  V30 1622 C 143.631 3.25353 1.09546 0
M  V30 1623 C 142.717 4.22392 0.380232 0
M  V30 1624 N 143.108 5.02388 -0.586535 0
M  V30 1625 C 141.406 4.41588 0.625792 0
M  V30 1626 C 142.107 5.72894 -1.00834 0
M  V30 1627 N 141.083 5.42479 -0.348878 0
M  V30 1628 H 144.885 2.86993 -0.63341 0
M  V30 1629 H 142.399 1.5611 -0.447589 0
M  V30 1630 H 144.396 3.83538 1.63414 0
M  V30 1631 H 143.056 2.6766 1.83815 0
M  V30 1632 H 144.067 5.0885 -0.963975 0
M  V30 1633 H 140.744 3.95003 1.352 0
M  V30 1634 H 142.134 6.47158 -1.80656 0
M  V30 1635 N 144.854 0.36279 1.53368 0
M  V30 1636 C 146.1 -0.228113 2.01513 0
M  V30 1637 C 146.433 -1.48648 1.2497 0
M  V30 1638 O 145.708 -1.91459 0.342616 0
M  V30 1639 C 145.991 -0.522884 3.56284 0
M  V30 1640 C 145.844 0.74892 4.43521 0
M  V30 1641 C 147.163 -1.32461 4.19693 0
M  V30 1642 H 144.282 -0.0814343 0.732487 0
M  V30 1643 H 146.924 0.48713 1.83649 0
M  V30 1644 H 145.074 -1.1322 3.71636 0
M  V30 1645 H 146.746 1.38648 4.39971 0
M  V30 1646 H 144.989 1.36986 4.11603 0
M  V30 1647 H 145.66 0.497667 5.49752 0
M  V30 1648 H 148.136 -0.809203 4.08156 0
M  V30 1649 H 147.012 -1.49961 5.28018 0
M  V30 1650 H 147.273 -2.33232 3.75573 0
M  V30 1651 N 146.332 -1.57332 0.0918853 0
M  V30 1652 C 147.748 -1.57389 -0.264766 0
M  V30 1653 C 147.948 -1.10281 -1.68643 0
M  V30 1654 O 147.004 -0.777801 -2.40222 0
M  V30 1655 C 148.317 -3.00648 -0.0561195 0
M  V30 1656 C 149.865 -3.12754 -0.124116 0
M  V30 1657 C 150.34 -4.57965 0.0564972 0
M  V30 1658 N 151.831 -4.632 0.00155611 0
M  V30 1659 C 152.566 -5.73281 0.116598 0
M  V30 1660 N 152.062 -6.92208 0.286294 0
M  V30 1661 N 153.855 -5.6207 0.0580973 0
M  V30 1662 H 146.006 -1.86262 1.02079 0
M  V30 1663 H 148.269 -0.859579 0.399786 0
M  V30 1664 H 147.975 -3.393 0.925669 0
M  V30 1665 H 147.849 -3.68623 -0.799823 0
M  V30 1666 H 150.236 -2.73976 -1.09641 0
M  V30 1667 H 150.317 -2.47377 0.651024 0
M  V30 1668 H 149.961 -4.97436 1.02564 0
M  V30 1669 H 149.891 -5.21399 -0.738297 0
M  V30 1670 H 152.382 -3.77686 -0.127192 0
M  V30 1671 H 152.695 -7.71934 0.365676 0
M  V30 1672 H 151.04 -6.94254 0.32192 0
M  V30 1673 H 154.231 -4.68043 -0.0733204 0
M  V30 1674 H 154.404 -6.47824 0.151203 0
M  V30 1675 N 147.81 0.181792 -1.56548 0
M  V30 1676 C 149.038 0.915947 -1.85521 0
M  V30 1677 C 149.453 1.76282 -0.676016 0
M  V30 1678 O 148.81 1.79012 0.355077 0
M  V30 1679 C 148.861 1.80126 -3.13427 0
M  V30 1680 O 148.582 0.988562 -4.26801 0
M  V30 1681 C 150.083 2.64597 -3.55673 0
M  V30 1682 H 147.303 0.26661 -0.61576 0
M  V30 1683 H 149.847 0.185039 -2.03661 0
M  V30 1684 H 148.002 2.48563 -2.97145 0
M  V30 1685 H 148.416 1.59308 -4.99721 0
M  V30 1686 H 149.89 3.2235 -4.48101 0
M  V30 1687 H 150.367 3.38958 -2.79292 0
M  V30 1688 H 150.973 2.0151 -3.74532 0
M  V30 1689 N 149.288 1.51039 0.449983 0
M  V30 1690 C 150.235 1.71439 1.54523 0
M  V30 1691 C 151.205 0.555871 1.56522 0
M  V30 1692 O 152.39 0.788871 1.73728 0
M  V30 1693 C 149.53 1.83384 2.92343 0
M  V30 1694 C 148.643 3.10873 2.9997 0
M  V30 1695 C 147.778 3.13488 4.28834 0
M  V30 1696 C 146.817 4.35343 4.30282 0
M  V30 1697 N 145.954 4.35579 5.5065 0
M  V30 1698 H 150.794 2.64934 1.36433 0
M  V30 1699 H 148.331 1.31312 0.662982 0
M  V30 1700 H 150.289 1.88291 3.72293 0
M  V30 1701 H 148.919 0.933086 3.0902 0
M  V30 1702 H 147.971 3.15336 2.12761 0
M  V30 1703 H 149.283 4.00814 2.96901 0
M  V30 1704 H 148.437 3.17241 5.17149 0
M  V30 1705 H 147.176 2.21414 4.34543 0
M  V30 1706 H 146.181 4.3178 3.40362 0
M  V30 1707 H 147.406 5.28668 4.26248 0
M  V30 1708 H 145.352 3.46369 5.57104 0
M  V30 1709 H 145.269 5.19313 5.49409 0
M  V30 1710 H 146.537 4.43507 6.41032 0
M  V30 1711 N 150.766 -0.704594 1.40972 0
M  V30 1712 C 151.696 -1.83124 1.44872 0
M  V30 1713 C 152.677 -1.67281 0.30838 0
M  V30 1714 O 153.862 -1.87149 0.518556 0
M  V30 1715 C 150.992 -3.21181 1.32136 0
M  V30 1716 C 149.946 -3.51714 2.43888 0
M  V30 1717 C 149.272 -4.89032 2.16222 0
M  V30 1718 C 150.572 -3.516 3.86232 0
M  V30 1719 H 152.266 -1.80117 2.39161 0
M  V30 1720 H 149.812 -0.865145 1.15114 0
M  V30 1721 H 151.765 -3.99702 1.33479 0
M  V30 1722 H 150.489 -3.24791 0.343279 0
M  V30 1723 H 149.148 -2.75539 2.41813 0
M  V30 1724 H 148.796 -4.89256 1.16778 0
M  V30 1725 H 148.496 -5.10426 2.911 0
M  V30 1726 H 150.02 -5.69873 2.19265 0
M  V30 1727 H 151.434 -4.2014 3.9007 0
M  V30 1728 H 149.831 -3.84523 4.60719 0
M  V30 1729 H 150.901 -2.50757 4.15029 0
M  V30 1730 N 152.244 -1.26651 -0.937939 0
M  V30 1731 C 153.521 -1.0313 -1.66204 0
M  V30 1732 C 153.901 0.437256 -2.06522 0
M  V30 1733 O 153.249 1.41831 -1.79154 0
M  V30 1734 C 153.459 -1.98314 -2.87181 0
M  V30 1735 C 154.807 -2.27107 -3.58758 0
M  V30 1736 O 155.831 -1.96205 -2.97291 0
M  V30 1737 O 154.69 -2.79736 -4.69479 0
M  V30 1738 H 151.784 -0.392384 -0.727986 0
M  V30 1739 H 154.33 -1.37874 -0.989382 0
M  V30 1740 H 153.102 -2.97399 -2.54302 0
M  V30 1741 H 152.725 -1.64068 -3.6217 0
M  V30 1742 N 153.722 1.14298 -1.08507 0
M  V30 1743 C 154.632 2.23027 -0.727753 0
M  V30 1744 C 155.648 1.71952 0.26619 0
M  V30 1745 O 156.824 2.011 0.109882 0
M  V30 1746 C 153.889 3.46403 -0.143541 0
M  V30 1747 C 152.95 4.12413 -1.19223 0
M  V30 1748 C 152.183 5.29899 -0.635798 0
M  V30 1749 O 152.406 5.67796 0.544393 0
M  V30 1750 O 151.34 5.85717 -1.38634 0
M  V30 1751 H 155.166 2.55945 -1.63481 0
M  V30 1752 H 152.751 1.22248 -0.858817 0
M  V30 1753 H 154.633 4.21018 0.179404 0
M  V30 1754 H 153.308 3.15206 0.736659 0
M  V30 1755 H 152.215 3.39667 -1.56772 0
M  V30 1756 H 153.548 4.47718 -2.04474 0
M  V30 1757 N 155.201 0.870884 1.31352 0
M  V30 1758 C 156.131 0.343096 2.30966 0
M  V30 1759 C 157.112 -0.566507 1.60389 0
M  V30 1760 O 158.297 -0.483336 1.88089 0
M  V30 1761 C 155.427 -0.455487 3.443 0
M  V30 1762 C 154.381 0.361103 4.26474 0
M  V30 1763 C 153.707 -0.563221 5.31725 0
M  V30 1764 C 155.007 1.59566 4.97329 0
M  V30 1765 H 156.701 1.17548 2.75359 0
M  V30 1766 H 154.247 0.566686 1.32381 0
M  V30 1767 H 156.2 -0.83525 4.13039 0
M  V30 1768 H 154.924 -1.32139 2.98675 0
M  V30 1769 H 153.583 0.722825 3.59403 0
M  V30 1770 H 153.231 -1.42643 4.82351 0
M  V30 1771 H 152.931 -0.0207409 5.87596 0
M  V30 1772 H 154.455 -0.939808 6.03324 0
M  V30 1773 H 155.869 1.28728 5.58661 0
M  V30 1774 H 154.266 2.07728 5.63 0
M  V30 1775 H 155.336 2.34798 4.24262 0
M  V30 1776 N 156.679 -1.44442 0.630414 0
M  V30 1777 C 157.626 -2.30678 -0.0749355 0
M  V30 1778 C 158.596 -1.4344 -0.837502 0
M  V30 1779 O 159.781 -1.72343 -0.818684 0
M  V30 1780 C 156.921 -3.28706 -1.05103 0
M  V30 1781 C 156.034 -4.31046 -0.286954 0
M  V30 1782 C 155.169 -5.16167 -1.2548 0
M  V30 1783 C 154.208 -6.10216 -0.479843 0
M  V30 1784 N 153.345 -6.88039 -1.39811 0
M  V30 1785 H 158.185 -2.90454 0.666386 0
M  V30 1786 H 155.722 -1.43107 0.340404 0
M  V30 1787 H 157.68 -3.84027 -1.63031 0
M  V30 1788 H 156.31 -2.70632 -1.75949 0
M  V30 1789 H 155.362 -3.78203 0.408243 0
M  V30 1790 H 156.674 -4.97794 0.316657 0
M  V30 1791 H 155.828 -5.76002 -1.90544 0
M  V30 1792 H 154.567 -4.49491 -1.89233 0
M  V30 1793 H 153.572 -5.49491 0.184295 0
M  V30 1794 H 154.797 -6.78928 0.152965 0
M  V30 1795 H 152.743 -6.24032 -2.02287 0
M  V30 1796 H 152.66 -7.51223 -0.848508 0
M  V30 1797 H 153.928 -7.52397 -2.03762 0
M  V30 1798 N 158.157 -0.370918 -1.53173 0
M  V30 1799 C 159.573 -0.0200818 -1.59587 0
M  V30 1800 C 159.773 1.46279 -1.38581 0
M  V30 1801 O 158.829 2.22506 -1.19363 0
M  V30 1802 C 160.142 -0.4808 -2.96831 0
M  V30 1803 C 161.69 -0.435477 -3.09956 0
M  V30 1804 C 162.165 -0.872092 -4.4962 0
M  V30 1805 N 163.656 -0.827364 -4.55751 0
M  V30 1806 C 164.391 -1.13683 -5.62018 0
M  V30 1807 N 163.887 -1.51584 -6.76014 0
M  V30 1808 N 165.68 -1.05927 -5.52029 0
M  V30 1809 H 157.831 -1.33652 -1.65079 0
M  V30 1810 H 160.094 -0.546634 -0.774529 0
M  V30 1811 H 159.8 -1.51577 -3.1736 0
M  V30 1812 H 159.674 0.129796 -3.76977 0
M  V30 1813 H 162.061 0.590371 -2.89134 0
M  V30 1814 H 162.142 -1.08164 -2.31806 0
M  V30 1815 H 161.786 -1.89608 -4.71181 0
M  V30 1816 H 161.716 -0.203127 -5.26208 0
M  V30 1817 H 164.207 -0.548216 -3.73902 0
M  V30 1818 H 164.52 -1.73609 -7.53047 0
M  V30 1819 H 162.865 -1.55454 -6.77391 0
M  V30 1820 H 166.056 -0.762321 -4.61851 0
M  V30 1821 H 166.229 -1.30378 -6.34749 0
M  V30 1822 N 159.635 1.57281 -0.100228 0
M  V30 1823 C 160.567 2.11342 0.886972 0
M  V30 1824 C 161.58 1.05182 1.24261 0
M  V30 1825 O 162.769 1.32613 1.19483 0
M  V30 1826 C 159.869 2.5825 2.19454 0
M  V30 1827 C 159.042 3.88302 2.01346 0
M  V30 1828 C 158.101 4.21004 3.15661 0
M  V30 1829 O 157.127 4.9014 2.89398 0
M  V30 1830 N 158.329 3.76818 4.41575 0
M  V30 1831 H 161.094 2.96668 0.425216 0
M  V30 1832 H 158.655 1.61678 0.0847334 0
M  V30 1833 H 160.647 2.7717 2.94888 0
M  V30 1834 H 159.217 1.77907 2.57037 0
M  V30 1835 H 158.437 3.7848 1.10212 0
M  V30 1836 H 159.725 4.73375 1.8653 0
M  V30 1837 H 159.123 3.2102 4.65792 0
M  V30 1838 H 157.68 4.00882 5.13942 0
M  V30 1839 N 161.113 -0.173488 1.56642 0
M  V30 1840 C 162.023 -1.23482 1.99473 0
M  V30 1841 C 163.039 -1.48567 0.905752 0
M  V30 1842 O 164.215 -1.60758 1.21321 0
M  V30 1843 C 161.28 -2.55444 2.34413 0
M  V30 1844 C 160.341 -2.38241 3.57127 0
M  V30 1845 C 159.574 -3.63909 3.90392 0
M  V30 1846 O 159.797 -4.68996 3.24653 0
M  V30 1847 O 158.731 -3.58149 4.83749 0
M  V30 1848 H 162.557 -0.901279 2.90018 0
M  V30 1849 H 160.142 -0.380185 1.44482 0
M  V30 1850 H 162.024 -3.33292 2.57865 0
M  V30 1851 H 160.699 -2.88382 1.4703 0
M  V30 1852 H 159.606 -1.58431 3.38896 0
M  V30 1853 H 160.939 -2.10228 4.45045 0
M  V30 1854 N 162.591 -1.51276 -0.441967 0
M  V30 1855 C 163.837 -1.63958 -1.19355 0
M  V30 1856 C 164.17 -0.352543 -1.90973 0
M  V30 1857 O 163.445 0.647627 -1.83401 0
M  V30 1858 C 163.728 -2.83979 -2.21422 0
M  V30 1859 C 163.581 -4.22646 -1.53918 0
M  V30 1860 C 164.9 -2.99521 -3.22451 0
M  V30 1861 H 162.019 -0.596709 -0.432559 0
M  V30 1862 H 164.661 -1.83748 -0.483398 0
M  V30 1863 H 162.811 -2.67237 -2.81987 0
M  V30 1864 H 164.483 -4.51045 -0.967256 0
M  V30 1865 H 162.726 -4.25558 -0.841615 0
M  V30 1866 H 163.397 -5.02609 -2.28229 0
M  V30 1867 H 165.873 -3.14944 -2.71937 0
M  V30 1868 H 164.749 -3.85072 -3.91166 0
M  V30 1869 H 165.01 -2.11391 -3.88287 0
M  V30 1870 N 164.069 0.697108 -1.41344 0
M  V30 1871 C 165.317 1.45426 -1.40341 0
M  V30 1872 C 165.638 1.94996 -0.0128787 0
M  V30 1873 O 164.908 1.71599 0.945027 0
M  V30 1874 H 163.488 0.539594 -0.516573 0
M  V30 1875 H 166.15 0.825201 -1.76569 0
M  V30 1876 H 165.246 2.31817 -2.08967 0
M  V30 1877 N 165.547 1.27147 0.931209 0
M  V30 1878 C 166.963 1.04475 1.20653 0
M  V30 1879 C 167.163 -0.223885 2.00252 0
M  V30 1880 O 166.219 -0.930332 2.34736 0
M  V30 1881 C 167.532 2.28209 1.95809 0
M  V30 1882 C 169.08 2.33211 2.08762 0
M  V30 1883 C 169.555 3.56665 2.87323 0
M  V30 1884 N 171.046 3.57201 2.94892 0
M  V30 1885 C 171.781 4.49395 3.56134 0
M  V30 1886 N 171.277 5.51889 4.18796 0
M  V30 1887 N 173.07 4.37026 3.53504 0
M  V30 1888 H 165.221 2.08612 0.399333 0
M  V30 1889 H 167.484 0.917312 0.239253 0
M  V30 1890 H 167.19 3.20538 1.44736 0
M  V30 1891 H 167.064 2.33247 2.96438 0
M  V30 1892 H 169.451 1.41391 2.59023 0
M  V30 1893 H 169.532 2.32178 1.07364 0
M  V30 1894 H 169.176 4.4882 2.37746 0
M  V30 1895 H 169.106 3.54948 3.88998 0
M  V30 1896 H 171.597 2.83074 2.50354 0
M  V30 1897 H 171.91 6.18409 4.63454 0
M  V30 1898 H 170.255 5.55735 4.17353 0
M  V30 1899 H 173.446 3.56166 3.03749 0
M  V30 1900 H 173.619 5.09067 4.00942 0
M  V30 1901 N 167.025 -1.13721 1.09112 0
M  V30 1902 C 167.955 -2.21148 0.749385 0
M  V30 1903 C 168.936 -1.6792 -0.271475 0
M  V30 1904 O 170.121 -1.93693 -0.140251 0
M  V30 1905 C 167.251 -3.46905 0.165659 0
M  V30 1906 C 166.205 -4.13203 1.11567 0
M  V30 1907 C 165.531 -5.33248 0.393809 0
M  V30 1908 C 166.831 -4.60912 2.45678 0
M  V30 1909 H 168.525 -2.4999 1.64758 0
M  V30 1910 H 166.071 -1.20156 0.793626 0
M  V30 1911 H 168.024 -4.21313 -0.085466 0
M  V30 1912 H 166.748 -3.17449 -0.767714 0
M  V30 1913 H 165.407 -3.40758 1.35202 0
M  V30 1914 H 165.055 -5.00054 -0.543599 0
M  V30 1915 H 164.755 -5.78552 1.02721 0
M  V30 1916 H 166.279 -6.10413 0.150908 0
M  V30 1917 H 167.693 -5.26759 2.26269 0
M  V30 1918 H 166.09 -5.16944 3.04776 0
M  V30 1919 H 167.16 -3.75603 3.06677 0
M  V30 1920 N 168.503 -0.877838 -1.30888 0
M  V30 1921 C 169.919 -0.570844 -1.49042 0
M  V30 1922 C 170.119 0.893159 -1.80624 0
M  V30 1923 O 169.175 1.67485 -1.88958 0
M  V30 1924 C 170.488 -1.47784 -2.61878 0
M  V30 1925 C 172.036 -1.48071 -2.75761 0
M  V30 1926 C 172.511 -2.37347 -3.91702 0
M  V30 1927 N 174.002 -2.35271 -3.99001 0
M  V30 1928 C 174.737 -3.01063 -4.88004 0
M  V30 1929 N 174.233 -3.76055 -5.81854 0
M  V30 1930 N 176.026 -2.90332 -4.81315 0
M  V30 1931 H 168.177 -1.82502 -1.0866 0
M  V30 1932 H 170.44 -0.780797 -0.537644 0
M  V30 1933 H 170.146 -2.51993 -2.45341 0
M  V30 1934 H 170.02 -1.18215 -3.58197 0
M  V30 1935 H 172.407 -0.446166 -2.91708 0
M  V30 1936 H 172.488 -1.81668 -1.80085 0
M  V30 1937 H 172.132 -3.40883 -3.76512 0
M  V30 1938 H 172.062 -2.01071 -4.86701 0
M  V30 1939 H 174.553 -1.80768 -3.3186 0
M  V30 1940 H 174.866 -4.23366 -6.46514 0
M  V30 1941 H 173.211 -3.80163 -5.81808 0
M  V30 1942 H 176.402 -2.31278 -4.06974 0
M  V30 1943 H 176.575 -3.41885 -5.50471 0
M  V30 1944 N 169.982 1.44106 -0.638065 0
M  V30 1945 C 170.915 2.27924 0.112161 0
M  V30 1946 C 171.893 1.38945 0.844574 0
M  V30 1947 O 173.077 1.68386 0.847248 0
M  V30 1948 C 170.204 3.18029 1.16512 0
M  V30 1949 C 169.25 4.23163 0.532458 0
M  V30 1950 S 170.083 5.31131 -0.682666 0
M  V30 1951 C 171.239 6.24805 0.37013 0
M  V30 1952 H 171.472 2.91205 -0.598887 0
M  V30 1953 H 169.005 1.48394 -0.426441 0
M  V30 1954 H 170.963 3.70492 1.76766 0
M  V30 1955 H 169.624 2.53955 1.8484 0
M  V30 1956 H 168.817 4.86252 1.32571 0
M  V30 1957 H 168.419 3.74 0.00437644 0
M  V30 1958 H 170.711 6.66042 1.24071 0
M  V30 1959 H 171.654 7.07741 -0.225349 0
M  V30 1960 H 172.062 5.60154 0.699141 0
M  V30 1961 N 171.46 0.379036 1.52974 0
M  V30 1962 C 172.39 -0.452706 2.29069 0
M  V30 1963 C 173.371 -1.07237 1.32039 0
M  V30 1964 O 174.556 -1.08708 1.60923 0
M  V30 1965 C 171.686 -1.5856 3.08992 0
M  V30 1966 C 170.64 -1.0925 4.13822 0
M  V30 1967 C 169.966 -2.31668 4.81907 0
M  V30 1968 C 171.266 -0.167702 5.22031 0
M  V30 1969 H 172.96 0.182181 2.98845 0
M  V30 1970 H 170.506 0.0890592 1.43724 0
M  V30 1971 H 172.459 -2.1742 3.6098 0
M  V30 1972 H 171.183 -2.24792 2.36931 0
M  V30 1973 H 169.842 -0.526494 3.628 0
M  V30 1974 H 169.49 -2.96386 4.06404 0
M  V30 1975 H 169.19 -1.9934 5.52754 0
M  V30 1976 H 170.714 -2.91189 5.36695 0
M  V30 1977 H 172.128 -0.664186 5.6944 0
M  V30 1978 H 170.525 0.0653265 6.00064 0
M  V30 1979 H 171.595 0.786347 4.78482 0
M  V30 1980 N 172.938 -1.57226 0.108567 0
M  V30 1981 C 174.187 -1.94008 -0.551703 0
M  V30 1982 C 174.5 -0.993442 -1.68494 0
M  V30 1983 O 175.706 -1.25551 -2.40726 0
M  V30 1984 C 174.162 -3.44763 -1.03279 0
M  V30 1985 C 173.77 -4.47943 0.0714193 0
M  V30 1986 C 175.514 -3.90483 -1.66503 0
M  V30 1987 C 173.421 -5.89865 -0.425779 0
M  V30 1988 H 172.351 -0.724206 -0.209863 0
M  V30 1989 H 175.002 -1.82547 0.186741 0
M  V30 1990 H 173.384 -3.51422 -1.82533 0
M  V30 1991 H 174.558 -4.52942 0.847365 0
M  V30 1992 H 172.873 -4.11913 0.609669 0
M  V30 1993 H 175.47 -4.93925 -2.04798 0
M  V30 1994 H 175.813 -3.29877 -2.53942 0
M  V30 1995 H 176.346 -3.86581 -0.938074 0
M  V30 1996 H 173.085 -6.54202 0.412316 0
M  V30 1997 H 172.605 -5.88309 -1.16843 0
M  V30 1998 H 174.284 -6.40844 -0.890397 0
M  V30 1999 N 174.416 0.165178 -1.56732 0
M  V30 2000 C 175.363 1.2044 -1.96883 0
M  V30 2001 C 176.333 1.43664 -0.833657 0
M  V30 2002 O 177.518 1.56302 -1.09427 0
M  V30 2003 C 174.658 2.53727 -2.33916 0
M  V30 2004 C 173.771 2.3783 -3.6064 0
M  V30 2005 C 172.906 3.64026 -3.86857 0
M  V30 2006 C 171.945 3.43088 -5.06909 0
M  V30 2007 N 171.082 4.61369 -5.29229 0
M  V30 2008 H 175.922 0.854996 -2.85471 0
M  V30 2009 H 173.459 0.41076 -1.41249 0
M  V30 2010 H 175.417 3.31419 -2.53411 0
M  V30 2011 H 174.047 2.8665 -1.48431 0
M  V30 2012 H 173.099 1.51282 -3.49024 0
M  V30 2013 H 174.411 2.18308 -4.4849 0
M  V30 2014 H 173.565 4.50152 -4.06753 0
M  V30 2015 H 172.304 3.86533 -2.97394 0
M  V30 2016 H 171.309 2.55349 -4.86906 0
M  V30 2017 H 172.534 3.21997 -5.97909 0
M  V30 2018 H 170.48 4.84084 -4.42718 0
M  V30 2019 H 170.397 4.44783 -6.11313 0
M  V30 2020 H 171.665 5.48761 -5.53608 0
M  V30 2021 N 175.894 1.51508 0.433938 0
M  V30 2022 C 176.857 1.72473 1.50949 0
M  V30 2023 C 177.857 0.594725 1.49398 0
M  V30 2024 O 179.047 0.862315 1.5136 0
M  V30 2025 C 176.179 1.78431 2.90474 0
M  V30 2026 H 177.372 2.68467 1.33662 0
M  V30 2027 H 174.925 1.41549 0.662836 0
M  V30 2028 H 175.66 0.842645 3.13161 0
M  V30 2029 H 175.445 2.60558 2.93005 0
M  V30 2030 H 176.935 1.96479 3.68491 0
M  V30 2031 N 177.372 -0.689602 1.41712 0
M  V30 2032 C 178.319 -1.80345 1.44029 0
M  V30 2033 C 179.289 -1.63478 0.293948 0
M  V30 2034 O 180.474 -1.84244 0.495869 0
M  V30 2035 C 177.614 -3.18272 1.33405 0
M  V30 2036 C 176.727 -3.46529 2.57956 0
M  V30 2037 C 175.862 -4.74103 2.39582 0
M  V30 2038 C 174.901 -4.95347 3.5958 0
M  V30 2039 N 174.038 -6.14151 3.40239 0
M  V30 2040 H 178.878 -1.77698 2.39222 0
M  V30 2041 H 176.415 -0.867688 1.18784 0
M  V30 2042 H 178.373 -3.97956 1.25246 0
M  V30 2043 H 177.003 -3.2008 0.418164 0
M  V30 2044 H 176.055 -2.61207 2.76542 0
M  V30 2045 H 177.367 -3.58126 3.47199 0
M  V30 2046 H 176.521 -5.61853 2.28924 0
M  V30 2047 H 175.26 -4.64763 1.47805 0
M  V30 2048 H 174.265 -4.06044 3.70686 0
M  V30 2049 H 175.49 -5.06542 4.52318 0
M  V30 2050 H 173.436 -6.06013 2.51167 0
M  V30 2051 H 173.353 -6.26543 4.23061 0
M  V30 2052 H 174.621 -7.04619 3.33365 0
M  V30 2053 N 178.85 -1.27639 -0.924453 0
M  V30 2054 C 179.78 -1.13166 -2.04244 0
M  V30 2055 C 180.761 -0.032256 -1.70069 0
M  V30 2056 O 181.946 -0.207328 -1.9309 0
M  V30 2057 C 179.076 -0.781496 -3.38393 0
M  V30 2058 C 178.03 -1.83449 -3.86692 0
M  V30 2059 C 177.356 -1.33822 -5.17683 0
M  V30 2060 C 178.656 -3.23917 -4.09726 0
M  V30 2061 H 180.35 -2.06689 -2.1661 0
M  V30 2062 H 177.896 -0.995136 -1.04082 0
M  V30 2063 H 179.849 -0.667057 -4.16087 0
M  V30 2064 H 178.573 0.189439 -3.2605 0
M  V30 2065 H 177.232 -1.93789 -3.11193 0
M  V30 2066 H 176.88 -0.35665 -5.01734 0
M  V30 2067 H 176.58 -2.04224 -5.50968 0
M  V30 2068 H 178.104 -1.23679 -5.97943 0
M  V30 2069 H 179.518 -3.16559 -4.77978 0
M  V30 2070 H 177.915 -3.92059 -4.54324 0
M  V30 2071 H 178.985 -3.68729 -3.14908 0
M  V30 2072 N 180.328 1.1314 -1.09713 0
M  V30 2073 C 181.605 1.80762 -0.747302 0
M  V30 2074 C 181.985 1.96663 0.767265 0
M  V30 2075 O 181.333 1.53706 1.69076 0
M  V30 2076 C 181.543 3.15606 -1.48975 0
M  V30 2077 C 182.891 3.90914 -1.65746 0
M  V30 2078 O 183.915 3.25239 -1.45251 0
M  V30 2079 O 182.774 5.08718 -1.9967 0
M  V30 2080 H 179.868 0.782103 -0.268782 0
M  V30 2081 H 182.414 1.20041 -1.19951 0
M  V30 2082 H 181.186 2.99278 -2.52088 0
M  V30 2083 H 180.809 3.84029 -1.02991 0
M  V30 2084 N 181.806 0.884767 1.30421 0
M  V30 2085 C 183.031 0.517288 2.00845 0
M  V30 2086 C 183.456 -0.886779 1.65885 0
M  V30 2087 O 182.814 -1.58768 0.875354 0
M  V30 2088 C 182.862 0.698994 3.5376 0
M  V30 2089 O 181.966 -0.255208 4.1161 0
M  V30 2090 H 181.307 0.203872 0.631927 0
M  V30 2091 H 183.837 1.19225 1.66272 0
M  V30 2092 H 183.847 0.597912 4.03595 0
M  V30 2093 H 182.522 1.72271 3.78544 0
M  V30 2094 H 181.099 -0.10784 3.72744 0
M  V30 2095 N 183.284 -1.43765 0.645699 0
M  V30 2096 C 184.214 -2.33471 -0.0370477 0
M  V30 2097 C 185.195 -1.49042 -0.819779 0
M  V30 2098 O 186.38 -1.77726 -0.782758 0
M  V30 2099 C 183.51 -3.32311 -1.0093 0
M  V30 2100 C 182.464 -4.2667 -0.337201 0
M  V30 2101 C 181.79 -5.1549 -1.42037 0
M  V30 2102 C 183.09 -5.16657 0.765706 0
M  V30 2103 H 184.784 -2.90809 0.712069 0
M  V30 2104 H 182.33 -1.39834 0.343876 0
M  V30 2105 H 184.283 -3.9396 -1.49578 0
M  V30 2106 H 183.007 -2.73213 -1.78948 0
M  V30 2107 H 181.666 -3.66374 0.128771 0
M  V30 2108 H 181.314 -4.52735 -2.1918 0
M  V30 2109 H 181.014 -5.79438 -0.975966 0
M  V30 2110 H 182.538 -5.80012 -1.90838 0
M  V30 2111 H 183.952 -5.72158 0.361702 0
M  V30 2112 H 182.349 -5.89286 1.13413 0
M  V30 2113 H 183.419 -4.56796 1.62683 0
M  V30 2114 N 184.763 -0.387143 -1.52771 0
M  V30 2115 C 185.695 0.484089 -2.2403 0
M  V30 2116 C 186.708 1.02849 -1.26198 0
M  V30 2117 O 187.897 0.931186 -1.52286 0
M  V30 2118 C 184.997 1.68337 -2.94136 0
M  V30 2119 C 184.17 1.26672 -4.18656 0
M  V30 2120 C 183.229 2.33045 -4.7178 0
M  V30 2121 O 182.255 1.94541 -5.34923 0
M  V30 2122 N 183.457 3.64929 -4.5145 0
M  V30 2123 H 186.222 -0.126404 -2.99433 0
M  V30 2124 H 183.783 -0.213392 -1.60488 0
M  V30 2125 H 185.775 2.39019 -3.26577 0
M  V30 2126 H 184.345 2.20025 -2.22053 0
M  V30 2127 H 183.565 0.388878 -3.92277 0
M  V30 2128 H 184.853 0.964964 -4.99566 0
M  V30 2129 H 184.251 3.98974 -4.01044 0
M  V30 2130 H 182.808 4.31651 -4.88386 0
M  V30 2131 N 186.241 1.57166 -0.116904 0
M  V30 2132 C 187.518 1.86645 0.585049 0
M  V30 2133 C 187.898 1.0177 1.84949 0
M  V30 2134 O 187.246 0.0960379 2.28298 0
M  V30 2135 C 187.456 3.37736 0.879507 0
M  V30 2136 C 188.804 4.06289 1.23348 0
M  V30 2137 O 189.828 3.42743 0.969836 0
M  V30 2138 O 188.687 5.18455 1.7282 0
M  V30 2139 H 185.781 0.772593 0.295007 0
M  V30 2140 H 188.327 1.69025 -0.151249 0
M  V30 2141 H 187.099 3.91296 -0.0166136 0
M  V30 2142 H 186.722 3.6078 1.67103 0
M  V30 2143 N 187.719 -0.156864 1.56817 0
M  V30 2144 C 188.968 -0.869504 1.81996 0
M  V30 2145 C 189.281 -1.82777 0.696545 0
M  V30 2146 O 190.487 -2.58384 0.833658 0
M  V30 2147 C 188.943 -1.59679 3.22538 0
M  V30 2148 C 188.551 -0.681431 4.42787 0
M  V30 2149 C 190.295 -2.2968 3.56997 0
M  V30 2150 C 188.202 -1.40978 5.74351 0
M  V30 2151 H 187.132 -0.328438 0.678708 0
M  V30 2152 H 189.783 -0.1223 1.83092 0
M  V30 2153 H 188.165 -2.38927 3.158 0
M  V30 2154 H 189.339 0.0751166 4.60739 0
M  V30 2155 H 187.654 -0.0903431 4.16302 0
M  V30 2156 H 190.251 -2.84794 4.52544 0
M  V30 2157 H 190.594 -3.05707 2.82576 0
M  V30 2158 H 191.127 -1.57361 3.65352 0
M  V30 2159 H 187.866 -0.691561 6.51842 0
M  V30 2160 H 187.386 -2.13929 5.60352 0
M  V30 2161 H 189.065 -1.95337 6.16808 0
M  V30 2162 N 189.197 -1.51736 -0.425897 0
M  V30 2163 C 190.445 -1.64644 -1.17204 0
M  V30 2164 C 190.766 -0.370486 -1.91448 0
M  V30 2165 O 190.036 0.614088 -1.86026 0
M  V30 2166 H 188.616 -0.606819 -0.435638 0
M  V30 2167 H 191.278 -1.88713 -0.487177 0
M  V30 2168 H 190.374 -2.47958 -1.89534 0
M  V30 2169 N 190.675 0.682077 -1.42076 0
M  V30 2170 C 191.608 1.80666 -1.3941 0
M  V30 2171 C 192.586 1.60518 -0.25939 0
M  V30 2172 O 193.77 1.83088 -0.448456 0
M  V30 2173 C 190.897 3.17556 -1.17796 0
M  V30 2174 C 189.943 3.56468 -2.34164 0
M  V30 2175 S 190.776 3.59729 -3.96681 0
M  V30 2176 C 191.932 4.99323 -3.77395 0
M  V30 2177 H 192.165 1.82652 -2.34575 0
M  V30 2178 H 189.698 0.852062 -1.2876 0
M  V30 2179 H 191.656 3.96575 -1.06012 0
M  V30 2180 H 190.317 3.13164 -0.242279 0
M  V30 2181 H 189.51 4.5595 -2.1477 0
M  V30 2182 H 189.112 2.84792 -2.42425 0
M  V30 2183 H 191.404 5.87202 -3.37935 0
M  V30 2184 H 192.347 5.23763 -4.76527 0
M  V30 2185 H 192.755 4.71498 -3.10403 0
M  V30 2186 N 192.153 1.28127 0.917671 0
M  V30 2187 C 193.43 1.05761 1.64542 0
M  V30 2188 C 193.81 -0.404344 2.07191 0
M  V30 2189 O 193.158 -1.38963 1.81388 0
M  V30 2190 C 193.368 2.02857 2.83989 0
M  V30 2191 C 194.716 2.32786 3.551 0
M  V30 2192 O 195.74 2.0091 2.94132 0
M  V30 2193 O 194.599 2.87169 4.64969 0
M  V30 2194 H 191.693 0.403916 0.721652 0
M  V30 2195 H 194.239 1.39431 0.967322 0
M  V30 2196 H 193.011 3.01407 2.49538 0
M  V30 2197 H 192.634 1.69809 3.59514 0
M  V30 2198 N 193.631 -1.12557 1.10312 0
M  V30 2199 C 194.581 -2.16331 0.720076 0
M  V30 2200 C 195.565 -1.58616 -0.270115 0
M  V30 2201 O 196.757 -1.76823 -0.0790507 0
M  V30 2202 C 193.886 -3.42963 0.152113 0
M  V30 2203 C 192.972 -4.07663 1.16927 0
M  V30 2204 N 193.363 -4.47392 2.35953 0
M  V30 2205 C 191.661 -4.34425 1.0095 0
M  V30 2206 C 192.362 -4.97932 3.0073 0
M  V30 2207 N 191.338 -4.93358 2.28252 0
M  V30 2208 H 195.14 -2.44813 1.62616 0
M  V30 2209 H 192.654 -1.29449 0.980654 0
M  V30 2210 H 194.651 -4.16664 -0.14037 0
M  V30 2211 H 193.311 -3.1595 -0.748701 0
M  V30 2212 H 194.322 -4.39802 2.73486 0
M  V30 2213 H 190.999 -4.17177 0.164134 0
M  V30 2214 H 192.389 -5.38397 4.01969 0
M  V30 2215 N 195.109 -0.891671 -1.2995 0
M  V30 2216 C 196.041 -0.320695 -2.26945 0
M  V30 2217 C 197.054 0.528497 -1.53983 0
M  V30 2218 O 198.243 0.346959 -1.75096 0
M  V30 2219 C 195.343 0.562066 -3.34207 0
M  V30 2220 C 194.516 -0.259576 -4.36629 0
M  V30 2221 C 193.575 0.554739 -5.23268 0
M  V30 2222 O 192.601 -0.0249311 -5.69195 0
M  V30 2223 N 193.803 1.8625 -5.4981 0
M  V30 2224 H 196.568 -1.15432 -2.76578 0
M  V30 2225 H 194.129 -0.755336 -1.432 0
M  V30 2226 H 196.121 1.11304 -3.89093 0
M  V30 2227 H 194.691 1.29637 -2.84452 0
M  V30 2228 H 193.911 -0.991986 -3.81514 0
M  V30 2229 H 195.199 -0.822564 -5.02107 0
M  V30 2230 H 194.597 2.35628 -5.14292 0
M  V30 2231 H 193.154 2.36078 -6.07545 0
M  V30 2232 N 196.587 1.43421 -0.653314 0
M  V30 2233 C 197.55 2.29182 0.0287951 0
M  V30 2234 C 198.55 1.42213 0.750465 0
M  V30 2235 O 199.74 1.63843 0.591701 0
M  V30 2236 C 196.872 3.24278 1.05151 0
M  V30 2237 H 198.065 2.90985 -0.725786 0
M  V30 2238 H 195.618 1.50702 -0.414545 0
M  V30 2239 H 196.353 2.6737 1.83532 0
M  V30 2240 H 196.138 3.88396 0.537687 0
M  V30 2241 H 197.628 3.88647 1.52786 0
M  V30 2242 N 198.065 0.39524 1.52563 0
M  V30 2243 C 198.995 -0.428384 2.29537 0
M  V30 2244 C 199.976 -1.05831 1.33169 0
M  V30 2245 O 201.161 -1.06995 1.62067 0
M  V30 2246 C 198.291 -1.55274 3.10656 0
M  V30 2247 C 197.245 -1.04855 4.14957 0
M  V30 2248 C 196.571 -2.26543 4.84337 0
M  V30 2249 C 197.871 -0.112324 5.22179 0
M  V30 2250 H 199.565 0.213867 2.98635 0
M  V30 2251 H 197.111 0.104298 1.43622 0
M  V30 2252 H 199.064 -2.1358 3.63265 0
M  V30 2253 H 197.788 -2.22266 2.39302 0
M  V30 2254 H 196.447 -0.487985 3.63338 0
M  V30 2255 H 196.095 -2.92059 4.09525 0
M  V30 2256 H 195.795 -1.93466 5.54837 0
M  V30 2257 H 197.319 -2.85481 5.39753 0
M  V30 2258 H 198.733 -0.603752 5.70112 0
M  V30 2259 H 197.13 0.128968 5.99961 0
M  V30 2260 H 198.2 0.837052 4.77621 0
M  V30 2261 N 199.544 -1.57102 0.125237 0
M  V30 2262 C 200.474 -2.18659 -0.819174 0
M  V30 2263 C 201.455 -1.12843 -1.27281 0
M  V30 2264 O 202.64 -1.41104 -1.33429 0
M  V30 2265 C 199.77 -2.79096 -2.06695 0
M  V30 2266 C 198.724 -3.90548 -1.75088 0
M  V30 2267 C 198.05 -4.37821 -3.06948 0
M  V30 2268 C 199.35 -5.12356 -1.01435 0
M  V30 2269 H 201.044 -2.9783 -0.306202 0
M  V30 2270 H 198.59 -1.4326 -0.145839 0
M  V30 2271 H 200.543 -3.2082 -2.73226 0
M  V30 2272 H 199.267 -1.97223 -2.60328 0
M  V30 2273 H 197.926 -3.49409 -1.10944 0
M  V30 2274 H 197.574 -3.52799 -3.58527 0
M  V30 2275 H 197.274 -5.12982 -2.86571 0
M  V30 2276 H 198.798 -4.822 -3.74587 0
M  V30 2277 H 200.212 -5.5106 -1.58132 0
M  V30 2278 H 198.609 -5.9314 -0.911319 0
M  V30 2279 H 199.679 -4.849 -0.00218681 0
M  V30 2280 N 201.022 0.148545 -1.56898 0
M  V30 2281 C 201.969 1.18345 -1.98149 0
M  V30 2282 C 202.939 1.42772 -0.848848 0
M  V30 2283 O 204.124 1.55132 -1.11079 0
M  V30 2284 C 201.264 2.51231 -2.36594 0
M  V30 2285 C 200.377 2.33991 -3.63142 0
M  V30 2286 C 199.512 3.59902 -3.90697 0
M  V30 2287 C 198.551 3.37692 -5.1052 0
M  V30 2288 N 197.688 4.5573 -5.34092 0
M  V30 2289 H 202.528 0.82467 -2.86362 0
M  V30 2290 H 200.065 0.395756 -1.41676 0
M  V30 2291 H 202.023 3.28713 -2.56912 0
M  V30 2292 H 200.653 2.85059 -1.51463 0
M  V30 2293 H 199.705 1.47572 -3.50609 0
M  V30 2294 H 201.017 2.13539 -4.5078 0
M  V30 2295 H 200.171 4.45813 -4.11505 0
M  V30 2296 H 198.91 3.83357 -3.01477 0
M  V30 2297 H 197.915 2.5017 -4.89587 0
M  V30 2298 H 199.14 3.15637 -6.0129 0
M  V30 2299 H 197.086 4.79361 -4.47827 0
M  V30 2300 H 197.003 4.38274 -6.15996 0
M  V30 2301 H 198.271 5.42858 -5.59397 0
M  V30 2302 N 202.5 1.5196 0.417844 0
M  V30 2303 C 203.432 1.70895 1.52733 0
M  V30 2304 C 204.445 0.589405 1.51756 0
M  V30 2305 O 205.634 0.864312 1.56179 0
M  V30 2306 C 202.734 1.72627 2.91639 0
M  V30 2307 C 201.907 3.01479 3.16905 0
M  V30 2308 C 200.966 2.95139 4.35637 0
M  V30 2309 O 199.992 3.69059 4.3334 0
M  V30 2310 N 201.194 2.12328 5.40275 0
M  V30 2311 H 203.959 2.66612 1.36888 0
M  V30 2312 H 201.52 1.50089 0.607037 0
M  V30 2313 H 203.512 1.65928 3.6912 0
M  V30 2314 H 202.082 0.844216 3.00985 0
M  V30 2315 H 201.302 3.21895 2.27546 0
M  V30 2316 H 202.59 3.86736 3.30625 0
M  V30 2317 H 201.988 1.51685 5.44985 0
M  V30 2318 H 200.545 2.11494 6.16534 0
M  V30 2319 N 203.978 -0.674533 1.42435 0
M  V30 2320 C 205.225 -1.43459 1.42919 0
M  V30 2321 C 205.553 -1.94446 0.0457312 0
M  V30 2322 O 204.808 -1.7132 -0.94593 0
M  V30 2323 C 205.107 -2.64767 2.40069 0
M  V30 2324 C 204.773 -2.3232 3.86443 0
M  V30 2325 C 203.435 -2.23182 4.26314 0
M  V30 2326 C 205.787 -2.05977 4.78773 0
M  V30 2327 C 203.115 -1.85827 5.56494 0
M  V30 2328 C 205.467 -1.70125 6.09295 0
M  V30 2329 C 204.131 -1.59498 6.48164 0
M  V30 2330 H 203.401 -0.524952 0.522978 0
M  V30 2331 H 206.048 -0.769097 1.75377 0
M  V30 2332 H 204.353 -3.36349 2.00939 0
M  V30 2333 H 206.05 -3.22949 2.37707 0
M  V30 2334 H 202.64 -2.40334 3.54877 0
M  V30 2335 H 206.824 -2.11969 4.48757 0
M  V30 2336 H 202.08 -1.76168 5.8547 0
M  V30 2337 H 206.254 -1.48767 6.80324 0
M  V30 2338 H 203.881 -1.30322 7.48946 0
M  V30 2339 N 205.456 -1.28612 -0.910864 0
M  V30 2340 C 206.733 -1.06632 -1.63979 0
M  V30 2341 C 207.113 0.393351 -2.07403 0
M  V30 2342 O 206.461 1.37999 -1.82122 0
M  V30 2343 C 206.671 -2.0436 -2.8291 0
M  V30 2344 C 208.019 -2.34666 -3.5386 0
M  V30 2345 O 209.043 -2.02467 -2.93062 0
M  V30 2346 O 207.902 -2.89631 -4.63439 0
M  V30 2347 H 204.996 -0.407737 -0.7195 0
M  V30 2348 H 207.542 -1.39942 -0.959914 0
M  V30 2349 H 206.314 -3.02727 -2.47936 0
M  V30 2350 H 205.937 -1.71714 -3.58609 0
M  V30 2351 N 206.934 1.1197 -1.10907 0
M  V30 2352 C 207.884 2.15946 -0.731538 0
M  V30 2353 C 208.868 1.58758 0.261699 0
M  V30 2354 O 210.06 1.76863 0.0696722 0
M  V30 2355 C 207.189 3.42877 -0.170299 0
M  V30 2356 C 206.275 4.07037 -1.19087 0
M  V30 2357 N 206.666 4.46135 -2.38322 0
M  V30 2358 C 204.964 4.33884 -1.03252 0
M  V30 2359 C 205.665 4.96331 -3.03366 0
M  V30 2360 N 204.641 4.9214 -2.30865 0
M  V30 2361 H 208.443 2.43947 -1.63912 0
M  V30 2362 H 205.957 1.28927 -0.987505 0
M  V30 2363 H 207.954 4.16732 0.118271 0
M  V30 2364 H 206.614 3.16343 0.731935 0
M  V30 2365 H 207.625 4.38345 -2.75815 0
M  V30 2366 H 204.302 4.17084 -0.186256 0
M  V30 2367 H 205.692 5.36257 -4.04818 0
M  V30 2368 N 208.412 0.89855 1.29475 0
M  V30 2369 C 209.342 0.39201 2.30186 0
M  V30 2370 C 210.323 -0.532359 1.61555 0
M  V30 2371 O 211.508 -0.443331 1.89072 0
M  V30 2372 C 208.638 -0.382353 3.45189 0
M  V30 2373 C 207.592 0.451483 4.25612 0
M  V30 2374 C 206.918 -0.450307 5.328 0
M  V30 2375 C 208.218 1.70079 4.93832 0
M  V30 2376 H 209.912 1.23362 2.72804 0
M  V30 2377 H 207.458 0.594638 1.31149 0
M  V30 2378 H 209.411 -0.747451 4.14718 0
M  V30 2379 H 208.135 -1.25774 3.01411 0
M  V30 2380 H 206.794 0.798897 3.57789 0
M  V30 2381 H 206.442 -1.32379 4.85268 0
M  V30 2382 H 206.142 0.103902 5.87508 0
M  V30 2383 H 207.666 -0.811623 6.05182 0
M  V30 2384 H 209.08 1.40549 5.55805 0
M  V30 2385 H 207.477 2.19623 5.58467 0
M  V30 2386 H 208.547 2.43744 4.19186 0
M  V30 2387 N 209.89 -1.43072 0.660911 0
M  V30 2388 C 210.838 -2.32569 -0.0378199 0
M  V30 2389 C 211.832 -1.49046 -0.805092 0
M  V30 2390 O 213.038 -1.65206 -0.714624 0
M  V30 2391 H 209.413 -0.75136 -0.031019 0
M  V30 2392 H 211.384 -2.89216 0.734609 0
M  V30 2393 C 210.133 -3.33453 -0.985124 0
M  V30 2394 H 209.456 -3.97752 -0.404147 0
M  V30 2395 H 210.896 -3.98691 -1.44297 0
M  V30 2396 C 209.355 -2.64642 -2.08486 0
M  V30 2397 O 209.885 -2.46776 -3.16961 0
M  V30 2398 N 208.091 -2.23891 -1.8526 0
M  V30 2399 H 207.638 -2.38621 -0.970449 0
M  V30 2400 H 207.596 -1.78181 -2.59034 0
M  V30 2401 N 211.368 -0.403325 -1.52352 0
M  V30 2402 C 212.318 0.442244 -2.2367 0
M  V30 2403 C 213.302 1.01823 -1.24583 0
M  V30 2404 O 214.494 0.942005 -1.49851 0
M  V30 2405 C 211.623 1.5615 -3.05732 0
M  V30 2406 C 210.709 0.996575 -4.12225 0
M  V30 2407 N 211.1 0.157804 -5.05554 0
M  V30 2408 C 209.398 1.26767 -4.27605 0
M  V30 2409 C 210.099 -0.155853 -5.81491 0
M  V30 2410 N 209.075 0.451775 -5.41719 0
M  V30 2411 H 212.877 -0.204964 -2.93184 0
M  V30 2412 H 210.391 -0.213418 -1.60992 0
M  V30 2413 H 212.388 2.17981 -3.55373 0
M  V30 2414 H 211.048 2.21139 -2.37755 0
M  V30 2415 H 212.059 -0.206049 -5.1749 0
M  V30 2416 H 208.736 1.91757 -3.70858 0
M  V30 2417 H 210.126 -0.836329 -6.66675 0
M  V30 2418 N 212.846 1.57033 -0.133567 0
M  V30 2419 C 213.776 2.1909 0.807567 0
M  V30 2420 C 214.757 1.13517 1.26681 0
M  V30 2421 O 215.942 1.41809 1.32679 0
M  V30 2422 C 213.072 2.80188 2.05212 0
M  V30 2423 C 212.026 3.91471 1.73015 0
M  V30 2424 C 211.352 4.39443 3.04622 0
M  V30 2425 C 212.652 5.12886 0.987168 0
M  V30 2426 H 214.346 2.97988 0.290403 0
M  V30 2427 H 211.892 1.43335 0.138239 0
M  V30 2428 H 213.845 3.22264 2.71521 0
M  V30 2429 H 212.569 1.98601 2.59278 0
M  V30 2430 H 211.228 3.49993 1.0909 0
M  V30 2431 H 210.876 3.54695 3.56651 0
M  V30 2432 H 210.576 5.14495 2.83847 0
M  V30 2433 H 212.1 4.8418 3.72024 0
M  V30 2434 H 213.514 5.51891 1.55208 0
M  V30 2435 H 211.911 5.93615 0.87985 0
M  V30 2436 H 212.981 4.84894 -0.0235286 0
M  V30 2437 N 214.325 -0.140222 1.56975 0
M  V30 2438 C 215.273 -1.19207 1.99731 0
M  V30 2439 C 216.267 -1.44089 0.890777 0
M  V30 2440 O 217.473 -1.44301 1.07597 0
M  V30 2441 H 213.848 -0.40142 0.635898 0
M  V30 2442 H 215.819 -0.804813 2.87342 0
M  V30 2443 C 214.568 -2.51617 2.39967 0
M  V30 2444 H 213.891 -2.33303 3.24669 0
M  V30 2445 H 215.331 -3.23827 2.73701 0
M  V30 2446 C 213.79 -3.12654 1.25496 0
M  V30 2447 O 214.32 -3.97786 0.559371 0
M  V30 2448 N 212.526 -2.72206 1.01746 0
M  V30 2449 H 212.073 -2.03074 1.58489 0
M  V30 2450 H 212.031 -3.13377 0.253461 0
M  V30 2451 N 215.803 -1.52179 -0.40978 0
M  V30 2452 C 217.214 -1.58377 -0.988615 0
M  V30 2453 C 217.565 -0.423879 -1.91566 0
M  V30 2454 O 216.69 0.455844 -2.11544 0
M  V30 2455 C 217.285 -2.87044 -1.79976 0
M  V30 2456 C 215.844 -2.95722 -2.32863 0
M  V30 2457 C 214.991 -2.53309 -1.12828 0
M  V30 2458 H 217.942 -1.57558 -0.190039 0
M  V30 2459 H 217.963 -2.7236 -2.65707 0
M  V30 2460 H 217.475 -3.71444 -1.12478 0
M  V30 2461 H 215.576 -2.15814 -3.03735 0
M  V30 2462 H 215.689 -3.99951 -2.63773 0
M  V30 2463 H 214.053 -2.07142 -1.48204 0
M  V30 2464 H 214.836 -3.40082 -0.46897 0
M  V30 2465 N 217.281 0.66697 -1.42791 0
M  V30 2466 C 218.558 1.4234 -1.34159 0
M  V30 2467 C 218.938 2.11093 0.0172729 0
M  V30 2468 O 218.286 2.03808 1.03318 0
M  V30 2469 C 218.496 2.41942 -2.51526 0
M  V30 2470 C 219.844 3.06353 -2.93995 0
M  V30 2471 O 220.868 2.52269 -2.51473 0
M  V30 2472 O 219.727 4.04376 -3.67617 0
M  V30 2473 H 216.821 0.635277 -0.529483 0
M  V30 2474 H 219.367 0.695034 -1.54814 0
M  V30 2475 H 218.139 1.89991 -3.42081 0
M  V30 2476 H 217.762 3.22249 -2.32898 0
M  V30 2477 N 218.759 1.29093 0.90403 0
M  V30 2478 C 219.706 1.13853 2.00764 0
M  V30 2479 C 220.676 0.0330084 1.66067 0
M  V30 2480 O 221.861 0.199733 1.89752 0
M  V30 2481 C 219.001 0.816537 3.35301 0
M  V30 2482 C 218.114 2.00206 3.82807 0
M  V30 2483 C 217.249 1.61983 5.059 0
M  V30 2484 C 216.288 2.77143 5.45764 0
M  V30 2485 N 215.425 2.39346 6.60044 0
M  V30 2486 H 220.265 2.08276 2.13132 0
M  V30 2487 H 217.802 1.03648 1.04381 0
M  V30 2488 H 219.76 0.610557 4.12708 0
M  V30 2489 H 218.39 -0.090779 3.22672 0
M  V30 2490 H 217.442 2.31988 3.01473 0
M  V30 2491 H 218.754 2.86512 4.08304 0
M  V30 2492 H 217.908 1.37649 5.90879 0
M  V30 2493 H 216.647 0.728202 4.82233 0
M  V30 2494 H 215.652 3.02165 4.59322 0
M  V30 2495 H 216.877 3.66964 5.71414 0
M  V30 2496 H 214.823 1.52665 6.37989 0
M  V30 2497 H 214.74 3.19185 6.85315 0
M  V30 2498 H 216.008 2.1832 7.48303 0
M  V30 2499 N 220.237 -1.11381 1.11499 0
M  V30 2500 C 221.484 -1.83132 0.864231 0
M  V30 2501 C 221.812 -1.84683 -0.610114 0
M  V30 2502 O 221.067 -1.29589 -1.46646 0
M  V30 2503 C 221.366 -3.30026 1.37177 0
M  V30 2504 C 221.032 -3.48634 2.85946 0
M  V30 2505 C 219.694 -3.53421 3.26569 0
M  V30 2506 C 222.046 -3.54837 3.81759 0
M  V30 2507 C 219.374 -3.61967 4.61733 0
M  V30 2508 C 221.726 -3.64915 5.1674 0
M  V30 2509 C 220.39 -3.67962 5.5692 0
M  V30 2510 H 219.66 -0.670127 0.316245 0
M  V30 2511 H 222.307 -1.31354 1.3935 0
M  V30 2512 H 220.612 -3.84304 0.762753 0
M  V30 2513 H 222.309 -3.84034 1.15408 0
M  V30 2514 H 218.899 -3.45579 2.53521 0
M  V30 2515 H 223.083 -3.50399 3.51474 0
M  V30 2516 H 218.339 -3.62603 4.92269 0
M  V30 2517 H 222.513 -3.68658 5.90816 0
M  V30 2518 H 220.14 -3.74336 6.61647 0
M  V30 2519 N 221.715 -0.905404 -1.28997 0
M  V30 2520 C 222.625 -0.392246 -2.31298 0
M  V30 2521 C 223.641 0.515889 -1.66176 0
M  V30 2522 O 224.817 0.404093 -1.97304 0
M  V30 2523 C 221.882 0.36686 -3.44754 0
M  V30 2524 C 220.943 -0.573485 -4.25452 0
M  V30 2525 C 220.176 0.149488 -5.33491 0
M  V30 2526 O 220.399 1.37255 -5.5364 0
M  V30 2527 O 219.333 -0.510919 -5.99728 0
M  V30 2528 H 223.159 -1.2411 -2.77183 0
M  V30 2529 H 220.744 -0.669926 -1.33538 0
M  V30 2530 H 222.626 0.795907 -4.13816 0
M  V30 2531 H 221.301 1.19169 -3.00966 0
M  V30 2532 H 220.208 -1.05176 -3.59011 0
M  V30 2533 H 221.541 -1.36489 -4.72897 0
M  V30 2534 N 223.193 1.4272 -0.668489 0
M  V30 2535 C 224.418 2.06484 -0.194758 0
M  V30 2536 C 224.843 1.49862 1.13679 0
M  V30 2537 O 224.201 0.614582 1.70565 0
M  V30 2538 C 224.249 3.60353 -0.133546 0
M  V30 2539 O 223.353 4.02464 0.899806 0
M  V30 2540 H 222.694 0.656137 -0.10188 0
M  V30 2541 H 225.224 1.82964 -0.915722 0
M  V30 2542 H 225.234 4.07976 0.0447041 0
M  V30 2543 H 223.909 4.00938 -1.1055 0
M  V30 2544 H 222.486 3.66402 0.693109 0
M  V30 2545 N 224.671 0.411399 1.52136 0
M  V30 2546 C 225.899 -0.163076 2.06256 0
M  V30 2547 C 226.314 -1.3867 1.28125 0
M  V30 2548 O 225.671 -1.79423 0.333721 0
M  V30 2549 C 225.722 -0.511252 3.57867 0
M  V30 2550 O 225.443 0.66378 4.33042 0
M  V30 2551 C 226.944 -1.13921 4.28412 0
M  V30 2552 H 224.164 -0.0193897 0.67072 0
M  V30 2553 H 226.708 0.583007 1.96013 0
M  V30 2554 H 224.863 -1.20723 3.6811 0
M  V30 2555 H 225.277 0.372601 5.23175 0
M  V30 2556 H 226.751 -1.33302 5.35663 0
M  V30 2557 H 227.228 -2.11296 3.85033 0
M  V30 2558 H 227.834 -0.483373 4.22544 0
M  V30 2559 N 226.149 -1.5696 0.141893 0
M  V30 2560 C 227.426 -1.87553 -0.555281 0
M  V30 2561 C 227.806 -1.04699 -1.83306 0
M  V30 2562 O 227.154 -0.132346 -2.28116 0
M  V30 2563 C 227.364 -3.39093 -0.825664 0
M  V30 2564 C 228.712 -4.08199 -1.16869 0
M  V30 2565 O 229.736 -3.44242 -0.915185 0
M  V30 2566 O 228.595 -5.21139 -1.6455 0
M  V30 2567 H 225.689 -0.777188 -0.282679 0
M  V30 2568 H 228.235 -1.68763 0.17812 0
M  V30 2569 H 227.007 -3.91221 0.0788633 0
M  V30 2570 H 226.63 -3.63393 -1.61343 0
M  V30 2571 N 227.627 0.131896 -1.57047 0
M  V30 2572 C 228.557 1.16384 -2.02428 0
M  V30 2573 C 229.538 1.43936 -0.90644 0
M  V30 2574 O 230.723 1.54599 -1.17528 0
M  V30 2575 C 227.853 2.49328 -2.4177 0
M  V30 2576 C 226.807 2.36266 -3.56879 0
M  V30 2577 C 226.133 3.74057 -3.8208 0
M  V30 2578 C 227.433 1.834 -4.89042 0
M  V30 2579 H 229.127 0.786433 -2.88887 0
M  V30 2580 H 226.673 0.376855 -1.38981 0
M  V30 2581 H 228.626 3.21759 -2.7212 0
M  V30 2582 H 227.35 2.88934 -1.52266 0
M  V30 2583 H 226.009 1.66286 -3.26718 0
M  V30 2584 H 225.657 4.11125 -2.89803 0
M  V30 2585 H 225.357 3.66174 -4.59554 0
M  V30 2586 H 226.881 4.48012 -4.1487 0
M  V30 2587 H 228.295 2.45636 -5.18011 0
M  V30 2588 H 226.692 1.8637 -5.70426 0
M  V30 2589 H 227.762 0.790662 -4.7841 0
M  V30 2590 N 229.106 1.52395 0.401703 0
M  V30 2591 C 230.383 1.57387 1.16141 0
M  V30 2592 C 230.763 0.359359 2.08019 0
M  V30 2593 O 230.111 -0.65326 2.18963 0
M  V30 2594 C 230.321 2.90631 1.93221 0
M  V30 2595 C 231.669 3.43904 2.49028 0
M  V30 2596 O 232.693 2.92421 2.03393 0
M  V30 2597 O 231.552 4.33823 3.32356 0
M  V30 2598 H 228.646 0.634262 0.530698 0
M  V30 2599 H 231.192 1.64725 0.407883 0
M  V30 2600 H 229.964 3.70473 1.25958 0
M  V30 2601 H 229.587 2.8662 2.75563 0
M  V30 2602 N 230.584 -0.659388 1.43143 0
M  V30 2603 C 231.517 -1.78425 1.42267 0
M  V30 2604 C 232.495 -1.60085 0.284894 0
M  V30 2605 O 233.679 -1.82351 0.477527 0
M  V30 2606 C 230.806 -3.15642 1.22833 0
M  V30 2607 C 229.852 -3.52698 2.39806 0
M  V30 2608 S 230.685 -3.53372 4.02353 0
M  V30 2609 C 231.841 -4.93256 3.85291 0
M  V30 2610 H 232.074 -1.78897 2.37452 0
M  V30 2611 H 229.607 -0.831469 1.301 0
M  V30 2612 H 231.565 -3.94838 1.12308 0
M  V30 2613 H 230.226 -3.12739 0.29207 0
M  V30 2614 H 229.419 -4.52475 2.21996 0
M  V30 2615 H 229.021 -2.80899 2.46925 0
M  V30 2616 H 231.313 -5.81751 3.47235 0
M  V30 2617 H 232.256 -5.16115 4.84799 0
M  V30 2618 H 232.664 -4.665 3.17865 0
M  V30 2619 N 232.062 -1.29571 -0.897171 0
M  V30 2620 C 232.992 -1.17473 -2.01798 0
M  V30 2621 C 233.973 -0.068323 -1.69963 0
M  V30 2622 O 235.158 -0.248239 -1.92607 0
M  V30 2623 C 232.288 -0.853099 -3.36659 0
M  V30 2624 C 231.242 -1.9161 -3.82713 0
M  V30 2625 C 230.568 -1.44773 -5.14728 0
M  V30 2626 C 231.868 -3.32535 -4.02763 0
M  V30 2627 H 233.562 -2.11237 -2.12177 0
M  V30 2628 H 231.108 -1.01699 -1.01948 0
M  V30 2629 H 233.061 -0.755165 -4.14578 0
M  V30 2630 H 231.785 0.120236 -3.26379 0
M  V30 2631 H 230.444 -2.00346 -3.07013 0
M  V30 2632 H 230.092 -0.462995 -5.00865 0
M  V30 2633 H 229.792 -2.15865 -5.46513 0
M  V30 2634 H 231.316 -1.36334 -5.95185 0
M  V30 2635 H 232.73 -3.26626 -4.71156 0
M  V30 2636 H 231.127 -4.01607 -4.45905 0
M  V30 2637 H 232.197 -3.75326 -3.07016 0
M  V30 2638 N 233.54 1.10788 -1.12088 0
M  V30 2639 C 234.789 1.82036 -0.868659 0
M  V30 2640 C 235.102 1.85929 0.607426 0
M  V30 2641 O 236.308 2.53346 0.97613 0
M  V30 2642 C 234.764 3.26951 -1.50435 0
M  V30 2643 C 234.372 3.31367 -3.01496 0
M  V30 2644 C 236.116 4.03053 -1.33225 0
M  V30 2645 C 234.023 4.7072 -3.58017 0
M  V30 2646 H 232.953 0.682108 -0.321318 0
M  V30 2647 H 235.604 1.24618 -1.34694 0
M  V30 2648 H 233.986 3.84343 -0.953735 0
M  V30 2649 H 235.16 2.83819 -3.6302 0
M  V30 2650 H 233.475 2.6875 -3.18061 0
M  V30 2651 H 236.072 5.05981 -1.72878 0
M  V30 2652 H 236.415 4.15387 -0.275529 0
M  V30 2653 H 236.948 3.52066 -1.85188 0
M  V30 2654 H 233.687 4.63585 -4.63432 0
M  V30 2655 H 233.207 5.1865 -3.01268 0
M  V30 2656 H 234.886 5.39685 -3.56859 0
M  V30 2657 N 235.018 0.912232 1.28515 0
M  V30 2658 C 235.965 0.397954 2.27343 0
M  V30 2659 C 236.935 -0.526766 1.57526 0
M  V30 2660 O 238.12 -0.449292 1.85435 0
M  V30 2661 C 235.26 -0.357263 3.43246 0
M  V30 2662 C 234.373 0.599788 4.27816 0
M  V30 2663 C 233.508 -0.173725 5.30916 0
M  V30 2664 C 232.547 0.777039 6.07148 0
M  V30 2665 N 231.684 0.0371398 7.0209 0
M  V30 2666 H 236.524 1.24577 2.70711 0
M  V30 2667 H 234.061 0.625612 1.33133 0
M  V30 2668 H 236.019 -0.8113 4.09236 0
M  V30 2669 H 234.649 -1.16943 3.00872 0
M  V30 2670 H 233.701 1.17235 3.61884 0
M  V30 2671 H 235.013 1.32704 4.80823 0
M  V30 2672 H 234.167 -0.688394 6.02782 0
M  V30 2673 H 232.906 -0.934041 4.78672 0
M  V30 2674 H 231.911 1.3031 5.34134 0
M  V30 2675 H 233.136 1.53689 6.61481 0
M  V30 2676 H 231.082 -0.705213 6.52198 0
M  V30 2677 H 230.999 0.704249 7.52713 0
M  V30 2678 H 232.267 -0.457383 7.78157 0
M  V30 2679 N 236.496 -1.42363 0.676048 0
M  V30 2680 C 237.459 -2.29199 0.00766941 0
M  V30 2681 C 238.459 -1.43389 -0.727745 0
M  V30 2682 O 239.649 -1.64764 -0.56556 0
M  V30 2683 C 236.781 -3.2591 -0.999785 0
M  V30 2684 H 237.974 -2.89794 0.771988 0
M  V30 2685 H 235.527 -1.50024 0.438468 0
M  V30 2686 H 236.262 -2.70256 -1.79255 0
M  V30 2687 H 236.047 -3.89202 -0.475829 0
M  V30 2688 H 237.537 -3.91028 -1.46583 0
M  V30 2689 N 237.974 -0.419461 -1.51915 0
M  V30 2690 C 238.937 0.389116 -2.25873 0
M  V30 2691 C 239.937 0.964924 -1.28631 0
M  V30 2692 O 241.127 0.842179 -1.52489 0
M  V30 2693 C 238.259 1.54874 -3.03689 0
M  V30 2694 H 239.452 -0.258799 -2.98781 0
M  V30 2695 H 237.005 -0.172209 -1.55348 0
M  V30 2696 H 237.74 2.23323 -2.35154 0
M  V30 2697 H 237.525 1.14223 -3.75094 0
M  V30 2698 H 239.015 2.12046 -3.59759 0
M  V30 2699 N 239.452 1.56882 -0.150215 0
M  V30 2700 C 240.68 2.00593 0.506948 0
M  V30 2701 C 241.095 1.03033 1.58208 0
M  V30 2702 O 240.452 0.0278396 1.82479 0
M  V30 2703 C 240.503 3.44209 1.10465 0
M  V30 2704 O 240.224 4.3804 0.0724636 0
M  V30 2705 C 241.725 4.03214 1.84211 0
M  V30 2706 H 238.945 0.65795 0.13169 0
M  V30 2707 H 241.489 2.03018 -0.245743 0
M  V30 2708 H 239.644 3.42625 1.80795 0
M  V30 2709 H 240.058 5.22007 0.510793 0
M  V30 2710 H 241.532 5.0569 2.21318 0
M  V30 2711 H 242.009 3.44107 2.72923 0
M  V30 2712 H 242.615 4.08437 1.18572 0
M  V30 2713 N 240.93 -0.123565 1.57115 0
M  V30 2714 C 242.155 -0.850398 1.89164 0
M  V30 2715 C 242.58 -1.7286 0.741688 0
M  V30 2716 O 241.938 -1.78665 -0.307958 0
M  V30 2717 C 241.986 -1.66353 3.19936 0
M  V30 2718 O 241.09 -2.77004 3.0552 0
M  V30 2719 H 240.431 -0.235454 0.620852 0
M  V30 2720 H 242.961 -0.107335 2.04318 0
M  V30 2721 H 242.971 -2.05372 3.52543 0
M  V30 2722 H 241.646 -1.01881 4.03228 0
M  V30 2723 H 240.223 -2.41221 2.84371 0
M  V30 2724 N 242.408 -1.52605 -0.393616 0
M  V30 2725 C 243.685 -1.58001 -1.15304 0
M  V30 2726 C 244.065 -0.370385 -2.07825 0
M  V30 2727 O 243.413 0.641638 -2.19306 0
M  V30 2728 C 243.623 -2.91652 -1.91677 0
M  V30 2729 C 244.971 -3.4522 -2.47201 0
M  V30 2730 O 245.995 -2.93495 -2.01839 0
M  V30 2731 O 244.854 -4.35579 -3.3005 0
M  V30 2732 H 241.948 -0.637068 -0.527327 0
M  V30 2733 H 244.494 -1.64939 -0.399141 0
M  V30 2734 H 243.266 -3.71136 -1.23992 0
M  V30 2735 H 242.889 -2.88077 -2.74039 0
M  V30 2736 N 243.887 0.651787 -1.4349 0
M  V30 2737 C 244.817 1.77621 -1.51569 0
M  V30 2738 C 245.798 1.66022 -0.370253 0
M  V30 2739 O 246.983 1.85095 -0.587658 0
M  V30 2740 C 244.113 3.16056 -1.43966 0
M  V30 2741 C 243.067 3.4242 -2.56774 0
M  V30 2742 C 242.393 4.8067 -2.34223 0
M  V30 2743 C 243.693 3.37023 -3.99015 0
M  V30 2744 H 245.387 1.71117 -2.45681 0
M  V30 2745 H 242.933 0.821825 -1.18246 0
M  V30 2746 H 244.886 3.94472 -1.48221 0
M  V30 2747 H 243.61 3.23293 -0.463586 0
M  V30 2748 H 242.269 2.66375 -2.51873 0
M  V30 2749 H 241.917 4.84585 -1.34856 0
M  V30 2750 H 241.617 4.9927 -3.09844 0
M  V30 2751 H 243.141 5.61342 -2.40265 0
M  V30 2752 H 244.555 4.05374 -4.05395 0
M  V30 2753 H 242.952 3.67159 -4.74673 0
M  V30 2754 H 244.022 2.3518 -4.2405 0
M  V30 2755 N 245.365 1.30045 0.890287 0
M  V30 2756 C 246.275 1.17885 2.02831 0
M  V30 2757 C 247.291 0.0999609 1.73713 0
M  V30 2758 O 248.467 0.313867 1.98939 0
M  V30 2759 C 245.532 0.866079 3.35708 0
M  V30 2760 C 244.593 2.02979 3.78283 0
M  V30 2761 C 243.826 1.73184 5.0482 0
M  V30 2762 O 244.049 0.657237 5.66601 0
M  V30 2763 O 242.983 2.58267 5.43674 0
M  V30 2764 H 246.809 2.13474 2.16015 0
M  V30 2765 H 244.394 1.09587 1.01543 0
M  V30 2766 H 246.276 0.706623 4.15433 0
M  V30 2767 H 244.951 -0.0599443 3.23644 0
M  V30 2768 H 243.858 2.24454 2.99285 0
M  V30 2769 H 245.191 2.93734 3.94944 0
M  V30 2770 N 246.843 -1.10192 1.12674 0
M  V30 2771 C 247.793 -2.14754 0.765801 0
M  V30 2772 C 248.777 -1.59154 -0.236409 0
M  V30 2773 O 249.969 -1.76951 -0.0415261 0
M  V30 2774 C 247.098 -3.42563 0.224827 0
M  V30 2775 C 246.184 -4.05091 1.25548 0
M  V30 2776 N 246.575 -4.42287 2.4539 0
M  V30 2777 C 244.873 -4.32186 1.10142 0
M  V30 2778 C 245.574 -4.91441 3.11224 0
M  V30 2779 N 244.55 -4.88405 2.38666 0
M  V30 2780 H 248.352 -2.41309 1.67772 0
M  V30 2781 H 245.866 -1.27339 1.00789 0
M  V30 2782 H 247.863 -4.16868 -0.0519578 0
M  V30 2783 H 246.523 -3.17467 -0.681515 0
M  V30 2784 H 247.534 -4.33902 2.82754 0
M  V30 2785 H 244.211 -4.16735 0.252587 0
M  V30 2786 H 245.601 -5.29749 4.13298 0
M  V30 2787 N 248.321 -0.919034 -1.28029 0
M  V30 2788 C 249.551 -0.570143 -1.98577 0
M  V30 2789 C 249.959 0.854172 -1.68821 0
M  V30 2790 O 249.302 1.57807 -0.940351 0
M  V30 2791 C 249.364 -0.705734 -3.52505 0
M  V30 2792 C 249.028 -2.10057 -4.05863 0
M  V30 2793 C 250.025 -3.07385 -4.19298 0
M  V30 2794 C 247.71 -2.41517 -4.40426 0
M  V30 2795 C 249.704 -4.34287 -4.66555 0
M  V30 2796 C 247.391 -3.68657 -4.87376 0
M  V30 2797 C 248.389 -4.64856 -5.00398 0
M  V30 2798 O 248.077 -5.89735 -5.46322 0
M  V30 2799 H 247.809 -0.215592 -0.6407 0
M  V30 2800 H 250.363 -1.23583 -1.64062 0
M  V30 2801 H 248.593 0.0170414 -3.86696 0
M  V30 2802 H 250.282 -0.363172 -4.04272 0
M  V30 2803 H 251.048 -2.84398 -3.92865 0
M  V30 2804 H 246.927 -1.67389 -4.29537 0
M  V30 2805 H 250.471 -5.09377 -4.76635 0
M  V30 2806 H 246.368 -3.91466 -5.13249 0
M  V30 2807 H 247.136 -5.92599 -5.64596 0
M  V30 2808 N 249.799 1.42003 -0.683588 0
M  V30 2809 C 251.076 1.95112 -0.138075 0
M  V30 2810 C 251.456 1.62359 1.34918 0
M  V30 2811 O 250.804 0.924311 2.08971 0
M  V30 2812 C 251.014 3.46505 -0.416581 0
M  V30 2813 C 252.362 4.23254 -0.337834 0
M  V30 2814 O 253.386 3.54468 -0.35082 0
M  V30 2815 O 252.245 5.45743 -0.287596 0
M  V30 2816 H 249.339 0.826961 -0.00797996 0
M  V30 2817 H 251.885 1.51784 -0.758924 0
M  V30 2818 H 250.657 3.63582 -1.4465 0
M  V30 2819 H 250.28 3.969 0.235839 0
M  V30 2820 N 251.277 0.427512 1.51691 0
M  V30 2821 C 252.224 -0.388867 2.275 0
M  V30 2822 C 253.194 -1.02532 1.30677 0
M  V30 2823 O 254.379 -1.0461 1.59566 0
M  V30 2824 C 251.519 -1.48954 3.11298 0
M  V30 2825 C 250.632 -0.872194 4.23104 0
M  V30 2826 C 249.767 -1.94709 4.94228 0
M  V30 2827 C 248.806 -1.30766 5.97969 0
M  V30 2828 N 247.943 -2.32349 6.62539 0
M  V30 2829 H 252.783 0.263997 2.96828 0
M  V30 2830 H 250.32 0.142033 1.46413 0
M  V30 2831 H 252.278 -2.13887 3.58201 0
M  V30 2832 H 250.908 -2.11217 2.44105 0
M  V30 2833 H 249.96 -0.111419 3.80237 0
M  V30 2834 H 251.272 -0.365264 4.97461 0
M  V30 2835 H 250.426 -2.67327 5.44629 0
M  V30 2836 H 249.165 -2.48773 4.1948 0
M  V30 2837 H 248.17 -0.566902 5.4687 0
M  V30 2838 H 249.395 -0.774483 6.74669 0
M  V30 2839 H 247.341 -2.85511 5.90609 0
M  V30 2840 H 247.258 -1.8652 7.3263 0
M  V30 2841 H 248.526 -3.04481 7.17574 0
M  V30 2842 N 252.755 -1.56801 0.158532 0
M  V30 2843 C 253.983 -2.00859 -0.496303 0
M  V30 2844 C 254.398 -1.03871 -1.57659 0
M  V30 2845 O 253.755 -0.0375165 -1.82461 0
M  V30 2846 C 253.806 -3.4479 -1.08638 0
M  V30 2847 O 253.527 -4.38072 -0.0492322 0
M  V30 2848 C 255.028 -4.04185 -1.8207 0
M  V30 2849 H 252.248 -0.65864 -0.128199 0
M  V30 2850 H 254.792 -2.02885 0.256506 0
M  V30 2851 H 252.947 -3.43579 -1.78975 0
M  V30 2852 H 253.361 -5.2227 -0.483102 0
M  V30 2853 H 254.835 -5.06857 -2.18633 0
M  V30 2854 H 255.312 -3.45549 -2.71095 0
M  V30 2855 H 255.918 -4.0906 -1.16405 0
M  V30 2856 N 254.233 0.115231 -1.57178 0
M  V30 2857 C 255.649 0.468877 -1.52557 0
M  V30 2858 C 255.849 1.81649 -0.872125 0
M  V30 2859 O 254.905 2.48347 -0.45606 0
M  V30 2860 C 256.218 0.4499 -2.97315 0
M  V30 2861 C 257.766 0.533185 -3.08425 0
M  V30 2862 C 258.241 0.54456 -4.54751 0
M  V30 2863 N 259.732 0.605892 -4.5922 0
M  V30 2864 C 260.467 0.636203 -5.6986 0
M  V30 2865 N 259.963 0.623931 -6.89985 0
M  V30 2866 N 261.756 0.679496 -5.57978 0
M  V30 2867 H 253.907 -0.767712 -1.9804 0
M  V30 2868 H 256.17 -0.283609 -0.904583 0
M  V30 2869 H 255.876 -0.472721 -3.48509 0
M  V30 2870 H 255.75 1.27632 -3.5495 0
M  V30 2871 H 258.137 1.44623 -2.57232 0
M  V30 2872 H 258.218 -0.320995 -2.53778 0
M  V30 2873 H 257.862 -0.364452 -5.06591 0
M  V30 2874 H 257.792 1.41568 -5.07214 0
M  V30 2875 H 260.283 0.621386 -3.72756 0
M  V30 2876 H 260.596 0.649787 -7.70063 0
M  V30 2877 H 258.941 0.591296 -6.9248 0
M  V30 2878 H 262.132 0.686472 -4.63039 0
M  V30 2879 H 262.305 0.69965 -6.44212 0
M  V30 2880 N 255.711 1.52812 0.385517 0
M  V30 2881 C 256.661 1.74219 1.47078 0
M  V30 2882 C 257.645 0.59632 1.49442 0
M  V30 2883 O 258.837 0.85428 1.5502 0
M  V30 2884 C 255.966 1.9176 2.84751 0
M  V30 2885 C 255.052 3.12289 2.86943 0
M  V30 2886 N 255.443 4.34575 2.58802 0
M  V30 2887 C 253.741 3.12605 3.1811 0
M  V30 2888 C 254.442 5.162 2.68166 0
M  V30 2889 N 253.418 4.51964 3.02043 0
M  V30 2890 H 257.22 2.6639 1.24152 0
M  V30 2891 H 254.734 1.51166 0.593504 0
M  V30 2892 H 256.731 2.05218 3.62893 0
M  V30 2893 H 255.391 1.00805 3.08656 0
M  V30 2894 H 256.402 4.62649 2.32759 0
M  V30 2895 H 253.079 2.31472 3.47458 0
M  V30 2896 H 254.469 6.23689 2.49923 0
M  V30 2897 N 257.189 -0.644168 1.43834 0
M  V30 2898 C 258.099 -1.78563 1.52159 0
M  V30 2899 C 259.115 -1.69147 0.408069 0
M  V30 2900 O 260.291 -1.90156 0.663524 0
M  V30 2901 C 257.356 -3.14888 1.45073 0
M  V30 2902 C 256.417 -3.36034 2.6717 0
M  V30 2903 C 255.65 -4.65855 2.60413 0
M  V30 2904 O 255.873 -5.45805 1.65689 0
M  V30 2905 O 254.807 -4.88918 3.5106 0
M  V30 2906 H 258.633 -1.74494 2.48567 0
M  V30 2907 H 256.218 -0.80378 1.25935 0
M  V30 2908 H 258.1 -3.96179 1.43597 0
M  V30 2909 H 256.775 -3.19528 0.518037 0
M  V30 2910 H 255.682 -2.54472 2.74217 0
M  V30 2911 H 257.015 -3.36247 3.59442 0
M  V30 2912 N 258.668 -1.30515 -0.883378 0
M  V30 2913 C 259.578 -1.18959 -2.02203 0
M  V30 2914 C 260.594 -0.109172 -1.73657 0
M  V30 2915 O 261.77 -0.324413 -1.9877 0
M  V30 2916 C 258.835 -0.883871 -3.35244 0
M  V30 2917 C 257.896 -2.04982 -3.77201 0
M  V30 2918 C 257.129 -1.75859 -5.03894 0
M  V30 2919 O 257.352 -0.687276 -5.66244 0
M  V30 2920 O 256.286 -2.61146 -5.42297 0
M  V30 2921 H 260.112 -2.14616 -2.1488 0
M  V30 2922 H 257.697 -1.10124 -1.0096 0
M  V30 2923 H 259.579 -0.728644 -4.15053 0
M  V30 2924 H 258.254 0.0427798 -3.23672 0
M  V30 2925 H 257.161 -2.26038 -2.9809 0
M  V30 2926 H 258.494 -2.95825 -3.93381 0
M  V30 2927 N 260.146 1.09593 -1.13257 0
M  V30 2928 C 261.393 1.81734 -0.893257 0
M  V30 2929 C 261.721 1.8563 0.580656 0
M  V30 2930 O 260.976 1.31906 1.44566 0
M  V30 2931 C 261.275 3.27802 -1.42411 0
M  V30 2932 C 260.941 3.44041 -2.91456 0
M  V30 2933 C 259.603 3.48181 -3.3215 0
M  V30 2934 C 261.955 3.48719 -3.87356 0
M  V30 2935 C 259.283 3.54575 -4.67433 0
M  V30 2936 C 261.635 3.56648 -5.2248 0
M  V30 2937 C 260.299 3.59055 -5.62704 0
M  V30 2938 H 259.569 0.665011 -0.326866 0
M  V30 2939 H 262.216 1.2912 -1.41422 0
M  V30 2940 H 260.521 3.83042 -0.823795 0
M  V30 2941 H 262.218 3.82149 -1.21503 0
M  V30 2942 H 258.808 3.41502 -2.58987 0
M  V30 2943 H 262.992 3.44763 -3.57004 0
M  V30 2944 H 258.248 3.54725 -4.97976 0
M  V30 2945 H 262.422 3.59212 -5.96607 0
M  V30 2946 H 260.049 3.63763 -6.67518 0
M  V30 2947 N 261.624 0.925811 1.2754 0
M  V30 2948 C 262.571 0.422045 2.26908 0
M  V30 2949 C 263.541 -0.510029 1.58076 0
M  V30 2950 O 264.726 -0.429599 1.85901 0
M  V30 2951 C 261.866 -0.320837 3.43605 0
M  V30 2952 C 260.979 0.64513 4.27156 0
M  V30 2953 C 260.114 -0.117405 5.3107 0
M  V30 2954 C 259.153 0.841391 6.0629 0
M  V30 2955 N 258.29 0.111604 7.02011 0
M  V30 2956 H 263.13 1.27441 2.69375 0
M  V30 2957 H 260.667 0.639697 1.32462 0
M  V30 2958 H 262.625 -0.76785 4.10073 0
M  V30 2959 H 261.255 -1.13745 3.02096 0
M  V30 2960 H 260.307 1.21067 3.6062 0
M  V30 2961 H 261.619 1.37797 4.79389 0
M  V30 2962 H 260.773 -0.624422 6.03478 0
M  V30 2963 H 259.512 -0.883219 4.79636 0
M  V30 2964 H 258.517 1.35967 5.32722 0
M  V30 2965 H 259.742 1.60696 6.59813 0
M  V30 2966 H 257.688 -0.635999 6.5291 0
M  V30 2967 H 257.605 0.784044 7.51923 0
M  V30 2968 H 258.873 -0.374823 7.78598 0
M  V30 2969 N 263.102 -1.41638 0.69111 0
M  V30 2970 C 264.049 -2.30789 0.0229705 0
M  V30 2971 C 265.019 -1.46863 -0.775911 0
M  V30 2972 O 266.204 -1.75661 -0.74485 0
M  V30 2973 C 263.344 -3.32868 -0.910666 0
M  V30 2974 C 262.457 -4.31875 -0.103874 0
M  V30 2975 C 261.592 -5.21024 -1.03475 0
M  V30 2976 C 260.631 -6.11702 -0.220598 0
M  V30 2977 N 259.768 -6.93349 -1.10504 0
M  V30 2978 H 264.608 -2.87366 0.788978 0
M  V30 2979 H 262.145 -1.41535 0.400794 0
M  V30 2980 H 264.103 -3.90596 -1.46597 0
M  V30 2981 H 262.733 -2.77851 -1.64312 0
M  V30 2982 H 261.785 -3.76131 0.568285 0
M  V30 2983 H 263.097 -4.96003 0.527504 0
M  V30 2984 H 262.251 -5.83565 -1.65943 0
M  V30 2985 H 260.99 -4.57112 -1.69999 0
M  V30 2986 H 259.995 -5.48215 0.417187 0
M  V30 2987 H 261.22 -6.77668 0.440784 0
M  V30 2988 H 259.166 -6.3205 -1.75638 0
M  V30 2989 H 259.083 -7.54146 -0.529125 0
M  V30 2990 H 260.351 -7.60362 -1.71667 0
M  V30 2991 N 264.58 -0.43555 -1.51462 0
M  V30 2992 C 265.81 0.130053 -2.0619 0
M  V30 2993 C 266.218 1.37164 -1.30317 0
M  V30 2994 O 265.561 1.80225 -0.355598 0
M  V30 2995 C 265.623 0.519418 -3.55728 0
M  V30 2996 C 265.287 -0.615119 -4.52841 0
M  V30 2997 C 266.284 -1.48671 -4.9819 0
M  V30 2998 C 263.969 -0.795341 -4.95963 0
M  V30 2999 C 265.963 -2.52324 -5.8533 0
M  V30 3000 C 263.65 -1.83514 -5.82894 0
M  V30 3001 C 264.648 -2.69748 -6.27475 0
M  V30 3002 O 264.336 -3.71944 -7.1268 0
M  V30 3003 H 264.068 0.0121612 -0.675891 0
M  V30 3004 H 266.622 -0.6129 -1.96043 0
M  V30 3005 H 264.852 1.31505 -3.63653 0
M  V30 3006 H 266.541 1.01597 -3.92979 0
M  V30 3007 H 267.307 -1.359 -4.65571 0
M  V30 3008 H 263.186 -0.133713 -4.60806 0
M  V30 3009 H 266.73 -3.19665 -6.20048 0
M  V30 3010 H 262.627 -1.96306 -6.14926 0
M  V30 3011 H 263.395 -3.68503 -7.30854 0
M  V30 3012 N 266.058 1.56714 -0.166846 0
M  V30 3013 C 266.968 2.21331 0.777791 0
M  V30 3014 C 267.984 1.20358 1.25658 0
M  V30 3015 O 269.16 1.53005 1.30964 0
M  V30 3016 C 266.225 2.83787 1.99163 0
M  V30 3017 C 265.286 3.99947 1.56016 0
M  V30 3018 C 264.519 4.59415 2.71613 0
M  V30 3019 O 264.742 4.17769 3.88362 0
M  V30 3020 O 263.676 5.49359 2.45945 0
M  V30 3021 H 267.502 3.02605 0.257636 0
M  V30 3022 H 265.087 1.49275 0.0611393 0
M  V30 3023 H 266.969 3.23405 2.70161 0
M  V30 3024 H 265.644 2.05513 2.50092 0
M  V30 3025 H 264.551 3.65007 0.819809 0
M  V30 3026 H 265.884 4.79801 1.09782 0
M  V30 3027 N 267.536 -0.106894 1.57237 0
M  V30 3028 C 268.469 -1.16125 1.96444 0
M  V30 3029 C 269.447 -1.3947 0.835871 0
M  V30 3030 O 270.631 -1.53425 1.09513 0
M  V30 3031 C 267.758 -2.51277 2.27107 0
M  V30 3032 C 266.804 -2.44285 3.4961 0
M  V30 3033 S 267.637 -1.87077 5.01759 0
M  V30 3034 C 268.793 -3.23877 5.35588 0
M  V30 3035 H 269.026 -0.826971 2.85567 0
M  V30 3036 H 266.559 -0.314124 1.51171 0
M  V30 3037 H 268.517 -3.29035 2.45451 0
M  V30 3038 H 267.178 -2.81879 1.38576 0
M  V30 3039 H 266.371 -3.4387 3.68469 0
M  V30 3040 H 265.973 -1.74652 3.30715 0
M  V30 3041 H 268.265 -4.20122 5.31511 0
M  V30 3042 H 269.208 -3.09833 6.36717 0
M  V30 3043 H 269.616 -3.22864 4.63054 0
M  V30 3044 N 269.014 -1.53014 -0.377408 0
M  V30 3045 C 269.947 -1.73382 -1.48371 0
M  V30 3046 C 270.925 -0.581879 -1.51832 0
M  V30 3047 O 272.109 -0.81307 -1.70063 0
M  V30 3048 C 269.236 -1.80192 -2.8679 0
M  V30 3049 C 268.282 -3.02056 -3.01105 0
M  V30 3050 S 269.115 -4.61811 -2.71093 0
M  V30 3051 C 270.271 -4.71453 -4.11683 0
M  V30 3052 H 270.504 -2.66946 -1.30872 0
M  V30 3053 H 268.037 -1.43453 -0.571012 0
M  V30 3054 H 269.995 -1.84802 -3.6655 0
M  V30 3055 H 268.656 -0.877008 -3.01608 0
M  V30 3056 H 267.849 -3.03396 -4.02451 0
M  V30 3057 H 267.451 -2.95498 -2.29253 0
M  V30 3058 H 269.743 -4.50781 -5.0577 0
M  V30 3059 H 270.686 -5.73487 -4.15353 0
M  V30 3060 H 271.094 -4.00189 -3.98132 0
M  V30 3061 N 270.492 0.636531 -1.44174 0
M  V30 3062 C 271.439 1.74875 -1.50624 0
M  V30 3063 C 272.409 1.62275 -0.35442 0
M  V30 3064 O 273.594 1.82276 -0.563908 0
M  V30 3065 C 270.734 3.13102 -1.45125 0
M  V30 3066 C 269.847 3.36717 -2.7064 0
M  V30 3067 C 268.982 4.64885 -2.57013 0
M  V30 3068 C 268.021 4.8166 -3.77717 0
M  V30 3069 N 267.158 6.01101 -3.62798 0
M  V30 3070 H 271.998 1.68697 -2.45653 0
M  V30 3071 H 269.535 0.823004 -1.21922 0
M  V30 3072 H 271.493 3.93034 -1.39929 0
M  V30 3073 H 270.123 3.18308 -0.536671 0
M  V30 3074 H 269.175 2.50763 -2.86046 0
M  V30 3075 H 270.487 3.44993 -3.60252 0
M  V30 3076 H 269.641 5.52969 -2.49619 0
M  V30 3077 H 268.38 4.58957 -1.64953 0
M  V30 3078 H 267.385 3.92007 -3.85501 0
M  V30 3079 H 268.61 4.89406 -4.70807 0
M  V30 3080 H 266.556 5.96273 -2.73486 0
M  V30 3081 H 266.473 6.10409 -4.46023 0
M  V30 3082 H 267.741 6.91761 -3.59286 0
M  V30 3083 N 271.97 1.30982 0.876444 0
M  V30 3084 C 272.88 1.2003 2.01569 0
M  V30 3085 C 273.896 0.11838 1.73597 0
M  V30 3086 O 275.072 0.33495 1.98595 0
M  V30 3087 C 272.137 0.901637 3.34771 0
M  V30 3088 C 271.198 2.06979 3.76109 0
M  V30 3089 C 270.431 1.78529 5.02954 0
M  V30 3090 O 270.654 0.717296 5.65872 0
M  V30 3091 O 269.588 2.64019 5.40905 0
M  V30 3092 H 273.414 2.15753 2.13739 0
M  V30 3093 H 270.999 1.10658 1.00375 0
M  V30 3094 H 272.881 0.750645 4.1466 0
M  V30 3095 H 271.556 -0.0256141 3.2369 0
M  V30 3096 H 270.463 2.27616 2.96887 0
M  V30 3097 H 271.796 2.97907 3.91807 0
M  V30 3098 N 273.449 -1.08991 1.13837 0
M  V30 3099 C 274.399 -2.1393 0.788535 0
M  V30 3100 C 275.383 -1.59396 -0.219516 0
M  V30 3101 O 276.575 -1.76985 -0.0227557 0
M  V30 3102 C 273.704 -3.42305 0.261147 0
M  V30 3103 C 272.79 -4.03736 1.29837 0
M  V30 3104 N 273.181 -4.39659 2.50067 0
M  V30 3105 C 271.479 -4.30993 1.1472 0
M  V30 3106 C 272.18 -4.88113 3.16419 0
M  V30 3107 N 271.156 -4.85846 2.43832 0
M  V30 3108 H 274.958 -2.39516 1.70322 0
M  V30 3109 H 272.472 -1.26263 1.02134 0
M  V30 3110 H 274.469 -4.16899 -0.0077405 0
M  V30 3111 H 273.129 -3.18172 -0.647805 0
M  V30 3112 H 274.14 -4.30878 2.8734 0
M  V30 3113 H 270.817 -4.16444 0.296773 0
M  V30 3114 H 272.207 -5.25336 4.18894 0
M  V30 3115 N 274.927 -0.932562 -1.27047 0
M  V30 3116 C 275.837 -0.441219 -2.30414 0
M  V30 3117 C 276.853 0.480525 -1.67233 0
M  V30 3118 O 278.029 0.362151 -1.98117 0
M  V30 3119 C 275.094 0.293651 -3.45454 0
M  V30 3120 C 274.155 -0.663601 -4.2414 0
M  V30 3121 C 273.388 0.0362932 -5.33688 0
M  V30 3122 O 273.611 1.2548 -5.56427 0
M  V30 3123 O 272.545 -0.638015 -5.98509 0
M  V30 3124 H 276.371 -1.29962 -2.74488 0
M  V30 3125 H 273.956 -0.6981 -1.32087 0
M  V30 3126 H 275.838 0.707951 -4.15411 0
M  V30 3127 H 274.513 1.12758 -3.03426 0
M  V30 3128 H 273.42 -1.12768 -3.56699 0
M  V30 3129 H 274.753 -1.46489 -4.69896 0
M  V30 3130 N 276.405 1.4127 -0.698611 0
M  V30 3131 C 277.821 1.55241 -0.370462 0
M  V30 3132 C 278.021 1.67351 1.12231 0
M  V30 3133 O 277.077 1.65363 1.90818 0
M  V30 3134 C 278.39 2.78997 -1.12165 0
M  V30 3135 C 279.938 2.92797 -1.1063 0
M  V30 3136 C 280.413 4.19445 -1.8393 0
M  V30 3137 N 281.904 4.26409 -1.80914 0
M  V30 3138 C 282.639 5.23271 -2.34467 0
M  V30 3139 N 282.135 6.26145 -2.96504 0
M  V30 3140 N 283.928 5.15232 -2.24706 0
M  V30 3141 H 276.079 1.31654 -1.66676 0
M  V30 3142 H 278.342 0.635393 -0.703548 0
M  V30 3143 H 278.048 2.76268 -2.17644 0
M  V30 3144 H 277.922 3.70606 -0.702209 0
M  V30 3145 H 280.309 2.95039 -0.0597713 0
M  V30 3146 H 280.39 2.02353 -1.56483 0
M  V30 3147 H 280.034 4.17964 -2.88563 0
M  V30 3148 H 279.964 5.08866 -1.35509 0
M  V30 3149 H 282.455 3.527 -1.35687 0
M  V30 3150 H 282.768 6.96451 -3.34927 0
M  V30 3151 H 281.113 6.26638 -3.00583 0
M  V30 3152 H 284.304 4.33789 -1.7591 0
M  V30 3153 H 284.477 5.90552 -2.66745 0
M  V30 3154 N 277.883 0.443576 1.51229 0
M  V30 3155 C 279.299 0.0962001 1.5931 0
M  V30 3156 C 279.499 -1.39501 1.45402 0
M  V30 3157 O 278.555 -2.16557 1.29843 0
M  V30 3158 C 279.868 0.621875 2.94199 0
M  V30 3159 C 281.416 0.582865 3.07525 0
M  V30 3160 C 281.891 1.08562 4.44948 0
M  V30 3161 N 283.382 1.04387 4.51284 0
M  V30 3162 C 284.117 1.40368 5.55954 0
M  V30 3163 N 283.613 1.83664 6.68011 0
M  V30 3164 N 285.406 1.32145 5.46346 0
M  V30 3165 H 277.557 1.41376 1.58514 0
M  V30 3166 H 279.82 0.582965 0.747567 0
M  V30 3167 H 279.526 1.66546 3.09767 0
M  V30 3168 H 279.4 0.0502125 3.77167 0
M  V30 3169 H 281.787 -0.451749 2.91622 0
M  V30 3170 H 281.868 1.191 2.26382 0
M  V30 3171 H 281.512 2.11873 4.61598 0
M  V30 3172 H 281.442 0.453956 5.2464 0
M  V30 3173 H 283.933 0.725986 3.70861 0
M  V30 3174 H 284.246 2.0934 7.43906 0
M  V30 3175 H 282.591 1.87596 6.69203 0
M  V30 3176 H 285.782 0.981808 4.57688 0
M  V30 3177 H 285.955 1.60514 6.27805 0
M  V30 3178 N 279.361 -1.56624 0.175154 0
M  V30 3179 C 280.271 -2.21741 -0.766042 0
M  V30 3180 C 281.287 -1.21023 -1.25018 0
M  V30 3181 O 282.463 -1.53697 -1.3015 0
M  V30 3182 C 279.528 -2.84839 -1.97655 0
M  V30 3183 C 278.589 -4.00769 -1.53892 0
M  V30 3184 C 277.822 -4.60849 -2.69173 0
M  V30 3185 O 278.045 -4.19823 -3.86141 0
M  V30 3186 O 276.979 -5.50655 -2.43028 0
M  V30 3187 H 280.805 -3.02738 -0.241585 0
M  V30 3188 H 278.39 -1.49305 -0.053222 0
M  V30 3189 H 280.272 -3.24834 -2.68442 0
M  V30 3190 H 278.947 -2.06836 -2.48999 0
M  V30 3191 H 277.854 -3.65436 -0.80044 0
M  V30 3192 H 279.187 -4.80376 -1.07236 0
M  V30 3193 N 280.839 0.0985539 -1.57292 0
M  V30 3194 C 282.069 0.815135 -1.8984 0
M  V30 3195 C 282.477 1.7297 -0.766679 0
M  V30 3196 O 281.82 1.81698 0.270483 0
M  V30 3197 C 281.882 1.6842 -3.17608 0
M  V30 3198 C 281.546 0.94182 -4.4719 0
M  V30 3199 C 282.543 0.273212 -5.19182 0
M  V30 3200 C 280.228 0.916927 -4.9386 0
M  V30 3201 C 282.222 -0.410361 -6.36078 0
M  V30 3202 C 279.909 0.229567 -6.10669 0
M  V30 3203 C 280.907 -0.432902 -6.81627 0
M  V30 3204 O 280.595 -1.10925 -7.9621 0
M  V30 3205 H 280.327 0.238501 -0.632529 0
M  V30 3206 H 282.881 0.0812659 -2.05239 0
M  V30 3207 H 281.111 2.46022 -2.98345 0
M  V30 3208 H 282.8 2.27704 -3.36015 0
M  V30 3209 H 283.566 0.283927 -4.84168 0
M  V30 3210 H 279.445 1.42201 -4.3852 0
M  V30 3211 H 282.989 -0.928013 -6.914 0
M  V30 3212 H 278.886 0.216686 -6.45136 0
M  V30 3213 H 279.654 -1.01579 -8.12172 0
M  V30 3214 N 282.317 1.53212 0.369288 0
M  V30 3215 C 283.247 1.82365 1.45826 0
M  V30 3216 C 284.228 0.676907 1.56051 0
M  V30 3217 O 285.413 0.926401 1.70679 0
M  V30 3218 C 282.543 2.01023 2.83208 0
M  V30 3219 C 281.497 3.1678 2.8781 0
M  V30 3220 C 280.823 3.20724 4.27832 0
M  V30 3221 C 282.123 4.55447 2.55667 0
M  V30 3222 H 283.817 2.73559 1.21678 0
M  V30 3223 H 281.363 1.3163 0.583911 0
M  V30 3224 H 283.316 2.20001 3.59413 0
M  V30 3225 H 282.04 1.06536 3.08736 0
M  V30 3226 H 280.699 2.97616 2.14056 0
M  V30 3227 H 280.347 2.23882 4.50429 0
M  V30 3228 H 280.047 3.98496 4.31827 0
M  V30 3229 H 281.571 3.41881 5.05915 0
M  V30 3230 H 282.985 4.74611 3.21586 0
M  V30 3231 H 281.382 5.35432 2.70984 0
M  V30 3232 H 282.452 4.60812 1.5093 0
M  V30 3233 N 283.795 -0.628877 1.44509 0
M  V30 3234 C 284.742 -1.74074 1.51549 0
M  V30 3235 C 285.712 -1.62084 0.363021 0
M  V30 3236 O 286.897 -1.81975 0.573567 0
M  V30 3237 C 284.037 -3.12328 1.46784 0
M  V30 3238 C 283.15 -3.35277 2.72422 0
M  V30 3239 C 282.285 -4.63515 2.59475 0
M  V30 3240 C 281.324 -4.7965 3.80266 0
M  V30 3241 N 280.461 -5.99168 3.65981 0
M  V30 3242 H 285.301 -1.67392 2.46544 0
M  V30 3243 H 282.838 -0.816527 1.22357 0
M  V30 3244 H 284.796 -3.92286 1.42012 0
M  V30 3245 H 283.426 -3.18018 0.553544 0
M  V30 3246 H 282.478 -2.49242 2.87372 0
M  V30 3247 H 283.79 -3.43078 3.62076 0
M  V30 3248 H 282.944 -5.51638 2.52548 0
M  V30 3249 H 281.683 -4.58076 1.67384 0
M  V30 3250 H 280.688 -3.89957 3.87574 0
M  V30 3251 H 281.913 -4.86902 4.73395 0
M  V30 3252 H 279.859 -5.94814 2.76644 0
M  V30 3253 H 279.776 -6.08035 4.49254 0
M  V30 3254 H 281.044 -6.89846 3.6295 0
M  V30 3255 N 285.273 -1.31445 -0.869486 0
M  V30 3256 C 286.501 -1.24122 -1.65534 0
M  V30 3257 C 286.916 0.193387 -1.87807 0
M  V30 3258 O 286.273 1.12557 -1.43656 0
M  V30 3259 C 286.324 -1.98229 -3.02304 0
M  V30 3260 O 286.045 -3.3609 -2.81026 0
M  V30 3261 C 287.546 -1.97751 -3.96749 0
M  V30 3262 H 284.766 -0.428868 -0.516055 0
M  V30 3263 H 287.31 -1.73328 -1.08525 0
M  V30 3264 H 285.465 -1.52782 -3.56001 0
M  V30 3265 H 285.879 -3.7383 -3.67902 0
M  V30 3266 H 287.353 -2.54114 -4.90031 0
M  V30 3267 H 287.83 -0.960137 -4.28577 0
M  V30 3268 H 288.436 -2.43079 -3.48988 0
M  V30 3269 N 286.751 1.08385 -1.14413 0
M  V30 3270 C 287.681 2.17321 -0.854044 0
M  V30 3271 C 288.662 1.69024 0.191049 0
M  V30 3272 O 289.847 1.94141 0.0476779 0
M  V30 3273 C 286.977 3.45719 -0.330983 0
M  V30 3274 C 285.931 4.07409 -1.31155 0
M  V30 3275 C 285.257 5.30762 -0.64778 0
M  V30 3276 C 286.557 4.48665 -2.67388 0
M  V30 3277 H 288.251 2.41845 -1.76498 0
M  V30 3278 H 285.797 1.16233 -0.850051 0
M  V30 3279 H 287.75 4.21241 -0.115645 0
M  V30 3280 H 286.474 3.2075 0.615381 0
M  V30 3281 H 285.133 3.33919 -1.51306 0
M  V30 3282 H 284.781 5.02078 0.304398 0
M  V30 3283 H 284.481 5.72992 -1.30207 0
M  V30 3284 H 286.005 6.08998 -0.441972 0
M  V30 3285 H 287.419 5.15364 -2.51143 0
M  V30 3286 H 285.816 5.01814 -3.29093 0
M  V30 3287 H 286.886 3.60543 -3.24248 0
M  V30 3288 N 288.23 0.939286 1.26551 0
M  V30 3289 C 289.178 0.43815 2.28436 0
M  V30 3290 C 290.172 -0.483587 1.62351 0
M  V30 3291 O 291.378 -0.362009 1.76322 0
M  V30 3292 H 287.753 0.123149 0.741848 0
M  V30 3293 H 289.724 1.31002 2.68106 0
M  V30 3294 C 288.473 -0.283052 3.46546 0
M  V30 3295 H 287.796 0.417043 3.97619 0
M  V30 3296 H 289.236 -0.597948 4.19763 0
M  V30 3297 C 287.695 -1.50018 3.01656 0
M  V30 3298 O 288.225 -2.59855 3.0633 0
M  V30 3299 N 286.431 -1.35608 2.57019 0
M  V30 3300 H 285.978 -0.46244 2.53415 0
M  V30 3301 H 285.936 -2.17165 2.27347 0
M  V30 3302 N 289.708 -1.40897 0.706093 0
M  V30 3303 C 290.618 -2.3455 0.0482286 0
M  V30 3304 C 291.634 -1.56796 -0.754396 0
M  V30 3305 O 292.81 -1.89228 -0.689538 0
M  V30 3306 C 289.875 -3.35625 -0.869303 0
M  V30 3307 C 288.936 -4.29261 -0.0576994 0
M  V30 3308 C 288.169 -5.25508 -0.931531 0
M  V30 3309 O 288.392 -5.27472 -2.17092 0
M  V30 3310 O 287.326 -6.00727 -0.375587 0
M  V30 3311 H 291.152 -2.92407 0.820476 0
M  V30 3312 H 288.737 -1.4193 0.4665 0
M  V30 3313 H 290.619 -3.97635 -1.39514 0
M  V30 3314 H 289.294 -2.80196 -1.62086 0
M  V30 3315 H 288.201 -3.70566 0.512988 0
M  V30 3316 H 289.534 -4.87817 0.655426 0
M  V30 3317 N 291.186 -0.45159 -1.50991 0
M  V30 3318 C 292.096 0.358431 -2.31846 0
M  V30 3319 C 293.112 1.01438 -1.41373 0
M  V30 3320 O 294.288 1.00663 -1.74439 0
M  V30 3321 C 291.353 1.43704 -3.15515 0
M  V30 3322 C 290.414 0.799742 -4.21785 0
M  V30 3323 C 289.647 1.82696 -5.01456 0
M  V30 3324 O 289.87 3.05105 -4.81941 0
M  V30 3325 O 288.804 1.40958 -5.85162 0
M  V30 3326 H 292.63 -0.302032 -3.02194 0
M  V30 3327 H 290.215 -0.213825 -1.47862 0
M  V30 3328 H 292.097 2.06227 -3.67489 0
M  V30 3329 H 290.772 2.08133 -2.47916 0
M  V30 3330 H 289.679 0.136084 -3.73852 0
M  V30 3331 H 291.012 0.198718 -4.91799 0
M  V30 3332 N 292.664 1.56529 -0.183458 0
M  V30 3333 C 293.611 2.18546 0.742055 0
M  V30 3334 C 294.581 1.12912 1.2182 0
M  V30 3335 O 295.766 1.41115 1.28418 0
M  V30 3336 C 292.906 2.83977 1.96089 0
M  V30 3337 C 292.019 4.04105 1.52719 0
M  V30 3338 C 291.154 4.57427 2.70063 0
M  V30 3339 C 290.193 5.69938 2.23243 0
M  V30 3340 N 289.33 6.17717 3.33722 0
M  V30 3341 H 294.17 2.97284 0.206432 0
M  V30 3342 H 291.707 1.46823 0.0901571 0
M  V30 3343 H 293.665 3.20077 2.67594 0
M  V30 3344 H 292.295 2.07822 2.47002 0
M  V30 3345 H 291.347 3.73745 0.708436 0
M  V30 3346 H 292.659 4.85513 1.1436 0
M  V30 3347 H 291.813 4.95772 3.49708 0
M  V30 3348 H 290.552 3.75101 3.11689 0
M  V30 3349 H 289.557 5.31133 1.42048 0
M  V30 3350 H 290.782 6.54073 1.82661 0
M  V30 3351 H 288.728 5.38317 3.74902 0
M  V30 3352 H 288.645 6.94146 2.99495 0
M  V30 3353 H 289.913 6.60713 4.13616 0
M  V30 3354 N 294.142 -0.090211 1.57342 0
M  V30 3355 C 295.558 -0.444547 1.53284 0
M  V30 3356 C 295.758 -1.80238 0.900914 0
M  V30 3357 O 294.814 -2.4759 0.495513 0
M  V30 3358 C 296.127 -0.402543 2.97993 0
M  V30 3359 C 297.675 -0.48405 3.09234 0
M  V30 3360 C 298.15 -0.472144 4.5556 0
M  V30 3361 N 299.641 -0.532757 4.60126 0
M  V30 3362 C 300.376 -0.545462 5.708 0
M  V30 3363 N 299.872 -0.514082 6.9089 0
M  V30 3364 N 301.665 -0.59064 5.58988 0
M  V30 3365 H 293.816 0.799121 1.96794 0
M  V30 3366 H 296.079 0.297965 0.899956 0
M  V30 3367 H 295.785 0.528106 3.47712 0
M  V30 3368 H 295.659 -1.21969 3.56936 0
M  V30 3369 H 298.046 -1.40512 2.595 0
M  V30 3370 H 298.127 0.361328 2.53235 0
M  V30 3371 H 297.771 0.445 5.05947 0
M  V30 3372 H 297.701 -1.3348 5.09402 0
M  V30 3373 H 300.192 -0.562006 3.73698 0
M  V30 3374 H 300.505 -0.527195 7.71 0
M  V30 3375 H 298.85 -0.481054 6.93333 0
M  V30 3376 H 302.041 -0.61272 4.64073 0
M  V30 3377 H 302.214 -0.597073 6.45243 0
M  V30 3378 N 295.62 -1.53406 -0.361157 0
M  V30 3379 C 296.567 -1.80156 -1.44265 0
M  V30 3380 C 297.537 -0.646183 -1.53015 0
M  V30 3381 O 298.722 -0.888818 -1.68833 0
M  V30 3382 C 295.862 -2.00116 -2.81154 0
M  V30 3383 C 294.975 -3.27833 -2.81335 0
M  V30 3384 C 294.11 -3.37957 -4.09828 0
M  V30 3385 C 293.149 -4.59689 -4.04168 0
M  V30 3386 N 292.286 -4.66942 -5.24318 0
M  V30 3387 H 297.126 -2.72438 -1.20754 0
M  V30 3388 H 294.663 -1.34954 -0.585296 0
M  V30 3389 H 296.621 -2.09677 -3.60682 0
M  V30 3390 H 295.251 -1.11167 -3.03054 0
M  V30 3391 H 294.303 -3.27204 -1.94014 0
M  V30 3392 H 295.615 -4.17442 -2.73027 0
M  V30 3393 H 294.769 -3.46853 -4.97773 0
M  V30 3394 H 293.508 -2.46372 -4.20894 0
M  V30 3395 H 292.513 -4.50889 -3.14609 0
M  V30 3396 H 293.738 -5.5262 -3.947 0
M  V30 3397 H 291.684 -3.7826 -5.35962 0
M  V30 3398 H 291.601 -5.50462 -5.18197 0
M  V30 3399 H 292.869 -4.80127 -6.14084 0
M  V30 3400 N 297.098 0.621204 -1.44841 0
M  V30 3401 C 298.008 1.7612 -1.5498 0
M  V30 3402 C 299.024 1.68477 -0.434927 0
M  V30 3403 O 300.2 1.89076 -0.693693 0
M  V30 3404 C 297.265 3.1254 -1.50065 0
M  V30 3405 C 296.326 3.31741 -2.72482 0
M  V30 3406 C 295.559 4.61653 -2.67792 0
M  V30 3407 O 295.782 5.431 -1.74352 0
M  V30 3408 O 294.716 4.83271 -3.58794 0
M  V30 3409 H 298.542 1.70518 -2.51311 0
M  V30 3410 H 296.127 0.783643 -1.27198 0
M  V30 3411 H 298.009 3.93844 -1.49882 0
M  V30 3412 H 296.684 3.18663 -0.568806 0
M  V30 3413 H 295.591 2.50077 -2.7823 0
M  V30 3414 H 296.924 3.30486 -3.64746 0
M  V30 3415 N 298.576 1.31904 0.862503 0
M  V30 3416 C 299.486 1.22161 2.00285 0
M  V30 3417 C 300.502 0.136785 1.73462 0
M  V30 3418 O 301.678 0.355994 1.98229 0
M  V30 3419 C 298.743 0.937093 3.33796 0
M  V30 3420 C 297.804 2.10957 3.73893 0
M  V30 3421 C 297.037 1.83853 5.01033 0
M  V30 3422 O 297.26 0.777274 5.65079 0
M  V30 3423 O 296.194 2.69741 5.38074 0
M  V30 3424 H 300.02 2.18008 2.11439 0
M  V30 3425 H 297.605 1.11716 0.991957 0
M  V30 3426 H 299.487 0.794583 4.13841 0
M  V30 3427 H 298.162 0.00871894 3.23699 0
M  V30 3428 H 297.069 2.30752 2.94456 0
M  V30 3429 H 298.402 3.02046 3.88625 0
M  V30 3430 N 300.054 -1.07777 1.14986 0
M  V30 3431 C 300.964 -2.18404 0.856546 0
M  V30 3432 C 301.98 -1.73211 -0.165485 0
M  V30 3433 O 303.156 -2.01399 0.00755219 0
M  V30 3434 C 300.221 -3.44977 0.34526 0
M  V30 3435 C 299.282 -4.0476 1.43065 0
M  V30 3436 C 298.515 -5.25291 0.943663 0
M  V30 3437 O 298.738 -5.70004 -0.212426 0
M  V30 3438 O 297.672 -5.76638 1.72547 0
M  V30 3439 H 301.498 -2.45978 1.78125 0
M  V30 3440 H 299.083 -1.17033 0.928631 0
M  V30 3441 H 300.965 -4.21348 0.0663671 0
M  V30 3442 H 299.64 -3.18965 -0.551631 0
M  V30 3443 H 298.547 -3.29949 1.76309 0
M  V30 3444 H 299.88 -4.35035 2.30229 0
M  V30 3445 N 301.532 -0.945985 -1.26051 0
M  V30 3446 C 302.757 -0.612525 -1.98149 0
M  V30 3447 C 303.182 0.806623 -1.69927 0
M  V30 3448 O 302.54 1.54411 -0.950108 0
M  V30 3449 C 302.588 -0.866981 -3.50023 0
M  V30 3450 O 301.692 0.0585333 -4.12358 0
M  V30 3451 H 301.033 -0.23379 -0.621481 0
M  V30 3452 H 303.563 -1.27023 -1.60395 0
M  V30 3453 H 303.573 -0.789792 -4.00283 0
M  V30 3454 H 302.248 -1.90135 -3.69894 0
M  V30 3455 H 300.825 -0.0701241 -3.72834 0
M  V30 3456 N 303.011 1.40521 -0.713556 0
M  V30 3457 C 303.958 2.30723 -0.059684 0
M  V30 3458 C 304.928 1.48079 0.752448 0
M  V30 3459 O 306.113 1.76823 0.71681 0
M  V30 3460 C 303.253 3.34274 0.857594 0
M  V30 3461 C 302.366 4.31986 0.0351536 0
M  V30 3462 C 301.501 5.22605 0.951724 0
M  V30 3463 C 300.54 6.11976 0.123253 0
M  V30 3464 N 299.677 6.9502 0.99459 0
M  V30 3465 H 304.517 2.86074 -0.834596 0
M  V30 3466 H 302.054 1.40879 -0.42326 0
M  V30 3467 H 304.012 3.92879 1.40364 0
M  V30 3468 H 302.642 2.8043 1.59871 0
M  V30 3469 H 301.694 3.7518 -0.628052 0
M  V30 3470 H 303.006 4.95101 -0.606347 0
M  V30 3471 H 302.16 5.86131 1.56638 0
M  V30 3472 H 300.899 4.59759 1.62705 0
M  V30 3473 H 299.904 5.47482 -0.50435 0
M  V30 3474 H 301.129 6.76881 -0.548539 0
M  V30 3475 H 299.075 6.34764 1.6556 0
M  V30 3476 H 298.992 7.54892 0.40908 0
M  V30 3477 H 300.26 7.62997 1.59549 0
M  V30 3478 N 304.489 0.459591 1.5075 0
M  V30 3479 C 305.736 -0.0993495 2.02256 0
M  V30 3480 C 306.064 -1.40751 1.34237 0
M  V30 3481 O 305.319 -1.90379 0.453228 0
M  V30 3482 C 305.618 -0.342866 3.55752 0
M  V30 3483 C 305.284 0.88218 4.42186 0
M  V30 3484 C 303.946 1.21808 4.65528 0
M  V30 3485 C 306.298 1.69837 4.92752 0
M  V30 3486 C 303.626 2.37045 5.36681 0
M  V30 3487 C 305.978 2.84192 5.65171 0
M  V30 3488 C 304.642 3.1821 5.8677 0
M  V30 3489 H 303.912 -0.0363545 0.740108 0
M  V30 3490 H 306.559 0.611329 1.8148 0
M  V30 3491 H 304.864 -1.13567 3.7498 0
M  V30 3492 H 306.561 -0.789121 3.93159 0
M  V30 3493 H 303.151 0.610467 4.2423 0
M  V30 3494 H 307.335 1.45205 4.74583 0
M  V30 3495 H 302.591 2.63689 5.51614 0
M  V30 3496 H 306.765 3.4779 6.03337 0
M  V30 3497 H 304.392 4.07613 6.41682 0
M  V30 3498 N 305.967 -1.56429 0.191757 0
M  V30 3499 C 306.877 -2.22541 -0.742481 0
M  V30 3500 C 307.893 -1.22342 -1.23727 0
M  V30 3501 O 309.069 -1.55069 -1.28513 0
M  V30 3502 C 306.134 -2.8692 -1.94623 0
M  V30 3503 C 305.195 -4.02378 -1.49633 0
M  V30 3504 C 304.428 -4.63678 -2.6427 0
M  V30 3505 O 304.651 -4.23895 -3.81666 0
M  V30 3506 O 303.585 -5.53202 -2.37174 0
M  V30 3507 H 307.411 -3.02977 -0.209462 0
M  V30 3508 H 304.996 -1.49353 -0.0373832 0
M  V30 3509 H 306.878 -3.27663 -2.64982 0
M  V30 3510 H 305.553 -2.09466 -2.46791 0
M  V30 3511 H 304.46 -3.66265 -0.761636 0
M  V30 3512 H 305.793 -4.81487 -1.02134 0
M  V30 3513 N 307.445 0.0818655 -1.57387 0
M  V30 3514 C 308.355 1.11642 -2.06333 0
M  V30 3515 C 309.371 1.43033 -0.99083 0
M  V30 3516 O 310.547 1.53411 -1.30488 0
M  V30 3517 C 307.612 2.41342 -2.48907 0
M  V30 3518 C 306.673 2.17014 -3.7041 0
M  V30 3519 C 305.906 3.4053 -4.10944 0
M  V30 3520 O 306.129 4.4927 -3.51444 0
M  V30 3521 O 305.063 3.29336 -5.03807 0
M  V30 3522 H 308.889 0.730657 -2.9478 0
M  V30 3523 H 306.474 0.295301 -1.46452 0
M  V30 3524 H 308.356 3.17691 -2.76858 0
M  V30 3525 H 307.031 2.79319 -1.63593 0
M  V30 3526 H 305.938 1.38403 -3.47556 0
M  V30 3527 H 307.271 1.83923 -4.56545 0
M  V30 3528 N 308.923 1.53595 0.353017 0
M  V30 3529 C 309.856 1.7572 1.45594 0
M  V30 3530 C 310.834 0.605961 1.50887 0
M  V30 3531 O 312.018 0.840023 1.68748 0
M  V30 3532 C 309.145 1.84732 2.83887 0
M  V30 3533 C 308.191 3.06808 2.96262 0
M  V30 3534 S 309.024 4.66065 2.63711 0
M  V30 3535 C 310.18 4.77943 4.04131 0
M  V30 3536 H 310.413 2.68994 1.26608 0
M  V30 3537 H 307.946 1.44343 0.548117 0
M  V30 3538 H 309.904 1.9061 3.63563 0
M  V30 3539 H 308.565 0.92488 3.00175 0
M  V30 3540 H 307.758 3.09761 3.97573 0
M  V30 3541 H 307.36 2.99108 2.24523 0
M  V30 3542 H 309.652 4.5877 4.98534 0
M  V30 3543 H 310.595 5.80022 4.06177 0
M  V30 3544 H 311.003 4.06472 3.91715 0
M  V30 3545 N 310.401 -0.613514 1.45168 0
M  V30 3546 C 311.348 -1.72456 1.53387 0
M  V30 3547 C 312.318 -1.6169 0.380191 0
M  V30 3548 O 313.503 -1.81356 0.592836 0
M  V30 3549 C 310.643 -3.10753 1.50088 0
M  V30 3550 C 309.756 -3.32368 2.75963 0
M  V30 3551 C 308.891 -4.60737 2.64376 0
M  V30 3552 C 307.93 -4.7559 3.85332 0
M  V30 3553 N 307.067 -5.95253 3.72315 0
M  V30 3554 H 311.907 -1.64768 2.48305 0
M  V30 3555 H 309.444 -0.803503 1.23216 0
M  V30 3556 H 311.402 -3.90758 1.46164 0
M  V30 3557 H 310.032 -3.17413 0.587243 0
M  V30 3558 H 309.084 -2.4618 2.89999 0
M  V30 3559 H 310.396 -3.39218 3.65695 0
M  V30 3560 H 309.55 -5.48928 2.58385 0
M  V30 3561 H 308.289 -4.56275 1.72233 0
M  V30 3562 H 307.294 -3.85824 3.91688 0
M  V30 3563 H 308.519 -4.81854 4.78533 0
M  V30 3564 H 306.465 -5.91847 2.82937 0
M  V30 3565 H 306.382 -6.03236 4.55677 0
M  V30 3566 H 307.65 -6.85958 3.70246 0
M  V30 3567 N 311.879 -1.3236 -0.855495 0
M  V30 3568 C 312.826 -1.21225 -1.964 0
M  V30 3569 C 313.796 -0.0946204 -1.6583 0
M  V30 3570 O 314.981 -0.27002 -1.8888 0
M  V30 3571 C 312.121 -0.940419 -3.32039 0
M  V30 3572 C 311.234 -2.14276 -3.75113 0
M  V30 3573 C 310.369 -1.80648 -4.9954 0
M  V30 3574 C 309.408 -2.97208 -5.35102 0
M  V30 3575 N 308.545 -2.63678 -6.50706 0
M  V30 3576 H 313.385 -2.16042 -2.05255 0
M  V30 3577 H 310.922 -1.07451 -1.00463 0
M  V30 3578 H 312.88 -0.763311 -4.10158 0
M  V30 3579 H 311.51 -0.0290413 -3.22787 0
M  V30 3580 H 310.562 -2.43017 -2.92655 0
M  V30 3581 H 311.874 -3.01468 -3.97389 0
M  V30 3582 H 311.028 -1.59484 -5.85363 0
M  V30 3583 H 309.767 -0.906678 -4.79198 0
M  V30 3584 H 308.772 -3.19004 -4.47791 0
M  V30 3585 H 309.997 -3.87918 -5.57401 0
M  V30 3586 H 307.943 -1.76238 -6.31883 0
M  V30 3587 H 307.86 -3.444 -6.72997 0
M  V30 3588 H 309.128 -2.45942 -7.39684 0
M  V30 3589 N 313.357 1.07166 -1.15556 0
M  V30 3590 C 314.304 2.14417 -0.854055 0
M  V30 3591 C 315.274 1.64965 0.193806 0
M  V30 3592 O 316.459 1.90703 0.0609443 0
M  V30 3593 C 313.599 3.43304 -0.351574 0
M  V30 3594 C 312.712 4.06537 -1.46123 0
M  V30 3595 C 311.847 5.23266 -0.914677 0
M  V30 3596 C 310.886 5.78464 -2.00114 0
M  V30 3597 N 310.023 6.86521 -1.47083 0
M  V30 3598 H 314.863 2.39548 -1.77259 0
M  V30 3599 H 312.4 1.17543 -0.884425 0
M  V30 3600 H 314.358 4.17179 -0.0419409 0
M  V30 3601 H 312.988 3.18419 0.530037 0
M  V30 3602 H 312.04 3.30297 -1.88701 0
M  V30 3603 H 313.352 4.43567 -2.28144 0
M  V30 3604 H 312.506 6.04131 -0.557698 0
M  V30 3605 H 311.245 4.87658 -0.0636583 0
M  V30 3606 H 310.25 4.96243 -2.36692 0
M  V30 3607 H 311.475 6.16126 -2.85597 0
M  V30 3608 H 309.421 6.52849 -0.642198 0
M  V30 3609 H 309.338 7.22446 -2.22729 0
M  V30 3610 H 310.606 7.71087 -1.14215 0
M  V30 3611 N 314.835 0.952656 1.25548 0
M  V30 3612 C 315.785 0.442033 2.23674 0
M  V30 3613 C 316.769 -0.467632 1.53955 0
M  V30 3614 O 317.961 -0.301006 1.74422 0
M  V30 3615 C 315.09 -0.280816 3.4215 0
M  V30 3616 C 314.176 0.646803 4.19139 0
M  V30 3617 N 314.567 1.77759 4.73535 0
M  V30 3618 C 312.865 0.454617 4.43677 0
M  V30 3619 C 313.566 2.35658 5.31827 0
M  V30 3620 N 312.542 1.64333 5.18166 0
M  V30 3621 H 316.344 1.30505 2.63336 0
M  V30 3622 H 313.858 0.809904 1.40763 0
M  V30 3623 H 315.855 -0.663747 4.11582 0
M  V30 3624 H 314.515 -1.14046 3.04012 0
M  V30 3625 H 315.526 2.15949 4.7073 0
M  V30 3626 H 312.203 -0.362312 4.15925 0
M  V30 3627 H 313.593 3.30998 5.84713 0
M  V30 3628 N 316.313 -1.40141 0.720998 0
M  V30 3629 C 317.223 -2.34486 0.0731031 0
M  V30 3630 C 318.239 -1.57587 -0.737723 0
M  V30 3631 O 319.415 -1.89949 -0.669429 0
M  V30 3632 C 316.48 -3.36528 -0.833656 0
M  V30 3633 C 315.541 -4.29298 -0.0121673 0
M  V30 3634 C 314.774 -5.26466 -0.875742 0
M  V30 3635 O 314.997 -5.29745 -2.11485 0
M  V30 3636 O 313.931 -6.01092 -0.31185 0
M  V30 3637 H 317.757 -2.9152 0.851444 0
M  V30 3638 H 315.342 -1.41427 0.481527 0
M  V30 3639 H 317.224 -3.99093 -1.35289 0
M  V30 3640 H 315.899 -2.81899 -1.59105 0
M  V30 3641 H 314.806 -3.70001 0.552262 0
M  V30 3642 H 316.139 -4.87094 0.707129 0
M  V30 3643 N 317.792 -0.46758 -1.50504 0
M  V30 3644 C 318.74 0.342482 -2.30065 0
M  V30 3645 C 319.734 0.993596 -1.37201 0
M  V30 3646 O 320.94 0.925102 -1.54408 0
M  V30 3647 H 317.315 0.129283 -0.740803 0
M  V30 3648 H 319.286 -0.34899 -2.96352 0
M  V30 3649 C 318.035 1.4139 -3.17654 0
M  V30 3650 H 317.358 0.922264 -3.89017 0
M  V30 3651 H 318.798 1.95335 -3.76325 0
M  V30 3652 C 317.257 2.4139 -2.35016 0
M  V30 3653 O 317.787 3.46586 -2.03079 0
M  V30 3654 N 315.993 2.13021 -1.97662 0
M  V30 3655 H 315.54 1.27499 -2.23834 0
M  V30 3656 H 315.498 2.80164 -1.42673 0
M  V30 3657 N 319.27 1.56325 -0.20005 0
M  V30 3658 C 320.22 2.15939 0.731743 0
M  V30 3659 C 321.204 1.10154 1.17281 0
M  V30 3660 O 322.396 1.36203 1.13038 0
M  V30 3661 C 319.525 2.82614 1.94895 0
M  V30 3662 C 318.611 3.95596 1.52855 0
M  V30 3663 N 319.002 4.99118 0.819418 0
M  V30 3664 C 317.3 4.07288 1.81748 0
M  V30 3665 C 318.001 5.78513 0.608053 0
M  V30 3666 N 316.977 5.31117 1.15828 0
M  V30 3667 H 320.779 2.9334 0.181285 0
M  V30 3668 H 318.293 1.624 -0.000452172 0
M  V30 3669 H 320.29 3.23718 2.62702 0
M  V30 3670 H 318.95 2.06702 2.50408 0
M  V30 3671 H 319.961 5.15723 0.47436 0
M  V30 3672 H 316.638 3.42509 2.38734 0
M  V30 3673 H 318.028 6.71885 0.0451619 0
M  V30 3674 N 320.748 -0.0735177 1.57428 0
M  V30 3675 C 322.159 -0.625551 1.75908 0
M  V30 3676 C 322.51 -1.78 0.825261 0
M  V30 3677 O 321.635 -2.16398 0.00893964 0
M  V30 3678 C 322.23 -1.14155 3.18989 0
M  V30 3679 C 320.789 -1.63946 3.38819 0
M  V30 3680 C 319.936 -0.558151 2.71625 0
M  V30 3681 H 322.887 0.152647 1.57964 0
M  V30 3682 H 322.908 -2.0104 3.23053 0
M  V30 3683 H 322.42 -0.301116 3.8693 0
M  V30 3684 H 320.521 -2.50321 2.7599 0
M  V30 3685 H 320.634 -1.71759 4.47253 0
M  V30 3686 H 318.998 -1.00278 2.34129 0
M  V30 3687 H 319.781 0.272071 3.4222 0
M  V30 3688 N 322.226 -1.5378 -0.344866 0
M  V30 3689 C 323.173 -1.81676 -1.42346 0
M  V30 3690 C 324.143 -0.662376 -1.52321 0
M  V30 3691 O 325.328 -0.906675 -1.67881 0
M  V30 3692 C 322.468 -2.03087 -2.79015 0
M  V30 3693 C 321.581 -3.30799 -2.77842 0
M  V30 3694 C 320.716 -3.42285 -4.0622 0
M  V30 3695 C 319.755 -4.6395 -3.9927 0
M  V30 3696 N 318.892 -4.72477 -5.19336 0
M  V30 3697 H 323.732 -2.73703 -1.17858 0
M  V30 3698 H 321.269 -1.35568 -0.570949 0
M  V30 3699 H 323.227 -2.1349 -3.58438 0
M  V30 3700 H 321.857 -1.14375 -3.01858 0
M  V30 3701 H 320.909 -3.29244 -1.90533 0
M  V30 3702 H 322.221 -4.20314 -2.68584 0
M  V30 3703 H 321.375 -3.52113 -4.94066 0
M  V30 3704 H 320.114 -2.50823 -4.18258 0
M  V30 3705 H 319.119 -4.54201 -3.09809 0
M  V30 3706 H 320.344 -5.56775 -3.88817 0
M  V30 3707 H 318.29 -3.83924 -5.3192 0
M  V30 3708 H 318.207 -5.55927 -5.12329 0
M  V30 3709 H 319.475 -4.86613 -6.08957 0
M  V30 3710 N 323.704 0.605807 -1.45491 0
M  V30 3711 C 324.95 1.36679 -1.49823 0
M  V30 3712 C 325.283 1.93693 -0.140175 0
M  V30 3713 O 324.558 1.75158 0.845581 0
M  V30 3714 C 324.841 2.51337 -2.57879 0
M  V30 3715 C 324.694 1.99508 -4.03134 0
M  V30 3716 C 326.013 3.53463 -2.62205 0
M  V30 3717 H 323.132 0.495617 -0.545466 0
M  V30 3718 H 325.774 0.682732 -1.7731 0
M  V30 3719 H 323.924 3.09691 -2.34571 0
M  V30 3720 H 325.596 1.45789 -4.37656 0
M  V30 3721 H 323.839 1.30496 -4.13707 0
M  V30 3722 H 324.51 2.82169 -4.74431 0
M  V30 3723 H 326.986 3.04953 -2.83095 0
M  V30 3724 H 325.862 4.31178 -3.39672 0
M  V30 3725 H 326.123 4.09197 -1.67363 0
M  V30 3726 N 325.182 1.32811 0.848464 0
M  V30 3727 C 326.13 1.22231 1.97895 0
M  V30 3728 C 327.124 0.125749 1.68933 0
M  V30 3729 O 328.33 0.289083 1.77663 0
M  V30 3730 H 324.705 0.379058 0.649476 0
M  V30 3731 H 326.676 2.17828 2.03945 0
M  V30 3732 C 325.425 0.968572 3.33937 0
M  V30 3733 H 324.748 1.80458 3.56756 0
M  V30 3734 H 326.188 0.934808 4.13567 0
M  V30 3735 C 324.647 -0.328628 3.35293 0
M  V30 3736 O 325.177 -1.33848 3.78745 0
M  V30 3737 N 323.383 -0.352788 2.88451 0
M  V30 3738 H 322.93 0.469541 2.53285 0
M  V30 3739 H 322.888 -1.22057 2.89741 0
M  V30 3740 N 326.66 -1.06551 1.16123 0
M  V30 3741 C 327.61 -2.12209 0.833736 0
M  V30 3742 C 328.594 -1.59825 -0.185656 0
M  V30 3743 O 329.786 -1.76994 0.0147906 0
M  V30 3744 C 326.915 -3.41674 0.333697 0
M  V30 3745 C 326.001 -4.00892 1.38372 0
M  V30 3746 N 326.392 -4.34256 2.59337 0
M  V30 3747 C 324.69 -4.28463 1.23836 0
M  V30 3748 C 325.391 -4.81291 3.26701 0
M  V30 3749 N 324.367 -4.80565 2.54083 0
M  V30 3750 H 328.169 -2.35849 1.75364 0
M  V30 3751 H 325.683 -1.24068 1.04789 0
M  V30 3752 H 327.68 -4.16822 0.0806918 0
M  V30 3753 H 326.34 -3.19475 -0.58017 0
M  V30 3754 H 327.351 -4.24687 2.96415 0
M  V30 3755 H 324.028 -4.15721 0.38504 0
M  V30 3756 H 325.418 -5.16332 4.29943 0
M  V30 3757 N 328.138 -0.959301 -1.25041 0
M  V30 3758 C 329.549 -0.65667 -1.74771 0
M  V30 3759 C 329.9 0.827852 -1.77879 0
M  V30 3760 O 329.025 1.64783 -1.40269 0
M  V30 3761 C 329.62 -1.1853 -3.1739 0
M  V30 3762 C 328.179 -0.932734 -3.6466 0
M  V30 3763 C 327.326 -1.32558 -2.43564 0
M  V30 3764 H 330.277 -1.13558 -1.10862 0
M  V30 3765 H 330.298 -0.547582 -3.76539 0
M  V30 3766 H 329.81 -2.26576 -3.15095 0
M  V30 3767 H 327.911 0.13257 -3.72364 0
M  V30 3768 H 328.024 -1.57248 -4.52559 0
M  V30 3769 H 326.388 -0.743956 -2.43593 0
M  V30 3770 H 327.171 -2.41537 -2.43957 0
M  V30 3771 N 329.616 1.39756 -0.72842 0
M  V30 3772 C 330.864 2.00248 -0.272946 0
M  V30 3773 C 331.185 1.58077 1.14178 0
M  V30 3774 O 330.455 0.826014 1.77634 0
M  V30 3775 H 329.035 0.740554 -0.0979247 0
M  V30 3776 H 331.697 1.70903 -0.936912 0
M  V30 3777 H 330.793 3.10495 -0.316142 0
M  V30 3778 N 331.094 0.475555 1.50254 0
M  V30 3779 C 332.319 -0.0777042 2.07254 0
M  V30 3780 C 332.744 -1.3235 1.3366 0
M  V30 3781 O 332.102 -1.77152 0.385597 0
M  V30 3782 C 332.15 -0.340169 3.58992 0
M  V30 3783 O 331.254 -1.41982 3.87188 0
M  V30 3784 H 330.595 0.0149556 0.663832 0
M  V30 3785 H 333.125 0.667878 1.93392 0
M  V30 3786 H 333.135 -0.579332 4.03866 0
M  V30 3787 H 331.81 0.570167 4.11973 0
M  V30 3788 H 330.387 -1.16762 3.54148 0
M  V30 3789 N 332.573 -1.56217 0.208337 0
M  V30 3790 C 333.52 -2.19699 -0.707192 0
M  V30 3791 C 334.49 -1.14836 -1.20008 0
M  V30 3792 O 335.675 -1.4314 -1.26157 0
M  V30 3793 C 332.815 -2.87061 -1.91546 0
M  V30 3794 C 331.928 -4.06483 -1.46271 0
M  V30 3795 C 331.063 -4.61665 -2.62752 0
M  V30 3796 C 330.102 -5.73417 -2.14147 0
M  V30 3797 N 329.239 -6.22948 -3.23853 0
M  V30 3798 H 334.079 -2.97575 -0.159111 0
M  V30 3799 H 331.616 -1.46948 -0.0667874 0
M  V30 3800 H 333.574 -3.24294 -2.62468 0
M  V30 3801 H 332.204 -2.11725 -2.43664 0
M  V30 3802 H 331.256 -3.74825 -0.648886 0
M  V30 3803 H 332.568 -4.87271 -1.06622 0
M  V30 3804 H 331.722 -5.01272 -3.41776 0
M  V30 3805 H 330.461 -3.80013 -3.05682 0
M  V30 3806 H 329.466 -5.33326 -1.33581 0
M  V30 3807 H 330.691 -6.56897 -1.72232 0
M  V30 3808 H 328.637 -5.44213 -3.6629 0
M  V30 3809 H 328.554 -6.98823 -2.88414 0
M  V30 3810 H 329.822 -6.6721 -4.03052 0
M  V30 3811 N 334.051 0.0651679 -1.57465 0
M  V30 3812 C 335.328 0.79644 -1.78651 0
M  V30 3813 C 335.708 1.95454 -0.797566 0
M  V30 3814 O 335.056 2.27882 0.167946 0
M  V30 3815 C 335.266 1.26322 -3.25337 0
M  V30 3816 C 336.614 1.6939 -3.89348 0
M  V30 3817 O 337.638 1.35872 -3.29268 0
M  V30 3818 O 336.497 2.31471 -4.95059 0
M  V30 3819 H 333.591 0.382157 -0.733407 0
M  V30 3820 H 336.137 0.0447311 -1.69641 0
M  V30 3821 H 334.909 0.434859 -3.88876 0
M  V30 3822 H 334.532 2.07604 -3.39096 0
M  V30 3823 N 335.529 1.53961 0.336706 0
M  V30 3824 C 336.461 1.78751 1.4346 0
M  V30 3825 C 337.474 0.669019 1.48418 0
M  V30 3826 O 338.663 0.945884 1.51378 0
M  V30 3827 C 335.763 1.87844 2.82078 0
M  V30 3828 C 334.936 3.17854 3.00479 0
M  V30 3829 C 333.995 3.17816 4.19379 0
M  V30 3830 O 333.021 3.91511 4.13168 0
M  V30 3831 N 334.223 2.40669 5.2826 0
M  V30 3832 H 336.988 2.73493 1.22563 0
M  V30 3833 H 334.549 1.53096 0.526625 0
M  V30 3834 H 336.541 1.85261 3.59806 0
M  V30 3835 H 335.111 1.00257 2.96086 0
M  V30 3836 H 334.331 3.33504 2.10163 0
M  V30 3837 H 335.619 4.03718 3.0966 0
M  V30 3838 H 335.017 1.8036 5.36178 0
M  V30 3839 H 333.574 2.43877 6.04456 0
M  V30 3840 N 337.007 -0.598083 1.45811 0
M  V30 3841 C 337.937 -1.71873 1.58057 0
M  V30 3842 C 338.918 -1.64533 0.431615 0
M  V30 3843 O 340.103 -1.82787 0.65595 0
M  V30 3844 C 337.233 -3.10495 1.55597 0
M  V30 3845 C 336.187 -3.32654 2.69305 0
M  V30 3846 C 335.513 -4.71646 2.51902 0
M  V30 3847 C 336.813 -3.21981 4.11248 0
M  V30 3848 H 338.507 -1.61881 2.51863 0
M  V30 3849 H 336.053 -0.777372 1.21214 0
M  V30 3850 H 338.006 -3.88699 1.6276 0
M  V30 3851 H 336.73 -3.2135 0.583255 0
M  V30 3852 H 335.389 -2.56843 2.61586 0
M  V30 3853 H 335.037 -4.79246 1.52748 0
M  V30 3854 H 334.737 -4.87426 3.2816 0
M  V30 3855 H 336.261 -5.52038 2.60933 0
M  V30 3856 H 337.675 -3.90049 4.20161 0
M  V30 3857 H 336.072 -3.49289 4.87972 0
M  V30 3858 H 337.142 -2.1928 4.32486 0
M  V30 3859 N 338.485 -1.33259 -0.841409 0
M  V30 3860 C 339.432 -1.23302 -1.95103 0
M  V30 3861 C 340.402 -0.112204 -1.65721 0
M  V30 3862 O 341.587 -0.290038 -1.88583 0
M  V30 3863 C 338.727 -0.975583 -3.31023 0
M  V30 3864 C 337.84 -2.18243 -3.72819 0
M  V30 3865 C 336.975 -1.85936 -4.97595 0
M  V30 3866 C 336.014 -3.02866 -5.3192 0
M  V30 3867 N 335.151 -2.70565 -6.47873 0
M  V30 3868 H 339.991 -2.18207 -2.02952 0
M  V30 3869 H 337.528 -1.0851 -0.993173 0
M  V30 3870 H 339.486 -0.80677 -4.09325 0
M  V30 3871 H 338.116 -0.0632755 -3.22738 0
M  V30 3872 H 337.168 -2.46107 -2.90061 0
M  V30 3873 H 338.48 -3.05666 -3.94169 0
M  V30 3874 H 337.634 -1.65684 -5.83638 0
M  V30 3875 H 336.373 -0.957452 -4.78209 0
M  V30 3876 H 335.378 -3.23736 -4.44382 0
M  V30 3877 H 336.603 -3.93809 -5.53255 0
M  V30 3878 H 334.549 -1.8293 -6.29978 0
M  V30 3879 H 334.466 -3.51519 -6.69306 0
M  V30 3880 H 335.734 -2.53774 -7.37034 0
M  V30 3881 N 339.963 1.05934 -1.16686 0
M  V30 3882 C 340.873 2.17014 -0.891183 0
M  V30 3883 C 341.889 1.73453 0.137907 0
M  V30 3884 O 343.065 2.01361 -0.039592 0
M  V30 3885 C 340.13 3.44384 -0.400099 0
M  V30 3886 C 339.191 4.02433 -1.49486 0
M  V30 3887 C 338.424 5.23723 -1.02711 0
M  V30 3888 O 338.647 5.7027 0.121716 0
M  V30 3889 O 337.581 5.7382 -1.81699 0
M  V30 3890 H 341.407 2.43113 -1.82015 0
M  V30 3891 H 338.992 1.15541 -0.947132 0
M  V30 3892 H 340.874 4.21189 -0.133392 0
M  V30 3893 H 339.549 3.19802 0.500817 0
M  V30 3894 H 338.456 3.27102 -1.81535 0
M  V30 3895 H 339.789 4.31317 -2.37121 0
M  V30 3896 N 341.441 0.965919 1.2453 0
M  V30 3897 C 342.687 0.62776 1.92839 0
M  V30 3898 C 343.02 -0.834694 1.75347 0
M  V30 3899 O 342.295 -1.60031 1.10546 0
M  V30 3900 C 342.578 1.00109 3.45905 0
M  V30 3901 C 342.431 2.52011 3.72573 0
M  V30 3902 C 343.75 0.53435 4.36844 0
M  V30 3903 H 340.869 0.229537 0.700344 0
M  V30 3904 H 343.511 1.2046 1.46933 0
M  V30 3905 H 341.661 0.510238 3.85135 0
M  V30 3906 H 343.333 3.08559 3.42912 0
M  V30 3907 H 341.576 2.95287 3.17786 0
M  V30 3908 H 342.247 2.73183 4.79661 0
M  V30 3909 H 344.723 0.955565 4.04979 0
M  V30 3910 H 343.599 0.824152 5.42678 0
M  V30 3911 H 343.86 -0.565589 4.38467 0
M  V30 3912 N 342.919 -1.39368 0.735821 0
M  V30 3913 C 344.165 -2.01272 0.293439 0
M  V30 3914 C 344.52 -1.57344 -1.10728 0
M  V30 3915 O 343.813 -0.792744 -1.74431 0
M  V30 3916 C 344.007 -3.5583 0.334651 0
M  V30 3917 C 343.836 -4.14764 1.73784 0
M  V30 3918 C 342.606 -4.47315 2.35026 0
M  V30 3919 C 344.804 -4.38246 2.69157 0
M  V30 3920 N 342.786 -4.91756 3.6749 0
M  V30 3921 C 344.157 -4.849 3.86357 0
M  V30 3922 C 346.212 -4.20315 2.66908 0
M  V30 3923 C 344.915 -5.15505 5.01645 0
M  V30 3924 C 346.941 -4.52033 3.8134 0
M  V30 3925 C 346.303 -4.98895 4.97276 0
M  V30 3926 H 342.402 -0.766756 0.153652 0
M  V30 3927 H 344.986 -1.69276 0.961967 0
M  V30 3928 H 343.157 -3.87212 -0.303527 0
M  V30 3929 H 344.889 -4.04503 -0.126358 0
M  V30 3930 H 341.644 -4.35143 1.86943 0
M  V30 3931 H 342.068 -5.18333 4.35499 0
M  V30 3932 H 346.71 -3.83287 1.78468 0
M  V30 3933 H 344.428 -5.51437 5.90713 0
M  V30 3934 H 348.014 -4.39781 3.80899 0
M  V30 3935 H 346.894 -5.22973 5.84353 0
M  V30 3936 N 344.397 -0.483516 -1.5 0
M  V30 3937 C 345.307 0.309172 -2.32554 0
M  V30 3938 C 346.323 0.984159 -1.43493 0
M  V30 3939 O 347.499 0.969399 -1.76535 0
M  V30 3940 C 344.564 1.36979 -3.18493 0
M  V30 3941 C 343.625 0.710095 -4.23387 0
M  V30 3942 C 342.858 1.72018 -5.05218 0
M  V30 3943 O 343.081 2.94813 -4.88305 0
M  V30 3944 O 342.015 1.28515 -5.8802 0
M  V30 3945 H 345.841 -0.366064 -3.01486 0
M  V30 3946 H 343.426 -0.24514 -1.47375 0
M  V30 3947 H 345.308 1.98385 -3.71781 0
M  V30 3948 H 343.983 2.02828 -2.52275 0
M  V30 3949 H 342.89 0.0567539 -3.74057 0
M  V30 3950 H 344.223 0.0943557 -4.9211 0
M  V30 3951 N 345.875 1.56104 -0.216619 0
M  V30 3952 C 346.785 2.23694 0.706982 0
M  V30 3953 C 347.801 1.24295 1.21765 0
M  V30 3954 O 348.977 1.57094 1.2603 0
M  V30 3955 C 346.042 2.8998 1.90033 0
M  V30 3956 C 345.103 4.04708 1.43213 0
M  V30 3957 C 344.336 4.67824 2.56859 0
M  V30 3958 O 344.559 4.29913 3.74874 0
M  V30 3959 O 343.493 5.56905 2.28343 0
M  V30 3960 H 347.319 3.03272 0.161235 0
M  V30 3961 H 344.904 1.49394 0.0136177 0
M  V30 3962 H 346.786 3.31837 2.59735 0
M  V30 3963 H 345.461 2.13365 2.43428 0
M  V30 3964 H 344.368 3.6743 0.70327 0
M  V30 3965 H 345.701 4.83051 0.944615 0
M  V30 3966 N 347.353 -0.0568162 1.57498 0
M  V30 3967 C 348.581 -0.765626 1.92213 0
M  V30 3968 C 348.996 -1.70353 0.813961 0
M  V30 3969 O 348.353 -1.81268 -0.211701 0
M  V30 3970 C 348.404 -1.5465 3.2675 0
M  V30 3971 O 348.125 -0.646278 4.33307 0
M  V30 3972 C 349.626 -2.35497 3.75574 0
M  V30 3973 H 346.846 -0.216835 0.634999 0
M  V30 3974 H 349.39 -0.0226146 2.04487 0
M  V30 3975 H 347.545 -2.24165 3.15957 0
M  V30 3976 H 347.959 -1.19093 5.108 0
M  V30 3977 H 349.433 -2.85722 4.72299 0
M  V30 3978 H 349.91 -3.15692 3.05344 0
M  V30 3979 H 350.516 -1.7111 3.8936 0
M  V30 3980 N 348.832 -1.54138 -0.328536 0
M  V30 3981 C 350.109 -1.62749 -1.08499 0
M  V30 3982 C 350.489 -0.458198 -2.06067 0
M  V30 3983 O 349.837 0.548046 -2.2183 0
M  V30 3984 C 350.047 -2.99519 -1.79135 0
M  V30 3985 C 351.395 -3.55394 -2.32337 0
M  V30 3986 O 352.419 -3.01792 -1.89209 0
M  V30 3987 O 351.278 -4.49186 -3.11279 0
M  V30 3988 H 348.372 -0.65886 -0.499832 0
M  V30 3989 H 350.918 -1.66484 -0.328826 0
M  V30 3990 H 349.69 -3.76061 -1.08139 0
M  V30 3991 H 349.313 -2.99441 -2.61574 0
M  V30 3992 N 350.31 0.590341 -1.46126 0
M  V30 3993 C 351.558 1.34616 -1.50742 0
M  V30 3994 C 351.879 1.94363 -0.157486 0
M  V30 3995 O 351.149 1.78136 0.815136 0
M  V30 3996 H 349.729 0.499789 -0.555175 0
M  V30 3997 H 352.391 0.691953 -1.82203 0
M  V30 3998 H 351.487 2.15678 -2.25587 0
M  V30 3999 N 351.788 1.33704 0.83433 0
M  V30 4000 C 352.718 1.26967 1.95963 0
M  V30 4001 C 353.699 0.149337 1.69443 0
M  V30 4002 O 354.884 0.339852 1.91203 0
M  V30 4003 C 352.014 1.01275 3.32206 0
M  V30 4004 C 350.968 2.09652 3.73136 0
M  V30 4005 C 350.294 1.69166 5.07235 0
M  V30 4006 C 351.594 3.51372 3.86439 0
M  V30 4007 H 353.288 2.2112 2.01857 0
M  V30 4008 H 350.834 1.06447 0.969793 0
M  V30 4009 H 352.787 0.952106 4.10503 0
M  V30 4010 H 351.511 0.0356203 3.26581 0
M  V30 4011 H 350.17 2.14766 2.97104 0
M  V30 4012 H 349.818 0.701437 4.98085 0
M  V30 4013 H 349.518 2.41694 5.35591 0
M  V30 4014 H 351.042 1.64576 5.88003 0
M  V30 4015 H 352.456 3.48734 4.55036 0
M  V30 4016 H 350.853 4.22425 4.26236 0
M  V30 4017 H 351.923 3.89546 2.88759 0
M  V30 4018 N 353.266 -1.05314 1.17247 0
M  V30 4019 C 354.543 -1.75184 0.87005 0
M  V30 4020 C 354.923 -2.01481 -0.629965 0
M  V30 4021 O 354.271 -1.64988 -1.58086 0
M  V30 4022 C 354.481 -3.04594 1.70363 0
M  V30 4023 C 355.829 -3.78567 1.92281 0
M  V30 4024 O 356.853 -3.14461 1.67311 0
M  V30 4025 O 355.712 -4.93755 2.3424 0
M  V30 4026 H 352.806 -0.761729 0.322021 0
M  V30 4027 H 355.352 -1.11493 1.27935 0
M  V30 4028 H 354.124 -2.81201 2.72106 0
M  V30 4029 H 353.747 -3.76022 1.29202 0
M  V30 4030 N 354.744 -0.972509 -1.24016 0
M  V30 4031 C 356.155 -0.67517 -1.74064 0
M  V30 4032 C 356.506 0.808939 -1.78747 0
M  V30 4033 O 355.631 1.63286 -1.42009 0
M  V30 4034 C 356.226 -1.21889 -3.16115 0
M  V30 4035 C 354.785 -0.971358 -3.6365 0
M  V30 4036 C 353.932 -1.35134 -2.42145 0
M  V30 4037 H 356.883 -1.14727 -1.09651 0
M  V30 4038 H 356.904 -0.587489 -3.75937 0
M  V30 4039 H 356.416 -2.29906 -3.12674 0
M  V30 4040 H 354.517 0.0930686 -3.72484 0
M  V30 4041 H 354.63 -1.62039 -4.50866 0
M  V30 4042 H 352.994 -0.769751 -2.4279 0
M  V30 4043 H 353.777 -2.4411 -2.41381 0
M  V30 4044 N 356.222 1.38976 -0.743202 0
M  V30 4045 C 357.17 2.32394 -0.0978389 0
M  V30 4046 C 358.164 1.53486 0.716824 0
M  V30 4047 O 359.37 1.69092 0.617088 0
M  V30 4048 H 355.745 0.75189 -0.0128402 0
M  V30 4049 H 357.716 2.84441 -0.901981 0
M  V30 4050 C 356.465 3.38629 0.789036 0
M  V30 4051 H 355.788 3.99432 0.171559 0
M  V30 4052 H 357.228 4.06426 1.20807 0
M  V30 4053 C 355.687 2.76347 1.92702 0
M  V30 4054 O 356.217 2.64836 3.02034 0
M  V30 4055 N 354.423 2.34311 1.71891 0
M  V30 4056 H 353.97 2.43873 0.829675 0
M  V30 4057 H 353.928 1.9298 2.48205 0
M  V30 4058 N 357.7 0.491464 1.49741 0
M  V30 4059 C 358.977 -0.118984 1.95238 0
M  V30 4060 C 359.357 -1.55044 1.43264 0
M  V30 4061 O 358.705 -2.19287 0.642287 0
M  V30 4062 C 358.915 -0.0414187 3.48975 0
M  V30 4063 C 360.263 -0.220133 4.24029 0
M  V30 4064 O 361.287 -0.117055 3.56008 0
M  V30 4065 O 360.146 -0.430567 5.44801 0
M  V30 4066 H 357.24 -0.100536 0.820866 0
M  V30 4067 H 359.786 0.553322 1.60426 0
M  V30 4068 H 358.558 0.957214 3.79412 0
M  V30 4069 H 358.181 -0.754292 3.9038 0
M  V30 4070 N 359.178 -1.55987 0.224894 0
M  V30 4071 C 360.425 -1.9839 -0.4059 0
M  V30 4072 C 360.753 -1.11261 -1.59535 0
M  V30 4073 O 360.008 -0.158314 -1.95059 0
M  V30 4074 C 360.307 -3.46394 -0.880106 0
M  V30 4075 C 359.973 -4.5046 0.19918 0
M  V30 4076 C 358.635 -4.7864 0.495661 0
M  V30 4077 C 360.987 -5.12855 0.928939 0
M  V30 4078 C 358.315 -5.66497 1.52636 0
M  V30 4079 C 360.667 -6.01828 1.949 0
M  V30 4080 C 359.331 -6.28351 2.25236 0
M  V30 4081 H 358.601 -0.725961 -0.148529 0
M  V30 4082 H 361.248 -1.88668 0.328113 0
M  V30 4083 H 359.553 -3.53337 -1.69294 0
M  V30 4084 H 361.25 -3.76577 -1.37808 0
M  V30 4085 H 357.84 -4.28579 -0.0420526 0
M  V30 4086 H 362.024 -4.9115 0.713129 0
M  V30 4087 H 357.28 -5.8531 1.76698 0
M  V30 4088 H 361.454 -6.49225 2.51951 0
M  V30 4089 H 359.081 -6.96226 3.05244 0
M  V30 4090 N 360.656 0.0484629 -1.57525 0
M  V30 4091 C 361.933 0.777447 -1.79486 0
M  V30 4092 C 362.313 1.94597 -0.818251 0
M  V30 4093 O 361.661 2.28047 0.143767 0
M  V30 4094 C 361.871 1.22864 -3.26658 0
M  V30 4095 C 363.219 1.65251 -3.91123 0
M  V30 4096 O 364.243 1.32372 -3.3069 0
M  V30 4097 O 363.102 2.26207 -4.97486 0
M  V30 4098 H 360.196 0.374357 -0.737419 0
M  V30 4099 H 362.742 0.0267359 -1.69679 0
M  V30 4100 H 361.514 0.393589 -3.89316 0
M  V30 4101 H 361.137 2.03996 -3.41279 0
M  V30 4102 N 362.134 1.5431 0.320358 0
M  V30 4103 C 363.545 1.63872 0.894594 0
M  V30 4104 C 363.896 0.534847 1.88769 0
M  V30 4105 O 363.021 -0.331732 2.13842 0
M  V30 4106 C 363.616 2.97049 1.62934 0
M  V30 4107 C 362.175 3.08796 2.15226 0
M  V30 4108 C 361.322 2.59456 0.978671 0
M  V30 4109 H 364.273 1.58398 0.0978544 0
M  V30 4110 H 364.294 2.87388 2.49376 0
M  V30 4111 H 363.806 3.7737 0.906302 0
M  V30 4112 H 361.907 2.33156 2.90636 0
M  V30 4113 H 362.02 4.14649 2.40006 0
M  V30 4114 H 360.384 2.1543 1.35875 0
M  V30 4115 H 361.167 3.42237 0.269895 0
M  V30 4116 N 363.613 -0.582584 1.46437 0
M  V30 4117 C 364.56 -1.69164 1.5701 0
M  V30 4118 C 365.53 -1.60847 0.414403 0
M  V30 4119 O 366.715 -1.80058 0.631171 0
M  V30 4120 C 363.855 -3.075 1.56646 0
M  V30 4121 C 362.968 -3.2644 2.82951 0
M  V30 4122 C 362.103 -4.55026 2.7409 0
M  V30 4123 C 361.142 -4.6731 3.95333 0
M  V30 4124 N 360.279 -5.87221 3.84858 0
M  V30 4125 H 365.119 -1.59464 2.51744 0
M  V30 4126 H 362.656 -0.777186 1.24893 0
M  V30 4127 H 364.614 -3.8757 1.5442 0
M  V30 4128 H 363.244 -3.16096 0.654439 0
M  V30 4129 H 362.296 -2.39974 2.95155 0
M  V30 4130 H 363.608 -3.31385 3.72808 0
M  V30 4131 H 362.762 -5.43324 2.6997 0
M  V30 4132 H 361.501 -4.52519 1.81873 0
M  V30 4133 H 360.506 -3.77429 3.99784 0
M  V30 4134 H 361.731 -4.71595 4.88646 0
M  V30 4135 H 359.677 -5.85712 2.95427 0
M  V30 4136 H 359.594 -5.93435 4.6837 0
M  V30 4137 H 360.862 -6.7795 3.84713 0
M  V30 4138 N 365.091 -1.34144 -0.827227 0
M  V30 4139 C 366.319 -1.29325 -1.61501 0
M  V30 4140 C 366.734 0.13354 -1.88327 0
M  V30 4141 O 366.091 1.0793 -1.47164 0
M  V30 4142 C 366.142 -2.07746 -2.95844 0
M  V30 4143 O 365.863 -3.4486 -2.70191 0
M  V30 4144 C 367.364 -2.10273 -3.90256 0
M  V30 4145 H 364.584 -0.445069 -0.50215 0
M  V30 4146 H 367.128 -1.76693 -1.02955 0
M  V30 4147 H 365.283 -1.6403 -3.5096 0
M  V30 4148 H 365.697 -3.85345 -3.55822 0
M  V30 4149 H 367.171 -2.69575 -4.81698 0
M  V30 4150 H 367.648 -1.096 -4.25305 0
M  V30 4151 H 368.254 -2.54059 -3.41078 0
M  V30 4152 N 366.569 1.04691 -1.17803 0
M  V30 4153 C 367.816 1.77782 -0.969532 0
M  V30 4154 C 368.144 1.87926 0.501401 0
M  V30 4155 O 367.399 1.37918 1.38842 0
M  V30 4156 C 367.698 3.21467 -1.56186 0
M  V30 4157 C 367.364 3.3137 -3.05786 0
M  V30 4158 C 366.026 3.3378 -3.46619 0
M  V30 4159 C 368.378 3.31976 -4.01797 0
M  V30 4160 C 365.706 3.34431 -4.82051 0
M  V30 4161 C 368.058 3.34167 -5.37136 0
M  V30 4162 C 366.722 3.34866 -5.77426 0
M  V30 4163 H 365.992 0.650549 -0.354777 0
M  V30 4164 H 368.639 1.23006 -1.46772 0
M  V30 4165 H 366.944 3.79203 -0.985515 0
M  V30 4166 H 368.641 3.76652 -1.37602 0
M  V30 4167 H 365.231 3.3021 -2.73238 0
M  V30 4168 H 369.415 3.29311 -3.71306 0
M  V30 4169 H 364.671 3.33285 -5.12573 0
M  V30 4170 H 368.845 3.33585 -6.11305 0
M  V30 4171 H 366.472 3.35124 -6.82346 0
M  V30 4172 N 368.047 0.979072 1.23499 0
M  V30 4173 C 369.294 0.647219 1.91878 0
M  V30 4174 C 369.622 -0.819074 1.76413 0
M  V30 4175 O 368.877 -1.60616 1.11808 0
M  V30 4176 C 369.176 0.981932 3.43646 0
M  V30 4177 C 368.842 2.43822 3.79291 0
M  V30 4178 C 367.504 2.83622 3.88731 0
M  V30 4179 C 369.856 3.3828 3.96505 0
M  V30 4180 C 367.184 4.16897 4.12812 0
M  V30 4181 C 369.536 4.71197 4.22085 0
M  V30 4182 C 368.2 5.10758 4.29747 0
M  V30 4183 H 367.47 0.236834 0.702133 0
M  V30 4184 H 370.117 1.23268 1.46551 0
M  V30 4185 H 368.422 0.314365 3.90537 0
M  V30 4186 H 370.119 0.703395 3.94783 0
M  V30 4187 H 366.709 2.11966 3.72516 0
M  V30 4188 H 370.893 3.0871 3.88603 0
M  V30 4189 H 366.149 4.47157 4.16966 0
M  V30 4190 H 370.323 5.44348 4.34348 0
M  V30 4191 H 367.95 6.1405 4.48159 0
M  V30 4192 N 369.525 -1.3858 0.750561 0
M  V30 4193 C 370.472 -2.30483 0.120835 0
M  V30 4194 C 371.442 -1.50022 -0.712923 0
M  V30 4195 O 372.627 -1.78662 -0.669676 0
M  V30 4196 C 369.767 -3.36431 -0.768666 0
M  V30 4197 C 368.88 -4.31927 0.0793922 0
M  V30 4198 C 368.015 -5.24944 -0.81283 0
M  V30 4199 C 367.054 -6.12088 0.0390447 0
M  V30 4200 N 366.191 -6.97412 -0.809969 0
M  V30 4201 H 371.031 -2.83761 0.91015 0
M  V30 4202 H 368.568 -1.39707 0.460463 0
M  V30 4203 H 370.526 -3.96462 -1.29898 0
M  V30 4204 H 369.156 -2.8457 -1.5238 0
M  V30 4205 H 368.208 -3.73382 0.727303 0
M  V30 4206 H 369.52 -4.93319 0.737401 0
M  V30 4207 H 368.674 -5.90078 -1.41042 0
M  V30 4208 H 367.413 -4.63911 -1.50458 0
M  V30 4209 H 366.418 -5.45952 0.649328 0
M  V30 4210 H 367.643 -6.75189 0.727809 0
M  V30 4211 H 365.589 -6.38931 -1.48672 0
M  V30 4212 H 365.506 -7.55712 -0.208789 0
M  V30 4213 H 366.774 -7.66959 -1.39263 0
M  V30 4214 N 371.003 -0.499398 -1.49478 0
M  V30 4215 C 371.933 0.269244 -2.31943 0
M  V30 4216 C 372.914 0.964054 -1.40143 0
M  V30 4217 O 374.099 0.955767 -1.69052 0
M  V30 4218 C 371.229 1.33504 -3.20615 0
M  V30 4219 C 370.183 0.760202 -4.21195 0
M  V30 4220 C 369.509 1.9264 -4.98792 0
M  V30 4221 C 370.809 -0.247661 -5.21712 0
M  V30 4222 H 372.503 -0.419082 -2.96452 0
M  V30 4223 H 370.049 -0.202988 -1.42562 0
M  V30 4224 H 372.002 1.88048 -3.77115 0
M  V30 4225 H 370.726 2.05253 -2.54045 0
M  V30 4226 H 369.385 0.23653 -3.65836 0
M  V30 4227 H 369.033 2.63154 -4.28671 0
M  V30 4228 H 368.733 1.54785 -5.66847 0
M  V30 4229 H 370.257 2.4762 -5.58137 0
M  V30 4230 H 371.671 0.209579 -5.72917 0
M  V30 4231 H 370.068 -0.541962 -5.97648 0
M  V30 4232 H 371.138 -1.16409 -4.7072 0
M  V30 4233 N 372.481 1.55866 -0.233164 0
M  V30 4234 C 373.431 2.17442 0.685774 0
M  V30 4235 C 374.415 1.12617 1.14918 0
M  V30 4236 O 375.607 1.3857 1.10124 0
M  V30 4237 C 372.736 2.86685 1.88856 0
M  V30 4238 C 371.822 3.98749 1.4443 0
M  V30 4239 N 372.213 5.00744 0.713364 0
M  V30 4240 C 370.511 4.11052 1.73068 0
M  V30 4241 C 371.212 5.79673 0.485205 0
M  V30 4242 N 370.188 5.33454 1.04536 0
M  V30 4243 H 373.99 2.93659 0.119022 0
M  V30 4244 H 371.504 1.62362 -0.0348995 0
M  V30 4245 H 373.501 3.29218 2.55776 0
M  V30 4246 H 372.161 2.11967 2.45967 0
M  V30 4247 H 373.172 5.16613 0.364861 0
M  V30 4248 H 369.849 3.47495 2.31416 0
M  V30 4249 H 371.239 6.71829 -0.097365 0
M  V30 4250 N 373.959 -0.0401083 1.57549 0
M  V30 4251 C 375.236 -0.767917 1.79896 0
M  V30 4252 C 375.616 -1.9416 0.82856 0
M  V30 4253 O 374.964 -2.2812 -0.131671 0
M  V30 4254 C 375.174 -1.2113 3.27305 0
M  V30 4255 C 376.522 -1.63175 3.91994 0
M  V30 4256 O 377.546 -1.30616 3.31388 0
M  V30 4257 O 376.405 -2.23565 4.98679 0
M  V30 4258 H 373.499 -0.370441 0.739393 0
M  V30 4259 H 376.045 -0.017737 1.69691 0
M  V30 4260 H 374.817 -0.372937 3.89519 0
M  V30 4261 H 374.44 -2.02183 3.42356 0
M  V30 4262 N 375.437 -1.54477 -0.31217 0
M  V30 4263 C 376.683 -1.73483 -1.0503 0
M  V30 4264 C 377.016 -0.513125 -1.87298 0
M  V30 4265 O 376.291 0.489864 -1.8823 0
M  V30 4266 C 376.574 -3.01723 -1.96558 0
M  V30 4267 C 376.427 -4.3417 -1.17545 0
M  V30 4268 C 377.746 -3.25772 -2.95907 0
M  V30 4269 H 374.865 -0.631222 -0.380432 0
M  V30 4270 H 377.507 -1.87184 -0.325932 0
M  V30 4271 H 375.657 -2.90174 -2.58324 0
M  V30 4272 H 377.329 -4.5762 -0.581513 0
M  V30 4273 H 375.572 -4.31159 -0.477925 0
M  V30 4274 H 376.243 -5.20143 -1.84811 0
M  V30 4275 H 378.719 -3.36857 -2.44267 0
M  V30 4276 H 377.595 -4.16838 -3.57123 0
M  V30 4277 H 377.856 -2.43537 -3.68974 0
M  V30 4278 N 376.915 0.57481 -1.46744 0
M  V30 4279 C 377.863 1.70435 -1.58286 0
M  V30 4280 C 378.857 1.63287 -0.450956 0
M  V30 4281 O 380.063 1.68685 -0.628121 0
M  V30 4282 H 376.438 0.56364 -0.497809 0
M  V30 4283 H 378.409 1.57833 -2.53242 0
M  V30 4284 C 377.158 3.08815 -1.59776 0
M  V30 4285 H 376.481 3.1499 -2.46214 0
M  V30 4286 H 377.921 3.87588 -1.71905 0
M  V30 4287 C 376.38 3.35301 -0.327812 0
M  V30 4288 O 376.91 3.97511 0.57861 0
M  V30 4289 N 375.116 2.89816 -0.213274 0
M  V30 4290 H 374.663 2.39371 -0.951798 0
M  V30 4291 H 374.621 3.0791 0.63553 0
M  V30 4292 N 378.394 1.34581 0.820102 0
M  V30 4293 C 379.619 1.30333 1.61332 0
M  V30 4294 C 380.044 -0.119339 1.87721 0
M  V30 4295 O 379.402 -1.08197 1.45475 0
M  V30 4296 C 379.45 2.10258 2.92957 0
M  V30 4297 O 378.554 1.47404 3.85157 0
M  V30 4298 H 377.895 0.447488 0.490561 0
M  V30 4299 H 380.425 1.77425 1.01889 0
M  V30 4300 H 380.435 2.21718 3.42498 0
M  V30 4301 H 379.11 3.13693 2.73074 0
M  V30 4302 H 377.687 1.44703 3.43679 0
M  V30 4303 N 379.872 -1.04064 1.18357 0
M  V30 4304 C 381.149 -1.74252 0.888581 0
M  V30 4305 C 381.529 -2.02138 -0.60856 0
M  V30 4306 O 380.877 -1.66656 -1.56327 0
M  V30 4307 C 381.087 -3.0277 1.73584 0
M  V30 4308 C 382.435 -3.76506 1.96286 0
M  V30 4309 O 383.459 -3.12668 1.70637 0
M  V30 4310 O 382.318 -4.91243 2.39464 0
M  V30 4311 H 379.412 -0.758271 0.330082 0
M  V30 4312 H 381.958 -1.1013 1.2911 0
M  V30 4313 H 380.73 -2.78299 2.75073 0
M  V30 4314 H 380.353 -3.74631 1.33183 0
M  V30 4315 N 381.35 -0.985608 -1.22978 0
M  V30 4316 C 382.598 -0.656087 -1.91154 0
M  V30 4317 C 382.919 0.813561 -1.77218 0
M  V30 4318 O 382.189 1.58244 -1.1548 0
M  V30 4319 H 380.769 -0.239674 -0.707506 0
M  V30 4320 H 383.431 -1.25054 -1.49491 0
M  V30 4321 H 382.527 -0.912253 -2.9847 0
M  V30 4322 N 382.828 1.3818 -0.7579 0
M  V30 4323 C 384.075 2.00019 -0.315985 0
M  V30 4324 C 384.403 1.60163 1.10355 0
M  V30 4325 O 383.658 0.83264 1.77103 0
M  V30 4326 C 383.957 3.55252 -0.391218 0
M  V30 4327 C 383.623 4.14834 -1.76702 0
M  V30 4328 C 382.285 4.30821 -2.14353 0
M  V30 4329 C 384.637 4.47658 -2.66931 0
M  V30 4330 C 381.965 4.76928 -3.41696 0
M  V30 4331 C 384.317 4.95184 -3.93669 0
M  V30 4332 C 382.981 5.09377 -4.31383 0
M  V30 4333 H 382.251 0.731923 -0.115627 0
M  V30 4334 H 384.898 1.65161 -0.969223 0
M  V30 4335 H 383.203 3.90273 0.34558 0
M  V30 4336 H 384.9 4.00988 -0.030805 0
M  V30 4337 H 381.49 4.02808 -1.46435 0
M  V30 4338 H 385.674 4.34904 -2.39106 0
M  V30 4339 H 380.93 4.86103 -3.70829 0
M  V30 4340 H 385.104 5.19551 -4.63724 0
M  V30 4341 H 382.731 5.44865 -5.30119 0
M  V30 4342 N 384.306 0.507319 1.49211 0
M  V30 4343 C 385.236 -0.256939 2.32082 0
M  V30 4344 C 386.217 -0.956609 1.40652 0
M  V30 4345 O 387.402 -0.946788 1.69557 0
M  V30 4346 C 384.532 -1.31802 3.21318 0
M  V30 4347 C 383.486 -0.737855 4.21592 0
M  V30 4348 C 382.812 -1.89992 4.99807 0
M  V30 4349 C 384.112 0.275325 5.21574 0
M  V30 4350 H 385.806 0.434798 2.96226 0
M  V30 4351 H 383.352 0.210546 1.42452 0
M  V30 4352 H 385.305 -1.86045 3.78107 0
M  V30 4353 H 384.029 -2.03903 2.5513 0
M  V30 4354 H 382.688 -0.217126 3.65956 0
M  V30 4355 H 382.336 -2.60877 4.30061 0
M  V30 4356 H 382.036 -1.51777 5.6766 0
M  V30 4357 H 383.56 -2.44657 5.59442 0
M  V30 4358 H 384.974 -0.179193 5.7302 0
M  V30 4359 H 383.371 0.573649 5.97352 0
M  V30 4360 H 384.441 1.18903 4.70096 0
M  V30 4361 N 385.784 -1.5574 0.241426 0
M  V30 4362 C 387.061 -1.90704 -0.434881 0
M  V30 4363 C 387.441 -1.16145 -1.76277 0
M  V30 4364 O 386.789 -0.277152 -2.26813 0
M  V30 4365 C 386.999 -3.43657 -0.608343 0
M  V30 4366 C 388.347 -4.14806 -0.906725 0
M  V30 4367 O 389.371 -3.49366 -0.694408 0
M  V30 4368 O 388.23 -5.30548 -1.31075 0
M  V30 4369 H 385.324 -0.793592 -0.23268 0
M  V30 4370 H 387.87 -1.67288 0.285086 0
M  V30 4371 H 386.642 -3.89927 0.327505 0
M  V30 4372 H 386.265 -3.72918 -1.37906 0
M  V30 4373 N 387.262 0.0317525 -1.57568 0
M  V30 4374 C 388.172 1.05021 -2.0978 0
M  V30 4375 C 389.188 1.39809 -1.03583 0
M  V30 4376 O 390.364 1.49182 -1.35302 0
M  V30 4377 C 387.429 2.33301 -2.56459 0
M  V30 4378 C 386.49 2.0512 -3.77127 0
M  V30 4379 C 385.723 3.27283 -4.2157 0
M  V30 4380 O 385.946 4.37861 -3.65559 0
M  V30 4381 O 384.88 3.13141 -5.14029 0
M  V30 4382 H 388.706 0.636505 -2.96955 0
M  V30 4383 H 386.291 0.248559 -1.47318 0
M  V30 4384 H 388.173 3.08722 -2.86825 0
M  V30 4385 H 386.848 2.73973 -1.72397 0
M  V30 4386 H 385.755 1.27276 -3.51784 0
M  V30 4387 H 387.088 1.69305 -4.62165 0
M  V30 4388 N 388.74 1.54641 0.303973 0
M  V30 4389 C 389.672 1.81754 1.39636 0
M  V30 4390 C 390.685 0.70035 1.46966 0
M  V30 4391 O 391.874 0.97778 1.49338 0
M  V30 4392 C 388.974 1.93785 2.7803 0
M  V30 4393 C 388.147 3.24156 2.93669 0
M  V30 4394 C 387.206 3.26641 4.12544 0
M  V30 4395 O 386.232 4.00187 4.04771 0
M  V30 4396 N 387.434 2.5182 5.23036 0
M  V30 4397 H 390.199 2.76031 1.16734 0
M  V30 4398 H 387.76 1.54178 0.494033 0
M  V30 4399 H 389.752 1.92852 3.55795 0
M  V30 4400 H 388.322 1.06515 2.93893 0
M  V30 4401 H 387.542 3.37887 2.03042 0
M  V30 4402 H 388.83 4.10195 3.01027 0
M  V30 4403 H 388.228 1.91692 5.32232 0
M  V30 4404 H 386.785 2.56644 5.99147 0
M  V30 4405 N 390.218 -0.567019 1.47046 0
M  V30 4406 C 391.128 -1.70247 1.6141 0
M  V30 4407 C 392.144 -1.66746 0.497157 0
M  V30 4408 O 393.32 -1.86371 0.763389 0
M  V30 4409 C 390.385 -3.06756 1.61561 0
M  V30 4410 C 389.446 -3.21399 2.84607 0
M  V30 4411 C 388.679 -4.51396 2.84741 0
M  V30 4412 O 388.902 -5.36255 1.94388 0
M  V30 4413 O 387.836 -4.69621 3.76483 0
M  V30 4414 H 391.662 -1.61073 2.57467 0
M  V30 4415 H 389.247 -0.735894 1.30019 0
M  V30 4416 H 391.129 -3.8801 1.64396 0
M  V30 4417 H 389.804 -3.16333 0.686684 0
M  V30 4418 H 388.711 -2.39579 2.8732 0
M  V30 4419 H 390.044 -3.16721 3.76761 0
M  V30 4420 N 391.696 -1.35014 -0.812953 0
M  V30 4421 C 392.626 -1.30069 -1.93919 0
M  V30 4422 C 393.607 -0.176275 -1.69184 0
M  V30 4423 O 394.792 -0.370227 -1.90638 0
M  V30 4424 C 391.922 -1.06547 -3.30552 0
M  V30 4425 C 390.876 -2.15561 -3.69753 0
M  V30 4426 C 390.202 -1.77214 -5.04479 0
M  V30 4427 C 391.502 -3.57476 -3.808 0
M  V30 4428 H 393.196 -2.24303 -1.98314 0
M  V30 4429 H 390.742 -1.07977 -0.952736 0
M  V30 4430 H 392.695 -1.01729 -4.08937 0
M  V30 4431 H 391.419 -0.0875719 -3.26483 0
M  V30 4432 H 390.078 -2.19466 -2.9365 0
M  V30 4433 H 389.726 -0.780589 -4.96906 0
M  V30 4434 H 389.426 -2.50184 -5.31678 0
M  V30 4435 H 390.95 -1.7391 -5.8531 0
M  V30 4436 H 392.364 -3.55929 -4.4943 0
M  V30 4437 H 390.761 -4.29152 -4.19462 0
M  V30 4438 H 391.831 -3.94091 -2.82525 0
M  V30 4439 N 393.175 1.03435 -1.18907 0
M  V30 4440 C 394.085 2.15075 -0.937015 0
M  V30 4441 C 395.101 1.73706 0.101085 0
M  V30 4442 O 396.277 2.01232 -0.0822948 0
M  V30 4443 C 393.342 3.43458 -0.473057 0
M  V30 4444 C 392.403 3.99172 -1.57989 0
M  V30 4445 C 391.636 5.21427 -1.13797 0
M  V30 4446 O 391.859 5.704 0.000725941 0
M  V30 4447 O 390.793 5.69837 -1.9383 0
M  V30 4448 H 394.619 2.39198 -1.87131 0
M  V30 4449 H 392.204 1.13506 -0.971427 0
M  V30 4450 H 394.086 4.20811 -0.222702 0
M  V30 4451 H 392.761 3.20793 0.432869 0
M  V30 4452 H 391.668 3.23178 -1.88433 0
M  V30 4453 H 393.001 4.2619 -2.46217 0
M  V30 4454 N 394.653 0.992116 1.22453 0
M  V30 4455 C 395.616 0.546883 2.2258 0
M  V30 4456 C 396.616 -0.369829 1.56489 0
M  V30 4457 O 397.806 -0.161896 1.73446 0
M  V30 4458 C 394.938 -0.204659 3.40285 0
M  V30 4459 H 396.131 1.43234 2.63484 0
M  V30 4460 H 393.684 0.779239 1.3549 0
M  V30 4461 H 394.419 -1.10614 3.04853 0
M  V30 4462 H 394.204 0.45354 3.89468 0
M  V30 4463 H 395.694 -0.504358 4.14543 0
M  V30 4464 N 396.131 -1.37776 0.765217 0
M  V30 4465 C 397.061 -2.32945 0.160953 0
M  V30 4466 C 398.042 -1.55454 -0.690516 0
M  V30 4467 O 399.227 -1.83721 -0.629318 0
M  V30 4468 C 396.357 -3.39669 -0.724031 0
M  V30 4469 C 395.311 -4.27992 0.0256173 0
M  V30 4470 C 394.637 -5.25673 -0.978383 0
M  V30 4471 C 395.937 -5.08309 1.20082 0
M  V30 4472 H 397.631 -2.83728 0.955969 0
M  V30 4473 H 395.177 -1.36416 0.461149 0
M  V30 4474 H 397.13 -4.05219 -1.15652 0
M  V30 4475 H 395.854 -2.87396 -1.5515 0
M  V30 4476 H 394.513 -3.63964 0.438812 0
M  V30 4477 H 394.161 -4.69682 -1.80022 0
M  V30 4478 H 393.861 -5.85625 -0.481378 0
M  V30 4479 H 395.385 -5.94098 -1.40995 0
M  V30 4480 H 396.799 -5.67034 0.845307 0
M  V30 4481 H 395.196 -5.77554 1.62947 0
M  V30 4482 H 396.266 -4.41365 2.00811 0
M  V30 4483 N 397.609 -0.515225 -1.4894 0
M  V30 4484 C 398.856 0.024215 -2.02486 0
M  V30 4485 C 399.184 1.35671 -1.39368 0
M  V30 4486 O 398.439 1.88566 -0.523574 0
M  V30 4487 C 398.738 0.210595 -3.56779 0
M  V30 4488 C 398.404 -1.04569 -4.38607 0
M  V30 4489 C 397.066 -1.39002 -4.60686 0
M  V30 4490 C 399.418 -1.88008 -4.86109 0
M  V30 4491 C 396.746 -2.568 -5.27514 0
M  V30 4492 C 399.098 -3.04972 -5.54234 0
M  V30 4493 C 397.762 -3.39768 -5.74555 0
M  V30 4494 H 397.032 0.00886088 -0.740947 0
M  V30 4495 H 399.679 -0.678263 -1.79086 0
M  V30 4496 H 397.984 0.99572 -3.78936 0
M  V30 4497 H 399.681 0.642659 -3.95817 0
M  V30 4498 H 396.271 -0.767497 -4.21672 0
M  V30 4499 H 400.455 -1.62719 -4.68867 0
M  V30 4500 H 395.711 -2.8398 -5.41447 0
M  V30 4501 H 399.885 -3.69943 -5.90013 0
M  V30 4502 H 397.512 -4.31148 -6.26112 0
M  V30 4503 N 399.087 1.5561 -0.249682 0
M  V30 4504 C 400.315 2.03411 0.378352 0
M  V30 4505 C 400.73 1.12886 1.51335 0
M  V30 4506 O 400.087 0.143833 1.81932 0
M  V30 4507 C 400.138 3.50537 0.88351 0
M  V30 4508 O 399.859 4.37614 -0.20626 0
M  V30 4509 C 401.36 4.14113 1.58195 0
M  V30 4510 H 398.58 0.664994 0.08958 0
M  V30 4511 H 401.124 2.01044 -0.374357 0
M  V30 4512 H 399.279 3.5343 1.58639 0
M  V30 4513 H 399.693 5.24199 0.177782 0
M  V30 4514 H 401.167 5.18741 1.8871 0
M  V30 4515 H 401.644 3.60767 2.50487 0
M  V30 4516 H 402.25 4.15151 0.923573 0
M  V30 4517 N 400.565 -0.0233959 1.57583 0
M  V30 4518 C 401.512 -1.02224 2.06927 0
M  V30 4519 C 402.482 -1.35575 0.959617 0
M  V30 4520 O 403.667 -1.45815 1.23055 0
M  V30 4521 C 400.807 -2.31636 2.5581 0
M  V30 4522 C 399.92 -2.04394 3.80588 0
M  V30 4523 C 399.055 -3.27717 4.18061 0
M  V30 4524 C 398.094 -2.96056 5.3574 0
M  V30 4525 N 397.231 -4.11847 5.68618 0
M  V30 4526 H 402.071 -0.594504 2.9201 0
M  V30 4527 H 399.608 -0.281921 1.44373 0
M  V30 4528 H 401.566 -3.07258 2.82221 0
M  V30 4529 H 400.196 -2.72122 1.73636 0
M  V30 4530 H 399.248 -1.19244 3.61227 0
M  V30 4531 H 400.56 -1.77042 4.66323 0
M  V30 4532 H 399.714 -4.11702 4.4563 0
M  V30 4533 H 398.453 -3.58188 3.30988 0
M  V30 4534 H 397.458 -2.10474 5.07918 0
M  V30 4535 H 398.683 -2.66857 6.24471 0
M  V30 4536 H 396.629 -4.42258 4.84504 0
M  V30 4537 H 396.546 -3.87938 6.48876 0
M  V30 4538 H 397.814 -4.96689 6.00766 0
M  V30 4539 N 402.043 -1.548 -0.295768 0
M  V30 4540 C 402.953 -1.89177 -1.38742 0
M  V30 4541 C 403.969 -0.786481 -1.55211 0
M  V30 4542 O 405.145 -1.08344 -1.69775 0
M  V30 4543 C 402.21 -2.13663 -2.73036 0
M  V30 4544 C 401.271 -3.37349 -2.65508 0
M  V30 4545 C 400.504 -3.60658 -3.93398 0
M  V30 4546 O 400.727 -2.86882 -4.93006 0
M  V30 4547 O 399.661 -4.54179 -3.94975 0
M  V30 4548 H 403.487 -2.82059 -1.12589 0
M  V30 4549 H 401.072 -1.41056 -0.492295 0
M  V30 4550 H 402.954 -2.3094 -3.52484 0
M  V30 4551 H 401.629 -1.23967 -2.99022 0
M  V30 4552 H 400.536 -3.25431 -1.84514 0
M  V30 4553 H 401.869 -4.27192 -2.44474 0
M  V30 4554 N 403.521 0.559213 -1.47345 0
M  V30 4555 C 404.451 1.67622 -1.62558 0
M  V30 4556 C 405.432 1.63331 -0.475087 0
M  V30 4557 O 406.617 1.80983 -0.704182 0
M  V30 4558 C 403.747 3.0626 -1.63774 0
M  V30 4559 C 402.701 3.25397 -2.7803 0
M  V30 4560 C 402.027 4.64801 -2.64318 0
M  V30 4561 C 403.327 3.10965 -4.19641 0
M  V30 4562 H 405.021 1.55146 -2.56067 0
M  V30 4563 H 402.567 0.744961 -1.23233 0
M  V30 4564 H 404.52 3.84247 -1.73008 0
M  V30 4565 H 403.244 3.1969 -0.66825 0
M  V30 4566 H 401.903 2.49817 -2.68304 0
M  V30 4567 H 401.551 4.75028 -1.65401 0
M  V30 4568 H 401.251 4.78555 -3.40968 0
M  V30 4569 H 402.775 5.44926 -2.75478 0
M  V30 4570 H 404.189 3.78772 -4.30354 0
M  V30 4571 H 402.586 3.36229 -4.97062 0
M  V30 4572 H 403.656 2.07736 -4.38148 0
M  V30 4573 N 404.999 1.35443 0.805782 0
M  V30 4574 C 405.909 1.30546 1.94923 0
M  V30 4575 C 406.925 0.210233 1.72725 0
M  V30 4576 O 408.101 0.43975 1.9654 0
M  V30 4577 C 405.166 1.07782 3.29521 0
M  V30 4578 C 404.227 2.26625 3.64609 0
M  V30 4579 C 403.46 2.04938 4.92784 0
M  V30 4580 O 403.683 1.01624 5.61274 0
M  V30 4581 O 402.617 2.9232 5.26149 0
M  V30 4582 H 406.443 2.26779 2.02002 0
M  V30 4583 H 404.028 1.15823 0.943682 0
M  V30 4584 H 405.91 0.969392 4.10098 0
M  V30 4585 H 404.585 0.146003 3.23371 0
M  V30 4586 H 403.492 2.43033 2.84404 0
M  V30 4587 H 404.825 3.18257 3.75464 0
M  V30 4588 N 406.477 -1.02803 1.19454 0
M  V30 4589 C 407.424 -2.11099 0.933046 0
M  V30 4590 C 408.394 -1.65571 -0.132447 0
M  V30 4591 O 409.579 -1.90797 0.00987576 0
M  V30 4592 C 406.719 -3.41763 0.478747 0
M  V30 4593 C 405.832 -4.00833 1.6111 0
M  V30 4594 C 404.967 -5.19511 1.10825 0
M  V30 4595 C 404.006 -5.70639 2.21445 0
M  V30 4596 N 403.143 -6.80589 1.72461 0
M  V30 4597 H 407.983 -2.32804 1.86028 0
M  V30 4598 H 405.52 -1.14179 0.927441 0
M  V30 4599 H 407.478 -4.16736 0.196745 0
M  V30 4600 H 406.108 -3.20166 -0.411493 0
M  V30 4601 H 405.16 -3.23066 2.00829 0
M  V30 4602 H 406.472 -4.34794 2.4445 0
M  V30 4603 H 405.626 -6.01645 0.781533 0
M  V30 4604 H 404.365 -4.87086 0.244606 0
M  V30 4605 H 403.37 -4.87116 2.54947 0
M  V30 4606 H 404.595 -6.05102 3.08267 0
M  V30 4607 H 402.541 -6.50016 0.884056 0
M  V30 4608 H 402.458 -7.13681 2.49389 0
M  V30 4609 H 403.726 -7.66317 1.42755 0
M  V30 4610 N 407.956 -0.998596 -1.21925 0
M  V30 4611 C 409.202 -0.678667 -1.91107 0
M  V30 4612 C 409.535 0.78791 -1.77498 0
M  V30 4613 O 408.81 1.57043 -1.1475 0
M  V30 4614 C 409.093 -1.09245 -3.43129 0
M  V30 4615 C 408.946 -2.61801 -3.6576 0
M  V30 4616 C 410.265 -0.649984 -4.35274 0
M  V30 4617 H 407.384 -0.248025 -0.694012 0
M  V30 4618 H 410.026 -1.24314 -1.43688 0
M  V30 4619 H 408.176 -0.612171 -3.83647 0
M  V30 4620 H 409.848 -3.17543 -3.34611 0
M  V30 4621 H 408.091 -3.03609 -3.09845 0
M  V30 4622 H 408.762 -2.85804 -4.7225 0
M  V30 4623 H 411.238 -1.0626 -4.02303 0
M  V30 4624 H 410.114 -0.967743 -5.40302 0
M  V30 4625 H 410.375 0.449139 -4.39813 0
M  V30 4626 N 409.434 1.37368 -0.772513 0
M  V30 4627 C 410.664 2.03647 -0.348082 0
M  V30 4628 C 411.072 1.58392 1.03482 0
M  V30 4629 O 410.415 0.760921 1.672 0
M  V30 4630 C 410.477 3.58131 -0.313404 0
M  V30 4631 C 410.141 4.2652 -1.64102 0
M  V30 4632 C 411.138 4.50587 -2.5936 0
M  V30 4633 C 408.823 4.64335 -1.91567 0
M  V30 4634 C 410.817 5.11526 -3.80289 0
M  V30 4635 C 408.504 5.24996 -3.12766 0
M  V30 4636 C 409.502 5.48529 -4.06946 0
M  V30 4637 O 409.19 6.07921 -5.26011 0
M  V30 4638 H 408.922 0.660538 -0.143753 0
M  V30 4639 H 411.476 1.76669 -1.04772 0
M  V30 4640 H 409.706 3.84159 0.442617 0
M  V30 4641 H 411.395 4.05813 0.0840613 0
M  V30 4642 H 412.161 4.21784 -2.39423 0
M  V30 4643 H 408.04 4.45353 -1.19088 0
M  V30 4644 H 411.584 5.29811 -4.53813 0
M  V30 4645 H 407.481 5.53223 -3.32588 0
M  V30 4646 H 408.249 6.26398 -5.26847 0
M  V30 4647 N 410.912 0.523116 1.48665 0
M  V30 4648 C 412.189 -0.0775449 1.95446 0
M  V30 4649 C 412.569 -1.5197 1.4652 0
M  V30 4650 O 411.917 -2.17876 0.688657 0
M  V30 4651 C 412.127 0.0326135 3.48985 0
M  V30 4652 C 413.475 -0.130141 4.24401 0
M  V30 4653 O 414.499 -0.0415142 3.56176 0
M  V30 4654 O 413.358 -0.31491 5.45592 0
M  V30 4655 H 410.452 -0.0831012 0.822814 0
M  V30 4656 H 412.998 0.587227 1.59216 0
M  V30 4657 H 411.77 1.03748 3.77296 0
M  V30 4658 H 411.393 -0.671317 3.91892 0
M  V30 4659 N 412.39 -1.55475 0.257931 0
M  V30 4660 C 413.801 -1.8511 -0.243135 0
M  V30 4661 C 414.152 -1.17986 -1.5676 0
M  V30 4662 O 413.277 -0.462102 -2.11409 0
M  V30 4663 C 413.872 -3.35826 -0.447929 0
M  V30 4664 C 412.431 -3.65647 -0.893245 0
M  V30 4665 C 411.578 -2.7729 0.0232965 0
M  V30 4666 H 414.529 -1.51261 0.480199 0
M  V30 4667 H 414.55 -3.58002 -1.28898 0
M  V30 4668 H 414.062 -3.84652 0.516196 0
M  V30 4669 H 412.163 -3.22308 -1.86945 0
M  V30 4670 H 412.276 -4.73312 -0.742469 0
M  V30 4671 H 410.64 -2.49942 -0.490021 0
M  V30 4672 H 411.423 -3.28926 0.982994 0
M  V30 4673 N 413.868 0.0150385 -1.57593 0
M  V30 4674 C 414.815 1.01126 -2.07466 0
M  V30 4675 C 415.785 1.35064 -0.966794 0
M  V30 4676 O 416.97 1.4516 -1.23827 0
M  V30 4677 C 414.11 2.30276 -2.57035 0
M  V30 4678 C 413.223 2.02373 -3.81666 0
M  V30 4679 C 412.358 3.25496 -4.19793 0
M  V30 4680 C 411.397 2.93211 -5.37303 0
M  V30 4681 N 410.534 4.08826 -5.70794 0
M  V30 4682 H 415.374 0.57901 -2.92321 0
M  V30 4683 H 412.911 0.27426 -1.44521 0
M  V30 4684 H 414.869 3.05757 -2.83846 0
M  V30 4685 H 413.499 2.71197 -1.75077 0
M  V30 4686 H 412.551 1.17327 -3.61854 0
M  V30 4687 H 413.863 1.74567 -4.67256 0
M  V30 4688 H 413.017 4.09333 -4.47807 0
M  V30 4689 H 411.756 3.56428 -3.32882 0
M  V30 4690 H 410.761 2.07777 -5.09027 0
M  V30 4691 H 411.986 2.63542 -6.25877 0
M  V30 4692 H 409.932 4.39682 -4.86842 0
M  V30 4693 H 409.849 3.84491 -6.50924 0
M  V30 4694 H 411.117 4.93496 -6.03392 0
M  V30 4695 N 415.346 1.54954 0.287554 0
M  V30 4696 C 416.294 1.87606 1.37502 0
M  V30 4697 C 417.288 0.751001 1.51843 0
M  V30 4698 O 418.494 0.935169 1.53801 0
M  V30 4699 H 414.869 0.595231 0.459569 0
M  V30 4700 H 416.84 2.78477 1.07206 0
M  V30 4701 C 415.589 2.15183 2.73115 0
M  V30 4702 H 414.912 3.01234 2.62866 0
M  V30 4703 H 416.352 2.4196 3.48183 0
M  V30 4704 C 414.811 0.954686 3.2309 0
M  V30 4705 O 415.341 0.181949 4.01288 0
M  V30 4706 N 413.547 0.756368 2.80584 0
M  V30 4707 H 413.094 1.38643 2.17108 0
M  V30 4708 H 413.052 -0.0430391 3.14371 0
M  V30 4709 N 416.824 -0.551391 1.4764 0
M  V30 4710 C 417.734 -1.68525 1.63207 0
M  V30 4711 C 418.75 -1.6621 0.514815 0
M  V30 4712 O 419.926 -1.85551 0.783113 0
M  V30 4713 C 416.991 -3.05025 1.64805 0
M  V30 4714 C 416.052 -3.18362 2.88 0
M  V30 4715 C 415.285 -4.4835 2.89513 0
M  V30 4716 O 415.508 -5.34163 2.00065 0
M  V30 4717 O 414.442 -4.65602 3.81443 0
M  V30 4718 H 418.268 -1.58333 2.59161 0
M  V30 4719 H 415.853 -0.722063 1.30792 0
M  V30 4720 H 417.735 -3.86245 1.68502 0
M  V30 4721 H 416.41 -3.15587 0.720197 0
M  V30 4722 H 415.317 -2.36518 2.89845 0
M  V30 4723 H 416.65 -3.12707 3.80099 0
M  V30 4724 N 418.302 -1.35869 -0.798587 0
M  V30 4725 C 419.212 -1.31578 -1.94228 0
M  V30 4726 C 420.228 -0.21939 -1.72611 0
M  V30 4727 O 421.404 -0.450167 -1.96305 0
M  V30 4728 C 418.469 -1.09528 -3.28944 0
M  V30 4729 C 417.53 -2.28556 -3.63402 0
M  V30 4730 C 416.763 -2.07549 -4.9169 0
M  V30 4731 O 416.986 -1.046 -5.60727 0
M  V30 4732 O 415.92 -2.95106 -5.24591 0
M  V30 4733 H 419.746 -2.27847 -2.00796 0
M  V30 4734 H 417.331 -1.16322 -0.937526 0
M  V30 4735 H 419.213 -0.991127 -4.09579 0
M  V30 4736 H 417.888 -0.16315 -3.23289 0
M  V30 4737 H 416.795 -2.44538 -2.83112 0
M  V30 4738 H 418.128 -3.20244 -3.73771 0
M  V30 4739 N 419.78 1.02168 -1.19998 0
M  V30 4740 C 421.057 1.72816 -0.916191 0
M  V30 4741 C 421.437 2.03081 0.576325 0
M  V30 4742 O 420.785 1.69122 1.53656 0
M  V30 4743 C 420.995 2.9997 -1.78378 0
M  V30 4744 C 422.343 3.73336 -2.02251 0
M  V30 4745 O 423.367 3.09914 -1.75589 0
M  V30 4746 O 422.226 4.87371 -2.47249 0
M  V30 4747 H 419.32 0.752924 -0.342103 0
M  V30 4748 H 421.866 1.08062 -1.30846 0
M  V30 4749 H 420.638 2.73888 -2.79466 0
M  V30 4750 H 420.261 3.72464 -1.39126 0
M  V30 4751 N 421.258 1.00505 1.21394 0
M  V30 4752 C 422.535 0.603277 1.86064 0
M  V30 4753 C 422.915 -0.919095 1.90042 0
M  V30 4754 O 422.263 -1.80607 1.39977 0
M  V30 4755 C 422.473 1.23772 3.26315 0
M  V30 4756 C 423.821 1.34586 4.02705 0
M  V30 4757 O 424.845 1.19304 3.35626 0
M  V30 4758 O 423.704 1.59169 5.22807 0
M  V30 4759 H 420.798 0.206634 0.800769 0
M  V30 4760 H 423.344 1.1017 1.29076 0
M  V30 4761 H 422.116 2.27848 3.18121 0
M  V30 4762 H 421.739 0.725648 3.90922 0
M  V30 4763 N 422.737 -1.36956 0.779787 0
M  V30 4764 C 423.67 -2.27896 0.117681 0
M  V30 4765 C 424.648 -1.46736 -0.700523 0
M  V30 4766 O 425.832 -1.76055 -0.673568 0
M  V30 4767 C 422.959 -3.28136 -0.839296 0
M  V30 4768 C 422.005 -4.26373 -0.10409 0
M  V30 4769 S 422.838 -5.2157 1.21348 0
M  V30 4770 C 423.994 -6.25359 0.260249 0
M  V30 4771 H 424.227 -2.83704 0.888778 0
M  V30 4772 H 421.76 -1.43352 0.57355 0
M  V30 4773 H 423.718 -3.86394 -1.38601 0
M  V30 4774 H 422.379 -2.7126 -1.58356 0
M  V30 4775 H 421.572 -4.97121 -0.82986 0
M  V30 4776 H 421.174 -3.72147 0.371858 0
M  V30 4777 H 423.466 -6.75145 -0.564435 0
M  V30 4778 H 424.409 -7.01885 0.936135 0
M  V30 4779 H 424.817 -5.64345 -0.132127 0
M  V30 4780 N 424.215 -0.530993 -1.48385 0
M  V30 4781 C 425.461 0.00274135 -2.028 0
M  V30 4782 C 425.794 1.33838 -1.40716 0
M  V30 4783 O 425.069 1.86465 -0.553277 0
M  V30 4784 C 425.352 0.123676 -3.59888 0
M  V30 4785 C 425.205 -1.2372 -4.3245 0
M  V30 4786 C 426.524 0.849967 -4.31814 0
M  V30 4787 H 423.643 -0.000477758 -0.737 0
M  V30 4788 H 426.285 -0.688217 -1.77098 0
M  V30 4789 H 424.435 0.712157 -3.81917 0
M  V30 4790 H 426.107 -1.86687 -4.21836 0
M  V30 4791 H 424.35 -1.81882 -3.93829 0
M  V30 4792 H 425.021 -1.10557 -5.40815 0
M  V30 4793 H 427.497 0.350572 -4.14621 0
M  V30 4794 H 426.373 0.903486 -5.41413 0
M  V30 4795 H 426.634 1.90047 -3.99167 0
M  V30 4796 N 425.693 1.55336 -0.266172 0
M  V30 4797 C 426.603 2.2583 0.635458 0
M  V30 4798 C 427.619 1.28106 1.17749 0
M  V30 4799 O 428.795 1.61024 1.20968 0
M  V30 4800 C 425.86 2.95879 1.80712 0
M  V30 4801 C 424.921 4.09059 1.30265 0
M  V30 4802 C 424.154 4.75759 2.41846 0
M  V30 4803 O 424.377 4.41622 3.61007 0
M  V30 4804 O 423.311 5.63888 2.1051 0
M  V30 4805 H 427.137 3.03631 0.0646693 0
M  V30 4806 H 424.722 1.49361 -0.0339177 0
M  V30 4807 H 426.604 3.39932 2.49047 0
M  V30 4808 H 425.279 2.21002 2.36516 0
M  V30 4809 H 424.186 3.69482 0.586019 0
M  V30 4810 H 425.519 4.85811 0.790458 0
M  V30 4811 N 427.171 -0.0066808 1.57599 0
M  V30 4812 C 428.104 -1.03397 2.03431 0
M  V30 4813 C 429.082 -1.33872 0.922877 0
M  V30 4814 O 430.266 -1.4615 1.19048 0
M  V30 4815 C 427.393 -2.36325 2.42628 0
M  V30 4816 C 426.439 -2.21557 3.64438 0
M  V30 4817 S 427.272 -1.54789 5.12641 0
M  V30 4818 C 428.428 -2.8916 5.55101 0
M  V30 4819 H 428.661 -0.643687 2.90248 0
M  V30 4820 H 426.194 -0.217349 1.52863 0
M  V30 4821 H 428.152 -3.12759 2.65879 0
M  V30 4822 H 426.813 -2.72495 1.56222 0
M  V30 4823 H 426.006 -3.1974 3.89592 0
M  V30 4824 H 425.608 -1.53267 3.41153 0
M  V30 4825 H 427.9 -3.8547 5.57153 0
M  V30 4826 H 428.843 -2.68713 6.55133 0
M  V30 4827 H 429.251 -2.92762 4.82649 0
M  V30 4828 N 428.649 -1.55105 -0.279332 0
M  V30 4829 C 429.559 -1.90638 -1.36727 0
M  V30 4830 C 430.575 -0.802899 -1.54368 0
M  V30 4831 O 431.751 -1.10138 -1.68616 0
M  V30 4832 C 428.816 -2.16547 -2.70755 0
M  V30 4833 C 427.877 -3.40146 -2.61915 0
M  V30 4834 C 427.11 -3.6481 -3.8955 0
M  V30 4835 O 427.333 -2.92095 -4.89935 0
M  V30 4836 O 426.267 -4.58343 -3.90135 0
M  V30 4837 H 430.093 -2.83237 -1.09591 0
M  V30 4838 H 427.678 -1.4157 -0.477306 0
M  V30 4839 H 429.56 -2.34665 -3.50014 0
M  V30 4840 H 428.235 -1.27131 -2.9769 0
M  V30 4841 H 427.142 -3.2737 -1.81052 0
M  V30 4842 H 428.475 -4.29761 -2.3993 0
M  V30 4843 N 430.127 0.543554 -1.4793 0
M  V30 4844 C 431.037 1.67657 -1.64098 0
M  V30 4845 C 432.053 1.65934 -0.523622 0
M  V30 4846 O 433.229 1.85133 -0.792943 0
M  V30 4847 C 430.294 3.04146 -1.66421 0
M  V30 4848 C 429.355 3.16831 -2.89684 0
M  V30 4849 C 428.588 4.46809 -2.91886 0
M  V30 4850 O 428.811 5.33095 -2.02895 0
M  V30 4851 O 427.745 4.63573 -3.83906 0
M  V30 4852 H 431.571 1.56957 -2.59997 0
M  V30 4853 H 429.156 0.715116 -1.31173 0
M  V30 4854 H 431.038 3.85346 -1.70548 0
M  V30 4855 H 429.713 3.152 -0.736923 0
M  V30 4856 H 428.62 2.34977 -2.91095 0
M  V30 4857 H 429.953 3.10687 -3.81752 0
M  V30 4858 N 431.605 1.3629 0.791371 0
M  V30 4859 C 432.515 1.32606 1.93527 0
M  V30 4860 C 433.531 0.228541 1.72493 0
M  V30 4861 O 434.707 0.460571 1.96063 0
M  V30 4862 C 431.772 1.11271 3.28359 0
M  V30 4863 C 430.833 2.3048 3.62185 0
M  V30 4864 C 430.066 2.10154 4.90583 0
M  V30 4865 O 430.289 1.07572 5.60165 0
M  V30 4866 O 429.223 2.97884 5.23019 0
M  V30 4867 H 433.049 2.28909 1.99585 0
M  V30 4868 H 430.634 1.16818 0.931344 0
M  V30 4869 H 432.516 1.01283 4.09047 0
M  V30 4870 H 431.191 0.180292 3.23198 0
M  V30 4871 H 430.098 2.46036 2.81811 0
M  V30 4872 H 431.431 3.22221 3.72068 0
M  V30 4873 N 433.083 -1.0153 1.20538 0
M  V30 4874 C 434.499 -1.27461 0.96051 0
M  V30 4875 C 434.699 -1.98273 -0.359193 0
M  V30 4876 O 433.755 -2.27886 -1.0874 0
M  V30 4877 C 435.068 -2.10837 2.14402 0
M  V30 4878 C 436.616 -2.24099 2.18515 0
M  V30 4879 C 437.091 -3.10852 3.36355 0
M  V30 4880 N 438.582 -3.18441 3.36377 0
M  V30 4881 C 439.317 -3.85795 4.24205 0
M  V30 4882 N 438.813 -4.55264 5.22213 0
M  V30 4883 N 440.606 -3.82331 4.12043 0
M  V30 4884 H 432.757 -0.539907 2.05423 0
M  V30 4885 H 435.02 -0.30092 0.898972 0
M  V30 4886 H 434.726 -1.66144 3.09983 0
M  V30 4887 H 434.6 -3.11576 2.12604 0
M  V30 4888 H 436.987 -2.68016 1.23497 0
M  V30 4889 H 437.068 -1.22865 2.24361 0
M  V30 4890 H 436.712 -2.6764 4.31661 0
M  V30 4891 H 436.642 -4.12177 3.27746 0
M  V30 4892 H 439.133 -2.68978 2.65442 0
M  V30 4893 H 439.446 -5.04331 5.85551 0
M  V30 4894 H 437.791 -4.54085 5.26148 0
M  V30 4895 H 440.982 -3.27207 3.34743 0
M  V30 4896 H 441.155 -4.34547 4.807 0
M  V30 4897 N 434.561 -1.01147 -1.20859 0
M  V30 4898 C 435.491 -0.597663 -2.25722 0
M  V30 4899 C 436.472 0.384744 -1.65692 0
M  V30 4900 O 437.657 0.271303 -1.92296 0
M  V30 4901 C 434.787 0.0700149 -3.47229 0
M  V30 4902 C 433.741 -0.832843 -4.19819 0
M  V30 4903 C 433.067 -0.0312202 -5.34691 0
M  V30 4904 C 434.367 -2.1385 -4.76514 0
M  V30 4905 H 436.061 -1.47423 -2.60589 0
M  V30 4906 H 433.607 -0.710301 -1.25263 0
M  V30 4907 H 435.56 0.37103 -4.19763 0
M  V30 4908 H 434.284 0.981259 -3.11511 0
M  V30 4909 H 432.943 -1.11778 -3.49144 0
M  V30 4910 H 432.591 0.881515 -4.95215 0
M  V30 4911 H 432.291 -0.632434 -5.84187 0
M  V30 4912 H 433.815 0.26346 -6.10031 0
M  V30 4913 H 435.229 -1.9002 -5.40893 0
M  V30 4914 H 433.626 -2.69012 -5.36426 0
M  V30 4915 H 434.696 -2.80495 -3.95538 0
M  V30 4916 N 436.039 1.36541 -0.78704 0
M  V30 4917 C 437.455 1.52571 -0.46844 0
M  V30 4918 C 437.655 1.7415 1.01361 0
M  V30 4919 O 436.711 1.77163 1.79915 0
M  V30 4920 C 438.024 2.71299 -1.29682 0
M  V30 4921 C 439.572 2.85169 -1.29027 0
M  V30 4922 C 440.047 4.06898 -2.10233 0
M  V30 4923 N 441.538 4.1404 -2.07666 0
M  V30 4924 C 442.273 5.07301 -2.67271 0
M  V30 4925 N 441.769 6.06021 -3.35724 0
M  V30 4926 N 443.562 4.99898 -2.57018 0
M  V30 4927 H 435.713 1.20788 -1.74711 0
M  V30 4928 H 437.976 0.589364 -0.742532 0
M  V30 4929 H 437.682 2.61868 -2.34773 0
M  V30 4930 H 437.556 3.6539 -0.936479 0
M  V30 4931 H 439.943 2.94062 -0.247284 0
M  V30 4932 H 440.024 1.91992 -1.69035 0
M  V30 4933 H 439.668 3.98766 -3.1456 0
M  V30 4934 H 439.598 4.99218 -1.67597 0
M  V30 4935 H 442.089 3.43357 -1.57843 0
M  V30 4936 H 442.402 6.73741 -3.78541 0
M  V30 4937 H 440.747 6.06253 -3.39826 0
M  V30 4938 H 443.938 4.21724 -2.03142 0
M  V30 4939 H 444.111 5.72392 -3.03761 0
M  V30 4940 N 437.518 0.538854 1.48102 0
M  V30 4941 C 438.451 -0.266495 2.26639 0
M  V30 4942 C 439.429 -0.93687 1.32897 0
M  V30 4943 O 440.613 -0.959507 1.62252 0
M  V30 4944 C 437.74 -1.37814 3.09394 0
M  V30 4945 C 436.786 -0.818247 4.18577 0
M  V30 4946 S 437.619 0.320848 5.34538 0
M  V30 4947 C 438.775 -0.793059 6.20855 0
M  V30 4948 H 439.008 0.399994 2.94597 0
M  V30 4949 H 436.541 0.324808 1.50945 0
M  V30 4950 H 438.499 -2.01488 3.57649 0
M  V30 4951 H 437.16 -2.01639 2.40833 0
M  V30 4952 H 436.353 -1.65247 4.7614 0
M  V30 4953 H 435.955 -0.258036 3.73109 0
M  V30 4954 H 438.247 -1.68961 6.56093 0
M  V30 4955 H 439.19 -0.255204 7.0764 0
M  V30 4956 H 439.598 -1.07746 5.54122 0
M  V30 4957 N 438.996 -1.55193 0.274407 0
M  V30 4958 C 440.412 -1.59401 -0.0797543 0
M  V30 4959 C 440.612 -1.29162 -1.54659 0
M  V30 4960 O 439.668 -1.05215 -2.29534 0
M  V30 4961 C 440.981 -2.99257 0.294238 0
M  V30 4962 C 442.529 -3.12072 0.240796 0
M  V30 4963 C 443.004 -4.54194 0.589218 0
M  V30 4964 N 444.495 -4.60033 0.540744 0
M  V30 4965 C 445.23 -5.68027 0.783147 0
M  V30 4966 N 444.726 -6.8417 1.09013 0
M  V30 4967 N 446.519 -5.57572 0.711993 0
M  V30 4968 H 438.67 -1.73113 1.23067 0
M  V30 4969 H 440.933 -0.807197 0.497129 0
M  V30 4970 H 440.639 -3.26217 1.31435 0
M  V30 4971 H 440.513 -3.75427 -0.365281 0
M  V30 4972 H 442.9 -2.84877 -0.770024 0
M  V30 4973 H 442.981 -2.38117 0.934563 0
M  V30 4974 H 442.625 -4.82115 1.59772 0
M  V30 4975 H 442.555 -5.26448 -0.126331 0
M  V30 4976 H 445.046 -3.76599 0.313327 0
M  V30 4977 H 445.359 -7.6243 1.26178 0
M  V30 4978 H 443.704 -6.85787 1.12789 0
M  V30 4979 H 446.895 -4.65714 0.472014 0
M  V30 4980 H 447.068 -6.41659 0.90429 0
M  V30 4981 N 440.474 -0.00167713 -1.576 0
M  V30 4982 C 441.384 1.00548 -2.1196 0
M  V30 4983 C 442.4 1.3758 -1.06526 0
M  V30 4984 O 443.576 1.46278 -1.38436 0
M  V30 4985 C 440.641 2.27809 -2.6135 0
M  V30 4986 C 439.702 1.97074 -3.81393 0
M  V30 4987 C 438.935 3.18267 -4.28417 0
M  V30 4988 O 439.158 4.30009 -3.74765 0
M  V30 4989 O 438.092 3.02167 -5.20556 0
M  V30 4990 H 441.918 0.573373 -2.98238 0
M  V30 4991 H 439.503 0.217255 -1.47812 0
M  V30 4992 H 441.385 3.02568 -2.93309 0
M  V30 4993 H 440.06 2.70254 -1.78169 0
M  V30 4994 H 438.967 1.19785 -3.54404 0
M  V30 4995 H 440.3 1.59464 -4.65652 0
M  V30 4996 N 441.952 1.55251 0.271103 0
M  V30 4997 C 442.902 1.84649 1.33749 0
M  V30 4998 C 443.886 0.705529 1.44607 0
M  V30 4999 O 445.078 0.966916 1.48256 0
M  V30 5000 C 442.207 2.12354 2.69742 0
M  V30 5001 C 441.293 3.32714 2.62988 0
M  V30 5002 N 441.684 4.52575 2.25853 0
M  V30 5003 C 439.982 3.35341 2.94045 0
M  V30 5004 C 440.683 5.34669 2.29136 0
M  V30 5005 N 439.659 4.73123 2.67685 0
M  V30 5006 H 443.461 2.74865 1.0405 0
M  V30 5007 H 440.975 1.55152 0.479738 0
M  V30 5008 H 442.972 2.31572 3.4667 0
M  V30 5009 H 441.632 1.23422 3.00328 0
M  V30 5010 H 442.643 4.78639 1.978 0
M  V30 5011 H 439.32 2.56608 3.2933 0
M  V30 5012 H 440.71 6.40509 2.02971 0
M  V30 5013 N 443.43 -0.535701 1.48216 0
M  V30 5014 C 444.676 -1.29375 1.56173 0
M  V30 5015 C 445.009 -1.92804 0.232429 0
M  V30 5016 O 444.284 -1.78992 -0.761048 0
M  V30 5017 C 444.567 -2.38747 2.69577 0
M  V30 5018 C 444.42 -1.80046 4.12193 0
M  V30 5019 C 445.739 -3.40551 2.78771 0
M  V30 5020 H 442.858 -0.469027 0.568491 0
M  V30 5021 H 445.5 -0.597358 1.80365 0
M  V30 5022 H 443.65 -2.98147 2.4908 0
M  V30 5023 H 445.322 -1.24742 4.44114 0
M  V30 5024 H 443.565 -1.10609 4.19462 0
M  V30 5025 H 444.236 -2.59212 4.87353 0
M  V30 5026 H 446.712 -2.91099 2.97322 0
M  V30 5027 H 445.588 -4.1448 3.59857 0
M  V30 5028 H 445.849 -4.00746 1.86696 0
M  V30 5029 N 444.908 -1.36708 -0.784132 0
M  V30 5030 C 445.841 -1.25827 -1.90375 0
M  V30 5031 C 446.819 -0.141331 -1.61985 0
M  V30 5032 O 448.003 -0.313389 -1.85877 0
M  V30 5033 C 445.13 -0.942621 -3.25319 0
M  V30 5034 C 444.176 -2.07474 -3.72635 0
M  V30 5035 S 445.009 -3.69317 -3.8777 0
M  V30 5036 C 446.165 -3.39876 -5.25581 0
M  V30 5037 H 446.398 -2.20593 -1.99314 0
M  V30 5038 H 443.931 -1.22186 -0.943926 0
M  V30 5039 H 445.889 -0.767321 -4.03265 0
M  V30 5040 H 444.55 -0.0126566 -3.14097 0
M  V30 5041 H 443.743 -1.80858 -4.70432 0
M  V30 5042 H 443.345 -2.20953 -3.01754 0
M  V30 5043 H 445.637 -2.94097 -6.10339 0
M  V30 5044 H 446.58 -4.36956 -5.57203 0
M  V30 5045 H 446.988 -2.75098 -4.92931 0
M  V30 5046 N 446.386 1.0089 -1.21074 0
M  V30 5047 C 447.611 1.78727 -1.05221 0
M  V30 5048 C 448.036 1.83932 0.393795 0
M  V30 5049 O 447.394 1.28004 1.28393 0
M  V30 5050 C 447.442 3.20665 -1.64944 0
M  V30 5051 O 446.546 4.02632 -0.892273 0
M  V30 5052 H 445.887 0.550973 -0.370574 0
M  V30 5053 H 448.417 1.26847 -1.60534 0
M  V30 5054 H 448.427 3.71352 -1.69002 0
M  V30 5055 H 447.102 3.16191 -2.70177 0
M  V30 5056 H 445.679 3.61207 -0.926492 0
M  V30 5057 N 447.864 1.01787 1.20321 0
M  V30 5058 C 448.774 0.598898 2.26827 0
M  V30 5059 C 449.79 -0.36418 1.70146 0
M  V30 5060 O 450.966 -0.224812 2.00141 0
M  V30 5061 C 448.031 -0.0549769 3.46656 0
M  V30 5062 C 447.092 0.954205 4.18561 0
M  V30 5063 C 446.325 0.331439 5.3267 0
M  V30 5064 O 446.548 -0.86851 5.63749 0
M  V30 5065 O 445.482 1.0488 5.92692 0
M  V30 5066 H 449.308 1.48562 2.64883 0
M  V30 5067 H 446.893 0.787434 1.26964 0
M  V30 5068 H 448.775 -0.420102 4.19301 0
M  V30 5069 H 447.45 -0.915876 3.10473 0
M  V30 5070 H 446.357 1.37072 3.48083 0
M  V30 5071 H 447.69 1.78511 4.58688 0
M  V30 5072 N 449.342 -1.36122 0.79427 0
M  V30 5073 C 450.588 -1.99406 0.369452 0
M  V30 5074 C 450.921 -1.62886 -1.05743 0
M  V30 5075 O 450.196 -0.886053 -1.73145 0
M  V30 5076 C 450.479 -3.56046 0.538833 0
M  V30 5077 C 450.332 -4.02404 2.00976 0
M  V30 5078 C 451.651 -4.40079 -0.0431359 0
M  V30 5079 H 448.77 -0.724397 0.135712 0
M  V30 5080 H 451.412 -1.61461 1.00151 0
M  V30 5081 H 449.562 -3.885 0.000771004 0
M  V30 5082 H 451.234 -3.80415 2.60926 0
M  V30 5083 H 449.477 -3.53765 2.51063 0
M  V30 5084 H 450.148 -5.11344 2.07922 0
M  V30 5085 H 452.624 -4.14013 0.416228 0
M  V30 5086 H 451.5 -5.48799 0.105374 0
M  V30 5087 H 451.761 -4.27264 -1.13571 0
M  V30 5088 N 450.82 -0.546701 -1.47814 0
M  V30 5089 C 452.097 0.0464413 -1.95545 0
M  V30 5090 C 452.477 1.4962 -1.48919 0
M  V30 5091 O 451.825 2.16752 -0.723232 0
M  V30 5092 C 452.035 -0.0881298 -3.48889 0
M  V30 5093 C 453.383 0.0626059 -4.24554 0
M  V30 5094 O 454.407 -0.0151555 -3.56197 0
M  V30 5095 O 453.266 0.228071 -5.46024 0
M  V30 5096 H 450.36 0.0700004 -0.824032 0
M  V30 5097 H 452.906 -0.612482 -1.58262 0
M  V30 5098 H 451.678 -1.09737 -3.75597 0
M  V30 5099 H 451.301 0.608886 -3.9291 0
M  V30 5100 N 452.299 1.55045 -0.282633 0
M  V30 5101 C 453.527 2.04168 0.33512 0
M  V30 5102 C 453.942 1.16071 1.48906 0
M  V30 5103 O 453.299 0.182391 1.81586 0
M  V30 5104 C 453.35 3.52332 0.808957 0
M  V30 5105 O 453.071 4.37078 -0.299038 0
M  V30 5106 C 454.572 4.17375 1.49375 0
M  V30 5107 H 451.792 0.666744 0.0754543 0
M  V30 5108 H 454.336 2.00205 -0.416918 0
M  V30 5109 H 452.491 3.56715 1.51106 0
M  V30 5110 H 452.905 5.24458 0.0665514 0
M  V30 5111 H 454.379 5.22627 1.77664 0
M  V30 5112 H 454.856 3.65999 2.42778 0
M  V30 5113 H 455.462 4.17016 0.835305 0
M  V30 5114 N 453.777 0.010035 1.57597 0
M  V30 5115 C 454.725 -0.996272 2.10184 0
M  V30 5116 C 455.719 -1.34942 1.02406 0
M  V30 5117 O 456.925 -1.33389 1.20861 0
M  V30 5118 H 453.3 -0.338982 0.671264 0
M  V30 5119 H 455.271 -0.527272 2.93705 0
M  V30 5120 C 454.02 -2.27599 2.62857 0
M  V30 5121 H 453.343 -2.01295 3.45428 0
M  V30 5122 H 454.783 -2.96265 3.0332 0
M  V30 5123 C 453.242 -2.99269 1.54725 0
M  V30 5124 O 453.772 -3.90644 0.93597 0
M  V30 5125 N 451.978 -2.61269 1.27228 0
M  V30 5126 H 451.525 -1.87043 1.77123 0
M  V30 5127 H 451.483 -3.09534 0.550999 0
M  V30 5128 N 455.255 -1.55392 -0.262866 0
M  V30 5129 C 456.202 -1.88966 -1.32516 0
M  V30 5130 C 457.172 -0.742187 -1.48596 0
M  V30 5131 O 458.357 -0.99439 -1.62839 0
M  V30 5132 C 455.497 -2.17592 -2.67858 0
M  V30 5133 C 454.61 -3.45061 -2.59917 0
M  V30 5134 C 453.745 -3.63336 -3.87505 0
M  V30 5135 C 452.784 -4.84462 -3.74116 0
M  V30 5136 N 451.921 -4.99342 -4.93561 0
M  V30 5137 H 456.761 -2.79566 -1.03184 0
M  V30 5138 H 454.298 -1.38404 -0.498285 0
M  V30 5139 H 456.256 -2.3219 -3.46617 0
M  V30 5140 H 454.886 -1.30215 -2.95371 0
M  V30 5141 H 453.938 -3.38881 -1.72812 0
M  V30 5142 H 455.25 -4.3396 -2.45926 0
M  V30 5143 H 454.404 -3.77807 -4.74707 0
M  V30 5144 H 453.143 -2.72641 -4.04374 0
M  V30 5145 H 452.148 -4.69985 -2.85297 0
M  V30 5146 H 453.373 -5.76603 -3.58757 0
M  V30 5147 H 451.319 -4.1158 -5.10821 0
M  V30 5148 H 451.236 -5.82303 -4.82141 0
M  V30 5149 H 452.504 -5.18208 -5.82306 0
M  V30 5150 N 456.733 0.527833 -1.48498 0
M  V30 5151 C 458.01 1.28905 -1.47115 0
M  V30 5152 C 458.39 2.10297 -0.184007 0
M  V30 5153 O 457.738 2.12728 0.834218 0
M  V30 5154 C 457.948 2.16866 -2.73441 0
M  V30 5155 C 459.296 2.76936 -3.21857 0
M  V30 5156 O 460.32 2.27152 -2.74373 0
M  V30 5157 O 459.179 3.67496 -4.04486 0
M  V30 5158 H 456.273 0.581918 -0.587623 0
M  V30 5159 H 458.819 0.544311 -1.60734 0
M  V30 5160 H 457.591 1.56521 -3.58632 0
M  V30 5161 H 457.214 2.98583 -2.62553 0
M  V30 5162 N 458.211 1.37122 0.776871 0
M  V30 5163 C 459.627 1.1781 1.07671 0
M  V30 5164 C 459.827 0.0107454 2.01497 0
M  V30 5165 O 458.883 -0.650756 2.4397 0
M  V30 5166 C 460.196 2.49451 1.67913 0
M  V30 5167 C 461.744 2.55927 1.80195 0
M  V30 5168 C 462.219 3.87686 2.43851 0
M  V30 5169 N 463.71 3.891 2.51307 0
M  V30 5170 C 464.445 4.87797 3.014 0
M  V30 5171 N 463.941 5.96888 3.51705 0
M  V30 5172 N 465.734 4.75205 3.00227 0
M  V30 5173 H 457.885 2.11843 0.153778 0
M  V30 5174 H 460.148 0.938927 0.130844 0
M  V30 5175 H 459.854 3.35207 1.06439 0
M  V30 5176 H 459.728 2.66169 2.67271 0
M  V30 5177 H 462.115 1.70582 2.40803 0
M  V30 5178 H 462.196 2.43097 0.796069 0
M  V30 5179 H 461.84 4.73444 1.83884 0
M  V30 5180 H 461.77 3.97817 3.45035 0
M  V30 5181 H 464.261 3.10293 2.157 0
M  V30 5182 H 464.574 6.68155 3.88316 0
M  V30 5183 H 462.919 6.0054 3.49824 0
M  V30 5184 H 466.11 3.89103 2.60224 0
M  V30 5185 H 466.283 5.52279 3.38957 0
M  V30 5186 N 459.689 -1.00246 1.21608 0
M  V30 5187 C 460.619 -2.10921 1.00172 0
M  V30 5188 C 461.6 -1.69938 -0.0741587 0
M  V30 5189 O 462.785 -1.94009 0.0861753 0
M  V30 5190 C 459.915 -3.42618 0.568355 0
M  V30 5191 C 458.869 -3.97407 1.58909 0
M  V30 5192 C 458.195 -5.25038 1.01187 0
M  V30 5193 C 459.495 -4.2918 2.97661 0
M  V30 5194 H 461.189 -2.29112 1.92739 0
M  V30 5195 H 458.735 -1.10101 0.928102 0
M  V30 5196 H 460.688 -4.19444 0.405555 0
M  V30 5197 H 459.412 -3.24227 -0.392961 0
M  V30 5198 H 458.071 -3.22703 1.73949 0
M  V30 5199 H 457.719 -5.02982 0.0421965 0
M  V30 5200 H 457.419 -5.62661 1.6937 0
M  V30 5201 H 458.943 -6.04507 0.860448 0
M  V30 5202 H 460.357 -4.96839 2.86049 0
M  V30 5203 H 458.754 -4.77952 3.6288 0
M  V30 5204 H 459.824 -3.3735 3.48315 0
M  V30 5205 N 461.167 -1.02423 -1.1978 0
M  V30 5206 C 462.413 -0.719051 -1.89625 0
M  V30 5207 C 462.746 0.750083 -1.7913 0
M  V30 5208 O 462.021 1.54574 -1.18056 0
M  V30 5209 C 462.304 -1.16499 -3.40735 0
M  V30 5210 C 462.157 -2.695 -3.60125 0
M  V30 5211 C 463.476 -0.742166 -4.33797 0
M  V30 5212 H 460.595 -0.26269 -0.688595 0
M  V30 5213 H 463.237 -1.27333 -1.41018 0
M  V30 5214 H 461.387 -0.69341 -3.82262 0
M  V30 5215 H 463.059 -3.24569 -3.278 0
M  V30 5216 H 461.302 -3.10113 -3.03336 0
M  V30 5217 H 461.973 -2.95757 -4.66081 0
M  V30 5218 H 464.449 -1.1477 -3.99959 0
M  V30 5219 H 463.325 -1.08213 -5.38127 0
M  V30 5220 H 463.586 0.355747 -4.40666 0
M  V30 5221 N 462.645 1.35699 -0.801477 0
M  V30 5222 C 463.873 2.03157 -0.391768 0
M  V30 5223 C 464.288 1.60412 0.995668 0
M  V30 5224 O 463.645 0.799228 1.64069 0
M  V30 5225 C 463.696 3.58566 -0.459671 0
M  V30 5226 O 463.417 3.99756 -1.7924 0
M  V30 5227 C 464.918 4.4328 -0.0421205 0
M  V30 5228 H 462.138 0.651688 -0.159825 0
M  V30 5229 H 464.682 1.73426 -1.08368 0
M  V30 5230 H 462.837 3.86963 0.183939 0
M  V30 5231 H 463.251 4.94387 -1.75162 0
M  V30 5232 H 464.725 5.51821 -0.140754 0
M  V30 5233 H 465.202 4.27383 1.01196 0
M  V30 5234 H 465.808 4.20168 -0.658687 0
M  V30 5235 N 464.123 0.554532 1.47522 0
M  V30 5236 C 465.053 -0.182974 2.32782 0
M  V30 5237 C 466.034 -0.911377 1.43624 0
M  V30 5238 O 467.219 -0.892366 1.72483 0
M  V30 5239 C 464.349 -1.21513 3.25349 0
M  V30 5240 C 463.303 -0.603355 4.23726 0
M  V30 5241 C 462.629 -1.73995 5.05598 0
M  V30 5242 C 463.929 0.441121 5.20434 0
M  V30 5243 H 465.623 0.52882 2.94693 0
M  V30 5244 H 463.169 0.255759 1.41711 0
M  V30 5245 H 465.122 -1.73922 3.83835 0
M  V30 5246 H 463.846 -1.95683 2.61487 0
M  V30 5247 H 462.505 -0.10059 3.66462 0
M  V30 5248 H 462.153 -2.47063 4.38143 0
M  V30 5249 H 461.853 -1.3364 5.72201 0
M  V30 5250 H 463.377 -2.26735 5.66942 0
M  V30 5251 H 464.791 0.00319931 5.733 0
M  V30 5252 H 463.188 0.763402 5.95224 0
M  V30 5253 H 464.258 1.33799 4.66075 0
M  V30 5254 N 465.601 -1.54893 0.290851 0
M  V30 5255 C 466.511 -2.26812 -0.59945 0
M  V30 5256 C 467.527 -1.29963 -1.15696 0
M  V30 5257 O 468.703 -1.62928 -1.18391 0
M  V30 5258 C 465.768 -2.98716 -1.75982 0
M  V30 5259 C 464.829 -4.1108 -1.2374 0
M  V30 5260 C 464.062 -4.79546 -2.34246 0
M  V30 5261 O 464.285 -4.47309 -3.53936 0
M  V30 5262 O 463.219 -5.67165 -2.01512 0
M  V30 5263 H 467.045 -3.03696 -0.0163561 0
M  V30 5264 H 464.63 -1.49289 0.0576755 0
M  V30 5265 H 466.512 -3.43851 -2.43607 0
M  V30 5266 H 465.187 -2.24737 -2.3297 0
M  V30 5267 H 464.094 -3.70367 -0.527163 0
M  V30 5268 H 465.427 -4.87007 -0.71307 0
M  V30 5269 N 467.08 -0.0183926 -1.57589 0
M  V30 5270 C 467.99 0.982943 -2.13015 0
M  V30 5271 C 469.006 1.36443 -1.07979 0
M  V30 5272 O 470.182 1.44802 -1.3998 0
M  V30 5273 C 467.247 2.25024 -2.63752 0
M  V30 5274 C 466.308 1.93018 -3.83461 0
M  V30 5275 C 465.541 3.13706 -4.31769 0
M  V30 5276 O 465.764 4.2601 -3.79305 0
M  V30 5277 O 464.698 2.96629 -5.23732 0
M  V30 5278 H 468.524 0.541709 -2.9883 0
M  V30 5279 H 466.109 0.201565 -1.48034 0
M  V30 5280 H 467.991 2.99441 -2.96502 0
M  V30 5281 H 466.666 2.68349 -1.81026 0
M  V30 5282 H 465.573 1.16019 -3.55655 0
M  V30 5283 H 466.906 1.54516 -4.67317 0
M  V30 5284 N 468.558 1.5553 0.254621 0
M  V30 5285 C 469.805 1.77 0.983736 0
M  V30 5286 C 470.133 0.58133 1.85609 0
M  V30 5287 O 469.388 -0.435621 1.9079 0
M  V30 5288 C 469.687 3.03891 1.88109 0
M  V30 5289 C 469.353 4.35597 1.16472 0
M  V30 5290 C 468.015 4.7139 0.966714 0
M  V30 5291 C 470.367 5.1705 0.656387 0
M  V30 5292 C 467.695 5.86176 0.247942 0
M  V30 5293 C 470.047 6.32581 -0.0488807 0
M  V30 5294 C 468.711 6.67 -0.258438 0
M  V30 5295 H 467.981 0.647688 0.359974 0
M  V30 5296 H 470.628 1.89802 0.254463 0
M  V30 5297 H 468.933 2.86068 2.67717 0
M  V30 5298 H 470.63 3.17701 2.44677 0
M  V30 5299 H 467.22 4.07475 1.32899 0
M  V30 5300 H 471.404 4.8986 0.796933 0
M  V30 5301 H 466.66 6.11354 0.075035 0
M  V30 5302 H 470.834 6.94942 -0.450444 0
M  V30 5303 H 468.461 7.55793 -0.817358 0
M  V30 5304 N 470.036 -0.519951 1.48776 0
M  V30 5305 C 470.966 -1.63253 1.66945 0
M  V30 5306 C 471.947 -1.62014 0.518224 0
M  V30 5307 O 473.132 -1.79053 0.751919 0
M  V30 5308 C 470.262 -3.0181 1.71836 0
M  V30 5309 C 469.216 -3.17911 2.8656 0
M  V30 5310 C 468.542 -4.5763 2.76548 0
M  V30 5311 C 469.842 -2.99729 4.27738 0
M  V30 5312 H 471.536 -1.48302 2.6009 0
M  V30 5313 H 469.082 -0.712026 1.25165 0
M  V30 5314 H 471.035 -3.79525 1.83135 0
M  V30 5315 H 469.759 -3.17806 0.752775 0
M  V30 5316 H 468.418 -2.42616 2.74833 0
M  V30 5317 H 468.066 -4.70476 1.77937 0
M  V30 5318 H 467.766 -4.69346 3.53536 0
M  V30 5319 H 469.29 -5.37431 2.89828 0
M  V30 5320 H 470.704 -3.67228 4.40246 0
M  V30 5321 H 469.101 -3.22932 5.05801 0
M  V30 5322 H 470.171 -1.96047 4.43502 0
M  V30 5323 N 471.514 -1.37532 -0.769588 0
M  V30 5324 C 472.461 -1.3347 -1.88293 0
M  V30 5325 C 473.431 -0.199891 -1.64893 0
M  V30 5326 O 474.616 -0.389594 -1.8678 0
M  V30 5327 C 471.756 -1.14968 -3.25387 0
M  V30 5328 C 470.869 -2.37698 -3.60727 0
M  V30 5329 C 470.004 -2.12051 -4.8704 0
M  V30 5330 C 469.043 -3.30636 -5.15117 0
M  V30 5331 N 468.18 -3.04527 -6.3262 0
M  V30 5332 H 473.02 -2.28658 -1.911 0
M  V30 5333 H 470.557 -1.13622 -0.934257 0
M  V30 5334 H 472.515 -1.02261 -4.04473 0
M  V30 5335 H 471.145 -0.234263 -3.21949 0
M  V30 5336 H 470.197 -2.61137 -2.76608 0
M  V30 5337 H 471.509 -3.26131 -3.77413 0
M  V30 5338 H 470.663 -1.96388 -5.74035 0
M  V30 5339 H 469.402 -1.20959 -4.72462 0
M  V30 5340 H 468.407 -3.46836 -4.26597 0
M  V30 5341 H 469.632 -4.22582 -5.31603 0
M  V30 5342 H 467.578 -2.16067 -6.19396 0
M  V30 5343 H 467.495 -3.86503 -6.49732 0
M  V30 5344 H 468.763 -2.92485 -7.22546 0
M  V30 5345 N 472.992 0.995999 -1.22138 0
M  V30 5346 C 473.955 2.06711 -0.990109 0
M  V30 5347 C 474.955 1.60744 0.0422978 0
M  V30 5348 O 476.145 1.73095 -0.195895 0
M  V30 5349 C 473.277 3.37288 -0.49491 0
M  V30 5350 H 474.47 2.28661 -1.94047 0
M  V30 5351 H 472.023 1.16711 -1.03963 0
M  V30 5352 H 472.758 3.21022 0.459948 0
M  V30 5353 H 472.543 3.71986 -1.23971 0
M  V30 5354 H 474.033 4.16103 -0.353253 0
M  V30 5355 N 474.47 1.03057 1.19235 0
M  V30 5356 C 475.698 0.747697 1.92917 0
M  V30 5357 C 476.113 -0.69372 1.75593 0
M  V30 5358 O 475.47 -1.47191 1.07894 0
M  V30 5359 C 475.521 1.09159 3.44625 0
M  V30 5360 O 475.242 2.47641 3.61394 0
M  V30 5361 C 476.743 0.831763 4.35427 0
M  V30 5362 H 473.963 0.273453 0.612751 0
M  V30 5363 H 476.507 1.37552 1.51327 0
M  V30 5364 H 474.662 0.508919 3.84043 0
M  V30 5365 H 475.076 2.60499 4.55237 0
M  V30 5366 H 476.55 1.12233 5.4047 0
M  V30 5367 H 477.027 -0.233769 4.38577 0
M  V30 5368 H 477.633 1.39725 4.01693 0
M  V30 5369 N 475.948 -1.35272 0.808662 0
M  V30 5370 C 476.858 -2.33546 0.222079 0
M  V30 5371 C 477.874 -1.6196 -0.636011 0
M  V30 5372 O 479.05 -1.93822 -0.547274 0
M  V30 5373 C 476.115 -3.41148 -0.61795 0
M  V30 5374 C 475.176 -4.28507 0.260875 0
M  V30 5375 C 474.409 -5.3097 -0.539156 0
M  V30 5376 O 474.632 -5.42123 -1.77367 0
M  V30 5377 O 473.566 -6.01858 0.0710526 0
M  V30 5378 H 477.392 -2.85515 1.03512 0
M  V30 5379 H 474.977 -1.38079 0.570495 0
M  V30 5380 H 476.859 -4.06889 -1.09634 0
M  V30 5381 H 475.534 -2.91447 -1.40855 0
M  V30 5382 H 474.441 -3.6574 0.786451 0
M  V30 5383 H 475.774 -4.81611 1.01547 0
M  V30 5384 N 477.426 -0.562348 -1.47226 0
M  V30 5385 C 478.373 0.182461 -2.30078 0
M  V30 5386 C 479.343 0.903503 -1.39377 0
M  V30 5387 O 480.528 0.898188 -1.68337 0
M  V30 5388 C 477.668 1.20322 -3.23445 0
M  V30 5389 C 476.781 0.487717 -4.29238 0
M  V30 5390 C 475.916 1.49422 -5.09752 0
M  V30 5391 C 474.955 0.763976 -6.07314 0
M  V30 5392 N 474.092 1.71755 -6.80768 0
M  V30 5393 H 478.932 -0.530169 -2.93246 0
M  V30 5394 H 476.469 -0.273276 -1.44539 0
M  V30 5395 H 478.427 1.80768 -3.76004 0
M  V30 5396 H 477.057 1.88382 -2.6213 0
M  V30 5397 H 476.109 -0.231374 -3.79696 0
M  V30 5398 H 477.421 -0.0841003 -4.98729 0
M  V30 5399 H 476.575 2.17206 -5.66486 0
M  V30 5400 H 475.314 2.09995 -4.40174 0
M  V30 5401 H 474.319 0.0722344 -5.49753 0
M  V30 5402 H 475.544 0.16391 -6.78902 0
M  V30 5403 H 473.49 2.31177 -6.13916 0
M  V30 5404 H 473.407 1.19802 -7.46447 0
M  V30 5405 H 474.675 2.38638 -7.42073 0
M  V30 5406 N 478.904 1.54736 -0.299062 0
M  V30 5407 C 479.851 2.23448 0.577899 0
M  V30 5408 C 480.821 1.21637 1.13109 0
M  V30 5409 O 482.006 1.50252 1.17597 0
M  V30 5410 C 479.146 2.9774 1.74484 0
M  V30 5411 C 478.259 4.1432 1.22323 0
M  V30 5412 C 477.394 4.76199 2.35388 0
M  V30 5413 C 476.433 5.84927 1.80351 0
M  V30 5414 N 475.57 6.4077 2.86982 0
M  V30 5415 H 480.41 2.97996 -0.0146545 0
M  V30 5416 H 477.947 1.47088 -0.0190013 0
M  V30 5417 H 479.905 3.39045 2.43114 0
M  V30 5418 H 478.535 2.25572 2.30905 0
M  V30 5419 H 477.587 3.7797 0.429249 0
M  V30 5420 H 478.899 4.92659 0.780309 0
M  V30 5421 H 478.053 5.20346 3.11969 0
M  V30 5422 H 476.792 3.97188 2.83006 0
M  V30 5423 H 475.797 5.40207 1.02259 0
M  V30 5424 H 477.022 6.65821 1.3364 0
M  V30 5425 H 474.968 5.64643 3.33938 0
M  V30 5426 H 474.885 7.1445 2.4718 0
M  V30 5427 H 476.153 6.89574 3.63466 0
M  V30 5428 N 480.382 0.0267497 1.57577 0
M  V30 5429 C 481.292 -0.971633 2.13533 0
M  V30 5430 C 482.308 -1.35868 1.08701 0
M  V30 5431 O 483.484 -1.44058 1.40746 0
M  V30 5432 C 480.549 -2.23622 2.64941 0
M  V30 5433 C 479.61 -1.90982 3.8448 0
M  V30 5434 C 478.843 -3.11411 4.33427 0
M  V30 5435 O 479.066 -4.23992 3.81558 0
M  V30 5436 O 478 -2.93848 5.25297 0
M  V30 5437 H 481.826 -0.525853 2.99113 0
M  V30 5438 H 479.411 -0.193712 1.48139 0
M  V30 5439 H 481.293 -2.97864 2.98086 0
M  V30 5440 H 479.968 -2.67386 1.82446 0
M  V30 5441 H 478.875 -1.14132 3.56265 0
M  V30 5442 H 480.208 -1.52036 4.6813 0
M  V30 5443 N 481.861 -1.55662 -0.24637 0
M  V30 5444 C 483.108 -1.77519 -0.974335 0
M  V30 5445 C 483.436 -0.591165 -1.85298 0
M  V30 5446 O 482.691 0.425497 -1.91018 0
M  V30 5447 C 482.99 -3.04885 -1.86494 0
M  V30 5448 C 482.656 -4.36209 -1.14161 0
M  V30 5449 C 481.318 -4.71896 -0.941701 0
M  V30 5450 C 483.67 -5.17391 -0.628957 0
M  V30 5451 C 480.998 -5.86299 -0.216852 0
M  V30 5452 C 483.35 -6.32546 0.0824273 0
M  V30 5453 C 482.014 -6.66853 0.293807 0
M  V30 5454 H 481.284 -0.649588 -0.356535 0
M  V30 5455 H 483.931 -1.89934 -0.244394 0
M  V30 5456 H 482.236 -2.87484 -2.66196 0
M  V30 5457 H 483.933 -3.18994 -2.42989 0
M  V30 5458 H 480.523 -4.08174 -1.30736 0
M  V30 5459 H 484.707 -4.90276 -0.770943 0
M  V30 5460 H 479.963 -6.11385 -0.0426124 0
M  V30 5461 H 484.137 -6.94693 0.487292 0
M  V30 5462 H 481.764 -7.55349 0.857428 0
M  V30 5463 N 483.339 0.512053 -1.4905 0
M  V30 5464 C 484.269 1.62365 -1.67809 0
M  V30 5465 C 485.25 1.61737 -0.526809 0
M  V30 5466 O 486.435 1.78651 -0.761404 0
M  V30 5467 C 483.565 3.00895 -1.73435 0
M  V30 5468 C 482.519 3.16387 -2.88242 0
M  V30 5469 C 481.845 4.56157 -2.78971 0
M  V30 5470 C 483.145 2.97457 -4.29321 0
M  V30 5471 H 484.839 1.46921 -2.60873 0
M  V30 5472 H 482.385 0.705379 -1.2554 0
M  V30 5473 H 484.338 3.78549 -1.85145 0
M  V30 5474 H 483.062 3.17403 -0.769619 0
M  V30 5475 H 481.721 2.41155 -2.76116 0
M  V30 5476 H 481.369 4.69525 -1.8043 0
M  V30 5477 H 481.069 4.67465 -3.5602 0
M  V30 5478 H 482.593 5.35886 -2.92675 0
M  V30 5479 H 484.007 3.64888 -4.42187 0
M  V30 5480 H 482.404 3.20245 -5.07507 0
M  V30 5481 H 483.474 1.93692 -4.44535 0
M  V30 5482 N 484.817 1.37938 0.762283 0
M  V30 5483 C 485.727 1.36681 1.90671 0
M  V30 5484 C 486.743 0.265078 1.71969 0
M  V30 5485 O 487.919 0.502055 1.95042 0
M  V30 5486 C 484.984 1.18211 3.25925 0
M  V30 5487 C 484.045 2.3811 3.57214 0
M  V30 5488 C 483.278 2.20512 4.86014 0
M  V30 5489 O 483.501 1.19429 5.57757 0
M  V30 5490 O 482.435 3.08911 5.16583 0
M  V30 5491 H 486.261 2.33091 1.94685 0
M  V30 5492 H 483.846 1.18767 0.906356 0
M  V30 5493 H 485.728 1.09937 4.06807 0
M  V30 5494 H 484.403 0.248807 3.22742 0
M  V30 5495 H 483.31 2.51958 2.76529 0
M  V30 5496 H 484.643 3.30041 3.65149 0
M  V30 5497 N 486.295 -0.989507 1.22664 0
M  V30 5498 C 487.706 -1.54406 1.04955 0
M  V30 5499 C 488.057 -1.92366 -0.385951 0
M  V30 5500 O 487.182 -1.75111 -1.27142 0
M  V30 5501 C 487.777 -2.80578 1.89899 0
M  V30 5502 C 486.336 -3.32464 1.76478 0
M  V30 5503 C 485.483 -2.05524 1.86159 0
M  V30 5504 H 488.434 -0.810211 1.3646 0
M  V30 5505 H 488.455 -3.53075 1.4184 0
M  V30 5506 H 487.967 -2.52918 2.94371 0
M  V30 5507 H 486.068 -3.65024 0.747528 0
M  V30 5508 H 486.181 -4.02838 2.59342 0
M  V30 5509 H 484.545 -2.19241 1.29636 0
M  V30 5510 H 485.328 -1.80258 2.92168 0
M  V30 5511 N 487.773 -1.03688 -1.18687 0
M  V30 5512 C 489.05 -0.652397 -1.84399 0
M  V30 5513 C 489.43 0.868386 -1.92412 0
M  V30 5514 O 488.778 1.76832 -1.44716 0
M  V30 5515 C 488.988 -1.3238 -3.22919 0
M  V30 5516 C 490.336 -1.45216 -3.98996 0
M  V30 5517 O 491.36 -1.2816 -3.32345 0
M  V30 5518 O 490.219 -1.72975 -5.18403 0
M  V30 5519 H 487.313 -0.227793 -0.795009 0
M  V30 5520 H 489.859 -1.13553 -1.2611 0
M  V30 5521 H 488.631 -2.36202 -3.11968 0
M  V30 5522 H 488.254 -0.829039 -3.88861 0
M  V30 5523 N 489.251 1.34841 -0.815825 0
M  V30 5524 C 490.476 2.03261 -0.41226 0
M  V30 5525 C 490.901 1.61055 0.971751 0
M  V30 5526 O 490.259 0.7917 1.63101 0
M  V30 5527 C 490.307 3.56914 -0.514289 0
M  V30 5528 O 489.411 4.09728 0.468675 0
M  V30 5529 H 488.752 0.641664 -0.170771 0
M  V30 5530 H 491.282 1.72241 -1.10427 0
M  V30 5531 H 491.292 4.06156 -0.387457 0
M  V30 5532 H 489.967 3.86982 -1.52375 0
M  V30 5533 H 488.544 3.71681 0.301316 0
M  V30 5534 N 490.729 0.570148 1.46925 0
M  V30 5535 C 491.975 0.0593124 2.03314 0
M  V30 5536 C 492.33 -1.28139 1.43521 0
M  V30 5537 O 491.623 -1.82411 0.586245 0
M  V30 5538 C 491.817 -0.0780336 3.57315 0
M  V30 5539 C 491.646 1.2478 4.32042 0
M  V30 5540 C 490.416 1.81859 4.7144 0
M  V30 5541 C 492.614 2.16808 4.66368 0
M  V30 5542 N 490.596 3.08313 5.30864 0
M  V30 5543 C 491.967 3.27845 5.2623 0
M  V30 5544 C 494.022 2.16643 4.48297 0
M  V30 5545 C 492.725 4.38832 5.69929 0
M  V30 5546 C 494.751 3.26652 4.93004 0
M  V30 5547 C 494.113 4.36408 5.52926 0
M  V30 5548 H 490.212 0.0641804 0.779362 0
M  V30 5549 H 492.796 0.760285 1.79242 0
M  V30 5550 H 490.967 -0.748151 3.81126 0
M  V30 5551 H 492.699 -0.59211 4.00345 0
M  V30 5552 H 489.454 1.35502 4.53802 0
M  V30 5553 H 489.878 3.72802 5.65108 0
M  V30 5554 H 494.52 1.33065 4.01315 0
M  V30 5555 H 492.238 5.23162 6.15896 0
M  V30 5556 H 495.824 3.27627 4.80782 0
M  V30 5557 H 494.704 5.20127 5.86888 0
M  V30 5558 N 492.207 -1.54576 0.307264 0
M  V30 5559 C 493.117 -2.27435 -0.57536 0
M  V30 5560 C 494.133 -1.31183 -1.14311 0
M  V30 5561 O 495.309 -1.64175 -1.16656 0
M  V30 5562 C 492.374 -3.00566 -1.72803 0
M  V30 5563 C 491.435 -4.12369 -1.19373 0
M  V30 5564 C 490.668 -4.82003 -2.29147 0
M  V30 5565 O 490.891 -4.51038 -3.49171 0
M  V30 5566 O 489.825 -5.69271 -1.95485 0
M  V30 5567 H 493.651 -3.03696 0.0158558 0
M  V30 5568 H 491.236 -1.49219 0.0735064 0
M  V30 5569 H 493.118 -3.46416 -2.39946 0
M  V30 5570 H 491.793 -2.27195 -2.30574 0
M  V30 5571 H 490.7 -3.70905 -0.487851 0
M  V30 5572 H 492.033 -4.87736 -0.661376 0
M  V30 5573 N 493.685 -0.035106 -1.57561 0
M  V30 5574 C 494.913 0.652258 -1.9635 0
M  V30 5575 C 495.328 1.65317 -0.911897 0
M  V30 5576 O 494.685 1.82194 0.105657 0
M  V30 5577 C 494.736 1.35337 -3.35211 0
M  V30 5578 O 494.457 0.392548 -4.36338 0
M  V30 5579 C 495.958 2.13199 -3.88666 0
M  V30 5580 H 493.178 0.179444 -0.646561 0
M  V30 5581 H 495.722 -0.0966459 -2.04271 0
M  V30 5582 H 493.877 2.05362 -3.28489 0
M  V30 5583 H 494.291 0.891097 -5.16875 0
M  V30 5584 H 495.765 2.577 -4.88154 0
M  V30 5585 H 496.242 2.97353 -3.23231 0
M  V30 5586 H 496.848 1.48118 -3.98674 0
M  V30 5587 N 495.163 1.55791 0.238111 0
M  V30 5588 C 496.093 1.94068 1.29846 0
M  V30 5589 C 497.074 0.806726 1.49753 0
M  V30 5590 O 498.259 1.06772 1.62214 0
M  V30 5591 C 495.389 2.24302 2.65153 0
M  V30 5592 C 494.343 3.40032 2.59927 0
M  V30 5593 C 493.669 3.55829 3.99111 0
M  V30 5594 C 494.969 4.75476 2.16148 0
M  V30 5595 H 496.663 2.82887 0.980563 0
M  V30 5596 H 494.209 1.36105 0.470253 0
M  V30 5597 H 496.162 2.4967 3.39475 0
M  V30 5598 H 494.886 1.32318 2.98596 0
M  V30 5599 H 493.545 3.14687 1.88063 0
M  V30 5600 H 493.193 2.6125 4.29834 0
M  V30 5601 H 492.893 4.3366 3.96501 0
M  V30 5602 H 494.417 3.83528 4.7512 0
M  V30 5603 H 495.831 5.00158 2.80205 0
M  V30 5604 H 494.228 5.56472 2.24631 0
M  V30 5605 H 495.298 4.71946 1.11333 0
M  V30 5606 N 496.642 -0.504142 1.49319 0
M  V30 5607 C 497.919 -1.26548 1.49147 0
M  V30 5608 C 498.299 -2.09977 0.21744 0
M  V30 5609 O 497.647 -2.14028 -0.800269 0
M  V30 5610 C 497.857 -2.12489 2.76857 0
M  V30 5611 C 499.205 -2.7178 3.26222 0
M  V30 5612 O 500.229 -2.22758 2.77952 0
M  V30 5613 O 499.088 -3.61015 4.10281 0
M  V30 5614 H 496.182 -0.572495 0.596806 0
M  V30 5615 H 498.728 -0.51867 1.61579 0
M  V30 5616 H 497.5 -1.50796 3.61077 0
M  V30 5617 H 497.123 -2.94368 2.6727 0
M  V30 5618 N 498.12 -1.38341 -0.754957 0
M  V30 5619 C 499.052 -1.31347 -1.87831 0
M  V30 5620 C 500.065 -0.225955 -1.61224 0
M  V30 5621 O 501.254 -0.48341 -1.7183 0
M  V30 5622 C 498.354 -1.01201 -3.23437 0
M  V30 5623 C 497.527 -2.20834 -3.77559 0
M  V30 5624 C 496.586 -1.87454 -4.91678 0
M  V30 5625 O 495.612 -2.59934 -5.06382 0
M  V30 5626 N 496.814 -0.828682 -5.74555 0
M  V30 5627 H 499.579 -2.28147 -1.94342 0
M  V30 5628 H 497.14 -1.32184 -0.934828 0
M  V30 5629 H 499.132 -0.769249 -3.97322 0
M  V30 5630 H 497.702 -0.132011 -3.12321 0
M  V30 5631 H 496.922 -2.61184 -2.95256 0
M  V30 5632 H 498.21 -3.00678 -4.10451 0
M  V30 5633 H 497.608 -0.227591 -5.65242 0
M  V30 5634 H 496.165 -0.645802 -6.48593 0
M  V30 5635 N 499.598 0.982988 -1.23187 0
M  V30 5636 C 500.53 2.07729 -0.968572 0
M  V30 5637 C 501.543 1.62702 0.0564821 0
M  V30 5638 O 502.732 1.77603 -0.178733 0
M  V30 5639 C 499.832 3.36071 -0.436974 0
M  V30 5640 C 499.005 4.10081 -1.52159 0
M  V30 5641 C 498.064 5.16701 -0.99532 0
M  V30 5642 O 497.09 5.43727 -1.68373 0
M  V30 5643 N 498.292 5.80226 0.178192 0
M  V30 5644 H 501.057 2.30894 -1.9107 0
M  V30 5645 H 498.618 1.14949 -1.1401 0
M  V30 5646 H 500.61 4.04639 -0.0700051 0
M  V30 5647 H 499.18 3.09893 0.410509 0
M  V30 5648 H 498.4 3.36004 -2.06144 0
M  V30 5649 H 499.688 4.56295 -2.25105 0
M  V30 5650 H 499.086 5.60651 0.754096 0
M  V30 5651 H 497.643 6.49982 0.486449 0
M  V30 5652 N 501.076 1.04316 1.18135 0
M  V30 5653 C 502.008 0.594444 2.21357 0
M  V30 5654 C 503.021 -0.337215 1.59269 0
M  V30 5655 O 504.21 -0.131337 1.78016 0
M  V30 5656 C 501.31 -0.151251 3.38562 0
M  V30 5657 C 500.483 0.788907 4.30227 0
M  V30 5658 C 499.542 0.0860572 5.2613 0
M  V30 5659 O 498.568 0.717302 5.64662 0
M  V30 5660 N 499.77 -1.17969 5.68387 0
M  V30 5661 H 502.535 1.48227 2.60478 0
M  V30 5662 H 500.096 0.92396 1.32946 0
M  V30 5663 H 502.088 -0.631352 3.99745 0
M  V30 5664 H 500.658 -0.940639 2.98112 0
M  V30 5665 H 499.878 1.44882 3.6661 0
M  V30 5666 H 501.166 1.42738 4.88368 0
M  V30 5667 H 500.564 -1.71302 5.3914 0
M  V30 5668 H 499.121 -1.60402 6.31755 0
M  V30 5669 N 502.554 -1.34406 0.822964 0
M  V30 5670 C 503.801 -1.98284 0.411057 0
M  V30 5671 C 504.129 -1.65245 -1.02588 0
M  V30 5672 O 503.384 -0.91619 -1.72929 0
M  V30 5673 C 503.683 -3.52981 0.560268 0
M  V30 5674 C 503.349 -4.05931 1.96293 0
M  V30 5675 C 502.011 -4.20103 2.34664 0
M  V30 5676 C 504.363 -4.34412 2.87985 0
M  V30 5677 C 501.691 -4.60082 3.64062 0
M  V30 5678 C 504.043 -4.75838 4.16847 0
M  V30 5679 C 502.707 -4.88215 4.55195 0
M  V30 5680 H 501.977 -0.725573 0.150416 0
M  V30 5681 H 504.624 -1.60349 1.04692 0
M  V30 5682 H 502.929 -3.91477 -0.158982 0
M  V30 5683 H 504.626 -4.00385 0.222087 0
M  V30 5684 H 501.216 -3.95363 1.65487 0
M  V30 5685 H 505.4 -4.23001 2.59584 0
M  V30 5686 H 500.656 -4.67856 3.93599 0
M  V30 5687 H 504.83 -4.96834 4.87984 0
M  V30 5688 H 502.457 -5.18952 5.55512 0
M  V30 5689 N 504.032 -0.577932 -1.46621 0
M  V30 5690 C 505.279 -0.0616879 -2.02406 0
M  V30 5691 C 505.607 1.29638 -1.44997 0
M  V30 5692 O 504.862 1.86176 -0.60308 0
M  V30 5693 C 505.161 0.0590832 -3.57351 0
M  V30 5694 C 504.827 -1.23077 -4.33777 0
M  V30 5695 C 503.489 -1.58416 -4.54376 0
M  V30 5696 C 505.841 -2.08457 -4.77698 0
M  V30 5697 C 503.169 -2.78943 -5.16147 0
M  V30 5698 C 505.521 -3.28204 -5.408 0
M  V30 5699 C 504.185 -3.63832 -5.59627 0
M  V30 5700 H 503.455 -0.0225732 -0.740656 0
M  V30 5701 H 506.102 -0.753609 -1.76048 0
M  V30 5702 H 504.407 0.834104 -3.82818 0
M  V30 5703 H 506.104 0.474202 -3.98186 0
M  V30 5704 H 502.694 -0.945652 -4.18038 0
M  V30 5705 H 506.878 -1.82459 -4.61544 0
M  V30 5706 H 502.134 -3.06689 -5.28916 0
M  V30 5707 H 506.308 -3.94634 -5.73792 0
M  V30 5708 H 503.935 -4.57315 -6.07262 0
M  V30 5709 N 505.51 1.54411 -0.315457 0
M  V30 5710 C 506.738 2.04833 0.291738 0
M  V30 5711 C 507.153 1.19203 1.46411 0
M  V30 5712 O 506.51 0.220867 1.81159 0
M  V30 5713 C 506.561 3.53969 0.73404 0
M  V30 5714 O 506.282 4.36346 -0.391682 0
M  V30 5715 C 507.783 4.2045 1.40489 0
M  V30 5716 H 505.003 0.668195 0.0612947 0
M  V30 5717 H 507.547 1.99276 -0.45929 0
M  V30 5718 H 505.702 3.5984 1.43506 0
M  V30 5719 H 506.116 5.24481 -0.0447088 0
M  V30 5720 H 507.59 5.26278 1.66539 0
M  V30 5721 H 508.067 3.71067 2.3496 0
M  V30 5722 H 508.673 4.18694 0.746662 0
M  V30 5723 N 506.988 0.0434614 1.5754 0
M  V30 5724 C 507.898 -0.94893 2.14552 0
M  V30 5725 C 508.914 -1.34707 1.10136 0
M  V30 5726 O 510.09 -1.42557 1.42266 0
M  V30 5727 C 507.155 -2.208 2.67298 0
M  V30 5728 C 506.216 -1.86893 3.86484 0
M  V30 5729 C 505.449 -3.06797 4.36705 0
M  V30 5730 O 505.672 -4.19921 3.86034 0
M  V30 5731 O 504.606 -2.8826 5.28384 0
M  V30 5732 H 508.432 -0.494099 2.99654 0
M  V30 5733 H 506.017 -0.177989 1.48336 0
M  V30 5734 H 507.899 -2.94686 3.01228 0
M  V30 5735 H 506.574 -2.65436 1.85272 0
M  V30 5736 H 505.481 -1.10347 3.57455 0
M  V30 5737 H 506.814 -1.47062 4.69716 0
M  V30 5738 N 508.466 -1.55915 -0.229846 0
M  V30 5739 C 509.376 -1.94891 -1.30593 0
M  V30 5740 C 510.392 -0.851604 -1.51736 0
M  V30 5741 O 511.568 -1.15447 -1.65027 0
M  V30 5742 C 508.633 -2.25052 -2.63728 0
M  V30 5743 C 507.694 -3.48306 -2.5096 0
M  V30 5744 C 506.927 -3.77019 -3.77747 0
M  V30 5745 O 507.15 -3.07534 -4.80395 0
M  V30 5746 O 506.084 -4.70523 -3.75356 0
M  V30 5747 H 509.91 -2.86581 -1.00525 0
M  V30 5748 H 507.495 -1.43017 -0.432025 0
M  V30 5749 H 509.377 -2.45682 -3.42372 0
M  V30 5750 H 508.052 -1.36538 -2.93495 0
M  V30 5751 H 506.959 -3.32964 -1.70546 0
M  V30 5752 H 508.292 -4.37177 -2.26136 0
M  V30 5753 N 509.944 0.496216 -1.49584 0
M  V30 5754 C 510.854 1.62352 -1.69349 0
M  V30 5755 C 511.87 1.64184 -0.576147 0
M  V30 5756 O 513.046 1.82517 -0.85144 0
M  V30 5757 C 510.111 2.98698 -1.76013 0
M  V30 5758 C 509.172 3.07454 -2.99617 0
M  V30 5759 C 508.405 4.37296 -3.05953 0
M  V30 5760 O 508.628 5.2637 -2.19752 0
M  V30 5761 O 507.562 4.51124 -3.9846 0
M  V30 5762 H 511.388 1.48606 -2.64859 0
M  V30 5763 H 508.973 0.673022 -1.33382 0
M  V30 5764 H 510.855 3.79725 -1.82721 0
M  V30 5765 H 509.53 3.12696 -0.836828 0
M  V30 5766 H 508.437 2.25597 -2.98424 0
M  V30 5767 H 509.77 2.98385 -3.91443 0
M  V30 5768 N 511.423 1.38739 0.74761 0
M  V30 5769 C 512.353 1.39173 1.87492 0
M  V30 5770 C 513.334 0.256794 1.6815 0
M  V30 5771 O 514.519 0.460762 1.88655 0
M  V30 5772 C 511.649 1.22197 3.25093 0
M  V30 5773 C 510.603 2.32957 3.59047 0
M  V30 5774 C 509.929 2.01082 4.95449 0
M  V30 5775 C 511.229 3.75237 3.6331 0
M  V30 5776 H 512.923 2.3351 1.87386 0
M  V30 5777 H 510.469 1.12399 0.900134 0
M  V30 5778 H 512.422 1.21124 4.03617 0
M  V30 5779 H 511.146 0.243241 3.25693 0
M  V30 5780 H 509.805 2.33226 2.82845 0
M  V30 5781 H 509.453 1.01678 4.92616 0
M  V30 5782 H 509.153 2.75267 5.19136 0
M  V30 5783 H 510.677 2.01638 5.76346 0
M  V30 5784 H 512.091 3.76966 4.31937 0
M  V30 5785 H 510.488 4.48677 3.98509 0
M  V30 5786 H 511.558 4.07122 2.634 0
M  V30 5787 N 512.901 -0.976442 1.23707 0
M  V30 5788 C 513.848 -2.06952 1.02174 0
M  V30 5789 C 514.818 -1.65984 -0.0621034 0
M  V30 5790 O 516.003 -1.90584 0.0907906 0
M  V30 5791 C 513.143 -3.39425 0.62327 0
M  V30 5792 C 512.256 -3.9364 1.77966 0
M  V30 5793 C 511.391 -5.14343 1.3276 0
M  V30 5794 C 510.43 -5.60733 2.45449 0
M  V30 5795 N 509.567 -6.72662 2.01172 0
M  V30 5796 H 514.407 -2.24704 1.95734 0
M  V30 5797 H 511.944 -1.10143 0.975034 0
M  V30 5798 H 513.902 -4.15526 0.37332 0
M  V30 5799 H 512.532 -3.21624 -0.275329 0
M  V30 5800 H 511.584 -3.14258 2.14351 0
M  V30 5801 H 512.896 -4.24035 2.62671 0
M  V30 5802 H 512.05 -5.97789 1.03601 0
M  V30 5803 H 510.789 -4.8561 0.450975 0
M  V30 5804 H 509.794 -4.75865 2.75378 0
M  V30 5805 H 511.019 -5.91483 3.33654 0
M  V30 5806 H 508.965 -6.45681 1.15895 0
M  V30 5807 H 508.882 -7.02462 2.79434 0
M  V30 5808 H 510.15 -7.59572 1.75129 0
M  V30 5809 N 514.379 -1.04941 -1.1758 0
M  V30 5810 C 515.289 -0.658826 -2.25159 0
M  V30 5811 C 516.305 0.318941 -1.71052 0
M  V30 5812 O 517.481 0.171669 -2.00667 0
M  V30 5813 C 514.546 -0.0369522 -3.4668 0
M  V30 5814 C 513.607 -1.06484 -4.15884 0
M  V30 5815 C 512.84 -0.472551 -5.31604 0
M  V30 5816 O 513.063 0.718736 -5.65854 0
M  V30 5817 O 511.997 -1.20557 -5.89703 0
M  V30 5818 H 515.823 -1.55533 -2.60851 0
M  V30 5819 H 513.408 -0.820819 -1.24832 0
M  V30 5820 H 515.29 0.308784 -4.20267 0
M  V30 5821 H 513.965 0.833238 -3.12792 0
M  V30 5822 H 512.872 -1.46253 -3.44327 0
M  V30 5823 H 514.205 -1.9061 -4.53794 0
M  V30 5824 N 515.857 1.33968 -0.830081 0
M  V30 5825 C 517.087 2.01987 -0.434142 0
M  V30 5826 C 517.495 1.62639 0.96671 0
M  V30 5827 O 516.838 0.831151 1.63822 0
M  V30 5828 C 516.9 3.5648 -0.465018 0
M  V30 5829 C 516.564 4.19176 -1.82045 0
M  V30 5830 C 517.561 4.39181 -2.78237 0
M  V30 5831 C 515.246 4.55792 -2.11089 0
M  V30 5832 C 517.24 4.94937 -4.01642 0
M  V30 5833 C 514.927 5.11258 -3.34752 0
M  V30 5834 C 515.925 5.30775 -4.29845 0
M  V30 5835 O 515.613 5.85064 -5.51322 0
M  V30 5836 H 515.345 0.653847 -0.171639 0
M  V30 5837 H 517.899 1.72066 -1.12171 0
M  V30 5838 H 516.129 3.8569 0.279284 0
M  V30 5839 H 517.818 4.05804 -0.0881334 0
M  V30 5840 H 518.584 4.11249 -2.57097 0
M  V30 5841 H 514.463 4.39901 -1.3787 0
M  V30 5842 H 518.007 5.10086 -4.75876 0
M  V30 5843 H 513.904 5.38619 -3.55753 0
M  V30 5844 H 514.672 6.03489 -5.5294 0
M  V30 5845 N 517.335 0.585699 1.46312 0
M  V30 5846 C 518.245 -0.148236 2.34131 0
M  V30 5847 C 519.261 -0.882972 1.49932 0
M  V30 5848 O 520.437 -0.845484 1.82794 0
M  V30 5849 C 517.502 -1.14714 3.27172 0
M  V30 5850 C 516.563 -0.416746 4.27272 0
M  V30 5851 C 515.796 -1.36806 5.15868 0
M  V30 5852 O 516.019 -2.60475 5.07454 0
M  V30 5853 O 514.953 -0.877018 5.95476 0
M  V30 5854 H 518.779 0.572882 2.98248 0
M  V30 5855 H 516.364 0.346082 1.45336 0
M  V30 5856 H 518.246 -1.72303 3.84564 0
M  V30 5857 H 516.921 -1.84967 2.65648 0
M  V30 5858 H 515.828 0.201061 3.73559 0
M  V30 5859 H 517.161 0.244872 4.9159 0
M  V30 5860 N 518.813 -1.54241 0.323641 0
M  V30 5861 C 519.761 -2.25813 -0.557804 0
M  V30 5862 C 520.755 -1.27225 -1.11849 0
M  V30 5863 O 521.961 -1.45001 -1.06652 0
M  V30 5864 H 518.336 -0.72532 -0.198532 0
M  V30 5865 H 520.307 -2.98322 0.0681112 0
M  V30 5866 C 519.056 -3.02913 -1.70701 0
M  V30 5867 H 518.379 -3.78593 -1.28482 0
M  V30 5868 H 519.819 -3.56238 -2.29935 0
M  V30 5869 C 518.278 -2.11217 -2.62467 0
M  V30 5870 O 518.808 -1.69508 -3.64184 0
M  V30 5871 N 517.014 -1.76704 -2.30703 0
M  V30 5872 H 516.561 -2.1082 -1.48029 0
M  V30 5873 H 516.519 -1.15631 -2.92364 0
M  V30 5874 N 520.291 -0.0518155 -1.57515 0
M  V30 5875 C 521.54 0.621286 -1.91893 0
M  V30 5876 C 521.853 1.71966 -0.932052 0
M  V30 5877 O 523.059 2.45096 -1.16791 0
M  V30 5878 C 521.515 1.15641 -3.40816 0
M  V30 5879 C 521.123 0.0901146 -4.47909 0
M  V30 5880 C 522.867 1.80472 -3.84227 0
M  V30 5881 C 520.774 0.638154 -5.87947 0
M  V30 5882 H 519.704 0.235835 -0.716169 0
M  V30 5883 H 522.355 -0.120809 -1.83102 0
M  V30 5884 H 520.737 1.95084 -3.44613 0
M  V30 5885 H 521.911 -0.683525 -4.55702 0
M  V30 5886 H 520.226 -0.460774 -4.13843 0
M  V30 5887 H 522.823 2.22471 -4.86221 0
M  V30 5888 H 523.166 2.65669 -3.20508 0
M  V30 5889 H 523.699 1.07683 -3.82948 0
M  V30 5890 H 520.438 -0.176202 -6.55263 0
M  V30 5891 H 519.958 1.37976 -5.83714 0
M  V30 5892 H 521.637 1.12085 -6.37217 0
M  V30 5893 N 521.769 1.56035 0.221574 0
M  V30 5894 C 523.018 1.78245 0.944016 0
M  V30 5895 C 523.331 0.620371 1.85501 0
M  V30 5896 O 524.537 0.726103 2.6161 0
M  V30 5897 C 522.993 3.15659 1.7288 0
M  V30 5898 C 522.601 4.39591 0.863942 0
M  V30 5899 C 524.345 3.47195 2.44246 0
M  V30 5900 C 522.252 5.6803 1.64607 0
M  V30 5901 H 521.182 0.664547 0.356222 0
M  V30 5902 H 523.833 1.8243 0.197904 0
M  V30 5903 H 522.215 3.0565 2.51781 0
M  V30 5904 H 523.389 4.60655 0.115464 0
M  V30 5905 H 521.704 4.15572 0.262407 0
M  V30 5906 H 524.301 4.40381 3.03263 0
M  V30 5907 H 524.644 2.69693 3.1713 0
M  V30 5908 H 525.177 3.58533 1.72334 0
M  V30 5909 H 521.916 6.48425 0.960507 0
M  V30 5910 H 521.436 5.51027 2.36917 0
M  V30 5911 H 523.115 6.08203 2.20675 0
M  V30 5912 N 523.247 -0.488276 1.49845 0
M  V30 5913 C 524.21 -1.57069 1.66919 0
M  V30 5914 C 525.21 -1.51445 0.540479 0
M  V30 5915 O 526.4 -1.5437 0.807188 0
M  V30 5916 C 523.532 -2.96718 1.67844 0
M  V30 5917 H 524.725 -1.43254 2.63474 0
M  V30 5918 H 522.278 -0.713435 1.39068 0
M  V30 5919 H 523.013 -3.15996 0.7292 0
M  V30 5920 H 522.798 -3.02208 2.49826 0
M  V30 5921 H 524.288 -3.75335 1.83066 0
M  V30 5922 N 524.725 -1.39134 -0.740242 0
M  V30 5923 C 525.655 -1.40165 -1.86751 0
M  V30 5924 C 526.636 -0.265708 -1.68012 0
M  V30 5925 O 527.821 -0.47076 -1.88408 0
M  V30 5926 C 524.951 -1.2392 -3.2444 0
M  V30 5927 C 523.905 -2.34858 -3.57807 0
M  V30 5928 C 523.231 -2.03707 -4.94376 0
M  V30 5929 C 524.531 -3.77159 -3.61315 0
M  V30 5930 H 526.225 -2.345 -1.86145 0
M  V30 5931 H 523.771 -1.12875 -0.89416 0
M  V30 5932 H 525.724 -1.23263 -4.02969 0
M  V30 5933 H 524.448 -0.26051 -3.25559 0
M  V30 5934 H 523.107 -2.34723 -2.81604 0
M  V30 5935 H 522.755 -1.04289 -4.9207 0
M  V30 5936 H 522.455 -2.78016 -5.17669 0
M  V30 5937 H 523.979 -2.04691 -5.75268 0
M  V30 5938 H 525.393 -3.79252 -4.29931 0
M  V30 5939 H 523.79 -4.50784 -3.96124 0
M  V30 5940 H 524.86 -4.08513 -2.61238 0
M  V30 5941 N 526.204 0.969867 -1.24223 0
M  V30 5942 C 527.136 2.0669 -0.99055 0
M  V30 5943 C 528.149 1.62753 0.0392222 0
M  V30 5944 O 529.338 1.77403 -0.197561 0
M  V30 5945 C 526.438 3.35589 -0.472594 0
M  V30 5946 C 525.611 4.08444 -1.56499 0
M  V30 5947 C 524.67 5.15616 -1.05007 0
M  V30 5948 O 523.696 5.41911 -1.7413 0
M  V30 5949 N 524.898 5.80383 0.116641 0
M  V30 5950 H 527.663 2.28855 -1.93508 0
M  V30 5951 H 525.224 1.13733 -1.15223 0
M  V30 5952 H 527.216 4.04542 -0.112919 0
M  V30 5953 H 525.786 3.10311 0.377617 0
M  V30 5954 H 525.006 3.33798 -2.09696 0
M  V30 5955 H 526.294 4.53882 -2.29932 0
M  V30 5956 H 525.692 5.6142 0.694589 0
M  V30 5957 H 524.249 6.50462 0.417483 0
M  V30 5958 N 527.682 1.05563 1.17022 0
M  V30 5959 C 528.592 0.670758 2.24807 0
M  V30 5960 C 529.608 -0.309865 1.71219 0
M  V30 5961 O 530.784 -0.161025 2.00755 0
M  V30 5962 C 527.849 0.055337 3.46656 0
M  V30 5963 C 526.91 1.08688 4.15314 0
M  V30 5964 C 526.143 0.500736 5.31346 0
M  V30 5965 O 526.366 -0.688718 5.66227 0
M  V30 5966 O 525.3 1.23683 5.89055 0
M  V30 5967 H 529.126 1.56914 2.60023 0
M  V30 5968 H 526.711 0.827428 1.24395 0
M  V30 5969 H 528.593 -0.286492 4.20425 0
M  V30 5970 H 527.268 -0.816638 3.13229 0
M  V30 5971 H 526.175 1.48077 3.43546 0
M  V30 5972 H 527.508 1.93014 4.52777 0
M  V30 5973 N 529.16 -1.33526 0.837174 0
M  V30 5974 C 530.108 -2.31168 0.257698 0
M  V30 5975 C 531.102 -1.5806 -0.609388 0
M  V30 5976 O 532.308 -1.72941 -0.499139 0
M  V30 5977 H 528.683 -0.74922 0.0646058 0
M  V30 5978 H 530.654 -2.77552 1.09578 0
M  V30 5979 C 529.403 -3.4326 -0.553887 0
M  V30 5980 H 528.726 -3.99665 0.104008 0
M  V30 5981 H 530.166 -4.13782 -0.925219 0
M  V30 5982 C 528.625 -2.88965 -1.73207 0
M  V30 5983 O 529.155 -2.85013 -2.83073 0
M  V30 5984 N 527.361 -2.45596 -1.55342 0
M  V30 5985 H 526.908 -2.49009 -0.659705 0
M  V30 5986 H 526.866 -2.0962 -2.34322 0
M  V30 5987 N 530.638 -0.59345 -1.46 0
M  V30 5988 C 531.548 0.135817 -2.34207 0
M  V30 5989 C 532.564 0.875008 -1.50398 0
M  V30 5990 O 533.74 0.835778 -1.83239 0
M  V30 5991 C 530.805 1.12977 -3.27776 0
M  V30 5992 C 529.866 0.394081 -4.27487 0
M  V30 5993 C 529.099 1.34068 -5.16586 0
M  V30 5994 O 529.322 2.5778 -5.08828 0
M  V30 5995 O 528.256 0.845426 -5.95933 0
M  V30 5996 H 532.082 -0.588691 -2.9794 0
M  V30 5997 H 529.667 -0.353784 -1.45151 0
M  V30 5998 H 531.549 1.70261 -3.85473 0
M  V30 5999 H 530.224 1.83556 -2.66625 0
M  V30 6000 H 529.131 -0.220869 -3.73447 0
M  V30 6001 H 530.464 -0.270939 -4.91454 0
M  V30 6002 N 532.116 1.54067 -0.331816 0
M  V30 6003 C 533.046 2.27569 0.522932 0
M  V30 6004 C 534.027 1.28679 1.11247 0
M  V30 6005 O 535.212 1.57504 1.13605 0
M  V30 6006 C 532.342 3.0397 1.67987 0
M  V30 6007 C 531.296 4.10267 1.21924 0
M  V30 6008 C 530.622 4.74555 2.46377 0
M  V30 6009 C 531.922 5.21268 0.32815 0
M  V30 6010 H 533.616 2.99264 -0.0901977 0
M  V30 6011 H 531.162 1.4393 -0.044821 0
M  V30 6012 H 533.115 3.54123 2.28418 0
M  V30 6013 H 531.839 2.29906 2.31971 0
M  V30 6014 H 530.498 3.61009 0.637809 0
M  V30 6015 H 530.146 3.97098 3.08743 0
M  V30 6016 H 529.846 5.46363 2.16243 0
M  V30 6017 H 531.37 5.27487 3.07555 0
M  V30 6018 H 532.784 5.67128 0.838978 0
M  V30 6019 H 531.181 5.99982 0.119228 0
M  V30 6020 H 532.251 4.80673 -0.638839 0
M  V30 6021 N 533.594 0.0601682 1.57485 0
M  V30 6022 C 534.541 -0.91112 2.12055 0
M  V30 6023 C 535.511 -1.30298 1.03013 0
M  V30 6024 O 536.696 -1.39087 1.30612 0
M  V30 6025 C 533.836 -2.1775 2.67729 0
M  V30 6026 C 532.949 -1.83933 3.90887 0
M  V30 6027 C 532.084 -3.05096 4.34845 0
M  V30 6028 C 531.123 -2.67241 5.5068 0
M  V30 6029 N 530.26 -3.81127 5.8965 0
M  V30 6030 H 535.1 -0.43888 2.9475 0
M  V30 6031 H 532.637 -0.204995 1.45665 0
M  V30 6032 H 534.595 -2.91866 2.98111 0
M  V30 6033 H 533.225 -2.62535 1.87816 0
M  V30 6034 H 532.277 -0.999287 3.6704 0
M  V30 6035 H 533.589 -1.52074 4.75052 0
M  V30 6036 H 532.743 -3.87502 4.66827 0
M  V30 6037 H 531.482 -3.40139 3.49509 0
M  V30 6038 H 530.487 -1.83254 5.18361 0
M  V30 6039 H 531.712 -2.3338 6.37738 0
M  V30 6040 H 529.658 -4.15954 5.07266 0
M  V30 6041 H 529.575 -3.52997 6.68528 0
M  V30 6042 H 530.843 -4.64145 6.2625 0
M  V30 6043 N 535.072 -1.5615 -0.213296 0
M  V30 6044 C 536.019 -1.93086 -1.26437 0
M  V30 6045 C 536.989 -0.789086 -1.4616 0
M  V30 6046 O 538.174 -1.04569 -1.59593 0
M  V30 6047 C 535.314 -2.26003 -2.608 0
M  V30 6048 C 534.427 -3.53156 -2.48807 0
M  V30 6049 C 533.562 -3.7548 -3.7575 0
M  V30 6050 C 532.601 -4.96119 -3.58514 0
M  V30 6051 N 531.738 -5.14791 -4.77425 0
M  V30 6052 H 536.578 -2.82707 -0.942376 0
M  V30 6053 H 534.115 -1.39919 -0.454001 0
M  V30 6054 H 536.073 -2.431 -3.39055 0
M  V30 6055 H 534.703 -1.39546 -2.91079 0
M  V30 6056 H 533.755 -3.44207 -1.61944 0
M  V30 6057 H 535.067 -4.41565 -2.31996 0
M  V30 6058 H 534.221 -3.92718 -4.62447 0
M  V30 6059 H 532.96 -2.85368 -3.95495 0
M  V30 6060 H 531.965 -4.78823 -2.70201 0
M  V30 6061 H 533.19 -5.87724 -3.40231 0
M  V30 6062 H 531.136 -4.27623 -4.97468 0
M  V30 6063 H 531.053 -5.97347 -4.63371 0
M  V30 6064 H 532.321 -5.36471 -5.65525 0
M  V30 6065 N 536.55 0.480323 -1.50102 0
M  V30 6066 C 537.497 1.57946 -1.6829 0
M  V30 6067 C 538.467 1.57611 -0.524223 0
M  V30 6068 O 539.652 1.75282 -0.753709 0
M  V30 6069 C 536.792 2.95978 -1.77457 0
M  V30 6070 C 535.905 3.06173 -3.04766 0
M  V30 6071 C 535.04 4.35063 -3.04784 0
M  V30 6072 C 534.079 4.38966 -4.26586 0
M  V30 6073 N 533.216 5.59314 -4.24396 0
M  V30 6074 H 538.056 1.41743 -2.62131 0
M  V30 6075 H 535.593 0.689304 -1.2995 0
M  V30 6076 H 537.551 3.76011 -1.80752 0
M  V30 6077 H 536.181 3.10837 -0.870637 0
M  V30 6078 H 535.233 2.19071 -3.10986 0
M  V30 6079 H 536.545 3.04916 -3.9475 0
M  V30 6080 H 535.699 5.23436 -3.06757 0
M  V30 6081 H 534.438 4.38915 -2.12614 0
M  V30 6082 H 533.443 3.48992 -4.24835 0
M  V30 6083 H 534.668 4.36813 -5.19972 0
M  V30 6084 H 532.614 5.63969 -3.35074 0
M  V30 6085 H 532.531 5.5976 -5.08138 0
M  V30 6086 H 533.799 6.49837 -4.30502 0
M  V30 6087 N 538.028 1.39524 0.732853 0
M  V30 6088 C 538.991 1.38189 1.82857 0
M  V30 6089 C 539.991 0.278624 1.58368 0
M  V30 6090 O 541.181 0.536639 1.65728 0
M  V30 6091 C 538.313 1.15661 3.2068 0
M  V30 6092 H 539.506 2.35692 1.85444 0
M  V30 6093 H 537.059 1.2512 0.936728 0
M  V30 6094 H 537.794 0.188482 3.23752 0
M  V30 6095 H 537.579 1.95559 3.39852 0
M  V30 6096 H 539.069 1.17472 4.00737 0
M  V30 6097 N 539.506 -0.963266 1.24736 0
M  V30 6098 C 540.783 -1.68248 0.9976 0
M  V30 6099 C 541.163 -2.05599 -0.478776 0
M  V30 6100 O 540.511 -1.7626 -1.45412 0
M  V30 6101 C 540.721 -2.91118 1.92487 0
M  V30 6102 C 542.069 -3.63261 2.19833 0
M  V30 6103 O 543.093 -3.01184 1.90176 0
M  V30 6104 O 541.952 -4.75019 2.7022 0
M  V30 6105 H 539.046 -0.735744 0.377637 0
M  V30 6106 H 541.592 -1.01696 1.35853 0
M  V30 6107 H 540.364 -2.60242 2.92215 0
M  V30 6108 H 539.987 -3.65402 1.56738 0
M  V30 6109 N 540.985 -1.06182 -1.16461 0
M  V30 6110 C 541.895 -0.682671 -2.24448 0
M  V30 6111 C 542.911 0.30078 -1.71381 0
M  V30 6112 O 544.087 0.150376 -2.00838 0
M  V30 6113 C 541.152 -0.0737202 -3.46622 0
M  V30 6114 C 540.213 -1.10889 -4.14731 0
M  V30 6115 C 539.446 -0.528908 -5.31073 0
M  V30 6116 O 539.669 0.65868 -5.66584 0
M  V30 6117 O 538.603 -1.26805 -5.88391 0
M  V30 6118 H 542.429 -1.58291 -2.59187 0
M  V30 6119 H 540.014 -0.834013 -1.23954 0
M  V30 6120 H 541.896 0.264192 -4.20571 0
M  V30 6121 H 540.571 0.800015 -3.13658 0
M  V30 6122 H 539.478 -1.49896 -3.42756 0
M  V30 6123 H 540.811 -1.95412 -4.51747 0
M  V30 6124 N 542.463 1.3308 -0.844243 0
M  V30 6125 C 543.393 2.3161 -0.296493 0
M  V30 6126 C 544.374 1.59215 0.598707 0
M  V30 6127 O 545.559 1.87077 0.521134 0
M  V30 6128 C 542.689 3.43313 0.524762 0
M  V30 6129 C 541.643 4.27115 -0.275106 0
M  V30 6130 C 540.969 5.30483 0.670236 0
M  V30 6131 C 542.269 5.00443 -1.49514 0
M  V30 6132 H 543.963 2.77672 -1.11976 0
M  V30 6133 H 541.509 1.33496 -0.539899 0
M  V30 6134 H 543.462 4.11273 0.918298 0
M  V30 6135 H 542.186 2.95952 1.3813 0
M  V30 6136 H 540.845 3.60787 -0.650267 0
M  V30 6137 H 540.493 4.79379 1.52332 0
M  V30 6138 H 540.193 5.87435 0.139123 0
M  V30 6139 H 541.717 6.01308 1.06117 0
M  V30 6140 H 543.131 5.61141 -1.17447 0
M  V30 6141 H 541.528 5.67071 -1.96343 0
M  V30 6142 H 542.598 4.28906 -2.26202 0
M  V30 6143 N 543.941 0.601185 1.45683 0
M  V30 6144 C 544.873 -0.159446 2.28645 0
M  V30 6145 C 545.886 -0.837882 1.39583 0
M  V30 6146 O 547.075 -0.704344 1.64016 0
M  V30 6147 C 544.175 -1.24641 3.15147 0
M  V30 6148 C 543.348 -0.656334 4.32448 0
M  V30 6149 C 542.407 -1.63337 5.00208 0
M  V30 6150 O 541.433 -1.16217 5.57209 0
M  V30 6151 N 542.635 -2.96773 4.98905 0
M  V30 6152 H 545.4 0.5524 2.94565 0
M  V30 6153 H 542.961 0.440223 1.558 0
M  V30 6154 H 544.953 -1.8997 3.57342 0
M  V30 6155 H 543.523 -1.86087 2.51178 0
M  V30 6156 H 542.743 0.174879 3.93812 0
M  V30 6157 H 544.031 -0.242211 5.08223 0
M  V30 6158 H 543.429 -3.37662 4.53873 0
M  V30 6159 H 541.986 -3.57541 5.44984 0
M  V30 6160 N 545.419 -1.53889 0.339982 0
M  V30 6161 C 546.366 -2.24902 -0.518452 0
M  V30 6162 C 547.336 -1.24593 -1.09844 0
M  V30 6163 O 548.521 -1.53317 -1.13572 0
M  V30 6164 C 545.661 -3.02262 -1.66529 0
M  V30 6165 C 544.774 -4.17418 -1.11295 0
M  V30 6166 C 543.909 -4.82273 -2.2268 0
M  V30 6167 C 542.948 -5.89503 -1.6478 0
M  V30 6168 N 542.085 -6.48153 -2.69893 0
M  V30 6169 H 546.925 -2.97853 0.0936579 0
M  V30 6170 H 544.462 -1.46986 0.0579924 0
M  V30 6171 H 546.42 -3.45371 -2.3404 0
M  V30 6172 H 545.05 -2.31614 -2.24844 0
M  V30 6173 H 544.102 -3.78976 -0.328886 0
M  V30 6174 H 545.414 -4.94554 -0.649414 0
M  V30 6175 H 544.568 -5.28435 -2.98063 0
M  V30 6176 H 543.307 -4.04552 -2.72376 0
M  V30 6177 H 542.312 -5.42728 -0.879004 0
M  V30 6178 H 543.537 -6.6913 -1.1594 0
M  V30 6179 H 541.483 -5.73298 -3.1885 0
M  V30 6180 H 541.4 -7.20752 -2.28151 0
M  V30 6181 H 542.668 -6.98968 -3.45056 0
M  V30 6182 N 546.897 -0.0685191 -1.57451 0
M  V30 6183 C 547.829 0.929372 -2.09512 0
M  V30 6184 C 548.842 1.26354 -1.02657 0
M  V30 6185 O 550.031 1.2213 -1.30179 0
M  V30 6186 C 547.131 2.24612 -2.53777 0
M  V30 6187 C 546.304 2.09128 -3.84167 0
M  V30 6188 C 545.363 3.24079 -4.14559 0
M  V30 6189 O 544.389 2.99215 -4.8421 0
M  V30 6190 N 545.591 4.49077 -3.67845 0
M  V30 6191 H 548.356 0.484901 -2.95751 0
M  V30 6192 H 545.917 0.11729 -1.61475 0
M  V30 6193 H 547.909 3.00412 -2.71172 0
M  V30 6194 H 546.479 2.60569 -1.72692 0
M  V30 6195 H 545.699 1.17815 -3.76182 0
M  V30 6196 H 546.987 1.9603 -4.69521 0
M  V30 6197 H 546.385 4.72165 -3.11571 0
M  V30 6198 H 544.942 5.21915 -3.90446 0
M  V30 6199 N 548.375 1.56261 0.205012 0
M  V30 6200 C 549.322 1.93754 1.25411 0
M  V30 6201 C 550.292 0.796826 1.45739 0
M  V30 6202 O 551.477 1.05414 1.59036 0
M  V30 6203 C 548.617 2.27383 2.59598 0
M  V30 6204 C 547.73 3.5447 2.46931 0
M  V30 6205 C 546.865 3.77468 3.73753 0
M  V30 6206 C 545.904 4.98014 3.55877 0
M  V30 6207 N 545.041 5.17316 4.74688 0
M  V30 6208 H 549.881 2.83203 0.92737 0
M  V30 6209 H 547.418 1.40158 0.446574 0
M  V30 6210 H 549.376 2.44895 3.37761 0
M  V30 6211 H 548.006 1.41088 2.90335 0
M  V30 6212 H 547.058 3.45061 1.60116 0
M  V30 6213 H 548.37 4.42789 2.29651 0
M  V30 6214 H 547.524 3.95165 4.60358 0
M  V30 6215 H 546.263 2.87461 3.93976 0
M  V30 6216 H 545.268 4.80249 2.67657 0
M  V30 6217 H 546.493 5.8952 3.37109 0
M  V30 6218 H 544.439 4.30255 4.95194 0
M  V30 6219 H 544.356 5.99796 4.60197 0
M  V30 6220 H 545.624 5.39463 5.62672 0
M  V30 6221 N 549.853 -0.472356 1.50355 0
M  V30 6222 C 550.763 -1.59637 1.7191 0
M  V30 6223 C 551.779 -1.63247 0.602195 0
M  V30 6224 O 552.955 -1.81139 0.880369 0
M  V30 6225 C 550.02 -2.9586 1.80742 0
M  V30 6226 C 549.081 -3.02649 3.04471 0
M  V30 6227 C 548.314 -4.32374 3.12872 0
M  V30 6228 O 548.537 -5.22807 2.28099 0
M  V30 6229 O 547.471 -4.44728 4.05587 0
M  V30 6230 H 551.297 -1.44373 2.67189 0
M  V30 6231 H 548.882 -0.651717 1.34436 0
M  V30 6232 H 550.764 -3.7677 1.88739 0
M  V30 6233 H 549.439 -3.11325 0.88647 0
M  V30 6234 H 548.346 -2.20821 3.01975 0
M  V30 6235 H 549.679 -2.92119 3.9614 0
M  V30 6236 N 551.331 -1.39911 -0.725443 0
M  V30 6237 C 552.241 -1.41688 -1.8698 0
M  V30 6238 C 553.257 -0.310579 -1.71206 0
M  V30 6239 O 554.433 -0.55359 -1.93642 0
M  V30 6240 C 551.498 -1.26811 -3.22676 0
M  V30 6241 C 550.559 -2.47497 -3.50776 0
M  V30 6242 C 549.792 -2.3332 -4.79997 0
M  V30 6243 O 550.015 -1.34175 -5.54394 0
M  V30 6244 O 548.949 -3.22498 -5.08211 0
M  V30 6245 H 552.775 -2.38171 -1.88436 0
M  V30 6246 H 550.36 -1.21128 -0.874548 0
M  V30 6247 H 552.242 -1.20684 -4.03749 0
M  V30 6248 H 550.917 -0.334289 -3.21969 0
M  V30 6249 H 549.824 -2.59201 -2.69751 0
M  V30 6250 H 551.157 -3.39606 -3.5627 0
M  V30 6251 N 552.809 0.956637 -1.25245 0
M  V30 6252 C 553.739 2.07058 -1.07931 0
M  V30 6253 C 554.72 1.70096 0.0110361 0
M  V30 6254 O 555.905 1.93555 -0.158121 0
M  V30 6255 C 553.035 3.40272 -0.695124 0
M  V30 6256 C 551.989 3.91235 -1.73549 0
M  V30 6257 C 551.315 5.20921 -1.20604 0
M  V30 6258 C 552.615 4.17837 -3.13385 0
M  V30 6259 H 554.309 2.218 -2.01109 0
M  V30 6260 H 551.855 1.06581 -0.968326 0
M  V30 6261 H 553.808 4.1765 -0.560949 0
M  V30 6262 H 552.532 3.25462 0.272355 0
M  V30 6263 H 551.191 3.16025 -1.85807 0
M  V30 6264 H 550.839 5.02479 -0.228846 0
M  V30 6265 H 550.539 5.55987 -1.90136 0
M  V30 6266 H 552.063 6.00897 -1.08421 0
M  V30 6267 H 553.477 4.8588 -3.04292 0
M  V30 6268 H 551.874 4.64154 -3.80369 0
M  V30 6269 H 552.944 3.2419 -3.60595 0
M  V30 6270 N 554.287 1.06798 1.15896 0
M  V30 6271 C 555.219 0.641263 2.20046 0
M  V30 6272 C 556.232 -0.303355 1.59949 0
M  V30 6273 O 557.421 -0.0935478 1.78255 0
M  V30 6274 C 554.521 -0.0794029 3.38807 0
M  V30 6275 C 553.694 0.879986 4.28457 0
M  V30 6276 C 552.753 0.197638 5.25829 0
M  V30 6277 O 551.779 0.836913 5.63014 0
M  V30 6278 N 552.981 -1.05886 5.70761 0
M  V30 6279 H 555.746 1.53718 2.57276 0
M  V30 6280 H 553.307 0.951951 1.30956 0
M  V30 6281 H 555.299 -0.546418 4.00994 0
M  V30 6282 H 553.869 -0.877193 3.0004 0
M  V30 6283 H 553.089 1.52625 3.63454 0
M  V30 6284 H 554.377 1.53065 4.8523 0
M  V30 6285 H 553.775 -1.59828 5.42652 0
M  V30 6286 H 552.332 -1.46965 6.35015 0
M  V30 6287 N 555.766 -1.3263 0.851289 0
M  V30 6288 C 557.182 -1.50162 0.5407 0
M  V30 6289 C 557.382 -1.78788 -0.929369 0
M  V30 6290 O 556.438 -1.85545 -1.71258 0
M  V30 6291 C 557.751 -2.64803 1.42478 0
M  V30 6292 C 559.299 -2.78688 1.42485 0
M  V30 6293 C 559.774 -3.96405 2.29407 0
M  V30 6294 N 561.265 -4.0366 2.27184 0
M  V30 6295 C 562 -4.93971 2.9117 0
M  V30 6296 N 561.496 -5.89313 3.64256 0
M  V30 6297 N 563.289 -4.87066 2.80576 0
M  V30 6298 H 555.44 -1.12315 1.80275 0
M  V30 6299 H 557.703 -0.553266 0.769806 0
M  V30 6300 H 557.409 -2.50368 2.46999 0
M  V30 6301 H 557.283 -3.60506 1.10974 0
M  V30 6302 H 559.67 -2.92547 0.387304 0
M  V30 6303 H 559.751 -1.83708 1.78002 0
M  V30 6304 H 559.395 -3.83304 3.33228 0
M  V30 6305 H 559.325 -4.90654 1.91224 0
M  V30 6306 H 561.816 -3.35435 1.74045 0
M  V30 6307 H 562.129 -6.54913 4.10255 0
M  V30 6308 H 560.474 -5.8935 3.68364 0
M  V30 6309 H 563.665 -4.11552 2.23031 0
M  V30 6310 H 563.838 -5.57248 3.30725 0
M  V30 6311 N 557.244 -0.608902 -1.45362 0
M  V30 6312 C 558.176 0.147318 -2.28726 0
M  V30 6313 C 559.189 0.830468 -1.40025 0
M  V30 6314 O 560.378 0.695636 -1.64387 0
M  V30 6315 C 557.478 1.22968 -3.15804 0
M  V30 6316 C 556.651 0.633391 -4.3279 0
M  V30 6317 C 555.71 1.60682 -5.01067 0
M  V30 6318 O 554.736 1.13261 -5.57818 0
M  V30 6319 N 555.938 2.94123 -5.00472 0
M  V30 6320 H 558.703 -0.568014 -2.94268 0
M  V30 6321 H 556.264 -0.448479 -1.55564 0
M  V30 6322 H 558.256 1.88072 -3.58345 0
M  V30 6323 H 556.826 1.84752 -2.52162 0
M  V30 6324 H 556.046 -0.195762 -3.93714 0
M  V30 6325 H 557.334 0.215255 -5.08344 0
M  V30 6326 H 556.732 3.3525 -4.55657 0
M  V30 6327 H 555.289 3.54646 -5.46872 0
M  V30 6328 N 558.722 1.53707 -0.348139 0
M  V30 6329 C 559.672 2.2193 0.522592 0
M  V30 6330 C 560.656 1.20831 1.06248 0
M  V30 6331 O 561.848 1.46357 0.995415 0
M  V30 6332 C 558.977 2.99904 1.6707 0
M  V30 6333 C 558.063 4.08364 1.14454 0
M  V30 6334 N 558.454 5.04656 0.339958 0
M  V30 6335 C 556.752 4.22757 1.421 0
M  V30 6336 C 557.453 5.81675 0.0538806 0
M  V30 6337 N 556.429 5.39739 0.646776 0
M  V30 6338 H 560.231 2.93733 -0.099135 0
M  V30 6339 H 557.745 1.61656 -0.15524 0
M  V30 6340 H 559.742 3.47284 2.30651 0
M  V30 6341 H 558.402 2.29629 2.29566 0
M  V30 6342 H 559.413 5.17896 -0.0193552 0
M  V30 6343 H 556.09 3.63704 2.05002 0
M  V30 6344 H 557.48 6.69256 -0.595443 0
M  V30 6345 N 560.2 0.0768682 1.57412 0
M  V30 6346 C 561.477 -0.632359 1.85096 0
M  V30 6347 C 561.857 -1.87479 0.9703 0
M  V30 6348 O 561.205 -2.28469 0.0379062 0
M  V30 6349 C 561.415 -0.965174 3.35388 0
M  V30 6350 C 562.763 -1.33648 4.03018 0
M  V30 6351 O 563.787 -1.05675 3.40164 0
M  V30 6352 O 562.646 -1.85959 5.13889 0
M  V30 6353 H 559.74 -0.314574 0.764835 0
M  V30 6354 H 562.286 0.108184 1.69355 0
M  V30 6355 H 561.058 -0.0829745 3.91212 0
M  V30 6356 H 560.681 -1.76231 3.5641 0
M  V30 6357 N 561.678 -1.56367 -0.196722 0
M  V30 6358 C 562.61 -1.90941 -1.26784 0
M  V30 6359 C 563.623 -0.799928 -1.41792 0
M  V30 6360 O 564.812 -1.07833 -1.42247 0
M  V30 6361 C 561.912 -2.12477 -2.6402 0
M  V30 6362 C 561.085 -3.43616 -2.70641 0
M  V30 6363 C 560.144 -3.54284 -3.89062 0
M  V30 6364 O 559.17 -4.2712 -3.76241 0
M  V30 6365 N 560.372 -2.87252 -5.04447 0
M  V30 6366 H 563.137 -2.83417 -0.974417 0
M  V30 6367 H 560.698 -1.57215 -0.386649 0
M  V30 6368 H 562.69 -2.16904 -3.41665 0
M  V30 6369 H 561.26 -1.26508 -2.85857 0
M  V30 6370 H 560.48 -3.51072 -1.79283 0
M  V30 6371 H 561.768 -4.29958 -2.72054 0
M  V30 6372 H 561.166 -2.27901 -5.17762 0
M  V30 6373 H 559.723 -2.97308 -5.80044 0
M  V30 6374 N 563.156 0.464375 -1.50603 0
M  V30 6375 C 564.086 1.56944 -1.72889 0
M  V30 6376 C 565.067 1.59979 -0.577997 0
M  V30 6377 O 566.252 1.76138 -0.817855 0
M  V30 6378 C 563.382 2.95225 -1.8292 0
M  V30 6379 C 562.336 3.07056 -2.98162 0
M  V30 6380 C 561.662 4.47051 -2.93343 0
M  V30 6381 C 562.962 2.83648 -4.38567 0
M  V30 6382 H 564.656 1.38547 -2.65415 0
M  V30 6383 H 562.202 0.665082 -1.27721 0
M  V30 6384 H 564.155 3.72467 -1.97095 0
M  V30 6385 H 562.879 3.14793 -0.870209 0
M  V30 6386 H 561.538 2.32248 -2.83648 0
M  V30 6387 H 561.186 4.63547 -1.95276 0
M  V30 6388 H 560.886 4.55902 -3.70712 0
M  V30 6389 H 562.41 5.26304 -3.09575 0
M  V30 6390 H 563.824 3.50636 -4.53572 0
M  V30 6391 H 562.221 3.03937 -5.17438 0
M  V30 6392 H 563.291 1.79451 -4.50472 0
M  V30 6393 N 564.634 1.40294 0.718013 0
M  V30 6394 C 565.544 1.42678 1.86226 0
M  V30 6395 C 566.56 0.319655 1.71039 0
M  V30 6396 O 567.736 0.563852 1.93346 0
M  V30 6397 C 564.801 1.2852 3.21999 0
M  V30 6398 C 563.862 2.49354 3.49458 0
M  V30 6399 C 563.095 2.35863 4.78753 0
M  V30 6400 O 563.318 1.37114 5.53675 0
M  V30 6401 O 562.252 3.25189 5.06494 0
M  V30 6402 H 566.078 2.39167 1.87171 0
M  V30 6403 H 563.663 1.2159 0.868112 0
M  V30 6404 H 565.545 1.22824 4.03103 0
M  V30 6405 H 564.22 0.351359 3.21787 0
M  V30 6406 H 563.127 2.60628 2.68373 0
M  V30 6407 H 564.46 3.41491 3.54464 0
M  V30 6408 N 566.112 -0.949982 1.2575 0
M  V30 6409 C 567.075 -2.02894 1.06615 0
M  V30 6410 C 568.075 -1.60791 0.0173905 0
M  V30 6411 O 569.265 -1.72249 0.260003 0
M  V30 6412 C 566.397 -3.35219 0.619751 0
M  V30 6413 H 567.59 -2.21302 2.02399 0
M  V30 6414 H 565.143 -1.12772 1.08223 0
M  V30 6415 H 565.878 -3.22508 -0.340486 0
M  V30 6416 H 565.663 -3.67129 1.37692 0
M  V30 6417 H 567.153 -4.14505 0.507443 0
M  V30 6418 N 567.59 -1.07411 -1.15328 0
M  V30 6419 C 568.522 -0.652924 -2.19703 0
M  V30 6420 C 569.535 0.294869 -1.60107 0
M  V30 6421 O 570.724 0.0840932 -1.78302 0
M  V30 6422 C 567.824 0.061434 -3.38844 0
M  V30 6423 C 566.997 -0.902696 -4.27984 0
M  V30 6424 C 566.056 -0.225521 -5.25717 0
M  V30 6425 O 565.082 -0.86676 -5.62562 0
M  V30 6426 N 566.284 1.02858 -5.71315 0
M  V30 6427 H 569.049 -1.55081 -2.56457 0
M  V30 6428 H 566.61 -0.958883 -1.30449 0
M  V30 6429 H 568.602 0.525145 -4.01278 0
M  V30 6430 H 567.172 0.861269 -3.00501 0
M  V30 6431 H 566.392 -1.54551 -3.6264 0
M  V30 6432 H 567.68 -1.55636 -4.84412 0
M  V30 6433 H 567.078 1.56948 -5.43492 0
M  V30 6434 H 565.635 1.43596 -6.35786 0
M  V30 6435 N 569.068 1.32177 -0.85831 0
M  V30 6436 C 570.015 2.28794 -0.303607 0
M  V30 6437 C 570.985 1.55213 0.591453 0
M  V30 6438 O 572.17 1.83418 0.525585 0
M  V30 6439 C 569.31 3.41475 0.49889 0
M  V30 6440 C 568.423 4.2993 -0.422373 0
M  V30 6441 C 567.558 5.29743 0.393111 0
M  V30 6442 C 566.597 6.09842 -0.525317 0
M  V30 6443 N 565.734 7.01643 0.253208 0
M  V30 6444 H 570.574 2.75631 -1.13276 0
M  V30 6445 H 568.111 1.35606 -0.570026 0
M  V30 6446 H 570.069 4.05531 0.979826 0
M  V30 6447 H 568.699 2.95779 1.29284 0
M  V30 6448 H 567.751 3.66422 -1.02171 0
M  V30 6449 H 569.063 4.85899 -1.12709 0
M  V30 6450 H 568.217 5.9942 0.937056 0
M  V30 6451 H 566.956 4.744 1.13117 0
M  V30 6452 H 565.961 5.39066 -1.08112 0
M  V30 6453 H 567.186 6.6727 -1.26205 0
M  V30 6454 H 565.132 6.48725 0.974295 0
M  V30 6455 H 565.049 7.54981 -0.392398 0
M  V30 6456 H 566.317 7.756 0.778761 0
M  V30 6457 N 570.547 0.616602 1.45037 0
M  V30 6458 C 571.477 -0.0840787 2.33349 0
M  V30 6459 C 572.458 -0.849641 1.4736 0
M  V30 6460 O 573.643 -0.818407 1.76113 0
M  V30 6461 C 570.773 -1.07604 3.3021 0
M  V30 6462 C 569.727 -0.423096 4.25904 0
M  V30 6463 C 569.053 -1.52394 5.12523 0
M  V30 6464 C 570.353 0.661457 5.18095 0
M  V30 6465 H 572.047 0.653333 2.92185 0
M  V30 6466 H 569.593 0.315634 1.40498 0
M  V30 6467 H 571.546 -1.57485 3.90866 0
M  V30 6468 H 570.27 -1.84416 2.69552 0
M  V30 6469 H 568.929 0.05493 3.66559 0
M  V30 6470 H 568.577 -2.28257 4.48227 0
M  V30 6471 H 568.277 -1.09251 5.77354 0
M  V30 6472 H 569.801 -2.02485 5.76049 0
M  V30 6473 H 571.215 0.246353 5.7277 0
M  V30 6474 H 569.612 1.01517 5.91451 0
M  V30 6475 H 570.682 1.53446 4.59981 0
M  V30 6476 N 572.025 -1.5352 0.356285 0
M  V30 6477 C 572.935 -2.29151 -0.502712 0
M  V30 6478 C 573.951 -1.34753 -1.1008 0
M  V30 6479 O 575.127 -1.67803 -1.11374 0
M  V30 6480 C 572.192 -3.05911 -1.63154 0
M  V30 6481 C 571.253 -4.15958 -1.06194 0
M  V30 6482 C 570.486 -4.8905 -2.13696 0
M  V30 6483 O 570.709 -4.61919 -3.34645 0
M  V30 6484 O 569.643 -5.75202 -1.77275 0
M  V30 6485 H 573.469 -3.03492 0.112466 0
M  V30 6486 H 571.054 -1.4891 0.120942 0
M  V30 6487 H 572.936 -3.53874 -2.28804 0
M  V30 6488 H 571.611 -2.34415 -2.23229 0
M  V30 6489 H 570.518 -3.7227 -0.369603 0
M  V30 6490 H 571.851 -4.89593 -0.505872 0
M  V30 6491 N 573.503 -0.0852151 -1.57369 0
M  V30 6492 C 574.733 0.588605 -1.98038 0
M  V30 6493 C 575.141 1.62869 -0.962817 0
M  V30 6494 O 574.484 1.83611 0.057134 0
M  V30 6495 C 574.546 1.30303 -3.35054 0
M  V30 6496 C 574.21 0.414855 -4.55113 0
M  V30 6497 C 575.207 -0.333011 -5.18832 0
M  V30 6498 C 572.892 0.335804 -5.01176 0
M  V30 6499 C 574.886 -1.14801 -6.26976 0
M  V30 6500 C 572.573 -0.482857 -6.09189 0
M  V30 6501 C 573.571 -1.22342 -6.71953 0
M  V30 6502 O 573.259 -2.02855 -7.77885 0
M  V30 6503 H 572.991 0.163249 -0.655992 0
M  V30 6504 H 575.545 -0.1582 -2.0479 0
M  V30 6505 H 573.775 2.0962 -3.24956 0
M  V30 6506 H 575.464 1.87041 -3.60237 0
M  V30 6507 H 576.23 -0.281611 -4.84182 0
M  V30 6508 H 572.109 0.901869 -4.52092 0
M  V30 6509 H 575.653 -1.72654 -6.75897 0
M  V30 6510 H 571.55 -0.535773 -6.43273 0
M  V30 6511 H 572.318 -1.95432 -7.94826 0
M  V30 6512 N 574.981 1.5647 0.188427 0
M  V30 6513 C 575.931 1.91479 1.23774 0
M  V30 6514 C 576.915 0.78119 1.40664 0
M  V30 6515 O 578.107 1.04414 1.42922 0
M  V30 6516 C 575.236 2.26354 2.58106 0
M  V30 6517 C 574.322 3.46186 2.44981 0
M  V30 6518 N 574.713 4.63911 2.01546 0
M  V30 6519 C 573.011 3.50456 2.75856 0
M  V30 6520 C 573.712 5.46064 2.00472 0
M  V30 6521 N 572.688 4.86648 2.42229 0
M  V30 6522 H 576.49 2.79994 0.893339 0
M  V30 6523 H 574.004 1.57477 0.39682 0
M  V30 6524 H 576.001 2.49622 3.33908 0
M  V30 6525 H 574.661 1.39168 2.93364 0
M  V30 6526 H 575.672 4.88451 1.7215 0
M  V30 6527 H 572.349 2.73704 3.15265 0
M  V30 6528 H 573.739 6.50368 1.68734 0
M  V30 6529 N 576.459 -0.456382 1.50847 0
M  V30 6530 C 577.391 -1.57033 1.66953 0
M  V30 6531 C 578.404 -1.53207 0.550593 0
M  V30 6532 O 579.593 -1.58328 0.824285 0
M  V30 6533 C 576.693 -2.95937 1.65149 0
M  V30 6534 C 575.866 -3.24475 2.93317 0
M  V30 6535 C 574.925 -4.43007 2.83957 0
M  V30 6536 O 573.951 -4.42592 3.57912 0
M  V30 6537 N 575.153 -5.45503 1.9851 0
M  V30 6538 H 577.918 -1.43629 2.63042 0
M  V30 6539 H 575.479 -0.645037 1.48495 0
M  V30 6540 H 577.471 -3.73224 1.56481 0
M  V30 6541 H 576.041 -3.03036 0.767343 0
M  V30 6542 H 575.261 -2.35664 3.16 0
M  V30 6543 H 576.549 -3.4036 3.78196 0
M  V30 6544 H 575.947 -5.48668 1.37766 0
M  V30 6545 H 574.504 -6.21716 1.95735 0
M  V30 6546 N 577.937 -1.40673 -0.710563 0
M  V30 6547 C 579.183 -1.39428 -1.47267 0
M  V30 6548 C 579.516 0.00182129 -1.942 0
M  V30 6549 O 578.791 0.971387 -1.68506 0
M  V30 6550 C 579.074 -2.38812 -2.6952 0
M  V30 6551 C 578.927 -3.87467 -2.28449 0
M  V30 6552 C 580.246 -2.3566 -3.71689 0
M  V30 6553 H 577.365 -0.507768 -0.534173 0
M  V30 6554 H 580.007 -1.71843 -0.810547 0
M  V30 6555 H 578.157 -2.113 -3.26013 0
M  V30 6556 H 579.829 -4.25825 -1.77399 0
M  V30 6557 H 578.072 -4.03058 -1.60395 0
M  V30 6558 H 578.743 -4.5253 -3.16103 0
M  V30 6559 H 581.219 -2.6004 -3.24836 0
M  V30 6560 H 580.095 -3.07237 -4.54859 0
M  V30 6561 H 580.356 -1.36996 -4.20339 0
M  V30 6562 N 579.415 0.9433 -1.26252 0
M  V30 6563 C 580.664 1.68369 -1.11062 0
M  V30 6564 C 580.977 1.92514 0.346104 0
M  V30 6565 O 582.183 2.64358 0.618646 0
M  V30 6566 C 580.639 3.03171 -1.93946 0
M  V30 6567 C 580.247 2.86782 -3.4418 0
M  V30 6568 C 581.991 3.80916 -1.87359 0
M  V30 6569 C 579.898 4.17044 -4.19319 0
M  V30 6570 H 578.828 0.631469 -0.412023 0
M  V30 6571 H 581.479 1.04922 -1.50544 0
M  V30 6572 H 579.861 3.67587 -1.47296 0
M  V30 6573 H 581.035 2.31229 -3.98585 0
M  V30 6574 H 579.35 2.22482 -3.51981 0
M  V30 6575 H 581.947 4.77417 -2.40784 0
M  V30 6576 H 582.29 4.07658 -0.843857 0
M  V30 6577 H 582.823 3.2327 -2.31821 0
M  V30 6578 H 579.562 3.95487 -5.22753 0
M  V30 6579 H 579.082 4.72319 -3.69696 0
M  V30 6580 H 580.761 4.85513 -4.27651 0
M  V30 6581 N 580.893 1.08022 1.14757 0
M  V30 6582 C 581.825 0.664566 2.19354 0
M  V30 6583 C 582.838 -0.286374 1.60261 0
M  V30 6584 O 584.027 -0.0746362 1.78344 0
M  V30 6585 C 581.127 -0.0434634 3.38872 0
M  V30 6586 C 580.3 0.925381 4.27499 0
M  V30 6587 C 579.359 0.253398 5.2559 0
M  V30 6588 O 578.385 0.896581 5.62094 0
M  V30 6589 N 579.587 -0.998263 5.71852 0
M  V30 6590 H 582.352 1.56438 2.55631 0
M  V30 6591 H 579.913 0.965788 1.29939 0
M  V30 6592 H 581.905 -0.503857 4.01551 0
M  V30 6593 H 580.475 -0.845321 3.00954 0
M  V30 6594 H 579.695 1.56472 3.61815 0
M  V30 6595 H 580.983 1.58203 4.8358 0
M  V30 6596 H 580.381 -1.54063 5.44317 0
M  V30 6597 H 578.938 -1.40222 6.36538 0
M  V30 6598 N 582.371 -1.3172 0.865308 0
M  V30 6599 C 583.303 -2.27545 0.274906 0
M  V30 6600 C 584.316 -1.52887 -0.559413 0
M  V30 6601 O 585.505 -1.74361 -0.382166 0
M  V30 6602 C 582.605 -3.33006 -0.629286 0
M  V30 6603 C 581.778 -4.37063 0.171553 0
M  V30 6604 C 580.837 -5.22044 -0.660052 0
M  V30 6605 O 579.863 -5.69129 -0.0897527 0
M  V30 6606 N 581.065 -5.45946 -1.97289 0
M  V30 6607 H 583.83 -2.78848 1.09836 0
M  V30 6608 H 581.391 -1.44693 0.726331 0
M  V30 6609 H 583.383 -3.86772 -1.19121 0
M  V30 6610 H 581.953 -2.81782 -1.35342 0
M  V30 6611 H 581.173 -3.83436 0.914919 0
M  V30 6612 H 582.461 -5.03662 0.721235 0
M  V30 6613 H 581.859 -5.0944 -2.45942 0
M  V30 6614 H 580.416 -6.02665 -2.4827 0
M  V30 6615 N 583.85 -0.624285 -1.44708 0
M  V30 6616 C 584.783 0.133905 -2.27807 0
M  V30 6617 C 585.76 0.857794 -1.38133 0
M  V30 6618 O 586.945 0.863277 -1.6757 0
M  V30 6619 C 584.072 1.19541 -3.16903 0
M  V30 6620 C 583.118 0.572813 -4.22636 0
M  V30 6621 S 583.951 -0.631953 -5.31758 0
M  V30 6622 C 585.106 0.429733 -6.24423 0
M  V30 6623 H 585.34 -0.571072 -2.91764 0
M  V30 6624 H 582.873 -0.412261 -1.48794 0
M  V30 6625 H 584.831 1.80293 -3.68788 0
M  V30 6626 H 583.492 1.87255 -2.5218 0
M  V30 6627 H 582.685 1.37205 -4.84965 0
M  V30 6628 H 582.287 0.0400641 -3.73979 0
M  V30 6629 H 584.579 1.30421 -6.64828 0
M  V30 6630 H 585.522 -0.157804 -7.07924 0
M  V30 6631 H 585.93 0.75256 -5.59461 0
M  V30 6632 N 585.328 1.53329 -0.364422 0
M  V30 6633 C 586.238 2.29414 0.490552 0
M  V30 6634 C 587.254 1.35335 1.09363 0
M  V30 6635 O 588.43 1.68391 1.10483 0
M  V30 6636 C 585.495 3.06772 1.61529 0
M  V30 6637 C 584.556 4.16516 1.03986 0
M  V30 6638 C 583.789 4.90176 2.111 0
M  V30 6639 O 584.012 4.63687 3.32191 0
M  V30 6640 O 582.946 5.76134 1.74222 0
M  V30 6641 H 586.772 3.03428 -0.12856 0
M  V30 6642 H 584.357 1.48843 -0.128837 0
M  V30 6643 H 586.239 3.55082 2.26924 0
M  V30 6644 H 584.914 2.35596 2.21983 0
M  V30 6645 H 583.821 3.7246 0.349856 0
M  V30 6646 H 585.154 4.89855 0.4799 0
M  V30 6647 N 586.806 0.0935595 1.57322 0
M  V30 6648 C 587.738 -0.895923 2.10964 0
M  V30 6649 C 588.751 -1.24705 1.04654 0
M  V30 6650 O 589.94 -1.20044 1.32105 0
M  V30 6651 C 587.04 -2.20546 2.57318 0
M  V30 6652 C 586.213 -2.0299 3.87445 0
M  V30 6653 C 585.272 -3.17443 4.19662 0
M  V30 6654 O 584.298 -2.91474 4.88909 0
M  V30 6655 N 585.5 -4.43168 3.74943 0
M  V30 6656 H 588.265 -0.437788 2.96485 0
M  V30 6657 H 585.826 -0.0915863 1.61641 0
M  V30 6658 H 587.818 -2.9606 2.75917 0
M  V30 6659 H 586.388 -2.57789 1.76816 0
M  V30 6660 H 585.608 -1.11815 3.78009 0
M  V30 6661 H 586.896 -1.88535 4.7258 0
M  V30 6662 H 586.294 -4.67149 3.19043 0
M  V30 6663 H 584.851 -5.15637 3.987 0
M  V30 6664 N 588.284 -1.56567 -0.180126 0
M  V30 6665 C 589.231 -1.95725 -1.22313 0
M  V30 6666 C 590.201 -0.819911 -1.44453 0
M  V30 6667 O 591.386 -1.07931 -1.57339 0
M  V30 6668 C 588.526 -2.31484 -2.55947 0
M  V30 6669 C 587.639 -3.58354 -2.4126 0
M  V30 6670 C 586.774 -3.83366 -3.67701 0
M  V30 6671 C 585.813 -5.03612 -3.47909 0
M  V30 6672 N 584.95 -5.24802 -4.66398 0
M  V30 6673 H 589.79 -2.84642 -0.882198 0
M  V30 6674 H 587.327 -1.4085 -0.42422 0
M  V30 6675 H 589.285 -2.50237 -3.33822 0
M  V30 6676 H 587.915 -1.45689 -2.88053 0
M  V30 6677 H 586.967 -3.47565 -1.54606 0
M  V30 6678 H 588.279 -4.46386 -2.22577 0
M  V30 6679 H 587.433 -4.02439 -4.54013 0
M  V30 6680 H 586.172 -2.93692 -3.89353 0
M  V30 6681 H 585.177 -4.84447 -2.59983 0
M  V30 6682 H 586.402 -5.94809 -3.27688 0
M  V30 6683 H 584.348 -4.38079 -4.88286 0
M  V30 6684 H 584.265 -6.07041 -4.50596 0
M  V30 6685 H 585.533 -5.48346 -5.54019 0
M  V30 6686 N 589.762 0.448376 -1.51087 0
M  V30 6687 C 590.709 1.54341 -1.71603 0
M  V30 6688 C 591.679 1.56463 -0.557536 0
M  V30 6689 O 592.864 1.73644 -0.79072 0
M  V30 6690 C 590.004 2.92148 -1.83695 0
M  V30 6691 C 589.117 2.99639 -3.11192 0
M  V30 6692 C 588.252 4.285 -3.13944 0
M  V30 6693 C 587.291 4.29819 -4.35801 0
M  V30 6694 N 586.428 5.50186 -4.36164 0
M  V30 6695 H 591.268 1.36151 -2.65079 0
M  V30 6696 H 588.805 0.661585 -1.31383 0
M  V30 6697 H 590.763 3.72093 -1.88687 0
M  V30 6698 H 589.393 3.0892 -0.936374 0
M  V30 6699 H 588.445 2.12425 -3.15562 0
M  V30 6700 H 589.757 2.96474 -4.01129 0
M  V30 6701 H 588.911 5.16811 -3.17791 0
M  V30 6702 H 587.65 4.34307 -2.21876 0
M  V30 6703 H 586.655 3.39902 -4.32142 0
M  V30 6704 H 587.88 4.25685 -5.29121 0
M  V30 6705 H 585.826 5.56735 -3.46961 0
M  V30 6706 H 585.743 5.48856 -5.19897 0
M  V30 6707 H 587.011 6.40559 -4.44189 0
M  V30 6708 N 591.24 1.41047 0.703093 0
M  V30 6709 C 592.17 1.45067 1.82969 0
M  V30 6710 C 593.151 0.31016 1.67248 0
M  V30 6711 O 594.336 0.520548 1.87093 0
M  V30 6712 C 591.466 1.32478 3.2104 0
M  V30 6713 C 590.42 2.44262 3.51454 0
M  V30 6714 C 589.746 2.16742 4.88801 0
M  V30 6715 C 591.046 3.86606 3.51189 0
M  V30 6716 H 592.74 2.39353 1.79863 0
M  V30 6717 H 590.286 1.15206 0.863919 0
M  V30 6718 H 592.239 1.33904 3.99559 0
M  V30 6719 H 590.963 0.346735 3.24754 0
M  V30 6720 H 589.622 2.42107 2.75282 0
M  V30 6721 H 589.27 1.17299 4.89132 0
M  V30 6722 H 588.97 2.91643 5.10116 0
M  V30 6723 H 590.494 2.19872 5.69639 0
M  V30 6724 H 591.908 3.90517 4.19725 0
M  V30 6725 H 590.305 4.61128 3.84033 0
M  V30 6726 H 591.375 4.15296 2.50315 0
M  V30 6727 N 592.718 -0.936591 1.26751 0
M  V30 6728 C 593.65 -2.03991 1.045 0
M  V30 6729 C 594.663 -1.628 0.00394261 0
M  V30 6730 O 595.852 -1.76817 0.244526 0
M  V30 6731 C 592.952 -3.34218 0.561403 0
M  V30 6732 C 592.125 -4.04151 1.67274 0
M  V30 6733 C 591.184 -5.12651 1.1864 0
M  V30 6734 O 590.21 -5.37104 1.88437 0
M  V30 6735 N 591.412 -5.80488 0.037278 0
M  V30 6736 H 594.177 -2.23644 1.99508 0
M  V30 6737 H 591.738 -1.10638 1.18198 0
M  V30 6738 H 593.73 -4.04101 0.220136 0
M  V30 6739 H 592.3 -3.11203 -0.295211 0
M  V30 6740 H 591.52 -3.28121 2.18472 0
M  V30 6741 H 592.808 -4.47626 2.41885 0
M  V30 6742 H 592.206 -5.63064 -0.545494 0
M  V30 6743 H 590.763 -6.5134 -0.244877 0
M  V30 6744 N 594.196 -1.08629 -1.14182 0
M  V30 6745 C 595.128 -0.676189 -2.18998 0
M  V30 6746 C 596.141 0.277871 -1.60411 0
M  V30 6747 O 597.33 0.0651771 -1.78381 0
M  V30 6748 C 594.43 0.0254916 -3.3889 0
M  V30 6749 C 593.603 -0.948039 -4.27002 0
M  V30 6750 C 592.662 -0.281268 -5.25448 0
M  V30 6751 O 591.688 -0.926378 -5.61611 0
M  V30 6752 N 592.89 0.967923 -5.72374 0
M  V30 6753 H 595.655 -1.57792 -2.54798 0
M  V30 6754 H 593.216 -0.972665 -1.29425 0
M  V30 6755 H 595.208 0.482554 -4.01813 0
M  V30 6756 H 593.778 0.829348 -3.01398 0
M  V30 6757 H 592.998 -1.58388 -3.6098 0
M  V30 6758 H 594.286 -1.60765 -4.82734 0
M  V30 6759 H 593.684 1.51175 -5.45126 0
M  V30 6760 H 592.241 1.36844 -6.37273 0
M  V30 6761 N 595.674 1.31259 -0.872281 0
M  V30 6762 C 596.922 1.96233 -0.483409 0
M  V30 6763 C 597.243 1.69276 0.968012 0
M  V30 6764 O 596.513 1.00943 1.67891 0
M  V30 6765 H 595.093 0.726025 -0.175774 0
M  V30 6766 H 597.755 1.60024 -1.11258 0
M  V30 6767 H 596.851 3.05403 -0.643075 0
M  V30 6768 N 597.152 0.631951 1.44375 0
M  V30 6769 C 598.401 0.134214 2.01253 0
M  V30 6770 C 598.714 -1.25171 1.50305 0
M  V30 6771 O 599.92 -1.8435 1.99317 0
M  V30 6772 C 598.376 0.189187 3.59402 0
M  V30 6773 C 597.984 1.57647 4.19346 0
M  V30 6774 C 599.728 -0.252044 4.23751 0
M  V30 6775 C 597.635 1.58651 5.69722 0
M  V30 6776 H 596.565 0.0464101 0.75257 0
M  V30 6777 H 599.216 0.790868 1.65582 0
M  V30 6778 H 597.598 -0.534584 3.92375 0
M  V30 6779 H 598.772 2.32389 3.97909 0
M  V30 6780 H 597.087 1.96186 3.67288 0
M  V30 6781 H 599.684 -0.264084 5.34047 0
M  V30 6782 H 600.027 -1.27951 3.96149 0
M  V30 6783 H 600.56 0.41926 3.95584 0
M  V30 6784 H 597.299 2.59237 6.0206 0
M  V30 6785 H 596.819 0.882039 5.93279 0
M  V30 6786 H 598.498 1.32082 6.33375 0
M  V30 6787 N 598.631 -1.53133 0.372548 0
M  V30 6788 C 600.042 -1.86404 -0.105155 0
M  V30 6789 C 600.393 -1.29289 -1.47576 0
M  V30 6790 O 599.518 -0.617646 -2.07398 0
M  V30 6791 C 600.113 -3.38223 -0.197588 0
M  V30 6792 C 598.672 -3.71266 -0.619556 0
M  V30 6793 C 597.819 -2.76353 0.228919 0
M  V30 6794 H 600.77 -1.47282 0.591077 0
M  V30 6795 H 600.791 -3.66577 -1.01987 0
M  V30 6796 H 600.303 -3.79763 0.800099 0
M  V30 6797 H 598.404 -3.35287 -1.62522 0
M  V30 6798 H 598.517 -4.77515 -0.389332 0
M  V30 6799 H 596.881 -2.52888 -0.303271 0
M  V30 6800 H 597.664 -3.20728 1.22428 0
M  V30 6801 N 600.109 -0.101901 -1.5727 0
M  V30 6802 C 601.52 0.426173 -1.81771 0
M  V30 6803 C 601.871 1.67725 -1.01797 0
M  V30 6804 O 600.996 2.14958 -0.249386 0
M  V30 6805 C 601.591 0.779962 -3.297 0
M  V30 6806 C 600.15 1.25275 -3.54941 0
M  V30 6807 C 599.297 0.252814 -2.76145 0
M  V30 6808 H 602.248 -0.32726 -1.55289 0
M  V30 6809 H 602.269 1.63891 -3.43395 0
M  V30 6810 H 601.781 -0.130778 -3.8788 0
M  V30 6811 H 599.882 2.18097 -3.021 0
M  V30 6812 H 599.995 1.20988 -4.63572 0
M  V30 6813 H 598.359 0.736362 -2.43823 0
M  V30 6814 H 599.142 -0.650724 -3.37076 0
M  V30 6815 N 601.587 1.56661 0.17182 0
M  V30 6816 C 602.812 1.86459 0.908165 0
M  V30 6817 C 603.237 0.688181 1.75059 0
M  V30 6818 O 602.595 -0.362753 1.77634 0
M  V30 6819 C 602.643 3.14669 1.76112 0
M  V30 6820 O 601.747 2.96858 2.86268 0
M  V30 6821 H 601.088 0.613318 0.254434 0
M  V30 6822 H 603.618 2.03892 0.170113 0
M  V30 6823 H 603.628 3.46061 2.16115 0
M  V30 6824 H 602.303 3.99905 1.14233 0
M  V30 6825 H 600.88 2.76819 2.49852 0
M  V30 6826 N 603.065 -0.440357 1.51323 0
M  V30 6827 C 604.313 -1.18769 1.63518 0
M  V30 6828 C 604.634 -1.91793 0.352201 0
M  V30 6829 O 603.904 -1.85432 -0.631811 0
M  V30 6830 H 602.484 -0.441408 0.602634 0
M  V30 6831 H 605.146 -0.505162 1.8824 0
M  V30 6832 H 604.242 -1.91892 2.46138 0
M  V30 6833 N 604.543 -1.41418 -0.695603 0
M  V30 6834 C 605.954 -1.36335 -1.27552 0
M  V30 6835 C 606.305 -0.0464336 -1.96145 0
M  V30 6836 O 605.43 0.855304 -1.9878 0
M  V30 6837 C 606.025 -2.46941 -2.3196 0
M  V30 6838 C 604.584 -2.45256 -2.85529 0
M  V30 6839 C 603.731 -2.2679 -1.59566 0
M  V30 6840 H 606.682 -1.50934 -0.490362 0
M  V30 6841 H 606.703 -2.15997 -3.1325 0
M  V30 6842 H 606.215 -3.42775 -1.82008 0
M  V30 6843 H 604.316 -1.53179 -3.39657 0
M  V30 6844 H 604.429 -3.41565 -3.35961 0
M  V30 6845 H 602.793 -1.74667 -1.85374 0
M  V30 6846 H 603.576 -3.24651 -1.1161 0
M  V30 6847 N 606.021 0.929856 -1.27246 0
M  V30 6848 C 606.984 2.01172 -1.09829 0
M  V30 6849 C 607.984 1.60743 -0.0429687 0
M  V30 6850 O 609.174 1.71813 -0.287373 0
M  V30 6851 C 606.306 3.34191 -0.673003 0
M  V30 6852 H 607.499 2.18054 -2.05895 0
M  V30 6853 H 605.052 1.11036 -1.10003 0
M  V30 6854 H 605.787 3.23009 0.289134 0
M  V30 6855 H 605.572 3.64892 -1.43515 0
M  V30 6856 H 607.062 4.13646 -0.573323 0
M  V30 6857 N 607.499 1.09233 1.13605 0
M  V30 6858 C 608.747 0.825525 1.84471 0
M  V30 6859 C 609.068 -0.650702 1.83823 0
M  V30 6860 O 608.338 -1.47204 1.29259 0
M  V30 6861 H 606.918 0.3024 0.683054 0
M  V30 6862 H 609.58 1.38006 1.37624 0
M  V30 6863 H 608.676 1.17727 2.89045 0
M  V30 6864 N 608.977 -1.30795 0.87923 0
M  V30 6865 C 609.887 -2.32041 0.345565 0
M  V30 6866 C 610.903 -1.65103 -0.549265 0
M  V30 6867 O 612.079 -1.9645 -0.443763 0
M  V30 6868 C 609.144 -3.43944 -0.436245 0
M  V30 6869 C 608.205 -4.26521 0.48765 0
M  V30 6870 C 607.438 -5.33081 -0.256943 0
M  V30 6871 O 607.661 -5.50762 -1.48381 0
M  V30 6872 O 606.595 -6.00635 0.389985 0
M  V30 6873 H 610.421 -2.79627 1.18501 0
M  V30 6874 H 608.006 -1.3486 0.642885 0
M  V30 6875 H 609.888 -4.12128 -0.879119 0
M  V30 6876 H 608.563 -2.98504 -1.25208 0
M  V30 6877 H 607.47 -3.61057 0.979216 0
M  V30 6878 H 608.803 -4.75551 1.26933 0
M  V30 6879 N 610.455 -0.639598 -1.44038 0
M  V30 6880 C 611.385 0.0469443 -2.33453 0
M  V30 6881 C 612.366 0.82609 -1.48694 0
M  V30 6882 O 613.551 0.790285 -1.77393 0
M  V30 6883 C 610.681 1.02338 -3.3188 0
M  V30 6884 C 609.635 0.355284 -4.26523 0
M  V30 6885 C 608.961 1.44221 -5.14883 0
M  V30 6886 C 610.261 -0.743798 -5.16977 0
M  V30 6887 H 611.955 -0.699735 -2.91108 0
M  V30 6888 H 609.501 -0.337946 -1.39978 0
M  V30 6889 H 611.454 1.51247 -3.93322 0
M  V30 6890 H 610.178 1.80105 -2.72451 0
M  V30 6891 H 608.837 -0.113239 -3.66425 0
M  V30 6892 H 608.485 2.21097 -4.51802 0
M  V30 6893 H 608.185 1.00052 -5.79019 0
M  V30 6894 H 609.709 1.93295 -5.79197 0
M  V30 6895 H 611.123 -0.337444 -5.72306 0
M  V30 6896 H 609.52 -1.10914 -5.89761 0
M  V30 6897 H 610.59 -1.60745 -4.57481 0
M  V30 6898 N 611.933 1.52934 -0.380664 0
M  V30 6899 C 612.88 2.26197 0.458641 0
M  V30 6900 C 613.85 1.27462 1.06502 0
M  V30 6901 O 615.035 1.56274 1.09467 0
M  V30 6902 C 612.175 3.06571 1.58456 0
M  V30 6903 C 611.288 4.20222 1.00189 0
M  V30 6904 C 610.423 4.88007 2.09815 0
M  V30 6905 C 609.462 5.93665 1.49092 0
M  V30 6906 N 608.599 6.55081 2.52613 0
M  V30 6907 H 613.439 2.975 -0.172595 0
M  V30 6908 H 610.976 1.4678 -0.0969426 0
M  V30 6909 H 612.934 3.51455 2.24801 0
M  V30 6910 H 611.564 2.37494 2.18624 0
M  V30 6911 H 610.616 3.79714 0.228292 0
M  V30 6912 H 611.928 4.96102 0.518064 0
M  V30 6913 H 611.082 5.36151 2.83948 0
M  V30 6914 H 609.821 4.11632 2.61555 0
M  V30 6915 H 608.826 5.44868 0.7348 0
M  V30 6916 H 610.051 6.71969 0.981582 0
M  V30 6917 H 607.997 5.8155 3.03538 0
M  V30 6918 H 607.914 7.26548 2.08961 0
M  V30 6919 H 609.182 7.07871 3.26402 0
M  V30 6920 N 613.412 0.11024 1.57214 0
M  V30 6921 C 614.659 -0.54987 1.94891 0
M  V30 6922 C 614.987 -1.67243 0.992984 0
M  V30 6923 O 614.242 -1.95694 0.0152703 0
M  V30 6924 C 614.541 -1.13102 3.39032 0
M  V30 6925 C 614.207 -0.130713 4.5071 0
M  V30 6926 C 612.869 0.14437 4.80983 0
M  V30 6927 C 615.221 0.551472 5.18274 0
M  V30 6928 C 612.549 1.10807 5.76141 0
M  V30 6929 C 614.901 1.50375 6.14467 0
M  V30 6930 C 613.565 1.78691 6.43138 0
M  V30 6931 H 612.835 -0.201212 0.713158 0
M  V30 6932 H 615.482 0.189288 1.90562 0
M  V30 6933 H 613.787 -1.94675 3.40013 0
M  V30 6934 H 615.484 -1.64973 3.65493 0
M  V30 6935 H 612.074 -0.355301 4.27125 0
M  V30 6936 H 616.258 0.35211 4.95049 0
M  V30 6937 H 611.514 1.3343 5.96663 0
M  V30 6938 H 615.688 2.03808 6.65909 0
M  V30 6939 H 613.315 2.53522 7.1668 0
M  V30 6940 N 614.89 -1.56749 -0.16351 0
M  V30 6941 C 615.8 -2.00255 -1.2221 0
M  V30 6942 C 616.816 -0.915194 -1.47987 0
M  V30 6943 O 617.992 -1.22342 -1.59982 0
M  V30 6944 C 615.057 -2.36035 -2.53946 0
M  V30 6945 C 614.118 -3.58637 -2.35962 0
M  V30 6946 C 613.351 -3.92701 -3.61416 0
M  V30 6947 O 613.574 -3.27632 -4.66919 0
M  V30 6948 O 612.508 -4.86019 -3.55062 0
M  V30 6949 H 616.334 -2.90586 -0.882794 0
M  V30 6950 H 613.919 -1.44721 -0.370978 0
M  V30 6951 H 615.801 -2.59982 -3.31643 0
M  V30 6952 H 614.476 -1.48863 -2.8744 0
M  V30 6953 H 613.383 -3.39898 -1.5627 0
M  V30 6954 H 614.716 -4.46374 -2.0739 0
M  V30 6955 N 616.368 0.432326 -1.51554 0
M  V30 6956 C 617.779 1.01202 -1.56892 0
M  V30 6957 C 618.13 1.92175 -0.395394 0
M  V30 6958 O 617.255 2.10844 0.487198 0
M  V30 6959 C 617.85 1.84217 -2.8434 0
M  V30 6960 C 616.409 2.37228 -2.92233 0
M  V30 6961 C 615.556 1.16576 -2.51606 0
M  V30 6962 H 618.507 0.213407 -1.57259 0
M  V30 6963 H 618.528 2.69721 -2.68385 0
M  V30 6964 H 618.04 1.17979 -3.69733 0
M  V30 6965 H 616.141 3.06905 -2.11282 0
M  V30 6966 H 616.254 2.69682 -3.95991 0
M  V30 6967 H 614.618 1.51263 -2.04919 0
M  V30 6968 H 615.401 0.519404 -3.39348 0
M  V30 6969 N 617.846 1.41785 0.688094 0
M  V30 6970 C 618.796 1.40684 1.79421 0
M  V30 6971 C 619.78 0.280096 1.58443 0
M  V30 6972 O 620.972 0.521332 1.69148 0
M  V30 6973 C 618.101 1.29874 3.17785 0
M  V30 6974 C 617.187 2.47442 3.44432 0
M  V30 6975 N 617.578 3.72895 3.41736 0
M  V30 6976 C 615.876 2.41416 3.75013 0
M  V30 6977 C 616.577 4.50912 3.67496 0
M  V30 6978 N 615.553 3.81131 3.87608 0
M  V30 6979 H 619.355 2.35591 1.7571 0
M  V30 6980 H 616.869 1.35946 0.888393 0
M  V30 6981 H 618.866 1.27168 3.97031 0
M  V30 6982 H 617.526 0.359587 3.22703 0
M  V30 6983 H 618.537 4.05676 3.21943 0
M  V30 6984 H 615.214 1.56011 3.87256 0
M  V30 6985 H 616.604 5.59865 3.71484 0
M  V30 6986 N 619.324 -0.923095 1.27737 0
M  V30 6987 C 620.573 -1.66581 1.13727 0
M  V30 6988 C 620.886 -1.9304 -0.315433 0
M  V30 6989 O 622.092 -2.65309 -0.57651 0
M  V30 6990 C 620.548 -3.00047 1.98745 0
M  V30 6991 C 620.156 -2.8127 3.48699 0
M  V30 6992 C 621.9 -3.77887 1.93395 0
M  V30 6993 C 619.807 -4.1032 4.25901 0
M  V30 6994 H 618.737 -0.624834 0.422017 0
M  V30 6995 H 621.388 -1.02514 1.52194 0
M  V30 6996 H 619.77 -3.65197 1.53125 0
M  V30 6997 H 620.944 -2.24859 4.02213 0
M  V30 6998 H 619.259 -2.16854 3.55476 0
M  V30 6999 H 621.856 -4.73526 2.48348 0
M  V30 7000 H 622.199 -4.06264 0.908605 0
M  V30 7001 H 622.732 -3.19541 2.36935 0
M  V30 7002 H 619.471 -3.8712 5.28978 0
M  V30 7003 H 618.991 -4.66377 3.77163 0
M  V30 7004 H 620.67 -4.78648 4.35321 0
M  V30 7005 O 620.841 -1.22056 -1.05757 0
M  V30 7006 H 621.532 -0.983935 -1.66848 0
M  V30 END ATOM
M  V30 BEGIN BOND
M  V30 END BOND
M  V30 END CTAB
M  END
$$$$
