drugbank_target|P80380 30S ribosomal protein S20 (DB08185)
 OpenBabel12092120483D

  0  0  0     0  0            999 V3000
M  V30 BEGIN CTAB
M  V30 COUNTS 1751 1754 0 0 0
M  V30 BEGIN ATOM
M  V30 1 H -0.908 1.98254 -0.117106 0
M  V30 2 N 0 1.576 0 0
M  V30 3 C 0.933 2.03868 1.02534 0
M  V30 4 C 1.911 0.928543 1.3348 0
M  V30 5 O 3.095 1.19667 1.45644 0
M  V30 6 C 0.222 2.43627 2.35294 0
M  V30 7 C -0.732 3.65373 2.2001 0
M  V30 8 S 0.101 5.13292 1.52614 0
M  V30 9 C 1.257 5.56322 2.86805 0
M  V30 10 H 1.49 2.90518 0.631377 0
M  V30 11 H -0.977 1.52953 0.210867 0
M  V30 12 H 0.981 2.67203 3.11629 0
M  V30 13 H -0.358 1.57376 2.7183 0
M  V30 14 H -1.165 3.90944 3.18086 0
M  V30 15 H -1.563 3.418 1.51819 0
M  V30 16 H 0.729 5.58782 3.83104 0
M  V30 17 H 1.672 6.56266 2.65933 0
M  V30 18 H 2.08 4.83886 2.90714 0
M  V30 19 N 1.4781 -0.272755 1.55222 0
M  V30 20 C 2.4411 -1.32041 1.87344 0
M  V30 21 C 3.4411 -1.42342 0.74803 0
M  V30 22 O 4.6311 -1.41488 1.0162 0
M  V30 23 C 1.7631 -2.70173 2.07893 0
M  V30 24 H 2.9561 -1.04789 2.80997 0
M  V30 25 H 0.5091 -0.51083 1.47717 0
M  V30 26 H 1.2441 -3.02605 1.16622 0
M  V30 27 H 1.0291 -2.64082 2.89833 0
M  V30 28 H 2.5191 -3.45869 2.34017 0
M  V30 29 N 2.9562 -1.48159 -0.537278 0
M  V30 30 C 3.8882 -1.58218 -1.65831 0
M  V30 31 C 4.9012 -0.466948 -1.5596 0
M  V30 32 O 6.0902 -0.73747 -1.62553 0
M  V30 33 C 3.1902 -1.48906 -3.04434 0
M  V30 34 C 2.3632 -2.75343 -3.3986 0
M  V30 35 C 1.4222 -2.59588 -4.57712 0
M  V30 36 O 0.4482 -3.33457 -4.61297 0
M  V30 37 N 1.6502 -1.68724 -5.55439 0
M  V30 38 H 4.4152 -2.54891 -1.57641 0
M  V30 39 H 1.9762 -1.4479 -0.724386 0
M  V30 40 H 3.9682 -1.36072 -3.81139 0
M  V30 41 H 2.5382 -0.602368 -3.06741 0
M  V30 42 H 1.7582 -3.02795 -2.52406 0
M  V30 43 H 3.0462 -3.5924 -3.60311 0
M  V30 44 H 2.4442 -1.07898 -5.55315 0
M  V30 45 H 1.0012 -1.61832 -6.3139 0
M  V30 46 N 4.4343 0.785586 -1.36625 0
M  V30 47 C 5.3813 1.89838 -1.31264 0
M  V30 48 C 6.3513 1.65115 -0.180633 0
M  V30 49 O 7.5363 1.87222 -0.36777 0
M  V30 50 C 4.6763 3.26706 -1.11163 0
M  V30 51 C 3.7893 3.63476 -2.33472 0
M  V30 52 C 2.9243 4.89481 -2.06353 0
M  V30 53 C 1.9633 5.18941 -3.24602 0
M  V30 54 N 1.1003 6.36131 -2.97123 0
M  V30 55 H 5.9403 1.93756 -2.26413 0
M  V30 56 H 3.4773 0.947454 -1.12524 0
M  V30 57 H 5.4353 4.05639 -0.975337 0
M  V30 58 H 4.0653 3.222 -0.196674 0
M  V30 59 H 3.1173 2.79636 -2.57891 0
M  V30 60 H 4.4293 3.81193 -3.21704 0
M  V30 61 H 3.5833 5.76288 -1.89675 0
M  V30 62 H 2.3223 4.73841 -1.15437 0
M  V30 63 H 1.3273 4.30615 -3.41834 0
M  V30 64 H 2.5523 5.36498 -4.16349 0
M  V30 65 H 0.4983 6.21875 -2.08823 0
M  V30 66 H 0.4153 6.54198 -3.78894 0
M  V30 67 H 1.6833 7.2591 -2.84033 0
M  V30 68 N 5.9124 1.20967 1.01018 0
M  V30 69 C 6.8594 0.964281 2.09691 0
M  V30 70 C 7.8294 -0.107853 1.65749 0
M  V30 71 O 9.0144 0.0381987 1.90762 0
M  V30 72 C 6.1544 0.52943 3.41015 0
M  V30 73 C 5.2674 1.67043 3.98398 0
M  V30 74 C 4.4024 1.18525 5.17808 0
M  V30 75 C 3.4414 2.29892 5.67288 0
M  V30 76 N 2.5784 1.82546 6.77954 0
M  V30 77 H 7.4184 1.89463 2.30017 0
M  V30 78 H 4.9554 0.944289 1.1279 0
M  V30 79 H 6.9134 0.258588 4.16398 0
M  V30 80 H 5.5434 -0.363919 3.20742 0
M  V30 81 H 4.5954 2.05603 3.20049 0
M  V30 82 H 5.9074 2.50877 4.31117 0
M  V30 83 H 5.0614 0.870762 6.00419 0
M  V30 84 H 3.8004 0.316887 4.86669 0
M  V30 85 H 2.8054 2.6215 4.83278 0
M  V30 86 H 4.0304 3.17216 6.00459 0
M  V30 87 H 1.9764 0.980454 6.48632 0
M  V30 88 H 1.8934 2.59956 7.09901 0
M  V30 89 H 3.1614 1.54115 7.64113 0
M  V30 90 N 7.3905 -1.2043 1.01659 0
M  V30 91 C 8.8015 -1.71517 0.737482 0
M  V30 92 C 9.1525 -1.81547 -0.743973 0
M  V30 93 O 8.2775 -1.47803 -1.58061 0
M  V30 94 C 8.8725 -3.11515 1.33206 0
M  V30 95 C 7.4315 -3.59912 1.10183 0
M  V30 96 C 6.5785 -2.37116 1.43776 0
M  V30 97 H 9.5295 -1.05444 1.18606 0
M  V30 98 H 9.5505 -3.73575 0.722636 0
M  V30 99 H 9.0625 -3.04182 2.41028 0
M  V30 100 H 7.1635 -3.72577 0.0412756 0
M  V30 101 H 7.2765 -4.44731 1.78188 0
M  V30 102 H 5.6405 -2.39857 0.856778 0
M  V30 103 H 6.4235 -2.32424 2.52654 0
M  V30 104 N 8.8686 -0.792821 -1.36206 0
M  V30 105 C 9.8156 -0.191653 -2.30003 0
M  V30 106 C 10.7856 0.666453 -1.52143 0
M  V30 107 O 11.9706 0.61442 -1.80636 0
M  V30 108 C 9.1106 0.664848 -3.38635 0
M  V30 109 C 8.2236 -0.212175 -4.31479 0
M  V30 110 C 7.3586 0.651022 -5.27196 0
M  V30 111 C 6.3976 -0.227247 -6.11678 0
M  V30 112 N 5.5346 0.595127 -6.99573 0
M  V30 113 H 10.3746 -0.996978 -2.80828 0
M  V30 114 H 7.9116 -0.503206 -1.38225 0
M  V30 115 H 9.8696 1.17645 -4.00269 0
M  V30 116 H 8.4996 1.43557 -2.89122 0
M  V30 117 H 7.5516 -0.841777 -3.70969 0
M  V30 118 H 8.8636 -0.888751 -4.90818 0
M  V30 119 H 8.0176 1.2283 -5.94136 0
M  V30 120 H 6.7566 1.36121 -4.68319 0
M  V30 121 H 5.7616 -0.816904 -5.43697 0
M  V30 122 H 6.9866 -0.93509 -6.72631 0
M  V30 123 H 4.9326 1.28955 -6.432 0
M  V30 124 H 4.8496 -0.0236952 -7.55996 0
M  V30 125 H 6.1176 1.15613 -7.70879 0
M  V30 126 N 10.3467 1.47872 -0.545128 0
M  V30 127 C 11.7627 1.5829 -0.204032 0
M  V30 128 C 11.9627 1.54529 1.29317 0
M  V30 129 O 11.0187 1.44232 2.07252 0
M  V30 130 C 12.3317 2.89304 -0.819987 0
M  V30 131 C 13.8797 3.02864 -0.790105 0
M  V30 132 C 14.3547 4.3656 -1.38491 0
M  V30 133 N 15.8457 4.43165 -1.34755 0
M  V30 134 C 16.5807 5.45153 -1.77753 0
M  V30 135 N 16.0767 6.54016 -2.2855 0
M  V30 136 N 17.8697 5.36125 -1.68897 0
M  V30 137 H 10.0207 1.4856 -1.51802 0
M  V30 138 H 12.2837 0.706305 -0.632327 0
M  V30 139 H 11.9897 2.97757 -1.87173 0
M  V30 140 H 11.8637 3.75957 -0.305915 0
M  V30 141 H 14.2507 2.94014 0.252913 0
M  V30 142 H 14.3317 2.17782 -1.34181 0
M  V30 143 H 13.9757 4.46164 -2.42693 0
M  V30 144 H 13.9057 5.20353 -0.808754 0
M  V30 145 H 16.3967 3.65083 -0.975855 0
M  V30 146 H 16.7097 7.27994 -2.59314 0
M  V30 147 H 15.0547 6.54938 -2.32553 0
M  V30 148 H 18.2457 4.49975 -1.28998 0
M  V30 149 H 18.4187 6.15472 -2.02726 0
M  V30 150 N 11.8248 0.280983 1.55075 0
M  V30 151 C 12.7728 -0.619864 2.24188 0
M  V30 152 C 13.7668 -1.15315 1.24092 0
M  V30 153 O 14.9728 -1.1061 1.42005 0
M  V30 154 H 11.3478 -0.218459 0.719569 0
M  V30 155 H 13.3188 -0.0141831 2.98397 0
M  V30 156 C 12.0678 -1.7899 2.98091 0
M  V30 157 H 11.3908 -1.38874 3.74905 0
M  V30 158 H 12.8308 -2.39672 3.49762 0
M  V30 159 C 11.2898 -2.68192 2.03899 0
M  V30 160 O 11.8198 -3.6872 1.594 0
M  V30 161 N 10.0258 -2.35488 1.70275 0
M  V30 162 H 9.5728 -1.53787 2.06658 0
M  V30 163 H 9.5308 -2.95442 1.07524 0
M  V30 164 N 13.3029 -1.57598 0.00835791 0
M  V30 165 C 14.2329 -2.1198 -0.979113 0
M  V30 166 C 15.2139 -1.03091 -1.35301 0
M  V30 167 O 16.3989 -1.30818 -1.43528 0
M  V30 168 C 13.5289 -2.62995 -2.26828 0
M  V30 169 C 12.4829 -3.76485 -2.03576 0
M  V30 170 C 11.8089 -4.13846 -3.38579 0
M  V30 171 C 13.1089 -5.0342 -1.39161 0
M  V30 172 H 14.8029 -2.94738 -0.526281 0
M  V30 173 H 12.3489 -1.41783 -0.251704 0
M  V30 174 H 14.3019 -2.99669 -2.96271 0
M  V30 175 H 13.0259 -1.7737 -2.7424 0
M  V30 176 H 11.6849 -3.40217 -1.36557 0
M  V30 177 H 11.3329 -3.25232 -3.83709 0
M  V30 178 H 11.0329 -4.90312 -3.23834 0
M  V30 179 H 12.5569 -4.53086 -4.09323 0
M  V30 180 H 13.9709 -5.37812 -1.98573 0
M  V30 181 H 12.3679 -5.84746 -1.34878 0
M  V30 182 H 13.4379 -4.83548 -0.361868 0
M  V30 183 N 14.781 0.264519 -1.55364 0
M  V30 184 C 16.006 1.01726 -1.80739 0
M  V30 185 C 16.431 1.78836 -0.583044 0
M  V30 186 O 15.789 1.75167 0.467566 0
M  V30 187 C 15.837 1.94482 -3.03659 0
M  V30 188 O 14.941 3.03386 -2.7934 0
M  V30 189 H 14.282 0.290395 -0.597132 0
M  V30 190 H 16.812 0.290854 -2.02522 0
M  V30 191 H 16.822 2.36278 -3.32621 0
M  V30 192 H 15.497 1.37772 -3.92418 0
M  V30 193 H 14.074 2.65844 -2.61498 0
M  V30 194 N 16.2591 1.48442 0.529413 0
M  V30 195 C 17.2221 1.62524 1.61612 0
M  V30 196 C 18.2221 0.498509 1.52877 0
M  V30 197 O 19.4121 0.76431 1.56537 0
M  V30 198 C 16.5441 1.59597 3.01233 0
M  V30 199 H 17.7371 2.59423 1.50465 0
M  V30 200 H 15.2901 1.37047 0.751514 0
M  V30 201 H 16.0251 0.641781 3.17886 0
M  V30 202 H 15.8101 2.41397 3.08982 0
M  V30 203 H 17.3001 1.72646 3.80241 0
M  V30 204 N 17.7372 -0.778329 1.37039 0
M  V30 205 C 18.6672 -1.90546 1.34962 0
M  V30 206 C 19.6482 -1.68681 0.219274 0
M  V30 207 O 20.8332 -1.89634 0.418624 0
M  V30 208 C 17.9632 -3.27734 1.14925 0
M  V30 209 C 16.9172 -3.64147 2.24902 0
M  V30 210 C 16.2432 -4.99806 1.89996 0
M  V30 211 C 17.5432 -3.71579 3.67051 0
M  V30 212 H 19.2372 -1.92541 2.29277 0
M  V30 213 H 16.7832 -0.924948 1.10366 0
M  V30 214 H 18.7362 -4.06215 1.12104 0
M  V30 215 H 17.4602 -3.26154 0.170631 0
M  V30 216 H 16.1192 -2.8797 2.26868 0
M  V30 217 H 15.7672 -4.94759 0.906796 0
M  V30 218 H 15.4672 -5.25139 2.63634 0
M  V30 219 H 16.9912 -5.80694 1.88749 0
M  V30 220 H 18.4052 -4.40227 3.67251 0
M  V30 221 H 16.8022 -4.08405 4.39688 0
M  V30 222 H 17.8722 -2.72404 4.01154 0
M  V30 223 N 19.2153 -1.21501 -1.00376 0
M  V30 224 C 20.1623 -0.975387 -2.09177 0
M  V30 225 C 21.1323 0.0990615 -1.65804 0
M  V30 226 O 22.3173 -0.0483147 -1.90739 0
M  V30 227 C 19.4573 -0.547507 -3.40729 0
M  V30 228 C 18.5703 -1.69153 -3.97506 0
M  V30 229 C 17.7053 -1.2127 -5.17172 0
M  V30 230 C 16.7443 -2.32897 -5.66061 0
M  V30 231 N 15.8813 -1.86138 -6.76976 0
M  V30 232 H 20.7213 -1.9068 -2.29009 0
M  V30 233 H 18.2583 -0.950257 -1.12288 0
M  V30 234 H 20.2163 -0.280667 -4.16255 0
M  V30 235 H 18.8463 0.346904 -3.20931 0
M  V30 236 H 17.8983 -2.07298 -3.18954 0
M  V30 237 H 19.2103 -2.5316 -4.29781 0
M  V30 238 H 18.3643 -0.902591 -5.99948 0
M  V30 239 H 17.1033 -0.342692 -4.86495 0
M  V30 240 H 16.1083 -2.64709 -4.81881 0
M  V30 241 H 17.3333 -3.20396 -5.98768 0
M  V30 242 H 15.2793 -1.01484 -6.48103 0
M  V30 243 H 15.1963 -2.63717 -7.08512 0
M  V30 244 H 16.4643 -1.58165 -7.63285 0
M  V30 245 N 20.6934 1.19889 -1.02296 0
M  V30 246 C 22.1094 1.41462 -0.738954 0
M  V30 247 C 22.3094 1.89721 0.678846 0
M  V30 248 O 21.3654 2.07016 1.4457 0
M  V30 249 C 22.6784 2.43083 -1.77005 0
M  V30 250 C 24.2264 2.5684 -1.78892 0
M  V30 251 C 24.7014 3.61709 -2.80945 0
M  V30 252 N 26.1924 3.69199 -2.79725 0
M  V30 253 C 26.9274 4.50019 -3.55345 0
M  V30 254 N 26.4234 5.34592 -4.40662 0
M  V30 255 N 28.2164 4.44612 -3.43914 0
M  V30 256 H 20.3674 0.868827 -1.93817 0
M  V30 257 H 22.6304 0.44399 -0.837602 0
M  V30 258 H 22.3364 2.14636 -2.78612 0
M  V30 259 H 22.2104 3.4217 -1.58744 0
M  V30 260 H 24.5974 2.84614 -0.779674 0
M  V30 261 H 24.6784 1.57927 -2.01228 0
M  V30 262 H 24.3224 3.34678 -3.82038 0
M  V30 263 H 24.2524 4.60259 -2.5587 0
M  V30 264 H 26.7434 3.08794 -2.17842 0
M  V30 265 H 27.0564 5.93363 -4.95116 0
M  V30 266 H 25.4014 5.34073 -4.44737 0
M  V30 267 H 28.5924 3.7758 -2.76679 0
M  V30 268 H 28.7654 5.0736 -4.031 0
M  V30 269 N 22.1715 0.800033 1.35784 0
M  V30 270 C 23.1215 0.178654 2.27299 0
M  V30 271 C 24.1055 -0.643667 1.47464 0
M  V30 272 O 25.2975 -0.502 1.69732 0
M  V30 273 C 22.4265 -0.677194 3.36555 0
M  V30 274 C 21.5125 0.154497 4.23818 0
M  V30 275 N 21.9035 1.21427 4.91008 0
M  V30 276 C 20.2015 -0.0649462 4.45953 0
M  V30 277 C 20.9025 1.72147 5.55644 0
M  V30 278 N 19.8785 1.02897 5.33773 0
M  V30 279 H 23.6805 0.989637 2.76737 0
M  V30 280 H 21.1945 0.64054 1.49234 0
M  V30 281 H 23.1915 -1.13835 4.01058 0
M  V30 282 H 21.8515 -1.4866 2.8867 0
M  V30 283 H 22.8625 1.59684 4.92668 0
M  V30 284 H 19.5395 -0.844016 4.0888 0
M  V30 285 H 20.9295 2.60683 6.19269 0
M  V30 286 N 23.6496 -1.47581 0.552962 0
M  V30 287 C 25.0656 -1.5818 0.212424 0
M  V30 288 C 25.2656 -1.55213 -1.28496 0
M  V30 289 O 24.3216 -1.45329 -2.06484 0
M  V30 290 C 25.6346 -2.88865 0.835318 0
M  V30 291 C 27.1826 -3.0244 0.806156 0
M  V30 292 C 27.6576 -4.35819 1.40804 0
M  V30 293 N 29.1486 -4.42444 1.37103 0
M  V30 294 C 29.8836 -5.44202 1.80641 0
M  V30 295 N 29.3796 -6.52795 2.32015 0
M  V30 296 N 31.1726 -5.35222 1.71738 0
M  V30 297 H 23.3236 -1.47753 1.52587 0
M  V30 298 H 25.5866 -0.702941 0.636064 0
M  V30 299 H 25.2926 -2.9676 1.88749 0
M  V30 300 H 25.1666 -3.7579 0.325848 0
M  V30 301 H 27.5536 -2.94144 -0.237317 0
M  V30 302 H 27.6346 -2.17068 1.35334 0
M  V30 303 H 27.2786 -4.44871 2.45056 0
M  V30 304 H 27.2086 -5.19916 0.836338 0
M  V30 305 H 29.6996 -3.6456 0.995202 0
M  V30 306 H 30.0126 -7.26609 2.63171 0
M  V30 307 H 28.3576 -6.53696 2.36023 0
M  V30 308 H 31.5486 -4.49284 1.31382 0
M  V30 309 H 31.7216 -6.14389 2.05987 0
M  V30 310 N 25.1277 -0.289203 -1.54924 0
M  V30 311 C 26.0597 0.625583 -2.20497 0
M  V30 312 C 27.0727 1.10667 -1.19402 0
M  V30 313 O 28.2617 1.02615 -1.46056 0
M  V30 314 C 25.3617 1.86702 -2.82835 0
M  V30 315 C 24.5347 1.5304 -4.09753 0
M  V30 316 C 23.5937 2.62576 -4.56005 0
M  V30 317 O 22.6197 2.28167 -5.21468 0
M  V30 318 N 23.8217 3.92901 -4.27328 0
M  V30 319 H 26.5867 0.0642801 -2.99631 0
M  V30 320 H 24.1477 -0.110896 -1.6152 0
M  V30 321 H 26.1397 2.59304 -3.10715 0
M  V30 322 H 24.7097 2.33702 -2.07611 0
M  V30 323 H 23.9297 0.637564 -3.8901 0
M  V30 324 H 25.2177 1.28072 -4.92418 0
M  V30 325 H 24.6157 4.23671 -3.74859 0
M  V30 326 H 23.1727 4.61837 -4.59946 0
M  V30 327 N 26.6058 1.57591 -0.0167156 0
M  V30 328 C 27.8308 1.9598 0.67872 0
M  V30 329 C 28.2558 0.892546 1.65575 0
M  V30 330 O 27.6138 -0.147772 1.80697 0
M  V30 331 C 27.6618 3.33468 1.37227 0
M  V30 332 O 26.7658 3.28954 2.48722 0
M  V30 333 H 26.1068 0.639339 0.17928 0
M  V30 334 H 28.6368 2.04463 -0.0748802 0
M  V30 335 H 28.6468 3.69417 1.7319 0
M  V30 336 H 27.3218 4.10694 0.656007 0
M  V30 337 H 25.8988 3.04705 2.14963 0
M  V30 338 N 28.0839 -0.256276 1.55502 0
M  V30 339 C 29.0139 -1.32102 1.92539 0
M  V30 340 C 29.9949 -1.50684 0.789194 0
M  V30 341 O 31.1799 -1.63449 1.04872 0
M  V30 342 C 28.3099 -2.67752 2.21192 0
M  V30 343 C 27.2639 -2.63878 3.36975 0
M  V30 344 C 26.5899 -4.03236 3.51147 0
M  V30 345 C 27.8899 -2.21682 4.72921 0
M  V30 346 H 29.5839 -1.01351 2.81724 0
M  V30 347 H 27.1299 -0.486105 1.35547 0
M  V30 348 H 29.0829 -3.42365 2.45691 0
M  V30 349 H 27.8069 -3.0012 1.28824 0
M  V30 350 H 26.4659 -1.91722 3.12471 0
M  V30 351 H 26.1139 -4.32854 2.56216 0
M  V30 352 H 25.8139 -4.01535 4.29003 0
M  V30 353 H 27.3379 -4.79563 3.77957 0
M  V30 354 H 28.7519 -2.86023 4.96854 0
M  V30 355 H 27.1489 -2.3111 5.53812 0
M  V30 356 H 28.2189 -1.16833 4.70615 0
M  V30 357 N 29.562 -1.4872 -0.521534 0
M  V30 358 C 30.509 -1.63871 -1.62527 0
M  V30 359 C 31.479 -0.480559 -1.58996 0
M  V30 360 O 32.664 -0.705085 -1.77294 0
M  V30 361 C 29.804 -1.69227 -3.00759 0
M  V30 362 C 28.917 -2.96207 -3.14461 0
M  V30 363 C 28.052 -2.92671 -4.43303 0
M  V30 364 C 27.091 -4.14318 -4.50563 0
M  V30 365 N 26.228 -4.0881 -5.70805 0
M  V30 366 H 31.068 -2.58123 -1.48918 0
M  V30 367 H 28.605 -1.28 -0.724878 0
M  V30 368 H 30.563 -1.70314 -3.80853 0
M  V30 369 H 29.193 -0.784586 -3.1312 0
M  V30 370 H 28.245 -3.04826 -2.27564 0
M  V30 371 H 29.557 -3.86192 -3.15686 0
M  V30 372 H 28.711 -2.92206 -5.31696 0
M  V30 373 H 27.45 -2.00429 -4.44612 0
M  V30 374 H 26.455 -4.15049 -3.60575 0
M  V30 375 H 27.68 -5.07729 -4.50986 0
M  V30 376 H 25.626 -3.19394 -5.72995 0
M  V30 377 H 25.543 -4.92509 -5.7356 0
M  V30 378 H 26.811 -4.12418 -6.61462 0
M  V30 379 N 31.0401 0.771051 -1.3745 0
M  V30 380 C 32.4561 1.07171 -1.18265 0
M  V30 381 C 32.6561 2.01491 -0.019287 0
M  V30 382 O 31.7121 2.44244 0.640408 0
M  V30 383 C 33.0251 1.66854 -2.50161 0
M  V30 384 C 34.5731 1.79109 -2.56689 0
M  V30 385 C 35.0481 2.42205 -3.88717 0
M  V30 386 N 36.5391 2.49655 -3.90162 0
M  V30 387 C 37.2741 2.9933 -4.8907 0
M  V30 388 N 36.7701 3.49172 -5.98374 0
M  V30 389 N 38.5631 2.9821 -4.76474 0
M  V30 390 H 30.7141 0.144796 -2.11906 0
M  V30 391 H 32.9771 0.126863 -0.939473 0
M  V30 392 H 32.6831 1.05017 -3.35655 0
M  V30 393 H 32.5571 2.6614 -2.673 0
M  V30 394 H 34.9441 2.40077 -1.71601 0
M  V30 395 H 35.0251 0.785757 -2.43433 0
M  V30 396 H 34.6691 1.81875 -4.74219 0
M  V30 397 H 34.5991 3.43345 -3.99276 0
M  V30 398 H 37.0901 2.14383 -3.11205 0
M  V30 399 H 37.4031 3.8548 -6.69795 0
M  V30 400 H 35.7481 3.47275 -6.02018 0
M  V30 401 H 38.9391 2.58572 -3.90203 0
M  V30 402 H 39.1121 3.36613 -5.53711 0
M  V30 403 N 32.5182 1.22032 0.997298 0
M  V30 404 C 33.9342 0.979326 1.26021 0
M  V30 405 C 34.1342 -0.32972 1.98784 0
M  V30 406 O 33.1902 -1.05345 2.29475 0
M  V30 407 C 34.5032 2.17509 2.07631 0
M  V30 408 C 36.0512 2.21817 2.2083 0
M  V30 409 C 36.5262 3.40933 3.05825 0
M  V30 410 N 38.0172 3.41067 3.13412 0
M  V30 411 C 38.7522 4.29885 3.79455 0
M  V30 412 N 38.2482 5.28914 4.47462 0
M  V30 413 N 40.0412 4.17673 3.76173 0
M  V30 414 H 32.1922 2.06202 0.509352 0
M  V30 415 H 34.4552 0.90334 0.287541 0
M  V30 416 H 34.1612 3.12415 1.61524 0
M  V30 417 H 34.0352 2.17206 3.08385 0
M  V30 418 H 36.4222 1.27462 2.66153 0
M  V30 419 H 36.5032 2.2616 1.1952 0
M  V30 420 H 36.1472 4.35586 2.61203 0
M  V30 421 H 36.0772 3.33829 4.07266 0
M  V30 422 H 38.5682 2.69406 2.65007 0
M  V30 423 H 38.8812 5.92973 4.95583 0
M  V30 424 H 37.2262 5.32831 4.46224 0
M  V30 425 H 40.4172 3.39564 3.22202 0
M  V30 426 H 40.5902 4.87098 4.27363 0
M  V30 427 N 33.9963 -1.19345 1.0293 0
M  V30 428 C 34.9263 -2.2481 0.631105 0
M  V30 429 C 35.9073 -1.66245 -0.360104 0
M  V30 430 O 37.0923 -1.92677 -0.242726 0
M  V30 431 C 34.2223 -3.47295 -0.0184607 0
M  V30 432 C 33.1763 -4.18536 0.895073 0
M  V30 433 C 32.5023 -5.34586 0.110592 0
M  V30 434 C 33.8023 -4.73287 2.209 0
M  V30 435 H 35.4963 -2.58372 1.51275 0
M  V30 436 H 33.0423 -1.24194 0.728818 0
M  V30 437 H 34.9953 -4.20268 -0.308675 0
M  V30 438 H 33.7193 -3.12933 -0.934907 0
M  V30 439 H 32.3783 -3.47446 1.16949 0
M  V30 440 H 32.0263 -4.96469 -0.807902 0
M  V30 441 H 31.7263 -5.83183 0.719087 0
M  V30 442 H 33.2503 -6.10355 -0.172871 0
M  V30 443 H 34.6643 -5.38013 1.98028 0
M  V30 444 H 33.0613 -5.32373 2.76946 0
M  V30 445 H 34.1313 -3.91331 2.86336 0
M  V30 446 N 35.4744 -0.807222 -1.35358 0
M  V30 447 C 36.8904 -0.491038 -1.51858 0
M  V30 448 C 37.0904 0.987648 -1.75635 0
M  V30 449 O 36.1464 1.77265 -1.79815 0
M  V30 450 C 37.4594 -1.33695 -2.69344 0
M  V30 451 C 39.0074 -1.33246 -2.83222 0
M  V30 452 C 39.4824 -2.1625 -4.03733 0
M  V30 453 N 40.9734 -2.1379 -4.10911 0
M  V30 454 C 41.7084 -2.74772 -5.03277 0
M  V30 455 N 41.2044 -3.44684 -6.0097 0
M  V30 456 N 42.9974 -2.6441 -4.96028 0
M  V30 457 H 35.1484 -1.76485 -1.18181 0
M  V30 458 H 37.4114 -0.751199 -0.578276 0
M  V30 459 H 37.1174 -2.38634 -2.58354 0
M  V30 460 H 36.9914 -0.990618 -3.6396 0
M  V30 461 H 39.3784 -0.290911 -2.93663 0
M  V30 462 H 39.4594 -1.71866 -1.89461 0
M  V30 463 H 39.1034 -3.20445 -3.94052 0
M  V30 464 H 39.0334 -1.74989 -4.96675 0
M  V30 465 H 41.5244 -1.62923 -3.40976 0
M  V30 466 H 41.8374 -3.88501 -6.68047 0
M  V30 467 H 40.1824 -3.48788 -6.01142 0
M  V30 468 H 43.3734 -2.0938 -4.18662 0
M  V30 469 H 43.5464 -3.12225 -5.6782 0
M  V30 470 N 36.9525 1.47285 -0.560781 0
M  V30 471 C 37.9005 2.31756 0.197942 0
M  V30 472 C 38.8945 1.43146 0.905854 0
M  V30 473 O 40.1005 1.59891 0.826733 0
M  V30 474 H 36.4755 0.747438 0.0827049 0
M  V30 475 H 38.4465 2.9359 -0.533629 0
M  V30 476 C 37.1955 3.25874 1.21249 0
M  V30 477 H 36.5185 3.94023 0.67719 0
M  V30 478 H 37.9585 3.87803 1.71419 0
M  V30 479 C 36.4175 2.49651 2.26221 0
M  V30 480 O 36.9475 2.24355 3.33208 0
M  V30 481 N 35.1535 2.10597 2.00243 0
M  V30 482 H 34.7005 2.31369 1.13252 0
M  V30 483 H 34.6585 1.59913 2.70694 0
M  V30 484 N 38.4306 0.297415 1.54768 0
M  V30 485 C 39.3776 -0.580276 2.23386 0
M  V30 486 C 40.3476 -1.13238 1.21517 0
M  V30 487 O 41.5326 -1.17757 1.50126 0
M  V30 488 C 38.6726 -1.74801 2.97555 0
M  V30 489 C 37.7856 -1.22764 4.1419 0
M  V30 490 C 36.9206 -2.35895 4.75949 0
M  V30 491 C 35.9596 -1.80974 5.84735 0
M  V30 492 N 35.0966 -2.87664 6.40464 0
M  V30 493 H 39.9366 0.0114833 2.97998 0
M  V30 494 H 37.4736 0.0174361 1.4709 0
M  V30 495 H 39.4316 -2.43475 3.38786 0
M  V30 496 H 38.0616 -2.31145 2.25326 0
M  V30 497 H 37.1136 -0.433271 3.77924 0
M  V30 498 H 38.4256 -0.785551 4.92575 0
M  V30 499 H 37.5796 -3.12523 5.20014 0
M  V30 500 H 36.3186 -2.83429 3.96887 0
M  V30 501 H 35.3236 -1.02834 5.40097 0
M  V30 502 H 36.5486 -1.34348 6.65678 0
M  V30 503 H 34.4946 -3.34538 5.64287 0
M  V30 504 H 34.4116 -2.4794 7.14186 0
M  V30 505 H 35.6796 -3.642 6.89187 0
M  V30 506 N 39.9087 -1.5758 0.0250728 0
M  V30 507 C 40.8717 -2.08896 -0.943139 0
M  V30 508 C 41.8717 -1.00321 -1.25668 0
M  V30 509 O 43.0617 -1.26495 -1.19769 0
M  V30 510 C 40.1937 -2.55143 -2.26086 0
M  V30 511 H 41.3867 -2.95723 -0.498775 0
M  V30 512 H 38.9397 -1.54703 -0.222888 0
M  V30 513 H 39.6747 -1.71633 -2.75159 0
M  V30 514 H 39.4597 -3.34461 -2.04641 0
M  V30 515 H 40.9497 -2.95083 -2.95492 0
M  V30 516 N 41.3868 0.248026 -1.55636 0
M  V30 517 C 42.3338 1.30707 -1.90222 0
M  V30 518 C 43.3038 1.47881 -0.756332 0
M  V30 519 O 44.4888 1.61883 -1.00988 0
M  V30 520 C 41.6288 2.65769 -2.20138 0
M  V30 521 C 40.7418 2.56612 -3.47526 0
M  V30 522 C 39.8768 3.8402 -3.67017 0
M  V30 523 C 38.9158 3.69476 -4.8801 0
M  V30 524 N 38.0528 4.88774 -5.04029 0
M  V30 525 H 42.8928 1.00512 -2.80538 0
M  V30 526 H 40.4298 0.485055 -1.38873 0
M  V30 527 H 42.3878 3.44386 -2.35487 0
M  V30 528 H 41.0178 2.94115 -1.33027 0
M  V30 529 H 40.0698 1.69571 -3.40514 0
M  V30 530 H 41.3818 2.41774 -4.36287 0
M  V30 531 H 40.5358 4.7108 -3.8232 0
M  V30 532 H 39.2748 4.01754 -2.76487 0
M  V30 533 H 38.2798 2.80799 -4.72686 0
M  V30 534 H 39.5048 3.53238 -5.8 0
M  V30 535 H 37.4508 5.0687 -4.16435 0
M  V30 536 H 37.3678 4.76562 -5.86877 0
M  V30 537 H 38.6358 5.77335 -5.23741 0
M  V30 538 N 42.8649 1.48995 0.513639 0
M  V30 539 C 43.8119 1.6473 1.61656 0
M  V30 540 C 44.7819 0.488984 1.58739 0
M  V30 541 O 45.9669 0.714478 1.76918 0
M  V30 542 C 43.1069 1.7082 2.99858 0
M  V30 543 C 42.2199 2.9787 3.12885 0
M  V30 544 C 41.3549 2.95017 4.41744 0
M  V30 545 C 40.3939 4.16702 4.48359 0
M  V30 546 N 39.5309 4.11832 5.68629 0
M  V30 547 H 44.3709 2.58909 1.47547 0
M  V30 548 H 41.9079 1.28382 0.71808 0
M  V30 549 H 43.8659 1.72331 3.79944 0
M  V30 550 H 42.4959 0.801181 3.12699 0
M  V30 551 H 41.5479 3.06029 2.25944 0
M  V30 552 H 42.8599 3.8786 3.13633 0
M  V30 553 H 42.0139 2.95021 5.30139 0
M  V30 554 H 40.7529 2.02784 4.43542 0
M  V30 555 H 39.7579 4.16955 3.58369 0
M  V30 556 H 40.9829 5.10113 4.48287 0
M  V30 557 H 38.9289 3.22428 5.71293 0
M  V30 558 H 38.8459 4.95543 5.7094 0
M  V30 559 H 40.1139 4.1592 6.59266 0
M  V30 560 N 44.343 -0.763751 1.37857 0
M  V30 561 C 45.568 -1.55805 1.36893 0
M  V30 562 C 45.993 -1.88054 -0.0416135 0
M  V30 563 O 45.351 -1.49825 -1.02089 0
M  V30 564 C 45.399 -2.84012 2.22192 0
M  V30 565 O 44.503 -3.78732 1.63204 0
M  V30 566 H 43.844 -0.471638 0.46739 0
M  V30 567 H 46.374 -0.944657 1.81487 0
M  V30 568 H 46.384 -3.33037 2.35691 0
M  V30 569 H 45.059 -2.59869 3.24716 0
M  V30 570 H 43.636 -3.37402 1.58791 0
M  V30 571 N 45.8211 -1.22559 -0.990812 0
M  V30 572 C 46.7841 -0.998863 -2.0629 0
M  V30 573 C 47.7841 0.0354834 -1.60761 0
M  V30 574 O 48.9741 -0.203231 -1.7301 0
M  V30 575 C 46.1061 -0.509203 -3.37076 0
M  V30 576 H 47.2991 -1.95014 -2.27837 0
M  V30 577 H 44.8521 -1.04456 -1.16269 0
M  V30 578 H 45.5871 0.446335 -3.21214 0
M  V30 579 H 45.3721 -1.25547 -3.71457 0
M  V30 580 H 46.8621 -0.370888 -4.1595 0
M  V30 581 N 47.2992 1.18797 -1.03562 0
M  V30 582 C 48.5482 1.87978 -0.731235 0
M  V30 583 C 48.8612 1.80911 0.743671 0
M  V30 584 O 50.0672 2.45407 1.16137 0
M  V30 585 C 48.5232 3.3721 -1.25768 0
M  V30 586 C 48.1312 3.52818 -2.76085 0
M  V30 587 C 49.8752 4.11825 -1.0296 0
M  V30 588 C 47.7822 4.9598 -3.22114 0
M  V30 589 H 46.7122 0.704063 -0.269835 0
M  V30 590 H 49.3632 1.34266 -1.25079 0
M  V30 591 H 47.7452 3.90359 -0.666011 0
M  V30 592 H 48.9192 3.09965 -3.40966 0
M  V30 593 H 47.2342 2.91602 -2.97249 0
M  V30 594 H 49.8312 5.17411 -1.34869 0
M  V30 595 H 50.1742 4.16287 0.0333546 0
M  V30 596 H 50.7072 3.64833 -1.58562 0
M  V30 597 H 47.4462 4.96684 -4.27768 0
M  V30 598 H 46.9662 5.39569 -2.61965 0
M  V30 599 H 48.6452 5.6467 -3.15844 0
M  V30 600 N 48.7773 0.814389 1.34928 0
M  V30 601 C 49.7243 0.22822 2.29669 0
M  V30 602 C 50.6943 -0.642164 1.53184 0
M  V30 603 O 51.8793 -0.585605 1.81591 0
M  V30 604 C 49.0193 -0.61089 3.3965 0
M  V30 605 C 48.1323 0.280792 4.31086 0
M  V30 606 C 47.2673 -0.567067 5.28165 0
M  V30 607 C 46.3063 0.324531 6.11239 0
M  V30 608 N 45.4433 -0.483756 7.00431 0
M  V30 609 H 50.2833 1.04153 2.79206 0
M  V30 610 H 47.8203 0.525133 1.37407 0
M  V30 611 H 49.7783 -1.11263 4.0209 0
M  V30 612 H 48.4083 -1.38939 2.91369 0
M  V30 613 H 47.4603 0.900688 3.69583 0
M  V30 614 H 48.7723 0.966723 4.89342 0
M  V30 615 H 47.9263 -1.13363 5.96015 0
M  V30 616 H 46.6653 -1.28654 4.70425 0
M  V30 617 H 45.6703 0.903298 5.42329 0
M  V30 618 H 46.8953 1.04198 6.71059 0
M  V30 619 H 44.8413 -1.18706 6.45171 0
M  V30 620 H 44.7583 0.143965 7.55863 0
M  V30 621 H 46.0263 -1.03334 7.7262 0
M  V30 622 N 50.2554 -1.46986 0.568584 0
M  V30 623 C 51.4834 -2.0683 0.0539956 0
M  V30 624 C 51.8984 -1.41953 -1.24478 0
M  V30 625 O 51.2554 -0.519933 -1.74937 0
M  V30 626 C 51.3064 -3.61254 -0.133362 0
M  V30 627 O 51.0274 -4.237 1.11399 0
M  V30 628 C 52.5284 -4.37992 -0.683927 0
M  V30 629 H 49.7484 -0.669058 0.0510141 0
M  V30 630 H 52.2924 -1.88824 0.785234 0
M  V30 631 H 50.4474 -3.78735 -0.81477 0
M  V30 632 H 50.8614 -5.16388 0.91888 0
M  V30 633 H 52.3354 -5.46684 -0.764263 0
M  V30 634 H 52.8124 -4.05058 -1.69778 0
M  V30 635 H 53.4184 -4.25283 -0.0378494 0
M  V30 636 N 51.7335 -0.305618 -1.54608 0
M  V30 637 C 52.6635 0.561482 -2.26649 0
M  V30 638 C 53.6445 1.13415 -1.26772 0
M  V30 639 O 54.8295 1.16262 -1.55553 0
M  V30 640 C 51.9595 1.73122 -3.01075 0
M  V30 641 C 50.9135 1.2887 -4.08138 0
M  V30 642 C 50.2395 2.54396 -4.70305 0
M  V30 643 C 51.5395 0.416578 -5.20636 0
M  V30 644 H 53.2335 -0.0393902 -2.99374 0
M  V30 645 H 50.7795 -0.020385 -1.43986 0
M  V30 646 H 52.7325 2.34396 -3.50195 0
M  V30 647 H 51.4565 2.3584 -2.25936 0
M  V30 648 H 50.1155 0.698991 -3.59875 0
M  V30 649 H 49.7635 3.15439 -3.918 0
M  V30 650 H 49.4635 2.25486 -5.42614 0
M  V30 651 H 50.9875 3.16464 -5.2219 0
M  V30 652 H 52.4015 0.935116 -5.65622 0
M  V30 653 H 50.7985 0.221046 -5.99693 0
M  V30 654 H 51.8685 -0.557162 -4.81688 0
M  V30 655 N 53.2116 1.57565 -0.0334293 0
M  V30 656 C 54.4366 1.96689 0.657895 0
M  V30 657 C 54.8616 0.910057 1.64619 0
M  V30 658 O 54.2196 -0.128598 1.80843 0
M  V30 659 C 54.2676 3.34905 1.33683 0
M  V30 660 O 53.3716 3.31574 2.45219 0
M  V30 661 H 52.7126 0.641205 0.172489 0
M  V30 662 H 55.2426 2.04372 -0.0965621 0
M  V30 663 H 55.2526 3.71234 1.69262 0
M  V30 664 H 53.9276 4.11366 0.612411 0
M  V30 665 H 52.5046 3.06968 2.11719 0
M  V30 666 N 54.6897 -0.239769 1.55765 0
M  V30 667 C 55.6367 -1.29696 1.90913 0
M  V30 668 C 56.6067 -1.47478 0.764164 0
M  V30 669 O 57.7917 -1.61345 1.01845 0
M  V30 670 C 54.9317 -2.64598 2.21544 0
M  V30 671 C 54.0447 -2.54765 3.48882 0
M  V30 672 C 53.1797 -3.82069 3.69049 0
M  V30 673 C 52.2187 -3.66883 4.89963 0
M  V30 674 N 51.3557 -4.86094 5.06614 0
M  V30 675 H 56.1957 -0.990224 2.81067 0
M  V30 676 H 53.7327 -0.477684 1.39128 0
M  V30 677 H 55.6907 -3.43132 2.3731 0
M  V30 678 H 54.3207 -2.93405 1.34585 0
M  V30 679 H 53.3727 -1.67763 3.41409 0
M  V30 680 H 54.6847 -2.39457 4.37563 0
M  V30 681 H 53.8387 -4.69046 3.84812 0
M  V30 682 H 52.5777 -4.00282 2.78614 0
M  V30 683 H 51.5827 -2.78289 4.74168 0
M  V30 684 H 52.8077 -3.50157 5.81865 0
M  V30 685 H 50.7537 -5.04655 4.19117 0
M  V30 686 H 50.6707 -4.73443 5.89396 0
M  V30 687 H 51.9387 -5.74549 5.26795 0
M  V30 688 N 56.1678 -1.49265 -0.50573 0
M  V30 689 C 57.1148 -1.65585 -1.6078 0
M  V30 690 C 58.0848 -0.497396 -1.58478 0
M  V30 691 O 59.2698 -0.72385 -1.76536 0
M  V30 692 C 56.4098 -1.72408 -2.98948 0
M  V30 693 C 55.5228 -2.99525 -3.11301 0
M  V30 694 C 54.6578 -2.97356 -4.40174 0
M  V30 695 C 53.6968 -4.19074 -4.46143 0
M  V30 696 N 52.8338 -4.14841 -5.66437 0
M  V30 697 H 57.6738 -2.59688 -1.46172 0
M  V30 698 H 55.2108 -1.28761 -0.711261 0
M  V30 699 H 57.1688 -1.74344 -3.79025 0
M  V30 700 H 55.7988 -0.817753 -3.1227 0
M  V30 701 H 54.8508 -3.07222 -2.24318 0
M  V30 702 H 56.1628 -3.89518 -3.11572 0
M  V30 703 H 55.3168 -2.97829 -5.28567 0
M  V30 704 H 54.0558 -2.05133 -4.42461 0
M  V30 705 H 53.0608 -4.1885 -3.56153 0
M  V30 706 H 54.2858 -5.12483 -4.45575 0
M  V30 707 H 52.2318 -3.25453 -5.69575 0
M  V30 708 H 52.1488 -4.98564 -5.68304 0
M  V30 709 H 53.4168 -4.1941 -6.57051 0
M  V30 710 N 57.6459 0.756429 -1.3826 0
M  V30 711 C 58.6089 1.85176 -1.35065 0
M  V30 712 C 59.6089 1.58818 -0.251703 0
M  V30 713 O 60.7989 1.66615 -0.508433 0
M  V30 714 C 57.9309 3.22596 -1.10201 0
M  V30 715 H 59.1239 1.89417 -2.3251 0
M  V30 716 H 56.6769 0.95783 -1.23512 0
M  V30 717 H 57.4119 3.24025 -0.133504 0
M  V30 718 H 57.1969 3.43122 -1.89762 0
M  V30 719 H 58.6869 4.02673 -1.10654 0
M  V30 720 N 59.124 1.23083 0.984299 0
M  V30 721 C 60.373 1.05466 1.71929 0
M  V30 722 C 60.686 -0.409211 1.91272 0
M  V30 723 O 61.892 -0.705226 2.62181 0
M  V30 724 C 60.348 1.83874 3.09384 0
M  V30 725 C 59.956 3.34566 2.97943 0
M  V30 726 C 61.7 1.74734 3.8687 0
M  V30 727 C 59.607 4.05381 4.30605 0
M  V30 728 H 58.537 0.391039 0.644674 0
M  V30 729 H 61.188 1.47013 1.09815 0
M  V30 730 H 59.57 1.35131 3.72231 0
M  V30 731 H 60.744 3.90767 2.44209 0
M  V30 732 H 59.059 3.44476 2.33934 0
M  V30 733 H 61.656 2.24957 4.85076 0
M  V30 734 H 61.999 0.709372 4.10212 0
M  V30 735 H 62.532 2.21067 3.30717 0
M  V30 736 H 59.271 5.09467 4.1246 0
M  V30 737 H 58.791 3.53967 4.84218 0
M  V30 738 H 60.47 4.11458 4.99311 0
M  V30 739 N 60.6021 -1.18246 1.0419 0
M  V30 740 C 61.5341 -2.2142 0.592088 0
M  V30 741 C 62.5471 -1.59233 -0.338909 0
M  V30 742 O 63.7361 -1.78002 -0.133231 0
M  V30 743 C 60.8361 -3.38546 -0.154854 0
M  V30 744 C 60.0091 -4.3031 0.784328 0
M  V30 745 C 59.0681 -5.26138 0.0804583 0
M  V30 746 O 58.0941 -5.64738 0.711292 0
M  V30 747 N 59.2961 -5.68261 -1.18574 0
M  V30 748 H 62.0611 -2.60636 1.47949 0
M  V30 749 H 59.6221 -1.33044 0.922544 0
M  V30 750 H 61.6141 -3.99678 -0.635606 0
M  V30 751 H 60.1841 -2.98012 -0.943811 0
M  V30 752 H 59.4041 -3.66764 1.44491 0
M  V30 753 H 60.6921 -4.8852 1.42218 0
M  V30 754 H 60.0901 -5.38957 -1.71876 0
M  V30 755 H 58.6471 -6.31584 -1.61074 0
M  V30 756 N 62.0802 -0.821533 -1.34494 0
M  V30 757 C 63.0102 -0.257138 -2.3208 0
M  V30 758 C 63.9912 0.625645 -1.58176 0
M  V30 759 O 65.1762 0.552811 -1.86166 0
M  V30 760 C 62.3062 0.582958 -3.42372 0
M  V30 761 C 61.2602 -0.202571 -4.2752 0
M  V30 762 C 60.5862 0.760179 -5.29269 0
M  V30 763 C 61.8862 -1.40998 -5.02908 0
M  V30 764 H 63.5802 -1.07247 -2.79532 0
M  V30 765 H 61.1262 -0.517163 -1.34393 0
M  V30 766 H 63.0792 0.987972 -4.09655 0
M  V30 767 H 61.8032 1.43133 -2.93565 0
M  V30 768 H 60.4622 -0.588936 -3.61838 0
M  V30 769 H 60.1102 1.60447 -4.76724 0
M  V30 770 H 59.8102 0.238809 -5.87115 0
M  V30 771 H 61.3342 1.16308 -5.9942 0
M  V30 772 H 62.7482 -1.07905 -5.63054 0
M  V30 773 H 61.1452 -1.86689 -5.70322 0
M  V30 774 H 62.2152 -2.1889 -4.32684 0
M  V30 775 N 63.5583 1.46682 -0.576371 0
M  V30 776 C 64.5213 2.28707 0.150239 0
M  V30 777 C 65.5213 1.38035 0.824794 0
M  V30 778 O 66.7113 1.60476 0.677719 0
M  V30 779 C 63.8433 3.18248 1.22192 0
M  V30 780 H 65.0363 2.94423 -0.570521 0
M  V30 781 H 62.5893 1.52688 -0.334078 0
M  V30 782 H 63.3243 2.57265 1.97447 0
M  V30 783 H 63.1093 3.85 0.742812 0
M  V30 784 H 64.5993 3.80001 1.73172 0
M  V30 785 N 65.0364 0.313813 1.54444 0
M  V30 786 C 65.9684 -0.590425 2.21465 0
M  V30 787 C 66.9814 -1.08753 1.21147 0
M  V30 788 O 68.1704 -1.00278 1.4767 0
M  V30 789 C 65.2704 -1.82179 2.85769 0
M  V30 790 C 64.4434 -1.46502 4.12136 0
M  V30 791 C 63.5024 -2.55288 4.60124 0
M  V30 792 O 62.5284 -2.19842 5.25032 0
M  V30 793 N 63.7304 -3.86053 4.33525 0
M  V30 794 H 66.4954 -0.0166033 2.99695 0
M  V30 795 H 64.0564 0.136578 1.61323 0
M  V30 796 H 66.0484 -2.54328 3.14801 0
M  V30 797 H 64.6184 -2.30369 2.11303 0
M  V30 798 H 63.8384 -0.575595 3.89975 0
M  V30 799 H 65.1264 -1.20221 4.94393 0
M  V30 800 H 64.5244 -4.17654 3.81552 0
M  V30 801 H 63.0814 -4.54461 4.67235 0
M  V30 802 N 66.5145 -1.57545 0.0417849 0
M  V30 803 C 67.4245 -2.14451 -0.951213 0
M  V30 804 C 68.4405 -1.09992 -1.34825 0
M  V30 805 O 69.6165 -1.42114 -1.42708 0
M  V30 806 C 66.6815 -2.67063 -2.21084 0
M  V30 807 C 65.7425 -3.86284 -1.87304 0
M  V30 808 C 64.9755 -4.36378 -3.07261 0
M  V30 809 O 65.1985 -3.85587 -4.20332 0
M  V30 810 O 64.1325 -5.28077 -2.88822 0
M  V30 811 H 67.9585 -2.99601 -0.497287 0
M  V30 812 H 65.5435 -1.48317 -0.179567 0
M  V30 813 H 67.4255 -3.00914 -2.95006 0
M  V30 814 H 66.1005 -1.84989 -2.65633 0
M  V30 815 H 65.0075 -3.57338 -1.10727 0
M  V30 816 H 66.3405 -4.6956 -1.47562 0
M  V30 817 N 67.9926 0.231505 -1.5589 0
M  V30 818 C 69.2406 0.955461 -1.78088 0
M  V30 819 C 69.5616 1.85262 -0.608533 0
M  V30 820 O 68.8316 1.92277 0.375035 0
M  V30 821 H 67.4116 0.355787 -0.656829 0
M  V30 822 H 70.0736 0.245751 -1.93344 0
M  V30 823 H 69.1696 1.56814 -2.69844 0
M  V30 824 N 69.4707 1.49531 0.497807 0
M  V30 825 C 70.4177 1.66436 1.59899 0
M  V30 826 C 71.3877 0.505793 1.58212 0
M  V30 827 O 72.5727 0.733202 1.7615 0
M  V30 828 C 69.7127 1.7399 2.98029 0
M  V30 829 C 68.8257 3.01172 3.09708 0
M  V30 830 C 67.9607 2.99686 4.38591 0
M  V30 831 C 66.9997 4.21434 4.43914 0
M  V30 832 N 66.1367 4.1784 5.64229 0
M  V30 833 H 70.9767 2.60459 1.44793 0
M  V30 834 H 68.5137 1.29137 0.704423 0
M  V30 835 H 70.4717 1.76352 3.78095 0
M  V30 836 H 69.1017 0.834301 3.11832 0
M  V30 837 H 68.1537 3.08408 2.22685 0
M  V30 838 H 69.4657 3.91165 3.09502 0
M  V30 839 H 68.6197 3.00628 5.2698 0
M  V30 840 H 67.3587 2.07477 4.41367 0
M  V30 841 H 66.3637 4.20733 3.53926 0
M  V30 842 H 67.5887 5.14839 4.42851 0
M  V30 843 H 65.5347 3.28469 5.67841 0
M  V30 844 H 65.4517 5.01571 5.65652 0
M  V30 845 H 66.7197 4.22889 6.54817 0
M  V30 846 N 70.9488 -0.749086 1.3866 0
M  V30 847 C 71.9118 -1.84457 1.36045 0
M  V30 848 C 72.9118 -1.58682 0.260122 0
M  V30 849 O 74.1018 -1.66343 0.517261 0
M  V30 850 C 71.2338 -3.22008 1.11911 0
M  V30 851 H 72.4268 -1.88182 2.33512 0
M  V30 852 H 69.9798 -0.951266 1.24019 0
M  V30 853 H 70.7148 -3.2395 0.150686 0
M  V30 854 H 70.4998 -3.42111 1.91579 0
M  V30 855 H 71.9898 -4.0208 1.12788 0
M  V30 856 N 72.4269 -1.23603 -0.977757 0
M  V30 857 C 73.3369 -1.03632 -2.1047 0
M  V30 858 C 74.3529 0.0199435 -1.73989 0
M  V30 859 O 75.5289 -0.176076 -2.00629 0
M  V30 860 C 72.5939 -0.63276 -3.40877 0
M  V30 861 C 71.6549 -1.76437 -3.91367 0
M  V30 862 C 70.8879 -1.37997 -5.15551 0
M  V30 863 O 71.1109 -0.265357 -5.69782 0
M  V30 864 O 70.0449 -2.20201 -5.60174 0
M  V30 865 H 73.8709 -1.98086 -2.30208 0
M  V30 866 H 71.4559 -1.02332 -1.08851 0
M  V30 867 H 73.3379 -0.418761 -4.19314 0
M  V30 868 H 72.0129 0.282754 -3.22463 0
M  V30 869 H 70.9199 -2.03304 -3.14036 0
M  V30 870 H 72.2529 -2.6583 -4.14241 0
M  V30 871 N 73.905 1.17692 -1.04816 0
M  V30 872 C 74.815 2.25229 -0.65643 0
M  V30 873 C 75.831 1.71018 0.320761 0
M  V30 874 O 77.007 2.00649 0.173805 0
M  V30 875 C 74.072 3.46684 -0.0332629 0
M  V30 876 C 73.133 4.15997 -1.06042 0
M  V30 877 C 72.366 5.31654 -0.466893 0
M  V30 878 O 72.589 5.65777 0.724758 0
M  V30 879 O 71.523 5.89831 -1.1993 0
M  V30 880 H 75.349 2.61016 -1.55255 0
M  V30 881 H 72.934 1.24919 -0.81949 0
M  V30 882 H 74.816 4.20234 0.313256 0
M  V30 883 H 73.491 3.12703 0.836566 0
M  V30 884 H 72.398 3.44482 -1.45886 0
M  V30 885 H 73.731 4.53996 -1.90127 0
M  V30 886 N 75.3831 0.828654 1.34056 0
M  V30 887 C 76.3461 0.259927 2.27721 0
M  V30 888 C 77.3461 -0.565478 1.50529 0
M  V30 889 O 78.5361 -0.38075 1.69988 0
M  V30 890 C 75.6681 -0.634944 3.34935 0
M  V30 891 H 76.8611 1.0863 2.79534 0
M  V30 892 H 74.4141 0.600951 1.44285 0
M  V30 893 H 75.1491 -1.48416 2.88346 0
M  V30 894 H 74.9341 -0.0444999 3.92075 0
M  V30 895 H 76.4241 -1.02648 4.04788 0
M  V30 896 N 76.8612 -1.46375 0.584142 0
M  V30 897 C 77.7912 -2.33103 -0.136037 0
M  V30 898 C 78.7722 -1.45431 -0.882255 0
M  V30 899 O 79.9572 -1.74246 -0.857434 0
M  V30 900 C 77.0872 -3.27731 -1.14933 0
M  V30 901 C 76.0412 -4.24855 -0.517862 0
M  V30 902 C 75.3672 -5.09001 -1.63773 0
M  V30 903 C 76.6672 -5.19439 0.545886 0
M  V30 904 H 78.3612 -2.93568 0.588086 0
M  V30 905 H 75.9072 -1.41166 0.284259 0
M  V30 906 H 77.8602 -3.87261 -1.66153 0
M  V30 907 H 76.5842 -2.65377 -1.90375 0
M  V30 908 H 75.2432 -3.6659 -0.0267361 0
M  V30 909 H 74.8912 -4.43031 -2.38185 0
M  V30 910 H 74.5912 -5.74777 -1.22085 0
M  V30 911 H 76.1152 -5.71396 -2.15266 0
M  V30 912 H 77.5292 -5.73177 0.118704 0
M  V30 913 H 75.9262 -5.93566 0.88317 0
M  V30 914 H 76.9962 -4.63285 1.43162 0
M  V30 915 N 78.3393 -0.321999 -1.54275 0
M  V30 916 C 79.2863 0.544664 -2.24281 0
M  V30 917 C 80.2563 1.1129 -1.23303 0
M  V30 918 O 81.4413 1.15354 -1.51981 0
M  V30 919 C 78.5813 1.70045 -3.00298 0
M  V30 920 C 77.6943 1.16159 -4.1609 0
M  V30 921 C 76.8293 2.28293 -4.79641 0
M  V30 922 C 75.8683 1.71648 -5.8754 0
M  V30 923 N 75.0053 2.77438 -6.44959 0
M  V30 924 H 79.8453 -0.0588907 -2.97942 0
M  V30 925 H 77.3823 -0.0408345 -1.47043 0
M  V30 926 H 79.3403 2.38054 -3.42616 0
M  V30 927 H 77.9703 2.27531 -2.28975 0
M  V30 928 H 77.0223 0.373092 -3.78566 0
M  V30 929 H 78.3343 0.707087 -4.93763 0
M  V30 930 H 77.4883 3.0421 -5.2492 0
M  V30 931 H 76.2273 2.77079 -4.01346 0
M  V30 932 H 75.2323 0.942282 -5.41665 0
M  V30 933 H 76.4573 1.23741 -6.67731 0
M  V30 934 H 74.4033 3.25519 -5.69538 0
M  V30 935 H 74.3203 2.36547 -7.1804 0
M  V30 936 H 75.5883 3.53189 -6.94894 0
M  V30 937 N 79.8174 1.5752 -0.0501392 0
M  V30 938 C 81.0664 1.91827 0.623328 0
M  V30 939 C 81.3794 0.930222 1.72065 0
M  V30 940 O 82.5854 1.1653 2.4522 0
M  V30 941 C 81.0414 3.40692 1.16003 0
M  V30 942 C 80.6494 4.479 0.0948811 0
M  V30 943 C 82.3934 3.84034 1.80881 0
M  V30 944 C 80.3004 5.87879 0.644411 0
M  V30 945 H 79.2304 0.715918 0.236596 0
M  V30 946 H 81.8814 1.83115 -0.118861 0
M  V30 947 H 80.2634 3.44405 1.9545 0
M  V30 948 H 81.4374 4.55775 -0.678675 0
M  V30 949 H 79.7524 4.13892 -0.45637 0
M  V30 950 H 82.3494 4.85984 2.22988 0
M  V30 951 H 82.6924 3.20225 2.6601 0
M  V30 952 H 83.2254 3.82833 1.0809 0
M  V30 953 H 79.9644 6.55282 -0.169229 0
M  V30 954 H 79.4844 5.83567 1.38598 0
M  V30 955 H 81.1634 6.37098 1.12763 0
M  V30 956 N 81.2955 -0.223234 1.56011 0
M  V30 957 C 82.2285 -1.30377 1.87289 0
M  V30 958 C 83.2065 -1.45286 0.730112 0
M  V30 959 O 84.3905 -1.61126 0.978302 0
M  V30 960 C 81.5175 -2.67431 2.07843 0
M  V30 961 C 80.5635 -2.69546 3.30526 0
M  V30 962 S 81.3965 -2.23781 4.865 0
M  V30 963 C 82.5525 -3.62714 5.10088 0
M  V30 964 H 82.7855 -1.03652 2.78646 0
M  V30 965 H 80.3185 -0.425393 1.48424 0
M  V30 966 H 82.2765 -3.46336 2.20368 0
M  V30 967 H 80.9375 -2.91381 1.17285 0
M  V30 968 H 80.1305 -3.70255 3.41947 0
M  V30 969 H 79.7325 -1.98703 3.16849 0
M  V30 970 H 82.0245 -4.58391 4.98883 0
M  V30 971 H 82.9675 -3.5621 6.11981 0
M  V30 972 H 83.3755 -3.56323 4.37829 0
M  V30 973 N 82.7736 -1.49793 -0.48987 0
M  V30 974 C 84.1896 -1.36803 -0.822022 0
M  V30 975 C 84.3896 -0.409652 -1.97292 0
M  V30 976 O 83.4456 0.154614 -2.52026 0
M  V30 977 C 84.7586 -2.77768 -1.15175 0
M  V30 978 C 86.3066 -2.86549 -1.25931 0
M  V30 979 C 86.7816 -4.28306 -1.62228 0
M  V30 980 N 88.2726 -4.31169 -1.69256 0
M  V30 981 C 89.0076 -5.37832 -1.98807 0
M  V30 982 N 88.5036 -6.54726 -2.26507 0
M  V30 983 N 90.2966 -5.25258 -2.00152 0
M  V30 984 H 82.4476 -2.10691 0.268881 0
M  V30 985 H 84.7106 -0.946241 0.057728 0
M  V30 986 H 84.4166 -3.49648 -0.379335 0
M  V30 987 H 84.2906 -3.13836 -2.09253 0
M  V30 988 H 86.6776 -2.14899 -2.02243 0
M  V30 989 H 86.7586 -2.54049 -0.298776 0
M  V30 990 H 86.4026 -5.00486 -0.864622 0
M  V30 991 H 86.3326 -4.58279 -2.594 0
M  V30 992 H 88.8236 -3.4687 -1.49965 0
M  V30 993 H 89.1366 -7.31833 -2.48276 0
M  V30 994 H 87.4816 -6.57933 -2.23939 0
M  V30 995 H 90.6726 -4.32938 -1.77996 0
M  V30 996 H 90.8456 -6.08476 -2.22848 0
M  V30 997 N 84.2517 0.741722 -1.39055 0
M  V30 998 C 85.1987 1.85566 -1.37237 0
M  V30 999 C 86.1687 1.64457 -0.233072 0
M  V30 1000 O 87.3537 1.85957 -0.427147 0
M  V30 1001 C 84.4937 3.23004 -1.215 0
M  V30 1002 C 83.6067 3.55864 -2.44918 0
M  V30 1003 C 82.7417 4.82669 -2.21821 0
M  V30 1004 C 81.7807 5.08351 -3.40948 0
M  V30 1005 N 80.9177 6.26356 -3.17211 0
M  V30 1006 H 85.7577 1.86455 -2.32462 0
M  V30 1007 H 83.2947 0.911176 -1.15482 0
M  V30 1008 H 85.2527 4.02331 -1.10389 0
M  V30 1009 H 83.8827 3.21411 -0.29908 0
M  V30 1010 H 82.9347 2.7129 -2.66657 0
M  V30 1011 H 84.2467 3.70765 -3.33668 0
M  V30 1012 H 83.4007 5.69962 -2.07914 0
M  V30 1013 H 82.1397 4.69929 -1.30454 0
M  V30 1014 H 81.1447 4.19522 -3.55361 0
M  V30 1015 H 82.3697 5.22981 -4.33207 0
M  V30 1016 H 80.3157 6.14917 -2.28502 0
M  V30 1017 H 80.2327 6.41813 -3.99515 0
M  V30 1018 H 81.5007 7.16506 -3.06984 0
M  V30 1019 N 85.7298 1.2412 0.971189 0
M  V30 1020 C 86.6928 1.03156 2.04674 0
M  V30 1021 C 87.6928 -0.00990322 1.60797 0
M  V30 1022 O 88.8828 0.230729 1.72665 0
M  V30 1023 C 86.0148 0.562765 3.36223 0
M  V30 1024 H 87.2078 1.98614 2.24705 0
M  V30 1025 H 84.7608 1.06293 1.14593 0
M  V30 1026 H 85.4958 -0.395176 3.21883 0
M  V30 1027 H 85.2808 1.31441 3.69413 0
M  V30 1028 H 86.7708 0.437015 4.15307 0
M  V30 1029 N 87.2079 -1.17134 1.05439 0
M  V30 1030 C 88.1179 -2.24878 0.668365 0
M  V30 1031 C 89.1339 -1.71186 -0.311687 0
M  V30 1032 O 90.3099 -2.00738 -0.163161 0
M  V30 1033 C 87.3749 -3.46662 0.051648 0
M  V30 1034 C 86.4359 -4.15429 1.08246 0
M  V30 1035 C 85.6689 -5.31399 0.495082 0
M  V30 1036 O 85.8919 -5.66153 -0.694743 0
M  V30 1037 O 84.8259 -5.89187 1.23056 0
M  V30 1038 H 88.6519 -2.60189 1.56637 0
M  V30 1039 H 86.2369 -1.24482 0.826104 0
M  V30 1040 H 88.1189 -4.20394 -0.290966 0
M  V30 1041 H 86.7939 -3.13142 -0.819971 0
M  V30 1042 H 85.7009 -3.43704 1.47711 0
M  V30 1043 H 87.0339 -4.52982 1.92532 0
M  V30 1044 N 88.686 -0.835752 -1.33615 0
M  V30 1045 C 89.911 -0.442389 -2.02627 0
M  V30 1046 C 90.336 0.947735 -1.62479 0
M  V30 1047 O 89.694 1.61907 -0.815826 0
M  V30 1048 C 89.742 -0.567216 -3.56111 0
M  V30 1049 O 88.846 0.407799 -4.10379 0
M  V30 1050 H 88.187 -0.180278 -0.639059 0
M  V30 1051 H 90.717 -1.12972 -1.70583 0
M  V30 1052 H 90.727 -0.447708 -4.05536 0
M  V30 1053 H 89.402 -1.58103 -3.84677 0
M  V30 1054 H 87.979 0.246107 -3.72087 0
M  V30 1055 N 90.1641 1.46063 -0.591896 0
M  V30 1056 C 91.0941 2.33172 0.123673 0
M  V30 1057 C 92.0751 1.45897 0.87453 0
M  V30 1058 O 93.2601 1.74698 0.848181 0
M  V30 1059 C 90.3901 3.28336 1.13194 0
M  V30 1060 C 89.3441 4.25124 0.495324 0
M  V30 1061 C 88.6701 5.09863 1.61071 0
M  V30 1062 C 89.9701 5.19143 -0.573425 0
M  V30 1063 H 91.6641 2.93252 -0.603646 0
M  V30 1064 H 89.2101 1.41014 -0.291741 0
M  V30 1065 H 91.1631 3.88137 1.64097 0
M  V30 1066 H 89.8871 2.66383 1.88965 0
M  V30 1067 H 88.5461 3.66599 0.00729452 0
M  V30 1068 H 88.1941 4.44288 2.35832 0
M  V30 1069 H 87.8941 5.75417 1.19035 0
M  V30 1070 H 89.4181 5.72529 2.12233 0
M  V30 1071 H 90.8321 5.73106 -0.1491 0
M  V30 1072 H 89.2291 5.93089 -0.914636 0
M  V30 1073 H 90.2991 4.62519 -1.45617 0
M  V30 1074 N 91.6422 0.330177 1.54103 0
M  V30 1075 C 92.8912 -0.271336 1.99867 0
M  V30 1076 C 93.2042 -1.52723 1.22209 0
M  V30 1077 O 94.4102 -2.20515 1.58383 0
M  V30 1078 C 92.8662 -0.534032 3.55916 0
M  V30 1079 C 92.4742 0.705193 4.42415 0
M  V30 1080 C 94.2182 -1.09514 4.1013 0
M  V30 1081 C 92.1252 0.414035 5.89949 0
M  V30 1082 H 91.0552 -0.105166 0.74663 0
M  V30 1083 H 93.7062 0.443429 1.78062 0
M  V30 1084 H 92.0882 -1.30915 3.73734 0
M  V30 1085 H 93.2622 1.4804 4.36372 0
M  V30 1086 H 91.5772 1.18698 3.99124 0
M  V30 1087 H 94.1742 -1.3277 5.17954 0
M  V30 1088 H 94.5172 -2.04656 3.62521 0
M  V30 1089 H 95.0502 -0.381038 3.95971 0
M  V30 1090 H 91.7892 1.33481 6.41766 0
M  V30 1091 H 91.3092 -0.323336 5.98928 0
M  V30 1092 H 92.9882 0.0263105 6.46995 0
M  V30 1093 N 93.1203 -1.57491 0.0584922 0
M  V30 1094 C 94.3973 -1.84346 -0.653918 0
M  V30 1095 C 94.7773 -0.948355 -1.88599 0
M  V30 1096 O 94.1253 -0.0112403 -2.28497 0
M  V30 1097 C 94.3353 -3.34239 -1.00425 0
M  V30 1098 C 95.6833 -4.01431 -1.38342 0
M  V30 1099 O 96.7073 -3.38907 -1.09637 0
M  V30 1100 O 95.5663 -5.11683 -1.91943 0
M  V30 1101 H 92.6603 -0.761112 -0.323478 0
M  V30 1102 H 95.2063 -1.6947 0.0884125 0
M  V30 1103 H 93.9783 -3.91089 -0.128625 0
M  V30 1104 H 93.6013 -3.54329 -1.80378 0
M  V30 1105 N 94.5984 0.214957 -1.56127 0
M  V30 1106 C 95.5454 1.26642 -1.92952 0
M  V30 1107 C 96.5154 1.46244 -0.78753 0
M  V30 1108 O 97.7004 1.59704 -1.04399 0
M  V30 1109 C 94.8404 2.6104 -2.25726 0
M  V30 1110 C 93.9534 2.49183 -3.52891 0
M  V30 1111 C 93.0884 3.76149 -3.7508 0
M  V30 1112 C 92.1274 3.59041 -4.95738 0
M  V30 1113 N 91.2644 4.77972 -5.14283 0
M  V30 1114 H 96.1044 0.945384 -2.82607 0
M  V30 1115 H 93.6414 0.455489 -1.3987 0
M  V30 1116 H 95.5994 3.39313 -2.42739 0
M  V30 1117 H 94.2294 2.91227 -1.39236 0
M  V30 1118 H 93.2814 1.6231 -3.44034 0
M  V30 1119 H 94.5934 2.32466 -4.41318 0
M  V30 1120 H 93.7474 4.62865 -3.92226 0
M  V30 1121 H 92.4864 3.95799 -2.84947 0
M  V30 1122 H 91.4914 2.7071 -4.78535 0
M  V30 1123 H 92.7164 3.40856 -5.87362 0
M  V30 1124 H 90.6624 4.97923 -4.27093 0
M  V30 1125 H 90.5794 4.64006 -5.96853 0
M  V30 1126 H 91.8474 5.66096 -5.35869 0
M  V30 1127 N 96.0765 1.50051 0.48192 0
M  V30 1128 C 97.0395 1.67584 1.5636 0
M  V30 1129 C 98.0395 0.546894 1.51214 0
M  V30 1130 O 99.2295 0.813725 1.54026 0
M  V30 1131 C 96.3615 1.691 2.96003 0
M  V30 1132 H 97.5545 2.64078 1.42136 0
M  V30 1133 H 95.1075 1.39369 0.707533 0
M  V30 1134 H 95.8425 0.742589 3.15684 0
M  V30 1135 H 95.6275 2.51105 3.01146 0
M  V30 1136 H 97.1175 1.84656 3.74556 0
M  V30 1137 N 97.5546 -0.734337 1.39446 0
M  V30 1138 C 98.5176 -1.83004 1.37994 0
M  V30 1139 C 99.5176 -1.58397 0.276938 0
M  V30 1140 O 100.708 -1.65785 0.534875 0
M  V30 1141 C 97.8396 -3.20802 1.1532 0
M  V30 1142 H 99.0326 -1.85694 2.35494 0
M  V30 1143 H 96.5856 -0.938059 1.25021 0
M  V30 1144 H 97.3206 -3.23772 0.185036 0
M  V30 1145 H 97.1056 -3.4006 1.95197 0
M  V30 1146 H 98.5956 -4.00862 1.17046 0
M  V30 1147 N 99.0327 -1.24633 -0.964593 0
M  V30 1148 C 99.9797 -1.04144 -2.05968 0
M  V30 1149 C 100.95 0.046262 -1.66036 0
M  V30 1150 O 102.135 -0.108972 -1.90489 0
M  V30 1151 C 99.2747 -0.65563 -3.38815 0
M  V30 1152 C 98.3877 -1.81714 -3.91923 0
M  V30 1153 C 97.5227 -1.37662 -5.13052 0
M  V30 1154 C 96.5617 -2.50788 -5.58365 0
M  V30 1155 N 95.6987 -2.07582 -6.70712 0
M  V30 1156 H 100.539 -1.9787 -2.22827 0
M  V30 1157 H 98.0757 -0.9855 -1.09208 0
M  V30 1158 H 100.034 -0.412954 -4.15151 0
M  V30 1159 H 98.6637 0.244627 -3.21872 0
M  V30 1160 H 97.7157 -2.1734 -3.12198 0
M  V30 1161 H 99.0277 -2.66705 -4.21509 0
M  V30 1162 H 98.1817 -1.093 -5.96773 0
M  V30 1163 H 96.9207 -0.497293 -4.85158 0
M  V30 1164 H 95.9257 -2.79906 -4.73215 0
M  V30 1165 H 97.1507 -3.39283 -5.88272 0
M  V30 1166 H 95.0967 -1.22051 -6.44546 0
M  V30 1167 H 95.0137 -2.86125 -6.99763 0
M  V30 1168 H 96.2817 -1.82369 -7.57867 0
M  V30 1169 N 100.511 1.16574 -1.06058 0
M  V30 1170 C 101.759 1.86677 -0.77434 0
M  V30 1171 C 102.08 1.81959 0.701147 0
M  V30 1172 O 101.35 1.2515 1.50713 0
M  V30 1173 H 99.9298 0.691134 -0.283449 0
M  V30 1174 H 102.592 1.41378 -1.34158 0
M  V30 1175 H 101.688 2.92181 -1.09711 0
M  V30 1176 N 101.989 0.842826 1.3317 0
M  V30 1177 C 103.214 0.453129 2.02389 0
M  V30 1178 C 103.639 -0.939105 1.6298 0
M  V30 1179 O 102.997 -1.61472 0.8244 0
M  V30 1180 C 103.045 0.586094 3.55805 0
M  V30 1181 O 102.149 -0.386029 4.10589 0
M  V30 1182 H 101.49 0.183664 0.638094 0
M  V30 1183 H 104.02 1.13875 1.69981 0
M  V30 1184 H 104.03 0.469209 4.05293 0
M  V30 1185 H 102.705 1.6014 3.83833 0
M  V30 1186 H 101.282 -0.226371 3.72212 0
M  V30 1187 N 103.467 -1.45747 0.599634 0
M  V30 1188 C 104.695 -2.06668 0.0978551 0
M  V30 1189 C 105.11 -1.44562 -1.21439 0
M  V30 1190 O 104.467 -0.556923 -1.73795 0
M  V30 1191 C 104.518 -3.61456 -0.0567044 0
M  V30 1192 O 104.239 -4.21242 1.20361 0
M  V30 1193 C 105.74 -4.39345 -0.590869 0
M  V30 1194 H 102.96 -0.667825 0.0651943 0
M  V30 1195 H 105.504 -1.87115 0.82511 0
M  V30 1196 H 103.659 -3.80378 -0.734251 0
M  V30 1197 H 104.073 -5.14323 1.02821 0
M  V30 1198 H 105.547 -5.48182 -0.648131 0
M  V30 1199 H 106.024 -4.08568 -1.61147 0
M  V30 1200 H 106.63 -4.25268 0.0523679 0
M  V30 1201 N 104.945 -0.338344 -1.53925 0
M  V30 1202 C 105.875 0.51328 -2.27789 0
M  V30 1203 C 106.856 1.107 -1.29149 0
M  V30 1204 O 108.041 1.12937 -1.57984 0
M  V30 1205 C 105.171 1.66697 -3.04679 0
M  V30 1206 C 104.125 1.20183 -4.1078 0
M  V30 1207 C 103.451 2.44363 -4.75595 0
M  V30 1208 C 104.751 0.30605 -5.21403 0
M  V30 1209 H 106.445 -0.102883 -2.99223 0
M  V30 1210 H 103.991 -0.0509219 -1.4391 0
M  V30 1211 H 105.944 2.26915 -3.55088 0
M  V30 1212 H 104.668 2.30995 -2.30887 0
M  V30 1213 H 103.327 0.622499 -3.61276 0
M  V30 1214 H 102.975 3.07057 -3.98403 0
M  V30 1215 H 102.675 2.13925 -5.47275 0
M  V30 1216 H 104.199 3.05317 -5.28786 0
M  V30 1217 H 105.613 0.814929 -5.67478 0
M  V30 1218 H 104.01 0.0937929 -6.00027 0
M  V30 1219 H 105.08 -0.65921 -4.80398 0
M  V30 1220 N 106.423 1.57458 -0.0668435 0
M  V30 1221 C 107.373 2.0896 0.912119 0
M  V30 1222 C 108.357 0.998186 1.26195 0
M  V30 1223 O 109.549 1.26133 1.24175 0
M  V30 1224 C 106.678 2.6508 2.18145 0
M  V30 1225 C 105.764 3.81218 1.85832 0
M  V30 1226 N 106.155 4.90378 1.23948 0
M  V30 1227 C 104.453 3.9042 2.15612 0
M  V30 1228 C 105.154 5.71279 1.09616 0
M  V30 1229 N 104.13 5.19389 1.60423 0
M  V30 1230 H 107.932 2.90749 0.42924 0
M  V30 1231 H 105.446 1.6182 0.137184 0
M  V30 1232 H 107.443 3.0029 2.89192 0
M  V30 1233 H 106.103 1.84736 2.67025 0
M  V30 1234 H 107.114 5.09847 0.909731 0
M  V30 1235 H 103.791 3.21043 2.66903 0
M  V30 1236 H 105.181 6.69085 0.614425 0
M  V30 1237 N 107.901 -0.206675 1.56239 0
M  V30 1238 C 108.848 -1.25617 1.93621 0
M  V30 1239 C 109.818 -1.45824 0.795274 0
M  V30 1240 O 111.003 -1.59148 1.05245 0
M  V30 1241 C 108.143 -2.59839 2.27107 0
M  V30 1242 C 107.256 -2.47308 3.54207 0
M  V30 1243 C 106.391 -3.74155 3.7707 0
M  V30 1244 C 105.43 -3.56407 4.97635 0
M  V30 1245 N 104.567 -4.75238 5.1681 0
M  V30 1246 H 109.407 -0.930383 2.83104 0
M  V30 1247 H 106.944 -0.448065 1.4011 0
M  V30 1248 H 108.902 -3.38021 2.44535 0
M  V30 1249 H 107.532 -2.90485 1.40778 0
M  V30 1250 H 106.584 -1.60483 3.4489 0
M  V30 1251 H 107.896 -2.30122 4.42544 0
M  V30 1252 H 107.05 -4.60778 3.94675 0
M  V30 1253 H 105.789 -3.94282 2.87042 0
M  V30 1254 H 104.794 -2.68168 4.79964 0
M  V30 1255 H 106.019 -3.37736 5.89161 0
M  V30 1256 H 103.965 -4.95651 4.29728 0
M  V30 1257 H 103.882 -4.60835 5.99306 0
M  V30 1258 H 105.15 -5.63246 5.38864 0
M  V30 1259 N 109.379 -1.50304 -0.473955 0
M  V30 1260 C 110.327 -1.69482 -1.59307 0
M  V30 1261 C 111.321 -0.560669 -1.59853 0
M  V30 1262 O 112.527 -0.741087 -1.64036 0
M  V30 1263 H 108.902 -0.534892 -0.528578 0
M  V30 1264 H 110.873 -2.63364 -1.40293 0
M  V30 1265 C 109.622 -1.80354 -2.97267 0
M  V30 1266 H 108.945 -2.67012 -2.97564 0
M  V30 1267 H 110.385 -1.97798 -3.75036 0
M  V30 1268 C 108.844 -0.55448 -3.32306 0
M  V30 1269 O 109.374 0.307661 -4.0052 0
M  V30 1270 N 107.58 -0.409354 -2.87702 0
M  V30 1271 H 107.127 -1.11196 -2.32364 0
M  V30 1272 H 107.085 0.425223 -3.11511 0
M  V30 1273 N 110.857 0.726932 -1.39834 0
M  V30 1274 C 111.82 1.82269 -1.38962 0
M  V30 1275 C 112.82 1.58248 -0.285334 0
M  V30 1276 O 114.01 1.65499 -0.54366 0
M  V30 1277 C 111.142 3.20186 -1.17019 0
M  V30 1278 H 112.335 1.84443 -2.36476 0
M  V30 1279 H 109.888 0.931416 -1.25516 0
M  V30 1280 H 110.623 3.23669 -0.202204 0
M  V30 1281 H 110.408 3.3902 -1.96998 0
M  V30 1282 H 111.898 4.00235 -1.1917 0
M  V30 1283 N 112.336 1.25143 0.95797 0
M  V30 1284 C 113.299 1.05321 2.03569 0
M  V30 1285 C 114.299 0.007152 1.60798 0
M  V30 1286 O 115.489 0.24903 1.72411 0
M  V30 1287 C 112.621 0.598394 3.35607 0
M  V30 1288 H 113.814 2.00986 2.22586 0
M  V30 1289 H 111.367 1.07502 1.13459 0
M  V30 1290 H 112.102 -0.361014 3.22284 0
M  V30 1291 H 111.887 1.35351 3.67998 0
M  V30 1292 H 113.377 0.48104 4.1482 0
M  V30 1293 N 113.814 -1.1601 1.06675 0
M  V30 1294 C 114.777 -2.18724 0.685001 0
M  V30 1295 C 115.777 -1.58496 -0.271246 0
M  V30 1296 O 116.967 -1.74119 -0.0531156 0
M  V30 1297 C 114.099 -3.40899 0.00853648 0
M  V30 1298 H 115.292 -2.54011 1.59431 0
M  V30 1299 H 112.845 -1.30352 0.862441 0
M  V30 1300 H 113.58 -3.11173 -0.913337 0
M  V30 1301 H 113.365 -3.8587 0.696204 0
M  V30 1302 H 114.855 -4.16886 -0.24414 0
M  V30 1303 N 115.292 -0.849877 -1.32721 0
M  V30 1304 C 116.708 -0.539102 -1.50219 0
M  V30 1305 C 116.908 0.931271 -1.78689 0
M  V30 1306 O 115.964 1.71455 -1.85363 0
M  V30 1307 C 117.277 -1.42196 -2.64954 0
M  V30 1308 C 118.825 -1.42189 -2.78839 0
M  V30 1309 C 119.3 -2.28985 -3.96648 0
M  V30 1310 N 120.791 -2.26754 -4.03902 0
M  V30 1311 C 121.526 -2.90644 -4.94281 0
M  V30 1312 N 121.022 -3.63629 -5.897 0
M  V30 1313 N 122.815 -2.80057 -4.87365 0
M  V30 1314 H 114.966 -1.80156 -1.12506 0
M  V30 1315 H 117.229 -0.769217 -0.554085 0
M  V30 1316 H 116.935 -2.46733 -2.50631 0
M  V30 1317 H 116.809 -1.10591 -3.60624 0
M  V30 1318 H 119.196 -0.38419 -2.92588 0
M  V30 1319 H 119.277 -1.77807 -1.83898 0
M  V30 1320 H 118.921 -3.32819 -3.83658 0
M  V30 1321 H 118.851 -1.90702 -4.90857 0
M  V30 1322 H 121.342 -1.73688 -3.3562 0
M  V30 1323 H 121.655 -4.09558 -6.55349 0
M  V30 1324 H 120 -3.67737 -5.89741 0
M  V30 1325 H 123.191 -2.22593 -4.11789 0
M  V30 1326 H 123.364 -3.30132 -5.57599 0
M  V30 1327 N 116.77 1.45427 -0.607355 0
M  V30 1328 C 118.186 1.57283 -0.270985 0
M  V30 1329 C 118.386 1.59875 1.22647 0
M  V30 1330 O 117.442 1.52893 2.00948 0
M  V30 1331 C 118.755 2.85566 -0.941952 0
M  V30 1332 C 120.303 2.9924 -0.917849 0
M  V30 1333 C 120.778 4.30293 -1.56882 0
M  V30 1334 N 122.269 4.37051 -1.5343 0
M  V30 1335 C 123.004 5.37123 -2.00715 0
M  V30 1336 N 122.5 6.43734 -2.56084 0
M  V30 1337 N 124.293 5.28479 -1.91484 0
M  V30 1338 H 116.444 1.41988 -1.57966 0
M  V30 1339 H 118.707 0.67885 -0.661715 0
M  V30 1340 H 118.413 2.8955 -1.99633 0
M  V30 1341 H 118.287 3.74322 -0.465096 0
M  V30 1342 H 120.674 2.94822 0.127984 0
M  V30 1343 H 120.755 2.11895 -1.43297 0
M  V30 1344 H 120.399 4.35469 -2.61398 0
M  V30 1345 H 120.329 5.16454 -1.02873 0
M  V30 1346 H 122.82 3.60615 -1.12982 0
M  V30 1347 H 123.133 7.16341 -2.89958 0
M  V30 1348 H 121.478 6.44485 -2.60122 0
M  V30 1349 H 124.669 4.44098 -1.47967 0
M  V30 1350 H 124.842 6.0632 -2.28648 0
M  V30 1351 N 118.248 0.346503 1.53744 0
M  V30 1352 C 119.195 -0.508914 2.25119 0
M  V30 1353 C 120.165 -1.09315 1.25058 0
M  V30 1354 O 121.35 -1.12921 1.53797 0
M  V30 1355 C 118.49 -1.65246 3.02965 0
M  V30 1356 C 117.603 -1.09525 4.17886 0
M  V30 1357 C 116.738 -2.20634 4.83212 0
M  V30 1358 C 115.777 -1.62279 5.90196 0
M  V30 1359 N 114.914 -2.67143 6.49291 0
M  V30 1360 H 119.754 0.106283 2.9781 0
M  V30 1361 H 117.291 0.0642227 1.4696 0
M  V30 1362 H 119.249 -2.32574 3.4636 0
M  V30 1363 H 117.879 -2.2386 2.32565 0
M  V30 1364 H 116.931 -0.312818 3.79112 0
M  V30 1365 H 118.243 -0.628444 4.94825 0
M  V30 1366 H 117.397 -2.95821 5.29693 0
M  V30 1367 H 116.136 -2.70659 4.05703 0
M  V30 1368 H 115.141 -0.855989 5.43096 0
M  V30 1369 H 116.366 -1.13102 6.69615 0
M  V30 1370 H 114.312 -3.16417 5.74645 0
M  V30 1371 H 114.229 -2.25093 7.21713 0
M  V30 1372 H 115.497 -3.4209 7.00425 0
M  V30 1373 N 119.726 -1.57421 0.075193 0
M  V30 1374 C 120.951 -1.98364 -0.605515 0
M  V30 1375 C 121.376 -0.953383 -1.62149 0
M  V30 1376 O 120.734 0.0806053 -1.81121 0
M  V30 1377 C 120.782 -3.38332 -1.24756 0
M  V30 1378 O 119.886 -3.37959 -2.36342 0
M  V30 1379 H 119.227 -0.645553 -0.155428 0
M  V30 1380 H 121.757 -2.04044 0.150714 0
M  V30 1381 H 121.767 -3.75591 -1.5936 0
M  V30 1382 H 120.442 -4.12846 -0.503129 0
M  V30 1383 H 119.019 -3.12474 -2.03506 0
M  V30 1384 N 121.204 0.198386 -1.56346 0
M  V30 1385 C 122.62 0.549085 -1.49857 0
M  V30 1386 C 122.82 1.86016 -0.774611 0
M  V30 1387 O 121.876 2.50416 -0.323776 0
M  V30 1388 C 123.189 0.606868 -2.94512 0
M  V30 1389 C 124.737 0.695925 -3.05165 0
M  V30 1390 C 125.212 0.784848 -4.51225 0
M  V30 1391 N 126.703 0.848463 -4.55363 0
M  V30 1392 C 127.438 0.937378 -5.65686 0
M  V30 1393 N 126.934 0.9888 -6.85707 0
M  V30 1394 N 128.727 0.974312 -5.53592 0
M  V30 1395 H 120.878 -0.661655 -2.01831 0
M  V30 1396 H 123.141 -0.235261 -0.918344 0
M  V30 1397 H 122.847 -0.28732 -3.50524 0
M  V30 1398 H 122.721 1.46268 -3.47686 0
M  V30 1399 H 125.108 1.58055 -2.49204 0
M  V30 1400 H 125.189 -0.186022 -2.55123 0
M  V30 1401 H 124.833 -0.0954072 -5.0781 0
M  V30 1402 H 124.763 1.68255 -4.98997 0
M  V30 1403 H 127.254 0.818103 -3.68938 0
M  V30 1404 H 127.567 1.05707 -7.65536 0
M  V30 1405 H 125.912 0.957534 -6.88372 0
M  V30 1406 H 129.103 0.930954 -4.58749 0
M  V30 1407 H 129.276 1.04015 -6.39597 0
M  V30 1408 N 122.682 1.50554 0.465978 0
M  V30 1409 C 123.612 1.72722 1.57128 0
M  V30 1410 C 124.593 0.576294 1.6004 0
M  V30 1411 O 125.778 0.81598 1.76225 0
M  V30 1412 C 122.908 1.82605 2.95419 0
M  V30 1413 C 121.862 2.97835 3.07373 0
M  V30 1414 C 121.188 2.92867 4.47363 0
M  V30 1415 C 122.488 4.38265 2.84114 0
M  V30 1416 H 124.182 2.65267 1.38829 0
M  V30 1417 H 121.728 1.2765 0.666441 0
M  V30 1418 H 123.681 1.96698 3.72677 0
M  V30 1419 H 122.405 0.866858 3.14886 0
M  V30 1420 H 121.064 2.83401 2.3255 0
M  V30 1421 H 120.712 1.94783 4.63755 0
M  V30 1422 H 120.412 3.70227 4.56296 0
M  V30 1423 H 121.936 3.09015 5.26633 0
M  V30 1424 H 123.35 4.53198 3.51118 0
M  V30 1425 H 121.747 5.17115 3.04487 0
M  V30 1426 H 122.817 4.50281 1.7993 0
M  V30 1427 N 124.16 -0.719506 1.40217 0
M  V30 1428 C 125.093 -1.84298 1.34571 0
M  V30 1429 C 126.071 -1.61149 0.216741 0
M  V30 1430 O 127.255 -1.84212 0.399756 0
M  V30 1431 C 124.382 -3.20568 1.09335 0
M  V30 1432 C 123.428 -3.62551 2.24631 0
M  V30 1433 S 124.261 -3.7012 3.87004 0
M  V30 1434 C 125.417 -5.09154 3.64024 0
M  V30 1435 H 125.65 -1.88807 2.2965 0
M  V30 1436 H 123.183 -0.885901 1.26456 0
M  V30 1437 H 125.141 -3.99246 0.954602 0
M  V30 1438 H 123.802 -3.13696 0.159164 0
M  V30 1439 H 122.995 -4.61483 2.02606 0
M  V30 1440 H 122.597 -2.91119 2.34789 0
M  V30 1441 H 124.889 -5.95955 3.22248 0
M  V30 1442 H 125.832 -5.36213 4.62473 0
M  V30 1443 H 126.24 -4.79562 2.97793 0
M  V30 1444 N 125.638 -1.25649 -0.95132 0
M  V30 1445 C 127.054 -1.02542 -1.223 0
M  V30 1446 C 127.254 0.255715 -1.99871 0
M  V30 1447 O 126.31 0.967558 -2.33226 0
M  V30 1448 C 127.623 -2.25065 -1.99415 0
M  V30 1449 C 129.171 -2.29861 -2.12446 0
M  V30 1450 C 129.646 -3.52048 -2.92961 0
M  V30 1451 N 131.137 -3.52465 -3.00538 0
M  V30 1452 C 131.872 -4.43672 -3.63239 0
M  V30 1453 N 131.368 -5.45157 -4.27523 0
M  V30 1454 N 133.161 -4.31346 -3.60412 0
M  V30 1455 H 125.312 -2.07951 -0.432471 0
M  V30 1456 H 127.575 -0.91339 -0.253816 0
M  V30 1457 H 127.281 -3.18194 -1.49817 0
M  V30 1458 H 127.155 -2.28502 -3.00111 0
M  V30 1459 H 129.542 -1.37252 -2.61239 0
M  V30 1460 H 129.623 -2.3044 -1.11044 0
M  V30 1461 H 129.267 -4.44981 -2.44856 0
M  V30 1462 H 129.197 -3.48715 -3.94596 0
M  V30 1463 H 131.688 -2.79056 -2.54826 0
M  V30 1464 H 132.001 -6.10958 -4.73234 0
M  V30 1465 H 130.346 -5.49025 -4.26141 0
M  V30 1466 H 133.537 -3.51288 -3.09377 0
M  V30 1467 H 133.71 -5.02624 -4.0899 0
M  V30 1468 N 127.117 1.15442 -1.07289 0
M  V30 1469 C 128.064 2.20161 -0.692653 0
M  V30 1470 C 129.034 1.63073 0.31564 0
M  V30 1471 O 130.219 1.89725 0.202235 0
M  V30 1472 C 127.359 3.44967 -0.0959509 0
M  V30 1473 C 126.472 4.16256 -1.15564 0
M  V30 1474 C 125.607 5.28609 -0.524011 0
M  V30 1475 C 124.646 5.91715 -1.56653 0
M  V30 1476 N 123.783 6.9554 -0.957531 0
M  V30 1477 H 128.623 2.52037 -1.59002 0
M  V30 1478 H 126.16 1.2378 -0.794798 0
M  V30 1479 H 128.118 4.16341 0.267628 0
M  V30 1480 H 126.748 3.1361 0.764772 0
M  V30 1481 H 125.8 3.43385 -1.6368 0
M  V30 1482 H 127.112 4.59268 -1.94613 0
M  V30 1483 H 126.266 6.06604 -0.108032 0
M  V30 1484 H 125.005 4.86787 0.29825 0
M  V30 1485 H 124.01 5.12433 -1.9923 0
M  V30 1486 H 125.235 6.35614 -2.39107 0
M  V30 1487 H 123.181 6.55814 -0.156162 0
M  V30 1488 H 123.098 7.36977 -1.68526 0
M  V30 1489 H 124.366 7.77435 -0.567032 0
M  V30 1490 N 128.595 0.856903 1.32268 0
M  V30 1491 C 129.841 0.462069 1.97466 0
M  V30 1492 C 130.174 -0.980298 1.67642 0
M  V30 1493 O 129.449 -1.68824 0.965858 0
M  V30 1494 C 129.732 0.704336 3.53145 0
M  V30 1495 C 129.585 2.19529 3.9259 0
M  V30 1496 C 130.904 0.1622 4.39801 0
M  V30 1497 H 128.023 0.169357 0.717278 0
M  V30 1498 H 130.665 1.07574 1.56614 0
M  V30 1499 H 128.815 0.181999 3.88073 0
M  V30 1500 H 130.487 2.78387 3.67829 0
M  V30 1501 H 128.73 2.67292 3.41668 0
M  V30 1502 H 129.401 2.31549 5.01088 0
M  V30 1503 H 131.877 0.608905 4.11621 0
M  V30 1504 H 130.753 0.361265 5.4771 0
M  V30 1505 H 131.014 -0.935158 4.32096 0
M  V30 1506 N 130.073 -1.45103 0.615059 0
M  V30 1507 C 131.489 -1.57137 0.279322 0
M  V30 1508 C 131.689 -1.60523 -1.21797 0
M  V30 1509 O 130.745 -1.53956 -2.00134 0
M  V30 1510 C 132.058 -2.85062 0.957083 0
M  V30 1511 C 133.606 -2.98749 0.933706 0
M  V30 1512 C 134.081 -4.29455 1.59162 0
M  V30 1513 N 135.572 -4.36231 1.55746 0
M  V30 1514 C 136.307 -5.36051 2.0356 0
M  V30 1515 N 135.803 -6.42367 2.59494 0
M  V30 1516 N 137.596 -5.27456 1.94284 0
M  V30 1517 H 129.747 -1.41148 1.58717 0
M  V30 1518 H 132.01 -0.675331 0.665306 0
M  V30 1519 H 131.716 -2.88488 2.01166 0
M  V30 1520 H 131.59 -3.7407 0.48494 0
M  V30 1521 H 133.977 -2.94886 -0.112347 0
M  V30 1522 H 134.058 -2.11132 1.44419 0
M  V30 1523 H 133.702 -4.34077 2.63704 0
M  V30 1524 H 133.632 -5.15901 1.0561 0
M  V30 1525 H 136.123 -3.60011 1.14893 0
M  V30 1526 H 136.436 -7.14793 2.93752 0
M  V30 1527 H 134.781 -6.43097 2.63537 0
M  V30 1528 H 137.972 -4.43308 1.5032 0
M  V30 1529 H 138.145 -6.05099 2.3186 0
M  V30 1530 N 131.551 -0.354651 -1.53558 0
M  V30 1531 C 132.483 0.5315 -2.22952 0
M  V30 1532 C 133.496 1.05503 -1.23988 0
M  V30 1533 O 134.685 0.963279 -1.50277 0
M  V30 1534 C 131.785 1.74538 -2.90499 0
M  V30 1535 C 130.958 1.35524 -4.15875 0
M  V30 1536 C 130.017 2.42999 -4.66731 0
M  V30 1537 O 129.043 2.05844 -5.30676 0
M  V30 1538 N 130.245 3.74423 -4.43608 0
M  V30 1539 H 133.01 -0.0628615 -2.99634 0
M  V30 1540 H 130.571 -0.179302 -1.60904 0
M  V30 1541 H 132.563 2.45892 -3.21433 0
M  V30 1542 H 131.133 2.24686 -2.17336 0
M  V30 1543 H 130.353 0.471998 -3.91364 0
M  V30 1544 H 131.641 1.07071 -4.97406 0
M  V30 1545 H 131.039 4.07391 -3.92491 0
M  V30 1546 H 129.596 4.41913 -4.7912 0
M  V30 1547 N 133.029 1.57378 -0.0835403 0
M  V30 1548 C 133.959 2.1641 0.87686 0
M  V30 1549 C 134.94 1.09429 1.30228 0
M  V30 1550 O 136.125 1.37516 1.37124 0
M  V30 1551 C 133.255 2.73517 2.14022 0
M  V30 1552 C 132.209 3.85769 1.85381 0
M  V30 1553 C 131.535 4.29529 3.18448 0
M  V30 1554 C 132.835 5.09486 1.14984 0
M  V30 1555 H 134.529 2.96914 0.385059 0
M  V30 1556 H 132.075 1.42823 0.18377 0
M  V30 1557 H 134.028 3.13463 2.81636 0
M  V30 1558 H 132.752 1.90252 2.65465 0
M  V30 1559 H 131.411 3.46345 1.20169 0
M  V30 1560 H 131.059 3.43169 3.67755 0
M  V30 1561 H 130.759 5.05204 3.00071 0
M  V30 1562 H 132.283 4.72099 3.8724 0
M  V30 1563 H 133.697 5.46674 1.72687 0
M  V30 1564 H 132.094 5.90515 1.06826 0
M  V30 1565 H 133.164 4.84724 0.130749 0
M  V30 1566 N 134.507 -0.190092 1.56449 0
M  V30 1567 C 135.437 -1.23816 1.97969 0
M  V30 1568 C 136.418 -1.47201 0.852395 0
M  V30 1569 O 137.603 -1.58854 1.1171 0
M  V30 1570 C 134.733 -2.5813 2.3235 0
M  V30 1571 C 133.687 -2.49348 3.47864 0
M  V30 1572 C 133.013 -3.8798 3.67934 0
M  V30 1573 C 134.313 -2.01424 4.81898 0
M  V30 1574 H 136.007 -0.89311 2.85769 0
M  V30 1575 H 133.553 -0.428177 1.37487 0
M  V30 1576 H 135.506 -3.31637 2.59991 0
M  V30 1577 H 134.23 -2.94386 1.41438 0
M  V30 1578 H 132.889 -1.78297 3.20321 0
M  V30 1579 H 132.537 -4.21597 2.74344 0
M  V30 1580 H 132.237 -3.82978 4.45648 0
M  V30 1581 H 133.761 -4.63101 3.97957 0
M  V30 1582 H 135.175 -2.64693 5.08538 0
M  V30 1583 H 133.572 -2.07413 5.63116 0
M  V30 1584 H 134.642 -0.967677 4.75146 0
M  V30 1585 N 135.985 -1.50799 -0.457987 0
M  V30 1586 C 136.895 -1.73426 -1.57989 0
M  V30 1587 C 137.911 -0.617745 -1.62665 0
M  V30 1588 O 139.087 -0.897614 -1.80291 0
M  V30 1589 C 136.152 -1.83557 -2.94122 0
M  V30 1590 C 135.213 -3.07345 -2.99729 0
M  V30 1591 C 134.446 -3.16983 -4.29368 0
M  V30 1592 O 134.669 -2.33077 -5.20607 0
M  V30 1593 O 133.603 -4.09812 -4.40837 0
M  V30 1594 H 137.429 -2.68555 -1.41817 0
M  V30 1595 H 135.014 -1.35052 -0.638859 0
M  V30 1596 H 136.896 -1.92326 -3.74952 0
M  V30 1597 H 135.571 -0.916137 -3.10465 0
M  V30 1598 H 134.478 -3.04068 -2.1793 0
M  V30 1599 H 135.811 -3.9891 -2.88326 0
M  V30 1600 N 137.463 0.71206 -1.40597 0
M  V30 1601 C 138.426 1.80785 -1.40888 0
M  V30 1602 C 139.426 1.57937 -0.302103 0
M  V30 1603 O 140.616 1.64913 -0.561182 0
M  V30 1604 C 137.748 3.18927 -1.20409 0
M  V30 1605 H 138.941 1.81924 -2.38419 0
M  V30 1606 H 136.494 0.91805 -1.26497 0
M  V30 1607 H 137.229 3.23436 -0.236522 0
M  V30 1608 H 137.014 3.36911 -2.00582 0
M  V30 1609 H 138.504 3.98949 -1.23408 0
M  V30 1610 N 138.941 1.26152 0.944643 0
M  V30 1611 C 139.904 1.07474 2.0244 0
M  V30 1612 C 140.904 0.0242064 1.60782 0
M  V30 1613 O 142.094 0.267302 1.72137 0
M  V30 1614 C 139.226 0.633956 3.34953 0
M  V30 1615 H 140.419 2.03336 2.20442 0
M  V30 1616 H 137.972 1.087 1.12312 0
M  V30 1617 H 138.707 -0.326811 3.22649 0
M  V30 1618 H 138.492 1.39247 3.66542 0
M  V30 1619 H 139.982 0.52501 4.14287 0
M  V30 1620 N 140.419 -1.14872 1.07899 0
M  V30 1621 C 141.667 -1.85422 0.803941 0
M  V30 1622 C 141.988 -1.83051 -0.67211 0
M  V30 1623 O 141.258 -1.27532 -1.48703 0
M  V30 1624 H 139.838 -0.686537 0.294408 0
M  V30 1625 H 142.5 -1.39226 1.3639 0
M  V30 1626 H 141.596 -2.90399 1.14346 0
M  V30 1627 N 141.898 -0.863906 -1.31812 0
M  V30 1628 C 142.861 -0.320212 -2.26952 0
M  V30 1629 C 143.861 0.525369 -1.51975 0
M  V30 1630 O 145.051 0.335547 -1.70938 0
M  V30 1631 C 142.183 0.545919 -3.365 0
M  V30 1632 H 143.376 -1.16004 -2.76556 0
M  V30 1633 H 140.929 -0.638995 -1.42641 0
M  V30 1634 H 141.664 1.40718 -2.92179 0
M  V30 1635 H 141.449 -0.0594674 -3.92055 0
M  V30 1636 H 142.939 0.918796 -4.07367 0
M  V30 1637 N 143.376 1.44774 -0.622745 0
M  V30 1638 C 144.787 1.85546 -0.207226 0
M  V30 1639 C 145.138 1.52093 1.23944 0
M  V30 1640 O 144.263 0.95492 1.94191 0
M  V30 1641 C 144.858 3.36781 -0.369313 0
M  V30 1642 C 143.417 3.76399 -0.00836847 0
M  V30 1643 C 142.564 2.68664 -0.686651 0
M  V30 1644 H 145.515 1.3536 -0.828454 0
M  V30 1645 H 145.536 3.78453 0.394162 0
M  V30 1646 H 145.048 3.61098 -1.42231 0
M  V30 1647 H 143.149 3.57698 1.04322 0
M  V30 1648 H 143.262 4.7732 -0.412584 0
M  V30 1649 H 141.626 2.54404 -0.122777 0
M  V30 1650 H 142.409 2.95815 -1.74208 0
M  V30 1651 N 144.854 0.36279 1.53368 0
M  V30 1652 C 145.784 -0.476976 2.28576 0
M  V30 1653 C 146.765 -1.08631 1.30894 0
M  V30 1654 O 147.95 -1.10409 1.59761 0
M  V30 1655 C 145.08 -1.61828 3.07293 0
M  V30 1656 C 144.034 -1.13633 4.1264 0
M  V30 1657 C 143.36 -2.36766 4.79423 0
M  V30 1658 C 144.66 -0.223061 5.21823 0
M  V30 1659 H 146.354 0.150474 2.99022 0
M  V30 1660 H 143.9 0.0738103 1.43811 0
M  V30 1661 H 145.853 -2.21237 3.58653 0
M  V30 1662 H 144.577 -2.27292 2.34533 0
M  V30 1663 H 143.236 -0.564945 3.62221 0
M  V30 1664 H 142.884 -3.0068 4.03238 0
M  V30 1665 H 142.584 -2.05192 5.50609 0
M  V30 1666 H 144.108 -2.96865 5.33576 0
M  V30 1667 H 145.522 -0.724545 5.68703 0
M  V30 1668 H 143.919 0.001678 6.001 0
M  V30 1669 H 144.989 0.735553 4.79289 0
M  V30 1670 N 146.332 -1.57332 0.0918853 0
M  V30 1671 C 147.581 -1.93412 -0.572249 0
M  V30 1672 C 147.894 -0.975515 -1.69538 0
M  V30 1673 O 149.1 -1.22991 -2.42045 0
M  V30 1674 C 147.556 -3.43648 -1.0693 0
M  V30 1675 C 147.164 -4.47994 0.0239049 0
M  V30 1676 C 148.908 -3.88695 -1.70635 0
M  V30 1677 C 146.815 -5.89381 -0.488319 0
M  V30 1678 H 145.745 -0.721939 -0.217532 0
M  V30 1679 H 148.396 -1.82735 0.167369 0
M  V30 1680 H 146.778 -3.49466 -1.8625 0
M  V30 1681 H 147.952 -4.53815 0.799277 0
M  V30 1682 H 146.267 -4.12536 0.565946 0
M  V30 1683 H 148.864 -4.91725 -2.10025 0
M  V30 1684 H 149.207 -3.27166 -2.57426 0
M  V30 1685 H 149.74 -3.85564 -0.979023 0
M  V30 1686 H 146.479 -6.54602 0.342906 0
M  V30 1687 H 145.999 -5.87037 -1.23077 0
M  V30 1688 H 147.678 -6.39863 -0.958317 0
M  V30 1689 N 147.81 0.181792 -1.56548 0
M  V30 1690 C 149.058 0.89832 -1.81038 0
M  V30 1691 C 149.379 1.83232 -0.667164 0
M  V30 1692 O 148.649 1.93372 0.313673 0
M  V30 1693 H 147.229 0.33471 -0.667816 0
M  V30 1694 H 149.891 0.184116 -1.94028 0
M  V30 1695 H 148.987 1.4815 -2.74696 0
M  V30 1696 N 149.288 1.51039 0.449983 0
M  V30 1697 C 150.536 1.62759 1.19808 0
M  V30 1698 C 150.857 0.339981 1.92013 0
M  V30 1699 O 150.127 -0.643606 1.85026 0
M  V30 1700 H 148.707 0.599811 0.445237 0
M  V30 1701 H 151.369 1.87914 0.517138 0
M  V30 1702 H 150.465 2.44911 1.93455 0
M  V30 1703 N 150.766 -0.704594 1.40972 0
M  V30 1704 C 152.014 -1.46169 1.39568 0
M  V30 1705 C 152.335 -1.95 0.00253745 0
M  V30 1706 O 151.605 -1.71095 -0.954114 0
M  V30 1707 H 150.185 -0.542326 0.513704 0
M  V30 1708 H 152.847 -0.834553 1.76128 0
M  V30 1709 H 151.943 -2.32922 2.07735 0
M  V30 1710 N 152.244 -1.26651 -0.937939 0
M  V30 1711 C 153.174 -1.10993 -2.05433 0
M  V30 1712 C 154.155 -0.0142161 -1.70094 0
M  V30 1713 O 155.34 -0.186837 -1.93299 0
M  V30 1714 C 152.47 -0.745561 -3.39203 0
M  V30 1715 C 151.424 -1.79337 -3.88616 0
M  V30 1716 C 150.75 -1.28324 -5.19073 0
M  V30 1717 C 152.05 -3.19553 -4.13138 0
M  V30 1718 H 153.744 -2.0438 -2.1879 0
M  V30 1719 H 151.29 -0.984041 -1.05131 0
M  V30 1720 H 153.243 -0.622888 -4.16771 0
M  V30 1721 H 151.967 0.22401 -3.25831 0
M  V30 1722 H 150.626 -1.90477 -3.13231 0
M  V30 1723 H 150.274 -0.303414 -5.02084 0
M  V30 1724 H 149.974 -1.98369 -5.53103 0
M  V30 1725 H 151.498 -1.1733 -5.99221 0
M  V30 1726 H 152.912 -3.11471 -4.81309 0
M  V30 1727 H 151.309 -3.87218 -4.58457 0
M  V30 1728 H 152.379 -3.65368 -3.18801 0
M  V30 1729 N 153.722 1.14298 -1.08507 0
M  V30 1730 C 154.947 1.8976 -0.837001 0
M  V30 1731 C 155.372 1.78097 0.605228 0
M  V30 1732 O 154.73 1.12188 1.4242 0
M  V30 1733 C 154.778 3.37685 -1.26495 0
M  V30 1734 O 153.882 4.10281 -0.417514 0
M  V30 1735 H 153.223 0.590365 -0.303917 0
M  V30 1736 H 155.753 1.44672 -1.44676 0
M  V30 1737 H 155.763 3.88501 -1.24625 0
M  V30 1738 H 154.438 3.45492 -2.31534 0
M  V30 1739 H 153.015 3.69536 -0.499722 0
M  V30 1740 N 155.201 0.870884 1.31352 0
M  V30 1741 C 156.164 0.332243 2.26779 0
M  V30 1742 C 157.164 -0.517302 1.52252 0
M  V30 1743 O 158.354 -0.326477 1.71113 0
M  V30 1744 C 155.486 -0.528066 3.36785 0
M  V30 1745 H 156.679 1.17469 2.75937 0
M  V30 1746 H 154.232 0.64655 1.423 0
M  V30 1747 H 154.967 -1.39167 2.92922 0
M  V30 1748 H 154.752 0.0802582 3.92018 0
M  V30 1749 H 156.242 -0.897179 4.07849 0
M  V30 1750 O 156.718 -1.41941 0.770395 0
M  V30 1751 H 157.409 -1.908 0.333941 0
M  V30 END ATOM
M  V30 BEGIN BOND
M  V30 END BOND
M  V30 END CTAB
M  END
$$$$
