drugbank_target|P80748 Immunoglobulin lambda variable 3-21 (DB01593; DB14487)
 OpenBabel12092121083D

  0  0  0     0  0            999 V3000
M  V30 BEGIN CTAB
M  V30 COUNTS 1707 1729 0 0 0
M  V30 BEGIN ATOM
M  V30 1 H -0.908 1.98254 -0.117106 0
M  V30 2 N 0 1.576 0 0
M  V30 3 C 0.933 2.03868 1.02534 0
M  V30 4 C 1.911 0.928543 1.3348 0
M  V30 5 O 3.095 1.19667 1.45644 0
M  V30 6 C 0.222 2.43627 2.35294 0
M  V30 7 C -0.732 3.65373 2.2001 0
M  V30 8 S 0.101 5.13292 1.52614 0
M  V30 9 C 1.257 5.56322 2.86805 0
M  V30 10 H 1.49 2.90518 0.631377 0
M  V30 11 H -0.977 1.52953 0.210867 0
M  V30 12 H 0.981 2.67203 3.11629 0
M  V30 13 H -0.358 1.57376 2.7183 0
M  V30 14 H -1.165 3.90944 3.18086 0
M  V30 15 H -1.563 3.418 1.51819 0
M  V30 16 H 0.729 5.58782 3.83104 0
M  V30 17 H 1.672 6.56266 2.65933 0
M  V30 18 H 2.08 4.83886 2.90714 0
M  V30 19 N 1.4781 -0.272755 1.55222 0
M  V30 20 C 2.4411 -1.32041 1.87344 0
M  V30 21 C 3.4411 -1.42342 0.74803 0
M  V30 22 O 4.6311 -1.41488 1.0162 0
M  V30 23 C 1.7631 -2.70173 2.07893 0
M  V30 24 H 2.9561 -1.04789 2.80997 0
M  V30 25 H 0.5091 -0.51083 1.47717 0
M  V30 26 H 1.2441 -3.02605 1.16622 0
M  V30 27 H 1.0291 -2.64082 2.89833 0
M  V30 28 H 2.5191 -3.45869 2.34017 0
M  V30 29 N 2.9562 -1.48159 -0.537278 0
M  V30 30 C 4.2022 -1.57015 -1.29297 0
M  V30 31 C 4.5572 -0.237791 -1.90925 0
M  V30 32 O 3.8502 0.758621 -1.75942 0
M  V30 33 C 4.0442 -2.63956 -2.40961 0
M  V30 34 C 3.8732 -4.07461 -1.90278 0
M  V30 35 C 2.6432 -4.74685 -1.73213 0
M  V30 36 C 4.8412 -4.93858 -1.43556 0
M  V30 37 N 2.8232 -6.02633 -1.17078 0
M  V30 38 C 4.1942 -6.11993 -0.993204 0
M  V30 39 C 6.2492 -4.80141 -1.31792 0
M  V30 40 C 4.9522 -7.17923 -0.444872 0
M  V30 41 C 6.9782 -5.86186 -0.783585 0
M  V30 42 C 6.3402 -7.03524 -0.351261 0
M  V30 43 H 2.4392 -0.629154 -0.464423 0
M  V30 44 H 5.0232 -1.85006 -0.606705 0
M  V30 45 H 3.1942 -2.378 -3.07093 0
M  V30 46 H 4.9262 -2.62539 -3.07986 0
M  V30 47 H 1.6812 -4.30902 -1.9652 0
M  V30 48 H 2.1052 -6.7085 -0.910421 0
M  V30 49 H 6.7472 -3.89772 -1.63823 0
M  V30 50 H 4.4652 -8.08022 -0.11222 0
M  V30 51 H 8.0512 -5.77624 -0.695835 0
M  V30 52 H 6.9312 -7.8418 0.055777 0
M  V30 53 N 4.4343 0.785586 -1.36625 0
M  V30 54 C 5.6623 1.57448 -1.3423 0
M  V30 55 C 6.0773 1.88649 0.0755653 0
M  V30 56 O 5.4343 1.50414 1.03354 0
M  V30 57 C 5.4853 2.89316 -2.16745 0
M  V30 58 O 5.2063 2.59459 -3.53005 0
M  V30 59 C 6.7073 3.83606 -2.22174 0
M  V30 60 H 3.9273 0.488226 -0.4603 0
M  V30 61 H 6.4713 0.974733 -1.79775 0
M  V30 62 H 4.6263 3.4575 -1.74745 0
M  V30 63 H 5.0403 3.43804 -3.96105 0
M  V30 64 H 6.5143 4.73181 -2.8426 0
M  V30 65 H 6.9913 4.21734 -1.22627 0
M  V30 66 H 7.5973 3.33104 -2.64427 0
M  V30 67 N 5.9124 1.20967 1.01018 0
M  V30 68 C 7.1584 1.02526 1.74975 0
M  V30 69 C 7.4914 -0.4408 1.89131 0
M  V30 70 O 6.7664 -1.32718 1.42184 0
M  V30 71 C 7.0494 1.71699 3.1653 0
M  V30 72 C 6.9024 3.25791 3.10129 0
M  V30 73 C 8.2214 1.45531 4.15342 0
M  V30 74 H 5.3404 0.373863 0.635134 0
M  V30 75 H 7.9824 1.49071 1.17805 0
M  V30 76 H 6.1324 1.32128 3.65341 0
M  V30 77 H 7.8044 3.74697 2.69072 0
M  V30 78 H 6.0474 3.56363 2.47362 0
M  V30 79 H 6.7184 3.69353 4.10222 0
M  V30 80 H 9.1944 1.79872 3.75213 0
M  V30 81 H 8.0704 1.96453 5.1254 0
M  V30 82 H 8.3314 0.384237 4.40427 0
M  V30 83 N 7.3905 -1.2043 1.01659 0
M  V30 84 C 8.3205 -2.25466 0.607226 0
M  V30 85 C 9.3015 -1.65853 -0.377716 0
M  V30 86 O 10.4865 -1.92409 -0.263149 0
M  V30 87 C 7.6165 -3.47256 -0.0552949 0
M  V30 88 C 6.5705 -4.19462 0.850632 0
M  V30 89 C 5.8965 -5.34673 0.0538859 0
M  V30 90 C 7.1965 -4.75603 2.15868 0
M  V30 91 H 8.8905 -2.59962 1.48526 0
M  V30 92 H 6.4365 -1.2496 0.715605 0
M  V30 93 H 8.3895 -4.19917 -0.353233 0
M  V30 94 H 7.1135 -3.11924 -0.968045 0
M  V30 95 H 5.7725 -3.48667 1.13257 0
M  V30 96 H 5.4205 -4.95585 -0.860514 0
M  V30 97 H 5.1205 -5.83913 0.657192 0
M  V30 98 H 6.6445 -6.10138 -0.237598 0
M  V30 99 H 8.0585 -5.40083 1.92311 0
M  V30 100 H 6.4555 -5.3528 2.71284 0
M  V30 101 H 7.5255 -3.94346 2.82169 0
M  V30 102 N 8.8686 -0.792821 -1.36206 0
M  V30 103 C 9.7986 -0.207853 -2.32573 0
M  V30 104 C 10.7796 0.659055 -1.56813 0
M  V30 105 O 11.9646 0.592176 -1.84951 0
M  V30 106 C 9.0946 0.655449 -3.41059 0
M  V30 107 C 8.0486 -0.111842 -4.27854 0
M  V30 108 C 7.3746 0.872274 -5.27537 0
M  V30 109 C 8.6746 -1.30299 -5.05786 0
M  V30 110 H 10.3686 -1.01294 -2.81744 0
M  V30 111 H 7.9146 -0.48854 -1.3546 0
M  V30 112 H 9.8676 1.07464 -4.07467 0
M  V30 113 H 8.5916 1.49328 -2.90463 0
M  V30 114 H 7.2506 -0.512053 -3.63006 0
M  V30 115 H 6.8986 1.70523 -4.73214 0
M  V30 116 H 6.5986 0.363291 -5.86476 0
M  V30 117 H 8.1226 1.28996 -5.96818 0
M  V30 118 H 9.5366 -0.959379 -5.65216 0
M  V30 119 H 7.9336 -1.7455 -5.74154 0
M  V30 120 H 9.0036 -2.09663 -4.37229 0
M  V30 121 N 10.3467 1.47872 -0.545128 0
M  V30 122 C 11.2767 2.32661 0.197793 0
M  V30 123 C 12.2577 1.43041 0.920504 0
M  V30 124 O 13.4427 1.71912 0.90333 0
M  V30 125 C 10.5727 3.24569 1.23582 0
M  V30 126 C 9.5267 4.23333 0.630323 0
M  V30 127 C 8.8527 5.0448 1.77211 0
M  V30 128 C 10.1527 5.20704 -0.407974 0
M  V30 129 H 11.8467 2.95024 -0.510045 0
M  V30 130 H 9.3927 1.4187 -0.246731 0
M  V30 131 H 11.3457 3.8272 1.76362 0
M  V30 132 H 10.0697 2.60236 1.97344 0
M  V30 133 H 8.7287 3.6639 0.123922 0
M  V30 134 H 8.3767 4.36561 2.49847 0
M  V30 135 H 8.0767 5.71339 1.37281 0
M  V30 136 H 9.6007 5.65487 2.3034 0
M  V30 137 H 11.0147 5.7329 0.033305 0
M  V30 138 H 9.4117 5.95699 -0.725486 0
M  V30 139 H 10.4817 4.66917 -1.30828 0
M  V30 140 N 11.8248 0.280983 1.55075 0
M  V30 141 C 13.0728 -0.333455 1.9933 0
M  V30 142 C 13.3938 -1.55937 1.17085 0
M  V30 143 O 12.6638 -1.94143 0.261805 0
M  V30 144 H 11.2438 -0.126197 0.736263 0
M  V30 145 H 13.9058 0.387678 1.91005 0
M  V30 146 H 13.0018 -0.619292 3.05894 0
M  V30 147 N 13.3029 -1.57598 0.00835791 0
M  V30 148 C 14.2329 -2.1198 -0.979113 0
M  V30 149 C 15.2139 -1.03091 -1.35301 0
M  V30 150 O 16.3989 -1.30818 -1.43528 0
M  V30 151 C 13.5289 -2.62995 -2.26828 0
M  V30 152 C 12.4829 -3.76485 -2.03576 0
M  V30 153 C 11.8089 -4.13846 -3.38579 0
M  V30 154 C 13.1089 -5.0342 -1.39161 0
M  V30 155 H 14.8029 -2.94738 -0.526281 0
M  V30 156 H 12.3489 -1.41783 -0.251704 0
M  V30 157 H 14.3019 -2.99669 -2.96271 0
M  V30 158 H 13.0259 -1.7737 -2.7424 0
M  V30 159 H 11.6849 -3.40217 -1.36557 0
M  V30 160 H 11.3329 -3.25232 -3.83709 0
M  V30 161 H 11.0329 -4.90312 -3.23834 0
M  V30 162 H 12.5569 -4.53086 -4.09323 0
M  V30 163 H 13.9709 -5.37812 -1.98573 0
M  V30 164 H 12.3679 -5.84746 -1.34878 0
M  V30 165 H 13.4379 -4.83548 -0.361868 0
M  V30 166 N 14.781 0.264519 -1.55364 0
M  V30 167 C 15.711 1.33121 -1.91836 0
M  V30 168 C 16.692 1.51101 -0.781192 0
M  V30 169 O 17.877 1.64003 -1.04003 0
M  V30 170 C 15.007 2.68921 -2.19769 0
M  V30 171 C 13.961 2.65661 -3.35571 0
M  V30 172 C 13.287 4.05093 -3.49004 0
M  V30 173 C 14.587 2.24187 -4.71739 0
M  V30 174 H 16.281 1.02844 -2.81182 0
M  V30 175 H 13.827 0.493286 -1.35287 0
M  V30 176 H 15.78 3.43663 -2.43872 0
M  V30 177 H 14.504 3.00799 -1.27231 0
M  V30 178 H 13.163 1.93377 -3.1145 0
M  V30 179 H 12.811 4.34206 -2.53917 0
M  V30 180 H 12.511 4.03804 -4.26868 0
M  V30 181 H 14.035 4.81561 -3.75408 0
M  V30 182 H 15.449 2.88654 -4.9533 0
M  V30 183 H 13.846 2.34044 -5.52579 0
M  V30 184 H 14.916 1.19327 -4.69988 0
M  V30 185 N 16.2591 1.48442 0.529413 0
M  V30 186 C 17.4841 1.60406 1.31471 0
M  V30 187 C 17.9091 0.264738 1.86228 0
M  V30 188 O 17.2671 -0.763668 1.64432 0
M  V30 189 C 17.3151 2.65419 2.44101 0
M  V30 190 O 16.4191 2.22618 3.47153 0
M  V30 191 H 15.7601 0.537863 0.389357 0
M  V30 192 H 18.2901 1.94432 0.636965 0
M  V30 193 H 18.3001 2.86709 2.90279 0
M  V30 194 H 16.9751 3.62652 2.03608 0
M  V30 195 H 15.5521 2.11543 3.0709 0
M  V30 196 N 17.7372 -0.778329 1.37039 0
M  V30 197 C 18.6872 -1.88142 1.28789 0
M  V30 198 C 19.6712 -1.59923 0.177063 0
M  V30 199 O 20.8632 -1.72165 0.410873 0
M  V30 200 C 17.9922 -3.25518 1.09055 0
M  V30 201 C 17.0782 -3.5971 2.24654 0
M  V30 202 N 17.4692 -3.65131 3.50018 0
M  V30 203 C 15.7672 -3.89837 2.16663 0
M  V30 204 C 16.4682 -3.95882 4.26207 0
M  V30 205 N 15.4442 -4.11441 3.55271 0
M  V30 206 H 19.2462 -1.90575 2.23737 0
M  V30 207 H 16.7602 -0.974435 1.29917 0
M  V30 208 H 18.7572 -4.04423 1.0123 0
M  V30 209 H 17.4172 -3.24353 0.15018 0
M  V30 210 H 18.4282 -3.475 3.84011 0
M  V30 211 H 15.1052 -3.96533 1.30645 0
M  V30 212 H 16.4952 -4.06907 5.34674 0
M  V30 213 N 19.2153 -1.21501 -1.00376 0
M  V30 214 C 20.4553 -1.04444 -1.75701 0
M  V30 215 C 20.8193 0.414644 -1.87469 0
M  V30 216 O 22.0203 0.705763 -2.59369 0
M  V30 217 C 20.2913 -1.72389 -3.13077 0
M  V30 218 S 21.8503 -1.70604 -4.04277 0
M  V30 219 H 18.6683 -0.374249 -0.604532 0
M  V30 220 H 21.2703 -1.54267 -1.20091 0
M  V30 221 H 19.9743 -2.77734 -3.02146 0
M  V30 222 H 19.5053 -1.22751 -3.73759 0
M  V30 223 H 21.5203 -0.748012 -4.9053 0
M  V30 224 N 20.6934 1.19889 -1.02296 0
M  V30 225 C 21.9214 1.9339 -0.735399 0
M  V30 226 C 22.3364 1.75148 0.704887 0
M  V30 227 O 21.6934 1.06954 1.47875 0
M  V30 228 C 21.7444 3.45313 -1.06962 0
M  V30 229 O 21.4654 3.62964 -2.45334 0
M  V30 230 C 22.9664 4.35948 -0.804021 0
M  V30 231 H 20.1864 0.61448 -0.269546 0
M  V30 232 H 22.7304 1.522 -1.36585 0
M  V30 233 H 20.8854 3.84359 -0.484455 0
M  V30 234 H 21.2994 4.56886 -2.57595 0
M  V30 235 H 22.7734 5.41174 -1.0879 0
M  V30 236 H 23.2504 4.3842 0.261691 0
M  V30 237 H 23.8564 4.02574 -1.37164 0
M  V30 238 N 22.1715 0.800033 1.35784 0
M  V30 239 C 23.4195 0.376597 1.9856 0
M  V30 240 C 23.7405 -1.05812 1.63795 0
M  V30 241 O 23.0105 -1.73103 0.917171 0
M  V30 242 H 21.5905 0.136261 0.734467 0
M  V30 243 H 24.2525 1.02442 1.65806 0
M  V30 244 H 23.3485 0.477002 3.08433 0
M  V30 245 N 23.6496 -1.47581 0.552962 0
M  V30 246 C 24.8746 -2.07378 0.0300593 0
M  V30 247 C 25.2996 -1.40355 -1.25229 0
M  V30 248 O 24.6576 -0.477099 -1.7491 0
M  V30 249 C 24.7056 -3.60274 -0.153231 0
M  V30 250 O 23.8096 -3.94041 -1.21678 0
M  V30 251 H 23.1506 -0.662158 0.0494182 0
M  V30 252 H 25.6806 -1.89662 0.767434 0
M  V30 253 H 25.6906 -4.0633 -0.368761 0
M  V30 254 H 24.3656 -4.08455 0.783397 0
M  V30 255 H 22.9426 -3.59735 -0.982079 0
M  V30 256 N 25.1277 -0.289203 -1.54924 0
M  V30 257 C 26.3737 0.323998 -2.00195 0
M  V30 258 C 26.7067 1.54441 -1.17735 0
M  V30 259 O 25.9817 1.92875 -0.250878 0
M  V30 260 C 26.2647 0.692276 -3.53383 0
M  V30 261 C 26.1177 -0.536457 -4.46589 0
M  V30 262 C 27.4367 1.52335 -4.12895 0
M  V30 263 H 24.5557 0.116289 -0.727768 0
M  V30 264 H 27.1977 -0.398954 -1.85764 0
M  V30 265 H 25.3477 1.30822 -3.65811 0
M  V30 266 H 27.0197 -1.17499 -4.46085 0
M  V30 267 H 25.2627 -1.17192 -4.1767 0
M  V30 268 H 25.9337 -0.234806 -5.515 0
M  V30 269 H 28.4097 1.00302 -4.0383 0
M  V30 270 H 27.2857 1.74982 -5.20262 0
M  V30 271 H 27.5467 2.50886 -3.64018 0
M  V30 272 N 26.6058 1.57591 -0.0167156 0
M  V30 273 C 27.8338 1.95575 0.675128 0
M  V30 274 C 28.2488 0.892542 1.6637 0
M  V30 275 O 27.6058 -0.126912 1.82058 0
M  V30 276 C 27.6568 3.33608 1.39239 0
M  V30 277 O 27.3778 4.3585 0.443444 0
M  V30 278 C 28.8788 3.86151 2.17721 0
M  V30 279 H 26.0988 0.644423 0.186978 0
M  V30 280 H 28.6428 2.0437 -0.0728 0
M  V30 281 H 26.7978 3.2607 2.09182 0
M  V30 282 H 27.2118 5.158 0.951358 0
M  V30 283 H 28.6858 4.85114 2.63379 0
M  V30 284 H 29.1628 3.19738 3.01105 0
M  V30 285 H 29.7688 3.96918 1.52761 0
M  V30 286 N 28.0839 -0.256276 1.55502 0
M  V30 287 C 29.3089 -1.00766 1.81276 0
M  V30 288 C 29.7339 -1.78524 0.59252 0
M  V30 289 O 29.0919 -1.75413 -0.45827 0
M  V30 290 C 29.1399 -1.92869 3.04687 0
M  V30 291 O 28.2439 -3.019 2.80945 0
M  V30 292 H 27.5849 -0.287224 0.598664 0
M  V30 293 H 30.1149 -0.280109 2.02674 0
M  V30 294 H 30.1249 -2.34511 3.33869 0
M  V30 295 H 28.7999 -1.35689 3.93143 0
M  V30 296 H 27.3769 -2.64454 2.62904 0
M  V30 297 N 29.562 -1.4872 -0.521534 0
M  V30 298 C 30.792 -1.6061 -1.29954 0
M  V30 299 C 31.2 -0.268728 -1.87282 0
M  V30 300 O 30.543 0.753221 -1.67548 0
M  V30 301 C 30.605 -2.60013 -2.48261 0
M  V30 302 C 30.269 -4.04874 -2.11957 0
M  V30 303 C 31.266 -4.92304 -1.67132 0
M  V30 304 C 28.951 -4.5047 -2.22221 0
M  V30 305 C 30.945 -6.2336 -1.33047 0
M  V30 306 C 28.632 -5.81544 -1.87748 0
M  V30 307 C 29.63 -6.67812 -1.43234 0
M  V30 308 O 29.318 -7.96446 -1.09217 0
M  V30 309 H 29.05 -0.544116 -0.401141 0
M  V30 310 H 31.604 -1.95339 -0.634958 0
M  V30 311 H 29.834 -2.20422 -3.17728 0
M  V30 312 H 31.523 -2.61648 -3.10315 0
M  V30 313 H 32.289 -4.58312 -1.58665 0
M  V30 314 H 28.168 -3.83504 -2.55823 0
M  V30 315 H 31.712 -6.90649 -0.982299 0
M  V30 316 H 27.609 -6.15069 -1.95858 0
M  V30 317 H 28.377 -8.09275 -1.22542 0
M  V30 318 N 31.0401 0.771051 -1.3745 0
M  V30 319 C 32.2861 1.5319 -1.32894 0
M  V30 320 C 32.6191 1.94008 0.0862511 0
M  V30 321 O 31.8941 1.64124 1.04373 0
M  V30 322 C 32.1771 2.79648 -2.26868 0
M  V30 323 C 32.0301 2.45079 -3.77169 0
M  V30 324 C 33.3491 3.81583 -2.19277 0
M  V30 325 H 30.4681 0.555744 -0.484064 0
M  V30 326 H 33.1101 0.884492 -1.68157 0
M  V30 327 H 31.2601 3.34891 -1.96926 0
M  V30 328 H 32.9321 1.95745 -4.1771 0
M  V30 329 H 31.1751 1.77767 -3.95704 0
M  V30 330 H 31.8461 3.35478 -4.38359 0
M  V30 331 H 34.3221 3.35835 -2.45671 0
M  V30 332 H 33.1981 4.67787 -2.87171 0
M  V30 333 H 33.4591 4.25897 -1.18592 0
M  V30 334 N 32.5182 1.22032 0.997298 0
M  V30 335 C 33.4482 1.01065 2.10495 0
M  V30 336 C 34.4292 -0.0669542 1.69968 0
M  V30 337 O 35.6142 0.0943987 1.9397 0
M  V30 338 C 32.7442 0.582874 3.42374 0
M  V30 339 C 31.6982 1.60592 3.96729 0
M  V30 340 C 31.0242 1.03412 5.24605 0
M  V30 341 C 32.3242 2.99478 4.27914 0
M  V30 342 H 34.0182 1.93708 2.28292 0
M  V30 343 H 31.5642 0.932761 1.09707 0
M  V30 344 H 33.5172 0.423332 4.19268 0
M  V30 345 H 32.2412 -0.379213 3.24391 0
M  V30 346 H 30.9002 1.75316 3.21963 0
M  V30 347 H 30.5482 0.063518 5.0296 0
M  V30 348 H 30.2482 1.71754 5.61938 0
M  V30 349 H 31.7722 0.886066 6.04137 0
M  V30 350 H 33.1862 2.88153 4.95622 0
M  V30 351 H 31.5832 3.64903 4.76409 0
M  V30 352 H 32.6532 3.49742 3.3587 0
M  V30 353 N 33.9963 -1.19345 1.0293 0
M  V30 354 C 35.2243 -1.92997 0.745644 0
M  V30 355 C 35.6393 -1.75519 -0.695589 0
M  V30 356 O 34.9963 -1.07737 -1.47306 0
M  V30 357 C 35.0473 -3.44741 1.08792 0
M  V30 358 O 34.7683 -3.61658 2.47256 0
M  V30 359 C 36.2693 -4.35515 0.827129 0
M  V30 360 H 33.4893 -0.613042 0.272801 0
M  V30 361 H 36.0333 -1.51473 1.3739 0
M  V30 362 H 34.1883 -3.84097 0.504832 0
M  V30 363 H 34.6023 -4.55514 2.60015 0
M  V30 364 H 36.0763 -5.40589 1.11658 0
M  V30 365 H 36.5533 -4.38552 -0.238436 0
M  V30 366 H 37.1593 -4.01841 1.39297 0
M  V30 367 N 35.4744 -0.807222 -1.35358 0
M  V30 368 C 36.4064 -0.175717 -2.28525 0
M  V30 369 C 37.4194 0.625354 -1.5031 0
M  V30 370 O 38.6084 0.457611 -1.72535 0
M  V30 371 C 35.7084 0.773471 -3.29956 0
M  V30 372 C 34.8814 0.0186296 -4.37396 0
M  V30 373 C 33.9404 0.886395 -5.18681 0
M  V30 374 O 32.9664 0.337106 -5.68201 0
M  V30 375 N 34.1684 2.20839 -5.36852 0
M  V30 376 H 36.9334 -0.976091 -2.83359 0
M  V30 377 H 34.4944 -0.662737 -1.47714 0
M  V30 378 H 36.4864 1.35824 -3.81227 0
M  V30 379 H 35.0564 1.47465 -2.75632 0
M  V30 380 H 34.2764 -0.747349 -3.87051 0
M  V30 381 H 35.5644 -0.501577 -5.06322 0
M  V30 382 H 34.9624 2.67858 -4.98265 0
M  V30 383 H 33.5194 2.74237 -5.91301 0
M  V30 384 N 36.9525 1.47285 -0.560781 0
M  V30 385 C 38.3635 1.86258 -0.128343 0
M  V30 386 C 38.7145 1.46699 1.30284 0
M  V30 387 O 37.8395 0.871698 1.98067 0
M  V30 388 C 38.4345 3.38044 -0.22614 0
M  V30 389 C 36.9935 3.76096 0.151283 0
M  V30 390 C 36.1405 2.71335 -0.572084 0
M  V30 391 H 39.0915 1.38752 -0.770297 0
M  V30 392 H 39.1125 3.76441 0.554322 0
M  V30 393 H 38.6245 3.66806 -1.26788 0
M  V30 394 H 36.7255 3.52951 1.19399 0
M  V30 395 H 36.8385 4.78641 -0.209765 0
M  V30 396 H 35.2025 2.54696 -0.0147653 0
M  V30 397 H 35.9855 3.02938 -1.61504 0
M  V30 398 N 38.4306 0.297415 1.54768 0
M  V30 399 C 39.8416 -0.195947 1.85669 0
M  V30 400 C 40.1926 -1.53707 1.21937 0
M  V30 401 O 39.3176 -2.10164 0.515754 0
M  V30 402 C 39.9126 -0.362318 3.36857 0
M  V30 403 C 38.4716 -0.799901 3.67802 0
M  V30 404 C 37.6186 0.0938578 2.77141 0
M  V30 405 H 40.5696 0.518538 1.4999 0
M  V30 406 H 40.5906 -1.19745 3.61167 0
M  V30 407 H 40.1026 0.613921 3.83214 0
M  V30 408 H 38.2036 -1.78682 3.26961 0
M  V30 409 H 38.3166 -0.621773 4.75048 0
M  V30 410 H 36.6806 -0.426254 2.51108 0
M  V30 411 H 37.4636 1.06639 3.26318 0
M  V30 412 N 39.9087 -1.5758 0.0250728 0
M  V30 413 C 41.1337 -1.96337 -0.668317 0
M  V30 414 C 41.5587 -0.901314 -1.651 0
M  V30 415 O 40.9167 0.138187 -1.80773 0
M  V30 416 C 40.9647 -3.34191 -1.35457 0
M  V30 417 O 40.0687 -3.30269 -2.46974 0
M  V30 418 H 39.4097 -0.640281 -0.175887 0
M  V30 419 H 41.9397 -2.0442 0.0857224 0
M  V30 420 H 41.9497 -3.70331 -1.71228 0
M  V30 421 H 40.6247 -4.11036 -0.634218 0
M  V30 422 H 39.2017 -3.05841 -2.13344 0
M  V30 423 N 41.3868 0.248026 -1.55636 0
M  V30 424 C 42.6328 0.97767 -1.77678 0
M  V30 425 C 42.9658 1.85016 -0.590135 0
M  V30 426 O 42.2408 1.90095 0.411611 0
M  V30 427 C 42.5238 1.83914 -3.09593 0
M  V30 428 C 42.3768 0.99491 -4.38659 0
M  V30 429 C 43.6958 2.82183 -3.37729 0
M  V30 430 H 40.8148 0.354005 -0.646413 0
M  V30 431 H 43.4568 0.248253 -1.88371 0
M  V30 432 H 41.6068 2.46104 -3.00608 0
M  V30 433 H 43.2788 0.391789 -4.59633 0
M  V30 434 H 41.5218 0.299231 -4.32767 0
M  V30 435 H 42.1928 1.63145 -5.2734 0
M  V30 436 H 44.6688 2.30129 -3.4667 0
M  V30 437 H 43.5448 3.39582 -4.31249 0
M  V30 438 H 43.8058 3.58588 -2.58586 0
M  V30 439 N 42.8649 1.48995 0.513639 0
M  V30 440 C 44.0899 1.61792 1.29762 0
M  V30 441 C 44.5149 0.284475 1.85936 0
M  V30 442 O 43.8729 -0.746185 1.65232 0
M  V30 443 C 43.9209 2.67993 2.41272 0
M  V30 444 O 43.0249 2.26287 3.44772 0
M  V30 445 H 42.3659 0.541963 0.38363 0
M  V30 446 H 44.8959 1.95097 0.616307 0
M  V30 447 H 44.9059 2.89772 2.87221 0
M  V30 448 H 43.5809 3.64791 1.9975 0
M  V30 449 H 42.1579 2.14788 3.04829 0
M  V30 450 N 44.343 -0.763751 1.37857 0
M  V30 451 C 45.589 -1.52483 1.33704 0
M  V30 452 C 45.922 -1.94051 -0.0759612 0
M  V30 453 O 45.197 -1.64675 -1.03501 0
M  V30 454 C 45.48 -2.78441 2.28348 0
M  V30 455 C 45.333 -2.43075 3.78463 0
M  V30 456 C 46.652 -3.80415 2.21298 0
M  V30 457 H 43.771 -0.553169 0.487005 0
M  V30 458 H 46.413 -0.875562 1.68624 0
M  V30 459 H 44.563 -3.33842 1.987 0
M  V30 460 H 46.235 -1.93527 4.18742 0
M  V30 461 H 44.478 -1.75666 3.96641 0
M  V30 462 H 45.149 -3.33149 4.40132 0
M  V30 463 H 47.625 -3.34527 2.47449 0
M  V30 464 H 46.501 -4.66257 2.89647 0
M  V30 465 H 46.762 -4.25262 1.20849 0
M  V30 466 N 45.8211 -1.22559 -0.990812 0
M  V30 467 C 46.7841 -0.998863 -2.0629 0
M  V30 468 C 47.7841 0.0354834 -1.60761 0
M  V30 469 O 48.9741 -0.203231 -1.7301 0
M  V30 470 C 46.1061 -0.509203 -3.37076 0
M  V30 471 H 47.2991 -1.95014 -2.27837 0
M  V30 472 H 44.8521 -1.04456 -1.16269 0
M  V30 473 H 45.5871 0.446335 -3.21214 0
M  V30 474 H 45.3721 -1.25547 -3.71457 0
M  V30 475 H 46.8621 -0.370888 -4.1595 0
M  V30 476 N 47.2992 1.18797 -1.03562 0
M  V30 477 C 48.7102 1.70322 -0.764676 0
M  V30 478 C 49.0612 1.82708 0.714996 0
M  V30 479 O 48.1862 1.50299 1.55689 0
M  V30 480 C 48.7812 3.09356 -1.38145 0
M  V30 481 C 47.3402 3.58114 -1.15895 0
M  V30 482 C 46.4872 2.34798 -1.4753 0
M  V30 483 H 49.4382 1.03543 -1.20268 0
M  V30 484 H 49.4592 3.72378 -0.781977 0
M  V30 485 H 48.9712 3.00309 -2.45837 0
M  V30 486 H 47.0722 3.72464 -0.100544 0
M  V30 487 H 47.1852 4.4184 -1.8524 0
M  V30 488 H 45.5492 2.38464 -0.894829 0
M  V30 489 H 46.3322 2.28375 -2.56319 0
M  V30 490 N 48.7773 0.814389 1.34928 0
M  V30 491 C 50.0253 0.397636 1.9815 0
M  V30 492 C 50.3463 -1.04069 1.64908 0
M  V30 493 O 49.6163 -1.72121 0.93548 0
M  V30 494 H 48.1963 0.144043 0.732981 0
M  V30 495 H 50.8583 1.04195 1.6471 0
M  V30 496 H 49.9543 0.509688 3.0791 0
M  V30 497 N 50.2554 -1.46986 0.568584 0
M  V30 498 C 51.1874 -2.28233 -0.210337 0
M  V30 499 C 52.2004 -1.37682 -0.868767 0
M  V30 500 O 53.3894 -1.62406 -0.740705 0
M  V30 501 C 50.4894 -3.12293 -1.3163 0
M  V30 502 C 49.6624 -4.30878 -0.7525 0
M  V30 503 C 48.7214 -4.96445 -1.74439 0
M  V30 504 O 47.7474 -5.54482 -1.286 0
M  V30 505 N 48.9494 -4.92171 -3.07812 0
M  V30 506 H 51.7144 -2.95723 0.486648 0
M  V30 507 H 49.2754 -1.56742 0.405409 0
M  V30 508 H 51.2674 -3.53022 -1.97883 0
M  V30 509 H 49.8374 -2.46971 -1.91636 0
M  V30 510 H 49.0574 -3.94104 0.0871128 0
M  V30 511 H 50.3454 -5.07558 -0.35536 0
M  V30 512 H 49.7434 -4.46239 -3.47688 0
M  V30 513 H 48.3004 -5.36884 -3.69592 0
M  V30 514 N 51.7335 -0.305618 -1.54608 0
M  V30 515 C 52.9615 0.304775 -2.04643 0
M  V30 516 C 53.3765 1.47167 -1.18268 0
M  V30 517 O 52.7335 1.81296 -0.209328 0
M  V30 518 C 52.7845 0.756564 -3.53495 0
M  V30 519 O 52.5055 -0.36389 -4.36586 0
M  V30 520 C 54.0065 1.43163 -4.19546 0
M  V30 521 H 51.2265 0.0655481 -0.667791 0
M  V30 522 H 53.7705 -0.446592 -1.99564 0
M  V30 523 H 51.9255 1.45794 -3.58919 0
M  V30 524 H 52.3395 -0.0113121 -5.24499 0
M  V30 525 H 53.8135 1.69886 -5.25207 0
M  V30 526 H 54.2905 2.37318 -3.69563 0
M  V30 527 H 54.8965 0.773307 -4.18211 0
M  V30 528 N 53.2116 1.57565 -0.0334293 0
M  V30 529 C 54.1746 2.09393 0.932048 0
M  V30 530 C 55.1746 1.00986 1.25134 0
M  V30 531 O 56.3646 1.27129 1.19096 0
M  V30 532 C 53.4966 2.56338 2.2473 0
M  V30 533 H 54.6896 2.95984 0.483085 0
M  V30 534 H 52.2426 1.54819 0.21468 0
M  V30 535 H 52.9776 1.7309 2.74245 0
M  V30 536 H 52.7626 3.35542 2.02865 0
M  V30 537 H 54.2526 2.96646 2.93923 0
M  V30 538 N 54.6897 -0.239769 1.55765 0
M  V30 539 C 56.1057 -0.588624 1.48349 0
M  V30 540 C 56.3057 -1.88005 0.72502 0
M  V30 541 O 55.3617 -2.51186 0.257269 0
M  V30 542 C 56.6747 -0.68474 2.928 0
M  V30 543 C 58.2227 -0.77659 3.03213 0
M  V30 544 C 58.6977 -0.904207 4.48986 0
M  V30 545 N 60.1887 -0.968896 4.52953 0
M  V30 546 C 60.9237 -1.08703 5.63002 0
M  V30 547 N 60.4197 -1.17026 6.82845 0
M  V30 548 N 62.2127 -1.12074 5.50814 0
M  V30 549 H 54.3637 0.607911 2.03515 0
M  V30 550 H 56.6267 0.21083 0.924259 0
M  V30 551 H 56.3327 0.194284 3.51163 0
M  V30 552 H 56.2067 -1.55435 3.43686 0
M  V30 553 H 58.5937 -1.64606 2.44926 0
M  V30 554 H 58.6747 0.118315 2.55526 0
M  V30 555 H 58.3187 -0.0392633 5.07885 0
M  V30 556 H 58.2487 -1.81426 4.9436 0
M  V30 557 H 60.7397 -0.915633 3.6664 0
M  V30 558 H 61.0527 -1.25966 7.62465 0
M  V30 559 H 59.3977 -1.13971 6.85591 0
M  V30 560 H 62.5887 -1.05226 4.5612 0
M  V30 561 H 62.7617 -1.20936 6.36615 0
M  V30 562 N 56.1678 -1.49265 -0.50573 0
M  V30 563 C 57.4168 -1.57761 -1.25675 0
M  V30 564 C 57.7298 -0.267371 -1.93764 0
M  V30 565 O 58.9358 -0.230827 -2.70517 0
M  V30 566 C 57.3918 -2.78332 -2.28165 0
M  V30 567 C 56.9998 -4.16096 -1.66037 0
M  V30 568 C 58.7438 -2.96155 -3.04125 0
M  V30 569 C 56.6508 -5.27895 -2.6661 0
M  V30 570 H 55.5808 -0.587391 -0.472745 0
M  V30 571 H 58.2318 -1.75644 -0.53118 0
M  V30 572 H 56.6138 -2.53934 -3.03865 0
M  V30 573 H 57.7878 -4.50612 -0.963622 0
M  V30 574 H 56.1028 -4.03591 -1.02484 0
M  V30 575 H 58.6998 -3.76849 -3.79327 0
M  V30 576 H 59.0428 -2.06534 -3.61455 0
M  V30 577 H 59.5758 -3.2057 -2.35541 0
M  V30 578 H 56.3148 -6.1956 -2.14068 0
M  V30 579 H 55.8348 -4.97839 -3.34539 0
M  V30 580 H 57.5138 -5.57031 -3.29129 0
M  V30 581 N 57.6459 0.756429 -1.3826 0
M  V30 582 C 58.8739 1.54565 -1.3754 0
M  V30 583 C 59.2889 1.88767 0.0355331 0
M  V30 584 O 58.6459 1.52572 1.0014 0
M  V30 585 C 58.6969 2.84654 -2.22833 0
M  V30 586 O 58.4179 2.51912 -3.5843 0
M  V30 587 C 59.9189 3.78807 -2.30261 0
M  V30 588 H 57.1389 0.478353 -0.470553 0
M  V30 589 H 59.6829 0.936381 -1.81803 0
M  V30 590 H 57.8379 3.41965 -1.8204 0
M  V30 591 H 58.2519 3.35325 -4.03308 0
M  V30 592 H 59.7259 4.67045 -2.94233 0
M  V30 593 H 60.2029 4.19038 -1.31545 0
M  V30 594 H 60.8089 3.2742 -2.71433 0
M  V30 595 N 59.124 1.23083 0.984299 0
M  V30 596 C 60.364 1.07226 1.74017 0
M  V30 597 C 60.728 -0.384766 1.88105 0
M  V30 598 O 61.929 -0.664411 2.60459 0
M  V30 599 C 60.2 1.77348 3.10294 0
M  V30 600 S 61.759 1.77014 4.01512 0
M  V30 601 H 58.577 0.383819 0.598502 0
M  V30 602 H 61.179 1.56158 1.17622 0
M  V30 603 H 59.883 2.82506 2.97689 0
M  V30 604 H 59.414 1.28682 3.71759 0
M  V30 605 H 61.429 0.825956 4.89277 0
M  V30 606 N 60.6021 -1.18246 1.0419 0
M  V30 607 C 61.8501 -1.87886 0.744543 0
M  V30 608 C 62.1711 -1.8082 -0.730006 0
M  V30 609 O 61.4411 -1.22736 -1.52685 0
M  V30 610 H 60.0211 -0.695556 0.272417 0
M  V30 611 H 62.6831 -1.43494 1.31892 0
M  V30 612 H 61.7791 -2.9389 1.05049 0
M  V30 613 N 62.0802 -0.821533 -1.34494 0
M  V30 614 C 63.3282 -0.408139 -1.97936 0
M  V30 615 C 63.6492 1.03193 -1.65457 0
M  V30 616 O 62.9192 1.71622 -0.944595 0
M  V30 617 H 61.4992 -0.147928 -0.732206 0
M  V30 618 H 64.1612 -1.05067 -1.64155 0
M  V30 619 H 63.2572 -0.52601 -3.07635 0
M  V30 620 N 63.5583 1.46682 -0.576371 0
M  V30 621 C 64.5063 2.31953 0.17335 0
M  V30 622 C 65.5003 1.44098 0.89062 0
M  V30 623 O 66.7063 1.60759 0.809728 0
M  V30 624 H 63.0813 0.748273 0.0747727 0
M  V30 625 H 65.0523 2.93007 -0.564738 0
M  V30 626 C 63.8013 3.27142 1.17786 0
M  V30 627 H 63.1243 3.94719 0.635361 0
M  V30 628 H 64.5643 3.896 1.67296 0
M  V30 629 C 63.0233 2.52036 2.23561 0
M  V30 630 O 63.5533 2.27877 3.3081 0
M  V30 631 N 61.7593 2.12709 1.97998 0
M  V30 632 H 61.3063 2.32557 1.10792 0
M  V30 633 H 61.2643 1.62776 2.68982 0
M  V30 634 N 65.0364 0.313813 1.54444 0
M  V30 635 C 65.9844 -0.572171 2.25453 0
M  V30 636 C 66.9784 -1.12657 1.2651 0
M  V30 637 O 68.1844 -1.07573 1.44319 0
M  V30 638 H 64.5594 -0.203146 0.724041 0
M  V30 639 H 66.5304 0.0491145 2.9836 0
M  V30 640 C 65.2794 -1.72626 3.0182 0
M  V30 641 H 64.6024 -1.30891 3.77767 0
M  V30 642 H 66.0424 -2.32199 3.54767 0
M  V30 643 C 64.5014 -2.63806 2.09542 0
M  V30 644 O 65.0314 -3.65256 1.67185 0
M  V30 645 N 63.2374 -2.31824 1.75232 0
M  V30 646 H 62.7844 -1.49368 2.09873 0
M  V30 647 H 62.7424 -2.93095 1.13767 0
M  V30 648 N 66.5145 -1.57545 0.0417849 0
M  V30 649 C 67.7635 -1.91494 -0.633492 0
M  V30 650 C 68.0765 -0.921084 -1.72556 0
M  V30 651 O 69.2825 -1.15228 -2.45835 0
M  V30 652 C 67.7385 -3.40072 -1.17808 0
M  V30 653 C 67.3465 -4.47843 -0.118633 0
M  V30 654 C 69.0905 -3.8307 -1.82915 0
M  V30 655 C 66.9975 -5.87529 -0.675578 0
M  V30 656 H 65.9275 -0.714653 -0.24039 0
M  V30 657 H 68.5785 -1.83175 0.109148 0
M  V30 658 H 66.9605 -3.43364 -1.97274 0
M  V30 659 H 68.1345 -4.56128 0.654494 0
M  V30 660 H 66.4495 -4.14128 0.434414 0
M  V30 661 H 69.0465 -4.84794 -2.25563 0
M  V30 662 H 69.3895 -3.1881 -2.67705 0
M  V30 663 H 69.9225 -3.82255 -1.10119 0
M  V30 664 H 66.6615 -6.55362 0.134475 0
M  V30 665 H 66.1815 -5.82824 -1.4169 0
M  V30 666 H 67.8605 -6.36491 -1.1614 0
M  V30 667 N 67.9926 0.231505 -1.5589 0
M  V30 668 C 69.2406 0.955461 -1.78088 0
M  V30 669 C 69.5616 1.85262 -0.608533 0
M  V30 670 O 68.8316 1.92277 0.375035 0
M  V30 671 H 67.4116 0.355787 -0.656829 0
M  V30 672 H 70.0736 0.245751 -1.93344 0
M  V30 673 H 69.1696 1.56814 -2.69844 0
M  V30 674 N 69.4707 1.49531 0.497807 0
M  V30 675 C 70.6957 1.63159 1.28039 0
M  V30 676 C 71.1207 0.30418 1.85624 0
M  V30 677 O 70.4787 -0.728618 1.66015 0
M  V30 678 C 70.5267 2.70537 2.38416 0
M  V30 679 O 69.6307 2.29931 3.42353 0
M  V30 680 H 68.9717 0.546001 0.377861 0
M  V30 681 H 71.5017 1.9574 0.59558 0
M  V30 682 H 71.5117 2.92802 2.84132 0
M  V30 683 H 70.1867 3.6689 1.95869 0
M  V30 684 H 68.7637 2.18009 3.02533 0
M  V30 685 N 70.9488 -0.749086 1.3866 0
M  V30 686 C 71.8958 -1.86291 1.36251 0
M  V30 687 C 72.8658 -1.64578 0.224347 0
M  V30 688 O 74.0508 -1.86181 0.417279 0
M  V30 689 C 71.1908 -3.23644 1.19786 0
M  V30 690 C 70.3038 -3.57158 2.43027 0
M  V30 691 C 69.4388 -4.83838 2.19258 0
M  V30 692 C 68.4778 -5.10152 3.38247 0
M  V30 693 N 67.6148 -6.28029 3.13884 0
M  V30 694 H 72.4548 -1.87685 2.3147 0
M  V30 695 H 69.9918 -0.917287 1.14997 0
M  V30 696 H 71.9498 -4.0291 1.08254 0
M  V30 697 H 70.5798 -3.21566 0.282031 0
M  V30 698 H 69.6318 -2.72701 2.65214 0
M  V30 699 H 70.9438 -3.7253 3.31697 0
M  V30 700 H 70.0978 -5.71057 2.04888 0
M  V30 701 H 68.8368 -4.70614 1.2796 0
M  V30 702 H 67.8418 -4.21401 3.53131 0
M  V30 703 H 69.0668 -5.25271 4.30427 0
M  V30 704 H 67.0128 -6.1612 2.25238 0
M  V30 705 H 66.9298 -6.43922 3.96106 0
M  V30 706 H 68.1978 -7.18124 3.03179 0
M  V30 707 N 72.4269 -1.23603 -0.977757 0
M  V30 708 C 73.6519 -1.09735 -1.75991 0
M  V30 709 C 74.0769 0.346858 -1.84874 0
M  V30 710 O 73.4349 1.25093 -1.3123 0
M  V30 711 C 73.4829 -1.73051 -3.16363 0
M  V30 712 O 72.5869 -0.994452 -4.0023 0
M  V30 713 H 71.9279 -0.384476 -0.541364 0
M  V30 714 H 74.4579 -1.6371 -1.2272 0
M  V30 715 H 74.4679 -1.78398 -3.66931 0
M  V30 716 H 73.1429 -2.78137 -3.09213 0
M  V30 717 H 71.7199 -1.01812 -3.58732 0
M  V30 718 N 73.905 1.17692 -1.04816 0
M  V30 719 C 75.151 1.88137 -0.75711 0
M  V30 720 C 75.484 1.80604 0.713841 0
M  V30 721 O 74.759 1.21146 1.52164 0
M  V30 722 C 75.042 3.38318 -1.2334 0
M  V30 723 C 74.895 3.54622 -2.76701 0
M  V30 724 C 76.214 4.32214 -0.829415 0
M  V30 725 H 73.333 0.683163 -0.27651 0
M  V30 726 H 75.975 1.38424 -1.30149 0
M  V30 727 H 74.125 3.80787 -0.770286 0
M  V30 728 H 75.797 3.21194 -3.31107 0
M  V30 729 H 74.04 2.97026 -3.16161 0
M  V30 730 H 74.711 4.60028 -3.05088 0
M  V30 731 H 77.187 3.97565 -1.22805 0
M  V30 732 H 76.063 5.35838 -1.19033 0
M  V30 733 H 76.324 4.41294 0.266891 0
M  V30 734 N 75.3831 0.828654 1.34056 0
M  V30 735 C 76.3331 0.226828 2.26869 0
M  V30 736 C 77.3171 -0.612243 1.48796 0
M  V30 737 O 78.5091 -0.465884 1.70759 0
M  V30 738 C 75.6381 -0.605654 3.37915 0
M  V30 739 C 74.7241 0.244361 4.23395 0
M  V30 740 N 75.1151 1.31815 4.88322 0
M  V30 741 C 73.4131 0.0296616 4.4599 0
M  V30 742 C 74.1141 1.83895 5.51867 0
M  V30 743 N 73.0901 1.14196 5.3147 0
M  V30 744 H 76.8921 1.04811 2.74576 0
M  V30 745 H 74.4061 0.67205 1.47842 0
M  V30 746 H 76.4031 -1.05302 4.03382 0
M  V30 747 H 75.0631 -1.42504 2.91758 0
M  V30 748 H 76.0741 1.70099 4.8917 0
M  V30 749 H 72.7511 -0.757097 4.10578 0
M  V30 750 H 74.1411 2.7376 6.136 0
M  V30 751 N 76.8612 -1.46375 0.584142 0
M  V30 752 C 78.1072 -2.03248 0.0787103 0
M  V30 753 C 78.4622 -1.44737 -1.26763 0
M  V30 754 O 77.7552 -0.603625 -1.81843 0
M  V30 755 C 77.9492 -3.57373 -0.0439342 0
M  V30 756 C 77.7782 -4.30831 1.28897 0
M  V30 757 C 76.5482 -4.69683 1.8635 0
M  V30 758 C 78.7462 -4.64278 2.21248 0
M  V30 759 N 76.7282 -5.27898 3.13365 0
M  V30 760 C 78.0992 -5.23078 3.32851 0
M  V30 761 C 80.1542 -4.46209 2.20911 0
M  V30 762 C 78.8572 -5.65715 4.44251 0
M  V30 763 C 80.8832 -4.89864 3.31341 0
M  V30 764 C 80.2452 -5.48736 4.41665 0
M  V30 765 H 76.3442 -0.778714 0.0716144 0
M  V30 766 H 78.9282 -1.78509 0.777355 0
M  V30 767 H 77.0992 -3.81823 -0.711749 0
M  V30 768 H 78.8312 -4.00892 -0.553881 0
M  V30 769 H 75.5862 -4.52488 1.39826 0
M  V30 770 H 76.0102 -5.61525 3.78178 0
M  V30 771 H 80.6522 -4.00027 1.36888 0
M  V30 772 H 78.3702 -6.10875 5.29015 0
M  V30 773 H 81.9562 -4.77634 3.322 0
M  V30 774 H 80.8362 -5.81898 5.25704 0
M  V30 775 N 78.3393 -0.321999 -1.54275 0
M  V30 776 C 79.5693 0.282642 -2.04658 0
M  V30 777 C 79.9773 1.46453 -1.19784 0
M  V30 778 O 79.3203 1.82367 -0.220932 0
M  V30 779 C 79.3823 0.781857 -3.50895 0
M  V30 780 C 79.0463 -0.277517 -4.56157 0
M  V30 781 C 80.0433 -1.11307 -5.07845 0
M  V30 782 C 77.7283 -0.425256 -5.00497 0
M  V30 783 C 79.7223 -2.08211 -6.02434 0
M  V30 784 C 77.4093 -1.39771 -5.94901 0
M  V30 785 C 78.4073 -2.2246 -6.45756 0
M  V30 786 O 78.0953 -3.18054 -7.38307 0
M  V30 787 H 77.8273 0.0622636 -0.673126 0
M  V30 788 H 80.3813 -0.465792 -2.00049 0
M  V30 789 H 78.6113 1.58118 -3.52896 0
M  V30 790 H 80.3003 1.30467 -3.84361 0
M  V30 791 H 81.0663 -1.00991 -4.74369 0
M  V30 792 H 76.9453 0.20847 -4.60528 0
M  V30 793 H 80.4893 -2.72791 -6.42052 0
M  V30 794 H 76.3863 -1.50152 -6.27794 0
M  V30 795 H 77.1543 -3.13275 -7.56175 0
M  V30 796 N 79.8174 1.5752 -0.0501392 0
M  V30 797 C 80.7494 2.08413 0.95376 0
M  V30 798 C 81.7624 1.01175 1.27544 0
M  V30 799 O 82.9514 1.28744 1.23641 0
M  V30 800 C 80.0514 2.51138 2.27559 0
M  V30 801 C 79.2244 3.817 2.13598 0
M  V30 802 C 78.2834 4.10749 3.28895 0
M  V30 803 O 77.3094 4.80685 3.04845 0
M  V30 804 N 78.5114 3.62579 4.5334 0
M  V30 805 H 81.2764 2.95165 0.519383 0
M  V30 806 H 78.8374 1.61327 0.136127 0
M  V30 807 H 80.8294 2.67648 3.03557 0
M  V30 808 H 79.3994 1.6964 2.62567 0
M  V30 809 H 78.6194 3.74782 1.22197 0
M  V30 810 H 79.9074 4.67201 2.01496 0
M  V30 811 H 79.3054 3.06039 4.75769 0
M  V30 812 H 77.8624 3.84329 5.26436 0
M  V30 813 N 81.2955 -0.223234 1.56011 0
M  V30 814 C 82.2275 -1.30006 1.88762 0
M  V30 815 C 83.2405 -1.43129 0.775746 0
M  V30 816 O 84.4295 -1.44057 1.05403 0
M  V30 817 C 81.5295 -2.67589 2.07965 0
M  V30 818 C 80.7025 -2.76434 3.38973 0
M  V30 819 C 79.7615 -3.95019 3.47629 0
M  V30 820 O 78.7875 -3.83436 4.20672 0
M  V30 821 N 79.9895 -5.09249 2.78649 0
M  V30 822 H 82.7545 -1.02238 2.81722 0
M  V30 823 H 80.3155 -0.413278 1.56536 0
M  V30 824 H 82.3075 -3.45297 2.11073 0
M  V30 825 H 80.8775 -2.87964 1.21638 0
M  V30 826 H 80.0975 -1.85216 3.47978 0
M  V30 827 H 81.3855 -2.79313 4.25278 0
M  V30 828 H 80.7835 -5.21556 2.19081 0
M  V30 829 H 79.3405 -5.85007 2.8742 0
M  V30 830 N 82.7736 -1.49793 -0.48987 0
M  V30 831 C 83.7206 -1.67281 -1.59014 0
M  V30 832 C 84.6906 -0.514177 -1.57941 0
M  V30 833 O 85.8756 -0.742533 -1.75759 0
M  V30 834 C 83.0156 -1.75569 -2.97102 0
M  V30 835 C 82.1286 -3.0281 -3.08107 0
M  V30 836 C 81.2636 -3.02008 -4.36995 0
M  V30 837 C 80.3026 -4.23782 -4.41673 0
M  V30 838 N 79.4396 -4.20826 -5.62005 0
M  V30 839 H 84.2796 -2.61224 -1.43409 0
M  V30 840 H 81.8166 -1.29508 -0.697565 0
M  V30 841 H 83.7746 -1.78354 -3.77155 0
M  V30 842 H 82.4046 -0.850827 -3.11385 0
M  V30 843 H 81.4566 -3.09584 -2.21047 0
M  V30 844 H 82.7686 -3.92801 -3.07423 0
M  V30 845 H 81.9226 -3.03418 -5.25378 0
M  V30 846 H 80.6616 -2.09815 -4.4026 0
M  V30 847 H 79.6666 -4.22604 -3.5169 0
M  V30 848 H 80.8916 -5.17181 -4.40115 0
M  V30 849 H 78.8376 -3.31476 -5.66091 0
M  V30 850 H 78.7546 -5.04564 -5.62984 0
M  V30 851 H 80.0226 -4.26355 -6.52565 0
M  V30 852 N 84.2517 0.741722 -1.39055 0
M  V30 853 C 85.6627 1.31966 -1.32068 0
M  V30 854 C 86.0137 1.96192 0.0180797 0
M  V30 855 O 85.1387 1.95861 0.920196 0
M  V30 856 C 85.7337 2.39954 -2.39181 0
M  V30 857 C 84.2927 2.93438 -2.35735 0
M  V30 858 C 83.4397 1.66936 -2.21422 0
M  V30 859 H 86.3907 0.539721 -1.4924 0
M  V30 860 H 86.4117 3.20182 -2.05581 0
M  V30 861 H 85.9237 1.9318 -3.36605 0
M  V30 862 H 84.0247 3.4451 -1.41929 0
M  V30 863 H 84.1377 3.4701 -3.30335 0
M  V30 864 H 82.5017 1.91016 -1.68478 0
M  V30 865 H 83.2847 1.22224 -3.20806 0
M  V30 866 N 85.7298 1.2412 0.971189 0
M  V30 867 C 86.9778 1.07668 1.71032 0
M  V30 868 C 87.2988 -0.385797 1.91146 0
M  V30 869 O 86.5688 -1.27569 1.4867 0
M  V30 870 H 85.1488 0.395429 0.633755 0
M  V30 871 H 87.8108 1.55984 1.16855 0
M  V30 872 H 86.9068 1.57195 2.69622 0
M  V30 873 N 87.2079 -1.17134 1.05439 0
M  V30 874 C 88.1399 -2.2078 0.615539 0
M  V30 875 C 89.1529 -1.59584 -0.322001 0
M  V30 876 O 90.3419 -1.78133 -0.114344 0
M  V30 877 C 87.4419 -3.38691 -0.118938 0
M  V30 878 C 86.6149 -4.29454 0.829924 0
M  V30 879 C 85.6739 -5.26024 0.136258 0
M  V30 880 O 84.6999 -5.63952 0.77115 0
M  V30 881 N 85.9019 -5.69487 -1.1254 0
M  V30 882 H 88.6669 -2.59052 1.50705 0
M  V30 883 H 86.2279 -1.32058 0.936603 0
M  V30 884 H 88.2199 -4.00329 -0.593179 0
M  V30 885 H 86.7899 -2.98996 -0.91215 0
M  V30 886 H 86.0099 -3.65211 1.48373 0
M  V30 887 H 87.2979 -4.86984 1.47392 0
M  V30 888 H 86.6959 -5.4075 -1.6615 0
M  V30 889 H 85.2529 -6.33257 -1.54366 0
M  V30 890 N 88.686 -0.835752 -1.33615 0
M  V30 891 C 89.649 -0.272 -2.2758 0
M  V30 892 C 90.649 0.557487 -1.50827 0
M  V30 893 O 91.839 0.37173 -1.70188 0
M  V30 894 C 88.971 0.617173 -3.35267 0
M  V30 895 H 90.164 -1.10111 -2.78954 0
M  V30 896 H 87.717 -0.608594 -1.43965 0
M  V30 897 H 88.452 1.46884 -2.89129 0
M  V30 898 H 88.237 0.0237066 -3.92093 0
M  V30 899 H 89.727 1.005 -4.05326 0
M  V30 900 N 90.1641 1.46063 -0.591896 0
M  V30 901 C 91.5751 1.85944 -0.167822 0
M  V30 902 C 91.9261 1.49429 1.27143 0
M  V30 903 O 91.0511 0.913515 1.96173 0
M  V30 904 C 91.6461 3.37489 -0.297794 0
M  V30 905 C 90.2051 3.76332 0.0714732 0
M  V30 906 C 89.3521 2.7006 -0.629509 0
M  V30 907 H 92.3031 1.37087 -0.799555 0
M  V30 908 H 92.3241 3.77532 0.474349 0
M  V30 909 H 91.8361 3.64034 -1.3454 0
M  V30 910 H 89.9371 3.55405 1.11886 0
M  V30 911 H 90.0501 4.78088 -0.311245 0
M  V30 912 H 88.4141 2.54607 -0.0687867 0
M  V30 913 H 89.1971 2.99444 -1.67894 0
M  V30 914 N 91.6422 0.330177 1.54103 0
M  V30 915 C 92.8882 -0.270806 2.00984 0
M  V30 916 C 93.2212 -1.51265 1.21789 0
M  V30 917 O 92.4962 -1.92142 0.301927 0
M  V30 918 C 92.7792 -0.598339 3.55094 0
M  V30 919 C 92.6322 0.654674 4.4501 0
M  V30 920 C 93.9512 -1.41334 4.16789 0
M  V30 921 H 91.0702 -0.0969531 0.730595 0
M  V30 922 H 93.7122 0.448066 1.84641 0
M  V30 923 H 91.8622 -1.21078 3.69151 0
M  V30 924 H 93.5342 1.29285 4.42813 0
M  V30 925 H 91.7772 1.28224 4.14416 0
M  V30 926 H 92.4482 0.380944 5.50684 0
M  V30 927 H 94.9242 -0.895597 4.06347 0
M  V30 928 H 93.8002 -1.61127 5.24718 0
M  V30 929 H 94.0612 -2.41146 3.70541 0
M  V30 930 N 93.1203 -1.57491 0.0584922 0
M  V30 931 C 94.0503 -2.14988 -0.911178 0
M  V30 932 C 95.0313 -1.07343 -1.31952 0
M  V30 933 O 96.2163 -1.35318 -1.39294 0
M  V30 934 C 93.3463 -2.70078 -2.18347 0
M  V30 935 C 92.3003 -3.82771 -1.91495 0
M  V30 936 C 91.6263 -4.24408 -3.25241 0
M  V30 937 C 92.9263 -5.07592 -1.23075 0
M  V30 938 H 94.6203 -2.96263 -0.432246 0
M  V30 939 H 92.1663 -1.42512 -0.206469 0
M  V30 940 H 94.1193 -3.08943 -2.86587 0
M  V30 941 H 92.8433 -1.86005 -2.68458 0
M  V30 942 H 91.5023 -3.44389 -1.25664 0
M  V30 943 H 91.1503 -3.37275 -3.73168 0
M  V30 944 H 90.8503 -5.00366 -3.08071 0
M  V30 945 H 92.3743 -4.65879 -3.94701 0
M  V30 946 H 93.7883 -5.43857 -1.81362 0
M  V30 947 H 92.1853 -5.88741 -1.16207 0
M  V30 948 H 93.2553 -4.84454 -0.207847 0
M  V30 949 N 94.5984 0.214957 -1.56127 0
M  V30 950 C 95.8444 0.939762 -1.79712 0
M  V30 951 C 96.1774 1.83723 -0.629247 0
M  V30 952 O 95.4524 1.90925 0.371197 0
M  V30 953 C 95.7354 1.77306 -3.13424 0
M  V30 954 C 95.5884 0.90164 -4.40671 0
M  V30 955 C 96.9074 2.74956 -3.43638 0
M  V30 956 H 94.0264 0.340214 -0.653776 0
M  V30 957 H 96.6684 0.20824 -1.88855 0
M  V30 958 H 94.8184 2.39673 -3.0576 0
M  V30 959 H 96.4904 0.294206 -4.60361 0
M  V30 960 H 94.7334 0.207368 -4.33304 0
M  V30 961 H 95.4044 1.51923 -5.30682 0
M  V30 962 H 97.8804 2.22724 -3.51473 0
M  V30 963 H 96.7564 3.30358 -4.38355 0
M  V30 964 H 97.0174 3.53023 -2.66134 0
M  V30 965 N 96.0765 1.50051 0.48192 0
M  V30 966 C 97.3225 1.60736 1.2366 0
M  V30 967 C 97.6555 0.301786 1.91841 0
M  V30 968 O 96.9305 -0.696025 1.8162 0
M  V30 969 C 97.2135 2.78009 2.28874 0
M  V30 970 C 97.0665 4.18416 1.65069 0
M  V30 971 C 98.3855 2.90867 3.30279 0
M  V30 972 H 95.5045 0.585031 0.448228 0
M  V30 973 H 98.1465 1.82402 0.531946 0
M  V30 974 H 96.2965 2.59667 2.88973 0
M  V30 975 H 97.9685 4.48322 1.0865 0
M  V30 976 H 96.2115 4.23177 0.954148 0
M  V30 977 H 96.8825 4.96381 2.41474 0
M  V30 978 H 99.3585 3.07623 2.80191 0
M  V30 979 H 98.2345 3.74566 4.01238 0
M  V30 980 H 98.4955 2.01021 3.93755 0
M  V30 981 N 97.5546 -0.734337 1.39446 0
M  V30 982 C 98.7846 -1.52137 1.39778 0
M  V30 983 C 99.1926 -1.89198 -0.00929312 0
M  V30 984 O 98.5356 -1.54666 -0.991168 0
M  V30 985 C 98.5976 -2.83762 2.20724 0
M  V30 986 C 98.2616 -2.69131 3.69347 0
M  V30 987 C 99.2586 -2.37635 4.62413 0
M  V30 988 C 96.9436 -2.85982 4.1294 0
M  V30 989 C 98.9376 -2.23172 5.97054 0
M  V30 990 C 96.6246 -2.71137 5.47657 0
M  V30 991 C 97.6226 -2.39777 6.39528 0
M  V30 992 O 97.3106 -2.25026 7.71763 0
M  V30 993 H 97.0426 -0.476717 0.479288 0
M  V30 994 H 99.5966 -0.915012 1.83893 0
M  V30 995 H 97.8266 -3.4666 1.71359 0
M  V30 996 H 99.5156 -3.45383 2.13226 0
M  V30 997 H 100.282 -2.24267 4.30034 0
M  V30 998 H 96.1606 -3.09383 3.41765 0
M  V30 999 H 99.7046 -1.98617 6.68728 0
M  V30 1000 H 95.6016 -2.84083 5.79626 0
M  V30 1001 H 96.3696 -2.40091 7.82495 0
M  V30 1002 N 99.0327 -1.24633 -0.964593 0
M  V30 1003 C 100.31 -0.995809 -1.68354 0
M  V30 1004 C 100.69 0.480964 -2.05548 0
M  V30 1005 O 100.038 1.45599 -1.76105 0
M  V30 1006 C 100.248 -1.92177 -2.91323 0
M  V30 1007 C 101.596 -2.19446 -3.63495 0
M  V30 1008 O 102.62 -1.89855 -3.01386 0
M  V30 1009 O 101.479 -2.69714 -4.75307 0
M  V30 1010 H 98.5727 -0.376854 -0.736146 0
M  V30 1011 H 101.119 -1.35745 -1.0184 0
M  V30 1012 H 99.8907 -2.91938 -2.60553 0
M  V30 1013 H 99.5137 -1.56349 -3.65569 0
M  V30 1014 N 100.511 1.16574 -1.06058 0
M  V30 1015 C 101.788 1.83048 -0.689416 0
M  V30 1016 C 102.168 1.94122 0.829443 0
M  V30 1017 O 101.516 1.48249 1.7388 0
M  V30 1018 C 101.726 3.20186 -1.38859 0
M  V30 1019 C 103.074 3.95989 -1.53226 0
M  V30 1020 O 104.098 3.29696 -1.3483 0
M  V30 1021 O 102.957 5.14813 -1.83384 0
M  V30 1022 H 100.051 0.790258 -0.243764 0
M  V30 1023 H 102.597 1.23797 -1.16071 0
M  V30 1024 H 101.369 3.07146 -2.4244 0
M  V30 1025 H 100.992 3.87112 -0.907216 0
M  V30 1026 N 101.989 0.842826 1.3317 0
M  V30 1027 C 103.214 0.453129 2.02389 0
M  V30 1028 C 103.639 -0.939105 1.6298 0
M  V30 1029 O 102.997 -1.61472 0.8244 0
M  V30 1030 C 103.045 0.586094 3.55805 0
M  V30 1031 O 102.149 -0.386029 4.10589 0
M  V30 1032 H 101.49 0.183664 0.638094 0
M  V30 1033 H 104.02 1.13875 1.69981 0
M  V30 1034 H 104.03 0.469209 4.05293 0
M  V30 1035 H 102.705 1.6014 3.83833 0
M  V30 1036 H 101.282 -0.226371 3.72212 0
M  V30 1037 N 103.467 -1.45747 0.599634 0
M  V30 1038 C 104.744 -1.95585 0.0240846 0
M  V30 1039 C 105.124 -1.54217 -1.44154 0
M  V30 1040 O 104.472 -0.800903 -2.14004 0
M  V30 1041 C 104.682 -3.48344 0.21385 0
M  V30 1042 C 106.03 -4.24504 0.0904902 0
M  V30 1043 O 107.054 -3.55911 0.143558 0
M  V30 1044 O 105.913 -5.46491 -0.0310766 0
M  V30 1045 H 103.007 -0.82602 -0.0402478 0
M  V30 1046 H 105.553 -1.55951 0.669139 0
M  V30 1047 H 104.325 -3.71397 1.23206 0
M  V30 1048 H 103.948 -3.9485 -0.466842 0
M  V30 1049 N 104.945 -0.338344 -1.53925 0
M  V30 1050 C 106.361 0.0137736 -1.59594 0
M  V30 1051 C 106.561 1.49186 -1.35447 0
M  V30 1052 O 105.617 2.24987 -1.14616 0
M  V30 1053 C 106.93 -0.41773 -2.97784 0
M  V30 1054 C 108.478 -0.369633 -3.1081 0
M  V30 1055 C 108.953 -0.776524 -4.51369 0
M  V30 1056 N 110.444 -0.730506 -4.57403 0
M  V30 1057 C 111.179 -1.01736 -5.64303 0
M  V30 1058 N 110.675 -1.3721 -6.79077 0
M  V30 1059 N 112.468 -0.941942 -5.54151 0
M  V30 1060 H 104.619 -1.3012 -1.67876 0
M  V30 1061 H 106.882 -0.530082 -0.78595 0
M  V30 1062 H 106.588 -1.44811 -3.20504 0
M  V30 1063 H 106.462 0.209729 -3.76616 0
M  V30 1064 H 108.849 0.651568 -2.87817 0
M  V30 1065 H 108.93 -1.03223 -2.34049 0
M  V30 1066 H 108.574 -1.79571 -4.75096 0
M  V30 1067 H 108.504 -0.0914649 -5.26521 0
M  V30 1068 H 110.995 -0.468783 -3.74981 0
M  V30 1069 H 111.308 -1.57597 -7.5656 0
M  V30 1070 H 109.653 -1.4105 -6.80536 0
M  V30 1071 H 112.844 -0.664184 -4.63364 0
M  V30 1072 H 113.017 -1.16884 -6.37371 0
M  V30 1073 N 106.423 1.57458 -0.0668435 0
M  V30 1074 C 107.834 1.80776 0.466558 0
M  V30 1075 C 108.185 0.980361 1.69951 0
M  V30 1076 O 107.31 0.201441 2.1546 0
M  V30 1077 C 107.905 3.27881 0.85321 0
M  V30 1078 C 106.464 3.52062 1.3315 0
M  V30 1079 C 105.611 2.75513 0.314264 0
M  V30 1080 H 108.562 1.5598 -0.292588 0
M  V30 1081 H 108.583 3.39659 1.715 0
M  V30 1082 H 108.095 3.88075 -0.0443439 0
M  V30 1083 H 106.196 2.97167 2.24772 0
M  V30 1084 H 106.309 4.60762 1.31285 0
M  V30 1085 H 104.673 2.42123 0.790492 0
M  V30 1086 H 105.456 3.38442 -0.575477 0
M  V30 1087 N 107.901 -0.206675 1.56239 0
M  V30 1088 C 109.126 -0.949474 1.8439 0
M  V30 1089 C 109.551 -1.76549 0.649016 0
M  V30 1090 O 108.909 -1.76782 -0.402231 0
M  V30 1091 C 108.957 -1.83078 3.10668 0
M  V30 1092 O 108.061 -2.9281 2.90407 0
M  V30 1093 H 107.402 -0.268033 0.607499 0
M  V30 1094 H 109.932 -0.215488 2.03462 0
M  V30 1095 H 109.942 -2.2377 3.41161 0
M  V30 1096 H 108.617 -1.23112 3.97261 0
M  V30 1097 H 107.194 -2.55956 2.71184 0
M  V30 1098 N 109.379 -1.50304 -0.473955 0
M  V30 1099 C 110.627 -1.60832 -1.22382 0
M  V30 1100 C 110.948 -0.30939 -1.9253 0
M  V30 1101 O 110.218 0.67296 -1.83978 0
M  V30 1102 H 108.798 -0.592652 -0.454723 0
M  V30 1103 H 111.46 -1.87068 -0.546968 0
M  V30 1104 H 110.556 -2.41803 -1.97327 0
M  V30 1105 N 110.857 0.726932 -1.39834 0
M  V30 1106 C 112.106 1.48214 -1.36805 0
M  V30 1107 C 112.419 1.95576 0.0305291 0
M  V30 1108 O 113.625 2.7088 0.183417 0
M  V30 1109 C 112.081 2.67854 -2.40379 0
M  V30 1110 C 111.689 2.27408 -3.85992 0
M  V30 1111 C 113.433 3.45641 -2.46439 0
M  V30 1112 C 111.34 3.43819 -4.81189 0
M  V30 1113 H 110.27 0.556606 -0.508631 0
M  V30 1114 H 112.921 0.792216 -1.65518 0
M  V30 1115 H 111.303 3.3896 -2.04749 0
M  V30 1116 H 112.477 1.63795 -4.30706 0
M  V30 1117 H 110.792 1.62692 -3.83302 0
M  V30 1118 H 113.389 4.32244 -3.14753 0
M  V30 1119 H 113.732 3.88669 -1.49139 0
M  V30 1120 H 114.265 2.8157 -2.81004 0
M  V30 1121 H 111.004 3.05834 -5.79781 0
M  V30 1122 H 110.524 4.06385 -4.41148 0
M  V30 1123 H 112.203 4.10043 -5.00474 0
M  V30 1124 N 112.336 1.25143 0.95797 0
M  V30 1125 C 113.747 1.08851 1.51685 0
M  V30 1126 C 114.098 -0.33687 1.93286 0
M  V30 1127 O 113.223 -1.22644 1.7829 0
M  V30 1128 C 113.818 1.96978 2.75654 0
M  V30 1129 C 112.377 1.84881 3.27866 0
M  V30 1130 C 111.524 1.91329 2.0072 0
M  V30 1131 H 114.475 1.38478 0.77522 0
M  V30 1132 H 114.496 1.5078 3.4935 0
M  V30 1133 H 114.008 3.00712 2.45345 0
M  V30 1134 H 112.109 0.840182 3.63004 0
M  V30 1135 H 112.222 2.6951 3.96107 0
M  V30 1136 H 110.586 1.35174 2.15871 0
M  V30 1137 H 111.369 2.96661 1.72764 0
M  V30 1138 N 113.814 -1.1601 1.06675 0
M  V30 1139 C 114.724 -2.24156 0.692179 0
M  V30 1140 C 115.74 -1.71507 -0.293513 0
M  V30 1141 O 116.916 -2.009 -0.141861 0
M  V30 1142 C 113.981 -3.46587 0.0884131 0
M  V30 1143 C 113.042 -4.14257 1.12646 0
M  V30 1144 C 112.275 -5.30844 0.551416 0
M  V30 1145 O 112.498 -5.66858 -0.634656 0
M  V30 1146 O 111.432 -5.87848 1.29298 0
M  V30 1147 H 115.258 -2.58513 1.59388 0
M  V30 1148 H 112.843 -1.23599 0.83926 0
M  V30 1149 H 114.725 -4.20679 -0.246361 0
M  V30 1150 H 113.4 -3.13994 -0.786712 0
M  V30 1151 H 112.307 -3.42118 1.51348 0
M  V30 1152 H 113.64 -4.50914 1.97325 0
M  V30 1153 N 115.292 -0.849877 -1.32721 0
M  V30 1154 C 116.708 -0.539102 -1.50219 0
M  V30 1155 C 116.908 0.931271 -1.78689 0
M  V30 1156 O 115.964 1.71455 -1.85363 0
M  V30 1157 C 117.277 -1.42196 -2.64954 0
M  V30 1158 C 118.825 -1.42189 -2.78839 0
M  V30 1159 C 119.3 -2.28985 -3.96648 0
M  V30 1160 N 120.791 -2.26754 -4.03902 0
M  V30 1161 C 121.526 -2.90644 -4.94281 0
M  V30 1162 N 121.022 -3.63629 -5.897 0
M  V30 1163 N 122.815 -2.80057 -4.87365 0
M  V30 1164 H 114.966 -1.80156 -1.12506 0
M  V30 1165 H 117.229 -0.769217 -0.554085 0
M  V30 1166 H 116.935 -2.46733 -2.50631 0
M  V30 1167 H 116.809 -1.10591 -3.60624 0
M  V30 1168 H 119.196 -0.38419 -2.92588 0
M  V30 1169 H 119.277 -1.77807 -1.83898 0
M  V30 1170 H 118.921 -3.32819 -3.83658 0
M  V30 1171 H 118.851 -1.90702 -4.90857 0
M  V30 1172 H 121.342 -1.73688 -3.3562 0
M  V30 1173 H 121.655 -4.09558 -6.55349 0
M  V30 1174 H 120 -3.67737 -5.89741 0
M  V30 1175 H 123.191 -2.22593 -4.11789 0
M  V30 1176 H 123.364 -3.30132 -5.57599 0
M  V30 1177 N 116.77 1.45427 -0.607355 0
M  V30 1178 C 118.017 2.02241 -0.102455 0
M  V30 1179 C 118.345 1.4758 1.26691 0
M  V30 1180 O 117.6 0.640468 1.84923 0
M  V30 1181 C 117.899 3.57398 -0.0129263 0
M  V30 1182 C 117.565 4.3121 -1.31792 0
M  V30 1183 C 116.227 4.51092 -1.67539 0
M  V30 1184 C 118.579 4.73401 -2.18039 0
M  V30 1185 C 115.907 5.10422 -2.89285 0
M  V30 1186 C 118.259 5.34078 -3.39034 0
M  V30 1187 C 116.923 5.52184 -3.75033 0
M  V30 1188 H 116.193 0.740051 -0.037491 0
M  V30 1189 H 118.84 1.74494 -0.788926 0
M  V30 1190 H 117.145 3.84421 0.756806 0
M  V30 1191 H 118.842 3.99061 0.393881 0
M  V30 1192 H 115.432 4.16047 -1.02968 0
M  V30 1193 H 119.616 4.57774 -1.91721 0
M  V30 1194 H 114.872 5.22629 -3.17283 0
M  V30 1195 H 119.046 5.65724 -4.06115 0
M  V30 1196 H 116.673 5.97925 -4.69457 0
M  V30 1197 N 118.248 0.346503 1.53744 0
M  V30 1198 C 119.473 -0.253074 2.0585 0
M  V30 1199 C 119.898 -1.43202 1.21962 0
M  V30 1200 O 119.256 -1.79783 0.234073 0
M  V30 1201 C 119.304 -0.643193 3.54817 0
M  V30 1202 O 118.408 -1.74286 3.73762 0
M  V30 1203 H 117.749 -0.0413583 0.662711 0
M  V30 1204 H 120.279 0.501574 1.98357 0
M  V30 1205 H 120.289 -0.919526 3.97503 0
M  V30 1206 H 118.964 0.218966 4.15323 0
M  V30 1207 H 117.541 -1.46356 3.42979 0
M  V30 1208 N 119.726 -1.57421 0.075193 0
M  V30 1209 C 120.974 -1.93236 -0.591974 0
M  V30 1210 C 121.295 -0.956241 -1.69944 0
M  V30 1211 O 120.565 -0.00494792 -1.95899 0
M  V30 1212 H 119.145 -0.713355 -0.22166 0
M  V30 1213 H 121.807 -1.9444 0.133848 0
M  V30 1214 H 120.903 -2.95131 -1.01509 0
M  V30 1215 N 121.204 0.198386 -1.56346 0
M  V30 1216 C 122.429 0.939682 -1.84891 0
M  V30 1217 C 122.854 1.76202 -0.658369 0
M  V30 1218 O 122.212 1.76993 0.392851 0
M  V30 1219 C 122.26 1.81428 -3.11635 0
M  V30 1220 O 121.364 2.91265 -2.91956 0
M  V30 1221 H 120.705 0.264807 -0.608912 0
M  V30 1222 H 123.235 0.204695 -2.03573 0
M  V30 1223 H 123.245 2.21958 -3.42343 0
M  V30 1224 H 121.92 1.21004 -3.97908 0
M  V30 1225 H 120.497 2.54514 -2.72538 0
M  V30 1226 N 122.682 1.50554 0.465978 0
M  V30 1227 C 123.63 1.70324 1.58406 0
M  V30 1228 C 124.624 0.569139 1.59553 0
M  V30 1229 O 125.83 0.749776 1.63641 0
M  V30 1230 H 122.205 0.537688 0.525734 0
M  V30 1231 H 124.176 2.64104 1.38894 0
M  V30 1232 C 122.925 1.81928 2.96307 0
M  V30 1233 H 122.248 2.68586 2.96144 0
M  V30 1234 H 123.688 1.99784 3.73982 0
M  V30 1235 C 122.147 0.572095 3.32007 0
M  V30 1236 O 122.677 -0.286416 4.00678 0
M  V30 1237 N 120.883 0.424606 2.87481 0
M  V30 1238 H 120.43 1.12427 2.31771 0
M  V30 1239 H 120.388 -0.408697 3.11732 0
M  V30 1240 N 124.16 -0.719506 1.40217 0
M  V30 1241 C 125.385 -1.51371 1.4178 0
M  V30 1242 C 125.81 -1.88091 0.0182355 0
M  V30 1243 O 125.168 -1.52997 -0.972707 0
M  V30 1244 C 125.216 -2.768 2.31115 0
M  V30 1245 O 124.32 -3.73349 1.7517 0
M  V30 1246 H 123.661 -0.456529 0.482159 0
M  V30 1247 H 126.191 -0.88644 1.844 0
M  V30 1248 H 126.201 -3.25371 2.46167 0
M  V30 1249 H 124.876 -2.49407 3.3282 0
M  V30 1250 H 123.453 -3.32179 1.69444 0
M  V30 1251 N 125.638 -1.25649 -0.95132 0
M  V30 1252 C 126.886 -1.10375 -1.69298 0
M  V30 1253 C 127.207 0.355339 -1.91735 0
M  V30 1254 O 126.477 1.25188 -1.50681 0
M  V30 1255 H 125.057 -0.405461 -0.627384 0
M  V30 1256 H 127.719 -1.57823 -1.14358 0
M  V30 1257 H 126.815 -1.61465 -2.67087 0
M  V30 1258 N 127.117 1.15442 -1.07289 0
M  V30 1259 C 128.065 2.22225 -0.686952 0
M  V30 1260 C 129.059 1.66688 0.30193 0
M  V30 1261 O 130.265 1.79236 0.165712 0
M  V30 1262 H 126.64 0.723783 -0.204064 0
M  V30 1263 H 128.611 2.52056 -1.5972 0
M  V30 1264 C 127.36 3.47556 -0.100149 0
M  V30 1265 H 126.683 3.90612 -0.852211 0
M  V30 1266 H 128.123 4.23794 0.132235 0
M  V30 1267 C 126.582 3.16337 1.159 0
M  V30 1268 O 127.112 3.33074 2.24555 0
M  V30 1269 N 125.318 2.70385 1.06491 0
M  V30 1270 H 124.865 2.56966 0.180668 0
M  V30 1271 H 124.823 2.49871 1.90819 0
M  V30 1272 N 128.595 0.856903 1.32268 0
M  V30 1273 C 129.823 0.475439 2.01363 0
M  V30 1274 C 130.238 -0.928486 1.64392 0
M  V30 1275 O 129.595 -1.60624 0.866387 0
M  V30 1276 C 129.646 0.607545 3.56358 0
M  V30 1277 O 129.367 1.95617 3.92002 0
M  V30 1278 C 130.868 0.225382 4.42727 0
M  V30 1279 H 128.088 0.186636 0.644521 0
M  V30 1280 H 130.632 1.15446 1.68797 0
M  V30 1281 H 128.787 -0.0237719 3.87393 0
M  V30 1282 H 129.201 1.95455 4.86721 0
M  V30 1283 H 130.675 0.368813 5.50767 0
M  V30 1284 H 131.152 -0.834369 4.31202 0
M  V30 1285 H 131.758 0.831864 4.17085 0
M  V30 1286 N 130.073 -1.45103 0.615059 0
M  V30 1287 C 131.036 -2.29025 -0.0895485 0
M  V30 1288 C 132.036 -1.40174 -0.787906 0
M  V30 1289 O 133.226 -1.62217 -0.634933 0
M  V30 1290 C 130.358 -3.21376 -1.13711 0
M  V30 1291 H 131.551 -2.92807 0.648382 0
M  V30 1292 H 129.104 -1.51749 0.374444 0
M  V30 1293 H 129.839 -2.6241 -1.90556 0
M  V30 1294 H 129.624 -3.86834 -0.640475 0
M  V30 1295 H 131.114 -3.84459 -1.63036 0
M  V30 1296 N 131.551 -0.354651 -1.53558 0
M  V30 1297 C 132.779 0.239515 -2.05509 0
M  V30 1298 C 133.194 1.4333 -1.2289 0
M  V30 1299 O 132.551 1.80538 -0.266899 0
M  V30 1300 C 132.602 0.643719 -3.55723 0
M  V30 1301 O 132.323 -0.502602 -4.35207 0
M  V30 1302 C 133.824 1.29743 -4.23889 0
M  V30 1303 H 131.044 0.0442697 -0.669538 0
M  V30 1304 H 133.588 -0.509856 -1.98042 0
M  V30 1305 H 131.743 1.34302 -3.63376 0
M  V30 1306 H 132.157 -0.178172 -5.24197 0
M  V30 1307 H 133.631 1.53091 -5.30346 0
M  V30 1308 H 134.108 2.25441 -3.76926 0
M  V30 1309 H 134.714 0.639865 -4.20459 0
M  V30 1310 N 133.029 1.57378 -0.0835403 0
M  V30 1311 C 133.959 2.1641 0.87686 0
M  V30 1312 C 134.94 1.09429 1.30228 0
M  V30 1313 O 136.125 1.37516 1.37124 0
M  V30 1314 C 133.255 2.73517 2.14022 0
M  V30 1315 C 132.209 3.85769 1.85381 0
M  V30 1316 C 131.535 4.29529 3.18448 0
M  V30 1317 C 132.835 5.09486 1.14984 0
M  V30 1318 H 134.529 2.96914 0.385059 0
M  V30 1319 H 132.075 1.42823 0.18377 0
M  V30 1320 H 134.028 3.13463 2.81636 0
M  V30 1321 H 132.752 1.90252 2.65465 0
M  V30 1322 H 131.411 3.46345 1.20169 0
M  V30 1323 H 131.059 3.43169 3.67755 0
M  V30 1324 H 130.759 5.05204 3.00071 0
M  V30 1325 H 132.283 4.72099 3.8724 0
M  V30 1326 H 133.697 5.46674 1.72687 0
M  V30 1327 H 132.094 5.90515 1.06826 0
M  V30 1328 H 133.164 4.84724 0.130749 0
M  V30 1329 N 134.507 -0.190092 1.56449 0
M  V30 1330 C 135.735 -0.925772 1.85033 0
M  V30 1331 C 136.15 -1.76638 0.666658 0
M  V30 1332 O 135.507 -1.78822 -0.364565 0
M  V30 1333 C 135.558 -1.81786 3.12468 0
M  V30 1334 O 135.279 -1.01118 4.26271 0
M  V30 1335 C 136.78 -2.6648 3.54265 0
M  V30 1336 H 134 -0.269872 0.614337 0
M  V30 1337 H 136.544 -0.195837 2.0356 0
M  V30 1338 H 134.699 -2.50136 2.95822 0
M  V30 1339 H 135.113 -1.61956 4.98869 0
M  V30 1340 H 136.587 -3.24722 4.46385 0
M  V30 1341 H 137.064 -3.40434 2.77491 0
M  V30 1342 H 137.67 -2.03493 3.73458 0
M  V30 1343 N 135.985 -1.50799 -0.457987 0
M  V30 1344 C 137.234 -1.6168 -1.20593 0
M  V30 1345 C 137.547 -0.32888 -1.92815 0
M  V30 1346 O 138.753 -0.316773 -2.69646 0
M  V30 1347 C 137.209 -2.8545 -2.19195 0
M  V30 1348 C 136.817 -4.21168 -1.52715 0
M  V30 1349 C 138.561 -3.05681 -2.94549 0
M  V30 1350 C 136.468 -5.3611 -2.4968 0
M  V30 1351 H 135.398 -0.602134 -0.453818 0
M  V30 1352 H 138.049 -1.77245 -0.475031 0
M  V30 1353 H 136.431 -2.63472 -2.95632 0
M  V30 1354 H 137.605 -4.53449 -0.819775 0
M  V30 1355 H 135.92 -4.06648 -0.895922 0
M  V30 1356 H 138.517 -3.88727 -3.67145 0
M  V30 1357 H 138.86 -2.17929 -3.54701 0
M  V30 1358 H 139.393 -3.27901 -2.25223 0
M  V30 1359 H 136.132 -6.26057 -1.94249 0
M  V30 1360 H 135.652 -5.0823 -3.18532 0
M  V30 1361 H 137.331 -5.6722 -3.11241 0
M  V30 1362 N 137.463 0.71206 -1.40597 0
M  V30 1363 C 138.688 1.50617 -1.42581 0
M  V30 1364 C 139.113 1.88079 -0.0282102 0
M  V30 1365 O 138.471 1.53511 0.964579 0
M  V30 1366 C 138.519 2.7557 -2.3258 0
M  V30 1367 O 137.623 3.72414 -1.77148 0
M  V30 1368 H 136.964 0.453966 -0.484573 0
M  V30 1369 H 139.494 0.876649 -1.84868 0
M  V30 1370 H 139.504 3.2406 -2.47889 0
M  V30 1371 H 138.179 2.47639 -3.34138 0
M  V30 1372 H 136.756 3.31276 -1.71204 0
M  V30 1373 N 138.941 1.26152 0.944643 0
M  V30 1374 C 140.357 1.03189 1.21754 0
M  V30 1375 C 140.557 -0.245112 2.00004 0
M  V30 1376 O 139.613 -0.955176 2.33736 0
M  V30 1377 C 140.926 2.26119 1.98219 0
M  V30 1378 C 142.474 2.30984 2.11224 0
M  V30 1379 C 142.949 3.53597 2.91089 0
M  V30 1380 N 144.44 3.54053 2.98664 0
M  V30 1381 C 145.175 4.45593 3.60881 0
M  V30 1382 N 144.671 5.47416 4.24626 0
M  V30 1383 N 146.464 4.33252 3.58119 0
M  V30 1384 H 138.615 2.08177 0.421437 0
M  V30 1385 H 140.878 0.914723 0.248969 0
M  V30 1386 H 140.584 3.18984 1.48128 0
M  V30 1387 H 140.458 2.3009 2.98895 0
M  V30 1388 H 142.845 1.38635 2.60508 0
M  V30 1389 H 142.926 2.31026 1.09821 0
M  V30 1390 H 142.57 4.46273 2.42493 0
M  V30 1391 H 142.5 3.50802 3.92741 0
M  V30 1392 H 144.991 2.80403 2.53343 0
M  V30 1393 H 145.304 6.13459 4.69987 0
M  V30 1394 H 143.649 5.51278 4.23223 0
M  V30 1395 H 146.84 3.52924 3.0751 0
M  V30 1396 H 147.013 5.04786 4.06319 0
M  V30 1397 N 140.419 -1.14872 1.07899 0
M  V30 1398 C 141.665 -1.86064 0.806725 0
M  V30 1399 C 141.998 -1.82434 -0.665706 0
M  V30 1400 O 141.273 -1.25138 -1.48899 0
M  V30 1401 C 141.556 -3.34929 1.32267 0
M  V30 1402 C 141.409 -3.47161 2.86006 0
M  V30 1403 C 142.728 -4.29863 0.943717 0
M  V30 1404 H 139.847 -0.675591 0.294526 0
M  V30 1405 H 142.489 -1.34925 1.33773 0
M  V30 1406 H 140.639 -3.78611 0.870974 0
M  V30 1407 H 142.311 -3.12302 3.39507 0
M  V30 1408 H 140.554 -2.88539 3.23925 0
M  V30 1409 H 141.225 -4.51777 3.17177 0
M  V30 1410 H 143.701 -3.9417 1.33302 0
M  V30 1411 H 142.577 -5.32494 1.33198 0
M  V30 1412 H 142.838 -4.41846 -0.149796 0
M  V30 1413 N 141.898 -0.863906 -1.31812 0
M  V30 1414 C 142.808 -0.318461 -2.32428 0
M  V30 1415 C 143.824 0.568496 -1.64451 0
M  V30 1416 O 145 0.46666 -1.95919 0
M  V30 1417 C 142.065 0.476355 -3.43412 0
M  V30 1418 C 141.126 -0.43784 -4.27061 0
M  V30 1419 C 140.359 0.319138 -5.32745 0
M  V30 1420 O 140.582 1.54799 -5.48993 0
M  V30 1421 O 139.516 -0.319861 -6.01049 0
M  V30 1422 H 143.342 -1.15229 -2.80991 0
M  V30 1423 H 140.927 -0.627103 -1.35602 0
M  V30 1424 H 142.809 0.927156 -4.11074 0
M  V30 1425 H 141.484 1.28683 -2.97022 0
M  V30 1426 H 140.391 -0.937013 -3.62175 0
M  V30 1427 H 141.724 -1.21375 -4.77 0
M  V30 1428 N 143.376 1.44774 -0.622745 0
M  V30 1429 C 144.339 2.29069 0.0774015 0
M  V30 1430 C 145.339 1.4059 0.780461 0
M  V30 1431 O 146.529 1.62551 0.626322 0
M  V30 1432 C 143.661 3.21974 1.12006 0
M  V30 1433 H 144.854 2.92459 -0.663901 0
M  V30 1434 H 142.407 1.51548 -0.382486 0
M  V30 1435 H 143.142 2.63417 1.89162 0
M  V30 1436 H 142.927 3.87168 0.619951 0
M  V30 1437 H 144.417 3.85318 1.60995 0
M  V30 1438 N 144.854 0.36279 1.53368 0
M  V30 1439 C 146.102 -0.227326 2.00817 0
M  V30 1440 C 146.423 -1.49511 1.25186 0
M  V30 1441 O 145.693 -1.92482 0.364348 0
M  V30 1442 H 144.273 -0.0869923 0.741917 0
M  V30 1443 H 146.935 0.488381 1.88682 0
M  V30 1444 H 146.031 -0.456273 3.08747 0
M  V30 1445 N 146.332 -1.57332 0.0918853 0
M  V30 1446 C 147.609 -1.85691 -0.614668 0
M  V30 1447 C 147.989 -0.988146 -1.86545 0
M  V30 1448 O 147.337 -0.0597055 -2.28422 0
M  V30 1449 C 147.547 -3.36294 -0.933126 0
M  V30 1450 C 148.895 -4.04275 -1.29796 0
M  V30 1451 O 149.919 -3.41157 -1.02424 0
M  V30 1452 O 148.778 -5.1564 -1.81047 0
M  V30 1453 H 145.872 -0.767802 -0.307261 0
M  V30 1454 H 148.418 -1.69244 0.12434 0
M  V30 1455 H 147.19 -3.91273 -0.0456404 0
M  V30 1456 H 146.813 -3.58076 -1.72822 0
M  V30 1457 N 147.81 0.181792 -1.56548 0
M  V30 1458 C 148.72 1.24538 -1.98815 0
M  V30 1459 C 149.736 1.49045 -0.897861 0
M  V30 1460 O 150.912 1.61399 -1.20467 0
M  V30 1461 C 147.977 2.56683 -2.33055 0
M  V30 1462 C 147.038 2.40131 -3.55859 0
M  V30 1463 C 146.271 3.65975 -3.88456 0
M  V30 1464 O 146.494 4.70711 -3.22161 0
M  V30 1465 O 145.428 3.6071 -4.81842 0
M  V30 1466 H 149.254 0.916647 -2.89536 0
M  V30 1467 H 146.839 0.387842 -1.44278 0
M  V30 1468 H 148.721 3.34655 -2.56094 0
M  V30 1469 H 147.396 2.89157 -1.45498 0
M  V30 1470 H 146.303 1.60226 -3.38051 0
M  V30 1471 H 147.636 2.12585 -4.43924 0
M  V30 1472 N 149.288 1.51039 0.449983 0
M  V30 1473 C 150.251 1.70863 1.5277 0
M  V30 1474 C 151.251 0.578846 1.5002 0
M  V30 1475 O 152.441 0.846213 1.52266 0
M  V30 1476 C 149.573 1.75341 2.9235 0
M  V30 1477 H 150.766 2.67034 1.36502 0
M  V30 1478 H 148.319 1.40838 0.677812 0
M  V30 1479 H 149.054 0.809383 3.14037 0
M  V30 1480 H 148.839 2.57436 2.95752 0
M  V30 1481 H 150.329 1.92559 3.70555 0
M  V30 1482 N 150.766 -0.704594 1.40972 0
M  V30 1483 C 152.043 -1.45847 1.30338 0
M  V30 1484 C 152.423 -2.10973 -0.0732344 0
M  V30 1485 O 151.771 -2.00997 -1.08685 0
M  V30 1486 C 151.981 -2.48525 2.45023 0
M  V30 1487 C 153.329 -3.1404 2.8577 0
M  V30 1488 O 154.353 -2.58848 2.44696 0
M  V30 1489 O 153.212 -4.13981 3.56766 0
M  V30 1490 H 150.306 -0.649092 0.512454 0
M  V30 1491 H 152.852 -0.735836 1.52917 0
M  V30 1492 H 151.624 -1.98994 3.36923 0
M  V30 1493 H 151.247 -3.2831 2.24272 0
M  V30 1494 N 152.244 -1.26651 -0.937939 0
M  V30 1495 C 153.474 -1.15006 -1.71631 0
M  V30 1496 C 153.882 0.297026 -1.86854 0
M  V30 1497 O 153.225 1.21493 -1.37786 0
M  V30 1498 C 153.287 -1.74984 -3.14039 0
M  V30 1499 C 152.951 -3.24103 -3.2219 0
M  V30 1500 C 153.948 -4.20877 -3.05219 0
M  V30 1501 C 151.633 -3.64625 -3.45476 0
M  V30 1502 C 153.627 -5.56151 -3.11408 0
M  V30 1503 C 151.314 -5.00032 -3.513 0
M  V30 1504 C 152.312 -5.95604 -3.34282 0
M  V30 1505 O 152 -7.28545 -3.3982 0
M  V30 1506 H 151.732 -0.401183 -0.544085 0
M  V30 1507 H 154.286 -1.67832 -1.18413 0
M  V30 1508 H 152.516 -1.16624 -3.68695 0
M  V30 1509 H 154.205 -1.58199 -3.73802 0
M  V30 1510 H 154.971 -3.90908 -2.87081 0
M  V30 1511 H 150.85 -2.90718 -3.57777 0
M  V30 1512 H 154.394 -6.30727 -2.98043 0
M  V30 1513 H 150.291 -5.29659 -3.68959 0
M  V30 1514 H 151.059 -7.3686 -3.56343 0
M  V30 1515 N 153.722 1.14298 -1.08507 0
M  V30 1516 C 154.952 1.88945 -0.835663 0
M  V30 1517 C 155.36 1.78894 0.615928 0
M  V30 1518 O 154.703 1.1468 1.43506 0
M  V30 1519 C 154.765 3.39585 -1.17994 0
M  V30 1520 C 154.429 3.7342 -2.63451 0
M  V30 1521 C 155.426 3.73454 -3.61702 0
M  V30 1522 C 153.111 4.03368 -2.99332 0
M  V30 1523 C 155.105 4.02961 -4.93864 0
M  V30 1524 C 152.792 4.32538 -4.31687 0
M  V30 1525 C 153.79 4.32318 -5.28763 0
M  V30 1526 O 153.478 4.6078 -6.58739 0
M  V30 1527 H 153.21 0.605307 -0.300965 0
M  V30 1528 H 155.764 1.45673 -1.44806 0
M  V30 1529 H 153.994 3.83315 -0.51055 0
M  V30 1530 H 155.683 3.9554 -0.911182 0
M  V30 1531 H 156.449 3.50403 -3.35325 0
M  V30 1532 H 152.328 4.02692 -2.24411 0
M  V30 1533 H 155.872 4.02704 -5.69627 0
M  V30 1534 H 151.769 4.55059 -4.57812 0
M  V30 1535 H 152.537 4.78492 -6.64069 0
M  V30 1536 N 155.201 0.870884 1.31352 0
M  V30 1537 C 156.441 0.488783 1.9847 0
M  V30 1538 C 156.805 -0.941536 1.67329 0
M  V30 1539 O 158.006 -1.42903 2.27667 0
M  V30 1540 C 156.277 0.739688 3.49662 0
M  V30 1541 S 157.836 0.457582 4.36408 0
M  V30 1542 H 154.654 0.18242 0.6872 0
M  V30 1543 H 157.256 1.12711 1.59739 0
M  V30 1544 H 155.96 1.77944 3.69816 0
M  V30 1545 H 155.491 0.0883905 3.93301 0
M  V30 1546 H 157.506 -0.709752 4.91098 0
M  V30 1547 N 156.679 -1.44442 0.630414 0
M  V30 1548 C 157.611 -2.2892 -0.113347 0
M  V30 1549 C 158.624 -1.41243 -0.80959 0
M  V30 1550 O 159.813 -1.65402 -0.671156 0
M  V30 1551 C 156.913 -3.17594 -1.18266 0
M  V30 1552 C 156.086 -4.33682 -0.569073 0
M  V30 1553 C 155.145 -5.03397 -1.53226 0
M  V30 1554 O 154.171 -5.59438 -1.04967 0
M  V30 1555 N 155.373 -5.04783 -2.86661 0
M  V30 1556 H 158.138 -2.93392 0.611636 0
M  V30 1557 H 155.699 -1.54881 0.471523 0
M  V30 1558 H 157.691 -3.61097 -1.82732 0
M  V30 1559 H 156.261 -2.54876 -1.80988 0
M  V30 1560 H 155.481 -3.9338 0.254187 0
M  V30 1561 H 156.769 -5.08608 -0.139767 0
M  V30 1562 H 156.167 -4.60584 -3.28449 0
M  V30 1563 H 154.724 -5.52077 -3.46489 0
M  V30 1564 N 158.157 -0.370918 -1.53173 0
M  V30 1565 C 159.403 0.217423 -2.01631 0
M  V30 1566 C 159.736 1.47983 -1.25756 0
M  V30 1567 O 159.011 1.91274 -0.352764 0
M  V30 1568 C 159.294 0.503982 -3.56556 0
M  V30 1569 C 159.147 -0.77243 -4.43118 0
M  V30 1570 C 160.466 1.30234 -4.20389 0
M  V30 1571 H 157.585 0.0775486 -0.732909 0
M  V30 1572 H 160.227 -0.496863 -1.83388 0
M  V30 1573 H 158.377 1.11248 -3.72231 0
M  V30 1574 H 160.049 -1.4098 -4.39229 0
M  V30 1575 H 158.292 -1.39167 -4.10871 0
M  V30 1576 H 158.963 -0.526815 -5.4948 0
M  V30 1577 H 161.439 0.787546 -4.08579 0
M  V30 1578 H 160.315 1.47158 -5.28806 0
M  V30 1579 H 160.576 2.31237 -3.76805 0
M  V30 1580 N 159.635 1.57281 -0.100228 0
M  V30 1581 C 160.881 1.95626 0.556946 0
M  V30 1582 C 161.236 0.981655 1.65473 0
M  V30 1583 O 160.529 0.00849847 1.91598 0
M  V30 1584 C 160.723 3.38305 1.15259 0
M  V30 1585 C 160.552 4.49555 0.114035 0
M  V30 1586 C 159.322 5.0434 -0.311266 0
M  V30 1587 C 161.52 5.10051 -0.659768 0
M  V30 1588 N 159.502 5.99152 -1.33755 0
M  V30 1589 C 160.873 6.00628 -1.53774 0
M  V30 1590 C 162.928 4.92772 -0.712723 0
M  V30 1591 C 161.631 6.7578 -2.46403 0
M  V30 1592 C 163.657 5.6859 -1.62663 0
M  V30 1593 C 163.019 6.58838 -2.49222 0
M  V30 1594 H 159.118 0.7624 0.173982 0
M  V30 1595 H 161.702 1.93829 -0.183988 0
M  V30 1596 H 159.873 3.40786 1.86332 0
M  V30 1597 H 161.605 3.63817 1.77254 0
M  V30 1598 H 158.36 4.73537 0.0774812 0
M  V30 1599 H 158.784 6.5126 -1.84905 0
M  V30 1600 H 163.426 4.22761 -0.0576648 0
M  V30 1601 H 161.144 7.4505 -3.12931 0
M  V30 1602 H 164.73 5.57233 -1.67281 0
M  V30 1603 H 163.61 7.16479 -3.18791 0
M  V30 1604 N 161.113 -0.173488 1.56642 0
M  V30 1605 C 162.39 -0.917617 1.7274 0
M  V30 1606 C 162.77 -2.00484 0.661027 0
M  V30 1607 O 162.118 -2.26184 -0.32453 0
M  V30 1608 C 162.328 -1.48433 3.15862 0
M  V30 1609 C 163.676 -1.95809 3.76754 0
M  V30 1610 O 164.7 -1.58231 3.19126 0
M  V30 1611 O 163.559 -2.65024 4.77938 0
M  V30 1612 H 160.653 -0.431772 0.705338 0
M  V30 1613 H 163.199 -0.161487 1.6893 0
M  V30 1614 H 161.971 -0.701715 3.84957 0
M  V30 1615 H 161.594 -2.30471 3.23989 0
M  V30 1616 N 162.591 -1.51276 -0.441967 0
M  V30 1617 C 163.816 -1.67799 -1.21895 0
M  V30 1618 C 164.241 -0.372864 -1.84367 0
M  V30 1619 O 163.599 0.666501 -1.68604 0
M  V30 1620 C 163.647 -2.79199 -2.28211 0
M  V30 1621 O 162.751 -2.42479 -3.33583 0
M  V30 1622 H 162.092 -0.559649 -0.357336 0
M  V30 1623 H 164.622 -1.97815 -0.522522 0
M  V30 1624 H 164.632 -3.03146 -2.73069 0
M  V30 1625 H 163.307 -3.73906 -1.82118 0
M  V30 1626 H 161.884 -2.29087 -2.94234 0
M  V30 1627 N 164.069 0.697108 -1.41344 0
M  V30 1628 C 165.294 1.49096 -1.44171 0
M  V30 1629 C 165.719 1.88038 -0.0481568 0
M  V30 1630 O 165.077 1.54525 0.948243 0
M  V30 1631 C 165.125 2.73088 -2.3549 0
M  V30 1632 O 164.229 3.70514 -1.81088 0
M  V30 1633 H 163.57 0.448801 -0.489361 0
M  V30 1634 H 166.1 0.856992 -1.85787 0
M  V30 1635 H 166.11 3.21413 -2.51312 0
M  V30 1636 H 164.785 2.44081 -3.36745 0
M  V30 1637 H 163.362 3.29441 -1.74708 0
M  V30 1638 N 165.547 1.27147 0.931209 0
M  V30 1639 C 166.772 1.16191 1.71797 0
M  V30 1640 C 167.197 -0.278004 1.86034 0
M  V30 1641 O 166.555 -1.20137 1.35782 0
M  V30 1642 C 166.603 1.84673 3.09723 0
M  V30 1643 O 165.707 1.14231 3.96264 0
M  V30 1644 H 165.048 0.404303 0.526721 0
M  V30 1645 H 167.578 1.68152 1.1656 0
M  V30 1646 H 167.588 1.91893 3.60057 0
M  V30 1647 H 166.263 2.89421 2.98677 0
M  V30 1648 H 164.84 1.15056 3.54706 0
M  V30 1649 N 167.025 -1.13721 1.09112 0
M  V30 1650 C 168.302 -1.81155 0.737706 0
M  V30 1651 C 168.682 -1.96253 -0.777683 0
M  V30 1652 O 168.03 -1.52807 -1.69889 0
M  V30 1653 C 168.24 -3.16392 1.47299 0
M  V30 1654 C 169.588 -3.91787 1.63671 0
M  V30 1655 O 170.612 -3.26005 1.43524 0
M  V30 1656 O 169.471 -5.0977 1.96969 0
M  V30 1657 H 166.565 -0.783518 0.26463 0
M  V30 1658 H 169.111 -1.20676 1.19312 0
M  V30 1659 H 167.883 -3.0061 2.50498 0
M  V30 1660 H 167.506 -3.8457 1.00953 0
M  V30 1661 N 168.503 -0.877838 -1.30888 0
M  V30 1662 C 169.453 -0.310872 -2.25871 0
M  V30 1663 C 170.437 0.556596 -1.50966 0
M  V30 1664 O 171.629 0.402187 -1.7237 0
M  V30 1665 C 168.758 0.479821 -3.3993 0
M  V30 1666 C 167.844 -0.401333 -4.22197 0
M  V30 1667 N 168.235 -1.49848 -4.83093 0
M  V30 1668 C 166.533 -0.195167 -4.45573 0
M  V30 1669 C 167.234 -2.0425 -5.44662 0
M  V30 1670 N 166.21 -1.33843 -5.26865 0
M  V30 1671 H 170.012 -1.1493 -2.70496 0
M  V30 1672 H 167.526 -0.726458 -1.45246 0
M  V30 1673 H 169.523 0.902582 -4.07012 0
M  V30 1674 H 168.183 1.31577 -2.96846 0
M  V30 1675 H 169.194 -1.88137 -4.82519 0
M  V30 1676 H 165.871 0.604192 -4.13105 0
M  V30 1677 H 167.261 -2.96345 -6.03017 0
M  V30 1678 N 169.982 1.44106 -0.638065 0
M  V30 1679 C 171.393 1.85316 -0.226894 0
M  V30 1680 C 171.744 1.53399 1.22324 0
M  V30 1681 O 170.869 0.975463 1.93167 0
M  V30 1682 C 171.464 3.3637 -0.405013 0
M  V30 1683 C 170.023 3.76369 -0.0482902 0
M  V30 1684 C 169.17 2.67921 -0.715108 0
M  V30 1685 H 172.121 1.34474 -0.842764 0
M  V30 1686 H 172.142 3.7885 0.354 0
M  V30 1687 H 171.654 3.59569 -1.46053 0
M  V30 1688 H 169.755 3.58784 1.00522 0
M  V30 1689 H 169.868 4.76856 -0.463187 0
M  V30 1690 H 168.232 2.54259 -0.149753 0
M  V30 1691 H 169.015 2.93951 -1.77335 0
M  V30 1692 N 171.46 0.379036 1.52974 0
M  V30 1693 C 172.688 -0.20679 2.05864 0
M  V30 1694 C 173.103 -1.41356 1.25155 0
M  V30 1695 O 172.46 -1.8009 0.295588 0
M  V30 1696 C 172.511 -0.587045 3.56702 0
M  V30 1697 O 172.232 0.571776 4.34353 0
M  V30 1698 C 173.733 -1.22983 4.25899 0
M  V30 1699 H 170.953 -0.0336123 0.670158 0
M  V30 1700 H 173.497 0.541298 1.97206 0
M  V30 1701 H 171.652 -1.28504 3.65466 0
M  V30 1702 H 172.066 0.261544 5.23847 0
M  V30 1703 H 173.54 -1.44635 5.32715 0
M  V30 1704 H 174.017 -2.19416 3.80465 0
M  V30 1705 H 174.623 -0.572892 4.21424 0
M  V30 1706 O 172.977 -1.59572 0.248817 0
M  V30 1707 H 173.668 -1.9093 -0.326403 0
M  V30 END ATOM
M  V30 BEGIN BOND
M  V30 END BOND
M  V30 END CTAB
M  END
$$$$
