drugbank_target|P80874 General stress protein 69 (DB03461)
 OpenBabel12092120273D

  0  0  0     0  0            999 V3000
M  V30 BEGIN CTAB
M  V30 COUNTS 5234 5289 0 0 0
M  V30 BEGIN ATOM
M  V30 1 H -0.908 1.98254 -0.117106 0
M  V30 2 N 0 1.576 0 0
M  V30 3 C 0.933 2.03868 1.02534 0
M  V30 4 C 1.911 0.928543 1.3348 0
M  V30 5 O 3.095 1.19667 1.45644 0
M  V30 6 C 0.222 2.43627 2.35294 0
M  V30 7 C -0.732 3.65373 2.2001 0
M  V30 8 S 0.101 5.13292 1.52614 0
M  V30 9 C 1.257 5.56322 2.86805 0
M  V30 10 H 1.49 2.90518 0.631377 0
M  V30 11 H -0.977 1.52953 0.210867 0
M  V30 12 H 0.981 2.67203 3.11629 0
M  V30 13 H -0.358 1.57376 2.7183 0
M  V30 14 H -1.165 3.90944 3.18086 0
M  V30 15 H -1.563 3.418 1.51819 0
M  V30 16 H 0.729 5.58782 3.83104 0
M  V30 17 H 1.672 6.56266 2.65933 0
M  V30 18 H 2.08 4.83886 2.90714 0
M  V30 19 N 1.4781 -0.272755 1.55222 0
M  V30 20 C 2.3881 -1.35918 1.91216 0
M  V30 21 C 3.4041 -1.54026 0.809436 0
M  V30 22 O 4.5801 -1.68148 1.10852 0
M  V30 23 C 1.6451 -2.69834 2.17693 0
M  V30 24 C 0.7061 -2.6047 3.41253 0
M  V30 25 C -0.0609 -3.88 3.66458 0
M  V30 26 O 0.1621 -4.88693 2.94169 0
M  V30 27 O -0.9039 -3.88189 4.59992 0
M  V30 28 H 2.9221 -1.0839 2.83699 0
M  V30 29 H 0.5071 -0.471301 1.41771 0
M  V30 30 H 2.3891 -3.49017 2.36147 0
M  V30 31 H 1.0641 -2.97148 1.28392 0
M  V30 32 H -0.0289 -1.79663 3.28134 0
M  V30 33 H 1.3041 -2.38106 4.30774 0
M  V30 34 N 2.9562 -1.48159 -0.537278 0
M  V30 35 C 4.1862 -1.59223 -1.3165 0
M  V30 36 C 4.5942 -0.248849 -1.87556 0
M  V30 37 O 3.9372 0.770949 -1.6674 0
M  V30 38 C 3.9992 -2.57365 -2.51005 0
M  V30 39 C 3.6632 -4.02603 -2.16239 0
M  V30 40 C 4.6602 -4.90503 -1.72344 0
M  V30 41 C 2.3452 -4.48088 -2.26986 0
M  V30 42 C 4.3392 -6.21913 -1.39651 0
M  V30 43 C 2.0262 -5.7952 -1.93906 0
M  V30 44 C 3.0242 -6.66255 -1.50309 0
M  V30 45 O 2.7122 -7.95243 -1.17659 0
M  V30 46 H 2.4442 -0.539831 -0.406889 0
M  V30 47 H 4.9982 -1.94655 -0.655641 0
M  V30 48 H 3.2282 -2.1704 -3.20048 0
M  V30 49 H 4.9172 -2.58342 -3.13072 0
M  V30 50 H 5.6832 -4.56604 -1.63517 0
M  V30 51 H 1.5622 -3.80769 -2.59877 0
M  V30 52 H 5.1062 -6.89569 -1.0555 0
M  V30 53 H 1.0032 -6.12957 -2.02371 0
M  V30 54 H 1.7712 -8.0793 -1.31119 0
M  V30 55 N 4.4343 0.785586 -1.36625 0
M  V30 56 C 5.6623 1.57448 -1.3423 0
M  V30 57 C 6.0773 1.88649 0.0755653 0
M  V30 58 O 5.4343 1.50414 1.03354 0
M  V30 59 C 5.4853 2.89316 -2.16745 0
M  V30 60 O 5.2063 2.59459 -3.53005 0
M  V30 61 C 6.7073 3.83606 -2.22174 0
M  V30 62 H 3.9273 0.488226 -0.4603 0
M  V30 63 H 6.4713 0.974733 -1.79775 0
M  V30 64 H 4.6263 3.4575 -1.74745 0
M  V30 65 H 5.0403 3.43804 -3.96105 0
M  V30 66 H 6.5143 4.73181 -2.8426 0
M  V30 67 H 6.9913 4.21734 -1.22627 0
M  V30 68 H 7.5973 3.33104 -2.64427 0
M  V30 69 N 5.9124 1.20967 1.01018 0
M  V30 70 C 7.1374 1.0503 1.78839 0
M  V30 71 C 7.5624 -0.395752 1.8389 0
M  V30 72 O 6.9204 -1.28529 1.27867 0
M  V30 73 C 6.9684 1.64602 3.2084 0
M  V30 74 O 6.0724 0.887988 4.02726 0
M  V30 75 H 5.4134 0.369987 0.551367 0
M  V30 76 H 7.9434 1.60399 1.27018 0
M  V30 77 H 7.9534 1.68607 3.71532 0
M  V30 78 H 6.6284 2.69841 3.16479 0
M  V30 79 H 5.2054 0.922648 3.61305 0
M  V30 80 N 7.3905 -1.2043 1.01659 0
M  V30 81 C 8.6395 -1.89118 0.701237 0
M  V30 82 C 8.9525 -1.79705 -0.772358 0
M  V30 83 O 10.1585 -2.43528 -1.20026 0
M  V30 84 C 8.6145 -3.39168 1.20388 0
M  V30 85 C 8.2225 -3.57166 2.70438 0
M  V30 86 C 9.9665 -4.1341 0.963953 0
M  V30 87 C 7.8735 -5.01042 3.14183 0
M  V30 88 H 6.8035 -0.708267 0.2586 0
M  V30 89 H 9.4545 -1.36239 1.22927 0
M  V30 90 H 7.8365 -3.91369 0.603824 0
M  V30 91 H 9.0105 -3.15351 3.35992 0
M  V30 92 H 7.3255 -2.96294 2.92572 0
M  V30 93 H 9.9225 -5.19491 1.26621 0
M  V30 94 H 10.2655 -4.16181 -0.099578 0
M  V30 95 H 10.7985 -3.67309 1.52738 0
M  V30 96 H 7.5375 -5.03426 4.19812 0
M  V30 97 H 7.0575 -5.43668 2.53348 0
M  V30 98 H 8.7365 -5.69623 3.0682 0
M  V30 99 N 8.8686 -0.792821 -1.36206 0
M  V30 100 C 9.8316 -0.199459 -2.2833 0
M  V30 101 C 10.8316 0.605189 -1.48977 0
M  V30 102 O 12.0216 0.425685 -1.68919 0
M  V30 103 C 9.1536 0.723523 -3.33134 0
M  V30 104 H 10.3466 -1.01181 -2.82316 0
M  V30 105 H 7.8996 -0.562485 -1.45828 0
M  V30 106 H 8.6346 1.56008 -2.84309 0
M  V30 107 H 8.4196 0.148436 -3.91819 0
M  V30 108 H 9.9096 1.13344 -4.01924 0
M  V30 109 N 10.3467 1.47872 -0.545128 0
M  V30 110 C 11.6237 1.9554 0.0485222 0
M  V30 111 C 12.0037 1.4876 1.49779 0
M  V30 112 O 11.3517 0.720925 2.16829 0
M  V30 113 C 11.5617 3.48898 -0.084417 0
M  V30 114 C 12.9097 4.24547 0.0671239 0
M  V30 115 O 13.9337 3.56198 -0.0113649 0
M  V30 116 O 12.7927 5.45999 0.233882 0
M  V30 117 H 9.8867 0.823957 0.0708773 0
M  V30 118 H 12.4327 1.58327 -0.610798 0
M  V30 119 H 11.2047 3.75714 -1.09337 0
M  V30 120 H 10.8277 3.92845 0.613066 0
M  V30 121 N 11.8248 0.280983 1.55075 0
M  V30 122 C 13.0528 -0.337293 2.04132 0
M  V30 123 C 13.4678 -1.4903 1.15912 0
M  V30 124 O 12.8248 -1.81606 0.180459 0
M  V30 125 C 12.8758 -0.812706 3.52246 0
M  V30 126 O 12.5968 0.294387 4.3711 0
M  V30 127 C 14.0978 -1.4982 4.17216 0
M  V30 128 H 11.3178 -0.0761638 0.666663 0
M  V30 129 H 13.8618 0.414787 2.00249 0
M  V30 130 H 12.0168 -1.51486 3.56554 0
M  V30 131 H 12.4308 -0.0721325 5.2445 0
M  V30 132 H 13.9048 -1.7822 5.22438 0
M  V30 133 H 14.3818 -2.43168 3.65741 0
M  V30 134 H 14.9878 -0.839742 4.16927 0
M  V30 135 N 13.3029 -1.57598 0.00835791 0
M  V30 136 C 14.5509 -1.90551 -0.6734 0
M  V30 137 C 14.8719 -0.883301 -1.73847 0
M  V30 138 O 14.1419 0.0781442 -1.95744 0
M  V30 139 H 12.7219 -0.703312 -0.251717 0
M  V30 140 H 15.3839 -1.94833 0.0512592 0
M  V30 141 H 14.4799 -2.9056 -1.13935 0
M  V30 142 N 14.781 0.264519 -1.55364 0
M  V30 143 C 16.03 0.992812 -1.75574 0
M  V30 144 C 16.343 1.87142 -0.568979 0
M  V30 145 O 17.549 2.63513 -0.653682 0
M  V30 146 C 16.005 1.81519 -3.10771 0
M  V30 147 C 15.613 0.984839 -4.37041 0
M  V30 148 C 17.357 2.53727 -3.40327 0
M  V30 149 C 15.264 1.80209 -5.63275 0
M  V30 150 H 14.194 0.374412 -0.65447 0
M  V30 151 H 16.845 0.248138 -1.81815 0
M  V30 152 H 15.227 2.60115 -2.98591 0
M  V30 153 H 16.401 0.242455 -4.60162 0
M  V30 154 H 14.716 0.37691 -4.14691 0
M  V30 155 H 17.313 3.15292 -4.3185 0
M  V30 156 H 17.656 3.24447 -2.60845 0
M  V30 157 H 18.189 1.82156 -3.53644 0
M  V30 158 H 14.928 1.13896 -6.45529 0
M  V30 159 H 14.448 2.52022 -5.44284 0
M  V30 160 H 16.127 2.37364 -6.01887 0
M  V30 161 N 16.2591 1.48442 0.529413 0
M  V30 162 C 17.1691 1.6569 1.66084 0
M  V30 163 C 18.1851 0.539432 1.65427 0
M  V30 164 O 19.3611 0.810572 1.84368 0
M  V30 165 C 16.4261 1.69315 3.02545 0
M  V30 166 C 15.4871 2.92694 3.14052 0
M  V30 167 C 14.7201 2.96137 4.44003 0
M  V30 168 O 14.9431 2.07973 5.31134 0
M  V30 169 O 13.8771 3.88312 4.59888 0
M  V30 170 H 17.7031 2.61483 1.54469 0
M  V30 171 H 15.2881 1.3185 0.702567 0
M  V30 172 H 17.1701 1.74217 3.83701 0
M  V30 173 H 15.8451 0.766966 3.14483 0
M  V30 174 H 14.7521 2.93324 2.32189 0
M  V30 175 H 16.0851 3.84699 3.0703 0
M  V30 176 N 17.7372 -0.778329 1.37039 0
M  V30 177 C 18.7002 -1.87301 1.32102 0
M  V30 178 C 19.7002 -1.59198 0.226405 0
M  V30 179 O 20.8902 -1.67403 0.481861 0
M  V30 180 C 18.0222 -3.24309 1.05055 0
M  V30 181 H 19.2152 -1.93093 2.29467 0
M  V30 182 H 16.7682 -0.977358 1.21973 0
M  V30 183 H 17.5032 -3.24196 0.0819373 0
M  V30 184 H 17.2882 -3.46098 1.84279 0
M  V30 185 H 18.7782 -4.04382 1.04234 0
M  V30 186 N 19.2153 -1.21501 -1.00376 0
M  V30 187 C 20.4403 -1.05977 -1.78279 0
M  V30 188 C 20.8653 0.385994 -1.84097 0
M  V30 189 O 20.2233 1.27849 -1.28547 0
M  V30 190 C 20.2713 -1.66302 -3.19963 0
M  V30 191 O 19.3753 -0.909333 -4.0225 0
M  V30 192 H 18.7163 -0.372906 -0.549397 0
M  V30 193 H 21.2463 -1.6107 -1.26165 0
M  V30 194 H 21.2563 -1.70574 -3.70632 0
M  V30 195 H 19.9313 -2.71515 -3.15043 0
M  V30 196 H 18.5083 -0.941795 -3.60811 0
M  V30 197 N 20.6934 1.19889 -1.02296 0
M  V30 198 C 22.1094 1.41462 -0.738954 0
M  V30 199 C 22.3094 1.89721 0.678846 0
M  V30 200 O 21.3654 2.07016 1.4457 0
M  V30 201 C 22.6784 2.43083 -1.77005 0
M  V30 202 C 24.2264 2.5684 -1.78892 0
M  V30 203 C 24.7014 3.61709 -2.80945 0
M  V30 204 N 26.1924 3.69199 -2.79725 0
M  V30 205 C 26.9274 4.50019 -3.55345 0
M  V30 206 N 26.4234 5.34592 -4.40662 0
M  V30 207 N 28.2164 4.44612 -3.43914 0
M  V30 208 H 20.3674 0.868827 -1.93817 0
M  V30 209 H 22.6304 0.44399 -0.837602 0
M  V30 210 H 22.3364 2.14636 -2.78612 0
M  V30 211 H 22.2104 3.4217 -1.58744 0
M  V30 212 H 24.5974 2.84614 -0.779674 0
M  V30 213 H 24.6784 1.57927 -2.01228 0
M  V30 214 H 24.3224 3.34678 -3.82038 0
M  V30 215 H 24.2524 4.60259 -2.5587 0
M  V30 216 H 26.7434 3.08794 -2.17842 0
M  V30 217 H 27.0564 5.93363 -4.95116 0
M  V30 218 H 25.4014 5.34073 -4.44737 0
M  V30 219 H 28.5924 3.7758 -2.76679 0
M  V30 220 H 28.7654 5.0736 -4.031 0
M  V30 221 N 22.1715 0.800033 1.35784 0
M  V30 222 C 23.4205 0.37387 1.98205 0
M  V30 223 C 23.7335 -1.06302 1.64193 0
M  V30 224 O 24.9395 -1.59198 2.19928 0
M  V30 225 C 23.3955 0.617532 3.54562 0
M  V30 226 C 23.0035 2.06654 3.9749 0
M  V30 227 C 24.7475 0.256401 4.23725 0
M  V30 228 C 22.6545 2.2563 5.46667 0
M  V30 229 H 21.5845 0.136055 0.741623 0
M  V30 230 H 24.2355 0.983166 1.54939 0
M  V30 231 H 22.6175 -0.0616248 3.95952 0
M  V30 232 H 23.7915 2.78296 3.67271 0
M  V30 233 H 22.1065 2.38691 3.41197 0
M  V30 234 H 24.7035 0.376318 5.33374 0
M  V30 235 H 25.0465 -0.796692 4.08606 0
M  V30 236 H 25.5795 0.889214 3.87734 0
M  V30 237 H 22.3185 3.2936 5.66747 0
M  V30 238 H 21.8385 1.58504 5.78478 0
M  V30 239 H 23.5175 2.06861 6.1304 0
M  V30 240 N 23.6496 -1.47581 0.552962 0
M  V30 241 C 24.8976 -2.02082 0.0272703 0
M  V30 242 C 25.2186 -1.4301 -1.32563 0
M  V30 243 O 24.4886 -0.603745 -1.86365 0
M  V30 244 H 23.0686 -0.746966 0.00709182 0
M  V30 245 H 25.7306 -1.81033 0.722008 0
M  V30 246 H 24.8266 -3.12034 -0.0639951 0
M  V30 247 N 25.1277 -0.289203 -1.54924 0
M  V30 248 C 26.0577 0.58549 -2.2604 0
M  V30 249 C 27.0387 1.14753 -1.25562 0
M  V30 250 O 28.2237 1.17906 -1.54311 0
M  V30 251 C 25.3537 1.76305 -2.99222 0
M  V30 252 C 24.3077 1.33191 -4.06748 0
M  V30 253 C 23.6337 2.5937 -4.6758 0
M  V30 254 C 24.9337 0.471775 -5.20165 0
M  V30 255 H 26.6277 -0.00763532 -2.99399 0
M  V30 256 H 24.1737 -0.00511229 -1.43999 0
M  V30 257 H 26.1267 2.38097 -3.47689 0
M  V30 258 H 24.8507 2.38223 -2.23422 0
M  V30 259 H 23.5097 0.737121 -3.59113 0
M  V30 260 H 23.1577 3.19576 -3.88433 0
M  V30 261 H 22.8577 2.31228 -5.40192 0
M  V30 262 H 24.3817 3.21985 -5.18804 0
M  V30 263 H 25.7957 0.995056 -5.64599 0
M  V30 264 H 24.1927 0.284639 -5.99425 0
M  V30 265 H 25.2627 -0.506041 -4.82252 0
M  V30 266 N 26.6058 1.57591 -0.0167156 0
M  V30 267 C 27.8538 1.90906 0.663285 0
M  V30 268 C 28.1748 0.892509 1.73376 0
M  V30 269 O 27.4448 -0.0677623 1.95783 0
M  V30 270 H 26.0248 0.704637 0.247983 0
M  V30 271 H 28.6868 1.94803 -0.0615909 0
M  V30 272 H 27.7828 2.9116 1.12393 0
M  V30 273 N 28.0839 -0.256276 1.55502 0
M  V30 274 C 29.3119 -1.00342 1.8094 0
M  V30 275 C 29.7269 -1.79307 0.59114 0
M  V30 276 O 29.0839 -1.77114 -0.440081 0
M  V30 277 C 29.1349 -1.94875 3.04476 0
M  V30 278 O 28.8559 -1.19107 4.21598 0
M  V30 279 C 30.3569 -2.81266 3.42644 0
M  V30 280 H 27.5769 -0.295685 0.602338 0
M  V30 281 H 30.1209 -0.281998 2.02546 0
M  V30 282 H 28.2759 -2.62457 2.84947 0
M  V30 283 H 28.6899 -1.82969 4.91551 0
M  V30 284 H 30.1639 -3.43362 4.32211 0
M  V30 285 H 30.6409 -3.51897 2.62802 0
M  V30 286 H 31.2469 -2.1915 3.64491 0
M  V30 287 N 29.562 -1.4872 -0.521534 0
M  V30 288 C 30.808 -1.58378 -1.27624 0
M  V30 289 C 31.163 -0.258028 -1.90662 0
M  V30 290 O 30.456 0.739917 -1.76736 0
M  V30 291 C 30.65 -2.66497 -2.38148 0
M  V30 292 C 30.479 -4.09456 -1.85945 0
M  V30 293 C 29.249 -4.76495 -1.68168 0
M  V30 294 C 31.447 -4.95353 -1.3831 0
M  V30 295 N 29.429 -6.0384 -1.1068 0
M  V30 296 C 30.8 -6.13012 -0.928238 0
M  V30 297 C 32.855 -4.81512 -1.26692 0
M  V30 298 C 31.558 -7.18354 -0.368701 0
M  V30 299 C 33.584 -5.86984 -0.721368 0
M  V30 300 C 32.946 -7.03857 -0.276623 0
M  V30 301 H 29.045 -0.634045 -0.457724 0
M  V30 302 H 31.629 -1.85639 -0.587049 0
M  V30 303 H 29.8 -2.41043 -3.04553 0
M  V30 304 H 31.532 -2.65791 -3.05184 0
M  V30 305 H 28.287 -4.32962 -1.91939 0
M  V30 306 H 28.711 -6.71778 -0.839217 0
M  V30 307 H 33.353 -3.91487 -1.5968 0
M  V30 308 H 31.071 -8.08096 -0.0265122 0
M  V30 309 H 34.657 -5.78329 -0.634531 0
M  V30 310 H 33.537 -7.84077 0.138947 0
M  V30 311 N 31.0401 0.771051 -1.3745 0
M  V30 312 C 32.0031 1.86598 -1.33093 0
M  V30 313 C 33.0031 1.59076 -0.234845 0
M  V30 314 O 34.1931 1.67145 -0.490732 0
M  V30 315 C 31.3251 3.23747 -1.06773 0
M  V30 316 H 32.5181 1.91873 -2.30488 0
M  V30 317 H 30.0711 0.970876 -1.2249 0
M  V30 318 H 30.8061 3.24148 -0.099129 0
M  V30 319 H 30.5911 3.45115 -1.86112 0
M  V30 320 H 32.0811 4.03824 -1.06377 0
M  V30 321 N 32.5182 1.22032 0.997298 0
M  V30 322 C 33.7672 1.03637 1.73038 0
M  V30 323 C 34.0802 -0.429475 1.90827 0
M  V30 324 O 35.2862 -0.732995 2.61418 0
M  V30 325 C 33.7422 1.80582 3.11317 0
M  V30 326 C 33.3502 3.31387 3.01474 0
M  V30 327 C 35.0942 1.70621 3.88701 0
M  V30 328 C 33.0012 4.00791 4.3488 0
M  V30 329 H 31.9312 0.384179 0.648785 0
M  V30 330 H 34.5822 1.4584 1.11368 0
M  V30 331 H 32.9642 1.31175 3.73643 0
M  V30 332 H 34.1382 3.88155 2.4834 0
M  V30 333 H 32.4532 3.41976 2.37575 0
M  V30 334 H 35.0502 2.19799 4.87434 0
M  V30 335 H 35.3932 0.665823 4.10941 0
M  V30 336 H 35.9262 2.17547 3.33044 0
M  V30 337 H 32.6652 5.05064 4.1784 0
M  V30 338 H 32.1852 3.48811 4.87945 0
M  V30 339 H 33.8642 4.06139 5.03647 0
M  V30 340 N 33.9963 -1.19345 1.0293 0
M  V30 341 C 35.2443 -1.88665 0.724574 0
M  V30 342 C 35.5653 -1.80036 -0.749144 0
M  V30 343 O 34.8353 -1.2111 -1.53978 0
M  V30 344 H 33.4153 -0.698406 0.265025 0
M  V30 345 H 36.0773 -1.44885 1.30362 0
M  V30 346 H 35.1733 -2.94987 1.01926 0
M  V30 347 N 35.4744 -0.807222 -1.35358 0
M  V30 348 C 36.7224 -0.387122 -1.98358 0
M  V30 349 C 37.0434 1.04942 -1.64354 0
M  V30 350 O 36.3134 1.72615 -0.926339 0
M  V30 351 H 34.8934 -0.140154 -0.733734 0
M  V30 352 H 37.5554 -1.0332 -1.6526 0
M  V30 353 H 36.6514 -0.493352 -3.08176 0
M  V30 354 N 36.9525 1.47285 -0.560781 0
M  V30 355 C 38.1805 2.06855 -0.0430262 0
M  V30 356 C 38.5955 1.41291 1.25229 0
M  V30 357 O 37.9525 0.510648 1.7521 0
M  V30 358 C 38.0035 3.61178 0.152518 0
M  V30 359 O 37.7245 4.24285 -1.0915 0
M  V30 360 C 39.2255 4.37624 0.707145 0
M  V30 361 H 36.4455 0.669319 -0.0474652 0
M  V30 362 H 38.9895 1.89237 -0.77521 0
M  V30 363 H 37.1445 3.78298 0.834843 0
M  V30 364 H 37.5585 5.16868 -0.891482 0
M  V30 365 H 39.0325 5.46271 0.793244 0
M  V30 366 H 39.5095 4.04152 1.71923 0
M  V30 367 H 40.1155 4.25257 0.0604027 0
M  V30 368 N 38.4306 0.297415 1.54768 0
M  V30 369 C 39.3636 -0.622188 2.19554 0
M  V30 370 C 40.3416 -1.13558 1.16376 0
M  V30 371 O 41.5256 -1.20444 1.45002 0
M  V30 372 C 38.6526 -1.8509 2.83653 0
M  V30 373 C 37.6986 -1.47106 4.00328 0
M  V30 374 S 38.5316 -0.53006 5.3287 0
M  V30 375 C 39.6876 -1.76665 6.0045 0
M  V30 376 H 39.9206 -0.0717806 2.97213 0
M  V30 377 H 37.4536 0.0815678 1.54184 0
M  V30 378 H 39.4116 -2.55605 3.21211 0
M  V30 379 H 38.0726 -2.37247 2.05846 0
M  V30 380 H 37.2656 -2.38594 4.43947 0
M  V30 381 H 36.8676 -0.845885 3.64309 0
M  V30 382 H 39.1596 -2.7077 6.21039 0
M  V30 383 H 40.1026 -1.37308 6.9466 0
M  V30 384 H 40.5106 -1.94174 5.30054 0
M  V30 385 N 39.9087 -1.5758 0.0250728 0
M  V30 386 C 41.1547 -1.92746 -0.649648 0
M  V30 387 C 41.5097 -0.901588 -1.69968 0
M  V30 388 O 40.8027 0.0829251 -1.9142 0
M  V30 389 C 40.9967 -3.32421 -1.31268 0
M  V30 390 C 40.8257 -4.48499 -0.328394 0
M  V30 391 C 39.5957 -5.05251 0.070284 0
M  V30 392 C 41.7937 -5.12618 0.415665 0
M  V30 393 N 39.7757 -6.04851 1.05016 0
M  V30 394 C 41.1467 -6.0728 1.24943 0
M  V30 395 C 43.2017 -4.95612 0.476803 0
M  V30 396 C 41.9047 -6.86766 2.1388 0
M  V30 397 C 43.9307 -5.75703 1.3535 0
M  V30 398 C 43.2927 -6.69978 2.17504 0
M  V30 399 H 39.3917 -0.753231 -0.210159 0
M  V30 400 H 41.9757 -1.94486 0.0912999 0
M  V30 401 H 40.1467 -3.31508 -2.02379 0
M  V30 402 H 41.8787 -3.54946 -1.94411 0
M  V30 403 H 38.6337 -4.72628 -0.303323 0
M  V30 404 H 39.0577 -6.5934 1.53622 0
M  V30 405 H 43.6997 -4.22554 -0.144105 0
M  V30 406 H 41.4177 -7.59132 2.77027 0
M  V30 407 H 45.0037 -5.64579 1.40504 0
M  V30 408 H 43.8837 -7.30873 2.84244 0
M  V30 409 N 41.3868 0.248026 -1.55636 0
M  V30 410 C 42.6348 0.974295 -1.77065 0
M  V30 411 C 42.9558 1.85897 -0.588849 0
M  V30 412 O 42.2258 1.91868 0.395407 0
M  V30 413 H 40.8058 0.362733 -0.653019 0
M  V30 414 H 43.4678 0.266244 -1.93073 0
M  V30 415 H 42.5638 1.59667 -2.68166 0
M  V30 416 N 42.8649 1.48995 0.513639 0
M  V30 417 C 44.1129 1.57531 1.26604 0
M  V30 418 C 44.4339 0.258236 1.93283 0
M  V30 419 O 43.7039 -0.721502 1.8213 0
M  V30 420 H 42.2839 0.580387 0.470276 0
M  V30 421 H 44.9459 1.85552 0.596373 0
M  V30 422 H 44.0419 2.36486 2.03669 0
M  V30 423 N 44.343 -0.763751 1.37857 0
M  V30 424 C 45.571 -1.55293 1.36718 0
M  V30 425 C 45.986 -1.88745 -0.0455434 0
M  V30 426 O 45.343 -1.52039 -1.00947 0
M  V30 427 C 45.394 -2.85831 2.2132 0
M  V30 428 O 45.115 -2.5381 3.57089 0
M  V30 429 C 46.616 -3.80023 2.28249 0
M  V30 430 H 43.836 -0.480841 0.468009 0
M  V30 431 H 46.38 -0.946009 1.81303 0
M  V30 432 H 44.535 -3.42926 1.80223 0
M  V30 433 H 44.949 -3.37459 4.01524 0
M  V30 434 H 46.423 -4.68599 2.91752 0
M  V30 435 H 46.9 -4.1973 1.2932 0
M  V30 436 H 47.506 -3.28855 2.69693 0
M  V30 437 N 45.8211 -1.22559 -0.990812 0
M  V30 438 C 47.0981 -0.959875 -1.70428 0
M  V30 439 C 47.4781 0.524455 -2.04481 0
M  V30 440 O 46.8261 1.49302 -1.72977 0
M  V30 441 C 47.0361 -1.85955 -2.95333 0
M  V30 442 C 48.3841 -2.11687 -3.68068 0
M  V30 443 O 49.4081 -1.8342 -3.05345 0
M  V30 444 O 48.2671 -2.59572 -4.80921 0
M  V30 445 H 45.3611 -0.361154 -0.743974 0
M  V30 446 H 47.9071 -1.33554 -1.04697 0
M  V30 447 H 46.6791 -2.86346 -2.66687 0
M  V30 448 H 46.3021 -1.4856 -3.68803 0
M  V30 449 N 47.2992 1.18797 -1.03562 0
M  V30 450 C 48.2092 2.25913 -0.632505 0
M  V30 451 C 49.2252 1.70668 0.338882 0
M  V30 452 O 50.4012 2.00453 0.195076 0
M  V30 453 C 47.4662 3.467 0.00350942 0
M  V30 454 C 46.5272 4.17098 -1.01624 0
M  V30 455 C 45.7602 5.32119 -0.410478 0
M  V30 456 O 45.9832 5.64976 0.784725 0
M  V30 457 O 44.9172 5.9107 -1.13667 0
M  V30 458 H 48.7432 2.62648 -1.52478 0
M  V30 459 H 46.3282 1.25781 -0.806195 0
M  V30 460 H 48.2102 4.19878 0.35781 0
M  V30 461 H 46.8852 3.11798 0.869686 0
M  V30 462 H 45.7922 3.4601 -1.42224 0
M  V30 463 H 47.1252 4.55987 -1.85301 0
M  V30 464 N 48.7773 0.814389 1.34928 0
M  V30 465 C 49.7243 0.22822 2.29669 0
M  V30 466 C 50.6943 -0.642164 1.53184 0
M  V30 467 O 51.8793 -0.585605 1.81591 0
M  V30 468 C 49.0193 -0.61089 3.3965 0
M  V30 469 C 48.1323 0.280792 4.31086 0
M  V30 470 C 47.2673 -0.567067 5.28165 0
M  V30 471 C 46.3063 0.324531 6.11239 0
M  V30 472 N 45.4433 -0.483756 7.00431 0
M  V30 473 H 50.2833 1.04153 2.79206 0
M  V30 474 H 47.8203 0.525133 1.37407 0
M  V30 475 H 49.7783 -1.11263 4.0209 0
M  V30 476 H 48.4083 -1.38939 2.91369 0
M  V30 477 H 47.4603 0.900688 3.69583 0
M  V30 478 H 48.7723 0.966723 4.89342 0
M  V30 479 H 47.9263 -1.13363 5.96015 0
M  V30 480 H 46.6653 -1.28654 4.70425 0
M  V30 481 H 45.6703 0.903298 5.42329 0
M  V30 482 H 46.8953 1.04198 6.71059 0
M  V30 483 H 44.8413 -1.18706 6.45171 0
M  V30 484 H 44.7583 0.143965 7.55863 0
M  V30 485 H 46.0263 -1.03334 7.7262 0
M  V30 486 N 50.2554 -1.46986 0.568584 0
M  V30 487 C 51.4834 -2.0683 0.0539956 0
M  V30 488 C 51.8984 -1.41953 -1.24478 0
M  V30 489 O 51.2554 -0.519933 -1.74937 0
M  V30 490 C 51.3064 -3.61254 -0.133362 0
M  V30 491 O 51.0274 -4.237 1.11399 0
M  V30 492 C 52.5284 -4.37992 -0.683927 0
M  V30 493 H 49.7484 -0.669058 0.0510141 0
M  V30 494 H 52.2924 -1.88824 0.785234 0
M  V30 495 H 50.4474 -3.78735 -0.81477 0
M  V30 496 H 50.8614 -5.16388 0.91888 0
M  V30 497 H 52.3354 -5.46684 -0.764263 0
M  V30 498 H 52.8124 -4.05058 -1.69778 0
M  V30 499 H 53.4184 -4.25283 -0.0378494 0
M  V30 500 N 51.7335 -0.305618 -1.54608 0
M  V30 501 C 52.9585 0.307562 -2.05107 0
M  V30 502 C 53.3835 1.46385 -1.18123 0
M  V30 503 O 52.7415 1.8034 -0.186324 0
M  V30 504 C 52.7895 0.73704 -3.52987 0
M  V30 505 O 51.8935 1.84134 -3.6901 0
M  V30 506 H 51.2345 0.0589143 -0.661381 0
M  V30 507 H 53.7645 -0.448807 -1.99617 0
M  V30 508 H 53.7745 1.02459 -3.94925 0
M  V30 509 H 52.4495 -0.108773 -4.15758 0
M  V30 510 H 51.0265 1.55398 -3.38978 0
M  V30 511 N 53.2116 1.57565 -0.0334293 0
M  V30 512 C 54.4606 1.91155 0.643639 0
M  V30 513 C 54.7736 0.91192 1.73042 0
M  V30 514 O 55.9796 1.13923 2.46442 0
M  V30 515 C 54.4356 3.39443 1.1961 0
M  V30 516 C 54.0436 4.47774 0.142381 0
M  V30 517 C 55.7876 3.82094 1.84944 0
M  V30 518 C 53.6946 5.87162 0.706727 0
M  V30 519 H 52.6246 0.713368 0.244176 0
M  V30 520 H 55.2756 1.8323 -0.0994323 0
M  V30 521 H 53.6576 3.42313 1.99092 0
M  V30 522 H 54.8316 4.56469 -0.630296 0
M  V30 523 H 53.1466 4.14352 -0.412446 0
M  V30 524 H 55.7436 4.83591 2.2813 0
M  V30 525 H 56.0866 3.17386 2.69392 0
M  V30 526 H 56.6196 3.81665 1.12145 0
M  V30 527 H 53.3586 6.55424 -0.0997178 0
M  V30 528 H 52.8786 5.82064 1.44779 0
M  V30 529 H 54.5576 6.35866 1.19514 0
M  V30 530 N 54.6897 -0.239769 1.55765 0
M  V30 531 C 55.5997 -1.31831 1.94056 0
M  V30 532 C 56.6157 -1.52275 0.841925 0
M  V30 533 O 57.7917 -1.65759 1.14394 0
M  V30 534 C 54.8567 -2.65156 2.23368 0
M  V30 535 C 53.9177 -2.53173 3.46701 0
M  V30 536 C 53.1507 -3.8014 3.74606 0
M  V30 537 O 53.3737 -4.82343 3.04469 0
M  V30 538 O 52.3077 -3.78344 4.68123 0
M  V30 539 H 56.1337 -1.02347 2.85935 0
M  V30 540 H 53.7187 -0.441123 1.42739 0
M  V30 541 H 55.6007 -3.43929 2.43497 0
M  V30 542 H 54.2757 -2.94358 1.34666 0
M  V30 543 H 53.1827 -1.72662 3.31871 0
M  V30 544 H 54.5157 -2.28915 4.35728 0
M  V30 545 N 56.1678 -1.49265 -0.50573 0
M  V30 546 C 57.3958 -1.62215 -1.28429 0
M  V30 547 C 57.8108 -0.291697 -1.86533 0
M  V30 548 O 57.1678 0.722233 -1.67601 0
M  V30 549 C 57.2188 -2.68735 -2.41793 0
M  V30 550 O 56.9398 -3.96619 -1.86078 0
M  V30 551 C 58.4408 -2.92346 -3.3324 0
M  V30 552 H 55.6608 -0.546239 -0.389697 0
M  V30 553 H 58.2048 -1.95265 -0.607609 0
M  V30 554 H 56.3598 -2.38476 -3.053 0
M  V30 555 H 56.7738 -4.55256 -2.60465 0
M  V30 556 H 58.2478 -3.70623 -4.09075 0
M  V30 557 H 58.7248 -2.02081 -3.89948 0
M  V30 558 H 59.3308 -3.24003 -2.75503 0
M  V30 559 N 57.6459 0.756429 -1.3826 0
M  V30 560 C 58.8949 1.51082 -1.3363 0
M  V30 561 C 59.2079 1.95467 0.0720068 0
M  V30 562 O 60.4139 2.7043 0.240834 0
M  V30 563 C 58.8699 2.72893 -2.34644 0
M  V30 564 C 58.4779 2.35544 -3.81081 0
M  V30 565 C 60.2219 3.50791 -2.39052 0
M  V30 566 C 58.1289 3.53948 -4.73787 0
M  V30 567 H 57.0589 0.56727 -0.49671 0
M  V30 568 H 59.7099 0.827147 -1.638 0
M  V30 569 H 58.0919 3.43227 -1.97513 0
M  V30 570 H 59.2659 1.72894 -4.27135 0
M  V30 571 H 57.5809 1.70786 -3.79764 0
M  V30 572 H 60.1779 4.38823 -3.05513 0
M  V30 573 H 60.5209 3.91745 -1.40861 0
M  V30 574 H 61.0539 2.87467 -2.74968 0
M  V30 575 H 57.7929 3.18064 -5.73163 0
M  V30 576 H 57.3129 4.15651 -4.32428 0
M  V30 577 H 58.9919 4.20566 -4.91663 0
M  V30 578 N 59.124 1.23083 0.984299 0
M  V30 579 C 60.54 0.992637 1.24975 0
M  V30 580 C 60.74 -0.308618 1.99123 0
M  V30 581 O 59.796 -1.02905 2.30579 0
M  V30 582 C 61.109 2.19698 2.05312 0
M  V30 583 C 62.657 2.24147 2.18465 0
M  V30 584 C 63.132 3.44157 3.02192 0
M  V30 585 N 64.623 3.44372 3.09777 0
M  V30 586 C 65.358 4.33886 3.74874 0
M  V30 587 N 64.854 5.3363 4.41827 0
M  V30 588 N 66.647 4.21639 3.71721 0
M  V30 589 H 58.798 2.06731 0.487453 0
M  V30 590 H 61.061 0.906339 0.277944 0
M  V30 591 H 60.767 3.1411 1.58201 0
M  V30 592 H 60.641 2.20465 3.06064 0
M  V30 593 H 63.028 1.30277 2.64786 0
M  V30 594 H 63.109 2.27415 1.17115 0
M  V30 595 H 62.753 4.38332 2.56568 0
M  V30 596 H 62.683 3.3813 4.03702 0
M  V30 597 H 65.174 2.72201 2.62135 0
M  V30 598 H 65.487 5.98196 4.89266 0
M  V30 599 H 63.832 5.37534 4.40548 0
M  V30 600 H 67.023 3.42962 3.18582 0
M  V30 601 H 67.196 4.91604 4.22173 0
M  V30 602 N 60.6021 -1.18246 1.0419 0
M  V30 603 C 61.5651 -2.20128 0.638452 0
M  V30 604 C 62.5651 -1.57885 -0.304805 0
M  V30 605 O 63.7551 -1.73967 -0.0900369 0
M  V30 606 C 60.8871 -3.4084 -0.0637751 0
M  V30 607 H 62.0801 -2.57336 1.54007 0
M  V30 608 H 59.6331 -1.32152 0.834598 0
M  V30 609 H 60.3681 -3.09166 -0.979136 0
M  V30 610 H 60.1531 -3.8726 0.614198 0
M  V30 611 H 61.6431 -4.16274 -0.332512 0
M  V30 612 N 62.0802 -0.821533 -1.34494 0
M  V30 613 C 63.0432 -0.247847 -2.27856 0
M  V30 614 C 64.0432 0.573453 -1.50227 0
M  V30 615 O 65.2332 0.389759 -1.69784 0
M  V30 616 C 62.3652 0.652698 -3.34593 0
M  V30 617 H 63.5582 -1.07146 -2.80107 0
M  V30 618 H 61.1112 -0.593291 -1.44602 0
M  V30 619 H 61.8462 1.49943 -2.87555 0
M  V30 620 H 61.6312 0.065292 -3.92046 0
M  V30 621 H 63.1212 1.04793 -4.04238 0
M  V30 622 N 63.5583 1.46682 -0.576371 0
M  V30 623 C 64.4883 2.33028 0.148397 0
M  V30 624 C 65.4693 1.44961 0.889956 0
M  V30 625 O 66.6543 1.73789 0.866662 0
M  V30 626 C 63.7843 3.27117 1.1667 0
M  V30 627 C 62.7383 4.24575 0.540386 0
M  V30 628 C 62.0643 5.08126 1.6647 0
M  V30 629 C 63.3643 5.19722 -0.518331 0
M  V30 630 H 65.0583 2.93875 -0.572509 0
M  V30 631 H 62.6043 1.41315 -0.276768 0
M  V30 632 H 64.5573 3.86374 1.68204 0
M  V30 633 H 63.2813 2.64364 1.9178 0
M  V30 634 H 61.9403 3.66571 0.0461769 0
M  V30 635 H 61.5883 4.41762 2.40531 0
M  V30 636 H 61.2883 5.74122 1.25131 0
M  V30 637 H 62.8123 5.70246 2.18293 0
M  V30 638 H 64.2263 5.73232 -0.0883058 0
M  V30 639 H 62.6233 5.94026 -0.851679 0
M  V30 640 H 63.6933 4.64037 -1.40703 0
M  V30 641 N 65.0364 0.313813 1.54444 0
M  V30 642 C 66.3134 -0.345447 1.92525 0
M  V30 643 C 66.6934 -1.70667 1.24242 0
M  V30 644 O 66.0414 -2.25273 0.382654 0
M  V30 645 C 66.2514 -0.44737 3.46121 0
M  V30 646 C 67.5994 -0.712238 4.18584 0
M  V30 647 O 68.6234 -0.530678 3.52225 0
M  V30 648 O 67.4824 -1.06183 5.36085 0
M  V30 649 H 64.5764 -0.195407 0.803583 0
M  V30 650 H 67.1224 0.362813 1.65776 0
M  V30 651 H 65.8944 0.509043 3.87975 0
M  V30 652 H 65.5174 -1.20359 3.78945 0
M  V30 653 N 66.5145 -1.57545 0.0417849 0
M  V30 654 C 67.4465 -2.07904 -0.964799 0
M  V30 655 C 68.4595 -1.00497 -1.28079 0
M  V30 656 O 69.6485 -1.28087 -1.24322 0
M  V30 657 C 66.7485 -2.49928 -2.28887 0
M  V30 658 C 65.9215 -3.80562 -2.15619 0
M  V30 659 C 64.9805 -4.08999 -3.31069 0
M  V30 660 O 64.0065 -4.79061 -3.0739 0
M  V30 661 N 65.2085 -3.6017 -4.55256 0
M  V30 662 H 67.9735 -2.94886 -0.535029 0
M  V30 663 H 65.5345 -1.61252 -0.144681 0
M  V30 664 H 67.5265 -2.66034 -3.04972 0
M  V30 665 H 66.0965 -1.68245 -2.63463 0
M  V30 666 H 65.3165 -3.74129 -1.24183 0
M  V30 667 H 66.6045 -4.66126 -2.03971 0
M  V30 668 H 66.0025 -3.03512 -4.77386 0
M  V30 669 H 64.5595 -3.81532 -5.28466 0
M  V30 670 N 67.9926 0.231505 -1.5589 0
M  V30 671 C 69.2406 0.955461 -1.78088 0
M  V30 672 C 69.5616 1.85262 -0.608533 0
M  V30 673 O 68.8316 1.92277 0.375035 0
M  V30 674 H 67.4116 0.355787 -0.656829 0
M  V30 675 H 70.0736 0.245751 -1.93344 0
M  V30 676 H 69.1696 1.56814 -2.69844 0
M  V30 677 N 69.4707 1.49531 0.497807 0
M  V30 678 C 70.7197 1.58426 1.24837 0
M  V30 679 C 71.0327 0.277643 1.93619 0
M  V30 680 O 72.2387 0.24517 2.70391 0
M  V30 681 C 70.6947 2.79538 2.26686 0
M  V30 682 C 70.3027 4.16971 1.63828 0
M  V30 683 C 72.0467 2.97764 3.0255 0
M  V30 684 C 69.9537 5.29301 2.63807 0
M  V30 685 H 68.8837 0.58989 0.469623 0
M  V30 686 H 71.5347 1.75923 0.521857 0
M  V30 687 H 69.9167 2.55542 3.02514 0
M  V30 688 H 71.0907 4.51116 0.939711 0
M  V30 689 H 69.4057 4.04129 1.00342 0
M  V30 690 H 72.0027 3.78856 3.77323 0
M  V30 691 H 72.3457 2.08448 3.60354 0
M  V30 692 H 72.8787 3.21815 2.33838 0
M  V30 693 H 69.6177 6.20687 2.10779 0
M  V30 694 H 69.1377 4.99606 3.31894 0
M  V30 695 H 70.8167 5.58768 3.2617 0
M  V30 696 N 70.9488 -0.749086 1.3866 0
M  V30 697 C 72.1768 -1.53834 1.38358 0
M  V30 698 C 72.5918 -1.88783 -0.0255219 0
M  V30 699 O 71.9488 -1.53101 -0.993292 0
M  V30 700 C 71.9998 -2.83468 2.2434 0
M  V30 701 O 71.7208 -2.50008 3.5976 0
M  V30 702 C 73.2218 -3.7758 2.32267 0
M  V30 703 H 70.4418 -0.47585 0.473083 0
M  V30 704 H 72.9858 -0.926726 1.82297 0
M  V30 705 H 71.1408 -3.40995 1.83851 0
M  V30 706 H 71.5548 -3.33182 4.05081 0
M  V30 707 H 73.0288 -4.65478 2.96706 0
M  V30 708 H 73.5058 -4.18334 1.33765 0
M  V30 709 H 74.1118 -3.25976 2.73166 0
M  V30 710 N 72.4269 -1.23603 -0.977757 0
M  V30 711 C 73.3569 -1.04401 -2.0886 0
M  V30 712 C 74.3379 0.0399052 -1.70053 0
M  V30 713 O 75.5229 -0.125246 -1.93796 0
M  V30 714 C 72.6529 -0.637269 -3.41403 0
M  V30 715 C 71.6069 -1.66883 -3.94124 0
M  V30 716 C 70.9329 -1.11745 -5.22893 0
M  V30 717 C 72.2329 -3.06247 -4.23096 0
M  V30 718 H 73.9269 -1.97316 -2.25182 0
M  V30 719 H 71.4729 -0.950096 -1.08209 0
M  V30 720 H 73.4259 -0.48998 -4.18542 0
M  V30 721 H 72.1499 0.327557 -3.24953 0
M  V30 722 H 70.8089 -1.80416 -3.19133 0
M  V30 723 H 70.4569 -0.143527 -5.02795 0
M  V30 724 H 70.1569 -1.80672 -5.59134 0
M  V30 725 H 71.6809 -0.982067 -6.02651 0
M  V30 726 H 73.0949 -2.96001 -4.90975 0
M  V30 727 H 71.4919 -3.72436 -4.70544 0
M  V30 728 H 72.5619 -3.55041 -3.30263 0
M  V30 729 N 73.905 1.17692 -1.04816 0
M  V30 730 C 75.154 1.87192 -0.751132 0
M  V30 731 C 75.467 1.8169 0.724441 0
M  V30 732 O 76.673 2.46625 1.13527 0
M  V30 733 C 75.129 3.35857 -1.29338 0
M  V30 734 C 74.737 3.4987 -2.79812 0
M  V30 735 C 76.481 4.10709 -1.07322 0
M  V30 736 C 74.388 4.92536 -3.27356 0
M  V30 737 H 73.318 0.701162 -0.277288 0
M  V30 738 H 75.969 1.32932 -1.26496 0
M  V30 739 H 74.351 3.89631 -0.707376 0
M  V30 740 H 75.525 3.06332 -3.44235 0
M  V30 741 H 73.84 2.88433 -3.00325 0
M  V30 742 H 76.437 5.15952 -1.4035 0
M  V30 743 H 76.78 4.16299 -0.0108001 0
M  V30 744 H 77.313 3.6313 -1.62423 0
M  V30 745 H 74.052 4.92119 -4.33012 0
M  V30 746 H 73.572 5.3676 -2.67673 0
M  V30 747 H 75.251 5.61288 -3.21815 0
M  V30 748 N 75.3831 0.828654 1.34056 0
M  V30 749 C 76.6601 0.341809 1.9259 0
M  V30 750 C 77.0401 -1.17158 1.75605 0
M  V30 751 O 76.3881 -1.98132 1.13824 0
M  V30 752 C 76.5981 0.777453 3.4023 0
M  V30 753 C 77.9461 0.779579 4.17382 0
M  V30 754 O 78.9701 0.7204 3.48839 0
M  V30 755 O 77.8291 0.857996 5.39723 0
M  V30 756 H 74.9231 0.0946085 0.821571 0
M  V30 757 H 77.4691 0.913827 1.42994 0
M  V30 758 H 76.2411 1.8196 3.46419 0
M  V30 759 H 75.8641 0.181444 3.97186 0
M  V30 760 N 76.8612 -1.46375 0.584142 0
M  V30 761 C 78.0892 -2.06761 0.0759296 0
M  V30 762 C 78.5042 -1.43266 -1.22965 0
M  V30 763 O 77.8612 -0.538458 -1.74376 0
M  V30 764 C 77.9122 -3.61375 -0.0950384 0
M  V30 765 O 77.6332 -4.22495 1.15887 0
M  V30 766 C 79.1342 -4.38693 -0.637434 0
M  V30 767 H 76.3542 -0.668479 0.0581075 0
M  V30 768 H 78.8982 -1.8798 0.805218 0
M  V30 769 H 77.0532 -3.79578 -0.774554 0
M  V30 770 H 77.4672 -5.15385 0.973598 0
M  V30 771 H 78.9412 -5.47464 -0.706237 0
M  V30 772 H 79.4182 -4.06836 -1.65472 0
M  V30 773 H 80.0242 -4.25299 0.00725967 0
M  V30 774 N 78.3393 -0.321999 -1.54275 0
M  V30 775 C 79.3023 0.531975 -2.22941 0
M  V30 776 C 80.3023 1.04478 -1.22234 0
M  V30 777 O 81.4923 0.937452 -1.46825 0
M  V30 778 C 78.6243 1.73874 -2.93224 0
M  V30 779 H 79.8173 -0.0682612 -2.99822 0
M  V30 780 H 77.3703 -0.0730644 -1.56129 0
M  V30 781 H 78.1053 2.37825 -2.20476 0
M  V30 782 H 77.8903 1.37847 -3.6707 0
M  V30 783 H 79.3803 2.34496 -3.45545 0
M  V30 784 N 79.8174 1.5752 -0.0501392 0
M  V30 785 C 81.2284 1.80271 0.485705 0
M  V30 786 C 81.5794 0.96228 1.70981 0
M  V30 787 O 80.7044 0.178578 2.15662 0
M  V30 788 C 81.2994 3.26957 0.887938 0
M  V30 789 C 79.8584 3.5063 1.36877 0
M  V30 790 C 79.0054 2.75165 0.343468 0
M  V30 791 H 81.9564 1.56281 -0.276028 0
M  V30 792 H 81.9774 3.37821 1.75093 0
M  V30 793 H 81.4894 3.881 -0.0031809 0
M  V30 794 H 79.5904 2.94766 2.27911 0
M  V30 795 H 79.7034 4.59343 1.36164 0
M  V30 796 H 78.0674 2.4127 0.816128 0
M  V30 797 H 78.8504 3.39034 -0.539548 0
M  V30 798 N 81.2955 -0.223234 1.56011 0
M  V30 799 C 82.2585 -1.26014 1.9145 0
M  V30 800 C 83.2585 -1.3989 0.792937 0
M  V30 801 O 84.4485 -1.38184 1.0607 0
M  V30 802 C 81.5805 -2.63422 2.16383 0
M  V30 803 H 82.7735 -0.95796 2.84189 0
M  V30 804 H 80.3265 -0.463576 1.49267 0
M  V30 805 H 81.0615 -2.98741 1.2619 0
M  V30 806 H 80.8465 -2.54728 2.98088 0
M  V30 807 H 82.3365 -3.38249 2.44903 0
M  V30 808 N 82.7736 -1.49793 -0.48987 0
M  V30 809 C 84.0036 -1.6333 -1.26518 0
M  V30 810 C 84.4116 -0.308392 -1.8667 0
M  V30 811 O 83.7546 0.717512 -1.69108 0
M  V30 812 C 83.8166 -2.6522 -2.4269 0
M  V30 813 C 83.4806 -4.09279 -2.03321 0
M  V30 814 C 84.4776 -4.95738 -1.56652 0
M  V30 815 C 82.1626 -4.55082 -2.12616 0
M  V30 816 C 84.1566 -6.26041 -1.19795 0
M  V30 817 C 81.8436 -5.85396 -1.75371 0
M  V30 818 C 82.8416 -6.707 -1.29036 0
M  V30 819 O 82.5296 -7.98584 -0.92299 0
M  V30 820 H 82.2616 -0.552502 -0.389509 0
M  V30 821 H 84.8156 -1.96642 -0.593381 0
M  V30 822 H 83.0456 -2.27112 -3.12981 0
M  V30 823 H 84.7346 -2.68171 -3.04695 0
M  V30 824 H 85.5006 -4.61575 -1.48908 0
M  V30 825 H 81.3796 -3.88844 -2.47631 0
M  V30 826 H 84.9236 -6.92578 -0.835582 0
M  V30 827 H 80.8206 -6.19085 -1.82768 0
M  V30 828 H 81.5886 -8.11692 -1.05349 0
M  V30 829 N 84.2517 0.741722 -1.39055 0
M  V30 830 C 85.4997 1.49818 -1.35643 0
M  V30 831 C 85.8207 1.94938 0.0491642 0
M  V30 832 O 85.0907 1.68505 0.999141 0
M  V30 833 H 83.6707 0.555755 -0.499144 0
M  V30 834 H 86.3327 0.880957 -1.73854 0
M  V30 835 H 85.4287 2.38348 -2.01486 0
M  V30 836 N 85.7298 1.2412 0.971189 0
M  V30 837 C 86.9768 1.07881 1.71371 0
M  V30 838 C 87.3048 -0.382901 1.90694 0
M  V30 839 O 86.5598 -1.29945 1.46331 0
M  V30 840 C 86.8588 1.75983 3.11071 0
M  V30 841 C 86.5248 3.25909 3.11599 0
M  V30 842 C 85.1868 3.66813 3.11451 0
M  V30 843 C 87.5388 4.21771 3.062 0
M  V30 844 C 84.8668 5.02021 3.03631 0
M  V30 845 C 87.2188 5.56982 2.99923 0
M  V30 846 C 85.8828 5.97237 2.98102 0
M  V30 847 H 85.1528 0.394764 0.62709 0
M  V30 848 H 87.7998 1.54176 1.13587 0
M  V30 849 H 86.1048 1.22072 3.72298 0
M  V30 850 H 87.8018 1.60887 3.6731 0
M  V30 851 H 84.3918 2.93353 3.12477 0
M  V30 852 H 88.5758 3.91172 3.05447 0
M  V30 853 H 83.8318 5.32411 3.0058 0
M  V30 854 H 88.0058 6.30969 2.94704 0
M  V30 855 H 85.6328 7.01967 2.91798 0
M  V30 856 N 87.2079 -1.17134 1.05439 0
M  V30 857 C 88.4559 -1.87085 0.764429 0
M  V30 858 C 88.7769 -1.81584 -0.710787 0
M  V30 859 O 88.0469 -1.24349 -1.51374 0
M  V30 860 H 86.6269 -0.692627 0.279779 0
M  V30 861 H 89.2889 -1.42087 1.33406 0
M  V30 862 H 88.3849 -2.92759 1.0816 0
M  V30 863 N 88.686 -0.835752 -1.33615 0
M  V30 864 C 89.618 -0.224151 -2.28101 0
M  V30 865 C 90.631 0.593331 -1.51603 0
M  V30 866 O 91.82 0.420911 -1.73466 0
M  V30 867 C 88.92 0.703309 -3.31522 0
M  V30 868 C 88.093 -0.0741528 -4.37337 0
M  V30 869 C 87.152 0.776176 -5.20444 0
M  V30 870 O 86.178 0.216506 -5.68788 0
M  V30 871 N 87.38 2.09401 -5.41416 0
M  V30 872 H 90.145 -1.03598 -2.81225 0
M  V30 873 H 87.706 -0.69392 -1.46275 0
M  V30 874 H 89.698 1.27707 -3.84022 0
M  V30 875 H 88.268 1.41585 -2.78698 0
M  V30 876 H 87.488 -0.82928 -3.85378 0
M  V30 877 H 88.776 -0.608863 -5.05144 0
M  V30 878 H 88.174 2.57229 -5.03835 0
M  V30 879 H 86.731 2.61633 -5.96985 0
M  V30 880 N 90.1641 1.46063 -0.591896 0
M  V30 881 C 91.3891 2.07226 -0.0850314 0
M  V30 882 C 91.8141 1.43625 1.21463 0
M  V30 883 O 91.1721 0.523305 1.73583 0
M  V30 884 C 91.2201 3.60554 0.0576567 0
M  V30 885 O 90.3241 3.97128 1.11188 0
M  V30 886 H 89.6651 0.660615 -0.0669568 0
M  V30 887 H 92.1951 1.8756 -0.81745 0
M  V30 888 H 92.2051 4.07165 0.2609 0
M  V30 889 H 90.8801 4.06235 -0.891416 0
M  V30 890 H 89.4571 3.62213 0.886356 0
M  V30 891 N 91.6422 0.330177 1.54103 0
M  V30 892 C 92.5522 -0.541534 2.28264 0
M  V30 893 C 93.5682 -1.12351 1.32866 0
M  V30 894 O 94.7442 -1.14206 1.65888 0
M  V30 895 C 91.8092 -1.68322 3.03098 0
M  V30 896 C 90.8702 -1.13238 4.14096 0
M  V30 897 C 90.1032 -2.21966 4.85352 0
M  V30 898 O 90.3262 -3.42437 4.56172 0
M  V30 899 O 89.2602 -1.87013 5.7211 0
M  V30 900 H 93.0862 0.060938 3.03639 0
M  V30 901 H 90.6712 0.09565 1.49093 0
M  V30 902 H 92.5532 -2.34777 3.49939 0
M  V30 903 H 91.2282 -2.27176 2.30593 0
M  V30 904 H 90.1352 -0.432736 3.71589 0
M  V30 905 H 91.4682 -0.588898 4.88664 0
M  V30 906 N 93.1203 -1.57491 0.0584922 0
M  V30 907 C 94.0303 -2.15448 -0.928414 0
M  V30 908 C 95.0463 -1.11416 -1.3365 0
M  V30 909 O 96.2223 -1.4362 -1.41193 0
M  V30 910 C 93.2873 -2.69393 -2.18239 0
M  V30 911 C 92.3483 -3.88249 -1.83196 0
M  V30 912 C 91.5813 -4.39613 -3.02616 0
M  V30 913 O 91.8043 -3.90023 -4.16219 0
M  V30 914 O 90.7383 -5.31111 -2.83204 0
M  V30 915 H 94.5643 -3.00112 -0.465483 0
M  V30 916 H 92.1493 -1.48499 -0.163826 0
M  V30 917 H 94.0313 -3.04026 -2.91798 0
M  V30 918 H 92.7063 -1.87796 -2.63656 0
M  V30 919 H 91.6133 -3.58492 -1.06931 0
M  V30 920 H 92.9463 -4.71098 -1.42573 0
M  V30 921 N 94.5984 0.214957 -1.56127 0
M  V30 922 C 95.8474 0.936451 -1.78643 0
M  V30 923 C 96.1604 1.85237 -0.628229 0
M  V30 924 O 97.3664 2.613 -0.737186 0
M  V30 925 C 95.8224 1.7154 -3.16389 0
M  V30 926 C 95.4304 0.845299 -4.39953 0
M  V30 927 C 97.1744 2.42772 -3.48227 0
M  V30 928 C 95.0814 1.62198 -5.68723 0
M  V30 929 H 94.0114 0.353401 -0.666051 0
M  V30 930 H 96.6624 0.190169 -1.82512 0
M  V30 931 H 95.0444 2.50484 -3.06715 0
M  V30 932 H 96.2184 0.0959353 -4.607 0
M  V30 933 H 94.5334 0.244789 -4.1568 0
M  V30 934 H 97.1304 3.01394 -4.41663 0
M  V30 935 H 97.4734 3.15984 -2.71035 0
M  V30 936 H 98.0064 1.70813 -3.5926 0
M  V30 937 H 94.7454 0.933011 -6.48826 0
M  V30 938 H 94.2654 2.34579 -5.52026 0
M  V30 939 H 95.9444 2.18095 -6.09133 0
M  V30 940 N 96.0765 1.50051 0.48192 0
M  V30 941 C 97.3225 1.60736 1.2366 0
M  V30 942 C 97.6555 0.301786 1.91841 0
M  V30 943 O 96.9305 -0.696025 1.8162 0
M  V30 944 C 97.2135 2.78009 2.28874 0
M  V30 945 C 97.0665 4.18416 1.65069 0
M  V30 946 C 98.3855 2.90867 3.30279 0
M  V30 947 H 95.5045 0.585031 0.448228 0
M  V30 948 H 98.1465 1.82402 0.531946 0
M  V30 949 H 96.2965 2.59667 2.88973 0
M  V30 950 H 97.9685 4.48322 1.0865 0
M  V30 951 H 96.2115 4.23177 0.954148 0
M  V30 952 H 96.8825 4.96381 2.41474 0
M  V30 953 H 99.3585 3.07623 2.80191 0
M  V30 954 H 98.2345 3.74566 4.01238 0
M  V30 955 H 98.4955 2.01021 3.93755 0
M  V30 956 N 97.5546 -0.734337 1.39446 0
M  V30 957 C 98.8026 -1.49096 1.36436 0
M  V30 958 C 99.1236 -1.94961 -0.0388255 0
M  V30 959 O 98.3936 -1.69033 -0.990191 0
M  V30 960 H 96.9736 -0.5531 0.502085 0
M  V30 961 H 99.6356 -0.871725 1.74319 0
M  V30 962 H 98.7316 -2.37276 2.02747 0
M  V30 963 N 99.0327 -1.24633 -0.964593 0
M  V30 964 C 99.9797 -1.04144 -2.05968 0
M  V30 965 C 100.95 0.046262 -1.66036 0
M  V30 966 O 102.135 -0.108972 -1.90489 0
M  V30 967 C 99.2747 -0.65563 -3.38815 0
M  V30 968 C 98.3877 -1.81714 -3.91923 0
M  V30 969 C 97.5227 -1.37662 -5.13052 0
M  V30 970 C 96.5617 -2.50788 -5.58365 0
M  V30 971 N 95.6987 -2.07582 -6.70712 0
M  V30 972 H 100.539 -1.9787 -2.22827 0
M  V30 973 H 98.0757 -0.9855 -1.09208 0
M  V30 974 H 100.034 -0.412954 -4.15151 0
M  V30 975 H 98.6637 0.244627 -3.21872 0
M  V30 976 H 97.7157 -2.1734 -3.12198 0
M  V30 977 H 99.0277 -2.66705 -4.21509 0
M  V30 978 H 98.1817 -1.093 -5.96773 0
M  V30 979 H 96.9207 -0.497293 -4.85158 0
M  V30 980 H 95.9257 -2.79906 -4.73215 0
M  V30 981 H 97.1507 -3.39283 -5.88272 0
M  V30 982 H 95.0967 -1.22051 -6.44546 0
M  V30 983 H 95.0137 -2.86125 -6.99763 0
M  V30 984 H 96.2817 -1.82369 -7.57867 0
M  V30 985 N 100.511 1.16574 -1.06058 0
M  V30 986 C 101.474 2.19085 -0.673392 0
M  V30 987 C 102.474 1.5835 0.279648 0
M  V30 988 O 103.664 1.74088 0.0623488 0
M  V30 989 C 100.796 3.40899 0.00954234 0
M  V30 990 H 101.989 2.54853 -1.58081 0
M  V30 991 H 99.5418 1.30808 -0.855516 0
M  V30 992 H 100.277 3.10684 0.929826 0
M  V30 993 H 100.062 3.86233 -0.67573 0
M  V30 994 H 101.552 4.1675 0.266245 0
M  V30 995 N 101.989 0.842826 1.3317 0
M  V30 996 C 103.238 0.436738 1.96915 0
M  V30 997 C 103.551 -1.01025 1.67491 0
M  V30 998 O 104.757 -1.5212 2.24881 0
M  V30 999 C 103.213 0.730021 3.52418 0
M  V30 1000 C 102.821 2.19195 3.90714 0
M  V30 1001 C 104.565 0.391076 4.22695 0
M  V30 1002 C 102.472 2.42907 5.39212 0
M  V30 1003 H 101.402 0.15958 0.736919 0
M  V30 1004 H 104.053 1.03196 1.51733 0
M  V30 1005 H 102.435 0.0643755 3.95948 0
M  V30 1006 H 103.609 2.8984 3.58231 0
M  V30 1007 H 101.924 2.49425 3.33431 0
M  V30 1008 H 104.521 0.545817 5.31907 0
M  V30 1009 H 104.864 -0.666294 4.10933 0
M  V30 1010 H 105.397 1.01212 3.84709 0
M  V30 1011 H 102.136 3.47224 5.55982 0
M  V30 1012 H 101.656 1.76827 5.73142 0
M  V30 1013 H 103.335 2.2626 6.06148 0
M  V30 1014 N 103.467 -1.45747 0.599634 0
M  V30 1015 C 104.414 -2.30467 -0.123849 0
M  V30 1016 C 105.384 -1.41632 -0.86774 0
M  V30 1017 O 106.569 -1.70568 -0.855056 0
M  V30 1018 C 103.709 -3.26402 -1.12051 0
M  V30 1019 C 102.822 -4.3034 -0.37832 0
M  V30 1020 C 101.957 -5.13389 -1.364 0
M  V30 1021 C 100.996 -6.09061 -0.609171 0
M  V30 1022 N 100.133 -6.84918 -1.54374 0
M  V30 1023 H 104.973 -2.91802 0.604627 0
M  V30 1024 H 102.51 -1.43797 0.309972 0
M  V30 1025 H 104.468 -3.80482 -1.7114 0
M  V30 1026 H 103.098 -2.66839 -1.8165 0
M  V30 1027 H 102.15 -3.78984 0.327929 0
M  V30 1028 H 103.462 -4.98354 0.210997 0
M  V30 1029 H 102.616 -5.7183 -2.02719 0
M  V30 1030 H 101.355 -4.45376 -1.98725 0
M  V30 1031 H 100.36 -5.49758 0.0676979 0
M  V30 1032 H 101.585 -6.79099 0.00891991 0
M  V30 1033 H 99.531 -6.19601 -2.15478 0
M  V30 1034 H 99.448 -7.49254 -1.00766 0
M  V30 1035 H 100.716 -7.47906 -2.19676 0
M  V30 1036 N 104.945 -0.338344 -1.53925 0
M  V30 1037 C 105.855 0.529421 -2.28548 0
M  V30 1038 C 106.871 1.11645 -1.3346 0
M  V30 1039 O 108.047 1.13325 -1.66492 0
M  V30 1040 C 105.112 1.66713 -3.03987 0
M  V30 1041 C 104.173 1.11041 -4.14691 0
M  V30 1042 C 103.406 2.19389 -4.86522 0
M  V30 1043 O 103.629 3.40013 -4.57982 0
M  V30 1044 O 102.563 1.83976 -5.73094 0
M  V30 1045 H 106.389 -0.0770399 -3.03602 0
M  V30 1046 H 103.974 -0.103555 -1.49041 0
M  V30 1047 H 105.856 2.32918 -3.5118 0
M  V30 1048 H 104.531 2.25949 -2.31794 0
M  V30 1049 H 103.438 0.413024 -3.71813 0
M  V30 1050 H 104.771 0.562975 -4.8897 0
M  V30 1051 N 106.423 1.57458 -0.0668435 0
M  V30 1052 C 107.653 1.97337 0.611677 0
M  V30 1053 C 108.061 0.943744 1.63982 0
M  V30 1054 O 107.404 -0.0785584 1.83532 0
M  V30 1055 C 107.466 3.33511 1.34205 0
M  V30 1056 C 107.13 4.54598 0.467941 0
M  V30 1057 C 108.127 5.19186 -0.272439 0
M  V30 1058 C 105.812 5.0075 0.39427 0
M  V30 1059 C 107.806 6.28274 -1.07476 0
M  V30 1060 C 105.493 6.09711 -0.411729 0
M  V30 1061 C 106.491 6.73335 -1.14492 0
M  V30 1062 O 106.179 7.80199 -1.93763 0
M  V30 1063 H 105.911 0.654042 0.170893 0
M  V30 1064 H 108.465 2.04961 -0.134289 0
M  V30 1065 H 106.695 3.22487 2.13398 0
M  V30 1066 H 108.384 3.58029 1.91233 0
M  V30 1067 H 109.15 4.84477 -0.225086 0
M  V30 1068 H 105.029 4.51009 0.954569 0
M  V30 1069 H 108.573 6.77866 -1.64755 0
M  V30 1070 H 104.47 6.43854 -0.460664 0
M  V30 1071 H 105.238 7.97053 -1.86142 0
M  V30 1072 N 107.901 -0.206675 1.56239 0
M  V30 1073 C 109.149 -0.927007 1.79586 0
M  V30 1074 C 109.47 -1.8427 0.637929 0
M  V30 1075 O 108.74 -1.92849 -0.344398 0
M  V30 1076 H 107.32 -0.345292 0.662407 0
M  V30 1077 H 109.982 -0.21496 1.93711 0
M  V30 1078 H 109.078 -1.52501 2.72305 0
M  V30 1079 N 109.379 -1.50304 -0.473955 0
M  V30 1080 C 110.326 -1.68959 -1.57231 0
M  V30 1081 C 111.296 -0.530899 -1.57387 0
M  V30 1082 O 112.481 -0.761133 -1.74961 0
M  V30 1083 C 109.621 -1.7871 -2.95223 0
M  V30 1084 C 108.734 -3.06061 -3.04878 0
M  V30 1085 C 107.869 -3.06626 -4.33767 0
M  V30 1086 C 106.908 -4.28443 -4.37154 0
M  V30 1087 N 106.045 -4.26763 -5.5751 0
M  V30 1088 H 110.885 -2.6273 -1.40631 0
M  V30 1089 H 108.422 -1.30241 -0.683789 0
M  V30 1090 H 110.38 -1.82344 -3.75242 0
M  V30 1091 H 109.01 -0.883806 -3.10465 0
M  V30 1092 H 108.062 -3.11911 -2.17751 0
M  V30 1093 H 109.374 -3.96039 -3.0324 0
M  V30 1094 H 108.528 -3.08973 -5.22131 0
M  V30 1095 H 107.267 -2.14473 -4.3801 0
M  V30 1096 H 106.272 -4.2631 -3.47188 0
M  V30 1097 H 107.497 -5.2182 -4.34605 0
M  V30 1098 H 105.443 -3.37462 -5.62544 0
M  V30 1099 H 105.36 -5.10507 -5.57601 0
M  V30 1100 H 106.628 -4.33253 -6.48006 0
M  V30 1101 N 110.857 0.726932 -1.39834 0
M  V30 1102 C 112.273 1.03354 -1.21615 0
M  V30 1103 C 112.473 2.01327 -0.08338 0
M  V30 1104 O 111.529 2.46158 0.56238 0
M  V30 1105 C 112.842 1.58811 -2.55342 0
M  V30 1106 C 114.39 1.70851 -2.62257 0
M  V30 1107 C 114.865 2.29716 -3.96225 0
M  V30 1108 N 116.356 2.37116 -3.97907 0
M  V30 1109 C 117.091 2.83619 -4.98345 0
M  V30 1110 N 116.587 3.29958 -6.09179 0
M  V30 1111 N 118.38 2.82901 -4.8572 0
M  V30 1112 H 110.531 0.0773069 -2.12259 0
M  V30 1113 H 112.794 0.0969102 -0.943034 0
M  V30 1114 H 112.5 0.942855 -3.38826 0
M  V30 1115 H 112.374 2.57502 -2.75632 0
M  V30 1116 H 114.761 2.34497 -1.79152 0
M  V30 1117 H 114.842 0.707913 -2.45809 0
M  V30 1118 H 114.486 1.66696 -4.79765 0
M  V30 1119 H 114.416 3.30469 -4.09997 0
M  V30 1120 H 116.907 2.04374 -3.17868 0
M  V30 1121 H 117.22 3.63976 -6.8172 0
M  V30 1122 H 115.565 3.27946 -6.12761 0
M  V30 1123 H 118.756 2.46027 -3.98231 0
M  V30 1124 H 118.929 3.18827 -5.6414 0
M  V30 1125 N 112.336 1.25143 0.95797 0
M  V30 1126 C 113.613 1.00472 1.67823 0
M  V30 1127 C 113.993 -0.470056 2.058 0
M  V30 1128 O 113.341 -1.44663 1.76875 0
M  V30 1129 C 113.551 1.9372 2.90299 0
M  V30 1130 C 114.899 2.21371 3.62326 0
M  V30 1131 O 115.923 1.91451 3.00375 0
M  V30 1132 O 114.782 2.72231 4.7387 0
M  V30 1133 H 111.876 0.380752 0.734137 0
M  V30 1134 H 114.422 1.36283 1.01119 0
M  V30 1135 H 113.194 2.93316 2.59001 0
M  V30 1136 H 112.817 1.58286 3.64735 0
M  V30 1137 N 113.814 -1.1601 1.06675 0
M  V30 1138 C 114.746 -2.20115 0.638921 0
M  V30 1139 C 115.759 -1.59916 -0.305057 0
M  V30 1140 O 116.948 -1.78245 -0.0954446 0
M  V30 1141 C 114.048 -3.38798 -0.0830083 0
M  V30 1142 C 113.221 -4.2855 0.875426 0
M  V30 1143 C 112.28 -5.25849 0.192042 0
M  V30 1144 O 111.306 -5.63102 0.830921 0
M  V30 1145 N 112.508 -5.70648 -1.06493 0
M  V30 1146 H 115.273 -2.57439 1.53444 0
M  V30 1147 H 112.834 -1.31057 0.950557 0
M  V30 1148 H 114.826 -4.00936 -0.550685 0
M  V30 1149 H 113.396 -2.99947 -0.880386 0
M  V30 1150 H 112.616 -3.63617 1.52238 0
M  V30 1151 H 113.904 -4.85393 1.52548 0
M  V30 1152 H 113.302 -5.42482 -1.60405 0
M  V30 1153 H 111.859 -6.34859 -1.47641 0
M  V30 1154 N 115.292 -0.849877 -1.32721 0
M  V30 1155 C 116.538 -0.451591 -1.97708 0
M  V30 1156 C 116.871 0.989175 -1.6712 0
M  V30 1157 O 116.146 1.69334 -0.956891 0
M  V30 1158 C 116.429 -0.685598 -3.53513 0
M  V30 1159 C 116.282 -2.17444 -3.93749 0
M  V30 1160 C 117.601 -0.138874 -4.39881 0
M  V30 1161 H 114.72 -0.16555 -0.718166 0
M  V30 1162 H 117.362 -1.06742 -1.57182 0
M  V30 1163 H 115.512 -0.161416 -3.88165 0
M  V30 1164 H 117.184 -2.76433 -3.693 0
M  V30 1165 H 115.427 -2.65476 -3.43081 0
M  V30 1166 H 116.098 -2.28888 -5.02309 0
M  V30 1167 H 118.574 -0.587068 -4.11938 0
M  V30 1168 H 117.45 -0.332213 -5.47894 0
M  V30 1169 H 117.711 0.95806 -4.31594 0
M  V30 1170 N 116.77 1.45427 -0.607355 0
M  V30 1171 C 118.019 2.01452 -0.100036 0
M  V30 1172 C 118.332 1.48159 1.27704 0
M  V30 1173 O 119.538 1.96159 1.87707 0
M  V30 1174 C 117.994 3.59672 -0.128158 0
M  V30 1175 C 117.602 4.21962 -1.50507 0
M  V30 1176 C 119.346 4.23262 0.323932 0
M  V30 1177 C 117.253 5.72333 -1.48959 0
M  V30 1178 H 116.183 0.75325 -0.0336299 0
M  V30 1179 H 118.834 1.66901 -0.76265 0
M  V30 1180 H 117.216 3.91411 0.601105 0
M  V30 1181 H 118.39 4.01796 -2.25602 0
M  V30 1182 H 116.705 3.70565 -1.89923 0
M  V30 1183 H 119.302 5.33522 0.354691 0
M  V30 1184 H 119.645 3.93921 1.34656 0
M  V30 1185 H 120.178 3.96239 -0.352056 0
M  V30 1186 H 116.917 6.06373 -2.48981 0
M  V30 1187 H 116.437 5.94691 -0.781214 0
M  V30 1188 H 118.116 6.35525 -1.21313 0
M  V30 1189 N 118.248 0.346503 1.53744 0
M  V30 1190 C 119.178 -0.501193 2.28058 0
M  V30 1191 C 120.159 -1.10014 1.29734 0
M  V30 1192 O 121.344 -1.12097 1.58581 0
M  V30 1193 C 118.474 -1.65078 3.05559 0
M  V30 1194 C 117.428 -1.18003 4.11411 0
M  V30 1195 C 116.754 -2.41837 4.76884 0
M  V30 1196 C 118.054 -0.278394 5.21558 0
M  V30 1197 H 119.748 0.11875 2.99164 0
M  V30 1198 H 117.294 0.0585531 1.43881 0
M  V30 1199 H 119.247 -2.25028 3.56287 0
M  V30 1200 H 117.971 -2.29767 2.32109 0
M  V30 1201 H 116.63 -0.603331 3.61601 0
M  V30 1202 H 116.278 -3.0494 4.00026 0
M  V30 1203 H 115.978 -2.1102 5.48402 0
M  V30 1204 H 117.502 -3.02508 5.30397 0
M  V30 1205 H 118.916 -0.784823 5.67903 0
M  V30 1206 H 117.313 -0.0619707 6.00068 0
M  V30 1207 H 118.383 0.684677 4.80042 0
M  V30 1208 N 119.726 -1.57421 0.075193 0
M  V30 1209 C 120.689 -2.11791 -0.876203 0
M  V30 1210 C 121.689 -1.04268 -1.22412 0
M  V30 1211 O 122.879 -1.30242 -1.15684 0
M  V30 1212 C 120.011 -2.62207 -2.17854 0
M  V30 1213 H 121.204 -2.9716 -0.40444 0
M  V30 1214 H 118.757 -1.55333 -0.173557 0
M  V30 1215 H 119.492 -1.803 -2.6956 0
M  V30 1216 H 119.277 -3.40802 -1.93897 0
M  V30 1217 H 120.767 -3.04335 -2.85955 0
M  V30 1218 N 121.204 0.198386 -1.56346 0
M  V30 1219 C 122.432 0.935572 -1.84539 0
M  V30 1220 C 122.847 1.76989 -0.657281 0
M  V30 1221 O 122.204 1.78626 0.374043 0
M  V30 1222 C 122.255 1.8344 -3.11499 0
M  V30 1223 O 121.976 1.03377 -4.25728 0
M  V30 1224 C 123.477 2.68355 -3.52846 0
M  V30 1225 H 120.697 0.273126 -0.612897 0
M  V30 1226 H 123.241 0.20663 -2.03453 0
M  V30 1227 H 121.396 2.51701 -2.94492 0
M  V30 1228 H 121.81 1.64599 -4.98003 0
M  V30 1229 H 123.284 3.27085 -4.44657 0
M  V30 1230 H 123.761 3.41901 -2.75681 0
M  V30 1231 H 124.367 2.05471 -3.72373 0
M  V30 1232 N 122.682 1.50554 0.465978 0
M  V30 1233 C 123.629 1.6979 1.56333 0
M  V30 1234 C 124.599 0.539239 1.57103 0
M  V30 1235 O 125.784 0.770401 1.74555 0
M  V30 1236 C 122.924 1.80273 2.94271 0
M  V30 1237 C 122.037 3.07674 3.0325 0
M  V30 1238 C 121.172 3.08922 4.32135 0
M  V30 1239 C 120.211 4.30755 4.34875 0
M  V30 1240 N 119.348 4.29714 5.55239 0
M  V30 1241 H 124.188 2.63472 1.39235 0
M  V30 1242 H 121.725 1.30602 0.676873 0
M  V30 1243 H 123.683 1.84332 3.74269 0
M  V30 1244 H 122.313 0.900258 3.09992 0
M  V30 1245 H 121.365 3.13062 2.16094 0
M  V30 1246 H 122.677 3.97642 3.01135 0
M  V30 1247 H 121.831 3.11738 5.20485 0
M  V30 1248 H 120.57 2.16792 4.36866 0
M  V30 1249 H 119.575 4.28146 3.44922 0
M  V30 1250 H 120.8 5.24117 4.31831 0
M  V30 1251 H 118.746 3.4044 5.60746 0
M  V30 1252 H 118.663 5.13456 5.54886 0
M  V30 1253 H 119.931 4.36683 6.457 0
M  V30 1254 N 124.16 -0.719506 1.40217 0
M  V30 1255 C 125.388 -1.50864 1.41589 0
M  V30 1256 C 125.803 -1.88794 0.0145275 0
M  V30 1257 O 125.16 -1.55174 -0.960594 0
M  V30 1258 C 125.211 -2.78646 2.30302 0
M  V30 1259 O 124.932 -2.42321 3.64983 0
M  V30 1260 C 126.433 -3.72569 2.40224 0
M  V30 1261 H 123.653 -0.465709 0.48307 0
M  V30 1262 H 126.197 -0.88785 1.84221 0
M  V30 1263 H 124.352 -3.37019 1.91042 0
M  V30 1264 H 124.766 -3.24514 4.12057 0
M  V30 1265 H 126.24 -4.5908 3.06512 0
M  V30 1266 H 126.717 -4.15403 1.42608 0
M  V30 1267 H 127.323 -3.20109 2.80019 0
M  V30 1268 N 125.638 -1.25649 -0.95132 0
M  V30 1269 C 126.601 -1.06399 -2.03007 0
M  V30 1270 C 127.601 -0.0156794 -1.60792 0
M  V30 1271 O 128.791 -0.25817 -1.72276 0
M  V30 1272 C 125.923 -0.616184 -3.35285 0
M  V30 1273 H 127.116 -2.02164 -2.21517 0
M  V30 1274 H 124.669 -1.08103 -1.12887 0
M  V30 1275 H 125.404 0.343917 -3.22471 0
M  V30 1276 H 125.189 -1.37301 -3.67275 0
M  V30 1277 H 126.679 -0.503032 -4.14559 0
M  V30 1278 N 127.117 1.15442 -1.07289 0
M  V30 1279 C 128.047 2.22312 -0.714107 0
M  V30 1280 C 129.028 1.67467 0.298155 0
M  V30 1281 O 130.213 1.93445 0.171048 0
M  V30 1282 C 127.343 3.47124 -0.110448 0
M  V30 1283 C 126.297 4.14926 -1.04979 0
M  V30 1284 C 125.623 5.33807 -0.308924 0
M  V30 1285 C 126.923 4.64762 -2.38314 0
M  V30 1286 H 128.617 2.5258 -1.6076 0
M  V30 1287 H 126.163 1.21404 -0.77441 0
M  V30 1288 H 128.116 4.21124 0.152482 0
M  V30 1289 H 126.84 3.16187 0.81812 0
M  V30 1290 H 125.499 3.42866 -1.29764 0
M  V30 1291 H 125.147 4.99126 0.623084 0
M  V30 1292 H 124.847 5.80113 -0.935036 0
M  V30 1293 H 126.371 6.10576 -0.0537771 0
M  V30 1294 H 127.785 5.30292 -2.1786 0
M  V30 1295 H 126.182 5.21728 -2.96514 0
M  V30 1296 H 127.252 3.80434 -3.00663 0
M  V30 1297 N 128.595 0.856903 1.32268 0
M  V30 1298 C 129.872 0.382583 1.91822 0
M  V30 1299 C 130.252 -1.13407 1.78051 0
M  V30 1300 O 129.6 -1.95673 1.18001 0
M  V30 1301 C 129.81 0.849446 3.38505 0
M  V30 1302 C 131.158 0.867936 4.15634 0
M  V30 1303 O 132.182 0.794232 3.47232 0
M  V30 1304 O 131.041 0.972286 5.37781 0
M  V30 1305 H 128.135 0.112014 0.819379 0
M  V30 1306 H 130.681 0.943952 1.41024 0
M  V30 1307 H 129.453 1.89267 3.42482 0
M  V30 1308 H 129.076 0.265652 3.96712 0
M  V30 1309 N 130.073 -1.45103 0.615059 0
M  V30 1310 C 131.319 -2.03035 0.121804 0
M  V30 1311 C 131.674 -1.47393 -1.23665 0
M  V30 1312 O 130.967 -0.642061 -1.80522 0
M  V30 1313 C 131.161 -3.57386 0.0318797 0
M  V30 1314 C 130.99 -4.28 1.38007 0
M  V30 1315 C 129.76 -4.65624 1.9627 0
M  V30 1316 C 131.958 -4.5948 2.31047 0
M  V30 1317 N 129.94 -5.21132 3.24492 0
M  V30 1318 C 131.311 -5.159 3.43872 0
M  V30 1319 C 133.366 -4.41423 2.30326 0
M  V30 1320 C 132.069 -5.56165 4.5615 0
M  V30 1321 C 134.095 -4.82726 3.41658 0
M  V30 1322 C 133.457 -5.39245 4.53205 0
M  V30 1323 H 129.556 -0.77702 0.0881159 0
M  V30 1324 H 132.14 -1.76819 0.815044 0
M  V30 1325 H 130.311 -3.83247 -0.630599 0
M  V30 1326 H 132.043 -4.01976 -0.468721 0
M  V30 1327 H 128.798 -4.49421 1.49392 0
M  V30 1328 H 129.222 -5.53377 3.90004 0
M  V30 1329 H 133.864 -3.97033 1.45343 0
M  V30 1330 H 131.582 -5.99517 5.41854 0
M  V30 1331 H 135.168 -4.7048 3.42257 0
M  V30 1332 H 134.048 -5.70616 5.37929 0
M  V30 1333 N 131.551 -0.354651 -1.53558 0
M  V30 1334 C 132.498 0.496968 -2.25386 0
M  V30 1335 C 133.468 1.0865 -1.25636 0
M  V30 1336 O 134.653 1.12104 -1.54394 0
M  V30 1337 C 131.793 1.63637 -3.03837 0
M  V30 1338 C 130.906 1.07307 -4.18461 0
M  V30 1339 C 130.041 2.18068 -4.84376 0
M  V30 1340 C 129.08 1.59147 -5.91049 0
M  V30 1341 N 128.217 2.63695 -6.50699 0
M  V30 1342 H 133.057 -0.122075 -2.9775 0
M  V30 1343 H 130.594 -0.0720154 -1.46924 0
M  V30 1344 H 132.552 2.30734 -3.47589 0
M  V30 1345 H 131.182 2.22623 -2.33749 0
M  V30 1346 H 130.234 0.292708 -3.79272 0
M  V30 1347 H 131.546 0.602193 -4.95152 0
M  V30 1348 H 130.7 2.93007 -5.31255 0
M  V30 1349 H 129.439 2.68504 -4.07133 0
M  V30 1350 H 128.444 0.827175 -5.43542 0
M  V30 1351 H 129.669 1.09549 -6.70206 0
M  V30 1352 H 127.615 3.13365 -5.76315 0
M  V30 1353 H 127.532 2.21263 -7.22896 0
M  V30 1354 H 128.8 3.3837 -7.02229 0
M  V30 1355 N 133.029 1.57378 -0.0835403 0
M  V30 1356 C 133.977 2.14602 0.89714 0
M  V30 1357 C 134.971 1.08589 1.30018 0
M  V30 1358 O 136.177 1.26952 1.27606 0
M  V30 1359 H 132.552 0.686346 0.3073 0
M  V30 1360 H 134.523 2.95845 0.38969 0
M  V30 1361 C 133.272 2.73188 2.15089 0
M  V30 1362 H 132.595 3.54442 1.84962 0
M  V30 1363 H 134.035 3.1681 2.81793 0
M  V30 1364 C 132.494 1.68517 2.91725 0
M  V30 1365 O 133.024 1.11718 3.85852 0
M  V30 1366 N 131.23 1.39277 2.55049 0
M  V30 1367 H 130.777 1.85655 1.78577 0
M  V30 1368 H 130.735 0.694791 3.06627 0
M  V30 1369 N 134.507 -0.190092 1.56449 0
M  V30 1370 C 135.455 -1.25501 1.95837 0
M  V30 1371 C 136.449 -1.4685 0.844485 0
M  V30 1372 O 137.655 -1.47651 1.02952 0
M  V30 1373 H 134.03 -0.421447 0.622805 0
M  V30 1374 H 136.001 -0.895821 2.84636 0
M  V30 1375 C 134.75 -2.59124 2.31841 0
M  V30 1376 H 134.073 -2.43514 3.17082 0
M  V30 1377 H 135.513 -3.32371 2.6326 0
M  V30 1378 C 133.972 -3.16488 1.15486 0
M  V30 1379 O 134.502 -3.99365 0.432535 0
M  V30 1380 N 132.708 -2.75305 0.930349 0
M  V30 1381 H 132.255 -2.08013 1.51948 0
M  V30 1382 H 132.213 -3.14024 0.153634 0
M  V30 1383 N 135.985 -1.50799 -0.457987 0
M  V30 1384 C 136.917 -1.66786 -1.57211 0
M  V30 1385 C 137.93 -0.548962 -1.53265 0
M  V30 1386 O 139.119 -0.8226 -1.58416 0
M  V30 1387 C 136.219 -1.64834 -2.96113 0
M  V30 1388 C 135.392 -2.92971 -3.24787 0
M  V30 1389 C 134.451 -2.83485 -4.43309 0
M  V30 1390 O 133.477 -3.5744 -4.42973 0
M  V30 1391 N 134.679 -1.97929 -5.45714 0
M  V30 1392 H 137.444 -2.62889 -1.43909 0
M  V30 1393 H 135.005 -1.48427 -0.646617 0
M  V30 1394 H 136.997 -1.56084 -3.7339 0
M  V30 1395 H 135.567 -0.764118 -3.03117 0
M  V30 1396 H 134.787 -3.15749 -2.36 0
M  V30 1397 H 136.075 -3.77834 -3.40762 0
M  V30 1398 H 135.473 -1.37182 -5.48815 0
M  V30 1399 H 134.03 -1.95073 -6.21924 0
M  V30 1400 N 137.463 0.71206 -1.40597 0
M  V30 1401 C 138.393 1.83889 -1.43899 0
M  V30 1402 C 139.374 1.67442 -0.299504 0
M  V30 1403 O 140.559 1.87421 -0.508624 0
M  V30 1404 C 137.689 3.21877 -1.30431 0
M  V30 1405 C 136.643 3.53002 -2.42019 0
M  V30 1406 C 135.969 4.90172 -2.13626 0
M  V30 1407 C 137.269 3.53643 -3.84362 0
M  V30 1408 H 138.963 1.81383 -2.38203 0
M  V30 1409 H 136.509 0.871237 -1.14654 0
M  V30 1410 H 138.462 4.00404 -1.31357 0
M  V30 1411 H 137.186 3.24968 -0.326049 0
M  V30 1412 H 135.845 2.76818 -2.40349 0
M  V30 1413 H 135.493 4.89869 -1.14182 0
M  V30 1414 H 135.193 5.11962 -2.88389 0
M  V30 1415 H 136.717 5.71028 -2.1624 0
M  V30 1416 H 138.131 4.22203 -3.87837 0
M  V30 1417 H 136.528 3.86961 -4.58673 0
M  V30 1418 H 137.598 2.52954 -4.13693 0
M  V30 1419 N 138.941 1.26152 0.944643 0
M  V30 1420 C 140.188 1.11492 1.69044 0
M  V30 1421 C 140.516 -0.342366 1.91463 0
M  V30 1422 O 139.771 -1.26812 1.49054 0
M  V30 1423 C 140.07 1.82541 3.07268 0
M  V30 1424 C 139.736 3.32445 3.04616 0
M  V30 1425 C 138.398 3.73337 3.036 0
M  V30 1426 C 140.75 4.28171 2.97185 0
M  V30 1427 C 138.078 5.08348 2.92915 0
M  V30 1428 C 140.43 5.63218 2.88041 0
M  V30 1429 C 139.094 6.03426 2.85366 0
M  V30 1430 H 138.364 0.407977 0.618576 0
M  V30 1431 H 141.011 1.56551 1.10291 0
M  V30 1432 H 139.316 1.29941 3.69625 0
M  V30 1433 H 141.013 1.68642 3.63815 0
M  V30 1434 H 137.603 2.99915 3.06185 0
M  V30 1435 H 141.787 3.97563 2.97081 0
M  V30 1436 H 137.043 5.38667 2.89219 0
M  V30 1437 H 141.217 6.37078 2.81254 0
M  V30 1438 H 138.844 7.07999 2.76842 0
M  V30 1439 N 140.419 -1.14872 1.07899 0
M  V30 1440 C 141.835 -1.37776 0.805606 0
M  V30 1441 C 142.035 -1.92743 -0.587555 0
M  V30 1442 O 141.091 -2.13678 -1.34528 0
M  V30 1443 C 142.404 -2.34361 1.88402 0
M  V30 1444 C 143.952 -2.48012 1.90942 0
M  V30 1445 C 144.427 -3.47893 2.97883 0
M  V30 1446 N 145.918 -3.55433 2.97021 0
M  V30 1447 C 146.653 -4.32553 3.76412 0
M  V30 1448 N 146.149 -5.12959 4.65666 0
M  V30 1449 N 147.942 -4.27697 3.64735 0
M  V30 1450 H 140.093 -0.775365 1.97742 0
M  V30 1451 H 142.356 -0.403521 0.857831 0
M  V30 1452 H 142.062 -2.01098 2.88535 0
M  V30 1453 H 141.936 -3.34206 1.74889 0
M  V30 1454 H 144.323 -2.8057 0.914579 0
M  V30 1455 H 144.404 -1.48147 2.08534 0
M  V30 1456 H 144.048 -3.16069 3.97571 0
M  V30 1457 H 143.978 -4.47527 2.77538 0
M  V30 1458 H 146.469 -2.98048 2.32326 0
M  V30 1459 H 146.782 -5.69065 5.22862 0
M  V30 1460 H 145.127 -5.12245 4.69712 0
M  V30 1461 H 148.318 -3.63949 2.94378 0
M  V30 1462 H 148.491 -4.8755 4.26848 0
M  V30 1463 N 141.898 -0.863906 -1.31812 0
M  V30 1464 C 142.848 -0.286898 -2.26188 0
M  V30 1465 C 143.832 0.572577 -1.50367 0
M  V30 1466 O 145.024 0.420447 -1.71934 0
M  V30 1467 C 142.153 0.515849 -3.39402 0
M  V30 1468 C 141.239 -0.356531 -4.22599 0
M  V30 1469 N 141.63 -1.44716 -4.84656 0
M  V30 1470 C 139.928 -0.147898 -4.45755 0
M  V30 1471 C 140.629 -1.98462 -5.46798 0
M  V30 1472 N 139.605 -1.28247 -5.28255 0
M  V30 1473 H 143.407 -1.12055 -2.717 0
M  V30 1474 H 140.921 -0.711012 -1.46008 0
M  V30 1475 H 142.918 0.945701 -4.06032 0
M  V30 1476 H 141.578 1.34718 -2.95434 0
M  V30 1477 H 142.589 -1.83008 -4.84488 0
M  V30 1478 H 139.266 0.647973 -4.12441 0
M  V30 1479 H 140.656 -2.89932 -6.06126 0
M  V30 1480 N 143.376 1.44774 -0.622745 0
M  V30 1481 C 144.339 2.29069 0.0774015 0
M  V30 1482 C 145.339 1.4059 0.780461 0
M  V30 1483 O 146.529 1.62551 0.626322 0
M  V30 1484 C 143.661 3.21974 1.12006 0
M  V30 1485 H 144.854 2.92459 -0.663901 0
M  V30 1486 H 142.407 1.51548 -0.382486 0
M  V30 1487 H 143.142 2.63417 1.89162 0
M  V30 1488 H 142.927 3.87168 0.619951 0
M  V30 1489 H 144.417 3.85318 1.60995 0
M  V30 1490 N 144.854 0.36279 1.53368 0
M  V30 1491 C 145.802 -0.500155 2.27159 0
M  V30 1492 C 146.796 -1.08575 1.3003 0
M  V30 1493 O 148.002 -1.02927 1.47668 0
M  V30 1494 H 144.377 -0.180009 0.730138 0
M  V30 1495 H 146.348 0.14401 2.98052 0
M  V30 1496 C 145.097 -1.62937 3.07159 0
M  V30 1497 H 144.42 -1.18806 3.8174 0
M  V30 1498 H 145.86 -2.20795 3.61975 0
M  V30 1499 C 144.319 -2.57007 2.17829 0
M  V30 1500 O 144.849 -3.59752 1.78721 0
M  V30 1501 N 143.055 -2.26131 1.82518 0
M  V30 1502 H 142.602 -1.42616 2.14519 0
M  V30 1503 H 142.56 -2.89327 1.23034 0
M  V30 1504 N 146.332 -1.57332 0.0918853 0
M  V30 1505 C 147.748 -1.57389 -0.264766 0
M  V30 1506 C 147.948 -1.10281 -1.68643 0
M  V30 1507 O 147.004 -0.777801 -2.40222 0
M  V30 1508 C 148.317 -3.00648 -0.0561195 0
M  V30 1509 C 149.865 -3.12754 -0.124116 0
M  V30 1510 C 150.34 -4.57965 0.0564972 0
M  V30 1511 N 151.831 -4.632 0.00155611 0
M  V30 1512 C 152.566 -5.73281 0.116598 0
M  V30 1513 N 152.062 -6.92208 0.286294 0
M  V30 1514 N 153.855 -5.6207 0.0580973 0
M  V30 1515 H 146.006 -1.86262 1.02079 0
M  V30 1516 H 148.269 -0.859579 0.399786 0
M  V30 1517 H 147.975 -3.393 0.925669 0
M  V30 1518 H 147.849 -3.68623 -0.799823 0
M  V30 1519 H 150.236 -2.73976 -1.09641 0
M  V30 1520 H 150.317 -2.47377 0.651024 0
M  V30 1521 H 149.961 -4.97436 1.02564 0
M  V30 1522 H 149.891 -5.21399 -0.738297 0
M  V30 1523 H 152.382 -3.77686 -0.127192 0
M  V30 1524 H 152.695 -7.71934 0.365676 0
M  V30 1525 H 151.04 -6.94254 0.32192 0
M  V30 1526 H 154.231 -4.68043 -0.0733204 0
M  V30 1527 H 154.404 -6.47824 0.151203 0
M  V30 1528 N 147.81 0.181792 -1.56548 0
M  V30 1529 C 148.773 1.20894 -1.94724 0
M  V30 1530 C 149.773 1.37738 -0.829747 0
M  V30 1531 O 150.963 1.35323 -1.09697 0
M  V30 1532 C 148.095 2.57593 -2.23291 0
M  V30 1533 H 149.288 0.882275 -2.86629 0
M  V30 1534 H 146.841 0.423838 -1.50444 0
M  V30 1535 H 147.576 2.95291 -1.34067 0
M  V30 1536 H 147.361 2.46735 -3.04736 0
M  V30 1537 H 148.851 3.31637 -2.53785 0
M  V30 1538 N 149.288 1.51039 0.449983 0
M  V30 1539 C 150.704 1.38934 0.785462 0
M  V30 1540 C 150.904 0.461817 1.96136 0
M  V30 1541 O 149.96 -0.0877389 2.52348 0
M  V30 1542 C 151.273 2.80724 1.0777 0
M  V30 1543 C 152.821 2.89787 1.1829 0
M  V30 1544 C 153.296 4.32457 1.50815 0
M  V30 1545 N 154.787 4.35505 1.57764 0
M  V30 1546 C 155.522 5.42914 1.84477 0
M  V30 1547 N 155.018 6.60502 2.09068 0
M  V30 1548 N 156.811 5.3038 1.86155 0
M  V30 1549 H 148.962 2.09904 -0.324647 0
M  V30 1550 H 151.225 0.944378 -0.0827957 0
M  V30 1551 H 150.931 3.50531 0.286498 0
M  V30 1552 H 150.805 3.19273 2.00859 0
M  V30 1553 H 153.192 2.20186 1.96474 0
M  V30 1554 H 153.273 2.54752 0.231314 0
M  V30 1555 H 152.917 5.02603 0.731622 0
M  V30 1556 H 152.847 4.64995 2.47158 0
M  V30 1557 H 155.338 3.50724 1.40715 0
M  V30 1558 H 155.651 7.38158 2.28785 0
M  V30 1559 H 153.996 6.63639 2.06416 0
M  V30 1560 H 157.187 4.37505 1.66454 0
M  V30 1561 H 157.36 6.1417 2.06637 0
M  V30 1562 N 150.766 -0.704594 1.40972 0
M  V30 1563 C 152.015 -1.46018 1.39146 0
M  V30 1564 C 152.328 -1.956 0.000589254 0
M  V30 1565 O 153.534 -2.71137 -0.1403 0
M  V30 1566 C 151.99 -2.63996 2.4461 0
M  V30 1567 C 151.598 -2.21238 3.89561 0
M  V30 1568 C 153.342 -3.41677 2.51907 0
M  V30 1569 C 151.249 -3.3612 4.86598 0
M  V30 1570 H 150.179 -0.548444 0.517422 0
M  V30 1571 H 152.83 -0.765784 1.66757 0
M  V30 1572 H 151.212 -3.3566 2.10115 0
M  V30 1573 H 152.386 -1.56923 4.33257 0
M  V30 1574 H 150.701 -1.56574 3.85841 0
M  V30 1575 H 153.298 -4.27182 3.2159 0
M  V30 1576 H 153.641 -3.86247 1.55303 0
M  V30 1577 H 154.174 -2.77064 2.85448 0
M  V30 1578 H 150.913 -2.96572 5.84573 0
M  V30 1579 H 150.433 -3.99315 4.47557 0
M  V30 1580 H 152.112 -4.02029 5.06934 0
M  V30 1581 N 152.244 -1.26651 -0.937939 0
M  V30 1582 C 153.49 -1.12553 -1.687 0
M  V30 1583 C 153.823 0.329782 -1.91379 0
M  V30 1584 O 153.098 1.24202 -1.4968 0
M  V30 1585 C 153.381 -1.89862 -3.05981 0
M  V30 1586 C 153.234 -3.43318 -2.90607 0
M  V30 1587 C 154.553 -1.69499 -4.0615 0
M  V30 1588 H 151.672 -0.410257 -0.612257 0
M  V30 1589 H 154.314 -1.55685 -1.08913 0
M  V30 1590 H 152.464 -1.53204 -3.57017 0
M  V30 1591 H 154.136 -3.89747 -2.46769 0
M  V30 1592 H 152.379 -3.70179 -2.26164 0
M  V30 1593 H 153.05 -3.92642 -3.8799 0
M  V30 1594 H 155.526 -2.01442 -3.64088 0
M  V30 1595 H 154.402 -2.26002 -5.00214 0
M  V30 1596 H 154.663 -0.640365 -4.37438 0
M  V30 1597 N 153.722 1.14298 -1.08507 0
M  V30 1598 C 154.632 2.23027 -0.727753 0
M  V30 1599 C 155.648 1.71952 0.26619 0
M  V30 1600 O 156.824 2.011 0.109882 0
M  V30 1601 C 153.889 3.46403 -0.143541 0
M  V30 1602 C 152.95 4.12413 -1.19223 0
M  V30 1603 C 152.183 5.29899 -0.635798 0
M  V30 1604 O 152.406 5.67796 0.544393 0
M  V30 1605 O 151.34 5.85717 -1.38634 0
M  V30 1606 H 155.166 2.55945 -1.63481 0
M  V30 1607 H 152.751 1.22248 -0.858817 0
M  V30 1608 H 154.633 4.21018 0.179404 0
M  V30 1609 H 153.308 3.15206 0.736659 0
M  V30 1610 H 152.215 3.39667 -1.56772 0
M  V30 1611 H 153.548 4.47718 -2.04474 0
M  V30 1612 N 155.201 0.870884 1.31352 0
M  V30 1613 C 156.111 0.330783 2.32256 0
M  V30 1614 C 157.127 -0.559767 1.6475 0
M  V30 1615 O 158.303 -0.456263 1.96164 0
M  V30 1616 C 155.368 -0.458137 3.4366 0
M  V30 1617 C 154.429 0.460482 4.26823 0
M  V30 1618 C 153.662 -0.290881 5.32907 0
M  V30 1619 O 153.885 -1.51885 5.49806 0
M  V30 1620 O 152.819 0.351732 6.00871 0
M  V30 1621 H 156.645 1.16718 2.80376 0
M  V30 1622 H 154.23 0.634285 1.35267 0
M  V30 1623 H 156.112 -0.905343 4.1156 0
M  V30 1624 H 154.787 -1.27106 2.97701 0
M  V30 1625 H 153.694 0.956207 3.61673 0
M  V30 1626 H 155.027 1.23903 4.7635 0
M  V30 1627 N 156.679 -1.44442 0.630414 0
M  V30 1628 C 157.925 -2.02351 0.134816 0
M  V30 1629 C 158.258 -1.4947 -1.23986 0
M  V30 1630 O 157.533 -0.678475 -1.82283 0
M  V30 1631 C 157.816 -3.59898 0.120707 0
M  V30 1632 C 157.669 -4.23063 1.52767 0
M  V30 1633 C 158.988 -4.36585 -0.555127 0
M  V30 1634 H 156.107 -0.73527 0.0504646 0
M  V30 1635 H 158.749 -1.72022 0.806751 0
M  V30 1636 H 156.899 -3.85868 -0.451477 0
M  V30 1637 H 158.571 -4.08202 2.14869 0
M  V30 1638 H 156.814 -3.80586 2.08175 0
M  V30 1639 H 157.485 -5.32071 1.46984 0
M  V30 1640 H 159.961 -4.16044 -0.0685429 0
M  V30 1641 H 158.837 -5.46294 -0.534185 0
M  V30 1642 H 159.098 -4.11138 -1.62535 0
M  V30 1643 N 158.157 -0.370918 -1.53173 0
M  V30 1644 C 159.067 0.480823 -2.2962 0
M  V30 1645 C 160.083 1.08789 -1.35798 0
M  V30 1646 O 161.259 1.09768 -1.68858 0
M  V30 1647 C 158.324 1.60227 -3.07454 0
M  V30 1648 C 157.385 1.0222 -4.16953 0
M  V30 1649 C 156.618 2.0902 -4.91066 0
M  V30 1650 O 156.841 3.30222 -4.65091 0
M  V30 1651 O 155.775 1.71778 -5.76867 0
M  V30 1652 H 159.601 -0.141421 -3.03371 0
M  V30 1653 H 157.186 -0.135146 -1.48787 0
M  V30 1654 H 159.068 2.25417 -3.56041 0
M  V30 1655 H 157.743 2.20982 -2.36535 0
M  V30 1656 H 156.65 0.334064 -3.72605 0
M  V30 1657 H 157.983 0.459131 -4.90054 0
M  V30 1658 N 159.635 1.57281 -0.100228 0
M  V30 1659 C 160.583 2.15542 0.874328 0
M  V30 1660 C 161.577 1.09962 1.28859 0
M  V30 1661 O 162.783 1.28298 1.26252 0
M  V30 1662 H 159.158 0.689567 0.300003 0
M  V30 1663 H 161.129 2.96241 0.35829 0
M  V30 1664 C 159.878 2.75454 2.1218 0
M  V30 1665 H 159.201 3.56384 1.81193 0
M  V30 1666 H 160.641 3.19781 2.78417 0
M  V30 1667 C 159.1 1.71602 2.89921 0
M  V30 1668 O 159.63 1.15804 3.84646 0
M  V30 1669 N 157.836 1.41975 2.53558 0
M  V30 1670 H 157.383 1.87539 1.76598 0
M  V30 1671 H 157.341 0.727274 3.05873 0
M  V30 1672 N 161.113 -0.173488 1.56642 0
M  V30 1673 C 162.338 -0.910149 1.86363 0
M  V30 1674 C 162.763 -1.75132 0.686318 0
M  V30 1675 O 162.121 -1.77595 -0.364643 0
M  V30 1676 C 162.169 -1.76447 3.14482 0
M  V30 1677 O 161.273 -2.86584 2.96553 0
M  V30 1678 H 160.614 -0.255086 0.613047 0
M  V30 1679 H 163.144 -0.172283 2.03873 0
M  V30 1680 H 163.154 -2.16483 3.45831 0
M  V30 1681 H 161.829 -1.14658 3.99783 0
M  V30 1682 H 160.406 -2.50146 2.76553 0
M  V30 1683 N 162.591 -1.51276 -0.441967 0
M  V30 1684 C 163.521 -1.752 -1.54361 0
M  V30 1685 C 164.502 -0.601682 -1.59103 0
M  V30 1686 O 165.687 -0.843913 -1.74905 0
M  V30 1687 C 162.817 -1.87282 -2.92477 0
M  V30 1688 C 161.771 -3.02687 -3.02596 0
M  V30 1689 C 161.097 -2.99947 -4.42647 0
M  V30 1690 C 162.397 -4.4273 -2.77106 0
M  V30 1691 H 164.091 -2.67442 -1.34592 0
M  V30 1692 H 161.637 -1.28694 -0.646048 0
M  V30 1693 H 163.59 -2.02602 -3.695 0
M  V30 1694 H 162.314 -0.916844 -3.13467 0
M  V30 1695 H 160.973 -2.87065 -2.28012 0
M  V30 1696 H 160.621 -2.02136 -4.60597 0
M  V30 1697 H 160.321 -3.77439 -4.50348 0
M  V30 1698 H 161.845 -3.17354 -5.2165 0
M  V30 1699 H 163.259 -4.58727 -3.43864 0
M  V30 1700 H 161.656 -5.21893 -2.96222 0
M  V30 1701 H 162.726 -4.53087 -1.72744 0
M  V30 1702 N 164.069 0.697108 -1.41344 0
M  V30 1703 C 165.016 1.81106 -1.43071 0
M  V30 1704 C 165.986 1.63632 -0.285275 0
M  V30 1705 O 167.171 1.84504 -0.486091 0
M  V30 1706 C 164.311 3.18975 -1.31715 0
M  V30 1707 C 163.424 3.47892 -2.56115 0
M  V30 1708 C 162.559 4.75367 -2.37064 0
M  V30 1709 C 161.598 4.97247 -3.56948 0
M  V30 1710 N 160.735 6.15947 -3.36977 0
M  V30 1711 H 165.575 1.78965 -2.38276 0
M  V30 1712 H 163.112 0.873975 -1.18322 0
M  V30 1713 H 165.07 3.98615 -1.23133 0
M  V30 1714 H 163.7 3.20297 -0.401183 0
M  V30 1715 H 162.752 2.62669 -2.75153 0
M  V30 1716 H 164.064 3.59962 -3.45295 0
M  V30 1717 H 163.218 5.63059 -2.25941 0
M  V30 1718 H 161.957 4.65541 -1.45338 0
M  V30 1719 H 160.962 4.08004 -3.68527 0
M  V30 1720 H 162.187 5.08934 -4.49626 0
M  V30 1721 H 160.133 6.07336 -2.47949 0
M  V30 1722 H 160.05 6.28777 -4.19732 0
M  V30 1723 H 161.318 7.06377 -3.29623 0
M  V30 1724 N 165.547 1.27147 0.931209 0
M  V30 1725 C 166.963 1.04475 1.20653 0
M  V30 1726 C 167.163 -0.223885 2.00252 0
M  V30 1727 O 166.219 -0.930332 2.34736 0
M  V30 1728 C 167.532 2.28209 1.95809 0
M  V30 1729 C 169.08 2.33211 2.08762 0
M  V30 1730 C 169.555 3.56665 2.87323 0
M  V30 1731 N 171.046 3.57201 2.94892 0
M  V30 1732 C 171.781 4.49395 3.56134 0
M  V30 1733 N 171.277 5.51889 4.18796 0
M  V30 1734 N 173.07 4.37026 3.53504 0
M  V30 1735 H 165.221 2.08612 0.399333 0
M  V30 1736 H 167.484 0.917312 0.239253 0
M  V30 1737 H 167.19 3.20538 1.44736 0
M  V30 1738 H 167.064 2.33247 2.96438 0
M  V30 1739 H 169.451 1.41391 2.59023 0
M  V30 1740 H 169.532 2.32178 1.07364 0
M  V30 1741 H 169.176 4.4882 2.37746 0
M  V30 1742 H 169.106 3.54948 3.88998 0
M  V30 1743 H 171.597 2.83074 2.50354 0
M  V30 1744 H 171.91 6.18409 4.63454 0
M  V30 1745 H 170.255 5.55735 4.17353 0
M  V30 1746 H 173.446 3.56166 3.03749 0
M  V30 1747 H 173.619 5.09067 4.00942 0
M  V30 1748 N 167.025 -1.13721 1.09112 0
M  V30 1749 C 167.955 -2.21148 0.749385 0
M  V30 1750 C 168.936 -1.6792 -0.271475 0
M  V30 1751 O 170.121 -1.93693 -0.140251 0
M  V30 1752 C 167.251 -3.46905 0.165659 0
M  V30 1753 C 166.205 -4.13203 1.11567 0
M  V30 1754 C 165.531 -5.33248 0.393809 0
M  V30 1755 C 166.831 -4.60912 2.45678 0
M  V30 1756 H 168.525 -2.4999 1.64758 0
M  V30 1757 H 166.071 -1.20156 0.793626 0
M  V30 1758 H 168.024 -4.21313 -0.085466 0
M  V30 1759 H 166.748 -3.17449 -0.767714 0
M  V30 1760 H 165.407 -3.40758 1.35202 0
M  V30 1761 H 165.055 -5.00054 -0.543599 0
M  V30 1762 H 164.755 -5.78552 1.02721 0
M  V30 1763 H 166.279 -6.10413 0.150908 0
M  V30 1764 H 167.693 -5.26759 2.26269 0
M  V30 1765 H 166.09 -5.16944 3.04776 0
M  V30 1766 H 167.16 -3.75603 3.06677 0
M  V30 1767 N 168.503 -0.877838 -1.30888 0
M  V30 1768 C 169.435 -0.296607 -2.27273 0
M  V30 1769 C 170.448 0.544799 -1.53414 0
M  V30 1770 O 171.637 0.365511 -1.74718 0
M  V30 1771 C 168.737 0.597481 -3.33592 0
M  V30 1772 C 167.91 -0.213251 -4.3688 0
M  V30 1773 C 166.969 0.610208 -5.2265 0
M  V30 1774 O 165.995 0.035441 -5.69189 0
M  V30 1775 N 167.197 1.92071 -5.47804 0
M  V30 1776 H 169.962 -1.12492 -2.77787 0
M  V30 1777 H 167.523 -0.740105 -1.43993 0
M  V30 1778 H 169.515 1.15425 -3.87891 0
M  V30 1779 H 168.085 1.32647 -2.83061 0
M  V30 1780 H 167.305 -0.951466 -3.82545 0
M  V30 1781 H 168.593 -0.769262 -5.02951 0
M  V30 1782 H 167.991 2.4107 -5.11763 0
M  V30 1783 H 166.548 2.42508 -6.05007 0
M  V30 1784 N 169.982 1.44106 -0.638065 0
M  V30 1785 C 171.21 2.06336 -0.152615 0
M  V30 1786 C 171.625 1.47731 1.17563 0
M  V30 1787 O 170.982 0.602806 1.72257 0
M  V30 1788 C 171.033 3.61479 -0.0391491 0
M  V30 1789 O 170.754 4.17903 -1.31487 0
M  V30 1790 C 172.255 4.40757 0.474176 0
M  V30 1791 H 169.475 0.665862 -0.0828776 0
M  V30 1792 H 172.019 1.84862 -0.87443 0
M  V30 1793 H 170.174 3.82191 0.633142 0
M  V30 1794 H 170.588 5.11416 -1.16421 0
M  V30 1795 H 172.062 5.49707 0.502562 0
M  V30 1796 H 172.539 4.12697 1.50258 0
M  V30 1797 H 173.145 4.24979 -0.165102 0
M  V30 1798 N 171.46 0.379036 1.52974 0
M  V30 1799 C 172.737 -0.263479 1.93817 0
M  V30 1800 C 173.117 -1.65244 1.31368 0
M  V30 1801 O 172.465 -2.23448 0.477856 0
M  V30 1802 C 172.675 -0.300166 3.47707 0
M  V30 1803 C 174.023 -0.534061 4.21228 0
M  V30 1804 O 175.047 -0.38081 3.54159 0
M  V30 1805 O 173.906 -0.833501 5.40106 0
M  V30 1806 H 171 -0.161149 0.811147 0
M  V30 1807 H 173.546 0.432798 1.64088 0
M  V30 1808 H 172.318 0.673138 3.85467 0
M  V30 1809 H 171.941 -1.04179 3.83709 0
M  V30 1810 N 172.938 -1.57226 0.108567 0
M  V30 1811 C 174.168 -1.9889 -0.559142 0
M  V30 1812 C 174.576 -0.986889 -1.61422 0
M  V30 1813 O 173.919 0.0298705 -1.83676 0
M  V30 1814 C 173.981 -3.36952 -1.25315 0
M  V30 1815 C 173.645 -4.55679 -0.347248 0
M  V30 1816 C 174.642 -5.18281 0.409996 0
M  V30 1817 C 172.327 -5.0162 -0.261367 0
M  V30 1818 C 174.321 -6.25203 1.24096 0
M  V30 1819 C 172.008 -6.08405 0.573238 0
M  V30 1820 C 173.006 -6.70063 1.32304 0
M  V30 1821 O 172.694 -7.74788 2.14381 0
M  V30 1822 H 172.426 -0.658343 -0.153492 0
M  V30 1823 H 174.98 -2.04532 0.188584 0
M  V30 1824 H 173.21 -3.28032 -2.04773 0
M  V30 1825 H 174.899 -3.62974 -1.81673 0
M  V30 1826 H 175.665 -4.8371 0.353457 0
M  V30 1827 H 171.544 -4.53381 -0.834656 0
M  V30 1828 H 175.088 -6.73259 1.82669 0
M  V30 1829 H 170.985 -6.42406 0.631208 0
M  V30 1830 H 171.753 -7.91837 2.07209 0
M  V30 1831 N 174.416 0.165178 -1.56732 0
M  V30 1832 C 175.665 0.879143 -1.81532 0
M  V30 1833 C 175.978 1.83144 -0.686842 0
M  V30 1834 O 177.184 2.58823 -0.819944 0
M  V30 1835 C 175.64 1.61388 -3.21686 0
M  V30 1836 C 175.248 0.704904 -4.4242 0
M  V30 1837 C 176.992 2.3157 -3.55774 0
M  V30 1838 C 174.899 1.44022 -5.73595 0
M  V30 1839 H 173.829 0.332033 -0.676957 0
M  V30 1840 H 176.48 0.132008 -1.83025 0
M  V30 1841 H 174.862 2.40599 -3.14529 0
M  V30 1842 H 176.036 -0.0506815 -4.60772 0
M  V30 1843 H 174.351 0.112419 -4.16248 0
M  V30 1844 H 176.948 2.8719 -4.51028 0
M  V30 1845 H 177.291 3.07201 -2.8095 0
M  V30 1846 H 177.824 1.59297 -3.64513 0
M  V30 1847 H 174.563 0.72612 -6.51466 0
M  V30 1848 H 174.083 2.16898 -5.5921 0
M  V30 1849 H 175.762 1.98606 -6.15764 0
M  V30 1850 N 175.894 1.51508 0.433938 0
M  V30 1851 C 177.171 1.54888 1.19453 0
M  V30 1852 C 177.551 0.315154 2.08734 0
M  V30 1853 O 176.899 -0.699558 2.17528 0
M  V30 1854 C 177.109 2.86467 1.99342 0
M  V30 1855 C 178.457 3.38545 2.56267 0
M  V30 1856 O 179.481 2.88041 2.0955 0
M  V30 1857 O 178.34 4.26675 3.41483 0
M  V30 1858 H 175.434 0.622863 0.544032 0
M  V30 1859 H 177.98 1.63823 0.442732 0
M  V30 1860 H 176.752 3.67718 1.33788 0
M  V30 1861 H 176.375 2.8071 2.8158 0
M  V30 1862 N 177.372 -0.689602 1.41712 0
M  V30 1863 C 178.302 -1.81577 1.46806 0
M  V30 1864 C 179.283 -1.66945 0.326105 0
M  V30 1865 O 180.468 -1.86588 0.538377 0
M  V30 1866 C 177.598 -3.19762 1.35535 0
M  V30 1867 C 176.552 -3.49107 2.47605 0
M  V30 1868 C 175.878 -4.86711 2.21397 0
M  V30 1869 C 177.178 -3.47483 3.89939 0
M  V30 1870 H 178.872 -1.7757 2.41058 0
M  V30 1871 H 176.418 -0.852887 1.16025 0
M  V30 1872 H 178.371 -3.98263 1.3771 0
M  V30 1873 H 177.095 -3.24409 0.377708 0
M  V30 1874 H 175.754 -2.72959 2.44722 0
M  V30 1875 H 175.402 -4.8799 1.21961 0
M  V30 1876 H 175.102 -5.0731 2.96497 0
M  V30 1877 H 176.626 -5.67515 2.25297 0
M  V30 1878 H 178.04 -4.1598 3.94505 0
M  V30 1879 H 176.437 -3.79615 4.64771 0
M  V30 1880 H 177.507 -2.46341 4.17665 0
M  V30 1881 N 178.85 -1.27639 -0.924453 0
M  V30 1882 C 180.08 -1.16819 -1.70402 0
M  V30 1883 C 180.488 0.277191 -1.87158 0
M  V30 1884 O 179.831 1.20025 -1.39067 0
M  V30 1885 C 179.893 -1.78305 -3.12166 0
M  V30 1886 C 179.557 -3.27502 -3.18734 0
M  V30 1887 C 180.554 -4.2409 -3.00738 0
M  V30 1888 C 178.239 -3.68269 -3.4159 0
M  V30 1889 C 180.233 -5.59422 -3.05492 0
M  V30 1890 C 177.92 -5.0373 -3.45977 0
M  V30 1891 C 178.918 -5.99116 -3.27946 0
M  V30 1892 O 178.606 -7.32108 -3.32074 0
M  V30 1893 H 178.338 -0.406931 -0.539799 0
M  V30 1894 H 180.892 -1.69078 -1.16626 0
M  V30 1895 H 179.122 -1.20528 -3.67437 0
M  V30 1896 H 180.811 -1.62154 -3.72103 0
M  V30 1897 H 181.577 -3.93931 -2.82919 0
M  V30 1898 H 177.456 -2.94496 -3.54673 0
M  V30 1899 H 181 -6.33852 -2.91337 0
M  V30 1900 H 176.897 -5.33543 -3.63321 0
M  V30 1901 H 177.665 -7.40598 -3.48507 0
M  V30 1902 N 180.328 1.1314 -1.09713 0
M  V30 1903 C 181.26 2.18343 -0.697056 0
M  V30 1904 C 182.273 1.60669 0.262551 0
M  V30 1905 O 183.462 1.78435 0.0481527 0
M  V30 1906 C 180.562 3.38899 -0.00684728 0
M  V30 1907 C 179.735 4.26078 -0.988741 0
M  V30 1908 C 178.794 5.25155 -0.331394 0
M  V30 1909 O 177.82 5.60701 -0.979926 0
M  V30 1910 N 179.022 5.73271 0.913261 0
M  V30 1911 H 181.787 2.5328 -1.60216 0
M  V30 1912 H 179.348 1.28491 -0.984971 0
M  V30 1913 H 181.34 4.02255 0.444191 0
M  V30 1914 H 179.91 3.02175 0.800551 0
M  V30 1915 H 179.13 3.59453 -1.61826 0
M  V30 1916 H 180.418 4.81178 -1.65364 0
M  V30 1917 H 179.816 5.46544 1.45966 0
M  V30 1918 H 178.373 6.3855 1.30757 0
M  V30 1919 N 181.806 0.884767 1.30421 0
M  V30 1920 C 183.052 0.503851 1.96441 0
M  V30 1921 C 183.385 -0.944518 1.69684 0
M  V30 1922 O 182.66 -1.66737 1.00145 0
M  V30 1923 C 182.943 0.779085 3.51571 0
M  V30 1924 C 182.796 2.27807 3.87846 0
M  V30 1925 C 184.115 0.255452 4.39358 0
M  V30 1926 H 181.234 0.184533 0.713524 0
M  V30 1927 H 183.876 1.10872 1.54297 0
M  V30 1928 H 182.026 0.264274 3.876 0
M  V30 1929 H 183.698 2.86127 3.61841 0
M  V30 1930 H 181.941 2.74479 3.35922 0
M  V30 1931 H 182.612 2.42125 4.96064 0
M  V30 1932 H 185.088 0.696079 4.10236 0
M  V30 1933 H 183.964 0.477361 5.4682 0
M  V30 1934 H 184.225 -0.843293 4.33983 0
M  V30 1935 N 183.284 -1.43765 0.645699 0
M  V30 1936 C 184.234 -2.27884 -0.0726442 0
M  V30 1937 C 185.218 -1.39483 -0.802086 0
M  V30 1938 O 186.41 -1.63174 -0.685791 0
M  V30 1939 C 183.539 -3.27055 -1.04356 0
M  V30 1940 C 182.625 -4.22944 -0.312985 0
M  V30 1941 N 183.016 -5.01391 0.666386 0
M  V30 1942 C 181.314 -4.42528 -0.55546 0
M  V30 1943 C 182.015 -5.71217 1.09935 0
M  V30 1944 N 180.991 -5.41856 0.435137 0
M  V30 1945 H 184.793 -2.85949 0.678988 0
M  V30 1946 H 182.307 -1.55378 0.472368 0
M  V30 1947 H 184.304 -3.86089 -1.57292 0
M  V30 1948 H 182.964 -2.70551 -1.79534 0
M  V30 1949 H 183.975 -5.07252 1.04481 0
M  V30 1950 H 180.652 -3.97104 -1.28899 0
M  V30 1951 H 182.042 -6.44202 1.90929 0
M  V30 1952 N 184.763 -0.387143 -1.52771 0
M  V30 1953 C 186.009 0.188506 -2.02525 0
M  V30 1954 C 186.364 1.44649 -1.26864 0
M  V30 1955 O 185.657 1.88189 -0.359945 0
M  V30 1956 C 185.851 0.512209 -3.53711 0
M  V30 1957 C 185.68 -0.712855 -4.44014 0
M  V30 1958 C 184.45 -1.23147 -4.90064 0
M  V30 1959 C 186.648 -1.58453 -4.89282 0
M  V30 1960 N 184.63 -2.41431 -5.64433 0
M  V30 1961 C 186.001 -2.61381 -5.6221 0
M  V30 1962 C 188.056 -1.60488 -4.71326 0
M  V30 1963 C 186.759 -3.66227 -6.19088 0
M  V30 1964 C 188.785 -2.6424 -5.29085 0
M  V30 1965 C 188.147 -3.6589 -6.01917 0
M  V30 1966 H 184.246 0.0311236 -0.78138 0
M  V30 1967 H 186.83 -0.536548 -1.87161 0
M  V30 1968 H 185.001 1.20632 -3.69192 0
M  V30 1969 H 186.733 1.07482 -3.90166 0
M  V30 1970 H 183.488 -0.792795 -4.66917 0
M  V30 1971 H 183.912 -3.01274 -6.0627 0
M  V30 1972 H 188.554 -0.83247 -4.14524 0
M  V30 1973 H 186.272 -4.44337 -6.74974 0
M  V30 1974 H 189.858 -2.66695 -5.17074 0
M  V30 1975 H 188.738 -4.44855 -6.45813 0
M  V30 1976 N 186.241 1.57166 -0.116904 0
M  V30 1977 C 187.652 1.82169 0.408809 0
M  V30 1978 C 188.003 1.03393 1.66746 0
M  V30 1979 O 187.128 0.269886 2.1471 0
M  V30 1980 C 187.723 3.30429 0.748466 0
M  V30 1981 C 186.282 3.5612 1.21882 0
M  V30 1982 C 185.429 2.76374 0.226452 0
M  V30 1983 H 188.38 1.5497 -0.342063 0
M  V30 1984 H 188.401 3.44943 1.60607 0
M  V30 1985 H 187.913 3.87737 -0.167784 0
M  V30 1986 H 186.014 3.04168 2.15204 0
M  V30 1987 H 186.127 4.64705 1.16559 0
M  V30 1988 H 184.491 2.44515 0.713063 0
M  V30 1989 H 185.274 3.3644 -0.682859 0
M  V30 1990 N 187.719 -0.156864 1.56817 0
M  V30 1991 C 188.996 -0.899244 1.73704 0
M  V30 1992 C 189.376 -1.99771 0.682254 0
M  V30 1993 O 188.724 -2.26515 -0.300522 0
M  V30 1994 C 188.934 -1.45075 3.17418 0
M  V30 1995 C 190.282 -1.91802 3.7881 0
M  V30 1996 O 191.306 -1.54838 3.20786 0
M  V30 1997 O 190.165 -2.5994 4.80722 0
M  V30 1998 H 187.259 -0.424267 0.709878 0
M  V30 1999 H 189.805 -0.143561 1.69092 0
M  V30 2000 H 188.577 -0.660846 3.85679 0
M  V30 2001 H 188.2 -2.27021 3.26416 0
M  V30 2002 N 189.197 -1.51736 -0.425897 0
M  V30 2003 C 190.608 -1.5732 -1.00536 0
M  V30 2004 C 190.959 -0.403537 -1.92005 0
M  V30 2005 O 190.084 0.478256 -2.11049 0
M  V30 2006 C 190.679 -2.85119 -1.8301 0
M  V30 2007 C 189.238 -2.93236 -2.35987 0
M  V30 2008 C 188.385 -2.52098 -1.15508 0
M  V30 2009 H 191.336 -1.57348 -0.206739 0
M  V30 2010 H 191.357 -2.69526 -2.68581 0
M  V30 2011 H 190.869 -3.7023 -1.16411 0
M  V30 2012 H 188.97 -2.12581 -3.06007 0
M  V30 2013 H 189.083 -3.9713 -2.68001 0
M  V30 2014 H 187.447 -2.05558 -1.50393 0
M  V30 2015 H 188.23 -3.39565 -0.505014 0
M  V30 2016 N 190.675 0.682077 -1.42076 0
M  V30 2017 C 191.605 1.80796 -1.47767 0
M  V30 2018 C 192.586 1.6677 -0.334954 0
M  V30 2019 O 193.771 1.863 -0.548264 0
M  V30 2020 C 190.901 3.19038 -1.37229 0
M  V30 2021 C 189.855 3.47789 -2.49453 0
M  V30 2022 C 189.181 4.8553 -2.23975 0
M  V30 2023 C 190.481 3.45411 -3.91776 0
M  V30 2024 H 192.175 1.7629 -2.41997 0
M  V30 2025 H 189.721 0.846721 -1.16476 0
M  V30 2026 H 191.674 3.97528 -1.39821 0
M  V30 2027 H 190.398 3.24204 -0.394907 0
M  V30 2028 H 189.057 2.71657 -2.46166 0
M  V30 2029 H 188.705 4.87337 -1.24547 0
M  V30 2030 H 188.405 5.0573 -2.99184 0
M  V30 2031 H 189.929 5.66312 -2.28304 0
M  V30 2032 H 191.343 4.13882 -3.96705 0
M  V30 2033 H 189.74 3.77145 -4.66778 0
M  V30 2034 H 190.81 2.44122 -4.18966 0
M  V30 2035 N 192.153 1.28127 0.917671 0
M  V30 2036 C 193.399 1.15223 1.66888 0
M  V30 2037 C 193.732 -0.299293 1.9188 0
M  V30 2038 O 193.007 -1.21805 1.51637 0
M  V30 2039 C 193.29 1.94706 3.02922 0
M  V30 2040 C 193.143 3.47898 2.85109 0
M  V30 2041 C 194.462 1.75939 4.03402 0
M  V30 2042 H 191.581 0.419946 0.605652 0
M  V30 2043 H 194.223 1.57398 1.06423 0
M  V30 2044 H 192.373 1.58864 3.54534 0
M  V30 2045 H 194.045 3.93624 2.40537 0
M  V30 2046 H 192.288 3.7373 2.20246 0
M  V30 2047 H 192.959 3.98765 3.81694 0
M  V30 2048 H 195.435 2.07209 3.60837 0
M  V30 2049 H 194.311 2.33931 4.96556 0
M  V30 2050 H 194.572 0.709877 4.36364 0
M  V30 2051 N 193.631 -1.12557 1.10312 0
M  V30 2052 C 195.042 -1.65574 0.862678 0
M  V30 2053 C 195.393 -1.86566 -0.607256 0
M  V30 2054 O 194.518 -1.59121 -1.46662 0
M  V30 2055 C 195.113 -3.00776 1.55947 0
M  V30 2056 C 193.672 -3.50748 1.36576 0
M  V30 2057 C 192.819 -2.25797 1.60968 0
M  V30 2058 H 195.77 -0.963552 1.26101 0
M  V30 2059 H 195.791 -3.67185 0.997753 0
M  V30 2060 H 195.303 -2.85465 2.62928 0
M  V30 2061 H 193.404 -3.71245 0.317531 0
M  V30 2062 H 193.517 -4.30289 2.10686 0
M  V30 2063 H 191.881 -2.32841 1.03234 0
M  V30 2064 H 192.664 -2.13043 2.69198 0
M  V30 2065 N 195.109 -0.891671 -1.2995 0
M  V30 2066 C 196.358 -0.509521 -1.95158 0
M  V30 2067 C 196.671 0.947388 -1.71125 0
M  V30 2068 O 197.877 1.43669 -2.30372 0
M  V30 2069 C 196.333 -0.860315 -3.49466 0
M  V30 2070 C 195.941 -2.33545 -3.8231 0
M  V30 2071 C 197.685 -0.547687 -4.20952 0
M  V30 2072 C 195.592 -2.62752 -5.29826 0
M  V30 2073 H 194.522 -0.18682 -0.730489 0
M  V30 2074 H 197.173 -1.08756 -1.47798 0
M  V30 2075 H 195.555 -0.211285 -3.95436 0
M  V30 2076 H 196.729 -3.02936 -3.47227 0
M  V30 2077 H 195.044 -2.61629 -3.23944 0
M  V30 2078 H 197.641 -0.742854 -5.29515 0
M  V30 2079 H 197.984 0.51332 -4.13123 0
M  V30 2080 H 198.517 -1.1542 -3.80688 0
M  V30 2081 H 195.256 -3.6762 -5.42712 0
M  V30 2082 H 194.776 -1.97977 -5.66185 0
M  V30 2083 H 196.455 -2.48601 -5.97333 0
M  V30 2084 N 196.587 1.43421 -0.653314 0
M  V30 2085 C 197.497 2.34568 0.0388565 0
M  V30 2086 C 198.513 1.53888 0.81207 0
M  V30 2087 O 199.689 1.86539 0.759294 0
M  V30 2088 C 196.754 3.32167 0.993269 0
M  V30 2089 C 195.815 4.28751 0.216977 0
M  V30 2090 C 195.048 5.21688 1.12593 0
M  V30 2091 O 195.271 5.19052 2.36519 0
M  V30 2092 O 194.205 5.98919 0.598284 0
M  V30 2093 H 198.031 2.95251 -0.711386 0
M  V30 2094 H 195.616 1.43564 -0.413502 0
M  V30 2095 H 197.498 3.92183 1.54176 0
M  V30 2096 H 196.173 2.73987 1.72374 0
M  V30 2097 H 195.08 3.72215 -0.375101 0
M  V30 2098 H 196.413 4.89913 -0.473924 0
M  V30 2099 N 198.065 0.39524 1.52563 0
M  V30 2100 C 198.975 -0.444232 2.30356 0
M  V30 2101 C 199.991 -1.06615 1.37511 0
M  V30 2102 O 201.167 -1.07067 1.70583 0
M  V30 2103 C 198.232 -1.55315 3.09964 0
M  V30 2104 C 197.293 -0.955734 4.18526 0
M  V30 2105 C 196.526 -2.01181 4.9433 0
M  V30 2106 O 196.749 -3.22781 4.70285 0
M  V30 2107 O 195.683 -1.62579 5.79527 0
M  V30 2108 H 199.509 0.189667 3.03107 0
M  V30 2109 H 197.094 0.1588 1.48554 0
M  V30 2110 H 198.976 -2.19724 3.59582 0
M  V30 2111 H 197.651 -2.17191 2.4002 0
M  V30 2112 H 196.558 -0.274743 3.7309 0
M  V30 2113 H 197.891 -0.381109 4.90722 0
M  V30 2114 N 199.544 -1.57102 0.125237 0
M  V30 2115 C 200.772 -1.99761 -0.538797 0
M  V30 2116 C 201.187 -1.00503 -1.59827 0
M  V30 2117 O 200.544 0.00119474 -1.825 0
M  V30 2118 C 200.595 -3.42408 -1.15927 0
M  V30 2119 O 200.316 -4.37869 -0.142143 0
M  V30 2120 C 201.817 -4.00232 -1.90602 0
M  V30 2121 H 199.037 -0.655772 -0.14214 0
M  V30 2122 H 201.581 -2.03383 0.213413 0
M  V30 2123 H 199.736 -3.39706 -1.86223 0
M  V30 2124 H 200.15 -5.21128 -0.593775 0
M  V30 2125 H 201.624 -5.02105 -2.29335 0
M  V30 2126 H 202.101 -3.39721 -2.78363 0
M  V30 2127 H 202.707 -4.06499 -1.25055 0
M  V30 2128 N 201.022 0.148545 -1.56898 0
M  V30 2129 C 201.985 1.16736 -1.97244 0
M  V30 2130 C 202.985 1.35947 -0.858777 0
M  V30 2131 O 204.175 1.32966 -1.12542 0
M  V30 2132 C 201.307 2.52798 -2.28705 0
M  V30 2133 H 202.5 0.821279 -2.88435 0
M  V30 2134 H 200.053 0.391831 -1.51309 0
M  V30 2135 H 200.788 2.92381 -1.403 0
M  V30 2136 H 200.573 2.40216 -3.09901 0
M  V30 2137 H 202.063 3.26179 -2.60762 0
M  V30 2138 N 202.5 1.5196 0.417844 0
M  V30 2139 C 203.41 1.77554 1.53336 0
M  V30 2140 C 204.426 0.660655 1.6097 0
M  V30 2141 O 205.602 0.945099 1.77848 0
M  V30 2142 C 202.667 1.91291 2.89152 0
M  V30 2143 C 201.728 3.15183 2.91475 0
M  V30 2144 C 200.961 3.28256 4.20813 0
M  V30 2145 O 201.184 2.46798 5.14244 0
M  V30 2146 O 200.118 4.21356 4.29817 0
M  V30 2147 H 203.944 2.7222 1.34647 0
M  V30 2148 H 201.529 1.36698 0.602828 0
M  V30 2149 H 203.411 2.02199 3.69721 0
M  V30 2150 H 202.086 0.998129 3.07927 0
M  V30 2151 H 200.993 3.09739 2.09791 0
M  V30 2152 H 202.326 4.06414 2.77648 0
M  V30 2153 N 203.978 -0.674533 1.42435 0
M  V30 2154 C 205.224 -1.43671 1.43131 0
M  V30 2155 C 205.557 -1.94142 0.0476021 0
M  V30 2156 O 204.832 -1.70924 -0.928188 0
M  V30 2157 C 205.115 -2.63355 2.45594 0
M  V30 2158 C 204.968 -2.18514 3.93156 0
M  V30 2159 C 206.287 -3.65571 2.45043 0
M  V30 2160 H 203.406 -0.521077 0.521198 0
M  V30 2161 H 206.048 -0.766551 1.7385 0
M  V30 2162 H 204.198 -3.2053 2.19528 0
M  V30 2163 H 205.87 -1.66504 4.30202 0
M  V30 2164 H 204.113 -1.50086 4.07009 0
M  V30 2165 H 204.784 -3.04484 4.60428 0
M  V30 2166 H 207.26 -3.18113 2.68223 0
M  V30 2167 H 206.136 -4.46893 3.18713 0
M  V30 2168 H 206.397 -4.16716 1.47649 0
M  V30 2169 N 205.456 -1.28612 -0.910864 0
M  V30 2170 C 206.389 -1.07109 -2.01502 0
M  V30 2171 C 207.367 0.013706 -1.62594 0
M  V30 2172 O 208.551 -0.134796 -1.88017 0
M  V30 2173 C 205.678 -0.628255 -3.32822 0
M  V30 2174 C 204.724 -1.71012 -3.90714 0
M  V30 2175 S 205.557 -3.30676 -4.21205 0
M  V30 2176 C 206.713 -2.88234 -5.55583 0
M  V30 2177 H 206.946 -2.00591 -2.19432 0
M  V30 2178 H 204.479 -1.12633 -1.05609 0
M  V30 2179 H 206.437 -0.37946 -4.08742 0
M  V30 2180 H 205.098 0.28678 -3.12788 0
M  V30 2181 H 204.291 -1.35195 -4.85529 0
M  V30 2182 H 203.893 -1.91186 -3.21441 0
M  V30 2183 H 206.185 -2.34584 -6.35591 0
M  V30 2184 H 207.128 -3.81857 -5.96314 0
M  V30 2185 H 207.536 -2.26862 -5.16908 0
M  V30 2186 N 206.934 1.1197 -1.10907 0
M  V30 2187 C 207.881 2.17846 -0.762345 0
M  V30 2188 C 208.851 1.63995 0.263599 0
M  V30 2189 O 210.036 1.90273 0.141773 0
M  V30 2190 C 207.176 3.44487 -0.205651 0
M  V30 2191 C 206.289 4.12369 -1.28748 0
M  V30 2192 C 205.424 5.26674 -0.691919 0
M  V30 2193 C 204.463 5.86431 -1.75399 0
M  V30 2194 N 203.6 6.92142 -1.17833 0
M  V30 2195 H 208.44 2.46851 -1.6694 0
M  V30 2196 H 205.977 1.21188 -0.833776 0
M  V30 2197 H 207.935 4.16981 0.135037 0
M  V30 2198 H 206.565 3.15884 0.664613 0
M  V30 2199 H 205.617 3.38003 -1.74522 0
M  V30 2200 H 206.929 4.52844 -2.09125 0
M  V30 2201 H 206.083 6.05953 -0.300963 0
M  V30 2202 H 204.822 4.8749 0.143232 0
M  V30 2203 H 203.827 5.05835 -2.15432 0
M  V30 2204 H 205.052 6.27685 -2.59208 0
M  V30 2205 H 202.998 6.54985 -0.364725 0
M  V30 2206 H 202.915 7.31242 -1.91887 0
M  V30 2207 H 204.183 7.75237 -0.81408 0
M  V30 2208 N 208.412 0.89855 1.29475 0
M  V30 2209 C 209.322 0.379974 2.31502 0
M  V30 2210 C 210.338 -0.524695 1.659 0
M  V30 2211 O 211.514 -0.414551 1.97087 0
M  V30 2212 C 208.579 -0.385138 3.44554 0
M  V30 2213 C 207.64 0.550914 4.2575 0
M  V30 2214 C 206.873 -0.177778 5.33404 0
M  V30 2215 O 207.096 -1.40189 5.52904 0
M  V30 2216 O 206.03 0.479106 5.9999 0
M  V30 2217 H 209.856 1.22639 2.77837 0
M  V30 2218 H 207.441 0.662834 1.33891 0
M  V30 2219 H 209.323 -0.817841 4.13388 0
M  V30 2220 H 207.998 -1.20763 3.0033 0
M  V30 2221 H 206.905 1.03271 3.59564 0
M  V30 2222 H 208.238 1.33979 4.73614 0
M  V30 2223 N 209.89 -1.43072 0.660911 0
M  V30 2224 C 210.82 -2.33497 -0.0122829 0
M  V30 2225 C 211.801 -1.49903 -0.803925 0
M  V30 2226 O 212.986 -1.78546 -0.763864 0
M  V30 2227 C 210.116 -3.33363 -0.973994 0
M  V30 2228 C 209.07 -4.27003 -0.291928 0
M  V30 2229 C 208.396 -5.16967 -1.36562 0
M  V30 2230 C 209.696 -5.15816 0.820462 0
M  V30 2231 H 211.39 -2.90038 0.742873 0
M  V30 2232 H 208.936 -1.39461 0.358688 0
M  V30 2233 H 210.889 -3.95524 -1.45392 0
M  V30 2234 H 209.613 -2.75095 -1.7604 0
M  V30 2235 H 208.272 -3.66217 0.167623 0
M  V30 2236 H 207.92 -4.55034 -2.14366 0
M  V30 2237 H 207.62 -5.80441 -0.914454 0
M  V30 2238 H 209.144 -5.82003 -1.84675 0
M  V30 2239 H 210.558 -5.71742 0.422366 0
M  V30 2240 H 208.955 -5.8805 1.19656 0
M  V30 2241 H 210.025 -4.55045 1.67518 0
M  V30 2242 N 211.368 -0.403325 -1.52352 0
M  V30 2243 C 212.598 0.17376 -2.05868 0
M  V30 2244 C 213.006 1.39898 -1.27378 0
M  V30 2245 O 212.349 1.80939 -0.31729 0
M  V30 2246 C 212.411 0.594756 -3.54546 0
M  V30 2247 C 212.075 -0.518926 -4.54044 0
M  V30 2248 C 213.072 -1.3807 -5.01231 0
M  V30 2249 C 210.757 -0.689961 -4.97539 0
M  V30 2250 C 212.751 -2.39852 -5.90551 0
M  V30 2251 C 210.438 -1.71109 -5.86656 0
M  V30 2252 C 211.436 -2.56378 -6.33056 0
M  V30 2253 O 211.124 -3.56743 -7.20409 0
M  V30 2254 H 210.856 0.0264951 -0.675481 0
M  V30 2255 H 213.41 -0.571179 -1.97299 0
M  V30 2256 H 211.64 1.39189 -3.60782 0
M  V30 2257 H 213.329 1.0991 -3.90736 0
M  V30 2258 H 214.095 -1.25994 -4.68349 0
M  V30 2259 H 209.974 -0.035939 -4.60986 0
M  V30 2260 H 213.518 -3.06441 -6.26689 0
M  V30 2261 H 209.415 -1.83218 -6.18952 0
M  V30 2262 H 210.183 -3.52918 -7.38506 0
M  V30 2263 N 212.846 1.57033 -0.133567 0
M  V30 2264 C 214.123 1.87256 0.56522 0
M  V30 2265 C 214.503 1.03726 1.83859 0
M  V30 2266 O 213.851 0.120247 2.28183 0
M  V30 2267 C 214.061 3.3865 0.843636 0
M  V30 2268 C 215.409 4.07574 1.19032 0
M  V30 2269 O 216.433 3.43752 0.933429 0
M  V30 2270 O 215.292 5.20259 1.67312 0
M  V30 2271 H 212.386 0.775678 0.286796 0
M  V30 2272 H 214.932 1.68855 -0.169168 0
M  V30 2273 H 213.704 3.91257 -0.0581149 0
M  V30 2274 H 213.327 3.62532 1.63268 0
M  V30 2275 N 214.325 -0.140222 1.56975 0
M  V30 2276 C 215.288 -1.15689 1.97861 0
M  V30 2277 C 216.288 -1.3549 0.865974 0
M  V30 2278 O 217.478 -1.32367 1.13246 0
M  V30 2279 C 214.61 -2.51582 2.30042 0
M  V30 2280 H 215.803 -0.805971 2.88867 0
M  V30 2281 H 213.356 -0.383801 1.51515 0
M  V30 2282 H 214.091 -2.91632 1.41849 0
M  V30 2283 H 213.876 -2.38569 3.11171 0
M  V30 2284 H 215.366 -3.24792 2.62488 0
M  V30 2285 N 215.803 -1.52179 -0.40978 0
M  V30 2286 C 217.051 -1.65878 -1.15451 0
M  V30 2287 C 217.372 -0.390771 -1.91044 0
M  V30 2288 O 216.642 0.594323 -1.86667 0
M  V30 2289 H 215.222 -0.611405 -0.429177 0
M  V30 2290 H 217.884 -1.89219 -0.467134 0
M  V30 2291 H 216.98 -2.49954 -1.86894 0
M  V30 2292 N 217.281 0.66697 -1.42791 0
M  V30 2293 C 218.228 1.7803 -1.4688 0
M  V30 2294 C 219.198 1.6299 -0.319919 0
M  V30 2295 O 220.383 1.83432 -0.525118 0
M  V30 2296 C 217.523 3.1611 -1.38451 0
M  V30 2297 C 216.636 3.42381 -2.63437 0
M  V30 2298 C 215.771 4.70232 -2.47094 0
M  V30 2299 C 214.81 4.89564 -3.67415 0
M  V30 2300 N 213.947 6.08661 -3.49966 0
M  V30 2301 H 218.787 1.7387 -2.42019 0
M  V30 2302 H 216.324 0.84868 -1.20149 0
M  V30 2303 H 218.282 3.95914 -1.31561 0
M  V30 2304 H 216.912 3.19374 -0.469033 0
M  V30 2305 H 215.964 2.56774 -2.80662 0
M  V30 2306 H 217.276 3.52557 -3.52853 0
M  V30 2307 H 216.43 5.5814 -2.37834 0
M  V30 2308 H 215.169 4.62353 -1.5518 0
M  V30 2309 H 214.174 4.00096 -3.77099 0
M  V30 2310 H 215.399 4.99282 -4.6032 0
M  V30 2311 H 213.345 6.0194 -2.60776 0
M  V30 2312 H 213.262 6.19733 -4.32975 0
M  V30 2313 H 214.53 6.99226 -3.44532 0
M  V30 2314 N 218.759 1.29093 0.90403 0
M  V30 2315 C 220.008 1.16187 1.64874 0
M  V30 2316 C 220.321 -0.286742 1.93487 0
M  V30 2317 O 221.527 -0.537062 2.66135 0
M  V30 2318 C 219.983 2.03177 2.97064 0
M  V30 2319 C 219.591 3.52836 2.76062 0
M  V30 2320 C 221.335 1.98984 3.74974 0
M  V30 2321 C 219.242 4.31945 4.03952 0
M  V30 2322 H 218.172 0.431246 0.618501 0
M  V30 2323 H 220.823 1.53699 1.00243 0
M  V30 2324 H 219.205 1.5853 3.62883 0
M  V30 2325 H 220.379 4.05507 2.18863 0
M  V30 2326 H 218.694 3.58656 2.11553 0
M  V30 2327 H 221.291 2.55351 4.69787 0
M  V30 2328 H 221.634 0.968815 4.0487 0
M  V30 2329 H 222.167 2.41652 3.15989 0
M  V30 2330 H 218.906 5.34667 3.79225 0
M  V30 2331 H 218.426 3.84045 4.60727 0
M  V30 2332 H 220.105 4.42379 4.72133 0
M  V30 2333 N 220.237 -1.11381 1.11499 0
M  V30 2334 C 221.653 -1.35143 0.849031 0
M  V30 2335 C 221.853 -1.94515 -0.525938 0
M  V30 2336 O 220.909 -2.1785 -1.27662 0
M  V30 2337 C 222.222 -2.28249 1.95762 0
M  V30 2338 C 223.77 -2.41812 1.98736 0
M  V30 2339 C 224.245 -3.3824 3.088 0
M  V30 2340 N 225.736 -3.45803 3.08179 0
M  V30 2341 C 226.471 -4.20358 3.89982 0
M  V30 2342 N 225.967 -4.97884 4.8175 0
M  V30 2343 N 227.76 -4.15877 3.78157 0
M  V30 2344 H 219.911 -0.712062 2.00109 0
M  V30 2345 H 222.174 -0.376025 0.870235 0
M  V30 2346 H 221.88 -1.91817 2.94787 0
M  V30 2347 H 221.754 -3.28473 1.85433 0
M  V30 2348 H 224.141 -2.77518 1.00338 0
M  V30 2349 H 224.222 -1.41437 2.13141 0
M  V30 2350 H 223.866 -3.03261 4.07425 0
M  V30 2351 H 223.796 -4.38471 2.91635 0
M  V30 2352 H 226.287 -2.90506 2.41691 0
M  V30 2353 H 226.6 -5.52142 5.40702 0
M  V30 2354 H 224.945 -4.97043 4.85771 0
M  V30 2355 H 228.136 -3.544 3.05808 0
M  V30 2356 H 228.309 -4.73723 4.42143 0
M  V30 2357 N 221.715 -0.905404 -1.28997 0
M  V30 2358 C 222.678 -0.392253 -2.25819 0
M  V30 2359 C 223.678 0.476753 -1.5357 0
M  V30 2360 O 224.868 0.280994 -1.71919 0
M  V30 2361 C 222 0.438588 -3.38067 0
M  V30 2362 H 223.193 -1.24743 -2.72725 0
M  V30 2363 H 220.746 -0.684051 -1.40536 0
M  V30 2364 H 221.481 1.31352 -2.96508 0
M  V30 2365 H 221.266 -0.184167 -3.91667 0
M  V30 2366 H 222.756 0.78873 -4.10084 0
M  V30 2367 N 223.193 1.4272 -0.668489 0
M  V30 2368 C 224.442 2.00846 -0.185389 0
M  V30 2369 C 224.755 1.53442 1.21305 0
M  V30 2370 O 225.961 2.03944 1.79218 0
M  V30 2371 C 224.417 3.58805 -0.280591 0
M  V30 2372 C 224.025 4.15198 -1.68268 0
M  V30 2373 C 225.769 4.24255 0.14412 0
M  V30 2374 C 223.676 5.655 -1.73099 0
M  V30 2375 H 222.606 0.751145 -0.0655475 0
M  V30 2376 H 225.257 1.63516 -0.832752 0
M  V30 2377 H 223.639 3.93608 0.434553 0
M  V30 2378 H 224.813 3.91866 -2.42441 0
M  V30 2379 H 223.128 3.62176 -2.05469 0
M  V30 2380 H 225.725 5.34547 0.128086 0
M  V30 2381 H 226.068 3.99277 1.17827 0
M  V30 2382 H 226.601 3.94389 -0.519798 0
M  V30 2383 H 223.34 5.95268 -2.74475 0
M  V30 2384 H 222.86 5.90842 -1.03274 0
M  V30 2385 H 224.539 6.29808 -1.48158 0
M  V30 2386 N 224.671 0.411399 1.52136 0
M  V30 2387 C 225.919 -0.163322 2.01439 0
M  V30 2388 C 226.24 -1.45453 1.29879 0
M  V30 2389 O 225.51 -1.91225 0.4254 0
M  V30 2390 H 224.09 -0.0633447 0.744309 0
M  V30 2391 H 226.752 0.548161 1.87033 0
M  V30 2392 H 225.848 -0.357817 3.10042 0
M  V30 2393 N 226.149 -1.5696 0.141893 0
M  V30 2394 C 227.395 -1.9625 -0.511248 0
M  V30 2395 C 227.728 -1.02654 -1.64851 0
M  V30 2396 O 227.003 -0.0679676 -1.94381 0
M  V30 2397 C 227.286 -3.45285 -1.02227 0
M  V30 2398 C 227.139 -4.49658 0.113138 0
M  V30 2399 C 228.458 -3.96698 -1.90574 0
M  V30 2400 H 225.577 -0.713567 -0.184367 0
M  V30 2401 H 228.219 -1.88698 0.222087 0
M  V30 2402 H 226.369 -3.51852 -1.64719 0
M  V30 2403 H 228.041 -4.55174 0.749302 0
M  V30 2404 H 226.284 -4.26857 0.773026 0
M  V30 2405 H 226.955 -5.51258 -0.286053 0
M  V30 2406 H 229.431 -3.92578 -1.37918 0
M  V30 2407 H 228.307 -5.01453 -2.2324 0
M  V30 2408 H 228.568 -3.3875 -2.84079 0
M  V30 2409 N 227.627 0.131896 -1.57047 0
M  V30 2410 C 228.852 0.860418 -1.8871 0
M  V30 2411 C 229.277 1.73251 -0.73251 0
M  V30 2412 O 228.635 1.785 0.317429 0
M  V30 2413 C 228.683 1.68047 -3.19049 0
M  V30 2414 O 227.787 2.7862 -3.04047 0
M  V30 2415 H 227.128 0.238743 -0.619595 0
M  V30 2416 H 229.658 0.118169 -2.04258 0
M  V30 2417 H 229.668 2.07238 -3.51449 0
M  V30 2418 H 228.343 1.04018 -4.02682 0
M  V30 2419 H 226.92 2.42726 -2.83088 0
M  V30 2420 N 229.106 1.52395 0.401703 0
M  V30 2421 C 230.054 1.7689 1.51039 0
M  V30 2422 C 231.048 0.636298 1.56996 0
M  V30 2423 O 232.254 0.818507 1.60314 0
M  V30 2424 H 228.629 0.559502 0.502456 0
M  V30 2425 H 230.6 2.69757 1.27568 0
M  V30 2426 C 229.349 1.94331 2.88324 0
M  V30 2427 H 228.672 2.80905 2.84486 0
M  V30 2428 H 230.112 2.15466 3.65172 0
M  V30 2429 C 228.571 0.712396 3.29282 0
M  V30 2430 O 229.101 -0.116218 4.01532 0
M  V30 2431 N 227.307 0.546154 2.85422 0
M  V30 2432 H 226.854 1.22156 2.26794 0
M  V30 2433 H 226.812 -0.276113 3.13185 0
M  V30 2434 N 230.584 -0.659388 1.43143 0
M  V30 2435 C 231.831 -1.41935 1.44433 0
M  V30 2436 C 232.159 -1.94387 0.0663522 0
M  V30 2437 O 231.414 -1.72314 -0.927706 0
M  V30 2438 C 231.713 -2.62206 2.42864 0
M  V30 2439 C 231.379 -2.28208 3.88886 0
M  V30 2440 C 230.041 -2.18647 4.28657 0
M  V30 2441 C 232.393 -2.00887 4.8093 0
M  V30 2442 C 229.721 -1.79914 5.58433 0
M  V30 2443 C 232.073 -1.63653 6.11065 0
M  V30 2444 C 230.737 -1.52614 6.49819 0
M  V30 2445 H 230.007 -0.519376 0.528517 0
M  V30 2446 H 232.654 -0.750453 1.76183 0
M  V30 2447 H 230.959 -3.34199 2.04495 0
M  V30 2448 H 232.656 -3.2041 2.41119 0
M  V30 2449 H 229.246 -2.36557 3.57406 0
M  V30 2450 H 233.43 -2.07198 4.5098 0
M  V30 2451 H 228.686 -1.69948 5.87305 0
M  V30 2452 H 232.86 -1.41543 6.81864 0
M  V30 2453 H 230.487 -1.22371 7.50286 0
M  V30 2454 N 232.062 -1.29571 -0.897171 0
M  V30 2455 C 233.287 -1.20705 -1.68656 0
M  V30 2456 C 233.712 0.228582 -1.86706 0
M  V30 2457 O 233.07 1.16494 -1.3892 0
M  V30 2458 C 233.118 -1.9282 -3.04717 0
M  V30 2459 O 232.222 -1.24697 -3.93096 0
M  V30 2460 H 231.563 -0.418126 -0.515816 0
M  V30 2461 H 234.093 -1.71183 -1.12061 0
M  V30 2462 H 234.103 -2.01372 -3.54843 0
M  V30 2463 H 232.778 -2.97239 -2.90899 0
M  V30 2464 H 231.355 -1.2442 -3.51531 0
M  V30 2465 N 233.54 1.10788 -1.12088 0
M  V30 2466 C 234.789 1.82036 -0.868659 0
M  V30 2467 C 235.102 1.85929 0.607426 0
M  V30 2468 O 236.308 2.53346 0.97613 0
M  V30 2469 C 234.764 3.26951 -1.50435 0
M  V30 2470 C 234.372 3.31367 -3.01496 0
M  V30 2471 C 236.116 4.03053 -1.33225 0
M  V30 2472 C 234.023 4.7072 -3.58017 0
M  V30 2473 H 232.953 0.682108 -0.321318 0
M  V30 2474 H 235.604 1.24618 -1.34694 0
M  V30 2475 H 233.986 3.84343 -0.953735 0
M  V30 2476 H 235.16 2.83819 -3.6302 0
M  V30 2477 H 233.475 2.6875 -3.18061 0
M  V30 2478 H 236.072 5.05981 -1.72878 0
M  V30 2479 H 236.415 4.15387 -0.275529 0
M  V30 2480 H 236.948 3.52066 -1.85188 0
M  V30 2481 H 233.687 4.63585 -4.63432 0
M  V30 2482 H 233.207 5.1865 -3.01268 0
M  V30 2483 H 234.886 5.39685 -3.56859 0
M  V30 2484 N 235.018 0.912232 1.28515 0
M  V30 2485 C 235.928 0.404506 2.31086 0
M  V30 2486 C 236.944 -0.50707 1.66448 0
M  V30 2487 O 238.12 -0.393624 1.97516 0
M  V30 2488 C 235.185 -0.348572 3.44943 0
M  V30 2489 C 234.246 0.59604 4.25142 0
M  V30 2490 C 233.479 -0.121194 5.33562 0
M  V30 2491 O 233.702 -1.34317 5.5436 0
M  V30 2492 O 232.636 0.542716 5.99448 0
M  V30 2493 H 236.462 1.25579 2.76521 0
M  V30 2494 H 234.047 0.676998 1.33181 0
M  V30 2495 H 235.929 -0.77395 4.14232 0
M  V30 2496 H 234.604 -1.17571 3.01594 0
M  V30 2497 H 233.511 1.07079 3.58448 0
M  V30 2498 H 234.844 1.38995 4.72167 0
M  V30 2499 N 236.496 -1.42363 0.676048 0
M  V30 2500 C 237.428 -2.29164 -0.0404605 0
M  V30 2501 C 238.441 -1.43747 -0.764245 0
M  V30 2502 O 239.63 -1.67453 -0.618195 0
M  V30 2503 C 236.73 -3.21196 -1.08103 0
M  V30 2504 C 235.903 -4.35273 -0.430812 0
M  V30 2505 C 234.962 -5.08017 -1.37133 0
M  V30 2506 O 233.988 -5.62494 -0.87116 0
M  V30 2507 N 235.19 -5.13647 -2.70456 0
M  V30 2508 H 237.955 -2.91298 0.704667 0
M  V30 2509 H 235.516 -1.53303 0.520559 0
M  V30 2510 H 237.508 -3.66728 -1.71152 0
M  V30 2511 H 236.078 -2.60505 -1.72788 0
M  V30 2512 H 235.298 -3.92372 0.379209 0
M  V30 2513 H 236.586 -5.08795 0.0221132 0
M  V30 2514 H 235.984 -4.708 -3.1363 0
M  V30 2515 H 234.541 -5.62821 -3.28749 0
M  V30 2516 N 237.974 -0.419461 -1.51915 0
M  V30 2517 C 238.907 0.445751 -2.23804 0
M  V30 2518 C 239.885 1.03951 -1.25031 0
M  V30 2519 O 241.069 1.08541 -1.54114 0
M  V30 2520 C 238.196 1.61964 -2.97465 0
M  V30 2521 C 237.242 1.14828 -4.10751 0
M  V30 2522 S 238.075 0.104938 -5.35397 0
M  V30 2523 C 239.231 1.28391 -6.1259 0
M  V30 2524 H 239.464 -0.164627 -2.96844 0
M  V30 2525 H 236.997 -0.203833 -1.53049 0
M  V30 2526 H 238.955 2.29271 -3.40507 0
M  V30 2527 H 237.616 2.20139 -2.24048 0
M  V30 2528 H 236.809 2.02561 -4.61503 0
M  V30 2529 H 236.411 0.553712 -3.69878 0
M  V30 2530 H 238.703 2.20563 -6.40592 0
M  V30 2531 H 239.646 0.816724 -7.03374 0
M  V30 2532 H 240.054 1.51439 -5.43807 0
M  V30 2533 N 239.452 1.56882 -0.150215 0
M  V30 2534 C 240.729 1.87844 0.545327 0
M  V30 2535 C 241.109 1.0567 1.82749 0
M  V30 2536 O 240.457 0.144442 2.28043 0
M  V30 2537 C 240.667 3.39526 0.80767 0
M  V30 2538 C 242.015 4.08814 1.14703 0
M  V30 2539 O 243.039 3.44723 0.896917 0
M  V30 2540 O 241.898 5.22004 1.61784 0
M  V30 2541 H 238.992 0.778677 0.278553 0
M  V30 2542 H 241.538 1.68666 -0.187068 0
M  V30 2543 H 240.31 3.91173 -0.0996096 0
M  V30 2544 H 239.933 3.64243 1.59413 0
M  V30 2545 N 240.93 -0.123565 1.57115 0
M  V30 2546 C 242.158 -0.846461 1.88793 0
M  V30 2547 C 242.573 -1.73652 0.740976 0
M  V30 2548 O 241.93 -1.80207 -0.288393 0
M  V30 2549 C 241.981 -1.6837 3.19897 0
M  V30 2550 O 241.702 -0.829477 4.30176 0
M  V30 2551 C 243.203 -2.51214 3.65248 0
M  V30 2552 H 240.423 -0.243573 0.625231 0
M  V30 2553 H 242.967 -0.109324 2.04208 0
M  V30 2554 H 241.122 -2.37364 3.06165 0
M  V30 2555 H 241.536 -1.40651 5.0529 0
M  V30 2556 H 243.01 -3.05497 4.59756 0
M  V30 2557 H 243.487 -3.28359 2.9168 0
M  V30 2558 H 244.093 -1.8747 3.81752 0
M  V30 2559 N 242.408 -1.52605 -0.393616 0
M  V30 2560 C 243.655 -1.67424 -1.1391 0
M  V30 2561 C 243.983 -0.411859 -1.90089 0
M  V30 2562 O 243.238 0.605626 -1.86093 0
M  V30 2563 C 243.537 -2.85721 -2.14705 0
M  V30 2564 C 243.203 -4.23342 -1.55218 0
M  V30 2565 C 241.865 -4.60771 -1.3872 0
M  V30 2566 C 244.217 -5.09041 -1.11924 0
M  V30 2567 C 241.545 -5.81563 -0.774689 0
M  V30 2568 C 243.897 -6.30452 -0.520853 0
M  V30 2569 C 242.561 -6.66617 -0.343134 0
M  V30 2570 H 241.831 -0.612648 -0.416826 0
M  V30 2571 H 244.478 -1.8674 -0.424315 0
M  V30 2572 H 242.783 -2.60803 -2.92385 0
M  V30 2573 H 244.48 -2.94382 -2.72288 0
M  V30 2574 H 241.07 -3.93855 -1.69045 0
M  V30 2575 H 245.254 -4.80695 -1.23473 0
M  V30 2576 H 240.51 -6.08196 -0.625154 0
M  V30 2577 H 244.684 -6.96175 -0.177065 0
M  V30 2578 H 242.311 -7.60083 0.133571 0
M  V30 2579 N 243.887 0.651787 -1.4349 0
M  V30 2580 C 245.303 0.96762 -1.26922 0
M  V30 2581 C 245.503 2.00602 -0.189982 0
M  V30 2582 O 244.559 2.48793 0.431107 0
M  V30 2583 C 245.872 1.45052 -2.63401 0
M  V30 2584 C 247.42 1.5671 -2.70945 0
M  V30 2585 C 247.895 2.0839 -4.07845 0
M  V30 2586 N 249.386 2.1569 -4.09917 0
M  V30 2587 C 250.121 2.56804 -5.12679 0
M  V30 2588 N 249.617 2.97203 -6.25813 0
M  V30 2589 N 251.41 2.56756 -5.00033 0
M  V30 2590 H 243.561 -0.0353158 -2.12371 0
M  V30 2591 H 245.824 0.0467858 -0.946845 0
M  V30 2592 H 245.53 0.761926 -3.43348 0
M  V30 2593 H 245.404 2.42529 -2.88894 0
M  V30 2594 H 247.791 2.2467 -1.9133 0
M  V30 2595 H 247.872 0.57662 -2.49216 0
M  V30 2596 H 247.516 1.41031 -4.87927 0
M  V30 2597 H 247.446 3.08271 -4.26938 0
M  V30 2598 H 249.937 1.87237 -3.28254 0
M  V30 2599 H 250.25 3.27328 -7.00055 0
M  V30 2600 H 248.595 2.95004 -6.29283 0
M  V30 2601 H 251.786 2.24572 -4.10713 0
M  V30 2602 H 251.959 2.88475 -5.80247 0
M  V30 2603 N 245.365 1.30045 0.890287 0
M  V30 2604 C 246.328 1.15963 1.977 0
M  V30 2605 C 247.328 0.0923777 1.60534 0
M  V30 2606 O 248.518 0.340071 1.70848 0
M  V30 2607 C 245.65 0.775451 3.31963 0
M  V30 2608 H 246.843 2.12502 2.11619 0
M  V30 2609 H 244.396 1.13366 1.07601 0
M  V30 2610 H 245.131 -0.189671 3.23745 0
M  V30 2611 H 244.916 1.54668 3.60306 0
M  V30 2612 H 246.406 0.700251 4.11687 0
M  V30 2613 N 246.843 -1.10192 1.12674 0
M  V30 2614 C 248.089 -1.82475 0.884915 0
M  V30 2615 C 248.422 -1.85093 -0.58773 0
M  V30 2616 O 247.697 -1.3134 -1.43457 0
M  V30 2617 C 247.98 -3.29018 1.46353 0
M  V30 2618 C 247.833 -3.34718 3.00473 0
M  V30 2619 C 249.152 -4.25473 1.12519 0
M  V30 2620 H 246.271 -0.662492 0.322915 0
M  V30 2621 H 248.913 -1.2913 1.39375 0
M  V30 2622 H 247.063 -3.74576 1.03077 0
M  V30 2623 H 248.735 -2.97622 3.52447 0
M  V30 2624 H 246.978 -2.74541 3.35872 0
M  V30 2625 H 247.649 -4.37918 3.36053 0
M  V30 2626 H 250.125 -3.88161 1.499 0
M  V30 2627 H 249.001 -5.26365 1.55663 0
M  V30 2628 H 249.262 -4.42084 0.0377407 0
M  V30 2629 N 248.321 -0.919034 -1.28029 0
M  V30 2630 C 249.284 -0.416182 -2.2539 0
M  V30 2631 C 250.284 0.460438 -1.54067 0
M  V30 2632 O 251.474 0.262744 -1.72207 0
M  V30 2633 C 248.606 0.402707 -3.38513 0
M  V30 2634 H 249.799 -1.27629 -2.71387 0
M  V30 2635 H 247.352 -0.698919 -1.39803 0
M  V30 2636 H 248.087 1.282 -2.97885 0
M  V30 2637 H 247.872 -0.225698 -3.9145 0
M  V30 2638 H 249.362 0.745191 -4.10897 0
M  V30 2639 N 249.799 1.42003 -0.683588 0
M  V30 2640 C 251.21 1.84501 -0.285736 0
M  V30 2641 C 251.561 1.57213 1.17382 0
M  V30 2642 O 250.686 1.03642 1.89966 0
M  V30 2643 C 251.281 3.34912 -0.511821 0
M  V30 2644 C 249.84 3.76025 -0.168005 0
M  V30 2645 C 248.987 2.6551 -0.799983 0
M  V30 2646 H 251.938 1.31724 -0.885119 0
M  V30 2647 H 251.959 3.79784 0.233292 0
M  V30 2648 H 251.471 3.54741 -1.57418 0
M  V30 2649 H 249.572 3.61801 0.890567 0
M  V30 2650 H 249.685 4.75141 -0.614661 0
M  V30 2651 H 248.049 2.53654 -0.230568 0
M  V30 2652 H 248.832 2.8816 -1.86597 0
M  V30 2653 N 251.277 0.427512 1.51691 0
M  V30 2654 C 252.207 -0.3796 2.30394 0
M  V30 2655 C 253.188 -1.02982 1.35384 0
M  V30 2656 O 254.373 -1.03534 1.643 0
M  V30 2657 C 251.503 -1.48649 3.1388 0
M  V30 2658 C 250.457 -0.960294 4.17088 0
M  V30 2659 C 249.783 -2.16219 4.89033 0
M  V30 2660 C 251.083 -0.00153679 5.223 0
M  V30 2661 H 252.777 0.277164 2.98114 0
M  V30 2662 H 250.323 0.134739 1.43368 0
M  V30 2663 H 252.276 -2.05826 3.67714 0
M  V30 2664 H 251 -2.1714 2.43962 0
M  V30 2665 H 249.659 -0.410806 3.64291 0
M  V30 2666 H 249.307 -2.83307 4.15628 0
M  V30 2667 H 249.007 -1.81654 5.58816 0
M  V30 2668 H 250.531 -2.73968 5.45687 0
M  V30 2669 H 251.945 -0.482687 5.71264 0
M  V30 2670 H 250.342 0.256199 5.99553 0
M  V30 2671 H 251.412 0.938174 4.75738 0
M  V30 2672 N 252.755 -1.56801 0.158532 0
M  V30 2673 C 253.705 -2.13923 -0.788738 0
M  V30 2674 C 254.689 -1.07006 -1.2016 0
M  V30 2675 O 255.881 -1.33159 -1.1661 0
M  V30 2676 C 253.01 -2.77348 -2.02319 0
M  V30 2677 C 252.096 -3.91404 -1.6329 0
M  V30 2678 N 252.487 -4.9677 -0.951463 0
M  V30 2679 C 250.785 -4.02326 -1.92482 0
M  V30 2680 C 251.486 -5.76698 -0.761221 0
M  V30 2681 N 250.462 -5.27859 -1.29869 0
M  V30 2682 H 254.264 -2.92757 -0.258995 0
M  V30 2683 H 251.778 -1.62344 -0.0426055 0
M  V30 2684 H 253.775 -3.16639 -2.71192 0
M  V30 2685 H 252.435 -1.99991 -2.558 0
M  V30 2686 H 253.446 -5.14284 -0.610928 0
M  V30 2687 H 250.123 -3.36059 -2.47732 0
M  V30 2688 H 251.513 -6.71529 -0.223284 0
M  V30 2689 N 254.233 0.115231 -1.57178 0
M  V30 2690 C 255.461 0.836437 -1.89239 0
M  V30 2691 C 255.876 1.73256 -0.750175 0
M  V30 2692 O 255.233 1.80357 0.278832 0
M  V30 2693 C 255.284 1.66671 -3.20785 0
M  V30 2694 O 255.005 0.806652 -4.3061 0
M  V30 2695 C 256.506 2.49274 -3.66575 0
M  V30 2696 H 253.726 0.240253 -0.626514 0
M  V30 2697 H 256.27 0.0984932 -2.04263 0
M  V30 2698 H 254.425 2.35737 -3.0742 0
M  V30 2699 H 254.839 1.37969 -5.06028 0
M  V30 2700 H 256.313 3.03055 -4.6137 0
M  V30 2701 H 256.79 3.26807 -2.93417 0
M  V30 2702 H 257.396 1.85443 -3.82741 0
M  V30 2703 N 255.711 1.52812 0.385517 0
M  V30 2704 C 256.96 1.67249 1.12741 0
M  V30 2705 C 257.273 0.4205 1.91027 0
M  V30 2706 O 258.479 0.445064 2.67827 0
M  V30 2707 C 256.935 2.95583 2.05326 0
M  V30 2708 C 256.543 4.27974 1.32447 0
M  V30 2709 C 258.287 3.19386 2.7963 0
M  V30 2710 C 256.194 5.47412 2.23818 0
M  V30 2711 H 255.124 0.6231 0.424573 0
M  V30 2712 H 257.775 1.79309 0.389924 0
M  V30 2713 H 256.157 2.77277 2.82725 0
M  V30 2714 H 257.331 4.56844 0.602495 0
M  V30 2715 H 255.646 4.10459 0.700885 0
M  V30 2716 H 258.243 4.05801 3.48181 0
M  V30 2717 H 258.586 2.34604 3.43899 0
M  V30 2718 H 259.119 3.38274 2.09322 0
M  V30 2719 H 255.858 6.34612 1.64157 0
M  V30 2720 H 255.378 5.22849 2.93921 0
M  V30 2721 H 257.057 5.81423 2.83824 0
M  V30 2722 N 257.189 -0.644168 1.43834 0
M  V30 2723 C 258.121 -1.76955 1.45669 0
M  V30 2724 C 259.134 -1.58956 0.351666 0
M  V30 2725 O 260.323 -1.6751 0.616644 0
M  V30 2726 C 257.423 -3.14507 1.26248 0
M  V30 2727 C 256.596 -3.59083 2.49757 0
M  V30 2728 C 255.655 -4.75467 2.25427 0
M  V30 2729 O 254.681 -4.84444 2.98836 0
M  V30 2730 N 255.883 -5.66289 1.27661 0
M  V30 2731 H 258.648 -1.75856 2.42682 0
M  V30 2732 H 256.209 -0.828312 1.39106 0
M  V30 2733 H 258.201 -3.90067 1.0784 0
M  V30 2734 H 256.771 -3.10325 0.376478 0
M  V30 2735 H 255.991 -2.7387 2.8353 0
M  V30 2736 H 257.279 -3.85613 3.31934 0
M  V30 2737 H 256.677 -5.61718 0.670064 0
M  V30 2738 H 255.234 -6.41533 1.15234 0
M  V30 2739 N 258.668 -1.30515 -0.883378 0
M  V30 2740 C 260.079 -1.17509 -1.45081 0
M  V30 2741 C 260.43 0.223605 -1.94922 0
M  V30 2742 O 259.555 1.12041 -1.85137 0
M  V30 2743 C 260.15 -2.12715 -2.63701 0
M  V30 2744 C 258.709 -2.03682 -3.16529 0
M  V30 2745 C 257.856 -2.02706 -1.89224 0
M  V30 2746 H 260.807 -1.42762 -0.693165 0
M  V30 2747 H 260.828 -1.70891 -3.39965 0
M  V30 2748 H 260.34 -3.14505 -2.27395 0
M  V30 2749 H 258.441 -1.05039 -3.57488 0
M  V30 2750 H 258.554 -2.92146 -3.7972 0
M  V30 2751 H 256.918 -1.4753 -2.07622 0
M  V30 2752 H 257.701 -3.06229 -1.55174 0
M  V30 2753 N 260.146 1.09593 -1.13257 0
M  V30 2754 C 261.557 1.63229 -0.906274 0
M  V30 2755 C 261.908 1.8811 0.557578 0
M  V30 2756 O 261.033 1.62953 1.42391 0
M  V30 2757 C 261.628 2.96535 -1.63867 0
M  V30 2758 C 260.187 3.47003 -1.45828 0
M  V30 2759 C 259.334 2.2145 -1.66898 0
M  V30 2760 H 262.285 0.92978 -1.28611 0
M  V30 2761 H 262.306 3.64411 -1.09476 0
M  V30 2762 H 261.818 2.78394 -2.70404 0
M  V30 2763 H 259.919 3.70272 -0.415848 0
M  V30 2764 H 260.032 4.24551 -2.2202 0
M  V30 2765 H 258.396 2.30022 -1.09371 0
M  V30 2766 H 259.179 2.0583 -2.74752 0
M  V30 2767 N 261.624 0.925811 1.2754 0
M  V30 2768 C 262.854 0.580666 1.98272 0
M  V30 2769 C 263.262 -0.845207 1.69272 0
M  V30 2770 O 262.605 -1.57306 0.948707 0
M  V30 2771 C 262.667 0.724418 3.52126 0
M  V30 2772 C 262.331 2.12206 4.04744 0
M  V30 2773 C 263.328 3.09604 4.17662 0
M  V30 2774 C 261.013 2.4385 4.39138 0
M  V30 2775 C 263.007 4.36755 4.64246 0
M  V30 2776 C 260.694 3.71237 4.85414 0
M  V30 2777 C 261.692 4.67503 4.97926 0
M  V30 2778 O 261.38 5.92624 5.43187 0
M  V30 2779 H 261.112 0.218987 0.639547 0
M  V30 2780 H 263.666 1.24452 1.63404 0
M  V30 2781 H 261.896 0.0034663 3.867 0
M  V30 2782 H 263.585 0.384607 4.04074 0
M  V30 2783 H 264.351 2.86478 3.91351 0
M  V30 2784 H 260.23 1.69665 4.28643 0
M  V30 2785 H 263.774 5.11898 4.73927 0
M  V30 2786 H 259.671 3.94182 5.11166 0
M  V30 2787 H 260.439 5.95585 5.61445 0
M  V30 2788 N 263.102 -1.41638 0.69111 0
M  V30 2789 C 264.05 -2.32597 0.0115199 0
M  V30 2790 C 265.044 -1.5072 -0.773296 0
M  V30 2791 O 266.25 -1.66685 -0.67942 0
M  V30 2792 H 262.625 -0.751849 -0.0150746 0
M  V30 2793 H 264.596 -2.87593 0.795791 0
M  V30 2794 C 263.345 -3.35467 -0.914172 0
M  V30 2795 H 262.668 -3.9852 -0.319687 0
M  V30 2796 H 264.108 -4.01662 -1.35808 0
M  V30 2797 C 262.567 -2.69004 -2.02826 0
M  V30 2798 O 263.097 -2.53444 -3.11655 0
M  V30 2799 N 261.303 -2.2777 -1.80469 0
M  V30 2800 H 260.85 -2.40626 -0.919615 0
M  V30 2801 H 260.808 -1.83635 -2.55197 0
M  V30 2802 N 264.58 -0.43555 -1.51462 0
M  V30 2803 C 265.51 0.367376 -2.30592 0
M  V30 2804 C 266.491 1.02263 -1.35928 0
M  V30 2805 O 267.676 1.02661 -1.64847 0
M  V30 2806 C 264.806 1.46983 -3.14664 0
M  V30 2807 C 263.76 0.938161 -4.17591 0
M  V30 2808 C 263.086 2.13622 -4.90173 0
M  V30 2809 C 264.386 -0.0261621 -5.22293 0
M  V30 2810 H 266.08 -0.292969 -2.97963 0
M  V30 2811 H 263.626 -0.14234 -1.43295 0
M  V30 2812 H 265.579 2.03873 -3.688 0
M  V30 2813 H 264.303 2.15843 -2.4511 0
M  V30 2814 H 262.962 0.391481 -3.64504 0
M  V30 2815 H 262.61 2.81098 -4.17124 0
M  V30 2816 H 262.31 1.78688 -5.59772 0
M  V30 2817 H 263.834 2.7107 -5.47132 0
M  V30 2818 H 265.248 0.452384 -5.71512 0
M  V30 2819 H 263.645 -0.287992 -5.99409 0
M  V30 2820 H 264.715 -0.963391 -4.75233 0
M  V30 2821 N 266.058 1.56714 -0.166846 0
M  V30 2822 C 267.305 1.96747 0.479252 0
M  V30 2823 C 267.633 1.05263 1.63554 0
M  V30 2824 O 266.888 0.0858098 1.95512 0
M  V30 2825 C 267.187 3.42889 1.00806 0
M  V30 2826 C 266.853 4.50889 -0.0318574 0
M  V30 2827 C 265.515 4.8015 -0.317675 0
M  V30 2828 C 267.867 5.15949 -0.737956 0
M  V30 2829 C 265.195 5.71772 -1.31506 0
M  V30 2830 C 267.547 6.08647 -1.72429 0
M  V30 2831 C 266.211 6.36277 -2.0176 0
M  V30 2832 H 265.481 0.719949 0.175371 0
M  V30 2833 H 268.128 1.89756 -0.257864 0
M  V30 2834 H 266.433 3.4681 1.82291 0
M  V30 2835 H 268.13 3.71203 1.51689 0
M  V30 2836 H 264.72 4.28128 0.201088 0
M  V30 2837 H 268.904 4.93458 -0.530351 0
M  V30 2838 H 264.16 5.91465 -1.54853 0
M  V30 2839 H 268.334 6.58129 -2.27682 0
M  V30 2840 H 265.961 7.07075 -2.79194 0
M  V30 2841 N 267.536 -0.106894 1.57237 0
M  V30 2842 C 268.446 -1.14911 2.0453 0
M  V30 2843 C 269.462 -1.44592 0.96795 0
M  V30 2844 O 270.638 -1.55468 1.2803 0
M  V30 2845 C 267.703 -2.45272 2.45036 0
M  V30 2846 C 266.764 -2.22879 3.66911 0
M  V30 2847 C 265.997 -3.47024 4.05475 0
M  V30 2848 O 266.22 -4.54804 3.44252 0
M  V30 2849 O 265.154 -3.3731 4.98504 0
M  V30 2850 H 268.98 -0.777461 2.9358 0
M  V30 2851 H 266.565 -0.318563 1.45964 0
M  V30 2852 H 268.447 -3.22055 2.71769 0
M  V30 2853 H 267.122 -2.81886 1.59129 0
M  V30 2854 H 266.029 -1.43915 3.45311 0
M  V30 2855 H 267.362 -1.91163 4.53561 0
M  V30 2856 N 269.014 -1.53014 -0.377408 0
M  V30 2857 C 270.43 -1.42523 -0.718281 0
M  V30 2858 C 270.63 -0.55487 -1.9371 0
M  V30 2859 O 269.686 -0.0327593 -2.52479 0
M  V30 2860 C 270.999 -2.85546 -0.942539 0
M  V30 2861 C 272.547 -2.95101 -1.04329 0
M  V30 2862 C 273.022 -4.3916 -1.3001 0
M  V30 2863 N 274.513 -4.42536 -1.36806 0
M  V30 2864 C 275.248 -5.51097 -1.58364 0
M  V30 2865 N 274.744 -6.69724 -1.77317 0
M  V30 2866 N 276.537 -5.38657 -1.60638 0
M  V30 2867 H 268.688 -2.08116 0.424426 0
M  V30 2868 H 270.951 -0.939352 0.127759 0
M  V30 2869 H 270.657 -3.51499 -0.118929 0
M  V30 2870 H 270.531 -3.28493 -1.85397 0
M  V30 2871 H 272.918 -2.29309 -1.85745 0
M  V30 2872 H 272.999 -2.55566 -0.109505 0
M  V30 2873 H 272.643 -5.05521 -0.490991 0
M  V30 2874 H 272.573 -4.76258 -2.24691 0
M  V30 2875 H 275.064 -3.57039 -1.23821 0
M  V30 2876 H 275.377 -7.48233 -1.93306 0
M  V30 2877 H 273.722 -6.72732 -1.74518 0
M  V30 2878 H 276.913 -4.44948 -1.45391 0
M  V30 2879 H 277.086 -6.2333 -1.77098 0
M  V30 2880 N 270.492 0.636531 -1.44174 0
M  V30 2881 C 271.402 1.77754 -1.53103 0
M  V30 2882 C 272.418 1.68928 -0.417034 0
M  V30 2883 O 273.594 1.89801 -0.6736 0
M  V30 2884 C 270.659 3.14115 -1.46741 0
M  V30 2885 C 269.72 3.34612 -2.68948 0
M  V30 2886 C 268.953 4.64467 -2.6288 0
M  V30 2887 O 269.176 5.44919 -1.68581 0
M  V30 2888 O 268.11 4.87049 -3.53648 0
M  V30 2889 H 271.936 1.73174 -2.49489 0
M  V30 2890 H 269.521 0.79709 -1.2636 0
M  V30 2891 H 271.403 3.95412 -1.45696 0
M  V30 2892 H 270.078 3.19249 -0.534975 0
M  V30 2893 H 268.985 2.53014 -2.75562 0
M  V30 2894 H 270.318 3.34336 -3.61221 0
M  V30 2895 N 271.97 1.30982 0.876444 0
M  V30 2896 C 272.903 1.12414 1.98591 0
M  V30 2897 C 273.881 0.0294078 1.62573 0
M  V30 2898 O 275.065 0.184598 1.87594 0
M  V30 2899 C 272.192 0.716276 3.3104 0
M  V30 2900 C 271.238 1.81311 3.86042 0
M  V30 2901 S 272.071 3.41727 4.1229 0
M  V30 2902 C 273.227 3.02863 5.47745 0
M  V30 2903 H 273.46 2.06338 2.14037 0
M  V30 2904 H 270.993 1.15393 1.02586 0
M  V30 2905 H 272.951 0.487697 4.07593 0
M  V30 2906 H 271.612 -0.203749 3.13438 0
M  V30 2907 H 270.805 1.48021 4.81774 0
M  V30 2908 H 270.407 1.99641 3.16259 0
M  V30 2909 H 272.699 2.51353 6.29148 0
M  V30 2910 H 273.642 3.97533 5.8598 0
M  V30 2911 H 274.05 2.40487 5.10711 0
M  V30 2912 N 273.449 -1.08991 1.13837 0
M  V30 2913 C 274.359 -2.19301 0.833333 0
M  V30 2914 C 275.375 -1.73026 -0.183847 0
M  V30 2915 O 276.551 -2.01395 -0.0138092 0
M  V30 2916 C 273.616 -3.45323 0.308651 0
M  V30 2917 C 272.677 -4.06255 1.38764 0
M  V30 2918 C 271.91 -5.26262 0.887896 0
M  V30 2919 O 272.133 -5.69747 -0.27287 0
M  V30 2920 O 271.067 -5.78435 1.66421 0
M  V30 2921 H 274.893 -2.47854 1.75506 0
M  V30 2922 H 272.478 -1.18012 0.916166 0
M  V30 2923 H 274.36 -4.21394 0.0216739 0
M  V30 2924 H 273.035 -3.18362 -0.585431 0
M  V30 2925 H 271.942 -3.318 1.72799 0
M  V30 2926 H 273.275 -4.37452 2.25602 0
M  V30 2927 N 274.927 -0.932562 -1.27047 0
M  V30 2928 C 275.837 -0.441219 -2.30414 0
M  V30 2929 C 276.853 0.480525 -1.67233 0
M  V30 2930 O 278.029 0.362151 -1.98117 0
M  V30 2931 C 275.094 0.293651 -3.45454 0
M  V30 2932 C 274.155 -0.663601 -4.2414 0
M  V30 2933 C 273.388 0.0362932 -5.33688 0
M  V30 2934 O 273.611 1.2548 -5.56427 0
M  V30 2935 O 272.545 -0.638015 -5.98509 0
M  V30 2936 H 276.371 -1.29962 -2.74488 0
M  V30 2937 H 273.956 -0.6981 -1.32087 0
M  V30 2938 H 275.838 0.707951 -4.15411 0
M  V30 2939 H 274.513 1.12758 -3.03426 0
M  V30 2940 H 273.42 -1.12768 -3.56699 0
M  V30 2941 H 274.753 -1.46489 -4.69896 0
M  V30 2942 N 276.405 1.4127 -0.698611 0
M  V30 2943 C 277.63 2.06024 -0.238512 0
M  V30 2944 C 278.055 1.5224 1.10475 0
M  V30 2945 O 277.413 0.650623 1.69223 0
M  V30 2946 C 277.461 3.59988 -0.209952 0
M  V30 2947 O 276.565 4.04282 0.814235 0
M  V30 2948 H 275.906 0.653829 -0.115775 0
M  V30 2949 H 278.436 1.8098 -0.954326 0
M  V30 2950 H 278.446 4.07979 -0.0418436 0
M  V30 2951 H 277.121 3.98503 -1.1903 0
M  V30 2952 H 275.698 3.6779 0.615234 0
M  V30 2953 N 277.883 0.443576 1.51229 0
M  V30 2954 C 279.129 -0.120975 2.02439 0
M  V30 2955 C 279.462 -1.41815 1.32674 0
M  V30 2956 O 278.737 -1.89373 0.443622 0
M  V30 2957 C 279.02 -0.333291 3.58554 0
M  V30 2958 C 278.873 0.982968 4.38928 0
M  V30 2959 C 280.192 -1.10028 4.26124 0
M  V30 2960 H 277.311 -0.0424923 0.735774 0
M  V30 2961 H 279.953 0.583794 1.80809 0
M  V30 2962 H 278.103 -0.933614 3.77115 0
M  V30 2963 H 279.775 1.61775 4.32003 0
M  V30 2964 H 278.018 1.58611 4.03763 0
M  V30 2965 H 278.689 0.788379 5.46341 0
M  V30 2966 H 281.165 -0.591711 4.11871 0
M  V30 2967 H 280.041 -1.21761 5.35225 0
M  V30 2968 H 280.302 -2.12996 3.87408 0
M  V30 2969 N 279.361 -1.56624 0.175154 0
M  V30 2970 C 280.291 -2.21155 -0.749195 0
M  V30 2971 C 281.272 -1.16836 -1.23626 0
M  V30 2972 O 282.457 -1.45277 -1.28873 0
M  V30 2973 C 279.587 -2.8553 -1.97711 0
M  V30 2974 C 278.541 -3.95921 -1.62575 0
M  V30 2975 C 277.867 -4.47365 -2.92864 0
M  V30 2976 C 279.167 -5.15323 -0.850838 0
M  V30 2977 H 280.861 -2.98653 -0.211295 0
M  V30 2978 H 278.407 -1.43651 -0.100188 0
M  V30 2979 H 280.36 -3.2935 -2.62881 0
M  V30 2980 H 279.084 -2.05406 -2.53921 0
M  V30 2981 H 277.743 -3.52762 -0.997719 0
M  V30 2982 H 277.391 -3.64027 -3.47122 0
M  V30 2983 H 277.091 -5.21839 -2.70106 0
M  V30 2984 H 278.615 -4.93873 -3.59056 0
M  V30 2985 H 280.029 -5.55812 -1.40521 0
M  V30 2986 H 278.426 -5.95739 -0.722154 0
M  V30 2987 H 279.496 -4.84661 0.152082 0
M  V30 2988 N 280.839 0.0985539 -1.57292 0
M  V30 2989 C 282.25 0.653457 -1.74891 0
M  V30 2990 C 282.601 1.7929 -0.796838 0
M  V30 2991 O 281.726 2.16385 0.0254886 0
M  V30 2992 C 282.321 1.19216 -3.17133 0
M  V30 2993 C 280.88 1.69316 -3.36168 0
M  V30 2994 C 280.027 0.601294 -2.70702 0
M  V30 2995 H 282.978 -0.127497 -1.58187 0
M  V30 2996 H 282.999 2.06154 -3.19814 0
M  V30 2997 H 282.511 0.362635 -3.86402 0
M  V30 2998 H 280.612 2.5468 -2.71972 0
M  V30 2999 H 280.725 1.78853 -4.44464 0
M  V30 3000 H 279.089 1.0399 -2.32504 0
M  V30 3001 H 279.872 -0.217592 -3.4261 0
M  V30 3002 N 282.317 1.53212 0.369288 0
M  V30 3003 C 283.547 1.72868 1.13139 0
M  V30 3004 C 283.955 0.455754 1.83629 0
M  V30 3005 O 283.298 -0.580861 1.74275 0
M  V30 3006 C 283.36 2.83667 2.20847 0
M  V30 3007 C 283.024 4.24142 1.70155 0
M  V30 3008 C 284.021 5.06619 1.16763 0
M  V30 3009 C 281.706 4.70539 1.7578 0
M  V30 3010 C 283.7 6.33581 0.696678 0
M  V30 3011 C 281.387 5.97481 1.28297 0
M  V30 3012 C 282.385 6.78833 0.753307 0
M  V30 3013 O 282.073 8.03393 0.285475 0
M  V30 3014 H 281.805 0.581707 0.344373 0
M  V30 3015 H 284.359 2.00736 0.435243 0
M  V30 3016 H 282.589 2.51265 2.93944 0
M  V30 3017 H 284.278 2.91536 2.82421 0
M  V30 3018 H 285.044 4.71948 1.11758 0
M  V30 3019 H 280.923 4.07293 2.15949 0
M  V30 3020 H 284.467 6.97027 0.282581 0
M  V30 3021 H 280.364 6.31651 1.32994 0
M  V30 3022 H 281.132 8.17497 0.405145 0
M  V30 3023 N 283.795 -0.628877 1.44509 0
M  V30 3024 C 284.758 -1.72263 1.51188 0
M  V30 3025 C 285.758 -1.55907 0.39367 0
M  V30 3026 O 286.948 -1.61361 0.656377 0
M  V30 3027 C 284.08 -3.11365 1.38798 0
M  V30 3028 H 285.273 -1.67714 2.4862 0
M  V30 3029 H 282.826 -0.842737 1.31634 0
M  V30 3030 H 283.561 -3.21507 0.424693 0
M  V30 3031 H 283.346 -3.24644 2.19884 0
M  V30 3032 H 284.836 -3.91075 1.46458 0
M  V30 3033 N 285.273 -1.31445 -0.869486 0
M  V30 3034 C 286.22 -1.19135 -1.97675 0
M  V30 3035 C 287.19 -0.0770266 -1.65921 0
M  V30 3036 O 288.375 -0.249972 -1.89155 0
M  V30 3037 C 285.515 -0.905149 -3.33018 0
M  V30 3038 C 284.628 -2.10285 -3.77365 0
M  V30 3039 C 283.763 -1.75339 -5.01427 0
M  V30 3040 C 282.802 -2.91515 -5.38224 0
M  V30 3041 N 281.939 -2.56762 -6.53466 0
M  V30 3042 H 286.779 -2.13853 -2.07535 0
M  V30 3043 H 284.316 -1.06379 -1.01597 0
M  V30 3044 H 286.274 -0.719765 -4.10944 0
M  V30 3045 H 284.904 0.00519624 -3.228 0
M  V30 3046 H 283.956 -2.39899 -2.95216 0
M  V30 3047 H 285.268 -2.97237 -4.00564 0
M  V30 3048 H 284.422 -1.53266 -5.87022 0
M  V30 3049 H 283.161 -0.855801 -4.80133 0
M  V30 3050 H 282.166 -3.14237 -4.51149 0
M  V30 3051 H 283.391 -3.81985 -5.61484 0
M  V30 3052 H 281.337 -1.69526 -6.33717 0
M  V30 3053 H 281.254 -3.37243 -6.76612 0
M  V30 3054 H 282.522 -2.38083 -7.42251 0
M  V30 3055 N 286.751 1.08385 -1.14413 0
M  V30 3056 C 288.028 1.77429 -0.823297 0
M  V30 3057 C 288.408 1.9974 0.683163 0
M  V30 3058 O 287.756 1.60739 1.62405 0
M  V30 3059 C 287.966 3.09004 -1.62227 0
M  V30 3060 C 289.314 3.83532 -1.82177 0
M  V30 3061 O 290.338 3.18786 -1.58915 0
M  V30 3062 O 289.197 4.99792 -2.21067 0
M  V30 3063 H 286.291 0.769999 -0.301712 0
M  V30 3064 H 288.837 1.14846 -1.24934 0
M  V30 3065 H 287.609 2.88316 -2.64555 0
M  V30 3066 H 287.232 3.79316 -1.19187 0
M  V30 3067 N 288.23 0.939286 1.26551 0
M  V30 3068 C 289.178 0.43815 2.28436 0
M  V30 3069 C 290.172 -0.483587 1.62351 0
M  V30 3070 O 291.378 -0.362009 1.76322 0
M  V30 3071 H 287.753 0.123149 0.741848 0
M  V30 3072 H 289.724 1.31002 2.68106 0
M  V30 3073 C 288.473 -0.283052 3.46546 0
M  V30 3074 H 287.796 0.417043 3.97619 0
M  V30 3075 H 289.236 -0.597948 4.19763 0
M  V30 3076 C 287.695 -1.50018 3.01656 0
M  V30 3077 O 288.225 -2.59855 3.0633 0
M  V30 3078 N 286.431 -1.35608 2.57019 0
M  V30 3079 H 285.978 -0.46244 2.53415 0
M  V30 3080 H 285.936 -2.17165 2.27347 0
M  V30 3081 N 289.708 -1.40897 0.706093 0
M  V30 3082 C 290.655 -2.30751 0.0474474 0
M  V30 3083 C 291.625 -1.47678 -0.76029 0
M  V30 3084 O 292.81 -1.76441 -0.726177 0
M  V30 3085 C 289.95 -3.33815 -0.875309 0
M  V30 3086 C 289.063 -4.31961 -0.0580623 0
M  V30 3087 C 288.198 -5.22093 -0.979425 0
M  V30 3088 C 287.237 -6.11902 -0.155706 0
M  V30 3089 N 286.374 -6.94482 -1.03144 0
M  V30 3090 H 291.214 -2.86513 0.819413 0
M  V30 3091 H 288.751 -1.41102 0.415783 0
M  V30 3092 H 290.709 -3.92129 -1.42446 0
M  V30 3093 H 289.339 -2.79579 -1.61356 0
M  V30 3094 H 288.391 -3.75507 0.608147 0
M  V30 3095 H 289.703 -4.95415 0.580082 0
M  V30 3096 H 288.857 -5.85292 -1.59744 0
M  V30 3097 H 287.596 -4.5889 -1.65141 0
M  V30 3098 H 286.601 -5.47742 0.475309 0
M  V30 3099 H 287.826 -6.77162 0.512635 0
M  V30 3100 H 285.772 -6.33877 -1.68924 0
M  V30 3101 H 285.689 -7.54665 -0.449108 0
M  V30 3102 H 286.957 -7.6214 -1.63593 0
M  V30 3103 N 291.186 -0.45159 -1.50991 0
M  V30 3104 C 292.435 0.111653 -2.01391 0
M  V30 3105 C 292.748 1.42529 -1.33959 0
M  V30 3106 O 293.954 2.07232 -1.75405 0
M  V30 3107 C 292.41 0.249514 -3.59034 0
M  V30 3108 C 292.018 -1.05453 -4.35412 0
M  V30 3109 C 293.762 0.765762 -4.17536 0
M  V30 3110 C 291.669 -0.881529 -5.84793 0
M  V30 3111 H 290.599 0.0455022 -0.752626 0
M  V30 3112 H 293.25 -0.583524 -1.73975 0
M  V30 3113 H 291.632 1.00803 -3.82955 0
M  V30 3114 H 292.806 -1.82248 -4.23229 0
M  V30 3115 H 291.121 -1.50039 -3.88429 0
M  V30 3116 H 293.718 0.911913 -5.26866 0
M  V30 3117 H 294.061 1.75201 -3.77638 0
M  V30 3118 H 294.594 0.0651744 -3.97747 0
M  V30 3119 H 291.333 -1.84057 -6.29129 0
M  V30 3120 H 290.853 -0.153625 -5.99603 0
M  V30 3121 H 292.532 -0.540363 -6.4474 0
M  V30 3122 N 292.664 1.56529 -0.183458 0
M  V30 3123 C 293.892 2.01623 0.464285 0
M  V30 3124 C 294.307 1.06366 1.55986 0
M  V30 3125 O 293.664 0.0665398 1.82379 0
M  V30 3126 C 293.715 3.46475 1.03139 0
M  V30 3127 O 293.436 4.38095 -0.0204675 0
M  V30 3128 C 294.937 4.0703 1.75617 0
M  V30 3129 H 292.157 0.660596 0.117704 0
M  V30 3130 H 294.701 2.02451 -0.288751 0
M  V30 3131 H 292.856 3.46383 1.73486 0
M  V30 3132 H 293.27 5.22973 0.399952 0
M  V30 3133 H 294.744 5.10271 2.10542 0
M  V30 3134 H 295.221 3.49819 2.65563 0
M  V30 3135 H 295.827 4.1086 1.09882 0
M  V30 3136 N 294.142 -0.090211 1.57342 0
M  V30 3137 C 295.37 -0.806224 1.90546 0
M  V30 3138 C 295.785 -1.72041 0.777644 0
M  V30 3139 O 295.142 -1.80778 -0.250103 0
M  V30 3140 C 295.193 -1.61546 3.23396 0
M  V30 3141 O 294.914 -0.738043 4.31839 0
M  V30 3142 C 296.415 -2.4341 3.70495 0
M  V30 3143 H 293.635 -0.230256 0.630257 0
M  V30 3144 H 296.179 -0.0659843 2.04394 0
M  V30 3145 H 294.334 -2.30816 3.11131 0
M  V30 3146 H 294.748 -1.29901 5.08159 0
M  V30 3147 H 296.222 -2.95676 4.66133 0
M  V30 3148 H 296.699 -3.22098 2.98579 0
M  V30 3149 H 297.305 -1.79331 3.85643 0
M  V30 3150 N 295.62 -1.53406 -0.361157 0
M  V30 3151 C 296.55 -1.83136 -1.44857 0
M  V30 3152 C 297.531 -0.685174 -1.5569 0
M  V30 3153 O 298.716 -0.93544 -1.70186 0
M  V30 3154 C 295.846 -2.02522 -2.82138 0
M  V30 3155 C 294.8 -3.18302 -2.86126 0
M  V30 3156 C 294.126 -3.22989 -4.26125 0
M  V30 3157 C 295.426 -4.56796 -2.53248 0
M  V30 3158 H 297.12 -2.74201 -1.20226 0
M  V30 3159 H 294.666 -1.31938 -0.576922 0
M  V30 3160 H 296.619 -2.21904 -3.58241 0
M  V30 3161 H 295.343 -1.08172 -3.08166 0
M  V30 3162 H 294.002 -2.98747 -2.12475 0
M  V30 3163 H 293.65 -2.26267 -4.49235 0
M  V30 3164 H 293.35 -4.00781 -4.29708 0
M  V30 3165 H 294.874 -3.44559 -5.04094 0
M  V30 3166 H 296.288 -4.7631 -3.19064 0
M  V30 3167 H 294.685 -5.36862 -2.68141 0
M  V30 3168 H 295.755 -4.61606 -1.48484 0
M  V30 3169 N 297.098 0.621204 -1.44841 0
M  V30 3170 C 298.028 1.74366 -1.55303 0
M  V30 3171 C 299.009 1.65199 -0.405385 0
M  V30 3172 O 300.194 1.83807 -0.626787 0
M  V30 3173 C 297.324 3.12931 -1.50637 0
M  V30 3174 C 296.278 3.36896 -2.63979 0
M  V30 3175 C 295.604 4.75594 -2.44366 0
M  V30 3176 C 296.904 3.28483 -4.06074 0
M  V30 3177 H 298.598 1.65867 -2.49256 0
M  V30 3178 H 296.144 0.796558 -1.19962 0
M  V30 3179 H 298.097 3.9124 -1.56555 0
M  V30 3180 H 296.821 3.22237 -0.532057 0
M  V30 3181 H 295.48 2.60972 -2.57467 0
M  V30 3182 H 295.128 4.81616 -1.45105 0
M  V30 3183 H 294.828 4.92586 -3.20364 0
M  V30 3184 H 296.352 5.5612 -2.52117 0
M  V30 3185 H 297.766 3.96684 -4.13902 0
M  V30 3186 H 296.163 3.57008 -4.82354 0
M  V30 3187 H 297.233 2.26133 -4.28943 0
M  V30 3188 N 298.576 1.31904 0.862503 0
M  V30 3189 C 299.806 1.24817 1.64634 0
M  V30 3190 C 300.214 -0.187579 1.88268 0
M  V30 3191 O 299.557 -1.13253 1.44635 0
M  V30 3192 C 299.619 1.92996 3.03303 0
M  V30 3193 C 299.283 3.42336 3.02746 0
M  V30 3194 C 300.28 4.37956 2.80162 0
M  V30 3195 C 297.965 3.84147 3.2363 0
M  V30 3196 C 299.959 5.73361 2.78453 0
M  V30 3197 C 297.646 5.19663 3.21549 0
M  V30 3198 C 298.644 6.14081 2.98988 0
M  V30 3199 O 298.332 7.47118 2.96766 0
M  V30 3200 H 298.064 0.432222 0.519769 0
M  V30 3201 H 300.618 1.7445 1.08427 0
M  V30 3202 H 298.848 1.37922 3.61268 0
M  V30 3203 H 300.537 1.79723 3.63943 0
M  V30 3204 H 301.303 4.06981 2.63802 0
M  V30 3205 H 297.182 3.11083 3.40218 0
M  V30 3206 H 300.726 6.4703 2.60763 0
M  V30 3207 H 296.623 5.5027 3.37451 0
M  V30 3208 H 297.391 7.56382 3.12775 0
M  V30 3209 N 300.054 -1.07777 1.14986 0
M  V30 3210 C 301.302 -1.79934 0.920235 0
M  V30 3211 C 301.623 -1.86955 -0.554336 0
M  V30 3212 O 300.893 -1.36731 -1.40291 0
M  V30 3213 H 299.473 -0.666424 0.337473 0
M  V30 3214 H 302.135 -1.3027 1.44968 0
M  V30 3215 H 301.231 -2.82539 1.32583 0
M  V30 3216 N 301.532 -0.945985 -1.26051 0
M  V30 3217 C 302.757 -0.612525 -1.98149 0
M  V30 3218 C 303.182 0.806623 -1.69927 0
M  V30 3219 O 302.54 1.54411 -0.950108 0
M  V30 3220 C 302.588 -0.866981 -3.50023 0
M  V30 3221 O 301.692 0.0585333 -4.12358 0
M  V30 3222 H 301.033 -0.23379 -0.621481 0
M  V30 3223 H 303.563 -1.27023 -1.60395 0
M  V30 3224 H 303.573 -0.789792 -4.00283 0
M  V30 3225 H 302.248 -1.90135 -3.69894 0
M  V30 3226 H 300.825 -0.0701241 -3.72834 0
M  V30 3227 N 303.011 1.40521 -0.713556 0
M  V30 3228 C 303.941 2.33381 -0.0743864 0
M  V30 3229 C 304.922 1.52784 0.747735 0
M  V30 3230 O 306.107 1.81258 0.697071 0
M  V30 3231 C 303.237 3.36748 0.849598 0
M  V30 3232 C 302.191 4.27793 0.133247 0
M  V30 3233 C 301.517 5.21679 1.17281 0
M  V30 3234 C 302.817 5.12415 -1.01134 0
M  V30 3235 H 304.511 2.87081 -0.850007 0
M  V30 3236 H 302.057 1.38034 -0.410201 0
M  V30 3237 H 304.01 4.00648 1.30612 0
M  V30 3238 H 302.734 2.81439 1.65709 0
M  V30 3239 H 301.393 3.65342 -0.303426 0
M  V30 3240 H 301.041 4.62677 1.9733 0
M  V30 3241 H 300.741 5.83435 0.698397 0
M  V30 3242 H 302.265 5.88456 1.62947 0
M  V30 3243 H 303.679 5.69781 -0.634274 0
M  V30 3244 H 302.076 5.83203 -1.41399 0
M  V30 3245 H 303.146 4.48514 -1.84292 0
M  V30 3246 N 304.489 0.459591 1.5075 0
M  V30 3247 C 305.729 -0.09824 2.04164 0
M  V30 3248 C 306.093 -1.3801 1.33481 0
M  V30 3249 O 307.294 -2.01959 1.77387 0
M  V30 3250 C 305.565 -0.289467 3.56226 0
M  V30 3251 S 307.124 -0.807507 4.31306 0
M  V30 3252 H 303.942 -0.0213845 0.710678 0
M  V30 3253 H 306.544 0.624098 1.85271 0
M  V30 3254 H 305.248 0.649461 4.05229 0
M  V30 3255 H 304.779 -1.03825 3.79452 0
M  V30 3256 H 306.794 -2.0824 4.50389 0
M  V30 3257 N 305.967 -1.56429 0.191757 0
M  V30 3258 C 307.383 -1.58754 -0.164137 0
M  V30 3259 C 307.583 -1.20782 -1.61288 0
M  V30 3260 O 306.639 -0.928999 -2.34789 0
M  V30 3261 C 307.952 -3.00396 0.135195 0
M  V30 3262 C 309.5 -3.1291 0.0750351 0
M  V30 3263 C 309.975 -4.56679 0.347632 0
M  V30 3264 N 311.466 -4.62252 0.296131 0
M  V30 3265 C 312.201 -5.71379 0.480948 0
M  V30 3266 N 311.697 -6.88986 0.725933 0
M  V30 3267 N 313.49 -5.60563 0.415435 0
M  V30 3268 H 305.641 -1.79393 1.13718 0
M  V30 3269 H 307.904 -0.832414 0.453643 0
M  V30 3270 H 307.61 -3.32726 1.13958 0
M  V30 3271 H 307.484 -3.72963 -0.563773 0
M  V30 3272 H 309.871 -2.80394 -0.919948 0
M  V30 3273 H 309.952 -2.42736 0.807029 0
M  V30 3274 H 309.596 -4.89907 1.33992 0
M  V30 3275 H 309.526 -5.25039 -0.405212 0
M  V30 3276 H 312.017 -3.7773 0.113259 0
M  V30 3277 H 312.33 -7.68046 0.855857 0
M  V30 3278 H 310.675 -6.90801 0.762788 0
M  V30 3279 H 313.866 -4.67561 0.224486 0
M  V30 3280 H 314.039 -6.45551 0.562889 0
M  V30 3281 N 307.445 0.0818655 -1.57387 0
M  V30 3282 C 308.693 0.781368 -1.86384 0
M  V30 3283 C 309.014 1.78618 -0.782342 0
M  V30 3284 O 308.284 1.94976 0.190061 0
M  V30 3285 H 306.864 0.291562 -0.687751 0
M  V30 3286 H 309.526 0.060348 -1.94807 0
M  V30 3287 H 308.622 1.3038 -2.83562 0
M  V30 3288 N 308.923 1.53595 0.353017 0
M  V30 3289 C 309.853 1.83902 1.43883 0
M  V30 3290 C 310.834 0.693421 1.55324 0
M  V30 3291 O 312.019 0.944452 1.69687 0
M  V30 3292 C 309.149 2.04016 2.8106 0
M  V30 3293 C 308.103 3.19814 2.84434 0
M  V30 3294 C 307.429 3.25244 4.24406 0
M  V30 3295 C 308.729 4.58133 2.50822 0
M  V30 3296 H 310.423 2.74835 1.1877 0
M  V30 3297 H 307.969 1.32242 0.569917 0
M  V30 3298 H 309.922 2.238 3.57059 0
M  V30 3299 H 308.646 1.09804 3.07588 0
M  V30 3300 H 307.305 2.9987 2.10887 0
M  V30 3301 H 306.953 2.28646 4.48029 0
M  V30 3302 H 306.653 4.03054 4.27576 0
M  V30 3303 H 308.177 3.47228 5.0226 0
M  V30 3304 H 309.591 4.77995 3.16534 0
M  V30 3305 H 307.988 5.38276 2.6529 0
M  V30 3306 H 309.058 4.62387 1.46034 0
M  V30 3307 N 310.401 -0.613514 1.45168 0
M  V30 3308 C 311.331 -1.7354 1.56225 0
M  V30 3309 C 312.312 -1.64981 0.41414 0
M  V30 3310 O 313.497 -1.83472 0.636526 0
M  V30 3311 C 310.627 -3.12128 1.52295 0
M  V30 3312 C 309.581 -3.35491 2.65762 0
M  V30 3313 C 308.907 -4.74291 2.46885 0
M  V30 3314 C 310.207 -3.26325 4.0781 0
M  V30 3315 H 311.901 -1.64543 2.50132 0
M  V30 3316 H 309.447 -0.790185 1.20383 0
M  V30 3317 H 311.4 -3.90404 1.58628 0
M  V30 3318 H 310.124 -3.2195 0.549139 0
M  V30 3319 H 308.783 -2.59603 2.58847 0
M  V30 3320 H 308.431 -4.80839 1.47657 0
M  V30 3321 H 308.131 -4.9088 3.22972 0
M  V30 3322 H 309.655 -5.54775 2.55063 0
M  V30 3323 H 311.069 -3.94483 4.16 0
M  V30 3324 H 309.466 -3.54445 4.8424 0
M  V30 3325 H 310.536 -2.23855 4.30136 0
M  V30 3326 N 311.879 -1.3236 -0.855495 0
M  V30 3327 C 313.107 -1.2587 -1.64208 0
M  V30 3328 C 313.522 0.173457 -1.88002 0
M  V30 3329 O 312.879 1.11027 -1.44842 0
M  V30 3330 C 312.93 -2.01424 -3.00184 0
M  V30 3331 O 312.651 -3.39051 -2.77445 0
M  V30 3332 C 314.152 -2.01948 -3.94629 0
M  V30 3333 H 311.372 -0.434318 -0.511477 0
M  V30 3334 H 313.916 -1.74469 -1.0668 0
M  V30 3335 H 312.071 -1.56549 -3.5436 0
M  V30 3336 H 312.485 -3.77711 -3.63916 0
M  V30 3337 H 313.959 -2.59297 -4.87308 0
M  V30 3338 H 314.436 -1.00554 -4.27534 0
M  V30 3339 H 315.042 -2.46767 -3.4639 0
M  V30 3340 N 313.357 1.07166 -1.15556 0
M  V30 3341 C 314.605 1.79443 -0.929764 0
M  V30 3342 C 314.926 1.87246 0.544414 0
M  V30 3343 O 314.196 1.37473 1.39564 0
M  V30 3344 H 312.776 0.664625 -0.341003 0
M  V30 3345 H 315.438 1.29499 -1.45657 0
M  V30 3346 H 314.534 2.81832 -1.34079 0
M  V30 3347 N 314.835 0.952656 1.25548 0
M  V30 3348 C 315.782 0.47008 2.25962 0
M  V30 3349 C 316.752 -0.476384 1.59122 0
M  V30 3350 O 317.937 -0.39007 1.8677 0
M  V30 3351 C 315.077 -0.247881 3.44209 0
M  V30 3352 C 314.19 0.735591 4.25691 0
M  V30 3353 C 313.325 -0.0047306 5.312 0
M  V30 3354 C 312.364 0.969805 6.04368 0
M  V30 3355 N 311.501 0.260486 7.01617 0
M  V30 3356 H 316.341 1.33126 2.66611 0
M  V30 3357 H 313.878 0.66765 1.31076 0
M  V30 3358 H 315.836 -0.680695 4.1161 0
M  V30 3359 H 314.466 -1.07312 3.0444 0
M  V30 3360 H 313.518 1.28689 3.57971 0
M  V30 3361 H 314.83 1.47934 4.76358 0
M  V30 3362 H 313.984 -0.496275 6.04667 0
M  V30 3363 H 312.723 -0.781282 4.81401 0
M  V30 3364 H 311.728 1.47237 5.29718 0
M  V30 3365 H 312.953 1.74655 6.56256 0
M  V30 3366 H 310.899 -0.497364 6.54112 0
M  V30 3367 H 310.816 0.943362 7.50091 0
M  V30 3368 H 312.084 -0.209587 7.79218 0
M  V30 3369 N 316.313 -1.40141 0.720998 0
M  V30 3370 C 317.246 -2.2819 0.020916 0
M  V30 3371 C 318.224 -1.43633 -0.762129 0
M  V30 3372 O 319.408 -1.7304 -0.747633 0
M  V30 3373 C 316.535 -3.24281 -0.977715 0
M  V30 3374 C 315.581 -4.25548 -0.284836 0
M  V30 3375 S 316.414 -5.26247 0.991169 0
M  V30 3376 C 317.57 -6.259 -0.0052214 0
M  V30 3377 H 317.803 -2.87218 0.767649 0
M  V30 3378 H 315.336 -1.45656 0.512233 0
M  V30 3379 H 317.294 -3.80167 -1.54865 0
M  V30 3380 H 315.955 -2.643 -1.69719 0
M  V30 3381 H 315.148 -4.93154 -1.03996 0
M  V30 3382 H 314.75 -3.73389 0.213684 0
M  V30 3383 H 317.042 -6.72143 -0.850279 0
M  V30 3384 H 317.985 -7.05224 0.637599 0
M  V30 3385 H 318.393 -5.63277 -0.371366 0
M  V30 3386 N 317.792 -0.46758 -1.50504 0
M  V30 3387 C 319.02 0.0864133 -2.06719 0
M  V30 3388 C 319.435 1.33819 -1.33184 0
M  V30 3389 O 318.792 1.78061 -0.400083 0
M  V30 3390 C 318.843 0.378079 -3.59517 0
M  V30 3391 O 318.564 -0.824044 -4.3028 0
M  V30 3392 C 320.065 0.979426 -4.32345 0
M  V30 3393 H 317.285 -0.00551697 -0.670977 0
M  V30 3394 H 319.829 -0.655354 -1.93715 0
M  V30 3395 H 317.984 1.06977 -3.72337 0
M  V30 3396 H 318.398 -0.566518 -5.21432 0
M  V30 3397 H 319.872 1.1333 -5.40241 0
M  V30 3398 H 320.349 1.9686 -3.9261 0
M  V30 3399 H 320.955 0.326216 -4.24047 0
M  V30 3400 N 319.27 1.56325 -0.20005 0
M  V30 3401 C 320.18 2.22931 0.730668 0
M  V30 3402 C 321.196 1.22997 1.23076 0
M  V30 3403 O 322.372 1.55748 1.27689 0
M  V30 3404 C 319.437 2.87948 1.93098 0
M  V30 3405 C 318.498 4.03166 1.47497 0
M  V30 3406 C 317.731 4.65073 2.61807 0
M  V30 3407 O 317.954 4.25913 3.79413 0
M  V30 3408 O 316.888 5.54452 2.34237 0
M  V30 3409 H 320.714 3.03084 0.193391 0
M  V30 3410 H 318.299 1.49371 0.0294621 0
M  V30 3411 H 320.181 3.29063 2.6324 0
M  V30 3412 H 318.856 2.10771 2.45677 0
M  V30 3413 H 317.763 3.66664 0.742201 0
M  V30 3414 H 319.096 4.82022 0.995796 0
M  V30 3415 N 320.748 -0.0735177 1.57428 0
M  V30 3416 C 321.658 -1.10547 2.06922 0
M  V30 3417 C 322.674 -1.42506 0.998402 0
M  V30 3418 O 323.85 -1.52717 1.31299 0
M  V30 3419 C 320.915 -2.40019 2.50184 0
M  V30 3420 C 319.976 -2.15046 3.71556 0
M  V30 3421 C 319.209 -3.38345 4.12745 0
M  V30 3422 O 319.432 -4.47399 3.53822 0
M  V30 3423 O 318.366 -3.2666 5.05546 0
M  V30 3424 H 322.192 -0.715013 2.95163 0
M  V30 3425 H 319.777 -0.287531 1.46607 0
M  V30 3426 H 321.659 -3.16218 2.78539 0
M  V30 3427 H 320.334 -2.78447 1.65072 0
M  V30 3428 H 319.241 -1.36558 3.48285 0
M  V30 3429 H 320.574 -1.81499 4.57514 0
M  V30 3430 N 322.226 -1.5378 -0.344866 0
M  V30 3431 C 323.456 -1.74646 -1.10374 0
M  V30 3432 C 323.864 -0.48491 -1.8288 0
M  V30 3433 O 323.207 0.553062 -1.75177 0
M  V30 3434 C 323.269 -2.87145 -2.16306 0
M  V30 3435 C 322.933 -4.26795 -1.63386 0
M  V30 3436 C 323.93 -5.08412 -1.08688 0
M  V30 3437 C 321.615 -4.73276 -1.68272 0
M  V30 3438 C 323.609 -6.34609 -0.595792 0
M  V30 3439 C 321.296 -5.99446 -1.18776 0
M  V30 3440 C 322.294 -6.79946 -0.645215 0
M  V30 3441 O 321.982 -8.03745 -0.157626 0
M  V30 3442 H 321.714 -0.587112 -0.335075 0
M  V30 3443 H 324.268 -2.01403 -0.403252 0
M  V30 3444 H 322.498 -2.55909 -2.89909 0
M  V30 3445 H 324.187 -2.95992 -2.77747 0
M  V30 3446 H 324.953 -4.73666 -1.04236 0
M  V30 3447 H 320.832 -4.10677 -2.09442 0
M  V30 3448 H 324.376 -6.97389 -0.171654 0
M  V30 3449 H 320.273 -6.33687 -1.22928 0
M  V30 3450 H 321.041 -8.18038 -0.275037 0
M  V30 3451 N 323.704 0.605807 -1.45491 0
M  V30 3452 C 324.932 1.39136 -1.5313 0
M  V30 3453 C 325.347 1.88082 -0.164507 0
M  V30 3454 O 324.704 1.62316 0.834247 0
M  V30 3455 C 324.755 2.59463 -2.51716 0
M  V30 3456 O 324.476 2.12551 -3.83084 0
M  V30 3457 C 325.977 3.52301 -2.6907 0
M  V30 3458 H 323.197 0.425849 -0.51855 0
M  V30 3459 H 325.741 0.73865 -1.90694 0
M  V30 3460 H 323.896 3.20772 -2.17219 0
M  V30 3461 H 324.31 2.90744 -4.36541 0
M  V30 3462 H 325.784 4.33271 -3.42024 0
M  V30 3463 H 326.261 4.02757 -1.75167 0
M  V30 3464 H 326.867 2.96845 -3.04571 0
M  V30 3465 N 325.182 1.32811 0.848464 0
M  V30 3466 C 326.429 1.23724 1.60308 0
M  V30 3467 C 326.757 -0.1994 1.93475 0
M  V30 3468 O 326.012 -1.15406 1.5805 0
M  V30 3469 C 326.311 2.04831 2.92881 0
M  V30 3470 C 325.977 3.54125 2.79117 0
M  V30 3471 C 324.639 3.94829 2.7507 0
M  V30 3472 C 326.991 4.49036 2.64606 0
M  V30 3473 C 324.319 5.28675 2.544 0
M  V30 3474 C 326.671 5.83033 2.4547 0
M  V30 3475 C 325.335 6.22931 2.39819 0
M  V30 3476 H 324.605 0.452737 0.586609 0
M  V30 3477 H 327.252 1.64301 0.983743 0
M  V30 3478 H 325.557 1.57001 3.58968 0
M  V30 3479 H 327.254 1.95164 3.50303 0
M  V30 3480 H 323.844 3.21801 2.83094 0
M  V30 3481 H 328.028 4.18505 2.66772 0
M  V30 3482 H 323.284 5.58637 2.48465 0
M  V30 3483 H 327.458 6.56186 2.33222 0
M  V30 3484 H 325.085 7.26584 2.23562 0
M  V30 3485 N 326.66 -1.06551 1.16123 0
M  V30 3486 C 327.57 -2.17484 0.879662 0
M  V30 3487 C 328.586 -1.73377 -0.147104 0
M  V30 3488 O 329.762 -2.01379 0.0289128 0
M  V30 3489 C 326.827 -3.44591 0.381829 0
M  V30 3490 C 325.888 -4.0322 1.4735 0
M  V30 3491 C 325.121 -5.24261 0.999324 0
M  V30 3492 O 325.344 -5.70198 -0.151957 0
M  V30 3493 O 324.278 -5.74775 1.78653 0
M  V30 3494 H 328.104 -2.44075 1.80724 0
M  V30 3495 H 325.689 -1.16042 0.940992 0
M  V30 3496 H 327.571 -4.21254 0.111053 0
M  V30 3497 H 326.246 -3.19532 -0.51777 0
M  V30 3498 H 325.153 -3.2806 1.79798 0
M  V30 3499 H 326.486 -4.32568 2.34831 0
M  V30 3500 N 328.138 -0.959301 -1.25041 0
M  V30 3501 C 329.386 -0.615393 -1.92503 0
M  V30 3502 C 329.707 0.850969 -1.75452 0
M  V30 3503 O 328.977 1.60658 -1.12098 0
M  V30 3504 H 327.557 -0.224613 -0.712431 0
M  V30 3505 H 330.219 -1.21855 -1.5211 0
M  V30 3506 H 329.315 -0.848738 -3.00338 0
M  V30 3507 N 329.616 1.39756 -0.72842 0
M  V30 3508 C 330.893 1.94574 -0.200079 0
M  V30 3509 C 331.273 1.66569 1.29684 0
M  V30 3510 O 330.621 0.990326 2.05924 0
M  V30 3511 C 330.831 3.45004 -0.526608 0
M  V30 3512 C 332.179 4.21965 -0.472318 0
M  V30 3513 O 333.203 3.53173 -0.463413 0
M  V30 3514 O 332.062 5.44552 -0.461075 0
M  V30 3515 H 329.156 0.826289 -0.0342851 0
M  V30 3516 H 331.702 1.49293 -0.806829 0
M  V30 3517 H 330.474 3.58796 -1.56144 0
M  V30 3518 H 330.097 3.97449 0.109449 0
M  V30 3519 N 331.094 0.475555 1.50254 0
M  V30 3520 C 332.371 -0.139685 1.95101 0
M  V30 3521 C 332.751 -1.56555 1.41611 0
M  V30 3522 O 332.099 -2.19956 0.618993 0
M  V30 3523 C 332.309 -0.0784298 3.48912 0
M  V30 3524 C 333.657 -0.265095 4.23772 0
M  V30 3525 O 334.681 -0.154808 3.55863 0
M  V30 3526 O 333.54 -0.488327 5.44314 0
M  V30 3527 H 330.634 -0.109236 0.819754 0
M  V30 3528 H 333.18 0.536276 1.61004 0
M  V30 3529 H 331.952 0.916918 3.80405 0
M  V30 3530 H 331.575 -0.795655 3.89558 0
M  V30 3531 N 332.573 -1.56217 0.208337 0
M  V30 3532 C 333.503 -2.22694 -0.702116 0
M  V30 3533 C 334.484 -1.19432 -1.2112 0
M  V30 3534 O 335.669 -1.47978 -1.25762 0
M  V30 3535 C 332.799 -2.8966 -1.9161 0
M  V30 3536 C 331.753 -3.9928 -1.5414 0
M  V30 3537 C 331.079 -4.53476 -2.83308 0
M  V30 3538 C 332.379 -5.17012 -0.741339 0
M  V30 3539 H 334.073 -2.99034 -0.147898 0
M  V30 3540 H 331.619 -1.43831 -0.0696951 0
M  V30 3541 H 333.572 -3.34852 -2.55836 0
M  V30 3542 H 332.296 -2.10746 -2.49507 0
M  V30 3543 H 330.955 -3.54799 -0.922668 0
M  V30 3544 H 330.603 -3.71308 -3.39322 0
M  V30 3545 H 330.303 -5.27451 -2.58976 0
M  V30 3546 H 331.827 -5.01378 -3.485 0
M  V30 3547 H 333.241 -5.58667 -1.28699 0
M  V30 3548 H 331.638 -5.97137 -0.595627 0
M  V30 3549 H 332.708 -4.8423 0.254851 0
M  V30 3550 N 334.051 0.0651679 -1.57465 0
M  V30 3551 C 335.467 0.420105 -1.53972 0
M  V30 3552 C 335.667 1.78782 -0.929474 0
M  V30 3553 O 334.723 2.46771 -0.534839 0
M  V30 3554 C 336.036 0.355084 -2.98596 0
M  V30 3555 C 337.584 0.434792 -3.09965 0
M  V30 3556 C 338.059 0.399609 -4.56253 0
M  V30 3557 N 339.55 0.459488 -4.60915 0
M  V30 3558 C 340.285 0.454584 -5.71595 0
M  V30 3559 N 339.781 0.404102 -6.9162 0
M  V30 3560 N 341.574 0.501635 -5.59857 0
M  V30 3561 H 333.725 -0.830328 -1.95498 0
M  V30 3562 H 335.988 -0.312244 -0.895102 0
M  V30 3563 H 335.694 -0.583357 -3.46828 0
M  V30 3564 H 335.568 1.16275 -3.58831 0
M  V30 3565 H 337.955 1.36366 -2.61703 0
M  V30 3566 H 338.036 -0.40157 -2.52628 0
M  V30 3567 H 337.68 -0.525436 -5.05175 0
M  V30 3568 H 337.61 1.25359 -5.11461 0
M  V30 3569 H 340.101 0.502482 -3.74544 0
M  V30 3570 H 340.414 0.404468 -7.71741 0
M  V30 3571 H 338.759 0.37069 -6.94011 0
M  V30 3572 H 341.95 0.538812 -4.64989 0
M  V30 3573 H 342.123 0.494345 -6.46112 0
M  V30 3574 N 335.529 1.53961 0.336706 0
M  V30 3575 C 336.477 1.83136 1.43401 0
M  V30 3576 C 337.471 0.702313 1.54156 0
M  V30 3577 O 338.677 0.885765 1.56698 0
M  V30 3578 H 335.052 0.580309 0.478273 0
M  V30 3579 H 337.023 2.74925 1.16012 0
M  V30 3580 C 335.772 2.06385 2.79822 0
M  V30 3581 H 335.095 2.92718 2.72316 0
M  V30 3582 H 336.535 2.30761 3.55704 0
M  V30 3583 C 334.994 0.851414 3.25964 0
M  V30 3584 O 335.524 0.0541904 4.01663 0
M  V30 3585 N 333.73 0.66672 2.82848 0
M  V30 3586 H 333.277 1.31665 2.21409 0
M  V30 3587 H 333.235 -0.143032 3.14074 0
M  V30 3588 N 337.007 -0.598083 1.45811 0
M  V30 3589 C 337.957 -1.70272 1.51629 0
M  V30 3590 C 338.941 -1.56382 0.378629 0
M  V30 3591 O 340.133 -1.65557 0.626087 0
M  V30 3592 C 337.262 -3.09042 1.49493 0
M  V30 3593 C 336.348 -3.28284 2.68496 0
M  V30 3594 N 336.739 -3.17748 3.93535 0
M  V30 3595 C 335.037 -3.59182 2.64394 0
M  V30 3596 C 335.738 -3.38579 4.7301 0
M  V30 3597 N 334.714 -3.63016 4.04624 0
M  V30 3598 H 338.516 -1.60634 2.46118 0
M  V30 3599 H 336.03 -0.801642 1.41235 0
M  V30 3600 H 338.027 -3.88302 1.51747 0
M  V30 3601 H 336.687 -3.19823 0.560683 0
M  V30 3602 H 337.698 -2.95944 4.25014 0
M  V30 3603 H 334.375 -3.76742 1.79922 0
M  V30 3604 H 335.765 -3.35747 5.82 0
M  V30 3605 N 338.485 -1.33259 -0.841409 0
M  V30 3606 C 339.762 -1.15174 -1.58096 0
M  V30 3607 C 340.142 0.282858 -2.09196 0
M  V30 3608 O 339.49 1.28151 -1.89181 0
M  V30 3609 C 339.7 -2.1907 -2.71679 0
M  V30 3610 C 341.048 -2.53093 -3.40924 0
M  V30 3611 O 342.072 -2.17717 -2.81918 0
M  V30 3612 O 340.931 -3.1379 -4.47435 0
M  V30 3613 H 338.025 -0.445303 -0.696875 0
M  V30 3614 H 340.571 -1.44833 -0.884385 0
M  V30 3615 H 339.343 -3.15443 -2.31541 0
M  V30 3616 H 338.966 -1.90481 -3.49002 0
M  V30 3617 N 339.963 1.05934 -1.16686 0
M  V30 3618 C 341.374 1.60263 -0.957745 0
M  V30 3619 C 341.725 1.89789 0.49745 0
M  V30 3620 O 340.85 1.67401 1.37135 0
M  V30 3621 C 341.445 2.91172 -1.73218 0
M  V30 3622 C 340.004 3.42188 -1.56794 0
M  V30 3623 C 339.151 2.16028 -1.73859 0
M  V30 3624 H 342.102 0.888392 -1.31504 0
M  V30 3625 H 342.123 3.60744 -1.21014 0
M  V30 3626 H 341.635 2.6965 -2.79124 0
M  V30 3627 H 339.736 3.68762 -0.533437 0
M  V30 3628 H 339.849 4.17273 -2.35414 0
M  V30 3629 H 338.213 2.26426 -1.16633 0
M  V30 3630 H 338.996 1.96985 -2.81161 0
M  V30 3631 N 341.441 0.965919 1.2453 0
M  V30 3632 C 342.388 0.49402 2.25451 0
M  V30 3633 C 343.358 -0.45948 1.59618 0
M  V30 3634 O 344.543 -0.370238 1.87173 0
M  V30 3635 C 341.683 -0.211359 3.44452 0
M  V30 3636 C 340.796 0.7807 4.24887 0
M  V30 3637 C 339.931 0.0516105 5.31175 0
M  V30 3638 C 338.97 1.03385 6.03306 0
M  V30 3639 N 338.107 0.334887 7.01301 0
M  V30 3640 H 342.947 1.35946 2.65184 0
M  V30 3641 H 340.484 0.681515 1.3036 0
M  V30 3642 H 342.442 -0.637 4.12308 0
M  V30 3643 H 341.072 -1.04077 3.05562 0
M  V30 3644 H 340.124 1.32479 3.56586 0
M  V30 3645 H 341.436 1.52978 4.74762 0
M  V30 3646 H 340.59 -0.432114 6.05159 0
M  V30 3647 H 339.329 -0.730179 4.82203 0
M  V30 3648 H 338.334 1.52847 5.28127 0
M  V30 3649 H 339.559 1.81606 6.54367 0
M  V30 3650 H 337.505 -0.427959 6.54603 0
M  V30 3651 H 337.422 1.02287 7.49048 0
M  V30 3652 H 338.69 -0.126928 7.79397 0
M  V30 3653 N 342.919 -1.39368 0.735821 0
M  V30 3654 C 344.166 -2.00497 0.284123 0
M  V30 3655 C 344.494 -1.58387 -1.12889 0
M  V30 3656 O 343.749 -0.804359 -1.78406 0
M  V30 3657 C 344.048 -3.5583 0.334651 0
M  V30 3658 C 343.714 -4.17593 1.7008 0
M  V30 3659 C 342.376 -4.34176 2.07472 0
M  V30 3660 C 344.728 -4.51848 2.59775 0
M  V30 3661 C 342.056 -4.82304 3.34065 0
M  V30 3662 C 344.408 -5.01384 3.85741 0
M  V30 3663 C 343.072 -5.16175 4.23225 0
M  V30 3664 H 342.342 -0.73367 0.103968 0
M  V30 3665 H 344.989 -1.66683 0.942825 0
M  V30 3666 H 343.294 -3.89674 -0.407625 0
M  V30 3667 H 344.991 -4.00986 -0.0329927 0
M  V30 3668 H 341.581 -4.05087 1.40008 0
M  V30 3669 H 345.765 -4.38653 2.32157 0
M  V30 3670 H 341.021 -4.91941 3.63049 0
M  V30 3671 H 345.195 -5.26863 4.55399 0
M  V30 3672 H 342.822 -5.5323 5.21384 0
M  V30 3673 N 344.397 -0.483516 -1.5 0
M  V30 3674 C 345.329 0.340634 -2.26655 0
M  V30 3675 C 346.342 0.946152 -1.32483 0
M  V30 3676 O 347.531 0.832453 -1.579 0
M  V30 3677 C 344.631 1.4929 -3.04246 0
M  V30 3678 C 343.804 0.997903 -4.25865 0
M  V30 3679 C 342.863 2.02569 -4.85646 0
M  V30 3680 O 341.889 1.60128 -5.46212 0
M  V30 3681 N 343.091 3.3548 -4.73744 0
M  V30 3682 H 345.856 -0.316577 -2.98023 0
M  V30 3683 H 343.417 -0.315024 -1.58806 0
M  V30 3684 H 345.409 2.17766 -3.41116 0
M  V30 3685 H 343.979 2.05458 -2.35597 0
M  V30 3686 H 343.199 0.138617 -3.93956 0
M  V30 3687 H 344.487 0.645305 -5.04691 0
M  V30 3688 H 343.885 3.72661 -4.25605 0
M  V30 3689 H 342.442 3.99718 -5.14848 0
M  V30 3690 N 345.875 1.56104 -0.216619 0
M  V30 3691 C 346.822 2.2007 0.695531 0
M  V30 3692 C 347.792 1.15471 1.19397 0
M  V30 3693 O 348.977 1.43807 1.25396 0
M  V30 3694 C 346.117 2.88073 1.90021 0
M  V30 3695 C 345.23 4.07253 1.44113 0
M  V30 3696 C 344.365 4.63052 2.603 0
M  V30 3697 C 343.404 5.74545 2.11103 0
M  V30 3698 N 342.541 6.24656 3.20545 0
M  V30 3699 H 347.381 2.97655 0.143327 0
M  V30 3700 H 344.918 1.46982 0.0589934 0
M  V30 3701 H 346.876 3.25681 2.60745 0
M  V30 3702 H 345.506 2.13015 2.42538 0
M  V30 3703 H 344.558 3.75164 0.628999 0
M  V30 3704 H 345.87 4.8783 1.04036 0
M  V30 3705 H 345.024 5.03078 3.39113 0
M  V30 3706 H 343.763 3.81628 3.03663 0
M  V30 3707 H 342.768 5.34027 1.3075 0
M  V30 3708 H 343.993 6.57801 1.68746 0
M  V30 3709 H 341.939 5.46148 3.63399 0
M  V30 3710 H 341.856 7.00343 2.84704 0
M  V30 3711 H 343.124 6.69338 3.99508 0
M  V30 3712 N 347.353 -0.0568162 1.57498 0
M  V30 3713 C 348.764 -0.606858 1.76562 0
M  V30 3714 C 349.115 -1.77114 0.844094 0
M  V30 3715 O 348.24 -2.16376 0.0318911 0
M  V30 3716 C 348.835 -1.10766 3.20182 0
M  V30 3717 C 347.394 -1.60344 3.40539 0
M  V30 3718 C 346.541 -0.529311 2.72201 0
M  V30 3719 H 349.492 0.169393 1.57793 0
M  V30 3720 H 349.513 -1.97602 3.25167 0
M  V30 3721 H 349.025 -0.26006 3.87228 0
M  V30 3722 H 347.126 -2.47379 2.78629 0
M  V30 3723 H 347.239 -1.67006 4.4905 0
M  V30 3724 H 345.603 -0.977893 2.35179 0
M  V30 3725 H 346.386 0.308352 3.41912 0
M  V30 3726 N 348.832 -1.54138 -0.328536 0
M  V30 3727 C 350.248 -1.44736 -0.672574 0
M  V30 3728 C 350.448 -0.616217 -1.91846 0
M  V30 3729 O 349.504 -0.113067 -2.52247 0
M  V30 3730 C 350.817 -2.884 -0.851217 0
M  V30 3731 C 352.365 -2.98271 -0.948877 0
M  V30 3732 C 352.84 -4.43074 -1.15973 0
M  V30 3733 N 354.331 -4.46665 -1.22658 0
M  V30 3734 C 355.066 -5.55857 -1.40751 0
M  V30 3735 N 354.562 -6.75026 -1.5592 0
M  V30 3736 N 356.355 -5.43495 -1.4342 0
M  V30 3737 H 348.506 -2.06661 0.490421 0
M  V30 3738 H 350.769 -0.934812 0.157579 0
M  V30 3739 H 350.475 -3.51699 -0.00704236 0
M  V30 3740 H 350.349 -3.34225 -1.74853 0
M  V30 3741 H 352.736 -2.35102 -1.78356 0
M  V30 3742 H 352.817 -2.55785 -0.0281435 0
M  V30 3743 H 352.461 -5.06827 -0.329915 0
M  V30 3744 H 352.391 -4.83165 -2.09426 0
M  V30 3745 H 354.882 -3.60797 -1.124 0
M  V30 3746 H 355.195 -7.54004 -1.69404 0
M  V30 3747 H 353.54 -6.77944 -1.53027 0
M  V30 3748 H 356.731 -4.49349 -1.31162 0
M  V30 3749 H 356.904 -6.28649 -1.57178 0
M  V30 3750 N 350.31 0.590341 -1.46126 0
M  V30 3751 C 351.557 1.34882 -1.5104 0
M  V30 3752 C 351.885 1.93849 -0.159021 0
M  V30 3753 O 351.14 1.76544 0.844436 0
M  V30 3754 C 351.439 2.5032 -2.55097 0
M  V30 3755 C 351.105 2.09394 -3.99331 0
M  V30 3756 C 349.767 1.97947 -4.38601 0
M  V30 3757 C 352.119 1.77712 -4.89967 0
M  V30 3758 C 349.447 1.53065 -5.66381 0
M  V30 3759 C 351.799 1.34312 -6.18177 0
M  V30 3760 C 350.463 1.21436 -6.56361 0
M  V30 3761 H 349.733 0.493568 -0.552695 0
M  V30 3762 H 352.38 0.665539 -1.79563 0
M  V30 3763 H 350.685 3.24062 -2.20207 0
M  V30 3764 H 352.382 3.08541 -2.56132 0
M  V30 3765 H 348.972 2.19235 -3.68285 0
M  V30 3766 H 353.156 1.85445 -4.60352 0
M  V30 3767 H 348.412 1.41733 -5.94745 0
M  V30 3768 H 352.586 1.08849 -6.87841 0
M  V30 3769 H 350.213 0.864345 -7.5527 0
M  V30 3770 N 351.788 1.33704 0.83433 0
M  V30 3771 C 352.735 1.24335 1.94447 0
M  V30 3772 C 353.705 0.120991 1.65659 0
M  V30 3773 O 354.89 0.300035 1.88426 0
M  V30 3774 C 352.03 0.993124 3.30501 0
M  V30 3775 C 351.143 2.20217 3.71657 0
M  V30 3776 C 350.278 1.88572 4.96602 0
M  V30 3777 C 349.317 3.05683 5.30306 0
M  V30 3778 N 348.454 2.73997 6.46429 0
M  V30 3779 H 353.294 2.1928 2.01792 0
M  V30 3780 H 350.831 1.09035 0.987404 0
M  V30 3781 H 352.789 0.828467 4.08892 0
M  V30 3782 H 351.419 0.0803902 3.227 0
M  V30 3783 H 350.471 2.47642 2.88752 0
M  V30 3784 H 351.783 3.07752 3.92543 0
M  V30 3785 H 350.937 1.68776 5.82752 0
M  V30 3786 H 349.676 0.982799 4.77695 0
M  V30 3787 H 348.681 3.26088 4.42659 0
M  V30 3788 H 349.906 3.96737 5.51159 0
M  V30 3789 H 347.852 1.86268 6.28999 0
M  V30 3790 H 347.769 3.55064 6.67432 0
M  V30 3791 H 349.037 2.57679 7.35678 0
M  V30 3792 N 353.266 -1.05314 1.17247 0
M  V30 3793 C 354.176 -2.16538 0.90268 0
M  V30 3794 C 355.192 -1.73523 -0.128707 0
M  V30 3795 O 356.368 -2.01337 0.0502701 0
M  V30 3796 C 353.433 -3.44167 0.418356 0
M  V30 3797 C 352.494 -4.01635 1.51618 0
M  V30 3798 C 351.727 -5.23171 1.05487 0
M  V30 3799 O 351.95 -5.70327 -0.0914715 0
M  V30 3800 O 350.884 -5.72848 1.8474 0
M  V30 3801 H 354.71 -2.42145 1.83302 0
M  V30 3802 H 352.295 -1.15037 0.953246 0
M  V30 3803 H 354.177 -4.21112 0.155726 0
M  V30 3804 H 352.852 -3.20063 -0.48385 0
M  V30 3805 H 351.759 -3.26135 1.83268 0
M  V30 3806 H 353.092 -4.30053 2.39405 0
M  V30 3807 N 354.744 -0.972509 -1.24016 0
M  V30 3808 C 355.974 -0.653853 -1.9598 0
M  V30 3809 C 356.382 0.781801 -1.72292 0
M  V30 3810 O 355.725 1.53677 -1.00644 0
M  V30 3811 C 355.787 -0.854608 -3.49194 0
M  V30 3812 C 355.451 -2.27082 -3.96589 0
M  V30 3813 C 356.448 -3.24892 -4.05883 0
M  V30 3814 C 354.133 -2.5998 -4.29786 0
M  V30 3815 C 356.127 -4.53684 -4.47716 0
M  V30 3816 C 353.814 -3.88997 -4.71301 0
M  V30 3817 C 354.812 -4.85661 -4.80232 0
M  V30 3818 O 354.5 -6.12376 -5.20818 0
M  V30 3819 H 354.232 -0.242572 -0.630979 0
M  V30 3820 H 356.786 -1.30431 -1.58673 0
M  V30 3821 H 355.016 -0.146985 -3.86421 0
M  V30 3822 H 356.705 -0.534311 -4.02368 0
M  V30 3823 H 357.471 -3.00805 -3.80449 0
M  V30 3824 H 353.35 -1.85457 -4.22051 0
M  V30 3825 H 356.894 -5.29135 -4.54601 0
M  V30 3826 H 352.791 -4.12882 -4.96184 0
M  V30 3827 H 353.559 -6.16013 -5.38953 0
M  V30 3828 N 356.222 1.38976 -0.743202 0
M  V30 3829 C 357.152 2.33171 -0.123873 0
M  V30 3830 C 358.133 1.54336 0.71516 0
M  V30 3831 O 359.318 1.82696 0.658467 0
M  V30 3832 C 356.448 3.38474 0.777978 0
M  V30 3833 C 355.402 4.27979 0.0424758 0
M  V30 3834 C 354.728 5.2405 1.06189 0
M  V30 3835 C 356.028 5.10155 -1.1198 0
M  V30 3836 H 357.722 2.85213 -0.910709 0
M  V30 3837 H 355.268 1.37133 -0.439388 0
M  V30 3838 H 357.221 4.03328 1.22084 0
M  V30 3839 H 355.945 2.84891 1.59702 0
M  V30 3840 H 354.604 3.64616 -0.380853 0
M  V30 3841 H 354.252 4.66758 1.87472 0
M  V30 3842 H 353.952 5.84785 0.574485 0
M  V30 3843 H 355.476 5.9178 1.50428 0
M  V30 3844 H 356.89 5.68307 -0.75499 0
M  V30 3845 H 355.287 5.80073 -1.53738 0
M  V30 3846 H 356.357 4.44504 -1.93764 0
M  V30 3847 N 357.7 0.491464 1.49741 0
M  V30 3848 C 358.925 -0.0557177 2.07325 0
M  V30 3849 C 359.35 -1.30925 1.35056 0
M  V30 3850 O 358.708 -1.76733 0.404365 0
M  V30 3851 C 358.756 -0.302074 3.59333 0
M  V30 3852 O 357.86 -1.37868 3.88672 0
M  V30 3853 H 357.201 0.0219956 0.663636 0
M  V30 3854 H 359.731 0.688352 1.92673 0
M  V30 3855 H 359.741 -0.536464 4.04458 0
M  V30 3856 H 358.416 0.61383 4.11345 0
M  V30 3857 H 356.993 -1.12999 3.55367 0
M  V30 3858 N 359.178 -1.55987 0.224894 0
M  V30 3859 C 360.141 -2.19178 -0.670348 0
M  V30 3860 C 361.141 -1.15461 -1.11917 0
M  V30 3861 O 362.331 -1.40675 -1.02743 0
M  V30 3862 C 359.463 -2.81777 -1.9187 0
M  V30 3863 H 360.656 -2.99662 -0.119364 0
M  V30 3864 H 358.209 -1.5628 -0.0247128 0
M  V30 3865 H 358.944 -2.05172 -2.51147 0
M  V30 3866 H 358.729 -3.57732 -1.60531 0
M  V30 3867 H 360.219 -3.30205 -2.55645 0
M  V30 3868 N 360.656 0.0484629 -1.57525 0
M  V30 3869 C 361.902 0.744226 -1.88651 0
M  V30 3870 C 362.235 1.76029 -0.820212 0
M  V30 3871 O 361.51 1.93782 0.166985 0
M  V30 3872 C 361.793 1.43128 -3.30434 0
M  V30 3873 C 361.646 0.43005 -4.47739 0
M  V30 3874 C 362.965 2.37031 -3.70816 0
M  V30 3875 H 360.084 0.269089 -0.68612 0
M  V30 3876 H 362.726 0.00713532 -1.89999 0
M  V30 3877 H 360.876 2.05956 -3.29415 0
M  V30 3878 H 362.548 -0.194816 -4.60888 0
M  V30 3879 H 360.791 -0.252522 -4.33064 0
M  V30 3880 H 361.462 0.948874 -5.43783 0
M  V30 3881 H 363.938 1.84263 -3.73077 0
M  V30 3882 H 362.814 2.82094 -4.70865 0
M  V30 3883 H 363.075 3.22864 -3.02012 0
M  V30 3884 N 362.134 1.5431 0.320358 0
M  V30 3885 C 363.082 1.84647 1.4145 0
M  V30 3886 C 364.076 0.718624 1.53402 0
M  V30 3887 O 365.282 0.902335 1.5575 0
M  V30 3888 H 361.657 0.585349 0.472091 0
M  V30 3889 H 363.628 2.7614 1.13089 0
M  V30 3890 C 362.377 2.09341 2.77617 0
M  V30 3891 H 361.7 2.9559 2.69196 0
M  V30 3892 H 363.14 2.3452 3.53237 0
M  V30 3893 C 361.599 0.885939 3.25043 0
M  V30 3894 O 362.129 0.0967891 4.01583 0
M  V30 3895 N 360.335 0.696682 2.82125 0
M  V30 3896 H 359.882 1.34006 2.2 0
M  V30 3897 H 359.84 -0.109712 3.14209 0
M  V30 3898 N 363.613 -0.582584 1.46437 0
M  V30 3899 C 364.545 -1.70618 1.53043 0
M  V30 3900 C 365.558 -1.57322 0.418769 0
M  V30 3901 O 366.747 -1.64744 0.687136 0
M  V30 3902 C 363.847 -3.08869 1.39474 0
M  V30 3903 C 363.02 -3.48166 2.64762 0
M  V30 3904 C 362.079 -4.65478 2.4539 0
M  V30 3905 O 361.105 -4.71333 3.19114 0
M  V30 3906 N 362.307 -5.60365 1.51564 0
M  V30 3907 H 365.072 -1.65405 2.49923 0
M  V30 3908 H 362.633 -0.768567 1.42494 0
M  V30 3909 H 364.625 -3.85143 1.24287 0
M  V30 3910 H 363.195 -3.08449 0.507758 0
M  V30 3911 H 362.415 -2.61598 2.9489 0
M  V30 3912 H 363.703 -3.71188 3.4799 0
M  V30 3913 H 363.101 -5.5837 0.907705 0
M  V30 3914 H 361.658 -6.36068 1.4234 0
M  V30 3915 N 365.091 -1.34144 -0.827227 0
M  V30 3916 C 366.021 -1.28005 -1.95287 0
M  V30 3917 C 367.002 -0.158321 -1.69362 0
M  V30 3918 O 368.187 -0.349987 -1.9102 0
M  V30 3919 C 365.317 -1.03036 -3.31664 0
M  V30 3920 C 364.271 -2.11628 -3.72019 0
M  V30 3921 C 363.597 -1.71854 -5.0633 0
M  V30 3922 C 364.897 -3.53417 -3.8457 0
M  V30 3923 H 366.591 -2.22187 -2.00682 0
M  V30 3924 H 364.137 -1.0696 -0.964135 0
M  V30 3925 H 366.09 -0.973863 -4.09993 0
M  V30 3926 H 364.814 -0.0529391 -3.26557 0
M  V30 3927 H 363.473 -2.16339 -2.95961 0
M  V30 3928 H 363.121 -0.727841 -4.97706 0
M  V30 3929 H 362.821 -2.44531 -5.34302 0
M  V30 3930 H 364.345 -1.67692 -5.87122 0
M  V30 3931 H 365.759 -3.51142 -4.5318 0
M  V30 3932 H 364.156 -4.24679 -4.2399 0
M  V30 3933 H 365.226 -3.91072 -2.86689 0
M  V30 3934 N 366.569 1.04691 -1.17803 0
M  V30 3935 C 367.846 1.7472 -0.879328 0
M  V30 3936 C 368.226 2.01812 0.619271 0
M  V30 3937 O 367.574 1.65824 1.57209 0
M  V30 3938 C 367.784 3.03686 -1.71976 0
M  V30 3939 C 369.132 3.77542 -1.94286 0
M  V30 3940 O 370.156 3.13569 -1.68976 0
M  V30 3941 O 369.015 4.92506 -2.36855 0
M  V30 3942 H 366.109 0.760011 -0.326056 0
M  V30 3943 H 368.655 1.10813 -1.28525 0
M  V30 3944 H 367.427 2.79754 -2.73594 0
M  V30 3945 H 367.05 3.75332 -1.31194 0
M  V30 3946 N 368.047 0.979072 1.23499 0
M  V30 3947 C 368.994 0.517904 2.24914 0
M  V30 3948 C 369.964 -0.442525 1.60097 0
M  V30 3949 O 371.149 -0.350365 1.87556 0
M  V30 3950 C 368.289 -0.174813 3.44657 0
M  V30 3951 C 367.402 0.825721 4.24035 0
M  V30 3952 C 366.537 0.107946 5.3109 0
M  V30 3953 C 365.576 1.09778 6.02175 0
M  V30 3954 N 364.713 0.40925 7.00906 0
M  V30 3955 H 369.553 1.38751 2.63727 0
M  V30 3956 H 367.09 0.695303 1.2963 0
M  V30 3957 H 369.048 -0.593233 4.12961 0
M  V30 3958 H 367.678 -1.0083 3.06648 0
M  V30 3959 H 366.73 1.36253 3.55161 0
M  V30 3960 H 368.042 1.58005 4.73113 0
M  V30 3961 H 367.196 -0.367904 6.05583 0
M  V30 3962 H 365.935 -0.678994 4.8295 0
M  V30 3963 H 364.94 1.5844 5.26476 0
M  V30 3964 H 366.165 1.88536 6.52404 0
M  V30 3965 H 364.111 -0.358506 6.5502 0
M  V30 3966 H 364.028 1.10226 7.47921 0
M  V30 3967 H 365.296 -0.0442557 7.79487 0
M  V30 3968 N 369.525 -1.3858 0.750561 0
M  V30 3969 C 370.455 -2.33102 0.136237 0
M  V30 3970 C 371.436 -1.54713 -0.706965 0
M  V30 3971 O 372.621 -1.83043 -0.648769 0
M  V30 3972 C 369.751 -3.38882 -0.760017 0
M  V30 3973 C 368.705 -4.27995 -0.0197785 0
M  V30 3974 C 368.031 -5.24605 -1.03408 0
M  V30 3975 C 369.331 -5.09554 1.14684 0
M  V30 3976 H 371.025 -2.84726 0.925822 0
M  V30 3977 H 368.571 -1.36898 0.446654 0
M  V30 3978 H 370.524 -4.0397 -1.19943 0
M  V30 3979 H 369.248 -2.85734 -1.58189 0
M  V30 3980 H 367.907 -3.64409 0.400184 0
M  V30 3981 H 367.555 -4.67746 -1.84994 0
M  V30 3982 H 367.255 -5.85081 -0.543464 0
M  V30 3983 H 368.779 -5.9257 -1.47288 0
M  V30 3984 H 370.193 -5.67899 0.785118 0
M  V30 3985 H 368.59 -5.7925 1.56812 0
M  V30 3986 H 369.66 -4.4347 1.96118 0
M  V30 3987 N 371.003 -0.499398 -1.49478 0
M  V30 3988 C 371.966 0.268838 -2.27618 0
M  V30 3989 C 372.966 0.895383 -1.33565 0
M  V30 3990 O 374.156 0.760164 -1.56739 0
M  V30 3991 C 371.288 1.38559 -3.11471 0
M  V30 3992 H 372.481 -0.416812 -2.96989 0
M  V30 3993 H 370.034 -0.254313 -1.54217 0
M  V30 3994 H 370.769 2.10544 -2.46661 0
M  V30 3995 H 370.554 0.941797 -3.80621 0
M  V30 3996 H 372.044 1.92678 -3.70493 0
M  V30 3997 N 372.481 1.55866 -0.233164 0
M  V30 3998 C 373.428 2.20796 0.67215 0
M  V30 3999 C 374.398 1.16731 1.18166 0
M  V30 4000 O 375.583 1.45129 1.23864 0
M  V30 4001 C 372.723 2.90072 1.86955 0
M  V30 4002 C 371.836 4.08759 1.39786 0
M  V30 4003 C 370.971 4.65787 2.55374 0
M  V30 4004 C 370.01 5.76752 2.04998 0
M  V30 4005 N 369.147 6.28021 3.13901 0
M  V30 4006 H 373.987 2.9779 0.111749 0
M  V30 4007 H 371.524 1.47036 0.0434007 0
M  V30 4008 H 373.482 3.28428 2.57276 0
M  V30 4009 H 372.112 2.15575 2.40265 0
M  V30 4010 H 371.164 3.7581 0.589173 0
M  V30 4011 H 372.476 4.88906 0.98856 0
M  V30 4012 H 371.63 5.06646 3.33758 0
M  V30 4013 H 370.369 3.84828 2.99598 0
M  V30 4014 H 369.374 5.35383 1.25079 0
M  V30 4015 H 370.599 6.59553 1.61759 0
M  V30 4016 H 368.545 5.49971 3.57586 0
M  V30 4017 H 368.462 7.03323 2.7726 0
M  V30 4018 H 369.73 6.73538 3.92386 0
M  V30 4019 N 373.959 -0.0401083 1.57549 0
M  V30 4020 C 375.187 -0.745196 1.93014 0
M  V30 4021 C 375.602 -1.6948 0.831984 0
M  V30 4022 O 374.959 -1.81482 -0.192463 0
M  V30 4023 C 375.01 -1.51176 3.28372 0
M  V30 4024 O 374.731 -0.600284 4.33968 0
M  V30 4025 C 376.232 -2.315 3.78051 0
M  V30 4026 H 373.452 -0.210088 0.637263 0
M  V30 4027 H 375.996 -0.000924689 2.045 0
M  V30 4028 H 374.151 -2.20801 3.18317 0
M  V30 4029 H 374.565 -1.13669 5.12035 0
M  V30 4030 H 376.039 -2.80697 4.75303 0
M  V30 4031 H 376.516 -3.12436 3.08675 0
M  V30 4032 H 377.122 -1.66971 3.91153 0
M  V30 4033 N 375.437 -1.54477 -0.31217 0
M  V30 4034 C 376.853 -1.45442 -0.657185 0
M  V30 4035 C 377.053 -0.63653 -1.91182 0
M  V30 4036 O 376.109 -0.139815 -2.52113 0
M  V30 4037 C 377.422 -2.89287 -0.82058 0
M  V30 4038 C 378.97 -2.9926 -0.917188 0
M  V30 4039 C 379.445 -4.44279 -1.11267 0
M  V30 4040 N 380.936 -4.4794 -1.17914 0
M  V30 4041 C 381.671 -5.57318 -1.34848 0
M  V30 4042 N 381.167 -6.76642 -1.48752 0
M  V30 4043 N 382.96 -5.44986 -1.37647 0
M  V30 4044 H 375.111 -2.06129 0.512313 0
M  V30 4045 H 377.374 -0.933088 0.167485 0
M  V30 4046 H 377.08 -3.51687 0.0302604 0
M  V30 4047 H 376.954 -3.36061 -1.71298 0
M  V30 4048 H 379.341 -2.36981 -1.75852 0
M  V30 4049 H 379.422 -2.558 -0.00101257 0
M  V30 4050 H 379.066 -5.07149 -0.27614 0
M  V30 4051 H 378.996 -4.85359 -2.04289 0
M  V30 4052 H 381.487 -3.61969 -1.08567 0
M  V30 4053 H 381.8 -7.55758 -1.61397 0
M  V30 4054 H 380.145 -6.79529 -1.45828 0
M  V30 4055 H 383.336 -4.50715 -1.26388 0
M  V30 4056 H 383.509 -6.3028 -1.50501 0
M  V30 4057 N 376.915 0.57481 -1.46744 0
M  V30 4058 C 378.145 1.35659 -1.55821 0
M  V30 4059 C 378.553 1.88129 -0.201036 0
M  V30 4060 O 377.896 1.64723 0.813134 0
M  V30 4061 C 377.958 2.57473 -2.50894 0
M  V30 4062 C 377.622 2.26415 -3.9697 0
M  V30 4063 C 378.619 1.84771 -4.85958 0
M  V30 4064 C 376.304 2.38316 -4.42166 0
M  V30 4065 C 378.298 1.55434 -6.18158 0
M  V30 4066 C 375.985 2.08591 -5.74398 0
M  V30 4067 C 376.983 1.67216 -6.62214 0
M  V30 4068 O 376.671 1.37859 -7.91991 0
M  V30 4069 H 376.403 0.420496 -0.529301 0
M  V30 4070 H 378.957 0.704967 -1.92923 0
M  V30 4071 H 377.187 3.25468 -2.08824 0
M  V30 4072 H 378.876 3.19546 -2.50291 0
M  V30 4073 H 379.642 1.75085 -4.52295 0
M  V30 4074 H 375.521 2.69483 -3.74032 0
M  V30 4075 H 379.065 1.23065 -6.86659 0
M  V30 4076 H 374.962 2.17905 -6.07608 0
M  V30 4077 H 375.73 1.51638 -8.04331 0
M  V30 4078 N 378.394 1.34581 0.820102 0
M  V30 4079 C 379.642 1.26845 1.57336 0
M  V30 4080 C 379.963 -0.160667 1.94337 0
M  V30 4081 O 379.233 -1.09396 1.6251 0
M  V30 4082 H 377.813 0.466514 0.583415 0
M  V30 4083 H 380.475 1.68526 0.979027 0
M  V30 4084 H 379.571 1.87513 2.4949 0
M  V30 4085 N 379.872 -1.04064 1.18357 0
M  V30 4086 C 380.819 -2.12077 0.910603 0
M  V30 4087 C 381.789 -1.65421 -0.15 0
M  V30 4088 O 382.974 -1.90797 -0.0103614 0
M  V30 4089 C 380.114 -3.42252 0.442472 0
M  V30 4090 C 379.227 -4.0252 1.5685 0
M  V30 4091 C 378.362 -5.20657 1.05309 0
M  V30 4092 C 377.401 -5.72955 2.1538 0
M  V30 4093 N 376.538 -6.8238 1.65233 0
M  V30 4094 H 381.378 -2.34764 1.83548 0
M  V30 4095 H 378.915 -1.15157 0.915279 0
M  V30 4096 H 380.873 -4.16921 0.152534 0
M  V30 4097 H 379.503 -3.19712 -0.445428 0
M  V30 4098 H 378.555 -3.25178 1.97391 0
M  V30 4099 H 379.867 -4.37362 2.39824 0
M  V30 4100 H 379.021 -6.0244 0.717677 0
M  V30 4101 H 377.76 -4.87318 0.19293 0
M  V30 4102 H 376.765 -4.89793 2.49766 0
M  V30 4103 H 377.99 -6.08337 3.01832 0
M  V30 4104 H 375.936 -6.50917 0.815064 0
M  V30 4105 H 375.853 -7.16286 2.41805 0
M  V30 4106 H 377.121 -7.67788 1.34619 0
M  V30 4107 N 381.35 -0.985608 -1.22978 0
M  V30 4108 C 382.575 -0.675254 -1.961 0
M  V30 4109 C 383 0.752154 -1.72407 0
M  V30 4110 O 382.358 1.5131 -0.998751 0
M  V30 4111 C 382.406 -0.977899 -3.47087 0
M  V30 4112 O 381.51 -0.072685 -4.12336 0
M  V30 4113 H 380.851 -0.253443 -0.613728 0
M  V30 4114 H 383.381 -1.32061 -1.56272 0
M  V30 4115 H 383.391 -0.916739 -3.97567 0
M  V30 4116 H 382.066 -2.01807 -3.63657 0
M  V30 4117 H 380.643 -0.188703 -3.72422 0
M  V30 4118 N 382.828 1.3818 -0.7579 0
M  V30 4119 C 384.074 2.00316 -0.316453 0
M  V30 4120 C 384.407 1.60026 1.10025 0
M  V30 4121 O 383.682 0.839835 1.75434 0
M  V30 4122 C 383.965 3.57349 -0.444245 0
M  V30 4123 C 383.818 4.07591 -1.90236 0
M  V30 4124 C 385.137 4.3981 0.1598 0
M  V30 4125 H 382.256 0.727741 -0.116459 0
M  V30 4126 H 384.898 1.6406 -0.958352 0
M  V30 4127 H 383.048 3.88365 0.102233 0
M  V30 4128 H 384.72 3.87199 -2.50748 0
M  V30 4129 H 382.963 3.60297 -2.41595 0
M  V30 4130 H 383.634 5.16677 -1.94291 0
M  V30 4131 H 386.11 4.14971 -0.306314 0
M  V30 4132 H 384.986 5.48885 0.0401675 0
M  V30 4133 H 385.247 4.24102 1.24859 0
M  V30 4134 N 384.306 0.507319 1.49211 0
M  V30 4135 C 385.555 -0.0368315 2.01666 0
M  V30 4136 C 385.868 -1.37459 1.39156 0
M  V30 4137 O 387.074 -2.00579 1.82976 0
M  V30 4138 C 385.53 -0.116089 3.59713 0
M  V30 4139 C 385.138 1.2154 4.31198 0
M  V30 4140 C 386.882 -0.610268 4.2009 0
M  V30 4141 C 384.789 1.09796 5.81119 0
M  V30 4142 H 383.719 -0.0175376 0.753796 0
M  V30 4143 H 386.37 0.647691 1.71689 0
M  V30 4144 H 384.752 -0.8652 3.86433 0
M  V30 4145 H 385.926 1.9783 4.16173 0
M  V30 4146 H 384.241 1.64352 3.82593 0
M  V30 4147 H 386.838 -0.715742 5.29888 0
M  V30 4148 H 387.181 -1.61064 3.8388 0
M  V30 4149 H 387.714 0.0824916 3.97714 0
M  V30 4150 H 384.453 2.0728 6.21864 0
M  V30 4151 H 383.973 0.376058 5.9862 0
M  V30 4152 H 385.652 0.779281 6.4229 0
M  V30 4153 N 385.784 -1.5574 0.241426 0
M  V30 4154 C 386.734 -2.17803 -0.674233 0
M  V30 4155 C 387.718 -1.13225 -1.14319 0
M  V30 4156 O 388.91 -1.39153 -1.09387 0
M  V30 4157 C 386.039 -2.87682 -1.87333 0
M  V30 4158 C 385.125 -3.99509 -1.42313 0
M  V30 4159 N 385.516 -5.01115 -0.686798 0
M  V30 4160 C 383.814 -4.11964 -1.70885 0
M  V30 4161 C 384.515 -5.79922 -0.454456 0
M  V30 4162 N 383.491 -5.34001 -1.01705 0
M  V30 4163 H 387.293 -2.93718 -0.103447 0
M  V30 4164 H 384.807 -1.62342 0.0435095 0
M  V30 4165 H 386.804 -3.3057 -2.54026 0
M  V30 4166 H 385.464 -2.13269 -2.4484 0
M  V30 4167 H 386.475 -5.16799 -0.337459 0
M  V30 4168 H 383.152 -3.48718 -2.2957 0
M  V30 4169 H 384.542 -6.71768 0.132992 0
M  V30 4170 N 387.262 0.0317525 -1.57568 0
M  V30 4171 C 388.192 1.03274 -2.0942 0
M  V30 4172 C 389.173 1.3788 -0.996143 0
M  V30 4173 O 390.358 1.46811 -1.27122 0
M  V30 4174 C 387.488 2.33448 -2.57137 0
M  V30 4175 C 386.442 2.13091 -3.71182 0
M  V30 4176 C 385.768 3.49001 -4.05095 0
M  V30 4177 C 387.068 1.51928 -4.99715 0
M  V30 4178 H 388.762 0.60112 -2.93303 0
M  V30 4179 H 386.308 0.287705 -1.41097 0
M  V30 4180 H 388.261 3.03802 -2.92032 0
M  V30 4181 H 386.985 2.78665 -1.70333 0
M  V30 4182 H 385.644 1.45171 -3.36632 0
M  V30 4183 H 385.292 3.91862 -3.15362 0
M  V30 4184 H 384.992 3.36207 -4.81911 0
M  V30 4185 H 386.516 4.20721 -4.42522 0
M  V30 4186 H 387.93 2.12196 -5.32584 0
M  V30 4187 H 386.327 1.49716 -5.81124 0
M  V30 4188 H 387.397 0.484811 -4.8247 0
M  V30 4189 N 388.74 1.54641 0.303973 0
M  V30 4190 C 389.703 1.84646 1.35789 0
M  V30 4191 C 390.703 0.7192 1.4382 0
M  V30 4192 O 391.893 0.987491 1.43507 0
M  V30 4193 C 389.025 2.02407 2.74307 0
M  V30 4194 H 390.218 2.78829 1.10429 0
M  V30 4195 H 387.771 1.46658 0.540487 0
M  V30 4196 H 388.506 1.10502 3.04893 0
M  V30 4197 H 388.291 2.84453 2.69868 0
M  V30 4198 H 389.781 2.27002 3.50514 0
M  V30 4199 N 390.218 -0.567019 1.47046 0
M  V30 4200 C 391.464 -1.32658 1.53394 0
M  V30 4201 C 391.797 -1.93254 0.19148 0
M  V30 4202 O 391.072 -1.77338 -0.798844 0
M  V30 4203 C 391.355 -2.44412 2.64452 0
M  V30 4204 C 391.208 -1.88749 4.08282 0
M  V30 4205 C 392.527 -3.46387 2.71485 0
M  V30 4206 H 389.646 -0.48098 0.558415 0
M  V30 4207 H 392.288 -0.635481 1.79058 0
M  V30 4208 H 390.438 -3.03363 2.427 0
M  V30 4209 H 392.11 -1.34134 4.41368 0
M  V30 4210 H 390.353 -1.19481 4.17021 0
M  V30 4211 H 391.024 -2.69491 4.81745 0
M  V30 4212 H 393.5 -2.9734 2.91081 0
M  V30 4213 H 392.376 -4.2202 3.50985 0
M  V30 4214 H 392.637 -4.04616 1.78153 0
M  V30 4215 N 391.696 -1.35014 -0.812953 0
M  V30 4216 C 393.112 -1.14914 -1.10757 0
M  V30 4217 C 393.312 0.0426818 -2.01455 0
M  V30 4218 O 392.368 0.715212 -2.42159 0
M  V30 4219 C 393.681 -2.44911 -1.74468 0
M  V30 4220 C 395.229 -2.5106 -1.86917 0
M  V30 4221 C 395.704 -3.81085 -2.54044 0
M  V30 4222 N 397.195 -3.82301 -2.61535 0
M  V30 4223 C 397.93 -4.79634 -3.14227 0
M  V30 4224 N 397.426 -5.87353 -3.67407 0
M  V30 4225 N 399.219 -4.67078 -3.12721 0
M  V30 4226 H 391.37 -2.1136 -0.20989 0
M  V30 4227 H 393.633 -0.935128 -0.155692 0
M  V30 4228 H 393.339 -3.32267 -1.15289 0
M  V30 4229 H 393.213 -2.58989 -2.74234 0
M  V30 4230 H 395.6 -1.64137 -2.45241 0
M  V30 4231 H 395.681 -2.40901 -0.860242 0
M  V30 4232 H 395.325 -4.68402 -1.96372 0
M  V30 4233 H 395.255 -3.88529 -3.55461 0
M  V30 4234 H 397.746 -3.04465 -2.23851 0
M  V30 4235 H 398.059 -6.57624 -4.05894 0
M  V30 4236 H 396.404 -5.91054 -3.65623 0
M  V30 4237 H 399.595 -3.82067 -2.70449 0
M  V30 4238 H 399.768 -5.43098 -3.53481 0
M  V30 4239 N 393.175 1.03435 -1.18907 0
M  V30 4240 C 394.421 1.7713 -0.99982 0
M  V30 4241 C 394.776 1.86695 0.465049 0
M  V30 4242 O 394.069 1.36866 1.34083 0
M  V30 4243 C 394.263 3.19792 -1.59586 0
M  V30 4244 C 394.092 3.24134 -3.11717 0
M  V30 4245 C 392.862 3.32398 -3.80578 0
M  V30 4246 C 395.06 3.11625 -4.09138 0
M  V30 4247 N 393.042 3.26055 -5.20155 0
M  V30 4248 C 394.413 3.12855 -5.35277 0
M  V30 4249 C 396.468 2.95713 -4.00572 0
M  V30 4250 C 395.171 2.99805 -6.53842 0
M  V30 4251 C 397.197 2.84011 -5.1874 0
M  V30 4252 C 396.559 2.8589 -6.43775 0
M  V30 4253 H 392.658 0.659683 -0.419931 0
M  V30 4254 H 395.242 1.2317 -1.50789 0
M  V30 4255 H 393.413 3.72085 -1.11389 0
M  V30 4256 H 395.145 3.81819 -1.3415 0
M  V30 4257 H 391.9 3.38392 -3.31342 0
M  V30 4258 H 392.324 3.26307 -5.93172 0
M  V30 4259 H 396.966 2.93086 -3.0473 0
M  V30 4260 H 394.684 3.01184 -7.49876 0
M  V30 4261 H 398.27 2.72744 -5.13909 0
M  V30 4262 H 397.15 2.76931 -7.33675 0
M  V30 4263 N 394.653 0.992116 1.22453 0
M  V30 4264 C 395.902 0.662992 1.90492 0
M  V30 4265 C 396.215 -0.808407 1.78113 0
M  V30 4266 O 397.421 -1.24908 2.41061 0
M  V30 4267 C 395.877 1.1353 3.41524 0
M  V30 4268 C 395.485 2.63187 3.62542 0
M  V30 4269 C 397.229 0.880465 4.15269 0
M  V30 4270 C 395.136 3.04024 5.0727 0
M  V30 4271 H 394.066 0.244278 0.713333 0
M  V30 4272 H 396.717 1.20157 1.38688 0
M  V30 4273 H 395.099 0.52485 3.92506 0
M  V30 4274 H 396.273 3.2957 3.22056 0
M  V30 4275 H 394.588 2.86543 3.02129 0
M  V30 4276 H 397.185 1.16128 5.21937 0
M  V30 4277 H 397.528 -0.183408 4.15896 0
M  V30 4278 H 398.061 1.45307 3.70312 0
M  V30 4279 H 394.8 4.09584 5.11782 0
M  V30 4280 H 394.32 2.42343 5.48662 0
M  V30 4281 H 395.999 2.95282 5.75689 0
M  V30 4282 N 396.131 -1.37776 0.765217 0
M  V30 4283 C 397.061 -2.32945 0.160953 0
M  V30 4284 C 398.042 -1.55454 -0.690516 0
M  V30 4285 O 399.227 -1.83721 -0.629318 0
M  V30 4286 C 396.357 -3.39669 -0.724031 0
M  V30 4287 C 395.311 -4.27992 0.0256173 0
M  V30 4288 C 394.637 -5.25673 -0.978383 0
M  V30 4289 C 395.937 -5.08309 1.20082 0
M  V30 4290 H 397.631 -2.83728 0.955969 0
M  V30 4291 H 395.177 -1.36416 0.461149 0
M  V30 4292 H 397.13 -4.05219 -1.15652 0
M  V30 4293 H 395.854 -2.87396 -1.5515 0
M  V30 4294 H 394.513 -3.63964 0.438812 0
M  V30 4295 H 394.161 -4.69682 -1.80022 0
M  V30 4296 H 393.861 -5.85625 -0.481378 0
M  V30 4297 H 395.385 -5.94098 -1.40995 0
M  V30 4298 H 396.799 -5.67034 0.845307 0
M  V30 4299 H 395.196 -5.77554 1.62947 0
M  V30 4300 H 396.266 -4.41365 2.00811 0
M  V30 4301 N 397.609 -0.515225 -1.4894 0
M  V30 4302 C 398.886 0.0879088 -1.95402 0
M  V30 4303 C 399.266 1.52745 -1.45712 0
M  V30 4304 O 398.614 2.18238 -0.677093 0
M  V30 4305 C 398.824 -0.0141055 -3.48997 0
M  V30 4306 C 400.172 0.152646 -4.24326 0
M  V30 4307 O 401.196 0.0604025 -3.56149 0
M  V30 4308 O 400.055 0.34384 -5.45417 0
M  V30 4309 H 397.149 0.0874636 -0.822362 0
M  V30 4310 H 399.695 -0.578775 -1.59525 0
M  V30 4311 H 398.467 -1.01745 -3.77841 0
M  V30 4312 H 398.09 0.692091 -3.9153 0
M  V30 4313 N 399.087 1.5561 -0.249682 0
M  V30 4314 C 400.019 2.18834 0.681496 0
M  V30 4315 C 401.032 1.16546 1.1367 0
M  V30 4316 O 402.221 1.43397 1.06299 0
M  V30 4317 C 399.321 2.77992 1.9384 0
M  V30 4318 C 398.494 4.05725 1.63419 0
M  V30 4319 C 397.553 4.49174 2.74096 0
M  V30 4320 O 396.579 5.15492 2.41364 0
M  V30 4321 N 397.781 4.17191 4.03649 0
M  V30 4322 H 400.546 2.9937 0.140514 0
M  V30 4323 H 398.107 1.6175 -0.0697541 0
M  V30 4324 H 400.099 3.04015 2.67127 0
M  V30 4325 H 398.669 2.01596 2.38909 0
M  V30 4326 H 397.889 3.87261 0.736358 0
M  V30 4327 H 399.177 4.88999 1.40562 0
M  V30 4328 H 398.575 3.63955 4.33074 0
M  V30 4329 H 397.132 4.48043 4.73393 0
M  V30 4330 N 400.565 -0.0233959 1.57583 0
M  V30 4331 C 401.976 -0.56927 1.77809 0
M  V30 4332 C 402.327 -1.75284 0.881472 0
M  V30 4333 O 401.452 -2.1626 0.0777805 0
M  V30 4334 C 402.047 -1.03949 3.22459 0
M  V30 4335 C 400.606 -1.53084 3.43864 0
M  V30 4336 C 399.753 -0.471454 2.73263 0
M  V30 4337 H 402.704 0.202825 1.57399 0
M  V30 4338 H 402.725 -1.90661 3.29285 0
M  V30 4339 H 402.237 -0.177865 3.87692 0
M  V30 4340 H 400.338 -2.41414 2.83814 0
M  V30 4341 H 400.451 -1.57443 4.52491 0
M  V30 4342 H 398.815 -0.927788 2.37201 0
M  V30 4343 H 399.598 0.380808 3.41181 0
M  V30 4344 N 402.043 -1.548 -0.295768 0
M  V30 4345 C 403.291 -1.73985 -1.02828 0
M  V30 4346 C 403.612 -0.531406 -1.87619 0
M  V30 4347 O 402.882 0.454221 -1.90561 0
M  V30 4348 H 401.462 -0.641556 -0.382642 0
M  V30 4349 H 404.124 -1.92163 -0.325489 0
M  V30 4350 H 403.22 -2.63129 -1.67838 0
M  V30 4351 N 403.521 0.559213 -1.47345 0
M  V30 4352 C 404.484 1.64854 -1.59235 0
M  V30 4353 C 405.484 1.53851 -0.467607 0
M  V30 4354 O 406.674 1.58045 -0.732617 0
M  V30 4355 C 403.806 3.04388 -1.53496 0
M  V30 4356 H 404.999 1.55662 -2.56339 0
M  V30 4357 H 402.552 0.778973 -1.35505 0
M  V30 4358 H 403.287 3.19115 -0.577604 0
M  V30 4359 H 403.072 3.13783 -2.35123 0
M  V30 4360 H 404.562 3.83642 -1.6495 0
M  V30 4361 N 404.999 1.35443 0.805782 0
M  V30 4362 C 406.276 1.19325 1.54987 0
M  V30 4363 C 406.656 -0.227294 2.09873 0
M  V30 4364 O 406.004 -1.2309 1.92512 0
M  V30 4365 C 406.214 2.26196 2.65775 0
M  V30 4366 C 407.562 2.62043 3.34094 0
M  V30 4367 O 408.586 2.25115 2.76046 0
M  V30 4368 O 407.445 3.25542 4.38958 0
M  V30 4369 H 404.539 0.463623 0.684823 0
M  V30 4370 H 407.085 1.47127 0.845674 0
M  V30 4371 H 405.857 3.21471 2.23096 0
M  V30 4372 H 405.48 1.99667 3.43829 0
M  V30 4373 N 406.477 -1.02803 1.19454 0
M  V30 4374 C 407.726 -1.7562 0.991996 0
M  V30 4375 C 408.039 -1.89672 -0.477901 0
M  V30 4376 O 409.245 -2.59468 -0.799287 0
M  V30 4377 C 407.701 -3.15812 1.72601 0
M  V30 4378 C 407.309 -3.0981 3.23607 0
M  V30 4379 C 409.053 -3.92918 1.60674 0
M  V30 4380 C 406.96 -4.44939 3.89594 0
M  V30 4381 H 405.89 -0.658352 0.367543 0
M  V30 4382 H 408.541 -1.15044 1.42959 0
M  V30 4383 H 406.923 -3.7686 1.21624 0
M  V30 4384 H 408.097 -2.58138 3.81709 0
M  V30 4385 H 406.412 -2.46201 3.35819 0
M  V30 4386 H 409.009 -4.9287 2.07323 0
M  V30 4387 H 409.352 -4.12502 0.561025 0
M  V30 4388 H 409.885 -3.38472 2.09001 0
M  V30 4389 H 406.624 -4.30559 4.94267 0
M  V30 4390 H 406.144 -4.96664 3.36281 0
M  V30 4391 H 407.823 -5.1382 3.93189 0
M  V30 4392 N 407.956 -0.998596 -1.21925 0
M  V30 4393 C 408.919 -0.558679 -2.22287 0
M  V30 4394 C 409.919 0.361525 -1.56683 0
M  V30 4395 O 411.109 0.152695 -1.73529 0
M  V30 4396 C 408.241 0.18661 -3.40389 0
M  V30 4397 H 409.434 -1.4463 -2.62721 0
M  V30 4398 H 406.987 -0.786413 -1.35075 0
M  V30 4399 H 407.722 1.08996 -3.05435 0
M  V30 4400 H 407.507 -0.474188 -3.89222 0
M  V30 4401 H 408.997 0.482367 -4.14805 0
M  V30 4402 N 409.434 1.37368 -0.772513 0
M  V30 4403 C 410.364 2.32856 -0.173304 0
M  V30 4404 C 411.345 1.55818 0.682262 0
M  V30 4405 O 412.53 1.84052 0.619566 0
M  V30 4406 C 409.66 3.40048 0.706007 0
M  V30 4407 C 408.614 4.27973 -0.0483144 0
M  V30 4408 C 407.94 5.26184 0.950491 0
M  V30 4409 C 409.24 5.07665 -1.22776 0
M  V30 4410 H 410.934 2.83217 -0.971002 0
M  V30 4411 H 408.48 1.3617 -0.468377 0
M  V30 4412 H 410.433 4.05827 1.13501 0
M  V30 4413 H 409.157 2.88214 1.53623 0
M  V30 4414 H 407.816 3.63726 -0.458107 0
M  V30 4415 H 407.464 4.7063 1.77529 0
M  V30 4416 H 407.164 5.85872 0.450314 0
M  V30 4417 H 408.688 5.94838 1.37842 0
M  V30 4418 H 410.102 5.66578 -0.875366 0
M  V30 4419 H 408.499 5.76681 -1.66007 0
M  V30 4420 H 409.569 4.40294 -2.03149 0
M  V30 4421 N 410.912 0.523116 1.48665 0
M  V30 4422 C 412.158 -0.00540031 2.03399 0
M  V30 4423 C 412.513 -1.3264 1.39372 0
M  V30 4424 O 411.806 -1.84184 0.527916 0
M  V30 4425 C 412 -0.191671 3.56886 0
M  V30 4426 C 411.829 1.10972 4.35793 0
M  V30 4427 C 410.599 1.66769 4.76987 0
M  V30 4428 C 412.797 2.01861 4.73029 0
M  V30 4429 N 410.779 2.91268 5.40404 0
M  V30 4430 C 412.15 3.10937 5.36394 0
M  V30 4431 C 414.205 2.02271 4.54962 0
M  V30 4432 C 412.908 4.20478 5.83601 0
M  V30 4433 C 414.934 3.10802 5.03146 0
M  V30 4434 C 414.296 4.18597 5.6653 0
M  V30 4435 H 410.395 0.0393531 0.781009 0
M  V30 4436 H 412.979 0.702876 1.8157 0
M  V30 4437 H 411.15 -0.869025 3.78553 0
M  V30 4438 H 412.882 -0.719177 3.98259 0
M  V30 4439 H 409.637 1.20996 4.57883 0
M  V30 4440 H 410.061 3.54635 5.76683 0
M  V30 4441 H 414.703 1.2023 4.05345 0
M  V30 4442 H 412.421 5.03303 6.32228 0
M  V30 4443 H 416.007 3.12166 4.90962 0
M  V30 4444 H 414.887 5.01193 6.03138 0
M  V30 4445 N 412.39 -1.55475 0.257931 0
M  V30 4446 C 413.638 -1.98813 -0.363009 0
M  V30 4447 C 413.959 -1.14757 -1.57657 0
M  V30 4448 O 413.229 -0.232956 -1.9451 0
M  V30 4449 H 411.809 -0.734308 -0.137113 0
M  V30 4450 H 414.471 -1.9156 0.359281 0
M  V30 4451 H 413.567 -3.04941 -0.664634 0
M  V30 4452 N 413.868 0.0150385 -1.57593 0
M  V30 4453 C 414.831 0.995996 -2.06428 0
M  V30 4454 C 415.831 1.2818 -0.970903 0
M  V30 4455 O 417.021 1.22949 -1.23406 0
M  V30 4456 C 414.153 2.32506 -2.49307 0
M  V30 4457 H 415.346 0.573873 -2.94358 0
M  V30 4458 H 412.899 0.262186 -1.54085 0
M  V30 4459 H 413.634 2.79438 -1.64575 0
M  V30 4460 H 413.419 2.13087 -3.29145 0
M  V30 4461 H 414.909 3.02906 -2.87468 0
M  V30 4462 N 415.346 1.54954 0.287554 0
M  V30 4463 C 416.762 1.46469 0.633964 0
M  V30 4464 C 416.962 0.666865 1.90145 0
M  V30 4465 O 416.018 0.179906 2.51858 0
M  V30 4466 C 417.331 2.90556 0.774454 0
M  V30 4467 C 418.879 3.00681 0.869462 0
M  V30 4468 C 419.354 4.45993 1.04184 0
M  V30 4469 N 420.845 4.4976 1.10772 0
M  V30 4470 C 421.58 5.59393 1.25964 0
M  V30 4471 N 421.076 6.78923 1.37968 0
M  V30 4472 N 422.869 5.47107 1.28959 0
M  V30 4473 H 415.02 2.05288 -0.545041 0
M  V30 4474 H 417.283 0.930305 -0.182308 0
M  V30 4475 H 416.989 3.51594 -0.086207 0
M  V30 4476 H 416.863 3.38743 1.6593 0
M  V30 4477 H 419.25 2.39749 1.7206 0
M  V30 4478 H 419.331 2.55769 -0.0396831 0
M  V30 4479 H 418.975 5.07524 0.195422 0
M  V30 4480 H 418.905 4.88548 1.96542 0
M  V30 4481 H 421.396 3.63651 1.02794 0
M  V30 4482 H 421.709 7.58231 1.49353 0
M  V30 4483 H 420.054 6.81763 1.34999 0
M  V30 4484 H 423.245 4.52668 1.19202 0
M  V30 4485 H 423.418 6.32595 1.40455 0
M  V30 4486 N 416.824 -0.551391 1.4764 0
M  V30 4487 C 417.771 -1.65796 1.60563 0
M  V30 4488 C 418.741 -1.59932 0.448428 0
M  V30 4489 O 419.926 -1.78679 0.669222 0
M  V30 4490 C 417.066 -3.04108 1.63133 0
M  V30 4491 C 416.179 -3.20365 2.89811 0
M  V30 4492 C 415.314 -4.49109 2.8368 0
M  V30 4493 C 414.353 -4.58819 4.05156 0
M  V30 4494 N 413.49 -5.78926 3.97227 0
M  V30 4495 H 418.33 -1.54088 2.5507 0
M  V30 4496 H 415.867 -0.75052 1.26513 0
M  V30 4497 H 417.825 -3.84207 1.62606 0
M  V30 4498 H 416.455 -3.14637 0.721341 0
M  V30 4499 H 415.507 -2.33659 3.00179 0
M  V30 4500 H 416.819 -3.23402 3.79753 0
M  V30 4501 H 415.973 -5.37475 2.81434 0
M  V30 4502 H 414.712 -4.4856 1.91431 0
M  V30 4503 H 413.717 -3.68864 4.077 0
M  V30 4504 H 414.942 -4.61124 4.98539 0
M  V30 4505 H 412.888 -5.79314 3.07785 0
M  V30 4506 H 412.805 -5.83367 4.80853 0
M  V30 4507 H 414.073 -6.69637 3.99007 0
M  V30 4508 N 418.302 -1.35869 -0.798587 0
M  V30 4509 C 419.713 -1.26498 -1.37314 0
M  V30 4510 C 420.064 0.0991899 -1.95949 0
M  V30 4511 O 419.189 1.0004 -1.91888 0
M  V30 4512 C 419.784 -2.29054 -2.49639 0
M  V30 4513 C 418.343 -2.234 -3.02935 0
M  V30 4514 C 417.49 -2.14329 -1.75949 0
M  V30 4515 H 420.441 -1.46881 -0.600971 0
M  V30 4516 H 420.462 -1.92166 -3.28409 0
M  V30 4517 H 419.974 -3.2833 -2.06933 0
M  V30 4518 H 418.075 -1.27562 -3.50084 0
M  V30 4519 H 418.188 -3.15703 -3.60372 0
M  V30 4520 H 416.552 -1.60435 -1.9782 0
M  V30 4521 H 417.335 -3.15477 -1.35384 0
M  V30 4522 N 419.78 1.02168 -1.19998 0
M  V30 4523 C 421.028 1.75338 -1.00504 0
M  V30 4524 C 421.349 1.89387 0.464506 0
M  V30 4525 O 420.619 1.43268 1.33608 0
M  V30 4526 H 419.199 0.649564 -0.368885 0
M  V30 4527 H 421.861 1.23205 -1.51018 0
M  V30 4528 H 420.957 2.75892 -1.45912 0
M  V30 4529 N 421.258 1.00505 1.21394 0
M  V30 4530 C 422.19 0.52372 2.23136 0
M  V30 4531 C 423.203 -0.387714 1.58116 0
M  V30 4532 O 424.392 -0.187905 1.77508 0
M  V30 4533 C 421.492 -0.258885 3.3791 0
M  V30 4534 C 420.665 0.651634 4.32519 0
M  V30 4535 C 419.724 -0.0813705 5.26137 0
M  V30 4536 O 418.75 0.537295 5.66658 0
M  V30 4537 N 419.952 -1.35992 5.64346 0
M  V30 4538 H 422.717 1.39865 2.65062 0
M  V30 4539 H 420.278 0.881196 1.35818 0
M  V30 4540 H 422.27 -0.758208 3.97534 0
M  V30 4541 H 420.84 -1.035 2.94968 0
M  V30 4542 H 420.06 1.33145 3.71034 0
M  V30 4543 H 421.348 1.27129 4.92662 0
M  V30 4544 H 420.746 -1.88368 5.33417 0
M  V30 4545 H 419.303 -1.8042 6.26332 0
M  V30 4546 N 422.737 -1.36956 0.779787 0
M  V30 4547 C 423.667 -2.32761 0.185651 0
M  V30 4548 C 424.648 -1.56177 -0.673989 0
M  V30 4549 O 425.833 -1.84378 -0.609797 0
M  V30 4550 C 422.963 -3.40418 -0.687964 0
M  V30 4551 C 421.917 -4.27941 0.0710102 0
M  V30 4552 C 421.243 -5.26681 -0.922573 0
M  V30 4553 C 422.543 -5.07006 1.25467 0
M  V30 4554 H 424.237 -2.82698 0.986008 0
M  V30 4555 H 421.783 -1.3592 0.475592 0
M  V30 4556 H 423.736 -4.06423 -1.11348 0
M  V30 4557 H 422.46 -2.89025 -1.52093 0
M  V30 4558 H 421.119 -3.63478 0.47739 0
M  V30 4559 H 420.767 -4.71565 -1.7503 0
M  V30 4560 H 420.467 -5.86103 -0.419237 0
M  V30 4561 H 421.991 -5.9556 -1.34686 0
M  V30 4562 H 423.405 -5.66105 0.905401 0
M  V30 4563 H 421.802 -5.75793 1.69063 0
M  V30 4564 H 422.872 -4.3921 2.05481 0
M  V30 4565 N 424.215 -0.530993 -1.48385 0
M  V30 4566 C 425.125 0.23503 -2.3342 0
M  V30 4567 C 426.141 0.93801 -1.46552 0
M  V30 4568 O 427.317 0.912745 -1.7953 0
M  V30 4569 C 424.382 1.26778 -3.22689 0
M  V30 4570 C 423.443 0.575038 -4.25431 0
M  V30 4571 C 422.676 1.55858 -5.10435 0
M  V30 4572 O 422.899 2.79129 -4.97437 0
M  V30 4573 O 421.833 1.09742 -5.91811 0
M  V30 4574 H 425.659 -0.461794 -3.00169 0
M  V30 4575 H 423.244 -0.291903 -1.46521 0
M  V30 4576 H 425.126 1.86457 -3.77904 0
M  V30 4577 H 423.801 1.94699 -2.586 0
M  V30 4578 H 422.708 -0.0622782 -3.74048 0
M  V30 4579 H 424.041 -0.062253 -4.92161 0
M  V30 4580 N 425.693 1.55336 -0.266172 0
M  V30 4581 C 426.656 2.20878 0.612001 0
M  V30 4582 C 427.656 1.18388 1.08816 0
M  V30 4583 O 428.846 1.4335 0.989774 0
M  V30 4584 C 425.978 2.86765 1.84332 0
M  V30 4585 H 427.171 2.99873 0.0398718 0
M  V30 4586 H 424.724 1.56291 -0.0167309 0
M  V30 4587 H 425.459 2.11759 2.45619 0
M  V30 4588 H 425.244 3.61862 1.5099 0
M  V30 4589 H 426.734 3.36867 2.46801 0
M  V30 4590 N 427.171 -0.0066808 1.57599 0
M  V30 4591 C 428.101 -0.999296 2.11036 0
M  V30 4592 C 429.082 -1.36278 1.01795 0
M  V30 4593 O 430.267 -1.4477 1.29442 0
M  V30 4594 C 427.397 -2.29328 2.60818 0
M  V30 4595 C 426.351 -2.07159 3.74525 0
M  V30 4596 C 425.677 -3.42512 4.10596 0
M  V30 4597 C 426.977 -1.43959 5.02069 0
M  V30 4598 H 428.671 -0.554382 2.94223 0
M  V30 4599 H 426.217 -0.265221 1.41536 0
M  V30 4600 H 428.17 -2.99117 2.96828 0
M  V30 4601 H 426.894 -2.7592 1.74745 0
M  V30 4602 H 425.553 -1.39797 3.38899 0
M  V30 4603 H 425.201 -3.86795 3.21556 0
M  V30 4604 H 424.901 -3.28498 4.87199 0
M  V30 4605 H 426.425 -4.13628 4.4916 0
M  V30 4606 H 427.839 -2.03696 5.35893 0
M  V30 4607 H 426.236 -1.40452 5.83432 0
M  V30 4608 H 427.306 -0.407992 4.83181 0
M  V30 4609 N 428.649 -1.55105 -0.279332 0
M  V30 4610 C 429.874 -1.7976 -1.03446 0
M  V30 4611 C 430.299 -0.565952 -1.79384 0
M  V30 4612 O 429.657 0.484259 -1.74713 0
M  V30 4613 C 429.705 -3.0179 -1.97371 0
M  V30 4614 O 428.809 -2.76432 -3.06038 0
M  V30 4615 H 428.15 -0.594334 -0.29608 0
M  V30 4616 H 430.68 -2.02235 -0.310165 0
M  V30 4617 H 430.69 -3.30351 -2.39441 0
M  V30 4618 H 429.365 -3.91085 -1.4151 0
M  V30 4619 H 427.942 -2.58949 -2.68328 0
M  V30 4620 N 430.127 0.543554 -1.4793 0
M  V30 4621 C 431.037 1.67657 -1.64098 0
M  V30 4622 C 432.053 1.65934 -0.523622 0
M  V30 4623 O 433.229 1.85133 -0.792943 0
M  V30 4624 C 430.294 3.04146 -1.66421 0
M  V30 4625 C 429.355 3.16831 -2.89684 0
M  V30 4626 C 428.588 4.46809 -2.91886 0
M  V30 4627 O 428.811 5.33095 -2.02895 0
M  V30 4628 O 427.745 4.63573 -3.83906 0
M  V30 4629 H 431.571 1.56957 -2.59997 0
M  V30 4630 H 429.156 0.715116 -1.31173 0
M  V30 4631 H 431.038 3.85346 -1.70548 0
M  V30 4632 H 429.713 3.152 -0.736923 0
M  V30 4633 H 428.62 2.34977 -2.91095 0
M  V30 4634 H 429.953 3.10687 -3.81752 0
M  V30 4635 N 431.605 1.3629 0.791371 0
M  V30 4636 C 432.854 1.29742 1.54434 0
M  V30 4637 C 433.167 -0.121729 1.95221 0
M  V30 4638 O 434.373 -0.309579 2.69729 0
M  V30 4639 C 432.829 2.27623 2.78776 0
M  V30 4640 C 432.437 3.74963 2.45166 0
M  V30 4641 C 434.181 2.30047 3.56761 0
M  V30 4642 C 432.088 4.64626 3.65891 0
M  V30 4643 H 431.018 0.482113 0.579727 0
M  V30 4644 H 433.669 1.61642 0.868565 0
M  V30 4645 H 432.051 1.88714 3.48142 0
M  V30 4646 H 433.225 4.22596 1.83709 0
M  V30 4647 H 431.54 3.75295 1.80396 0
M  V30 4648 H 434.137 2.94247 4.46456 0
M  V30 4649 H 434.48 1.30846 3.95203 0
M  V30 4650 H 435.013 2.67563 2.94372 0
M  V30 4651 H 431.752 5.64883 3.32547 0
M  V30 4652 H 431.272 4.2171 4.26521 0
M  V30 4653 H 432.951 4.80801 4.32943 0
M  V30 4654 N 433.083 -1.0153 1.20538 0
M  V30 4655 C 434.311 -1.78746 1.04199 0
M  V30 4656 C 434.726 -1.84323 -0.408733 0
M  V30 4657 O 434.083 -1.29714 -1.28377 0
M  V30 4658 C 434.134 -3.23152 1.62035 0
M  V30 4659 O 433.855 -3.17918 3.0143 0
M  V30 4660 C 435.356 -4.16911 1.50666 0
M  V30 4661 H 432.576 -0.56208 0.366479 0
M  V30 4662 H 435.12 -1.27794 1.59653 0
M  V30 4663 H 433.275 -3.71248 1.10697 0
M  V30 4664 H 433.689 -4.08567 3.28897 0
M  V30 4665 H 435.163 -5.16072 1.95892 0
M  V30 4666 H 435.64 -4.36791 0.459363 0
M  V30 4667 H 436.246 -3.74698 2.01201 0
M  V30 4668 N 434.561 -1.01147 -1.20859 0
M  V30 4669 C 435.809 -0.696486 -1.89719 0
M  V30 4670 C 436.13 0.775788 -1.78904 0
M  V30 4671 O 435.4 1.55759 -1.18811 0
M  V30 4672 H 433.98 -0.254628 -0.702263 0
M  V30 4673 H 436.642 -1.28197 -1.46804 0
M  V30 4674 H 435.738 -0.975357 -2.96468 0
M  V30 4675 N 436.039 1.36541 -0.78704 0
M  V30 4676 C 437.285 2.00044 -0.367938 0
M  V30 4677 C 437.64 1.61345 1.04812 0
M  V30 4678 O 436.933 0.856936 1.71368 0
M  V30 4679 C 437.127 3.54343 -0.466485 0
M  V30 4680 C 436.956 4.08029 -1.89058 0
M  V30 4681 C 435.726 4.38284 -2.51466 0
M  V30 4682 C 437.924 4.27954 -2.85236 0
M  V30 4683 N 435.906 4.77778 -3.85488 0
M  V30 4684 C 437.277 4.70227 -4.04088 0
M  V30 4685 C 439.332 4.10119 -2.82324 0
M  V30 4686 C 438.035 4.96532 -5.20432 0
M  V30 4687 C 440.061 4.37569 -3.97854 0
M  V30 4688 C 439.423 4.80095 -5.15449 0
M  V30 4689 H 435.522 0.760525 -0.182004 0
M  V30 4690 H 438.106 1.65589 -1.02413 0
M  V30 4691 H 436.277 3.88072 0.159606 0
M  V30 4692 H 438.009 4.04693 -0.0238577 0
M  V30 4693 H 434.764 4.27905 -2.02965 0
M  V30 4694 H 435.188 5.01813 -4.54437 0
M  V30 4695 H 439.83 3.76399 -1.92571 0
M  V30 4696 H 437.548 5.29134 -6.10773 0
M  V30 4697 H 441.134 4.25341 -3.96958 0
M  V30 4698 H 440.014 5.00925 -6.0336 0
M  V30 4699 N 437.518 0.538854 1.48102 0
M  V30 4700 C 438.746 0.0123136 2.06896 0
M  V30 4701 C 439.161 -1.27312 1.39417 0
M  V30 4702 O 438.518 -1.75949 0.484582 0
M  V30 4703 C 438.569 -0.206118 3.60912 0
M  V30 4704 O 438.29 1.0284 4.25859 0
M  V30 4705 C 439.791 -0.772033 4.36526 0
M  V30 4706 H 437.011 0.0375239 0.66995 0
M  V30 4707 H 439.555 0.747032 1.90367 0
M  V30 4708 H 437.71 -0.89091 3.77017 0
M  V30 4709 H 438.124 0.814654 5.18135 0
M  V30 4710 H 439.598 -0.874251 5.45033 0
M  V30 4711 H 440.075 -1.77904 4.01555 0
M  V30 4712 H 440.681 -0.123526 4.25121 0
M  V30 4713 N 438.996 -1.55193 0.274407 0
M  V30 4714 C 439.926 -2.25471 -0.607032 0
M  V30 4715 C 440.907 -1.24461 -1.15946 0
M  V30 4716 O 442.092 -1.53179 -1.19373 0
M  V30 4717 C 439.222 -2.97526 -1.79153 0
M  V30 4718 C 438.176 -4.05459 -1.37067 0
M  V30 4719 C 437.502 -4.65084 -2.6382 0
M  V30 4720 C 438.802 -5.19691 -0.521389 0
M  V30 4721 H 440.496 -2.99393 -0.0209343 0
M  V30 4722 H 438.042 -1.43997 -0.00862866 0
M  V30 4723 H 439.995 -3.45402 -2.41404 0
M  V30 4724 H 438.719 -2.21138 -2.40344 0
M  V30 4725 H 437.378 -3.58393 -0.771355 0
M  V30 4726 H 437.026 -3.85365 -3.23268 0
M  V30 4727 H 436.726 -5.37961 -2.36372 0
M  V30 4728 H 438.25 -5.15708 -3.26921 0
M  V30 4729 H 439.664 -5.63623 -1.04889 0
M  V30 4730 H 438.061 -5.99126 -0.341825 0
M  V30 4731 H 439.131 -4.82713 0.46 0
M  V30 4732 N 440.474 -0.00167713 -1.576 0
M  V30 4733 C 441.422 1.0074 -2.09652 0
M  V30 4734 C 442.416 1.35483 -1.01689 0
M  V30 4735 O 443.622 1.34028 -1.20152 0
M  V30 4736 H 439.997 0.342537 -0.669457 0
M  V30 4737 H 441.968 0.542841 -2.93421 0
M  V30 4738 C 440.717 2.2899 -2.61647 0
M  V30 4739 H 440.04 2.03124 -3.44355 0
M  V30 4740 H 441.48 2.9787 -3.01744 0
M  V30 4741 C 439.939 3.00085 -1.53136 0
M  V30 4742 O 440.469 3.91135 -0.91524 0
M  V30 4743 N 438.675 2.6194 -1.25841 0
M  V30 4744 H 438.222 1.8798 -1.76129 0
M  V30 4745 H 438.18 3.09822 -0.534576 0
M  V30 4746 N 441.952 1.55251 0.271103 0
M  V30 4747 C 443.177 1.80306 1.02491 0
M  V30 4748 C 443.602 0.575457 1.79081 0
M  V30 4749 O 442.96 -0.474987 1.74967 0
M  V30 4750 C 443.008 3.02832 1.95768 0
M  V30 4751 O 442.112 2.78051 3.04568 0
M  V30 4752 H 441.453 0.595896 0.292923 0
M  V30 4753 H 443.983 2.02397 0.299436 0
M  V30 4754 H 443.993 3.31616 2.37686 0
M  V30 4755 H 442.668 3.9183 1.39434 0
M  V30 4756 H 441.245 2.60369 2.66951 0
M  V30 4757 N 443.43 -0.535701 1.48216 0
M  V30 4758 C 444.34 -1.66785 1.64985 0
M  V30 4759 C 445.356 -1.65654 0.532414 0
M  V30 4760 O 446.532 -1.8471 0.80275 0
M  V30 4761 C 443.597 -3.0326 1.68031 0
M  V30 4762 C 442.658 -3.1529 2.9136 0
M  V30 4763 C 441.891 -4.45255 2.94252 0
M  V30 4764 O 442.114 -5.32011 2.05719 0
M  V30 4765 O 441.048 -4.6153 3.86359 0
M  V30 4766 H 444.874 -1.55576 2.60825 0
M  V30 4767 H 442.459 -0.70815 1.31551 0
M  V30 4768 H 444.341 -3.84436 1.72589 0
M  V30 4769 H 443.016 -3.14805 0.753628 0
M  V30 4770 H 441.923 -2.3343 2.92337 0
M  V30 4771 H 443.256 -3.08658 3.83394 0
M  V30 4772 N 444.908 -1.36708 -0.784132 0
M  V30 4773 C 446.185 -1.21776 -1.53069 0
M  V30 4774 C 446.565 0.193876 -2.10208 0
M  V30 4775 O 445.913 1.20012 -1.94446 0
M  V30 4776 C 446.123 -2.30395 -2.62143 0
M  V30 4777 C 447.471 -2.67325 -3.29882 0
M  V30 4778 O 448.495 -2.29478 -2.7243 0
M  V30 4779 O 447.354 -3.32485 -4.33724 0
M  V30 4780 H 444.448 -0.474459 -0.677361 0
M  V30 4781 H 446.994 -1.48454 -0.82216 0
M  V30 4782 H 445.766 -3.2498 -2.17953 0
M  V30 4783 H 445.389 -2.05112 -3.40609 0
M  V30 4784 N 446.386 1.0089 -1.21074 0
M  V30 4785 C 447.318 2.09737 -0.924291 0
M  V30 4786 C 448.331 1.62546 0.0909809 0
M  V30 4787 O 449.52 1.77942 -0.141021 0
M  V30 4788 C 446.62 3.36922 -0.36559 0
M  V30 4789 C 445.793 4.13216 -1.43426 0
M  V30 4790 C 444.852 5.18696 -0.885496 0
M  V30 4791 O 443.878 5.47176 -1.56801 0
M  V30 4792 N 445.08 5.79718 0.301227 0
M  V30 4793 H 447.845 2.34895 -1.8613 0
M  V30 4794 H 445.406 1.17341 -1.11546 0
M  V30 4795 H 447.398 4.04697 0.0158407 0
M  V30 4796 H 445.968 3.08952 0.476149 0
M  V30 4797 H 445.188 3.40301 -1.9897 0
M  V30 4798 H 446.476 4.60967 -2.15376 0
M  V30 4799 H 445.874 5.58926 0.872849 0
M  V30 4800 H 444.431 6.48804 0.624211 0
M  V30 4801 N 447.864 1.01787 1.20321 0
M  V30 4802 C 448.811 0.589197 2.23153 0
M  V30 4803 C 449.781 -0.391367 1.61423 0
M  V30 4804 O 450.966 -0.290518 1.88575 0
M  V30 4805 C 448.106 -0.0650747 3.45039 0
M  V30 4806 C 447.219 0.960207 4.21194 0
M  V30 4807 C 446.354 0.276854 5.30478 0
M  V30 4808 C 445.393 1.2888 5.98378 0
M  V30 4809 N 444.53 0.632031 6.99249 0
M  V30 4810 H 449.37 1.47071 2.59179 0
M  V30 4811 H 446.907 0.736192 1.27352 0
M  V30 4812 H 448.865 -0.461552 4.14639 0
M  V30 4813 H 447.495 -0.910233 3.09701 0
M  V30 4814 H 446.547 1.47484 3.50646 0
M  V30 4815 H 447.859 1.72977 4.67847 0
M  V30 4816 H 447.013 -0.175056 6.06447 0
M  V30 4817 H 445.752 -0.525004 4.84866 0
M  V30 4818 H 444.757 1.75109 5.21169 0
M  V30 4819 H 445.982 2.09196 6.46076 0
M  V30 4820 H 443.928 -0.149935 6.55829 0
M  V30 4821 H 443.845 1.33964 7.44036 0
M  V30 4822 H 445.113 0.203755 7.79234 0
M  V30 4823 N 449.342 -1.36122 0.79427 0
M  V30 4824 C 450.619 -1.93398 0.292685 0
M  V30 4825 C 450.999 -1.72567 -1.21589 0
M  V30 4826 O 450.347 -1.08745 -2.00965 0
M  V30 4827 C 450.557 -3.42099 0.690614 0
M  V30 4828 C 451.905 -4.19231 0.673105 0
M  V30 4829 O 452.929 -3.50559 0.631389 0
M  V30 4830 O 451.788 -5.41732 0.720362 0
M  V30 4831 H 448.882 -0.823712 0.0736693 0
M  V30 4832 H 451.428 -1.45273 0.87714 0
M  V30 4833 H 450.2 -3.50938 1.73085 0
M  V30 4834 H 449.823 -3.97519 0.0803036 0
M  V30 4835 N 450.82 -0.546701 -1.47814 0
M  V30 4836 C 452.069 -0.0166497 -2.01693 0
M  V30 4837 C 452.382 1.33721 -1.42752 0
M  V30 4838 O 453.588 1.95658 -1.8823 0
M  V30 4839 C 452.044 0.0206769 -3.59894 0
M  V30 4840 C 451.652 -1.3293 -4.27824 0
M  V30 4841 C 453.396 0.498674 -4.21561 0
M  V30 4842 C 451.303 -1.25165 -5.78003 0
M  V30 4843 H 450.233 -0.0024541 -0.753996 0
M  V30 4844 H 452.884 -0.692984 -1.69912 0
M  V30 4845 H 451.266 0.76244 -3.88591 0
M  V30 4846 H 452.44 -2.08795 -4.10781 0
M  V30 4847 H 450.755 -1.74438 -3.78101 0
M  V30 4848 H 453.352 0.575 -5.31599 0
M  V30 4849 H 453.695 1.5083 -3.88016 0
M  V30 4850 H 454.228 -0.18791 -3.97356 0
M  V30 4851 H 450.967 -2.23695 -6.1615 0
M  V30 4852 H 450.487 -0.53464 -5.97412 0
M  V30 4853 H 452.166 -0.949299 -6.39998 0
M  V30 4854 N 452.299 1.55045 -0.282633 0
M  V30 4855 C 453.247 2.24254 0.617478 0
M  V30 4856 C 454.241 1.24215 1.15183 0
M  V30 4857 O 455.447 1.42123 1.10459 0
M  V30 4858 H 451.822 0.719801 0.217693 0
M  V30 4859 H 453.793 2.98398 0.0110076 0
M  V30 4860 C 452.542 2.98281 1.78672 0
M  V30 4861 H 451.865 3.75053 1.38475 0
M  V30 4862 H 453.305 3.50017 2.393 0
M  V30 4863 C 451.764 2.04184 2.67975 0
M  V30 4864 O 452.294 1.59792 3.6855 0
M  V30 4865 N 450.5 1.70526 2.35307 0
M  V30 4866 H 450.047 2.06821 1.53567 0
M  V30 4867 H 450.005 1.07839 2.95327 0
M  V30 4868 N 453.777 0.010035 1.57597 0
M  V30 4869 C 455.005 -0.683413 1.95287 0
M  V30 4870 C 455.42 -1.66747 0.885481 0
M  V30 4871 O 454.777 -1.82003 -0.134629 0
M  V30 4872 C 454.828 -1.40652 3.33015 0
M  V30 4873 O 454.549 -0.461916 4.35658 0
M  V30 4874 C 456.05 -2.19356 3.85225 0
M  V30 4875 H 453.27 -0.189708 0.643624 0
M  V30 4876 H 455.814 0.0641359 2.04399 0
M  V30 4877 H 453.969 -2.10562 3.2518 0
M  V30 4878 H 454.383 -0.973215 5.15392 0
M  V30 4879 H 455.857 -2.65433 4.83993 0
M  V30 4880 H 456.334 -3.02457 3.18459 0
M  V30 4881 H 456.94 -1.54442 3.96267 0
M  V30 4882 N 455.255 -1.55392 -0.262866 0
M  V30 4883 C 456.504 -1.75679 -0.990943 0
M  V30 4884 C 456.817 -0.57097 -1.87081 0
M  V30 4885 O 458.023 -0.656486 -2.63444 0
M  V30 4886 C 456.479 -3.10964 -1.81188 0
M  V30 4887 C 456.087 -4.37146 -0.980188 0
M  V30 4888 C 457.831 -3.40597 -2.53365 0
M  V30 4889 C 455.738 -5.63466 -1.7961 0
M  V30 4890 H 454.668 -0.654868 -0.373716 0
M  V30 4891 H 457.319 -1.81841 -0.246203 0
M  V30 4892 H 455.701 -2.98867 -2.59797 0
M  V30 4893 H 456.875 -4.60187 -0.237558 0
M  V30 4894 H 455.19 -4.14731 -0.372497 0
M  V30 4895 H 457.787 -4.32186 -3.14833 0
M  V30 4896 H 458.13 -2.6119 -3.24169 0
M  V30 4897 H 458.663 -3.53838 -1.81779 0
M  V30 4898 H 455.402 -6.4565 -1.13209 0
M  V30 4899 H 454.922 -5.44552 -2.51443 0
M  V30 4900 H 456.601 -6.02139 -2.36723 0
M  V30 4901 N 456.733 0.527833 -1.48498 0
M  V30 4902 C 457.663 1.64136 -1.66077 0
M  V30 4903 C 458.644 1.62286 -0.509625 0
M  V30 4904 O 459.829 1.79449 -0.742413 0
M  V30 4905 C 456.959 3.02717 -1.70234 0
M  V30 4906 C 455.913 3.19426 -2.8487 0
M  V30 4907 C 455.239 4.5909 -2.74118 0
M  V30 4908 C 456.539 3.01993 -4.26142 0
M  V30 4909 H 458.233 1.4968 -2.593 0
M  V30 4910 H 455.779 0.718654 -1.24785 0
M  V30 4911 H 457.732 3.80491 -1.8112 0
M  V30 4912 H 456.456 3.18201 -0.735911 0
M  V30 4913 H 455.115 2.4407 -2.73542 0
M  V30 4914 H 454.763 4.71413 -1.7544 0
M  V30 4915 H 454.463 4.71214 -3.51042 0
M  V30 4916 H 455.987 5.3896 -2.86974 0
M  V30 4917 H 457.401 3.69558 -4.38292 0
M  V30 4918 H 455.798 3.2561 -5.04082 0
M  V30 4919 H 456.868 1.98396 -4.42456 0
M  V30 4920 N 458.211 1.37122 0.776871 0
M  V30 4921 C 459.121 1.34651 1.9211 0
M  V30 4922 C 460.137 0.246824 1.7224 0
M  V30 4923 O 461.313 0.48134 1.95563 0
M  V30 4924 C 458.378 1.14748 3.2716 0
M  V30 4925 C 457.439 2.34308 3.5972 0
M  V30 4926 C 456.672 2.15345 4.88326 0
M  V30 4927 O 456.895 1.13507 5.58992 0
M  V30 4928 O 455.829 3.03414 5.1983 0
M  V30 4929 H 459.655 2.31013 1.97146 0
M  V30 4930 H 457.24 1.17799 0.918901 0
M  V30 4931 H 459.122 1.05616 4.0795 0
M  V30 4932 H 457.797 0.214562 3.22988 0
M  V30 4933 H 456.704 2.49011 2.79185 0
M  V30 4934 H 458.037 3.26149 3.68629 0
M  V30 4935 N 459.689 -1.00246 1.21608 0
M  V30 4936 C 460.637 -2.11193 0.97469 0
M  V30 4937 C 461.631 -1.69216 -0.0789303 0
M  V30 4938 O 462.837 -1.79853 0.0726806 0
M  V30 4939 H 459.212 -0.690455 0.297953 0
M  V30 4940 H 461.183 -2.2873 1.91638 0
M  V30 4941 C 459.932 -3.43182 0.558717 0
M  V30 4942 H 459.255 -3.75918 1.3611 0
M  V30 4943 H 460.695 -4.21823 0.429154 0
M  V30 4944 C 459.154 -3.28882 -0.730648 0
M  V30 4945 O 459.684 -3.59835 -1.78554 0
M  V30 4946 N 457.89 -2.8209 -0.698131 0
M  V30 4947 H 457.437 -2.57099 0.16061 0
M  V30 4948 H 457.395 -2.72903 -1.56113 0
M  V30 4949 N 461.167 -1.02423 -1.1978 0
M  V30 4950 C 462.395 -0.737456 -1.93311 0
M  V30 4951 C 462.81 0.703023 -1.75223 0
M  V30 4952 O 462.167 1.47761 -1.07112 0
M  V30 4953 C 462.218 -1.0733 -3.45199 0
M  V30 4954 O 461.939 -2.4572 -3.62702 0
M  V30 4955 C 463.44 -0.80866 -4.35862 0
M  V30 4956 H 460.66 -0.2702 -0.614193 0
M  V30 4957 H 463.204 -1.36747 -1.52054 0
M  V30 4958 H 461.359 -0.488545 -3.84307 0
M  V30 4959 H 461.773 -2.58081 -4.56612 0
M  V30 4960 H 463.247 -1.09365 -5.41057 0
M  V30 4961 H 463.724 0.257025 -4.38447 0
M  V30 4962 H 464.33 -1.37592 -4.02428 0
M  V30 4963 N 462.645 1.35699 -0.801477 0
M  V30 4964 C 463.894 1.98165 -0.375979 0
M  V30 4965 C 464.207 1.64306 1.06127 0
M  V30 4966 O 465.413 2.20097 1.58964 0
M  V30 4967 C 463.869 3.54497 -0.621305 0
M  V30 4968 C 463.477 3.9727 -2.07076 0
M  V30 4969 C 465.221 4.23697 -0.26091 0
M  V30 4970 C 463.128 5.46427 -2.26211 0
M  V30 4971 H 462.058 0.741478 -0.136844 0
M  V30 4972 H 464.709 1.54834 -0.984814 0
M  V30 4973 H 463.091 3.95958 0.0574112 0
M  V30 4974 H 464.265 3.66974 -2.78687 0
M  V30 4975 H 462.58 3.40943 -2.39054 0
M  V30 4976 H 465.177 5.33334 -0.381994 0
M  V30 4977 H 465.52 4.0869 0.792344 0
M  V30 4978 H 466.053 3.87639 -0.893339 0
M  V30 4979 H 462.792 5.66396 -3.29963 0
M  V30 4980 H 462.312 5.78309 -1.59119 0
M  V30 4981 H 463.991 6.12819 -2.07513 0
M  V30 4982 N 464.123 0.554532 1.47522 0
M  V30 4983 C 465.348 0.0322661 2.07375 0
M  V30 4984 C 465.773 -1.25079 1.40488 0
M  V30 4985 O 465.131 -1.74859 0.47896 0
M  V30 4986 C 465.179 -0.149397 3.6029 0
M  V30 4987 O 464.283 -1.21259 3.9417 0
M  V30 4988 H 463.624 0.0501228 0.662106 0
M  V30 4989 H 466.154 0.769452 1.8958 0
M  V30 4990 H 466.164 -0.364437 4.06369 0
M  V30 4991 H 464.839 0.787743 4.08372 0
M  V30 4992 H 463.416 -0.97825 3.5984 0
M  V30 4993 N 465.601 -1.54893 0.290851 0
M  V30 4994 C 466.878 -1.91991 -0.373989 0
M  V30 4995 C 467.258 -1.21694 -1.72493 0
M  V30 4996 O 466.606 -0.34917 -2.25816 0
M  V30 4997 C 466.816 -3.45419 -0.498703 0
M  V30 4998 C 468.164 -4.1748 -0.774298 0
M  V30 4999 O 469.188 -3.51398 -0.582908 0
M  V30 5000 O 468.047 -5.3445 -1.14129 0
M  V30 5001 H 465.141 -0.800593 -0.207315 0
M  V30 5002 H 467.687 -1.66297 0.338164 0
M  V30 5003 H 466.459 -3.88688 0.451392 0
M  V30 5004 H 466.082 -3.77117 -1.25972 0
M  V30 5005 N 467.08 -0.0183926 -1.57589 0
M  V30 5006 C 468.491 0.521927 -1.79256 0
M  V30 5007 C 468.842 1.72885 -0.927636 0
M  V30 5008 O 467.967 2.15978 -0.135091 0
M  V30 5009 C 468.562 0.953632 -3.25102 0
M  V30 5010 C 467.121 1.43913 -3.47801 0
M  V30 5011 C 466.268 0.398837 -2.74417 0
M  V30 5012 H 469.219 -0.244485 -1.56805 0
M  V30 5013 H 469.24 1.81863 -3.34224 0
M  V30 5014 H 468.752 0.0750123 -3.88028 0
M  V30 5015 H 466.853 2.33804 -2.90115 0
M  V30 5016 H 466.966 1.45391 -4.56507 0
M  V30 5017 H 465.33 0.864572 -2.39577 0
M  V30 5018 H 466.113 -0.471132 -3.40052 0
M  V30 5019 N 468.558 1.5553 0.254621 0
M  V30 5020 C 469.804 1.77262 0.985193 0
M  V30 5021 C 470.137 0.582286 1.85265 0
M  V30 5022 O 469.412 -0.419666 1.89919 0
M  V30 5023 C 469.695 3.0881 1.85225 0
M  V30 5024 C 469.548 4.38233 1.0135 0
M  V30 5025 C 470.867 3.3653 2.83612 0
M  V30 5026 H 467.986 0.644906 0.356742 0
M  V30 5027 H 470.628 1.88264 0.256236 0
M  V30 5028 H 468.778 2.99562 2.47376 0
M  V30 5029 H 470.45 4.59463 0.411269 0
M  V30 5030 H 468.693 4.32636 0.317574 0
M  V30 5031 H 469.364 5.26644 1.65379 0
M  V30 5032 H 471.84 3.45691 2.31596 0
M  V30 5033 H 470.716 4.29805 3.41407 0
M  V30 5034 H 470.977 2.57064 3.59681 0
M  V30 5035 N 470.036 -0.519951 1.48776 0
M  V30 5036 C 471.284 -1.2727 1.56993 0
M  V30 5037 C 471.605 -1.9339 0.25004 0
M  V30 5038 O 470.875 -1.81822 -0.729216 0
M  V30 5039 H 469.455 -0.472732 0.578389 0
M  V30 5040 H 472.117 -0.604234 1.85297 0
M  V30 5041 H 471.213 -2.04669 2.3562 0
M  V30 5042 N 471.514 -1.37532 -0.769588 0
M  V30 5043 C 472.925 -1.29382 -1.346 0
M  V30 5044 C 473.276 0.0576039 -1.96115 0
M  V30 5045 O 472.401 0.95947 -1.93967 0
M  V30 5046 C 472.996 -2.34298 -2.44724 0
M  V30 5047 C 471.555 -2.29776 -2.98128 0
M  V30 5048 C 470.702 -2.18013 -1.71364 0
M  V30 5049 H 473.653 -1.48123 -0.56968 0
M  V30 5050 H 473.674 -1.99089 -3.24259 0
M  V30 5051 H 473.186 -3.32645 -1.99922 0
M  V30 5052 H 471.287 -1.34959 -3.47299 0
M  V30 5053 H 471.4 -3.23276 -3.53595 0
M  V30 5054 H 469.764 -1.64595 -1.94372 0
M  V30 5055 H 470.547 -3.18278 -1.28662 0
M  V30 5056 N 472.992 0.995999 -1.22138 0
M  V30 5057 C 473.902 2.11985 -1.00496 0
M  V30 5058 C 474.918 1.7394 0.0457701 0
M  V30 5059 O 476.094 2.00868 -0.146273 0
M  V30 5060 C 473.159 3.41779 -0.582086 0
M  V30 5061 C 472.22 3.93943 -1.70608 0
M  V30 5062 C 471.453 5.17542 -1.30328 0
M  V30 5063 O 471.676 5.70114 -0.180743 0
M  V30 5064 O 470.61 5.63382 -2.11861 0
M  V30 5065 H 474.436 2.33123 -1.94647 0
M  V30 5066 H 472.021 1.10358 -1.00705 0
M  V30 5067 H 473.903 4.1989 -0.356467 0
M  V30 5068 H 472.578 3.22007 0.330592 0
M  V30 5069 H 471.485 3.17019 -1.98619 0
M  V30 5070 H 472.818 4.18141 -2.59651 0
M  V30 5071 N 474.47 1.03057 1.19235 0
M  V30 5072 C 475.717 0.728019 1.88961 0
M  V30 5073 C 476.045 -0.743515 1.79728 0
M  V30 5074 O 475.3 -1.55729 1.1852 0
M  V30 5075 C 475.599 1.1268 3.39172 0
M  V30 5076 C 475.265 2.5969 3.68608 0
M  V30 5077 C 473.927 2.99854 3.76352 0
M  V30 5078 C 476.279 3.54793 3.81801 0
M  V30 5079 C 473.607 4.34031 3.94758 0
M  V30 5080 C 475.959 4.88675 4.0172 0
M  V30 5081 C 474.623 5.28526 4.07697 0
M  V30 5082 H 473.893 0.266401 0.691456 0
M  V30 5083 H 476.54 1.29373 1.41191 0
M  V30 5084 H 474.845 0.479722 3.88852 0
M  V30 5085 H 476.542 0.870203 3.91444 0
M  V30 5086 H 473.132 2.27575 3.63191 0
M  V30 5087 H 477.316 3.24914 3.7516 0
M  V30 5088 H 472.572 4.6444 3.97625 0
M  V30 5089 H 476.746 5.6228 4.1087 0
M  V30 5090 H 474.373 6.32506 4.21712 0
M  V30 5091 N 475.948 -1.35272 0.808662 0
M  V30 5092 C 476.881 -2.27595 0.165994 0
M  V30 5093 C 477.859 -1.48189 -0.669241 0
M  V30 5094 O 479.043 -1.77444 -0.636073 0
M  V30 5095 C 476.17 -3.29843 -0.769505 0
M  V30 5096 C 475.216 -4.26498 -0.0136267 0
M  V30 5097 S 476.049 -5.18878 1.32384 0
M  V30 5098 C 477.205 -6.24666 0.392838 0
M  V30 5099 H 477.438 -2.81755 0.948756 0
M  V30 5100 H 474.971 -1.42103 0.603828 0
M  V30 5101 H 476.929 -3.89247 -1.30374 0
M  V30 5102 H 475.59 -2.74558 -1.52567 0
M  V30 5103 H 474.783 -4.98769 -0.724227 0
M  V30 5104 H 474.385 -3.71274 0.450713 0
M  V30 5105 H 476.677 -6.7619 -0.4211 0
M  V30 5106 H 477.62 -6.99741 1.0848 0
M  V30 5107 H 478.028 -5.64499 -0.0123908 0
M  V30 5108 N 477.426 -0.562348 -1.47226 0
M  V30 5109 C 478.389 0.172056 -2.28553 0
M  V30 5110 C 479.389 0.837928 -1.37242 0
M  V30 5111 O 480.579 0.693001 -1.59822 0
M  V30 5112 C 477.711 1.25223 -3.17068 0
M  V30 5113 H 478.904 -0.542401 -2.94954 0
M  V30 5114 H 476.457 -0.319493 -1.53 0
M  V30 5115 H 477.192 1.99892 -2.55369 0
M  V30 5116 H 476.977 0.779515 -3.84273 0
M  V30 5117 H 478.467 1.76791 -3.78332 0
M  V30 5118 N 478.904 1.54736 -0.299062 0
M  V30 5119 C 480.315 1.8569 0.193971 0
M  V30 5120 C 480.666 1.22101 1.53577 0
M  V30 5121 O 479.791 0.51799 2.10109 0
M  V30 5122 C 480.386 3.36895 0.358733 0
M  V30 5123 C 478.945 3.67887 0.795986 0
M  V30 5124 C 478.092 2.77131 -0.096807 0
M  V30 5125 H 481.043 1.49934 -0.520134 0
M  V30 5126 H 481.064 3.61294 1.19361 0
M  V30 5127 H 480.576 3.83148 -0.617998 0
M  V30 5128 H 478.677 3.27151 1.78334 0
M  V30 5129 H 478.79 4.75114 0.616718 0
M  V30 5130 H 477.154 2.51153 0.423581 0
M  V30 5131 H 477.937 3.26204 -1.06986 0
M  V30 5132 N 480.382 0.0267497 1.57577 0
M  V30 5133 C 481.793 -0.512413 1.79531 0
M  V30 5134 C 482.144 -1.72391 0.936791 0
M  V30 5135 O 481.269 -2.15903 0.146543 0
M  V30 5136 C 481.864 -0.936378 3.25603 0
M  V30 5137 C 480.423 -1.42067 3.4856 0
M  V30 5138 C 479.57 -0.384278 2.74624 0
M  V30 5139 H 482.521 0.252797 1.56674 0
M  V30 5140 H 482.542 -1.80088 3.35184 0
M  V30 5141 H 482.054 -0.0544332 3.88062 0
M  V30 5142 H 480.155 -2.32262 2.9135 0
M  V30 5143 H 480.268 -1.42968 4.57271 0
M  V30 5144 H 478.632 -0.851855 2.40032 0
M  V30 5145 H 479.415 0.489159 3.39797 0
M  V30 5146 N 481.861 -1.55662 -0.24637 0
M  V30 5147 C 483.089 -1.81575 -0.991876 0
M  V30 5148 C 483.504 -0.602545 -1.78927 0
M  V30 5149 O 482.861 0.428795 -1.77391 0
M  V30 5150 C 482.912 -3.05711 -1.92933 0
M  V30 5151 O 482.633 -4.22348 -1.1642 0
M  V30 5152 C 484.134 -3.44428 -2.79078 0
M  V30 5153 H 481.354 -0.604209 -0.291844 0
M  V30 5154 H 483.898 -2.02722 -0.269095 0
M  V30 5155 H 482.053 -2.86612 -2.60638 0
M  V30 5156 H 482.467 -4.92706 -1.79835 0
M  V30 5157 H 483.941 -4.34388 -3.40603 0
M  V30 5158 H 484.418 -2.65037 -3.50217 0
M  V30 5159 H 485.024 -3.65879 -2.16824 0
M  V30 5160 N 483.339 0.512053 -1.4905 0
M  V30 5161 C 484.755 0.84224 -1.35567 0
M  V30 5162 C 484.955 1.97878 -0.380319 0
M  V30 5163 O 484.011 2.51769 0.19201 0
M  V30 5164 C 485.324 1.19286 -2.76028 0
M  V30 5165 C 486.872 1.30171 -2.84648 0
M  V30 5166 C 487.347 1.68568 -4.25851 0
M  V30 5167 N 488.838 1.75638 -4.28609 0
M  V30 5168 C 489.573 2.06769 -5.34821 0
M  V30 5169 N 489.069 2.36201 -6.51292 0
M  V30 5170 N 490.862 2.07927 -5.22229 0
M  V30 5171 H 483.013 -0.237574 -2.11067 0
M  V30 5172 H 485.276 -0.0436747 -0.946993 0
M  V30 5173 H 484.982 0.431199 -3.49047 0
M  V30 5174 H 484.856 2.13889 -3.10695 0
M  V30 5175 H 487.243 2.05411 -2.11873 0
M  V30 5176 H 487.324 0.336457 -2.53578 0
M  V30 5177 H 486.968 0.938824 -4.99148 0
M  V30 5178 H 486.898 2.66174 -4.54377 0
M  V30 5179 H 489.389 1.55097 -3.44606 0
M  V30 5180 H 489.702 2.59112 -7.28066 0
M  V30 5181 H 488.047 2.33681 -6.54536 0
M  V30 5182 H 491.238 1.84403 -4.30248 0
M  V30 5183 H 491.411 2.31856 -6.05101 0
M  V30 5184 N 484.817 1.37938 0.762283 0
M  V30 5185 C 485.727 1.36681 1.90671 0
M  V30 5186 C 486.743 0.265078 1.71969 0
M  V30 5187 O 487.919 0.502055 1.95042 0
M  V30 5188 C 484.984 1.18211 3.25925 0
M  V30 5189 C 484.045 2.3811 3.57214 0
M  V30 5190 C 483.278 2.20512 4.86014 0
M  V30 5191 O 483.501 1.19429 5.57757 0
M  V30 5192 O 482.435 3.08911 5.16583 0
M  V30 5193 H 486.261 2.33091 1.94685 0
M  V30 5194 H 483.846 1.18767 0.906356 0
M  V30 5195 H 485.728 1.09937 4.06807 0
M  V30 5196 H 484.403 0.248807 3.22742 0
M  V30 5197 H 483.31 2.51958 2.76529 0
M  V30 5198 H 484.643 3.30041 3.65149 0
M  V30 5199 N 486.295 -0.989507 1.22664 0
M  V30 5200 C 487.205 -2.11449 1.01619 0
M  V30 5201 C 488.221 -1.73962 -0.036545 0
M  V30 5202 O 489.397 -2.00788 0.156924 0
M  V30 5203 C 486.462 -3.41465 0.600204 0
M  V30 5204 C 485.523 -3.93033 1.72695 0
M  V30 5205 C 484.756 -5.16844 1.33071 0
M  V30 5206 O 484.979 -5.7001 0.210975 0
M  V30 5207 O 483.913 -5.6225 2.14845 0
M  V30 5208 H 487.739 -2.32088 1.9588 0
M  V30 5209 H 485.324 -1.09823 1.01289 0
M  V30 5210 H 487.206 -4.19695 0.37873 0
M  V30 5211 H 485.881 -3.22178 -0.313511 0
M  V30 5212 H 484.788 -3.15961 2.00298 0
M  V30 5213 H 486.121 -4.16758 2.61865 0
M  V30 5214 N 487.773 -1.03688 -1.18687 0
M  V30 5215 C 489.022 -0.733235 -1.879 0
M  V30 5216 C 489.335 0.741745 -1.8099 0
M  V30 5217 O 490.541 1.15875 -2.4553 0
M  V30 5218 C 488.997 -1.26127 -3.37076 0
M  V30 5219 C 488.605 -2.76461 -3.52524 0
M  V30 5220 C 490.349 -1.03398 -4.11715 0
M  V30 5221 C 488.256 -3.22642 -4.95637 0
M  V30 5222 H 487.186 -0.270584 -0.703776 0
M  V30 5223 H 489.837 -1.25222 -1.34133 0
M  V30 5224 H 488.219 -0.670165 -3.90288 0
M  V30 5225 H 489.393 -3.41296 -3.09602 0
M  V30 5226 H 487.708 -2.97559 -2.91286 0
M  V30 5227 H 490.305 -1.3542 -5.17267 0
M  V30 5228 H 490.648 0.0289246 -4.1629 0
M  V30 5229 H 491.181 -1.5895 -3.64664 0
M  V30 5230 H 487.92 -4.28296 -4.96228 0
M  V30 5231 H 487.44 -2.62539 -5.39289 0
M  V30 5232 H 489.119 -3.16444 -5.64333 0
M  V30 5233 O 489.29 1.30511 -0.951271 0
M  V30 5234 H 489.981 1.84711 -0.583235 0
M  V30 END ATOM
M  V30 BEGIN BOND
M  V30 END BOND
M  V30 END CTAB
M  END
$$$$
