drugbank_target|P81040 Split-Soret cytochrome c (DB03317)
 OpenBabel12092120273D

  0  0  0     0  0            999 V3000
M  V30 BEGIN CTAB
M  V30 COUNTS 4132 4187 0 0 0
M  V30 BEGIN ATOM
M  V30 1 H -0.908 1.98254 -0.117106 0
M  V30 2 N 0 1.576 0 0
M  V30 3 C 0.933 2.03868 1.02534 0
M  V30 4 C 1.911 0.928543 1.3348 0
M  V30 5 O 3.095 1.19667 1.45644 0
M  V30 6 C 0.222 2.43627 2.35294 0
M  V30 7 C -0.732 3.65373 2.2001 0
M  V30 8 S 0.101 5.13292 1.52614 0
M  V30 9 C 1.257 5.56322 2.86805 0
M  V30 10 H 1.49 2.90518 0.631377 0
M  V30 11 H -0.977 1.52953 0.210867 0
M  V30 12 H 0.981 2.67203 3.11629 0
M  V30 13 H -0.358 1.57376 2.7183 0
M  V30 14 H -1.165 3.90944 3.18086 0
M  V30 15 H -1.563 3.418 1.51819 0
M  V30 16 H 0.729 5.58782 3.83104 0
M  V30 17 H 1.672 6.56266 2.65933 0
M  V30 18 H 2.08 4.83886 2.90714 0
M  V30 19 N 1.4781 -0.272755 1.55222 0
M  V30 20 C 2.4261 -1.35705 1.88909 0
M  V30 21 C 3.4201 -1.5112 0.765456 0
M  V30 22 O 4.6261 -1.52901 0.949802 0
M  V30 23 H 1.0011 -0.453868 0.59959 0
M  V30 24 H 2.9721 -1.04544 2.79487 0
M  V30 25 C 1.7211 -2.71049 2.17779 0
M  V30 26 H 1.0441 -2.59979 3.03728 0
M  V30 27 H 2.4841 -3.45858 2.45272 0
M  V30 28 C 0.9431 -3.22165 0.985473 0
M  V30 29 O 1.4731 -4.01096 0.220233 0
M  V30 30 N -0.3209 -2.7985 0.783108 0
M  V30 31 H -0.7739 -2.15775 1.40708 0
M  V30 32 H -0.8159 -3.14397 -0.0130392 0
M  V30 33 N 2.9562 -1.48159 -0.537278 0
M  V30 34 C 4.2052 -1.5506 -1.28993 0
M  V30 35 C 4.5182 -0.226211 -1.94288 0
M  V30 36 O 5.7242 -0.173395 -2.70946 0
M  V30 37 C 4.1802 -2.73429 -2.34018 0
M  V30 38 C 3.7882 -4.1248 -1.74825 0
M  V30 39 C 5.5322 -2.89638 -3.10339 0
M  V30 40 C 3.4392 -5.22121 -2.77747 0
M  V30 41 H 2.3692 -0.577231 -0.485098 0
M  V30 42 H 5.0202 -1.74478 -0.568317 0
M  V30 43 H 3.4022 -2.47431 -3.09182 0
M  V30 44 H 4.5762 -4.48466 -1.05899 0
M  V30 45 H 2.8912 -4.01327 -1.11022 0
M  V30 46 H 5.4882 -3.68718 -3.87235 0
M  V30 47 H 5.8312 -1.9882 -3.65754 0
M  V30 48 H 6.3642 -3.15502 -2.42288 0
M  V30 49 H 3.1032 -6.1488 -2.27161 0
M  V30 50 H 2.6232 -4.90631 -3.45024 0
M  V30 51 H 4.3022 -5.49924 -3.4087 0
M  V30 52 N 4.4343 0.785586 -1.36625 0
M  V30 53 C 5.6823 1.54057 -1.30808 0
M  V30 54 C 6.0033 1.94683 0.111157 0
M  V30 55 O 5.2733 1.65241 1.05224 0
M  V30 56 H 3.8533 0.571354 -0.481211 0
M  V30 57 H 6.5153 0.935821 -1.70963 0
M  V30 58 H 5.6113 2.44637 -1.93801 0
M  V30 59 N 5.9124 1.20967 1.01018 0
M  V30 60 C 7.3284 0.965905 1.27053 0
M  V30 61 C 7.5284 -0.350785 1.98423 0
M  V30 62 O 6.5844 -1.07773 2.28344 0
M  V30 63 C 7.8974 2.15294 2.09926 0
M  V30 64 C 9.4454 2.19463 2.23171 0
M  V30 65 C 9.9204 3.3767 3.09424 0
M  V30 66 N 11.4114 3.37724 3.17012 0
M  V30 67 C 12.1464 4.25837 3.83993 0
M  V30 68 N 11.6424 5.24138 4.53047 0
M  V30 69 N 13.4354 4.1366 3.80581 0
M  V30 70 H 5.5864 2.0565 0.531194 0
M  V30 71 H 7.8494 0.90024 0.297106 0
M  V30 72 H 7.5554 3.10684 1.64828 0
M  V30 73 H 7.4294 2.13923 3.10672 0
M  V30 74 H 9.8164 1.24632 2.6749 0
M  V30 75 H 9.8974 2.2488 1.21912 0
M  V30 76 H 9.5414 4.32791 2.65808 0
M  V30 77 H 9.4714 3.29491 4.10784 0
M  V30 78 H 11.9624 2.6658 2.6785 0
M  V30 79 H 12.2754 5.87684 5.01844 0
M  V30 80 H 10.6204 5.28068 4.5185 0
M  V30 81 H 13.8114 3.36127 3.25785 0
M  V30 82 H 13.9844 4.82538 4.32505 0
M  V30 83 N 7.3905 -1.2043 1.01659 0
M  V30 84 C 8.8065 -1.41852 0.731442 0
M  V30 85 C 9.0065 -1.89358 -0.688898 0
M  V30 86 O 8.0625 -2.06247 -1.45666 0
M  V30 87 C 9.3755 -2.44019 1.75714 0
M  V30 88 C 10.9235 -2.57785 1.77527 0
M  V30 89 C 11.3985 -3.63194 2.79023 0
M  V30 90 N 12.8895 -3.70678 2.77763 0
M  V30 91 C 13.6245 -4.51897 3.52954 0
M  V30 92 N 13.1205 -5.36921 4.37821 0
M  V30 93 N 14.9135 -4.4643 3.41551 0
M  V30 94 H 7.0645 -0.879093 1.93354 0
M  V30 95 H 9.3275 -0.448425 0.835236 0
M  V30 96 H 9.0335 -2.1611 2.77469 0
M  V30 97 H 8.9075 -3.43007 1.56927 0
M  V30 98 H 11.2945 -2.85023 0.764569 0
M  V30 99 H 11.3755 -1.58992 2.00387 0
M  V30 100 H 11.0195 -3.36699 3.80258 0
M  V30 101 H 10.9495 -4.61609 2.53425 0
M  V30 102 H 13.4405 -3.09944 2.16201 0
M  V30 103 H 13.7535 -5.95981 4.91962 0
M  V30 104 H 12.0985 -5.36424 4.41899 0
M  V30 105 H 15.2895 -3.79042 2.74672 0
M  V30 106 H 15.4625 -5.09491 4.00404 0
M  V30 107 N 8.8686 -0.792821 -1.36206 0
M  V30 108 C 10.1456 -0.290627 -1.93429 0
M  V30 109 C 10.5256 1.21773 -1.72437 0
M  V30 110 O 9.8736 2.0108 -1.08531 0
M  V30 111 C 10.0836 -0.686973 -3.42172 0
M  V30 112 C 11.4316 -0.668643 -4.19302 0
M  V30 113 O 12.4556 -0.627658 -3.50626 0
M  V30 114 O 11.3146 -0.714597 -5.41808 0
M  V30 115 H 8.4086 -0.0727927 -0.82379 0
M  V30 116 H 10.9546 -0.875593 -1.45367 0
M  V30 117 H 9.7266 -1.72711 -3.51122 0
M  V30 118 H 9.3496 -0.0760733 -3.97527 0
M  V30 119 N 10.3467 1.47872 -0.545128 0
M  V30 120 C 11.2767 2.32661 0.197793 0
M  V30 121 C 12.2577 1.43041 0.920504 0
M  V30 122 O 13.4427 1.71912 0.90333 0
M  V30 123 C 10.5727 3.24569 1.23582 0
M  V30 124 C 9.5267 4.23333 0.630323 0
M  V30 125 C 8.8527 5.0448 1.77211 0
M  V30 126 C 10.1527 5.20704 -0.407974 0
M  V30 127 H 11.8467 2.95024 -0.510045 0
M  V30 128 H 9.3927 1.4187 -0.246731 0
M  V30 129 H 11.3457 3.8272 1.76362 0
M  V30 130 H 10.0697 2.60236 1.97344 0
M  V30 131 H 8.7287 3.6639 0.123922 0
M  V30 132 H 8.3767 4.36561 2.49847 0
M  V30 133 H 8.0767 5.71339 1.37281 0
M  V30 134 H 9.6007 5.65487 2.3034 0
M  V30 135 H 11.0147 5.7329 0.033305 0
M  V30 136 H 9.4117 5.95699 -0.725486 0
M  V30 137 H 10.4817 4.66917 -1.30828 0
M  V30 138 N 11.8248 0.280983 1.55075 0
M  V30 139 C 13.0738 -0.334784 1.98902 0
M  V30 140 C 13.3868 -1.56534 1.17288 0
M  V30 141 O 14.5928 -2.25443 1.51287 0
M  V30 142 C 13.0488 -0.646994 3.54037 0
M  V30 143 C 12.6568 0.564085 4.44435 0
M  V30 144 C 14.4008 -1.22506 4.06439 0
M  V30 145 C 12.3078 0.226137 5.90967 0
M  V30 146 H 11.2378 -0.128866 0.742906 0
M  V30 147 H 13.8888 0.386556 1.79382 0
M  V30 148 H 12.2708 -1.42739 3.6938 0
M  V30 149 H 13.4448 1.34082 4.40861 0
M  V30 150 H 11.7598 1.0594 4.02698 0
M  V30 151 H 14.3568 -1.49182 5.13468 0
M  V30 152 H 14.6998 -2.16085 3.55827 0
M  V30 153 H 15.2328 -0.50682 3.94558 0
M  V30 154 H 11.9718 1.12996 6.45687 0
M  V30 155 H 11.4918 -0.513717 5.97596 0
M  V30 156 H 13.1708 -0.179539 6.46751 0
M  V30 157 N 13.3029 -1.57598 0.00835791 0
M  V30 158 C 14.5429 -1.92788 -0.679136 0
M  V30 159 C 14.9069 -0.883378 -1.70471 0
M  V30 160 O 16.1079 -1.12079 -2.44319 0
M  V30 161 C 14.3789 -3.32994 -1.29807 0
M  V30 162 S 15.9379 -3.90082 -2.00952 0
M  V30 163 H 12.7559 -0.67475 -0.224127 0
M  V30 164 H 15.3579 -1.95385 0.0670497 0
M  V30 165 H 14.0619 -4.06846 -0.538922 0
M  V30 166 H 13.5929 -3.33791 -2.082 0
M  V30 167 H 15.6079 -3.71834 -3.28563 0
M  V30 168 N 14.781 0.264519 -1.55364 0
M  V30 169 C 16.029 0.993021 -1.76021 0
M  V30 170 C 16.35 1.86511 -0.569099 0
M  V30 171 O 15.62 1.91438 0.415735 0
M  V30 172 H 14.2 0.369639 -0.649135 0
M  V30 173 H 16.862 0.286707 -1.9278 0
M  V30 174 H 15.958 1.62502 -2.66457 0
M  V30 175 N 16.2591 1.48442 0.529413 0
M  V30 176 C 17.1891 1.65902 1.64313 0
M  V30 177 C 18.1701 0.507897 1.6234 0
M  V30 178 O 19.3551 0.740503 1.79528 0
M  V30 179 C 16.4851 1.69911 3.02898 0
M  V30 180 C 15.4391 2.8453 3.19729 0
M  V30 181 C 14.7651 2.73629 4.59381 0
M  V30 182 C 16.0651 4.25821 3.02447 0
M  V30 183 H 17.7591 2.5914 1.49955 0
M  V30 184 H 15.3051 1.24709 0.719982 0
M  V30 185 H 17.2581 1.80715 3.80684 0
M  V30 186 H 15.9821 0.732524 3.18279 0
M  V30 187 H 14.6411 2.73283 2.44361 0
M  V30 188 H 14.2891 1.74938 4.71599 0
M  V30 189 H 13.9891 3.50541 4.71588 0
M  V30 190 H 15.5131 2.86401 5.39265 0
M  V30 191 H 16.9271 4.37898 3.70024 0
M  V30 192 H 15.3241 5.03735 3.26146 0
M  V30 193 H 16.3941 4.42244 1.98867 0
M  V30 194 N 17.7372 -0.778329 1.37039 0
M  V30 195 C 18.9852 -1.53361 1.31623 0
M  V30 196 C 19.3062 -1.94739 -0.100831 0
M  V30 197 O 18.5762 -1.65797 -1.04347 0
M  V30 198 H 17.1562 -0.568794 0.484234 0
M  V30 199 H 19.8182 -0.926742 1.71457 0
M  V30 200 H 18.9142 -2.43606 1.95096 0
M  V30 201 N 19.2153 -1.21501 -1.00376 0
M  V30 202 C 20.4633 -1.03095 -1.73827 0
M  V30 203 C 20.7843 0.436341 -1.90055 0
M  V30 204 O 20.0543 1.31466 -1.45236 0
M  V30 205 H 18.6343 -0.378487 -0.644016 0
M  V30 206 H 21.2963 -1.52831 -1.20949 0
M  V30 207 H 20.3923 -1.49991 -2.73695 0
M  V30 208 N 20.6934 1.19889 -1.02296 0
M  V30 209 C 21.6234 2.25141 -0.619174 0
M  V30 210 C 22.6044 1.66051 0.368915 0
M  V30 211 O 23.7894 1.92546 0.252941 0
M  V30 212 C 20.9194 3.4728 0.0368783 0
M  V30 213 C 19.8734 4.19005 -0.872865 0
M  V30 214 C 19.1994 5.34637 -0.0822402 0
M  V30 215 C 20.4994 4.74452 -2.18387 0
M  V30 216 H 22.1934 2.59171 -1.49903 0
M  V30 217 H 19.7394 1.24579 -0.722222 0
M  V30 218 H 21.6924 4.20098 0.330958 0
M  V30 219 H 20.4164 3.12433 0.95149 0
M  V30 220 H 19.0754 3.48061 -1.15105 0
M  V30 221 H 18.7234 4.96034 0.83422 0
M  V30 222 H 18.4234 5.83557 -0.688149 0
M  V30 223 H 19.9474 6.10255 0.205238 0
M  V30 224 H 21.3614 5.39055 -1.95172 0
M  V30 225 H 19.7584 5.33834 -2.74119 0
M  V30 226 H 20.8284 3.92844 -2.84257 0
M  V30 227 N 22.1715 0.800033 1.35784 0
M  V30 228 C 23.1345 0.211565 2.28221 0
M  V30 229 C 24.1345 -0.59728 1.49296 0
M  V30 230 O 25.3245 -0.416721 1.69142 0
M  V30 231 C 22.4565 -0.705846 3.33513 0
M  V30 232 H 23.6495 1.02677 2.81776 0
M  V30 233 H 21.2025 0.570211 1.45528 0
M  V30 234 H 21.9375 -1.54498 2.85133 0
M  V30 235 H 21.7225 -0.127655 3.91892 0
M  V30 236 H 23.2125 -1.11211 4.02519 0
M  V30 237 N 23.6496 -1.47581 0.552962 0
M  V30 238 C 24.8956 -2.02782 0.0273648 0
M  V30 239 C 25.2286 -1.42687 -1.31734 0
M  V30 240 O 24.5036 -0.580897 -1.85623 0
M  V30 241 C 24.7866 -3.60031 -0.0702371 0
M  V30 242 C 24.6396 -4.30566 1.30126 0
M  V30 243 C 25.9586 -4.33028 -0.785771 0
M  V30 244 H 23.0776 -0.736912 0.0114185 0
M  V30 245 H 25.7196 -1.76056 0.714432 0
M  V30 246 H 23.8696 -3.82932 -0.655382 0
M  V30 247 H 25.5416 -4.19018 1.92929 0
M  V30 248 H 23.7846 -3.91086 1.87709 0
M  V30 249 H 24.4556 -5.39114 1.18573 0
M  V30 250 H 26.9316 -4.15095 -0.288982 0
M  V30 251 H 25.8076 -5.42695 -0.823013 0
M  V30 252 H 26.0686 -4.01945 -1.841 0
M  V30 253 N 25.1277 -0.289203 -1.54924 0
M  V30 254 C 26.3757 0.322879 -1.99504 0
M  V30 255 C 26.6967 1.55313 -1.1791 0
M  V30 256 O 25.9667 1.94001 -0.272097 0
M  V30 257 H 24.5467 0.122291 -0.736922 0
M  V30 258 H 27.2087 -0.397802 -1.90797 0
M  V30 259 H 26.3047 0.603061 -3.06218 0
M  V30 260 N 26.6058 1.57591 -0.0167156 0
M  V30 261 C 27.8538 1.90906 0.663285 0
M  V30 262 C 28.1748 0.892509 1.73376 0
M  V30 263 O 27.4448 -0.0677623 1.95783 0
M  V30 264 H 26.0248 0.704637 0.247983 0
M  V30 265 H 28.6868 1.94803 -0.0615909 0
M  V30 266 H 27.7828 2.9116 1.12393 0
M  V30 267 N 28.0839 -0.256276 1.55502 0
M  V30 268 C 29.0469 -1.30047 1.88734 0
M  V30 269 C 30.0469 -1.4154 0.763086 0
M  V30 270 O 31.2369 -1.40403 1.03115 0
M  V30 271 C 28.3689 -2.67953 2.10747 0
M  V30 272 H 29.5619 -1.01802 2.82093 0
M  V30 273 H 27.1149 -0.495134 1.4825 0
M  V30 274 H 27.8499 -3.01351 1.19825 0
M  V30 275 H 27.6349 -2.60993 2.92617 0
M  V30 276 H 29.1249 -3.43368 2.37673 0
M  V30 277 N 29.562 -1.4872 -0.521534 0
M  V30 278 C 30.495 -1.58451 -1.64221 0
M  V30 279 C 31.473 -0.434513 -1.56687 0
M  V30 280 O 32.657 -0.647275 -1.77038 0
M  V30 281 C 29.784 -1.52037 -3.02659 0
M  V30 282 C 28.83 -2.71981 -3.28525 0
M  V30 283 S 29.663 -4.33869 -3.13876 0
M  V30 284 C 30.819 -4.30067 -4.54745 0
M  V30 285 H 31.052 -2.53256 -1.55719 0
M  V30 286 H 28.585 -1.37358 -0.705143 0
M  V30 287 H 30.543 -1.49023 -3.82495 0
M  V30 288 H 29.204 -0.585541 -3.08594 0
M  V30 289 H 28.397 -2.63656 -4.29536 0
M  V30 290 H 27.999 -2.72302 -2.56374 0
M  V30 291 H 30.291 -4.00521 -5.46433 0
M  V30 292 H 31.234 -5.31287 -4.68123 0
M  V30 293 H 31.642 -3.60419 -4.34463 0
M  V30 294 N 31.0401 0.771051 -1.3745 0
M  V30 295 C 31.9701 1.89827 -1.3597 0
M  V30 296 C 32.9511 1.68562 -0.228216 0
M  V30 297 O 34.1361 1.8941 -0.428675 0
M  V30 298 C 31.2661 3.2712 -1.16662 0
M  V30 299 C 30.2201 3.6295 -2.2683 0
M  V30 300 C 29.5461 4.98791 -1.92644 0
M  V30 301 C 30.8461 3.69627 -3.69017 0
M  V30 302 H 32.5401 1.91323 -2.30295 0
M  V30 303 H 30.0861 0.919082 -1.10855 0
M  V30 304 H 32.0391 4.05615 -1.14256 0
M  V30 305 H 30.7631 3.26059 -0.187926 0
M  V30 306 H 29.4221 2.86763 -2.28392 0
M  V30 307 H 29.0701 4.94271 -0.933021 0
M  V30 308 H 28.7701 5.23733 -2.66416 0
M  V30 309 H 30.2941 5.79685 -1.91826 0
M  V30 310 H 31.7081 4.38273 -3.69581 0
M  V30 311 H 30.1051 4.06067 -4.41848 0
M  V30 312 H 31.1751 2.70273 -4.02592 0
M  V30 313 N 32.5182 1.22032 0.997298 0
M  V30 314 C 33.7662 1.04016 1.73278 0
M  V30 315 C 34.0872 -0.426255 1.90284 0
M  V30 316 O 33.3572 -1.30694 1.45931 0
M  V30 317 H 31.9372 0.381897 0.642 0
M  V30 318 H 34.5992 1.5347 1.20137 0
M  V30 319 H 33.6952 1.51441 2.72896 0
M  V30 320 N 33.9963 -1.19345 1.0293 0
M  V30 321 C 34.9263 -2.2481 0.631105 0
M  V30 322 C 35.9073 -1.66245 -0.360104 0
M  V30 323 O 37.0923 -1.92677 -0.242726 0
M  V30 324 C 34.2223 -3.47295 -0.0184607 0
M  V30 325 C 33.1763 -4.18536 0.895073 0
M  V30 326 C 32.5023 -5.34586 0.110592 0
M  V30 327 C 33.8023 -4.73287 2.209 0
M  V30 328 H 35.4963 -2.58372 1.51275 0
M  V30 329 H 33.0423 -1.24194 0.728818 0
M  V30 330 H 34.9953 -4.20268 -0.308675 0
M  V30 331 H 33.7193 -3.12933 -0.934907 0
M  V30 332 H 32.3783 -3.47446 1.16949 0
M  V30 333 H 32.0263 -4.96469 -0.807902 0
M  V30 334 H 31.7263 -5.83183 0.719087 0
M  V30 335 H 33.2503 -6.10355 -0.172871 0
M  V30 336 H 34.6643 -5.38013 1.98028 0
M  V30 337 H 33.0613 -5.32373 2.76946 0
M  V30 338 H 34.1313 -3.91331 2.86336 0
M  V30 339 N 35.4744 -0.807222 -1.35358 0
M  V30 340 C 36.7224 -0.387122 -1.98358 0
M  V30 341 C 37.0434 1.04942 -1.64354 0
M  V30 342 O 36.3134 1.72615 -0.926339 0
M  V30 343 H 34.8934 -0.140154 -0.733734 0
M  V30 344 H 37.5554 -1.0332 -1.6526 0
M  V30 345 H 36.6514 -0.493352 -3.08176 0
M  V30 346 N 36.9525 1.47285 -0.560781 0
M  V30 347 C 38.1775 2.07359 -0.0410566 0
M  V30 348 C 38.6025 1.41017 1.24483 0
M  V30 349 O 37.9605 0.486368 1.74654 0
M  V30 350 C 38.0085 3.6035 0.134123 0
M  V30 351 O 37.1125 3.94681 1.19587 0
M  V30 352 H 36.4535 0.661887 -0.0529291 0
M  V30 353 H 38.9835 1.89252 -0.777482 0
M  V30 354 H 38.9935 4.0652 0.347207 0
M  V30 355 H 37.6685 4.08034 -0.805047 0
M  V30 356 H 36.2455 3.60251 0.962987 0
M  V30 357 N 38.4306 0.297415 1.54768 0
M  V30 358 C 39.6766 -0.313376 2.00364 0
M  V30 359 C 40.0096 -1.53815 1.18553 0
M  V30 360 O 39.2846 -1.92739 0.261103 0
M  V30 361 C 39.5676 -0.673525 3.53745 0
M  V30 362 C 39.4206 0.560133 4.46299 0
M  V30 363 C 40.7396 -1.50143 4.13697 0
M  V30 364 H 37.8586 -0.112428 0.728374 0
M  V30 365 H 40.5006 0.4088 1.8555 0
M  V30 366 H 38.6506 -1.28881 3.665 0
M  V30 367 H 40.3226 1.19863 4.45455 0
M  V30 368 H 38.5656 1.19405 4.17043 0
M  V30 369 H 39.2366 0.26405 5.51368 0
M  V30 370 H 41.7126 -0.981588 4.04356 0
M  V30 371 H 40.5886 -1.72221 5.21182 0
M  V30 372 H 40.8496 -2.48952 3.65343 0
M  V30 373 N 39.9087 -1.5758 0.0250728 0
M  V30 374 C 40.8187 -2.1343 -0.973905 0
M  V30 375 C 41.8347 -1.08556 -1.35984 0
M  V30 376 O 43.0107 -1.40592 -1.44207 0
M  V30 377 C 40.0757 -2.64703 -2.23904 0
M  V30 378 C 39.1367 -3.84276 -1.91391 0
M  V30 379 C 38.3697 -4.33095 -3.11873 0
M  V30 380 O 38.5927 -3.81107 -4.24398 0
M  V30 381 O 37.5267 -5.24984 -2.94406 0
M  V30 382 H 41.3527 -2.99057 -0.529036 0
M  V30 383 H 38.9377 -1.48118 -0.195288 0
M  V30 384 H 40.8197 -2.97769 -2.98181 0
M  V30 385 H 39.4947 -1.82161 -2.6758 0
M  V30 386 H 38.4017 -3.56143 -1.14511 0
M  V30 387 H 39.7347 -4.67968 -1.52534 0
M  V30 388 N 41.3868 0.248026 -1.55636 0
M  V30 389 C 42.3498 1.29044 -1.89421 0
M  V30 390 C 43.3498 1.41134 -0.770581 0
M  V30 391 O 44.5398 1.39854 -1.03858 0
M  V30 392 C 41.6718 2.66831 -2.12165 0
M  V30 393 H 42.8648 1.00305 -2.82629 0
M  V30 394 H 40.4178 0.487265 -1.48511 0
M  V30 395 H 41.1528 3.00711 -1.21422 0
M  V30 396 H 40.9378 2.59438 -2.93997 0
M  V30 397 H 42.4278 3.42103 -2.3949 0
M  V30 398 N 42.8649 1.48995 0.513639 0
M  V30 399 C 44.2809 1.35478 0.843682 0
M  V30 400 C 44.4809 0.378213 1.97919 0
M  V30 401 O 43.5369 -0.194689 2.51748 0
M  V30 402 C 44.8499 2.75901 1.1958 0
M  V30 403 C 46.3979 2.84509 1.30474 0
M  V30 404 C 46.8729 4.25671 1.69021 0
M  V30 405 N 48.3639 4.28422 1.76094 0
M  V30 406 C 49.0989 5.34601 2.07338 0
M  V30 407 N 48.5949 6.5104 2.36894 0
M  V30 408 N 50.3879 5.22007 2.08483 0
M  V30 409 H 42.5389 2.11092 -0.235328 0
M  V30 410 H 44.8019 0.947039 -0.0426669 0
M  V30 411 H 44.5079 3.49001 0.434913 0
M  V30 412 H 44.3819 3.10467 2.1422 0
M  V30 413 H 46.7689 2.11655 2.05637 0
M  V30 414 H 46.8499 2.53542 0.339155 0
M  V30 415 H 46.4939 4.99048 0.944135 0
M  V30 416 H 46.4239 4.54094 2.66658 0
M  V30 417 H 48.9149 3.44441 1.55464 0
M  V30 418 H 49.2279 7.2779 2.59887 0
M  V30 419 H 47.5729 6.54287 2.34378 0
M  V30 420 H 50.7639 4.30051 1.84861 0
M  V30 421 H 50.9369 6.04854 2.325 0
M  V30 422 N 44.343 -0.763751 1.37857 0
M  V30 423 C 45.306 -1.85889 1.34081 0
M  V30 424 C 46.306 -1.58949 0.243277 0
M  V30 425 O 47.496 -1.66882 0.499589 0
M  V30 426 C 44.628 -3.23176 1.08489 0
M  V30 427 H 45.821 -1.90648 2.31502 0
M  V30 428 H 43.374 -0.964367 1.23003 0
M  V30 429 H 44.109 -3.24091 0.116318 0
M  V30 430 H 43.894 -3.44124 1.8794 0
M  V30 431 H 45.384 -4.03254 1.08517 0
M  V30 432 N 45.8211 -1.22559 -0.990812 0
M  V30 433 C 46.7841 -0.998863 -2.0629 0
M  V30 434 C 47.7841 0.0354834 -1.60761 0
M  V30 435 O 48.9741 -0.203231 -1.7301 0
M  V30 436 C 46.1061 -0.509203 -3.37076 0
M  V30 437 H 47.2991 -1.95014 -2.27837 0
M  V30 438 H 44.8521 -1.04456 -1.16269 0
M  V30 439 H 45.5871 0.446335 -3.21214 0
M  V30 440 H 45.3721 -1.25547 -3.71457 0
M  V30 441 H 46.8621 -0.370888 -4.1595 0
M  V30 442 N 47.2992 1.18797 -1.03562 0
M  V30 443 C 48.5472 1.88278 -0.734569 0
M  V30 444 C 48.8682 1.8043 0.739586 0
M  V30 445 O 48.1382 1.21925 1.53333 0
M  V30 446 H 46.7182 0.696991 -0.268725 0
M  V30 447 H 49.3802 1.44192 -1.31129 0
M  V30 448 H 48.4762 2.94443 -1.03489 0
M  V30 449 N 48.7773 0.814389 1.34928 0
M  V30 450 C 49.7093 0.187834 2.28429 0
M  V30 451 C 50.7223 -0.617374 1.5064 0
M  V30 452 O 51.9113 -0.448454 1.72775 0
M  V30 453 C 49.0113 -0.755962 3.30361 0
M  V30 454 C 48.1843 0.00456686 4.374 0
M  V30 455 C 47.2433 -0.858876 5.19143 0
M  V30 456 O 46.2693 -0.306968 5.68372 0
M  V30 457 N 47.4713 -2.17988 5.38016 0
M  V30 458 H 50.2363 0.991105 2.82838 0
M  V30 459 H 47.7973 0.670561 1.4736 0
M  V30 460 H 49.7893 -1.338 3.81942 0
M  V30 461 H 48.3593 -1.46001 2.7641 0
M  V30 462 H 47.5793 0.767865 3.86649 0
M  V30 463 H 48.8673 0.528422 5.06049 0
M  V30 464 H 48.2653 -2.65212 4.99679 0
M  V30 465 H 46.8223 -2.71098 5.92747 0
M  V30 466 N 50.2554 -1.46986 0.568584 0
M  V30 467 C 51.2184 -2.28624 -0.162366 0
M  V30 468 C 52.2184 -1.37596 -0.832103 0
M  V30 469 O 53.4084 -1.60115 -0.68622 0
M  V30 470 C 50.5404 -3.17596 -1.23878 0
M  V30 471 H 51.7334 -2.94722 0.554899 0
M  V30 472 H 49.2864 -1.52863 0.325976 0
M  V30 473 H 50.0214 -2.56214 -1.98808 0
M  V30 474 H 49.8064 -3.846 -0.763219 0
M  V30 475 H 51.2964 -3.79078 -1.75185 0
M  V30 476 N 51.7335 -0.305618 -1.54608 0
M  V30 477 C 52.6655 0.602161 -2.21149 0
M  V30 478 C 53.6785 1.09394 -1.20569 0
M  V30 479 O 54.8675 1.0106 -1.47136 0
M  V30 480 C 51.9675 1.83692 -2.84799 0
M  V30 481 C 51.1405 1.48686 -4.11353 0
M  V30 482 C 50.1995 2.57725 -4.58764 0
M  V30 483 O 49.2255 2.22623 -5.23858 0
M  V30 484 N 50.4275 3.88346 -4.31471 0
M  V30 485 H 53.1925 0.0324966 -2.99682 0
M  V30 486 H 50.7535 -0.128021 -1.61393 0
M  V30 487 H 52.7455 2.55994 -3.13448 0
M  V30 488 H 51.3155 2.31486 -2.10078 0
M  V30 489 H 50.5355 0.596269 -3.89664 0
M  V30 490 H 51.8235 1.22842 -4.93748 0
M  V30 491 H 51.2215 4.19671 -3.79331 0
M  V30 492 H 49.7785 4.56932 -4.64818 0
M  V30 493 N 53.2116 1.57565 -0.0334293 0
M  V30 494 C 54.6226 1.79746 0.504798 0
M  V30 495 C 54.9736 0.944091 1.71992 0
M  V30 496 O 54.0986 0.155694 2.15839 0
M  V30 497 C 54.6936 3.25997 0.922567 0
M  V30 498 C 53.2526 3.49159 1.40588 0
M  V30 499 C 52.3996 2.74785 0.372633 0
M  V30 500 H 55.3506 1.56565 -0.259436 0
M  V30 501 H 55.3716 3.35945 1.78666 0
M  V30 502 H 54.8836 3.88081 0.0379825 0
M  V30 503 H 52.9846 2.92332 2.31025 0
M  V30 504 H 53.0976 4.57873 1.41028 0
M  V30 505 H 51.4616 2.40391 0.841672 0
M  V30 506 H 52.2446 3.39587 -0.503559 0
M  V30 507 N 54.6897 -0.239769 1.55765 0
M  V30 508 C 55.6527 -1.28038 1.90103 0
M  V30 509 C 56.6527 -1.40723 0.778055 0
M  V30 510 O 57.8427 -1.39301 1.04599 0
M  V30 511 C 54.9747 -2.65702 2.13577 0
M  V30 512 H 56.1677 -0.988048 2.83157 0
M  V30 513 H 53.7207 -0.479382 1.48767 0
M  V30 514 H 54.4557 -3.00063 1.23015 0
M  V30 515 H 54.2407 -2.57875 2.95369 0
M  V30 516 H 55.7307 -3.40828 2.41301 0
M  V30 517 N 56.1678 -1.49265 -0.50573 0
M  V30 518 C 57.3928 -1.62478 -1.28902 0
M  V30 519 C 57.8178 -0.294332 -1.85783 0
M  V30 520 O 57.1758 0.737412 -1.65626 0
M  V30 521 C 57.2238 -2.69268 -2.39848 0
M  V30 522 O 56.3278 -2.28113 -3.43567 0
M  V30 523 H 55.6688 -0.54399 -0.380751 0
M  V30 524 H 58.1988 -1.95421 -0.605952 0
M  V30 525 H 58.2088 -2.91291 -2.85681 0
M  V30 526 H 56.8838 -3.65846 -1.97812 0
M  V30 527 H 55.4608 -2.16401 -3.03685 0
M  V30 528 N 57.6459 0.756429 -1.3826 0
M  V30 529 C 58.8939 1.51248 -1.34047 0
M  V30 530 C 59.2149 1.94875 0.0698372 0
M  V30 531 O 58.4849 1.67436 1.01696 0
M  V30 532 H 57.0649 0.561018 -0.493222 0
M  V30 533 H 59.7269 0.899347 -1.7291 0
M  V30 534 H 58.8229 2.40472 -1.98947 0
M  V30 535 N 59.124 1.23083 0.984299 0
M  V30 536 C 60.54 0.992637 1.24975 0
M  V30 537 C 60.74 -0.308618 1.99123 0
M  V30 538 O 59.796 -1.02905 2.30579 0
M  V30 539 C 61.109 2.19698 2.05312 0
M  V30 540 C 62.657 2.24147 2.18465 0
M  V30 541 C 63.132 3.44157 3.02192 0
M  V30 542 N 64.623 3.44372 3.09777 0
M  V30 543 C 65.358 4.33886 3.74874 0
M  V30 544 N 64.854 5.3363 4.41827 0
M  V30 545 N 66.647 4.21639 3.71721 0
M  V30 546 H 58.798 2.06731 0.487453 0
M  V30 547 H 61.061 0.906339 0.277944 0
M  V30 548 H 60.767 3.1411 1.58201 0
M  V30 549 H 60.641 2.20465 3.06064 0
M  V30 550 H 63.028 1.30277 2.64786 0
M  V30 551 H 63.109 2.27415 1.17115 0
M  V30 552 H 62.753 4.38332 2.56568 0
M  V30 553 H 62.683 3.3813 4.03702 0
M  V30 554 H 65.174 2.72201 2.62135 0
M  V30 555 H 65.487 5.98196 4.89266 0
M  V30 556 H 63.832 5.37534 4.40548 0
M  V30 557 H 67.023 3.42962 3.18582 0
M  V30 558 H 67.196 4.91604 4.22173 0
M  V30 559 N 60.6021 -1.18246 1.0419 0
M  V30 560 C 61.8491 -1.88257 0.746017 0
M  V30 561 C 62.1771 -1.80429 -0.726331 0
M  V30 562 O 61.4321 -1.2 -1.54591 0
M  V30 563 C 61.7311 -3.38082 1.15911 0
M  V30 564 C 61.3971 -3.66114 2.63195 0
M  V30 565 C 60.0591 -3.73474 3.03432 0
M  V30 566 C 62.4111 -3.78398 3.5842 0
M  V30 567 C 59.7391 -3.90599 4.37778 0
M  V30 568 C 62.0911 -3.97039 4.92487 0
M  V30 569 C 60.7551 -4.02635 5.32392 0
M  V30 570 H 60.0251 -0.688883 0.272987 0
M  V30 571 H 62.6721 -1.3995 1.30715 0
M  V30 572 H 60.9771 -3.88377 0.516806 0
M  V30 573 H 62.6741 -3.90596 0.907516 0
M  V30 574 H 59.2641 -3.61003 2.3103 0
M  V30 575 H 63.4481 -3.72042 3.28479 0
M  V30 576 H 58.7041 -3.93175 4.68213 0
M  V30 577 H 62.8781 -4.05486 5.66175 0
M  V30 578 H 60.5051 -4.15657 6.36501 0
M  V30 579 N 62.0802 -0.821533 -1.34494 0
M  V30 580 C 63.3572 -0.33159 -1.92769 0
M  V30 581 C 63.7372 1.18088 -1.74981 0
M  V30 582 O 63.0852 1.98733 -1.12772 0
M  V30 583 C 63.2952 -0.759398 -3.40638 0
M  V30 584 C 64.6432 -0.757433 -4.1779 0
M  V30 585 O 65.6672 -0.70189 -3.49216 0
M  V30 586 O 64.5262 -0.829361 -5.4017 0
M  V30 587 H 61.6202 -0.0902502 -0.822061 0
M  V30 588 H 64.1662 -0.906231 -1.43477 0
M  V30 589 H 62.9382 -1.8012 -3.47379 0
M  V30 590 H 62.5612 -0.160378 -3.97276 0
M  V30 591 N 63.5583 1.46682 -0.576371 0
M  V30 592 C 64.4903 2.28341 0.198231 0
M  V30 593 C 65.5033 1.38141 0.861453 0
M  V30 594 O 66.6923 1.62797 0.732082 0
M  V30 595 C 63.7923 3.12986 1.29972 0
M  V30 596 C 62.9653 4.31271 0.729639 0
M  V30 597 C 62.0243 4.97363 1.71803 0
M  V30 598 O 61.0503 5.55156 1.25658 0
M  V30 599 N 62.2523 4.93796 3.05198 0
M  V30 600 H 65.0173 2.9546 -0.502324 0
M  V30 601 H 62.5783 1.56525 -0.413715 0
M  V30 602 H 64.5703 3.54066 1.96008 0
M  V30 603 H 63.1403 2.47984 1.90323 0
M  V30 604 H 62.3603 3.94052 -0.108012 0
M  V30 605 H 63.6483 5.07739 0.328438 0
M  V30 606 H 63.0463 4.48077 3.45317 0
M  V30 607 H 61.6033 5.38837 3.6674 0
M  V30 608 N 65.0364 0.313813 1.54444 0
M  V30 609 C 66.2824 -0.292108 2.00685 0
M  V30 610 C 66.6154 -1.52548 1.20177 0
M  V30 611 O 65.8904 -1.92452 0.281531 0
M  V30 612 C 66.1734 -0.635968 3.5444 0
M  V30 613 C 66.0264 0.607437 4.4568 0
M  V30 614 C 67.3454 -1.45747 4.15266 0
M  V30 615 H 64.4644 -0.104697 0.729526 0
M  V30 616 H 67.1064 0.428457 1.85106 0
M  V30 617 H 65.2564 -1.24986 3.67846 0
M  V30 618 H 66.9284 1.24581 4.44159 0
M  V30 619 H 65.1714 1.23822 4.15753 0
M  V30 620 H 65.8424 0.322515 5.51057 0
M  V30 621 H 68.3184 -0.938645 4.05375 0
M  V30 622 H 67.1944 -1.66683 5.2298 0
M  V30 623 H 67.4554 -2.45063 3.67963 0
M  V30 624 N 66.5145 -1.57545 0.0417849 0
M  V30 625 C 67.7625 -1.91937 -0.632829 0
M  V30 626 C 68.0835 -0.919978 -1.71934 0
M  V30 627 O 67.3535 0.0366064 -1.95866 0
M  V30 628 H 65.9335 -0.708493 -0.236742 0
M  V30 629 H 68.5955 -1.9468 0.0925745 0
M  V30 630 H 67.6915 -2.92912 -1.07746 0
M  V30 631 N 67.9926 0.231505 -1.5589 0
M  V30 632 C 69.2406 0.955461 -1.78088 0
M  V30 633 C 69.5616 1.85262 -0.608533 0
M  V30 634 O 68.8316 1.92277 0.375035 0
M  V30 635 H 67.4116 0.355787 -0.656829 0
M  V30 636 H 70.0736 0.245751 -1.93344 0
M  V30 637 H 69.1696 1.56814 -2.69844 0
M  V30 638 N 69.4707 1.49531 0.497807 0
M  V30 639 C 70.4337 1.65916 1.58128 0
M  V30 640 C 71.4337 0.530825 1.51786 0
M  V30 641 O 72.6237 0.797342 1.54881 0
M  V30 642 C 69.7557 1.65951 2.9778 0
M  V30 643 H 70.9487 2.62556 1.44929 0
M  V30 644 H 68.5017 1.38611 0.722275 0
M  V30 645 H 69.2367 0.709065 3.16453 0
M  V30 646 H 69.0217 2.47897 3.03792 0
M  V30 647 H 70.5117 1.80673 3.76493 0
M  V30 648 N 70.9488 -0.749086 1.3866 0
M  V30 649 C 72.1958 -1.50833 1.35114 0
M  V30 650 C 72.5238 -1.94415 -0.0574049 0
M  V30 651 O 71.7788 -1.66065 -1.03541 0
M  V30 652 C 72.0778 -2.7712 2.25697 0
M  V30 653 C 71.7438 -2.52477 3.73585 0
M  V30 654 C 70.4058 -2.45466 4.13884 0
M  V30 655 C 72.7578 -2.31066 4.67181 0
M  V30 656 C 70.0858 -2.15064 5.45861 0
M  V30 657 C 72.4378 -2.02183 5.9942 0
M  V30 658 C 71.1018 -1.93631 6.38798 0
M  V30 659 H 70.3718 -0.551936 0.494416 0
M  V30 660 H 73.0188 -0.860979 1.71054 0
M  V30 661 H 71.3238 -3.46528 1.82827 0
M  V30 662 H 73.0208 -3.35096 2.20254 0
M  V30 663 H 69.6108 -2.58807 3.41638 0
M  V30 664 H 73.7948 -2.35459 4.3689 0
M  V30 665 H 69.0508 -2.06954 5.75308 0
M  V30 666 H 73.2248 -1.8462 6.71482 0
M  V30 667 H 70.8518 -1.69839 7.40985 0
M  V30 668 N 72.4269 -1.23603 -0.977757 0
M  V30 669 C 73.6749 -1.06759 -1.71601 0
M  V30 670 C 73.9959 0.395929 -1.90938 0
M  V30 671 O 73.2659 1.28356 -1.47992 0
M  V30 672 H 71.8459 -0.392062 -0.635843 0
M  V30 673 H 74.5079 -1.55362 -1.1768 0
M  V30 674 H 73.6039 -1.55763 -2.70452 0
M  V30 675 N 73.905 1.17692 -1.04816 0
M  V30 676 C 75.151 1.88389 -0.766892 0
M  V30 677 C 75.506 1.79282 0.698269 0
M  V30 678 O 74.799 1.18739 1.50372 0
M  V30 679 C 74.993 3.37462 -1.17703 0
M  V30 680 C 74.822 3.6108 -2.68051 0
M  V30 681 C 73.592 3.78018 -3.35307 0
M  V30 682 C 75.79 3.61039 -3.66273 0
M  V30 683 N 73.772 3.89444 -4.74559 0
M  V30 684 C 75.143 3.78269 -4.91235 0
M  V30 685 C 77.198 3.44168 -3.59796 0
M  V30 686 C 75.901 3.80376 -6.10497 0
M  V30 687 C 77.927 3.4756 -4.78493 0
M  V30 688 C 77.289 3.65295 -6.02278 0
M  V30 689 H 73.388 0.707651 -0.332798 0
M  V30 690 H 75.972 1.41314 -1.33934 0
M  V30 691 H 74.143 3.83214 -0.63257 0
M  V30 692 H 75.875 3.95759 -0.845989 0
M  V30 693 H 72.63 3.77714 -2.85708 0
M  V30 694 H 73.054 3.98962 -5.46954 0
M  V30 695 H 77.696 3.29396 -2.65062 0
M  V30 696 H 75.414 3.93933 -7.05579 0
M  V30 697 H 79 3.3577 -4.75131 0
M  V30 698 H 77.88 3.6782 -6.92588 0
M  V30 699 N 75.3831 0.828654 1.34056 0
M  V30 700 C 76.3301 0.252567 2.29414 0
M  V30 701 C 77.3001 -0.62588 1.53857 0
M  V30 702 O 78.4851 -0.566312 1.82202 0
M  V30 703 C 75.6251 -0.574831 3.40279 0
M  V30 704 C 74.7381 0.326499 4.30764 0
M  V30 705 C 73.8731 -0.511016 5.28736 0
M  V30 706 C 72.9121 0.389342 6.1086 0
M  V30 707 N 72.0491 -0.409439 7.00905 0
M  V30 708 H 76.8891 1.07108 2.78086 0
M  V30 709 H 74.4261 0.539677 1.36843 0
M  V30 710 H 76.3841 -1.06992 4.03248 0
M  V30 711 H 75.0141 -1.35841 2.92826 0
M  V30 712 H 74.0661 0.939837 3.68607 0
M  V30 713 H 75.3781 1.01857 4.88289 0
M  V30 714 H 74.5321 -1.07035 5.97184 0
M  V30 715 H 73.2711 -1.23657 4.71763 0
M  V30 716 H 72.2761 0.960769 5.4134 0
M  V30 717 H 73.5011 1.1131 6.69916 0
M  V30 718 H 71.4471 -1.11856 6.46393 0
M  V30 719 H 71.3641 0.224126 7.55668 0
M  V30 720 H 72.6321 -0.951336 7.73673 0
M  V30 721 N 76.8612 -1.46375 0.584142 0
M  V30 722 C 78.2722 -1.86031 0.157959 0
M  V30 723 C 78.6232 -1.48753 -1.27933 0
M  V30 724 O 77.7482 -0.903098 -1.96655 0
M  V30 725 C 78.3432 -3.37642 0.279892 0
M  V30 726 C 76.9022 -3.76289 -0.09143 0
M  V30 727 C 76.0492 -2.7039 0.615178 0
M  V30 728 H 79.0002 -1.37509 0.792274 0
M  V30 729 H 79.0212 -3.77275 -0.494364 0
M  V30 730 H 78.5332 -3.64742 1.32607 0
M  V30 731 H 76.6342 -3.54806 -1.13769 0
M  V30 732 H 76.7472 -4.78246 0.285886 0
M  V30 733 H 75.1112 -2.5464 0.0552833 0
M  V30 734 H 75.8942 -3.0033 1.66303 0
M  V30 735 N 78.3393 -0.321999 -1.54275 0
M  V30 736 C 79.2893 0.560185 -2.21011 0
M  V30 737 C 80.2733 1.08283 -1.19011 0
M  V30 738 O 81.4653 1.02011 -1.44647 0
M  V30 739 C 78.5943 1.72137 -2.97025 0
M  V30 740 C 77.6803 1.21369 -4.06363 0
M  V30 741 N 78.0713 0.425566 -5.04007 0
M  V30 742 C 76.3693 1.49255 -4.20284 0
M  V30 743 C 77.0703 0.152601 -5.815 0
M  V30 744 N 76.0463 0.738294 -5.38563 0
M  V30 745 H 79.8483 -0.049265 -2.93859 0
M  V30 746 H 77.3623 -0.127779 -1.61897 0
M  V30 747 H 79.3593 2.36512 -3.43319 0
M  V30 748 H 78.0193 2.33431 -2.25699 0
M  V30 749 H 79.0303 0.068551 -5.17855 0
M  V30 750 H 75.7073 2.11145 -3.60172 0
M  V30 751 H 77.0973 -0.481764 -6.70171 0
M  V30 752 N 79.8174 1.5752 -0.0501392 0
M  V30 753 C 80.7644 2.1147 0.924603 0
M  V30 754 C 81.7344 1.02182 1.30951 0
M  V30 755 O 82.9194 1.29723 1.39916 0
M  V30 756 C 80.0594 2.66337 2.19451 0
M  V30 757 C 79.1724 3.89708 1.86418 0
M  V30 758 C 78.3074 4.32893 3.07859 0
M  V30 759 C 77.3464 5.48967 2.70742 0
M  V30 760 N 76.4834 5.87211 3.84874 0
M  V30 761 H 81.3234 2.94465 0.457639 0
M  V30 762 H 78.8604 1.45531 0.214266 0
M  V30 763 H 80.8184 2.96247 2.93758 0
M  V30 764 H 79.4484 1.86141 2.63726 0
M  V30 765 H 78.5004 3.66396 1.02264 0
M  V30 766 H 79.8124 4.74074 1.55096 0
M  V30 767 H 78.9664 4.6435 3.90466 0
M  V30 768 H 77.7054 3.47336 3.42358 0
M  V30 769 H 76.7104 5.17183 1.86551 0
M  V30 770 H 77.9354 6.3624 2.37436 0
M  V30 771 H 75.8814 5.04607 4.19175 0
M  V30 772 H 75.7984 6.66266 3.57247 0
M  V30 773 H 77.0664 6.23282 4.68123 0
M  V30 774 N 81.2955 -0.223234 1.56011 0
M  V30 775 C 82.2255 -1.27988 1.95298 0
M  V30 776 C 83.2065 -1.48976 0.820979 0
M  V30 777 O 84.3915 -1.61188 1.08315 0
M  V30 778 C 81.5215 -2.63 2.26822 0
M  V30 779 C 80.4755 -2.56671 3.42497 0
M  V30 780 C 79.8015 -3.95697 3.59622 0
M  V30 781 C 81.1015 -2.11601 4.77517 0
M  V30 782 H 82.7955 -0.953525 2.8381 0
M  V30 783 H 80.3415 -0.457244 1.36548 0
M  V30 784 H 82.2945 -3.37077 2.52898 0
M  V30 785 H 81.0185 -2.9732 1.35161 0
M  V30 786 H 79.6775 -1.85051 3.16467 0
M  V30 787 H 79.3255 -4.27322 2.6534 0
M  V30 788 H 79.0255 -3.92345 4.37424 0
M  V30 789 H 80.5495 -4.71438 3.88044 0
M  V30 790 H 81.9635 -2.7542 5.02809 0
M  V30 791 H 80.3605 -2.19311 5.5859 0
M  V30 792 H 81.4305 -1.06824 4.72987 0
M  V30 793 N 82.7736 -1.49793 -0.48987 0
M  V30 794 C 84.0506 -1.50348 -1.25119 0
M  V30 795 C 84.4306 -0.237466 -2.0976 0
M  V30 796 O 83.7786 0.77981 -2.14782 0
M  V30 797 C 83.9886 -2.78872 -2.09837 0
M  V30 798 C 85.3366 -3.288 -2.68655 0
M  V30 799 O 86.3606 -2.80065 -2.20096 0
M  V30 800 O 85.2196 -4.13707 -3.57083 0
M  V30 801 H 82.3136 -0.602242 -0.566775 0
M  V30 802 H 84.8596 -1.62067 -0.503229 0
M  V30 803 H 83.6316 -3.62499 -1.47343 0
M  V30 804 H 83.2546 -2.70066 -2.91805 0
M  V30 805 N 84.2517 0.741722 -1.39055 0
M  V30 806 C 85.6627 1.31966 -1.32068 0
M  V30 807 C 86.0137 1.96192 0.0180797 0
M  V30 808 O 85.1387 1.95861 0.920196 0
M  V30 809 C 85.7337 2.39954 -2.39181 0
M  V30 810 C 84.2927 2.93438 -2.35735 0
M  V30 811 C 83.4397 1.66936 -2.21422 0
M  V30 812 H 86.3907 0.539721 -1.4924 0
M  V30 813 H 86.4117 3.20182 -2.05581 0
M  V30 814 H 85.9237 1.9318 -3.36605 0
M  V30 815 H 84.0247 3.4451 -1.41929 0
M  V30 816 H 84.1377 3.4701 -3.30335 0
M  V30 817 H 82.5017 1.91016 -1.68478 0
M  V30 818 H 83.2847 1.22224 -3.20806 0
M  V30 819 N 85.7298 1.2412 0.971189 0
M  V30 820 C 86.6768 1.0305 2.06517 0
M  V30 821 C 87.6468 -0.0550666 1.66009 0
M  V30 822 O 88.8318 0.0988688 1.90544 0
M  V30 823 C 85.9718 0.637653 3.39158 0
M  V30 824 C 85.0848 1.79633 3.92882 0
M  V30 825 C 84.2198 1.34939 5.13775 0
M  V30 826 C 83.2588 2.47823 5.59687 0
M  V30 827 N 82.3958 2.04022 6.71803 0
M  V30 828 H 87.2358 1.96685 2.23873 0
M  V30 829 H 84.7728 0.979694 1.09729 0
M  V30 830 H 86.7308 0.390931 4.15364 0
M  V30 831 H 85.3608 -0.261693 3.21737 0
M  V30 832 H 84.4128 2.15681 3.13346 0
M  V30 833 H 85.7248 2.64466 4.22918 0
M  V30 834 H 84.8788 1.06134 5.97345 0
M  V30 835 H 83.6178 0.471557 4.85415 0
M  V30 836 H 82.6228 2.77392 4.74693 0
M  V30 837 H 83.8478 3.36158 5.90063 0
M  V30 838 H 81.7938 1.18632 6.45184 0
M  V30 839 H 81.7108 2.82409 7.01271 0
M  V30 840 H 82.9788 1.78347 7.58823 0
M  V30 841 N 87.2079 -1.17134 1.05439 0
M  V30 842 C 88.1179 -2.24878 0.668365 0
M  V30 843 C 89.1339 -1.71186 -0.311687 0
M  V30 844 O 90.3099 -2.00738 -0.163161 0
M  V30 845 C 87.3749 -3.46662 0.051648 0
M  V30 846 C 86.4359 -4.15429 1.08246 0
M  V30 847 C 85.6689 -5.31399 0.495082 0
M  V30 848 O 85.8919 -5.66153 -0.694743 0
M  V30 849 O 84.8259 -5.89187 1.23056 0
M  V30 850 H 88.6519 -2.60189 1.56637 0
M  V30 851 H 86.2369 -1.24482 0.826104 0
M  V30 852 H 88.1189 -4.20394 -0.290966 0
M  V30 853 H 86.7939 -3.13142 -0.819971 0
M  V30 854 H 85.7009 -3.43704 1.47711 0
M  V30 855 H 87.0339 -4.52982 1.92532 0
M  V30 856 N 88.686 -0.835752 -1.33615 0
M  V30 857 C 89.926 -0.43599 -1.99696 0
M  V30 858 C 90.29 0.98557 -1.64774 0
M  V30 859 O 91.491 1.48889 -2.23798 0
M  V30 860 C 89.762 -0.646721 -3.515 0
M  V30 861 S 91.321 -0.341715 -4.37467 0
M  V30 862 H 88.139 -0.164136 -0.691795 0
M  V30 863 H 90.741 -1.08436 -1.62671 0
M  V30 864 H 89.445 -1.68077 -3.74404 0
M  V30 865 H 88.976 0.0159173 -3.93397 0
M  V30 866 H 90.991 0.839708 -4.89043 0
M  V30 867 N 90.1641 1.46063 -0.591896 0
M  V30 868 C 91.1271 2.28854 0.125973 0
M  V30 869 C 92.1271 1.38903 0.810107 0
M  V30 870 O 93.3171 1.61186 0.66066 0
M  V30 871 C 90.4491 3.19526 1.1881 0
M  V30 872 H 91.6421 2.93802 -0.601717 0
M  V30 873 H 89.1951 1.52325 -0.350254 0
M  V30 874 H 89.9301 2.59345 1.94707 0
M  V30 875 H 89.7151 3.85766 0.701936 0
M  V30 876 H 91.2051 3.81817 1.69132 0
M  V30 877 N 91.6422 0.330177 1.54103 0
M  V30 878 C 92.5742 -0.566902 2.22079 0
M  V30 879 C 93.5872 -1.07462 1.22294 0
M  V30 880 O 94.7762 -0.987065 1.48726 0
M  V30 881 C 91.8762 -1.79138 2.87685 0
M  V30 882 C 91.0492 -1.42123 4.13666 0
M  V30 883 C 90.1082 -2.50394 4.62806 0
M  V30 884 O 89.1342 -2.14261 5.27334 0
M  V30 885 N 90.3362 -3.81433 4.37595 0
M  V30 886 H 93.1012 0.0151844 2.99696 0
M  V30 887 H 90.6622 0.153681 1.61169 0
M  V30 888 H 92.6542 -2.50975 3.1748 0
M  V30 889 H 91.2242 -2.28115 2.13734 0
M  V30 890 H 90.4442 -0.534201 3.90564 0
M  V30 891 H 91.7322 -1.14971 4.9564 0
M  V30 892 H 91.1302 -4.13584 3.8596 0
M  V30 893 H 89.6872 -4.4948 4.72029 0
M  V30 894 N 93.1203 -1.57491 0.0584922 0
M  V30 895 C 94.3663 -1.93264 -0.614558 0
M  V30 896 C 94.6993 -0.937717 -1.7006 0
M  V30 897 O 93.9743 0.0351652 -1.94468 0
M  V30 898 C 94.2573 -3.3938 -1.20386 0
M  V30 899 C 94.1103 -4.49625 -0.125375 0
M  V30 900 C 95.4293 -3.86039 -2.11334 0
M  V30 901 H 92.5483 -0.702791 -0.221933 0
M  V30 902 H 95.1903 -1.8961 0.12175 0
M  V30 903 H 93.3403 -3.42626 -1.83139 0
M  V30 904 H 95.0123 -4.58506 0.506971 0
M  V30 905 H 93.2553 -4.30354 0.545672 0
M  V30 906 H 93.9263 -5.48967 -0.577861 0
M  V30 907 H 96.4023 -3.84716 -1.58534 0
M  V30 908 H 95.2783 -4.88914 -2.49507 0
M  V30 909 H 95.5393 -3.23215 -3.01636 0
M  V30 910 N 94.5984 0.214957 -1.56127 0
M  V30 911 C 95.5614 1.24997 -1.92116 0
M  V30 912 C 96.5614 1.39467 -0.800344 0
M  V30 913 O 97.7514 1.37619 -1.06802 0
M  V30 914 C 94.8834 2.62271 -2.17777 0
M  V30 915 H 96.0764 0.942875 -2.84693 0
M  V30 916 H 93.6294 0.455654 -1.49511 0
M  V30 917 H 94.3644 2.98068 -1.27773 0
M  V30 918 H 94.1494 2.53143 -2.99434 0
M  V30 919 H 95.6394 3.36946 -2.46693 0
M  V30 920 N 96.0765 1.50051 0.48192 0
M  V30 921 C 97.3065 1.63999 1.2565 0
M  V30 922 C 97.7145 0.318288 1.86504 0
M  V30 923 O 97.0575 -0.708534 1.69486 0
M  V30 924 C 97.1195 2.66504 2.4128 0
M  V30 925 C 96.7835 4.10352 2.01148 0
M  V30 926 C 97.7805 4.96562 1.54021 0
M  V30 927 C 95.4655 4.56203 2.10199 0
M  V30 928 C 97.4595 6.26668 1.16473 0
M  V30 929 C 95.1465 5.86318 1.72264 0
M  V30 930 C 96.1445 6.71375 1.25477 0
M  V30 931 O 95.8325 7.99062 0.880626 0
M  V30 932 H 95.5645 0.55456 0.386574 0
M  V30 933 H 98.1185 1.96954 0.582944 0
M  V30 934 H 96.3485 2.28769 3.11772 0
M  V30 935 H 98.0375 2.69783 3.03268 0
M  V30 936 H 98.8035 4.62358 1.46458 0
M  V30 937 H 94.6825 3.90152 2.45566 0
M  V30 938 H 98.2265 6.93011 0.798841 0
M  V30 939 H 94.1235 6.20046 1.79482 0
M  V30 940 H 94.8915 8.12239 1.01043 0
M  V30 941 N 97.5546 -0.734337 1.39446 0
M  V30 942 C 98.8316 -1.48579 1.27215 0
M  V30 943 C 99.2116 -2.1077 -0.117968 0
M  V30 944 O 98.5596 -1.98646 -1.12924 0
M  V30 945 C 98.7696 -2.53667 2.39696 0
M  V30 946 C 100.118 -3.20031 2.79044 0
M  V30 947 O 101.142 -2.6398 2.39151 0
M  V30 948 O 100.001 -4.21455 3.47905 0
M  V30 949 H 97.0946 -0.659816 0.49857 0
M  V30 950 H 99.6406 -0.768106 1.51322 0
M  V30 951 H 98.4126 -2.06096 3.32626 0
M  V30 952 H 98.0356 -3.32994 2.17258 0
M  V30 953 N 99.0327 -1.24633 -0.964593 0
M  V30 954 C 100.281 -1.08573 -1.70459 0
M  V30 955 C 100.602 0.375655 -1.91347 0
M  V30 956 O 99.8717 1.26779 -1.49345 0
M  V30 957 H 98.4517 -0.398784 -0.631649 0
M  V30 958 H 101.114 -1.56601 -1.16026 0
M  V30 959 H 100.21 -1.58623 -2.68785 0
M  V30 960 N 100.511 1.16574 -1.06058 0
M  V30 961 C 101.741 1.90675 -0.795397 0
M  V30 962 C 102.149 1.77547 0.653735 0
M  V30 963 O 101.492 1.11611 1.45907 0
M  V30 964 C 101.554 3.42011 -1.10764 0
M  V30 965 C 101.218 3.78924 -2.55471 0
M  V30 966 C 102.215 3.81042 -3.53699 0
M  V30 967 C 99.8998 4.09626 -2.90708 0
M  V30 968 C 101.894 4.13346 -4.85205 0
M  V30 969 C 99.5808 4.41597 -4.22416 0
M  V30 970 C 100.579 4.43436 -5.19474 0
M  V30 971 O 100.267 4.74649 -6.48817 0
M  V30 972 H 99.9988 0.611554 -0.288058 0
M  V30 973 H 102.553 1.48711 -1.41683 0
M  V30 974 H 100.783 3.84312 -0.429128 0
M  V30 975 H 102.472 3.97384 -0.827077 0
M  V30 976 H 103.238 3.57437 -3.27817 0
M  V30 977 H 99.1168 4.07361 -2.15819 0
M  V30 978 H 102.661 4.14696 -5.60957 0
M  V30 979 H 98.5578 4.64667 -4.48056 0
M  V30 980 H 99.3258 4.9247 -6.5377 0
M  V30 981 N 101.989 0.842826 1.3317 0
M  V30 982 C 103.235 0.450342 1.98352 0
M  V30 983 C 103.59 -0.980508 1.65541 0
M  V30 984 O 102.883 -1.67678 0.927065 0
M  V30 985 C 103.077 0.612607 3.52111 0
M  V30 986 C 102.906 2.05768 3.99862 0
M  V30 987 C 101.676 2.69374 4.27511 0
M  V30 988 C 103.874 3.02688 4.15794 0
M  V30 989 N 101.856 4.04915 4.61429 0
M  V30 990 C 103.227 4.23186 4.53115 0
M  V30 991 C 105.282 2.99041 3.98094 0
M  V30 992 C 103.985 5.40518 4.74587 0
M  V30 993 C 106.011 4.15607 4.20743 0
M  V30 994 C 105.373 5.3486 4.58371 0
M  V30 995 H 101.472 0.213296 0.752349 0
M  V30 996 H 104.056 1.09173 1.61212 0
M  V30 997 H 102.227 0.000998822 3.884 0
M  V30 998 H 103.959 0.191179 4.04248 0
M  V30 999 H 100.714 2.20485 4.19146 0
M  V30 1000 H 101.138 4.74798 4.82593 0
M  V30 1001 H 105.78 2.0797 3.68114 0
M  V30 1002 H 103.498 6.3213 5.03425 0
M  V30 1003 H 107.084 4.14207 4.08563 0
M  V30 1004 H 105.964 6.23558 4.75547 0
M  V30 1005 N 103.467 -1.45747 0.599634 0
M  V30 1006 C 104.697 -2.06369 0.0977132 0
M  V30 1007 C 105.105 -1.44624 -1.21985 0
M  V30 1008 O 104.448 -0.551831 -1.75216 0
M  V30 1009 C 104.51 -3.59284 -0.124673 0
M  V30 1010 C 104.174 -4.43318 1.10987 0
M  V30 1011 C 105.171 -4.78796 2.02609 0
M  V30 1012 C 102.856 -4.84194 1.33647 0
M  V30 1013 C 104.85 -5.53997 3.15224 0
M  V30 1014 C 102.537 -5.5915 2.46565 0
M  V30 1015 C 103.535 -5.93968 3.37182 0
M  V30 1016 O 103.223 -6.67405 4.48136 0
M  V30 1017 H 102.955 -0.673122 0.0623153 0
M  V30 1018 H 105.509 -1.88104 0.824981 0
M  V30 1019 H 103.739 -3.75919 -0.906745 0
M  V30 1020 H 105.428 -4.01775 -0.577201 0
M  V30 1021 H 106.194 -4.47781 1.86325 0
M  V30 1022 H 102.073 -4.56534 0.64016 0
M  V30 1023 H 105.617 -5.81091 3.85978 0
M  V30 1024 H 101.514 -5.89579 2.62805 0
M  V30 1025 H 102.282 -6.85847 4.46717 0
M  V30 1026 N 104.945 -0.338344 -1.53925 0
M  V30 1027 C 105.892 0.520845 -2.24846 0
M  V30 1028 C 106.862 1.09976 -1.24477 0
M  V30 1029 O 108.047 1.13735 -1.53196 0
M  V30 1030 C 105.187 1.6685 -3.02084 0
M  V30 1031 C 104.3 1.11739 -4.17299 0
M  V30 1032 C 103.435 2.23193 -4.82036 0
M  V30 1033 C 102.474 1.65407 -5.89328 0
M  V30 1034 N 101.611 2.70582 -6.47866 0
M  V30 1035 H 106.451 -0.0904881 -2.97863 0
M  V30 1036 H 103.988 -0.0564282 -1.46992 0
M  V30 1037 H 105.946 2.34407 -3.45122 0
M  V30 1038 H 104.576 2.2509 -2.31375 0
M  V30 1039 H 103.628 0.332919 -3.7894 0
M  V30 1040 H 104.94 0.654677 -4.94485 0
M  V30 1041 H 104.094 2.98626 -5.28117 0
M  V30 1042 H 102.833 2.72807 -4.04262 0
M  V30 1043 H 101.838 0.884779 -5.42634 0
M  V30 1044 H 103.063 1.16652 -6.69006 0
M  V30 1045 H 101.009 3.1946 -5.72959 0
M  V30 1046 H 100.926 2.28917 -7.20509 0
M  V30 1047 H 102.194 3.45799 -6.98601 0
M  V30 1048 N 106.423 1.57458 -0.0668435 0
M  V30 1049 C 107.671 1.92919 0.602214 0
M  V30 1050 C 107.992 0.947215 1.70449 0
M  V30 1051 O 107.262 -0.00544117 1.95899 0
M  V30 1052 H 105.842 0.71217 0.22544 0
M  V30 1053 H 108.504 1.94508 -0.123535 0
M  V30 1054 H 107.6 2.94589 1.03073 0
M  V30 1055 N 107.901 -0.206675 1.56239 0
M  V30 1056 C 109.148 -0.928842 1.79941 0
M  V30 1057 C 109.476 -1.83734 0.638131 0
M  V30 1058 O 108.731 -1.92039 -0.376746 0
M  V30 1059 C 109.03 -1.78675 3.09532 0
M  V30 1060 C 108.696 -1.03022 4.38973 0
M  V30 1061 C 107.358 -0.821302 4.74139 0
M  V30 1062 C 109.71 -0.497081 5.18824 0
M  V30 1063 C 107.038 -0.0675719 5.86661 0
M  V30 1064 C 109.39 0.24338 6.32132 0
M  V30 1065 C 108.054 0.463422 6.65889 0
M  V30 1066 H 107.324 -0.339887 0.658451 0
M  V30 1067 H 109.971 -0.195977 1.90495 0
M  V30 1068 H 108.276 -2.58794 2.94165 0
M  V30 1069 H 109.973 -2.34792 3.25075 0
M  V30 1070 H 106.563 -1.20306 4.11369 0
M  V30 1071 H 110.747 -0.645921 4.92079 0
M  V30 1072 H 106.003 0.112995 6.11296 0
M  V30 1073 H 110.177 0.66393 6.93228 0
M  V30 1074 H 107.804 1.04938 7.52922 0
M  V30 1075 N 109.379 -1.50304 -0.473955 0
M  V30 1076 C 110.627 -1.60832 -1.22382 0
M  V30 1077 C 110.948 -0.30939 -1.9253 0
M  V30 1078 O 110.218 0.67296 -1.83978 0
M  V30 1079 H 108.798 -0.592652 -0.454723 0
M  V30 1080 H 111.46 -1.87068 -0.546968 0
M  V30 1081 H 110.556 -2.41803 -1.97327 0
M  V30 1082 N 110.857 0.726932 -1.39834 0
M  V30 1083 C 112.097 1.4992 -1.38936 0
M  V30 1084 C 112.461 1.91996 0.0126883 0
M  V30 1085 O 113.662 2.68399 0.146715 0
M  V30 1086 C 111.933 2.70013 -2.34153 0
M  V30 1087 S 113.492 3.59563 -2.51515 0
M  V30 1088 H 110.31 0.51271 -0.492595 0
M  V30 1089 H 112.912 0.85107 -1.76003 0
M  V30 1090 H 111.616 2.37254 -3.34871 0
M  V30 1091 H 111.147 3.39748 -1.98331 0
M  V30 1092 H 113.162 4.63973 -1.75909 0
M  V30 1093 N 112.336 1.25143 0.95797 0
M  V30 1094 C 113.584 1.09476 1.69881 0
M  V30 1095 C 113.905 -0.365502 1.91544 0
M  V30 1096 O 113.175 -1.25985 1.50015 0
M  V30 1097 H 111.755 0.402128 0.629525 0
M  V30 1098 H 114.417 1.57214 1.15194 0
M  V30 1099 H 113.513 1.60046 2.6794 0
M  V30 1100 N 113.814 -1.1601 1.06675 0
M  V30 1101 C 115.061 -1.86633 0.785781 0
M  V30 1102 C 115.389 -1.81929 -0.687896 0
M  V30 1103 O 114.644 -1.23253 -1.52011 0
M  V30 1104 C 114.943 -3.35547 1.23057 0
M  V30 1105 C 114.609 -3.60448 2.70902 0
M  V30 1106 C 113.271 -3.66954 3.11285 0
M  V30 1107 C 115.623 -3.7071 3.66365 0
M  V30 1108 C 112.951 -3.81225 4.45965 0
M  V30 1109 C 115.303 -3.86503 5.00797 0
M  V30 1110 C 113.967 -3.91252 5.40813 0
M  V30 1111 H 113.237 -0.682937 0.287538 0
M  V30 1112 H 115.884 -1.37146 1.33654 0
M  V30 1113 H 114.189 -3.87193 0.59907 0
M  V30 1114 H 115.886 -3.88583 0.990163 0
M  V30 1115 H 112.476 -3.56021 2.38636 0
M  V30 1116 H 116.66 -3.64991 3.36296 0
M  V30 1117 H 111.916 -3.83155 4.76447 0
M  V30 1118 H 116.09 -3.93385 5.74649 0
M  V30 1119 H 113.717 -4.02062 6.45174 0
M  V30 1120 N 115.292 -0.849877 -1.32721 0
M  V30 1121 C 116.54 -0.450032 -1.97026 0
M  V30 1122 C 116.861 0.996604 -1.67609 0
M  V30 1123 O 116.131 1.6958 -0.980786 0
M  V30 1124 H 114.711 -0.163426 -0.728904 0
M  V30 1125 H 117.373 -1.08526 -1.6189 0
M  V30 1126 H 116.469 -0.591146 -3.0645 0
M  V30 1127 N 116.77 1.45427 -0.607355 0
M  V30 1128 C 117.733 2.28974 0.101693 0
M  V30 1129 C 118.733 1.39754 0.795329 0
M  V30 1130 O 119.923 1.61878 0.643527 0
M  V30 1131 C 117.055 3.20768 1.15414 0
M  V30 1132 H 118.248 2.93147 -0.632844 0
M  V30 1133 H 115.801 1.51945 -0.366391 0
M  V30 1134 H 116.536 2.61395 1.91945 0
M  V30 1135 H 116.321 3.86489 0.66098 0
M  V30 1136 H 117.811 3.83589 1.65073 0
M  V30 1137 N 118.248 0.346503 1.53744 0
M  V30 1138 C 119.495 -0.249104 2.00962 0
M  V30 1139 C 119.823 -1.5032 1.23426 0
M  V30 1140 O 119.078 -1.93217 0.310761 0
M  V30 1141 C 119.377 -0.605809 3.52228 0
M  V30 1142 C 119.043 0.551747 4.47512 0
M  V30 1143 C 117.705 0.86941 4.73281 0
M  V30 1144 C 120.057 1.32818 5.03993 0
M  V30 1145 C 117.385 1.96582 5.52786 0
M  V30 1146 C 119.737 2.41486 5.84694 0
M  V30 1147 C 118.401 2.73808 6.08757 0
M  V30 1148 H 117.671 -0.0911538 0.735372 0
M  V30 1149 H 120.318 0.475027 1.85515 0
M  V30 1150 H 118.623 -1.4107 3.65522 0
M  V30 1151 H 120.32 -1.07858 3.86222 0
M  V30 1152 H 116.91 0.294102 4.2759 0
M  V30 1153 H 121.094 1.09602 4.84047 0
M  V30 1154 H 116.35 2.22045 5.69654 0
M  V30 1155 H 120.524 3.02078 6.27473 0
M  V30 1156 H 118.151 3.58892 6.7015 0
M  V30 1157 N 119.726 -1.57421 0.075193 0
M  V30 1158 C 120.956 -1.97659 -0.601203 0
M  V30 1159 C 121.364 -0.952427 -1.63479 0
M  V30 1160 O 120.707 0.0688241 -1.83571 0
M  V30 1161 C 120.769 -3.34218 -1.32434 0
M  V30 1162 C 120.433 -4.5484 -0.443826 0
M  V30 1163 C 121.43 -5.19034 0.299969 0
M  V30 1164 C 119.115 -5.00952 -0.367709 0
M  V30 1165 C 121.109 -6.27695 1.10807 0
M  V30 1166 C 118.796 -6.09484 0.444058 0
M  V30 1167 C 119.794 -6.72719 1.18061 0
M  V30 1168 O 119.482 -7.79161 1.97898 0
M  V30 1169 H 119.214 -0.65494 -0.167422 0
M  V30 1170 H 121.768 -2.04886 0.145157 0
M  V30 1171 H 119.998 -3.23615 -2.11685 0
M  V30 1172 H 121.687 -3.59038 -1.89331 0
M  V30 1173 H 122.453 -4.84351 0.250776 0
M  V30 1174 H 118.332 -4.51509 -0.930638 0
M  V30 1175 H 121.876 -6.76982 1.68347 0
M  V30 1176 H 117.773 -6.43601 0.494803 0
M  V30 1177 H 118.541 -7.96055 1.90367 0
M  V30 1178 N 121.204 0.198386 -1.56346 0
M  V30 1179 C 122.429 0.939682 -1.84891 0
M  V30 1180 C 122.854 1.76202 -0.658369 0
M  V30 1181 O 122.212 1.76993 0.392851 0
M  V30 1182 C 122.26 1.81428 -3.11635 0
M  V30 1183 O 121.364 2.91265 -2.91956 0
M  V30 1184 H 120.705 0.264807 -0.608912 0
M  V30 1185 H 123.235 0.204695 -2.03573 0
M  V30 1186 H 123.245 2.21958 -3.42343 0
M  V30 1187 H 121.92 1.21004 -3.97908 0
M  V30 1188 H 120.497 2.54514 -2.72538 0
M  V30 1189 N 122.682 1.50554 0.465978 0
M  V30 1190 C 123.931 1.61038 1.21448 0
M  V30 1191 C 124.244 0.31865 1.92987 0
M  V30 1192 O 125.45 0.302469 2.6981 0
M  V30 1193 C 123.906 2.84283 2.20706 0
M  V30 1194 C 123.514 4.20352 1.54946 0
M  V30 1195 C 125.258 3.04115 2.96166 0
M  V30 1196 C 123.165 5.34778 2.5252 0
M  V30 1197 H 122.095 0.599718 0.457005 0
M  V30 1198 H 124.746 1.7699 0.484424 0
M  V30 1199 H 123.128 2.61901 2.97025 0
M  V30 1200 H 124.302 4.53008 0.843811 0
M  V30 1201 H 122.617 4.06167 0.917475 0
M  V30 1202 H 125.214 3.86774 3.69202 0
M  V30 1203 H 125.557 2.16045 3.55852 0
M  V30 1204 H 126.09 3.26702 2.26959 0
M  V30 1205 H 122.829 6.25018 1.97566 0
M  V30 1206 H 122.349 5.06534 3.21222 0
M  V30 1207 H 124.028 5.65561 3.14245 0
M  V30 1208 N 124.16 -0.719506 1.40217 0
M  V30 1209 C 125.406 -1.48152 1.38488 0
M  V30 1210 C 125.739 -1.94195 -0.0141867 0
M  V30 1211 O 125.014 -1.67884 -0.982096 0
M  V30 1212 C 125.297 -2.71035 2.37091 0
M  V30 1213 C 125.15 -2.30912 3.86005 0
M  V30 1214 C 126.469 -3.73182 2.33288 0
M  V30 1215 H 123.588 -0.537395 0.504357 0
M  V30 1216 H 126.23 -0.821472 1.71324 0
M  V30 1217 H 124.38 -3.27352 2.0922 0
M  V30 1218 H 126.052 -1.80107 4.24687 0
M  V30 1219 H 124.295 -1.62958 4.02029 0
M  V30 1220 H 124.966 -3.18978 4.50508 0
M  V30 1221 H 127.442 -3.26485 2.57966 0
M  V30 1222 H 126.318 -4.56806 3.04334 0
M  V30 1223 H 126.579 -4.21202 1.34317 0
M  V30 1224 N 125.638 -1.25649 -0.95132 0
M  V30 1225 C 126.886 -1.10375 -1.69298 0
M  V30 1226 C 127.207 0.355339 -1.91735 0
M  V30 1227 O 126.477 1.25188 -1.50681 0
M  V30 1228 H 125.057 -0.405461 -0.627384 0
M  V30 1229 H 127.719 -1.57823 -1.14358 0
M  V30 1230 H 126.815 -1.61465 -2.67087 0
M  V30 1231 N 127.117 1.15442 -1.07289 0
M  V30 1232 C 128.047 2.22312 -0.714107 0
M  V30 1233 C 129.028 1.67467 0.298155 0
M  V30 1234 O 130.213 1.93445 0.171048 0
M  V30 1235 C 127.343 3.47124 -0.110448 0
M  V30 1236 C 126.297 4.14926 -1.04979 0
M  V30 1237 C 125.623 5.33807 -0.308924 0
M  V30 1238 C 126.923 4.64762 -2.38314 0
M  V30 1239 H 128.617 2.5258 -1.6076 0
M  V30 1240 H 126.163 1.21404 -0.77441 0
M  V30 1241 H 128.116 4.21124 0.152482 0
M  V30 1242 H 126.84 3.16187 0.81812 0
M  V30 1243 H 125.499 3.42866 -1.29764 0
M  V30 1244 H 125.147 4.99126 0.623084 0
M  V30 1245 H 124.847 5.80113 -0.935036 0
M  V30 1246 H 126.371 6.10576 -0.0537771 0
M  V30 1247 H 127.785 5.30292 -2.1786 0
M  V30 1248 H 126.182 5.21728 -2.96514 0
M  V30 1249 H 127.252 3.80434 -3.00663 0
M  V30 1250 N 128.595 0.856903 1.32268 0
M  V30 1251 C 129.528 0.247937 2.26849 0
M  V30 1252 C 130.506 -0.615382 1.50505 0
M  V30 1253 O 131.69 -0.571689 1.79622 0
M  V30 1254 C 128.817 -0.650093 3.32403 0
M  V30 1255 C 127.863 0.140138 4.2627 0
M  V30 1256 S 128.696 1.51004 5.13769 0
M  V30 1257 C 129.852 0.61778 6.22844 0
M  V30 1258 H 130.085 1.04971 2.78152 0
M  V30 1259 H 127.618 0.654665 1.39834 0
M  V30 1260 H 129.576 -1.16256 3.93694 0
M  V30 1261 H 128.237 -1.4257 2.7988 0
M  V30 1262 H 127.43 -0.543945 5.01056 0
M  V30 1263 H 127.032 0.584267 3.69408 0
M  V30 1264 H 129.324 -0.177053 6.77269 0
M  V30 1265 H 130.267 1.33636 6.95375 0
M  V30 1266 H 130.675 0.191124 5.64176 0
M  V30 1267 N 130.073 -1.45103 0.615059 0
M  V30 1268 C 131.321 -2.01784 0.112955 0
M  V30 1269 C 131.642 -1.48504 -1.26378 0
M  V30 1270 O 130.912 -0.682245 -1.83636 0
M  V30 1271 H 129.492 -0.745993 0.0387668 0
M  V30 1272 H 132.154 -1.77808 0.798141 0
M  V30 1273 H 131.25 -3.12025 0.0684069 0
M  V30 1274 N 131.551 -0.354651 -1.53558 0
M  V30 1275 C 132.461 0.50515 -2.29097 0
M  V30 1276 C 133.477 1.10223 -1.34636 0
M  V30 1277 O 134.653 1.11553 -1.67684 0
M  V30 1278 C 131.718 1.63479 -3.05738 0
M  V30 1279 C 130.779 1.06636 -4.15845 0
M  V30 1280 C 130.012 2.14217 -4.88822 0
M  V30 1281 O 130.235 3.35137 -4.61562 0
M  V30 1282 O 129.169 1.77887 -5.75013 0
M  V30 1283 H 132.995 -0.109237 -3.03503 0
M  V30 1284 H 130.58 -0.119357 -1.48922 0
M  V30 1285 H 132.462 2.2918 -3.5363 0
M  V30 1286 H 131.137 2.23478 -2.34178 0
M  V30 1287 H 130.044 0.373565 -3.7223 0
M  V30 1288 H 131.377 0.511081 -4.89539 0
M  V30 1289 N 133.029 1.57378 -0.0835403 0
M  V30 1290 C 133.976 2.13384 0.879539 0
M  V30 1291 C 134.946 1.04936 1.28754 0
M  V30 1292 O 136.131 1.32662 1.37133 0
M  V30 1293 C 133.271 2.70932 2.13752 0
M  V30 1294 C 132.384 3.93575 1.7811 0
M  V30 1295 C 131.519 4.39326 2.98607 0
M  V30 1296 C 130.558 5.54587 2.59037 0
M  V30 1297 N 129.695 5.95243 3.72331 0
M  V30 1298 H 134.535 2.9537 0.395076 0
M  V30 1299 H 132.072 1.45953 0.183349 0
M  V30 1300 H 134.03 3.02411 2.87408 0
M  V30 1301 H 132.66 1.91693 2.59718 0
M  V30 1302 H 131.712 3.68483 0.94469 0
M  V30 1303 H 133.024 4.77258 1.45005 0
M  V30 1304 H 132.178 4.72528 3.80529 0
M  V30 1305 H 130.917 3.5452 3.34913 0
M  V30 1306 H 129.922 5.21024 1.75539 0
M  V30 1307 H 131.147 6.41133 2.23887 0
M  V30 1308 H 129.093 5.13385 4.08378 0
M  V30 1309 H 129.01 6.73694 3.43034 0
M  V30 1310 H 130.278 6.33072 4.54797 0
M  V30 1311 N 134.507 -0.190092 1.56449 0
M  V30 1312 C 135.737 -0.92443 1.84764 0
M  V30 1313 C 136.145 -1.77146 0.664529 0
M  V30 1314 O 135.488 -1.79812 -0.375957 0
M  V30 1315 C 135.55 -1.86651 3.07248 0
M  V30 1316 C 135.214 -1.20094 4.40938 0
M  V30 1317 C 136.211 -0.575445 5.16706 0
M  V30 1318 C 133.896 -1.2033 4.87674 0
M  V30 1319 C 135.89 0.0388111 6.37388 0
M  V30 1320 C 133.577 -0.585214 6.08291 0
M  V30 1321 C 134.575 0.0347578 6.82991 0
M  V30 1322 O 134.263 0.643147 8.01323 0
M  V30 1323 H 133.995 -0.274974 0.617548 0
M  V30 1324 H 136.549 -0.200788 2.04416 0
M  V30 1325 H 134.779 -2.62998 2.83494 0
M  V30 1326 H 136.468 -2.46907 3.22167 0
M  V30 1327 H 137.234 -0.565728 4.81689 0
M  V30 1328 H 133.113 -1.67526 4.29484 0
M  V30 1329 H 136.657 0.523329 6.95634 0
M  V30 1330 H 132.554 -0.592451 6.42775 0
M  V30 1331 H 133.322 0.540545 8.16713 0
M  V30 1332 N 135.985 -1.50799 -0.457987 0
M  V30 1333 C 137.233 -1.62121 -1.2067 0
M  V30 1334 C 137.554 -0.329793 -1.92191 0
M  V30 1335 O 136.824 0.653409 -1.84682 0
M  V30 1336 H 135.404 -0.597441 -0.448411 0
M  V30 1337 H 138.066 -1.87637 -0.527096 0
M  V30 1338 H 137.162 -2.43882 -1.94751 0
M  V30 1339 N 137.463 0.71206 -1.40597 0
M  V30 1340 C 138.426 1.80785 -1.40888 0
M  V30 1341 C 139.426 1.57937 -0.302103 0
M  V30 1342 O 140.616 1.64913 -0.561182 0
M  V30 1343 C 137.748 3.18927 -1.20409 0
M  V30 1344 H 138.941 1.81924 -2.38419 0
M  V30 1345 H 136.494 0.91805 -1.26497 0
M  V30 1346 H 137.229 3.23436 -0.236522 0
M  V30 1347 H 137.014 3.36911 -2.00582 0
M  V30 1348 H 138.504 3.98949 -1.23408 0
M  V30 1349 N 138.941 1.26152 0.944643 0
M  V30 1350 C 140.352 1.10454 1.50522 0
M  V30 1351 C 140.703 -0.31635 1.93633 0
M  V30 1352 O 139.828 -1.20746 1.79581 0
M  V30 1353 C 140.423 1.99891 2.73549 0
M  V30 1354 C 138.982 1.88348 3.25886 0
M  V30 1355 C 138.129 1.93447 1.9868 0
M  V30 1356 H 141.08 1.39292 0.760489 0
M  V30 1357 H 141.101 1.54477 3.47732 0
M  V30 1358 H 140.613 3.03297 2.42141 0
M  V30 1359 H 138.714 0.878636 3.62092 0
M  V30 1360 H 138.827 2.73696 3.93227 0
M  V30 1361 H 137.191 1.37456 2.14425 0
M  V30 1362 H 137.974 2.98476 1.69607 0
M  V30 1363 N 140.419 -1.14872 1.07899 0
M  V30 1364 C 141.649 -1.89386 0.825631 0
M  V30 1365 C 142.057 -1.78565 -0.625406 0
M  V30 1366 O 141.4 -1.13918 -1.44113 0
M  V30 1367 C 141.462 -3.40206 1.16191 0
M  V30 1368 C 141.126 -3.74812 2.61467 0
M  V30 1369 C 142.123 -3.75367 3.59716 0
M  V30 1370 C 139.808 -4.0495 2.97189 0
M  V30 1371 C 141.802 -4.05574 4.9172 0
M  V30 1372 C 139.489 -4.34821 4.29388 0
M  V30 1373 C 140.487 -4.35116 5.26463 0
M  V30 1374 O 140.175 -4.64267 6.56286 0
M  V30 1375 H 139.907 -0.606894 0.297751 0
M  V30 1376 H 142.461 -1.46438 1.44031 0
M  V30 1377 H 140.691 -3.8358 0.490214 0
M  V30 1378 H 142.38 -3.96018 0.890193 0
M  V30 1379 H 143.146 -3.52176 3.33462 0
M  V30 1380 H 139.025 -4.03876 2.22273 0
M  V30 1381 H 142.569 -4.05719 5.67484 0
M  V30 1382 H 138.466 -4.5748 4.55392 0
M  V30 1383 H 139.234 -4.82007 6.61522 0
M  V30 1384 N 141.898 -0.863906 -1.31812 0
M  V30 1385 C 142.846 -0.30422 -2.30602 0
M  V30 1386 C 143.84 0.577419 -1.59255 0
M  V30 1387 O 145.046 0.464194 -1.73912 0
M  V30 1388 H 141.421 -0.0796877 -0.747766 0
M  V30 1389 H 143.392 -1.15148 -2.75288 0
M  V30 1390 C 142.141 0.484617 -3.44306 0
M  V30 1391 H 141.464 -0.18451 -3.99374 0
M  V30 1392 H 142.904 0.841664 -4.15562 0
M  V30 1393 C 141.363 1.6735 -2.92396 0
M  V30 1394 O 141.893 2.77273 -2.90659 0
M  V30 1395 N 140.099 1.50362 -2.48676 0
M  V30 1396 H 139.646 0.609402 -2.50288 0
M  V30 1397 H 139.604 2.30051 -2.14299 0
M  V30 1398 N 143.376 1.44774 -0.622745 0
M  V30 1399 C 144.308 2.28856 0.125485 0
M  V30 1400 C 145.321 1.40811 0.817069 0
M  V30 1401 O 146.51 1.65044 0.679918 0
M  V30 1402 C 143.61 3.16963 1.19949 0
M  V30 1403 C 142.783 4.33374 0.592064 0
M  V30 1404 C 141.842 5.02577 1.55893 0
M  V30 1405 O 140.868 5.58873 1.07933 0
M  V30 1406 N 142.07 5.03256 2.89334 0
M  V30 1407 H 144.835 2.93713 -0.596068 0
M  V30 1408 H 142.396 1.55129 -0.463303 0
M  V30 1409 H 144.388 3.60123 1.84644 0
M  V30 1410 H 142.958 2.53913 1.82337 0
M  V30 1411 H 142.178 3.93509 -0.233322 0
M  V30 1412 H 143.466 5.08527 0.166738 0
M  V30 1413 H 142.864 4.58836 3.30887 0
M  V30 1414 H 141.421 5.50232 3.49412 0
M  V30 1415 N 144.854 0.36279 1.53368 0
M  V30 1416 C 146.101 -0.227776 2.01215 0
M  V30 1417 C 146.429 -1.49003 1.25014 0
M  V30 1418 O 145.684 -1.92876 0.331236 0
M  V30 1419 C 145.983 -0.568417 3.52851 0
M  V30 1420 C 145.649 0.59918 4.46901 0
M  V30 1421 C 144.311 0.919559 4.72332 0
M  V30 1422 C 146.663 1.38156 5.02556 0
M  V30 1423 C 143.991 2.02434 5.5067 0
M  V30 1424 C 146.343 2.47674 5.821 0
M  V30 1425 C 145.007 2.8025 6.05819 0
M  V30 1426 H 144.277 -0.083349 0.736297 0
M  V30 1427 H 146.924 0.494677 1.85001 0
M  V30 1428 H 145.229 -1.37185 3.66998 0
M  V30 1429 H 146.926 -1.03756 3.87344 0
M  V30 1430 H 143.516 0.339437 4.27254 0
M  V30 1431 H 147.7 1.14729 4.82857 0
M  V30 1432 H 142.956 2.28075 5.67267 0
M  V30 1433 H 147.13 3.08716 6.24234 0
M  V30 1434 H 144.757 3.65979 6.66306 0
M  V30 1435 N 146.332 -1.57332 0.0918853 0
M  V30 1436 C 147.743 -1.81496 -0.437739 0
M  V30 1437 C 148.094 -1.00727 -1.6837 0
M  V30 1438 O 147.219 -0.235694 -2.15113 0
M  V30 1439 C 147.814 -3.29197 -0.800939 0
M  V30 1440 C 146.373 -3.54136 -1.27532 0
M  V30 1441 C 145.52 -2.75979 -0.270392 0
M  V30 1442 H 148.471 -1.55494 0.317366 0
M  V30 1443 H 148.492 -3.42344 -1.66074 0
M  V30 1444 H 148.004 -3.87955 0.106078 0
M  V30 1445 H 146.105 -3.00705 -2.20016 0
M  V30 1446 H 146.218 -4.62792 -1.23938 0
M  V30 1447 H 144.582 -2.43349 -0.751872 0
M  V30 1448 H 145.365 -3.37484 0.629248 0
M  V30 1449 N 147.81 0.181792 -1.56548 0
M  V30 1450 C 149.057 0.900097 -1.81396 0
M  V30 1451 C 149.385 1.82695 -0.667281 0
M  V30 1452 O 148.64 1.92614 0.346146 0
M  V30 1453 C 148.939 1.73728 -3.12335 0
M  V30 1454 C 148.605 0.960255 -4.40556 0
M  V30 1455 C 147.267 0.745766 -4.75386 0
M  V30 1456 C 149.619 0.414477 -5.19549 0
M  V30 1457 C 146.947 -0.0257694 -5.86694 0
M  V30 1458 C 149.299 -0.343916 -6.31664 0
M  V30 1459 C 147.963 -0.569301 -6.65068 0
M  V30 1460 H 147.233 0.329369 -0.663775 0
M  V30 1461 H 149.88 0.165647 -1.90782 0
M  V30 1462 H 148.185 2.54081 -2.98245 0
M  V30 1463 H 149.882 2.29591 -3.28769 0
M  V30 1464 H 146.472 1.13746 -4.13231 0
M  V30 1465 H 150.656 0.567554 -4.93044 0
M  V30 1466 H 145.912 -0.210233 -6.11038 0
M  V30 1467 H 150.086 -0.774133 -6.92084 0
M  V30 1468 H 147.713 -1.16903 -7.51158 0
M  V30 1469 N 149.288 1.51039 0.449983 0
M  V30 1470 C 150.251 1.70863 1.5277 0
M  V30 1471 C 151.251 0.578846 1.5002 0
M  V30 1472 O 152.441 0.846213 1.52266 0
M  V30 1473 C 149.573 1.75341 2.9235 0
M  V30 1474 H 150.766 2.67034 1.36502 0
M  V30 1475 H 148.319 1.40838 0.677812 0
M  V30 1476 H 149.054 0.809383 3.14037 0
M  V30 1477 H 148.839 2.57436 2.95752 0
M  V30 1478 H 150.329 1.92559 3.70555 0
M  V30 1479 N 150.766 -0.704594 1.40972 0
M  V30 1480 C 151.699 -1.82861 1.36518 0
M  V30 1481 C 152.677 -1.6091 0.23382 0
M  V30 1482 O 153.861 -1.83778 0.419271 0
M  V30 1483 C 150.988 -3.1939 1.12729 0
M  V30 1484 C 150.034 -3.60148 2.28463 0
M  V30 1485 S 150.867 -3.65994 3.90907 0
M  V30 1486 C 152.023 -5.05264 3.69403 0
M  V30 1487 H 152.256 -1.86361 2.3164 0
M  V30 1488 H 149.789 -0.872439 1.27389 0
M  V30 1489 H 151.747 -3.98211 0.996893 0
M  V30 1490 H 150.408 -3.1351 0.192427 0
M  V30 1491 H 149.601 -4.59309 2.07489 0
M  V30 1492 H 149.203 -2.88612 2.37863 0
M  V30 1493 H 151.495 -5.92504 3.28551 0
M  V30 1494 H 152.438 -5.31278 4.68134 0
M  V30 1495 H 152.846 -4.76377 3.02862 0
M  V30 1496 N 152.244 -1.26651 -0.937939 0
M  V30 1497 C 153.174 -1.10993 -2.05433 0
M  V30 1498 C 154.155 -0.0142161 -1.70094 0
M  V30 1499 O 155.34 -0.186837 -1.93299 0
M  V30 1500 C 152.47 -0.745561 -3.39203 0
M  V30 1501 C 151.424 -1.79337 -3.88616 0
M  V30 1502 C 150.75 -1.28324 -5.19073 0
M  V30 1503 C 152.05 -3.19553 -4.13138 0
M  V30 1504 H 153.744 -2.0438 -2.1879 0
M  V30 1505 H 151.29 -0.984041 -1.05131 0
M  V30 1506 H 153.243 -0.622888 -4.16771 0
M  V30 1507 H 151.967 0.22401 -3.25831 0
M  V30 1508 H 150.626 -1.90477 -3.13231 0
M  V30 1509 H 150.274 -0.303414 -5.02084 0
M  V30 1510 H 149.974 -1.98369 -5.53103 0
M  V30 1511 H 151.498 -1.1733 -5.99221 0
M  V30 1512 H 152.912 -3.11471 -4.81309 0
M  V30 1513 H 151.309 -3.87218 -4.58457 0
M  V30 1514 H 152.379 -3.65368 -3.18801 0
M  V30 1515 N 153.722 1.14298 -1.08507 0
M  V30 1516 C 154.632 2.23027 -0.727753 0
M  V30 1517 C 155.648 1.71952 0.26619 0
M  V30 1518 O 156.824 2.011 0.109882 0
M  V30 1519 C 153.889 3.46403 -0.143541 0
M  V30 1520 C 152.95 4.12413 -1.19223 0
M  V30 1521 C 152.183 5.29899 -0.635798 0
M  V30 1522 O 152.406 5.67796 0.544393 0
M  V30 1523 O 151.34 5.85717 -1.38634 0
M  V30 1524 H 155.166 2.55945 -1.63481 0
M  V30 1525 H 152.751 1.22248 -0.858817 0
M  V30 1526 H 154.633 4.21018 0.179404 0
M  V30 1527 H 153.308 3.15206 0.736659 0
M  V30 1528 H 152.215 3.39667 -1.56772 0
M  V30 1529 H 153.548 4.47718 -2.04474 0
M  V30 1530 N 155.201 0.870884 1.31352 0
M  V30 1531 C 156.164 0.332243 2.26779 0
M  V30 1532 C 157.164 -0.517302 1.52252 0
M  V30 1533 O 158.354 -0.326477 1.71113 0
M  V30 1534 C 155.486 -0.528066 3.36785 0
M  V30 1535 H 156.679 1.17469 2.75937 0
M  V30 1536 H 154.232 0.64655 1.423 0
M  V30 1537 H 154.967 -1.39167 2.92922 0
M  V30 1538 H 154.752 0.0802582 3.92018 0
M  V30 1539 H 156.242 -0.897179 4.07849 0
M  V30 1540 N 156.679 -1.44442 0.630414 0
M  V30 1541 C 157.627 -2.32437 -0.0871428 0
M  V30 1542 C 158.621 -1.47304 -0.836525 0
M  V30 1543 O 159.827 -1.63653 -0.749506 0
M  V30 1544 H 156.202 -0.750533 -0.0469495 0
M  V30 1545 H 158.173 -2.90709 0.673096 0
M  V30 1546 C 156.922 -3.31288 -1.05563 0
M  V30 1547 H 156.245 -3.96805 -0.488426 0
M  V30 1548 H 157.685 -3.9554 -1.52721 0
M  V30 1549 C 156.144 -2.6016 -2.14052 0
M  V30 1550 O 156.674 -2.39997 -3.22124 0
M  V30 1551 N 154.88 -2.19911 -1.89967 0
M  V30 1552 H 154.427 -2.36509 -1.02085 0
M  V30 1553 H 154.385 -1.72646 -2.62756 0
M  V30 1554 N 158.157 -0.370918 -1.53173 0
M  V30 1555 C 159.104 0.473035 -2.259 0
M  V30 1556 C 160.074 1.07311 -1.26781 0
M  V30 1557 O 161.259 1.1046 -1.55574 0
M  V30 1558 C 158.399 1.60405 -3.05556 0
M  V30 1559 C 157.512 1.02863 -4.19575 0
M  V30 1560 C 156.647 2.12918 -4.86661 0
M  V30 1561 C 155.686 1.52869 -5.92704 0
M  V30 1562 N 154.823 2.56779 -6.53459 0
M  V30 1563 H 159.663 -0.153649 -2.97604 0
M  V30 1564 H 157.2 -0.0875946 -1.46839 0
M  V30 1565 H 159.158 2.27034 -3.50016 0
M  V30 1566 H 157.788 2.20131 -2.36097 0
M  V30 1567 H 156.84 0.252465 -3.79561 0
M  V30 1568 H 158.152 0.549642 -4.95762 0
M  V30 1569 H 157.306 2.87356 -5.34333 0
M  V30 1570 H 156.045 2.6417 -4.09958 0
M  V30 1571 H 155.05 0.769479 -5.44389 0
M  V30 1572 H 156.275 1.02435 -6.7133 0
M  V30 1573 H 154.221 3.07235 -5.79606 0
M  V30 1574 H 154.138 2.13583 -7.25202 0
M  V30 1575 H 155.406 3.30903 -7.05779 0
M  V30 1576 N 159.635 1.57281 -0.100228 0
M  V30 1577 C 160.883 1.94153 0.561157 0
M  V30 1578 C 161.204 0.983157 1.68401 0
M  V30 1579 O 160.474 0.0361132 1.95867 0
M  V30 1580 H 159.054 0.716791 0.210283 0
M  V30 1581 H 161.716 1.94202 -0.164765 0
M  V30 1582 H 160.812 2.96709 0.968008 0
M  V30 1583 N 161.113 -0.173488 1.56642 0
M  V30 1584 C 162.361 -0.888706 1.81512 0
M  V30 1585 C 162.682 -1.82875 0.676872 0
M  V30 1586 O 161.952 -1.93536 -0.303414 0
M  V30 1587 H 160.532 -0.331164 0.669582 0
M  V30 1588 H 163.194 -0.173823 1.94123 0
M  V30 1589 H 162.29 -1.46691 2.75478 0
M  V30 1590 N 162.591 -1.51276 -0.441967 0
M  V30 1591 C 163.84 -1.6295 -1.18871 0
M  V30 1592 C 164.153 -0.349312 -1.92456 0
M  V30 1593 O 165.359 -0.345355 -2.69295 0
M  V30 1594 C 163.815 -2.87759 -2.16155 0
M  V30 1595 C 163.423 -4.22764 -1.48239 0
M  V30 1596 C 165.167 -3.08788 -2.91291 0
M  V30 1597 C 163.074 -5.38728 -2.4398 0
M  V30 1598 H 162.004 -0.606913 -0.447406 0
M  V30 1599 H 164.655 -1.77739 -0.456205 0
M  V30 1600 H 163.037 -2.66593 -2.92821 0
M  V30 1601 H 164.211 -4.54293 -0.771635 0
M  V30 1602 H 162.526 -4.07575 -0.852741 0
M  V30 1603 H 165.123 -3.92599 -3.63002 0
M  V30 1604 H 165.466 -2.21679 -3.5237 0
M  V30 1605 H 165.999 -3.30272 -2.21733 0
M  V30 1606 H 162.738 -6.28082 -1.87598 0
M  V30 1607 H 162.258 -5.1158 -3.13123 0
M  V30 1608 H 163.937 -5.70489 -3.05207 0
M  V30 1609 N 164.069 0.697108 -1.41344 0
M  V30 1610 C 165.294 1.49096 -1.44171 0
M  V30 1611 C 165.719 1.88038 -0.0481568 0
M  V30 1612 O 165.077 1.54525 0.948243 0
M  V30 1613 C 165.125 2.73088 -2.3549 0
M  V30 1614 O 164.229 3.70514 -1.81088 0
M  V30 1615 H 163.57 0.448801 -0.489361 0
M  V30 1616 H 166.1 0.856992 -1.85787 0
M  V30 1617 H 166.11 3.21413 -2.51312 0
M  V30 1618 H 164.785 2.44081 -3.36745 0
M  V30 1619 H 163.362 3.29441 -1.74708 0
M  V30 1620 N 165.547 1.27147 0.931209 0
M  V30 1621 C 166.824 1.0401 1.65654 0
M  V30 1622 C 167.204 -0.426297 2.06751 0
M  V30 1623 O 166.552 -1.40879 1.79904 0
M  V30 1624 C 166.762 1.99834 2.86125 0
M  V30 1625 C 168.11 2.29007 3.57549 0
M  V30 1626 O 169.134 1.97779 2.96246 0
M  V30 1627 O 167.993 2.82222 4.67989 0
M  V30 1628 H 165.087 0.396239 0.725895 0
M  V30 1629 H 167.633 1.38397 0.982056 0
M  V30 1630 H 166.405 2.98744 2.52721 0
M  V30 1631 H 166.028 1.65987 3.61295 0
M  V30 1632 N 167.025 -1.13721 1.09112 0
M  V30 1633 C 168.271 -1.85413 0.836283 0
M  V30 1634 C 168.626 -1.8175 -0.631249 0
M  V30 1635 O 167.919 -1.24238 -1.45861 0
M  V30 1636 C 168.113 -3.32861 1.30146 0
M  V30 1637 C 167.942 -3.50882 2.81268 0
M  V30 1638 C 166.712 -3.65312 3.49106 0
M  V30 1639 C 168.91 -3.47196 3.7942 0
M  V30 1640 N 166.892 -3.71563 4.88686 0
M  V30 1641 C 168.263 -3.59777 5.04936 0
M  V30 1642 C 170.318 -3.30577 3.72321 0
M  V30 1643 C 169.021 -3.57455 6.24194 0
M  V30 1644 C 171.047 -3.29562 4.91063 0
M  V30 1645 C 170.409 -3.42691 6.15421 0
M  V30 1646 H 166.508 -0.694812 0.358832 0
M  V30 1647 H 169.092 -1.36246 1.39087 0
M  V30 1648 H 167.263 -3.80602 0.774361 0
M  V30 1649 H 168.995 -3.92346 0.99229 0
M  V30 1650 H 165.75 -3.6685 2.9953 0
M  V30 1651 H 166.174 -3.78387 5.61384 0
M  V30 1652 H 170.816 -3.19332 2.77105 0
M  V30 1653 H 168.534 -3.67475 7.19714 0
M  V30 1654 H 172.12 -3.17905 4.87266 0
M  V30 1655 H 171 -3.41862 7.05762 0
M  V30 1656 N 168.503 -0.877838 -1.30888 0
M  V30 1657 C 169.751 -0.491723 -1.96027 0
M  V30 1658 C 170.072 0.960827 -1.69685 0
M  V30 1659 O 169.342 1.67462 -1.01654 0
M  V30 1660 H 167.922 -0.17885 -0.725273 0
M  V30 1661 H 170.584 -1.11935 -1.59551 0
M  V30 1662 H 169.68 -0.656016 -3.05128 0
M  V30 1663 N 169.982 1.44106 -0.638065 0
M  V30 1664 C 171.21 2.06336 -0.152615 0
M  V30 1665 C 171.625 1.47731 1.17563 0
M  V30 1666 O 170.982 0.602806 1.72257 0
M  V30 1667 C 171.033 3.61479 -0.0391491 0
M  V30 1668 O 170.754 4.17903 -1.31487 0
M  V30 1669 C 172.255 4.40757 0.474176 0
M  V30 1670 H 169.475 0.665862 -0.0828776 0
M  V30 1671 H 172.019 1.84862 -0.87443 0
M  V30 1672 H 170.174 3.82191 0.633142 0
M  V30 1673 H 170.588 5.11416 -1.16421 0
M  V30 1674 H 172.062 5.49707 0.502562 0
M  V30 1675 H 172.539 4.12697 1.50258 0
M  V30 1676 H 173.145 4.24979 -0.165102 0
M  V30 1677 N 171.46 0.379036 1.52974 0
M  V30 1678 C 172.709 -0.207612 2.00629 0
M  V30 1679 C 173.022 -1.48758 1.27006 0
M  V30 1680 O 174.228 -2.15365 1.65318 0
M  V30 1681 C 172.684 -0.42053 3.57435 0
M  V30 1682 C 172.292 0.845587 4.39948 0
M  V30 1683 C 174.036 -0.964102 4.13407 0
M  V30 1684 C 171.943 0.601513 5.88333 0
M  V30 1685 H 170.873 -0.0813591 0.749598 0
M  V30 1686 H 173.524 0.499853 1.76561 0
M  V30 1687 H 171.906 -1.18959 3.7771 0
M  V30 1688 H 173.08 1.61848 4.31442 0
M  V30 1689 H 171.395 1.31336 3.95145 0
M  V30 1690 H 173.992 -1.16225 5.21916 0
M  V30 1691 H 174.335 -1.93019 3.68849 0
M  V30 1692 H 174.868 -0.25487 3.96983 0
M  V30 1693 H 171.607 1.53831 6.37194 0
M  V30 1694 H 171.127 -0.132628 5.99653 0
M  V30 1695 H 172.806 0.232134 6.46583 0
M  V30 1696 N 172.938 -1.57226 0.108567 0
M  V30 1697 C 174.178 -1.96717 -0.555155 0
M  V30 1698 C 174.542 -0.990003 -1.64508 0
M  V30 1699 O 175.743 -1.2739 -2.36696 0
M  V30 1700 C 174.014 -3.40575 -1.08367 0
M  V30 1701 S 175.573 -4.02072 -1.75737 0
M  V30 1702 H 172.391 -0.687638 -0.180762 0
M  V30 1703 H 174.993 -1.94563 0.191172 0
M  V30 1704 H 173.697 -4.0945 -0.279092 0
M  V30 1705 H 173.228 -3.46356 -1.86551 0
M  V30 1706 H 175.243 -3.91977 -3.04251 0
M  V30 1707 N 174.416 0.165178 -1.56732 0
M  V30 1708 C 175.664 0.879068 -1.8198 0
M  V30 1709 C 175.985 1.82514 -0.686561 0
M  V30 1710 O 175.255 1.93694 0.293146 0
M  V30 1711 H 173.835 0.327608 -0.671329 0
M  V30 1712 H 176.497 0.163526 -1.94213 0
M  V30 1713 H 175.593 1.45228 -2.76252 0
M  V30 1714 N 175.894 1.51508 0.433938 0
M  V30 1715 C 176.857 1.72473 1.50949 0
M  V30 1716 C 177.857 0.594725 1.49398 0
M  V30 1717 O 179.047 0.862315 1.5136 0
M  V30 1718 C 176.179 1.78431 2.90474 0
M  V30 1719 H 177.372 2.68467 1.33662 0
M  V30 1720 H 174.925 1.41549 0.662836 0
M  V30 1721 H 175.66 0.842645 3.13161 0
M  V30 1722 H 175.445 2.60558 2.93005 0
M  V30 1723 H 176.935 1.96479 3.68491 0
M  V30 1724 N 177.372 -0.689602 1.41712 0
M  V30 1725 C 178.302 -1.81577 1.46806 0
M  V30 1726 C 179.283 -1.66945 0.326105 0
M  V30 1727 O 180.468 -1.86588 0.538377 0
M  V30 1728 C 177.598 -3.19762 1.35535 0
M  V30 1729 C 176.552 -3.49107 2.47605 0
M  V30 1730 C 175.878 -4.86711 2.21397 0
M  V30 1731 C 177.178 -3.47483 3.89939 0
M  V30 1732 H 178.872 -1.7757 2.41058 0
M  V30 1733 H 176.418 -0.852887 1.16025 0
M  V30 1734 H 178.371 -3.98263 1.3771 0
M  V30 1735 H 177.095 -3.24409 0.377708 0
M  V30 1736 H 175.754 -2.72959 2.44722 0
M  V30 1737 H 175.402 -4.8799 1.21961 0
M  V30 1738 H 175.102 -5.0731 2.96497 0
M  V30 1739 H 176.626 -5.67515 2.25297 0
M  V30 1740 H 178.04 -4.1598 3.94505 0
M  V30 1741 H 176.437 -3.79615 4.64771 0
M  V30 1742 H 177.507 -2.46341 4.17665 0
M  V30 1743 N 178.85 -1.27639 -0.924453 0
M  V30 1744 C 180.08 -1.16819 -1.70402 0
M  V30 1745 C 180.488 0.277191 -1.87158 0
M  V30 1746 O 179.831 1.20025 -1.39067 0
M  V30 1747 C 179.893 -1.78305 -3.12166 0
M  V30 1748 C 179.557 -3.27502 -3.18734 0
M  V30 1749 C 180.554 -4.2409 -3.00738 0
M  V30 1750 C 178.239 -3.68269 -3.4159 0
M  V30 1751 C 180.233 -5.59422 -3.05492 0
M  V30 1752 C 177.92 -5.0373 -3.45977 0
M  V30 1753 C 178.918 -5.99116 -3.27946 0
M  V30 1754 O 178.606 -7.32108 -3.32074 0
M  V30 1755 H 178.338 -0.406931 -0.539799 0
M  V30 1756 H 180.892 -1.69078 -1.16626 0
M  V30 1757 H 179.122 -1.20528 -3.67437 0
M  V30 1758 H 180.811 -1.62154 -3.72103 0
M  V30 1759 H 181.577 -3.93931 -2.82919 0
M  V30 1760 H 177.456 -2.94496 -3.54673 0
M  V30 1761 H 181 -6.33852 -2.91337 0
M  V30 1762 H 176.897 -5.33543 -3.63321 0
M  V30 1763 H 177.665 -7.40598 -3.48507 0
M  V30 1764 N 180.328 1.1314 -1.09713 0
M  V30 1765 C 181.576 1.84119 -0.833338 0
M  V30 1766 C 181.897 1.84097 0.642904 0
M  V30 1767 O 181.167 1.29881 1.46655 0
M  V30 1768 H 179.747 0.681766 -0.305293 0
M  V30 1769 H 182.409 1.37038 -1.38588 0
M  V30 1770 H 181.505 2.88543 -1.18951 0
M  V30 1771 N 181.806 0.884767 1.30421 0
M  V30 1772 C 182.769 0.356277 2.26414 0
M  V30 1773 C 183.769 -0.501124 1.52792 0
M  V30 1774 O 184.959 -0.30831 1.7145 0
M  V30 1775 C 182.091 -0.492316 3.37326 0
M  V30 1776 H 183.284 1.20389 2.74675 0
M  V30 1777 H 180.837 0.661607 1.41607 0
M  V30 1778 H 181.572 -1.36052 2.94381 0
M  V30 1779 H 181.357 0.121832 3.91911 0
M  V30 1780 H 182.847 -0.853871 4.08777 0
M  V30 1781 N 183.284 -1.43765 0.645699 0
M  V30 1782 C 184.247 -2.29163 -0.0409488 0
M  V30 1783 C 185.247 -1.41813 -0.757996 0
M  V30 1784 O 186.437 -1.63527 -0.600382 0
M  V30 1785 C 183.569 -3.23716 -1.06869 0
M  V30 1786 H 184.762 -2.91366 0.710345 0
M  V30 1787 H 182.315 -1.5092 0.406547 0
M  V30 1788 H 183.05 -2.66393 -1.84947 0
M  V30 1789 H 182.835 -3.88105 -0.558277 0
M  V30 1790 H 184.325 -3.87831 -1.54845 0
M  V30 1791 N 184.763 -0.387143 -1.52771 0
M  V30 1792 C 185.726 0.436939 -2.24997 0
M  V30 1793 C 186.726 0.991991 -1.26555 0
M  V30 1794 O 187.916 0.874335 -1.50669 0
M  V30 1795 C 185.048 1.61281 -3.00335 0
M  V30 1796 H 186.241 -0.195365 -2.99263 0
M  V30 1797 H 183.794 -0.139218 -1.55679 0
M  V30 1798 H 184.529 2.2826 -2.30364 0
M  V30 1799 H 184.314 1.22154 -3.72587 0
M  V30 1800 H 185.804 2.19629 -3.5518 0
M  V30 1801 N 186.241 1.57166 -0.116904 0
M  V30 1802 C 187.469 1.99473 0.549383 0
M  V30 1803 C 187.884 0.996541 1.60357 0
M  V30 1804 O 187.241 -0.0108731 1.82497 0
M  V30 1805 C 187.292 3.41788 1.17741 0
M  V30 1806 O 187.013 4.37788 0.165362 0
M  V30 1807 C 188.514 3.99216 1.92722 0
M  V30 1808 H 185.734 0.655009 0.145616 0
M  V30 1809 H 188.278 2.03494 -0.202625 0
M  V30 1810 H 186.433 3.38713 1.88021 0
M  V30 1811 H 186.847 5.20806 0.621403 0
M  V30 1812 H 188.321 5.00882 2.31995 0
M  V30 1813 H 188.798 3.3824 2.80161 0
M  V30 1814 H 189.404 4.0583 1.27209 0
M  V30 1815 N 187.719 -0.156864 1.56817 0
M  V30 1816 C 188.966 -0.871125 1.82805 0
M  V30 1817 C 189.294 -1.81611 0.696262 0
M  V30 1818 O 188.549 -1.93141 -0.315459 0
M  V30 1819 C 188.848 -1.68737 3.1506 0
M  V30 1820 C 188.514 -0.890045 4.42028 0
M  V30 1821 C 187.176 -0.670042 4.76512 0
M  V30 1822 C 189.528 -0.331769 5.20143 0
M  V30 1823 C 186.856 0.119104 5.86579 0
M  V30 1824 C 189.208 0.444365 6.31037 0
M  V30 1825 C 187.872 0.675035 6.64078 0
M  V30 1826 H 187.142 -0.318767 0.668931 0
M  V30 1827 H 189.789 -0.135274 1.91022 0
M  V30 1828 H 188.094 -2.49304 3.0225 0
M  V30 1829 H 189.791 -2.24331 3.3238 0
M  V30 1830 H 186.381 -1.07157 4.14988 0
M  V30 1831 H 190.565 -0.489043 4.93885 0
M  V30 1832 H 185.821 0.307417 6.10627 0
M  V30 1833 H 189.995 0.884139 6.90765 0
M  V30 1834 H 187.622 1.28839 7.49203 0
M  V30 1835 N 189.197 -1.51736 -0.425897 0
M  V30 1836 C 190.422 -1.69082 -1.20108 0
M  V30 1837 C 190.847 -0.392398 -1.83962 0
M  V30 1838 O 190.205 0.64858 -1.69302 0
M  V30 1839 C 190.253 -2.81604 -2.25237 0
M  V30 1840 O 189.357 -2.46004 -3.30992 0
M  V30 1841 H 188.698 -0.563408 -0.35138 0
M  V30 1842 H 191.228 -1.98358 -0.501512 0
M  V30 1843 H 191.238 -3.06025 -2.69838 0
M  V30 1844 H 189.913 -3.75817 -1.78142 0
M  V30 1845 H 188.49 -2.32195 -2.91787 0
M  V30 1846 N 190.675 0.682077 -1.42076 0
M  V30 1847 C 191.605 1.80796 -1.47767 0
M  V30 1848 C 192.586 1.6677 -0.334954 0
M  V30 1849 O 193.771 1.863 -0.548264 0
M  V30 1850 C 190.901 3.19038 -1.37229 0
M  V30 1851 C 189.855 3.47789 -2.49453 0
M  V30 1852 C 189.181 4.8553 -2.23975 0
M  V30 1853 C 190.481 3.45411 -3.91776 0
M  V30 1854 H 192.175 1.7629 -2.41997 0
M  V30 1855 H 189.721 0.846721 -1.16476 0
M  V30 1856 H 191.674 3.97528 -1.39821 0
M  V30 1857 H 190.398 3.24204 -0.394907 0
M  V30 1858 H 189.057 2.71657 -2.46166 0
M  V30 1859 H 188.705 4.87337 -1.24547 0
M  V30 1860 H 188.405 5.0573 -2.99184 0
M  V30 1861 H 189.929 5.66312 -2.28304 0
M  V30 1862 H 191.343 4.13882 -3.96705 0
M  V30 1863 H 189.74 3.77145 -4.66778 0
M  V30 1864 H 190.81 2.44122 -4.18966 0
M  V30 1865 N 192.153 1.28127 0.917671 0
M  V30 1866 C 193.4 1.15052 1.66641 0
M  V30 1867 C 193.728 -0.301677 1.92146 0
M  V30 1868 O 192.983 -1.23622 1.51711 0
M  V30 1869 C 193.282 1.89018 3.03327 0
M  V30 1870 C 192.948 3.38832 2.97496 0
M  V30 1871 C 191.61 3.79693 2.95613 0
M  V30 1872 C 193.962 4.34378 2.88036 0
M  V30 1873 C 191.29 5.14447 2.82066 0
M  V30 1874 C 193.642 5.69201 2.7603 0
M  V30 1875 C 192.306 6.09343 2.72502 0
M  V30 1876 H 191.576 0.421006 0.609783 0
M  V30 1877 H 194.223 1.58855 1.06945 0
M  V30 1878 H 192.528 1.37752 3.66785 0
M  V30 1879 H 194.225 1.76321 3.60156 0
M  V30 1880 H 190.815 3.06342 2.99754 0
M  V30 1881 H 194.999 4.03775 2.88581 0
M  V30 1882 H 190.255 5.44681 2.77728 0
M  V30 1883 H 194.429 6.42901 2.67678 0
M  V30 1884 H 192.056 7.13712 2.61762 0
M  V30 1885 N 193.631 -1.12557 1.10312 0
M  V30 1886 C 194.877 -1.84515 0.855901 0
M  V30 1887 C 195.232 -1.82409 -0.611936 0
M  V30 1888 O 194.525 -1.25778 -1.44535 0
M  V30 1889 C 194.719 -3.31462 1.33669 0
M  V30 1890 C 194.548 -3.47879 2.84974 0
M  V30 1891 C 193.318 -3.61589 3.52961 0
M  V30 1892 C 195.516 -3.43152 3.83081 0
M  V30 1893 N 193.498 -3.66359 4.926 0
M  V30 1894 C 194.869 -3.54401 5.08724 0
M  V30 1895 C 196.924 -3.2661 3.75807 0
M  V30 1896 C 195.627 -3.50815 6.2795 0
M  V30 1897 C 197.653 -3.24335 4.94531 0
M  V30 1898 C 197.015 -3.36144 6.19021 0
M  V30 1899 H 193.114 -0.690967 0.366182 0
M  V30 1900 H 195.698 -1.34763 1.40524 0
M  V30 1901 H 193.869 -3.7976 0.814686 0
M  V30 1902 H 195.601 -3.91272 1.03385 0
M  V30 1903 H 192.356 -3.63652 3.03404 0
M  V30 1904 H 192.78 -3.72411 5.65366 0
M  V30 1905 H 197.422 -3.16375 2.80476 0
M  V30 1906 H 195.14 -3.5982 7.23571 0
M  V30 1907 H 198.726 -3.12719 4.9061 0
M  V30 1908 H 197.606 -3.34357 7.09348 0
M  V30 1909 N 195.109 -0.891671 -1.2995 0
M  V30 1910 C 196.357 -0.512486 -1.95494 0
M  V30 1911 C 196.678 0.942776 -1.70695 0
M  V30 1912 O 195.948 1.66374 -1.03424 0
M  V30 1913 H 194.528 -0.186533 -0.723336 0
M  V30 1914 H 197.19 -1.13621 -1.58355 0
M  V30 1915 H 196.286 -0.688342 -3.04415 0
M  V30 1916 N 196.587 1.43421 -0.653314 0
M  V30 1917 C 198.003 1.56341 -0.320886 0
M  V30 1918 C 198.203 1.63696 1.17499 0
M  V30 1919 O 197.259 1.59208 1.95982 0
M  V30 1920 C 198.572 2.82424 -1.03233 0
M  V30 1921 C 200.12 2.96168 -1.01259 0
M  V30 1922 C 200.595 4.25084 -1.70492 0
M  V30 1923 N 202.086 4.31948 -1.67257 0
M  V30 1924 C 202.821 5.30466 -2.17701 0
M  V30 1925 N 202.317 6.35261 -2.76434 0
M  V30 1926 N 204.11 5.2212 -2.082 0
M  V30 1927 H 196.261 1.3689 -1.62403 0
M  V30 1928 H 198.524 0.657455 -0.682977 0
M  V30 1929 H 198.23 2.83053 -2.08744 0
M  V30 1930 H 198.104 3.72653 -0.583948 0
M  V30 1931 H 200.491 2.9508 0.0341235 0
M  V30 1932 H 200.572 2.07229 -1.49966 0
M  V30 1933 H 200.216 4.26932 -2.7512 0
M  V30 1934 H 200.146 5.1292 -1.19251 0
M  V30 1935 H 202.637 3.56838 -1.24398 0
M  V30 1936 H 202.95 7.06754 -3.12601 0
M  V30 1937 H 201.295 6.35884 -2.80495 0
M  V30 1938 H 204.486 4.39166 -1.62021 0
M  V30 1939 H 204.659 5.98739 -2.47822 0
M  V30 1940 N 198.065 0.39524 1.52563 0
M  V30 1941 C 199.012 -0.437036 2.26624 0
M  V30 1942 C 199.982 -1.05281 1.28472 0
M  V30 1943 O 201.167 -1.07971 1.57311 0
M  V30 1944 C 198.307 -1.55524 3.08069 0
M  V30 1945 C 197.42 -0.961745 4.21158 0
M  V30 1946 C 196.555 -2.05149 4.89987 0
M  V30 1947 C 195.594 -1.4342 5.95061 0
M  V30 1948 N 194.731 -2.46351 6.57462 0
M  V30 1949 H 199.571 0.200976 2.97322 0
M  V30 1950 H 197.108 0.110944 1.46681 0
M  V30 1951 H 199.066 -2.21437 3.53584 0
M  V30 1952 H 197.696 -2.16348 2.3957 0
M  V30 1953 H 196.748 -0.192048 3.79915 0
M  V30 1954 H 198.06 -0.470701 4.96574 0
M  V30 1955 H 197.214 -2.78819 5.38837 0
M  V30 1956 H 195.953 -2.57615 4.14109 0
M  V30 1957 H 194.958 -0.682774 5.45544 0
M  V30 1958 H 196.183 -0.917416 6.72875 0
M  V30 1959 H 194.129 -2.97975 5.8442 0
M  V30 1960 H 194.046 -2.02019 7.28508 0
M  V30 1961 H 195.314 -3.19633 7.10954 0
M  V30 1962 N 199.544 -1.57102 0.125237 0
M  V30 1963 C 200.454 -2.19191 -0.8362 0
M  V30 1964 C 201.47 -1.16985 -1.28805 0
M  V30 1965 O 202.646 -1.49479 -1.34974 0
M  V30 1966 C 199.711 -2.78407 -2.06617 0
M  V30 1967 C 198.772 -3.9567 -1.66565 0
M  V30 1968 C 198.005 -4.52052 -2.83698 0
M  V30 1969 O 198.228 -4.07326 -3.99302 0
M  V30 1970 O 197.162 -5.42645 -2.60423 0
M  V30 1971 H 200.988 -3.01816 -0.337776 0
M  V30 1972 H 198.573 -1.4906 -0.100695 0
M  V30 1973 H 200.455 -3.16129 -2.7864 0
M  V30 1974 H 199.13 -1.9881 -2.55453 0
M  V30 1975 H 198.037 -3.62705 -0.916296 0
M  V30 1976 H 199.37 -4.76722 -1.22464 0
M  V30 1977 N 201.022 0.148545 -1.56898 0
M  V30 1978 C 202.268 0.862694 -1.83536 0
M  V30 1979 C 202.601 1.80889 -0.706604 0
M  V30 1980 O 201.876 1.92328 0.289885 0
M  V30 1981 C 202.159 1.63853 -3.20662 0
M  V30 1982 C 202.012 0.713925 -4.44098 0
M  V30 1983 C 203.331 2.60133 -3.54991 0
M  V30 1984 H 200.45 0.312179 -0.667618 0
M  V30 1985 H 203.092 0.127953 -1.89569 0
M  V30 1986 H 201.242 2.26489 -3.1565 0
M  V30 1987 H 202.914 0.098686 -4.61194 0
M  V30 1988 H 201.157 0.0234019 -4.33794 0
M  V30 1989 H 201.828 1.29278 -5.36648 0
M  V30 1990 H 204.304 2.07616 -3.60603 0
M  V30 1991 H 203.18 3.11468 -4.51972 0
M  V30 1992 H 203.441 3.41417 -2.80868 0
M  V30 1993 N 202.5 1.5196 0.417844 0
M  V30 1994 C 203.45 1.7106 1.5074 0
M  V30 1995 C 204.434 0.564487 1.50673 0
M  V30 1996 O 205.626 0.821206 1.56797 0
M  V30 1997 C 202.755 1.85677 2.88754 0
M  V30 1998 C 201.841 3.06133 2.93502 0
M  V30 1999 N 202.232 4.28987 2.67962 0
M  V30 2000 C 200.53 3.05787 3.24669 0
M  V30 2001 C 201.231 5.10395 2.79055 0
M  V30 2002 N 200.207 4.45455 3.11561 0
M  V30 2003 H 204.009 2.63696 1.29775 0
M  V30 2004 H 201.523 1.49873 0.625436 0
M  V30 2005 H 203.52 1.97475 3.67164 0
M  V30 2006 H 202.18 0.942348 3.10725 0
M  V30 2007 H 203.191 4.57607 2.4252 0
M  V30 2008 H 199.868 2.2405 3.52289 0
M  V30 2009 H 201.258 6.18247 2.63097 0
M  V30 2010 N 203.978 -0.674533 1.42435 0
M  V30 2011 C 205.389 -1.25514 1.38214 0
M  V30 2012 C 205.74 -1.96055 0.0755464 0
M  V30 2013 O 204.865 -2.00028 -0.8257 0
M  V30 2014 C 205.46 -2.28269 2.50357 0
M  V30 2015 C 204.019 -2.81856 2.49467 0
M  V30 2016 C 203.166 -1.56182 2.29134 0
M  V30 2017 H 206.117 -0.467902 1.51646 0
M  V30 2018 H 206.138 -3.10009 2.20624 0
M  V30 2019 H 205.65 -1.769 3.45439 0
M  V30 2020 H 203.751 -3.37346 1.58204 0
M  V30 2021 H 203.864 -3.30854 3.46515 0
M  V30 2022 H 202.228 -1.82761 1.774 0
M  V30 2023 H 203.011 -1.06778 3.26272 0
M  V30 2024 N 205.456 -1.28612 -0.910864 0
M  V30 2025 C 206.389 -1.07109 -2.01502 0
M  V30 2026 C 207.367 0.013706 -1.62594 0
M  V30 2027 O 208.551 -0.134796 -1.88017 0
M  V30 2028 C 205.678 -0.628255 -3.32822 0
M  V30 2029 C 204.724 -1.71012 -3.90714 0
M  V30 2030 S 205.557 -3.30676 -4.21205 0
M  V30 2031 C 206.713 -2.88234 -5.55583 0
M  V30 2032 H 206.946 -2.00591 -2.19432 0
M  V30 2033 H 204.479 -1.12633 -1.05609 0
M  V30 2034 H 206.437 -0.37946 -4.08742 0
M  V30 2035 H 205.098 0.28678 -3.12788 0
M  V30 2036 H 204.291 -1.35195 -4.85529 0
M  V30 2037 H 203.893 -1.91186 -3.21441 0
M  V30 2038 H 206.185 -2.34584 -6.35591 0
M  V30 2039 H 207.128 -3.81857 -5.96314 0
M  V30 2040 H 207.536 -2.26862 -5.16908 0
M  V30 2041 N 206.934 1.1197 -1.10907 0
M  V30 2042 C 208.18 1.8386 -0.855773 0
M  V30 2043 C 208.513 1.84134 0.617103 0
M  V30 2044 O 207.788 1.29041 1.45529 0
M  V30 2045 C 208.071 3.31305 -1.411 0
M  V30 2046 C 207.924 3.39456 -2.9511 0
M  V30 2047 C 209.243 4.2721 -1.05736 0
M  V30 2048 H 206.362 0.667545 -0.312334 0
M  V30 2049 H 209.004 1.31331 -1.37303 0
M  V30 2050 H 207.154 3.76169 -0.97105 0
M  V30 2051 H 208.826 3.03191 -3.47668 0
M  V30 2052 H 207.069 2.79849 -3.31462 0
M  V30 2053 H 207.74 4.43209 -3.29044 0
M  V30 2054 H 210.216 3.90497 -1.43706 0
M  V30 2055 H 209.092 5.28775 -1.47269 0
M  V30 2056 H 209.353 4.42088 0.0325958 0
M  V30 2057 N 208.412 0.89855 1.29475 0
M  V30 2058 C 209.36 0.365253 2.29714 0
M  V30 2059 C 210.354 -0.534993 1.6073 0
M  V30 2060 O 211.56 -0.417921 1.75081 0
M  V30 2061 H 207.935 0.0994853 0.74539 0
M  V30 2062 H 209.906 1.22406 2.72138 0
M  V30 2063 C 208.655 -0.393159 3.4547 0
M  V30 2064 H 207.978 0.290332 3.98744 0
M  V30 2065 H 209.418 -0.731189 4.17648 0
M  V30 2066 C 207.877 -1.59539 2.9673 0
M  V30 2067 O 208.407 -2.69469 2.97908 0
M  V30 2068 N 206.613 -1.43716 2.52575 0
M  V30 2069 H 206.16 -0.542828 2.51816 0
M  V30 2070 H 206.118 -2.24288 2.20323 0
M  V30 2071 N 209.89 -1.43072 0.660911 0
M  V30 2072 C 210.8 -2.34585 -0.0264163 0
M  V30 2073 C 211.816 -1.54316 -0.803898 0
M  V30 2074 O 212.992 -1.86939 -0.749391 0
M  V30 2075 C 210.057 -3.32689 -0.975639 0
M  V30 2076 C 209.118 -4.2886 -0.194236 0
M  V30 2077 C 208.351 -5.22278 -1.09825 0
M  V30 2078 O 208.574 -5.20299 -2.33763 0
M  V30 2079 O 207.508 -5.99228 -0.566513 0
M  V30 2080 H 211.334 -2.94869 0.727034 0
M  V30 2081 H 208.919 -1.43342 0.42111 0
M  V30 2082 H 210.801 -3.92995 -1.52094 0
M  V30 2083 H 209.476 -2.74898 -1.70918 0
M  V30 2084 H 208.383 -3.72011 0.394835 0
M  V30 2085 H 209.716 -4.89655 0.499899 0
M  V30 2086 N 211.368 -0.403325 -1.52352 0
M  V30 2087 C 212.298 0.416205 -2.29761 0
M  V30 2088 C 213.279 1.05123 -1.33728 0
M  V30 2089 O 214.464 1.06134 -1.62632 0
M  V30 2090 C 211.594 1.53624 -3.11475 0
M  V30 2091 C 210.548 1.02653 -4.15507 0
M  V30 2092 C 209.874 2.23971 -4.85532 0
M  V30 2093 C 211.174 0.08463 -5.22231 0
M  V30 2094 H 212.868 -0.229701 -2.98518 0
M  V30 2095 H 210.414 -0.111913 -1.43564 0
M  V30 2096 H 212.367 2.1165 -3.64393 0
M  V30 2097 H 211.091 2.20994 -2.40477 0
M  V30 2098 H 209.75 0.46871 -3.63591 0
M  V30 2099 H 209.398 2.89883 -4.11068 0
M  V30 2100 H 209.098 1.90521 -5.55856 0
M  V30 2101 H 210.622 2.82614 -5.41259 0
M  V30 2102 H 212.036 0.573509 -5.70424 0
M  V30 2103 H 210.433 -0.160783 -5.99885 0
M  V30 2104 H 211.503 -0.86237 -4.7717 0
M  V30 2105 N 212.846 1.57033 -0.133567 0
M  V30 2106 C 214.093 1.95686 0.520877 0
M  V30 2107 C 214.421 1.0177 1.6575 0
M  V30 2108 O 213.676 0.0443195 1.9565 0
M  V30 2109 C 213.975 3.40674 1.08057 0
M  V30 2110 C 213.641 4.50855 0.0637899 0
M  V30 2111 C 212.303 4.80716 -0.215757 0
M  V30 2112 C 214.655 5.17398 -0.62835 0
M  V30 2113 C 211.983 5.74433 -1.19348 0
M  V30 2114 C 214.335 6.12167 -1.5948 0
M  V30 2115 C 212.999 6.40414 -1.88218 0
M  V30 2116 H 212.269 0.716067 0.190602 0
M  V30 2117 H 214.916 1.9026 -0.217556 0
M  V30 2118 H 213.221 3.42865 1.89606 0
M  V30 2119 H 214.918 3.67902 1.59529 0
M  V30 2120 H 211.508 4.27605 0.291855 0
M  V30 2121 H 215.692 4.94472 -0.425562 0
M  V30 2122 H 210.948 5.94616 -1.42272 0
M  V30 2123 H 215.122 6.6281 -2.13671 0
M  V30 2124 H 212.749 7.12838 -2.64133 0
M  V30 2125 N 214.325 -0.140222 1.56975 0
M  V30 2126 C 215.741 -0.493088 1.51792 0
M  V30 2127 C 215.941 -1.83013 0.843116 0
M  V30 2128 O 214.997 -2.49041 0.416493 0
M  V30 2129 C 216.31 -0.497144 2.96562 0
M  V30 2130 C 217.858 -0.582186 3.07538 0
M  V30 2131 C 218.333 -0.616838 4.53827 0
M  V30 2132 N 219.824 -0.678873 4.58198 0
M  V30 2133 C 220.559 -0.726782 5.68775 0
M  V30 2134 N 220.055 -0.733623 6.88905 0
M  V30 2135 N 221.848 -0.768179 5.56826 0
M  V30 2136 H 213.999 0.736108 1.99237 0
M  V30 2137 H 216.262 0.269182 0.90898 0
M  V30 2138 H 215.968 0.417217 3.49217 0
M  V30 2139 H 215.842 -1.33263 3.52875 0
M  V30 2140 H 218.229 -1.48697 2.54899 0
M  V30 2141 H 218.31 0.280581 2.54257 0
M  V30 2142 H 217.954 0.283812 5.07106 0
M  V30 2143 H 217.884 -1.49619 5.04898 0
M  V30 2144 H 220.375 -0.68061 3.7172 0
M  V30 2145 H 220.688 -0.772215 7.68932 0
M  V30 2146 H 219.033 -0.701389 6.91452 0
M  V30 2147 H 222.224 -0.760051 4.61888 0
M  V30 2148 H 222.397 -0.80205 6.43017 0
M  V30 2149 N 215.803 -1.52179 -0.40978 0
M  V30 2150 C 217.049 -1.67408 -1.15525 0
M  V30 2151 C 217.404 -0.398746 -1.88223 0
M  V30 2152 O 216.697 0.60678 -1.81738 0
M  V30 2153 C 216.891 -2.83428 -2.17723 0
M  V30 2154 C 216.72 -4.22121 -1.55061 0
M  V30 2155 C 215.49 -4.87657 -1.3236 0
M  V30 2156 C 217.688 -5.04248 -1.01185 0
M  V30 2157 N 215.67 -6.10387 -0.655834 0
M  V30 2158 C 217.041 -6.18209 -0.470963 0
M  V30 2159 C 219.096 -4.89583 -0.906252 0
M  V30 2160 C 217.799 -7.1911 0.165172 0
M  V30 2161 C 219.825 -5.90718 -0.28397 0
M  V30 2162 C 219.187 -7.03969 0.246243 0
M  V30 2163 H 215.286 -0.666251 -0.409431 0
M  V30 2164 H 217.87 -1.89482 -0.447729 0
M  V30 2165 H 216.041 -2.6297 -2.85834 0
M  V30 2166 H 217.773 -2.87697 -2.84627 0
M  V30 2167 H 214.528 -4.46007 -1.59294 0
M  V30 2168 H 214.952 -6.76153 -0.338596 0
M  V30 2169 H 219.594 -4.02253 -1.302 0
M  V30 2170 H 217.312 -8.06066 0.572986 0
M  V30 2171 H 220.898 -5.81443 -0.203792 0
M  V30 2172 H 219.778 -7.80886 0.720173 0
M  V30 2173 N 217.281 0.66697 -1.42791 0
M  V30 2174 C 218.511 1.45294 -1.46878 0
M  V30 2175 C 218.919 1.89027 -0.0809861 0
M  V30 2176 O 218.262 1.59219 0.916246 0
M  V30 2177 C 218.324 2.72908 -2.34012 0
M  V30 2178 C 217.988 2.51203 -3.81767 0
M  V30 2179 C 218.985 2.15302 -4.73224 0
M  V30 2180 C 216.67 2.65954 -4.26115 0
M  V30 2181 C 218.664 1.94431 -6.07022 0
M  V30 2182 C 216.351 2.44699 -5.59969 0
M  V30 2183 C 217.349 2.08992 -6.5024 0
M  V30 2184 O 217.037 1.87948 -7.81621 0
M  V30 2185 H 216.769 0.453306 -0.501487 0
M  V30 2186 H 219.323 0.826232 -1.88049 0
M  V30 2187 H 217.553 3.38089 -1.87703 0
M  V30 2188 H 219.242 3.34816 -2.29462 0
M  V30 2189 H 220.008 2.03495 -4.40244 0
M  V30 2190 H 215.887 2.92724 -3.56137 0
M  V30 2191 H 219.431 1.66484 -6.77443 0
M  V30 2192 H 215.328 2.56105 -5.9252 0
M  V30 2193 H 216.096 2.02483 -7.93059 0
M  V30 2194 N 218.759 1.29093 0.90403 0
M  V30 2195 C 219.669 1.15727 2.0407 0
M  V30 2196 C 220.685 0.0815308 1.73809 0
M  V30 2197 O 221.861 0.292749 1.99261 0
M  V30 2198 C 218.926 0.830424 3.36608 0
M  V30 2199 C 217.987 1.98955 3.80415 0
M  V30 2200 C 217.22 1.6782 5.06628 0
M  V30 2201 O 217.443 0.597105 5.67266 0
M  V30 2202 O 216.377 2.52486 5.46383 0
M  V30 2203 H 220.203 2.11171 2.18267 0
M  V30 2204 H 217.788 1.08504 1.027 0
M  V30 2205 H 219.67 0.662521 4.16159 0
M  V30 2206 H 218.345 -0.0942678 3.23563 0
M  V30 2207 H 217.252 2.21267 3.01648 0
M  V30 2208 H 218.585 2.89529 3.98037 0
M  V30 2209 N 220.237 -1.11381 1.11499 0
M  V30 2210 C 221.483 -1.83403 0.865512 0
M  V30 2211 C 221.816 -1.84459 -0.607329 0
M  V30 2212 O 221.091 -1.29811 -1.44842 0
M  V30 2213 C 221.374 -3.30552 1.42855 0
M  V30 2214 C 221.227 -3.37886 2.96906 0
M  V30 2215 C 222.546 -4.26643 1.08 0
M  V30 2216 H 219.665 -0.665879 0.31587 0
M  V30 2217 H 222.307 -1.30601 1.37998 0
M  V30 2218 H 220.457 -3.75648 0.990985 0
M  V30 2219 H 222.129 -3.01343 3.49271 0
M  V30 2220 H 220.372 -2.78088 3.32941 0
M  V30 2221 H 221.043 -4.41458 3.31389 0
M  V30 2222 H 223.519 -3.89729 1.45775 0
M  V30 2223 H 222.395 -5.27986 1.50072 0
M  V30 2224 H 222.656 -4.42099 -0.00915037 0
M  V30 2225 N 221.715 -0.905404 -1.28997 0
M  V30 2226 C 222.943 -0.549846 -1.9946 0
M  V30 2227 C 223.358 0.866834 -1.67724 0
M  V30 2228 O 222.715 1.57298 -0.925404 0
M  V30 2229 C 222.766 -0.739387 -3.53858 0
M  V30 2230 O 222.487 -2.10031 -3.84472 0
M  V30 2231 C 223.988 -0.389541 -4.41585 0
M  V30 2232 H 221.208 -0.210429 -0.637151 0
M  V30 2233 H 223.752 -1.21632 -1.64396 0
M  V30 2234 H 221.907 -0.120023 -3.87214 0
M  V30 2235 H 222.321 -2.13385 -4.79132 0
M  V30 2236 H 223.795 -0.572972 -5.49018 0
M  V30 2237 H 224.272 0.673756 -4.34001 0
M  V30 2238 H 224.878 -0.986089 -4.1371 0
M  V30 2239 N 223.193 1.4272 -0.668489 0
M  V30 2240 C 224.14 2.30796 0.0137489 0
M  V30 2241 C 225.11 1.4561 0.799177 0
M  V30 2242 O 226.295 1.74453 0.772702 0
M  V30 2243 C 223.435 3.31377 0.963507 0
M  V30 2244 C 222.548 4.31655 0.172569 0
M  V30 2245 C 221.683 5.19312 1.1175 0
M  V30 2246 C 220.722 6.11274 0.317886 0
M  V30 2247 N 219.859 6.91504 1.2152 0
M  V30 2248 H 224.699 2.88585 -0.743161 0
M  V30 2249 H 222.236 1.42154 -0.378226 0
M  V30 2250 H 224.194 3.88214 1.52792 0
M  V30 2251 H 222.824 2.75202 1.68712 0
M  V30 2252 H 221.876 3.76988 -0.508374 0
M  V30 2253 H 223.188 4.96779 -0.448527 0
M  V30 2254 H 222.342 5.80851 1.75206 0
M  V30 2255 H 221.081 4.5435 1.77249 0
M  V30 2256 H 220.086 5.48809 -0.329918 0
M  V30 2257 H 221.311 6.78283 -0.332917 0
M  V30 2258 H 219.257 6.29176 1.85671 0
M  V30 2259 H 219.174 7.53209 0.649036 0
M  V30 2260 H 220.442 7.57535 1.83742 0
M  V30 2261 N 224.671 0.411399 1.52136 0
M  V30 2262 C 225.601 -0.404015 2.29978 0
M  V30 2263 C 226.582 -1.04412 1.34284 0
M  V30 2264 O 227.767 -1.0527 1.63192 0
M  V30 2265 C 224.897 -1.5197 3.12286 0
M  V30 2266 C 223.851 -1.00448 4.16046 0
M  V30 2267 C 223.177 -2.21393 4.86712 0
M  V30 2268 C 224.477 -0.0569336 5.22269 0
M  V30 2269 H 226.171 0.245529 2.98392 0
M  V30 2270 H 223.717 0.119525 1.43503 0
M  V30 2271 H 225.67 -2.09715 3.6551 0
M  V30 2272 H 224.394 -2.19716 2.41646 0
M  V30 2273 H 223.053 -0.449421 3.63835 0
M  V30 2274 H 222.701 -2.87699 4.12599 0
M  V30 2275 H 222.401 -1.87571 5.56858 0
M  V30 2276 H 223.925 -2.7974 5.4275 0
M  V30 2277 H 225.339 -0.54325 5.7072 0
M  V30 2278 H 223.736 0.192594 5.99791 0
M  V30 2279 H 224.806 0.887663 4.76706 0
M  V30 2280 N 226.149 -1.5696 0.141893 0
M  V30 2281 C 227.56 -1.82797 -0.379776 0
M  V30 2282 C 227.911 -1.06033 -1.6508 0
M  V30 2283 O 227.036 -0.304011 -2.14254 0
M  V30 2284 C 227.631 -3.31578 -0.695802 0
M  V30 2285 C 226.19 -3.58014 -1.16201 0
M  V30 2286 C 225.337 -2.76699 -0.182455 0
M  V30 2287 H 228.288 -1.54406 0.366675 0
M  V30 2288 H 228.309 -3.47454 -1.55099 0
M  V30 2289 H 227.821 -3.87421 0.229449 0
M  V30 2290 H 225.922 -3.07553 -2.10338 0
M  V30 2291 H 226.035 -4.66501 -1.09151 0
M  V30 2292 H 224.399 -2.45618 -0.674072 0
M  V30 2293 H 225.182 -3.35311 0.736297 0
M  V30 2294 N 227.627 0.131896 -1.57047 0
M  V30 2295 C 228.876 0.84044 -1.83356 0
M  V30 2296 C 229.189 1.81646 -0.725535 0
M  V30 2297 O 230.395 2.57025 -0.874659 0
M  V30 2298 C 228.851 1.54528 -3.25037 0
M  V30 2299 C 228.459 0.610902 -4.43815 0
M  V30 2300 C 230.203 2.23972 -3.60606 0
M  V30 2301 C 228.11 1.31823 -5.76521 0
M  V30 2302 H 227.04 0.317599 -0.683847 0
M  V30 2303 H 229.691 0.0931561 -1.83263 0
M  V30 2304 H 228.073 2.33873 -3.19561 0
M  V30 2305 H 229.247 -0.148407 -4.60561 0
M  V30 2306 H 227.562 0.0241016 -4.16393 0
M  V30 2307 H 230.159 2.77558 -4.57018 0
M  V30 2308 H 230.502 3.01173 -2.87403 0
M  V30 2309 H 231.035 1.51529 -3.6781 0
M  V30 2310 H 227.774 0.587771 -6.52859 0
M  V30 2311 H 227.294 2.04987 -5.63685 0
M  V30 2312 H 228.973 1.855 -6.19838 0
M  V30 2313 N 229.106 1.52395 0.401703 0
M  V30 2314 C 230.353 1.66817 1.14796 0
M  V30 2315 C 230.681 0.401772 1.90305 0
M  V30 2316 O 229.936 -0.615487 1.85769 0
M  V30 2317 C 230.235 2.84578 2.16217 0
M  V30 2318 C 229.901 4.22513 1.5746 0
M  V30 2319 C 228.563 4.60029 1.41161 0
M  V30 2320 C 230.915 5.0844 1.14622 0
M  V30 2321 C 228.243 5.81144 0.80552 0
M  V30 2322 C 230.595 6.30167 0.55428 0
M  V30 2323 C 229.259 6.66426 0.378482 0
M  V30 2324 H 228.529 0.610428 0.420069 0
M  V30 2325 H 231.176 1.86512 0.434212 0
M  V30 2326 H 229.481 2.59248 2.93764 0
M  V30 2327 H 231.178 2.92933 2.73845 0
M  V30 2328 H 227.768 3.92953 1.71132 0
M  V30 2329 H 231.952 4.80034 1.26021 0
M  V30 2330 H 227.208 6.07855 0.657399 0
M  V30 2331 H 231.382 6.96071 0.213983 0
M  V30 2332 H 229.009 7.60143 -0.0932606 0
M  V30 2333 N 230.584 -0.659388 1.43143 0
M  V30 2334 C 231.532 -1.79374 1.4808 0
M  V30 2335 C 232.526 -1.65639 0.354988 0
M  V30 2336 O 233.732 -1.7206 0.528704 0
M  V30 2337 H 230.107 -0.591705 0.4641 0
M  V30 2338 H 232.078 -1.72329 2.43609 0
M  V30 2339 C 230.827 -3.17606 1.41499 0
M  V30 2340 H 230.15 -3.28809 2.27431 0
M  V30 2341 H 231.59 -3.96951 1.49015 0
M  V30 2342 C 230.049 -3.36642 0.131765 0
M  V30 2343 O 230.579 -3.93461 -0.809386 0
M  V30 2344 N 228.785 -2.90567 0.0439396 0
M  V30 2345 H 228.332 -2.44513 0.810619 0
M  V30 2346 H 228.29 -3.03681 -0.813969 0
M  V30 2347 N 232.062 -1.29571 -0.897171 0
M  V30 2348 C 233.473 -1.15964 -1.46319 0
M  V30 2349 C 233.824 0.244267 -1.94674 0
M  V30 2350 O 232.949 1.13998 -1.83939 0
M  V30 2351 C 233.544 -2.09906 -2.65942 0
M  V30 2352 C 232.103 -2.00314 -3.18671 0
M  V30 2353 C 231.25 -2.00687 -1.91363 0
M  V30 2354 H 234.201 -1.42019 -0.708268 0
M  V30 2355 H 234.222 -1.67276 -3.41759 0
M  V30 2356 H 233.734 -3.12075 -2.30718 0
M  V30 2357 H 231.835 -1.01242 -3.58582 0
M  V30 2358 H 231.948 -2.88102 -3.82798 0
M  V30 2359 H 230.312 -1.45319 -2.09175 0
M  V30 2360 H 231.095 -3.04566 -1.58413 0
M  V30 2361 N 233.54 1.10788 -1.12088 0
M  V30 2362 C 234.788 1.8231 -0.872205 0
M  V30 2363 C 235.109 1.85419 0.603709 0
M  V30 2364 O 234.379 1.32963 1.43867 0
M  V30 2365 H 232.959 0.675137 -0.319686 0
M  V30 2366 H 235.621 1.34068 -1.41463 0
M  V30 2367 H 234.717 2.85955 -1.25045 0
M  V30 2368 N 235.018 0.912232 1.28515 0
M  V30 2369 C 236.295 0.463597 1.90027 0
M  V30 2370 C 236.675 -1.05753 1.82701 0
M  V30 2371 O 236.023 -1.90492 1.26194 0
M  V30 2372 C 236.233 0.992253 3.34597 0
M  V30 2373 C 237.581 1.04344 4.11579 0
M  V30 2374 O 238.605 0.94079 3.43551 0
M  V30 2375 O 237.464 1.1995 5.33174 0
M  V30 2376 H 234.558 0.146666 0.813891 0
M  V30 2377 H 237.104 1.00292 1.36893 0
M  V30 2378 H 235.876 2.03623 3.34146 0
M  V30 2379 H 235.499 0.433672 3.95228 0
M  V30 2380 N 236.496 -1.42363 0.676048 0
M  V30 2381 C 237.459 -2.29199 0.00766941 0
M  V30 2382 C 238.459 -1.43389 -0.727745 0
M  V30 2383 O 239.649 -1.64764 -0.56556 0
M  V30 2384 C 236.781 -3.2591 -0.999785 0
M  V30 2385 H 237.974 -2.89794 0.771988 0
M  V30 2386 H 235.527 -1.50024 0.438468 0
M  V30 2387 H 236.262 -2.70256 -1.79255 0
M  V30 2388 H 236.047 -3.89202 -0.475829 0
M  V30 2389 H 237.537 -3.91028 -1.46583 0
M  V30 2390 N 237.974 -0.419461 -1.51915 0
M  V30 2391 C 238.937 0.389116 -2.25873 0
M  V30 2392 C 239.937 0.964924 -1.28631 0
M  V30 2393 O 241.127 0.842179 -1.52489 0
M  V30 2394 C 238.259 1.54874 -3.03689 0
M  V30 2395 H 239.452 -0.258799 -2.98781 0
M  V30 2396 H 237.005 -0.172209 -1.55348 0
M  V30 2397 H 237.74 2.23323 -2.35154 0
M  V30 2398 H 237.525 1.14223 -3.75094 0
M  V30 2399 H 239.015 2.12046 -3.59759 0
M  V30 2400 N 239.452 1.56882 -0.150215 0
M  V30 2401 C 240.384 2.14057 0.819286 0
M  V30 2402 C 241.397 1.09082 1.20851 0
M  V30 2403 O 242.586 1.36347 1.15203 0
M  V30 2404 C 239.686 2.65102 2.11127 0
M  V30 2405 C 238.859 3.94511 1.88891 0
M  V30 2406 C 237.918 4.30834 3.02107 0
M  V30 2407 O 236.944 4.99099 2.73659 0
M  V30 2408 N 238.146 3.90676 4.29363 0
M  V30 2409 H 240.911 2.97871 0.330618 0
M  V30 2410 H 238.472 1.61866 0.0332538 0
M  V30 2411 H 240.464 2.86411 2.85921 0
M  V30 2412 H 239.034 1.85994 2.51247 0
M  V30 2413 H 238.254 3.81795 0.981152 0
M  V30 2414 H 239.542 4.7907 1.71376 0
M  V30 2415 H 238.94 3.35677 4.55343 0
M  V30 2416 H 237.497 4.1703 5.00928 0
M  V30 2417 N 240.93 -0.123565 1.57115 0
M  V30 2418 C 242.178 -0.83051 1.84247 0
M  V30 2419 C 242.499 -1.80629 0.73471 0
M  V30 2420 O 241.769 -1.94403 -0.241688 0
M  V30 2421 H 240.349 -0.309694 0.679778 0
M  V30 2422 H 243.011 -0.111976 1.94578 0
M  V30 2423 H 242.107 -1.37852 2.80006 0
M  V30 2424 N 242.408 -1.52605 -0.393616 0
M  V30 2425 C 243.654 -1.67672 -1.14079 0
M  V30 2426 C 243.987 -0.413121 -1.89755 0
M  V30 2427 O 243.262 0.588952 -1.85369 0
M  V30 2428 C 243.545 -2.9088 -2.12276 0
M  V30 2429 C 243.398 -4.27329 -1.40394 0
M  V30 2430 C 244.717 -3.09628 -3.12759 0
M  V30 2431 H 241.836 -0.610168 -0.413356 0
M  V30 2432 H 244.478 -1.85193 -0.424696 0
M  V30 2433 H 242.628 -2.76073 -2.73342 0
M  V30 2434 H 244.3 -4.53894 -0.82327 0
M  V30 2435 H 242.543 -4.2802 -0.705801 0
M  V30 2436 H 243.214 -5.09615 -2.12123 0
M  V30 2437 H 245.69 -3.23436 -2.61779 0
M  V30 2438 H 244.566 -3.97322 -3.78717 0
M  V30 2439 H 244.827 -2.23637 -3.81365 0
M  V30 2440 N 243.887 0.651787 -1.4349 0
M  V30 2441 C 244.834 1.76462 -1.4876 0
M  V30 2442 C 245.804 1.62641 -0.337189 0
M  V30 2443 O 246.989 1.82864 -0.544544 0
M  V30 2444 C 244.129 3.14623 -1.41796 0
M  V30 2445 C 243.242 3.39568 -2.67053 0
M  V30 2446 C 242.377 4.67585 -2.52068 0
M  V30 2447 C 241.416 4.85639 -3.72587 0
M  V30 2448 N 240.553 6.04915 -3.56402 0
M  V30 2449 H 245.393 1.71293 -2.43849 0
M  V30 2450 H 242.93 0.835889 -1.21043 0
M  V30 2451 H 244.888 3.94496 -1.35753 0
M  V30 2452 H 243.518 3.18859 -0.50288 0
M  V30 2453 H 242.57 2.53783 -2.8337 0
M  V30 2454 H 243.882 3.48795 -3.56572 0
M  V30 2455 H 243.036 5.55586 -2.4374 0
M  V30 2456 H 241.775 4.60681 -1.60075 0
M  V30 2457 H 240.78 3.96073 -3.81321 0
M  V30 2458 H 242.005 4.94372 -4.65589 0
M  V30 2459 H 239.951 5.9914 -2.67146 0
M  V30 2460 H 239.868 6.15106 -4.39524 0
M  V30 2461 H 241.136 6.95533 -3.51929 0
M  V30 2462 N 245.365 1.30045 0.890287 0
M  V30 2463 C 246.613 1.18327 1.63839 0
M  V30 2464 C 246.934 -0.263455 1.93212 0
M  V30 2465 O 246.204 -1.17856 1.56482 0
M  V30 2466 H 244.784 0.434933 0.607324 0
M  V30 2467 H 247.446 1.631 1.06698 0
M  V30 2468 H 246.542 1.74024 2.59079 0
M  V30 2469 N 246.843 -1.10192 1.12674 0
M  V30 2470 C 248.12 -1.78717 0.794965 0
M  V30 2471 C 248.5 -1.98628 -0.714853 0
M  V30 2472 O 247.848 -1.58135 -1.64941 0
M  V30 2473 C 248.058 -3.11546 1.5729 0
M  V30 2474 C 249.406 -3.86382 1.76052 0
M  V30 2475 O 250.43 -3.21274 1.53823 0
M  V30 2476 O 249.289 -5.03246 2.13087 0
M  V30 2477 H 246.383 -0.774702 0.289423 0
M  V30 2478 H 248.929 -1.16819 1.23091 0
M  V30 2479 H 247.701 -2.92489 2.59935 0
M  V30 2480 H 247.324 -3.81164 1.13137 0
M  V30 2481 N 248.321 -0.919034 -1.28029 0
M  V30 2482 C 249.251 -0.428581 -2.29533 0
M  V30 2483 C 250.232 0.50659 -1.62381 0
M  V30 2484 O 251.417 0.413195 -1.89753 0
M  V30 2485 C 248.547 0.327388 -3.45753 0
M  V30 2486 C 247.501 -0.519137 -4.2484 0
M  V30 2487 C 246.827 0.365486 -5.33449 0
M  V30 2488 C 248.127 -1.77914 -4.91064 0
M  V30 2489 H 249.821 -1.27687 -2.70807 0
M  V30 2490 H 247.367 -0.615428 -1.30186 0
M  V30 2491 H 249.32 0.681378 -4.15855 0
M  V30 2492 H 248.044 1.20963 -3.03374 0
M  V30 2493 H 246.703 -0.855717 -3.56473 0
M  V30 2494 H 246.351 1.24642 -4.87312 0
M  V30 2495 H 246.051 -0.197356 -5.87268 0
M  V30 2496 H 247.575 0.715241 -6.06396 0
M  V30 2497 H 248.989 -1.49374 -5.53498 0
M  V30 2498 H 247.386 -2.2848 -5.54903 0
M  V30 2499 H 248.456 -2.50382 -4.15255 0
M  V30 2500 N 249.799 1.42003 -0.683588 0
M  V30 2501 C 251.21 1.84501 -0.285736 0
M  V30 2502 C 251.561 1.57213 1.17382 0
M  V30 2503 O 250.686 1.03642 1.89966 0
M  V30 2504 C 251.281 3.34912 -0.511821 0
M  V30 2505 C 249.84 3.76025 -0.168005 0
M  V30 2506 C 248.987 2.6551 -0.799983 0
M  V30 2507 H 251.938 1.31724 -0.885119 0
M  V30 2508 H 251.959 3.79784 0.233292 0
M  V30 2509 H 251.471 3.54741 -1.57418 0
M  V30 2510 H 249.572 3.61801 0.890567 0
M  V30 2511 H 249.685 4.75141 -0.614661 0
M  V30 2512 H 248.049 2.53654 -0.230568 0
M  V30 2513 H 248.832 2.8816 -1.86597 0
M  V30 2514 N 251.277 0.427512 1.51691 0
M  V30 2515 C 252.21 -0.433876 2.24037 0
M  V30 2516 C 253.188 -1.03287 1.25581 0
M  V30 2517 O 254.372 -1.07722 1.54688 0
M  V30 2518 C 251.499 -1.60385 2.98319 0
M  V30 2519 C 250.545 -1.12648 4.11355 0
M  V30 2520 S 251.378 -0.076543 5.35445 0
M  V30 2521 C 252.534 -1.25141 6.13262 0
M  V30 2522 H 252.767 0.180367 2.96752 0
M  V30 2523 H 250.3 0.211946 1.52938 0
M  V30 2524 H 252.258 -2.27462 3.41718 0
M  V30 2525 H 250.919 -2.18948 2.25213 0
M  V30 2526 H 250.112 -2.0011 4.62571 0
M  V30 2527 H 249.714 -0.534088 3.70167 0
M  V30 2528 H 252.006 -2.17162 6.41753 0
M  V30 2529 H 252.949 -0.779411 7.03797 0
M  V30 2530 H 253.357 -1.48553 5.44603 0
M  V30 2531 N 252.755 -1.56801 0.158532 0
M  V30 2532 C 253.98 -2.01295 -0.499516 0
M  V30 2533 C 254.405 -1.03799 -1.56867 0
M  V30 2534 O 253.763 -0.0155162 -1.81293 0
M  V30 2535 C 253.811 -3.44469 -1.06647 0
M  V30 2536 O 252.915 -3.50012 -2.18095 0
M  V30 2537 H 252.256 -0.652884 -0.12099 0
M  V30 2538 H 254.786 -2.02958 0.258661 0
M  V30 2539 H 254.796 -3.8351 -1.39227 0
M  V30 2540 H 253.471 -4.14932 -0.283581 0
M  V30 2541 H 252.048 -3.22822 -1.86656 0
M  V30 2542 N 254.233 0.115231 -1.57178 0
M  V30 2543 C 255.196 1.12526 -1.99676 0
M  V30 2544 C 256.196 1.34095 -0.88742 0
M  V30 2545 O 257.386 1.30548 -1.15337 0
M  V30 2546 C 254.518 2.4789 -2.34015 0
M  V30 2547 H 255.711 0.759912 -2.90113 0
M  V30 2548 H 253.264 0.359648 -1.52106 0
M  V30 2549 H 253.999 2.89339 -1.4647 0
M  V30 2550 H 253.784 2.33588 -3.14927 0
M  V30 2551 H 255.274 3.20575 -2.67622 0
M  V30 2552 N 255.711 1.52812 0.385517 0
M  V30 2553 C 256.936 1.72207 1.15583 0
M  V30 2554 C 257.361 0.441034 1.82857 0
M  V30 2555 O 256.719 -0.603465 1.70962 0
M  V30 2556 C 256.767 2.87476 2.17692 0
M  V30 2557 O 255.871 2.54693 3.24354 0
M  V30 2558 H 255.212 0.572526 0.336319 0
M  V30 2559 H 257.742 1.99618 0.448744 0
M  V30 2560 H 257.752 3.13072 2.6163 0
M  V30 2561 H 256.427 3.80408 1.68115 0
M  V30 2562 H 255.004 2.3985 2.85529 0
M  V30 2563 N 257.189 -0.644168 1.43834 0
M  V30 2564 C 258.466 -1.40188 1.36406 0
M  V30 2565 C 258.846 -2.11094 0.0163124 0
M  V30 2566 O 258.194 -2.05426 -1.00062 0
M  V30 2567 C 258.404 -2.3791 2.55343 0
M  V30 2568 C 259.752 -3.01637 2.98832 0
M  V30 2569 O 260.776 -2.48237 2.55455 0
M  V30 2570 O 259.635 -3.98477 3.74003 0
M  V30 2571 H 256.729 -0.626773 0.539523 0
M  V30 2572 H 259.275 -0.670317 1.559 0
M  V30 2573 H 258.047 -1.84525 3.4506 0
M  V30 2574 H 257.67 -3.18503 2.37995 0
M  V30 2575 N 258.668 -1.30515 -0.883378 0
M  V30 2576 C 259.893 -1.22487 -1.67367 0
M  V30 2577 C 260.318 0.208767 -1.86938 0
M  V30 2578 O 259.676 1.15015 -1.40148 0
M  V30 2579 C 259.724 -1.96041 -3.02655 0
M  V30 2580 O 258.828 -1.28859 -3.91751 0
M  V30 2581 H 258.169 -0.423573 -0.511353 0
M  V30 2582 H 260.699 -1.72362 -1.10239 0
M  V30 2583 H 260.709 -2.05124 -3.52687 0
M  V30 2584 H 259.384 -3.00307 -2.8773 0
M  V30 2585 H 257.961 -1.28141 -3.50192 0
M  V30 2586 N 260.146 1.09593 -1.13257 0
M  V30 2587 C 261.392 1.82003 -0.89458 0
M  V30 2588 C 261.725 1.85402 0.577906 0
M  V30 2589 O 261 1.32099 1.42759 0
M  V30 2590 C 261.283 3.28237 -1.48096 0
M  V30 2591 C 261.136 3.3312 -3.02244 0
M  V30 2592 C 262.455 4.24871 -1.14774 0
M  V30 2593 H 259.574 0.66077 -0.326424 0
M  V30 2594 H 262.216 1.28389 -1.40058 0
M  V30 2595 H 260.366 3.74024 -1.05062 0
M  V30 2596 H 262.038 2.95748 -3.54021 0
M  V30 2597 H 260.281 2.72756 -3.37323 0
M  V30 2598 H 260.952 4.3613 -3.38371 0
M  V30 2599 H 263.428 3.87361 -1.51957 0
M  V30 2600 H 262.304 5.25532 -1.58452 0
M  V30 2601 H 262.565 4.42058 -0.0611849 0
M  V30 2602 N 261.624 0.925811 1.2754 0
M  V30 2603 C 262.554 0.440748 2.29303 0
M  V30 2604 C 263.535 -0.497971 1.62648 0
M  V30 2605 O 264.72 -0.403126 1.8997 0
M  V30 2606 C 261.85 -0.309048 3.45922 0
M  V30 2607 C 260.804 0.54166 4.24559 0
M  V30 2608 C 260.13 -0.337191 5.33636 0
M  V30 2609 C 261.43 1.80516 4.90114 0
M  V30 2610 H 263.124 1.29121 2.70126 0
M  V30 2611 H 260.67 0.622323 1.29858 0
M  V30 2612 H 262.623 -0.659315 4.1621 0
M  V30 2613 H 261.347 -1.19352 3.04011 0
M  V30 2614 H 260.006 0.874609 3.56014 0
M  V30 2615 H 259.654 -1.22056 4.87966 0
M  V30 2616 H 259.354 0.228497 5.87156 0
M  V30 2617 H 260.878 -0.683072 6.06767 0
M  V30 2618 H 262.292 1.52307 5.52698 0
M  V30 2619 H 260.689 2.3142 5.53683 0
M  V30 2620 H 261.759 2.52581 4.13921 0
M  V30 2621 N 263.102 -1.41638 0.69111 0
M  V30 2622 C 264.342 -2.03166 0.224291 0
M  V30 2623 C 264.706 -1.53537 -1.15284 0
M  V30 2624 O 265.907 -2.0696 -1.71525 0
M  V30 2625 C 264.178 -3.56342 0.274758 0
M  V30 2626 S 265.737 -4.3864 -0.118669 0
M  V30 2627 H 262.555 -0.705188 0.0907263 0
M  V30 2628 H 265.157 -1.7314 0.907895 0
M  V30 2629 H 263.861 -3.89958 1.2791 0
M  V30 2630 H 263.392 -3.91063 -0.428142 0
M  V30 2631 H 265.407 -4.77549 -1.34764 0
M  V30 2632 N 264.58 -0.43555 -1.51462 0
M  V30 2633 C 265.53 0.394701 -2.24558 0
M  V30 2634 C 266.514 0.99157 -1.26715 0
M  V30 2635 O 267.706 0.910007 -1.51815 0
M  V30 2636 C 264.835 1.4963 -3.08975 0
M  V30 2637 C 263.921 0.908912 -4.14246 0
M  V30 2638 N 264.312 0.0505335 -5.05775 0
M  V30 2639 C 262.61 1.17668 -4.30198 0
M  V30 2640 C 263.311 -0.279161 -5.8103 0
M  V30 2641 N 262.287 0.336767 -5.42556 0
M  V30 2642 H 266.089 -0.267106 -2.92684 0
M  V30 2643 H 263.603 -0.247518 -1.60503 0
M  V30 2644 H 265.6 2.10394 -3.59917 0
M  V30 2645 H 264.26 2.16046 -2.42393 0
M  V30 2646 H 265.271 -0.31577 -5.16936 0
M  V30 2647 H 261.948 1.83847 -3.74842 0
M  V30 2648 H 263.338 -0.977553 -6.64751 0
M  V30 2649 N 266.058 1.56714 -0.166846 0
M  V30 2650 C 267.307 1.95922 0.479318 0
M  V30 2651 C 267.62 1.05529 1.6469 0
M  V30 2652 O 268.826 1.34399 2.35901 0
M  V30 2653 C 267.282 3.48359 0.90412 0
M  V30 2654 C 266.89 4.47369 -0.237621 0
M  V30 2655 C 268.634 3.96394 1.51896 0
M  V30 2656 C 266.541 5.91039 0.206561 0
M  V30 2657 H 265.471 0.731495 0.18284 0
M  V30 2658 H 268.122 1.81728 -0.254363 0
M  V30 2659 H 266.504 3.57955 1.69365 0
M  V30 2660 H 267.678 4.49485 -1.01489 0
M  V30 2661 H 265.993 4.09366 -0.762128 0
M  V30 2662 H 268.59 5.01186 1.86325 0
M  V30 2663 H 268.933 3.39075 2.41524 0
M  V30 2664 H 269.466 3.89796 0.79395 0
M  V30 2665 H 266.205 6.52221 -0.654834 0
M  V30 2666 H 265.725 5.9224 0.949282 0
M  V30 2667 H 267.404 6.43707 0.651939 0
M  V30 2668 N 267.536 -0.106894 1.57237 0
M  V30 2669 C 268.761 -0.830287 1.90055 0
M  V30 2670 C 269.186 -1.72064 0.75998 0
M  V30 2671 O 268.544 -1.78982 -0.288991 0
M  V30 2672 C 268.592 -1.6295 3.21683 0
M  V30 2673 O 267.696 -2.73748 3.08441 0
M  V30 2674 H 267.037 -0.228855 0.623315 0
M  V30 2675 H 269.567 -0.085658 2.04421 0
M  V30 2676 H 269.577 -2.01621 3.54701 0
M  V30 2677 H 268.252 -0.975989 4.04286 0
M  V30 2678 H 266.829 -2.38192 2.86913 0
M  V30 2679 N 269.014 -1.53014 -0.377408 0
M  V30 2680 C 270.26 -1.68872 -1.12294 0
M  V30 2681 C 270.593 -0.433224 -1.89306 0
M  V30 2682 O 269.868 0.569258 -1.85983 0
M  V30 2683 C 270.151 -2.93115 -2.09179 0
M  V30 2684 C 270.004 -4.28794 -1.35853 0
M  V30 2685 C 271.323 -3.12928 -3.09458 0
M  V30 2686 H 268.442 -0.614518 -0.406862 0
M  V30 2687 H 271.084 -1.85633 -0.40503 0
M  V30 2688 H 269.234 -2.78956 -2.70399 0
M  V30 2689 H 270.906 -4.54742 -0.775082 0
M  V30 2690 H 269.149 -4.28744 -0.660364 0
M  V30 2691 H 269.82 -5.11837 -2.06706 0
M  V30 2692 H 272.296 -3.26194 -2.58334 0
M  V30 2693 H 271.172 -4.01316 -3.74482 0
M  V30 2694 H 271.433 -2.27669 -3.78971 0
M  V30 2695 N 270.492 0.636531 -1.44174 0
M  V30 2696 C 271.717 1.42847 -1.50364 0
M  V30 2697 C 272.142 1.87665 -0.127867 0
M  V30 2698 O 271.5 1.58408 0.88185 0
M  V30 2699 C 271.548 2.62854 -2.4686 0
M  V30 2700 O 270.652 3.62501 -1.9664 0
M  V30 2701 H 269.993 0.427642 -0.507955 0
M  V30 2702 H 272.523 0.777422 -1.89255 0
M  V30 2703 H 272.533 3.10465 -2.64718 0
M  V30 2704 H 271.208 2.29578 -3.46795 0
M  V30 2705 H 269.785 3.21735 -1.88523 0
M  V30 2706 N 271.97 1.30982 0.876444 0
M  V30 2707 C 272.917 1.18085 1.98304 0
M  V30 2708 C 273.887 0.0682263 1.6596 0
M  V30 2709 O 275.072 0.239937 1.89285 0
M  V30 2710 C 272.212 0.887475 3.33493 0
M  V30 2711 C 271.325 2.08281 3.78475 0
M  V30 2712 C 270.46 1.72678 5.0235 0
M  V30 2713 C 269.499 2.88657 5.39762 0
M  V30 2714 N 268.636 2.53292 6.54819 0
M  V30 2715 H 273.476 2.1275 2.08666 0
M  V30 2716 H 271.013 1.05839 1.02159 0
M  V30 2717 H 272.971 0.697961 4.1132 0
M  V30 2718 H 271.601 -0.022315 3.22792 0
M  V30 2719 H 270.653 2.3833 2.96484 0
M  V30 2720 H 271.965 2.95108 4.02135 0
M  V30 2721 H 271.119 1.50151 5.87826 0
M  V30 2722 H 269.858 0.830327 4.8058 0
M  V30 2723 H 268.863 3.1184 4.52809 0
M  V30 2724 H 270.088 3.79002 5.63502 0
M  V30 2725 H 268.034 1.66163 6.34607 0
M  V30 2726 H 267.951 3.3365 6.7839 0
M  V30 2727 H 269.219 2.34143 7.43503 0
M  V30 2728 N 273.449 -1.08991 1.13837 0
M  V30 2729 C 274.695 -1.81699 0.91417 0
M  V30 2730 C 275.05 -1.84264 -0.553594 0
M  V30 2731 O 274.343 -1.30313 -1.4046 0
M  V30 2732 C 274.537 -3.27042 1.44147 0
M  V30 2733 C 274.366 -3.38637 2.95897 0
M  V30 2734 C 273.136 -3.50177 3.64286 0
M  V30 2735 C 275.334 -3.30791 3.93804 0
M  V30 2736 N 273.316 -3.50501 5.04006 0
M  V30 2737 C 274.687 -3.38037 5.19741 0
M  V30 2738 C 276.742 -3.14488 3.86007 0
M  V30 2739 C 275.445 -3.30659 6.38793 0
M  V30 2740 C 277.471 -3.08438 5.04599 0
M  V30 2741 C 276.833 -3.1628 6.29402 0
M  V30 2742 H 272.932 -0.678967 0.387979 0
M  V30 2743 H 275.516 -1.30224 1.4474 0
M  V30 2744 H 273.687 -3.76976 0.935091 0
M  V30 2745 H 275.419 -3.87785 1.1578 0
M  V30 2746 H 272.174 -3.53815 3.1482 0
M  V30 2747 H 272.598 -3.54236 5.76928 0
M  V30 2748 H 277.24 -3.07291 2.90399 0
M  V30 2749 H 274.958 -3.36618 7.34652 0
M  V30 2750 H 278.544 -2.96952 5.0031 0
M  V30 2751 H 277.424 -3.1162 7.19627 0
M  V30 2752 N 274.927 -0.932562 -1.27047 0
M  V30 2753 C 276.167 -0.582919 -1.95912 0
M  V30 2754 C 276.531 0.860629 -1.71631 0
M  V30 2755 O 277.732 1.31878 -2.34225 0
M  V30 2756 C 276.003 -0.905673 -3.45734 0
M  V30 2757 S 277.562 -0.665277 -4.33727 0
M  V30 2758 H 274.38 -0.215 -0.677714 0
M  V30 2759 H 276.982 -1.20204 -1.54179 0
M  V30 2760 H 275.686 -1.95386 -3.60905 0
M  V30 2761 H 275.217 -0.275939 -3.92431 0
M  V30 2762 H 277.232 0.474635 -4.93925 0
M  V30 2763 N 276.405 1.4127 -0.698611 0
M  V30 2764 C 277.635 2.05205 -0.239644 0
M  V30 2765 C 278.043 1.52684 1.11733 0
M  V30 2766 O 277.386 0.671222 1.70998 0
M  V30 2767 C 277.448 3.59289 -0.123126 0
M  V30 2768 C 277.112 4.34619 -1.41263 0
M  V30 2769 C 278.109 4.63701 -2.35111 0
M  V30 2770 C 275.794 4.73837 -1.66684 0
M  V30 2771 C 277.788 5.30966 -3.52639 0
M  V30 2772 C 275.475 5.40837 -2.84498 0
M  V30 2773 C 276.473 5.69329 -3.77298 0
M  V30 2774 O 276.161 6.34949 -4.93047 0
M  V30 2775 H 275.893 0.66723 -0.108537 0
M  V30 2776 H 278.447 1.81974 -0.952602 0
M  V30 2777 H 276.677 3.81272 0.645628 0
M  V30 2778 H 278.366 4.04797 0.299056 0
M  V30 2779 H 279.132 4.33882 -2.16729 0
M  V30 2780 H 275.011 4.51039 -0.953135 0
M  V30 2781 H 278.555 5.53121 -4.25091 0
M  V30 2782 H 274.452 5.70075 -3.02795 0
M  V30 2783 H 275.22 6.53445 -4.92902 0
M  V30 2784 N 277.883 0.443576 1.51229 0
M  V30 2785 C 278.793 -0.370721 2.31652 0
M  V30 2786 C 279.809 -1.02186 1.40833 0
M  V30 2787 O 280.985 -1.01586 1.73903 0
M  V30 2788 C 278.05 -1.45376 3.14749 0
M  V30 2789 C 277.111 -0.822099 4.21355 0
M  V30 2790 C 276.344 -1.85353 5.0048 0
M  V30 2791 O 276.567 -3.07656 4.80316 0
M  V30 2792 O 275.501 -1.4406 5.84406 0
M  V30 2793 H 279.327 0.286002 3.0235 0
M  V30 2794 H 276.912 0.20598 1.47973 0
M  V30 2795 H 278.794 -2.08173 3.66391 0
M  V30 2796 H 277.469 -2.09445 2.46809 0
M  V30 2797 H 276.376 -0.155909 3.73775 0
M  V30 2798 H 277.709 -0.224797 4.91686 0
M  V30 2799 N 279.361 -1.56624 0.175154 0
M  V30 2800 C 280.309 -2.19468 -0.770495 0
M  V30 2801 C 281.303 -1.15985 -1.23466 0
M  V30 2802 O 282.509 -1.34176 -1.19987 0
M  V30 2803 H 278.884 -0.703095 -0.266761 0
M  V30 2804 H 280.855 -2.97613 -0.216542 0
M  V30 2805 C 279.604 -2.85264 -1.98796 0
M  V30 2806 H 278.927 -3.64623 -1.63983 0
M  V30 2807 H 280.367 -3.327 -2.62843 0
M  V30 2808 C 278.826 -1.85239 -2.81404 0
M  V30 2809 O 279.356 -1.34024 -3.78682 0
M  V30 2810 N 277.562 -1.53911 -2.46495 0
M  V30 2811 H 277.109 -1.95751 -1.67449 0
M  V30 2812 H 277.067 -0.872382 -3.02054 0
M  V30 2813 N 280.839 0.0985539 -1.57292 0
M  V30 2814 C 281.786 1.11981 -2.01814 0
M  V30 2815 C 282.756 1.39999 -0.89384 0
M  V30 2816 O 283.941 1.5152 -1.15958 0
M  V30 2817 C 281.081 2.43577 -2.44467 0
M  V30 2818 C 280.194 2.2232 -3.70402 0
M  V30 2819 C 279.329 3.4729 -4.01949 0
M  V30 2820 C 278.368 3.2128 -5.21005 0
M  V30 2821 N 277.505 4.38507 -5.48321 0
M  V30 2822 H 282.345 0.733149 -2.88841 0
M  V30 2823 H 279.882 0.350482 -1.42864 0
M  V30 2824 H 281.84 3.20373 -2.6724 0
M  V30 2825 H 280.47 2.80097 -1.60455 0
M  V30 2826 H 279.522 1.36343 -3.55126 0
M  V30 2827 H 280.834 1.99089 -4.57345 0
M  V30 2828 H 279.988 4.32495 -4.25479 0
M  V30 2829 H 278.727 3.73572 -3.13521 0
M  V30 2830 H 277.732 2.34468 -4.97298 0
M  V30 2831 H 278.957 2.96348 -6.11028 0
M  V30 2832 H 276.903 4.64871 -4.62851 0
M  V30 2833 H 276.82 4.18455 -6.29628 0
M  V30 2834 H 278.088 5.24787 -5.76385 0
M  V30 2835 N 282.317 1.53212 0.369288 0
M  V30 2836 C 283.566 1.68436 1.10961 0
M  V30 2837 C 283.879 0.440738 1.9057 0
M  V30 2838 O 285.085 0.473446 2.6734 0
M  V30 2839 C 283.541 2.97744 2.0218 0
M  V30 2840 C 283.149 4.29355 1.279 0
M  V30 2841 C 284.893 3.22334 2.76226 0
M  V30 2842 C 282.8 5.49755 2.17999 0
M  V30 2843 H 281.73 0.627568 0.41794 0
M  V30 2844 H 284.381 1.79713 0.370884 0
M  V30 2845 H 282.763 2.8026 2.79768 0
M  V30 2846 H 283.937 4.57458 0.554007 0
M  V30 2847 H 282.252 4.11179 0.657311 0
M  V30 2848 H 284.849 4.09471 3.43857 0
M  V30 2849 H 285.192 2.38238 3.41392 0
M  V30 2850 H 285.725 3.40475 2.05723 0
M  V30 2851 H 282.464 6.36318 1.57417 0
M  V30 2852 H 281.984 5.25937 2.88359 0
M  V30 2853 H 283.663 5.84401 2.77641 0
M  V30 2854 N 283.795 -0.628877 1.44509 0
M  V30 2855 C 284.705 -1.7694 1.54044 0
M  V30 2856 C 285.721 -1.68705 0.425987 0
M  V30 2857 O 286.897 -1.89442 0.683656 0
M  V30 2858 C 283.962 -3.13332 1.48405 0
M  V30 2859 C 283.023 -3.33181 2.70719 0
M  V30 2860 C 282.256 -4.63067 2.6534 0
M  V30 2861 O 282.479 -5.44017 1.71469 0
M  V30 2862 O 281.413 -4.85167 3.56226 0
M  V30 2863 H 285.239 -1.71848 2.50403 0
M  V30 2864 H 282.824 -0.790378 1.26781 0
M  V30 2865 H 284.706 -3.94634 1.47791 0
M  V30 2866 H 283.381 -3.1896 0.551898 0
M  V30 2867 H 282.288 -2.51549 2.769 0
M  V30 2868 H 283.621 -3.32416 3.62988 0
M  V30 2869 N 285.273 -1.31445 -0.869486 0
M  V30 2870 C 286.236 -1.19094 -1.9583 0
M  V30 2871 C 287.236 -0.117906 -1.60367 0
M  V30 2872 O 288.426 -0.367208 -1.70286 0
M  V30 2873 C 285.558 -0.828165 -3.30688 0
M  V30 2874 H 286.751 -2.15842 -2.08212 0
M  V30 2875 H 284.304 -1.15063 -1.05784 0
M  V30 2876 H 285.039 0.138142 -3.24006 0
M  V30 2877 H 284.824 -1.6038 -3.578 0
M  V30 2878 H 286.314 -0.765658 -4.10521 0
M  V30 2879 N 286.751 1.08385 -1.14413 0
M  V30 2880 C 287.979 1.84517 -0.936001 0
M  V30 2881 C 288.394 1.81626 0.515503 0
M  V30 2882 O 287.751 1.22008 1.35721 0
M  V30 2883 C 287.802 3.32049 -1.42918 0
M  V30 2884 O 287.523 3.34951 -2.82381 0
M  V30 2885 C 289.024 4.24986 -1.26103 0
M  V30 2886 H 286.244 0.582491 -0.333084 0
M  V30 2887 H 288.788 1.36885 -1.5193 0
M  V30 2888 H 286.943 3.7707 -0.888641 0
M  V30 2889 H 287.357 4.27048 -3.04517 0
M  V30 2890 H 288.831 5.26615 -1.6547 0
M  V30 2891 H 289.308 4.38726 -0.20392 0
M  V30 2892 H 289.914 3.85791 -1.79012 0
M  V30 2893 N 288.23 0.939286 1.26551 0
M  V30 2894 C 289.455 0.602008 1.98471 0
M  V30 2895 C 289.88 -0.815624 1.69497 0
M  V30 2896 O 289.238 -1.54912 0.941905 0
M  V30 2897 C 289.286 0.848407 3.50477 0
M  V30 2898 O 288.39 -0.0804009 4.12322 0
M  V30 2899 H 287.731 0.23049 0.622712 0
M  V30 2900 H 290.261 1.2617 1.61066 0
M  V30 2901 H 290.271 0.768553 4.00696 0
M  V30 2902 H 288.946 1.88171 3.70897 0
M  V30 2903 H 287.523 0.0503508 3.72866 0
M  V30 2904 N 289.708 -1.40897 0.706093 0
M  V30 2905 C 290.655 -2.30751 0.0474474 0
M  V30 2906 C 291.625 -1.47678 -0.76029 0
M  V30 2907 O 292.81 -1.76441 -0.726177 0
M  V30 2908 C 289.95 -3.33815 -0.875309 0
M  V30 2909 C 289.063 -4.31961 -0.0580623 0
M  V30 2910 C 288.198 -5.22093 -0.979425 0
M  V30 2911 C 287.237 -6.11902 -0.155706 0
M  V30 2912 N 286.374 -6.94482 -1.03144 0
M  V30 2913 H 291.214 -2.86513 0.819413 0
M  V30 2914 H 288.751 -1.41102 0.415783 0
M  V30 2915 H 290.709 -3.92129 -1.42446 0
M  V30 2916 H 289.339 -2.79579 -1.61356 0
M  V30 2917 H 288.391 -3.75507 0.608147 0
M  V30 2918 H 289.703 -4.95415 0.580082 0
M  V30 2919 H 288.857 -5.85292 -1.59744 0
M  V30 2920 H 287.596 -4.5889 -1.65141 0
M  V30 2921 H 286.601 -5.47742 0.475309 0
M  V30 2922 H 287.826 -6.77162 0.512635 0
M  V30 2923 H 285.772 -6.33877 -1.68924 0
M  V30 2924 H 285.689 -7.54665 -0.449108 0
M  V30 2925 H 286.957 -7.6214 -1.63593 0
M  V30 2926 N 291.186 -0.45159 -1.50991 0
M  V30 2927 C 292.118 0.388634 -2.25881 0
M  V30 2928 C 293.131 0.974041 -1.30446 0
M  V30 2929 O 294.32 0.865758 -1.56099 0
M  V30 2930 C 291.42 1.5571 -3.01011 0
M  V30 2931 C 290.593 1.08801 -4.23652 0
M  V30 2932 C 289.652 2.12825 -4.8124 0
M  V30 2933 O 288.678 1.71678 -5.42693 0
M  V30 2934 N 289.88 3.45453 -4.66522 0
M  V30 2935 H 292.645 -0.25329 -2.98628 0
M  V30 2936 H 290.206 -0.281268 -1.59438 0
M  V30 2937 H 292.198 2.24952 -3.3642 0
M  V30 2938 H 290.768 2.10409 -2.31186 0
M  V30 2939 H 289.988 0.22215 -3.93574 0
M  V30 2940 H 291.276 0.752213 -5.03209 0
M  V30 2941 H 290.674 3.81605 -4.17605 0
M  V30 2942 H 289.231 4.10549 -5.06254 0
M  V30 2943 N 292.664 1.56529 -0.183458 0
M  V30 2944 C 294.08 1.58664 0.172554 0
M  V30 2945 C 294.28 1.19925 1.61926 0
M  V30 2946 O 293.336 0.916534 2.35278 0
M  V30 2947 C 294.649 3.00463 -0.119262 0
M  V30 2948 C 296.197 3.12945 -0.0584396 0
M  V30 2949 C 296.672 4.56857 -0.323408 0
M  V30 2950 N 298.163 4.62403 -0.271612 0
M  V30 2951 C 298.898 5.71626 -0.450639 0
M  V30 2952 N 298.394 6.89362 -0.689384 0
M  V30 2953 N 300.187 5.60775 -0.385701 0
M  V30 2954 H 292.338 1.79994 -1.12765 0
M  V30 2955 H 294.601 0.834808 -0.449222 0
M  V30 2956 H 294.307 3.33326 -1.12192 0
M  V30 2957 H 294.181 3.72659 0.583544 0
M  V30 2958 H 296.568 2.79902 0.934805 0
M  V30 2959 H 296.649 2.4316 -0.794144 0
M  V30 2960 H 296.293 4.9061 -1.31392 0
M  V30 2961 H 296.223 5.24816 0.43305 0
M  V30 2962 H 298.714 3.77785 -0.0932256 0
M  V30 2963 H 299.027 7.68489 -0.815113 0
M  V30 2964 H 297.372 6.91196 -0.726142 0
M  V30 2965 H 300.563 4.67674 -0.199687 0
M  V30 2966 H 300.736 6.4584 -0.528646 0
M  V30 2967 N 294.142 -0.090211 1.57342 0
M  V30 2968 C 295.367 -0.810082 1.90925 0
M  V30 2969 C 295.792 -1.71248 0.778187 0
M  V30 2970 O 295.15 -1.79278 -0.269991 0
M  V30 2971 C 295.198 -1.59529 3.23393 0
M  V30 2972 O 294.302 -2.70461 3.11327 0
M  V30 2973 H 293.643 -0.222231 0.625707 0
M  V30 2974 H 296.173 -0.0639716 2.045 0
M  V30 2975 H 296.183 -1.97847 3.5682 0
M  V30 2976 H 294.858 -0.933055 4.05299 0
M  V30 2977 H 293.435 -2.35135 2.89423 0
M  V30 2978 N 295.62 -1.53406 -0.361157 0
M  V30 2979 C 296.53 -1.83122 -1.4664 0
M  V30 2980 C 297.546 -0.719943 -1.58407 0
M  V30 2981 O 298.722 -1.01046 -1.74218 0
M  V30 2982 C 295.787 -2.01891 -2.81853 0
M  V30 2983 C 294.848 -3.25784 -2.79577 0
M  V30 2984 C 294.081 -3.43648 -4.0834 0
M  V30 2985 O 294.304 -2.65714 -5.0473 0
M  V30 2986 O 293.238 -4.37018 -4.13883 0
M  V30 2987 H 297.064 -2.7703 -1.24451 0
M  V30 2988 H 294.649 -1.38841 -0.551678 0
M  V30 2989 H 296.531 -2.15782 -3.61962 0
M  V30 2990 H 295.206 -1.11173 -3.0401 0
M  V30 2991 H 294.113 -3.17312 -1.98151 0
M  V30 2992 H 295.446 -4.16439 -2.62373 0
M  V30 2993 N 297.098 0.621204 -1.44841 0
M  V30 2994 C 298.514 0.94048 -1.28946 0
M  V30 2995 C 298.714 2.00154 -0.23249 0
M  V30 2996 O 297.77 2.49651 0.378237 0
M  V30 2997 C 299.083 1.39433 -2.66419 0
M  V30 2998 C 300.631 1.50927 -2.74208 0
M  V30 2999 C 301.106 1.99692 -4.12174 0
M  V30 3000 N 302.597 2.06947 -4.144 0
M  V30 3001 C 303.332 2.45871 -5.1801 0
M  V30 3002 N 302.828 2.83862 -6.31977 0
M  V30 3003 N 304.621 2.46092 -5.05366 0
M  V30 3004 H 296.772 -0.0803548 -2.12248 0
M  V30 3005 H 299.035 0.0266913 -0.947624 0
M  V30 3006 H 298.741 0.688925 -3.44887 0
M  V30 3007 H 298.615 2.36347 -2.93973 0
M  V30 3008 H 301.002 2.20561 -1.96053 0
M  V30 3009 H 301.083 0.523627 -2.50383 0
M  V30 3010 H 300.727 1.30649 -4.90809 0
M  V30 3011 H 300.657 2.99146 -4.33381 0
M  V30 3012 H 303.148 1.80232 -3.32152 0
M  V30 3013 H 303.461 3.12405 -7.0684 0
M  V30 3014 H 301.806 2.8159 -6.35399 0
M  V30 3015 H 304.997 2.1581 -4.15384 0
M  V30 3016 H 305.17 2.76102 -5.86235 0
M  V30 3017 N 298.576 1.31904 0.862503 0
M  V30 3018 C 299.816 1.23324 1.63004 0
M  V30 3019 C 300.18 -0.203724 1.90916 0
M  V30 3020 O 301.381 -0.413132 2.65606 0
M  V30 3021 C 299.652 2.06116 2.91978 0
M  V30 3022 S 301.211 2.14478 3.82812 0
M  V30 3023 H 298.029 0.439117 0.559193 0
M  V30 3024 H 300.631 1.66658 1.02202 0
M  V30 3025 H 299.335 3.09593 2.69407 0
M  V30 3026 H 298.866 1.6353 3.57801 0
M  V30 3027 H 300.881 1.28855 4.79177 0
M  V30 3028 N 300.054 -1.07777 1.14986 0
M  V30 3029 C 301.302 -1.79934 0.920235 0
M  V30 3030 C 301.623 -1.86955 -0.554336 0
M  V30 3031 O 300.893 -1.36731 -1.40291 0
M  V30 3032 H 299.473 -0.666424 0.337473 0
M  V30 3033 H 302.135 -1.3027 1.44968 0
M  V30 3034 H 301.231 -2.82539 1.32583 0
M  V30 3035 N 301.532 -0.945985 -1.26051 0
M  V30 3036 C 302.948 -0.649045 -1.45807 0
M  V30 3037 C 303.148 0.796158 -1.85104 0
M  V30 3038 O 302.204 1.57233 -1.97571 0
M  V30 3039 C 303.517 -1.61458 -2.53677 0
M  V30 3040 C 305.065 -1.62481 -2.67524 0
M  V30 3041 C 305.54 -2.57776 -3.7857 0
M  V30 3042 N 307.031 -2.5609 -3.85969 0
M  V30 3043 C 307.766 -3.26508 -4.7136 0
M  V30 3044 N 307.262 -4.0637 -5.61102 0
M  V30 3045 N 309.055 -3.15437 -4.65248 0
M  V30 3046 H 301.206 -1.88005 -0.988328 0
M  V30 3047 H 303.469 -0.808198 -0.4955 0
M  V30 3048 H 303.175 -2.64644 -2.31638 0
M  V30 3049 H 303.049 -1.37036 -3.51427 0
M  V30 3050 H 305.436 -0.600167 -2.88933 0
M  V30 3051 H 305.517 -1.90958 -1.70202 0
M  V30 3052 H 305.161 -3.60361 -3.57913 0
M  V30 3053 H 305.091 -2.26587 -4.75359 0
M  V30 3054 H 307.582 -1.98105 -3.21812 0
M  V30 3055 H 307.895 -4.57042 -6.23164 0
M  V30 3056 H 306.24 -4.10469 -5.60839 0
M  V30 3057 H 309.431 -2.52525 -3.94143 0
M  V30 3058 H 309.604 -3.70584 -5.31575 0
M  V30 3059 N 303.011 1.40521 -0.713556 0
M  V30 3060 C 303.941 2.33381 -0.0743864 0
M  V30 3061 C 304.922 1.52784 0.747735 0
M  V30 3062 O 306.107 1.81258 0.697071 0
M  V30 3063 C 303.237 3.36748 0.849598 0
M  V30 3064 C 302.191 4.27793 0.133247 0
M  V30 3065 C 301.517 5.21679 1.17281 0
M  V30 3066 C 302.817 5.12415 -1.01134 0
M  V30 3067 H 304.511 2.87081 -0.850007 0
M  V30 3068 H 302.057 1.38034 -0.410201 0
M  V30 3069 H 304.01 4.00648 1.30612 0
M  V30 3070 H 302.734 2.81439 1.65709 0
M  V30 3071 H 301.393 3.65342 -0.303426 0
M  V30 3072 H 301.041 4.62677 1.9733 0
M  V30 3073 H 300.741 5.83435 0.698397 0
M  V30 3074 H 302.265 5.88456 1.62947 0
M  V30 3075 H 303.679 5.69781 -0.634274 0
M  V30 3076 H 302.076 5.83203 -1.41399 0
M  V30 3077 H 303.146 4.48514 -1.84292 0
M  V30 3078 N 304.489 0.459591 1.5075 0
M  V30 3079 C 305.717 -0.0973749 2.06671 0
M  V30 3080 C 306.132 -1.34524 1.32472 0
M  V30 3081 O 305.489 -1.7827 0.390634 0
M  V30 3082 C 305.54 -0.39714 3.59312 0
M  V30 3083 O 305.261 0.801214 4.30711 0
M  V30 3084 C 306.762 -1.00234 4.31819 0
M  V30 3085 H 303.982 0.00195854 0.670997 0
M  V30 3086 H 306.526 0.645072 1.94059 0
M  V30 3087 H 304.681 -1.08951 3.71764 0
M  V30 3088 H 305.095 0.538857 5.21725 0
M  V30 3089 H 306.569 -1.16193 5.39632 0
M  V30 3090 H 307.046 -1.98939 3.91561 0
M  V30 3091 H 307.652 -0.348699 4.23868 0
M  V30 3092 N 305.967 -1.56429 0.191757 0
M  V30 3093 C 306.93 -2.17707 -0.716688 0
M  V30 3094 C 307.93 -1.13061 -1.14341 0
M  V30 3095 O 309.12 -1.38464 -1.05704 0
M  V30 3096 C 306.252 -2.77644 -1.97804 0
M  V30 3097 H 307.445 -2.99342 -0.1829 0
M  V30 3098 H 304.998 -1.56193 -0.0578566 0
M  V30 3099 H 305.733 -1.99799 -2.55443 0
M  V30 3100 H 305.518 -3.54246 -1.68083 0
M  V30 3101 H 307.008 -3.24708 -2.62592 0
M  V30 3102 N 307.445 0.0818655 -1.57387 0
M  V30 3103 C 308.722 0.815343 -1.77796 0
M  V30 3104 C 309.102 1.96289 -0.77679 0
M  V30 3105 O 308.45 2.27691 0.192106 0
M  V30 3106 C 308.66 1.29765 -3.23978 0
M  V30 3107 C 310.008 1.7351 -3.8753 0
M  V30 3108 O 311.032 1.39356 -3.27808 0
M  V30 3109 O 309.891 2.36708 -4.92576 0
M  V30 3110 H 306.985 0.389914 -0.729312 0
M  V30 3111 H 309.531 0.0627213 -1.69584 0
M  V30 3112 H 308.303 0.47608 -3.88393 0
M  V30 3113 H 307.926 2.11189 -3.36875 0
M  V30 3114 N 308.923 1.53595 0.353017 0
M  V30 3115 C 309.886 1.80232 1.41594 0
M  V30 3116 C 310.886 0.673081 1.46035 0
M  V30 3117 O 312.076 0.941335 1.46576 0
M  V30 3118 C 309.208 1.93578 2.80607 0
M  V30 3119 H 310.401 2.75174 1.19244 0
M  V30 3120 H 307.954 1.44864 0.586872 0
M  V30 3121 H 308.689 1.00746 3.08254 0
M  V30 3122 H 308.474 2.75724 2.78781 0
M  V30 3123 H 309.964 2.15735 3.57558 0
M  V30 3124 N 310.401 -0.613514 1.45168 0
M  V30 3125 C 311.364 -1.7065 1.53007 0
M  V30 3126 C 312.364 -1.5548 0.410184 0
M  V30 3127 O 313.554 -1.60656 0.673455 0
M  V30 3128 C 310.686 -3.09875 1.42093 0
M  V30 3129 H 311.879 -1.65068 2.50385 0
M  V30 3130 H 309.432 -0.828728 1.32521 0
M  V30 3131 H 310.167 -3.21039 0.458769 0
M  V30 3132 H 309.952 -3.22293 2.23315 0
M  V30 3133 H 311.442 -3.895 1.50598 0
M  V30 3134 N 311.879 -1.3236 -0.855495 0
M  V30 3135 C 313.126 -1.22872 -1.60962 0
M  V30 3136 C 313.454 0.209658 -1.93367 0
M  V30 3137 O 312.709 1.16243 -1.57436 0
M  V30 3138 C 313.008 -2.03275 -2.93963 0
M  V30 3139 C 312.674 -3.5264 -2.80991 0
M  V30 3140 C 311.336 -3.93364 -2.7716 0
M  V30 3141 C 313.688 -4.47626 -2.66983 0
M  V30 3142 C 311.016 -5.27319 -2.572 0
M  V30 3143 C 313.368 -5.81723 -2.48558 0
M  V30 3144 C 312.032 -6.2165 -2.4312 0
M  V30 3145 H 311.302 -0.44962 -0.589001 0
M  V30 3146 H 313.949 -1.63777 -0.992442 0
M  V30 3147 H 312.254 -1.55095 -3.59795 0
M  V30 3148 H 313.951 -1.93303 -3.51333 0
M  V30 3149 H 310.541 -3.20295 -2.84797 0
M  V30 3150 H 314.725 -4.17084 -2.68988 0
M  V30 3151 H 309.981 -5.57311 -2.51424 0
M  V30 3152 H 314.155 -6.5494 -2.36699 0
M  V30 3153 H 311.782 -7.25388 -2.27412 0
M  V30 3154 N 313.357 1.07166 -1.15556 0
M  V30 3155 C 314.304 2.14417 -0.854055 0
M  V30 3156 C 315.274 1.64965 0.193806 0
M  V30 3157 O 316.459 1.90703 0.0609443 0
M  V30 3158 C 313.599 3.43304 -0.351574 0
M  V30 3159 C 312.712 4.06537 -1.46123 0
M  V30 3160 C 311.847 5.23266 -0.914677 0
M  V30 3161 C 310.886 5.78464 -2.00114 0
M  V30 3162 N 310.023 6.86521 -1.47083 0
M  V30 3163 H 314.863 2.39548 -1.77259 0
M  V30 3164 H 312.4 1.17543 -0.884425 0
M  V30 3165 H 314.358 4.17179 -0.0419409 0
M  V30 3166 H 312.988 3.18419 0.530037 0
M  V30 3167 H 312.04 3.30297 -1.88701 0
M  V30 3168 H 313.352 4.43567 -2.28144 0
M  V30 3169 H 312.506 6.04131 -0.557698 0
M  V30 3170 H 311.245 4.87658 -0.0636583 0
M  V30 3171 H 310.25 4.96243 -2.36692 0
M  V30 3172 H 311.475 6.16126 -2.85597 0
M  V30 3173 H 309.421 6.52849 -0.642198 0
M  V30 3174 H 309.338 7.22446 -2.22729 0
M  V30 3175 H 310.606 7.71087 -1.14215 0
M  V30 3176 N 314.835 0.952656 1.25548 0
M  V30 3177 C 315.798 0.475794 2.24207 0
M  V30 3178 C 316.798 -0.419428 1.55234 0
M  V30 3179 O 317.988 -0.216994 1.72843 0
M  V30 3180 C 315.12 -0.312814 3.39462 0
M  V30 3181 H 316.313 1.34779 2.67908 0
M  V30 3182 H 313.866 0.735739 1.37901 0
M  V30 3183 H 314.601 -1.20257 3.01179 0
M  V30 3184 H 314.386 0.329404 3.90714 0
M  V30 3185 H 315.876 -0.635986 4.12729 0
M  V30 3186 N 316.313 -1.40141 0.720998 0
M  V30 3187 C 317.276 -2.29058 0.0805834 0
M  V30 3188 C 318.276 -1.45632 -0.681758 0
M  V30 3189 O 319.466 -1.6648 -0.512856 0
M  V30 3190 C 316.598 -3.28925 -0.895593 0
M  V30 3191 H 317.791 -2.87191 0.863793 0
M  V30 3192 H 315.344 -1.48553 0.485975 0
M  V30 3193 H 316.079 -2.75822 -1.70566 0
M  V30 3194 H 315.864 -3.90519 -0.351766 0
M  V30 3195 H 317.354 -3.95494 -1.34069 0
M  V30 3196 N 317.792 -0.46758 -1.50504 0
M  V30 3197 C 318.702 0.33382 -2.32213 0
M  V30 3198 C 319.718 0.999323 -1.42441 0
M  V30 3199 O 320.894 0.988068 -1.75497 0
M  V30 3200 C 317.959 1.4035 -3.17022 0
M  V30 3201 C 317.02 0.754961 -4.2261 0
M  V30 3202 C 316.253 1.77367 -5.03365 0
M  V30 3203 O 316.476 2.99976 -4.8515 0
M  V30 3204 O 315.41 1.34744 -5.86624 0
M  V30 3205 H 319.236 -0.334067 -3.01857 0
M  V30 3206 H 316.821 -0.229496 -1.47627 0
M  V30 3207 H 318.703 2.02318 -3.69656 0
M  V30 3208 H 317.378 2.05492 -2.5011 0
M  V30 3209 H 316.285 0.0964244 -3.73976 0
M  V30 3210 H 317.618 0.146545 -4.91982 0
M  V30 3211 N 319.27 1.56325 -0.20005 0
M  V30 3212 C 320.519 1.96895 0.437652 0
M  V30 3213 C 320.832 1.08999 1.62415 0
M  V30 3214 O 322.038 1.39372 2.32997 0
M  V30 3215 C 320.494 3.50198 0.830025 0
M  V30 3216 C 320.102 4.46765 -0.332461 0
M  V30 3217 C 321.846 3.99526 1.43453 0
M  V30 3218 C 319.753 5.91344 0.0811468 0
M  V30 3219 H 318.683 0.735209 0.167282 0
M  V30 3220 H 321.334 1.81148 -0.292853 0
M  V30 3221 H 319.716 3.61467 1.61734 0
M  V30 3222 H 320.89 4.47231 -1.11 0
M  V30 3223 H 319.205 4.07657 -0.848789 0
M  V30 3224 H 321.802 5.05025 1.75652 0
M  V30 3225 H 322.145 3.44122 2.34277 0
M  V30 3226 H 322.678 3.91393 0.71109 0
M  V30 3227 H 319.417 6.50685 -0.793033 0
M  V30 3228 H 318.937 5.94121 0.823445 0
M  V30 3229 H 320.616 6.44945 0.515252 0
M  V30 3230 N 320.748 -0.0735177 1.57428 0
M  V30 3231 C 321.997 -0.771809 1.86349 0
M  V30 3232 C 322.31 -1.78828 0.792452 0
M  V30 3233 O 323.516 -2.53602 0.96945 0
M  V30 3234 C 321.972 -1.42358 3.30548 0
M  V30 3235 C 321.58 -0.445761 4.45777 0
M  V30 3236 C 323.324 -2.10434 3.6867 0
M  V30 3237 C 321.231 -1.10335 5.81016 0
M  V30 3238 H 320.161 -0.291999 0.695164 0
M  V30 3239 H 322.812 -0.0250749 1.83483 0
M  V30 3240 H 321.194 -2.21852 3.28021 0
M  V30 3241 H 322.368 0.319239 4.59693 0
M  V30 3242 H 320.683 0.130457 4.16196 0
M  V30 3243 H 323.28 -2.60405 4.67004 0
M  V30 3244 H 323.623 -2.90298 2.98383 0
M  V30 3245 H 324.156 -1.37773 3.7318 0
M  V30 3246 H 320.895 -0.345061 6.54591 0
M  V30 3247 H 320.415 -1.83925 5.70904 0
M  V30 3248 H 322.094 -1.62367 6.26295 0
M  V30 3249 N 322.226 -1.5378 -0.344866 0
M  V30 3250 C 323.174 -1.82373 -1.4437 0
M  V30 3251 C 324.168 -0.694128 -1.54526 0
M  V30 3252 O 325.374 -0.877442 -1.57165 0
M  V30 3253 H 321.749 -0.577765 -0.481344 0
M  V30 3254 H 323.72 -2.74306 -1.17468 0
M  V30 3255 C 322.469 -2.04898 -2.80913 0
M  V30 3256 H 321.792 -2.9127 -2.73865 0
M  V30 3257 H 323.232 -2.28871 -3.56923 0
M  V30 3258 C 321.691 -0.834116 -3.26411 0
M  V30 3259 O 322.221 -0.0328885 -4.01687 0
M  V30 3260 N 320.427 -0.65171 -2.83198 0
M  V30 3261 H 319.974 -1.30489 -2.22104 0
M  V30 3262 H 319.932 0.159686 -3.13994 0
M  V30 3263 N 323.704 0.605807 -1.45491 0
M  V30 3264 C 324.932 1.39136 -1.5313 0
M  V30 3265 C 325.347 1.88082 -0.164507 0
M  V30 3266 O 324.704 1.62316 0.834247 0
M  V30 3267 C 324.755 2.59463 -2.51716 0
M  V30 3268 O 324.476 2.12551 -3.83084 0
M  V30 3269 C 325.977 3.52301 -2.6907 0
M  V30 3270 H 323.197 0.425849 -0.51855 0
M  V30 3271 H 325.741 0.73865 -1.90694 0
M  V30 3272 H 323.896 3.20772 -2.17219 0
M  V30 3273 H 324.31 2.90744 -4.36541 0
M  V30 3274 H 325.784 4.33271 -3.42024 0
M  V30 3275 H 326.261 4.02757 -1.75167 0
M  V30 3276 H 326.867 2.96845 -3.04571 0
M  V30 3277 N 325.182 1.32811 0.848464 0
M  V30 3278 C 326.129 1.22265 1.95755 0
M  V30 3279 C 327.099 0.103413 1.65778 0
M  V30 3280 O 328.284 0.280033 1.88734 0
M  V30 3281 C 325.424 0.958014 3.31536 0
M  V30 3282 C 324.537 2.16262 3.73971 0
M  V30 3283 C 323.672 1.83295 4.98575 0
M  V30 3284 C 322.711 3.00041 5.33518 0
M  V30 3285 N 321.848 2.67125 6.49299 0
M  V30 3286 H 326.688 2.17128 2.04107 0
M  V30 3287 H 324.225 1.07982 0.998913 0
M  V30 3288 H 326.183 0.785052 4.09747 0
M  V30 3289 H 324.813 0.046159 3.22767 0
M  V30 3290 H 323.865 2.44565 2.91362 0
M  V30 3291 H 325.177 3.03572 3.95785 0
M  V30 3292 H 324.331 1.62586 5.84509 0
M  V30 3293 H 323.07 0.932078 4.7871 0
M  V30 3294 H 322.075 3.21374 4.46093 0
M  V30 3295 H 323.3 3.90869 5.55336 0
M  V30 3296 H 321.246 1.79586 6.3094 0
M  V30 3297 H 321.163 3.47965 6.71161 0
M  V30 3298 H 322.431 2.49861 7.3837 0
M  V30 3299 N 326.66 -1.06551 1.16123 0
M  V30 3300 C 327.909 -1.78687 0.935622 0
M  V30 3301 C 328.222 -1.88056 -0.538001 0
M  V30 3302 O 329.428 -2.56794 -0.88143 0
M  V30 3303 C 327.884 -3.21143 1.62466 0
M  V30 3304 C 327.492 -3.19949 3.13587 0
M  V30 3305 C 329.236 -3.9783 1.48092 0
M  V30 3306 C 327.143 -4.57108 3.75241 0
M  V30 3307 H 326.073 -0.669712 0.346412 0
M  V30 3308 H 328.724 -1.19534 1.39226 0
M  V30 3309 H 327.106 -3.80539 1.09572 0
M  V30 3310 H 328.28 -2.70151 3.73303 0
M  V30 3311 H 326.595 -2.5676 3.27816 0
M  V30 3312 H 329.192 -4.99217 1.91538 0
M  V30 3313 H 329.535 -4.14078 0.429507 0
M  V30 3314 H 330.068 -3.4495 1.98127 0
M  V30 3315 H 326.807 -4.46065 4.80319 0
M  V30 3316 H 326.327 -5.07111 3.20309 0
M  V30 3317 H 328.006 -5.26069 3.76644 0
M  V30 3318 N 328.138 -0.959301 -1.25041 0
M  V30 3319 C 329.415 -0.533805 -1.88175 0
M  V30 3320 C 329.795 0.988994 -1.865 0
M  V30 3321 O 329.143 1.85677 -1.33177 0
M  V30 3322 C 329.353 -1.11575 -3.30684 0
M  V30 3323 C 330.701 -1.19548 -4.07423 0
M  V30 3324 O 331.725 -1.06765 -3.39823 0
M  V30 3325 O 330.584 -1.39656 -5.28354 0
M  V30 3326 H 327.678 -0.176772 -0.807887 0
M  V30 3327 H 330.224 -1.05303 -1.33076 0
M  V30 3328 H 328.996 -2.15884 -3.26358 0
M  V30 3329 H 328.619 -0.580059 -3.93346 0
M  V30 3330 N 329.616 1.39756 -0.72842 0
M  V30 3331 C 330.548 2.29157 -0.0446202 0
M  V30 3332 C 331.561 1.46484 0.710367 0
M  V30 3333 O 332.75 1.69632 0.55562 0
M  V30 3334 C 329.85 3.24987 0.961071 0
M  V30 3335 C 329.023 4.36572 0.268967 0
M  V30 3336 C 328.082 5.12756 1.18184 0
M  V30 3337 O 327.108 5.6534 0.661794 0
M  V30 3338 N 328.31 5.23331 2.51206 0
M  V30 3339 H 331.075 2.88482 -0.812295 0
M  V30 3340 H 328.636 1.51265 -0.577098 0
M  V30 3341 H 330.628 3.72827 1.57423 0
M  V30 3342 H 329.198 2.66739 1.63 0
M  V30 3343 H 328.418 3.90694 -0.524574 0
M  V30 3344 H 329.706 5.08363 -0.210934 0
M  V30 3345 H 329.104 4.82116 2.9594 0
M  V30 3346 H 327.661 5.74634 3.07634 0
M  V30 3347 N 331.094 0.475555 1.50254 0
M  V30 3348 C 332.342 -0.077738 2.0195 0
M  V30 3349 C 332.663 -1.39813 1.35931 0
M  V30 3350 O 331.933 -1.89249 0.506123 0
M  V30 3351 H 330.513 -0.031719 0.746326 0
M  V30 3352 H 333.175 0.626995 1.84539 0
M  V30 3353 H 332.271 -0.225995 3.11281 0
M  V30 3354 N 332.573 -1.56217 0.208337 0
M  V30 3355 C 333.52 -2.19699 -0.707192 0
M  V30 3356 C 334.49 -1.14836 -1.20008 0
M  V30 3357 O 335.675 -1.4314 -1.26157 0
M  V30 3358 C 332.815 -2.87061 -1.91546 0
M  V30 3359 C 331.928 -4.06483 -1.46271 0
M  V30 3360 C 331.063 -4.61665 -2.62752 0
M  V30 3361 C 330.102 -5.73417 -2.14147 0
M  V30 3362 N 329.239 -6.22948 -3.23853 0
M  V30 3363 H 334.079 -2.97575 -0.159111 0
M  V30 3364 H 331.616 -1.46948 -0.0667874 0
M  V30 3365 H 333.574 -3.24294 -2.62468 0
M  V30 3366 H 332.204 -2.11725 -2.43664 0
M  V30 3367 H 331.256 -3.74825 -0.648886 0
M  V30 3368 H 332.568 -4.87271 -1.06622 0
M  V30 3369 H 331.722 -5.01272 -3.41776 0
M  V30 3370 H 330.461 -3.80013 -3.05682 0
M  V30 3371 H 329.466 -5.33326 -1.33581 0
M  V30 3372 H 330.691 -6.56897 -1.72232 0
M  V30 3373 H 328.637 -5.44213 -3.6629 0
M  V30 3374 H 328.554 -6.98823 -2.88414 0
M  V30 3375 H 329.822 -6.6721 -4.03052 0
M  V30 3376 N 334.051 0.0651679 -1.57465 0
M  V30 3377 C 335.328 0.79644 -1.78651 0
M  V30 3378 C 335.708 1.95454 -0.797566 0
M  V30 3379 O 335.056 2.27882 0.167946 0
M  V30 3380 C 335.266 1.26322 -3.25337 0
M  V30 3381 C 336.614 1.6939 -3.89348 0
M  V30 3382 O 337.638 1.35872 -3.29268 0
M  V30 3383 O 336.497 2.31471 -4.95059 0
M  V30 3384 H 333.591 0.382157 -0.733407 0
M  V30 3385 H 336.137 0.0447311 -1.69641 0
M  V30 3386 H 334.909 0.434859 -3.88876 0
M  V30 3387 H 334.532 2.07604 -3.39096 0
M  V30 3388 N 335.529 1.53961 0.336706 0
M  V30 3389 C 336.776 1.71536 1.07618 0
M  V30 3390 C 337.104 0.482125 1.8843 0
M  V30 3391 O 336.359 -0.536142 1.88213 0
M  V30 3392 C 336.658 2.93493 2.03953 0
M  V30 3393 C 336.324 4.28811 1.39399 0
M  V30 3394 C 334.986 4.65602 1.21523 0
M  V30 3395 C 337.338 5.12844 0.929541 0
M  V30 3396 C 334.666 5.84037 0.558312 0
M  V30 3397 C 337.018 6.31951 0.286505 0
M  V30 3398 C 335.682 6.67432 0.0954869 0
M  V30 3399 H 334.952 0.627696 0.393801 0
M  V30 3400 H 337.599 1.88186 0.354715 0
M  V30 3401 H 335.904 2.71475 2.82504 0
M  V30 3402 H 337.601 3.04285 2.61174 0
M  V30 3403 H 334.191 3.99858 1.54311 0
M  V30 3404 H 338.375 4.84947 1.05548 0
M  V30 3405 H 333.631 6.10097 0.398995 0
M  V30 3406 H 337.805 6.96352 -0.0814376 0
M  V30 3407 H 335.432 7.59063 -0.415579 0
M  V30 3408 N 337.007 -0.598083 1.45811 0
M  V30 3409 C 337.954 -1.7082 1.55207 0
M  V30 3410 C 338.924 -1.61278 0.39732 0
M  V30 3411 O 340.109 -1.80717 0.612038 0
M  V30 3412 C 337.249 -3.09144 1.53376 0
M  V30 3413 C 336.362 -3.29423 2.79472 0
M  V30 3414 C 335.497 -4.57907 2.69248 0
M  V30 3415 C 334.536 -4.71476 3.90354 0
M  V30 3416 N 333.673 -5.9127 3.78608 0
M  V30 3417 H 338.513 -1.62125 2.50039 0
M  V30 3418 H 336.05 -0.790389 1.24062 0
M  V30 3419 H 338.008 -3.89186 1.50301 0
M  V30 3420 H 336.638 -3.16773 0.620876 0
M  V30 3421 H 335.69 -2.43091 2.92594 0
M  V30 3422 H 337.002 -3.3532 3.69272 0
M  V30 3423 H 336.156 -5.46157 2.64192 0
M  V30 3424 H 334.895 -4.54423 1.77063 0
M  V30 3425 H 333.9 -3.81648 3.95759 0
M  V30 3426 H 335.125 -4.76751 4.83617 0
M  V30 3427 H 333.071 -5.88813 2.89199 0
M  V30 3428 H 332.988 -5.98369 4.6205 0
M  V30 3429 H 334.256 -6.81992 3.77501 0
M  V30 3430 N 338.485 -1.33259 -0.841409 0
M  V30 3431 C 339.71 -1.2775 -1.63385 0
M  V30 3432 C 340.135 0.149188 -1.87507 0
M  V30 3433 O 339.493 1.10498 -1.43736 0
M  V30 3434 C 339.541 -2.05571 -2.96265 0
M  V30 3435 O 338.645 -1.41257 -3.87453 0
M  V30 3436 H 337.986 -0.439627 -0.497618 0
M  V30 3437 H 340.516 -1.75782 -1.04699 0
M  V30 3438 H 340.526 -2.16241 -3.45982 0
M  V30 3439 H 339.201 -3.09309 -2.7803 0
M  V30 3440 H 337.778 -1.39217 -3.45938 0
M  V30 3441 N 339.963 1.05934 -1.16686 0
M  V30 3442 C 341.191 1.8249 -0.974929 0
M  V30 3443 C 341.606 1.82679 0.476861 0
M  V30 3444 O 340.963 1.2486 1.33103 0
M  V30 3445 C 341.014 3.28943 -1.49929 0
M  V30 3446 O 340.735 3.28886 -2.89423 0
M  V30 3447 C 342.236 4.22215 -1.35089 0
M  V30 3448 H 339.456 0.575295 -0.345365 0
M  V30 3449 H 342 1.33631 -1.548 0
M  V30 3450 H 340.155 3.751 -0.968423 0
M  V30 3451 H 340.569 4.20493 -3.13506 0
M  V30 3452 H 342.043 5.22987 -1.76603 0
M  V30 3453 H 342.52 4.38195 -0.296935 0
M  V30 3454 H 343.126 3.81907 -1.87155 0
M  V30 3455 N 341.441 0.965919 1.2453 0
M  V30 3456 C 342.688 0.626831 1.92554 0
M  V30 3457 C 343.016 -0.837739 1.75534 0
M  V30 3458 O 342.271 -1.61793 1.10098 0
M  V30 3459 C 342.57 0.945428 3.44669 0
M  V30 3460 C 342.236 2.39785 3.81856 0
M  V30 3461 C 340.898 2.79483 3.91718 0
M  V30 3462 C 343.25 3.34055 4.00071 0
M  V30 3463 C 340.578 4.12496 4.1721 0
M  V30 3464 C 342.93 4.66694 4.27059 0
M  V30 3465 C 341.594 5.06172 4.3514 0
M  V30 3466 H 340.864 0.229374 0.704605 0
M  V30 3467 H 343.511 1.21707 1.4785 0
M  V30 3468 H 341.816 0.272926 3.90848 0
M  V30 3469 H 343.513 0.661484 3.95507 0
M  V30 3470 H 340.103 2.08003 3.74743 0
M  V30 3471 H 344.287 3.04571 3.91855 0
M  V30 3472 H 339.543 4.42709 4.21685 0
M  V30 3473 H 343.717 5.3971 4.40097 0
M  V30 3474 H 341.344 6.09262 4.54646 0
M  V30 3475 N 342.919 -1.39368 0.735821 0
M  V30 3476 C 344.33 -1.83313 0.354015 0
M  V30 3477 C 344.681 -1.61461 -1.11466 0
M  V30 3478 O 343.806 -1.10621 -1.85989 0
M  V30 3479 C 344.401 -3.32781 0.635769 0
M  V30 3480 C 342.96 -3.75142 0.307448 0
M  V30 3481 C 342.107 -2.62358 0.897974 0
M  V30 3482 H 345.058 -1.28349 0.933398 0
M  V30 3483 H 345.079 -3.80388 -0.0921773 0
M  V30 3484 H 344.591 -3.48654 1.70476 0
M  V30 3485 H 342.692 -3.64857 -0.755674 0
M  V30 3486 H 342.805 -4.72532 0.790583 0
M  V30 3487 H 341.169 -2.52624 0.324551 0
M  V30 3488 H 341.952 -2.81036 1.97164 0
M  V30 3489 N 344.397 -0.483516 -1.5 0
M  V30 3490 C 345.33 0.350427 -2.25493 0
M  V30 3491 C 346.308 0.985549 -1.29328 0
M  V30 3492 O 347.492 1.01906 -1.58579 0
M  V30 3493 C 344.619 1.49202 -3.04066 0
M  V30 3494 C 343.665 0.973036 -4.15252 0
M  V30 3495 S 344.498 -0.122237 -5.3536 0
M  V30 3496 C 345.654 1.02294 -6.17484 0
M  V30 3497 H 345.887 -0.290381 -2.95878 0
M  V30 3498 H 343.42 -0.268562 -1.52046 0
M  V30 3499 H 345.378 2.14623 -3.49925 0
M  V30 3500 H 344.039 2.10438 -2.33183 0
M  V30 3501 H 343.232 1.82804 -4.69679 0
M  V30 3502 H 342.834 0.396335 -3.71894 0
M  V30 3503 H 345.126 1.93195 -6.49371 0
M  V30 3504 H 346.069 0.517664 -7.06205 0
M  V30 3505 H 346.477 1.28238 -5.49741 0
M  V30 3506 N 345.875 1.56104 -0.216619 0
M  V30 3507 C 346.807 2.17339 0.72776 0
M  V30 3508 C 347.82 1.14109 1.16116 0
M  V30 3509 O 349.009 1.4111 1.09317 0
M  V30 3510 C 346.109 2.73818 1.99693 0
M  V30 3511 C 345.282 4.02168 1.71988 0
M  V30 3512 C 344.341 4.43259 2.83562 0
M  V30 3513 O 343.367 5.10257 2.52244 0
M  V30 3514 N 344.569 4.08535 4.12407 0
M  V30 3515 H 347.334 2.99005 0.203983 0
M  V30 3516 H 344.895 1.61861 -0.0354289 0
M  V30 3517 H 346.887 2.9828 2.73516 0
M  V30 3518 H 345.457 1.96483 2.43132 0
M  V30 3519 H 344.677 3.85612 0.818337 0
M  V30 3520 H 345.965 4.85907 1.50903 0
M  V30 3521 H 345.363 3.54687 4.40696 0
M  V30 3522 H 343.92 4.37901 4.8279 0
M  V30 3523 N 347.353 -0.0568162 1.57498 0
M  V30 3524 C 348.316 -1.05038 2.03715 0
M  V30 3525 C 349.316 -1.30709 0.936577 0
M  V30 3526 O 350.506 -1.26178 1.20103 0
M  V30 3527 C 347.638 -2.39034 2.43055 0
M  V30 3528 H 348.831 -0.651715 2.92733 0
M  V30 3529 H 346.384 -0.302947 1.53336 0
M  V30 3530 H 347.119 -2.83703 1.57108 0
M  V30 3531 H 346.904 -2.21739 3.2338 0
M  V30 3532 H 348.394 -3.10421 2.79336 0
M  V30 3533 N 348.832 -1.54138 -0.328536 0
M  V30 3534 C 350.057 -1.76378 -1.09112 0
M  V30 3535 C 350.482 -0.508596 -1.81094 0
M  V30 3536 O 349.84 0.539598 -1.73084 0
M  V30 3537 C 349.888 -2.95358 -2.06872 0
M  V30 3538 O 348.992 -2.66556 -3.14677 0
M  V30 3539 H 348.333 -0.584614 -0.314838 0
M  V30 3540 H 350.863 -2.01146 -0.374348 0
M  V30 3541 H 350.873 -3.22566 -2.4983 0
M  V30 3542 H 349.548 -3.86385 -1.5388 0
M  V30 3543 H 348.125 -2.50282 -2.7643 0
M  V30 3544 N 350.31 0.590341 -1.46126 0
M  V30 3545 C 351.556 1.35082 -1.51264 0
M  V30 3546 C 351.889 1.93534 -0.160711 0
M  V30 3547 O 351.164 1.76045 0.826956 0
M  V30 3548 C 351.447 2.48588 -2.6053 0
M  V30 3549 C 351.3 1.95221 -4.05227 0
M  V30 3550 C 352.619 3.50662 -2.6594 0
M  V30 3551 H 349.738 0.489803 -0.550692 0
M  V30 3552 H 352.38 0.663887 -1.78024 0
M  V30 3553 H 350.53 3.07186 -2.37843 0
M  V30 3554 H 352.202 1.41139 -4.39178 0
M  V30 3555 H 350.445 1.26101 -4.15068 0
M  V30 3556 H 351.116 2.77121 -4.77397 0
M  V30 3557 H 353.592 3.01934 -2.86313 0
M  V30 3558 H 352.468 4.27551 -3.44226 0
M  V30 3559 H 352.729 4.07399 -1.71694 0
M  V30 3560 N 351.788 1.33704 0.83433 0
M  V30 3561 C 353.013 1.28615 1.62705 0
M  V30 3562 C 353.438 -0.139242 1.87584 0
M  V30 3563 O 352.796 -1.09734 1.4432 0
M  V30 3564 C 352.844 2.07139 2.95171 0
M  V30 3565 O 351.948 1.4331 3.86699 0
M  V30 3566 H 351.289 0.44226 0.49528 0
M  V30 3567 H 353.819 1.76335 1.03766 0
M  V30 3568 H 353.829 2.18073 3.44831 0
M  V30 3569 H 352.504 3.10779 2.76386 0
M  V30 3570 H 351.081 1.4105 3.45195 0
M  V30 3571 N 353.266 -1.05314 1.17247 0
M  V30 3572 C 354.491 -1.82509 0.985148 0
M  V30 3573 C 354.916 -1.82343 -0.461788 0
M  V30 3574 O 354.274 -1.23151 -1.33055 0
M  V30 3575 C 354.322 -3.26566 1.52929 0
M  V30 3576 O 353.426 -4.05666 0.742225 0
M  V30 3577 H 352.767 -0.564347 0.349869 0
M  V30 3578 H 355.297 -1.32718 1.55715 0
M  V30 3579 H 355.307 -3.77369 1.55103 0
M  V30 3580 H 353.982 -3.26001 2.58256 0
M  V30 3581 H 352.559 -3.64397 0.791794 0
M  V30 3582 N 354.744 -0.972509 -1.24016 0
M  V30 3583 C 355.984 -0.644951 -1.93958 0
M  V30 3584 C 356.348 0.80559 -1.74282 0
M  V30 3585 O 357.549 1.2436 -2.38302 0
M  V30 3586 C 355.82 -1.01521 -3.42678 0
M  V30 3587 S 357.379 -0.802927 -4.31391 0
M  V30 3588 H 354.197 -0.236452 -0.670531 0
M  V30 3589 H 356.799 -1.25048 -1.50277 0
M  V30 3590 H 355.503 -2.06769 -3.54506 0
M  V30 3591 H 355.034 -0.400648 -3.91355 0
M  V30 3592 H 357.049 0.317256 -4.95185 0
M  V30 3593 N 356.222 1.38976 -0.743202 0
M  V30 3594 C 357.47 1.99948 -0.29417 0
M  V30 3595 C 357.791 1.59279 1.12495 0
M  V30 3596 O 357.061 0.844808 1.76748 0
M  V30 3597 H 355.641 0.739473 -0.105774 0
M  V30 3598 H 358.303 1.699 -0.954986 0
M  V30 3599 H 357.399 3.10142 -0.349056 0
M  V30 3600 N 357.7 0.491464 1.49741 0
M  V30 3601 C 358.61 -0.296835 2.32715 0
M  V30 3602 C 359.626 -0.976536 1.44013 0
M  V30 3603 O 360.802 -0.960023 1.77047 0
M  V30 3604 C 357.867 -1.35288 3.19215 0
M  V30 3605 C 356.928 -0.687632 4.23757 0
M  V30 3606 C 356.161 -1.69336 5.06123 0
M  V30 3607 O 356.384 -2.92219 4.89861 0
M  V30 3608 O 355.318 -1.25394 5.88693 0
M  V30 3609 H 359.144 0.382048 3.01287 0
M  V30 3610 H 356.729 0.252953 1.47243 0
M  V30 3611 H 358.611 -1.96411 3.72828 0
M  V30 3612 H 357.286 -2.01487 2.53347 0
M  V30 3613 H 356.193 -0.0369159 3.74082 0
M  V30 3614 H 357.526 -0.0682566 4.92153 0
M  V30 3615 N 359.178 -1.55987 0.224894 0
M  V30 3616 C 360.418 -2.00293 -0.407706 0
M  V30 3617 C 360.782 -1.1093 -1.56711 0
M  V30 3618 O 361.983 -1.44597 -2.26595 0
M  V30 3619 C 360.254 -3.47675 -0.82805 0
M  V30 3620 S 361.813 -4.14 -1.45429 0
M  V30 3621 H 358.631 -0.699152 -0.129256 0
M  V30 3622 H 361.233 -1.92609 0.334967 0
M  V30 3623 H 359.937 -4.10392 0.0253964 0
M  V30 3624 H 359.468 -3.59239 -1.60345 0
M  V30 3625 H 361.483 -4.13465 -2.74337 0
M  V30 3626 N 360.656 0.0484629 -1.57525 0
M  V30 3627 C 361.606 1.06246 -2.01732 0
M  V30 3628 C 362.59 1.33155 -0.903245 0
M  V30 3629 O 363.782 1.33065 -1.16717 0
M  V30 3630 C 360.911 2.36943 -2.48421 0
M  V30 3631 C 359.997 2.13208 -3.6661 0
M  V30 3632 N 360.388 1.5947 -4.80003 0
M  V30 3633 C 358.686 2.43581 -3.7361 0
M  V30 3634 C 359.387 1.51092 -5.61735 0
M  V30 3635 N 358.363 1.9797 -5.0627 0
M  V30 3636 H 362.165 0.640675 -2.86832 0
M  V30 3637 H 359.679 0.255134 -1.60383 0
M  V30 3638 H 361.676 3.10374 -2.78341 0
M  V30 3639 H 360.336 2.79818 -1.64718 0
M  V30 3640 H 361.347 1.28008 -5.01831 0
M  V30 3641 H 358.024 2.89662 -3.00669 0
M  V30 3642 H 359.414 1.10199 -6.62801 0
M  V30 3643 N 362.134 1.5431 0.320358 0
M  V30 3644 C 363.067 1.78769 1.41834 0
M  V30 3645 C 364.045 0.63783 1.49568 0
M  V30 3646 O 365.229 0.875628 1.66928 0
M  V30 3647 C 362.356 1.90712 2.79905 0
M  V30 3648 C 361.402 3.13023 2.89687 0
M  V30 3649 S 362.235 4.71554 2.53766 0
M  V30 3650 C 363.391 4.86408 3.93902 0
M  V30 3651 H 363.624 2.71619 1.20874 0
M  V30 3652 H 361.157 1.45474 0.517377 0
M  V30 3653 H 363.115 1.98279 3.59438 0
M  V30 3654 H 361.776 0.988343 2.98145 0
M  V30 3655 H 360.969 3.18124 3.90913 0
M  V30 3656 H 360.571 3.03803 2.18128 0
M  V30 3657 H 362.863 4.69241 4.88691 0
M  V30 3658 H 363.806 5.88508 3.93782 0
M  V30 3659 H 364.214 4.14689 3.83005 0
M  V30 3660 N 363.613 -0.582584 1.46437 0
M  V30 3661 C 364.841 -1.36682 1.55324 0
M  V30 3662 C 365.256 -1.87796 0.194409 0
M  V30 3663 O 364.613 -1.63623 -0.808318 0
M  V30 3664 C 364.664 -2.55426 2.55812 0
M  V30 3665 O 364.385 -2.0643 3.86417 0
M  V30 3666 C 365.886 -3.47976 2.74641 0
M  V30 3667 H 363.106 -0.417545 0.525259 0
M  V30 3668 H 365.65 -0.708219 1.91845 0
M  V30 3669 H 363.805 -3.17275 2.22295 0
M  V30 3670 H 364.219 -2.83762 4.41111 0
M  V30 3671 H 365.693 -4.27775 3.48874 0
M  V30 3672 H 366.17 -3.99919 1.81553 0
M  V30 3673 H 366.776 -2.91962 3.09255 0
M  V30 3674 N 365.091 -1.34144 -0.827227 0
M  V30 3675 C 366.038 -1.25364 -1.93785 0
M  V30 3676 C 367.008 -0.129774 -1.65592 0
M  V30 3677 O 368.193 -0.310024 -1.88264 0
M  V30 3678 C 365.333 -1.01064 -3.2997 0
M  V30 3679 C 364.446 -2.22185 -3.70484 0
M  V30 3680 C 363.581 -1.91203 -4.95595 0
M  V30 3681 C 362.62 -3.08491 -5.28677 0
M  V30 3682 N 361.757 -2.77421 -6.44967 0
M  V30 3683 H 366.597 -2.20347 -2.00627 0
M  V30 3684 H 364.134 -1.09558 -0.981608 0
M  V30 3685 H 366.092 -0.850139 -4.08446 0
M  V30 3686 H 364.722 -0.0975026 -3.22653 0
M  V30 3687 H 363.774 -2.4917 -2.87434 0
M  V30 3688 H 365.086 -3.0983 -3.90905 0
M  V30 3689 H 364.24 -1.71864 -5.81848 0
M  V30 3690 H 362.979 -1.00812 -4.77167 0
M  V30 3691 H 361.984 -3.28431 -4.40923 0
M  V30 3692 H 363.209 -3.99655 -5.49047 0
M  V30 3693 H 361.155 -1.89601 -6.28003 0
M  V30 3694 H 361.072 -3.58598 -6.6554 0
M  V30 3695 H 362.34 -2.61577 -7.34301 0
M  V30 3696 N 366.569 1.04691 -1.17803 0
M  V30 3697 C 367.817 1.7743 -0.967617 0
M  V30 3698 C 368.138 1.88359 0.504574 0
M  V30 3699 O 367.408 1.40402 1.36617 0
M  V30 3700 H 365.988 0.657242 -0.355024 0
M  V30 3701 H 368.65 1.2638 -1.48371 0
M  V30 3702 H 367.746 2.78924 -1.40027 0
M  V30 3703 N 368.047 0.979072 1.23499 0
M  V30 3704 C 368.995 0.510604 2.26926 0
M  V30 3705 C 369.989 -0.431691 1.63807 0
M  V30 3706 O 371.195 -0.30573 1.77385 0
M  V30 3707 H 367.57 0.146688 0.737554 0
M  V30 3708 H 369.541 1.39466 2.63803 0
M  V30 3709 C 368.29 -0.172658 3.47271 0
M  V30 3710 H 367.613 0.543331 3.96091 0
M  V30 3711 H 369.053 -0.464101 4.21452 0
M  V30 3712 C 367.512 -1.40345 3.06276 0
M  V30 3713 O 368.042 -2.49978 3.14442 0
M  V30 3714 N 366.248 -1.27362 2.61203 0
M  V30 3715 H 365.795 -0.381584 2.54758 0
M  V30 3716 H 365.753 -2.09822 2.34141 0
M  V30 3717 N 369.525 -1.3858 0.750561 0
M  V30 3718 C 370.802 -1.94231 0.231009 0
M  V30 3719 C 371.182 -1.68611 -1.27018 0
M  V30 3720 O 370.53 -1.02296 -2.04323 0
M  V30 3721 C 370.74 -3.44123 0.581428 0
M  V30 3722 C 372.088 -4.2116 0.539389 0
M  V30 3723 O 373.112 -3.52391 0.519541 0
M  V30 3724 O 371.971 -5.43749 0.54765 0
M  V30 3725 H 369.065 -0.825639 0.0474263 0
M  V30 3726 H 371.611 -1.4799 0.830478 0
M  V30 3727 H 370.383 -3.56267 1.61833 0
M  V30 3728 H 370.006 -3.97573 -0.0462047 0
M  V30 3729 N 371.003 -0.499398 -1.49478 0
M  V30 3730 C 371.966 0.268838 -2.27618 0
M  V30 3731 C 372.966 0.895383 -1.33565 0
M  V30 3732 O 374.156 0.760164 -1.56739 0
M  V30 3733 C 371.288 1.38559 -3.11471 0
M  V30 3734 H 372.481 -0.416812 -2.96989 0
M  V30 3735 H 370.034 -0.254313 -1.54217 0
M  V30 3736 H 370.769 2.10544 -2.46661 0
M  V30 3737 H 370.554 0.941797 -3.80621 0
M  V30 3738 H 372.044 1.92678 -3.70493 0
M  V30 3739 N 372.481 1.55866 -0.233164 0
M  V30 3740 C 373.429 2.22176 0.68851 0
M  V30 3741 C 374.423 1.20487 1.19076 0
M  V30 3742 O 375.629 1.38536 1.14925 0
M  V30 3743 H 372.004 0.712511 0.240483 0
M  V30 3744 H 373.975 2.98212 0.105935 0
M  V30 3745 C 372.724 2.92446 1.88071 0
M  V30 3746 H 372.047 3.70458 1.50337 0
M  V30 3747 H 373.487 3.42226 2.50314 0
M  V30 3748 C 371.946 1.95555 2.74335 0
M  V30 3749 O 372.476 1.47986 3.73447 0
M  V30 3750 N 370.682 1.62953 2.40613 0
M  V30 3751 H 370.229 2.01831 1.60069 0
M  V30 3752 H 370.187 0.983886 2.98609 0
M  V30 3753 N 373.959 -0.0401083 1.57549 0
M  V30 3754 C 375.205 -0.728793 1.89895 0
M  V30 3755 C 375.56 -1.73551 0.830535 0
M  V30 3756 O 374.853 -1.90914 -0.162007 0
M  V30 3757 C 375.047 -1.44902 3.26708 0
M  V30 3758 C 374.876 -0.513568 4.46758 0
M  V30 3759 C 373.646 -0.138698 5.0511 0
M  V30 3760 C 375.844 0.203341 5.13898 0
M  V30 3761 N 373.826 0.799159 6.08676 0
M  V30 3762 C 375.197 0.997246 6.11927 0
M  V30 3763 C 377.252 0.271459 4.97159 0
M  V30 3764 C 375.955 1.85299 6.95023 0
M  V30 3765 C 377.981 1.11429 5.80808 0
M  V30 3766 C 377.343 1.89615 6.78399 0
M  V30 3767 H 373.442 -0.241125 0.743897 0
M  V30 3768 H 376.026 0.0108016 1.94697 0
M  V30 3769 H 374.197 -2.15914 3.22856 0
M  V30 3770 H 375.929 -2.08921 3.46603 0
M  V30 3771 H 372.684 -0.498496 4.70969 0
M  V30 3772 H 373.108 1.26227 6.65128 0
M  V30 3773 H 377.75 -0.318709 4.21597 0
M  V30 3774 H 375.468 2.454 7.69938 0
M  V30 3775 H 379.054 1.17038 5.69906 0
M  V30 3776 H 377.934 2.53779 7.42001 0
M  V30 3777 N 375.437 -1.54477 -0.31217 0
M  V30 3778 C 376.4 -1.83923 -1.36766 0
M  V30 3779 C 377.4 -0.711563 -1.44199 0
M  V30 3780 O 378.59 -0.979866 -1.44029 0
M  V30 3781 C 375.722 -2.0095 -2.75376 0
M  V30 3782 H 376.915 -2.78239 -1.11906 0
M  V30 3783 H 374.468 -1.46369 -0.548257 0
M  V30 3784 H 375.203 -1.08883 -3.05475 0
M  V30 3785 H 374.988 -2.83018 -2.71373 0
M  V30 3786 H 376.478 -2.2514 -3.51713 0
M  V30 3787 N 376.915 0.57481 -1.46744 0
M  V30 3788 C 377.862 1.68329 -1.57905 0
M  V30 3789 C 378.832 1.60625 -0.422927 0
M  V30 3790 O 380.017 1.79721 -0.640711 0
M  V30 3791 C 377.157 3.06665 -1.58274 0
M  V30 3792 C 376.27 3.24935 -2.84678 0
M  V30 3793 C 375.405 4.53566 -2.76499 0
M  V30 3794 C 374.444 4.65207 -3.97806 0
M  V30 3795 N 373.581 5.85172 -3.87967 0
M  V30 3796 H 378.421 1.58127 -2.52587 0
M  V30 3797 H 375.958 0.770552 -1.25303 0
M  V30 3798 H 377.916 3.86745 -1.56473 0
M  V30 3799 H 376.546 3.15745 -0.671194 0
M  V30 3800 H 375.598 2.38405 -2.96424 0
M  V30 3801 H 376.91 3.29403 -3.7456 0
M  V30 3802 H 376.064 5.41885 -2.72848 0
M  V30 3803 H 374.803 4.51548 -1.8427 0
M  V30 3804 H 373.808 3.75304 -4.0178 0
M  V30 3805 H 375.033 4.68997 -4.9114 0
M  V30 3806 H 372.979 5.84137 -2.98529 0
M  V30 3807 H 372.896 5.90943 -4.71511 0
M  V30 3808 H 374.164 6.759 -3.88303 0
M  V30 3809 N 378.394 1.34581 0.820102 0
M  V30 3810 C 379.642 1.26845 1.57336 0
M  V30 3811 C 379.963 -0.160667 1.94337 0
M  V30 3812 O 379.233 -1.09396 1.6251 0
M  V30 3813 H 377.813 0.466514 0.583415 0
M  V30 3814 H 380.475 1.68526 0.979027 0
M  V30 3815 H 379.571 1.87513 2.4949 0
M  V30 3816 N 379.872 -1.04064 1.18357 0
M  V30 3817 C 381.121 -1.76662 0.973313 0
M  V30 3818 C 381.434 -1.89154 -0.497991 0
M  V30 3819 O 382.64 -2.58606 -0.826762 0
M  V30 3820 C 381.096 -3.17624 1.69242 0
M  V30 3821 C 380.704 -3.13225 3.20303 0
M  V30 3822 C 382.448 -3.946 1.56497 0
M  V30 3823 C 380.355 -4.49046 3.84853 0
M  V30 3824 H 379.285 -0.662214 0.36054 0
M  V30 3825 H 381.936 -1.16553 1.41731 0
M  V30 3826 H 380.318 -3.78129 1.1762 0
M  V30 3827 H 381.492 -2.62172 3.78949 0
M  V30 3828 H 379.807 -2.49749 3.33189 0
M  V30 3829 H 382.404 -4.95042 2.02084 0
M  V30 3830 H 382.747 -4.13074 0.517243 0
M  V30 3831 H 383.28 -3.4067 2.05399 0
M  V30 3832 H 380.019 -4.35777 4.89672 0
M  V30 3833 H 379.539 -5.00203 3.30994 0
M  V30 3834 H 381.218 -5.17961 3.87718 0
M  V30 3835 N 381.35 -0.985608 -1.22978 0
M  V30 3836 C 382.283 -0.47487 -2.23204 0
M  V30 3837 C 383.261 0.460865 -1.55932 0
M  V30 3838 O 384.445 0.388105 -1.84461 0
M  V30 3839 C 381.572 0.312427 -3.37256 0
M  V30 3840 C 380.618 -0.568219 -4.22698 0
M  V30 3841 S 381.451 -2.01919 -4.95973 0
M  V30 3842 C 382.607 -1.24118 -6.1347 0
M  V30 3843 H 382.84 -1.32419 -2.66181 0
M  V30 3844 H 380.373 -0.792005 -1.32539 0
M  V30 3845 H 382.331 0.760645 -4.03391 0
M  V30 3846 H 380.992 1.13693 -2.92801 0
M  V30 3847 H 380.185 0.0371657 -5.03986 0
M  V30 3848 H 379.787 -0.952897 -3.61657 0
M  V30 3849 H 382.079 -0.505121 -6.75614 0
M  V30 3850 H 383.022 -2.02907 -6.78406 0
M  V30 3851 H 383.43 -0.757669 -5.59392 0
M  V30 3852 N 382.828 1.3818 -0.7579 0
M  V30 3853 C 384.105 1.94106 -0.241306 0
M  V30 3854 C 384.485 1.69282 1.26122 0
M  V30 3855 O 383.833 1.03378 2.03777 0
M  V30 3856 C 384.043 3.43809 -0.59967 0
M  V30 3857 C 385.391 4.20868 -0.561717 0
M  V30 3858 O 386.415 3.5211 -0.538222 0
M  V30 3859 O 385.274 5.43451 -0.576478 0
M  V30 3860 H 382.368 0.825376 -0.0518042 0
M  V30 3861 H 384.914 1.47548 -0.838315 0
M  V30 3862 H 383.686 3.55403 -1.6372 0
M  V30 3863 H 383.309 3.97592 0.0251197 0
M  V30 3864 N 384.306 0.507319 1.49211 0
M  V30 3865 C 385.546 -0.0332372 2.04373 0
M  V30 3866 C 385.91 -1.33694 1.37804 0
M  V30 3867 O 387.111 -1.96213 1.83722 0
M  V30 3868 C 385.382 -0.17599 3.56966 0
M  V30 3869 S 386.941 -0.669882 4.33657 0
M  V30 3870 H 383.759 0.00123603 0.710999 0
M  V30 3871 H 386.361 0.682725 1.83191 0
M  V30 3872 H 385.065 0.778053 4.02957 0
M  V30 3873 H 384.596 -0.917005 3.82563 0
M  V30 3874 H 386.611 -1.93806 4.56786 0
M  V30 3875 N 385.784 -1.5574 0.241426 0
M  V30 3876 C 387.012 -2.03208 -0.389134 0
M  V30 3877 C 387.427 -1.12082 -1.51931 0
M  V30 3878 O 386.784 -0.134183 -1.82006 0
M  V30 3879 C 386.835 -3.50064 -0.902087 0
M  V30 3880 O 386.556 -4.37717 0.18305 0
M  V30 3881 C 388.057 -4.13268 -1.60389 0
M  V30 3882 H 385.277 -0.664509 -0.0931053 0
M  V30 3883 H 387.821 -2.0124 0.36369 0
M  V30 3884 H 385.976 -3.52583 -1.60511 0
M  V30 3885 H 386.39 -5.24097 -0.205579 0
M  V30 3886 H 387.864 -5.17733 -1.91458 0
M  V30 3887 H 388.341 -3.59434 -2.52397 0
M  V30 3888 H 388.947 -4.14655 -0.945576 0
M  V30 3889 N 387.262 0.0317525 -1.57568 0
M  V30 3890 C 388.673 0.578692 -1.77505 0
M  V30 3891 C 389.024 1.75749 -0.872164 0
M  V30 3892 O 388.149 2.16298 -0.0663106 0
M  V30 3893 C 388.744 1.05658 -3.21904 0
M  V30 3894 C 387.303 1.54906 -3.43047 0
M  V30 3895 C 386.45 0.485939 -2.73009 0
M  V30 3896 H 389.401 -0.194475 -1.57504 0
M  V30 3897 H 389.422 1.92404 -3.28269 0
M  V30 3898 H 388.934 0.198422 -3.87592 0
M  V30 3899 H 387.035 2.42915 -2.82529 0
M  V30 3900 H 387.148 1.59841 -4.5165 0
M  V30 3901 H 385.512 0.940354 -2.36705 0
M  V30 3902 H 386.295 -0.362709 -3.41379 0
M  V30 3903 N 388.74 1.54641 0.303973 0
M  V30 3904 C 389.98 1.75516 1.04755 0
M  V30 3905 C 390.344 0.528211 1.84591 0
M  V30 3906 O 391.545 0.614645 2.61678 0
M  V30 3907 C 389.816 3.00685 1.93193 0
M  V30 3908 S 391.375 3.42549 2.74237 0
M  V30 3909 H 388.193 0.616987 0.353339 0
M  V30 3910 H 390.795 1.92842 0.321292 0
M  V30 3911 H 389.499 3.8811 1.33411 0
M  V30 3912 H 389.03 2.85937 2.70191 0
M  V30 3913 H 391.045 2.99386 3.95705 0
M  V30 3914 N 390.218 -0.567019 1.47046 0
M  V30 3915 C 391.168 -1.67018 1.55207 0
M  V30 3916 C 392.152 -1.55543 0.411714 0
M  V30 3917 O 393.344 -1.64192 0.661064 0
M  V30 3918 C 390.473 -3.05801 1.56014 0
M  V30 3919 C 389.559 -3.22515 2.75399 0
M  V30 3920 N 389.95 -3.09329 4.00186 0
M  V30 3921 C 388.248 -3.53493 2.71954 0
M  V30 3922 C 388.949 -3.2847 4.80086 0
M  V30 3923 N 387.925 -3.54352 4.12233 0
M  V30 3924 H 391.727 -1.55377 2.4947 0
M  V30 3925 H 389.241 -0.771503 1.42904 0
M  V30 3926 H 391.238 -3.84996 1.59949 0
M  V30 3927 H 389.898 -3.18561 0.628396 0
M  V30 3928 H 390.909 -2.86863 4.31196 0
M  V30 3929 H 387.586 -3.7284 1.87873 0
M  V30 3930 H 388.976 -3.23326 5.88991 0
M  V30 3931 N 391.696 -1.35014 -0.812953 0
M  V30 3932 C 392.921 -1.31187 -1.60639 0
M  V30 3933 C 393.346 0.109382 -1.87782 0
M  V30 3934 O 392.704 1.07424 -1.46047 0
M  V30 3935 C 392.752 -2.11809 -2.91838 0
M  V30 3936 O 391.856 -1.49444 -3.8437 0
M  V30 3937 H 391.197 -0.450084 -0.488181 0
M  V30 3938 H 393.727 -1.77963 -1.00947 0
M  V30 3939 H 393.737 -2.23531 -3.41318 0
M  V30 3940 H 392.412 -3.15137 -2.71407 0
M  V30 3941 H 390.989 -1.46524 -3.42907 0
M  V30 3942 N 393.175 1.03435 -1.18907 0
M  V30 3943 C 394.423 1.76394 -0.986382 0
M  V30 3944 C 394.744 1.88883 0.484567 0
M  V30 3945 O 394.014 1.41843 1.3512 0
M  V30 3946 H 392.594 0.65344 -0.361975 0
M  V30 3947 H 395.256 1.248 -1.49703 0
M  V30 3948 H 394.352 2.77424 -1.42978 0
M  V30 3949 N 394.653 0.992116 1.22453 0
M  V30 3950 C 395.881 0.685944 1.95198 0
M  V30 3951 C 396.296 -0.749233 1.73297 0
M  V30 3952 O 395.653 -1.50549 1.03156 0
M  V30 3953 C 395.704 0.981395 3.47924 0
M  V30 3954 O 395.425 2.36018 3.6909 0
M  V30 3955 C 396.926 0.692815 4.37853 0
M  V30 3956 H 394.146 0.253821 0.621141 0
M  V30 3957 H 396.69 1.32668 1.55626 0
M  V30 3958 H 394.845 0.386481 3.85467 0
M  V30 3959 H 395.259 2.45884 4.63294 0
M  V30 3960 H 396.733 0.949818 5.43767 0
M  V30 3961 H 397.21 -0.373181 4.37612 0
M  V30 3962 H 397.816 1.26874 4.05935 0
M  V30 3963 N 396.131 -1.37776 0.765217 0
M  V30 3964 C 397.094 -2.28686 0.153416 0
M  V30 3965 C 398.094 -1.47727 -0.635081 0
M  V30 3966 O 399.284 -1.68027 -0.459632 0
M  V30 3967 C 396.416 -3.31608 -0.790495 0
M  V30 3968 H 397.609 -2.84297 0.954723 0
M  V30 3969 H 395.162 -1.46932 0.53299 0
M  V30 3970 H 395.897 -2.81109 -1.61705 0
M  V30 3971 H 395.682 -3.9144 -0.227348 0
M  V30 3972 H 397.172 -3.99559 -1.21419 0
M  V30 3973 N 397.609 -0.515225 -1.4894 0
M  V30 3974 C 398.572 0.244681 -2.2789 0
M  V30 3975 C 399.572 0.881166 -1.34507 0
M  V30 3976 O 400.762 0.743497 -1.57537 0
M  V30 3977 C 397.894 1.35247 -3.12923 0
M  V30 3978 H 399.087 -0.448289 -2.96531 0
M  V30 3979 H 396.64 -0.270656 -1.53939 0
M  V30 3980 H 397.375 2.07916 -2.48881 0
M  V30 3981 H 397.16 0.901374 -3.81599 0
M  V30 3982 H 398.65 1.88737 -3.72516 0
M  V30 3983 N 399.087 1.5561 -0.249682 0
M  V30 3984 C 400.315 2.03411 0.378352 0
M  V30 3985 C 400.73 1.12886 1.51335 0
M  V30 3986 O 400.087 0.143833 1.81932 0
M  V30 3987 C 400.138 3.50537 0.88351 0
M  V30 3988 O 399.859 4.37614 -0.20626 0
M  V30 3989 C 401.36 4.14113 1.58195 0
M  V30 3990 H 398.58 0.664994 0.08958 0
M  V30 3991 H 401.124 2.01044 -0.374357 0
M  V30 3992 H 399.279 3.5343 1.58639 0
M  V30 3993 H 399.693 5.24199 0.177782 0
M  V30 3994 H 401.167 5.18741 1.8871 0
M  V30 3995 H 401.644 3.60767 2.50487 0
M  V30 3996 H 402.25 4.15151 0.923573 0
M  V30 3997 N 400.565 -0.0233959 1.57583 0
M  V30 3998 C 401.497 -1.04994 2.03737 0
M  V30 3999 C 402.51 -1.32125 0.951152 0
M  V30 4000 O 403.699 -1.29512 1.22837 0
M  V30 4001 C 400.799 -2.39026 2.40249 0
M  V30 4002 C 399.972 -2.31171 3.7132 0
M  V30 4003 C 399.031 -3.47698 3.94959 0
M  V30 4004 O 398.057 -3.26937 4.65941 0
M  V30 4005 N 399.259 -4.6976 3.41037 0
M  V30 4006 H 402.024 -0.656507 2.92421 0
M  V30 4007 H 399.585 -0.211235 1.60516 0
M  V30 4008 H 401.577 -3.15712 2.53196 0
M  V30 4009 H 400.147 -2.70194 1.57207 0
M  V30 4010 H 399.367 -1.39547 3.68674 0
M  V30 4011 H 400.655 -2.23071 4.57293 0
M  V30 4012 H 400.053 -4.89528 2.83512 0
M  V30 4013 H 398.61 -5.43791 3.59353 0
M  V30 4014 N 402.043 -1.548 -0.295768 0
M  V30 4015 C 402.991 -1.86874 -1.38495 0
M  V30 4016 C 403.985 -0.742938 -1.52239 0
M  V30 4017 O 405.191 -0.926999 -1.54294 0
M  V30 4018 H 401.566 -0.592786 -0.462719 0
M  V30 4019 H 403.537 -2.77904 -1.08682 0
M  V30 4020 C 402.286 -2.13732 -2.74252 0
M  V30 4021 H 401.609 -2.99835 -2.64459 0
M  V30 4022 H 403.049 -2.4011 -3.49461 0
M  V30 4023 C 401.508 -0.937539 -3.23592 0
M  V30 4024 O 402.038 -0.160665 -4.01379 0
M  V30 4025 N 400.244 -0.741478 -2.80981 0
M  V30 4026 H 399.791 -1.37489 -2.1784 0
M  V30 4027 H 399.749 0.0597103 -3.14343 0
M  V30 4028 N 403.521 0.559213 -1.47345 0
M  V30 4029 C 404.468 1.66645 -1.59682 0
M  V30 4030 C 405.438 1.60168 -0.43994 0
M  V30 4031 O 406.623 1.79031 -0.659736 0
M  V30 4032 C 403.763 3.04969 -1.61518 0
M  V30 4033 C 402.876 3.21897 -2.88108 0
M  V30 4034 C 402.011 4.50608 -2.81294 0
M  V30 4035 C 401.05 4.60961 -4.02717 0
M  V30 4036 N 400.187 5.81024 -3.94151 0
M  V30 4037 H 405.027 1.55439 -2.54249 0
M  V30 4038 H 402.564 0.757219 -1.26113 0
M  V30 4039 H 404.522 3.85064 -1.60566 0
M  V30 4040 H 403.152 3.15015 -0.704645 0
M  V30 4041 H 402.204 2.35248 -2.98936 0
M  V30 4042 H 403.516 3.25412 -3.78032 0
M  V30 4043 H 402.67 5.3896 -2.7858 0
M  V30 4044 H 401.409 4.49568 -1.89049 0
M  V30 4045 H 400.414 3.71021 -4.05738 0
M  V30 4046 H 401.639 4.63761 -4.96087 0
M  V30 4047 H 399.585 5.80938 -3.04708 0
M  V30 4048 H 399.502 5.85909 -4.77752 0
M  V30 4049 H 400.77 6.71744 -3.9545 0
M  V30 4050 N 404.999 1.35443 0.805782 0
M  V30 4051 C 406.246 1.28761 1.56291 0
M  V30 4052 C 406.574 -0.137747 1.94012 0
M  V30 4053 O 405.829 -1.1032 1.61642 0
M  V30 4054 C 406.128 2.14045 2.86216 0
M  V30 4055 C 405.794 3.62826 2.67709 0
M  V30 4056 C 404.456 4.0338 2.6237 0
M  V30 4057 C 406.808 4.57227 2.50186 0
M  V30 4058 C 404.136 5.36501 2.37451 0
M  V30 4059 C 406.488 5.90547 2.26797 0
M  V30 4060 C 405.152 6.30245 2.1988 0
M  V30 4061 H 404.422 0.471171 0.571908 0
M  V30 4062 H 407.069 1.67347 0.930974 0
M  V30 4063 H 405.374 1.68342 3.53791 0
M  V30 4064 H 407.071 2.0621 3.43917 0
M  V30 4065 H 403.661 3.30644 2.72713 0
M  V30 4066 H 407.845 4.2678 2.53323 0
M  V30 4067 H 403.101 5.66259 2.30567 0
M  V30 4068 H 407.275 6.63274 2.12228 0
M  V30 4069 H 404.902 7.33328 2.00333 0
M  V30 4070 N 406.477 -1.02803 1.19454 0
M  V30 4071 C 407.723 -1.76478 0.999171 0
M  V30 4072 C 408.056 -1.88456 -0.468828 0
M  V30 4073 O 407.331 -1.40198 -1.34814 0
M  V30 4074 C 407.614 -3.19044 1.66981 0
M  V30 4075 C 407.467 -3.14932 3.21151 0
M  V30 4076 C 408.786 -4.17456 1.39349 0
M  V30 4077 H 405.905 -0.640614 0.364393 0
M  V30 4078 H 408.547 -1.20005 1.47305 0
M  V30 4079 H 406.697 -3.67263 1.2669 0
M  V30 4080 H 408.369 -2.74605 3.70661 0
M  V30 4081 H 406.612 -2.52625 3.52652 0
M  V30 4082 H 407.283 -4.1566 3.63223 0
M  V30 4083 H 409.759 -3.77842 1.74283 0
M  V30 4084 H 408.635 -5.154 1.88823 0
M  V30 4085 H 408.896 -4.40949 0.318813 0
M  V30 4086 N 407.956 -0.998596 -1.21925 0
M  V30 4087 C 408.904 -0.546641 -2.26085 0
M  V30 4088 C 409.898 0.405576 -1.64473 0
M  V30 4089 O 411.104 0.277471 -1.77849 0
M  V30 4090 H 407.479 -0.158403 -0.735127 0
M  V30 4091 H 409.45 -1.43645 -2.61551 0
M  V30 4092 C 408.199 0.117388 -3.47502 0
M  V30 4093 H 407.522 -0.606277 -3.95176 0
M  V30 4094 H 408.962 0.396993 -4.22137 0
M  V30 4095 C 407.421 1.35455 -3.0847 0
M  V30 4096 O 407.951 2.44944 -3.18379 0
M  V30 4097 N 406.157 1.23191 -2.63196 0
M  V30 4098 H 405.704 0.341006 -2.55333 0
M  V30 4099 H 405.662 2.06071 -2.37449 0
M  V30 4100 N 409.434 1.37368 -0.772513 0
M  V30 4101 C 410.384 2.27613 -0.132823 0
M  V30 4102 C 411.368 1.46138 0.673247 0
M  V30 4103 O 412.56 1.68686 0.536095 0
M  V30 4104 C 409.689 3.35122 0.744864 0
M  V30 4105 C 408.775 4.24044 -0.0690771 0
M  V30 4106 N 409.166 4.93355 -1.1151 0
M  V30 4107 C 407.464 4.45731 0.154782 0
M  V30 4108 C 408.165 5.59 -1.60917 0
M  V30 4109 N 407.141 5.35737 -0.921222 0
M  V30 4110 H 410.943 2.78675 -0.933681 0
M  V30 4111 H 408.457 1.50494 -0.610342 0
M  V30 4112 H 410.454 3.98683 1.21892 0
M  V30 4113 H 409.114 2.85616 1.54446 0
M  V30 4114 H 410.125 4.95785 -1.49726 0
M  V30 4115 H 406.802 4.07096 0.926224 0
M  V30 4116 H 408.192 6.24395 -2.48153 0
M  V30 4117 N 410.912 0.523116 1.48665 0
M  V30 4118 C 412.323 0.0808997 1.86525 0
M  V30 4119 C 412.674 -1.33975 1.43336 0
M  V30 4120 O 411.799 -2.00221 0.821009 0
M  V30 4121 C 412.394 0.140037 3.3851 0
M  V30 4122 C 410.953 -0.246948 3.75589 0
M  V30 4123 C 410.1 0.502845 2.72703 0
M  V30 4124 H 413.051 0.734736 1.40667 0
M  V30 4125 H 413.072 -0.649945 3.74908 0
M  V30 4126 H 412.584 1.17412 3.69914 0
M  V30 4127 H 410.685 -1.28343 3.49798 0
M  V30 4128 H 410.798 0.0878859 4.79019 0
M  V30 4129 H 409.162 -0.0500581 2.54651 0
M  V30 4130 H 409.945 1.53743 3.0695 0
M  V30 4131 O 412.429 -1.56474 0.399779 0
M  V30 4132 H 413.12 -1.93172 -0.142934 0
M  V30 END ATOM
M  V30 BEGIN BOND
M  V30 END BOND
M  V30 END CTAB
M  END
$$$$
