drugbank_target|P81605 Dermcidin (DB01593; DB14487; DB14533; DB14548)
 OpenBabel12092121073D

  0  0  0     0  0            999 V3000
M  V30 BEGIN CTAB
M  V30 COUNTS 1594 1604 0 0 0
M  V30 BEGIN ATOM
M  V30 1 H -0.908 1.98254 -0.117106 0
M  V30 2 N 0 1.576 0 0
M  V30 3 C 0.933 2.03868 1.02534 0
M  V30 4 C 1.911 0.928543 1.3348 0
M  V30 5 O 3.095 1.19667 1.45644 0
M  V30 6 C 0.222 2.43627 2.35294 0
M  V30 7 C -0.732 3.65373 2.2001 0
M  V30 8 S 0.101 5.13292 1.52614 0
M  V30 9 C 1.257 5.56322 2.86805 0
M  V30 10 H 1.49 2.90518 0.631377 0
M  V30 11 H -0.977 1.52953 0.210867 0
M  V30 12 H 0.981 2.67203 3.11629 0
M  V30 13 H -0.358 1.57376 2.7183 0
M  V30 14 H -1.165 3.90944 3.18086 0
M  V30 15 H -1.563 3.418 1.51819 0
M  V30 16 H 0.729 5.58782 3.83104 0
M  V30 17 H 1.672 6.56266 2.65933 0
M  V30 18 H 2.08 4.83886 2.90714 0
M  V30 19 N 1.4781 -0.272755 1.55222 0
M  V30 20 C 2.8941 -0.619959 1.47067 0
M  V30 21 C 3.0941 -1.895 0.684978 0
M  V30 22 O 2.1501 -2.51675 0.203931 0
M  V30 23 C 3.4631 -0.746693 2.91282 0
M  V30 24 C 5.0111 -0.840731 3.01497 0
M  V30 25 C 5.4861 -0.99924 4.46967 0
M  V30 26 N 6.9771 -1.06476 4.50796 0
M  V30 27 C 7.7121 -1.20621 5.6057 0
M  V30 28 N 7.2081 -1.31483 6.80209 0
M  V30 29 N 9.0011 -1.23733 5.48312 0
M  V30 30 H 1.1521 0.564606 2.04758 0
M  V30 31 H 3.4151 0.191177 0.928523 0
M  V30 32 H 3.1211 0.119753 3.51496 0
M  V30 33 H 2.9951 -1.6269 3.40311 0
M  V30 34 H 5.3821 -1.69764 2.41379 0
M  V30 35 H 5.4631 0.0640874 2.5572 0
M  V30 36 H 5.1071 -0.146984 5.07687 0
M  V30 37 H 5.0371 -1.91871 4.90401 0
M  V30 38 H 7.5281 -0.993196 3.64615 0
M  V30 39 H 7.8411 -1.42111 7.59621 0
M  V30 40 H 6.1861 -1.28487 6.8302 0
M  V30 41 H 9.3771 -1.14877 4.53785 0
M  V30 42 H 9.5501 -1.34412 6.33906 0
M  V30 43 N 2.9562 -1.48159 -0.537278 0
M  V30 44 C 4.2032 -1.55804 -1.29349 0
M  V30 45 C 4.5312 -0.228802 -1.9315 0
M  V30 46 O 3.7862 0.780242 -1.79473 0
M  V30 47 C 4.0852 -2.63956 -2.40961 0
M  V30 48 C 3.7512 -4.0662 -1.94861 0
M  V30 49 C 2.4132 -4.45452 -1.82006 0
M  V30 50 C 4.7652 -4.96055 -1.59933 0
M  V30 51 C 2.0932 -5.71531 -1.32547 0
M  V30 52 C 4.4452 -6.22617 -1.11939 0
M  V30 53 C 3.1092 -6.60312 -0.976951 0
M  V30 54 H 2.3792 -0.570129 -0.473322 0
M  V30 55 H 5.0262 -1.81845 -0.600372 0
M  V30 56 H 3.3312 -2.31747 -3.15912 0
M  V30 57 H 5.0282 -2.67089 -2.99107 0
M  V30 58 H 1.6182 -3.75949 -2.05815 0
M  V30 59 H 5.8022 -4.66738 -1.68728 0
M  V30 60 H 1.0582 -5.99468 -1.202 0
M  V30 61 H 5.2322 -6.91318 -0.839811 0
M  V30 62 H 2.8592 -7.57895 -0.591501 0
M  V30 63 N 4.4343 0.785586 -1.36625 0
M  V30 64 C 5.3673 1.90509 -1.25625 0
M  V30 65 C 6.3453 1.62 -0.139607 0
M  V30 66 O 7.5293 1.8591 -0.31141 0
M  V30 67 C 4.6563 3.25419 -0.939158 0
M  V30 68 C 3.7023 3.72856 -2.07077 0
M  V30 69 S 4.5353 3.88162 -3.68904 0
M  V30 70 C 5.6913 5.25942 -3.39317 0
M  V30 71 H 5.9243 1.99549 -2.20381 0
M  V30 72 H 3.4573 0.945226 -1.22085 0
M  V30 73 H 5.4153 4.03346 -0.763029 0
M  V30 74 H 4.0763 3.14099 -0.00931402 0
M  V30 75 H 3.2693 4.70624 -1.80357 0
M  V30 76 H 2.8713 3.01989 -2.20632 0
M  V30 77 H 5.1633 6.10651 -2.93447 0
M  V30 78 H 6.1063 5.57668 -4.36363 0
M  V30 79 H 6.5143 4.93224 -2.74573 0
M  V30 80 N 5.9124 1.20967 1.01018 0
M  V30 81 C 7.1404 1.04956 1.78303 0
M  V30 82 C 7.5554 -0.400915 1.84494 0
M  V30 83 O 6.9124 -1.27826 1.30257 0
M  V30 84 C 6.9634 1.63403 3.22462 0
M  V30 85 O 6.6844 3.02775 3.16637 0
M  V30 86 C 8.1854 1.52432 4.16268 0
M  V30 87 H 5.4054 0.368858 0.560522 0
M  V30 88 H 7.9494 1.60193 1.27116 0
M  V30 89 H 6.1044 1.1227 3.70775 0
M  V30 90 H 6.5184 3.30626 4.07169 0
M  V30 91 H 7.9924 1.98078 5.15237 0
M  V30 92 H 8.4694 0.477875 4.36592 0
M  V30 93 H 9.0754 2.02787 3.73841 0
M  V30 94 N 7.3905 -1.2043 1.01659 0
M  V30 95 C 8.3205 -2.25466 0.607226 0
M  V30 96 C 9.3015 -1.65853 -0.377716 0
M  V30 97 O 10.4865 -1.92409 -0.263149 0
M  V30 98 C 7.6165 -3.47256 -0.0552949 0
M  V30 99 C 6.5705 -4.19462 0.850632 0
M  V30 100 C 5.8965 -5.34673 0.0538859 0
M  V30 101 C 7.1965 -4.75603 2.15868 0
M  V30 102 H 8.8905 -2.59962 1.48526 0
M  V30 103 H 6.4365 -1.2496 0.715605 0
M  V30 104 H 8.3895 -4.19917 -0.353233 0
M  V30 105 H 7.1135 -3.11924 -0.968045 0
M  V30 106 H 5.7725 -3.48667 1.13257 0
M  V30 107 H 5.4205 -4.95585 -0.860514 0
M  V30 108 H 5.1205 -5.83913 0.657192 0
M  V30 109 H 6.6445 -6.10138 -0.237598 0
M  V30 110 H 8.0585 -5.40083 1.92311 0
M  V30 111 H 6.4555 -5.3528 2.71284 0
M  V30 112 H 7.5255 -3.94346 2.82169 0
M  V30 113 N 8.8686 -0.792821 -1.36206 0
M  V30 114 C 9.7986 -0.207853 -2.32573 0
M  V30 115 C 10.7796 0.659055 -1.56813 0
M  V30 116 O 11.9646 0.592176 -1.84951 0
M  V30 117 C 9.0946 0.655449 -3.41059 0
M  V30 118 C 8.0486 -0.111842 -4.27854 0
M  V30 119 C 7.3746 0.872274 -5.27537 0
M  V30 120 C 8.6746 -1.30299 -5.05786 0
M  V30 121 H 10.3686 -1.01294 -2.81744 0
M  V30 122 H 7.9146 -0.48854 -1.3546 0
M  V30 123 H 9.8676 1.07464 -4.07467 0
M  V30 124 H 8.5916 1.49328 -2.90463 0
M  V30 125 H 7.2506 -0.512053 -3.63006 0
M  V30 126 H 6.8986 1.70523 -4.73214 0
M  V30 127 H 6.5986 0.363291 -5.86476 0
M  V30 128 H 8.1226 1.28996 -5.96818 0
M  V30 129 H 9.5366 -0.959379 -5.65216 0
M  V30 130 H 7.9336 -1.7455 -5.74154 0
M  V30 131 H 9.0036 -2.09663 -4.37229 0
M  V30 132 N 10.3467 1.47872 -0.545128 0
M  V30 133 C 11.5937 2.02493 -0.0165858 0
M  V30 134 C 11.9217 1.42073 1.32836 0
M  V30 135 O 11.1767 0.561459 1.87473 0
M  V30 136 C 11.4757 3.57131 0.13867 0
M  V30 137 C 11.1417 4.36411 -1.13384 0
M  V30 138 C 9.8037 4.57792 -1.48256 0
M  V30 139 C 12.1557 4.82223 -1.97764 0
M  V30 140 C 9.4837 5.22233 -2.67376 0
M  V30 141 C 11.8357 5.47977 -3.16076 0
M  V30 142 C 10.4997 5.67593 -3.51275 0
M  V30 143 H 9.7697 0.740975 -0.00606918 0
M  V30 144 H 12.4167 1.77683 -0.714207 0
M  V30 145 H 10.7217 3.80865 0.919172 0
M  V30 146 H 12.4187 3.97031 0.562782 0
M  V30 147 H 9.0087 4.2004 -0.852297 0
M  V30 148 H 13.1927 4.65493 -1.72132 0
M  V30 149 H 8.4487 5.35616 -2.94831 0
M  V30 150 H 12.6227 5.8244 -3.81755 0
M  V30 151 H 10.2497 6.17298 -4.43675 0
M  V30 152 N 11.8248 0.280983 1.55075 0
M  V30 153 C 12.7548 -0.597469 2.25727 0
M  V30 154 C 13.7358 -1.15417 1.24952 0
M  V30 155 O 14.9208 -1.18722 1.53684 0
M  V30 156 C 12.0508 -1.7789 2.98283 0
M  V30 157 C 11.0048 -1.35347 4.06036 0
M  V30 158 C 10.3308 -2.61846 4.66198 0
M  V30 159 C 11.6308 -0.499354 5.19907 0
M  V30 160 H 13.3248 -0.00824265 2.99399 0
M  V30 161 H 10.8708 -0.0025244 1.44 0
M  V30 162 H 12.8238 -2.39937 3.46422 0
M  V30 163 H 11.5478 -2.39405 2.22155 0
M  V30 164 H 10.2068 -0.756156 3.58717 0
M  V30 165 H 9.8548 -3.21632 3.86732 0
M  V30 166 H 9.5548 -2.3409 5.38958 0
M  V30 167 H 11.0788 -3.24732 5.1709 0
M  V30 168 H 12.4928 -1.02498 5.64063 0
M  V30 169 H 10.8898 -0.316424 5.99265 0
M  V30 170 H 11.9598 0.480459 4.82514 0
M  V30 171 N 13.3029 -1.57598 0.00835791 0
M  V30 172 C 14.5309 -1.95214 -0.68549 0
M  V30 173 C 14.9459 -0.883706 -1.66841 0
M  V30 174 O 14.3029 0.136565 -1.81988 0
M  V30 175 C 14.3539 -3.32865 -1.41007 0
M  V30 176 O 14.0749 -4.35609 -0.466552 0
M  V30 177 C 15.5759 -3.84991 -2.19765 0
M  V30 178 H 12.7959 -0.643422 -0.190392 0
M  V30 179 H 15.3399 -2.04406 0.0619607 0
M  V30 180 H 13.4949 -3.24956 -2.10908 0
M  V30 181 H 13.9089 -5.15288 -0.978699 0
M  V30 182 H 15.3829 -4.8371 -2.65948 0
M  V30 183 H 15.8599 -3.18137 -3.02796 0
M  V30 184 H 16.4659 -3.96103 -1.54864 0
M  V30 185 N 14.781 0.264519 -1.55364 0
M  V30 186 C 15.744 1.31046 -1.88042 0
M  V30 187 C 16.744 1.41943 -0.755569 0
M  V30 188 O 17.934 1.40947 -1.02369 0
M  V30 189 C 15.066 2.69067 -2.09323 0
M  V30 190 H 16.259 1.03297 -2.81549 0
M  V30 191 H 13.812 0.502989 -1.47986 0
M  V30 192 H 14.547 3.01982 -1.18226 0
M  V30 193 H 14.332 2.62542 -2.91229 0
M  V30 194 H 15.822 3.44623 -2.35848 0
M  V30 195 N 16.2591 1.48442 0.529413 0
M  V30 196 C 17.1891 1.65902 1.64313 0
M  V30 197 C 18.1701 0.507897 1.6234 0
M  V30 198 O 19.3551 0.740503 1.79528 0
M  V30 199 C 16.4851 1.69911 3.02898 0
M  V30 200 C 15.4391 2.8453 3.19729 0
M  V30 201 C 14.7651 2.73629 4.59381 0
M  V30 202 C 16.0651 4.25821 3.02447 0
M  V30 203 H 17.7591 2.5914 1.49955 0
M  V30 204 H 15.3051 1.24709 0.719982 0
M  V30 205 H 17.2581 1.80715 3.80684 0
M  V30 206 H 15.9821 0.732524 3.18279 0
M  V30 207 H 14.6411 2.73283 2.44361 0
M  V30 208 H 14.2891 1.74938 4.71599 0
M  V30 209 H 13.9891 3.50541 4.71588 0
M  V30 210 H 15.5131 2.86401 5.39265 0
M  V30 211 H 16.9271 4.37898 3.70024 0
M  V30 212 H 15.3241 5.03735 3.26146 0
M  V30 213 H 16.3941 4.42244 1.98867 0
M  V30 214 N 17.7372 -0.778329 1.37039 0
M  V30 215 C 18.7002 -1.87301 1.32102 0
M  V30 216 C 19.7002 -1.59198 0.226405 0
M  V30 217 O 20.8902 -1.67403 0.481861 0
M  V30 218 C 18.0222 -3.24309 1.05055 0
M  V30 219 H 19.2152 -1.93093 2.29467 0
M  V30 220 H 16.7682 -0.977358 1.21973 0
M  V30 221 H 17.5032 -3.24196 0.0819373 0
M  V30 222 H 17.2882 -3.46098 1.84279 0
M  V30 223 H 18.7782 -4.04382 1.04234 0
M  V30 224 N 19.2153 -1.21501 -1.00376 0
M  V30 225 C 20.4633 -1.03095 -1.73827 0
M  V30 226 C 20.7843 0.436341 -1.90055 0
M  V30 227 O 20.0543 1.31466 -1.45236 0
M  V30 228 H 18.6343 -0.378487 -0.644016 0
M  V30 229 H 21.2963 -1.52831 -1.20949 0
M  V30 230 H 20.3923 -1.49991 -2.73695 0
M  V30 231 N 20.6934 1.19889 -1.02296 0
M  V30 232 C 21.6564 2.21116 -0.603351 0
M  V30 233 C 22.6564 1.5738 0.329884 0
M  V30 234 O 23.8464 1.73802 0.117702 0
M  V30 235 C 20.9784 3.40696 0.117992 0
M  V30 236 H 22.1714 2.59754 -1.49893 0
M  V30 237 H 19.7244 1.33463 -0.813468 0
M  V30 238 H 20.4594 3.07569 1.0282 0
M  V30 239 H 20.2444 3.88188 -0.552511 0
M  V30 240 H 21.7344 4.15692 0.398696 0
M  V30 241 N 22.1715 0.800033 1.35784 0
M  V30 242 C 23.1015 0.220184 2.3246 0
M  V30 243 C 24.0825 -0.65073 1.57161 0
M  V30 244 O 25.2675 -0.582359 1.85263 0
M  V30 245 C 22.3975 -0.637353 3.41402 0
M  V30 246 C 21.3515 0.134531 4.27789 0
M  V30 247 C 20.6775 -0.844285 5.27992 0
M  V30 248 C 21.9775 1.32979 5.05088 0
M  V30 249 H 23.6715 1.02787 2.81203 0
M  V30 250 H 21.2175 0.495717 1.35199 0
M  V30 251 H 23.1705 -1.05302 4.08031 0
M  V30 252 H 21.8945 -1.47785 2.91251 0
M  V30 253 H 20.5535 0.531296 3.6273 0
M  V30 254 H 20.2015 -1.68011 4.74111 0
M  V30 255 H 19.9015 -0.332184 5.8666 0
M  V30 256 H 21.4255 -1.2583 5.97494 0
M  V30 257 H 22.8395 0.98934 5.64699 0
M  V30 258 H 21.2365 1.77593 5.7322 0
M  V30 259 H 22.3065 2.11978 4.36111 0
M  V30 260 N 23.6496 -1.47581 0.552962 0
M  V30 261 C 24.8956 -2.02782 0.0273648 0
M  V30 262 C 25.2286 -1.42687 -1.31734 0
M  V30 263 O 24.5036 -0.580897 -1.85623 0
M  V30 264 C 24.7866 -3.60031 -0.0702371 0
M  V30 265 C 24.6396 -4.30566 1.30126 0
M  V30 266 C 25.9586 -4.33028 -0.785771 0
M  V30 267 H 23.0776 -0.736912 0.0114185 0
M  V30 268 H 25.7196 -1.76056 0.714432 0
M  V30 269 H 23.8696 -3.82932 -0.655382 0
M  V30 270 H 25.5416 -4.19018 1.92929 0
M  V30 271 H 23.7846 -3.91086 1.87709 0
M  V30 272 H 24.4556 -5.39114 1.18573 0
M  V30 273 H 26.9316 -4.15095 -0.288982 0
M  V30 274 H 25.8076 -5.42695 -0.823013 0
M  V30 275 H 26.0686 -4.01945 -1.841 0
M  V30 276 N 25.1277 -0.289203 -1.54924 0
M  V30 277 C 26.3677 0.324536 -2.01807 0
M  V30 278 C 26.7317 1.5199 -1.17316 0
M  V30 279 O 27.9327 2.20422 -1.53843 0
M  V30 280 C 26.2037 0.683578 -3.50802 0
M  V30 281 S 27.7627 1.28185 -4.19659 0
M  V30 282 H 24.5807 0.100236 -0.703899 0
M  V30 283 H 27.1827 -0.414325 -1.91059 0
M  V30 284 H 25.8867 -0.195073 -4.09936 0
M  V30 285 H 25.4177 1.45354 -3.65562 0
M  V30 286 H 27.4327 2.57006 -4.24456 0
M  V30 287 N 26.6058 1.57591 -0.0167156 0
M  V30 288 C 27.5688 2.08393 0.954204 0
M  V30 289 C 28.5688 0.996531 1.26198 0
M  V30 290 O 29.7588 1.25858 1.20438 0
M  V30 291 C 26.8908 2.5394 2.27436 0
M  V30 292 H 28.0838 2.95455 0.514451 0
M  V30 293 H 25.6368 1.54582 0.231089 0
M  V30 294 H 26.3718 1.70171 2.76066 0
M  V30 295 H 26.1568 3.33371 2.06412 0
M  V30 296 H 27.6468 2.93512 2.97053 0
M  V30 297 N 28.0839 -0.256276 1.55502 0
M  V30 298 C 29.3139 -1.00196 1.80677 0
M  V30 299 C 29.7219 -1.79805 0.588797 0
M  V30 300 O 29.0649 -1.78055 -0.451883 0
M  V30 301 C 29.1269 -1.99515 2.99055 0
M  V30 302 C 28.7909 -1.38688 4.35448 0
M  V30 303 C 29.7879 -0.794079 5.138 0
M  V30 304 C 27.4729 -1.40906 4.82132 0
M  V30 305 C 29.4669 -0.231562 6.36979 0
M  V30 306 C 27.1539 -0.842684 6.05262 0
M  V30 307 C 28.1519 -0.254953 6.82524 0
M  V30 308 O 27.8399 0.3027 8.0333 0
M  V30 309 H 27.5719 -0.300919 0.60533 0
M  V30 310 H 30.1259 -0.287307 2.03381 0
M  V30 311 H 28.3559 -2.74785 2.72084 0
M  V30 312 H 30.0449 -2.60349 3.11405 0
M  V30 313 H 30.8109 -0.769519 4.78856 0
M  V30 314 H 26.6899 -1.85591 4.21992 0
M  V30 315 H 30.2339 0.227816 6.97228 0
M  V30 316 H 26.1309 -0.86454 6.39684 0
M  V30 317 H 26.8989 0.193662 8.18271 0
M  V30 318 N 29.562 -1.4872 -0.521534 0
M  V30 319 C 30.839 -1.4766 -1.2828 0
M  V30 320 C 31.219 -0.19292 -2.10217 0
M  V30 321 O 30.567 0.825193 -2.13079 0
M  V30 322 C 30.777 -2.74358 -2.15705 0
M  V30 323 C 32.125 -3.23028 -2.75569 0
M  V30 324 O 33.149 -2.75333 -2.25987 0
M  V30 325 O 32.008 -4.0604 -3.65778 0
M  V30 326 H 29.102 -0.590085 -0.579421 0
M  V30 327 H 31.648 -1.60963 -0.537492 0
M  V30 328 H 30.42 -3.59292 -1.54999 0
M  V30 329 H 30.043 -2.63816 -2.97467 0
M  V30 330 N 31.0401 0.771051 -1.3745 0
M  V30 331 C 32.4511 1.34737 -1.29239 0
M  V30 332 C 32.8021 1.96109 0.0596908 0
M  V30 333 O 31.9271 1.93865 0.961534 0
M  V30 334 C 32.5221 2.44973 -2.34037 0
M  V30 335 C 31.0811 2.98372 -2.29458 0
M  V30 336 C 30.2281 1.71595 -2.17831 0
M  V30 337 H 33.1791 0.571256 -1.48062 0
M  V30 338 H 33.2001 3.24471 -1.98744 0
M  V30 339 H 32.7121 2.00276 -3.32432 0
M  V30 340 H 30.8131 3.47443 -1.34589 0
M  V30 341 H 30.9261 3.53939 -3.229 0
M  V30 342 H 29.2901 1.94547 -1.64388 0
M  V30 343 H 30.0731 1.29001 -3.18141 0
M  V30 344 N 32.5182 1.22032 0.997298 0
M  V30 345 C 33.4282 1.00271 2.12092 0
M  V30 346 C 34.4442 -0.047621 1.73935 0
M  V30 347 O 35.6202 0.144136 2.00884 0
M  V30 348 C 32.6852 0.578449 3.4184 0
M  V30 349 C 31.7462 1.70189 3.94125 0
M  V30 350 C 30.9792 1.29778 5.17681 0
M  V30 351 O 31.2022 0.174676 5.70132 0
M  V30 352 O 30.1362 2.11261 5.63607 0
M  V30 353 H 33.9622 1.94398 2.3333 0
M  V30 354 H 31.5472 1.00587 1.10465 0
M  V30 355 H 33.4292 0.351998 4.19927 0
M  V30 356 H 32.1042 -0.334019 3.21972 0
M  V30 357 H 31.0112 1.98282 3.1723 0
M  V30 358 H 32.3442 2.59206 4.18417 0
M  V30 359 N 33.9963 -1.19345 1.0293 0
M  V30 360 C 34.9593 -2.20793 0.615069 0
M  V30 361 C 35.9593 -1.57553 -0.321533 0
M  V30 362 O 37.1493 -1.73862 -0.108483 0
M  V30 363 C 34.2813 -3.40754 -0.0999222 0
M  V30 364 H 35.4743 -2.58955 1.51269 0
M  V30 365 H 33.0273 -1.3303 0.820534 0
M  V30 366 H 33.7623 -3.0811 -1.01187 0
M  V30 367 H 33.5473 -3.87889 0.57309 0
M  V30 368 H 35.0373 -4.15898 -0.376645 0
M  V30 369 N 35.4744 -0.807222 -1.35358 0
M  V30 370 C 36.4374 -0.223665 -2.28106 0
M  V30 371 C 37.4374 0.589354 -1.4961 0
M  V30 372 O 38.6274 0.407745 -1.69361 0
M  V30 373 C 35.7594 0.688149 -3.33882 0
M  V30 374 H 36.9524 -1.04169 -2.81227 0
M  V30 375 H 34.5054 -0.577921 -1.45223 0
M  V30 376 H 35.2404 1.52984 -2.85948 0
M  V30 377 H 35.0254 0.10687 -3.91954 0
M  V30 378 H 36.5154 1.09075 -4.03104 0
M  V30 379 N 36.9525 1.47285 -0.560781 0
M  V30 380 C 38.1775 2.07359 -0.0410566 0
M  V30 381 C 38.6025 1.41017 1.24483 0
M  V30 382 O 37.9605 0.486368 1.74654 0
M  V30 383 C 38.0085 3.6035 0.134123 0
M  V30 384 O 37.1125 3.94681 1.19587 0
M  V30 385 H 36.4535 0.661887 -0.0529291 0
M  V30 386 H 38.9835 1.89252 -0.777482 0
M  V30 387 H 38.9935 4.0652 0.347207 0
M  V30 388 H 37.6685 4.08034 -0.805047 0
M  V30 389 H 36.2455 3.60251 0.962987 0
M  V30 390 N 38.4306 0.297415 1.54768 0
M  V30 391 C 39.3936 -0.567375 2.22066 0
M  V30 392 C 40.3936 -1.06409 1.20556 0
M  V30 393 O 41.5836 -0.960691 1.45315 0
M  V30 394 C 38.7156 -1.78517 2.90421 0
M  V30 395 H 39.9086 0.0205534 2.99893 0
M  V30 396 H 37.4616 0.0482163 1.56226 0
M  V30 397 H 38.1966 -2.41303 2.16664 0
M  V30 398 H 37.9816 -1.43669 3.64831 0
M  V30 399 H 39.4716 -2.39964 3.41771 0
M  V30 400 N 39.9087 -1.5758 0.0250728 0
M  V30 401 C 41.3197 -1.79476 -0.514323 0
M  V30 402 C 41.6707 -0.934956 -1.72491 0
M  V30 403 O 40.7957 -0.144245 -2.15919 0
M  V30 404 C 41.3907 -3.25503 -0.939842 0
M  V30 405 C 39.9497 -3.48408 -1.42438 0
M  V30 406 C 39.0967 -2.74583 -0.387201 0
M  V30 407 H 42.0477 -1.567 0.25113 0
M  V30 408 H 42.0687 -3.34992 -1.80445 0
M  V30 409 H 41.5807 -3.88056 -0.0585628 0
M  V30 410 H 39.6817 -2.91103 -2.32572 0
M  V30 411 H 39.7947 -4.57119 -1.43455 0
M  V30 412 H 38.1587 -2.39942 -0.854409 0
M  V30 413 H 38.9417 -3.39849 0.485543 0
M  V30 414 N 41.3868 0.248026 -1.55636 0
M  V30 415 C 42.6348 0.974295 -1.77065 0
M  V30 416 C 42.9558 1.85897 -0.588849 0
M  V30 417 O 42.2258 1.91868 0.395407 0
M  V30 418 H 40.8058 0.362733 -0.653019 0
M  V30 419 H 43.4678 0.266244 -1.93073 0
M  V30 420 H 42.5638 1.59667 -2.68166 0
M  V30 421 N 42.8649 1.48995 0.513639 0
M  V30 422 C 44.0899 1.61792 1.29762 0
M  V30 423 C 44.5149 0.284475 1.85936 0
M  V30 424 O 43.8729 -0.746185 1.65232 0
M  V30 425 C 43.9209 2.67993 2.41272 0
M  V30 426 O 43.0249 2.26287 3.44772 0
M  V30 427 H 42.3659 0.541963 0.38363 0
M  V30 428 H 44.8959 1.95097 0.616307 0
M  V30 429 H 44.9059 2.89772 2.87221 0
M  V30 430 H 43.5809 3.64791 1.9975 0
M  V30 431 H 42.1579 2.14788 3.04829 0
M  V30 432 N 44.343 -0.763751 1.37857 0
M  V30 433 C 45.591 -1.51957 1.33243 0
M  V30 434 C 45.912 -1.94835 -0.0801709 0
M  V30 435 O 45.182 -1.66894 -1.02582 0
M  V30 436 H 43.762 -0.563626 0.49024 0
M  V30 437 H 46.424 -0.908504 1.7243 0
M  V30 438 H 45.52 -2.41523 1.97669 0
M  V30 439 N 45.8211 -1.22559 -0.990812 0
M  V30 440 C 46.7691 -0.994798 -2.10253 0
M  V30 441 C 47.7631 0.0627798 -1.69284 0
M  V30 442 O 48.9691 -0.0898392 -1.79776 0
M  V30 443 H 45.3441 -0.304527 -0.687581 0
M  V30 444 H 47.3151 -1.93812 -2.26891 0
M  V30 445 C 46.0641 -0.591439 -3.42633 0
M  V30 446 H 45.3871 -1.3969 -3.74602 0
M  V30 447 H 46.8271 -0.469385 -4.21394 0
M  V30 448 C 45.2861 0.699232 -3.29564 0
M  V30 449 O 45.8161 1.75112 -3.61523 0
M  V30 450 N 44.0221 0.671182 -2.82743 0
M  V30 451 H 43.5691 -0.185136 -2.56934 0
M  V30 452 H 43.5271 1.53502 -2.7438 0
M  V30 453 N 47.2992 1.18797 -1.03562 0
M  V30 454 C 48.7102 1.70322 -0.764676 0
M  V30 455 C 49.0612 1.82708 0.714996 0
M  V30 456 O 48.1862 1.50299 1.55689 0
M  V30 457 C 48.7812 3.09356 -1.38145 0
M  V30 458 C 47.3402 3.58114 -1.15895 0
M  V30 459 C 46.4872 2.34798 -1.4753 0
M  V30 460 H 49.4382 1.03543 -1.20268 0
M  V30 461 H 49.4592 3.72378 -0.781977 0
M  V30 462 H 48.9712 3.00309 -2.45837 0
M  V30 463 H 47.0722 3.72464 -0.100544 0
M  V30 464 H 47.1852 4.4184 -1.8524 0
M  V30 465 H 45.5492 2.38464 -0.894829 0
M  V30 466 H 46.3322 2.28375 -2.56319 0
M  V30 467 N 48.7773 0.814389 1.34928 0
M  V30 468 C 50.0173 0.404165 2.00364 0
M  V30 469 C 50.3813 -1.01166 1.63185 0
M  V30 470 O 51.5823 -1.52431 2.21401 0
M  V30 471 C 49.8533 0.590718 3.52484 0
M  V30 472 S 51.4123 0.272075 4.37956 0
M  V30 473 H 48.2303 0.15311 0.694319 0
M  V30 474 H 50.8323 1.05834 1.64376 0
M  V30 475 H 49.5363 1.62099 3.77031 0
M  V30 476 H 49.0673 -0.0785013 3.93322 0
M  V30 477 H 51.0823 -0.917405 4.87645 0
M  V30 478 N 50.2554 -1.46986 0.568584 0
M  V30 479 C 51.2054 -2.27179 -0.193339 0
M  V30 480 C 52.1894 -1.35035 -0.874895 0
M  V30 481 O 53.3814 -1.5931 -0.771322 0
M  V30 482 C 50.5104 -3.21063 -1.21546 0
M  V30 483 C 49.5964 -4.2069 -0.536738 0
M  V30 484 N 49.9874 -5.04218 0.399673 0
M  V30 485 C 48.2854 -4.38961 -0.789254 0
M  V30 486 C 48.9864 -5.76242 0.795017 0
M  V30 487 N 47.9624 -5.434 0.1473 0
M  V30 488 H 51.7644 -2.89146 0.526458 0
M  V30 489 H 49.2784 -1.57664 0.389342 0
M  V30 490 H 51.2754 -3.77209 -1.77536 0
M  V30 491 H 49.9354 -2.60654 -1.93623 0
M  V30 492 H 50.9464 -5.12077 0.774454 0
M  V30 493 H 47.6234 -3.89713 -1.49767 0
M  V30 494 H 49.0134 -6.53417 1.56513 0
M  V30 495 N 51.7335 -0.305618 -1.54608 0
M  V30 496 C 52.6435 0.57778 -2.27374 0
M  V30 497 C 53.6595 1.14451 -1.31061 0
M  V30 498 O 54.8355 1.16831 -1.6405 0
M  V30 499 C 51.9005 1.73123 -3.00382 0
M  V30 500 C 50.9615 1.19812 -4.12242 0
M  V30 501 C 50.1945 2.2966 -4.81759 0
M  V30 502 O 50.4175 3.49651 -4.50666 0
M  V30 503 O 49.3515 1.96091 -5.69062 0
M  V30 504 H 53.1775 -0.012624 -3.03697 0
M  V30 505 H 50.7625 -0.0719184 -1.49227 0
M  V30 506 H 52.6445 2.40315 -3.4616 0
M  V30 507 H 51.3195 2.30815 -2.26949 0
M  V30 508 H 50.2265 0.491798 -3.70853 0
M  V30 509 H 51.5595 0.666566 -4.87666 0
M  V30 510 N 53.2116 1.57565 -0.0334293 0
M  V30 511 C 54.1746 2.09393 0.932048 0
M  V30 512 C 55.1746 1.00986 1.25134 0
M  V30 513 O 56.3646 1.27129 1.19096 0
M  V30 514 C 53.4966 2.56338 2.2473 0
M  V30 515 H 54.6896 2.95984 0.483085 0
M  V30 516 H 52.2426 1.54819 0.21468 0
M  V30 517 H 52.9776 1.7309 2.74245 0
M  V30 518 H 52.7626 3.35542 2.02865 0
M  V30 519 H 54.2526 2.96646 2.93923 0
M  V30 520 N 54.6897 -0.239769 1.55765 0
M  V30 521 C 55.9147 -0.988373 1.82335 0
M  V30 522 C 56.3397 -1.77886 0.611421 0
M  V30 523 O 55.6977 -1.75889 -0.439639 0
M  V30 524 C 55.7457 -1.89627 3.06715 0
M  V30 525 O 54.8497 -2.98904 2.84131 0
M  V30 526 H 54.1907 -0.280858 0.601677 0
M  V30 527 H 56.7207 -0.258597 2.02959 0
M  V30 528 H 56.7307 -2.30957 3.36338 0
M  V30 529 H 55.4057 -1.31511 3.9456 0
M  V30 530 H 53.9827 -2.61651 2.65694 0
M  V30 531 N 56.1678 -1.49265 -0.50573 0
M  V30 532 C 57.1308 -1.65075 -1.59006 0
M  V30 533 C 58.1308 -0.522768 -1.52065 0
M  V30 534 O 59.3208 -0.789117 -1.55302 0
M  V30 535 C 56.4528 -1.64369 -2.98656 0
M  V30 536 H 57.6458 -2.61784 -1.46319 0
M  V30 537 H 55.1988 -1.38226 -0.729616 0
M  V30 538 H 55.9338 -0.692272 -3.16825 0
M  V30 539 H 55.7188 -2.46282 -3.05103 0
M  V30 540 H 57.2088 -1.78674 -3.77446 0
M  V30 541 N 57.6459 0.756429 -1.3826 0
M  V30 542 C 58.6089 1.85176 -1.35065 0
M  V30 543 C 59.6089 1.58818 -0.251703 0
M  V30 544 O 60.7989 1.66615 -0.508433 0
M  V30 545 C 57.9309 3.22596 -1.10201 0
M  V30 546 H 59.1239 1.89417 -2.3251 0
M  V30 547 H 56.6769 0.95783 -1.23512 0
M  V30 548 H 57.4119 3.24025 -0.133504 0
M  V30 549 H 57.1969 3.43122 -1.89762 0
M  V30 550 H 58.6869 4.02673 -1.10654 0
M  V30 551 N 59.124 1.23083 0.984299 0
M  V30 552 C 60.056 0.96636 2.07832 0
M  V30 553 C 61.069 -0.0582135 1.62696 0
M  V30 554 O 62.258 0.176843 1.77622 0
M  V30 555 C 59.358 0.433397 3.36117 0
M  V30 556 C 58.531 1.51722 4.10243 0
M  V30 557 C 57.59 0.989821 5.16807 0
M  V30 558 O 56.616 1.67794 5.43906 0
M  V30 559 N 57.818 -0.184367 5.80207 0
M  V30 560 H 60.583 1.90824 2.31098 0
M  V30 561 H 58.144 1.13888 1.1507 0
M  V30 562 H 60.136 0.065699 4.04647 0
M  V30 563 H 58.706 -0.413806 3.09849 0
M  V30 564 H 57.926 2.05786 3.36223 0
M  V30 565 H 59.214 2.24619 4.56534 0
M  V30 566 H 58.612 -0.760062 5.60571 0
M  V30 567 H 57.169 -0.493366 6.4993 0
M  V30 568 N 60.6021 -1.18246 1.0419 0
M  V30 569 C 61.5491 -2.2192 0.634037 0
M  V30 570 C 62.5191 -1.62179 -0.358765 0
M  V30 571 O 63.7041 -1.89122 -0.252466 0
M  V30 572 C 60.8441 -3.451 0.00445535 0
M  V30 573 C 59.9571 -4.19174 1.04487 0
M  V30 574 C 59.0921 -5.29813 0.383676 0
M  V30 575 C 58.1311 -5.9566 1.4091 0
M  V30 576 N 57.2681 -6.97834 0.772784 0
M  V30 577 H 62.1081 -2.56164 1.52263 0
M  V30 578 H 59.6451 -1.25843 0.761701 0
M  V30 579 H 61.6031 -4.15485 -0.377919 0
M  V30 580 H 60.2331 -3.11472 -0.847652 0
M  V30 581 H 59.2851 -3.47604 1.54518 0
M  V30 582 H 60.5971 -4.64267 1.82368 0
M  V30 583 H 59.7511 -6.06677 -0.0528366 0
M  V30 584 H 58.4901 -4.85825 -0.427208 0
M  V30 585 H 57.4951 -5.17535 1.85574 0
M  V30 586 H 58.7201 -6.4173 2.22171 0
M  V30 587 H 56.6661 -6.55998 -0.0177708 0
M  V30 588 H 56.5831 -7.41186 1.48928 0
M  V30 589 H 57.8511 -7.78665 0.36071 0
M  V30 590 N 62.0802 -0.821533 -1.34494 0
M  V30 591 C 62.9902 -0.244355 -2.33324 0
M  V30 592 C 64.0062 0.620527 -1.62559 0
M  V30 593 O 65.1822 0.528754 -1.94335 0
M  V30 594 C 62.2472 0.585368 -3.41723 0
M  V30 595 C 61.3082 -0.301752 -4.28238 0
M  V30 596 C 60.5412 0.488466 -5.3146 0
M  V30 597 O 60.7642 1.72186 -5.4379 0
M  V30 598 O 59.6982 -0.12848 -6.01763 0
M  V30 599 H 63.5242 -1.06231 -2.84515 0
M  V30 600 H 61.1092 -0.583645 -1.37528 0
M  V30 601 H 62.9912 1.05747 -4.07916 0
M  V30 602 H 61.6662 1.38068 -2.92778 0
M  V30 603 H 60.5732 -0.821315 -3.64973 0
M  V30 604 H 61.9062 -1.06138 -4.8062 0
M  V30 605 N 63.5583 1.46682 -0.576371 0
M  V30 606 C 64.5063 2.31953 0.17335 0
M  V30 607 C 65.5003 1.44098 0.89062 0
M  V30 608 O 66.7063 1.60759 0.809728 0
M  V30 609 H 63.0813 0.748273 0.0747727 0
M  V30 610 H 65.0523 2.93007 -0.564738 0
M  V30 611 C 63.8013 3.27142 1.17786 0
M  V30 612 H 63.1243 3.94719 0.635361 0
M  V30 613 H 64.5643 3.896 1.67296 0
M  V30 614 C 63.0233 2.52036 2.23561 0
M  V30 615 O 63.5533 2.27877 3.3081 0
M  V30 616 N 61.7593 2.12709 1.97998 0
M  V30 617 H 61.3063 2.32557 1.10792 0
M  V30 618 H 61.2643 1.62776 2.68982 0
M  V30 619 N 65.0364 0.313813 1.54444 0
M  V30 620 C 65.9994 -0.54379 2.22656 0
M  V30 621 C 66.9994 -1.05124 1.21678 0
M  V30 622 O 68.1894 -0.945225 1.46325 0
M  V30 623 C 65.3214 -1.75427 2.92298 0
M  V30 624 H 66.5144 0.0523599 2.99854 0
M  V30 625 H 64.0674 0.0647834 1.56166 0
M  V30 626 H 64.8024 -2.38991 2.19211 0
M  V30 627 H 64.5874 -1.39791 3.66334 0
M  V30 628 H 66.0774 -2.36325 3.44297 0
M  V30 629 N 66.5145 -1.57545 0.0417849 0
M  V30 630 C 67.7625 -1.91937 -0.632829 0
M  V30 631 C 68.0835 -0.919978 -1.71934 0
M  V30 632 O 67.3535 0.0366064 -1.95866 0
M  V30 633 H 65.9335 -0.708493 -0.236742 0
M  V30 634 H 68.5955 -1.9468 0.0925745 0
M  V30 635 H 67.6915 -2.92912 -1.07746 0
M  V30 636 N 67.9926 0.231505 -1.5589 0
M  V30 637 C 68.9026 1.308 -1.94752 0
M  V30 638 C 69.9186 1.51826 -0.849989 0
M  V30 639 O 71.0946 1.6515 -1.15271 0
M  V30 640 C 68.1596 2.63968 -2.24771 0
M  V30 641 C 67.2206 2.51331 -3.48039 0
M  V30 642 C 66.4536 3.78148 -3.76616 0
M  V30 643 O 66.6766 4.80722 -3.07022 0
M  V30 644 O 65.6106 3.75857 -4.70123 0
M  V30 645 H 69.4366 1.0083 -2.86474 0
M  V30 646 H 67.0216 0.433547 -1.42971 0
M  V30 647 H 68.9036 3.42633 -2.45318 0
M  V30 648 H 67.5786 2.9364 -1.36225 0
M  V30 649 H 66.4856 1.709 -3.32782 0
M  V30 650 H 67.8186 2.26601 -4.36936 0
M  V30 651 N 69.4707 1.49531 0.497807 0
M  V30 652 C 70.7477 1.49682 1.25915 0
M  V30 653 C 71.1277 0.226339 2.09883 0
M  V30 654 O 70.4757 -0.791189 2.14365 0
M  V30 655 C 70.6857 2.77755 2.11313 0
M  V30 656 C 72.0337 3.27371 2.70395 0
M  V30 657 O 73.0577 2.78894 2.21578 0
M  V30 658 O 71.9167 4.11808 3.59272 0
M  V30 659 H 69.0107 0.599228 0.56996 0
M  V30 660 H 71.5567 1.61798 0.511816 0
M  V30 661 H 70.3287 3.61713 1.49264 0
M  V30 662 H 69.9517 2.68515 2.93233 0
M  V30 663 N 70.9488 -0.749086 1.3866 0
M  V30 664 C 72.3598 -1.32664 1.31366 0
M  V30 665 C 72.7108 -1.96179 -0.028484 0
M  V30 666 O 71.8358 -1.9537 -0.93057 0
M  V30 667 C 72.4308 -2.41219 2.37905 0
M  V30 668 C 70.9898 -2.94684 2.34176 0
M  V30 669 C 70.1368 -1.68108 2.20533 0
M  V30 670 H 73.0878 -0.547628 1.48952 0
M  V30 671 H 73.1088 -3.21268 2.0388 0
M  V30 672 H 72.6208 -1.94962 3.35576 0
M  V30 673 H 70.7218 -3.45258 1.401 0
M  V30 674 H 70.8348 -3.48757 3.2849 0
M  V30 675 H 69.1988 -1.91907 1.67463 0
M  V30 676 H 69.9818 -1.23923 3.20153 0
M  V30 677 N 72.4269 -1.23603 -0.977757 0
M  V30 678 C 73.6749 -1.06759 -1.71601 0
M  V30 679 C 73.9959 0.395929 -1.90938 0
M  V30 680 O 73.2659 1.28356 -1.47992 0
M  V30 681 H 71.8459 -0.392062 -0.635843 0
M  V30 682 H 74.5079 -1.55362 -1.1768 0
M  V30 683 H 73.6039 -1.55763 -2.70452 0
M  V30 684 N 73.905 1.17692 -1.04816 0
M  V30 685 C 74.835 2.23777 -0.666791 0
M  V30 686 C 75.816 1.66796 0.33361 0
M  V30 687 O 77.001 1.93039 0.212042 0
M  V30 688 C 74.131 3.47281 -0.0367933 0
M  V30 689 C 73.085 4.17059 -0.961546 0
M  V30 690 C 72.411 5.34342 -0.195626 0
M  V30 691 C 73.711 4.69713 -2.28402 0
M  V30 692 H 75.405 2.55933 -1.55367 0
M  V30 693 H 72.951 1.23019 -0.748484 0
M  V30 694 H 74.904 4.20706 0.241775 0
M  V30 695 H 73.628 3.14381 0.885004 0
M  V30 696 H 72.287 3.45541 -1.22462 0
M  V30 697 H 71.935 4.97692 0.728816 0
M  V30 698 H 71.635 5.81966 -0.811775 0
M  V30 699 H 73.159 6.10553 0.0757473 0
M  V30 700 H 74.573 5.34794 -2.06563 0
M  V30 701 H 72.97 5.279 -2.8538 0
M  V30 702 H 74.04 3.86726 -2.92525 0
M  V30 703 N 75.3831 0.828654 1.34056 0
M  V30 704 C 76.3461 0.259927 2.27721 0
M  V30 705 C 77.3461 -0.565478 1.50529 0
M  V30 706 O 78.5361 -0.38075 1.69988 0
M  V30 707 C 75.6681 -0.634944 3.34935 0
M  V30 708 H 76.8611 1.0863 2.79534 0
M  V30 709 H 74.4141 0.600951 1.44285 0
M  V30 710 H 75.1491 -1.48416 2.88346 0
M  V30 711 H 74.9341 -0.0444999 3.92075 0
M  V30 712 H 76.4241 -1.02648 4.04788 0
M  V30 713 N 76.8612 -1.46375 0.584142 0
M  V30 714 C 78.2772 -1.57694 0.245929 0
M  V30 715 C 78.4772 -1.57903 -1.25175 0
M  V30 716 O 77.5332 -1.49676 -2.03355 0
M  V30 717 C 78.8462 -2.87028 0.896402 0
M  V30 718 C 80.3942 -3.00662 0.870127 0
M  V30 719 C 80.8692 -4.32734 1.50017 0
M  V30 720 N 82.3602 -4.39436 1.46458 0
M  V30 721 C 83.0952 -5.40248 1.92144 0
M  V30 722 N 82.5912 -6.47726 2.4581 0
M  V30 723 N 84.3842 -5.31459 1.83052 0
M  V30 724 H 76.5352 -1.44483 1.55687 0
M  V30 725 H 78.7982 -0.689291 0.650831 0
M  V30 726 H 78.5042 -2.9269 1.95002 0
M  V30 727 H 78.3782 -3.75014 0.405486 0
M  V30 728 H 80.7652 -2.94581 -0.174871 0
M  V30 729 H 80.8462 -2.14148 1.39908 0
M  V30 730 H 80.4902 -4.39573 2.54437 0
M  V30 731 H 80.4202 -5.18025 0.946432 0
M  V30 732 H 82.9112 -3.62367 1.07231 0
M  V30 733 H 83.2242 -7.20863 2.78525 0
M  V30 734 H 81.5692 -6.48542 2.49836 0
M  V30 735 H 84.7602 -4.46396 1.40883 0
M  V30 736 H 84.9332 -6.09881 2.18973 0
M  V30 737 N 78.3393 -0.321999 -1.54275 0
M  V30 738 C 79.2713 0.578671 -2.21775 0
M  V30 739 C 80.2843 1.08109 -1.21722 0
M  V30 740 O 81.4733 0.994938 -1.482 0
M  V30 741 C 78.5733 1.80661 -2.86731 0
M  V30 742 C 77.7463 1.44314 -4.12907 0
M  V30 743 C 76.8053 2.52845 -4.61472 0
M  V30 744 O 75.8313 2.17054 -5.2619 0
M  V30 745 N 77.0333 3.83748 -4.35566 0
M  V30 746 H 79.7983 0.000709447 -2.997 0
M  V30 747 H 77.3593 -0.145132 -1.61248 0
M  V30 748 H 79.3513 2.52655 -3.16145 0
M  V30 749 H 77.9213 2.29245 -2.12521 0
M  V30 750 H 77.1413 0.554906 -3.90275 0
M  V30 751 H 78.4293 1.17598 -4.95023 0
M  V30 752 H 77.8273 4.15625 -3.83761 0
M  V30 753 H 76.3843 4.51977 -4.69638 0
M  V30 754 N 79.8174 1.5752 -0.0501392 0
M  V30 755 C 80.7804 2.1037 0.909786 0
M  V30 756 C 81.7804 1.02308 1.24056 0
M  V30 757 O 82.9704 1.28385 1.17741 0
M  V30 758 C 80.1024 2.58708 2.21998 0
M  V30 759 H 81.2954 2.96479 0.451665 0
M  V30 760 H 78.8484 1.55038 0.198248 0
M  V30 761 H 79.5834 1.75989 2.72394 0
M  V30 762 H 79.3684 3.37675 1.99295 0
M  V30 763 H 80.8584 2.99747 2.9076 0
M  V30 764 N 81.2955 -0.223234 1.56011 0
M  V30 765 C 82.7065 -0.790368 1.69145 0
M  V30 766 C 83.0575 -1.85055 0.651845 0
M  V30 767 O 82.1825 -2.15498 -0.197359 0
M  V30 768 C 82.7775 -1.4404 3.06656 0
M  V30 769 C 81.3365 -1.95494 3.2165 0
M  V30 770 C 80.4835 -0.814506 2.65068 0
M  V30 771 H 83.4345 0.00139011 1.587 0
M  V30 772 H 83.4555 -2.30916 3.0242 0
M  V30 773 H 82.9675 -0.668543 3.82298 0
M  V30 774 H 81.0685 -2.75487 2.50874 0
M  V30 775 H 81.1815 -2.13607 4.28846 0
M  V30 776 H 79.5455 -1.22137 2.23505 0
M  V30 777 H 80.3285 -0.0553515 3.43255 0
M  V30 778 N 82.7736 -1.49793 -0.48987 0
M  V30 779 C 83.7206 -1.67281 -1.59014 0
M  V30 780 C 84.6906 -0.514177 -1.57941 0
M  V30 781 O 85.8756 -0.742533 -1.75759 0
M  V30 782 C 83.0156 -1.75569 -2.97102 0
M  V30 783 C 82.1286 -3.0281 -3.08107 0
M  V30 784 C 81.2636 -3.02008 -4.36995 0
M  V30 785 C 80.3026 -4.23782 -4.41673 0
M  V30 786 N 79.4396 -4.20826 -5.62005 0
M  V30 787 H 84.2796 -2.61224 -1.43409 0
M  V30 788 H 81.8166 -1.29508 -0.697565 0
M  V30 789 H 83.7746 -1.78354 -3.77155 0
M  V30 790 H 82.4046 -0.850827 -3.11385 0
M  V30 791 H 81.4566 -3.09584 -2.21047 0
M  V30 792 H 82.7686 -3.92801 -3.07423 0
M  V30 793 H 81.9226 -3.03418 -5.25378 0
M  V30 794 H 80.6616 -2.09815 -4.4026 0
M  V30 795 H 79.6666 -4.22604 -3.5169 0
M  V30 796 H 80.8916 -5.17181 -4.40115 0
M  V30 797 H 78.8376 -3.31476 -5.66091 0
M  V30 798 H 78.7546 -5.04564 -5.62984 0
M  V30 799 H 80.0226 -4.26355 -6.52565 0
M  V30 800 N 84.2517 0.741722 -1.39055 0
M  V30 801 C 85.6627 1.31966 -1.32068 0
M  V30 802 C 86.0137 1.96192 0.0180797 0
M  V30 803 O 85.1387 1.95861 0.920196 0
M  V30 804 C 85.7337 2.39954 -2.39181 0
M  V30 805 C 84.2927 2.93438 -2.35735 0
M  V30 806 C 83.4397 1.66936 -2.21422 0
M  V30 807 H 86.3907 0.539721 -1.4924 0
M  V30 808 H 86.4117 3.20182 -2.05581 0
M  V30 809 H 85.9237 1.9318 -3.36605 0
M  V30 810 H 84.0247 3.4451 -1.41929 0
M  V30 811 H 84.1377 3.4701 -3.30335 0
M  V30 812 H 82.5017 1.91016 -1.68478 0
M  V30 813 H 83.2847 1.22224 -3.20806 0
M  V30 814 N 85.7298 1.2412 0.971189 0
M  V30 815 C 87.1458 1.00584 1.23916 0
M  V30 816 C 87.3458 -0.287481 1.99439 0
M  V30 817 O 86.4018 -1.00454 2.31658 0
M  V30 818 C 87.7148 2.21864 2.0297 0
M  V30 819 C 89.2628 2.26452 2.16076 0
M  V30 820 C 89.7378 3.47343 2.98524 0
M  V30 821 N 91.2288 3.47639 3.06107 0
M  V30 822 C 91.9638 4.37837 3.70251 0
M  V30 823 N 91.4598 5.38286 4.36142 0
M  V30 824 N 93.2528 4.25558 3.67228 0
M  V30 825 H 85.4038 2.07236 0.465499 0
M  V30 826 H 87.6668 0.909236 0.268315 0
M  V30 827 H 87.3728 3.15771 1.54861 0
M  V30 828 H 87.2468 2.23698 3.03709 0
M  V30 829 H 89.6338 1.33078 2.6339 0
M  V30 830 H 89.7148 2.28645 1.14696 0
M  V30 831 H 89.3588 4.41029 2.51905 0
M  V30 832 H 89.2888 3.42393 4.00093 0
M  V30 833 H 91.7798 2.74966 2.59233 0
M  V30 834 H 92.0928 6.03352 4.82894 0
M  V30 835 H 90.4378 5.42176 4.34822 0
M  V30 836 H 93.6288 3.46322 3.14927 0
M  V30 837 H 93.8018 4.96054 4.16935 0
M  V30 838 N 87.2079 -1.17134 1.05439 0
M  V30 839 C 88.1549 -2.21235 0.657539 0
M  V30 840 C 89.1249 -1.62551 -0.341543 0
M  V30 841 O 90.3099 -1.89379 -0.232393 0
M  V30 842 C 87.4499 -3.45076 0.0410575 0
M  V30 843 C 86.5629 -4.18042 1.08927 0
M  V30 844 C 85.6979 -5.29376 0.439848 0
M  V30 845 C 84.7369 -5.94132 1.4722 0
M  V30 846 N 83.8739 -6.96975 0.846756 0
M  V30 847 H 88.7139 -2.54534 1.54972 0
M  V30 848 H 86.2509 -1.25028 0.775006 0
M  V30 849 H 88.2089 -4.15862 -0.33383 0
M  V30 850 H 86.8389 -3.12353 -0.814568 0
M  V30 851 H 85.8909 -3.45945 1.58196 0
M  V30 852 H 87.2029 -4.62306 1.87282 0
M  V30 853 H 86.3569 -6.06699 0.0115125 0
M  V30 854 H 85.0959 -4.86251 -0.375656 0
M  V30 855 H 84.1009 -5.15538 1.91052 0
M  V30 856 H 85.3259 -6.39337 2.28965 0
M  V30 857 H 83.2719 -6.5598 0.0518075 0
M  V30 858 H 83.1889 -7.39565 1.5678 0
M  V30 859 H 84.4569 -7.78239 0.443277 0
M  V30 860 N 88.686 -0.835752 -1.33615 0
M  V30 861 C 89.618 -0.224151 -2.28101 0
M  V30 862 C 90.631 0.593331 -1.51603 0
M  V30 863 O 91.82 0.420911 -1.73466 0
M  V30 864 C 88.92 0.703309 -3.31522 0
M  V30 865 C 88.093 -0.0741528 -4.37337 0
M  V30 866 C 87.152 0.776176 -5.20444 0
M  V30 867 O 86.178 0.216506 -5.68788 0
M  V30 868 N 87.38 2.09401 -5.41416 0
M  V30 869 H 90.145 -1.03598 -2.81225 0
M  V30 870 H 87.706 -0.69392 -1.46275 0
M  V30 871 H 89.698 1.27707 -3.84022 0
M  V30 872 H 88.268 1.41585 -2.78698 0
M  V30 873 H 87.488 -0.82928 -3.85378 0
M  V30 874 H 88.776 -0.608863 -5.05144 0
M  V30 875 H 88.174 2.57229 -5.03835 0
M  V30 876 H 86.731 2.61633 -5.96985 0
M  V30 877 N 90.1641 1.46063 -0.591896 0
M  V30 878 C 91.5801 1.57561 -0.254288 0
M  V30 879 C 91.7801 1.58565 1.24336 0
M  V30 880 O 90.8361 1.50753 2.02558 0
M  V30 881 C 92.1491 2.86549 -0.911611 0
M  V30 882 C 93.6971 3.00197 -0.886059 0
M  V30 883 C 94.1721 4.31933 -1.5231 0
M  V30 884 N 95.6631 4.38654 -1.48786 0
M  V30 885 C 96.3981 5.39222 -1.95006 0
M  V30 886 N 95.8941 6.46414 -2.49241 0
M  V30 887 N 97.6871 5.3048 -1.85868 0
M  V30 888 H 89.8381 1.43655 -1.56451 0
M  V30 889 H 92.1011 0.68583 -0.654478 0
M  V30 890 H 91.8071 2.91651 -1.96551 0
M  V30 891 H 91.6811 3.74794 -0.425368 0
M  V30 892 H 94.0681 2.9467 0.159246 0
M  V30 893 H 94.1491 2.13403 -1.41041 0
M  V30 894 H 93.7931 4.38217 -2.56765 0
M  V30 895 H 93.7231 5.17516 -0.973891 0
M  V30 896 H 96.2141 3.61793 -1.09151 0
M  V30 897 H 96.5271 7.19376 -2.82344 0
M  V30 898 H 94.8721 6.47208 -2.53272 0
M  V30 899 H 98.0631 4.45643 -1.43248 0
M  V30 900 H 98.2361 6.08711 -2.22204 0
M  V30 901 N 91.6422 0.330177 1.54103 0
M  V30 902 C 92.8672 -0.274893 2.0557 0
M  V30 903 C 93.2922 -1.44487 1.20437 0
M  V30 904 O 92.6502 -1.80021 0.214991 0
M  V30 905 C 92.6982 -0.68079 3.54115 0
M  V30 906 O 91.8022 -1.7824 3.71893 0
M  V30 907 H 91.1432 -0.0483849 0.662235 0
M  V30 908 H 93.6732 0.480508 1.98878 0
M  V30 909 H 93.6832 -0.961635 3.96505 0
M  V30 910 H 92.3582 0.174903 4.15532 0
M  V30 911 H 90.9352 -1.49985 3.41407 0
M  V30 912 N 93.1203 -1.57491 0.0584922 0
M  V30 913 C 94.3453 -1.97711 -0.62652 0
M  V30 914 C 94.7703 -0.936132 -1.63151 0
M  V30 915 O 94.1283 0.099811 -1.81025 0
M  V30 916 C 94.1763 -3.36989 -1.28338 0
M  V30 917 O 93.2803 -3.35433 -2.39913 0
M  V30 918 H 92.6213 -0.643868 -0.162266 0
M  V30 919 H 95.1513 -2.04193 0.129064 0
M  V30 920 H 95.1613 -3.73879 -1.63335 0
M  V30 921 H 93.8363 -4.12289 -0.546889 0
M  V30 922 H 92.4133 -3.10298 -2.06809 0
M  V30 923 N 94.5984 0.214957 -1.56127 0
M  V30 924 C 95.5284 1.2695 -1.95974 0
M  V30 925 C 96.5094 1.48539 -0.828868 0
M  V30 926 O 97.6944 1.60611 -1.09168 0
M  V30 927 C 94.8244 2.61794 -2.28214 0
M  V30 928 C 93.7784 2.54851 -3.43853 0
M  V30 929 C 93.1044 3.93785 -3.61715 0
M  V30 930 C 94.4044 2.09065 -4.78632 0
M  V30 931 H 96.0984 0.93846 -2.84312 0
M  V30 932 H 93.6444 0.449996 -1.36788 0
M  V30 933 H 95.5974 3.35731 -2.54682 0
M  V30 934 H 94.3214 2.96599 -1.36736 0
M  V30 935 H 92.9804 1.8337 -3.17444 0
M  V30 936 H 92.6284 4.25908 -2.67602 0
M  V30 937 H 92.3284 3.90019 -4.39498 0
M  V30 938 H 93.8524 4.69374 -3.90539 0
M  V30 939 H 95.2664 2.7275 -5.04262 0
M  V30 940 H 93.6634 2.16346 -5.59745 0
M  V30 941 H 94.7334 1.04315 -4.73547 0
M  V30 942 N 96.0765 1.50051 0.48192 0
M  V30 943 C 97.0065 1.71046 1.58951 0
M  V30 944 C 97.9875 0.559288 1.60642 0
M  V30 945 O 99.1725 0.797243 1.77081 0
M  V30 946 C 96.3025 1.79462 2.97339 0
M  V30 947 C 95.2565 2.94558 3.10515 0
M  V30 948 C 94.5825 2.88105 4.50444 0
M  V30 949 C 95.8825 4.35227 2.88747 0
M  V30 950 H 97.5765 2.6378 1.41635 0
M  V30 951 H 95.1225 1.26936 0.679942 0
M  V30 952 H 97.0755 1.92734 3.74742 0
M  V30 953 H 95.7995 0.833412 3.15788 0
M  V30 954 H 94.4585 2.80918 2.35543 0
M  V30 955 H 94.1065 1.89853 4.65795 0
M  V30 956 H 93.8065 3.65366 4.60197 0
M  V30 957 H 95.3305 3.03412 5.29881 0
M  V30 958 H 96.7445 4.49449 3.55905 0
M  V30 959 H 95.1415 5.13856 3.09955 0
M  V30 960 H 96.2115 4.48347 1.84696 0
M  V30 961 N 97.5546 -0.734337 1.39446 0
M  V30 962 C 98.4646 -1.87879 1.40495 0
M  V30 963 C 99.4806 -1.714 0.299672 0
M  V30 964 O 100.657 -1.93991 0.541249 0
M  V30 965 C 97.7216 -3.23477 1.24754 0
M  V30 966 C 96.7826 -3.52344 2.45259 0
M  V30 967 C 96.0156 -4.81473 2.30259 0
M  V30 968 O 96.2386 -5.55237 1.30643 0
M  V30 969 O 95.1726 -5.10254 3.19256 0
M  V30 970 H 98.9986 -1.89949 2.36966 0
M  V30 971 H 96.5836 -0.882243 1.20569 0
M  V30 972 H 98.4656 -4.04509 1.18111 0
M  V30 973 H 97.1406 -3.22176 0.313781 0
M  V30 974 H 96.0476 -2.71396 2.57478 0
M  V30 975 H 97.3806 -3.58426 3.37331 0
M  V30 976 N 99.0327 -1.24633 -0.964593 0
M  V30 977 C 99.9797 -1.04144 -2.05968 0
M  V30 978 C 100.95 0.046262 -1.66036 0
M  V30 979 O 102.135 -0.108972 -1.90489 0
M  V30 980 C 99.2747 -0.65563 -3.38815 0
M  V30 981 C 98.3877 -1.81714 -3.91923 0
M  V30 982 C 97.5227 -1.37662 -5.13052 0
M  V30 983 C 96.5617 -2.50788 -5.58365 0
M  V30 984 N 95.6987 -2.07582 -6.70712 0
M  V30 985 H 100.539 -1.9787 -2.22827 0
M  V30 986 H 98.0757 -0.9855 -1.09208 0
M  V30 987 H 100.034 -0.412954 -4.15151 0
M  V30 988 H 98.6637 0.244627 -3.21872 0
M  V30 989 H 97.7157 -2.1734 -3.12198 0
M  V30 990 H 99.0277 -2.66705 -4.21509 0
M  V30 991 H 98.1817 -1.093 -5.96773 0
M  V30 992 H 96.9207 -0.497293 -4.85158 0
M  V30 993 H 95.9257 -2.79906 -4.73215 0
M  V30 994 H 97.1507 -3.39283 -5.88272 0
M  V30 995 H 95.0967 -1.22051 -6.44546 0
M  V30 996 H 95.0137 -2.86125 -6.99763 0
M  V30 997 H 96.2817 -1.82369 -7.57867 0
M  V30 998 N 100.511 1.16574 -1.06058 0
M  V30 999 C 101.759 1.86677 -0.77434 0
M  V30 1000 C 102.08 1.81959 0.701147 0
M  V30 1001 O 101.35 1.2515 1.50713 0
M  V30 1002 H 99.9298 0.691134 -0.283449 0
M  V30 1003 H 102.592 1.41378 -1.34158 0
M  V30 1004 H 101.688 2.92181 -1.09711 0
M  V30 1005 N 101.989 0.842826 1.3317 0
M  V30 1006 C 102.919 0.294028 2.31641 0
M  V30 1007 C 103.9 -0.600401 1.59151 0
M  V30 1008 O 105.085 -0.523124 1.87022 0
M  V30 1009 C 102.215 -0.528416 3.43257 0
M  V30 1010 C 101.169 0.27056 4.27144 0
M  V30 1011 C 100.495 -0.675881 5.30411 0
M  V30 1012 C 101.795 1.48981 5.00602 0
M  V30 1013 H 103.489 1.11681 2.77791 0
M  V30 1014 H 101.035 0.538478 1.33553 0
M  V30 1015 H 102.988 -0.922674 4.11175 0
M  V30 1016 H 101.712 -1.38445 2.95805 0
M  V30 1017 H 100.371 0.646427 3.60856 0
M  V30 1018 H 100.019 -1.52842 4.79216 0
M  V30 1019 H 99.7189 -0.145374 5.8742 0
M  V30 1020 H 101.243 -1.06757 6.01195 0
M  V30 1021 H 102.657 1.16849 5.61266 0
M  V30 1022 H 101.054 1.95739 5.6728 0
M  V30 1023 H 102.124 2.25746 4.29147 0
M  V30 1024 N 103.467 -1.45747 0.599634 0
M  V30 1025 C 104.744 -1.95585 0.0240846 0
M  V30 1026 C 105.124 -1.54217 -1.44154 0
M  V30 1027 O 104.472 -0.800903 -2.14004 0
M  V30 1028 C 104.682 -3.48344 0.21385 0
M  V30 1029 C 106.03 -4.24504 0.0904902 0
M  V30 1030 O 107.054 -3.55911 0.143558 0
M  V30 1031 O 105.913 -5.46491 -0.0310766 0
M  V30 1032 H 103.007 -0.82602 -0.0402478 0
M  V30 1033 H 105.553 -1.55951 0.669139 0
M  V30 1034 H 104.325 -3.71397 1.23206 0
M  V30 1035 H 103.948 -3.9485 -0.466842 0
M  V30 1036 N 104.945 -0.338344 -1.53925 0
M  V30 1037 C 106.193 0.259245 -2.0043 0
M  V30 1038 C 106.514 1.51484 -1.22791 0
M  V30 1039 O 105.784 1.93037 -0.33368 0
M  V30 1040 H 104.364 0.0987845 -0.740439 0
M  V30 1041 H 107.026 -0.458302 -1.89435 0
M  V30 1042 H 106.122 0.505334 -3.07982 0
M  V30 1043 N 106.423 1.57458 -0.0668435 0
M  V30 1044 C 107.386 2.11323 0.887422 0
M  V30 1045 C 108.386 1.03618 1.22964 0
M  V30 1046 O 109.576 1.29626 1.16373 0
M  V30 1047 C 106.708 2.61048 2.19242 0
M  V30 1048 H 107.901 2.96942 0.420194 0
M  V30 1049 H 105.454 1.55239 0.181793 0
M  V30 1050 H 106.189 1.78868 2.70512 0
M  V30 1051 H 105.974 3.39769 1.95702 0
M  V30 1052 H 107.464 3.02814 2.87565 0
M  V30 1053 N 107.901 -0.206675 1.56239 0
M  V30 1054 C 108.848 -1.25617 1.93621 0
M  V30 1055 C 109.818 -1.45824 0.795274 0
M  V30 1056 O 111.003 -1.59148 1.05245 0
M  V30 1057 C 108.143 -2.59839 2.27107 0
M  V30 1058 C 107.256 -2.47308 3.54207 0
M  V30 1059 C 106.391 -3.74155 3.7707 0
M  V30 1060 C 105.43 -3.56407 4.97635 0
M  V30 1061 N 104.567 -4.75238 5.1681 0
M  V30 1062 H 109.407 -0.930383 2.83104 0
M  V30 1063 H 106.944 -0.448065 1.4011 0
M  V30 1064 H 108.902 -3.38021 2.44535 0
M  V30 1065 H 107.532 -2.90485 1.40778 0
M  V30 1066 H 106.584 -1.60483 3.4489 0
M  V30 1067 H 107.896 -2.30122 4.42544 0
M  V30 1068 H 107.05 -4.60778 3.94675 0
M  V30 1069 H 105.789 -3.94282 2.87042 0
M  V30 1070 H 104.794 -2.68168 4.79964 0
M  V30 1071 H 106.019 -3.37736 5.89161 0
M  V30 1072 H 103.965 -4.95651 4.29728 0
M  V30 1073 H 103.882 -4.60835 5.99306 0
M  V30 1074 H 105.15 -5.63246 5.38864 0
M  V30 1075 N 109.379 -1.50304 -0.473955 0
M  V30 1076 C 110.326 -1.68959 -1.57231 0
M  V30 1077 C 111.296 -0.530899 -1.57387 0
M  V30 1078 O 112.481 -0.761133 -1.74961 0
M  V30 1079 C 109.621 -1.7871 -2.95223 0
M  V30 1080 C 108.734 -3.06061 -3.04878 0
M  V30 1081 C 107.869 -3.06626 -4.33767 0
M  V30 1082 C 106.908 -4.28443 -4.37154 0
M  V30 1083 N 106.045 -4.26763 -5.5751 0
M  V30 1084 H 110.885 -2.6273 -1.40631 0
M  V30 1085 H 108.422 -1.30241 -0.683789 0
M  V30 1086 H 110.38 -1.82344 -3.75242 0
M  V30 1087 H 109.01 -0.883806 -3.10465 0
M  V30 1088 H 108.062 -3.11911 -2.17751 0
M  V30 1089 H 109.374 -3.96039 -3.0324 0
M  V30 1090 H 108.528 -3.08973 -5.22131 0
M  V30 1091 H 107.267 -2.14473 -4.3801 0
M  V30 1092 H 106.272 -4.2631 -3.47188 0
M  V30 1093 H 107.497 -5.2182 -4.34605 0
M  V30 1094 H 105.443 -3.37462 -5.62544 0
M  V30 1095 H 105.36 -5.10507 -5.57601 0
M  V30 1096 H 106.628 -4.33253 -6.48006 0
M  V30 1097 N 110.857 0.726932 -1.39834 0
M  V30 1098 C 111.82 1.82269 -1.38962 0
M  V30 1099 C 112.82 1.58248 -0.285334 0
M  V30 1100 O 114.01 1.65499 -0.54366 0
M  V30 1101 C 111.142 3.20186 -1.17019 0
M  V30 1102 H 112.335 1.84443 -2.36476 0
M  V30 1103 H 109.888 0.931416 -1.25516 0
M  V30 1104 H 110.623 3.23669 -0.202204 0
M  V30 1105 H 110.408 3.3902 -1.96998 0
M  V30 1106 H 111.898 4.00235 -1.1917 0
M  V30 1107 N 112.336 1.25143 0.95797 0
M  V30 1108 C 113.582 1.09855 1.70469 0
M  V30 1109 C 113.915 -0.360187 1.90831 0
M  V30 1110 O 113.19 -1.26568 1.47685 0
M  V30 1111 C 113.473 1.8497 3.08963 0
M  V30 1112 C 113.326 3.38652 2.96032 0
M  V30 1113 C 114.645 1.63016 4.08795 0
M  V30 1114 H 111.764 0.400465 0.618706 0
M  V30 1115 H 114.406 1.53933 1.11376 0
M  V30 1116 H 112.556 1.47505 3.59409 0
M  V30 1117 H 114.228 3.85772 2.52938 0
M  V30 1118 H 112.471 3.66534 2.32025 0
M  V30 1119 H 113.142 3.8642 3.94187 0
M  V30 1120 H 115.618 1.95625 3.67247 0
M  V30 1121 H 114.494 2.18015 5.03747 0
M  V30 1122 H 114.755 0.570692 4.38401 0
M  V30 1123 N 113.814 -1.1601 1.06675 0
M  V30 1124 C 115.062 -1.86264 0.784229 0
M  V30 1125 C 115.383 -1.82328 -0.691488 0
M  V30 1126 O 114.653 -1.25947 -1.50047 0
M  V30 1127 H 113.233 -0.689621 0.28711 0
M  V30 1128 H 115.895 -1.40664 1.34906 0
M  V30 1129 H 114.991 -2.91595 1.11259 0
M  V30 1130 N 115.292 -0.849877 -1.32721 0
M  V30 1131 C 116.54 -0.450032 -1.97026 0
M  V30 1132 C 116.861 0.996604 -1.67609 0
M  V30 1133 O 116.131 1.6958 -0.980786 0
M  V30 1134 H 114.711 -0.163426 -0.728904 0
M  V30 1135 H 117.373 -1.08526 -1.6189 0
M  V30 1136 H 116.469 -0.591146 -3.0645 0
M  V30 1137 N 116.77 1.45427 -0.607355 0
M  V30 1138 C 117.7 2.3329 0.0989352 0
M  V30 1139 C 118.681 1.46816 0.859007 0
M  V30 1140 O 119.866 1.75588 0.829604 0
M  V30 1141 C 116.996 3.29518 1.09705 0
M  V30 1142 C 115.95 4.25626 0.450206 0
M  V30 1143 C 115.276 5.11542 1.55655 0
M  V30 1144 C 116.576 5.18505 -0.628455 0
M  V30 1145 H 118.27 2.92595 -0.634716 0
M  V30 1146 H 115.816 1.40696 -0.306681 0
M  V30 1147 H 117.769 3.89855 1.59971 0
M  V30 1148 H 116.493 2.68372 1.86129 0
M  V30 1149 H 115.152 3.66586 -0.0315886 0
M  V30 1150 H 114.8 4.46765 2.31107 0
M  V30 1151 H 114.5 5.76647 1.12925 0
M  V30 1152 H 116.024 5.74748 2.06148 0
M  V30 1153 H 117.438 5.72916 -0.209877 0
M  V30 1154 H 115.835 5.92085 -0.977489 0
M  V30 1155 H 116.905 4.60948 -1.50514 0
M  V30 1156 N 118.248 0.346503 1.53744 0
M  V30 1157 C 119.496 -0.248612 2.00565 0
M  V30 1158 C 119.817 -1.5083 1.23593 0
M  V30 1159 O 119.087 -1.92858 0.343912 0
M  V30 1160 H 117.667 -0.0948564 0.740953 0
M  V30 1161 H 120.329 0.468341 1.89189 0
M  V30 1162 H 119.425 -0.488994 3.08245 0
M  V30 1163 N 119.726 -1.57421 0.075193 0
M  V30 1164 C 120.673 -2.12915 -0.890843 0
M  V30 1165 C 121.643 -1.04252 -1.29309 0
M  V30 1166 O 122.828 -1.31933 -1.37834 0
M  V30 1167 C 119.968 -2.69795 -2.15186 0
M  V30 1168 C 119.081 -3.92624 -1.80194 0
M  V30 1169 C 118.216 -4.37736 -3.00933 0
M  V30 1170 C 117.255 -5.53205 -2.61974 0
M  V30 1171 N 116.392 -5.9326 -3.75483 0
M  V30 1172 H 121.232 -2.95156 -0.410735 0
M  V30 1173 H 118.769 -1.45854 -0.191086 0
M  V30 1174 H 120.727 -3.00883 -2.89008 0
M  V30 1175 H 119.357 -1.90313 -2.60731 0
M  V30 1176 H 118.409 -3.67977 -0.964218 0
M  V30 1177 H 119.721 -4.76482 -1.47534 0
M  V30 1178 H 118.875 -4.70503 -3.8303 0
M  V30 1179 H 117.614 -3.52739 -3.36789 0
M  V30 1180 H 116.619 -5.20086 -1.783 0
M  V30 1181 H 117.844 -6.39936 -2.27284 0
M  V30 1182 H 115.79 -5.11212 -4.11094 0
M  V30 1183 H 115.707 -6.71865 -3.46602 0
M  V30 1184 H 116.975 -6.30651 -4.58148 0
M  V30 1185 N 121.204 0.198386 -1.56346 0
M  V30 1186 C 122.134 1.24865 -1.9731 0
M  V30 1187 C 123.115 1.47651 -0.844576 0
M  V30 1188 O 124.3 1.59444 -1.10866 0
M  V30 1189 C 121.43 2.59358 -2.30977 0
M  V30 1190 C 120.384 2.5119 -3.46537 0
M  V30 1191 C 119.71 3.89926 -3.65871 0
M  V30 1192 C 121.01 2.03977 -4.80823 0
M  V30 1193 H 122.704 0.908252 -2.85291 0
M  V30 1194 H 120.25 0.435462 -1.37258 0
M  V30 1195 H 122.203 3.33011 -2.58228 0
M  V30 1196 H 120.927 2.95132 -1.39874 0
M  V30 1197 H 119.586 1.79993 -3.19371 0
M  V30 1198 H 119.234 4.23046 -2.72105 0
M  V30 1199 H 118.934 3.85336 -4.4361 0
M  V30 1200 H 120.458 4.65205 -3.95495 0
M  V30 1201 H 121.872 2.67386 -5.07127 0
M  V30 1202 H 120.269 2.10397 -5.62008 0
M  V30 1203 H 121.339 0.992861 -4.74626 0
M  V30 1204 N 122.682 1.50554 0.465978 0
M  V30 1205 C 123.93 1.61479 1.21528 0
M  V30 1206 C 124.251 0.319596 1.92363 0
M  V30 1207 O 123.521 -0.663194 1.84333 0
M  V30 1208 H 122.101 0.595055 0.451573 0
M  V30 1209 H 124.763 1.87355 0.53704 0
M  V30 1210 H 123.859 2.42846 1.96042 0
M  V30 1211 N 124.16 -0.719506 1.40217 0
M  V30 1212 C 125.107 -1.83359 1.40172 0
M  V30 1213 C 126.077 -1.64065 0.259206 0
M  V30 1214 O 127.262 -1.85254 0.456677 0
M  V30 1215 C 124.402 -3.2103 1.26624 0
M  V30 1216 C 123.515 -3.51923 2.50548 0
M  V30 1217 C 122.65 -4.79079 2.29471 0
M  V30 1218 C 121.689 -5.02863 3.48992 0
M  V30 1219 N 120.826 -6.2123 3.27135 0
M  V30 1220 H 125.666 -1.82733 2.35399 0
M  V30 1221 H 123.203 -0.892688 1.16917 0
M  V30 1222 H 125.161 -4.00524 1.16776 0
M  V30 1223 H 123.791 -3.20895 0.350176 0
M  V30 1224 H 122.843 -2.67014 2.70939 0
M  V30 1225 H 124.155 -3.6541 3.39525 0
M  V30 1226 H 123.309 -5.66582 2.16955 0
M  V30 1227 H 122.048 -4.67794 1.37913 0
M  V30 1228 H 121.053 -4.13816 3.6199 0
M  V30 1229 H 122.278 -5.16023 4.41472 0
M  V30 1230 H 120.224 -6.11204 2.38256 0
M  V30 1231 H 120.141 -6.35375 4.09675 0
M  V30 1232 H 121.409 -7.11532 3.18344 0
M  V30 1233 N 125.638 -1.25649 -0.95132 0
M  V30 1234 C 126.915 -1.01361 -1.67288 0
M  V30 1235 C 127.295 0.459135 -2.06046 0
M  V30 1236 O 126.643 1.43723 -1.7764 0
M  V30 1237 C 126.853 -1.95256 -2.89268 0
M  V30 1238 C 128.201 -2.23289 -3.61147 0
M  V30 1239 O 129.225 -1.93041 -2.99355 0
M  V30 1240 O 128.084 -2.74741 -4.72419 0
M  V30 1241 H 125.178 -0.38464 -0.732107 0
M  V30 1242 H 127.724 -1.36817 -1.00395 0
M  V30 1243 H 126.496 -2.94685 -2.57442 0
M  V30 1244 H 126.119 -1.60218 -3.6389 0
M  V30 1245 N 127.117 1.15442 -1.07289 0
M  V30 1246 C 128.08 2.18358 -0.696591 0
M  V30 1247 C 129.08 1.58637 0.262837 0
M  V30 1248 O 130.27 1.74145 0.0438809 0
M  V30 1249 C 127.402 3.4089 -0.0266151 0
M  V30 1250 H 128.595 2.53162 -1.60776 0
M  V30 1251 H 126.148 1.29893 -0.869342 0
M  V30 1252 H 126.883 3.11653 0.896822 0
M  V30 1253 H 126.668 3.85495 -0.716657 0
M  V30 1254 H 128.158 4.17009 0.222028 0
M  V30 1255 N 128.595 0.856903 1.32268 0
M  V30 1256 C 129.841 0.462069 1.97466 0
M  V30 1257 C 130.174 -0.980298 1.67642 0
M  V30 1258 O 129.449 -1.68824 0.965858 0
M  V30 1259 C 129.732 0.704336 3.53145 0
M  V30 1260 C 129.585 2.19529 3.9259 0
M  V30 1261 C 130.904 0.1622 4.39801 0
M  V30 1262 H 128.023 0.169357 0.717278 0
M  V30 1263 H 130.665 1.07574 1.56614 0
M  V30 1264 H 128.815 0.181999 3.88073 0
M  V30 1265 H 130.487 2.78387 3.67829 0
M  V30 1266 H 128.73 2.67292 3.41668 0
M  V30 1267 H 129.401 2.31549 5.01088 0
M  V30 1268 H 131.877 0.608905 4.11621 0
M  V30 1269 H 130.753 0.361265 5.4771 0
M  V30 1270 H 131.014 -0.935158 4.32096 0
M  V30 1271 N 130.073 -1.45103 0.615059 0
M  V30 1272 C 130.983 -2.34382 -0.101034 0
M  V30 1273 C 131.999 -1.51681 -0.852585 0
M  V30 1274 O 133.175 -1.8446 -0.808484 0
M  V30 1275 C 130.24 -3.29417 -1.08099 0
M  V30 1276 C 129.301 -4.28025 -0.330577 0
M  V30 1277 C 128.534 -5.1852 -1.26385 0
M  V30 1278 O 128.757 -5.12598 -2.50198 0
M  V30 1279 O 127.691 -5.97122 -0.756866 0
M  V30 1280 H 131.517 -2.97033 0.632855 0
M  V30 1281 H 129.102 -1.4461 0.375293 0
M  V30 1282 H 130.984 -3.87958 -1.6452 0
M  V30 1283 H 129.659 -2.69321 -1.79577 0
M  V30 1284 H 128.566 -3.73078 0.276283 0
M  V30 1285 H 129.899 -4.90997 0.343866 0
M  V30 1286 N 131.551 -0.354651 -1.53558 0
M  V30 1287 C 132.828 0.294281 -1.93374 0
M  V30 1288 C 133.208 1.67313 -1.28723 0
M  V30 1289 O 132.556 2.24179 -0.442247 0
M  V30 1290 C 132.766 0.355445 -3.47185 0
M  V30 1291 C 134.114 0.601007 -4.20325 0
M  V30 1292 O 135.138 0.437106 -3.53508 0
M  V30 1293 O 133.997 0.919322 -5.38712 0
M  V30 1294 H 131.091 0.174033 -0.808481 0
M  V30 1295 H 133.637 -0.406638 -1.64756 0
M  V30 1296 H 132.409 -0.611729 -3.86489 0
M  V30 1297 H 132.032 1.1027 -3.82003 0
M  V30 1298 N 133.029 1.57378 -0.0835403 0
M  V30 1299 C 133.959 2.1641 0.87686 0
M  V30 1300 C 134.94 1.09429 1.30228 0
M  V30 1301 O 136.125 1.37516 1.37124 0
M  V30 1302 C 133.255 2.73517 2.14022 0
M  V30 1303 C 132.209 3.85769 1.85381 0
M  V30 1304 C 131.535 4.29529 3.18448 0
M  V30 1305 C 132.835 5.09486 1.14984 0
M  V30 1306 H 134.529 2.96914 0.385059 0
M  V30 1307 H 132.075 1.42823 0.18377 0
M  V30 1308 H 134.028 3.13463 2.81636 0
M  V30 1309 H 132.752 1.90252 2.65465 0
M  V30 1310 H 131.411 3.46345 1.20169 0
M  V30 1311 H 131.059 3.43169 3.67755 0
M  V30 1312 H 130.759 5.05204 3.00071 0
M  V30 1313 H 132.283 4.72099 3.8724 0
M  V30 1314 H 133.697 5.46674 1.72687 0
M  V30 1315 H 132.094 5.90515 1.06826 0
M  V30 1316 H 133.164 4.84724 0.130749 0
M  V30 1317 N 134.507 -0.190092 1.56449 0
M  V30 1318 C 135.417 -1.25591 1.98152 0
M  V30 1319 C 136.433 -1.49519 0.889944 0
M  V30 1320 O 137.609 -1.62036 1.19609 0
M  V30 1321 C 134.674 -2.57916 2.3169 0
M  V30 1322 C 133.735 -2.42015 3.5458 0
M  V30 1323 C 132.968 -3.6803 3.8651 0
M  V30 1324 O 133.191 -4.72413 3.1966 0
M  V30 1325 O 132.125 -3.6326 4.79923 0
M  V30 1326 H 135.951 -0.931988 2.89046 0
M  V30 1327 H 133.536 -0.395488 1.4407 0
M  V30 1328 H 135.418 -3.36008 2.54316 0
M  V30 1329 H 134.093 -2.89925 1.43963 0
M  V30 1330 H 133 -1.62017 3.37196 0
M  V30 1331 H 134.333 -2.14937 4.4279 0
M  V30 1332 N 135.985 -1.50799 -0.457987 0
M  V30 1333 C 137.21 -1.66496 -1.23668 0
M  V30 1334 C 137.635 -0.353288 -1.84752 0
M  V30 1335 O 136.993 0.684346 -1.67888 0
M  V30 1336 C 137.041 -2.76763 -2.3116 0
M  V30 1337 O 136.145 -2.38928 -3.36136 0
M  V30 1338 H 135.486 -0.555828 -0.363252 0
M  V30 1339 H 138.016 -1.9725 -0.543474 0
M  V30 1340 H 138.026 -3.00232 -2.76269 0
M  V30 1341 H 136.701 -3.71954 -1.86073 0
M  V30 1342 H 135.278 -2.25953 -2.96647 0
M  V30 1343 N 137.463 0.71206 -1.40597 0
M  V30 1344 C 138.709 1.47416 -1.39271 0
M  V30 1345 C 139.042 1.942 0.00388791 0
M  V30 1346 O 138.317 1.68403 0.973179 0
M  V30 1347 C 138.6 2.69774 -2.38525 0
M  V30 1348 C 138.453 2.28861 -3.87224 0
M  V30 1349 C 139.772 3.71939 -2.35264 0
M  V30 1350 H 136.891 0.534713 -0.5072 0
M  V30 1351 H 139.533 0.812375 -1.71757 0
M  V30 1352 H 137.683 3.26238 -2.10953 0
M  V30 1353 H 139.355 1.77852 -4.25636 0
M  V30 1354 H 137.598 1.60824 -4.02887 0
M  V30 1355 H 138.269 3.16584 -4.52193 0
M  V30 1356 H 140.745 3.25113 -2.59694 0
M  V30 1357 H 139.621 4.55186 -3.06753 0
M  V30 1358 H 139.882 4.20484 -1.36549 0
M  V30 1359 N 138.941 1.26152 0.944643 0
M  V30 1360 C 140.189 1.11271 1.6871 0
M  V30 1361 C 140.51 -0.345166 1.91921 0
M  V30 1362 O 139.78 -1.24387 1.51343 0
M  V30 1363 H 138.36 0.408783 0.625224 0
M  V30 1364 H 141.022 1.58427 1.1352 0
M  V30 1365 H 140.118 1.62879 2.66227 0
M  V30 1366 N 140.419 -1.14872 1.07899 0
M  V30 1367 C 141.366 -2.19791 0.704319 0
M  V30 1368 C 142.336 -1.63238 -0.306987 0
M  V30 1369 O 143.521 -1.8983 -0.192171 0
M  V30 1370 C 140.661 -3.44911 0.114244 0
M  V30 1371 C 139.774 -4.15637 1.1777 0
M  V30 1372 C 138.909 -5.28324 0.552037 0
M  V30 1373 C 137.948 -5.90875 1.59789 0
M  V30 1374 N 137.085 -6.95022 0.994404 0
M  V30 1375 H 141.925 -2.5119 1.60336 0
M  V30 1376 H 139.462 -1.23356 0.801352 0
M  V30 1377 H 141.42 -4.16477 -0.245544 0
M  V30 1378 H 140.05 -3.14011 -0.74813 0
M  V30 1379 H 139.102 -3.42512 1.65499 0
M  V30 1380 H 140.414 -4.5823 1.97046 0
M  V30 1381 H 139.568 -6.06538 0.1402 0
M  V30 1382 H 138.307 -4.86939 -0.272431 0
M  V30 1383 H 137.312 -5.11369 2.01945 0
M  V30 1384 H 138.537 -6.34337 2.42474 0
M  V30 1385 H 136.483 -6.55722 0.190939 0
M  V30 1386 H 136.4 -7.36073 1.72432 0
M  V30 1387 H 137.668 -7.77123 0.608253 0
M  V30 1388 N 141.898 -0.863906 -1.31812 0
M  V30 1389 C 143.146 -0.470904 -1.96537 0
M  V30 1390 C 143.467 0.978771 -1.68657 0
M  V30 1391 O 142.737 1.6853 -0.998717 0
M  V30 1392 H 141.317 -0.171148 -0.72713 0
M  V30 1393 H 143.979 -1.10236 -1.60729 0
M  V30 1394 H 143.075 -0.623616 -3.05806 0
M  V30 1395 N 143.376 1.44774 -0.622745 0
M  V30 1396 C 144.339 2.29069 0.0774015 0
M  V30 1397 C 145.339 1.4059 0.780461 0
M  V30 1398 O 146.529 1.62551 0.626322 0
M  V30 1399 C 143.661 3.21974 1.12006 0
M  V30 1400 H 144.854 2.92459 -0.663901 0
M  V30 1401 H 142.407 1.51548 -0.382486 0
M  V30 1402 H 143.142 2.63417 1.89162 0
M  V30 1403 H 142.927 3.87168 0.619951 0
M  V30 1404 H 144.417 3.85318 1.60995 0
M  V30 1405 N 144.854 0.36279 1.53368 0
M  V30 1406 C 146.1 -0.228113 2.01513 0
M  V30 1407 C 146.433 -1.48648 1.2497 0
M  V30 1408 O 145.708 -1.91459 0.342616 0
M  V30 1409 C 145.991 -0.522884 3.56284 0
M  V30 1410 C 145.844 0.74892 4.43521 0
M  V30 1411 C 147.163 -1.32461 4.19693 0
M  V30 1412 H 144.282 -0.0814343 0.732487 0
M  V30 1413 H 146.924 0.48713 1.83649 0
M  V30 1414 H 145.074 -1.1322 3.71636 0
M  V30 1415 H 146.746 1.38648 4.39971 0
M  V30 1416 H 144.989 1.36986 4.11603 0
M  V30 1417 H 145.66 0.497667 5.49752 0
M  V30 1418 H 148.136 -0.809203 4.08156 0
M  V30 1419 H 147.012 -1.49961 5.28018 0
M  V30 1420 H 147.273 -2.33232 3.75573 0
M  V30 1421 N 146.332 -1.57332 0.0918853 0
M  V30 1422 C 147.282 -2.10385 -0.87876 0
M  V30 1423 C 148.266 -1.01814 -1.24591 0
M  V30 1424 O 149.458 -1.28093 -1.22152 0
M  V30 1425 C 146.587 -2.68517 -2.13901 0
M  V30 1426 C 145.673 -3.84126 -1.79744 0
M  V30 1427 N 146.064 -4.92288 -1.1613 0
M  V30 1428 C 144.362 -3.93801 -2.09373 0
M  V30 1429 C 145.063 -5.7295 -1.00513 0
M  V30 1430 N 144.039 -5.21876 -1.5214 0
M  V30 1431 H 147.841 -2.91395 -0.38293 0
M  V30 1432 H 145.355 -1.62017 -0.111423 0
M  V30 1433 H 147.352 -3.04852 -2.84378 0
M  V30 1434 H 146.012 -1.88961 -2.64053 0
M  V30 1435 H 147.023 -5.1123 -0.828504 0
M  V30 1436 H 143.7 -3.25249 -2.61762 0
M  V30 1437 H 145.09 -6.69978 -0.507902 0
M  V30 1438 N 147.81 0.181792 -1.56548 0
M  V30 1439 C 149.087 0.926765 -1.72251 0
M  V30 1440 C 149.467 2.00831 -0.650386 0
M  V30 1441 O 148.815 2.26008 0.336521 0
M  V30 1442 C 149.025 1.50106 -3.1507 0
M  V30 1443 C 150.373 1.97805 -3.75711 0
M  V30 1444 O 151.397 1.59922 -3.18282 0
M  V30 1445 O 150.256 2.67555 -4.76525 0
M  V30 1446 H 147.35 0.435506 -0.703039 0
M  V30 1447 H 149.896 0.170443 -1.68842 0
M  V30 1448 H 148.668 0.72212 -3.84579 0
M  V30 1449 H 148.291 2.32186 -3.22763 0
M  V30 1450 N 149.288 1.51039 0.449983 0
M  V30 1451 C 150.534 1.63322 1.20223 0
M  V30 1452 C 150.867 0.34241 1.91158 0
M  V30 1453 O 150.142 -0.657344 1.83055 0
M  V30 1454 C 150.425 2.82801 2.22925 0
M  V30 1455 C 150.278 4.21823 1.56157 0
M  V30 1456 C 151.597 2.97807 3.24035 0
M  V30 1457 H 148.716 0.594407 0.435718 0
M  V30 1458 H 151.358 1.83489 0.493136 0
M  V30 1459 H 149.508 2.65738 2.834 0
M  V30 1460 H 151.18 4.50526 0.991162 0
M  V30 1461 H 149.423 4.25105 0.864172 0
M  V30 1462 H 150.094 5.01391 2.30891 0
M  V30 1463 H 152.57 3.13497 2.73603 0
M  V30 1464 H 151.446 3.82992 3.93202 0
M  V30 1465 H 151.707 2.09328 3.89402 0
M  V30 1466 N 150.766 -0.704594 1.40972 0
M  V30 1467 C 151.713 -1.81862 1.42109 0
M  V30 1468 C 152.683 -1.63781 0.276593 0
M  V30 1469 O 153.868 -1.84759 0.4763 0
M  V30 1470 C 151.008 -3.19669 1.30022 0
M  V30 1471 C 150.121 -3.49246 2.54267 0
M  V30 1472 C 149.256 -4.76618 2.3454 0
M  V30 1473 C 148.295 -4.99133 3.54306 0
M  V30 1474 N 147.432 -6.17726 3.33706 0
M  V30 1475 H 152.272 -1.80226 2.37324 0
M  V30 1476 H 149.809 -0.880238 1.17857 0
M  V30 1477 H 151.767 -3.99263 1.21018 0
M  V30 1478 H 150.397 -3.20506 0.384192 0
M  V30 1479 H 149.449 -2.64125 2.73756 0
M  V30 1480 H 150.761 -3.61788 3.43381 0
M  V30 1481 H 149.915 -5.64249 2.22952 0
M  V30 1482 H 148.654 -4.66305 1.42867 0
M  V30 1483 H 147.659 -4.09953 3.66359 0
M  V30 1484 H 148.884 -5.11311 4.4692 0
M  V30 1485 H 146.83 -6.08642 2.44725 0
M  V30 1486 H 146.747 -6.30995 4.16391 0
M  V30 1487 H 148.015 -7.08115 3.25873 0
M  V30 1488 N 152.244 -1.26651 -0.937939 0
M  V30 1489 C 153.521 -1.0313 -1.66204 0
M  V30 1490 C 153.901 0.437256 -2.06522 0
M  V30 1491 O 153.249 1.41831 -1.79154 0
M  V30 1492 C 153.459 -1.98314 -2.87181 0
M  V30 1493 C 154.807 -2.27107 -3.58758 0
M  V30 1494 O 155.831 -1.96205 -2.97291 0
M  V30 1495 O 154.69 -2.79736 -4.69479 0
M  V30 1496 H 151.784 -0.392384 -0.727986 0
M  V30 1497 H 154.33 -1.37874 -0.989382 0
M  V30 1498 H 153.102 -2.97399 -2.54302 0
M  V30 1499 H 152.725 -1.64068 -3.6217 0
M  V30 1500 N 153.722 1.14298 -1.08507 0
M  V30 1501 C 154.968 1.85633 -0.816581 0
M  V30 1502 C 155.301 1.82784 0.656021 0
M  V30 1503 O 154.576 1.25926 1.48233 0
M  V30 1504 C 154.859 3.34223 -1.34041 0
M  V30 1505 C 154.712 3.45639 -2.87843 0
M  V30 1506 C 156.031 4.29356 -0.9665 0
M  V30 1507 H 153.15 0.67402 -0.298104 0
M  V30 1508 H 155.792 1.34214 -1.34487 0
M  V30 1509 H 153.942 3.78144 -0.89104 0
M  V30 1510 H 155.614 3.10498 -3.41158 0
M  V30 1511 H 153.857 2.86817 -3.25451 0
M  V30 1512 H 154.528 4.50089 -3.19569 0
M  V30 1513 H 157.004 3.93457 -1.35391 0
M  V30 1514 H 155.88 5.3178 -1.3602 0
M  V30 1515 H 156.141 4.41919 0.126362 0
M  V30 1516 N 155.201 0.870884 1.31352 0
M  V30 1517 C 156.131 0.343096 2.30966 0
M  V30 1518 C 157.112 -0.566507 1.60389 0
M  V30 1519 O 158.297 -0.483336 1.88089 0
M  V30 1520 C 155.427 -0.455487 3.443 0
M  V30 1521 C 154.381 0.361103 4.26474 0
M  V30 1522 C 153.707 -0.563221 5.31725 0
M  V30 1523 C 155.007 1.59566 4.97329 0
M  V30 1524 H 156.701 1.17548 2.75359 0
M  V30 1525 H 154.247 0.566686 1.32381 0
M  V30 1526 H 156.2 -0.83525 4.13039 0
M  V30 1527 H 154.924 -1.32139 2.98675 0
M  V30 1528 H 153.583 0.722825 3.59403 0
M  V30 1529 H 153.231 -1.42643 4.82351 0
M  V30 1530 H 152.931 -0.0207409 5.87596 0
M  V30 1531 H 154.455 -0.939808 6.03324 0
M  V30 1532 H 155.869 1.28728 5.58661 0
M  V30 1533 H 154.266 2.07728 5.63 0
M  V30 1534 H 155.336 2.34798 4.24262 0
M  V30 1535 N 156.679 -1.44442 0.630414 0
M  V30 1536 C 157.956 -1.9549 0.0655657 0
M  V30 1537 C 158.336 -1.5724 -1.40851 0
M  V30 1538 O 157.684 -0.846116 -2.12257 0
M  V30 1539 C 157.894 -3.47812 0.287691 0
M  V30 1540 C 159.242 -4.24216 0.180513 0
M  V30 1541 O 160.266 -3.55526 0.219019 0
M  V30 1542 O 159.125 -5.46434 0.0848493 0
M  V30 1543 H 156.219 -0.826688 -0.0227177 0
M  V30 1544 H 158.765 -1.54496 0.702068 0
M  V30 1545 H 157.537 -3.687 1.31056 0
M  V30 1546 H 157.16 -3.95751 -0.382984 0
M  V30 1547 N 158.157 -0.370918 -1.53173 0
M  V30 1548 C 159.382 0.220293 -2.06227 0
M  V30 1549 C 159.807 1.41243 -1.24225 0
M  V30 1550 O 159.165 1.79387 -0.262645 0
M  V30 1551 C 159.213 0.586663 -3.55796 0
M  V30 1552 O 158.317 1.68317 -3.76488 0
M  V30 1553 H 157.658 0.0308099 -0.663285 0
M  V30 1554 H 160.188 -0.533068 -1.97534 0
M  V30 1555 H 160.198 0.85617 -3.98916 0
M  V30 1556 H 158.873 -0.285013 -4.14922 0
M  V30 1557 H 157.45 1.40881 -3.45264 0
M  V30 1558 N 159.635 1.57281 -0.100228 0
M  V30 1559 C 160.881 1.94826 0.563101 0
M  V30 1560 C 161.214 0.982475 1.67514 0
M  V30 1561 O 160.489 0.0164069 1.94493 0
M  V30 1562 C 160.772 3.42453 1.11346 0
M  V30 1563 C 160.625 4.498 0.00612081 0
M  V30 1564 C 161.944 3.91506 2.01024 0
M  V30 1565 H 159.063 0.708428 0.203221 0
M  V30 1566 H 161.705 1.8922 -0.171979 0
M  V30 1567 H 159.855 3.47361 1.7399 0
M  V30 1568 H 161.527 4.57 -0.628357 0
M  V30 1569 H 159.77 4.28756 -0.659581 0
M  V30 1570 H 160.441 5.50306 0.432109 0
M  V30 1571 H 162.917 3.88784 1.48278 0
M  V30 1572 H 161.793 4.95358 2.36457 0
M  V30 1573 H 162.054 3.31099 2.92961 0
M  V30 1574 N 161.113 -0.173488 1.56642 0
M  V30 1575 C 162.043 -1.2171 1.99271 0
M  V30 1576 C 163.024 -1.46289 0.867959 0
M  V30 1577 O 164.209 -1.5766 1.13388 0
M  V30 1578 C 161.339 -2.55651 2.35074 0
M  V30 1579 C 160.293 -2.45645 3.50489 0
M  V30 1580 C 159.619 -3.84056 3.72028 0
M  V30 1581 C 160.919 -1.96302 4.84007 0
M  V30 1582 H 162.613 -0.86275 2.867 0
M  V30 1583 H 160.159 -0.413571 1.37933 0
M  V30 1584 H 162.112 -3.2886 2.63494 0
M  V30 1585 H 160.836 -2.92869 1.44552 0
M  V30 1586 H 159.495 -1.7489 3.22194 0
M  V30 1587 H 159.143 -4.18664 2.788 0
M  V30 1588 H 158.843 -3.7823 4.49684 0
M  V30 1589 H 160.367 -4.58854 4.02846 0
M  V30 1590 H 161.781 -2.59284 5.11317 0
M  V30 1591 H 160.178 -2.01429 5.65284 0
M  V30 1592 H 161.248 -0.917226 4.76146 0
M  V30 1593 O 162.63 -1.58328 -0.318489 0
M  V30 1594 H 163.321 -1.67855 -0.96667 0
M  V30 END ATOM
M  V30 BEGIN BOND
M  V30 END BOND
M  V30 END CTAB
M  END
$$$$
