drugbank_target|P81989 Purine nucleoside phosphorylase (DB02985)
 OpenBabel12092119573D

  0  0  0     0  0            999 V3000
M  V30 BEGIN CTAB
M  V30 COUNTS 4084 4128 0 0 0
M  V30 BEGIN ATOM
M  V30 1 H -0.908 1.98254 -0.117106 0
M  V30 2 N 0 1.576 0 0
M  V30 3 C 1.228 1.94848 0.695833 0
M  V30 4 C 1.643 0.874846 1.67308 0
M  V30 5 O 1 -0.146215 1.81913 0
M  V30 6 C 1.051 3.32113 1.4277 0
M  V30 7 O 0.772 4.35355 0.489647 0
M  V30 8 C 2.273 3.8382 2.21804 0
M  V30 9 H -0.507 0.642403 0.193802 0
M  V30 10 H 2.037 2.04436 -0.0511197 0
M  V30 11 H 0.192 3.23833 2.12628 0
M  V30 12 H 0.606 5.14762 1.00601 0
M  V30 13 H 2.08 4.82293 2.6851 0
M  V30 14 H 2.557 3.16527 3.04479 0
M  V30 15 H 3.163 3.95276 1.56962 0
M  V30 16 N 1.4781 -0.272755 1.55222 0
M  V30 17 C 2.7061 -1.02255 1.79865 0
M  V30 18 C 3.1211 -1.79924 0.572088 0
M  V30 19 O 2.4781 -1.76638 -0.458842 0
M  V30 20 C 2.5291 -1.98094 3.02392 0
M  V30 21 O 2.2501 -1.23572 4.20311 0
M  V30 22 C 3.7511 -2.84884 3.39641 0
M  V30 23 H 0.9711 -0.302057 0.599168 0
M  V30 24 H 3.5151 -0.303465 2.02236 0
M  V30 25 H 1.6701 -2.65465 2.82147 0
M  V30 26 H 2.0841 -1.88172 4.89583 0
M  V30 27 H 3.5581 -3.47927 4.28545 0
M  V30 28 H 4.0351 -3.54665 2.59055 0
M  V30 29 H 4.6411 -2.23003 3.62146 0
M  V30 30 N 2.9562 -1.48159 -0.537278 0
M  V30 31 C 4.1842 -1.59454 -1.31841 0
M  V30 32 C 4.5992 -0.252065 -1.8711 0
M  V30 33 O 3.9562 0.757621 -1.66031 0
M  V30 34 C 4.0072 -2.63546 -2.47439 0
M  V30 35 O 3.7282 -3.92583 -1.94449 0
M  V30 36 C 5.2292 -2.85212 -3.39366 0
M  V30 37 H 2.4492 -0.53785 -0.401196 0
M  V30 38 H 4.9932 -1.93932 -0.648891 0
M  V30 39 H 3.1482 -2.31946 -3.1029 0
M  V30 40 H 3.5622 -4.49629 -2.70063 0
M  V30 41 H 5.0362 -3.61863 -4.16844 0
M  V30 42 H 5.5132 -1.93765 -3.94147 0
M  V30 43 H 6.1192 -3.18086 -2.82314 0
M  V30 44 N 4.4343 0.785586 -1.36625 0
M  V30 45 C 5.6623 1.57448 -1.3423 0
M  V30 46 C 6.0773 1.88649 0.0755653 0
M  V30 47 O 5.4343 1.50414 1.03354 0
M  V30 48 C 5.4853 2.89316 -2.16745 0
M  V30 49 O 5.2063 2.59459 -3.53005 0
M  V30 50 C 6.7073 3.83606 -2.22174 0
M  V30 51 H 3.9273 0.488226 -0.4603 0
M  V30 52 H 6.4713 0.974733 -1.79775 0
M  V30 53 H 4.6263 3.4575 -1.74745 0
M  V30 54 H 5.0403 3.43804 -3.96105 0
M  V30 55 H 6.5143 4.73181 -2.8426 0
M  V30 56 H 6.9913 4.21734 -1.22627 0
M  V30 57 H 7.5973 3.33104 -2.64427 0
M  V30 58 N 5.9124 1.20967 1.01018 0
M  V30 59 C 7.3234 1.02319 1.56165 0
M  V30 60 C 7.6744 -0.418546 1.91684 0
M  V30 61 O 6.7994 -1.30096 1.72928 0
M  V30 62 C 7.3944 1.85109 2.8376 0
M  V30 63 C 5.9534 1.70809 3.35412 0
M  V30 64 C 5.1004 1.82643 2.08655 0
M  V30 65 H 8.0514 1.35065 0.833255 0
M  V30 66 H 8.0724 1.35827 3.55431 0
M  V30 67 H 7.5844 2.90035 2.57878 0
M  V30 68 H 5.6854 0.685464 3.66241 0
M  V30 69 H 5.7984 2.52467 4.07182 0
M  V30 70 H 4.1624 1.25896 2.21409 0
M  V30 71 H 4.9454 2.89066 1.85191 0
M  V30 72 N 7.3905 -1.2043 1.01659 0
M  V30 73 C 8.8015 -1.71517 0.737482 0
M  V30 74 C 9.1525 -1.81547 -0.743973 0
M  V30 75 O 8.2775 -1.47803 -1.58061 0
M  V30 76 C 8.8725 -3.11515 1.33206 0
M  V30 77 C 7.4315 -3.59912 1.10183 0
M  V30 78 C 6.5785 -2.37116 1.43776 0
M  V30 79 H 9.5295 -1.05444 1.18606 0
M  V30 80 H 9.5505 -3.73575 0.722636 0
M  V30 81 H 9.0625 -3.04182 2.41028 0
M  V30 82 H 7.1635 -3.72577 0.0412756 0
M  V30 83 H 7.2765 -4.44731 1.78188 0
M  V30 84 H 5.6405 -2.39857 0.856778 0
M  V30 85 H 6.4235 -2.32424 2.52654 0
M  V30 86 N 8.8686 -0.792821 -1.36206 0
M  V30 87 C 10.0936 -0.377701 -2.03932 0
M  V30 88 C 10.5186 0.998947 -1.59382 0
M  V30 89 O 9.8766 1.64421 -0.763903 0
M  V30 90 C 9.9246 -0.453635 -3.57735 0
M  V30 91 O 9.0286 0.538151 -4.08874 0
M  V30 92 H 8.3696 -0.159855 -0.644471 0
M  V30 93 H 10.8996 -1.07488 -1.7409 0
M  V30 94 H 10.9096 -0.318464 -4.06755 0
M  V30 95 H 9.5846 -1.45784 -3.89512 0
M  V30 96 H 8.1616 0.364359 -3.71116 0
M  V30 97 N 10.3467 1.47872 -0.545128 0
M  V30 98 C 11.5747 2.06889 -0.021084 0
M  V30 99 C 11.9897 1.39955 1.2672 0
M  V30 100 O 11.3467 0.492036 1.75742 0
M  V30 101 C 11.3977 3.60996 0.190817 0
M  V30 102 O 11.1187 4.25419 -1.04644 0
M  V30 103 C 12.6197 4.36849 0.753521 0
M  V30 104 H 9.8397 0.669785 -0.0403635 0
M  V30 105 H 12.3837 1.90049 -0.755095 0
M  V30 106 H 10.5387 3.77391 0.87492 0
M  V30 107 H 10.9527 5.17785 -0.836611 0
M  V30 108 H 12.4267 5.45399 0.851139 0
M  V30 109 H 12.9037 4.02306 1.762 0
M  V30 110 H 13.5097 4.25169 0.105503 0
M  V30 111 N 11.8248 0.280983 1.55075 0
M  V30 112 C 13.2358 -0.215629 1.85451 0
M  V30 113 C 13.5868 -1.54991 1.203 0
M  V30 114 O 12.7118 -2.10699 0.493435 0
M  V30 115 C 13.3068 -0.398026 3.36454 0
M  V30 116 C 11.8658 -0.838866 3.66933 0
M  V30 117 C 11.0128 0.064458 2.77225 0
M  V30 118 H 13.9638 0.502601 1.50531 0
M  V30 119 H 13.9848 -1.23569 3.59876 0
M  V30 120 H 13.4968 0.573241 3.83843 0
M  V30 121 H 11.5978 -1.8214 3.25048 0
M  V30 122 H 11.7108 -0.672123 4.74362 0
M  V30 123 H 10.0748 -0.452863 2.50642 0
M  V30 124 H 10.8578 1.03172 3.2743 0
M  V30 125 N 13.3029 -1.57598 0.00835791 0
M  V30 126 C 14.7139 -1.7892 -0.53333 0
M  V30 127 C 15.0649 -0.916609 -1.73473 0
M  V30 128 O 14.1899 -0.121336 -2.1606 0
M  V30 129 C 14.7849 -3.24488 -0.974313 0
M  V30 130 C 13.3439 -3.46878 -1.46125 0
M  V30 131 C 12.4909 -2.74157 -0.416302 0
M  V30 132 H 15.4419 -1.56958 0.234495 0
M  V30 133 H 15.4629 -3.3306 -1.83988 0
M  V30 134 H 14.9749 -3.87972 -0.099718 0
M  V30 135 H 13.0759 -2.8862 -2.35646 0
M  V30 136 H 13.1889 -4.55572 -1.48295 0
M  V30 137 H 11.5529 -2.39022 -0.87981 0
M  V30 138 H 12.3359 -3.40345 0.44947 0
M  V30 139 N 14.781 0.264519 -1.55364 0
M  V30 140 C 15.711 1.33121 -1.91836 0
M  V30 141 C 16.692 1.51101 -0.781192 0
M  V30 142 O 17.877 1.64003 -1.04003 0
M  V30 143 C 15.007 2.68921 -2.19769 0
M  V30 144 C 13.961 2.65661 -3.35571 0
M  V30 145 C 13.287 4.05093 -3.49004 0
M  V30 146 C 14.587 2.24187 -4.71739 0
M  V30 147 H 16.281 1.02844 -2.81182 0
M  V30 148 H 13.827 0.493286 -1.35287 0
M  V30 149 H 15.78 3.43663 -2.43872 0
M  V30 150 H 14.504 3.00799 -1.27231 0
M  V30 151 H 13.163 1.93377 -3.1145 0
M  V30 152 H 12.811 4.34206 -2.53917 0
M  V30 153 H 12.511 4.03804 -4.26868 0
M  V30 154 H 14.035 4.81561 -3.75408 0
M  V30 155 H 15.449 2.88654 -4.9533 0
M  V30 156 H 13.846 2.34044 -5.52579 0
M  V30 157 H 14.916 1.19327 -4.69988 0
M  V30 158 N 16.2591 1.48442 0.529413 0
M  V30 159 C 17.5361 1.46978 1.29062 0
M  V30 160 C 17.9161 0.181769 2.10316 0
M  V30 161 O 17.2641 -0.836481 2.12639 0
M  V30 162 C 17.4741 2.7321 2.17157 0
M  V30 163 C 18.8221 3.21562 2.77278 0
M  V30 164 O 19.8461 2.74131 2.27444 0
M  V30 165 O 18.7051 4.04094 3.67927 0
M  V30 166 H 15.7991 0.587003 0.582543 0
M  V30 167 H 18.3451 1.60676 0.546021 0
M  V30 168 H 17.1171 3.58465 1.56903 0
M  V30 169 H 16.7401 2.62235 2.98862 0
M  V30 170 N 17.7372 -0.778329 1.37039 0
M  V30 171 C 19.0142 -1.52551 1.22424 0
M  V30 172 C 19.3942 -2.10288 -0.184964 0
M  V30 173 O 18.7422 -1.94953 -1.19187 0
M  V30 174 C 18.9522 -2.61164 2.31504 0
M  V30 175 C 20.3002 -3.28746 2.68721 0
M  V30 176 O 21.3242 -2.71455 2.30631 0
M  V30 177 O 20.1832 -4.3231 3.3432 0
M  V30 178 H 17.2772 -0.675343 0.477326 0
M  V30 179 H 19.8232 -0.815859 1.48801 0
M  V30 180 H 18.5952 -2.16574 3.25901 0
M  V30 181 H 18.2182 -3.39737 2.06554 0
M  V30 182 N 19.2153 -1.21501 -1.00376 0
M  V30 183 C 20.6263 -1.03146 -1.55621 0
M  V30 184 C 20.9773 0.408375 -1.91903 0
M  V30 185 O 20.1023 1.29177 -1.73616 0
M  V30 186 C 20.6973 -1.86612 -2.82775 0
M  V30 187 C 19.2563 -1.72586 -3.34501 0
M  V30 188 C 18.4033 -1.83747 -2.07683 0
M  V30 189 H 21.3543 -1.35505 -0.826081 0
M  V30 190 H 21.3753 -1.3771 -3.54706 0
M  V30 191 H 20.8873 -2.91399 -2.56336 0
M  V30 192 H 18.9883 -0.704877 -3.65872 0
M  V30 193 H 19.1013 -2.54623 -4.05837 0
M  V30 194 H 17.4653 -1.27069 -2.20739 0
M  V30 195 H 18.2483 -2.90044 -1.83655 0
M  V30 196 N 20.6934 1.19889 -1.02296 0
M  V30 197 C 21.6564 2.21116 -0.603351 0
M  V30 198 C 22.6564 1.5738 0.329884 0
M  V30 199 O 23.8464 1.73802 0.117702 0
M  V30 200 C 20.9784 3.40696 0.117992 0
M  V30 201 H 22.1714 2.59754 -1.49893 0
M  V30 202 H 19.7244 1.33463 -0.813468 0
M  V30 203 H 20.4594 3.07569 1.0282 0
M  V30 204 H 20.2444 3.88188 -0.552511 0
M  V30 205 H 21.7344 4.15692 0.398696 0
M  V30 206 N 22.1715 0.800033 1.35784 0
M  V30 207 C 23.3995 0.389606 2.03199 0
M  V30 208 C 23.8145 -0.997375 1.60306 0
M  V30 209 O 23.1715 -1.64154 0.797481 0
M  V30 210 C 23.2225 0.455855 3.58614 0
M  V30 211 O 22.9435 1.78815 3.99946 0
M  V30 212 C 24.4445 0.0374032 4.43284 0
M  V30 213 H 21.6645 0.159132 0.651857 0
M  V30 214 H 24.2085 1.08183 1.73541 0
M  V30 215 H 22.3635 -0.188057 3.86943 0
M  V30 216 H 22.7775 1.74636 4.94573 0
M  V30 217 H 24.2515 0.134882 5.51835 0
M  V30 218 H 24.7285 -1.01651 4.27275 0
M  V30 219 H 25.3345 0.654215 4.20238 0
M  V30 220 N 23.6496 -1.47581 0.552962 0
M  V30 221 C 24.9266 -1.95563 -0.0381515 0
M  V30 222 C 25.3066 -1.49552 -1.48988 0
M  V30 223 O 24.6546 -0.732414 -2.16444 0
M  V30 224 C 24.8646 -3.48848 0.102919 0
M  V30 225 C 26.2126 -4.24577 -0.0446082 0
M  V30 226 O 27.2366 -3.56187 0.0302548 0
M  V30 227 O 26.0956 -5.46116 -0.204923 0
M  V30 228 H 23.1896 -0.824321 -0.0665067 0
M  V30 229 H 25.7356 -1.58001 0.619186 0
M  V30 230 H 24.5076 -3.75129 1.11328 0
M  V30 231 H 24.1306 -3.93165 -0.592224 0
M  V30 232 N 25.1277 -0.289203 -1.54924 0
M  V30 233 C 26.5387 0.205791 -1.85562 0
M  V30 234 C 26.8897 1.54351 -1.2112 0
M  V30 235 O 26.0147 2.10435 -0.504601 0
M  V30 236 C 26.6097 0.380177 -3.3666 0
M  V30 237 C 25.1687 0.819395 -3.67373 0
M  V30 238 C 24.3157 -0.079159 -2.77187 0
M  V30 239 H 27.2667 -0.510577 -1.50262 0
M  V30 240 H 27.2877 1.21659 -3.60526 0
M  V30 241 H 26.7997 -0.593589 -3.83534 0
M  V30 242 H 24.9007 1.80413 -3.26009 0
M  V30 243 H 25.0137 0.646957 -4.74712 0
M  V30 244 H 23.3777 0.439565 -2.50878 0
M  V30 245 H 24.1607 -1.04906 -3.26878 0
M  V30 246 N 26.6058 1.57591 -0.0167156 0
M  V30 247 C 27.8528 1.91283 0.664597 0
M  V30 248 C 28.1808 0.891949 1.72842 0
M  V30 249 O 27.4358 -0.100931 1.9544 0
M  V30 250 C 27.7348 3.3172 1.33029 0
M  V30 251 C 27.4008 4.4914 0.398047 0
M  V30 252 C 26.0628 4.80992 0.141421 0
M  V30 253 C 28.4148 5.20634 -0.242825 0
M  V30 254 C 25.7428 5.81703 -0.764092 0
M  V30 255 C 28.0948 6.22311 -1.13632 0
M  V30 256 C 26.7588 6.52611 -1.40196 0
M  V30 257 H 26.0288 0.699956 0.243193 0
M  V30 258 H 28.6758 1.9135 -0.0758267 0
M  V30 259 H 26.9808 3.27856 2.14517 0
M  V30 260 H 28.6778 3.55055 1.86379 0
M  V30 261 H 25.2678 4.24262 0.608238 0
M  V30 262 H 29.4518 4.96267 -0.0576019 0
M  V30 263 H 24.7078 6.03532 -0.977732 0
M  V30 264 H 28.8818 6.76834 -1.63917 0
M  V30 265 H 26.5088 7.30467 -2.10529 0
M  V30 266 N 28.0839 -0.256276 1.55502 0
M  V30 267 C 29.0139 -1.32102 1.92539 0
M  V30 268 C 29.9949 -1.50684 0.789194 0
M  V30 269 O 31.1799 -1.63449 1.04872 0
M  V30 270 C 28.3099 -2.67752 2.21192 0
M  V30 271 C 27.2639 -2.63878 3.36975 0
M  V30 272 C 26.5899 -4.03236 3.51147 0
M  V30 273 C 27.8899 -2.21682 4.72921 0
M  V30 274 H 29.5839 -1.01351 2.81724 0
M  V30 275 H 27.1299 -0.486105 1.35547 0
M  V30 276 H 29.0829 -3.42365 2.45691 0
M  V30 277 H 27.8069 -3.0012 1.28824 0
M  V30 278 H 26.4659 -1.91722 3.12471 0
M  V30 279 H 26.1139 -4.32854 2.56216 0
M  V30 280 H 25.8139 -4.01535 4.29003 0
M  V30 281 H 27.3379 -4.79563 3.77957 0
M  V30 282 H 28.7519 -2.86023 4.96854 0
M  V30 283 H 27.1489 -2.3111 5.53812 0
M  V30 284 H 28.2189 -1.16833 4.70615 0
M  V30 285 N 29.562 -1.4872 -0.521534 0
M  V30 286 C 30.808 -1.574 -1.27879 0
M  V30 287 C 31.141 -0.250817 -1.92573 0
M  V30 288 O 30.416 0.743934 -1.79711 0
M  V30 289 C 30.699 -2.71843 -2.36164 0
M  V30 290 C 30.552 -4.13893 -1.76105 0
M  V30 291 C 31.871 -2.82008 -3.37875 0
M  V30 292 H 28.99 -0.572941 -0.463581 0
M  V30 293 H 31.632 -1.80927 -0.580119 0
M  V30 294 H 29.782 -2.51914 -2.95756 0
M  V30 295 H 31.454 -4.45284 -1.20499 0
M  V30 296 H 29.697 -4.20498 -1.06601 0
M  V30 297 H 30.368 -4.89804 -2.5455 0
M  V30 298 H 32.844 -3.00086 -2.88249 0
M  V30 299 H 31.72 -3.63796 -4.11028 0
M  V30 300 H 31.981 -1.90511 -3.98946 0
M  V30 301 N 31.0401 0.771051 -1.3745 0
M  V30 302 C 32.0031 1.86598 -1.33093 0
M  V30 303 C 33.0031 1.59076 -0.234845 0
M  V30 304 O 34.1931 1.67145 -0.490732 0
M  V30 305 C 31.3251 3.23747 -1.06773 0
M  V30 306 H 32.5181 1.91873 -2.30488 0
M  V30 307 H 30.0711 0.970876 -1.2249 0
M  V30 308 H 30.8061 3.24148 -0.099129 0
M  V30 309 H 30.5911 3.45115 -1.86112 0
M  V30 310 H 32.0811 4.03824 -1.06377 0
M  V30 311 N 32.5182 1.22032 0.997298 0
M  V30 312 C 33.9342 0.979326 1.26021 0
M  V30 313 C 34.1342 -0.32972 1.98784 0
M  V30 314 O 33.1902 -1.05345 2.29475 0
M  V30 315 C 34.5032 2.17509 2.07631 0
M  V30 316 C 36.0512 2.21817 2.2083 0
M  V30 317 C 36.5262 3.40933 3.05825 0
M  V30 318 N 38.0172 3.41067 3.13412 0
M  V30 319 C 38.7522 4.29885 3.79455 0
M  V30 320 N 38.2482 5.28914 4.47462 0
M  V30 321 N 40.0412 4.17673 3.76173 0
M  V30 322 H 32.1922 2.06202 0.509352 0
M  V30 323 H 34.4552 0.90334 0.287541 0
M  V30 324 H 34.1612 3.12415 1.61524 0
M  V30 325 H 34.0352 2.17206 3.08385 0
M  V30 326 H 36.4222 1.27462 2.66153 0
M  V30 327 H 36.5032 2.2616 1.1952 0
M  V30 328 H 36.1472 4.35586 2.61203 0
M  V30 329 H 36.0772 3.33829 4.07266 0
M  V30 330 H 38.5682 2.69406 2.65007 0
M  V30 331 H 38.8812 5.92973 4.95583 0
M  V30 332 H 37.2262 5.32831 4.46224 0
M  V30 333 H 40.4172 3.39564 3.22202 0
M  V30 334 H 40.5902 4.87098 4.27363 0
M  V30 335 N 33.9963 -1.19345 1.0293 0
M  V30 336 C 34.9593 -2.20793 0.615069 0
M  V30 337 C 35.9593 -1.57553 -0.321533 0
M  V30 338 O 37.1493 -1.73862 -0.108483 0
M  V30 339 C 34.2813 -3.40754 -0.0999222 0
M  V30 340 H 35.4743 -2.58955 1.51269 0
M  V30 341 H 33.0273 -1.3303 0.820534 0
M  V30 342 H 33.7623 -3.0811 -1.01187 0
M  V30 343 H 33.5473 -3.87889 0.57309 0
M  V30 344 H 35.0373 -4.15898 -0.376645 0
M  V30 345 N 35.4744 -0.807222 -1.35358 0
M  V30 346 C 36.4374 -0.223665 -2.28106 0
M  V30 347 C 37.4374 0.589354 -1.4961 0
M  V30 348 O 38.6274 0.407745 -1.69361 0
M  V30 349 C 35.7594 0.688149 -3.33882 0
M  V30 350 H 36.9524 -1.04169 -2.81227 0
M  V30 351 H 34.5054 -0.577921 -1.45223 0
M  V30 352 H 35.2404 1.52984 -2.85948 0
M  V30 353 H 35.0254 0.10687 -3.91954 0
M  V30 354 H 36.5154 1.09075 -4.03104 0
M  V30 355 N 36.9525 1.47285 -0.560781 0
M  V30 356 C 37.9155 2.28535 0.174488 0
M  V30 357 C 38.9155 1.37153 0.839388 0
M  V30 358 O 40.1055 1.59748 0.694702 0
M  V30 359 C 37.2375 3.16934 1.25561 0
M  V30 360 H 38.4305 2.95012 -0.539262 0
M  V30 361 H 35.9835 1.53034 -0.317865 0
M  V30 362 H 36.7185 2.55157 2.00164 0
M  V30 363 H 36.5035 3.8419 0.783604 0
M  V30 364 H 37.9935 3.78143 1.77193 0
M  V30 365 N 38.4306 0.297415 1.54768 0
M  V30 366 C 39.7076 -0.365847 1.92148 0
M  V30 367 C 40.0876 -1.71975 1.22424 0
M  V30 368 O 39.4356 -2.25666 0.358739 0
M  V30 369 C 39.6456 -0.484056 3.45627 0
M  V30 370 C 40.9936 -0.756594 4.17805 0
M  V30 371 O 42.0176 -0.568007 3.51642 0
M  V30 372 O 40.8766 -1.11863 5.34929 0
M  V30 373 H 37.9706 -0.203919 0.801465 0
M  V30 374 H 40.5166 0.34521 1.66152 0
M  V30 375 H 39.2886 0.467865 3.88493 0
M  V30 376 H 38.9116 -1.24372 3.77647 0
M  V30 377 N 39.9087 -1.5758 0.0250728 0
M  V30 378 C 40.8587 -2.06468 -0.967201 0
M  V30 379 C 41.8427 -0.964376 -1.28797 0
M  V30 380 O 43.0347 -1.22797 -1.27475 0
M  V30 381 C 40.1637 -2.59203 -2.25097 0
M  V30 382 C 39.2497 -3.76157 -1.95874 0
M  V30 383 N 39.6407 -4.86919 -1.36905 0
M  V30 384 C 37.9387 -3.84566 -2.25887 0
M  V30 385 C 38.6397 -5.68172 -1.24724 0
M  V30 386 N 37.6157 -5.14953 -1.74138 0
M  V30 387 H 41.4177 -2.89508 -0.506176 0
M  V30 388 H 38.9317 -1.61399 -0.18004 0
M  V30 389 H 40.9287 -2.92517 -2.97052 0
M  V30 390 H 39.5887 -1.77592 -2.71829 0
M  V30 391 H 40.5997 -5.07256 -1.04459 0
M  V30 392 H 37.2767 -3.13854 -2.75321 0
M  V30 393 H 38.6667 -6.67221 -0.791605 0
M  V30 394 N 41.3868 0.248026 -1.55636 0
M  V30 395 C 42.6358 0.974134 -1.76617 0
M  V30 396 C 42.9488 1.86528 -0.588796 0
M  V30 397 O 44.1548 2.62805 -0.681594 0
M  V30 398 C 42.6108 1.78213 -3.12679 0
M  V30 399 C 42.2188 0.93843 -4.38061 0
M  V30 400 C 43.9628 2.50104 -3.42999 0
M  V30 401 C 41.8698 1.74225 -5.65155 0
M  V30 402 H 40.7998 0.36745 -0.658405 0
M  V30 403 H 43.4508 0.22884 -1.82067 0
M  V30 404 H 41.8328 2.56933 -3.01333 0
M  V30 405 H 43.0068 0.193635 -4.60393 0
M  V30 406 H 41.3218 0.332905 -4.15067 0
M  V30 407 H 43.9188 3.10694 -4.3517 0
M  V30 408 H 44.2618 3.21662 -2.64271 0
M  V30 409 H 44.7948 1.78395 -3.55556 0
M  V30 410 H 41.5338 1.07043 -6.46701 0
M  V30 411 H 41.0538 2.46235 -5.46926 0
M  V30 412 H 42.7328 2.30967 -6.0437 0
M  V30 413 N 42.8649 1.48995 0.513639 0
M  V30 414 C 43.8279 1.64229 1.59879 0
M  V30 415 C 44.8279 0.514696 1.5234 0
M  V30 416 O 46.0179 0.78087 1.55718 0
M  V30 417 C 43.1499 1.62783 2.99524 0
M  V30 418 H 44.3429 2.61004 1.47705 0
M  V30 419 H 41.8959 1.37837 0.736936 0
M  V30 420 H 42.6309 0.675461 3.17188 0
M  V30 421 H 42.4159 2.4466 3.06404 0
M  V30 422 H 43.9059 1.76669 3.78388 0
M  V30 423 N 44.343 -0.763751 1.37857 0
M  V30 424 C 45.275 -1.88664 1.30148 0
M  V30 425 C 46.288 -1.61365 0.215685 0
M  V30 426 O 47.477 -1.72134 0.472459 0
M  V30 427 C 44.577 -3.24075 0.991396 0
M  V30 428 C 43.75 -3.78958 2.18426 0
M  V30 429 C 42.809 -4.92862 1.8432 0
M  V30 430 O 41.835 -5.08027 2.56704 0
M  V30 431 N 43.037 -5.75071 0.792081 0
M  V30 432 H 45.802 -1.95791 2.26905 0
M  V30 433 H 43.363 -0.943226 1.31586 0
M  V30 434 H 45.355 -3.97804 0.743935 0
M  V30 435 H 43.925 -3.12399 0.112122 0
M  V30 436 H 43.145 -2.96913 2.59299 0
M  V30 437 H 44.433 -4.12357 2.98058 0
M  V30 438 H 43.831 -5.65375 0.191595 0
M  V30 439 H 42.388 -6.48991 0.60449 0
M  V30 440 N 45.8211 -1.22559 -0.990812 0
M  V30 441 C 46.7841 -0.998863 -2.0629 0
M  V30 442 C 47.7841 0.0354834 -1.60761 0
M  V30 443 O 48.9741 -0.203231 -1.7301 0
M  V30 444 C 46.1061 -0.509203 -3.37076 0
M  V30 445 H 47.2991 -1.95014 -2.27837 0
M  V30 446 H 44.8521 -1.04456 -1.16269 0
M  V30 447 H 45.5871 0.446335 -3.21214 0
M  V30 448 H 45.3721 -1.25547 -3.71457 0
M  V30 449 H 46.8621 -0.370888 -4.1595 0
M  V30 450 N 47.2992 1.18797 -1.03562 0
M  V30 451 C 48.5272 1.92599 -0.755869 0
M  V30 452 C 48.9422 1.75886 0.686271 0
M  V30 453 O 48.2992 1.08517 1.46732 0
M  V30 454 C 48.3502 3.44159 -1.10619 0
M  V30 455 O 48.0712 3.60341 -2.4917 0
M  V30 456 C 49.5722 4.3507 -0.850214 0
M  V30 457 H 46.7922 0.611587 -0.276048 0
M  V30 458 H 49.3362 1.50742 -1.38192 0
M  V30 459 H 47.4912 3.83823 -0.525194 0
M  V30 460 H 47.9052 4.54128 -2.62427 0
M  V30 461 H 49.3792 5.39989 -1.14523 0
M  V30 462 H 49.8562 4.38673 0.215176 0
M  V30 463 H 50.4622 4.01097 -1.41426 0
M  V30 464 N 48.7773 0.814389 1.34928 0
M  V30 465 C 50.0253 0.397636 1.9815 0
M  V30 466 C 50.3463 -1.04069 1.64908 0
M  V30 467 O 49.6163 -1.72121 0.93548 0
M  V30 468 H 48.1963 0.144043 0.732981 0
M  V30 469 H 50.8583 1.04195 1.6471 0
M  V30 470 H 49.9543 0.509688 3.0791 0
M  V30 471 N 50.2554 -1.46986 0.568584 0
M  V30 472 C 51.5014 -2.02741 0.0488709 0
M  V30 473 C 51.8344 -1.44077 -1.30214 0
M  V30 474 O 51.1094 -0.600552 -1.84996 0
M  V30 475 C 51.3924 -3.60086 -0.032047 0
M  V30 476 C 51.2454 -4.29162 1.34686 0
M  V30 477 C 52.5644 -4.33838 -0.739798 0
M  V30 478 H 49.6834 -0.736749 0.0192338 0
M  V30 479 H 52.3254 -1.75289 0.733065 0
M  V30 480 H 50.4754 -3.83606 -0.61473 0
M  V30 481 H 52.1474 -4.16948 1.97362 0
M  V30 482 H 50.3904 -3.89073 1.91846 0
M  V30 483 H 51.0614 -5.37826 1.24285 0
M  V30 484 H 53.5374 -4.15378 -0.244939 0
M  V30 485 H 52.4134 -5.43537 -0.765406 0
M  V30 486 H 52.6744 -4.03875 -1.79827 0
M  V30 487 N 51.7335 -0.305618 -1.54608 0
M  V30 488 C 52.6435 0.57778 -2.27374 0
M  V30 489 C 53.6595 1.14451 -1.31061 0
M  V30 490 O 54.8355 1.16831 -1.6405 0
M  V30 491 C 51.9005 1.73123 -3.00382 0
M  V30 492 C 50.9615 1.19812 -4.12242 0
M  V30 493 C 50.1945 2.2966 -4.81759 0
M  V30 494 O 50.4175 3.49651 -4.50666 0
M  V30 495 O 49.3515 1.96091 -5.69062 0
M  V30 496 H 53.1775 -0.012624 -3.03697 0
M  V30 497 H 50.7625 -0.0719184 -1.49227 0
M  V30 498 H 52.6445 2.40315 -3.4616 0
M  V30 499 H 51.3195 2.30815 -2.26949 0
M  V30 500 H 50.2265 0.491798 -3.70853 0
M  V30 501 H 51.5595 0.666566 -4.87666 0
M  V30 502 N 53.2116 1.57565 -0.0334293 0
M  V30 503 C 54.4596 1.91598 0.642999 0
M  V30 504 C 54.7806 0.910847 1.7242 0
M  V30 505 O 54.0506 -0.0469931 1.95844 0
M  V30 506 H 52.6306 0.707228 0.240496 0
M  V30 507 H 55.2926 1.94726 -0.0822488 0
M  V30 508 H 54.3886 2.92336 1.09298 0
M  V30 509 N 54.6897 -0.239769 1.55765 0
M  V30 510 C 55.6397 -1.30002 1.87306 0
M  V30 511 C 56.6237 -1.43156 0.73452 0
M  V30 512 O 57.8157 -1.46277 0.99659 0
M  V30 513 C 54.9447 -2.65409 2.17745 0
M  V30 514 C 54.0307 -2.56231 3.37945 0
M  V30 515 N 54.4217 -2.16689 4.57033 0
M  V30 516 C 52.7197 -2.87229 3.41197 0
M  V30 517 C 53.4207 -2.18318 5.39177 0
M  V30 518 N 52.3967 -2.58098 4.78421 0
M  V30 519 H 56.1987 -0.984912 2.76906 0
M  V30 520 H 53.7127 -0.448381 1.56087 0
M  V30 521 H 55.7097 -3.41934 2.38509 0
M  V30 522 H 54.3697 -2.97781 1.29448 0
M  V30 523 H 55.3807 -1.88116 4.82528 0
M  V30 524 H 52.0577 -3.24094 2.63191 0
M  V30 525 H 53.4477 -1.90025 6.44469 0
M  V30 526 N 56.1678 -1.49265 -0.50573 0
M  V30 527 C 57.4448 -1.49012 -1.26707 0
M  V30 528 C 57.8248 -0.215205 -2.1 0
M  V30 529 O 57.1728 0.802547 -2.13943 0
M  V30 530 C 57.3828 -2.7663 -2.12783 0
M  V30 531 C 58.7308 -3.25932 -2.72127 0
M  V30 532 O 59.7548 -2.77715 -2.23054 0
M  V30 533 O 58.6138 -4.09897 -3.61451 0
M  V30 534 H 55.7078 -0.596197 -0.57313 0
M  V30 535 H 58.2538 -1.61524 -0.52039 0
M  V30 536 H 57.0258 -3.60916 -1.5118 0
M  V30 537 H 56.6488 -2.66956 -2.94653 0
M  V30 538 N 57.6459 0.756429 -1.3826 0
M  V30 539 C 58.5789 1.87802 -1.29637 0
M  V30 540 C 59.5569 1.61667 -0.173939 0
M  V30 541 O 60.7409 1.85208 -0.350775 0
M  V30 542 C 57.8679 3.23354 -1.00797 0
M  V30 543 C 56.9139 3.68379 -2.14939 0
M  V30 544 S 57.7469 3.8025 -3.77054 0
M  V30 545 C 58.9029 5.18626 -3.50396 0
M  V30 546 H 59.1359 1.94829 -2.24564 0
M  V30 547 H 56.6689 0.919117 -1.24063 0
M  V30 548 H 58.6269 4.01637 -0.848413 0
M  V30 549 H 57.2879 3.14008 -0.0759369 0
M  V30 550 H 56.4809 4.66693 -1.90299 0
M  V30 551 H 56.0829 2.97242 -2.26988 0
M  V30 552 H 58.3749 6.04289 -3.06334 0
M  V30 553 H 59.3179 5.48286 -4.48094 0
M  V30 554 H 59.7259 4.87289 -2.84973 0
M  V30 555 N 59.124 1.23083 0.984299 0
M  V30 556 C 60.087 1.00979 2.05757 0
M  V30 557 C 61.087 -0.0269573 1.60777 0
M  V30 558 O 62.277 0.212403 1.729 0
M  V30 559 C 59.409 0.527072 3.36801 0
M  V30 560 H 60.602 1.9622 2.26799 0
M  V30 561 H 58.155 1.05072 1.15714 0
M  V30 562 H 58.89 -0.429294 3.21446 0
M  V30 563 H 58.675 1.27515 3.70786 0
M  V30 564 H 60.165 0.392942 4.15747 0
M  V30 565 N 60.6021 -1.18246 1.0419 0
M  V30 566 C 61.5321 -2.24127 0.654914 0
M  V30 567 C 62.5131 -1.66617 -0.342451 0
M  V30 568 O 63.6981 -1.92924 -0.222277 0
M  V30 569 C 60.8281 -3.47295 0.0183757 0
M  V30 570 C 59.7821 -4.17563 0.939414 0
M  V30 571 C 59.1081 -5.34438 0.167286 0
M  V30 572 C 60.4081 -4.70917 2.25908 0
M  V30 573 H 62.1021 -2.56753 1.54007 0
M  V30 574 H 59.6481 -1.23414 0.74195 0
M  V30 575 H 61.6011 -4.20572 -0.264082 0
M  V30 576 H 60.3251 -3.13907 -0.901664 0
M  V30 577 H 58.9841 -3.46186 1.20628 0
M  V30 578 H 58.6321 -4.97298 -0.7552 0
M  V30 579 H 58.3321 -5.82388 0.780901 0
M  V30 580 H 59.8561 -6.10504 -0.108125 0
M  V30 581 H 61.2701 -5.35882 2.03724 0
M  V30 582 H 59.6671 -5.29406 2.82577 0
M  V30 583 H 60.7371 -3.88272 2.9047 0
M  V30 584 N 62.0802 -0.821533 -1.34494 0
M  V30 585 C 63.3262 -0.409552 -1.98622 0
M  V30 586 C 63.6592 1.0244 -1.64984 0
M  V30 587 O 62.9342 1.71325 -0.920758 0
M  V30 588 C 63.2172 -0.610458 -3.54888 0
M  V30 589 C 63.0702 -2.09043 -3.98273 0
M  V30 590 C 64.3892 -0.0455379 -4.40076 0
M  V30 591 H 61.5082 -0.15028 -0.721516 0
M  V30 592 H 64.1502 -1.03384 -1.59411 0
M  V30 593 H 62.3002 -0.079044 -3.8842 0
M  V30 594 H 63.9722 -2.68537 -3.75081 0
M  V30 595 H 62.2152 -2.58139 -3.48635 0
M  V30 596 H 62.8862 -2.18182 -5.07051 0
M  V30 597 H 65.3622 -0.499557 -4.1309 0
M  V30 598 H 64.2382 -0.215922 -5.48475 0
M  V30 599 H 64.4992 1.04939 -4.29465 0
M  V30 600 N 63.5583 1.46682 -0.576371 0
M  V30 601 C 64.4883 2.33028 0.148397 0
M  V30 602 C 65.4693 1.44961 0.889956 0
M  V30 603 O 66.6543 1.73789 0.866662 0
M  V30 604 C 63.7843 3.27117 1.1667 0
M  V30 605 C 62.7383 4.24575 0.540386 0
M  V30 606 C 62.0643 5.08126 1.6647 0
M  V30 607 C 63.3643 5.19722 -0.518331 0
M  V30 608 H 65.0583 2.93875 -0.572509 0
M  V30 609 H 62.6043 1.41315 -0.276768 0
M  V30 610 H 64.5573 3.86374 1.68204 0
M  V30 611 H 63.2813 2.64364 1.9178 0
M  V30 612 H 61.9403 3.66571 0.0461769 0
M  V30 613 H 61.5883 4.41762 2.40531 0
M  V30 614 H 61.2883 5.74122 1.25131 0
M  V30 615 H 62.8123 5.70246 2.18293 0
M  V30 616 H 64.2263 5.73232 -0.0883058 0
M  V30 617 H 62.6233 5.94026 -0.851679 0
M  V30 618 H 63.6933 4.64037 -1.40703 0
M  V30 619 N 65.0364 0.313813 1.54444 0
M  V30 620 C 66.2844 -0.291099 1.99993 0
M  V30 621 C 66.6054 -1.53418 1.20366 0
M  V30 622 O 65.8754 -1.93544 0.302927 0
M  V30 623 H 64.4554 -0.110552 0.738774 0
M  V30 624 H 67.1174 0.428106 1.9014 0
M  V30 625 H 66.2134 -0.554268 3.07139 0
M  V30 626 N 66.5145 -1.57545 0.0417849 0
M  V30 627 C 67.7395 -1.97035 -0.647455 0
M  V30 628 C 68.1645 -0.918775 -1.64135 0
M  V30 629 O 67.5225 0.119006 -1.80909 0
M  V30 630 C 67.5705 -3.35609 -1.31905 0
M  V30 631 O 66.6745 -3.3287 -2.43457 0
M  V30 632 H 66.0155 -0.64211 -0.169086 0
M  V30 633 H 68.5455 -2.04318 0.107399 0
M  V30 634 H 68.5555 -3.72126 -1.67291 0
M  V30 635 H 67.2305 -4.11685 -0.590586 0
M  V30 636 H 65.8075 -3.08087 -2.10088 0
M  V30 637 N 67.9926 0.231505 -1.5589 0
M  V30 638 C 69.2406 0.955461 -1.78088 0
M  V30 639 C 69.5616 1.85262 -0.608533 0
M  V30 640 O 68.8316 1.92277 0.375035 0
M  V30 641 H 67.4116 0.355787 -0.656829 0
M  V30 642 H 70.0736 0.245751 -1.93344 0
M  V30 643 H 69.1696 1.56814 -2.69844 0
M  V30 644 N 69.4707 1.49531 0.497807 0
M  V30 645 C 70.7167 1.60388 1.25089 0
M  V30 646 C 71.0717 0.288328 1.90227 0
M  V30 647 O 70.3647 -0.711706 1.77891 0
M  V30 648 C 70.5587 2.70252 2.33878 0
M  V30 649 C 70.3877 4.12363 1.79408 0
M  V30 650 C 69.1577 4.7911 1.60566 0
M  V30 651 C 71.3557 4.97491 1.30412 0
M  V30 652 N 69.3377 6.05525 1.01059 0
M  V30 653 C 70.7087 6.14411 0.830595 0
M  V30 654 C 72.7637 4.83466 1.19015 0
M  V30 655 C 71.4667 7.1885 0.254371 0
M  V30 656 C 73.4927 5.88057 0.627892 0
M  V30 657 C 72.8547 7.04208 0.16461 0
M  V30 658 H 68.9537 0.641246 0.447579 0
M  V30 659 H 71.5377 1.86549 0.557441 0
M  V30 660 H 69.7087 2.45858 3.0068 0
M  V30 661 H 71.4407 2.70613 3.00917 0
M  V30 662 H 68.1957 4.35961 1.85026 0
M  V30 663 H 68.6197 6.73028 0.732236 0
M  V30 664 H 73.2617 3.93978 1.53431 0
M  V30 665 H 70.9797 8.08036 -0.102052 0
M  V30 666 H 74.5657 5.79266 0.542444 0
M  V30 667 H 73.4457 7.83757 -0.263669 0
M  V30 668 N 70.9488 -0.749086 1.3866 0
M  V30 669 C 72.1968 -1.50535 1.34847 0
M  V30 670 C 72.5178 -1.94909 -0.0595016 0
M  V30 671 O 71.7878 -1.67973 -1.00806 0
M  V30 672 H 70.3678 -0.558395 0.49619 0
M  V30 673 H 73.0298 -0.890165 1.73384 0
M  V30 674 H 72.1258 -2.39413 2.00219 0
M  V30 675 N 72.4269 -1.23603 -0.977757 0
M  V30 676 C 73.6749 -1.06759 -1.71601 0
M  V30 677 C 73.9959 0.395929 -1.90938 0
M  V30 678 O 73.2659 1.28356 -1.47992 0
M  V30 679 H 71.8459 -0.392062 -0.635843 0
M  V30 680 H 74.5079 -1.55362 -1.1768 0
M  V30 681 H 73.6039 -1.55763 -2.70452 0
M  V30 682 N 73.905 1.17692 -1.04816 0
M  V30 683 C 74.868 2.19787 -0.650117 0
M  V30 684 C 75.868 1.58044 0.296427 0
M  V30 685 O 77.058 1.74012 0.0808097 0
M  V30 686 C 74.19 3.40869 0.0456987 0
M  V30 687 H 75.383 2.56516 -1.5537 0
M  V30 688 H 72.936 1.31708 -0.841594 0
M  V30 689 H 73.671 3.09681 0.962726 0
M  V30 690 H 73.456 3.86928 -0.634727 0
M  V30 691 H 74.946 4.16445 0.310432 0
M  V30 692 N 75.3831 0.828654 1.34056 0
M  V30 693 C 76.3461 0.259927 2.27721 0
M  V30 694 C 77.3461 -0.565478 1.50529 0
M  V30 695 O 78.5361 -0.38075 1.69988 0
M  V30 696 C 75.6681 -0.634944 3.34935 0
M  V30 697 H 76.8611 1.0863 2.79534 0
M  V30 698 H 74.4141 0.600951 1.44285 0
M  V30 699 H 75.1491 -1.48416 2.88346 0
M  V30 700 H 74.9341 -0.0444999 3.92075 0
M  V30 701 H 76.4241 -1.02648 4.04788 0
M  V30 702 N 76.8612 -1.46375 0.584142 0
M  V30 703 C 77.7712 -2.34115 -0.150728 0
M  V30 704 C 78.7872 -1.49838 -0.884567 0
M  V30 705 O 79.9632 -1.82704 -0.847429 0
M  V30 706 C 77.0282 -3.2705 -1.15062 0
M  V30 707 C 76.0892 -4.27228 -0.421293 0
M  V30 708 C 75.3222 -5.15722 -1.37355 0
M  V30 709 O 75.5452 -5.07176 -2.61014 0
M  V30 710 O 74.4792 -5.95383 -0.883355 0
M  V30 711 H 78.3052 -2.98309 0.569708 0
M  V30 712 H 75.8902 -1.45373 0.344535 0
M  V30 713 H 77.7722 -3.84381 -1.72712 0
M  V30 714 H 76.4472 -2.65451 -1.8525 0
M  V30 715 H 75.3542 -3.7358 0.197085 0
M  V30 716 H 76.6872 -4.91616 0.239641 0
M  V30 717 N 78.3393 -0.321999 -1.54275 0
M  V30 718 C 79.2693 0.537411 -2.27231 0
M  V30 719 C 80.2503 1.12064 -1.27968 0
M  V30 720 O 81.4353 1.14606 -1.56777 0
M  V30 721 C 78.5653 1.69919 -3.02894 0
M  V30 722 C 77.5193 1.24534 -4.09482 0
M  V30 723 C 76.8453 2.49394 -4.72977 0
M  V30 724 C 78.1453 0.361335 -5.21049 0
M  V30 725 H 79.8393 -0.0711406 -2.99315 0
M  V30 726 H 77.3853 -0.0356555 -1.43956 0
M  V30 727 H 79.3383 2.30668 -3.52662 0
M  V30 728 H 78.0623 2.33431 -2.28424 0
M  V30 729 H 76.7213 0.660782 -3.60596 0
M  V30 730 H 76.3693 3.11265 -3.95124 0
M  V30 731 H 76.0693 2.19718 -5.44975 0
M  V30 732 H 77.5933 3.10908 -5.25517 0
M  V30 733 H 79.0073 0.875072 -5.66582 0
M  V30 734 H 77.4043 0.157428 -5.99893 0
M  V30 735 H 78.4743 -0.60822 -4.8107 0
M  V30 736 N 79.8174 1.5752 -0.0501392 0
M  V30 737 C 80.7474 2.14502 0.922566 0
M  V30 738 C 81.7284 1.06642 1.3252 0
M  V30 739 O 82.9134 1.34577 1.4001 0
M  V30 740 C 80.0434 2.68916 2.19776 0
M  V30 741 C 78.9974 3.8175 1.93523 0
M  V30 742 C 78.3234 4.22677 3.27487 0
M  V30 743 C 79.6234 5.06932 1.25765 0
M  V30 744 H 81.3174 2.9603 0.447952 0
M  V30 745 H 78.8634 1.42401 0.214024 0
M  V30 746 H 80.8164 3.07419 2.88222 0
M  V30 747 H 79.5404 1.84578 2.69441 0
M  V30 748 H 78.1994 3.43718 1.27489 0
M  V30 749 H 77.8474 3.35291 3.74952 0
M  V30 750 H 77.5474 4.98725 3.1072 0
M  V30 751 H 79.0714 4.63779 3.97166 0
M  V30 752 H 80.4854 5.42888 1.84244 0
M  V30 753 H 78.8824 5.88116 1.19328 0
M  V30 754 H 79.9524 4.84337 0.233536 0
M  V30 755 N 81.2955 -0.223234 1.56011 0
M  V30 756 C 82.5435 -0.946003 1.78592 0
M  V30 757 C 82.8645 -1.84936 0.618349 0
M  V30 758 O 82.1345 -1.92473 -0.364833 0
M  V30 759 H 80.7145 -0.352298 0.658707 0
M  V30 760 H 83.3765 -0.235494 1.93472 0
M  V30 761 H 82.4725 -1.55381 2.70672 0
M  V30 762 N 82.7736 -1.49793 -0.48987 0
M  V30 763 C 83.6836 -1.70036 -1.61632 0
M  V30 764 C 84.6996 -0.583102 -1.63939 0
M  V30 765 O 85.8756 -0.859169 -1.82154 0
M  V30 766 C 82.9406 -1.77277 -2.97949 0
M  V30 767 C 82.0016 -3.00918 -3.06181 0
M  V30 768 C 81.2346 -3.07804 -4.35996 0
M  V30 769 O 81.4576 -2.21982 -5.25433 0
M  V30 770 O 80.3916 -4.00369 -4.49431 0
M  V30 771 H 84.2176 -2.65486 -1.47482 0
M  V30 772 H 81.8026 -1.33666 -0.667362 0
M  V30 773 H 83.6846 -1.84329 -3.78947 0
M  V30 774 H 82.3596 -0.850076 -3.12339 0
M  V30 775 H 81.2666 -2.99377 -2.2433 0
M  V30 776 H 82.5996 -3.92704 -2.96723 0
M  V30 777 N 84.2517 0.741722 -1.39055 0
M  V30 778 C 85.4977 1.50336 -1.36113 0
M  V30 779 C 85.8307 1.94148 0.0450796 0
M  V30 780 O 85.1057 1.66301 1.00868 0
M  V30 781 C 85.3887 2.74773 -2.32749 0
M  V30 782 C 85.2417 2.37023 -3.82283 0
M  V30 783 C 86.5607 3.76846 -2.27322 0
M  V30 784 H 83.6797 0.545351 -0.495743 0
M  V30 785 H 86.3217 0.848624 -1.69995 0
M  V30 786 H 84.4717 3.30639 -2.03986 0
M  V30 787 H 86.1437 1.8684 -4.21768 0
M  V30 788 H 84.3867 1.69334 -3.99385 0
M  V30 789 H 85.0577 3.26104 -4.45376 0
M  V30 790 H 87.5337 3.30548 -2.5274 0
M  V30 791 H 86.4097 4.6159 -2.97028 0
M  V30 792 H 86.6707 4.23286 -1.27599 0
M  V30 793 N 85.7298 1.2412 0.971189 0
M  V30 794 C 86.9758 1.08041 1.71625 0
M  V30 795 C 87.3088 -0.380407 1.90438 0
M  V30 796 O 86.5838 -1.28127 1.46334 0
M  V30 797 C 86.8668 1.81682 3.10908 0
M  V30 798 C 86.7198 3.35493 2.99608 0
M  V30 799 C 88.0388 1.58671 4.10501 0
M  V30 800 H 85.1578 0.39388 0.622919 0
M  V30 801 H 87.7998 1.52743 1.13003 0
M  V30 802 H 85.9498 1.43684 3.60953 0
M  V30 803 H 87.6218 3.83068 2.57015 0
M  V30 804 H 85.8648 3.64052 2.35899 0
M  V30 805 H 86.5358 3.82217 3.98264 0
M  V30 806 H 89.0118 1.91719 3.69301 0
M  V30 807 H 87.8878 2.1266 5.06031 0
M  V30 808 H 88.1488 0.524161 4.38982 0
M  V30 809 N 87.2079 -1.17134 1.05439 0
M  V30 810 C 88.1709 -2.19439 0.661764 0
M  V30 811 C 89.1709 -1.58199 -0.288042 0
M  V30 812 O 90.3609 -1.74053 -0.0715803 0
M  V30 813 C 87.4929 -3.40889 -0.0276209 0
M  V30 814 H 88.6859 -2.55688 1.56728 0
M  V30 815 H 86.2389 -1.31259 0.848567 0
M  V30 816 H 86.9739 -3.10187 -0.94629 0
M  V30 817 H 86.7589 -3.86586 0.655238 0
M  V30 818 H 88.2489 -4.16603 -0.288342 0
M  V30 819 N 88.686 -0.835752 -1.33615 0
M  V30 820 C 89.596 -0.269088 -2.33052 0
M  V30 821 C 90.612 0.603251 -1.63208 0
M  V30 822 O 91.788 0.508112 -1.94885 0
M  V30 823 C 88.853 0.549091 -3.42324 0
M  V30 824 C 87.914 -0.347156 -4.27894 0
M  V30 825 C 87.147 0.43207 -5.31948 0
M  V30 826 O 87.37 1.66409 -5.45586 0
M  V30 827 O 86.304 -0.192298 -6.01593 0
M  V30 828 H 90.13 -1.09243 -2.83372 0
M  V30 829 H 87.715 -0.598198 -1.36901 0
M  V30 830 H 89.597 1.01414 -4.09015 0
M  V30 831 H 88.272 1.34955 -2.94226 0
M  V30 832 H 87.179 -0.859979 -3.64081 0
M  V30 833 H 88.512 -1.1123 -4.79467 0
M  V30 834 N 90.1641 1.46063 -0.591896 0
M  V30 835 C 91.4101 2.02638 -0.0811191 0
M  V30 836 C 91.7431 1.4613 1.27905 0
M  V30 837 O 91.0181 0.629908 1.84017 0
M  V30 838 C 91.3011 3.60091 -0.0252436 0
M  V30 839 C 91.1541 4.26965 -1.41496 0
M  V30 840 C 92.4731 4.3496 0.670685 0
M  V30 841 H 89.5921 0.73635 -0.0309524 0
M  V30 842 H 92.2341 1.741 -0.760859 0
M  V30 843 H 90.3841 3.84535 0.553624 0
M  V30 844 H 92.0561 4.13756 -2.0397 0
M  V30 845 H 90.2991 3.85971 -1.98011 0
M  V30 846 H 90.9701 5.35781 -1.32825 0
M  V30 847 H 93.4461 4.15716 0.178825 0
M  V30 848 H 92.3221 5.44686 0.678837 0
M  V30 849 H 92.5831 4.06685 1.73379 0
M  V30 850 N 91.6422 0.330177 1.54103 0
M  V30 851 C 93.0532 -0.15652 1.86043 0
M  V30 852 C 93.4042 -1.51086 1.2517 0
M  V30 853 O 92.5292 -2.09023 0.560217 0
M  V30 854 C 93.1242 -0.290784 3.3755 0
M  V30 855 C 91.6832 -0.721705 3.69416 0
M  V30 856 C 90.8302 0.152622 2.7688 0
M  V30 857 H 93.7812 0.550237 1.48856 0
M  V30 858 H 93.8022 -1.12058 3.63625 0
M  V30 859 H 93.3142 0.695068 3.81825 0
M  V30 860 H 91.4152 -1.71706 3.30678 0
M  V30 861 H 91.5282 -0.520869 4.7626 0
M  V30 862 H 89.8922 -0.372894 2.51956 0
M  V30 863 H 90.6752 1.13536 3.23982 0
M  V30 864 N 93.1203 -1.57491 0.0584922 0
M  V30 865 C 94.3483 -1.97296 -0.623037 0
M  V30 866 C 94.7633 -0.936338 -1.63946 0
M  V30 867 O 94.1203 0.0785981 -1.82331 0
M  V30 868 C 94.1713 -3.37183 -1.30345 0
M  V30 869 O 93.8923 -4.36872 -0.32773 0
M  V30 870 C 95.3933 -3.91788 -2.07406 0
M  V30 871 H 92.6133 -0.649153 -0.169826 0
M  V30 872 H 95.1573 -2.04106 0.12696 0
M  V30 873 H 93.3123 -3.31502 -2.00463 0
M  V30 874 H 93.7263 -5.18141 -0.814269 0
M  V30 875 H 95.2003 -4.91926 -2.50425 0
M  V30 876 H 95.6773 -3.27609 -2.92521 0
M  V30 877 H 96.2833 -4.00829 -1.42184 0
M  V30 878 N 94.5984 0.214957 -1.56127 0
M  V30 879 C 95.5484 1.27006 -1.8935 0
M  V30 880 C 96.5324 1.41969 -0.757202 0
M  V30 881 O 97.7244 1.44673 -1.01973 0
M  V30 882 C 94.8534 2.61911 -2.2194 0
M  V30 883 C 93.9394 2.50822 -3.41978 0
M  V30 884 N 94.3304 2.09391 -4.60423 0
M  V30 885 C 92.6284 2.81765 -3.45723 0
M  V30 886 C 93.3294 2.09712 -5.42582 0
M  V30 887 N 92.3054 2.50454 -4.82466 0
M  V30 888 H 96.1074 0.940734 -2.78437 0
M  V30 889 H 93.6214 0.423492 -1.56781 0
M  V30 890 H 95.6184 3.38096 -2.43919 0
M  V30 891 H 94.2784 2.95684 -1.34169 0
M  V30 892 H 95.2894 1.80416 -4.85459 0
M  V30 893 H 91.9664 3.19865 -2.68314 0
M  V30 894 H 93.3564 1.79748 -6.4741 0
M  V30 895 N 96.0765 1.50051 0.48192 0
M  V30 896 C 96.9865 1.7089 1.60728 0
M  V30 897 C 98.0025 0.591788 1.63627 0
M  V30 898 O 99.1785 0.868817 1.81696 0
M  V30 899 C 96.2435 1.78855 2.97005 0
M  V30 900 C 95.3045 3.02537 3.04581 0
M  V30 901 C 94.5375 3.10112 4.34357 0
M  V30 902 O 94.7605 2.24765 5.24249 0
M  V30 903 O 93.6945 4.02747 4.47301 0
M  V30 904 H 97.5205 2.66264 1.46072 0
M  V30 905 H 95.1055 1.34018 0.660264 0
M  V30 906 H 96.9875 1.86336 3.77964 0
M  V30 907 H 95.6625 0.866628 3.11883 0
M  V30 908 H 94.5695 3.00563 2.22739 0
M  V30 909 H 95.9025 3.94272 2.94636 0
M  V30 910 N 97.5546 -0.734337 1.39446 0
M  V30 911 C 98.8036 -1.48937 1.36017 0
M  V30 912 C 99.1166 -1.95557 -0.0409005 0
M  V30 913 O 100.323 -2.70779 -0.19778 0
M  V30 914 C 98.7786 -2.69125 2.38955 0
M  V30 915 C 98.3866 -2.29452 3.8478 0
M  V30 916 C 100.131 -3.46944 2.44603 0
M  V30 917 C 98.0376 -3.46366 4.79358 0
M  V30 918 H 96.9676 -0.559296 0.505672 0
M  V30 919 H 99.6186 -0.800983 1.65095 0
M  V30 920 H 98.0006 -3.40041 2.02948 0
M  V30 921 H 99.1746 -1.66077 4.29831 0
M  V30 922 H 97.4896 -1.64723 3.82433 0
M  V30 923 H 100.087 -4.33907 3.12456 0
M  V30 924 H 100.43 -3.89454 1.47076 0
M  V30 925 H 100.963 -2.83056 2.79507 0
M  V30 926 H 97.7016 -3.08905 5.78151 0
M  V30 927 H 97.2216 -4.08719 4.38986 0
M  V30 928 H 98.9006 -4.12691 4.98292 0
M  V30 929 N 99.0327 -1.24633 -0.964593 0
M  V30 930 C 100.444 -1.08045 -1.5226 0
M  V30 931 C 100.795 0.347116 -1.93105 0
M  V30 932 O 99.9197 1.23588 -1.77637 0
M  V30 933 C 100.515 -1.95514 -2.76695 0
M  V30 934 C 99.0737 -1.8314 -3.28841 0
M  V30 935 C 98.2207 -1.90262 -2.01732 0
M  V30 936 H 101.172 -1.38064 -0.782553 0
M  V30 937 H 101.193 -1.48925 -3.50145 0
M  V30 938 H 100.705 -2.99407 -2.46936 0
M  V30 939 H 98.8057 -0.82092 -3.63444 0
M  V30 940 H 98.9187 -2.67406 -3.97531 0
M  V30 941 H 97.2827 -1.34027 -2.16584 0
M  V30 942 H 98.0657 -2.9574 -1.74334 0
M  V30 943 N 100.511 1.16574 -1.06058 0
M  V30 944 C 101.759 1.86677 -0.77434 0
M  V30 945 C 102.08 1.81959 0.701147 0
M  V30 946 O 101.35 1.2515 1.50713 0
M  V30 947 H 99.9298 0.691134 -0.283449 0
M  V30 948 H 102.592 1.41378 -1.34158 0
M  V30 949 H 101.688 2.92181 -1.09711 0
M  V30 950 N 101.989 0.842826 1.3317 0
M  V30 951 C 103.236 0.440447 1.97652 0
M  V30 952 C 103.564 -1.00123 1.6675 0
M  V30 953 O 102.819 -1.7155 0.941761 0
M  V30 954 C 103.118 0.612607 3.52111 0
M  V30 955 C 102.784 2.02297 4.02972 0
M  V30 956 C 101.446 2.40874 4.16573 0
M  V30 957 C 103.798 2.94402 4.30089 0
M  V30 958 C 101.126 3.70852 4.54627 0
M  V30 959 C 103.478 4.23865 4.69597 0
M  V30 960 C 102.142 4.62392 4.81404 0
M  V30 961 H 101.412 0.161171 0.72326 0
M  V30 962 H 104.059 1.07061 1.58777 0
M  V30 963 H 102.364 -0.100849 3.9167 0
M  V30 964 H 104.061 0.2815 4.00011 0
M  V30 965 H 100.651 1.71338 3.92863 0
M  V30 966 H 104.835 2.65835 4.19101 0
M  V30 967 H 100.091 4.00501 4.61962 0
M  V30 968 H 104.265 4.95306 4.89536 0
M  V30 969 H 101.892 5.63154 5.10648 0
M  V30 970 N 103.467 -1.45747 0.599634 0
M  V30 971 C 104.692 -2.07178 0.0960198 0
M  V30 972 C 105.117 -1.44268 -1.207 0
M  V30 973 O 104.475 -0.532503 -1.73303 0
M  V30 974 C 104.523 -3.60579 -0.0385348 0
M  V30 975 O 103.627 -3.97713 -1.0908 0
M  V30 976 H 102.968 -0.660251 0.0704593 0
M  V30 977 H 105.498 -1.87124 0.827385 0
M  V30 978 H 105.508 -4.07298 -0.239304 0
M  V30 979 H 104.183 -4.05756 0.912947 0
M  V30 980 H 102.76 -3.62678 -0.867135 0
M  V30 981 N 104.945 -0.338344 -1.53925 0
M  V30 982 C 105.908 0.508299 -2.23493 0
M  V30 983 C 106.908 1.03175 -1.23335 0
M  V30 984 O 108.098 0.921826 -1.47811 0
M  V30 985 C 105.23 1.70754 -2.95052 0
M  V30 986 H 106.423 -0.100058 -2.99733 0
M  V30 987 H 103.976 -0.0896198 -1.56043 0
M  V30 988 H 104.711 2.35474 -2.22986 0
M  V30 989 H 104.496 1.33946 -3.68512 0
M  V30 990 H 105.986 2.30818 -3.48013 0
M  V30 991 N 106.423 1.57458 -0.0668435 0
M  V30 992 C 107.834 1.80776 0.466558 0
M  V30 993 C 108.185 0.980361 1.69951 0
M  V30 994 O 107.31 0.201441 2.1546 0
M  V30 995 C 107.905 3.27881 0.85321 0
M  V30 996 C 106.464 3.52062 1.3315 0
M  V30 997 C 105.611 2.75513 0.314264 0
M  V30 998 H 108.562 1.5598 -0.292588 0
M  V30 999 H 108.583 3.39659 1.715 0
M  V30 1000 H 108.095 3.88075 -0.0443439 0
M  V30 1001 H 106.196 2.97167 2.24772 0
M  V30 1002 H 106.309 4.60762 1.31285 0
M  V30 1003 H 104.673 2.42123 0.790492 0
M  V30 1004 H 105.456 3.38442 -0.575477 0
M  V30 1005 N 107.901 -0.206675 1.56239 0
M  V30 1006 C 108.864 -1.23976 1.92776 0
M  V30 1007 C 109.864 -1.39041 0.807729 0
M  V30 1008 O 111.054 -1.37051 1.0753 0
M  V30 1009 C 108.186 -2.61112 2.19165 0
M  V30 1010 H 109.379 -0.927764 2.85189 0
M  V30 1011 H 106.932 -0.447718 1.4975 0
M  V30 1012 H 107.667 -2.97386 1.29352 0
M  V30 1013 H 107.452 -2.51552 3.00772 0
M  V30 1014 H 108.942 -3.35633 2.48476 0
M  V30 1015 N 109.379 -1.50304 -0.473955 0
M  V30 1016 C 110.625 -1.61389 -1.22806 0
M  V30 1017 C 110.958 -0.311955 -1.91678 0
M  V30 1018 O 110.233 0.686384 -1.81986 0
M  V30 1019 C 110.516 -2.79219 -2.27396 0
M  V30 1020 C 110.369 -4.19286 -1.62848 0
M  V30 1021 C 111.688 -2.92614 -3.28732 0
M  V30 1022 H 108.807 -0.587399 -0.445119 0
M  V30 1023 H 111.449 -1.82681 -0.522265 0
M  V30 1024 H 109.599 -2.61195 -2.87592 0
M  V30 1025 H 111.271 -4.48892 -1.06271 0
M  V30 1026 H 109.514 -4.23677 -0.931693 0
M  V30 1027 H 110.185 -4.97655 -2.38838 0
M  V30 1028 H 112.661 -3.09105 -2.78556 0
M  V30 1029 H 111.537 -3.76688 -3.99246 0
M  V30 1030 H 111.798 -2.03107 -3.92683 0
M  V30 1031 N 110.857 0.726932 -1.39834 0
M  V30 1032 C 111.82 1.82269 -1.38962 0
M  V30 1033 C 112.82 1.58248 -0.285334 0
M  V30 1034 O 114.01 1.65499 -0.54366 0
M  V30 1035 C 111.142 3.20186 -1.17019 0
M  V30 1036 H 112.335 1.84443 -2.36476 0
M  V30 1037 H 109.888 0.931416 -1.25516 0
M  V30 1038 H 110.623 3.23669 -0.202204 0
M  V30 1039 H 110.408 3.3902 -1.96998 0
M  V30 1040 H 111.898 4.00235 -1.1917 0
M  V30 1041 N 112.336 1.25143 0.95797 0
M  V30 1042 C 113.584 1.09476 1.69881 0
M  V30 1043 C 113.905 -0.365502 1.91544 0
M  V30 1044 O 113.175 -1.25985 1.50015 0
M  V30 1045 H 111.755 0.402128 0.629525 0
M  V30 1046 H 114.417 1.57214 1.15194 0
M  V30 1047 H 113.513 1.60046 2.6794 0
M  V30 1048 N 113.814 -1.1601 1.06675 0
M  V30 1049 C 114.764 -2.18512 0.650888 0
M  V30 1050 C 115.748 -1.57677 -0.320441 0
M  V30 1051 O 116.94 -1.76482 -0.135266 0
M  V30 1052 C 114.069 -3.43273 0.0429255 0
M  V30 1053 C 113.155 -4.11176 1.03898 0
M  V30 1054 N 113.546 -4.54672 2.216 0
M  V30 1055 C 111.844 -4.37417 0.870779 0
M  V30 1056 C 112.545 -5.07248 2.84736 0
M  V30 1057 N 111.521 -5.0037 2.12441 0
M  V30 1058 H 115.323 -2.49863 1.54745 0
M  V30 1059 H 112.837 -1.32503 0.938975 0
M  V30 1060 H 114.834 -4.16006 -0.272857 0
M  V30 1061 H 113.494 -3.13408 -0.84884 0
M  V30 1062 H 114.505 -4.4828 2.59356 0
M  V30 1063 H 111.182 -4.17488 0.0313293 0
M  V30 1064 H 112.572 -5.50912 3.84636 0
M  V30 1065 N 115.292 -0.849877 -1.32721 0
M  V30 1066 C 116.222 -0.306308 -2.31482 0
M  V30 1067 C 117.203 0.591952 -1.59468 0
M  V30 1068 O 118.388 0.513199 -1.87296 0
M  V30 1069 C 115.518 0.510204 -3.43532 0
M  V30 1070 C 114.472 -0.293209 -4.26994 0
M  V30 1071 C 113.798 0.647743 -5.30762 0
M  V30 1072 C 115.098 -1.51634 -4.99804 0
M  V30 1073 H 116.792 -1.13153 -2.77195 0
M  V30 1074 H 114.338 -0.545553 -1.33266 0
M  V30 1075 H 116.291 0.900856 -4.11658 0
M  V30 1076 H 115.015 1.36874 -2.96535 0
M  V30 1077 H 113.674 -0.665555 -3.60508 0
M  V30 1078 H 113.322 1.50299 -4.8002 0
M  V30 1079 H 113.022 0.11422 -5.87489 0
M  V30 1080 H 114.546 1.03567 -6.01753 0
M  V30 1081 H 115.96 -1.19824 -5.60638 0
M  V30 1082 H 114.357 -1.98745 -5.66234 0
M  V30 1083 H 115.427 -2.28018 -4.27943 0
M  V30 1084 N 116.77 1.45427 -0.607355 0
M  V30 1085 C 117.995 2.07124 -0.107006 0
M  V30 1086 C 118.42 1.44906 1.19933 0
M  V30 1087 O 117.778 0.541687 1.73019 0
M  V30 1088 C 117.826 3.60595 0.0194119 0
M  V30 1089 O 116.93 3.98285 1.0697 0
M  V30 1090 H 116.271 0.659868 -0.0739597 0
M  V30 1091 H 118.801 1.86683 -0.837297 0
M  V30 1092 H 118.811 4.07419 0.2177 0
M  V30 1093 H 117.486 4.05266 -0.934453 0
M  V30 1094 H 116.063 3.63133 0.847889 0
M  V30 1095 N 118.248 0.346503 1.53744 0
M  V30 1096 C 119.494 -0.249473 2.0126 0
M  V30 1097 C 119.827 -1.49965 1.23386 0
M  V30 1098 O 119.102 -1.91811 0.32229 0
M  V30 1099 C 119.385 -0.560643 3.55709 0
M  V30 1100 C 119.238 0.701836 4.44291 0
M  V30 1101 C 120.557 -1.36905 4.18264 0
M  V30 1102 H 117.676 -0.0891987 0.731582 0
M  V30 1103 H 120.318 0.467624 1.84156 0
M  V30 1104 H 118.468 -1.17156 3.70414 0
M  V30 1105 H 120.14 1.33974 4.41417 0
M  V30 1106 H 118.383 1.32612 4.13033 0
M  V30 1107 H 119.054 0.43933 5.50249 0
M  V30 1108 H 121.53 -0.852448 4.07275 0
M  V30 1109 H 120.406 -1.55553 5.26398 0
M  V30 1110 H 120.667 -2.37203 3.73078 0
M  V30 1111 N 119.726 -1.57421 0.075193 0
M  V30 1112 C 120.954 -1.97946 -0.602076 0
M  V30 1113 C 121.369 -0.953674 -1.62943 0
M  V30 1114 O 120.726 0.0592551 -1.82404 0
M  V30 1115 C 120.777 -3.38546 -1.26762 0
M  V30 1116 O 120.498 -4.37195 -0.281376 0
M  V30 1117 C 121.999 -3.93966 -2.03239 0
M  V30 1118 H 119.219 -0.650918 -0.162931 0
M  V30 1119 H 121.763 -2.03959 0.148601 0
M  V30 1120 H 119.918 -3.33609 -1.96936 0
M  V30 1121 H 120.332 -5.18975 -0.759267 0
M  V30 1122 H 121.806 -4.94555 -2.45193 0
M  V30 1123 H 122.283 -3.30693 -2.8903 0
M  V30 1124 H 122.889 -4.02315 -1.37924 0
M  V30 1125 N 121.204 0.198386 -1.56346 0
M  V30 1126 C 122.62 0.549085 -1.49857 0
M  V30 1127 C 122.82 1.86016 -0.774611 0
M  V30 1128 O 121.876 2.50416 -0.323776 0
M  V30 1129 C 123.189 0.606868 -2.94512 0
M  V30 1130 C 124.737 0.695925 -3.05165 0
M  V30 1131 C 125.212 0.784848 -4.51225 0
M  V30 1132 N 126.703 0.848463 -4.55363 0
M  V30 1133 C 127.438 0.937378 -5.65686 0
M  V30 1134 N 126.934 0.9888 -6.85707 0
M  V30 1135 N 128.727 0.974312 -5.53592 0
M  V30 1136 H 120.878 -0.661655 -2.01831 0
M  V30 1137 H 123.141 -0.235261 -0.918344 0
M  V30 1138 H 122.847 -0.28732 -3.50524 0
M  V30 1139 H 122.721 1.46268 -3.47686 0
M  V30 1140 H 125.108 1.58055 -2.49204 0
M  V30 1141 H 125.189 -0.186022 -2.55123 0
M  V30 1142 H 124.833 -0.0954072 -5.0781 0
M  V30 1143 H 124.763 1.68255 -4.98997 0
M  V30 1144 H 127.254 0.818103 -3.68938 0
M  V30 1145 H 127.567 1.05707 -7.65536 0
M  V30 1146 H 125.912 0.957534 -6.88372 0
M  V30 1147 H 129.103 0.930954 -4.58749 0
M  V30 1148 H 129.276 1.04015 -6.39597 0
M  V30 1149 N 122.682 1.50554 0.465978 0
M  V30 1150 C 123.907 1.65838 1.24549 0
M  V30 1151 C 124.332 0.343486 1.84937 0
M  V30 1152 O 123.69 -0.69324 1.67523 0
M  V30 1153 C 123.738 2.75533 2.32624 0
M  V30 1154 O 122.842 2.37142 3.37398 0
M  V30 1155 H 122.183 0.553893 0.366194 0
M  V30 1156 H 124.713 1.96959 0.553927 0
M  V30 1157 H 124.723 2.98763 2.77857 0
M  V30 1158 H 123.398 3.70962 1.88043 0
M  V30 1159 H 121.975 2.24377 2.97841 0
M  V30 1160 N 124.16 -0.719506 1.40217 0
M  V30 1161 C 125.409 -1.47486 1.37589 0
M  V30 1162 C 125.722 -1.9559 -0.0201568 0
M  V30 1163 O 126.928 -2.70973 -0.169049 0
M  V30 1164 C 125.384 -2.66575 2.41796 0
M  V30 1165 C 124.992 -2.25358 3.87192 0
M  V30 1166 C 126.736 -3.4433 2.48269 0
M  V30 1167 C 124.643 -3.41262 4.83005 0
M  V30 1168 H 123.573 -0.553901 0.511576 0
M  V30 1169 H 126.224 -0.783427 1.65936 0
M  V30 1170 H 124.606 -3.3787 2.06543 0
M  V30 1171 H 125.78 -1.61509 4.31569 0
M  V30 1172 H 124.095 -1.60657 3.84159 0
M  V30 1173 H 126.692 -4.30569 3.17041 0
M  V30 1174 H 127.035 -3.87872 1.51198 0
M  V30 1175 H 127.568 -2.80076 2.82493 0
M  V30 1176 H 124.307 -3.02755 5.81394 0
M  V30 1177 H 123.827 -4.0404 4.43297 0
M  V30 1178 H 125.506 -4.07383 5.02641 0
M  V30 1179 N 125.638 -1.25649 -0.95132 0
M  V30 1180 C 127.054 -1.02542 -1.223 0
M  V30 1181 C 127.254 0.255715 -1.99871 0
M  V30 1182 O 126.31 0.967558 -2.33226 0
M  V30 1183 C 127.623 -2.25065 -1.99415 0
M  V30 1184 C 129.171 -2.29861 -2.12446 0
M  V30 1185 C 129.646 -3.52048 -2.92961 0
M  V30 1186 N 131.137 -3.52465 -3.00538 0
M  V30 1187 C 131.872 -4.43672 -3.63239 0
M  V30 1188 N 131.368 -5.45157 -4.27523 0
M  V30 1189 N 133.161 -4.31346 -3.60412 0
M  V30 1190 H 125.312 -2.07951 -0.432471 0
M  V30 1191 H 127.575 -0.91339 -0.253816 0
M  V30 1192 H 127.281 -3.18194 -1.49817 0
M  V30 1193 H 127.155 -2.28502 -3.00111 0
M  V30 1194 H 129.542 -1.37252 -2.61239 0
M  V30 1195 H 129.623 -2.3044 -1.11044 0
M  V30 1196 H 129.267 -4.44981 -2.44856 0
M  V30 1197 H 129.197 -3.48715 -3.94596 0
M  V30 1198 H 131.688 -2.79056 -2.54826 0
M  V30 1199 H 132.001 -6.10958 -4.73234 0
M  V30 1200 H 130.346 -5.49025 -4.26141 0
M  V30 1201 H 133.537 -3.51288 -3.09377 0
M  V30 1202 H 133.71 -5.02624 -4.0899 0
M  V30 1203 N 127.117 1.15442 -1.07289 0
M  V30 1204 C 128.363 1.86489 -0.796846 0
M  V30 1205 C 128.696 1.82078 0.675371 0
M  V30 1206 O 127.971 1.24346 1.4956 0
M  V30 1207 C 128.254 3.35626 -1.30489 0
M  V30 1208 C 128.107 3.48673 -2.84161 0
M  V30 1209 C 129.426 4.30357 -0.920907 0
M  V30 1210 H 126.545 0.677144 -0.290939 0
M  V30 1211 H 129.187 1.35633 -1.33056 0
M  V30 1212 H 127.337 3.79068 -0.850883 0
M  V30 1213 H 129.009 3.14099 -3.37846 0
M  V30 1214 H 127.252 2.90253 -3.22391 0
M  V30 1215 H 127.923 4.53453 -3.14777 0
M  V30 1216 H 130.399 3.94871 -1.3121 0
M  V30 1217 H 129.275 5.33193 -1.30372 0
M  V30 1218 H 129.536 4.4176 0.173226 0
M  V30 1219 N 128.595 0.856903 1.32268 0
M  V30 1220 C 129.505 0.306131 2.32594 0
M  V30 1221 C 130.521 -0.577209 1.64147 0
M  V30 1222 O 131.697 -0.477043 1.95669 0
M  V30 1223 C 128.762 -0.494561 3.43154 0
M  V30 1224 C 127.823 0.415186 4.27288 0
M  V30 1225 C 127.056 -0.347387 5.32568 0
M  V30 1226 O 127.279 -1.57708 5.48165 0
M  V30 1227 O 126.213 0.287982 6.01211 0
M  V30 1228 H 130.039 1.13737 2.81598 0
M  V30 1229 H 127.624 0.619902 1.35932 0
M  V30 1230 H 129.506 -0.948944 4.10576 0
M  V30 1231 H 128.181 -1.30257 2.96336 0
M  V30 1232 H 127.088 0.917793 3.62667 0
M  V30 1233 H 128.421 1.18844 4.77637 0
M  V30 1234 N 130.073 -1.45103 0.615059 0
M  V30 1235 C 131.489 -1.57137 0.279322 0
M  V30 1236 C 131.689 -1.60523 -1.21797 0
M  V30 1237 O 130.745 -1.53956 -2.00134 0
M  V30 1238 C 132.058 -2.85062 0.957083 0
M  V30 1239 C 133.606 -2.98749 0.933706 0
M  V30 1240 C 134.081 -4.29455 1.59162 0
M  V30 1241 N 135.572 -4.36231 1.55746 0
M  V30 1242 C 136.307 -5.36051 2.0356 0
M  V30 1243 N 135.803 -6.42367 2.59494 0
M  V30 1244 N 137.596 -5.27456 1.94284 0
M  V30 1245 H 129.747 -1.41148 1.58717 0
M  V30 1246 H 132.01 -0.675331 0.665306 0
M  V30 1247 H 131.716 -2.88488 2.01166 0
M  V30 1248 H 131.59 -3.7407 0.48494 0
M  V30 1249 H 133.977 -2.94886 -0.112347 0
M  V30 1250 H 134.058 -2.11132 1.44419 0
M  V30 1251 H 133.702 -4.34077 2.63704 0
M  V30 1252 H 133.632 -5.15901 1.0561 0
M  V30 1253 H 136.123 -3.60011 1.14893 0
M  V30 1254 H 136.436 -7.14793 2.93752 0
M  V30 1255 H 134.781 -6.43097 2.63537 0
M  V30 1256 H 137.972 -4.43308 1.5032 0
M  V30 1257 H 138.145 -6.05099 2.3186 0
M  V30 1258 N 131.551 -0.354651 -1.53558 0
M  V30 1259 C 132.514 0.484566 -2.24019 0
M  V30 1260 C 133.514 1.01861 -1.24422 0
M  V30 1261 O 134.704 0.906097 -1.4878 0
M  V30 1262 C 131.836 1.67615 -2.96847 0
M  V30 1263 H 133.029 -0.131843 -2.9961 0
M  V30 1264 H 130.582 -0.106165 -1.55939 0
M  V30 1265 H 131.317 2.33095 -2.25471 0
M  V30 1266 H 131.102 1.30029 -3.69912 0
M  V30 1267 H 132.592 2.27114 -3.50441 0
M  V30 1268 N 133.029 1.57378 -0.0835403 0
M  V30 1269 C 134.306 1.85363 0.624507 0
M  V30 1270 C 134.686 0.978239 1.87066 0
M  V30 1271 O 134.034 0.0475908 2.2845 0
M  V30 1272 C 134.244 3.35795 0.950947 0
M  V30 1273 C 135.592 4.03581 1.31939 0
M  V30 1274 O 136.616 3.40609 1.04232 0
M  V30 1275 O 135.475 5.14672 1.83779 0
M  V30 1276 H 132.569 0.766162 0.311329 0
M  V30 1277 H 135.115 1.69307 -0.115362 0
M  V30 1278 H 133.887 3.91244 0.0663899 0
M  V30 1279 H 133.51 3.57154 1.74719 0
M  V30 1280 N 134.507 -0.190092 1.56449 0
M  V30 1281 C 135.755 -0.907908 1.80559 0
M  V30 1282 C 136.076 -1.83583 0.657438 0
M  V30 1283 O 135.346 -1.93203 -0.323924 0
M  V30 1284 H 133.926 -0.338247 0.666032 0
M  V30 1285 H 136.588 -0.194403 1.93928 0
M  V30 1286 H 135.684 -1.49604 2.73907 0
M  V30 1287 N 135.985 -1.50799 -0.457987 0
M  V30 1288 C 137.21 -1.66496 -1.23668 0
M  V30 1289 C 137.635 -0.353288 -1.84752 0
M  V30 1290 O 136.993 0.684346 -1.67888 0
M  V30 1291 C 137.041 -2.76763 -2.3116 0
M  V30 1292 O 136.145 -2.38928 -3.36136 0
M  V30 1293 H 135.486 -0.555828 -0.363252 0
M  V30 1294 H 138.016 -1.9725 -0.543474 0
M  V30 1295 H 138.026 -3.00232 -2.76269 0
M  V30 1296 H 136.701 -3.71954 -1.86073 0
M  V30 1297 H 135.278 -2.25953 -2.96647 0
M  V30 1298 N 137.463 0.71206 -1.40597 0
M  V30 1299 C 138.709 1.47416 -1.39271 0
M  V30 1300 C 139.042 1.942 0.00388791 0
M  V30 1301 O 138.317 1.68403 0.973179 0
M  V30 1302 C 138.6 2.69774 -2.38525 0
M  V30 1303 C 138.453 2.28861 -3.87224 0
M  V30 1304 C 139.772 3.71939 -2.35264 0
M  V30 1305 H 136.891 0.534713 -0.5072 0
M  V30 1306 H 139.533 0.812375 -1.71757 0
M  V30 1307 H 137.683 3.26238 -2.10953 0
M  V30 1308 H 139.355 1.77852 -4.25636 0
M  V30 1309 H 137.598 1.60824 -4.02887 0
M  V30 1310 H 138.269 3.16584 -4.52193 0
M  V30 1311 H 140.745 3.25113 -2.59694 0
M  V30 1312 H 139.621 4.55186 -3.06753 0
M  V30 1313 H 139.882 4.20484 -1.36549 0
M  V30 1314 N 138.941 1.26152 0.944643 0
M  V30 1315 C 140.357 1.03189 1.21754 0
M  V30 1316 C 140.557 -0.245112 2.00004 0
M  V30 1317 O 139.613 -0.955176 2.33736 0
M  V30 1318 C 140.926 2.26119 1.98219 0
M  V30 1319 C 142.474 2.30984 2.11224 0
M  V30 1320 C 142.949 3.53597 2.91089 0
M  V30 1321 N 144.44 3.54053 2.98664 0
M  V30 1322 C 145.175 4.45593 3.60881 0
M  V30 1323 N 144.671 5.47416 4.24626 0
M  V30 1324 N 146.464 4.33252 3.58119 0
M  V30 1325 H 138.615 2.08177 0.421437 0
M  V30 1326 H 140.878 0.914723 0.248969 0
M  V30 1327 H 140.584 3.18984 1.48128 0
M  V30 1328 H 140.458 2.3009 2.98895 0
M  V30 1329 H 142.845 1.38635 2.60508 0
M  V30 1330 H 142.926 2.31026 1.09821 0
M  V30 1331 H 142.57 4.46273 2.42493 0
M  V30 1332 H 142.5 3.50802 3.92741 0
M  V30 1333 H 144.991 2.80403 2.53343 0
M  V30 1334 H 145.304 6.13459 4.69987 0
M  V30 1335 H 143.649 5.51278 4.23223 0
M  V30 1336 H 146.84 3.52924 3.0751 0
M  V30 1337 H 147.013 5.04786 4.06319 0
M  V30 1338 N 140.419 -1.14872 1.07899 0
M  V30 1339 C 141.369 -2.17809 0.674027 0
M  V30 1340 C 142.353 -1.58008 -0.303699 0
M  V30 1341 O 143.545 -1.76616 -0.11654 0
M  V30 1342 C 140.674 -3.43208 0.0793318 0
M  V30 1343 C 139.76 -4.10051 1.08253 0
M  V30 1344 N 140.151 -4.52296 2.2641 0
M  V30 1345 C 138.449 -4.36469 0.917124 0
M  V30 1346 C 139.15 -5.04199 2.901 0
M  V30 1347 N 138.126 -4.98088 2.17736 0
M  V30 1348 H 141.928 -2.48207 1.57386 0
M  V30 1349 H 139.442 -1.315 0.952976 0
M  V30 1350 H 141.439 -4.16272 -0.228719 0
M  V30 1351 H 140.099 -3.14291 -0.815551 0
M  V30 1352 H 141.11 -4.45504 2.64096 0
M  V30 1353 H 137.787 -4.17432 0.0756078 0
M  V30 1354 H 139.177 -5.46802 3.90458 0
M  V30 1355 N 141.898 -0.863906 -1.31812 0
M  V30 1356 C 142.861 -0.320212 -2.26952 0
M  V30 1357 C 143.861 0.525369 -1.51975 0
M  V30 1358 O 145.051 0.335547 -1.70938 0
M  V30 1359 C 142.183 0.545919 -3.365 0
M  V30 1360 H 143.376 -1.16004 -2.76556 0
M  V30 1361 H 140.929 -0.638995 -1.42641 0
M  V30 1362 H 141.664 1.40718 -2.92179 0
M  V30 1363 H 141.449 -0.0594674 -3.92055 0
M  V30 1364 H 142.939 0.918796 -4.07367 0
M  V30 1365 N 143.376 1.44774 -0.622745 0
M  V30 1366 C 144.306 2.33382 0.0741861 0
M  V30 1367 C 145.287 1.47719 0.843387 0
M  V30 1368 O 146.472 1.76458 0.810934 0
M  V30 1369 C 143.602 3.30663 1.06204 0
M  V30 1370 C 142.556 4.26079 0.405037 0
M  V30 1371 C 141.882 5.13165 1.5022 0
M  V30 1372 C 143.182 5.1781 -0.683414 0
M  V30 1373 H 144.876 2.91905 -0.665713 0
M  V30 1374 H 142.422 1.40363 -0.321587 0
M  V30 1375 H 144.375 3.9153 1.55827 0
M  V30 1376 H 143.099 2.70331 1.83272 0
M  V30 1377 H 141.758 3.66532 -0.0704683 0
M  V30 1378 H 141.406 4.49191 2.26355 0
M  V30 1379 H 141.106 5.77812 1.06803 0
M  V30 1380 H 142.63 5.76902 2.00041 0
M  V30 1381 H 144.044 5.72661 -0.270631 0
M  V30 1382 H 142.441 5.91015 -1.04023 0
M  V30 1383 H 143.511 4.59326 -1.55395 0
M  V30 1384 N 144.854 0.36279 1.53368 0
M  V30 1385 C 146.1 -0.228113 2.01513 0
M  V30 1386 C 146.433 -1.48648 1.2497 0
M  V30 1387 O 145.708 -1.91459 0.342616 0
M  V30 1388 C 145.991 -0.522884 3.56284 0
M  V30 1389 C 145.844 0.74892 4.43521 0
M  V30 1390 C 147.163 -1.32461 4.19693 0
M  V30 1391 H 144.282 -0.0814343 0.732487 0
M  V30 1392 H 146.924 0.48713 1.83649 0
M  V30 1393 H 145.074 -1.1322 3.71636 0
M  V30 1394 H 146.746 1.38648 4.39971 0
M  V30 1395 H 144.989 1.36986 4.11603 0
M  V30 1396 H 145.66 0.497667 5.49752 0
M  V30 1397 H 148.136 -0.809203 4.08156 0
M  V30 1398 H 147.012 -1.49961 5.28018 0
M  V30 1399 H 147.273 -2.33232 3.75573 0
M  V30 1400 N 146.332 -1.57332 0.0918853 0
M  V30 1401 C 147.262 -2.16872 -0.865371 0
M  V30 1402 C 148.243 -1.10118 -1.29646 0
M  V30 1403 O 149.428 -1.38242 -1.36392 0
M  V30 1404 C 146.558 -2.74649 -2.12569 0
M  V30 1405 C 145.512 -3.86747 -1.83333 0
M  V30 1406 C 144.838 -4.31212 -3.16166 0
M  V30 1407 C 146.138 -5.10089 -1.1228 0
M  V30 1408 H 147.832 -2.97114 -0.369307 0
M  V30 1409 H 145.378 -1.42918 -0.176194 0
M  V30 1410 H 147.331 -3.14952 -2.7997 0
M  V30 1411 H 146.055 -1.91657 -2.64452 0
M  V30 1412 H 144.714 -3.46978 -1.18331 0
M  V30 1413 H 144.362 -3.45115 -3.6593 0
M  V30 1414 H 144.062 -5.06788 -2.97388 0
M  V30 1415 H 145.586 -4.74146 -3.84731 0
M  V30 1416 H 147 -5.47582 -1.69785 0
M  V30 1417 H 145.397 -5.91073 -1.03693 0
M  V30 1418 H 146.467 -4.84786 -0.105041 0
M  V30 1419 N 147.81 0.181792 -1.56548 0
M  V30 1420 C 149.058 0.89832 -1.81038 0
M  V30 1421 C 149.379 1.83232 -0.667164 0
M  V30 1422 O 148.649 1.93372 0.313673 0
M  V30 1423 H 147.229 0.33471 -0.667816 0
M  V30 1424 H 149.891 0.184116 -1.94028 0
M  V30 1425 H 148.987 1.4815 -2.74696 0
M  V30 1426 N 149.288 1.51039 0.449983 0
M  V30 1427 C 150.513 1.6715 1.22783 0
M  V30 1428 C 150.938 0.363081 1.84563 0
M  V30 1429 O 150.296 -0.675433 1.68249 0
M  V30 1430 C 150.344 2.77985 2.29689 0
M  V30 1431 O 149.448 2.40707 3.34864 0
M  V30 1432 H 148.789 0.557746 0.360299 0
M  V30 1433 H 151.319 1.97535 0.533005 0
M  V30 1434 H 151.329 3.01693 2.74673 0
M  V30 1435 H 150.004 3.72935 1.84098 0
M  V30 1436 H 148.581 2.27523 2.95445 0
M  V30 1437 N 150.766 -0.704594 1.40972 0
M  V30 1438 C 152.182 -1.01406 1.23244 0
M  V30 1439 C 152.382 -2.01169 0.115399 0
M  V30 1440 O 151.438 -2.47021 -0.523147 0
M  V30 1441 C 152.751 -1.54728 2.57836 0
M  V30 1442 C 154.299 -1.66658 2.64942 0
M  V30 1443 C 154.774 -2.23383 3.9983 0
M  V30 1444 N 156.265 -2.30756 4.01629 0
M  V30 1445 C 157 -2.75655 5.02794 0
M  V30 1446 N 156.496 -3.20225 6.14352 0
M  V30 1447 N 158.289 -2.75138 4.90159 0
M  V30 1448 H 150.44 -0.0435285 2.12355 0
M  V30 1449 H 152.703 -0.0818951 0.944456 0
M  V30 1450 H 152.409 -0.888832 3.40283 0
M  V30 1451 H 152.283 -2.53084 2.79693 0
M  V30 1452 H 154.67 -2.31617 1.8286 0
M  V30 1453 H 154.751 -0.668717 2.46904 0
M  V30 1454 H 154.395 -1.59043 4.82357 0
M  V30 1455 H 154.325 -3.23904 4.15203 0
M  V30 1456 H 156.816 -1.99291 3.21079 0
M  V30 1457 H 157.129 -3.53084 6.87424 0
M  V30 1458 H 155.474 -3.18156 6.17901 0
M  V30 1459 H 158.665 -2.39661 4.02095 0
M  V30 1460 H 158.838 -3.09812 5.6914 0
M  V30 1461 N 152.244 -1.26651 -0.937939 0
M  V30 1462 C 153.472 -1.15173 -1.7188 0
M  V30 1463 C 153.887 0.292668 -1.86518 0
M  V30 1464 O 153.244 1.20014 -1.37488 0
M  V30 1465 C 153.295 -1.81925 -3.12387 0
M  V30 1466 O 153.016 -3.2072 -2.98446 0
M  V30 1467 C 154.517 -1.76442 -4.06673 0
M  V30 1468 H 151.737 -0.400911 -0.538063 0
M  V30 1469 H 154.281 -1.67332 -1.1756 0
M  V30 1470 H 152.436 -1.33696 -3.63599 0
M  V30 1471 H 152.85 -3.53802 -3.872 0
M  V30 1472 H 154.324 -2.27781 -5.02812 0
M  V30 1473 H 154.801 -0.731608 -4.33064 0
M  V30 1474 H 155.407 -2.24238 -3.61382 0
M  V30 1475 N 153.722 1.14298 -1.08507 0
M  V30 1476 C 154.672 2.17449 -0.685569 0
M  V30 1477 C 155.656 1.58167 0.295315 0
M  V30 1478 O 156.848 1.76675 0.107172 0
M  V30 1479 C 153.977 3.43161 -0.0975318 0
M  V30 1480 C 153.063 4.09471 -1.10426 0
M  V30 1481 N 153.454 4.51089 -2.28806 0
M  V30 1482 C 151.752 4.35976 -0.940258 0
M  V30 1483 C 152.453 5.02654 -2.9277 0
M  V30 1484 N 151.429 4.96927 -2.20374 0
M  V30 1485 H 155.231 2.47369 -1.587 0
M  V30 1486 H 152.745 1.30992 -0.959936 0
M  V30 1487 H 154.742 4.16388 0.20664 0
M  V30 1488 H 153.402 3.14719 0.798872 0
M  V30 1489 H 154.413 4.44097 -2.66455 0
M  V30 1490 H 151.09 4.17386 -0.0977441 0
M  V30 1491 H 152.48 5.44723 -3.93352 0
M  V30 1492 N 155.201 0.870884 1.31352 0
M  V30 1493 C 156.131 0.343096 2.30966 0
M  V30 1494 C 157.112 -0.566507 1.60389 0
M  V30 1495 O 158.297 -0.483336 1.88089 0
M  V30 1496 C 155.427 -0.455487 3.443 0
M  V30 1497 C 154.381 0.361103 4.26474 0
M  V30 1498 C 153.707 -0.563221 5.31725 0
M  V30 1499 C 155.007 1.59566 4.97329 0
M  V30 1500 H 156.701 1.17548 2.75359 0
M  V30 1501 H 154.247 0.566686 1.32381 0
M  V30 1502 H 156.2 -0.83525 4.13039 0
M  V30 1503 H 154.924 -1.32139 2.98675 0
M  V30 1504 H 153.583 0.722825 3.59403 0
M  V30 1505 H 153.231 -1.42643 4.82351 0
M  V30 1506 H 152.931 -0.0207409 5.87596 0
M  V30 1507 H 154.455 -0.939808 6.03324 0
M  V30 1508 H 155.869 1.28728 5.58661 0
M  V30 1509 H 154.266 2.07728 5.63 0
M  V30 1510 H 155.336 2.34798 4.24262 0
M  V30 1511 N 156.679 -1.44442 0.630414 0
M  V30 1512 C 157.909 -2.06115 0.141465 0
M  V30 1513 C 158.317 -1.47179 -1.1889 0
M  V30 1514 O 157.66 -0.588873 -1.74006 0
M  V30 1515 C 157.722 -3.59467 -0.0484355 0
M  V30 1516 C 157.386 -4.40864 1.20366 0
M  V30 1517 C 158.383 -4.74391 2.12719 0
M  V30 1518 C 156.068 -4.8125 1.43887 0
M  V30 1519 C 158.062 -5.47186 3.26904 0
M  V30 1520 C 155.749 -5.53795 2.5837 0
M  V30 1521 C 156.747 -5.86682 3.49705 0
M  V30 1522 O 156.435 -6.57749 4.62191 0
M  V30 1523 H 156.167 -0.671648 0.0765792 0
M  V30 1524 H 158.721 -1.86312 0.864695 0
M  V30 1525 H 156.951 -3.77758 -0.826803 0
M  V30 1526 H 158.64 -4.02909 -0.491849 0
M  V30 1527 H 159.406 -4.43728 1.95781 0
M  V30 1528 H 155.285 -4.55073 0.736853 0
M  V30 1529 H 158.829 -5.72773 3.98217 0
M  V30 1530 H 154.726 -5.83872 2.75251 0
M  V30 1531 H 155.494 -6.76217 4.61164 0
M  V30 1532 N 158.157 -0.370918 -1.53173 0
M  V30 1533 C 159.067 0.480823 -2.2962 0
M  V30 1534 C 160.083 1.08789 -1.35798 0
M  V30 1535 O 161.259 1.09768 -1.68858 0
M  V30 1536 C 158.324 1.60227 -3.07454 0
M  V30 1537 C 157.385 1.0222 -4.16953 0
M  V30 1538 C 156.618 2.0902 -4.91066 0
M  V30 1539 O 156.841 3.30222 -4.65091 0
M  V30 1540 O 155.775 1.71778 -5.76867 0
M  V30 1541 H 159.601 -0.141421 -3.03371 0
M  V30 1542 H 157.186 -0.135146 -1.48787 0
M  V30 1543 H 159.068 2.25417 -3.56041 0
M  V30 1544 H 157.743 2.20982 -2.36535 0
M  V30 1545 H 156.65 0.334064 -3.72605 0
M  V30 1546 H 157.983 0.459131 -4.90054 0
M  V30 1547 N 159.635 1.57281 -0.100228 0
M  V30 1548 C 160.883 1.94153 0.561157 0
M  V30 1549 C 161.204 0.983157 1.68401 0
M  V30 1550 O 160.474 0.0361132 1.95867 0
M  V30 1551 H 159.054 0.716791 0.210283 0
M  V30 1552 H 161.716 1.94202 -0.164765 0
M  V30 1553 H 160.812 2.96709 0.968008 0
M  V30 1554 N 161.113 -0.173488 1.56642 0
M  V30 1555 C 162.06 -1.21482 1.96242 0
M  V30 1556 C 163.03 -1.44104 0.826027 0
M  V30 1557 O 164.215 -1.5688 1.08597 0
M  V30 1558 C 161.355 -2.54964 2.32567 0
M  V30 1559 C 160.468 -2.39739 3.59373 0
M  V30 1560 C 159.603 -3.66072 3.84921 0
M  V30 1561 C 158.642 -3.45771 5.05083 0
M  V30 1562 N 157.779 -4.64169 5.26775 0
M  V30 1563 H 162.619 -0.870123 2.85014 0
M  V30 1564 H 160.156 -0.418245 1.41029 0
M  V30 1565 H 162.114 -3.32758 2.5165 0
M  V30 1566 H 160.744 -2.87433 1.46908 0
M  V30 1567 H 159.796 -1.53131 3.48217 0
M  V30 1568 H 161.108 -2.20683 4.47326 0
M  V30 1569 H 160.262 -4.52303 4.0436 0
M  V30 1570 H 159.001 -3.88105 2.9534 0
M  V30 1571 H 158.006 -2.57927 4.85545 0
M  V30 1572 H 159.231 -3.25163 5.96193 0
M  V30 1573 H 157.177 -4.86425 4.40144 0
M  V30 1574 H 157.094 -4.48019 6.08946 0
M  V30 1575 H 158.362 -5.51689 5.5069 0
M  V30 1576 N 162.591 -1.51276 -0.441967 0
M  V30 1577 C 163.839 -1.63392 -1.18943 0
M  V30 1578 C 164.16 -0.350159 -1.9183 0
M  V30 1579 O 163.43 0.633784 -1.85364 0
M  V30 1580 H 162.01 -0.602164 -0.442049 0
M  V30 1581 H 164.672 -1.88186 -0.507165 0
M  V30 1582 H 163.768 -2.45934 -1.92154 0
M  V30 1583 N 164.069 0.697108 -1.41344 0
M  V30 1584 C 165.315 1.4593 -1.40827 0
M  V30 1585 C 165.648 1.94193 -0.0167098 0
M  V30 1586 O 164.923 1.69425 0.955263 0
M  V30 1587 C 165.206 2.67229 -2.41373 0
M  V30 1588 C 165.059 2.24741 -3.8963 0
M  V30 1589 C 166.378 3.69423 -2.39196 0
M  V30 1590 H 163.497 0.529303 -0.512842 0
M  V30 1591 H 166.139 0.794112 -1.72609 0
M  V30 1592 H 164.289 3.23982 -2.14401 0
M  V30 1593 H 165.961 1.73327 -4.27499 0
M  V30 1594 H 164.204 1.56542 -4.0457 0
M  V30 1595 H 164.875 3.1177 -4.55525 0
M  V30 1596 H 167.351 3.2234 -2.63128 0
M  V30 1597 H 166.227 4.51907 -3.11563 0
M  V30 1598 H 166.488 4.19012 -1.41001 0
M  V30 1599 N 165.547 1.27147 0.931209 0
M  V30 1600 C 166.963 1.04475 1.20653 0
M  V30 1601 C 167.163 -0.223885 2.00252 0
M  V30 1602 O 166.219 -0.930332 2.34736 0
M  V30 1603 C 167.532 2.28209 1.95809 0
M  V30 1604 C 169.08 2.33211 2.08762 0
M  V30 1605 C 169.555 3.56665 2.87323 0
M  V30 1606 N 171.046 3.57201 2.94892 0
M  V30 1607 C 171.781 4.49395 3.56134 0
M  V30 1608 N 171.277 5.51889 4.18796 0
M  V30 1609 N 173.07 4.37026 3.53504 0
M  V30 1610 H 165.221 2.08612 0.399333 0
M  V30 1611 H 167.484 0.917312 0.239253 0
M  V30 1612 H 167.19 3.20538 1.44736 0
M  V30 1613 H 167.064 2.33247 2.96438 0
M  V30 1614 H 169.451 1.41391 2.59023 0
M  V30 1615 H 169.532 2.32178 1.07364 0
M  V30 1616 H 169.176 4.4882 2.37746 0
M  V30 1617 H 169.106 3.54948 3.88998 0
M  V30 1618 H 171.597 2.83074 2.50354 0
M  V30 1619 H 171.91 6.18409 4.63454 0
M  V30 1620 H 170.255 5.55735 4.17353 0
M  V30 1621 H 173.446 3.56166 3.03749 0
M  V30 1622 H 173.619 5.09067 4.00942 0
M  V30 1623 N 167.025 -1.13721 1.09112 0
M  V30 1624 C 167.988 -2.17222 0.731241 0
M  V30 1625 C 168.988 -1.59035 -0.237566 0
M  V30 1626 O 170.178 -1.74192 -0.0161704 0
M  V30 1627 C 167.31 -3.40804 0.0808443 0
M  V30 1628 H 168.503 -2.50573 1.64783 0
M  V30 1629 H 166.056 -1.28493 0.889897 0
M  V30 1630 H 166.791 -3.1304 -0.847127 0
M  V30 1631 H 166.576 -3.84306 0.777896 0
M  V30 1632 H 168.066 -4.1731 -0.155657 0
M  V30 1633 N 168.503 -0.877838 -1.30888 0
M  V30 1634 C 169.749 -0.493426 -1.96706 0
M  V30 1635 C 170.082 0.953504 -1.6918 0
M  V30 1636 O 169.357 1.67266 -0.992594 0
M  V30 1637 C 169.64 -0.760429 -3.51979 0
M  V30 1638 C 169.493 -2.25747 -3.89048 0
M  V30 1639 C 170.812 -0.232148 -4.39487 0
M  V30 1640 H 167.931 -0.180746 -0.714493 0
M  V30 1641 H 170.573 -1.10052 -1.54882 0
M  V30 1642 H 168.723 -0.243715 -3.87735 0
M  V30 1643 H 170.395 -2.84204 -3.63354 0
M  V30 1644 H 168.638 -2.72694 -3.37373 0
M  V30 1645 H 169.309 -2.39491 -4.97341 0
M  V30 1646 H 171.785 -0.674314 -4.106 0
M  V30 1647 H 170.661 -0.448355 -5.47066 0
M  V30 1648 H 170.922 0.866297 -4.33529 0
M  V30 1649 N 169.982 1.44106 -0.638065 0
M  V30 1650 C 171.228 2.02277 -0.145546 0
M  V30 1651 C 171.561 1.50125 1.23191 0
M  V30 1652 O 170.836 0.688133 1.8192 0
M  V30 1653 C 171.119 3.59829 -0.139791 0
M  V30 1654 C 170.972 4.22247 -1.55008 0
M  V30 1655 C 172.291 4.36873 0.531966 0
M  V30 1656 H 169.41 0.734992 -0.0543632 0
M  V30 1657 H 172.052 1.71592 -0.815863 0
M  V30 1658 H 170.202 3.86102 0.431007 0
M  V30 1659 H 171.874 4.07057 -2.1703 0
M  V30 1660 H 170.117 3.79476 -2.10191 0
M  V30 1661 H 170.788 5.31284 -1.49804 0
M  V30 1662 H 173.264 4.16074 0.0464781 0
M  V30 1663 H 172.14 5.4657 0.505206 0
M  V30 1664 H 172.401 4.11995 1.60352 0
M  V30 1665 N 171.46 0.379036 1.52974 0
M  V30 1666 C 172.41 -0.477772 2.22938 0
M  V30 1667 C 173.394 -1.03792 1.22948 0
M  V30 1668 O 174.586 -0.965725 1.48333 0
M  V30 1669 C 171.715 -1.60994 3.03209 0
M  V30 1670 C 170.801 -1.06203 4.10587 0
M  V30 1671 N 171.192 -0.238214 5.05239 0
M  V30 1672 C 169.49 -1.33554 4.25534 0
M  V30 1673 C 170.191 0.0633235 5.81666 0
M  V30 1674 N 169.167 -0.537901 5.40932 0
M  V30 1675 H 172.969 0.158295 2.93473 0
M  V30 1676 H 170.483 0.187778 1.61311 0
M  V30 1677 H 172.48 -2.23607 3.5186 0
M  V30 1678 H 171.14 -2.24893 2.34207 0
M  V30 1679 H 172.151 0.123695 5.17752 0
M  V30 1680 H 168.828 -1.97632 3.6776 0
M  V30 1681 H 170.218 0.730161 6.67921 0
M  V30 1682 N 172.938 -1.57226 0.108567 0
M  V30 1683 C 174.186 -1.94448 -0.550853 0
M  V30 1684 C 174.507 -0.992074 -1.67878 0
M  V30 1685 O 173.777 -0.0465 -1.95845 0
M  V30 1686 H 172.357 -0.717897 -0.206479 0
M  V30 1687 H 175.019 -1.94112 0.175062 0
M  V30 1688 H 174.115 -2.97218 -0.952259 0
M  V30 1689 N 174.416 0.165178 -1.56732 0
M  V30 1690 C 175.662 0.882112 -1.82611 0
M  V30 1691 C 175.995 1.81628 -0.687378 0
M  V30 1692 O 175.27 1.92009 0.310267 0
M  V30 1693 C 175.553 1.67245 -3.18906 0
M  V30 1694 C 175.406 0.760987 -4.43316 0
M  V30 1695 C 176.725 2.63884 -3.52212 0
M  V30 1696 H 173.844 0.319242 -0.664269 0
M  V30 1697 H 176.486 0.148052 -1.89422 0
M  V30 1698 H 174.636 2.29824 -3.1323 0
M  V30 1699 H 176.308 0.147596 -4.61064 0
M  V30 1700 H 174.551 0.0694102 -4.33744 0
M  V30 1701 H 175.222 1.34962 -5.35247 0
M  V30 1702 H 177.698 2.11429 -3.58381 0
M  V30 1703 H 176.574 3.16245 -4.48643 0
M  V30 1704 H 176.835 3.44377 -2.77231 0
M  V30 1705 N 175.894 1.51508 0.433938 0
M  V30 1706 C 177.31 1.39759 0.770682 0
M  V30 1707 C 177.51 0.482594 1.95636 0
M  V30 1708 O 176.566 -0.0609691 2.52426 0
M  V30 1709 C 177.879 2.81851 1.04787 0
M  V30 1710 C 179.427 2.91025 1.1521 0
M  V30 1711 C 179.902 4.34032 1.46219 0
M  V30 1712 N 181.393 4.37154 1.53136 0
M  V30 1713 C 182.128 5.4484 1.78709 0
M  V30 1714 N 181.624 6.62682 2.02051 0
M  V30 1715 N 183.417 5.32324 1.80519 0
M  V30 1716 H 175.568 2.09548 -0.346892 0
M  V30 1717 H 177.831 0.943446 -0.0928074 0
M  V30 1718 H 177.537 3.50815 0.249304 0
M  V30 1719 H 177.411 3.21386 1.97461 0
M  V30 1720 H 179.798 2.22257 1.94128 0
M  V30 1721 H 179.879 2.54983 0.204281 0
M  V30 1722 H 179.523 5.03351 0.678274 0
M  V30 1723 H 179.453 4.6759 2.42212 0
M  V30 1724 H 181.944 3.52197 1.36987 0
M  V30 1725 H 182.257 7.40543 2.20943 0
M  V30 1726 H 180.602 6.65791 1.99366 0
M  V30 1727 H 183.793 4.39246 1.61805 0
M  V30 1728 H 183.966 6.16328 2.00111 0
M  V30 1729 N 177.372 -0.689602 1.41712 0
M  V30 1730 C 178.6 -1.47827 1.44758 0
M  V30 1731 C 179.015 -1.88721 0.0545703 0
M  V30 1732 O 178.372 -1.57176 -0.927463 0
M  V30 1733 C 178.423 -2.73698 2.3616 0
M  V30 1734 O 178.144 -2.34524 3.7004 0
M  V30 1735 C 179.645 -3.67389 2.48072 0
M  V30 1736 H 176.865 -0.455357 0.49284 0
M  V30 1737 H 179.409 -0.848574 1.86063 0
M  V30 1738 H 177.564 -3.32891 1.98148 0
M  V30 1739 H 177.978 -3.15701 4.18847 0
M  V30 1740 H 179.452 -4.52475 3.16181 0
M  V30 1741 H 179.929 -4.12284 1.51388 0
M  V30 1742 H 180.535 -3.14097 2.86746 0
M  V30 1743 N 178.85 -1.27639 -0.924453 0
M  V30 1744 C 179.813 -1.10681 -2.00705 0
M  V30 1745 C 180.813 -0.0497823 -1.60723 0
M  V30 1746 O 182.003 -0.294654 -1.7169 0
M  V30 1747 C 179.135 -0.687164 -3.33902 0
M  V30 1748 H 180.328 -2.06817 -2.17179 0
M  V30 1749 H 177.881 -1.10473 -1.10569 0
M  V30 1750 H 178.616 0.275439 -3.23128 0
M  V30 1751 H 178.401 -1.45061 -3.6428 0
M  V30 1752 H 179.891 -0.590853 -4.13399 0
M  V30 1753 N 180.328 1.1314 -1.09713 0
M  V30 1754 C 181.291 2.16831 -0.742751 0
M  V30 1755 C 182.291 1.59159 0.229129 0
M  V30 1756 O 183.481 1.74199 0.00693237 0
M  V30 1757 C 180.613 3.40756 -0.0989168 0
M  V30 1758 H 181.806 2.49695 -1.66109 0
M  V30 1759 H 179.359 1.2802 -0.896699 0
M  V30 1760 H 180.094 3.13485 0.830514 0
M  V30 1761 H 179.879 3.83888 -0.798265 0
M  V30 1762 H 181.369 4.17386 0.133524 0
M  V30 1763 N 181.806 0.884767 1.30421 0
M  V30 1764 C 182.769 0.356277 2.26414 0
M  V30 1765 C 183.769 -0.501124 1.52792 0
M  V30 1766 O 184.959 -0.30831 1.7145 0
M  V30 1767 C 182.091 -0.492316 3.37326 0
M  V30 1768 H 183.284 1.20389 2.74675 0
M  V30 1769 H 180.837 0.661607 1.41607 0
M  V30 1770 H 181.572 -1.36052 2.94381 0
M  V30 1771 H 181.357 0.121832 3.91911 0
M  V30 1772 H 182.847 -0.853871 4.08777 0
M  V30 1773 N 183.284 -1.43765 0.645699 0
M  V30 1774 C 184.512 -2.06253 0.163556 0
M  V30 1775 C 184.927 -1.48352 -1.16778 0
M  V30 1776 O 184.284 -0.611932 -1.71935 0
M  V30 1777 C 184.335 -3.61453 0.0583186 0
M  V30 1778 O 184.056 -4.172 1.33702 0
M  V30 1779 C 185.557 -4.41002 -0.450795 0
M  V30 1780 H 182.777 -0.665413 0.0864077 0
M  V30 1781 H 185.321 -1.84396 0.884222 0
M  V30 1782 H 183.476 -3.82522 -0.612865 0
M  V30 1783 H 183.89 -5.10791 1.19131 0
M  V30 1784 H 185.364 -5.49966 -0.473403 0
M  V30 1785 H 185.841 -4.13488 -1.48068 0
M  V30 1786 H 186.447 -4.24886 0.187637 0
M  V30 1787 N 184.763 -0.387143 -1.52771 0
M  V30 1788 C 186.011 0.195349 -2.01154 0
M  V30 1789 C 186.332 1.475 -1.27549 0
M  V30 1790 O 185.602 1.91878 -0.394924 0
M  V30 1791 H 184.182 0.075178 -0.743207 0
M  V30 1792 H 186.844 -0.518337 -1.87881 0
M  V30 1793 H 185.94 0.407096 -3.09434 0
M  V30 1794 N 186.241 1.57166 -0.116904 0
M  V30 1795 C 187.204 2.14039 0.819742 0
M  V30 1796 C 188.204 1.07477 1.19605 0
M  V30 1797 O 189.394 1.33263 1.1219 0
M  V30 1798 C 186.526 2.67891 2.10826 0
M  V30 1799 H 187.719 2.98128 0.325511 0
M  V30 1800 H 185.272 1.55739 0.132312 0
M  V30 1801 H 186.007 1.87384 2.64685 0
M  V30 1802 H 185.792 3.45823 1.84793 0
M  V30 1803 H 187.282 3.11809 2.77785 0
M  V30 1804 N 187.719 -0.156864 1.56817 0
M  V30 1805 C 188.629 -1.2136 2.00771 0
M  V30 1806 C 189.645 -1.47598 0.921459 0
M  V30 1807 O 190.821 -1.59462 1.2302 0
M  V30 1808 C 187.886 -2.52943 2.37109 0
M  V30 1809 C 186.947 -2.34439 3.59634 0
M  V30 1810 C 186.18 -3.59748 3.94229 0
M  V30 1811 O 186.403 -4.65526 3.29609 0
M  V30 1812 O 185.337 -3.52998 4.8752 0
M  V30 1813 H 189.163 -0.870468 2.90958 0
M  V30 1814 H 186.748 -0.36484 1.44877 0
M  V30 1815 H 188.63 -3.30538 2.61386 0
M  V30 1816 H 187.305 -2.86806 1.5008 0
M  V30 1817 H 186.212 -1.54828 3.40557 0
M  V30 1818 H 187.545 -2.05496 4.4725 0
M  V30 1819 N 189.197 -1.51736 -0.425897 0
M  V30 1820 C 190.425 -1.68794 -1.1965 0
M  V30 1821 C 190.84 -0.390164 -1.84725 0
M  V30 1822 O 190.197 0.632376 -1.71194 0
M  V30 1823 C 190.248 -2.81174 -2.27208 0
M  V30 1824 O 189.969 -4.05925 -1.64793 0
M  V30 1825 C 191.47 -3.09599 -3.17275 0
M  V30 1826 H 188.69 -0.566128 -0.360194 0
M  V30 1827 H 191.234 -1.98211 -0.503249 0
M  V30 1828 H 189.389 -2.54324 -2.9223 0
M  V30 1829 H 189.803 -4.68423 -2.35967 0
M  V30 1830 H 191.277 -3.91786 -3.88854 0
M  V30 1831 H 191.754 -2.22468 -3.78688 0
M  V30 1832 H 192.36 -3.38151 -2.57941 0
M  V30 1833 N 190.675 0.682077 -1.42076 0
M  V30 1834 C 191.605 1.80796 -1.47767 0
M  V30 1835 C 192.586 1.6677 -0.334954 0
M  V30 1836 O 193.771 1.863 -0.548264 0
M  V30 1837 C 190.901 3.19038 -1.37229 0
M  V30 1838 C 189.855 3.47789 -2.49453 0
M  V30 1839 C 189.181 4.8553 -2.23975 0
M  V30 1840 C 190.481 3.45411 -3.91776 0
M  V30 1841 H 192.175 1.7629 -2.41997 0
M  V30 1842 H 189.721 0.846721 -1.16476 0
M  V30 1843 H 191.674 3.97528 -1.39821 0
M  V30 1844 H 190.398 3.24204 -0.394907 0
M  V30 1845 H 189.057 2.71657 -2.46166 0
M  V30 1846 H 188.705 4.87337 -1.24547 0
M  V30 1847 H 188.405 5.0573 -2.99184 0
M  V30 1848 H 189.929 5.66312 -2.28304 0
M  V30 1849 H 191.343 4.13882 -3.96705 0
M  V30 1850 H 189.74 3.77145 -4.66778 0
M  V30 1851 H 190.81 2.44122 -4.18966 0
M  V30 1852 N 192.153 1.28127 0.917671 0
M  V30 1853 C 193.402 1.14432 1.66097 0
M  V30 1854 C 193.715 -0.307247 1.93172 0
M  V30 1855 O 194.921 -0.565259 2.65551 0
M  V30 1856 C 193.377 2.00015 2.99202 0
M  V30 1857 C 192.985 3.49889 2.79789 0
M  V30 1858 C 194.729 1.94996 3.77064 0
M  V30 1859 C 192.636 4.27636 4.08511 0
M  V30 1860 H 191.566 0.424662 0.62304 0
M  V30 1861 H 194.217 1.52628 1.01868 0
M  V30 1862 H 192.599 1.54672 3.64544 0
M  V30 1863 H 193.773 4.03162 2.23152 0
M  V30 1864 H 192.088 3.56392 2.15345 0
M  V30 1865 H 194.685 2.50354 4.72469 0
M  V30 1866 H 195.028 0.925819 4.05875 0
M  V30 1867 H 195.561 2.38287 3.18534 0
M  V30 1868 H 192.3 5.30615 3.84874 0
M  V30 1869 H 191.82 3.79137 4.64774 0
M  V30 1870 H 193.499 4.37346 4.76799 0
M  V30 1871 N 193.631 -1.12557 1.10312 0
M  V30 1872 C 194.561 -2.20341 0.772798 0
M  V30 1873 C 195.542 -1.68198 -0.25365 0
M  V30 1874 O 196.727 -1.93831 -0.119699 0
M  V30 1875 C 193.857 -3.46709 0.202443 0
M  V30 1876 C 192.811 -4.11996 1.15943 0
M  V30 1877 C 192.137 -5.328 0.450345 0
M  V30 1878 C 193.437 -4.5828 2.50552 0
M  V30 1879 H 195.131 -2.48229 1.674 0
M  V30 1880 H 192.677 -1.19308 0.806326 0
M  V30 1881 H 194.63 -4.2138 -0.0407752 0
M  V30 1882 H 193.354 -3.18245 -0.734001 0
M  V30 1883 H 192.013 -3.39305 1.38808 0
M  V30 1884 H 191.661 -5.00602 -0.490531 0
M  V30 1885 H 191.361 -5.7743 1.08851 0
M  V30 1886 H 192.885 -6.10219 0.215642 0
M  V30 1887 H 194.299 -5.2433 2.31843 0
M  V30 1888 H 192.696 -5.13683 3.10242 0
M  V30 1889 H 193.766 -3.72329 3.10643 0
M  V30 1890 N 195.109 -0.891671 -1.2995 0
M  V30 1891 C 196.337 -0.52866 -2.00032 0
M  V30 1892 C 196.752 0.884574 -1.66795 0
M  V30 1893 O 196.109 1.5827 -0.908669 0
M  V30 1894 C 196.16 -0.701814 -3.54622 0
M  V30 1895 O 195.881 -2.05942 -3.86678 0
M  V30 1896 C 197.382 -0.342683 -4.41973 0
M  V30 1897 H 194.602 -0.203659 -0.639347 0
M  V30 1898 H 197.146 -1.19881 -1.65677 0
M  V30 1899 H 195.301 -0.0789468 -3.8732 0
M  V30 1900 H 195.715 -2.08291 -4.81368 0
M  V30 1901 H 197.189 -0.514709 -5.49595 0
M  V30 1902 H 197.666 0.71975 -4.33262 0
M  V30 1903 H 198.272 -0.942154 -4.14733 0
M  V30 1904 N 196.587 1.43421 -0.653314 0
M  V30 1905 C 197.535 2.32546 0.0501531 0
M  V30 1906 C 198.529 1.48617 0.812985 0
M  V30 1907 O 199.735 1.64825 0.723375 0
M  V30 1908 H 196.11 0.751185 0.0350032 0
M  V30 1909 H 198.081 2.89602 -0.719261 0
M  V30 1910 C 196.83 3.32925 1.00279 0
M  V30 1911 H 196.153 3.97532 0.425236 0
M  V30 1912 H 197.593 3.9792 1.46409 0
M  V30 1913 C 196.052 2.63532 2.09886 0
M  V30 1914 O 196.582 2.45092 3.18265 0
M  V30 1915 N 194.788 2.22905 1.86445 0
M  V30 1916 H 194.335 2.38103 0.98309 0
M  V30 1917 H 194.293 1.76805 2.59976 0
M  V30 1918 N 198.065 0.39524 1.52563 0
M  V30 1919 C 199.313 -0.184678 2.01254 0
M  V30 1920 C 199.634 -1.46822 1.28329 0
M  V30 1921 O 198.904 -1.91666 0.405094 0
M  V30 1922 H 197.484 -0.0712355 0.743596 0
M  V30 1923 H 200.146 0.528293 1.87603 0
M  V30 1924 H 199.242 -0.390681 3.09645 0
M  V30 1925 N 199.544 -1.57102 0.125237 0
M  V30 1926 C 200.784 -1.97294 -0.534259 0
M  V30 1927 C 201.148 -1.0074 -1.63449 0
M  V30 1928 O 202.349 -1.29893 -2.35332 0
M  V30 1929 C 200.62 -3.41705 -1.04748 0
M  V30 1930 S 202.179 -4.03913 -1.71463 0
M  V30 1931 H 198.997 -0.689517 -0.173458 0
M  V30 1932 H 201.599 -1.94349 0.211797 0
M  V30 1933 H 200.303 -4.09723 -0.235649 0
M  V30 1934 H 199.834 -3.48315 -1.82867 0
M  V30 1935 H 201.849 -3.95182 -3.00077 0
M  V30 1936 N 201.022 0.148545 -1.56898 0
M  V30 1937 C 202.27 0.859717 -1.82902 0
M  V30 1938 C 202.591 1.81775 -0.70588 0
M  V30 1939 O 201.861 1.93994 0.272586 0
M  V30 1940 H 200.441 0.320469 -0.674766 0
M  V30 1941 H 203.103 0.142918 -1.94375 0
M  V30 1942 H 202.199 1.4229 -2.77777 0
M  V30 1943 N 202.5 1.5196 0.417844 0
M  V30 1944 C 203.748 1.65263 1.16329 0
M  V30 1945 C 204.069 0.380634 1.91249 0
M  V30 1946 O 203.339 -0.604214 1.86349 0
M  V30 1947 H 201.919 0.60912 0.432414 0
M  V30 1948 H 204.581 1.88969 0.477162 0
M  V30 1949 H 203.677 2.4896 1.88217 0
M  V30 1950 N 203.978 -0.674533 1.42435 0
M  V30 1951 C 204.908 -1.80009 1.48724 0
M  V30 1952 C 205.889 -1.6659 0.343793 0
M  V30 1953 O 207.074 -1.86007 0.558137 0
M  V30 1954 C 204.204 -3.18306 1.38919 0
M  V30 1955 C 203.158 -3.46461 2.51294 0
M  V30 1956 C 202.484 -4.84335 2.26547 0
M  V30 1957 C 203.784 -3.43328 3.93603 0
M  V30 1958 H 205.478 -1.75004 2.42928 0
M  V30 1959 H 203.024 -0.840533 1.16923 0
M  V30 1960 H 204.977 -3.9678 1.41927 0
M  V30 1961 H 203.701 -3.2399 0.412094 0
M  V30 1962 H 202.36 -2.70348 2.47604 0
M  V30 1963 H 202.008 -4.86669 1.2713 0
M  V30 1964 H 201.708 -5.04136 3.01861 0
M  V30 1965 H 203.232 -5.65094 2.31304 0
M  V30 1966 H 204.646 -4.11772 3.98894 0
M  V30 1967 H 203.043 -3.74664 4.68771 0
M  V30 1968 H 204.113 -2.41897 4.20255 0
M  V30 1969 N 205.456 -1.28612 -0.910864 0
M  V30 1970 C 206.404 -1.1265 -2.03501 0
M  V30 1971 C 207.398 -0.0450054 -1.6934 0
M  V30 1972 O 208.604 -0.203988 -1.7884 0
M  V30 1973 H 204.979 -0.347639 -0.666822 0
M  V30 1974 H 206.95 -2.07849 -2.14106 0
M  V30 1975 C 205.699 -0.808143 -3.38178 0
M  V30 1976 H 205.022 -1.63231 -3.6496 0
M  V30 1977 H 206.462 -0.736426 -4.17556 0
M  V30 1978 C 204.921 0.488226 -3.33344 0
M  V30 1979 O 205.451 1.51766 -3.71927 0
M  V30 1980 N 203.657 0.490009 -2.86439 0
M  V30 1981 H 203.204 -0.348161 -2.55236 0
M  V30 1982 H 203.162 1.35741 -2.83587 0
M  V30 1983 N 206.934 1.1197 -1.10907 0
M  V30 1984 C 207.866 2.17592 -0.720175 0
M  V30 1985 C 208.879 1.60938 0.245495 0
M  V30 1986 O 210.068 1.78476 0.0292245 0
M  V30 1987 C 207.168 3.38873 -0.0427917 0
M  V30 1988 C 206.341 4.25006 -1.03388 0
M  V30 1989 C 205.4 5.24774 -0.387075 0
M  V30 1990 O 204.426 5.59631 -1.03934 0
M  V30 1991 N 205.628 5.74208 0.852407 0
M  V30 1992 H 208.393 2.51567 -1.62893 0
M  V30 1993 H 205.954 1.27439 -0.998543 0
M  V30 1994 H 207.946 4.02703 0.401501 0
M  V30 1995 H 206.516 3.03007 0.768456 0
M  V30 1996 H 205.736 3.57716 -1.65629 0
M  V30 1997 H 207.024 4.79397 -1.70458 0
M  V30 1998 H 206.422 5.48062 1.40161 0
M  V30 1999 H 204.979 6.39901 1.23977 0
M  V30 2000 N 208.412 0.89855 1.29475 0
M  V30 2001 C 209.322 0.379974 2.31502 0
M  V30 2002 C 210.338 -0.524695 1.659 0
M  V30 2003 O 211.514 -0.414551 1.97087 0
M  V30 2004 C 208.579 -0.385138 3.44554 0
M  V30 2005 C 207.64 0.550914 4.2575 0
M  V30 2006 C 206.873 -0.177778 5.33404 0
M  V30 2007 O 207.096 -1.40189 5.52904 0
M  V30 2008 O 206.03 0.479106 5.9999 0
M  V30 2009 H 209.856 1.22639 2.77837 0
M  V30 2010 H 207.441 0.662834 1.33891 0
M  V30 2011 H 209.323 -0.817841 4.13388 0
M  V30 2012 H 207.998 -1.20763 3.0033 0
M  V30 2013 H 206.905 1.03271 3.59564 0
M  V30 2014 H 208.238 1.33979 4.73614 0
M  V30 2015 N 209.89 -1.43072 0.660911 0
M  V30 2016 C 211.136 -2.02545 0.186337 0
M  V30 2017 C 211.491 -1.51253 -1.18913 0
M  V30 2018 O 210.784 -0.699167 -1.78388 0
M  V30 2019 C 210.978 -3.57103 0.145563 0
M  V30 2020 C 210.807 -4.23393 1.51554 0
M  V30 2021 C 209.577 -4.59144 2.10984 0
M  V30 2022 C 211.775 -4.51897 2.45548 0
M  V30 2023 N 209.757 -5.10545 3.40907 0
M  V30 2024 C 211.128 -5.04698 3.6011 0
M  V30 2025 C 213.183 -4.33872 2.44253 0
M  V30 2026 C 211.886 -5.41371 4.73613 0
M  V30 2027 C 213.912 -4.71612 3.56842 0
M  V30 2028 C 213.274 -5.24553 4.70131 0
M  V30 2029 H 209.373 -0.773823 0.112792 0
M  V30 2030 H 211.957 -1.74137 0.870885 0
M  V30 2031 H 210.128 -3.85059 -0.508353 0
M  V30 2032 H 211.86 -4.03264 -0.340598 0
M  V30 2033 H 208.615 -4.4444 1.63615 0
M  V30 2034 H 209.039 -5.40689 4.07411 0
M  V30 2035 H 213.681 -3.92208 1.579 0
M  V30 2036 H 211.399 -5.81975 5.60652 0
M  V30 2037 H 214.985 -4.59354 3.57051 0
M  V30 2038 H 213.865 -5.53213 5.5581 0
M  V30 2039 N 211.368 -0.403325 -1.52352 0
M  V30 2040 C 212.616 0.174003 -2.0135 0
M  V30 2041 C 212.937 1.46139 -1.29106 0
M  V30 2042 O 212.207 1.91448 -0.415253 0
M  V30 2043 H 210.787 0.0672911 -0.743963 0
M  V30 2044 H 213.449 -0.538235 -1.87321 0
M  V30 2045 H 212.545 0.374254 -3.09848 0
M  V30 2046 N 212.846 1.57033 -0.133567 0
M  V30 2047 C 213.809 2.14897 0.796995 0
M  V30 2048 C 214.809 1.0874 1.18458 0
M  V30 2049 O 215.999 1.34446 1.1077 0
M  V30 2050 C 213.131 2.70112 2.07973 0
M  V30 2051 H 214.324 2.98457 0.293873 0
M  V30 2052 H 211.877 1.55871 0.115787 0
M  V30 2053 H 212.612 1.9018 2.62682 0
M  V30 2054 H 212.397 3.47764 1.81115 0
M  V30 2055 H 213.887 3.14738 2.74462 0
M  V30 2056 N 214.325 -0.140222 1.56975 0
M  V30 2057 C 215.573 -0.850005 1.83356 0
M  V30 2058 C 215.894 -1.81399 0.71551 0
M  V30 2059 O 215.164 -1.94136 -0.262294 0
M  V30 2060 H 213.744 -0.316886 0.676456 0
M  V30 2061 H 216.406 -0.132608 1.94448 0
M  V30 2062 H 215.502 -1.40814 2.78528 0
M  V30 2063 N 215.803 -1.52179 -0.40978 0
M  V30 2064 C 217.031 -1.70054 -1.17853 0
M  V30 2065 C 217.446 -0.409735 -1.843 0
M  V30 2066 O 216.803 0.614183 -1.71855 0
M  V30 2067 C 216.854 -2.83568 -2.24213 0
M  V30 2068 O 216.575 -4.0765 -1.60478 0
M  V30 2069 C 218.076 -3.12947 -3.13973 0
M  V30 2070 H 215.296 -0.569917 -0.354169 0
M  V30 2071 H 217.84 -1.98734 -0.482198 0
M  V30 2072 H 215.995 -2.57409 -2.89516 0
M  V30 2073 H 216.409 -4.70899 -2.30986 0
M  V30 2074 H 217.883 -3.95889 -3.84677 0
M  V30 2075 H 218.36 -2.26472 -3.76307 0
M  V30 2076 H 218.966 -3.40868 -2.5434 0
M  V30 2077 N 217.281 0.66697 -1.42791 0
M  V30 2078 C 218.692 1.2478 -1.38877 0
M  V30 2079 C 219.043 1.96012 -0.0859426 0
M  V30 2080 O 218.168 2.00463 0.815081 0
M  V30 2081 C 218.763 2.26938 -2.51564 0
M  V30 2082 C 217.322 2.80529 -2.50959 0
M  V30 2083 C 216.469 1.54965 -2.29959 0
M  V30 2084 H 219.42 0.459853 -1.51892 0
M  V30 2085 H 219.441 3.08834 -2.22265 0
M  V30 2086 H 218.953 1.75065 -3.46372 0
M  V30 2087 H 217.054 3.36502 -1.59991 0
M  V30 2088 H 217.167 3.29012 -3.48265 0
M  V30 2089 H 215.531 1.81817 -1.78366 0
M  V30 2090 H 216.314 1.05047 -3.26833 0
M  V30 2091 N 218.759 1.29093 0.90403 0
M  V30 2092 C 220.005 1.16986 1.65656 0
M  V30 2093 C 220.338 -0.278925 1.92186 0
M  V30 2094 O 219.613 -1.2019 1.5292 0
M  V30 2095 C 219.896 1.97908 3.0084 0
M  V30 2096 C 219.749 3.50903 2.81403 0
M  V30 2097 C 221.068 1.80208 4.01513 0
M  V30 2098 H 218.187 0.426346 0.601164 0
M  V30 2099 H 220.829 1.58518 1.04747 0
M  V30 2100 H 218.979 1.62616 3.52829 0
M  V30 2101 H 220.651 3.96153 2.36348 0
M  V30 2102 H 218.894 3.76045 2.1627 0
M  V30 2103 H 219.565 4.02791 3.77443 0
M  V30 2104 H 222.041 2.11025 3.58619 0
M  V30 2105 H 220.917 2.39184 4.94047 0
M  V30 2106 H 221.178 0.756119 4.35586 0
M  V30 2107 N 220.237 -1.11381 1.11499 0
M  V30 2108 C 221.167 -2.19509 0.796125 0
M  V30 2109 C 222.148 -1.68458 -0.235796 0
M  V30 2110 O 223.333 -1.93947 -0.0991344 0
M  V30 2111 C 220.463 -3.46475 0.239205 0
M  V30 2112 C 219.417 -4.10744 1.20307 0
M  V30 2113 C 218.743 -5.32293 0.50683 0
M  V30 2114 C 220.043 -4.55597 2.55399 0
M  V30 2115 H 221.737 -2.46439 1.70024 0
M  V30 2116 H 219.283 -1.18446 0.818935 0
M  V30 2117 H 221.236 -4.214 0.00392006 0
M  V30 2118 H 219.96 -3.19006 -0.700206 0
M  V30 2119 H 218.619 -3.37813 1.42399 0
M  V30 2120 H 218.267 -5.01095 -0.437408 0
M  V30 2121 H 217.967 -5.76243 1.1497 0
M  V30 2122 H 219.491 -6.09956 0.280351 0
M  V30 2123 H 220.905 -5.21841 2.37391 0
M  V30 2124 H 219.302 -5.10363 3.15673 0
M  V30 2125 H 220.372 -3.69013 3.14575 0
M  V30 2126 N 221.715 -0.905404 -1.28997 0
M  V30 2127 C 222.645 -0.404212 -2.29975 0
M  V30 2128 C 223.626 0.523784 -1.61835 0
M  V30 2129 O 224.811 0.433298 -1.89304 0
M  V30 2130 C 221.941 0.364042 -3.45387 0
M  V30 2131 C 220.895 -0.474048 -4.25367 0
M  V30 2132 C 220.221 0.422045 -5.33032 0
M  V30 2133 C 221.521 -1.72696 -4.92923 0
M  V30 2134 H 223.215 -1.24807 -2.72146 0
M  V30 2135 H 220.761 -0.601585 -1.30832 0
M  V30 2136 H 222.714 0.725447 -4.15109 0
M  V30 2137 H 221.438 1.24174 -3.02074 0
M  V30 2138 H 220.097 -0.81786 -3.57361 0
M  V30 2139 H 219.745 1.29804 -4.85963 0
M  V30 2140 H 219.445 -0.135057 -5.87445 0
M  V30 2141 H 220.969 0.779517 -6.05604 0
M  V30 2142 H 222.383 -1.43495 -5.55051 0
M  V30 2143 H 220.78 -2.22582 -5.57295 0
M  V30 2144 H 221.85 -2.45964 -4.17887 0
M  V30 2145 N 223.193 1.4272 -0.668489 0
M  V30 2146 C 224.418 2.06484 -0.194758 0
M  V30 2147 C 224.843 1.49862 1.13679 0
M  V30 2148 O 224.201 0.614582 1.70565 0
M  V30 2149 C 224.249 3.60353 -0.133546 0
M  V30 2150 O 223.353 4.02464 0.899806 0
M  V30 2151 H 222.694 0.656137 -0.10188 0
M  V30 2152 H 225.224 1.82964 -0.915722 0
M  V30 2153 H 225.234 4.07976 0.0447041 0
M  V30 2154 H 223.909 4.00938 -1.1055 0
M  V30 2155 H 222.486 3.66402 0.693109 0
M  V30 2156 N 224.671 0.411399 1.52136 0
M  V30 2157 C 225.948 -0.222308 1.94333 0
M  V30 2158 C 226.328 -1.6242 1.34844 0
M  V30 2159 O 225.676 -2.22384 0.525145 0
M  V30 2160 C 225.886 -0.226345 3.48265 0
M  V30 2161 C 227.234 -0.444592 4.22266 0
M  V30 2162 O 228.258 -0.305602 3.54887 0
M  V30 2163 O 227.117 -0.718749 5.41753 0
M  V30 2164 H 224.211 -0.143907 0.814383 0
M  V30 2165 H 226.757 0.467506 1.63133 0
M  V30 2166 H 225.529 0.75475 3.83952 0
M  V30 2167 H 225.152 -0.960163 3.85832 0
M  V30 2168 N 226.149 -1.5696 0.141893 0
M  V30 2169 C 227.099 -2.13074 -0.811383 0
M  V30 2170 C 228.083 -1.05726 -1.21288 0
M  V30 2171 O 229.275 -1.31914 -1.18015 0
M  V30 2172 C 226.404 -2.75186 -2.0525 0
M  V30 2173 C 225.49 -3.8965 -1.67432 0
M  V30 2174 N 225.881 -4.95733 -1.0041 0
M  V30 2175 C 224.179 -4.00262 -1.96739 0
M  V30 2176 C 224.88 -5.75858 -0.822345 0
M  V30 2177 N 223.856 -5.26452 -1.3546 0
M  V30 2178 H 227.658 -2.92465 -0.290031 0
M  V30 2179 H 225.172 -1.6229 -0.0598218 0
M  V30 2180 H 227.169 -3.13745 -2.74535 0
M  V30 2181 H 225.829 -1.97266 -2.57907 0
M  V30 2182 H 226.84 -5.13607 -0.665441 0
M  V30 2183 H 223.517 -3.33412 -2.51282 0
M  V30 2184 H 224.907 -6.71254 -0.294496 0
M  V30 2185 N 227.627 0.131896 -1.57047 0
M  V30 2186 C 228.876 0.84044 -1.83356 0
M  V30 2187 C 229.189 1.81646 -0.725535 0
M  V30 2188 O 230.395 2.57025 -0.874659 0
M  V30 2189 C 228.851 1.54528 -3.25037 0
M  V30 2190 C 228.459 0.610902 -4.43815 0
M  V30 2191 C 230.203 2.23972 -3.60606 0
M  V30 2192 C 228.11 1.31823 -5.76521 0
M  V30 2193 H 227.04 0.317599 -0.683847 0
M  V30 2194 H 229.691 0.0931561 -1.83263 0
M  V30 2195 H 228.073 2.33873 -3.19561 0
M  V30 2196 H 229.247 -0.148407 -4.60561 0
M  V30 2197 H 227.562 0.0241016 -4.16393 0
M  V30 2198 H 230.159 2.77558 -4.57018 0
M  V30 2199 H 230.502 3.01173 -2.87403 0
M  V30 2200 H 231.035 1.51529 -3.6781 0
M  V30 2201 H 227.774 0.587771 -6.52859 0
M  V30 2202 H 227.294 2.04987 -5.63685 0
M  V30 2203 H 228.973 1.855 -6.19838 0
M  V30 2204 N 229.106 1.52395 0.401703 0
M  V30 2205 C 230.054 1.7689 1.51039 0
M  V30 2206 C 231.048 0.636298 1.56996 0
M  V30 2207 O 232.254 0.818507 1.60314 0
M  V30 2208 H 228.629 0.559502 0.502456 0
M  V30 2209 H 230.6 2.69757 1.27568 0
M  V30 2210 C 229.349 1.94331 2.88324 0
M  V30 2211 H 228.672 2.80905 2.84486 0
M  V30 2212 H 230.112 2.15466 3.65172 0
M  V30 2213 C 228.571 0.712396 3.29282 0
M  V30 2214 O 229.101 -0.116218 4.01532 0
M  V30 2215 N 227.307 0.546154 2.85422 0
M  V30 2216 H 226.854 1.22156 2.26794 0
M  V30 2217 H 226.812 -0.276113 3.13185 0
M  V30 2218 N 230.584 -0.659388 1.43143 0
M  V30 2219 C 231.514 -1.78422 1.50625 0
M  V30 2220 C 232.495 -1.66216 0.361443 0
M  V30 2221 O 233.68 -1.85404 0.577834 0
M  V30 2222 C 230.81 -3.16815 1.42287 0
M  V30 2223 C 229.764 -3.43777 2.54954 0
M  V30 2224 C 229.09 -4.81905 2.31671 0
M  V30 2225 C 230.39 -3.39134 3.97222 0
M  V30 2226 H 232.084 -1.72417 2.44771 0
M  V30 2227 H 229.63 -0.828084 1.17808 0
M  V30 2228 H 231.583 -3.95253 1.46127 0
M  V30 2229 H 230.307 -3.23534 0.446435 0
M  V30 2230 H 228.966 -2.67707 2.50457 0
M  V30 2231 H 228.614 -4.85294 1.32284 0
M  V30 2232 H 228.314 -5.00906 3.07192 0
M  V30 2233 H 229.838 -5.62609 2.37284 0
M  V30 2234 H 231.252 -4.07518 4.03239 0
M  V30 2235 H 229.649 -3.69671 4.72719 0
M  V30 2236 H 230.719 -2.37426 4.22797 0
M  V30 2237 N 232.062 -1.29571 -0.897171 0
M  V30 2238 C 233.29 -1.20583 -1.68129 0
M  V30 2239 C 233.705 0.233181 -1.87354 0
M  V30 2240 O 233.062 1.15579 -1.41236 0
M  V30 2241 C 233.113 -1.91772 -3.06441 0
M  V30 2242 O 232.834 -3.30053 -2.88091 0
M  V30 2243 C 234.335 -1.89291 -4.00854 0
M  V30 2244 H 231.555 -0.417826 -0.525036 0
M  V30 2245 H 234.099 -1.70987 -1.12177 0
M  V30 2246 H 232.254 -1.45196 -3.59161 0
M  V30 2247 H 232.668 -3.65942 -3.75748 0
M  V30 2248 H 234.142 -2.43662 -4.95311 0
M  V30 2249 H 234.619 -0.869014 -4.30517 0
M  V30 2250 H 235.225 -2.35622 -3.54066 0
M  V30 2251 N 233.54 1.10788 -1.12088 0
M  V30 2252 C 234.503 2.15207 -0.788577 0
M  V30 2253 C 235.503 1.59609 0.195317 0
M  V30 2254 O 236.693 1.74174 -0.0300193 0
M  V30 2255 C 233.825 3.4047 -0.171174 0
M  V30 2256 H 235.018 2.46116 -1.71368 0
M  V30 2257 H 232.571 1.26089 -0.923652 0
M  V30 2258 H 233.306 3.15176 0.763832 0
M  V30 2259 H 233.091 3.82109 -0.879514 0
M  V30 2260 H 234.581 4.17576 0.04496 0
M  V30 2261 N 235.018 0.912232 1.28515 0
M  V30 2262 C 236.434 0.610159 1.47476 0
M  V30 2263 C 236.634 -0.844955 1.82928 0
M  V30 2264 O 235.69 -1.62416 1.93332 0
M  V30 2265 C 237.003 1.54675 2.57868 0
M  V30 2266 C 238.551 1.55331 2.71738 0
M  V30 2267 C 239.026 2.47649 3.85272 0
M  V30 2268 N 240.517 2.45767 3.92623 0
M  V30 2269 C 241.252 3.13896 4.79851 0
M  V30 2270 N 240.748 3.9135 5.71679 0
M  V30 2271 N 242.541 3.02991 4.73448 0
M  V30 2272 H 234.692 1.85318 1.03783 0
M  V30 2273 H 236.955 0.794777 0.516753 0
M  V30 2274 H 236.661 2.5841 2.38574 0
M  V30 2275 H 236.535 1.27671 3.54937 0
M  V30 2276 H 238.922 0.52335 2.90422 0
M  V30 2277 H 239.003 1.86378 1.75205 0
M  V30 2278 H 238.647 3.50745 3.67342 0
M  V30 2279 H 238.577 2.13904 4.81199 0
M  V30 2280 H 241.068 1.89503 3.26951 0
M  V30 2281 H 241.381 4.40359 6.35062 0
M  V30 2282 H 239.726 3.95455 5.71524 0
M  V30 2283 H 242.917 2.41987 4.007 0
M  V30 2284 H 243.09 3.5636 5.41213 0
M  V30 2285 N 236.496 -1.42363 0.676048 0
M  V30 2286 C 237.721 -2.06377 0.205705 0
M  V30 2287 C 238.146 -1.50463 -1.12883 0
M  V30 2288 O 237.504 -0.623619 -1.70237 0
M  V30 2289 C 237.552 -3.60277 0.152655 0
M  V30 2290 O 236.656 -4.02935 -0.87845 0
M  V30 2291 H 235.997 -0.655588 0.105359 0
M  V30 2292 H 238.527 -1.82475 0.925412 0
M  V30 2293 H 238.537 -4.07993 -0.0230675 0
M  V30 2294 H 237.212 -4.00346 1.12675 0
M  V30 2295 H 235.789 -3.66764 -0.673668 0
M  V30 2296 N 237.974 -0.419461 -1.51915 0
M  V30 2297 C 239.385 0.0477853 -1.86639 0
M  V30 2298 C 239.736 1.43531 -1.33766 0
M  V30 2299 O 238.861 2.05401 -0.68113 0
M  V30 2300 C 239.456 0.0934885 -3.38671 0
M  V30 2301 C 238.015 0.505097 -3.72996 0
M  V30 2302 C 237.162 -0.313792 -2.75519 0
M  V30 2303 H 240.113 -0.636088 -1.45395 0
M  V30 2304 H 240.134 0.906667 -3.6954 0
M  V30 2305 H 239.646 -0.916501 -3.77123 0
M  V30 2306 H 237.747 1.52135 -3.40126 0
M  V30 2307 H 237.86 0.242309 -4.78487 0
M  V30 2308 H 236.224 0.225363 -2.53701 0
M  V30 2309 H 237.007 -1.32232 -3.16812 0
M  V30 2310 N 239.452 1.56882 -0.150215 0
M  V30 2311 C 240.382 2.19935 0.784284 0
M  V30 2312 C 241.363 1.14854 1.25469 0
M  V30 2313 O 242.548 1.43209 1.31168 0
M  V30 2314 C 239.678 2.82349 2.02229 0
M  V30 2315 C 238.632 3.93285 1.68853 0
M  V30 2316 C 237.958 4.42649 2.99944 0
M  V30 2317 C 239.258 5.13904 0.932714 0
M  V30 2318 H 240.952 2.9828 0.258781 0
M  V30 2319 H 238.498 1.43473 0.123029 0
M  V30 2320 H 240.451 3.25126 2.68088 0
M  V30 2321 H 239.175 2.0134 2.57157 0
M  V30 2322 H 237.834 3.5113 1.05371 0
M  V30 2323 H 237.482 3.58458 3.52869 0
M  V30 2324 H 237.182 5.17476 2.78374 0
M  V30 2325 H 238.706 4.88099 3.66868 0
M  V30 2326 H 240.12 5.53506 1.49345 0
M  V30 2327 H 238.517 5.94515 0.81684 0
M  V30 2328 H 239.587 4.84842 -0.0749568 0
M  V30 2329 N 240.93 -0.123565 1.57115 0
M  V30 2330 C 241.84 -1.17074 2.033 0
M  V30 2331 C 242.856 -1.4561 0.952559 0
M  V30 2332 O 244.032 -1.56817 1.26374 0
M  V30 2333 C 241.097 -2.47857 2.42421 0
M  V30 2334 C 240.158 -2.26758 3.64526 0
M  V30 2335 C 239.391 -3.51305 4.01771 0
M  V30 2336 O 239.614 -4.5843 3.39409 0
M  V30 2337 O 238.548 -3.42578 4.94898 0
M  V30 2338 H 242.374 -0.808555 2.92739 0
M  V30 2339 H 239.959 -0.334027 1.45618 0
M  V30 2340 H 241.841 -3.2492 2.68338 0
M  V30 2341 H 240.516 -2.83558 1.5613 0
M  V30 2342 H 239.423 -1.47569 3.43765 0
M  V30 2343 H 240.756 -1.95963 4.51508 0
M  V30 2344 N 242.408 -1.52605 -0.393616 0
M  V30 2345 C 243.656 -1.67093 -1.13685 0
M  V30 2346 C 243.977 -0.411011 -1.90619 0
M  V30 2347 O 243.247 0.574491 -1.87287 0
M  V30 2348 H 241.827 -0.615923 -0.422668 0
M  V30 2349 H 244.489 -1.89704 -0.447039 0
M  V30 2350 H 243.585 -2.51922 -1.84232 0
M  V30 2351 N 243.887 0.651787 -1.4349 0
M  V30 2352 C 245.298 1.233 -1.40193 0
M  V30 2353 C 245.649 1.9591 -0.106727 0
M  V30 2354 O 244.774 2.01316 0.793773 0
M  V30 2355 C 245.369 2.24257 -2.53957 0
M  V30 2356 C 243.928 2.77852 -2.5392 0
M  V30 2357 C 243.075 1.52517 -2.3159 0
M  V30 2358 H 246.026 0.443717 -1.52371 0
M  V30 2359 H 246.047 3.0646 -2.25528 0
M  V30 2360 H 245.559 1.71382 -3.4821 0
M  V30 2361 H 243.66 3.34786 -1.63551 0
M  V30 2362 H 243.773 3.25299 -3.51735 0
M  V30 2363 H 242.137 1.79915 -1.80285 0
M  V30 2364 H 242.92 1.01574 -3.27929 0
M  V30 2365 N 245.365 1.30045 0.890287 0
M  V30 2366 C 246.593 1.21472 1.67487 0
M  V30 2367 C 247.008 -0.223241 1.87476 0
M  V30 2368 O 246.365 -1.14828 1.41847 0
M  V30 2369 C 246.416 1.93394 3.05419 0
M  V30 2370 O 246.137 3.31576 2.86337 0
M  V30 2371 C 247.638 1.91414 3.99844 0
M  V30 2372 H 244.858 0.420604 0.522813 0
M  V30 2373 H 247.402 1.7158 1.11268 0
M  V30 2374 H 245.557 1.47099 3.58386 0
M  V30 2375 H 245.971 3.67929 3.73802 0
M  V30 2376 H 247.445 2.46285 4.94012 0
M  V30 2377 H 247.922 0.891833 4.3005 0
M  V30 2378 H 248.528 2.37496 3.52811 0
M  V30 2379 N 246.843 -1.10192 1.12674 0
M  V30 2380 C 248.09 -1.82205 0.883606 0
M  V30 2381 C 248.418 -1.8532 -0.590492 0
M  V30 2382 O 247.673 -1.31137 -1.45264 0
M  V30 2383 C 247.972 -3.28552 1.4067 0
M  V30 2384 C 247.638 -3.45582 2.89627 0
M  V30 2385 C 246.3 -3.49937 3.30299 0
M  V30 2386 C 248.652 -3.50768 3.85501 0
M  V30 2387 C 245.98 -3.57049 4.65546 0
M  V30 2388 C 248.332 -3.59414 5.20581 0
M  V30 2389 C 246.996 -3.62034 5.60792 0
M  V30 2390 H 246.266 -0.666735 0.323334 0
M  V30 2391 H 248.913 -1.29868 1.40736 0
M  V30 2392 H 247.218 -3.83473 0.80347 0
M  V30 2393 H 248.915 -3.82788 1.19475 0
M  V30 2394 H 245.505 -3.42871 2.57172 0
M  V30 2395 H 249.689 -3.46651 3.55171 0
M  V30 2396 H 244.945 -3.57361 4.96088 0
M  V30 2397 H 249.119 -3.62371 5.94693 0
M  V30 2398 H 246.746 -3.67298 6.6558 0
M  V30 2399 N 248.321 -0.919034 -1.28029 0
M  V30 2400 C 249.567 -0.555757 -1.95036 0
M  V30 2401 C 249.9 0.899198 -1.72128 0
M  V30 2402 O 249.175 1.64023 -1.04531 0
M  V30 2403 C 249.458 -0.872024 -3.49382 0
M  V30 2404 C 249.311 -2.3801 -3.81669 0
M  V30 2405 C 250.63 -0.37185 -4.38526 0
M  V30 2406 H 247.749 -0.203386 -0.708381 0
M  V30 2407 H 250.391 -1.14924 -1.51303 0
M  V30 2408 H 248.541 -0.366946 -3.86763 0
M  V30 2409 H 250.213 -2.9562 -3.54128 0
M  V30 2410 H 248.456 -2.83289 -3.28526 0
M  V30 2411 H 249.127 -2.55192 -4.8947 0
M  V30 2412 H 251.603 -0.804602 -4.08247 0
M  V30 2413 H 250.479 -0.622173 -5.45362 0
M  V30 2414 H 250.74 0.727934 -4.36066 0
M  V30 2415 N 249.799 1.42003 -0.683588 0
M  V30 2416 C 251.076 1.95112 -0.138075 0
M  V30 2417 C 251.456 1.62359 1.34918 0
M  V30 2418 O 250.804 0.924311 2.08971 0
M  V30 2419 C 251.014 3.46505 -0.416581 0
M  V30 2420 C 252.362 4.23254 -0.337834 0
M  V30 2421 O 253.386 3.54468 -0.35082 0
M  V30 2422 O 252.245 5.45743 -0.287596 0
M  V30 2423 H 249.339 0.826961 -0.00797996 0
M  V30 2424 H 251.885 1.51784 -0.758924 0
M  V30 2425 H 250.657 3.63582 -1.4465 0
M  V30 2426 H 250.28 3.969 0.235839 0
M  V30 2427 N 251.277 0.427512 1.51691 0
M  V30 2428 C 252.207 -0.3796 2.30394 0
M  V30 2429 C 253.188 -1.02982 1.35384 0
M  V30 2430 O 254.373 -1.03534 1.643 0
M  V30 2431 C 251.503 -1.48649 3.1388 0
M  V30 2432 C 250.457 -0.960294 4.17088 0
M  V30 2433 C 249.783 -2.16219 4.89033 0
M  V30 2434 C 251.083 -0.00153679 5.223 0
M  V30 2435 H 252.777 0.277164 2.98114 0
M  V30 2436 H 250.323 0.134739 1.43368 0
M  V30 2437 H 252.276 -2.05826 3.67714 0
M  V30 2438 H 251 -2.1714 2.43962 0
M  V30 2439 H 249.659 -0.410806 3.64291 0
M  V30 2440 H 249.307 -2.83307 4.15628 0
M  V30 2441 H 249.007 -1.81654 5.58816 0
M  V30 2442 H 250.531 -2.73968 5.45687 0
M  V30 2443 H 251.945 -0.482687 5.71264 0
M  V30 2444 H 250.342 0.256199 5.99553 0
M  V30 2445 H 251.412 0.938174 4.75738 0
M  V30 2446 N 252.755 -1.56801 0.158532 0
M  V30 2447 C 253.983 -2.00859 -0.496303 0
M  V30 2448 C 254.398 -1.03871 -1.57659 0
M  V30 2449 O 253.755 -0.0375165 -1.82461 0
M  V30 2450 C 253.806 -3.4479 -1.08638 0
M  V30 2451 O 253.527 -4.38072 -0.0492322 0
M  V30 2452 C 255.028 -4.04185 -1.8207 0
M  V30 2453 H 252.248 -0.65864 -0.128199 0
M  V30 2454 H 254.792 -2.02885 0.256506 0
M  V30 2455 H 252.947 -3.43579 -1.78975 0
M  V30 2456 H 253.361 -5.2227 -0.483102 0
M  V30 2457 H 254.835 -5.06857 -2.18633 0
M  V30 2458 H 255.312 -3.45549 -2.71095 0
M  V30 2459 H 255.918 -4.0906 -1.16405 0
M  V30 2460 N 254.233 0.115231 -1.57178 0
M  V30 2461 C 255.51 0.852873 -1.76027 0
M  V30 2462 C 255.89 1.97892 -0.73498 0
M  V30 2463 O 255.238 2.27232 0.24036 0
M  V30 2464 C 255.448 1.36608 -3.21153 0
M  V30 2465 C 256.796 1.81692 -3.83762 0
M  V30 2466 O 257.82 1.46278 -3.24779 0
M  V30 2467 O 256.679 2.47104 -4.87444 0
M  V30 2468 H 253.773 0.405296 -0.720877 0
M  V30 2469 H 256.319 0.0986785 -1.69413 0
M  V30 2470 H 255.091 0.558357 -3.87296 0
M  V30 2471 H 254.714 2.18287 -3.3232 0
M  V30 2472 N 255.711 1.52812 0.385517 0
M  V30 2473 C 256.957 1.68275 1.13188 0
M  V30 2474 C 257.29 0.423179 1.89533 0
M  V30 2475 O 256.565 -0.579113 1.85679 0
M  V30 2476 C 256.848 2.92001 2.1073 0
M  V30 2477 C 256.701 4.28067 1.38125 0
M  V30 2478 C 258.02 3.11283 3.11113 0
M  V30 2479 H 255.139 0.612352 0.410115 0
M  V30 2480 H 257.781 1.85415 0.414869 0
M  V30 2481 H 255.931 2.77519 2.71874 0
M  V30 2482 H 257.603 4.54324 0.799187 0
M  V30 2483 H 255.846 4.28388 0.683092 0
M  V30 2484 H 256.517 5.10733 2.09417 0
M  V30 2485 H 258.993 3.2482 2.6006 0
M  V30 2486 H 257.869 3.99325 3.76605 0
M  V30 2487 H 258.13 2.25656 3.80173 0
M  V30 2488 N 257.189 -0.644168 1.43834 0
M  V30 2489 C 258.419 -1.42939 1.49171 0
M  V30 2490 C 258.827 -1.88874 0.111048 0
M  V30 2491 O 258.17 -1.60656 -0.8908 0
M  V30 2492 C 258.232 -2.69151 2.38324 0
M  V30 2493 C 257.896 -2.45097 3.85715 0
M  V30 2494 C 258.893 -2.07747 4.76589 0
M  V30 2495 C 256.578 -2.59141 4.30292 0
M  V30 2496 C 258.572 -1.8475 6.10038 0
M  V30 2497 C 256.259 -2.35759 5.63792 0
M  V30 2498 C 257.257 -1.9862 6.53482 0
M  V30 2499 O 256.945 -1.75489 7.84512 0
M  V30 2500 H 256.677 -0.445271 0.508635 0
M  V30 2501 H 259.231 -0.79621 1.8934 0
M  V30 2502 H 257.461 -3.3506 1.93058 0
M  V30 2503 H 259.15 -3.31123 2.3476 0
M  V30 2504 H 259.916 -1.96465 4.43426 0
M  V30 2505 H 255.795 -2.87022 3.60749 0
M  V30 2506 H 259.339 -1.55686 6.80006 0
M  V30 2507 H 255.236 -2.46646 5.9652 0
M  V30 2508 H 256.004 -1.89841 7.9618 0
M  V30 2509 N 258.668 -1.30515 -0.883378 0
M  V30 2510 C 259.893 -1.22487 -1.67367 0
M  V30 2511 C 260.318 0.208767 -1.86938 0
M  V30 2512 O 259.676 1.15015 -1.40148 0
M  V30 2513 C 259.724 -1.96041 -3.02655 0
M  V30 2514 O 258.828 -1.28859 -3.91751 0
M  V30 2515 H 258.169 -0.423573 -0.511353 0
M  V30 2516 H 260.699 -1.72362 -1.10239 0
M  V30 2517 H 260.709 -2.05124 -3.52687 0
M  V30 2518 H 259.384 -3.00307 -2.8773 0
M  V30 2519 H 257.961 -1.28141 -3.50192 0
M  V30 2520 N 260.146 1.09593 -1.13257 0
M  V30 2521 C 261.557 1.63229 -0.906274 0
M  V30 2522 C 261.908 1.8811 0.557578 0
M  V30 2523 O 261.033 1.62953 1.42391 0
M  V30 2524 C 261.628 2.96535 -1.63867 0
M  V30 2525 C 260.187 3.47003 -1.45828 0
M  V30 2526 C 259.334 2.2145 -1.66898 0
M  V30 2527 H 262.285 0.92978 -1.28611 0
M  V30 2528 H 262.306 3.64411 -1.09476 0
M  V30 2529 H 261.818 2.78394 -2.70404 0
M  V30 2530 H 259.919 3.70272 -0.415848 0
M  V30 2531 H 260.032 4.24551 -2.2202 0
M  V30 2532 H 258.396 2.30022 -1.09371 0
M  V30 2533 H 259.179 2.0583 -2.74752 0
M  V30 2534 N 261.624 0.925811 1.2754 0
M  V30 2535 C 263.04 0.625767 1.46821 0
M  V30 2536 C 263.24 -0.825506 1.83814 0
M  V30 2537 O 262.296 -1.60356 1.95044 0
M  V30 2538 C 263.609 1.57402 2.56213 0
M  V30 2539 C 265.157 1.58204 2.70075 0
M  V30 2540 C 265.632 2.51721 3.82623 0
M  V30 2541 N 267.123 2.49917 3.89994 0
M  V30 2542 C 267.858 3.18968 4.76494 0
M  V30 2543 N 267.354 3.97391 5.67496 0
M  V30 2544 N 269.147 3.07996 4.70208 0
M  V30 2545 H 261.298 1.86409 1.01811 0
M  V30 2546 H 263.561 0.800213 0.508295 0
M  V30 2547 H 263.267 2.60925 2.35819 0
M  V30 2548 H 263.141 1.31428 3.53563 0
M  V30 2549 H 265.528 0.554124 2.89851 0
M  V30 2550 H 265.609 1.88226 1.73218 0
M  V30 2551 H 265.253 3.54622 3.63601 0
M  V30 2552 H 265.183 2.18996 4.78903 0
M  V30 2553 H 267.674 1.9296 3.24923 0
M  V30 2554 H 267.987 4.4707 6.30356 0
M  V30 2555 H 266.332 4.01495 5.67298 0
M  V30 2556 H 269.523 2.46223 3.9811 0
M  V30 2557 H 269.696 3.6208 5.37403 0
M  V30 2558 N 263.102 -1.41638 0.69111 0
M  V30 2559 C 264.032 -2.3347 0.037248 0
M  V30 2560 C 265.013 -1.51575 -0.771947 0
M  V30 2561 O 266.198 -1.80126 -0.72582 0
M  V30 2562 C 263.328 -3.35354 -0.903064 0
M  V30 2563 C 262.282 -4.27526 -0.201288 0
M  V30 2564 C 261.608 -5.19747 -1.25565 0
M  V30 2565 C 262.908 -5.13959 0.929689 0
M  V30 2566 H 264.602 -2.88397 0.804227 0
M  V30 2567 H 262.148 -1.38669 0.388189 0
M  V30 2568 H 264.101 -3.98519 -1.36969 0
M  V30 2569 H 262.825 -2.78767 -1.70166 0
M  V30 2570 H 261.484 -3.65779 0.245265 0
M  V30 2571 H 261.132 -4.59479 -2.04666 0
M  V30 2572 H 260.832 -5.8225 -0.791128 0
M  V30 2573 H 262.356 -5.85789 -1.72288 0
M  V30 2574 H 263.77 -5.70718 0.543546 0
M  V30 2575 H 262.167 -5.85379 1.32103 0
M  V30 2576 H 263.237 -4.51389 1.77133 0
M  V30 2577 N 264.58 -0.43555 -1.51462 0
M  V30 2578 C 265.996 -0.0877501 -1.59359 0
M  V30 2579 C 266.196 1.4027 -1.4466 0
M  V30 2580 O 265.252 2.17243 -1.28693 0
M  V30 2581 C 266.565 -0.606264 -2.94525 0
M  V30 2582 C 268.113 -0.566548 -3.0783 0
M  V30 2583 C 268.588 -1.06201 -4.45517 0
M  V30 2584 N 270.079 -1.01992 -4.51832 0
M  V30 2585 C 270.814 -1.37417 -5.5669 0
M  V30 2586 N 270.31 -1.80119 -6.68976 0
M  V30 2587 N 272.103 -1.29245 -5.47039 0
M  V30 2588 H 264.254 -1.40533 -1.59261 0
M  V30 2589 H 266.517 -0.578992 -0.750648 0
M  V30 2590 H 266.223 -1.64901 -3.10645 0
M  V30 2591 H 266.097 -0.0302097 -3.77188 0
M  V30 2592 H 268.484 0.467208 -2.91378 0
M  V30 2593 H 268.565 -1.17898 -2.2701 0
M  V30 2594 H 268.209 -2.09422 -4.62715 0
M  V30 2595 H 268.139 -0.426127 -5.24873 0
M  V30 2596 H 270.63 -0.706308 -3.71241 0
M  V30 2597 H 270.943 -2.05392 -7.45006 0
M  V30 2598 H 269.288 -1.84044 -6.70189 0
M  V30 2599 H 272.479 -0.957522 -4.58202 0
M  V30 2600 H 272.652 -1.57182 -6.28648 0
M  V30 2601 N 266.058 1.56714 -0.166846 0
M  V30 2602 C 266.968 2.21331 0.777791 0
M  V30 2603 C 267.984 1.20358 1.25658 0
M  V30 2604 O 269.16 1.53005 1.30964 0
M  V30 2605 C 266.225 2.83787 1.99163 0
M  V30 2606 C 265.286 3.99947 1.56016 0
M  V30 2607 C 264.519 4.59415 2.71613 0
M  V30 2608 O 264.742 4.17769 3.88362 0
M  V30 2609 O 263.676 5.49359 2.45945 0
M  V30 2610 H 267.502 3.02605 0.257636 0
M  V30 2611 H 265.087 1.49275 0.0611393 0
M  V30 2612 H 266.969 3.23405 2.70161 0
M  V30 2613 H 265.644 2.05513 2.50092 0
M  V30 2614 H 264.551 3.65007 0.819809 0
M  V30 2615 H 265.884 4.79801 1.09782 0
M  V30 2616 N 267.536 -0.106894 1.57237 0
M  V30 2617 C 268.466 -1.13148 2.04254 0
M  V30 2618 C 269.447 -1.42476 0.929224 0
M  V30 2619 O 270.632 -1.52709 1.19973 0
M  V30 2620 C 267.762 -2.4545 2.45706 0
M  V30 2621 C 266.716 -2.30558 3.60592 0
M  V30 2622 C 266.042 -3.67931 3.87983 0
M  V30 2623 C 267.342 -1.75597 4.91897 0
M  V30 2624 H 269.036 -0.740374 2.90101 0
M  V30 2625 H 266.582 -0.354696 1.39563 0
M  V30 2626 H 268.535 -3.17389 2.77205 0
M  V30 2627 H 267.259 -2.86475 1.56843 0
M  V30 2628 H 265.918 -1.61067 3.29322 0
M  V30 2629 H 265.566 -4.06462 2.96306 0
M  V30 2630 H 265.266 -3.58817 4.65322 0
M  V30 2631 H 266.79 -4.41356 4.21945 0
M  V30 2632 H 268.204 -2.37364 5.21854 0
M  V30 2633 H 266.601 -1.77272 5.73319 0
M  V30 2634 H 267.671 -0.714451 4.79608 0
M  V30 2635 N 269.014 -1.53014 -0.377408 0
M  V30 2636 C 269.977 -1.77957 -1.44444 0
M  V30 2637 C 270.977 -0.649763 -1.47087 0
M  V30 2638 O 272.167 -0.917897 -1.48055 0
M  V30 2639 C 269.299 -1.89089 -2.83651 0
M  V30 2640 H 270.492 -2.73243 -1.23606 0
M  V30 2641 H 268.045 -1.43912 -0.609844 0
M  V30 2642 H 268.78 -0.958293 -3.09818 0
M  V30 2643 H 268.565 -2.71254 -2.83132 0
M  V30 2644 H 270.055 -2.1002 -3.60945 0
M  V30 2645 N 270.492 0.636531 -1.44174 0
M  V30 2646 C 271.442 1.74233 -1.47061 0
M  V30 2647 C 272.426 1.57331 -0.337034 0
M  V30 2648 O 273.618 1.67159 -0.581973 0
M  V30 2649 C 270.747 3.12897 -1.41246 0
M  V30 2650 C 269.833 3.35288 -2.59698 0
M  V30 2651 N 270.224 3.2807 -3.84972 0
M  V30 2652 C 268.522 3.66065 -2.54778 0
M  V30 2653 C 269.223 3.51001 -4.63867 0
M  V30 2654 N 268.199 3.73616 -3.94857 0
M  V30 2655 H 272.001 1.67103 -2.41773 0
M  V30 2656 H 269.515 0.838806 -1.3906 0
M  V30 2657 H 271.512 3.92189 -1.41398 0
M  V30 2658 H 270.172 3.21197 -0.47569 0
M  V30 2659 H 271.183 3.07109 -4.17019 0
M  V30 2660 H 267.86 3.81379 -1.6987 0
M  V30 2661 H 269.25 3.51059 -5.72894 0
M  V30 2662 N 271.97 1.30982 0.876444 0
M  V30 2663 C 273.386 1.09498 1.16113 0
M  V30 2664 C 273.586 -0.13875 2.01022 0
M  V30 2665 O 272.642 -0.829935 2.38471 0
M  V30 2666 C 273.955 2.36308 1.85954 0
M  V30 2667 C 275.503 2.41856 1.98683 0
M  V30 2668 C 275.978 3.6853 2.71937 0
M  V30 2669 N 277.469 3.69387 2.79477 0
M  V30 2670 C 278.204 4.64096 3.36753 0
M  V30 2671 N 277.7 5.69155 3.95012 0
M  V30 2672 N 279.493 4.51626 3.3465 0
M  V30 2673 H 271.644 2.10118 0.310494 0
M  V30 2674 H 273.907 0.926634 0.200131 0
M  V30 2675 H 273.613 3.26388 1.31011 0
M  V30 2676 H 273.487 2.4561 2.86278 0
M  V30 2677 H 275.874 1.52249 2.52793 0
M  V30 2678 H 275.955 2.36523 0.9742 0
M  V30 2679 H 275.599 4.58499 2.18496 0
M  V30 2680 H 275.529 3.71127 3.73593 0
M  V30 2681 H 278.02 2.93438 2.38123 0
M  V30 2682 H 278.333 6.3751 4.36808 0
M  V30 2683 H 276.678 5.72937 3.93406 0
M  V30 2684 H 279.869 3.68728 2.8837 0
M  V30 2685 H 280.042 5.25614 3.7899 0
M  V30 2686 N 273.449 -1.08991 1.13837 0
M  V30 2687 C 274.695 -1.81526 0.90422 0
M  V30 2688 C 275.028 -1.85706 -0.568066 0
M  V30 2689 O 274.303 -1.32855 -1.42056 0
M  V30 2690 C 274.586 -3.27447 1.49835 0
M  V30 2691 C 274.439 -3.31512 3.04006 0
M  V30 2692 C 275.758 -4.24256 1.17025 0
M  V30 2693 H 272.877 -0.659029 0.329923 0
M  V30 2694 H 275.519 -1.27644 1.40737 0
M  V30 2695 H 273.669 -3.73462 1.07044 0
M  V30 2696 H 275.341 -2.93867 3.55584 0
M  V30 2697 H 273.584 -2.70963 3.38765 0
M  V30 2698 H 274.255 -4.34329 3.40679 0
M  V30 2699 H 276.731 -3.86549 1.54009 0
M  V30 2700 H 275.607 -5.24684 1.61237 0
M  V30 2701 H 275.868 -4.42019 0.0846274 0
M  V30 2702 N 274.927 -0.932562 -1.27047 0
M  V30 2703 C 276.204 -0.49377 -1.89265 0
M  V30 2704 C 276.584 1.02833 -1.8436 0
M  V30 2705 O 275.932 1.88461 -1.29209 0
M  V30 2706 C 276.142 -1.04536 -3.32976 0
M  V30 2707 C 277.49 -1.10879 -4.09867 0
M  V30 2708 O 278.514 -0.995327 -3.42011 0
M  V30 2709 O 277.373 -1.28417 -5.31198 0
M  V30 2710 H 274.467 -0.159596 -0.811454 0
M  V30 2711 H 277.013 -1.02457 -1.3528 0
M  V30 2712 H 275.785 -2.08913 -3.30864 0
M  V30 2713 H 275.408 -0.496494 -3.94488 0
M  V30 2714 N 276.405 1.4127 -0.698611 0
M  V30 2715 C 277.816 1.84187 -0.305289 0
M  V30 2716 C 278.167 1.58449 1.15708 0
M  V30 2717 O 277.292 1.05651 1.88856 0
M  V30 2718 C 277.887 3.3435 -0.547314 0
M  V30 2719 C 276.446 3.75826 -0.207878 0
M  V30 2720 C 275.593 2.64647 -0.828099 0
M  V30 2721 H 278.544 1.30778 -0.89904 0
M  V30 2722 H 278.565 3.8001 0.192998 0
M  V30 2723 H 278.077 3.53051 -1.61172 0
M  V30 2724 H 276.178 3.62725 0.852143 0
M  V30 2725 H 276.291 4.74462 -0.665021 0
M  V30 2726 H 274.655 2.53395 -0.257458 0
M  V30 2727 H 275.438 2.86165 -1.89643 0
M  V30 2728 N 277.883 0.443576 1.51229 0
M  V30 2729 C 279.111 -0.11929 2.06556 0
M  V30 2730 C 279.526 -1.35921 1.31038 0
M  V30 2731 O 278.883 -1.78675 0.371704 0
M  V30 2732 C 278.934 -0.435228 3.5887 0
M  V30 2733 O 278.655 0.755486 4.31537 0
M  V30 2734 C 280.156 -1.04808 4.30732 0
M  V30 2735 H 277.376 -0.0051584 0.67098 0
M  V30 2736 H 279.92 0.624453 1.94733 0
M  V30 2737 H 278.075 -1.12887 3.70588 0
M  V30 2738 H 278.489 0.483491 5.22267 0
M  V30 2739 H 279.963 -1.2191 5.3837 0
M  V30 2740 H 280.44 -2.03081 3.89429 0
M  V30 2741 H 281.046 -0.393637 4.23474 0
M  V30 2742 N 279.361 -1.56624 0.175154 0
M  V30 2743 C 280.291 -2.21155 -0.749195 0
M  V30 2744 C 281.272 -1.16836 -1.23626 0
M  V30 2745 O 282.457 -1.45277 -1.28873 0
M  V30 2746 C 279.587 -2.8553 -1.97711 0
M  V30 2747 C 278.541 -3.95921 -1.62575 0
M  V30 2748 C 277.867 -4.47365 -2.92864 0
M  V30 2749 C 279.167 -5.15323 -0.850838 0
M  V30 2750 H 280.861 -2.98653 -0.211295 0
M  V30 2751 H 278.407 -1.43651 -0.100188 0
M  V30 2752 H 280.36 -3.2935 -2.62881 0
M  V30 2753 H 279.084 -2.05406 -2.53921 0
M  V30 2754 H 277.743 -3.52762 -0.997719 0
M  V30 2755 H 277.391 -3.64027 -3.47122 0
M  V30 2756 H 277.091 -5.21839 -2.70106 0
M  V30 2757 H 278.615 -4.93873 -3.59056 0
M  V30 2758 H 280.029 -5.55812 -1.40521 0
M  V30 2759 H 278.426 -5.95739 -0.722154 0
M  V30 2760 H 279.496 -4.84661 0.152082 0
M  V30 2761 N 280.839 0.0985539 -1.57292 0
M  V30 2762 C 282.25 0.653457 -1.74891 0
M  V30 2763 C 282.601 1.7929 -0.796838 0
M  V30 2764 O 281.726 2.16385 0.0254886 0
M  V30 2765 C 282.321 1.19216 -3.17133 0
M  V30 2766 C 280.88 1.69316 -3.36168 0
M  V30 2767 C 280.027 0.601294 -2.70702 0
M  V30 2768 H 282.978 -0.127497 -1.58187 0
M  V30 2769 H 282.999 2.06154 -3.19814 0
M  V30 2770 H 282.511 0.362635 -3.86402 0
M  V30 2771 H 280.612 2.5468 -2.71972 0
M  V30 2772 H 280.725 1.78853 -4.44464 0
M  V30 2773 H 279.089 1.0399 -2.32504 0
M  V30 2774 H 279.872 -0.217592 -3.4261 0
M  V30 2775 N 282.317 1.53212 0.369288 0
M  V30 2776 C 283.227 1.82342 1.47609 0
M  V30 2777 C 284.243 0.711532 1.58787 0
M  V30 2778 O 285.419 1.0012 1.74751 0
M  V30 2779 C 282.484 2.00393 2.8292 0
M  V30 2780 C 281.545 3.24297 2.81301 0
M  V30 2781 C 280.778 3.41478 4.10157 0
M  V30 2782 O 281.001 2.63033 5.06132 0
M  V30 2783 O 279.935 4.34817 4.16194 0
M  V30 2784 H 283.761 2.76366 1.25918 0
M  V30 2785 H 281.346 1.38547 0.559034 0
M  V30 2786 H 283.228 2.13859 3.63101 0
M  V30 2787 H 281.903 1.09559 3.04596 0
M  V30 2788 H 280.81 3.16257 1.99831 0
M  V30 2789 H 282.143 4.15041 2.64578 0
M  V30 2790 N 283.795 -0.628877 1.44509 0
M  V30 2791 C 285.043 -1.38565 1.4712 0
M  V30 2792 C 285.364 -1.94712 0.105899 0
M  V30 2793 O 284.634 -1.75912 -0.862079 0
M  V30 2794 H 283.214 -0.514333 0.541729 0
M  V30 2795 H 285.876 -0.740018 1.80305 0
M  V30 2796 H 284.972 -2.21583 2.19789 0
M  V30 2797 N 285.273 -1.31445 -0.869486 0
M  V30 2798 C 286.519 -1.21337 -1.62496 0
M  V30 2799 C 286.852 0.227872 -1.92858 0
M  V30 2800 O 286.127 1.16094 -1.56053 0
M  V30 2801 C 286.41 -2.05814 -2.95487 0
M  V30 2802 C 286.263 -3.5824 -2.72 0
M  V30 2803 C 287.582 -1.9079 -3.96594 0
M  V30 2804 H 284.701 -0.442135 -0.589649 0
M  V30 2805 H 287.343 -1.6124 -1.00507 0
M  V30 2806 H 285.493 -1.71913 -3.48394 0
M  V30 2807 H 287.165 -4.0228 -2.25762 0
M  V30 2808 H 285.408 -3.81647 -2.06224 0
M  V30 2809 H 286.079 -4.12657 -3.66631 0
M  V30 2810 H 288.555 -2.20459 -3.52898 0
M  V30 2811 H 287.431 -2.52199 -4.87531 0
M  V30 2812 H 287.692 -0.871341 -4.33428 0
M  V30 2813 N 286.751 1.08385 -1.14413 0
M  V30 2814 C 287.981 1.8425 -0.934644 0
M  V30 2815 C 288.389 1.81907 0.520234 0
M  V30 2816 O 287.732 1.22126 1.37226 0
M  V30 2817 C 287.794 3.32853 -1.35828 0
M  V30 2818 C 287.458 3.5893 -2.82875 0
M  V30 2819 C 288.455 3.53756 -3.80989 0
M  V30 2820 C 286.14 3.86934 -3.20293 0
M  V30 2821 C 288.134 3.76216 -5.14529 0
M  V30 2822 C 285.821 4.09047 -4.54008 0
M  V30 2823 C 286.819 4.03682 -5.50936 0
M  V30 2824 O 286.507 4.25214 -6.82238 0
M  V30 2825 H 286.239 0.588502 -0.332628 0
M  V30 2826 H 288.793 1.37792 -1.52324 0
M  V30 2827 H 287.023 3.8007 -0.713019 0
M  V30 2828 H 288.712 3.90154 -1.11957 0
M  V30 2829 H 289.478 3.32135 -3.53428 0
M  V30 2830 H 285.357 3.9023 -2.45442 0
M  V30 2831 H 288.901 3.71943 -5.90173 0
M  V30 2832 H 284.798 4.30151 -4.8129 0
M  V30 2833 H 285.566 4.42619 -6.88499 0
M  V30 2834 N 288.23 0.939286 1.26551 0
M  V30 2835 C 289.193 0.451987 2.24699 0
M  V30 2836 C 290.193 -0.435869 1.5478 0
M  V30 2837 O 291.383 -0.235314 1.72603 0
M  V30 2838 C 288.515 -0.348801 3.39111 0
M  V30 2839 H 289.708 1.3193 2.69322 0
M  V30 2840 H 287.261 0.721072 1.38673 0
M  V30 2841 H 287.996 -1.23444 2.99887 0
M  V30 2842 H 287.781 0.287945 3.91041 0
M  V30 2843 H 289.271 -0.679726 4.12031 0
M  V30 2844 N 289.708 -1.40897 0.706093 0
M  V30 2845 C 290.64 -2.29199 0.00815776 0
M  V30 2846 C 291.653 -1.45336 -0.733582 0
M  V30 2847 O 292.842 -1.68727 -0.582537 0
M  V30 2848 C 289.942 -3.23417 -1.01265 0
M  V30 2849 C 289.115 -4.36089 -0.338387 0
M  V30 2850 C 288.174 -5.10811 -1.26326 0
M  V30 2851 O 287.2 -5.64215 -0.751651 0
M  V30 2852 N 288.402 -5.19269 -2.595 0
M  V30 2853 H 291.167 -2.89738 0.766297 0
M  V30 2854 H 288.728 -1.52164 0.55296 0
M  V30 2855 H 290.72 -3.70276 -1.63334 0
M  V30 2856 H 289.29 -2.64112 -1.67223 0
M  V30 2857 H 288.51 -3.91479 0.462352 0
M  V30 2858 H 289.798 -5.08634 0.130031 0
M  V30 2859 H 289.196 -4.77347 -3.03573 0
M  V30 2860 H 287.753 -5.69667 -3.16737 0
M  V30 2861 N 291.186 -0.45159 -1.50991 0
M  V30 2862 C 292.433 0.110074 -2.02201 0
M  V30 2863 C 292.761 1.4146 -1.33489 0
M  V30 2864 O 292.016 1.90617 -0.443125 0
M  V30 2865 C 292.315 0.361728 -3.55565 0
M  V30 2866 C 291.981 -0.858717 -4.42648 0
M  V30 2867 C 290.643 -1.19338 -4.66167 0
M  V30 2868 C 292.995 -1.67221 -4.93646 0
M  V30 2869 C 290.323 -2.34195 -5.37931 0
M  V30 2870 C 292.675 -2.8119 -5.6667 0
M  V30 2871 C 291.339 -3.15094 -5.88449 0
M  V30 2872 H 290.609 0.040279 -0.739904 0
M  V30 2873 H 293.256 -0.601696 -1.81802 0
M  V30 2874 H 291.561 1.15554 -3.74372 0
M  V30 2875 H 293.258 0.80996 -3.92735 0
M  V30 2876 H 289.848 -0.58796 -4.24548 0
M  V30 2877 H 294.032 -1.42686 -4.75347 0
M  V30 2878 H 289.288 -2.6076 -5.53005 0
M  V30 2879 H 293.462 -3.44585 -6.05173 0
M  V30 2880 H 291.089 -4.04204 -6.43835 0
M  V30 2881 N 292.664 1.56529 -0.183458 0
M  V30 2882 C 294.075 1.83739 0.331177 0
M  V30 2883 C 294.426 1.10373 1.62211 0
M  V30 2884 O 293.551 0.36071 2.13373 0
M  V30 2885 C 294.146 3.33306 0.607646 0
M  V30 2886 C 292.705 3.60969 1.06668 0
M  V30 2887 C 291.852 2.77086 0.109029 0
M  V30 2888 H 294.803 1.53379 -0.407484 0
M  V30 2889 H 294.824 3.51444 1.45832 0
M  V30 2890 H 294.336 3.86677 -0.332086 0
M  V30 2891 H 292.437 3.13021 2.0211 0
M  V30 2892 H 292.55 4.69231 0.967447 0
M  V30 2893 H 290.914 2.47319 0.608714 0
M  V30 2894 H 291.697 3.33241 -0.82494 0
M  V30 2895 N 294.142 -0.090211 1.57342 0
M  V30 2896 C 295.39 -0.791241 1.85967 0
M  V30 2897 C 295.711 -1.7903 0.772859 0
M  V30 2898 O 294.981 -1.94872 -0.200398 0
M  V30 2899 H 293.561 -0.295205 0.686195 0
M  V30 2900 H 296.223 -0.0706782 1.94772 0
M  V30 2901 H 295.319 -1.31882 2.82867 0
M  V30 2902 N 295.62 -1.53406 -0.361157 0
M  V30 2903 C 297.031 -1.61442 -0.937728 0
M  V30 2904 C 297.382 -0.48461 -1.90121 0
M  V30 2905 O 296.507 0.388312 -2.12888 0
M  V30 2906 C 297.102 -2.92624 -1.70753 0
M  V30 2907 C 295.661 -3.02981 -2.23337 0
M  V30 2908 C 294.808 -2.5677 -1.04712 0
M  V30 2909 H 297.759 -1.58083 -0.139816 0
M  V30 2910 H 297.78 -2.80675 -2.56908 0
M  V30 2911 H 297.292 -3.74834 -1.00604 0
M  V30 2912 H 295.393 -2.25368 -2.96715 0
M  V30 2913 H 295.506 -4.0814 -2.50916 0
M  V30 2914 H 293.87 -2.11752 -1.41539 0
M  V30 2915 H 294.653 -3.41402 -0.360539 0
M  V30 2916 N 297.098 0.621204 -1.44841 0
M  V30 2917 C 298.048 1.72663 -1.48901 0
M  V30 2918 C 299.032 1.56964 -0.353702 0
M  V30 2919 O 300.224 1.66532 -0.599669 0
M  V30 2920 C 297.353 3.11381 -1.44557 0
M  V30 2921 C 296.439 3.32514 -2.6324 0
M  V30 2922 N 296.83 3.23969 -3.8843 0
M  V30 2923 C 295.128 3.63343 -2.58647 0
M  V30 2924 C 295.829 3.46062 -4.67564 0
M  V30 2925 N 294.805 3.69407 -3.98797 0
M  V30 2926 H 298.607 1.64529 -2.43531 0
M  V30 2927 H 296.121 0.82401 -1.39942 0
M  V30 2928 H 298.118 3.90667 -1.4555 0
M  V30 2929 H 296.778 3.20674 -0.509731 0
M  V30 2930 H 297.789 3.02669 -4.20252 0
M  V30 2931 H 294.466 3.79556 -1.73906 0
M  V30 2932 H 295.856 3.44963 -5.76585 0
M  V30 2933 N 298.576 1.31904 0.862503 0
M  V30 2934 C 299.806 1.24817 1.64634 0
M  V30 2935 C 300.214 -0.187579 1.88268 0
M  V30 2936 O 299.557 -1.13253 1.44635 0
M  V30 2937 C 299.619 1.92996 3.03303 0
M  V30 2938 C 299.283 3.42336 3.02746 0
M  V30 2939 C 300.28 4.37956 2.80162 0
M  V30 2940 C 297.965 3.84147 3.2363 0
M  V30 2941 C 299.959 5.73361 2.78453 0
M  V30 2942 C 297.646 5.19663 3.21549 0
M  V30 2943 C 298.644 6.14081 2.98988 0
M  V30 2944 O 298.332 7.47118 2.96766 0
M  V30 2945 H 298.064 0.432222 0.519769 0
M  V30 2946 H 300.618 1.7445 1.08427 0
M  V30 2947 H 298.848 1.37922 3.61268 0
M  V30 2948 H 300.537 1.79723 3.63943 0
M  V30 2949 H 301.303 4.06981 2.63802 0
M  V30 2950 H 297.182 3.11083 3.40218 0
M  V30 2951 H 300.726 6.4703 2.60763 0
M  V30 2952 H 296.623 5.5027 3.37451 0
M  V30 2953 H 297.391 7.56382 3.12775 0
M  V30 2954 N 300.054 -1.07777 1.14986 0
M  V30 2955 C 300.964 -2.18404 0.856546 0
M  V30 2956 C 301.98 -1.73211 -0.165485 0
M  V30 2957 O 303.156 -2.01399 0.00755219 0
M  V30 2958 C 300.221 -3.44977 0.34526 0
M  V30 2959 C 299.282 -4.0476 1.43065 0
M  V30 2960 C 298.515 -5.25291 0.943663 0
M  V30 2961 O 298.738 -5.70004 -0.212426 0
M  V30 2962 O 297.672 -5.76638 1.72547 0
M  V30 2963 H 301.498 -2.45978 1.78125 0
M  V30 2964 H 299.083 -1.17033 0.928631 0
M  V30 2965 H 300.965 -4.21348 0.0663671 0
M  V30 2966 H 299.64 -3.18965 -0.551631 0
M  V30 2967 H 298.547 -3.29949 1.76309 0
M  V30 2968 H 299.88 -4.35035 2.30229 0
M  V30 2969 N 301.532 -0.945985 -1.26051 0
M  V30 2970 C 302.76 -0.613025 -1.9761 0
M  V30 2971 C 303.175 0.813035 -1.70397 0
M  V30 2972 O 302.532 1.54274 -0.974979 0
M  V30 2973 C 302.583 -0.85159 -3.51326 0
M  V30 2974 O 302.304 -2.22157 -3.77595 0
M  V30 2975 C 303.805 -0.529831 -4.40122 0
M  V30 2976 H 301.025 -0.230593 -0.630133 0
M  V30 2977 H 303.569 -1.268 -1.60443 0
M  V30 2978 H 301.724 -0.243151 -3.86636 0
M  V30 2979 H 302.138 -2.2852 -4.721 0
M  V30 2980 H 303.612 -0.747348 -5.46917 0
M  V30 2981 H 304.089 0.535341 -4.35925 0
M  V30 2982 H 304.695 -1.11721 -4.10364 0
M  V30 2983 N 303.011 1.40521 -0.713556 0
M  V30 2984 C 304.422 1.83853 -0.324807 0
M  V30 2985 C 304.773 1.59667 1.14021 0
M  V30 2986 O 303.898 1.07649 1.87725 0
M  V30 2987 C 304.493 3.33751 -0.582746 0
M  V30 2988 C 303.052 3.75584 -0.247727 0
M  V30 2989 C 302.199 2.63753 -0.856121 0
M  V30 2990 H 305.15 1.29817 -0.91286 0
M  V30 2991 H 305.171 3.80194 0.152682 0
M  V30 2992 H 304.683 3.51322 -1.64908 0
M  V30 2993 H 302.784 3.63608 0.813624 0
M  V30 2994 H 302.897 4.7373 -0.715307 0
M  V30 2995 H 301.261 2.53108 -0.28432 0
M  V30 2996 H 302.044 2.84137 -1.92668 0
M  V30 2997 N 304.489 0.459591 1.5075 0
M  V30 2998 C 305.452 -0.329093 2.26825 0
M  V30 2999 C 306.452 -0.930481 1.31144 0
M  V30 3000 O 307.642 -0.801453 1.54669 0
M  V30 3001 C 304.774 -1.46768 3.07688 0
M  V30 3002 H 305.967 0.337924 2.9799 0
M  V30 3003 H 303.52 0.213336 1.54837 0
M  V30 3004 H 304.255 -2.17009 2.40993 0
M  V30 3005 H 304.04 -1.04238 3.77991 0
M  V30 3006 H 305.53 -2.02433 3.65254 0
M  V30 3007 N 305.967 -1.56429 0.191757 0
M  V30 3008 C 306.877 -2.22541 -0.742481 0
M  V30 3009 C 307.893 -1.22342 -1.23727 0
M  V30 3010 O 309.069 -1.55069 -1.28513 0
M  V30 3011 C 306.134 -2.8692 -1.94623 0
M  V30 3012 C 305.195 -4.02378 -1.49633 0
M  V30 3013 C 304.428 -4.63678 -2.6427 0
M  V30 3014 O 304.651 -4.23895 -3.81666 0
M  V30 3015 O 303.585 -5.53202 -2.37174 0
M  V30 3016 H 307.411 -3.02977 -0.209462 0
M  V30 3017 H 304.996 -1.49353 -0.0373832 0
M  V30 3018 H 306.878 -3.27663 -2.64982 0
M  V30 3019 H 305.553 -2.09466 -2.46791 0
M  V30 3020 H 304.46 -3.66265 -0.761636 0
M  V30 3021 H 305.793 -4.81487 -1.02134 0
M  V30 3022 N 307.445 0.0818655 -1.57387 0
M  V30 3023 C 308.691 0.784074 -1.8703 0
M  V30 3024 C 309.024 1.77729 -0.782689 0
M  V30 3025 O 308.299 1.93384 0.208051 0
M  V30 3026 C 308.582 1.50105 -3.27323 0
M  V30 3027 C 308.435 0.524925 -4.46727 0
M  V30 3028 C 309.754 2.44843 -3.65705 0
M  V30 3029 H 306.873 0.283582 -0.680257 0
M  V30 3030 H 309.515 0.0474352 -1.89941 0
M  V30 3031 H 307.665 2.12897 -3.24972 0
M  V30 3032 H 309.337 -0.0970111 -4.61198 0
M  V30 3033 H 307.58 -0.160606 -4.33503 0
M  V30 3034 H 308.251 1.064 -5.41648 0
M  V30 3035 H 310.727 1.92135 -3.69085 0
M  V30 3036 H 309.603 2.92018 -4.64776 0
M  V30 3037 H 309.864 3.29197 -2.95096 0
M  V30 3038 N 308.923 1.53595 0.353017 0
M  V30 3039 C 310.339 1.43648 0.695516 0
M  V30 3040 C 310.539 0.585617 1.92802 0
M  V30 3041 O 309.595 0.0729223 2.52395 0
M  V30 3042 C 310.908 2.8701 0.896991 0
M  V30 3043 C 312.456 2.96723 0.996209 0
M  V30 3044 C 312.931 4.41173 1.23007 0
M  V30 3045 N 314.422 4.44657 1.29749 0
M  V30 3046 C 315.157 5.53547 1.49577 0
M  V30 3047 N 314.653 6.72461 1.66639 0
M  V30 3048 N 316.446 5.41145 1.52048 0
M  V30 3049 H 308.597 2.07415 -0.457481 0
M  V30 3050 H 310.86 0.9372 -0.142687 0
M  V30 3051 H 310.566 3.51644 0.0629938 0
M  V30 3052 H 310.44 3.31401 1.80148 0
M  V30 3053 H 312.827 2.32235 1.82074 0
M  V30 3054 H 312.908 2.55707 0.0688331 0
M  V30 3055 H 312.552 5.06238 0.410505 0
M  V30 3056 H 312.482 4.79772 2.17086 0
M  V30 3057 H 314.973 3.58963 1.18126 0
M  V30 3058 H 315.286 7.51214 1.81378 0
M  V30 3059 H 313.631 6.75423 1.63794 0
M  V30 3060 H 316.822 4.47205 1.38294 0
M  V30 3061 H 316.995 6.26068 1.67159 0
M  V30 3062 N 310.401 -0.613514 1.45168 0
M  V30 3063 C 311.334 -1.73809 1.47871 0
M  V30 3064 C 312.312 -1.59097 0.33568 0
M  V30 3065 O 313.496 -1.8074 0.535299 0
M  V30 3066 C 310.623 -3.11574 1.32813 0
M  V30 3067 C 309.669 -3.4489 2.50905 0
M  V30 3068 S 310.502 -3.40393 4.13392 0
M  V30 3069 C 311.658 -4.80749 4.00789 0
M  V30 3070 H 311.891 -1.71252 2.43023 0
M  V30 3071 H 309.424 -0.789658 1.32679 0
M  V30 3072 H 311.382 -3.91065 1.24812 0
M  V30 3073 H 310.043 -3.11652 0.391418 0
M  V30 3074 H 309.236 -4.45183 2.36279 0
M  V30 3075 H 308.838 -2.72901 2.55736 0
M  V30 3076 H 311.13 -5.7041 3.65567 0
M  V30 3077 H 312.073 -5.00431 5.00974 0
M  V30 3078 H 312.481 -4.56151 3.32545 0
M  V30 3079 N 311.879 -1.3236 -0.855495 0
M  V30 3080 C 312.842 -1.21164 -1.94556 0
M  V30 3081 C 313.842 -0.134908 -1.60233 0
M  V30 3082 O 315.032 -0.385249 -1.69887 0
M  V30 3083 C 312.164 -0.863192 -3.29791 0
M  V30 3084 H 313.357 -2.18038 -2.05911 0
M  V30 3085 H 310.91 -1.16179 -1.04557 0
M  V30 3086 H 311.645 0.103769 -3.24134 0
M  V30 3087 H 311.43 -1.64166 -3.56078 0
M  V30 3088 H 312.92 -0.809156 -4.09686 0
M  V30 3089 N 313.357 1.07166 -1.15556 0
M  V30 3090 C 314.605 1.79443 -0.929764 0
M  V30 3091 C 314.926 1.87246 0.544414 0
M  V30 3092 O 314.196 1.37473 1.39564 0
M  V30 3093 H 312.776 0.664625 -0.341003 0
M  V30 3094 H 315.438 1.29499 -1.45657 0
M  V30 3095 H 314.534 2.81832 -1.34079 0
M  V30 3096 N 314.835 0.952656 1.25548 0
M  V30 3097 C 316.084 0.602053 1.92505 0
M  V30 3098 C 316.397 -0.864663 1.75451 0
M  V30 3099 O 317.603 -1.32514 2.36965 0
M  V30 3100 C 316.059 1.02607 3.44963 0
M  V30 3101 C 315.667 2.51519 3.70732 0
M  V30 3102 C 317.411 0.747905 4.1786 0
M  V30 3103 C 315.318 2.87732 5.16686 0
M  V30 3104 H 314.248 0.22146 0.720744 0
M  V30 3105 H 316.899 1.15684 1.42441 0
M  V30 3106 H 315.281 0.399712 3.93978 0
M  V30 3107 H 316.455 3.19157 3.32378 0
M  V30 3108 H 314.77 2.76786 3.11092 0
M  V30 3109 H 317.367 0.994647 5.25367 0
M  V30 3110 H 317.71 -0.315629 4.15102 0
M  V30 3111 H 318.243 1.33452 3.74747 0
M  V30 3112 H 314.982 3.93095 5.24554 0
M  V30 3113 H 314.502 2.24765 5.56094 0
M  V30 3114 H 316.181 2.76817 5.84792 0
M  V30 3115 N 316.313 -1.40141 0.720998 0
M  V30 3116 C 317.243 -2.33339 0.0867621 0
M  V30 3117 C 318.224 -1.53178 -0.739622 0
M  V30 3118 O 319.409 -1.81625 -0.687449 0
M  V30 3119 C 316.539 -3.37194 -0.831728 0
M  V30 3120 C 315.493 -4.27857 -0.110558 0
M  V30 3121 C 314.819 -5.22294 -1.14513 0
M  V30 3122 C 316.119 -5.11872 1.0385 0
M  V30 3123 H 317.813 -2.86626 0.865219 0
M  V30 3124 H 315.359 -1.37814 0.417516 0
M  V30 3125 H 317.312 -4.01335 -1.28485 0
M  V30 3126 H 316.036 -2.82314 -1.64214 0
M  V30 3127 H 314.695 -3.65176 0.322797 0
M  V30 3128 H 314.343 -4.63717 -1.94874 0
M  V30 3129 H 314.043 -5.83797 -0.667446 0
M  V30 3130 H 315.567 -5.89312 -1.59824 0
M  V30 3131 H 316.981 -5.69436 0.664482 0
M  V30 3132 H 315.378 -5.82445 1.4449 0
M  V30 3133 H 316.448 -4.4753 1.86668 0
M  V30 3134 N 317.792 -0.46758 -1.50504 0
M  V30 3135 C 319.04 0.0884469 -2.01906 0
M  V30 3136 C 319.361 1.40532 -1.35188 0
M  V30 3137 O 318.631 1.89515 -0.496079 0
M  V30 3138 H 317.211 0.0356765 -0.746148 0
M  V30 3139 H 319.873 -0.6172 -1.84869 0
M  V30 3140 H 318.969 0.2425 -3.11156 0
M  V30 3141 N 319.27 1.56325 -0.20005 0
M  V30 3142 C 320.233 2.18084 0.705132 0
M  V30 3143 C 321.233 1.13666 1.1374 0
M  V30 3144 O 322.423 1.39023 1.04968 0
M  V30 3145 C 319.555 2.78689 1.96329 0
M  V30 3146 H 320.748 2.99435 0.167023 0
M  V30 3147 H 318.301 1.56221 0.0495725 0
M  V30 3148 H 319.036 2.0115 2.5438 0
M  V30 3149 H 318.821 3.55133 1.66202 0
M  V30 3150 H 320.311 3.26096 2.60866 0
M  V30 3151 N 320.748 -0.0735177 1.57428 0
M  V30 3152 C 322.025 -0.805903 1.78226 0
M  V30 3153 C 322.405 -1.95874 0.787189 0
M  V30 3154 O 321.753 -2.2779 -0.180029 0
M  V30 3155 C 321.963 -1.28045 3.24662 0
M  V30 3156 C 323.311 -1.71453 3.88444 0
M  V30 3157 O 324.335 -1.37616 3.28543 0
M  V30 3158 O 323.194 -2.34093 4.93825 0
M  V30 3159 H 320.288 -0.386041 0.73137 0
M  V30 3160 H 322.834 -0.0537269 1.69615 0
M  V30 3161 H 321.606 -0.455476 3.8864 0
M  V30 3162 H 321.229 -2.094 3.37991 0
M  V30 3163 N 322.226 -1.5378 -0.344866 0
M  V30 3164 C 323.156 -1.84662 -1.42906 0
M  V30 3165 C 324.137 -0.701648 -1.54955 0
M  V30 3166 O 325.322 -0.953438 -1.69184 0
M  V30 3167 C 322.452 -2.05503 -2.79974 0
M  V30 3168 C 321.406 -3.21318 -2.82734 0
M  V30 3169 C 320.732 -3.2749 -4.22675 0
M  V30 3170 C 322.032 -4.59456 -2.48389 0
M  V30 3171 H 323.726 -2.75461 -1.17311 0
M  V30 3172 H 321.272 -1.32542 -0.562896 0
M  V30 3173 H 323.225 -2.25691 -3.55867 0
M  V30 3174 H 321.949 -1.11434 -3.07002 0
M  V30 3175 H 320.608 -3.00984 -2.09294 0
M  V30 3176 H 320.256 -2.31019 -4.4681 0
M  V30 3177 H 319.956 -4.05316 -4.25433 0
M  V30 3178 H 321.48 -3.49887 -5.00412 0
M  V30 3179 H 322.894 -4.79667 -3.13995 0
M  V30 3180 H 321.291 -5.39675 -2.62432 0
M  V30 3181 H 322.361 -4.63155 -1.4358 0
M  V30 3182 N 323.704 0.605807 -1.45491 0
M  V30 3183 C 324.95 1.36679 -1.49823 0
M  V30 3184 C 325.283 1.93693 -0.140175 0
M  V30 3185 O 324.558 1.75158 0.845581 0
M  V30 3186 C 324.841 2.51337 -2.57879 0
M  V30 3187 C 324.694 1.99508 -4.03134 0
M  V30 3188 C 326.013 3.53463 -2.62205 0
M  V30 3189 H 323.132 0.495617 -0.545466 0
M  V30 3190 H 325.774 0.682732 -1.7731 0
M  V30 3191 H 323.924 3.09691 -2.34571 0
M  V30 3192 H 325.596 1.45789 -4.37656 0
M  V30 3193 H 323.839 1.30496 -4.13707 0
M  V30 3194 H 324.51 2.82169 -4.74431 0
M  V30 3195 H 326.986 3.04953 -2.83095 0
M  V30 3196 H 325.862 4.31178 -3.39672 0
M  V30 3197 H 326.123 4.09197 -1.67363 0
M  V30 3198 N 325.182 1.32811 0.848464 0
M  V30 3199 C 326.43 1.23479 1.59991 0
M  V30 3200 C 326.751 -0.201853 1.93952 0
M  V30 3201 O 326.021 -1.12818 1.60153 0
M  V30 3202 H 324.601 0.454034 0.593179 0
M  V30 3203 H 327.263 1.66412 1.01455 0
M  V30 3204 H 326.359 1.82178 2.53412 0
M  V30 3205 N 326.66 -1.06551 1.16123 0
M  V30 3206 C 327.593 -2.13382 0.80892 0
M  V30 3207 C 328.571 -1.61128 -0.21827 0
M  V30 3208 O 329.755 -1.88219 -0.102952 0
M  V30 3209 C 326.882 -3.38083 0.204303 0
M  V30 3210 C 325.928 -4.09133 1.20469 0
M  V30 3211 S 326.761 -4.5948 2.75024 0
M  V30 3212 C 327.917 -5.87446 2.16005 0
M  V30 3213 H 328.15 -2.42937 1.71373 0
M  V30 3214 H 325.683 -1.18947 0.984428 0
M  V30 3215 H 327.641 -4.10268 -0.138081 0
M  V30 3216 H 326.302 -3.0669 -0.678234 0
M  V30 3217 H 325.495 -4.98685 0.730019 0
M  V30 3218 H 325.097 -3.4295 1.49202 0
M  V30 3219 H 327.389 -6.60065 1.5271 0
M  V30 3220 H 328.332 -6.39639 3.03756 0
M  V30 3221 H 328.74 -5.41354 1.59989 0
M  V30 3222 N 328.138 -0.959301 -1.25041 0
M  V30 3223 C 329.363 -0.633507 -1.97488 0
M  V30 3224 C 329.788 0.788555 -1.70773 0
M  V30 3225 O 329.146 1.53394 -0.966431 0
M  V30 3226 C 329.194 -0.904057 -3.49083 0
M  V30 3227 O 328.298 0.0147939 -4.12397 0
M  V30 3228 H 327.639 -0.240368 -0.618966 0
M  V30 3229 H 330.169 -1.28717 -1.59038 0
M  V30 3230 H 330.179 -0.832203 -3.99423 0
M  V30 3231 H 328.854 -1.94048 -3.67856 0
M  V30 3232 H 327.431 -0.109664 -3.72739 0
M  V30 3233 N 329.616 1.39756 -0.72842 0
M  V30 3234 C 330.844 2.04948 -0.283528 0
M  V30 3235 C 331.259 1.54908 1.0793 0
M  V30 3236 O 330.616 0.711135 1.68075 0
M  V30 3237 C 330.667 3.60498 -0.268957 0
M  V30 3238 O 330.388 4.08695 -1.57798 0
M  V30 3239 C 331.889 4.4288 0.192912 0
M  V30 3240 H 329.109 0.659243 -0.125056 0
M  V30 3241 H 331.653 1.78927 -0.990226 0
M  V30 3242 H 329.808 3.85444 0.388801 0
M  V30 3243 H 330.222 5.02977 -1.48709 0
M  V30 3244 H 331.696 5.51791 0.151952 0
M  V30 3245 H 332.173 4.21418 1.23708 0
M  V30 3246 H 332.779 4.23069 -0.435039 0
M  V30 3247 N 331.094 0.475555 1.50254 0
M  V30 3248 C 332.322 -0.0754493 2.06762 0
M  V30 3249 C 332.737 -1.33111 1.33891 0
M  V30 3250 O 332.094 -1.77846 0.40952 0
M  V30 3251 C 332.145 -0.359008 3.59713 0
M  V30 3252 O 331.866 0.846851 4.29837 0
M  V30 3253 C 333.367 -0.956484 4.32858 0
M  V30 3254 H 330.587 0.00907525 0.670939 0
M  V30 3255 H 333.131 0.665618 1.93364 0
M  V30 3256 H 331.286 -1.05001 3.72899 0
M  V30 3257 H 331.7 0.594162 5.21124 0
M  V30 3258 H 333.174 -1.10463 5.40834 0
M  V30 3259 H 333.651 -1.94775 3.93649 0
M  V30 3260 H 334.257 -0.303723 4.24214 0
M  V30 3261 N 332.573 -1.56217 0.208337 0
M  V30 3262 C 333.503 -2.22694 -0.702116 0
M  V30 3263 C 334.484 -1.19432 -1.2112 0
M  V30 3264 O 335.669 -1.47978 -1.25762 0
M  V30 3265 C 332.799 -2.8966 -1.9161 0
M  V30 3266 C 331.753 -3.9928 -1.5414 0
M  V30 3267 C 331.079 -4.53476 -2.83308 0
M  V30 3268 C 332.379 -5.17012 -0.741339 0
M  V30 3269 H 334.073 -2.99034 -0.147898 0
M  V30 3270 H 331.619 -1.43831 -0.0696951 0
M  V30 3271 H 333.572 -3.34852 -2.55836 0
M  V30 3272 H 332.296 -2.10746 -2.49507 0
M  V30 3273 H 330.955 -3.54799 -0.922668 0
M  V30 3274 H 330.603 -3.71308 -3.39322 0
M  V30 3275 H 330.303 -5.27451 -2.58976 0
M  V30 3276 H 331.827 -5.01378 -3.485 0
M  V30 3277 H 333.241 -5.58667 -1.28699 0
M  V30 3278 H 331.638 -5.97137 -0.595627 0
M  V30 3279 H 332.708 -4.8423 0.254851 0
M  V30 3280 N 334.051 0.0651679 -1.57465 0
M  V30 3281 C 334.961 1.09448 -2.07505 0
M  V30 3282 C 335.977 1.41974 -1.00595 0
M  V30 3283 O 337.153 1.52018 -1.32107 0
M  V30 3284 C 334.218 2.38689 -2.51453 0
M  V30 3285 C 333.279 2.13073 -3.72691 0
M  V30 3286 C 332.512 3.36152 -4.14533 0
M  V30 3287 O 332.735 4.45517 -3.56189 0
M  V30 3288 O 331.669 3.23974 -5.07272 0
M  V30 3289 H 335.495 0.69935 -2.95538 0
M  V30 3290 H 333.08 0.279752 -1.46757 0
M  V30 3291 H 334.962 3.14736 -2.80212 0
M  V30 3292 H 333.637 2.77568 -1.66546 0
M  V30 3293 H 332.544 1.34709 -3.49005 0
M  V30 3294 H 333.877 1.79071 -4.5847 0
M  V30 3295 N 335.529 1.53961 0.336706 0
M  V30 3296 C 336.492 1.81724 1.39675 0
M  V30 3297 C 337.492 0.688532 1.45313 0
M  V30 3298 O 338.682 0.956829 1.45569 0
M  V30 3299 C 335.814 1.96543 2.78538 0
M  V30 3300 H 337.007 2.76424 1.16318 0
M  V30 3301 H 334.56 1.45478 0.571474 0
M  V30 3302 H 335.295 1.0401 3.07168 0
M  V30 3303 H 335.08 2.78665 2.75841 0
M  V30 3304 H 336.57 2.19516 3.5525 0
M  V30 3305 N 337.007 -0.598083 1.45811 0
M  V30 3306 C 338.256 -1.35295 1.49594 0
M  V30 3307 C 338.569 -1.95057 0.145679 0
M  V30 3308 O 339.775 -2.71431 0.0612099 0
M  V30 3309 C 338.231 -2.45124 2.63519 0
M  V30 3310 C 337.839 -1.91732 4.04899 0
M  V30 3311 C 339.583 -3.2205 2.76558 0
M  V30 3312 C 337.49 -2.991 5.1019 0
M  V30 3313 H 336.42 -0.508552 0.556679 0
M  V30 3314 H 339.071 -0.639977 1.71978 0
M  V30 3315 H 337.453 -3.19149 2.34435 0
M  V30 3316 H 338.627 -1.24352 4.43704 0
M  V30 3317 H 336.942 -1.27522 3.96393 0
M  V30 3318 H 339.539 -4.0215 3.52391 0
M  V30 3319 H 339.882 -3.73663 1.83526 0
M  V30 3320 H 340.415 -2.55127 3.05213 0
M  V30 3321 H 337.154 -2.52393 6.04961 0
M  V30 3322 H 336.674 -3.65017 4.75944 0
M  V30 3323 H 338.353 -3.63318 5.35359 0
M  V30 3324 N 338.485 -1.33259 -0.841409 0
M  V30 3325 C 339.448 -1.23221 -1.9326 0
M  V30 3326 C 340.448 -0.151895 -1.60081 0
M  V30 3327 O 341.638 -0.403246 -1.69468 0
M  V30 3328 C 338.77 -0.898123 -3.28856 0
M  V30 3329 H 339.963 -2.2021 -2.03587 0
M  V30 3330 H 337.516 -1.17281 -1.03319 0
M  V30 3331 H 338.251 0.0693841 -3.24226 0
M  V30 3332 H 338.036 -1.67934 -3.54317 0
M  V30 3333 H 339.526 -0.852563 -4.08805 0
M  V30 3334 N 339.963 1.05934 -1.16686 0
M  V30 3335 C 340.926 2.11669 -0.879144 0
M  V30 3336 C 341.926 1.60294 0.127445 0
M  V30 3337 O 343.116 1.7389 -0.103865 0
M  V30 3338 C 340.248 3.39438 -0.315425 0
M  V30 3339 H 341.441 2.38626 -1.81653 0
M  V30 3340 H 338.994 1.22058 -0.976299 0
M  V30 3341 H 339.729 3.18132 0.629468 0
M  V30 3342 H 339.514 3.78034 -1.04079 0
M  V30 3343 H 341.004 4.17391 -0.132189 0
M  V30 3344 N 341.441 0.965919 1.2453 0
M  V30 3345 C 342.857 0.67216 1.44756 0
M  V30 3346 C 343.057 -0.766609 1.86347 0
M  V30 3347 O 342.113 -1.5407 2.00047 0
M  V30 3348 C 343.426 1.65473 2.51076 0
M  V30 3349 C 344.974 1.66716 2.64905 0
M  V30 3350 C 345.449 2.63766 3.74421 0
M  V30 3351 N 346.94 2.62198 3.81846 0
M  V30 3352 C 347.675 3.33966 4.66106 0
M  V30 3353 N 347.171 4.15245 5.54566 0
M  V30 3354 N 348.964 3.22799 4.60171 0
M  V30 3355 H 341.115 1.89553 0.958293 0
M  V30 3356 H 343.378 0.815979 0.482579 0
M  V30 3357 H 343.084 2.68296 2.27399 0
M  V30 3358 H 342.958 1.4261 3.49202 0
M  V30 3359 H 345.345 0.646057 2.87941 0
M  V30 3360 H 345.426 1.93642 1.67142 0
M  V30 3361 H 345.07 3.6601 3.52135 0
M  V30 3362 H 345 2.34121 4.71694 0
M  V30 3363 H 347.491 2.032 3.18619 0
M  V30 3364 H 347.804 4.66898 6.15814 0
M  V30 3365 H 346.149 4.1934 5.54237 0
M  V30 3366 H 349.34 2.58764 3.90075 0
M  V30 3367 H 349.513 3.78994 5.25612 0
M  V30 3368 N 342.919 -1.39368 0.735821 0
M  V30 3369 C 343.869 -2.27885 0.0724287 0
M  V30 3370 C 344.853 -1.44301 -0.711756 0
M  V30 3371 O 346.045 -1.67206 -0.58063 0
M  V30 3372 C 343.174 -3.33029 -0.833454 0
M  V30 3373 C 342.26 -4.24078 -0.0433749 0
M  V30 3374 N 342.651 -4.96138 0.983903 0
M  V30 3375 C 340.949 -4.45164 -0.272905 0
M  V30 3376 C 341.65 -5.63069 1.4604 0
M  V30 3377 N 340.626 -5.37991 0.778857 0
M  V30 3378 H 344.428 -2.81052 0.859467 0
M  V30 3379 H 341.942 -1.5206 0.570227 0
M  V30 3380 H 343.939 -3.95311 -1.32419 0
M  V30 3381 H 342.599 -2.81421 -1.61964 0
M  V30 3382 H 343.61 -4.9958 1.36528 0
M  V30 3383 H 340.287 -4.04497 -1.03383 0
M  V30 3384 H 341.677 -6.30755 2.31511 0
M  V30 3385 N 344.397 -0.483516 -1.5 0
M  V30 3386 C 345.637 0.0657469 -2.04294 0
M  V30 3387 C 346.001 1.35869 -1.35659 0
M  V30 3388 O 347.202 1.99111 -1.80578 0
M  V30 3389 C 345.473 0.232758 -3.56641 0
M  V30 3390 S 347.032 0.738788 -4.32536 0
M  V30 3391 H 343.85 0.0100755 -0.710929 0
M  V30 3392 H 346.452 -0.653494 -1.84254 0
M  V30 3393 H 345.156 -0.713847 -4.04144 0
M  V30 3394 H 344.687 0.977751 -3.81056 0
M  V30 3395 H 346.702 2.01048 -4.53645 0
M  V30 3396 N 345.875 1.56104 -0.216619 0
M  V30 3397 C 347.123 1.97781 0.415593 0
M  V30 3398 C 347.444 1.10536 1.60645 0
M  V30 3399 O 346.714 0.181303 1.95059 0
M  V30 3400 H 345.294 0.730415 0.156534 0
M  V30 3401 H 347.956 1.92445 -0.308366 0
M  V30 3402 H 347.052 3.03072 0.74525 0
M  V30 3403 N 347.353 -0.0568162 1.57498 0
M  V30 3404 C 348.283 -1.06593 2.0775 0
M  V30 3405 C 349.264 -1.39448 0.974082 0
M  V30 3406 O 350.449 -1.48815 1.24771 0
M  V30 3407 C 347.579 -2.37509 2.5339 0
M  V30 3408 C 346.533 -2.1897 3.67745 0
M  V30 3409 C 345.859 -3.55402 3.99492 0
M  V30 3410 C 347.159 -1.59859 4.97235 0
M  V30 3411 H 348.853 -0.647706 2.9231 0
M  V30 3412 H 346.399 -0.310116 1.40621 0
M  V30 3413 H 348.352 -3.08409 2.87162 0
M  V30 3414 H 347.076 -2.8134 1.65878 0
M  V30 3415 H 345.735 -1.50508 3.3428 0
M  V30 3416 H 345.383 -3.9683 3.09088 0
M  V30 3417 H 345.083 -3.43831 4.76502 0
M  V30 3418 H 346.607 -4.27708 4.35773 0
M  V30 3419 H 348.021 -2.20642 5.29141 0
M  V30 3420 H 346.418 -1.58942 5.78669 0
M  V30 3421 H 347.488 -0.561506 4.81638 0
M  V30 3422 N 348.832 -1.54138 -0.328536 0
M  V30 3423 C 349.742 -1.86192 -1.42723 0
M  V30 3424 C 350.758 -0.753382 -1.56844 0
M  V30 3425 O 351.934 -1.04718 -1.72035 0
M  V30 3426 C 348.999 -2.07824 -2.77507 0
M  V30 3427 C 348.06 -3.31641 -2.72603 0
M  V30 3428 C 347.293 -3.52232 -4.00959 0
M  V30 3429 O 347.516 -2.7636 -4.9898 0
M  V30 3430 O 346.45 -4.45699 -4.0452 0
M  V30 3431 H 350.276 -2.79608 -1.18547 0
M  V30 3432 H 347.861 -1.3998 -0.522104 0
M  V30 3433 H 349.743 -2.23411 -3.57303 0
M  V30 3434 H 348.418 -1.17596 -3.01584 0
M  V30 3435 H 347.325 -3.21444 -1.91376 0
M  V30 3436 H 348.658 -4.2191 -2.53481 0
M  V30 3437 N 350.31 0.590341 -1.46126 0
M  V30 3438 C 351.556 1.35082 -1.51264 0
M  V30 3439 C 351.889 1.93534 -0.160711 0
M  V30 3440 O 351.164 1.76045 0.826956 0
M  V30 3441 C 351.447 2.48588 -2.6053 0
M  V30 3442 C 351.3 1.95221 -4.05227 0
M  V30 3443 C 352.619 3.50662 -2.6594 0
M  V30 3444 H 349.738 0.489803 -0.550692 0
M  V30 3445 H 352.38 0.663887 -1.78024 0
M  V30 3446 H 350.53 3.07186 -2.37843 0
M  V30 3447 H 352.202 1.41139 -4.39178 0
M  V30 3448 H 350.445 1.26101 -4.15068 0
M  V30 3449 H 351.116 2.77121 -4.77397 0
M  V30 3450 H 353.592 3.01934 -2.86313 0
M  V30 3451 H 352.468 4.27551 -3.44226 0
M  V30 3452 H 352.729 4.07399 -1.71694 0
M  V30 3453 N 351.788 1.33704 0.83433 0
M  V30 3454 C 352.718 1.26967 1.95963 0
M  V30 3455 C 353.699 0.149337 1.69443 0
M  V30 3456 O 354.884 0.339852 1.91203 0
M  V30 3457 C 352.014 1.01275 3.32206 0
M  V30 3458 C 350.968 2.09652 3.73136 0
M  V30 3459 C 350.294 1.69166 5.07235 0
M  V30 3460 C 351.594 3.51372 3.86439 0
M  V30 3461 H 353.288 2.2112 2.01857 0
M  V30 3462 H 350.834 1.06447 0.969793 0
M  V30 3463 H 352.787 0.952106 4.10503 0
M  V30 3464 H 351.511 0.0356203 3.26581 0
M  V30 3465 H 350.17 2.14766 2.97104 0
M  V30 3466 H 349.818 0.701437 4.98085 0
M  V30 3467 H 349.518 2.41694 5.35591 0
M  V30 3468 H 351.042 1.64576 5.88003 0
M  V30 3469 H 352.456 3.48734 4.55036 0
M  V30 3470 H 350.853 4.22425 4.26236 0
M  V30 3471 H 351.923 3.89546 2.88759 0
M  V30 3472 N 353.266 -1.05314 1.17247 0
M  V30 3473 C 354.514 -1.77941 0.958194 0
M  V30 3474 C 354.835 -1.88089 -0.514556 0
M  V30 3475 O 354.105 -1.39676 -1.37359 0
M  V30 3476 H 352.685 -0.659116 0.351533 0
M  V30 3477 H 355.347 -1.27166 1.47699 0
M  V30 3478 H 354.443 -2.79663 1.38546 0
M  V30 3479 N 354.744 -0.972509 -1.24016 0
M  V30 3480 C 355.99 -0.637978 -1.92504 0
M  V30 3481 C 356.323 0.825383 -1.75787 0
M  V30 3482 O 355.598 1.59442 -1.11393 0
M  V30 3483 C 355.881 -1.01942 -3.45369 0
M  V30 3484 C 355.734 -2.53983 -3.71231 0
M  V30 3485 C 357.053 -0.55751 -4.36555 0
M  V30 3486 H 354.172 -0.233248 -0.699117 0
M  V30 3487 H 356.814 -1.21238 -1.46292 0
M  V30 3488 H 354.964 -0.530656 -3.84859 0
M  V30 3489 H 356.636 -3.10374 -3.41271 0
M  V30 3490 H 354.879 -2.96968 -3.16216 0
M  V30 3491 H 355.55 -2.75723 -4.78206 0
M  V30 3492 H 358.026 -0.977029 -4.04467 0
M  V30 3493 H 356.902 -0.85292 -5.42233 0
M  V30 3494 H 357.163 0.542328 -4.38761 0
M  V30 3495 N 356.222 1.38976 -0.743202 0
M  V30 3496 C 357.447 2.05161 -0.303936 0
M  V30 3497 C 357.872 1.55677 1.05576 0
M  V30 3498 O 357.23 0.704131 1.67068 0
M  V30 3499 C 357.278 3.59138 -0.324373 0
M  V30 3500 O 356.382 4.06668 0.685204 0
M  V30 3501 H 355.723 0.649815 -0.136518 0
M  V30 3502 H 358.253 1.77852 -1.01142 0
M  V30 3503 H 358.263 4.07639 -0.171618 0
M  V30 3504 H 356.938 3.94515 -1.31647 0
M  V30 3505 H 355.515 3.69561 0.497913 0
M  V30 3506 N 357.7 0.491464 1.49741 0
M  V30 3507 C 358.63 -0.28154 2.31796 0
M  V30 3508 C 359.611 -0.971473 1.3963 0
M  V30 3509 O 360.796 -0.964719 1.68543 0
M  V30 3510 C 357.926 -1.35203 3.19902 0
M  V30 3511 C 356.88 -0.782529 4.20786 0
M  V30 3512 C 356.206 -1.95283 4.97764 0
M  V30 3513 C 357.506 0.21999 5.21837 0
M  V30 3514 H 359.2 0.403355 2.96671 0
M  V30 3515 H 356.746 0.195425 1.42668 0
M  V30 3516 H 358.699 -1.90045 3.76113 0
M  V30 3517 H 357.423 -2.06598 2.52953 0
M  V30 3518 H 356.082 -0.255928 3.65706 0
M  V30 3519 H 355.73 -2.65423 4.2727 0
M  V30 3520 H 355.43 -1.57789 5.66018 0
M  V30 3521 H 356.954 -2.50577 5.56816 0
M  V30 3522 H 358.368 -0.23996 5.72798 0
M  V30 3523 H 356.765 0.51026 5.97927 0
M  V30 3524 H 357.835 1.13911 4.7133 0
M  V30 3525 N 359.178 -1.55987 0.224894 0
M  V30 3526 C 360.424 -1.98684 -0.406502 0
M  V30 3527 C 360.757 -1.11248 -1.59177 0
M  V30 3528 O 360.032 -0.170909 -1.93748 0
M  V30 3529 C 360.315 -3.50218 -0.837808 0
M  V30 3530 C 360.168 -4.48426 0.351332 0
M  V30 3531 C 361.487 -4.06243 -1.69278 0
M  V30 3532 H 358.606 -0.722337 -0.146283 0
M  V30 3533 H 361.248 -1.87255 0.321799 0
M  V30 3534 H 359.398 -3.60089 -1.45837 0
M  V30 3535 H 361.07 -4.50562 0.989526 0
M  V30 3536 H 359.313 -4.22159 0.998207 0
M  V30 3537 H 359.984 -5.52 0.00655905 0
M  V30 3538 H 362.46 -3.99337 -1.16914 0
M  V30 3539 H 361.336 -5.12581 -1.96346 0
M  V30 3540 H 361.597 -3.53332 -2.65723 0
M  V30 3541 N 360.656 0.0484629 -1.57525 0
M  V30 3542 C 361.884 0.755421 -1.92616 0
M  V30 3543 C 362.299 1.69919 -0.822984 0
M  V30 3544 O 361.656 1.81378 0.202085 0
M  V30 3545 C 361.707 1.52915 -3.27566 0
M  V30 3546 O 361.428 0.62329 -4.33644 0
M  V30 3547 C 362.929 2.33502 -3.76818 0
M  V30 3548 H 360.149 0.213465 -0.63614 0
M  V30 3549 H 362.693 0.0117698 -2.04497 0
M  V30 3550 H 360.848 2.22486 -3.17142 0
M  V30 3551 H 361.262 1.16383 -5.11425 0
M  V30 3552 H 362.736 2.83214 -4.73808 0
M  V30 3553 H 363.213 3.14068 -3.07014 0
M  V30 3554 H 363.819 1.69043 -3.90262 0
M  V30 3555 N 362.134 1.5431 0.320358 0
M  V30 3556 C 363.082 1.84647 1.4145 0
M  V30 3557 C 364.076 0.718624 1.53402 0
M  V30 3558 O 365.282 0.902335 1.5575 0
M  V30 3559 H 361.657 0.585349 0.472091 0
M  V30 3560 H 363.628 2.7614 1.13089 0
M  V30 3561 C 362.377 2.09341 2.77617 0
M  V30 3562 H 361.7 2.9559 2.69196 0
M  V30 3563 H 363.14 2.3452 3.53237 0
M  V30 3564 C 361.599 0.885939 3.25043 0
M  V30 3565 O 362.129 0.0967891 4.01583 0
M  V30 3566 N 360.335 0.696682 2.82125 0
M  V30 3567 H 359.882 1.34006 2.2 0
M  V30 3568 H 359.84 -0.109712 3.14209 0
M  V30 3569 N 363.613 -0.582584 1.46437 0
M  V30 3570 C 364.543 -1.70187 1.59871 0
M  V30 3571 C 365.524 -1.64066 0.449042 0
M  V30 3572 O 366.709 -1.82081 0.6753 0
M  V30 3573 C 363.839 -3.08827 1.58881 0
M  V30 3574 C 362.793 -3.29779 2.72819 0
M  V30 3575 C 362.119 -4.68947 2.5689 0
M  V30 3576 C 363.419 -3.17601 4.1464 0
M  V30 3577 H 365.113 -1.592 2.53566 0
M  V30 3578 H 362.659 -0.764472 1.22032 0
M  V30 3579 H 364.612 -3.86951 1.66873 0
M  V30 3580 H 363.336 -3.20713 0.617306 0
M  V30 3581 H 361.995 -2.54054 2.64296 0
M  V30 3582 H 361.643 -4.77599 1.57823 0
M  V30 3583 H 361.343 -4.83919 3.33312 0
M  V30 3584 H 362.867 -5.4924 2.66773 0
M  V30 3585 H 364.281 -3.8557 4.24274 0
M  V30 3586 H 362.678 -3.44094 4.9165 0
M  V30 3587 H 363.748 -2.14681 4.34788 0
M  V30 3588 N 365.091 -1.34144 -0.827227 0
M  V30 3589 C 366.054 -1.25264 -1.91942 0
M  V30 3590 C 367.054 -0.168866 -1.59911 0
M  V30 3591 O 368.244 -0.421198 -1.69031 0
M  V30 3592 C 365.376 -0.932952 -3.27885 0
M  V30 3593 H 366.569 -2.22357 -2.0124 0
M  V30 3594 H 364.122 -1.1837 -1.0207 0
M  V30 3595 H 364.857 0.0349917 -3.24281 0
M  V30 3596 H 364.642 -1.71682 -3.52516 0
M  V30 3597 H 366.132 -0.895874 -4.07877 0
M  V30 3598 N 366.569 1.04691 -1.17803 0
M  V30 3599 C 367.532 2.10724 -0.901545 0
M  V30 3600 C 368.532 1.6042 0.110437 0
M  V30 3601 O 369.722 1.7377 -0.122303 0
M  V30 3602 C 366.854 3.39084 -0.351409 0
M  V30 3603 H 368.047 2.36686 -1.84174 0
M  V30 3604 H 365.6 1.21015 -0.98919 0
M  V30 3605 H 366.335 3.18782 0.59569 0
M  V30 3606 H 366.12 3.76909 -1.08083 0
M  V30 3607 H 367.61 4.17227 -0.176451 0
M  V30 3608 N 368.047 0.979072 1.23499 0
M  V30 3609 C 369.295 0.645941 1.91499 0
M  V30 3610 C 369.616 -0.822948 1.76784 0
M  V30 3611 O 368.886 -1.58854 1.14639 0
M  V30 3612 H 367.466 0.235919 0.708767 0
M  V30 3613 H 370.128 1.2426 1.50152 0
M  V30 3614 H 369.224 0.896411 2.9895 0
M  V30 3615 N 369.525 -1.3858 0.750561 0
M  V30 3616 C 370.774 -1.99424 0.302172 0
M  V30 3617 C 371.087 -1.60254 -1.12152 0
M  V30 3618 O 372.293 -2.14046 -1.67023 0
M  V30 3619 C 370.749 -3.56558 0.489307 0
M  V30 3620 C 370.357 -4.04682 1.92189 0
M  V30 3621 C 372.101 -4.24374 0.103478 0
M  V30 3622 C 370.008 -5.54446 2.05775 0
M  V30 3623 H 368.938 -0.746046 0.10923 0
M  V30 3624 H 371.589 -1.58383 0.92667 0
M  V30 3625 H 369.971 -3.95472 -0.204329 0
M  V30 3626 H 371.145 -3.77065 2.64875 0
M  V30 3627 H 369.46 -3.4958 2.26236 0
M  V30 3628 H 372.057 -5.34384 0.183787 0
M  V30 3629 H 372.4 -4.05468 -0.943481 0
M  V30 3630 H 372.933 -3.90688 0.748854 0
M  V30 3631 H 369.672 -5.78252 3.08714 0
M  V30 3632 H 369.192 -5.83816 1.37546 0
M  V30 3633 H 370.871 -6.20099 1.84626 0
M  V30 3634 N 371.003 -0.499398 -1.49478 0
M  V30 3635 C 372.228 0.044722 -2.07352 0
M  V30 3636 C 372.653 1.30207 -1.35749 0
M  V30 3637 O 372.011 1.76516 -0.413732 0
M  V30 3638 C 372.059 0.283013 -3.59488 0
M  V30 3639 O 371.163 1.35804 -3.89398 0
M  V30 3640 H 370.504 -0.0255147 -0.66351 0
M  V30 3641 H 373.034 -0.698561 -1.92305 0
M  V30 3642 H 373.044 0.515007 -4.04737 0
M  V30 3643 H 371.719 -0.635636 -4.11014 0
M  V30 3644 H 370.296 1.11113 -3.55961 0
M  V30 3645 N 372.481 1.55866 -0.233164 0
M  V30 3646 C 373.892 1.847 0.272554 0
M  V30 3647 C 374.243 1.15477 1.58617 0
M  V30 3648 O 373.368 0.42841 2.12117 0
M  V30 3649 C 373.963 3.35071 0.501299 0
M  V30 3650 C 372.522 3.6418 0.951304 0
M  V30 3651 C 371.669 2.77292 0.0208209 0
M  V30 3652 H 374.62 1.52005 -0.456074 0
M  V30 3653 H 374.641 3.55906 1.34577 0
M  V30 3654 H 374.153 3.85424 -0.454936 0
M  V30 3655 H 372.254 3.19293 1.92049 0
M  V30 3656 H 372.367 4.72071 0.817675 0
M  V30 3657 H 370.731 2.49131 0.529723 0
M  V30 3658 H 371.514 3.30448 -0.93054 0
M  V30 3659 N 373.959 -0.0401083 1.57549 0
M  V30 3660 C 375.187 -0.745196 1.93014 0
M  V30 3661 C 375.602 -1.6948 0.831984 0
M  V30 3662 O 374.959 -1.81482 -0.192463 0
M  V30 3663 C 375.01 -1.51176 3.28372 0
M  V30 3664 O 374.731 -0.600284 4.33968 0
M  V30 3665 C 376.232 -2.315 3.78051 0
M  V30 3666 H 373.452 -0.210088 0.637263 0
M  V30 3667 H 375.996 -0.000924689 2.045 0
M  V30 3668 H 374.151 -2.20801 3.18317 0
M  V30 3669 H 374.565 -1.13669 5.12035 0
M  V30 3670 H 376.039 -2.80697 4.75303 0
M  V30 3671 H 376.516 -3.12436 3.08675 0
M  V30 3672 H 377.122 -1.66971 3.91153 0
M  V30 3673 N 375.437 -1.54477 -0.31217 0
M  V30 3674 C 376.848 -1.64344 -0.885891 0
M  V30 3675 C 377.199 -0.54485 -1.88483 0
M  V30 3676 O 376.324 0.320387 -2.14015 0
M  V30 3677 C 376.919 -2.97908 -1.61357 0
M  V30 3678 C 375.478 -3.09933 -2.13585 0
M  V30 3679 C 374.625 -2.59971 -0.964897 0
M  V30 3680 H 377.576 -1.58448 -0.0894528 0
M  V30 3681 H 377.597 -2.88706 -2.47848 0
M  V30 3682 H 377.109 -3.77845 -0.886277 0
M  V30 3683 H 375.21 -2.34694 -2.89395 0
M  V30 3684 H 375.323 -4.15916 -2.37804 0
M  V30 3685 H 373.687 -2.16147 -1.34731 0
M  V30 3686 H 374.47 -3.42376 -0.251742 0
M  V30 3687 N 376.915 0.57481 -1.46744 0
M  V30 3688 C 377.845 1.69337 -1.60771 0
M  V30 3689 C 378.826 1.63825 -0.457736 0
M  V30 3690 O 380.011 1.8172 -0.684947 0
M  V30 3691 C 377.141 3.0798 -1.60517 0
M  V30 3692 C 376.095 3.28327 -2.74564 0
M  V30 3693 C 375.421 4.67578 -2.59373 0
M  V30 3694 C 376.721 3.15398 -4.16319 0
M  V30 3695 H 378.415 1.57853 -2.54407 0
M  V30 3696 H 375.961 0.75799 -1.22436 0
M  V30 3697 H 377.914 3.86061 -1.68923 0
M  V30 3698 H 376.638 3.20381 -0.634305 0
M  V30 3699 H 375.297 2.52649 -2.65639 0
M  V30 3700 H 374.945 4.76755 -1.60353 0
M  V30 3701 H 374.645 4.82144 -3.35873 0
M  V30 3702 H 376.169 5.47817 -2.69682 0
M  V30 3703 H 377.583 3.83315 -4.26313 0
M  V30 3704 H 375.98 3.41482 -4.93468 0
M  V30 3705 H 377.05 2.12372 -4.3592 0
M  V30 3706 N 378.394 1.34581 0.820102 0
M  V30 3707 C 379.619 1.30333 1.61332 0
M  V30 3708 C 380.044 -0.119339 1.87721 0
M  V30 3709 O 379.402 -1.08197 1.45475 0
M  V30 3710 C 379.45 2.10258 2.92957 0
M  V30 3711 O 378.554 1.47404 3.85157 0
M  V30 3712 H 377.895 0.447488 0.490561 0
M  V30 3713 H 380.425 1.77425 1.01889 0
M  V30 3714 H 380.435 2.21718 3.42498 0
M  V30 3715 H 379.11 3.13693 2.73074 0
M  V30 3716 H 377.687 1.44703 3.43679 0
M  V30 3717 N 379.872 -1.04064 1.18357 0
M  V30 3718 C 380.822 -2.10393 0.878561 0
M  V30 3719 C 381.806 -1.60183 -0.151713 0
M  V30 3720 O 382.998 -1.76923 0.0523303 0
M  V30 3721 C 380.127 -3.4089 0.406096 0
M  V30 3722 C 379.213 -3.97866 1.46844 0
M  V30 3723 N 379.604 -4.28657 2.68489 0
M  V30 3724 C 377.902 -4.2574 1.32896 0
M  V30 3725 C 378.603 -4.74253 3.36836 0
M  V30 3726 N 377.579 -4.75068 2.64219 0
M  V30 3727 H 381.381 -2.32076 1.80327 0
M  V30 3728 H 378.895 -1.21818 1.07397 0
M  V30 3729 H 380.892 -4.16557 0.169088 0
M  V30 3730 H 379.552 -3.20633 -0.512275 0
M  V30 3731 H 380.563 -4.18304 3.05356 0
M  V30 3732 H 377.24 -4.1481 0.473134 0
M  V30 3733 H 378.63 -5.07096 4.40798 0
M  V30 3734 N 381.35 -0.985608 -1.22978 0
M  V30 3735 C 382.313 -0.535071 -2.22867 0
M  V30 3736 C 383.313 0.378123 -1.56291 0
M  V30 3737 O 384.503 0.171092 -1.73358 0
M  V30 3738 C 381.635 0.222702 -3.40172 0
M  V30 3739 H 382.828 -1.41835 -2.6424 0
M  V30 3740 H 380.381 -0.772042 -1.35901 0
M  V30 3741 H 381.116 1.12229 -3.04262 0
M  V30 3742 H 380.901 -0.43288 -3.89703 0
M  V30 3743 H 382.391 0.526335 -4.1427 0
M  V30 3744 N 382.828 1.3818 -0.7579 0
M  V30 3745 C 383.738 2.3421 -0.135247 0
M  V30 3746 C 384.754 1.59487 0.695683 0
M  V30 3747 O 385.93 1.91657 0.618832 0
M  V30 3748 C 382.995 3.3862 0.744139 0
M  V30 3749 C 382.056 4.2918 -0.101658 0
M  V30 3750 C 381.289 5.28603 0.735851 0
M  V30 3751 O 381.512 5.35166 1.97366 0
M  V30 3752 O 380.446 6.01707 0.152372 0
M  V30 3753 H 384.272 2.8916 -0.928436 0
M  V30 3754 H 381.857 1.40101 -0.518855 0
M  V30 3755 H 383.739 4.02539 1.2466 0
M  V30 3756 H 382.414 2.86019 1.51575 0
M  V30 3757 H 381.321 3.68407 -0.650167 0
M  V30 3758 H 382.654 4.85048 -0.836024 0
M  V30 3759 N 384.306 0.507319 1.49211 0
M  V30 3760 C 385.552 -0.0350047 2.0277 0
M  V30 3761 C 385.885 -1.3606 1.38569 0
M  V30 3762 O 385.16 -1.87321 0.523542 0
M  V30 3763 C 385.443 -0.180916 3.59645 0
M  V30 3764 C 385.296 1.16825 4.34364 0
M  V30 3765 C 386.615 -0.918558 4.30407 0
M  V30 3766 H 383.734 -0.0112473 0.736914 0
M  V30 3767 H 386.376 0.659956 1.7817 0
M  V30 3768 H 384.526 -0.772826 3.80736 0
M  V30 3769 H 386.198 1.79952 4.24753 0
M  V30 3770 H 384.441 1.75594 3.96673 0
M  V30 3771 H 385.112 1.01939 5.42506 0
M  V30 3772 H 387.588 -0.41649 4.1401 0
M  V30 3773 H 386.464 -0.989505 5.39907 0
M  V30 3774 H 386.725 -1.96373 3.96093 0
M  V30 3775 N 385.784 -1.5574 0.241426 0
M  V30 3776 C 387.033 -1.97986 -0.385295 0
M  V30 3777 C 387.346 -1.13267 -1.59468 0
M  V30 3778 O 388.552 -1.45501 -2.2922 0
M  V30 3779 C 387.008 -3.52275 -0.736884 0
M  V30 3780 C 386.616 -4.45726 0.450796 0
M  V30 3781 C 388.36 -4.03189 -1.3281 0
M  V30 3782 C 386.267 -5.91352 0.0756662 0
M  V30 3783 H 385.197 -0.739386 -0.147731 0
M  V30 3784 H 387.848 -1.80308 0.340779 0
M  V30 3785 H 386.23 -3.65628 -1.52094 0
M  V30 3786 H 387.404 -4.44131 1.22819 0
M  V30 3787 H 385.719 -4.05264 0.956573 0
M  V30 3788 H 388.316 -5.09505 -1.62201 0
M  V30 3789 H 388.659 -3.50212 -2.25071 0
M  V30 3790 H 389.192 -3.93141 -0.607069 0
M  V30 3791 H 385.931 -6.48354 0.965272 0
M  V30 3792 H 385.451 -5.96095 -0.665635 0
M  V30 3793 H 387.13 -6.46084 -0.344075 0
M  V30 3794 N 387.262 0.0317525 -1.57568 0
M  V30 3795 C 388.172 1.05021 -2.0978 0
M  V30 3796 C 389.188 1.39809 -1.03583 0
M  V30 3797 O 390.364 1.49182 -1.35302 0
M  V30 3798 C 387.429 2.33301 -2.56459 0
M  V30 3799 C 386.49 2.0512 -3.77127 0
M  V30 3800 C 385.723 3.27283 -4.2157 0
M  V30 3801 O 385.946 4.37861 -3.65559 0
M  V30 3802 O 384.88 3.13141 -5.14029 0
M  V30 3803 H 388.706 0.636505 -2.96955 0
M  V30 3804 H 386.291 0.248559 -1.47318 0
M  V30 3805 H 388.173 3.08722 -2.86825 0
M  V30 3806 H 386.848 2.73973 -1.72397 0
M  V30 3807 H 385.755 1.27276 -3.51784 0
M  V30 3808 H 387.088 1.69305 -4.62165 0
M  V30 3809 N 388.74 1.54641 0.303973 0
M  V30 3810 C 389.703 1.84646 1.35789 0
M  V30 3811 C 390.703 0.7192 1.4382 0
M  V30 3812 O 391.893 0.987491 1.43507 0
M  V30 3813 C 389.025 2.02407 2.74307 0
M  V30 3814 H 390.218 2.78829 1.10429 0
M  V30 3815 H 387.771 1.46658 0.540487 0
M  V30 3816 H 388.506 1.10502 3.04893 0
M  V30 3817 H 388.291 2.84453 2.69868 0
M  V30 3818 H 389.781 2.27002 3.50514 0
M  V30 3819 N 390.218 -0.567019 1.47046 0
M  V30 3820 C 391.466 -1.322 1.52864 0
M  V30 3821 C 391.787 -1.94088 0.188388 0
M  V30 3822 O 391.057 -1.7941 -0.786693 0
M  V30 3823 H 389.637 -0.490894 0.563056 0
M  V30 3824 H 392.299 -0.662879 1.83281 0
M  V30 3825 H 391.395 -2.12062 2.2899 0
M  V30 3826 N 391.696 -1.35014 -0.812953 0
M  V30 3827 C 392.628 -1.23262 -1.93233 0
M  V30 3828 C 393.641 -0.157371 -1.62038 0
M  V30 3829 O 394.83 -0.410096 -1.73725 0
M  V30 3830 C 391.93 -0.87392 -3.27438 0
M  V30 3831 C 391.103 -2.04622 -3.86586 0
M  V30 3832 C 390.162 -1.66432 -4.99186 0
M  V30 3833 O 389.188 -2.38222 -5.16951 0
M  V30 3834 N 390.39 -0.584248 -5.77552 0
M  V30 3835 H 393.155 -2.19699 -2.03844 0
M  V30 3836 H 390.716 -1.281 -0.99005 0
M  V30 3837 H 392.708 -0.600039 -4.00227 0
M  V30 3838 H 391.278 0.00057392 -3.126 0
M  V30 3839 H 390.498 -2.48427 -3.06068 0
M  V30 3840 H 391.786 -2.82999 -4.22835 0
M  V30 3841 H 391.184 0.0123526 -5.65699 0
M  V30 3842 H 389.741 -0.37013 -6.50748 0
M  V30 3843 N 393.175 1.03435 -1.18907 0
M  V30 3844 C 394.138 2.09756 -0.923844 0
M  V30 3845 C 395.138 1.60528 0.093416 0
M  V30 3846 O 396.328 1.73631 -0.140727 0
M  V30 3847 C 393.46 3.38692 -0.387354 0
M  V30 3848 H 394.653 2.34719 -1.86674 0
M  V30 3849 H 392.206 1.19959 -1.00197 0
M  V30 3850 H 392.941 3.19396 0.561845 0
M  V30 3851 H 392.726 3.75742 -1.12074 0
M  V30 3852 H 394.216 4.17016 -0.220694 0
M  V30 3853 N 394.653 0.992116 1.22453 0
M  V30 3854 C 395.616 0.546883 2.2258 0
M  V30 3855 C 396.616 -0.369829 1.56489 0
M  V30 3856 O 397.806 -0.161896 1.73446 0
M  V30 3857 C 394.938 -0.204659 3.40285 0
M  V30 3858 H 396.131 1.43234 2.63484 0
M  V30 3859 H 393.684 0.779239 1.3549 0
M  V30 3860 H 394.419 -1.10614 3.04853 0
M  V30 3861 H 394.204 0.45354 3.89468 0
M  V30 3862 H 395.694 -0.504358 4.14543 0
M  V30 3863 N 396.131 -1.37776 0.765217 0
M  V30 3864 C 397.379 -1.99454 0.325943 0
M  V30 3865 C 397.7 -1.61049 -1.09947 0
M  V30 3866 O 396.97 -0.872821 -1.75381 0
M  V30 3867 H 395.55 -0.737697 0.117525 0
M  V30 3868 H 398.212 -1.68359 0.981895 0
M  V30 3869 H 397.308 -3.09547 0.398353 0
M  V30 3870 N 397.609 -0.515225 -1.4894 0
M  V30 3871 C 399.02 -0.0710067 -1.86565 0
M  V30 3872 C 399.371 1.34733 -1.42623 0
M  V30 3873 O 398.496 2.00653 -0.810379 0
M  V30 3874 C 399.091 -0.122083 -3.3858 0
M  V30 3875 C 397.65 0.266863 -3.75453 0
M  V30 3876 C 396.797 -0.488376 -2.72966 0
M  V30 3877 H 399.748 -0.727266 -1.41055 0
M  V30 3878 H 399.769 0.669818 -3.74558 0
M  V30 3879 H 399.281 -1.15448 -3.70531 0
M  V30 3880 H 397.382 1.30196 -3.49113 0
M  V30 3881 H 397.495 -0.0624811 -4.79059 0
M  V30 3882 H 395.859 0.0635622 -2.54621 0
M  V30 3883 H 396.642 -1.52113 -3.07761 0
M  V30 3884 N 399.087 1.5561 -0.249682 0
M  V30 3885 C 400.503 1.59254 0.105103 0
M  V30 3886 C 400.703 1.26685 1.56694 0
M  V30 3887 O 399.759 1.0155 2.31179 0
M  V30 3888 C 401.072 2.99687 -0.246592 0
M  V30 3889 C 402.62 3.12416 -0.191118 0
M  V30 3890 C 403.095 4.55074 -0.516885 0
M  V30 3891 N 404.586 4.60835 -0.467489 0
M  V30 3892 C 405.321 5.69201 -0.69268 0
M  V30 3893 N 404.817 6.85817 -0.981146 0
M  V30 3894 N 406.61 5.58635 -0.623198 0
M  V30 3895 H 398.761 1.75049 -1.20298 0
M  V30 3896 H 401.024 0.815003 -0.484225 0
M  V30 3897 H 400.73 3.28267 -1.26228 0
M  V30 3898 H 400.604 3.74798 0.424962 0
M  V30 3899 H 402.991 2.83615 0.815247 0
M  V30 3900 H 403.072 2.39573 -0.896563 0
M  V30 3901 H 402.716 4.84596 -1.52082 0
M  V30 3902 H 402.646 5.26181 0.210068 0
M  V30 3903 H 405.137 3.7705 -0.253373 0
M  V30 3904 H 405.45 7.64341 -1.14032 0
M  V30 3905 H 403.795 6.87494 -1.01865 0
M  V30 3906 H 406.986 4.66406 -0.397863 0
M  V30 3907 H 407.159 6.43017 -0.802093 0
M  V30 3908 N 400.565 -0.0233959 1.57583 0
M  V30 3909 C 401.814 -0.712133 1.8871 0
M  V30 3910 C 402.127 -1.76217 0.848944 0
M  V30 3911 O 403.333 -2.50389 1.04964 0
M  V30 3912 C 401.789 -1.3177 3.3491 0
M  V30 3913 C 401.397 -0.303715 4.46969 0
M  V30 3914 C 403.141 -1.98598 3.75179 0
M  V30 3915 C 401.048 -0.917945 5.84233 0
M  V30 3916 H 399.978 -0.269735 0.704101 0
M  V30 3917 H 402.629 0.0333114 1.8347 0
M  V30 3918 H 401.011 -2.11304 3.34913 0
M  V30 3919 H 402.185 0.465325 4.58445 0
M  V30 3920 H 400.5 0.2628 4.1557 0
M  V30 3921 H 403.097 -2.45416 4.75053 0
M  V30 3922 H 403.44 -2.80659 3.07468 0
M  V30 3923 H 403.973 -1.25831 3.77374 0
M  V30 3924 H 400.712 -0.136633 6.55358 0
M  V30 3925 H 400.232 -1.65669 5.76467 0
M  V30 3926 H 401.911 -1.4236 6.31144 0
M  V30 3927 N 402.043 -1.548 -0.295768 0
M  V30 3928 C 403.268 -1.78653 -1.05346 0
M  V30 3929 C 403.693 -0.546894 -1.79974 0
M  V30 3930 O 403.051 0.502763 -1.7419 0
M  V30 3931 C 403.099 -2.99679 -2.00561 0
M  V30 3932 O 402.203 -2.7317 -3.08953 0
M  V30 3933 H 401.544 -0.59116 -0.302367 0
M  V30 3934 H 404.074 -2.01895 -0.331598 0
M  V30 3935 H 404.084 -3.27793 -2.42932 0
M  V30 3936 H 402.759 -3.89562 -1.4565 0
M  V30 3937 H 401.336 -2.56089 -2.71059 0
M  V30 3938 N 403.521 0.559213 -1.47345 0
M  V30 3939 C 404.484 1.64854 -1.59235 0
M  V30 3940 C 405.484 1.53851 -0.467607 0
M  V30 3941 O 406.674 1.58045 -0.732617 0
M  V30 3942 C 403.806 3.04388 -1.53496 0
M  V30 3943 H 404.999 1.55662 -2.56339 0
M  V30 3944 H 402.552 0.778973 -1.35505 0
M  V30 3945 H 403.287 3.19115 -0.577604 0
M  V30 3946 H 403.072 3.13783 -2.35123 0
M  V30 3947 H 404.562 3.83642 -1.6495 0
M  V30 3948 N 404.999 1.35443 0.805782 0
M  V30 3949 C 405.929 1.31095 1.93226 0
M  V30 3950 C 406.91 0.185244 1.69088 0
M  V30 3951 O 408.095 0.380332 1.90439 0
M  V30 3952 C 405.225 1.08299 3.29983 0
M  V30 3953 C 404.179 2.17519 3.68605 0
M  V30 3954 C 403.505 1.79887 5.03532 0
M  V30 3955 C 404.805 3.5949 3.78898 0
M  V30 3956 H 406.499 2.25352 1.97122 0
M  V30 3957 H 404.045 1.0848 0.946996 0
M  V30 3958 H 405.998 1.03897 4.08391 0
M  V30 3959 H 404.722 0.104885 3.26432 0
M  V30 3960 H 403.381 2.2102 2.92482 0
M  V30 3961 H 403.029 0.80693 4.96485 0
M  V30 3962 H 402.729 2.53001 5.30344 0
M  V30 3963 H 404.253 1.77011 5.84379 0
M  V30 3964 H 405.667 3.58307 4.47536 0
M  V30 3965 H 404.064 4.31371 4.1718 0
M  V30 3966 H 405.134 3.95584 2.80431 0
M  V30 3967 N 406.477 -1.02803 1.19454 0
M  V30 3968 C 407.407 -2.12999 0.956758 0
M  V30 3969 C 408.388 -1.69743 -0.110188 0
M  V30 3970 O 409.573 -1.94148 0.0450038 0
M  V30 3971 C 406.703 -3.43746 0.495553 0
M  V30 3972 C 405.657 -4.00688 1.50443 0
M  V30 3973 C 404.983 -5.27067 0.900275 0
M  V30 3974 C 406.283 -4.35397 2.8849 0
M  V30 3975 H 407.977 -2.33148 1.87836 0
M  V30 3976 H 405.523 -1.12045 0.904539 0
M  V30 3977 H 407.476 -4.2021 0.316493 0
M  V30 3978 H 406.2 -3.23321 -0.461646 0
M  V30 3979 H 404.859 -3.2632 1.67065 0
M  V30 3980 H 404.507 -5.02959 -0.064503 0
M  V30 3981 H 404.207 -5.66127 1.57397 0
M  V30 3982 H 405.731 -6.06196 0.73203 0
M  V30 3983 H 407.145 -5.02795 2.75446 0
M  V30 3984 H 405.542 -4.85541 3.52661 0
M  V30 3985 H 406.612 -3.44662 3.41081 0
M  V30 3986 N 407.956 -0.998596 -1.21925 0
M  V30 3987 C 408.919 -0.558679 -2.22287 0
M  V30 3988 C 409.919 0.361525 -1.56683 0
M  V30 3989 O 411.109 0.152695 -1.73529 0
M  V30 3990 C 408.241 0.18661 -3.40389 0
M  V30 3991 H 409.434 -1.4463 -2.62721 0
M  V30 3992 H 406.987 -0.786413 -1.35075 0
M  V30 3993 H 407.722 1.08996 -3.05435 0
M  V30 3994 H 407.507 -0.474188 -3.89222 0
M  V30 3995 H 408.997 0.482367 -4.14805 0
M  V30 3996 N 409.434 1.37368 -0.772513 0
M  V30 3997 C 410.711 1.93839 -0.26188 0
M  V30 3998 C 411.091 1.7061 1.24319 0
M  V30 3999 O 410.439 1.05534 2.02669 0
M  V30 4000 C 410.649 3.43154 -0.636102 0
M  V30 4001 C 411.997 4.20249 -0.606324 0
M  V30 4002 O 413.021 3.5152 -0.575538 0
M  V30 4003 O 411.88 5.42809 -0.634086 0
M  V30 4004 H 408.974 0.82478 -0.0605555 0
M  V30 4005 H 411.52 1.4665 -0.853917 0
M  V30 4006 H 410.292 3.53647 -1.6748 0
M  V30 4007 H 409.915 3.97596 -0.0170516 0
M  V30 4008 N 410.912 0.523116 1.48665 0
M  V30 4009 C 412.161 -0.01544 2.01694 0
M  V30 4010 C 412.474 -1.35975 1.40606 0
M  V30 4011 O 413.68 -1.98627 1.85093 0
M  V30 4012 C 412.136 -0.0779303 3.59816 0
M  V30 4013 C 411.744 1.26107 4.29885 0
M  V30 4014 C 413.488 -0.565678 4.20714 0
M  V30 4015 C 411.395 1.15954 5.79921 0
M  V30 4016 H 410.325 -0.00954163 0.75394 0
M  V30 4017 H 412.976 0.665865 1.70993 0
M  V30 4018 H 411.358 -0.824165 3.87329 0
M  V30 4019 H 412.532 2.02233 4.14051 0
M  V30 4020 H 410.847 1.68401 3.80828 0
M  V30 4021 H 413.444 -0.6595 5.30617 0
M  V30 4022 H 413.787 -1.56984 3.85567 0
M  V30 4023 H 414.32 0.12467 3.97605 0
M  V30 4024 H 411.059 2.13864 6.19631 0
M  V30 4025 H 410.579 0.439529 5.98187 0
M  V30 4026 H 412.258 0.847361 6.41427 0
M  V30 4027 N 412.39 -1.55475 0.257931 0
M  V30 4028 C 413.353 -2.20551 -0.623706 0
M  V30 4029 C 414.353 -1.17809 -1.09443 0
M  V30 4030 O 415.543 -1.42823 -0.997362 0
M  V30 4031 C 412.675 -2.85784 -1.8585 0
M  V30 4032 H 413.868 -2.99848 -0.0557743 0
M  V30 4033 H 411.421 -1.56298 0.0084422 0
M  V30 4034 H 412.156 -2.10453 -2.46739 0
M  V30 4035 H 411.941 -3.61057 -1.52907 0
M  V30 4036 H 413.431 -3.35553 -2.48584 0
M  V30 4037 N 413.868 0.0150385 -1.57593 0
M  V30 4038 C 414.815 1.01126 -2.07466 0
M  V30 4039 C 415.785 1.35064 -0.966794 0
M  V30 4040 O 416.97 1.4516 -1.23827 0
M  V30 4041 C 414.11 2.30276 -2.57035 0
M  V30 4042 C 413.223 2.02373 -3.81666 0
M  V30 4043 C 412.358 3.25496 -4.19793 0
M  V30 4044 C 411.397 2.93211 -5.37303 0
M  V30 4045 N 410.534 4.08826 -5.70794 0
M  V30 4046 H 415.374 0.57901 -2.92321 0
M  V30 4047 H 412.911 0.27426 -1.44521 0
M  V30 4048 H 414.869 3.05757 -2.83846 0
M  V30 4049 H 413.499 2.71197 -1.75077 0
M  V30 4050 H 412.551 1.17327 -3.61854 0
M  V30 4051 H 413.863 1.74567 -4.67256 0
M  V30 4052 H 413.017 4.09333 -4.47807 0
M  V30 4053 H 411.756 3.56428 -3.32882 0
M  V30 4054 H 410.761 2.07777 -5.09027 0
M  V30 4055 H 411.986 2.63542 -6.25877 0
M  V30 4056 H 409.932 4.39682 -4.86842 0
M  V30 4057 H 409.849 3.84491 -6.50924 0
M  V30 4058 H 411.117 4.93496 -6.03392 0
M  V30 4059 N 415.346 1.54954 0.287554 0
M  V30 4060 C 416.762 1.46469 0.633964 0
M  V30 4061 C 416.962 0.666865 1.90145 0
M  V30 4062 O 416.018 0.179906 2.51858 0
M  V30 4063 C 417.331 2.90556 0.774454 0
M  V30 4064 C 418.879 3.00681 0.869462 0
M  V30 4065 C 419.354 4.45993 1.04184 0
M  V30 4066 N 420.845 4.4976 1.10772 0
M  V30 4067 C 421.58 5.59393 1.25964 0
M  V30 4068 N 421.076 6.78923 1.37968 0
M  V30 4069 N 422.869 5.47107 1.28959 0
M  V30 4070 H 415.02 2.05288 -0.545041 0
M  V30 4071 H 417.283 0.930305 -0.182308 0
M  V30 4072 H 416.989 3.51594 -0.086207 0
M  V30 4073 H 416.863 3.38743 1.6593 0
M  V30 4074 H 419.25 2.39749 1.7206 0
M  V30 4075 H 419.331 2.55769 -0.0396831 0
M  V30 4076 H 418.975 5.07524 0.195422 0
M  V30 4077 H 418.905 4.88548 1.96542 0
M  V30 4078 H 421.396 3.63651 1.02794 0
M  V30 4079 H 421.709 7.58231 1.49353 0
M  V30 4080 H 420.054 6.81763 1.34999 0
M  V30 4081 H 423.245 4.52668 1.19202 0
M  V30 4082 H 423.418 6.32595 1.40455 0
M  V30 4083 O 416.863 -0.433401 1.55576 0
M  V30 4084 H 417.554 -1.08681 1.60337 0
M  V30 END ATOM
M  V30 BEGIN BOND
M  V30 END BOND
M  V30 END CTAB
M  END
$$$$
