drugbank_target|P82599 Cytochrome c-553 (DB03317)
 OpenBabel12092120263D

  0  0  0     0  0            999 V3000
M  V30 BEGIN CTAB
M  V30 COUNTS 1221 1226 0 0 0
M  V30 BEGIN ATOM
M  V30 1 H -0.908 1.98254 -0.117106 0
M  V30 2 N 0 1.576 0 0
M  V30 3 C 1.248 1.90191 0.683495 0
M  V30 4 C 1.569 0.874069 1.74313 0
M  V30 5 O 0.839 -0.0885238 1.957 0
M  V30 6 H -0.581 0.701967 0.255443 0
M  V30 7 H 2.081 1.94857 -0.040926 0
M  V30 8 H 1.177 2.89952 1.15474 0
M  V30 9 N 1.4781 -0.272755 1.55222 0
M  V30 10 C 2.7261 -1.00234 1.75492 0
M  V30 11 C 3.0471 -1.8681 0.5592 0
M  V30 12 O 2.3171 -1.91215 -0.425882 0
M  V30 13 H 0.8971 -0.373076 0.647166 0
M  V30 14 H 3.5591 -0.296926 1.92625 0
M  V30 15 H 2.6551 -1.63913 2.65592 0
M  V30 16 N 2.9562 -1.48159 -0.537278 0
M  V30 17 C 4.2042 -1.55497 -1.29094 0
M  V30 18 C 4.5252 -0.227454 -1.93669 0
M  V30 19 O 3.7952 0.750386 -1.80959 0
M  V30 20 H 2.3752 -0.572832 -0.47945 0
M  V30 21 H 5.0372 -1.84579 -0.625818 0
M  V30 22 H 4.1332 -2.33216 -2.07405 0
M  V30 23 N 4.4343 0.785586 -1.36625 0
M  V30 24 C 5.3823 1.91978 -1.31329 0
M  V30 25 C 6.3763 1.68162 -0.204416 0
M  V30 26 O 7.5823 1.76122 -0.371645 0
M  V30 27 H 3.9573 0.631087 -0.408942 0
M  V30 28 H 5.9283 1.93562 -2.27104 0
M  V30 29 C 4.6773 3.29055 -1.12329 0
M  V30 30 H 4.0003 3.4795 -1.96903 0
M  V30 31 H 5.4403 4.08756 -1.12671 0
M  V30 32 C 3.8993 3.36461 0.171861 0
M  V30 33 O 4.4293 3.84576 1.16035 0
M  V30 34 N 2.6353 2.89782 0.217846 0
M  V30 35 H 2.1823 2.50819 -0.587183 0
M  V30 36 H 2.1403 2.95119 1.08408 0
M  V30 37 N 5.9124 1.20967 1.01018 0
M  V30 38 C 7.1894 0.93264 1.71934 0
M  V30 39 C 7.5694 -0.55692 2.03621 0
M  V30 40 O 6.9174 -1.52035 1.7058 0
M  V30 41 C 7.1274 1.81233 2.98254 0
M  V30 42 C 8.4754 2.05804 3.71389 0
M  V30 43 O 9.4994 1.78539 3.08225 0
M  V30 44 O 8.3584 2.51888 4.84989 0
M  V30 45 H 5.4524 0.349272 0.749625 0
M  V30 46 H 7.9984 1.31871 1.06808 0
M  V30 47 H 6.7704 2.82067 2.71208 0
M  V30 48 H 6.3934 1.42674 3.7112 0
M  V30 49 N 7.3905 -1.2043 1.01659 0
M  V30 50 C 8.6185 -1.93777 0.725132 0
M  V30 51 C 9.0335 -1.74772 -0.714166 0
M  V30 52 O 8.3905 -1.06169 -1.4844 0
M  V30 53 C 8.4415 -3.45876 1.05129 0
M  V30 54 O 8.1625 -3.6426 2.43406 0
M  V30 55 C 9.6635 -4.36368 0.780891 0
M  V30 56 H 6.8835 -0.615901 0.266284 0
M  V30 57 H 9.4275 -1.52922 1.35776 0
M  V30 58 H 7.5825 -3.8461 0.464065 0
M  V30 59 H 7.9965 -4.58246 2.55169 0
M  V30 60 H 9.4705 -5.41743 1.05918 0
M  V30 61 H 9.9475 -4.38275 -0.284937 0
M  V30 62 H 10.5535 -4.03296 1.35027 0
M  V30 63 N 8.8686 -0.792821 -1.36206 0
M  V30 64 C 10.0936 -0.377701 -2.03932 0
M  V30 65 C 10.5186 0.998947 -1.59382 0
M  V30 66 O 9.8766 1.64421 -0.763903 0
M  V30 67 C 9.9246 -0.453635 -3.57735 0
M  V30 68 O 9.0286 0.538151 -4.08874 0
M  V30 69 H 8.3696 -0.159855 -0.644471 0
M  V30 70 H 10.8996 -1.07488 -1.7409 0
M  V30 71 H 10.9096 -0.318464 -4.06755 0
M  V30 72 H 9.5846 -1.45784 -3.89512 0
M  V30 73 H 8.1616 0.364359 -3.71116 0
M  V30 74 N 10.3467 1.47872 -0.545128 0
M  V30 75 C 11.2947 2.31533 0.222512 0
M  V30 76 C 12.2887 1.42177 0.920985 0
M  V30 77 O 13.4947 1.59005 0.843645 0
M  V30 78 H 9.8697 0.746519 0.0906278 0
M  V30 79 H 11.8407 2.94139 -0.50246 0
M  V30 80 C 10.5897 3.2457 1.24699 0
M  V30 81 H 9.9127 3.93283 0.718944 0
M  V30 82 H 11.3527 3.85963 1.75523 0
M  V30 83 C 9.8117 2.47237 2.28856 0
M  V30 84 O 10.3417 2.20808 3.35569 0
M  V30 85 N 8.5477 2.08461 2.02466 0
M  V30 86 H 8.0947 2.30155 1.157 0
M  V30 87 H 8.0527 1.57033 2.72375 0
M  V30 88 N 11.8248 0.280983 1.55075 0
M  V30 89 C 12.7348 -0.61388 2.26426 0
M  V30 90 C 13.7508 -1.16521 1.29224 0
M  V30 91 O 14.9268 -1.19426 1.62171 0
M  V30 92 C 11.9918 -1.7788 2.9759 0
M  V30 93 C 11.0528 -1.26355 4.10284 0
M  V30 94 C 10.2858 -2.37295 4.78045 0
M  V30 95 O 10.5088 -3.56777 4.45047 0
M  V30 96 O 9.4428 -2.05119 5.65871 0
M  V30 97 H 13.2688 -0.0356932 3.03679 0
M  V30 98 H 10.8538 0.0481686 1.49322 0
M  V30 99 H 12.7358 -2.45791 3.42293 0
M  V30 100 H 11.4108 -2.34397 2.23249 0
M  V30 101 H 10.3178 -0.550735 3.70024 0
M  V30 102 H 11.6508 -0.744065 4.86543 0
M  V30 103 N 13.3029 -1.57598 0.00835791 0
M  V30 104 C 14.5309 -1.95214 -0.68549 0
M  V30 105 C 14.9459 -0.883706 -1.66841 0
M  V30 106 O 14.3029 0.136565 -1.81988 0
M  V30 107 C 14.3539 -3.32865 -1.41007 0
M  V30 108 O 14.0749 -4.35609 -0.466552 0
M  V30 109 C 15.5759 -3.84991 -2.19765 0
M  V30 110 H 12.7959 -0.643422 -0.190392 0
M  V30 111 H 15.3399 -2.04406 0.0619607 0
M  V30 112 H 13.4949 -3.24956 -2.10908 0
M  V30 113 H 13.9089 -5.15288 -0.978699 0
M  V30 114 H 15.3829 -4.8371 -2.65948 0
M  V30 115 H 15.8599 -3.18137 -3.02796 0
M  V30 116 H 16.4659 -3.96103 -1.54864 0
M  V30 117 N 14.781 0.264519 -1.55364 0
M  V30 118 C 16.058 1.01677 -1.67096 0
M  V30 119 C 16.438 2.03996 -0.543015 0
M  V30 120 O 15.786 2.23907 0.45585 0
M  V30 121 C 15.996 1.66596 -3.0667 0
M  V30 122 C 17.344 2.17442 -3.64697 0
M  V30 123 O 18.368 1.76568 -3.09358 0
M  V30 124 O 17.227 2.92439 -4.61673 0
M  V30 125 H 14.321 0.472161 -0.678965 0
M  V30 126 H 16.867 0.259703 -1.67701 0
M  V30 127 H 15.639 0.924962 -3.80211 0
M  V30 128 H 15.262 2.48968 -3.10001 0
M  V30 129 N 16.2591 1.48442 0.529413 0
M  V30 130 C 17.4871 1.60151 1.30994 0
M  V30 131 C 17.9021 0.261985 1.86973 0
M  V30 132 O 17.2591 -0.748805 1.66431 0
M  V30 133 C 17.3101 2.64854 2.46038 0
M  V30 134 O 17.0311 3.93608 1.92365 0
M  V30 135 C 18.5321 2.87007 3.37849 0
M  V30 136 H 15.7521 0.539971 0.398338 0
M  V30 137 H 18.2961 1.94273 0.638597 0
M  V30 138 H 16.4511 2.33589 3.09055 0
M  V30 139 H 16.8651 4.51055 2.67675 0
M  V30 140 H 18.3391 3.64068 4.14919 0
M  V30 141 H 18.8161 1.95852 3.93114 0
M  V30 142 H 19.4221 3.19579 2.80623 0
M  V30 143 N 17.7372 -0.778329 1.37039 0
M  V30 144 C 18.9852 -1.53361 1.31623 0
M  V30 145 C 19.3062 -1.94739 -0.100831 0
M  V30 146 O 18.5762 -1.65797 -1.04347 0
M  V30 147 H 17.1562 -0.568794 0.484234 0
M  V30 148 H 19.8182 -0.926742 1.71457 0
M  V30 149 H 18.9142 -2.43606 1.95096 0
M  V30 150 N 19.2153 -1.21501 -1.00376 0
M  V30 151 C 20.4433 -1.059 -1.77744 0
M  V30 152 C 20.8583 0.391125 -1.84704 0
M  V30 153 O 20.2153 1.27133 -1.30933 0
M  V30 154 C 20.2663 -1.65111 -3.21591 0
M  V30 155 O 19.9873 -3.0445 -3.15027 0
M  V30 156 C 21.4883 -1.54637 -4.15454 0
M  V30 157 H 18.7083 -0.371825 -0.558558 0
M  V30 158 H 21.2523 -1.60865 -1.26264 0
M  V30 159 H 19.4073 -1.14235 -3.70175 0
M  V30 160 H 19.8213 -3.3278 -4.0541 0
M  V30 161 H 21.2953 -2.00808 -5.14179 0
M  V30 162 H 21.7723 -0.501022 -4.36333 0
M  V30 163 H 22.3783 -2.04767 -3.72761 0
M  V30 164 N 20.6934 1.19889 -1.02296 0
M  V30 165 C 21.9184 1.9393 -0.735237 0
M  V30 166 C 22.3434 1.74639 0.698782 0
M  V30 167 O 21.7014 1.04481 1.48167 0
M  V30 168 C 21.7494 3.43916 -1.08417 0
M  V30 169 O 20.8534 4.11917 -0.199446 0
M  V30 170 H 20.1944 0.605645 -0.272196 0
M  V30 171 H 22.7244 1.52137 -1.36804 0
M  V30 172 H 22.7344 3.9456 -1.03856 0
M  V30 173 H 21.4094 3.5728 -2.12894 0
M  V30 174 H 19.9864 3.71666 -0.303136 0
M  V30 175 N 22.1715 0.800033 1.35784 0
M  V30 176 C 23.4195 0.376597 1.9856 0
M  V30 177 C 23.7405 -1.05812 1.63795 0
M  V30 178 O 23.0105 -1.73103 0.917171 0
M  V30 179 H 21.5905 0.136261 0.734467 0
M  V30 180 H 24.2525 1.02442 1.65806 0
M  V30 181 H 23.3485 0.477002 3.08433 0
M  V30 182 N 23.6496 -1.47581 0.552962 0
M  V30 183 C 24.8976 -2.02082 0.0272703 0
M  V30 184 C 25.2186 -1.4301 -1.32563 0
M  V30 185 O 24.4886 -0.603745 -1.86365 0
M  V30 186 H 23.0686 -0.746966 0.00709182 0
M  V30 187 H 25.7306 -1.81033 0.722008 0
M  V30 188 H 24.8266 -3.12034 -0.0639951 0
M  V30 189 N 25.1277 -0.289203 -1.54924 0
M  V30 190 C 26.0377 0.601863 -2.26748 0
M  V30 191 C 27.0537 1.15834 -1.2984 0
M  V30 192 O 28.2297 1.18564 -1.62802 0
M  V30 193 C 25.2947 1.76299 -2.98529 0
M  V30 194 C 24.3557 1.24178 -4.10948 0
M  V30 195 C 23.5887 2.34757 -4.79296 0
M  V30 196 O 23.8117 3.54411 -4.46933 0
M  V30 197 O 22.7457 2.02115 -5.66951 0
M  V30 198 H 26.5717 0.0195879 -3.03694 0
M  V30 199 H 24.1567 -0.0560868 -1.49295 0
M  V30 200 H 26.0387 2.43973 -3.43592 0
M  V30 201 H 24.7137 2.33209 -2.24488 0
M  V30 202 H 23.6207 0.531104 -3.70311 0
M  V30 203 H 24.9537 0.718252 -4.86931 0
M  V30 204 N 26.6058 1.57591 -0.0167156 0
M  V30 205 C 27.8338 1.95575 0.675128 0
M  V30 206 C 28.2488 0.892542 1.6637 0
M  V30 207 O 27.6058 -0.126912 1.82058 0
M  V30 208 C 27.6568 3.33608 1.39239 0
M  V30 209 O 27.3778 4.3585 0.443444 0
M  V30 210 C 28.8788 3.86151 2.17721 0
M  V30 211 H 26.0988 0.644423 0.186978 0
M  V30 212 H 28.6428 2.0437 -0.0728 0
M  V30 213 H 26.7978 3.2607 2.09182 0
M  V30 214 H 27.2118 5.158 0.951358 0
M  V30 215 H 28.6858 4.85114 2.63379 0
M  V30 216 H 29.1628 3.19738 3.01105 0
M  V30 217 H 29.7688 3.96918 1.52761 0
M  V30 218 N 28.0839 -0.256276 1.55502 0
M  V30 219 C 29.0469 -1.30047 1.88734 0
M  V30 220 C 30.0469 -1.4154 0.763086 0
M  V30 221 O 31.2369 -1.40403 1.03115 0
M  V30 222 C 28.3689 -2.67953 2.10747 0
M  V30 223 H 29.5619 -1.01802 2.82093 0
M  V30 224 H 27.1149 -0.495134 1.4825 0
M  V30 225 H 27.8499 -3.01351 1.19825 0
M  V30 226 H 27.6349 -2.60993 2.92617 0
M  V30 227 H 29.1249 -3.43368 2.37673 0
M  V30 228 N 29.562 -1.4872 -0.521534 0
M  V30 229 C 30.525 -1.63379 -1.60748 0
M  V30 230 C 31.525 -0.50661 -1.52611 0
M  V30 231 O 32.715 -0.772601 -1.5613 0
M  V30 232 C 29.847 -1.61192 -3.00383 0
M  V30 233 H 31.04 -2.60217 -1.49087 0
M  V30 234 H 28.593 -1.37444 -0.744235 0
M  V30 235 H 29.328 -0.65863 -3.17541 0
M  V30 236 H 29.113 -2.43032 -3.07698 0
M  V30 237 H 30.603 -1.7466 -3.7932 0
M  V30 238 N 31.0401 0.771051 -1.3745 0
M  V30 239 C 32.2861 1.5319 -1.32894 0
M  V30 240 C 32.6191 1.94008 0.0862511 0
M  V30 241 O 31.8941 1.64124 1.04373 0
M  V30 242 C 32.1771 2.79648 -2.26868 0
M  V30 243 C 32.0301 2.45079 -3.77169 0
M  V30 244 C 33.3491 3.81583 -2.19277 0
M  V30 245 H 30.4681 0.555744 -0.484064 0
M  V30 246 H 33.1101 0.884492 -1.68157 0
M  V30 247 H 31.2601 3.34891 -1.96926 0
M  V30 248 H 32.9321 1.95745 -4.1771 0
M  V30 249 H 31.1751 1.77767 -3.95704 0
M  V30 250 H 31.8461 3.35478 -4.38359 0
M  V30 251 H 34.3221 3.35835 -2.45671 0
M  V30 252 H 33.1981 4.67787 -2.87171 0
M  V30 253 H 33.4591 4.25897 -1.18592 0
M  V30 254 N 32.5182 1.22032 0.997298 0
M  V30 255 C 33.7952 0.950823 1.70935 0
M  V30 256 C 34.1752 -0.535292 2.042 0
M  V30 257 O 33.5232 -1.50217 1.72183 0
M  V30 258 C 33.7332 1.84386 2.96315 0
M  V30 259 C 35.0812 2.09732 3.69185 0
M  V30 260 O 36.1052 1.81798 3.06314 0
M  V30 261 O 34.9642 2.57018 4.82291 0
M  V30 262 H 32.0582 0.357204 0.745878 0
M  V30 263 H 34.6042 1.32997 1.05404 0
M  V30 264 H 33.3762 2.84928 2.68201 0
M  V30 265 H 32.9992 1.46602 3.69586 0
M  V30 266 N 33.9963 -1.19345 1.0293 0
M  V30 267 C 34.9593 -2.20793 0.615069 0
M  V30 268 C 35.9593 -1.57553 -0.321533 0
M  V30 269 O 37.1493 -1.73862 -0.108483 0
M  V30 270 C 34.2813 -3.40754 -0.0999222 0
M  V30 271 H 35.4743 -2.58955 1.51269 0
M  V30 272 H 33.0273 -1.3303 0.820534 0
M  V30 273 H 33.7623 -3.0811 -1.01187 0
M  V30 274 H 33.5473 -3.87889 0.57309 0
M  V30 275 H 35.0373 -4.15898 -0.376645 0
M  V30 276 N 35.4744 -0.807222 -1.35358 0
M  V30 277 C 36.3844 -0.219594 -2.3357 0
M  V30 278 C 37.4004 0.637734 -1.61892 0
M  V30 279 O 38.5764 0.549336 -1.93763 0
M  V30 280 C 35.6414 0.62158 -3.41083 0
M  V30 281 C 34.7024 -0.256315 -4.28534 0
M  V30 282 C 33.9354 0.544807 -5.30912 0
M  V30 283 O 34.1584 1.77944 -5.41934 0
M  V30 284 O 33.0924 -0.0646478 -6.01865 0
M  V30 285 H 36.9184 -1.03208 -2.85625 0
M  V30 286 H 34.5034 -0.569025 -1.38139 0
M  V30 287 H 36.3854 1.10067 -4.06772 0
M  V30 288 H 35.0604 1.41165 -2.91297 0
M  V30 289 H 33.9674 -0.782559 -3.65823 0
M  V30 290 H 35.3004 -1.01034 -4.81719 0
M  V30 291 N 36.9525 1.47285 -0.560781 0
M  V30 292 C 37.9155 2.28535 0.174488 0
M  V30 293 C 38.9155 1.37153 0.839388 0
M  V30 294 O 40.1055 1.59748 0.694702 0
M  V30 295 C 37.2375 3.16934 1.25561 0
M  V30 296 H 38.4305 2.95012 -0.539262 0
M  V30 297 H 35.9835 1.53034 -0.317865 0
M  V30 298 H 36.7185 2.55157 2.00164 0
M  V30 299 H 36.5035 3.8419 0.783604 0
M  V30 300 H 37.9935 3.78143 1.77193 0
M  V30 301 N 38.4306 0.297415 1.54768 0
M  V30 302 C 39.6766 -0.313376 2.00364 0
M  V30 303 C 40.0096 -1.53815 1.18553 0
M  V30 304 O 39.2846 -1.92739 0.261103 0
M  V30 305 C 39.5676 -0.673525 3.53745 0
M  V30 306 C 39.4206 0.560133 4.46299 0
M  V30 307 C 40.7396 -1.50143 4.13697 0
M  V30 308 H 37.8586 -0.112428 0.728374 0
M  V30 309 H 40.5006 0.4088 1.8555 0
M  V30 310 H 38.6506 -1.28881 3.665 0
M  V30 311 H 40.3226 1.19863 4.45455 0
M  V30 312 H 38.5656 1.19405 4.17043 0
M  V30 313 H 39.2366 0.26405 5.51368 0
M  V30 314 H 41.7126 -0.981588 4.04356 0
M  V30 315 H 40.5886 -1.72221 5.21182 0
M  V30 316 H 40.8496 -2.48952 3.65343 0
M  V30 317 N 39.9087 -1.5758 0.0250728 0
M  V30 318 C 41.1547 -1.91917 -0.655413 0
M  V30 319 C 41.4877 -0.901433 -1.72011 0
M  V30 320 O 40.7627 0.0764069 -1.9435 0
M  V30 321 C 41.0457 -3.36751 -1.27558 0
M  V30 322 C 40.8987 -4.49258 -0.220719 0
M  V30 323 C 42.2177 -3.81469 -2.19475 0
M  V30 324 H 39.3367 -0.697925 -0.23679 0
M  V30 325 H 41.9787 -1.89825 0.0815036 0
M  V30 326 H 40.1287 -3.38664 -1.90365 0
M  V30 327 H 41.8007 -4.59478 0.409601 0
M  V30 328 H 40.0437 -4.31415 0.454264 0
M  V30 329 H 40.7147 -5.47618 -0.694175 0
M  V30 330 H 43.1907 -3.81266 -1.66659 0
M  V30 331 H 42.0667 -4.83512 -2.59822 0
M  V30 332 H 42.3277 -3.16744 -3.08424 0
M  V30 333 N 41.3868 0.248026 -1.55636 0
M  V30 334 C 42.3188 1.32993 -1.8667 0
M  V30 335 C 43.3318 1.44345 -0.752877 0
M  V30 336 O 44.5208 1.45715 -1.03098 0
M  V30 337 C 41.6208 2.70863 -2.03682 0
M  V30 338 C 40.7938 2.81792 -3.34532 0
M  V30 339 C 39.8528 4.005 -3.41301 0
M  V30 340 O 38.8788 3.9008 -4.14519 0
M  V30 341 N 40.0808 5.13618 -2.70512 0
M  V30 342 H 42.8458 1.06707 -2.8006 0
M  V30 343 H 40.4068 0.438129 -1.55859 0
M  V30 344 H 42.3988 3.48612 -2.05553 0
M  V30 345 H 40.9688 2.89862 -1.17041 0
M  V30 346 H 40.1888 1.90729 -3.44987 0
M  V30 347 H 41.4768 2.86043 -4.20781 0
M  V30 348 H 40.8748 5.24975 -2.10755 0
M  V30 349 H 39.4318 5.89505 -2.78077 0
M  V30 350 N 42.8649 1.48995 0.513639 0
M  V30 351 C 43.7969 1.60836 1.63293 0
M  V30 352 C 44.8099 0.491701 1.55197 0
M  V30 353 O 45.9989 0.763238 1.6136 0
M  V30 354 C 43.0989 1.53731 3.02027 0
M  V30 355 C 42.2719 2.80715 3.35437 0
M  V30 356 C 41.3309 2.66837 4.53525 0
M  V30 357 O 40.3569 3.40753 4.55934 0
M  V30 358 N 41.5589 1.77539 5.52684 0
M  V30 359 H 44.3239 2.57366 1.53566 0
M  V30 360 H 41.8849 1.45925 0.701259 0
M  V30 361 H 43.8769 1.42118 3.78926 0
M  V30 362 H 42.4469 0.651092 3.05744 0
M  V30 363 H 41.6669 3.06772 2.47557 0
M  V30 364 H 42.9549 3.64927 3.54551 0
M  V30 365 H 42.3529 1.16719 5.53528 0
M  V30 366 H 40.9099 1.71856 6.28736 0
M  V30 367 N 44.343 -0.763751 1.37857 0
M  V30 368 C 45.29 -1.87726 1.34267 0
M  V30 369 C 46.26 -1.64807 0.206879 0
M  V30 370 O 47.445 -1.86613 0.397508 0
M  V30 371 C 44.585 -3.24896 1.16346 0
M  V30 372 C 43.698 -3.59716 2.39225 0
M  V30 373 C 42.833 -4.86137 2.14114 0
M  V30 374 C 41.872 -5.13711 3.32817 0
M  V30 375 N 41.009 -6.31323 3.07206 0
M  V30 376 H 45.849 -1.90129 2.29466 0
M  V30 377 H 43.386 -0.929433 1.14017 0
M  V30 378 H 45.344 -4.04036 1.03975 0
M  V30 379 H 43.974 -3.21847 0.247909 0
M  V30 380 H 43.026 -2.75498 2.62307 0
M  V30 381 H 44.338 -3.76027 3.27728 0
M  V30 382 H 43.492 -5.73198 1.9882 0
M  V30 383 H 42.231 -4.71945 1.22961 0
M  V30 384 H 41.236 -4.25123 3.48641 0
M  V30 385 H 42.461 -5.29807 4.24832 0
M  V30 386 H 40.407 -6.18474 2.1869 0
M  V30 387 H 40.324 -6.48087 3.89254 0
M  V30 388 H 41.592 -7.213 2.95546 0
M  V30 389 N 45.8211 -1.22559 -0.990812 0
M  V30 390 C 47.0611 -1.06302 -1.74583 0
M  V30 391 C 47.4251 0.394737 -1.87898 0
M  V30 392 O 48.6261 0.678214 -2.60103 0
M  V30 393 C 46.8971 -1.75699 -3.11231 0
M  V30 394 S 48.4561 -1.74882 -4.02445 0
M  V30 395 H 45.2741 -0.380639 -0.600529 0
M  V30 396 H 47.8761 -1.55532 -1.18449 0
M  V30 397 H 46.5801 -2.80923 -2.99183 0
M  V30 398 H 46.1111 -1.26708 -3.72436 0
M  V30 399 H 48.1261 -0.799997 -4.89709 0
M  V30 400 N 47.2992 1.18797 -1.03562 0
M  V30 401 C 48.5482 1.87978 -0.731235 0
M  V30 402 C 48.8612 1.80911 0.743671 0
M  V30 403 O 50.0672 2.45407 1.16137 0
M  V30 404 C 48.5232 3.3721 -1.25768 0
M  V30 405 C 48.1312 3.52818 -2.76085 0
M  V30 406 C 49.8752 4.11825 -1.0296 0
M  V30 407 C 47.7822 4.9598 -3.22114 0
M  V30 408 H 46.7122 0.704063 -0.269835 0
M  V30 409 H 49.3632 1.34266 -1.25079 0
M  V30 410 H 47.7452 3.90359 -0.666011 0
M  V30 411 H 48.9192 3.09965 -3.40966 0
M  V30 412 H 47.2342 2.91602 -2.97249 0
M  V30 413 H 49.8312 5.17411 -1.34869 0
M  V30 414 H 50.1742 4.16287 0.0333546 0
M  V30 415 H 50.7072 3.64833 -1.58562 0
M  V30 416 H 47.4462 4.96684 -4.27768 0
M  V30 417 H 46.9662 5.39569 -2.61965 0
M  V30 418 H 48.6452 5.6467 -3.15844 0
M  V30 419 N 48.7773 0.814389 1.34928 0
M  V30 420 C 50.0023 0.410097 2.03305 0
M  V30 421 C 50.4273 -0.973464 1.60951 0
M  V30 422 O 49.7853 -1.63185 0.789964 0
M  V30 423 C 49.8333 0.51049 3.56968 0
M  V30 424 O 48.9373 -0.473035 4.09678 0
M  V30 425 H 48.2783 0.170088 0.641846 0
M  V30 426 H 50.8083 1.10244 1.72358 0
M  V30 427 H 50.8183 0.383135 4.06197 0
M  V30 428 H 49.4933 1.51963 3.87144 0
M  V30 429 H 48.0703 -0.305272 3.71648 0
M  V30 430 N 50.2554 -1.46986 0.568584 0
M  V30 431 C 51.4954 -2.04336 0.0512999 0
M  V30 432 C 51.8594 -1.43214 -1.27881 0
M  V30 433 O 53.0604 -1.91679 -1.88448 0
M  V30 434 C 51.3314 -3.57389 -0.0282328 0
M  V30 435 S 52.8904 -4.36056 -0.489991 0
M  V30 436 H 49.7084 -0.71034 0.0306349 0
M  V30 437 H 52.3104 -1.80212 0.757891 0
M  V30 438 H 51.0144 -3.99395 0.944011 0
M  V30 439 H 50.5454 -3.86028 -0.75803 0
M  V30 440 H 52.5604 -4.6441 -1.74752 0
M  V30 441 N 51.7335 -0.305618 -1.54608 0
M  V30 442 C 52.6835 0.583595 -2.20405 0
M  V30 443 C 53.6675 1.09539 -1.17856 0
M  V30 444 O 54.8595 1.0354 -1.43557 0
M  V30 445 C 51.9885 1.75277 -2.95183 0
M  V30 446 C 51.0745 1.25672 -4.05052 0
M  V30 447 N 51.4655 0.478998 -5.03527 0
M  V30 448 C 49.7635 1.53704 -4.18678 0
M  V30 449 C 50.4645 0.214269 -5.81305 0
M  V30 450 N 49.4405 0.795374 -5.3775 0
M  V30 451 H 53.2425 -0.0180946 -2.93894 0
M  V30 452 H 50.7565 -0.110601 -1.62023 0
M  V30 453 H 52.7535 2.4014 -3.40791 0
M  V30 454 H 51.4135 2.35812 -2.23211 0
M  V30 455 H 52.4245 0.123473 -5.17753 0
M  V30 456 H 49.1015 2.14954 -3.57912 0
M  V30 457 H 50.4915 -0.410656 -6.70644 0
M  V30 458 N 53.2116 1.57565 -0.0334293 0
M  V30 459 C 54.4596 1.91598 0.642999 0
M  V30 460 C 54.7806 0.910847 1.7242 0
M  V30 461 O 54.0506 -0.0469931 1.95844 0
M  V30 462 H 52.6306 0.707228 0.240496 0
M  V30 463 H 55.2926 1.94726 -0.0822488 0
M  V30 464 H 54.3886 2.92336 1.09298 0
M  V30 465 N 54.6897 -0.239769 1.55765 0
M  V30 466 C 55.9377 -0.964892 1.77579 0
M  V30 467 C 56.2587 -1.85582 0.598699 0
M  V30 468 O 55.5287 -1.92075 -0.385226 0
M  V30 469 H 54.1087 -0.359265 0.654933 0
M  V30 470 H 56.7707 -0.256001 1.93211 0
M  V30 471 H 55.8667 -1.58243 2.69009 0
M  V30 472 N 56.1678 -1.49265 -0.50573 0
M  V30 473 C 57.4448 -1.49012 -1.26707 0
M  V30 474 C 57.8248 -0.215205 -2.1 0
M  V30 475 O 57.1728 0.802547 -2.13943 0
M  V30 476 C 57.3828 -2.7663 -2.12783 0
M  V30 477 C 58.7308 -3.25932 -2.72127 0
M  V30 478 O 59.7548 -2.77715 -2.23054 0
M  V30 479 O 58.6138 -4.09897 -3.61451 0
M  V30 480 H 55.7078 -0.596197 -0.57313 0
M  V30 481 H 58.2538 -1.61524 -0.52039 0
M  V30 482 H 57.0258 -3.60916 -1.5118 0
M  V30 483 H 56.6488 -2.66956 -2.94653 0
M  V30 484 N 57.6459 0.756429 -1.3826 0
M  V30 485 C 58.5759 1.88374 -1.37976 0
M  V30 486 C 59.5569 1.68311 -0.246082 0
M  V30 487 O 60.7419 1.88944 -0.44874 0
M  V30 488 C 57.8719 3.25864 -1.20125 0
M  V30 489 C 56.8259 3.60523 -2.30666 0
M  V30 490 C 56.1519 4.9672 -1.97923 0
M  V30 491 C 57.4519 3.65692 -3.72916 0
M  V30 492 H 59.1459 1.88869 -2.32312 0
M  V30 493 H 56.6919 0.907272 -1.11824 0
M  V30 494 H 58.6449 4.0438 -1.18552 0
M  V30 495 H 57.3689 3.25841 -0.222498 0
M  V30 496 H 56.0279 2.84324 -2.3142 0
M  V30 497 H 55.6759 4.93253 -0.985393 0
M  V30 498 H 55.3759 5.20878 -2.71955 0
M  V30 499 H 56.8999 5.77618 -1.97964 0
M  V30 500 H 58.3139 4.34328 -3.74208 0
M  V30 501 H 56.7109 4.01358 -4.4613 0
M  V30 502 H 57.7809 2.65987 -4.05436 0
M  V30 503 N 59.124 1.23083 0.984299 0
M  V30 504 C 60.352 1.08714 1.76037 0
M  V30 505 C 60.767 -0.361691 1.85303 0
M  V30 506 O 60.124 -1.25034 1.32939 0
M  V30 507 C 60.175 1.70206 3.18923 0
M  V30 508 O 59.896 3.09423 3.10144 0
M  V30 509 C 61.397 1.61227 4.12941 0
M  V30 510 H 58.617 0.380664 0.552572 0
M  V30 511 H 61.161 1.62853 1.23689 0
M  V30 512 H 59.316 1.20109 3.6831 0
M  V30 513 H 59.73 3.39188 4.00065 0
M  V30 514 H 61.204 2.08962 5.10919 0
M  V30 515 H 61.681 0.570375 4.35481 0
M  V30 516 H 62.287 2.10671 3.69456 0
M  V30 517 N 60.6021 -1.18246 1.0419 0
M  V30 518 C 61.8501 -1.87886 0.744543 0
M  V30 519 C 62.1711 -1.8082 -0.730006 0
M  V30 520 O 61.4411 -1.22736 -1.52685 0
M  V30 521 H 60.0211 -0.695556 0.272417 0
M  V30 522 H 62.6831 -1.43494 1.31892 0
M  V30 523 H 61.7791 -2.9389 1.05049 0
M  V30 524 N 62.0802 -0.821533 -1.34494 0
M  V30 525 C 63.0432 -0.247847 -2.27856 0
M  V30 526 C 64.0432 0.573453 -1.50227 0
M  V30 527 O 65.2332 0.389759 -1.69784 0
M  V30 528 C 62.3652 0.652698 -3.34593 0
M  V30 529 H 63.5582 -1.07146 -2.80107 0
M  V30 530 H 61.1112 -0.593291 -1.44602 0
M  V30 531 H 61.8462 1.49943 -2.87555 0
M  V30 532 H 61.6312 0.065292 -3.92046 0
M  V30 533 H 63.1212 1.04793 -4.04238 0
M  V30 534 N 63.5583 1.46682 -0.576371 0
M  V30 535 C 64.7833 2.07304 -0.0630475 0
M  V30 536 C 65.2083 1.42329 1.2298 0
M  V30 537 O 64.5663 0.504865 1.74129 0
M  V30 538 C 64.6143 3.60472 0.095895 0
M  V30 539 O 63.7183 3.95927 1.15394 0
M  V30 540 H 63.0593 0.661288 -0.0599463 0
M  V30 541 H 65.5893 1.88417 -0.797511 0
M  V30 542 H 65.5993 4.06865 0.304071 0
M  V30 543 H 64.2743 4.07157 -0.84828 0
M  V30 544 H 62.8513 3.61252 0.924724 0
M  V30 545 N 65.0364 0.313813 1.54444 0
M  V30 546 C 65.9994 -0.54379 2.22656 0
M  V30 547 C 66.9994 -1.05124 1.21678 0
M  V30 548 O 68.1894 -0.945225 1.46325 0
M  V30 549 C 65.3214 -1.75427 2.92298 0
M  V30 550 H 66.5144 0.0523599 2.99854 0
M  V30 551 H 64.0674 0.0647834 1.56166 0
M  V30 552 H 64.8024 -2.38991 2.19211 0
M  V30 553 H 64.5874 -1.39791 3.66334 0
M  V30 554 H 66.0774 -2.36325 3.44297 0
M  V30 555 N 66.5145 -1.57545 0.0417849 0
M  V30 556 C 67.9255 -1.80011 -0.495259 0
M  V30 557 C 68.2765 -0.953199 -1.71489 0
M  V30 558 O 67.4015 -0.167138 -2.15754 0
M  V30 559 C 67.9965 -3.26482 -0.905265 0
M  V30 560 C 66.5555 -3.499 -1.38734 0
M  V30 561 C 65.7025 -2.74979 -0.358056 0
M  V30 562 H 68.6535 -1.56425 0.267736 0
M  V30 563 H 68.6745 -3.36887 -1.76882 0
M  V30 564 H 68.1865 -3.88096 -0.017401 0
M  V30 565 H 66.2875 -2.93553 -2.29471 0
M  V30 566 H 66.4005 -4.58615 -1.38598 0
M  V30 567 H 64.7645 -2.40834 -0.828912 0
M  V30 568 H 65.5475 -3.39315 0.521561 0
M  V30 569 N 67.9926 0.231505 -1.5589 0
M  V30 570 C 68.9556 1.27028 -1.90779 0
M  V30 571 C 69.9556 1.40308 -0.785507 0
M  V30 572 O 71.1456 1.38744 -1.05336 0
M  V30 573 C 68.2776 2.64566 -2.14983 0
M  V30 574 H 69.4706 0.973017 -2.83677 0
M  V30 575 H 67.0236 0.471486 -1.49019 0
M  V30 576 H 67.7586 2.99406 -1.24604 0
M  V30 577 H 67.5436 2.56305 -2.96732 0
M  V30 578 H 69.0336 3.39543 -2.43105 0
M  V30 579 N 69.4707 1.49531 0.497807 0
M  V30 580 C 70.7197 1.58426 1.24837 0
M  V30 581 C 71.0327 0.277643 1.93619 0
M  V30 582 O 72.2387 0.24517 2.70391 0
M  V30 583 C 70.6947 2.79538 2.26686 0
M  V30 584 C 70.3027 4.16971 1.63828 0
M  V30 585 C 72.0467 2.97764 3.0255 0
M  V30 586 C 69.9537 5.29301 2.63807 0
M  V30 587 H 68.8837 0.58989 0.469623 0
M  V30 588 H 71.5347 1.75923 0.521857 0
M  V30 589 H 69.9167 2.55542 3.02514 0
M  V30 590 H 71.0907 4.51116 0.939711 0
M  V30 591 H 69.4057 4.04129 1.00342 0
M  V30 592 H 72.0027 3.78856 3.77323 0
M  V30 593 H 72.3457 2.08448 3.60354 0
M  V30 594 H 72.8787 3.21815 2.33838 0
M  V30 595 H 69.6177 6.20687 2.10779 0
M  V30 596 H 69.1377 4.99606 3.31894 0
M  V30 597 H 70.8167 5.58768 3.2617 0
M  V30 598 N 70.9488 -0.749086 1.3866 0
M  V30 599 C 72.2258 -1.4992 1.25632 0
M  V30 600 C 72.6058 -2.10633 -0.140317 0
M  V30 601 O 71.9538 -1.97437 -1.15025 0
M  V30 602 C 72.1638 -2.56195 2.36992 0
M  V30 603 C 73.5118 -3.22972 2.75634 0
M  V30 604 O 74.5358 -2.66502 2.36337 0
M  V30 605 O 73.3948 -4.25122 3.43415 0
M  V30 606 H 70.4888 -0.665067 0.491544 0
M  V30 607 H 73.0348 -0.784113 1.50498 0
M  V30 608 H 71.8068 -2.09612 3.30422 0
M  V30 609 H 71.4298 -3.35279 2.13714 0
M  V30 610 N 72.4269 -1.23603 -0.977757 0
M  V30 611 C 73.3739 -1.01954 -2.07061 0
M  V30 612 C 74.3439 0.0638697 -1.65977 0
M  V30 613 O 75.5289 -0.0887624 -1.90593 0
M  V30 614 C 72.6689 -0.619658 -3.39491 0
M  V30 615 C 71.7819 -1.77547 -3.93829 0
M  V30 616 C 70.9169 -1.32212 -5.14484 0
M  V30 617 C 69.9559 -2.44852 -5.60994 0
M  V30 618 N 69.0929 -2.00456 -6.72876 0
M  V30 619 H 73.9329 -1.95495 -2.24913 0
M  V30 620 H 71.4699 -0.973861 -1.10247 0
M  V30 621 H 73.4279 -0.368898 -4.15566 0
M  V30 622 H 72.0579 0.278752 -3.21594 0
M  V30 623 H 71.1099 -2.14016 -3.14486 0
M  V30 624 H 72.4219 -2.62219 -4.24314 0
M  V30 625 H 71.5759 -1.02965 -5.97899 0
M  V30 626 H 70.3149 -0.445808 -4.85658 0
M  V30 627 H 69.3199 -2.74871 -4.76157 0
M  V30 628 H 70.5449 -3.33024 -5.91837 0
M  V30 629 H 68.4909 -1.15208 -6.45804 0
M  V30 630 H 68.4079 -2.78687 -7.02759 0
M  V30 631 H 69.6759 -1.7432 -7.59758 0
M  V30 632 N 73.905 1.17692 -1.04816 0
M  V30 633 C 74.868 2.19787 -0.650117 0
M  V30 634 C 75.868 1.58044 0.296427 0
M  V30 635 O 77.058 1.74012 0.0808097 0
M  V30 636 C 74.19 3.40869 0.0456987 0
M  V30 637 H 75.383 2.56516 -1.5537 0
M  V30 638 H 72.936 1.31708 -0.841594 0
M  V30 639 H 73.671 3.09681 0.962726 0
M  V30 640 H 73.456 3.86928 -0.634727 0
M  V30 641 H 74.946 4.16445 0.310432 0
M  V30 642 N 75.3831 0.828654 1.34056 0
M  V30 643 C 76.6311 0.41863 1.97717 0
M  V30 644 C 76.9521 -1.02314 1.66002 0
M  V30 645 O 76.2221 -1.71119 0.953683 0
M  V30 646 H 74.8021 0.151809 0.731412 0
M  V30 647 H 77.4641 1.05936 1.63596 0
M  V30 648 H 76.5601 0.542318 3.07352 0
M  V30 649 N 76.8612 -1.46375 0.584142 0
M  V30 650 C 77.8242 -2.28784 -0.138108 0
M  V30 651 C 78.8242 -1.38471 -0.817462 0
M  V30 652 O 80.0142 -1.60833 -0.669199 0
M  V30 653 C 77.1462 -3.18892 -1.20503 0
M  V30 654 H 78.3392 -2.94117 0.586127 0
M  V30 655 H 75.8922 -1.52509 0.342171 0
M  V30 656 H 76.6272 -2.58309 -1.96079 0
M  V30 657 H 76.4122 -3.85388 -0.722384 0
M  V30 658 H 77.9022 -3.80914 -1.71155 0
M  V30 659 N 78.3393 -0.321999 -1.54275 0
M  V30 660 C 79.2873 0.560206 -2.25753 0
M  V30 661 C 80.2813 1.11984 -1.27106 0
M  V30 662 O 81.4873 1.06806 -1.44888 0
M  V30 663 H 77.8623 0.199304 -0.725108 0
M  V30 664 H 79.8333 -0.0649365 -2.98329 0
M  V30 665 C 78.5823 1.71023 -3.02731 0
M  V30 666 H 77.9053 1.28885 -3.78456 0
M  V30 667 H 79.3453 2.30314 -3.55993 0
M  V30 668 C 77.8043 2.62692 -2.10938 0
M  V30 669 O 78.3343 3.64364 -1.6912 0
M  V30 670 N 76.5403 2.30891 -1.76459 0
M  V30 671 H 76.0873 1.48253 -2.10663 0
M  V30 672 H 76.0453 2.92487 -1.1532 0
M  V30 673 N 79.8174 1.5752 -0.0501392 0
M  V30 674 C 81.0474 1.96678 0.632573 0
M  V30 675 C 81.4554 0.926298 1.64974 0
M  V30 676 O 80.7984 -0.09802 1.83438 0
M  V30 677 C 80.8604 3.32068 1.37735 0
M  V30 678 C 80.5244 4.54076 0.516131 0
M  V30 679 C 81.5214 5.19445 -0.217357 0
M  V30 680 C 79.2064 5.00304 0.44736 0
M  V30 681 C 81.2004 6.29378 -1.00807 0
M  V30 682 C 78.8874 6.10114 -0.347038 0
M  V30 683 C 79.8854 6.74512 -1.07344 0
M  V30 684 O 79.5734 7.82211 -1.85477 0
M  V30 685 H 79.3054 0.652193 0.177821 0
M  V30 686 H 81.8594 2.05091 -0.112543 0
M  V30 687 H 80.0894 3.20206 2.16807 0
M  V30 688 H 81.7784 3.55981 1.95019 0
M  V30 689 H 82.5444 4.84689 -0.173688 0
M  V30 690 H 78.4234 4.49971 1.00235 0
M  V30 691 H 81.9674 6.79575 -1.57556 0
M  V30 692 H 77.8644 6.44307 -0.392349 0
M  V30 693 H 78.6324 7.98982 -1.77678 0
M  V30 694 N 81.2955 -0.223234 1.56011 0
M  V30 695 C 82.5205 -0.968978 1.83373 0
M  V30 696 C 82.9455 -1.77227 0.630254 0
M  V30 697 O 82.3035 -1.76345 -0.420959 0
M  V30 698 C 82.3515 -1.86363 3.08709 0
M  V30 699 O 81.4555 -2.95873 2.87285 0
M  V30 700 H 80.7965 -0.274461 0.604622 0
M  V30 701 H 83.3265 -0.237056 2.03222 0
M  V30 702 H 83.3365 -2.27376 3.38768 0
M  V30 703 H 82.0115 -1.27319 3.95933 0
M  V30 704 H 80.5885 -2.58818 2.68454 0
M  V30 705 N 82.7736 -1.49793 -0.48987 0
M  V30 706 C 83.6836 -1.70036 -1.61632 0
M  V30 707 C 84.6996 -0.583102 -1.63939 0
M  V30 708 O 85.8756 -0.859169 -1.82154 0
M  V30 709 C 82.9406 -1.77277 -2.97949 0
M  V30 710 C 82.0016 -3.00918 -3.06181 0
M  V30 711 C 81.2346 -3.07804 -4.35996 0
M  V30 712 O 81.4576 -2.21982 -5.25433 0
M  V30 713 O 80.3916 -4.00369 -4.49431 0
M  V30 714 H 84.2176 -2.65486 -1.47482 0
M  V30 715 H 81.8026 -1.33666 -0.667362 0
M  V30 716 H 83.6846 -1.84329 -3.78947 0
M  V30 717 H 82.3596 -0.850076 -3.12339 0
M  V30 718 H 81.2666 -2.99377 -2.2433 0
M  V30 719 H 82.5996 -3.92704 -2.96723 0
M  V30 720 N 84.2517 0.741722 -1.39055 0
M  V30 721 C 85.1617 1.88621 -1.39496 0
M  V30 722 C 86.1777 1.71557 -0.290578 0
M  V30 723 O 87.3537 1.94275 -0.530954 0
M  V30 724 C 84.4187 3.24134 -1.23037 0
M  V30 725 C 83.4797 3.5364 -2.43387 0
M  V30 726 C 82.7127 4.82687 -2.27703 0
M  V30 727 O 82.9357 5.55922 -1.27696 0
M  V30 728 O 81.8697 5.1194 -3.16545 0
M  V30 729 H 85.6957 1.91203 -2.35956 0
M  V30 730 H 83.2807 0.888625 -1.20099 0
M  V30 731 H 85.1627 4.0513 -1.15964 0
M  V30 732 H 83.8377 3.22337 -0.296691 0
M  V30 733 H 82.7447 2.72758 -2.56035 0
M  V30 734 H 84.0777 3.60209 -3.35425 0
M  V30 735 N 85.7298 1.2412 0.971189 0
M  V30 736 C 86.6398 1.04747 2.09917 0
M  V30 737 C 87.6558 -0.0107162 1.73997 0
M  V30 738 O 88.8318 0.186714 2.00533 0
M  V30 739 C 85.8968 0.650828 3.40537 0
M  V30 740 C 84.9578 1.7851 3.90426 0
M  V30 741 C 84.1908 1.40729 5.14812 0
M  V30 742 O 84.4138 0.29557 5.69634 0
M  V30 743 O 83.3478 2.23168 5.58999 0
M  V30 744 H 87.1738 1.99304 2.29154 0
M  V30 745 H 84.7588 1.02908 1.08307 0
M  V30 746 H 86.6408 0.440992 4.19086 0
M  V30 747 H 85.3158 -0.265649 3.22608 0
M  V30 748 H 84.2228 2.04966 3.12953 0
M  V30 749 H 85.5558 2.68023 4.12825 0
M  V30 750 N 87.2079 -1.17134 1.05439 0
M  V30 751 C 88.4569 -1.86791 0.761049 0
M  V30 752 C 88.7699 -1.82072 -0.714795 0
M  V30 753 O 89.9759 -2.47223 -1.12218 0
M  V30 754 C 88.4319 -3.35166 1.31117 0
M  V30 755 C 88.0399 -3.48381 2.81664 0
M  V30 756 C 89.7839 -4.10134 1.09499 0
M  V30 757 C 87.6909 -4.90793 3.29964 0
M  V30 758 H 86.6209 -0.699681 0.281002 0
M  V30 759 H 89.2719 -1.3226 1.27199 0
M  V30 760 H 87.6539 -3.8925 0.72803 0
M  V30 761 H 88.8279 -3.04502 3.45855 0
M  V30 762 H 87.1429 -2.86836 3.01851 0
M  V30 763 H 89.7399 -5.152 1.43084 0
M  V30 764 H 90.0829 -4.16287 0.0328772 0
M  V30 765 H 90.6159 -3.62264 1.64346 0
M  V30 766 H 87.3549 -4.89816 4.35616 0
M  V30 767 H 86.8749 -5.35333 2.70516 0
M  V30 768 H 88.5539 -5.59573 3.24787 0
M  V30 769 N 88.686 -0.835752 -1.33615 0
M  V30 770 C 89.616 -0.281739 -2.31794 0
M  V30 771 C 90.597 0.608833 -1.58831 0
M  V30 772 O 91.782 0.533035 -1.86741 0
M  V30 773 C 88.912 0.546612 -3.42971 0
M  V30 774 C 87.866 -0.247904 -4.27281 0
M  V30 775 C 87.192 0.704001 -5.30045 0
M  V30 776 C 88.492 -1.46324 -5.01385 0
M  V30 777 H 90.186 -1.10206 -2.78379 0
M  V30 778 H 87.732 -0.531388 -1.33837 0
M  V30 779 H 89.685 0.944467 -4.1068 0
M  V30 780 H 88.409 1.40011 -2.95067 0
M  V30 781 H 87.068 -0.627281 -3.61194 0
M  V30 782 H 86.716 1.55381 -4.78399 0
M  V30 783 H 86.416 0.176524 -5.87335 0
M  V30 784 H 87.94 1.09944 -6.0062 0
M  V30 785 H 89.354 -1.13871 -5.61877 0
M  V30 786 H 87.751 -1.92728 -5.6831 0
M  V30 787 H 88.821 -2.23467 -4.30338 0
M  V30 788 N 90.1641 1.46063 -0.591896 0
M  V30 789 C 91.4411 1.95595 -0.0137119 0
M  V30 790 C 91.8211 1.5345 1.4497 0
M  V30 791 O 91.1691 0.789543 2.14426 0
M  V30 792 C 91.3791 3.48453 -0.195373 0
M  V30 793 C 92.7271 4.24546 -0.0679765 0
M  V30 794 O 93.7511 3.55982 -0.124681 0
M  V30 795 O 92.6101 5.46467 0.0600579 0
M  V30 796 H 89.7041 0.825795 0.0446279 0
M  V30 797 H 92.2501 1.56303 -0.660859 0
M  V30 798 H 91.0221 3.72045 -1.21235 0
M  V30 799 H 90.6451 3.94597 0.487775 0
M  V30 800 N 91.6422 0.330177 1.54103 0
M  V30 801 C 92.8912 -0.271336 1.99867 0
M  V30 802 C 93.2042 -1.52723 1.22209 0
M  V30 803 O 94.4102 -2.20515 1.58383 0
M  V30 804 C 92.8662 -0.534032 3.55916 0
M  V30 805 C 92.4742 0.705193 4.42415 0
M  V30 806 C 94.2182 -1.09514 4.1013 0
M  V30 807 C 92.1252 0.414035 5.89949 0
M  V30 808 H 91.0552 -0.105166 0.74663 0
M  V30 809 H 93.7062 0.443429 1.78062 0
M  V30 810 H 92.0882 -1.30915 3.73734 0
M  V30 811 H 93.2622 1.4804 4.36372 0
M  V30 812 H 91.5772 1.18698 3.99124 0
M  V30 813 H 94.1742 -1.3277 5.17954 0
M  V30 814 H 94.5172 -2.04656 3.62521 0
M  V30 815 H 95.0502 -0.381038 3.95971 0
M  V30 816 H 91.7892 1.33481 6.41766 0
M  V30 817 H 91.3092 -0.323336 5.98928 0
M  V30 818 H 92.9882 0.0263105 6.46995 0
M  V30 819 N 93.1203 -1.57491 0.0584922 0
M  V30 820 C 94.3693 -1.92155 -0.613146 0
M  V30 821 C 94.6823 -0.939334 -1.71569 0
M  V30 822 O 95.8883 -1.17829 -2.44599 0
M  V30 823 C 94.3443 -3.41303 -1.14195 0
M  V30 824 C 93.9523 -4.47944 -0.0711265 0
M  V30 825 C 95.6963 -3.84988 -1.78841 0
M  V30 826 C 93.6033 -5.88212 -0.613225 0
M  V30 827 H 92.5333 -0.717162 -0.232796 0
M  V30 828 H 95.1843 -1.83049 0.12857 0
M  V30 829 H 93.5663 -3.45437 -1.93621 0
M  V30 830 H 94.7403 -4.55408 0.702836 0
M  V30 831 H 93.0553 -4.13644 0.478313 0
M  V30 832 H 95.6523 -4.87159 -2.20408 0
M  V30 833 H 95.9953 -3.21632 -2.64308 0
M  V30 834 H 96.5283 -3.83401 -1.06059 0
M  V30 835 H 93.2673 -6.55183 0.203978 0
M  V30 836 H 92.7873 -5.84294 -1.35501 0
M  V30 837 H 94.4663 -6.37687 -1.09383 0
M  V30 838 N 94.5984 0.214957 -1.56127 0
M  V30 839 C 95.5284 1.2695 -1.95974 0
M  V30 840 C 96.5094 1.48539 -0.828868 0
M  V30 841 O 97.6944 1.60611 -1.09168 0
M  V30 842 C 94.8244 2.61794 -2.28214 0
M  V30 843 C 93.7784 2.54851 -3.43853 0
M  V30 844 C 93.1044 3.93785 -3.61715 0
M  V30 845 C 94.4044 2.09065 -4.78632 0
M  V30 846 H 96.0984 0.93846 -2.84312 0
M  V30 847 H 93.6444 0.449996 -1.36788 0
M  V30 848 H 95.5974 3.35731 -2.54682 0
M  V30 849 H 94.3214 2.96599 -1.36736 0
M  V30 850 H 92.9804 1.8337 -3.17444 0
M  V30 851 H 92.6284 4.25908 -2.67602 0
M  V30 852 H 92.3284 3.90019 -4.39498 0
M  V30 853 H 93.8524 4.69374 -3.90539 0
M  V30 854 H 95.2664 2.7275 -5.04262 0
M  V30 855 H 93.6634 2.16346 -5.59745 0
M  V30 856 H 94.7334 1.04315 -4.73547 0
M  V30 857 N 96.0765 1.50051 0.48192 0
M  V30 858 C 97.0245 1.68635 1.60203 0
M  V30 859 C 98.0185 0.552184 1.60148 0
M  V30 860 O 99.2245 0.732377 1.64427 0
M  V30 861 H 95.5995 0.532081 0.531407 0
M  V30 862 H 97.5705 2.62616 1.41688 0
M  V30 863 C 96.3195 1.78775 2.9822 0
M  V30 864 H 95.6425 2.6543 2.98976 0
M  V30 865 H 97.0825 1.95806 3.7608 0
M  V30 866 C 95.5415 0.536849 3.32595 0
M  V30 867 O 96.0715 -0.328897 4.00351 0
M  V30 868 N 94.2775 0.394091 2.87915 0
M  V30 869 H 93.8245 1.09962 2.32951 0
M  V30 870 H 93.7825 -0.441737 3.11281 0
M  V30 871 N 97.5546 -0.734337 1.39446 0
M  V30 872 C 98.8026 -1.49096 1.36436 0
M  V30 873 C 99.1236 -1.94961 -0.0388255 0
M  V30 874 O 98.3936 -1.69033 -0.990191 0
M  V30 875 H 96.9736 -0.5531 0.502085 0
M  V30 876 H 99.6356 -0.871725 1.74319 0
M  V30 877 H 98.7316 -2.37276 2.02747 0
M  V30 878 N 99.0327 -1.24633 -0.964593 0
M  V30 879 C 99.9647 -0.999302 -2.06268 0
M  V30 880 C 100.978 0.0323226 -1.62768 0
M  V30 881 O 102.167 -0.205079 -1.77318 0
M  V30 882 C 99.2667 -0.486816 -3.35385 0
M  V30 883 C 98.4397 -1.5823 -4.07777 0
M  V30 884 C 97.4987 -1.07191 -5.15166 0
M  V30 885 O 96.5247 -1.76426 -5.41168 0
M  V30 886 N 97.7267 0.0920373 -5.80427 0
M  V30 887 H 100.492 -1.94477 -2.28033 0
M  V30 888 H 98.0527 -1.15704 -1.13244 0
M  V30 889 H 100.045 -0.130066 -4.04491 0
M  V30 890 H 98.6147 0.364459 -3.10468 0
M  V30 891 H 97.8347 -2.11109 -3.32906 0
M  V30 892 H 99.1227 -2.31854 -4.52903 0
M  V30 893 H 98.5207 0.670784 -5.61709 0
M  V30 894 H 97.0777 0.389905 -6.50633 0
M  V30 895 N 100.511 1.16574 -1.06058 0
M  V30 896 C 101.759 1.86677 -0.77434 0
M  V30 897 C 102.08 1.81959 0.701147 0
M  V30 898 O 101.35 1.2515 1.50713 0
M  V30 899 H 99.9298 0.691134 -0.283449 0
M  V30 900 H 102.592 1.41378 -1.34158 0
M  V30 901 H 101.688 2.92181 -1.09711 0
M  V30 902 N 101.989 0.842826 1.3317 0
M  V30 903 C 103.237 0.439577 1.97262 0
M  V30 904 C 103.558 -1.00548 1.67078 0
M  V30 905 O 102.828 -1.70098 0.971779 0
M  V30 906 H 101.408 0.159558 0.72976 0
M  V30 907 H 104.07 1.07665 1.62463 0
M  V30 908 H 103.166 0.574886 3.0676 0
M  V30 909 N 103.467 -1.45747 0.599634 0
M  V30 910 C 104.4 -2.27547 -0.172552 0
M  V30 911 C 105.378 -1.36657 -0.881116 0
M  V30 912 O 106.562 -1.66081 -0.891595 0
M  V30 913 C 103.689 -3.14829 -1.24903 0
M  V30 914 C 102.735 -4.21603 -0.644465 0
M  V30 915 S 103.568 -5.32754 0.541606 0
M  V30 916 C 104.724 -6.23604 -0.535656 0
M  V30 917 H 104.957 -2.92691 0.521468 0
M  V30 918 H 102.49 -1.49473 0.386947 0
M  V30 919 H 104.448 -3.65675 -1.86527 0
M  V30 920 H 103.109 -2.48965 -1.91508 0
M  V30 921 H 102.302 -4.82566 -1.45417 0
M  V30 922 H 101.904 -3.73857 -0.103534 0
M  V30 923 H 104.196 -6.62519 -1.41686 0
M  V30 924 H 105.139 -7.0809 0.0376246 0
M  V30 925 H 105.547 -5.58103 -0.84741 0
M  V30 926 N 104.945 -0.338344 -1.53925 0
M  V30 927 C 106.356 0.146651 -1.86123 0
M  V30 928 C 106.707 1.5042 -1.2597 0
M  V30 929 O 105.832 2.08723 -0.571294 0
M  V30 930 C 106.427 0.272879 -3.37699 0
M  V30 931 C 104.986 0.702103 -3.69794 0
M  V30 932 C 104.133 -0.167304 -2.76795 0
M  V30 933 H 107.084 -0.558123 -1.48562 0
M  V30 934 H 107.105 1.10128 -3.64214 0
M  V30 935 H 106.617 -0.715307 -3.81451 0
M  V30 936 H 104.718 1.6995 -3.31584 0
M  V30 937 H 104.831 0.495604 -4.7653 0
M  V30 938 H 103.195 0.359527 -2.5215 0
M  V30 939 H 103.978 -1.15253 -3.23375 0
M  V30 940 N 106.423 1.57458 -0.0668435 0
M  V30 941 C 107.671 1.92919 0.602214 0
M  V30 942 C 107.992 0.947215 1.70449 0
M  V30 943 O 107.262 -0.00544117 1.95899 0
M  V30 944 H 105.842 0.71217 0.22544 0
M  V30 945 H 108.504 1.94508 -0.123535 0
M  V30 946 H 107.6 2.94589 1.03073 0
M  V30 947 N 107.901 -0.206675 1.56239 0
M  V30 948 C 109.149 -0.927007 1.79586 0
M  V30 949 C 109.47 -1.8427 0.637929 0
M  V30 950 O 108.74 -1.92849 -0.344398 0
M  V30 951 H 107.32 -0.345292 0.662407 0
M  V30 952 H 109.982 -0.21496 1.93711 0
M  V30 953 H 109.078 -1.52501 2.72305 0
M  V30 954 N 109.379 -1.50304 -0.473955 0
M  V30 955 C 110.628 -1.60392 -1.22301 0
M  V30 956 C 110.941 -0.308411 -1.93153 0
M  V30 957 O 112.147 -0.288156 -2.69966 0
M  V30 958 C 110.603 -2.83109 -2.2221 0
M  V30 959 C 110.211 -4.19524 -1.57173 0
M  V30 960 C 111.955 -3.0254 -2.97775 0
M  V30 961 C 109.862 -5.33431 -2.55353 0
M  V30 962 H 108.792 -0.597286 -0.460179 0
M  V30 963 H 111.443 -1.76731 -0.493803 0
M  V30 964 H 109.825 -2.60322 -2.9841 0
M  V30 965 H 110.999 -4.52554 -0.867824 0
M  V30 966 H 109.314 -4.05674 -0.939002 0
M  V30 967 H 111.911 -3.84811 -3.71248 0
M  V30 968 H 112.254 -2.14154 -3.56992 0
M  V30 969 H 112.787 -3.25494 -2.28688 0
M  V30 970 H 109.526 -6.23962 -2.00878 0
M  V30 971 H 109.046 -5.04823 -3.23904 0
M  V30 972 H 110.725 -5.63887 -3.17239 0
M  V30 973 N 110.857 0.726932 -1.39834 0
M  V30 974 C 111.82 1.82269 -1.38962 0
M  V30 975 C 112.82 1.58248 -0.285334 0
M  V30 976 O 114.01 1.65499 -0.54366 0
M  V30 977 C 111.142 3.20186 -1.17019 0
M  V30 978 H 112.335 1.84443 -2.36476 0
M  V30 979 H 109.888 0.931416 -1.25516 0
M  V30 980 H 110.623 3.23669 -0.202204 0
M  V30 981 H 110.408 3.3902 -1.96998 0
M  V30 982 H 111.898 4.00235 -1.1917 0
M  V30 983 N 112.336 1.25143 0.95797 0
M  V30 984 C 113.283 1.05235 2.05412 0
M  V30 985 C 114.253 -0.0374561 1.66058 0
M  V30 986 O 115.438 0.119073 1.90428 0
M  V30 987 C 112.578 0.673589 3.38462 0
M  V30 988 C 111.691 1.8379 3.90954 0
M  V30 989 C 110.826 1.40381 5.12315 0
M  V30 990 C 109.865 2.53746 5.57027 0
M  V30 991 N 109.002 2.11136 6.69601 0
M  V30 992 H 113.842 1.99048 2.21774 0
M  V30 993 H 111.379 0.991277 1.08683 0
M  V30 994 H 113.337 0.434964 4.14926 0
M  V30 995 H 111.967 -0.227554 3.21997 0
M  V30 996 H 111.019 2.18992 3.11041 0
M  V30 997 H 112.331 2.68937 4.20089 0
M  V30 998 H 111.485 1.12464 5.96185 0
M  V30 999 H 110.224 0.523015 4.84887 0
M  V30 1000 H 109.229 2.82412 4.71724 0
M  V30 1001 H 110.454 3.42398 5.86464 0
M  V30 1002 H 108.4 1.25468 6.4389 0
M  V30 1003 H 108.317 2.89832 6.98236 0
M  V30 1004 H 109.585 1.86385 7.56889 0
M  V30 1005 N 113.814 -1.1601 1.06675 0
M  V30 1006 C 115.062 -1.86264 0.784229 0
M  V30 1007 C 115.383 -1.82328 -0.691488 0
M  V30 1008 O 114.653 -1.25947 -1.50047 0
M  V30 1009 H 113.233 -0.689621 0.28711 0
M  V30 1010 H 115.895 -1.40664 1.34906 0
M  V30 1011 H 114.991 -2.91595 1.11259 0
M  V30 1012 N 115.292 -0.849877 -1.32721 0
M  V30 1013 C 116.255 -0.296122 -2.27279 0
M  V30 1014 C 117.255 0.541458 -1.5141 0
M  V30 1015 O 118.445 0.353658 -1.70572 0
M  V30 1016 C 115.577 0.581579 -3.35902 0
M  V30 1017 H 116.77 -1.13064 -2.77771 0
M  V30 1018 H 114.323 -0.62383 -1.43311 0
M  V30 1019 H 115.058 1.43809 -2.9067 0
M  V30 1020 H 114.843 -0.0178814 -3.92096 0
M  V30 1021 H 116.333 0.961951 -4.0637 0
M  V30 1022 N 116.77 1.45427 -0.607355 0
M  V30 1023 C 117.68 2.34325 0.113463 0
M  V30 1024 C 118.696 1.51226 0.860617 0
M  V30 1025 O 119.872 1.84029 0.818255 0
M  V30 1026 C 116.937 3.28839 1.09844 0
M  V30 1027 C 115.998 4.27844 0.353271 0
M  V30 1028 C 115.231 5.17842 1.29133 0
M  V30 1029 O 115.454 5.11264 2.52913 0
M  V30 1030 O 114.388 5.96713 0.788523 0
M  V30 1031 H 118.214 2.97364 -0.617094 0
M  V30 1032 H 115.799 1.44807 -0.367619 0
M  V30 1033 H 117.681 3.8708 1.66575 0
M  V30 1034 H 116.356 2.68365 1.81003 0
M  V30 1035 H 115.263 3.7322 -0.256494 0
M  V30 1036 H 116.596 4.91173 -0.317822 0
M  V30 1037 N 118.248 0.346503 1.53744 0
M  V30 1038 C 119.211 -0.496439 2.23759 0
M  V30 1039 C 120.211 -1.0252 1.2388 0
M  V30 1040 O 121.401 -0.913974 1.48297 0
M  V30 1041 C 118.533 -1.69187 2.95954 0
M  V30 1042 H 119.726 0.115952 2.99676 0
M  V30 1043 H 117.279 0.0978939 1.55993 0
M  V30 1044 H 118.014 -2.34288 2.24231 0
M  V30 1045 H 117.799 -1.31989 3.69217 0
M  V30 1046 H 119.289 -2.28969 3.49232 0
M  V30 1047 N 119.726 -1.57421 0.075193 0
M  V30 1048 C 120.636 -2.1642 -0.905511 0
M  V30 1049 C 121.652 -1.12828 -1.32461 0
M  V30 1050 O 122.828 -1.45109 -1.39661 0
M  V30 1051 C 119.893 -2.71693 -2.15369 0
M  V30 1052 C 118.954 -3.90171 -1.79068 0
M  V30 1053 C 118.187 -4.42798 -2.97936 0
M  V30 1054 O 118.41 -3.94416 -4.12058 0
M  V30 1055 O 117.344 -5.34085 -2.77555 0
M  V30 1056 H 121.17 -3.00588 -0.433626 0
M  V30 1057 H 118.755 -1.48664 -0.148067 0
M  V30 1058 H 120.637 -3.07104 -2.88557 0
M  V30 1059 H 119.312 -1.90582 -2.61649 0
M  V30 1060 H 118.219 -3.59606 -1.03122 0
M  V30 1061 H 119.552 -4.72584 -1.37569 0
M  V30 1062 N 121.204 0.198386 -1.56346 0
M  V30 1063 C 122.167 1.22952 -1.93431 0
M  V30 1064 C 123.167 1.38611 -0.815092 0
M  V30 1065 O 124.357 1.36479 -1.08255 0
M  V30 1066 C 121.489 2.59946 -2.20546 0
M  V30 1067 H 122.682 0.912626 -2.85677 0
M  V30 1068 H 120.235 0.43977 -1.49986 0
M  V30 1069 H 120.97 2.96696 -1.30927 0
M  V30 1070 H 120.755 2.49953 -3.02102 0
M  V30 1071 H 122.245 3.3431 -2.50253 0
M  V30 1072 N 122.682 1.50554 0.465978 0
M  V30 1073 C 123.928 1.62038 1.21949 0
M  V30 1074 C 124.261 0.322116 1.9151 0
M  V30 1075 O 123.536 -0.676723 1.82348 0
M  V30 1076 C 123.819 2.80421 2.25912 0
M  V30 1077 C 123.672 4.20144 1.60622 0
M  V30 1078 C 124.991 2.94354 3.27176 0
M  V30 1079 H 122.11 0.589752 0.441998 0
M  V30 1080 H 124.752 1.82956 0.51257 0
M  V30 1081 H 122.902 2.62717 2.86203 0
M  V30 1082 H 124.574 4.49449 1.03889 0
M  V30 1083 H 122.817 4.24165 0.909211 0
M  V30 1084 H 123.488 4.98914 2.36196 0
M  V30 1085 H 125.964 3.10578 2.76913 0
M  V30 1086 H 124.84 3.788 3.97242 0
M  V30 1087 H 125.101 2.05186 3.916 0
M  V30 1088 N 124.16 -0.719506 1.40217 0
M  V30 1089 C 125.123 -1.8153 1.39927 0
M  V30 1090 C 126.123 -1.58095 0.293723 0
M  V30 1091 O 127.313 -1.65209 0.552429 0
M  V30 1092 C 124.445 -3.19561 1.18716 0
M  V30 1093 H 125.638 -1.83186 2.37451 0
M  V30 1094 H 123.191 -0.924746 1.26008 0
M  V30 1095 H 123.926 -3.23557 0.219366 0
M  V30 1096 H 123.711 -3.3797 1.98793 0
M  V30 1097 H 125.201 -3.99598 1.21291 0
M  V30 1098 N 125.638 -1.25649 -0.95132 0
M  V30 1099 C 126.601 -1.06399 -2.03007 0
M  V30 1100 C 127.601 -0.0156794 -1.60792 0
M  V30 1101 O 128.791 -0.25817 -1.72276 0
M  V30 1102 C 125.923 -0.616184 -3.35285 0
M  V30 1103 H 127.116 -2.02164 -2.21517 0
M  V30 1104 H 124.669 -1.08103 -1.12887 0
M  V30 1105 H 125.404 0.343917 -3.22471 0
M  V30 1106 H 125.189 -1.37301 -3.67275 0
M  V30 1107 H 126.679 -0.503032 -4.14559 0
M  V30 1108 N 127.117 1.15442 -1.07289 0
M  V30 1109 C 128.363 1.8672 -0.806679 0
M  V30 1110 C 128.718 1.80723 0.660084 0
M  V30 1111 O 128.011 1.21902 1.47819 0
M  V30 1112 C 128.205 3.3489 -1.24834 0
M  V30 1113 C 128.034 3.55313 -2.7565 0
M  V30 1114 C 126.804 3.7082 -3.4325 0
M  V30 1115 C 129.002 3.53188 -3.73848 0
M  V30 1116 N 126.984 3.7929 -4.82713 0
M  V30 1117 C 128.355 3.67765 -4.99149 0
M  V30 1118 C 130.41 3.36459 -3.67015 0
M  V30 1119 C 129.113 3.6734 -6.18428 0
M  V30 1120 C 131.139 3.37333 -4.85758 0
M  V30 1121 C 130.501 3.52438 -6.09891 0
M  V30 1122 H 126.6 0.700433 -0.347733 0
M  V30 1123 H 129.184 1.38441 -1.36902 0
M  V30 1124 H 127.355 3.81786 -0.713713 0
M  V30 1125 H 129.087 3.93875 -0.929745 0
M  V30 1126 H 125.842 3.71568 -2.93656 0
M  V30 1127 H 126.266 3.8727 -5.55294 0
M  V30 1128 H 130.908 3.237 -2.71989 0
M  V30 1129 H 128.626 3.78878 -7.13777 0
M  V30 1130 H 132.212 3.25617 -4.82146 0
M  V30 1131 H 131.092 3.53047 -7.00234 0
M  V30 1132 N 128.595 0.856903 1.32268 0
M  V30 1133 C 129.525 0.31858 2.31316 0
M  V30 1134 C 130.506 -0.583487 1.59779 0
M  V30 1135 O 131.691 -0.503259 1.87566 0
M  V30 1136 C 128.821 -0.491979 3.43798 0
M  V30 1137 C 127.775 0.315849 4.26833 0
M  V30 1138 C 127.101 -0.619586 5.31098 0
M  V30 1139 C 128.401 1.54282 4.98993 0
M  V30 1140 H 130.095 1.14621 2.76591 0
M  V30 1141 H 127.641 0.552613 1.32974 0
M  V30 1142 H 129.594 -0.879012 4.1213 0
M  V30 1143 H 128.318 -1.35299 2.97257 0
M  V30 1144 H 126.977 0.684664 3.6015 0
M  V30 1145 H 126.625 -1.47751 4.8081 0
M  V30 1146 H 126.325 -0.0830621 5.87541 0
M  V30 1147 H 127.849 -1.00375 6.02293 0
M  V30 1148 H 129.263 1.22796 5.59995 0
M  V30 1149 H 127.66 2.01745 5.65172 0
M  V30 1150 H 128.73 2.30285 4.26728 0
M  V30 1151 N 130.073 -1.45103 0.615059 0
M  V30 1152 C 131.036 -2.29025 -0.0895485 0
M  V30 1153 C 132.036 -1.40174 -0.787906 0
M  V30 1154 O 133.226 -1.62217 -0.634933 0
M  V30 1155 C 130.358 -3.21376 -1.13711 0
M  V30 1156 H 131.551 -2.92807 0.648382 0
M  V30 1157 H 129.104 -1.51749 0.374444 0
M  V30 1158 H 129.839 -2.6241 -1.90556 0
M  V30 1159 H 129.624 -3.86834 -0.640475 0
M  V30 1160 H 131.114 -3.84459 -1.63036 0
M  V30 1161 N 131.551 -0.354651 -1.53558 0
M  V30 1162 C 132.461 0.50515 -2.29097 0
M  V30 1163 C 133.477 1.10223 -1.34636 0
M  V30 1164 O 134.653 1.11553 -1.67684 0
M  V30 1165 C 131.718 1.63479 -3.05738 0
M  V30 1166 C 130.779 1.06636 -4.15845 0
M  V30 1167 C 130.012 2.14217 -4.88822 0
M  V30 1168 O 130.235 3.35137 -4.61562 0
M  V30 1169 O 129.169 1.77887 -5.75013 0
M  V30 1170 H 132.995 -0.109237 -3.03503 0
M  V30 1171 H 130.58 -0.119357 -1.48922 0
M  V30 1172 H 132.462 2.2918 -3.5363 0
M  V30 1173 H 131.137 2.23478 -2.34178 0
M  V30 1174 H 130.044 0.373565 -3.7223 0
M  V30 1175 H 131.377 0.511081 -4.89539 0
M  V30 1176 N 133.029 1.57378 -0.0835403 0
M  V30 1177 C 133.976 2.13384 0.879539 0
M  V30 1178 C 134.946 1.04936 1.28754 0
M  V30 1179 O 136.131 1.32662 1.37133 0
M  V30 1180 C 133.271 2.70932 2.13752 0
M  V30 1181 C 132.384 3.93575 1.7811 0
M  V30 1182 C 131.519 4.39326 2.98607 0
M  V30 1183 C 130.558 5.54587 2.59037 0
M  V30 1184 N 129.695 5.95243 3.72331 0
M  V30 1185 H 134.535 2.9537 0.395076 0
M  V30 1186 H 132.072 1.45953 0.183349 0
M  V30 1187 H 134.03 3.02411 2.87408 0
M  V30 1188 H 132.66 1.91693 2.59718 0
M  V30 1189 H 131.712 3.68483 0.94469 0
M  V30 1190 H 133.024 4.77258 1.45005 0
M  V30 1191 H 132.178 4.72528 3.80529 0
M  V30 1192 H 130.917 3.5452 3.34913 0
M  V30 1193 H 129.922 5.21024 1.75539 0
M  V30 1194 H 131.147 6.41133 2.23887 0
M  V30 1195 H 129.093 5.13385 4.08378 0
M  V30 1196 H 129.01 6.73694 3.43034 0
M  V30 1197 H 130.278 6.33072 4.54797 0
M  V30 1198 N 134.507 -0.190092 1.56449 0
M  V30 1199 C 135.454 -1.23557 1.94942 0
M  V30 1200 C 136.424 -1.44972 0.810696 0
M  V30 1201 O 137.609 -1.58023 1.06927 0
M  V30 1202 C 134.749 -2.57416 2.2985 0
M  V30 1203 C 133.862 -2.43537 3.5681 0
M  V30 1204 C 132.997 -3.70134 3.81017 0
M  V30 1205 C 132.036 -3.51109 5.01387 0
M  V30 1206 N 131.173 -4.6973 5.21822 0
M  V30 1207 H 136.013 -0.900304 2.84075 0
M  V30 1208 H 133.55 -0.43318 1.40577 0
M  V30 1209 H 135.508 -3.35409 2.48106 0
M  V30 1210 H 134.138 -2.88975 1.43852 0
M  V30 1211 H 133.19 -1.56816 3.46573 0
M  V30 1212 H 134.502 -2.25415 4.4496 0
M  V30 1213 H 133.656 -4.56566 3.9954 0
M  V30 1214 H 132.395 -3.91215 2.91207 0
M  V30 1215 H 131.4 -2.63063 4.82782 0
M  V30 1216 H 132.625 -3.31468 5.9271 0
M  V30 1217 H 130.571 -4.91065 4.34961 0
M  V30 1218 H 130.488 -4.54452 6.0416 0
M  V30 1219 H 131.756 -5.57499 5.44808 0
M  V30 1220 O 136.024 -1.57982 -0.335264 0
M  V30 1221 H 136.715 -1.6682 -0.984419 0
M  V30 END ATOM
M  V30 BEGIN BOND
M  V30 END BOND
M  V30 END CTAB
M  END
$$$$
