drugbank_target|P83223 Fumarate reductase flavoprotein subunit (DB00518; DB01677; DB03147)
 OpenBabel12092119553D

  0  0  0     0  0            999 V3000
M  V30 BEGIN CTAB
M  V30 COUNTS 8773 8843 0 0 0
M  V30 BEGIN ATOM
M  V30 1 H -0.908 1.98254 -0.117106 0
M  V30 2 N 0 1.576 0 0
M  V30 3 C 0.933 2.03868 1.02534 0
M  V30 4 C 1.911 0.928543 1.3348 0
M  V30 5 O 3.095 1.19667 1.45644 0
M  V30 6 C 0.222 2.43627 2.35294 0
M  V30 7 C -0.732 3.65373 2.2001 0
M  V30 8 S 0.101 5.13292 1.52614 0
M  V30 9 C 1.257 5.56322 2.86805 0
M  V30 10 H 1.49 2.90518 0.631377 0
M  V30 11 H -0.977 1.52953 0.210867 0
M  V30 12 H 0.981 2.67203 3.11629 0
M  V30 13 H -0.358 1.57376 2.7183 0
M  V30 14 H -1.165 3.90944 3.18086 0
M  V30 15 H -1.563 3.418 1.51819 0
M  V30 16 H 0.729 5.58782 3.83104 0
M  V30 17 H 1.672 6.56266 2.65933 0
M  V30 18 H 2.08 4.83886 2.90714 0
M  V30 19 N 1.4781 -0.272755 1.55222 0
M  V30 20 C 2.7251 -1.00433 1.7584 0
M  V30 21 C 3.0531 -1.86275 0.559629 0
M  V30 22 O 2.3081 -1.90269 -0.457857 0
M  V30 23 C 2.6071 -1.91642 3.01675 0
M  V30 24 C 2.2731 -1.21548 4.34208 0
M  V30 25 C 0.9351 -1.02166 4.70229 0
M  V30 26 C 3.2871 -0.716684 5.16249 0
M  V30 27 C 0.6151 -0.316334 5.85847 0
M  V30 28 C 2.9671 -0.0249476 6.32595 0
M  V30 29 C 1.6311 0.180579 6.67256 0
M  V30 30 H 0.9011 -0.367509 0.643443 0
M  V30 31 H 3.5481 -0.276596 1.89492 0
M  V30 32 H 1.8531 -2.71037 2.82924 0
M  V30 33 H 3.5501 -2.48369 3.14824 0
M  V30 34 H 0.1401 -1.37645 4.05896 0
M  V30 35 H 4.3241 -0.854047 4.88896 0
M  V30 36 H -0.4199 -0.146378 6.11225 0
M  V30 37 H 3.7541 0.369311 6.9542 0
M  V30 38 H 1.3811 0.729098 7.56696 0
M  V30 39 N 2.9562 -1.48159 -0.537278 0
M  V30 40 C 4.1842 -1.59454 -1.31841 0
M  V30 41 C 4.5992 -0.252065 -1.8711 0
M  V30 42 O 3.9562 0.757621 -1.66031 0
M  V30 43 C 4.0072 -2.63546 -2.47439 0
M  V30 44 O 3.7282 -3.92583 -1.94449 0
M  V30 45 C 5.2292 -2.85212 -3.39366 0
M  V30 46 H 2.4492 -0.53785 -0.401196 0
M  V30 47 H 4.9932 -1.93932 -0.648891 0
M  V30 48 H 3.1482 -2.31946 -3.1029 0
M  V30 49 H 3.5622 -4.49629 -2.70063 0
M  V30 50 H 5.0362 -3.61863 -4.16844 0
M  V30 51 H 5.5132 -1.93765 -3.94147 0
M  V30 52 H 6.1192 -3.18086 -2.82314 0
M  V30 53 N 4.4343 0.785586 -1.36625 0
M  V30 54 C 5.8503 1.08419 -1.17122 0
M  V30 55 C 6.0503 2.015 0.00208491 0
M  V30 56 O 5.1063 2.43551 0.666278 0
M  V30 57 C 6.4193 1.69498 -2.48377 0
M  V30 58 C 7.9673 1.81821 -2.54775 0
M  V30 59 C 8.4423 2.46315 -3.86126 0
M  V30 60 N 9.9333 2.53779 -3.87492 0
M  V30 61 C 10.6683 3.045 -4.85868 0
M  V30 62 N 10.1643 3.55499 -5.94637 0
M  V30 63 N 11.9573 3.03247 -4.73284 0
M  V30 64 H 4.1083 0.167264 -2.1174 0
M  V30 65 H 6.3713 0.13682 -0.938075 0
M  V30 66 H 6.0773 1.08571 -3.34522 0
M  V30 67 H 5.9513 2.6896 -2.64462 0
M  V30 68 H 8.3383 2.41884 -1.69045 0
M  V30 69 H 8.4193 0.811532 -2.42586 0
M  V30 70 H 8.0633 1.86895 -4.72263 0
M  V30 71 H 7.9933 3.47561 -3.95612 0
M  V30 72 H 10.4843 2.17672 -3.08913 0
M  V30 73 H 10.7973 3.92562 -6.65669 0
M  V30 74 H 9.1423 3.5364 -5.98301 0
M  V30 75 H 12.3333 2.62696 -3.87438 0
M  V30 76 H 12.5063 3.42467 -5.50109 0
M  V30 77 N 5.9124 1.20967 1.01018 0
M  V30 78 C 6.8594 0.964281 2.09691 0
M  V30 79 C 7.8294 -0.107853 1.65749 0
M  V30 80 O 9.0144 0.0381987 1.90762 0
M  V30 81 C 6.1544 0.52943 3.41015 0
M  V30 82 C 5.2674 1.67043 3.98398 0
M  V30 83 C 4.4024 1.18525 5.17808 0
M  V30 84 C 3.4414 2.29892 5.67288 0
M  V30 85 N 2.5784 1.82546 6.77954 0
M  V30 86 H 7.4184 1.89463 2.30017 0
M  V30 87 H 4.9554 0.944289 1.1279 0
M  V30 88 H 6.9134 0.258588 4.16398 0
M  V30 89 H 5.5434 -0.363919 3.20742 0
M  V30 90 H 4.5954 2.05603 3.20049 0
M  V30 91 H 5.9074 2.50877 4.31117 0
M  V30 92 H 5.0614 0.870762 6.00419 0
M  V30 93 H 3.8004 0.316887 4.86669 0
M  V30 94 H 2.8054 2.6215 4.83278 0
M  V30 95 H 4.0304 3.17216 6.00459 0
M  V30 96 H 1.9764 0.980454 6.48632 0
M  V30 97 H 1.8934 2.59956 7.09901 0
M  V30 98 H 3.1614 1.54115 7.64113 0
M  V30 99 N 7.3905 -1.2043 1.01659 0
M  V30 100 C 8.6395 -1.89118 0.701237 0
M  V30 101 C 8.9525 -1.79705 -0.772358 0
M  V30 102 O 10.1585 -2.43528 -1.20026 0
M  V30 103 C 8.6145 -3.39168 1.20388 0
M  V30 104 C 8.2225 -3.57166 2.70438 0
M  V30 105 C 9.9665 -4.1341 0.963953 0
M  V30 106 C 7.8735 -5.01042 3.14183 0
M  V30 107 H 6.8035 -0.708267 0.2586 0
M  V30 108 H 9.4545 -1.36239 1.22927 0
M  V30 109 H 7.8365 -3.91369 0.603824 0
M  V30 110 H 9.0105 -3.15351 3.35992 0
M  V30 111 H 7.3255 -2.96294 2.92572 0
M  V30 112 H 9.9225 -5.19491 1.26621 0
M  V30 113 H 10.2655 -4.16181 -0.099578 0
M  V30 114 H 10.7985 -3.67309 1.52738 0
M  V30 115 H 7.5375 -5.03426 4.19812 0
M  V30 116 H 7.0575 -5.43668 2.53348 0
M  V30 117 H 8.7365 -5.69623 3.0682 0
M  V30 118 N 8.8686 -0.792821 -1.36206 0
M  V30 119 C 9.8006 -0.151469 -2.28699 0
M  V30 120 C 10.8136 0.641262 -1.49638 0
M  V30 121 O 12.0026 0.475885 -1.72039 0
M  V30 122 C 9.1026 0.808424 -3.29117 0
M  V30 123 C 8.2756 0.0650202 -4.37352 0
M  V30 124 C 7.3346 0.941358 -5.17711 0
M  V30 125 O 6.3606 0.397352 -5.67811 0
M  V30 126 N 7.5626 2.2652 -5.3448 0
M  V30 127 H 10.3276 -0.945982 -2.84379 0
M  V30 128 H 7.8886 -0.647032 -1.48409 0
M  V30 129 H 9.8806 1.3986 -3.79765 0
M  V30 130 H 8.4506 1.5038 -2.74052 0
M  V30 131 H 7.6706 -0.706255 -3.87822 0
M  V30 132 H 8.9586 -0.447847 -5.06825 0
M  V30 133 H 8.3566 2.73128 -4.95396 0
M  V30 134 H 6.9136 2.80493 -5.88359 0
M  V30 135 N 10.3467 1.47872 -0.545128 0
M  V30 136 C 11.2937 2.29849 0.2093 0
M  V30 137 C 12.2637 1.38313 0.919707 0
M  V30 138 O 13.4487 1.67277 0.917772 0
M  V30 139 C 10.5887 3.22019 1.24088 0
M  V30 140 C 9.7017 4.2864 0.537778 0
M  V30 141 C 8.8367 5.07973 1.5536 0
M  V30 142 C 7.8757 6.06381 0.8348 0
M  V30 143 N 7.0127 6.78717 1.79688 0
M  V30 144 H 11.8527 2.93845 -0.49591 0
M  V30 145 H 9.3897 1.44848 -0.256389 0
M  V30 146 H 11.3477 3.73868 1.85144 0
M  V30 147 H 9.9777 2.59914 1.91428 0
M  V30 148 H 9.0297 3.7994 -0.187046 0
M  V30 149 H 10.3417 4.98793 -0.0258907 0
M  V30 150 H 9.4957 5.63912 2.23803 0
M  V30 151 H 8.2347 4.37693 2.15118 0
M  V30 152 H 7.2397 5.49631 0.136388 0
M  V30 153 H 8.4647 6.78665 0.24313 0
M  V30 154 H 6.4107 6.11177 2.38326 0
M  V30 155 H 6.3277 7.44998 1.28505 0
M  V30 156 H 7.5957 7.39237 2.47282 0
M  V30 157 N 11.8248 0.280983 1.55075 0
M  V30 158 C 13.0528 -0.337293 2.04132 0
M  V30 159 C 13.4678 -1.4903 1.15912 0
M  V30 160 O 12.8248 -1.81606 0.180459 0
M  V30 161 C 12.8758 -0.812706 3.52246 0
M  V30 162 O 12.5968 0.294387 4.3711 0
M  V30 163 C 14.0978 -1.4982 4.17216 0
M  V30 164 H 11.3178 -0.0761638 0.666663 0
M  V30 165 H 13.8618 0.414787 2.00249 0
M  V30 166 H 12.0168 -1.51486 3.56554 0
M  V30 167 H 12.4308 -0.0721325 5.2445 0
M  V30 168 H 13.9048 -1.7822 5.22438 0
M  V30 169 H 14.3818 -2.43168 3.65741 0
M  V30 170 H 14.9878 -0.839742 4.16927 0
M  V30 171 N 13.3029 -1.57598 0.00835791 0
M  V30 172 C 14.2659 -2.07884 -0.965242 0
M  V30 173 C 15.2659 -0.989825 -1.26725 0
M  V30 174 O 16.4559 -1.25218 -1.21104 0
M  V30 175 C 13.5879 -2.52731 -2.28779 0
M  V30 176 H 14.7809 -2.95178 -0.530112 0
M  V30 177 H 12.3339 -1.54458 -0.239283 0
M  V30 178 H 13.0689 -1.68705 -2.76964 0
M  V30 179 H 12.8539 -3.32272 -2.08177 0
M  V30 180 H 14.3439 -2.91933 -2.98605 0
M  V30 181 N 14.781 0.264519 -1.55364 0
M  V30 182 C 15.711 1.33121 -1.91836 0
M  V30 183 C 16.692 1.51101 -0.781192 0
M  V30 184 O 17.877 1.64003 -1.04003 0
M  V30 185 C 15.007 2.68921 -2.19769 0
M  V30 186 C 13.961 2.65661 -3.35571 0
M  V30 187 C 13.287 4.05093 -3.49004 0
M  V30 188 C 14.587 2.24187 -4.71739 0
M  V30 189 H 16.281 1.02844 -2.81182 0
M  V30 190 H 13.827 0.493286 -1.35287 0
M  V30 191 H 15.78 3.43663 -2.43872 0
M  V30 192 H 14.504 3.00799 -1.27231 0
M  V30 193 H 13.163 1.93377 -3.1145 0
M  V30 194 H 12.811 4.34206 -2.53917 0
M  V30 195 H 12.511 4.03804 -4.26868 0
M  V30 196 H 14.035 4.81561 -3.75408 0
M  V30 197 H 15.449 2.88654 -4.9533 0
M  V30 198 H 13.846 2.34044 -5.52579 0
M  V30 199 H 14.916 1.19327 -4.69988 0
M  V30 200 N 16.2591 1.48442 0.529413 0
M  V30 201 C 17.2221 1.62524 1.61612 0
M  V30 202 C 18.2221 0.498509 1.52877 0
M  V30 203 O 19.4121 0.76431 1.56537 0
M  V30 204 C 16.5441 1.59597 3.01233 0
M  V30 205 H 17.7371 2.59423 1.50465 0
M  V30 206 H 15.2901 1.37047 0.751514 0
M  V30 207 H 16.0251 0.641781 3.17886 0
M  V30 208 H 15.8101 2.41397 3.08982 0
M  V30 209 H 17.3001 1.72646 3.80241 0
M  V30 210 N 17.7372 -0.778329 1.37039 0
M  V30 211 C 18.6702 -1.8984 1.26633 0
M  V30 212 C 19.6482 -1.61923 0.148197 0
M  V30 213 O 20.8322 -1.85742 0.321265 0
M  V30 214 C 17.9592 -3.24916 0.956403 0
M  V30 215 C 17.0052 -3.71752 2.09051 0
M  V30 216 S 17.8382 -3.86201 3.70957 0
M  V30 217 C 18.9942 -5.24135 3.42101 0
M  V30 218 H 19.2272 -1.98377 2.21436 0
M  V30 219 H 16.7602 -0.938738 1.22585 0
M  V30 220 H 18.7182 -4.02936 0.784409 0
M  V30 221 H 17.3792 -3.14089 0.0259713 0
M  V30 222 H 16.5722 -4.69661 1.8285 0
M  V30 223 H 16.1742 -3.00815 2.2223 0
M  V30 224 H 18.4662 -6.09086 2.96682 0
M  V30 225 H 19.4092 -5.55346 4.39314 0
M  V30 226 H 19.8172 -4.91761 2.77185 0
M  V30 227 N 19.2153 -1.21501 -1.00376 0
M  V30 228 C 20.1453 -0.999478 -2.11028 0
M  V30 229 C 21.1263 0.0759671 -1.6993 0
M  V30 230 O 22.3113 -0.0841106 -1.94018 0
M  V30 231 C 19.4413 -0.564709 -3.42678 0
M  V30 232 C 18.3953 -1.58486 -3.97576 0
M  V30 233 C 17.7213 -1.00628 -5.25146 0
M  V30 234 C 19.0213 -2.97204 -4.29496 0
M  V30 235 H 20.7153 -1.92495 -2.29317 0
M  V30 236 H 18.2613 -0.92693 -1.102 0
M  V30 237 H 20.2143 -0.401091 -4.19487 0
M  V30 238 H 18.9383 0.396411 -3.24185 0
M  V30 239 H 17.5973 -1.73606 -3.22888 0
M  V30 240 H 17.2453 -0.0368439 -5.02987 0
M  V30 241 H 16.9453 -1.68771 -5.62841 0
M  V30 242 H 18.4693 -0.854015 -6.04598 0
M  V30 243 H 19.8833 -2.8552 -4.97143 0
M  V30 244 H 18.2803 -3.62372 -4.78338 0
M  V30 245 H 19.3503 -3.47956 -3.3772 0
M  V30 246 N 20.6934 1.19889 -1.02296 0
M  V30 247 C 21.9424 1.88743 -0.711257 0
M  V30 248 C 22.2554 1.80112 0.762817 0
M  V30 249 O 23.4614 2.44161 1.18733 0
M  V30 250 C 21.9174 3.38525 -1.22185 0
M  V30 251 C 21.5254 3.55727 -2.72328 0
M  V30 252 C 23.2694 4.12893 -0.985864 0
M  V30 253 C 21.1764 4.99369 -3.16835 0
M  V30 254 H 20.1064 0.706885 -0.262353 0
M  V30 255 H 22.7574 1.35586 -1.23648 0
M  V30 256 H 21.1394 3.91044 -0.624571 0
M  V30 257 H 22.3134 3.13564 -3.3766 0
M  V30 258 H 20.6284 2.94739 -2.9414 0
M  V30 259 H 23.2254 5.18813 -1.29374 0
M  V30 260 H 23.5684 4.16228 0.0775055 0
M  V30 261 H 24.1014 3.66494 -1.54684 0
M  V30 262 H 20.8404 5.01193 -4.22476 0
M  V30 263 H 20.3604 5.42317 -2.56228 0
M  V30 264 H 22.0394 5.67988 -3.09837 0
M  V30 265 N 22.1715 0.800033 1.35784 0
M  V30 266 C 23.3965 0.388511 2.03729 0
M  V30 267 C 23.8215 -0.990481 1.5991 0
M  V30 268 O 23.1795 -1.64013 0.772612 0
M  V30 269 C 23.2275 0.4726 3.5749 0
M  V30 270 O 22.3315 -0.51646 4.09153 0
M  V30 271 H 21.6725 0.163271 0.643614 0
M  V30 272 H 24.2025 1.0841 1.73518 0
M  V30 273 H 24.2125 0.34003 4.06581 0
M  V30 274 H 22.8875 1.47848 3.88734 0
M  V30 275 H 21.4645 -0.344673 3.71304 0
M  V30 276 N 23.6496 -1.47581 0.552962 0
M  V30 277 C 24.8976 -2.02082 0.0272703 0
M  V30 278 C 25.2186 -1.4301 -1.32563 0
M  V30 279 O 24.4886 -0.603745 -1.86365 0
M  V30 280 H 23.0686 -0.746966 0.00709182 0
M  V30 281 H 25.7306 -1.81033 0.722008 0
M  V30 282 H 24.8266 -3.12034 -0.0639951 0
M  V30 283 N 25.1277 -0.289203 -1.54924 0
M  V30 284 C 26.0907 0.579144 -2.21762 0
M  V30 285 C 27.0907 1.07047 -1.1999 0
M  V30 286 O 28.2807 0.968384 -1.44803 0
M  V30 287 C 25.4127 1.80055 -2.8947 0
M  V30 288 H 26.6057 -0.00464908 -2.999 0
M  V30 289 H 24.1587 -0.0399306 -1.56249 0
M  V30 290 H 24.8937 2.42449 -2.15381 0
M  V30 291 H 24.6787 1.45602 -3.64064 0
M  V30 292 H 26.1687 2.41773 -3.40493 0
M  V30 293 N 26.6058 1.57591 -0.0167156 0
M  V30 294 C 27.5388 2.04944 1.00366 0
M  V30 295 C 28.5168 0.942648 1.32487 0
M  V30 296 O 29.7008 1.21205 1.44367 0
M  V30 297 C 26.8278 2.46109 2.32697 0
M  V30 298 C 25.8738 3.67686 2.16123 0
M  V30 299 S 26.7068 5.14882 1.47161 0
M  V30 300 C 27.8628 5.59332 2.80888 0
M  V30 301 H 28.0958 2.91172 0.600528 0
M  V30 302 H 25.6288 1.53168 0.194632 0
M  V30 303 H 27.5868 2.70493 3.08778 0
M  V30 304 H 26.2478 1.6025 2.70146 0
M  V30 305 H 25.4408 3.94296 3.13922 0
M  V30 306 H 25.0428 3.43391 1.48185 0
M  V30 307 H 27.3348 5.62814 3.77156 0
M  V30 308 H 28.2778 6.5905 2.58958 0
M  V30 309 H 28.6858 4.86942 2.85565 0
M  V30 310 N 28.0839 -0.256276 1.55502 0
M  V30 311 C 29.0469 -1.30047 1.88734 0
M  V30 312 C 30.0469 -1.4154 0.763086 0
M  V30 313 O 31.2369 -1.40403 1.03115 0
M  V30 314 C 28.3689 -2.67953 2.10747 0
M  V30 315 H 29.5619 -1.01802 2.82093 0
M  V30 316 H 27.1149 -0.495134 1.4825 0
M  V30 317 H 27.8499 -3.01351 1.19825 0
M  V30 318 H 27.6349 -2.60993 2.92617 0
M  V30 319 H 29.1249 -3.43368 2.37673 0
M  V30 320 N 29.562 -1.4872 -0.521534 0
M  V30 321 C 30.81 -1.56857 -1.27437 0
M  V30 322 C 31.131 -0.247982 -1.93417 0
M  V30 323 O 30.401 0.731151 -1.81744 0
M  V30 324 H 28.981 -0.577885 -0.473347 0
M  V30 325 H 31.643 -1.85233 -0.606205 0
M  V30 326 H 30.739 -2.35402 -2.0492 0
M  V30 327 N 31.0401 0.771051 -1.3745 0
M  V30 328 C 32.2681 1.56015 -1.35893 0
M  V30 329 C 32.6831 1.88718 0.0555523 0
M  V30 330 O 32.0401 1.51502 1.01752 0
M  V30 331 C 32.0911 2.87001 -2.19801 0
M  V30 332 O 31.8121 2.557 -3.55738 0
M  V30 333 C 33.3131 3.81228 -2.26231 0
M  V30 334 H 30.5331 0.483317 -0.465453 0
M  V30 335 H 33.0771 0.955611 -1.80799 0
M  V30 336 H 31.2321 3.43877 -1.78402 0
M  V30 337 H 31.6461 3.39584 -3.99729 0
M  V30 338 H 33.1201 4.70139 -2.89263 0
M  V30 339 H 33.5971 4.20409 -1.27093 0
M  V30 340 H 34.2031 3.30281 -2.67945 0
M  V30 341 N 32.5182 1.22032 0.997298 0
M  V30 342 C 33.4812 0.987909 2.06816 0
M  V30 343 C 34.4812 -0.0440084 1.6074 0
M  V30 344 O 35.6712 0.194053 1.73116 0
M  V30 345 C 32.8032 0.49132 3.37341 0
M  V30 346 H 33.9962 1.93803 2.28868 0
M  V30 347 H 31.5492 1.03838 1.16822 0
M  V30 348 H 32.2842 -0.463364 3.20973 0
M  V30 349 H 32.0692 1.23575 3.72118 0
M  V30 350 H 33.5592 0.348824 4.16141 0
M  V30 351 N 33.9963 -1.19345 1.0293 0
M  V30 352 C 35.2263 -1.92717 0.744563 0
M  V30 353 C 35.6343 -1.75751 -0.700579 0
M  V30 354 O 34.9773 -1.07703 -1.48815 0
M  V30 355 C 35.0393 -3.44828 1.01657 0
M  V30 356 C 34.7033 -3.85564 2.45335 0
M  V30 357 C 35.7003 -3.90286 3.43472 0
M  V30 358 C 33.3853 -4.1719 2.79746 0
M  V30 359 C 35.3793 -4.26065 4.74075 0
M  V30 360 C 33.0663 -4.52642 4.10559 0
M  V30 361 C 34.0643 -4.57054 5.07534 0
M  V30 362 O 33.7523 -4.91685 6.36004 0
M  V30 363 H 33.4843 -0.618977 0.271742 0
M  V30 364 H 36.0383 -1.52415 1.37691 0
M  V30 365 H 34.2683 -3.85314 0.327084 0
M  V30 366 H 35.9573 -3.99437 0.721427 0
M  V30 367 H 36.7233 -3.66002 3.18225 0
M  V30 368 H 32.6023 -4.1294 2.04943 0
M  V30 369 H 36.1463 -4.29423 5.49765 0
M  V30 370 H 32.0433 -4.76383 4.35579 0
M  V30 371 H 32.8113 -5.09631 6.40483 0
M  V30 372 N 35.4744 -0.807222 -1.35358 0
M  V30 373 C 36.4374 -0.223665 -2.28106 0
M  V30 374 C 37.4374 0.589354 -1.4961 0
M  V30 375 O 38.6274 0.407745 -1.69361 0
M  V30 376 C 35.7594 0.688149 -3.33882 0
M  V30 377 H 36.9524 -1.04169 -2.81227 0
M  V30 378 H 34.5054 -0.577921 -1.45223 0
M  V30 379 H 35.2404 1.52984 -2.85948 0
M  V30 380 H 35.0254 0.10687 -3.91954 0
M  V30 381 H 36.5154 1.09075 -4.03104 0
M  V30 382 N 36.9525 1.47285 -0.560781 0
M  V30 383 C 37.9155 2.28535 0.174488 0
M  V30 384 C 38.9155 1.37153 0.839388 0
M  V30 385 O 40.1055 1.59748 0.694702 0
M  V30 386 C 37.2375 3.16934 1.25561 0
M  V30 387 H 38.4305 2.95012 -0.539262 0
M  V30 388 H 35.9835 1.53034 -0.317865 0
M  V30 389 H 36.7185 2.55157 2.00164 0
M  V30 390 H 36.5035 3.8419 0.783604 0
M  V30 391 H 37.9935 3.78143 1.77193 0
M  V30 392 N 38.4306 0.297415 1.54768 0
M  V30 393 C 39.8416 -0.195947 1.85669 0
M  V30 394 C 40.1926 -1.53707 1.21937 0
M  V30 395 O 39.3176 -2.10164 0.515754 0
M  V30 396 C 39.9126 -0.362318 3.36857 0
M  V30 397 C 38.4716 -0.799901 3.67802 0
M  V30 398 C 37.6186 0.0938578 2.77141 0
M  V30 399 H 40.5696 0.518538 1.4999 0
M  V30 400 H 40.5906 -1.19745 3.61167 0
M  V30 401 H 40.1026 0.613921 3.83214 0
M  V30 402 H 38.2036 -1.78682 3.26961 0
M  V30 403 H 38.3166 -0.621773 4.75048 0
M  V30 404 H 36.6806 -0.426254 2.51108 0
M  V30 405 H 37.4636 1.06639 3.26318 0
M  V30 406 N 39.9087 -1.5758 0.0250728 0
M  V30 407 C 40.8187 -2.1343 -0.973905 0
M  V30 408 C 41.8347 -1.08556 -1.35984 0
M  V30 409 O 43.0107 -1.40592 -1.44207 0
M  V30 410 C 40.0757 -2.64703 -2.23904 0
M  V30 411 C 39.1367 -3.84276 -1.91391 0
M  V30 412 C 38.3697 -4.33095 -3.11873 0
M  V30 413 O 38.5927 -3.81107 -4.24398 0
M  V30 414 O 37.5267 -5.24984 -2.94406 0
M  V30 415 H 41.3527 -2.99057 -0.529036 0
M  V30 416 H 38.9377 -1.48118 -0.195288 0
M  V30 417 H 40.8197 -2.97769 -2.98181 0
M  V30 418 H 39.4947 -1.82161 -2.6758 0
M  V30 419 H 38.4017 -3.56143 -1.14511 0
M  V30 420 H 39.7347 -4.67968 -1.52534 0
M  V30 421 N 41.3868 0.248026 -1.55636 0
M  V30 422 C 42.6328 0.97767 -1.77678 0
M  V30 423 C 42.9658 1.85016 -0.590135 0
M  V30 424 O 42.2408 1.90095 0.411611 0
M  V30 425 C 42.5238 1.83914 -3.09593 0
M  V30 426 C 42.3768 0.99491 -4.38659 0
M  V30 427 C 43.6958 2.82183 -3.37729 0
M  V30 428 H 40.8148 0.354005 -0.646413 0
M  V30 429 H 43.4568 0.248253 -1.88371 0
M  V30 430 H 41.6068 2.46104 -3.00608 0
M  V30 431 H 43.2788 0.391789 -4.59633 0
M  V30 432 H 41.5218 0.299231 -4.32767 0
M  V30 433 H 42.1928 1.63145 -5.2734 0
M  V30 434 H 44.6688 2.30129 -3.4667 0
M  V30 435 H 43.5448 3.39582 -4.31249 0
M  V30 436 H 43.8058 3.58588 -2.58586 0
M  V30 437 N 42.8649 1.48995 0.513639 0
M  V30 438 C 43.7949 1.67636 1.62544 0
M  V30 439 C 44.7759 0.525087 1.61793 0
M  V30 440 O 45.9609 0.759502 1.78732 0
M  V30 441 C 43.0909 1.73114 3.01079 0
M  V30 442 C 42.0449 2.87905 3.16693 0
M  V30 443 C 41.3709 2.78486 4.56453 0
M  V30 444 C 42.6709 4.29005 2.97913 0
M  V30 445 H 44.3649 2.60716 1.47198 0
M  V30 446 H 41.9109 1.25465 0.706714 0
M  V30 447 H 43.8639 1.84742 3.78746 0
M  V30 448 H 42.5879 0.766241 3.17484 0
M  V30 449 H 41.2469 2.75859 2.41448 0
M  V30 450 H 40.8949 1.7993 4.69717 0
M  V30 451 H 40.5949 3.55523 4.67843 0
M  V30 452 H 42.1189 2.92104 5.36197 0
M  V30 453 H 43.5329 4.41798 3.65359 0
M  V30 454 H 41.9299 5.07166 3.20785 0
M  V30 455 H 42.9999 4.44329 1.94165 0
M  V30 456 N 44.343 -0.763751 1.37857 0
M  V30 457 C 45.306 -1.85889 1.34081 0
M  V30 458 C 46.306 -1.58949 0.243277 0
M  V30 459 O 47.496 -1.66882 0.499589 0
M  V30 460 C 44.628 -3.23176 1.08489 0
M  V30 461 H 45.821 -1.90648 2.31502 0
M  V30 462 H 43.374 -0.964367 1.23003 0
M  V30 463 H 44.109 -3.24091 0.116318 0
M  V30 464 H 43.894 -3.44124 1.8794 0
M  V30 465 H 45.384 -4.03254 1.08517 0
M  V30 466 N 45.8211 -1.22559 -0.990812 0
M  V30 467 C 47.0981 -0.959875 -1.70428 0
M  V30 468 C 47.4781 0.524455 -2.04481 0
M  V30 469 O 46.8261 1.49302 -1.72977 0
M  V30 470 C 47.0361 -1.85955 -2.95333 0
M  V30 471 C 48.3841 -2.11687 -3.68068 0
M  V30 472 O 49.4081 -1.8342 -3.05345 0
M  V30 473 O 48.2671 -2.59572 -4.80921 0
M  V30 474 H 45.3611 -0.361154 -0.743974 0
M  V30 475 H 47.9071 -1.33554 -1.04697 0
M  V30 476 H 46.6791 -2.86346 -2.66687 0
M  V30 477 H 46.3021 -1.4856 -3.68803 0
M  V30 478 N 47.2992 1.18797 -1.03562 0
M  V30 479 C 48.5462 1.8865 -0.736023 0
M  V30 480 C 48.8742 1.80041 0.735889 0
M  V30 481 O 48.1292 1.19179 1.55225 0
M  V30 482 C 48.4282 3.38692 -1.14117 0
M  V30 483 C 48.0942 3.67504 -2.6125 0
M  V30 484 C 46.7562 3.75078 -3.01447 0
M  V30 485 C 49.1082 3.80293 -3.56408 0
M  V30 486 C 46.4362 3.92915 -4.35701 0
M  V30 487 C 48.7882 3.99645 -4.90374 0
M  V30 488 C 47.4522 4.05453 -5.30249 0
M  V30 489 H 46.7222 0.690321 -0.26933 0
M  V30 490 H 49.3692 1.40641 -1.29971 0
M  V30 491 H 47.6742 3.88645 -0.496202 0
M  V30 492 H 49.3712 3.91072 -0.886789 0
M  V30 493 H 45.9612 3.62223 -2.29113 0
M  V30 494 H 50.1452 3.73779 -3.26501 0
M  V30 495 H 45.4012 3.95653 -4.66121 0
M  V30 496 H 49.5752 4.08482 -5.64017 0
M  V30 497 H 47.2022 4.19027 -6.34288 0
M  V30 498 N 48.7773 0.814389 1.34928 0
M  V30 499 C 49.7273 0.202752 2.27097 0
M  V30 500 C 50.7113 -0.62799 1.48139 0
M  V30 501 O 51.9033 -0.483969 1.70255 0
M  V30 502 C 49.0323 -0.64146 3.37254 0
M  V30 503 C 48.1183 0.19944 4.23631 0
M  V30 504 N 48.5093 1.26628 4.89693 0
M  V30 505 C 46.8073 -0.0176433 4.45997 0
M  V30 506 C 47.5083 1.78031 5.53787 0
M  V30 507 N 46.4843 1.08553 5.32651 0
M  V30 508 H 50.2863 1.01893 2.75672 0
M  V30 509 H 47.8003 0.656332 1.48546 0
M  V30 510 H 49.7973 -1.09575 4.02243 0
M  V30 511 H 48.4573 -1.4559 2.9023 0
M  V30 512 H 49.4683 1.64901 4.90946 0
M  V30 513 H 46.1453 -0.800601 4.09752 0
M  V30 514 H 47.5353 2.67236 6.16469 0
M  V30 515 N 50.2554 -1.46986 0.568584 0
M  V30 516 C 51.5034 -2.02041 0.0487022 0
M  V30 517 C 51.8244 -1.44408 -1.31039 0
M  V30 518 O 51.0944 -0.623477 -1.85714 0
M  V30 519 H 49.6744 -0.746849 0.015014 0
M  V30 520 H 52.3364 -1.80257 0.741168 0
M  V30 521 H 51.4324 -3.12085 -0.0308961 0
M  V30 522 N 51.7335 -0.305618 -1.54608 0
M  V30 523 C 52.6435 0.57778 -2.27374 0
M  V30 524 C 53.6595 1.14451 -1.31061 0
M  V30 525 O 54.8355 1.16831 -1.6405 0
M  V30 526 C 51.9005 1.73123 -3.00382 0
M  V30 527 C 50.9615 1.19812 -4.12242 0
M  V30 528 C 50.1945 2.2966 -4.81759 0
M  V30 529 O 50.4175 3.49651 -4.50666 0
M  V30 530 O 49.3515 1.96091 -5.69062 0
M  V30 531 H 53.1775 -0.012624 -3.03697 0
M  V30 532 H 50.7625 -0.0719184 -1.49227 0
M  V30 533 H 52.6445 2.40315 -3.4616 0
M  V30 534 H 51.3195 2.30815 -2.26949 0
M  V30 535 H 50.2265 0.491798 -3.70853 0
M  V30 536 H 51.5595 0.666566 -4.87666 0
M  V30 537 N 53.2116 1.57565 -0.0334293 0
M  V30 538 C 54.1446 2.05997 0.981866 0
M  V30 539 C 55.1226 0.956647 1.3148 0
M  V30 540 O 56.3066 1.22729 1.43073 0
M  V30 541 C 53.4336 2.48564 2.30074 0
M  V30 542 C 52.4796 3.69958 2.12211 0
M  V30 543 S 53.3126 5.16414 1.41692 0
M  V30 544 C 54.4686 5.6228 2.7494 0
M  V30 545 H 54.7016 2.91792 0.569612 0
M  V30 546 H 52.2346 1.53366 0.178376 0
M  V30 547 H 54.1926 2.73753 3.05892 0
M  V30 548 H 52.8536 1.63106 2.68431 0
M  V30 549 H 52.0466 3.97603 3.09722 0
M  V30 550 H 51.6486 3.44943 1.44535 0
M  V30 551 H 53.9406 5.66783 3.71165 0
M  V30 552 H 54.8836 6.61759 2.51953 0
M  V30 553 H 55.2916 4.89944 2.80384 0
M  V30 554 N 54.6897 -0.239769 1.55765 0
M  V30 555 C 55.9377 -0.964892 1.77579 0
M  V30 556 C 56.2587 -1.85582 0.598699 0
M  V30 557 O 55.5287 -1.92075 -0.385226 0
M  V30 558 H 54.1087 -0.359265 0.654933 0
M  V30 559 H 56.7707 -0.256001 1.93211 0
M  V30 560 H 55.8667 -1.58243 2.69009 0
M  V30 561 N 56.1678 -1.49265 -0.50573 0
M  V30 562 C 57.4158 -1.582 -1.25766 0
M  V30 563 C 57.7368 -0.268482 -1.93143 0
M  V30 564 O 57.0068 0.711833 -1.8251 0
M  V30 565 H 55.5868 -0.582873 -0.467191 0
M  V30 566 H 58.2488 -1.85865 -0.586525 0
M  V30 567 H 57.3448 -2.37563 -2.02412 0
M  V30 568 N 57.6459 0.756429 -1.3826 0
M  V30 569 C 58.8859 1.52833 -1.35725 0
M  V30 570 C 59.2499 1.91926 0.0534106 0
M  V30 571 O 60.4509 2.68028 0.203613 0
M  V30 572 C 58.7219 2.74919 -2.28373 0
M  V30 573 S 60.2809 3.64817 -2.43832 0
M  V30 574 H 57.0989 0.523043 -0.481608 0
M  V30 575 H 59.7009 0.888212 -1.74158 0
M  V30 576 H 58.4049 2.44304 -3.29763 0
M  V30 577 H 57.9359 3.43878 -1.91079 0
M  V30 578 H 59.9509 4.676 -1.66027 0
M  V30 579 N 59.124 1.23083 0.984299 0
M  V30 580 C 60.401 0.9689 1.69917 0
M  V30 581 C 60.781 -0.513604 2.04757 0
M  V30 582 O 60.129 -1.48383 1.73767 0
M  V30 583 C 60.339 1.87518 2.94343 0
M  V30 584 C 61.687 2.13636 3.6694 0
M  V30 585 O 62.711 1.85036 3.04368 0
M  V30 586 O 61.57 2.62119 4.79537 0
M  V30 587 H 58.664 0.365095 0.742048 0
M  V30 588 H 61.21 1.34107 1.03987 0
M  V30 589 H 59.982 2.87756 2.65164 0
M  V30 590 H 59.605 1.50514 3.6801 0
M  V30 591 N 60.6021 -1.18246 1.0419 0
M  V30 592 C 61.8271 -1.92736 0.765996 0
M  V30 593 C 62.2521 -1.75728 -0.67091 0
M  V30 594 O 61.6101 -1.06825 -1.46486 0
M  V30 595 C 61.6581 -3.42148 1.13875 0
M  V30 596 O 60.7621 -4.11548 0.264954 0
M  V30 597 H 60.1031 -0.601238 0.281797 0
M  V30 598 H 62.6331 -1.49942 1.39207 0
M  V30 599 H 62.6431 -3.92858 1.1012 0
M  V30 600 H 61.3181 -3.53848 2.18551 0
M  V30 601 H 59.8951 -3.71137 0.362226 0
M  V30 602 N 62.0802 -0.821533 -1.34494 0
M  V30 603 C 63.3202 -0.414785 -2.00147 0
M  V30 604 C 63.6842 1.00299 -1.6372 0
M  V30 605 O 64.8852 1.51255 -2.22206 0
M  V30 606 C 63.1562 -0.609403 -3.52166 0
M  V30 607 S 64.7152 -0.295297 -4.37805 0
M  V30 608 H 61.5332 -0.15679 -0.693497 0
M  V30 609 H 64.1352 -1.06705 -1.63812 0
M  V30 610 H 62.8392 -1.64096 -3.76166 0
M  V30 611 H 62.3702 0.0576414 -3.93358 0
M  V30 612 H 64.3852 0.891531 -4.88125 0
M  V30 613 N 63.5583 1.46682 -0.576371 0
M  V30 614 C 64.5083 2.27278 0.181288 0
M  V30 615 C 65.4923 1.35497 0.867721 0
M  V30 616 O 66.6843 1.59717 0.762863 0
M  V30 617 C 63.8133 3.21703 1.19841 0
M  V30 618 C 62.8993 4.20969 0.51442 0
M  V30 619 N 63.2903 5.03999 -0.426407 0
M  V30 620 C 61.5883 4.39373 0.765963 0
M  V30 621 C 62.2893 5.75812 -0.825565 0
M  V30 622 N 61.2653 5.43315 -0.176116 0
M  V30 623 H 65.0673 2.88863 -0.541785 0
M  V30 624 H 62.5813 1.57455 -0.397697 0
M  V30 625 H 64.5783 3.78145 1.75533 0
M  V30 626 H 63.2383 2.61677 1.92238 0
M  V30 627 H 64.2493 5.11659 -0.8016 0
M  V30 628 H 60.9263 3.90502 1.47698 0
M  V30 629 H 62.3163 6.52577 -1.59976 0
M  V30 630 N 65.0364 0.313813 1.54444 0
M  V30 631 C 66.2824 -0.292108 2.00685 0
M  V30 632 C 66.6154 -1.52548 1.20177 0
M  V30 633 O 65.8904 -1.92452 0.281531 0
M  V30 634 C 66.1734 -0.635968 3.5444 0
M  V30 635 C 66.0264 0.607437 4.4568 0
M  V30 636 C 67.3454 -1.45747 4.15266 0
M  V30 637 H 64.4644 -0.104697 0.729526 0
M  V30 638 H 67.1064 0.428457 1.85106 0
M  V30 639 H 65.2564 -1.24986 3.67846 0
M  V30 640 H 66.9284 1.24581 4.44159 0
M  V30 641 H 65.1714 1.23822 4.15753 0
M  V30 642 H 65.8424 0.322515 5.51057 0
M  V30 643 H 68.3184 -0.938645 4.05375 0
M  V30 644 H 67.1944 -1.66683 5.2298 0
M  V30 645 H 67.4554 -2.45063 3.67963 0
M  V30 646 N 66.5145 -1.57545 0.0417849 0
M  V30 647 C 67.7395 -1.97035 -0.647455 0
M  V30 648 C 68.1645 -0.918775 -1.64135 0
M  V30 649 O 67.5225 0.119006 -1.80909 0
M  V30 650 C 67.5705 -3.35609 -1.31905 0
M  V30 651 O 66.6745 -3.3287 -2.43457 0
M  V30 652 H 66.0155 -0.64211 -0.169086 0
M  V30 653 H 68.5455 -2.04318 0.107399 0
M  V30 654 H 68.5555 -3.72126 -1.67291 0
M  V30 655 H 67.2305 -4.11685 -0.590586 0
M  V30 656 H 65.8075 -3.08087 -2.10088 0
M  V30 657 N 67.9926 0.231505 -1.5589 0
M  V30 658 C 69.2696 0.981096 -1.69215 0
M  V30 659 C 69.6496 2.02799 -0.586164 0
M  V30 660 O 68.9976 2.24823 0.408253 0
M  V30 661 C 69.2076 1.60054 -3.10135 0
M  V30 662 C 70.5556 2.09658 -3.69227 0
M  V30 663 O 71.5796 1.69967 -3.13033 0
M  V30 664 O 70.4386 2.8258 -4.67772 0
M  V30 665 H 67.5326 0.457653 -0.688827 0
M  V30 666 H 70.0786 0.224073 -1.68214 0
M  V30 667 H 68.8506 0.844105 -3.82087 0
M  V30 668 H 68.4736 2.42336 -3.15212 0
M  V30 669 N 69.4707 1.49531 0.497807 0
M  V30 670 C 70.4177 1.66436 1.59899 0
M  V30 671 C 71.3877 0.505793 1.58212 0
M  V30 672 O 72.5727 0.733202 1.7615 0
M  V30 673 C 69.7127 1.7399 2.98029 0
M  V30 674 C 68.8257 3.01172 3.09708 0
M  V30 675 C 67.9607 2.99686 4.38591 0
M  V30 676 C 66.9997 4.21434 4.43914 0
M  V30 677 N 66.1367 4.1784 5.64229 0
M  V30 678 H 70.9767 2.60459 1.44793 0
M  V30 679 H 68.5137 1.29137 0.704423 0
M  V30 680 H 70.4717 1.76352 3.78095 0
M  V30 681 H 69.1017 0.834301 3.11832 0
M  V30 682 H 68.1537 3.08408 2.22685 0
M  V30 683 H 69.4657 3.91165 3.09502 0
M  V30 684 H 68.6197 3.00628 5.2698 0
M  V30 685 H 67.3587 2.07477 4.41367 0
M  V30 686 H 66.3637 4.20733 3.53926 0
M  V30 687 H 67.5887 5.14839 4.42851 0
M  V30 688 H 65.5347 3.28469 5.67841 0
M  V30 689 H 65.4517 5.01571 5.65652 0
M  V30 690 H 66.7197 4.22889 6.54817 0
M  V30 691 N 70.9488 -0.749086 1.3866 0
M  V30 692 C 72.1968 -1.50535 1.34847 0
M  V30 693 C 72.5178 -1.94909 -0.0595016 0
M  V30 694 O 71.7878 -1.67973 -1.00806 0
M  V30 695 H 70.3678 -0.558395 0.49619 0
M  V30 696 H 73.0298 -0.890165 1.73384 0
M  V30 697 H 72.1258 -2.39413 2.00219 0
M  V30 698 N 72.4269 -1.23603 -0.977757 0
M  V30 699 C 73.6749 -1.06759 -1.71601 0
M  V30 700 C 73.9959 0.395929 -1.90938 0
M  V30 701 O 73.2659 1.28356 -1.47992 0
M  V30 702 H 71.8459 -0.392062 -0.635843 0
M  V30 703 H 74.5079 -1.55362 -1.1768 0
M  V30 704 H 73.6039 -1.55763 -2.70452 0
M  V30 705 N 73.905 1.17692 -1.04816 0
M  V30 706 C 75.151 1.88137 -0.75711 0
M  V30 707 C 75.484 1.80604 0.713841 0
M  V30 708 O 74.759 1.21146 1.52164 0
M  V30 709 C 75.042 3.38318 -1.2334 0
M  V30 710 C 74.895 3.54622 -2.76701 0
M  V30 711 C 76.214 4.32214 -0.829415 0
M  V30 712 H 73.333 0.683163 -0.27651 0
M  V30 713 H 75.975 1.38424 -1.30149 0
M  V30 714 H 74.125 3.80787 -0.770286 0
M  V30 715 H 75.797 3.21194 -3.31107 0
M  V30 716 H 74.04 2.97026 -3.16161 0
M  V30 717 H 74.711 4.60028 -3.05088 0
M  V30 718 H 77.187 3.97565 -1.22805 0
M  V30 719 H 76.063 5.35838 -1.19033 0
M  V30 720 H 76.324 4.41294 0.266891 0
M  V30 721 N 75.3831 0.828654 1.34056 0
M  V30 722 C 76.6111 0.43262 2.02326 0
M  V30 723 C 77.0261 -0.963147 1.62385 0
M  V30 724 O 76.3831 -1.62425 0.832121 0
M  V30 725 C 76.4341 0.53182 3.57567 0
M  V30 726 O 76.1551 1.87258 3.96063 0
M  V30 727 C 77.6561 0.131422 4.43105 0
M  V30 728 H 74.8761 0.172923 0.648335 0
M  V30 729 H 77.4201 1.1184 1.71208 0
M  V30 730 H 75.5751 -0.105938 3.87255 0
M  V30 731 H 75.9891 1.85087 4.90758 0
M  V30 732 H 77.4631 0.251904 5.51425 0
M  V30 733 H 77.9401 -0.925645 4.29335 0
M  V30 734 H 78.5461 0.743207 4.18756 0
M  V30 735 N 76.8612 -1.46375 0.584142 0
M  V30 736 C 77.8092 -2.32042 -0.161047 0
M  V30 737 C 78.8032 -1.44569 -0.882966 0
M  V30 738 O 80.0092 -1.61186 -0.801191 0
M  V30 739 H 76.3842 -0.748659 -0.0708033 0
M  V30 740 H 78.3552 -2.92704 0.580269 0
M  V30 741 C 77.1042 -3.27762 -1.1605 0
M  V30 742 H 76.4272 -3.95051 -0.614419 0
M  V30 743 H 77.8672 -3.90481 -1.65228 0
M  V30 744 C 76.3262 -2.53218 -2.22221 0
M  V30 745 O 76.8562 -2.29628 -3.29597 0
M  V30 746 N 75.0622 -2.13756 -1.96868 0
M  V30 747 H 74.6092 -2.33142 -1.09557 0
M  V30 748 H 74.5672 -1.642 -2.68115 0
M  V30 749 N 78.3393 -0.321999 -1.54275 0
M  V30 750 C 79.6163 0.335232 -1.92706 0
M  V30 751 C 79.9963 1.70006 -1.25145 0
M  V30 752 O 79.3443 2.25067 -0.394596 0
M  V30 753 C 79.5543 0.429008 -3.46353 0
M  V30 754 C 80.9023 0.690029 -4.18956 0
M  V30 755 O 81.9263 0.511992 -3.52501 0
M  V30 756 O 80.7853 1.03338 -5.36641 0
M  V30 757 H 77.8793 0.191143 -0.804608 0
M  V30 758 H 80.4253 -0.3716 -1.65581 0
M  V30 759 H 79.1973 -0.529611 -3.87699 0
M  V30 760 H 78.8203 1.18348 -3.79578 0
M  V30 761 N 79.8174 1.5752 -0.0501392 0
M  V30 762 C 80.7654 2.12651 0.942459 0
M  V30 763 C 81.7594 1.05807 1.32292 0
M  V30 764 O 82.9654 1.24217 1.3027 0
M  V30 765 H 79.3404 0.679673 0.321789 0
M  V30 766 H 81.3114 2.94951 0.452356 0
M  V30 767 C 80.0604 2.68565 2.20836 0
M  V30 768 H 79.3834 3.50439 1.92439 0
M  V30 769 H 80.8234 3.10761 2.8845 0
M  V30 770 C 79.2824 1.62291 2.95234 0
M  V30 771 O 79.8124 1.03508 3.88135 0
M  V30 772 N 78.0184 1.33836 2.57946 0
M  V30 773 H 77.5654 1.81826 1.82475 0
M  V30 774 H 77.5234 0.629595 3.08032 0
M  V30 775 N 81.2955 -0.223234 1.56011 0
M  V30 776 C 82.2255 -1.27988 1.95298 0
M  V30 777 C 83.2065 -1.48976 0.820979 0
M  V30 778 O 84.3915 -1.61188 1.08315 0
M  V30 779 C 81.5215 -2.63 2.26822 0
M  V30 780 C 80.4755 -2.56671 3.42497 0
M  V30 781 C 79.8015 -3.95697 3.59622 0
M  V30 782 C 81.1015 -2.11601 4.77517 0
M  V30 783 H 82.7955 -0.953525 2.8381 0
M  V30 784 H 80.3415 -0.457244 1.36548 0
M  V30 785 H 82.2945 -3.37077 2.52898 0
M  V30 786 H 81.0185 -2.9732 1.35161 0
M  V30 787 H 79.6775 -1.85051 3.16467 0
M  V30 788 H 79.3255 -4.27322 2.6534 0
M  V30 789 H 79.0255 -3.92345 4.37424 0
M  V30 790 H 80.5495 -4.71438 3.88044 0
M  V30 791 H 81.9635 -2.7542 5.02809 0
M  V30 792 H 80.3605 -2.19311 5.5859 0
M  V30 793 H 81.4305 -1.06824 4.72987 0
M  V30 794 N 82.7736 -1.49793 -0.48987 0
M  V30 795 C 84.0016 -1.63568 -1.26701 0
M  V30 796 C 84.4166 -0.311465 -1.86213 0
M  V30 797 O 83.7736 0.704416 -1.68357 0
M  V30 798 C 83.8246 -2.71284 -2.38929 0
M  V30 799 O 83.5456 -3.9857 -1.81861 0
M  V30 800 C 85.0466 -2.95864 -3.3012 0
M  V30 801 H 82.2666 -0.550342 -0.383881 0
M  V30 802 H 84.8106 -1.95898 -0.586864 0
M  V30 803 H 82.9656 -2.417 -3.02753 0
M  V30 804 H 83.3796 -4.57993 -2.55622 0
M  V30 805 H 84.8536 -3.74941 -4.05121 0
M  V30 806 H 85.3306 -2.06206 -3.87783 0
M  V30 807 H 85.9366 -3.26907 -2.72051 0
M  V30 808 N 84.2517 0.741722 -1.39055 0
M  V30 809 C 85.2017 1.84661 -1.33732 0
M  V30 810 C 86.1857 1.59397 -0.219401 0
M  V30 811 O 87.3777 1.71015 -0.456375 0
M  V30 812 C 84.5067 3.22512 -1.17647 0
M  V30 813 C 83.5927 3.53628 -2.34112 0
M  V30 814 N 83.9837 3.55723 -3.59576 0
M  V30 815 C 82.2817 3.83956 -2.26923 0
M  V30 816 C 82.9827 3.84443 -4.36553 0
M  V30 817 N 81.9587 4.01877 -3.66055 0
M  V30 818 H 85.7607 1.84576 -2.28711 0
M  V30 819 H 83.2747 0.939647 -1.32455 0
M  V30 820 H 85.2717 4.01597 -1.11917 0
M  V30 821 H 83.9317 3.2384 -0.236124 0
M  V30 822 H 84.9427 3.37196 -3.93089 0
M  V30 823 H 81.6197 3.92929 -1.41113 0
M  V30 824 H 83.0097 3.92588 -5.45274 0
M  V30 825 N 85.7298 1.2412 0.971189 0
M  V30 826 C 86.6398 1.04747 2.09917 0
M  V30 827 C 87.6558 -0.0107162 1.73997 0
M  V30 828 O 88.8318 0.186714 2.00533 0
M  V30 829 C 85.8968 0.650828 3.40537 0
M  V30 830 C 84.9578 1.7851 3.90426 0
M  V30 831 C 84.1908 1.40729 5.14812 0
M  V30 832 O 84.4138 0.29557 5.69634 0
M  V30 833 O 83.3478 2.23168 5.58999 0
M  V30 834 H 87.1738 1.99304 2.29154 0
M  V30 835 H 84.7588 1.02908 1.08307 0
M  V30 836 H 86.6408 0.440992 4.19086 0
M  V30 837 H 85.3158 -0.265649 3.22608 0
M  V30 838 H 84.2228 2.04966 3.12953 0
M  V30 839 H 85.5558 2.68023 4.12825 0
M  V30 840 N 87.2079 -1.17134 1.05439 0
M  V30 841 C 88.1559 -2.23289 0.651511 0
M  V30 842 C 89.1499 -1.66186 -0.328411 0
M  V30 843 O 90.3559 -1.78949 -0.194206 0
M  V30 844 H 86.7309 -0.726938 0.192523 0
M  V30 845 H 88.7019 -2.54565 1.55689 0
M  V30 846 C 87.4509 -3.47671 0.0448436 0
M  V30 847 H 86.7739 -3.91918 0.78996 0
M  V30 848 H 88.2139 -4.2353 -0.19964 0
M  V30 849 C 86.6729 -3.14453 -1.20918 0
M  V30 850 O 87.2029 -3.29459 -2.29825 0
M  V30 851 N 85.4089 -2.68657 -1.10779 0
M  V30 852 H 84.9559 -2.56646 -0.221526 0
M  V30 853 H 84.9139 -2.46804 -1.9477 0
M  V30 854 N 88.686 -0.835752 -1.33615 0
M  V30 855 C 89.934 -0.429109 -1.97492 0
M  V30 856 C 90.255 1.01433 -1.66543 0
M  V30 857 O 89.525 1.70611 -0.962744 0
M  V30 858 H 88.105 -0.155686 -0.730596 0
M  V30 859 H 90.767 -1.06802 -1.63031 0
M  V30 860 H 89.863 -0.55861 -3.0706 0
M  V30 861 N 90.1641 1.46063 -0.591896 0
M  V30 862 C 91.0961 2.28539 0.174001 0
M  V30 863 C 92.1091 1.39047 0.846753 0
M  V30 864 O 93.2981 1.63564 0.714774 0
M  V30 865 C 90.3981 3.14347 1.26645 0
M  V30 866 C 89.5711 4.32021 0.683856 0
M  V30 867 C 88.6301 4.99157 1.66518 0
M  V30 868 O 87.6561 5.56458 1.19763 0
M  V30 869 N 88.8581 4.97005 2.99943 0
M  V30 870 H 91.6231 2.94911 -0.533633 0
M  V30 871 H 89.1841 1.56077 -0.430294 0
M  V30 872 H 91.1761 3.56125 1.92242 0
M  V30 873 H 89.7461 2.49988 1.87682 0
M  V30 874 H 88.9661 3.93915 -0.1498 0
M  V30 875 H 90.2541 5.08059 0.274567 0
M  V30 876 H 89.6521 4.51714 3.40545 0
M  V30 877 H 88.2091 5.42696 3.61004 0
M  V30 878 N 91.6422 0.330177 1.54103 0
M  V30 879 C 92.8822 -0.270916 2.02597 0
M  V30 880 C 93.2462 -1.48826 1.21304 0
M  V30 881 O 94.4472 -2.16266 1.59633 0
M  V30 882 C 92.7182 -0.590328 3.52491 0
M  V30 883 S 94.2772 -1.17014 4.2291 0
M  V30 884 H 91.0952 -0.0815379 0.706309 0
M  V30 885 H 93.6972 0.464835 1.89893 0
M  V30 886 H 92.4012 0.303691 4.09275 0
M  V30 887 H 91.9322 -1.3561 3.69288 0
M  V30 888 H 93.9472 -2.45662 4.3112 0
M  V30 889 N 93.1203 -1.57491 0.0584922 0
M  V30 890 C 94.3663 -1.93264 -0.614558 0
M  V30 891 C 94.6993 -0.937717 -1.7006 0
M  V30 892 O 93.9743 0.0351652 -1.94468 0
M  V30 893 C 94.2573 -3.3938 -1.20386 0
M  V30 894 C 94.1103 -4.49625 -0.125375 0
M  V30 895 C 95.4293 -3.86039 -2.11334 0
M  V30 896 H 92.5483 -0.702791 -0.221933 0
M  V30 897 H 95.1903 -1.8961 0.12175 0
M  V30 898 H 93.3403 -3.42626 -1.83139 0
M  V30 899 H 95.0123 -4.58506 0.506971 0
M  V30 900 H 93.2553 -4.30354 0.545672 0
M  V30 901 H 93.9263 -5.48967 -0.577861 0
M  V30 902 H 96.4023 -3.84716 -1.58534 0
M  V30 903 H 95.2783 -4.88914 -2.49507 0
M  V30 904 H 95.5393 -3.23215 -3.01636 0
M  V30 905 N 94.5984 0.214957 -1.56127 0
M  V30 906 C 95.8234 0.95924 -1.83884 0
M  V30 907 C 96.2484 1.7689 -0.639644 0
M  V30 908 O 95.6064 1.76566 0.411601 0
M  V30 909 C 95.6544 1.84723 -3.09693 0
M  V30 910 O 94.7584 2.94346 -2.8885 0
M  V30 911 H 94.0994 0.27125 -0.606069 0
M  V30 912 H 96.6294 0.226276 -2.03345 0
M  V30 913 H 96.6394 2.25576 -3.39969 0
M  V30 914 H 95.3144 1.25218 -3.96602 0
M  V30 915 H 93.8914 2.57391 -2.69823 0
M  V30 916 N 96.0765 1.50051 0.48192 0
M  V30 917 C 97.3165 1.62128 1.24474 0
M  V30 918 C 97.6805 0.309742 1.89485 0
M  V30 919 O 98.8815 0.305854 2.67054 0
M  V30 920 C 97.1525 2.76151 2.26882 0
M  V30 921 S 98.7115 3.08297 3.12247 0
M  V30 922 H 95.5295 0.571661 0.422759 0
M  V30 923 H 98.1315 1.87791 0.54359 0
M  V30 924 H 96.8355 3.69942 1.77683 0
M  V30 925 H 96.3665 2.52541 3.0164 0
M  V30 926 H 98.3815 2.51287 4.27866 0
M  V30 927 N 97.5546 -0.734337 1.39446 0
M  V30 928 C 98.5046 -1.83949 1.34709 0
M  V30 929 C 99.4886 -1.59279 0.227851 0
M  V30 930 O 100.681 -1.70771 0.465438 0
M  V30 931 C 97.8096 -3.21884 1.19356 0
M  V30 932 C 96.8956 -3.52381 2.35984 0
M  V30 933 N 97.2866 -3.53811 3.61457 0
M  V30 934 C 95.5846 -3.82747 2.28956 0
M  V30 935 C 96.2856 -3.82122 4.38586 0
M  V30 936 N 95.2616 -3.9993 3.68181 0
M  V30 937 H 99.0636 -1.83361 2.29687 0
M  V30 938 H 96.5776 -0.932609 1.32952 0
M  V30 939 H 98.5746 -4.00998 1.14046 0
M  V30 940 H 97.2346 -3.23711 0.253295 0
M  V30 941 H 98.2456 -3.35107 3.94872 0
M  V30 942 H 94.9226 -3.92175 1.43194 0
M  V30 943 H 96.3126 -3.89691 5.47349 0
M  V30 944 N 99.0327 -1.24633 -0.964593 0
M  V30 945 C 100.281 -1.08573 -1.70459 0
M  V30 946 C 100.602 0.375655 -1.91347 0
M  V30 947 O 99.8717 1.26779 -1.49345 0
M  V30 948 H 98.4517 -0.398784 -0.631649 0
M  V30 949 H 101.114 -1.56601 -1.16026 0
M  V30 950 H 100.21 -1.58623 -2.68785 0
M  V30 951 N 100.511 1.16574 -1.06058 0
M  V30 952 C 101.788 1.83048 -0.689416 0
M  V30 953 C 102.168 1.94122 0.829443 0
M  V30 954 O 101.516 1.48249 1.7388 0
M  V30 955 C 101.726 3.20186 -1.38859 0
M  V30 956 C 103.074 3.95989 -1.53226 0
M  V30 957 O 104.098 3.29696 -1.3483 0
M  V30 958 O 102.957 5.14813 -1.83384 0
M  V30 959 H 100.051 0.790258 -0.243764 0
M  V30 960 H 102.597 1.23797 -1.16071 0
M  V30 961 H 101.369 3.07146 -2.4244 0
M  V30 962 H 100.992 3.87112 -0.907216 0
M  V30 963 N 101.989 0.842826 1.3317 0
M  V30 964 C 102.919 0.294028 2.31641 0
M  V30 965 C 103.9 -0.600401 1.59151 0
M  V30 966 O 105.085 -0.523124 1.87022 0
M  V30 967 C 102.215 -0.528416 3.43257 0
M  V30 968 C 101.169 0.27056 4.27144 0
M  V30 969 C 100.495 -0.675881 5.30411 0
M  V30 970 C 101.795 1.48981 5.00602 0
M  V30 971 H 103.489 1.11681 2.77791 0
M  V30 972 H 101.035 0.538478 1.33553 0
M  V30 973 H 102.988 -0.922674 4.11175 0
M  V30 974 H 101.712 -1.38445 2.95805 0
M  V30 975 H 100.371 0.646427 3.60856 0
M  V30 976 H 100.019 -1.52842 4.79216 0
M  V30 977 H 99.7189 -0.145374 5.8742 0
M  V30 978 H 101.243 -1.06757 6.01195 0
M  V30 979 H 102.657 1.16849 5.61266 0
M  V30 980 H 101.054 1.95739 5.6728 0
M  V30 981 H 102.124 2.25746 4.29147 0
M  V30 982 N 103.467 -1.45747 0.599634 0
M  V30 983 C 104.414 -2.30467 -0.123849 0
M  V30 984 C 105.384 -1.41632 -0.86774 0
M  V30 985 O 106.569 -1.70568 -0.855056 0
M  V30 986 C 103.709 -3.26402 -1.12051 0
M  V30 987 C 102.822 -4.3034 -0.37832 0
M  V30 988 C 101.957 -5.13389 -1.364 0
M  V30 989 C 100.996 -6.09061 -0.609171 0
M  V30 990 N 100.133 -6.84918 -1.54374 0
M  V30 991 H 104.973 -2.91802 0.604627 0
M  V30 992 H 102.51 -1.43797 0.309972 0
M  V30 993 H 104.468 -3.80482 -1.7114 0
M  V30 994 H 103.098 -2.66839 -1.8165 0
M  V30 995 H 102.15 -3.78984 0.327929 0
M  V30 996 H 103.462 -4.98354 0.210997 0
M  V30 997 H 102.616 -5.7183 -2.02719 0
M  V30 998 H 101.355 -4.45376 -1.98725 0
M  V30 999 H 100.36 -5.49758 0.0676979 0
M  V30 1000 H 101.585 -6.79099 0.00891991 0
M  V30 1001 H 99.531 -6.19601 -2.15478 0
M  V30 1002 H 99.448 -7.49254 -1.00766 0
M  V30 1003 H 100.716 -7.47906 -2.19676 0
M  V30 1004 N 104.945 -0.338344 -1.53925 0
M  V30 1005 C 105.855 0.529421 -2.28548 0
M  V30 1006 C 106.871 1.11645 -1.3346 0
M  V30 1007 O 108.047 1.13325 -1.66492 0
M  V30 1008 C 105.112 1.66713 -3.03987 0
M  V30 1009 C 104.173 1.11041 -4.14691 0
M  V30 1010 C 103.406 2.19389 -4.86522 0
M  V30 1011 O 103.629 3.40013 -4.57982 0
M  V30 1012 O 102.563 1.83976 -5.73094 0
M  V30 1013 H 106.389 -0.0770399 -3.03602 0
M  V30 1014 H 103.974 -0.103555 -1.49041 0
M  V30 1015 H 105.856 2.32918 -3.5118 0
M  V30 1016 H 104.531 2.25949 -2.31794 0
M  V30 1017 H 103.438 0.413024 -3.71813 0
M  V30 1018 H 104.771 0.562975 -4.8897 0
M  V30 1019 N 106.423 1.57458 -0.0668435 0
M  V30 1020 C 107.353 2.15468 0.899764 0
M  V30 1021 C 108.334 1.08042 1.31381 0
M  V30 1022 O 109.519 1.36054 1.38574 0
M  V30 1023 C 106.649 2.71232 2.16911 0
M  V30 1024 C 105.603 3.83781 1.89463 0
M  V30 1025 C 104.929 4.26127 3.22986 0
M  V30 1026 C 106.229 5.08238 1.20381 0
M  V30 1027 H 107.923 2.96488 0.416529 0
M  V30 1028 H 105.469 1.4262 0.198908 0
M  V30 1029 H 107.422 3.10458 2.84945 0
M  V30 1030 H 106.146 1.87426 2.67468 0
M  V30 1031 H 104.805 3.45051 1.23836 0
M  V30 1032 H 104.453 3.39249 3.71374 0
M  V30 1033 H 104.153 5.01993 3.05413 0
M  V30 1034 H 105.677 4.67966 3.92225 0
M  V30 1035 H 107.091 5.44811 1.78475 0
M  V30 1036 H 105.488 5.89349 1.13083 0
M  V30 1037 H 106.558 4.84558 0.182153 0
M  V30 1038 N 107.901 -0.206675 1.56239 0
M  V30 1039 C 108.864 -1.23976 1.92776 0
M  V30 1040 C 109.864 -1.39041 0.807729 0
M  V30 1041 O 111.054 -1.37051 1.0753 0
M  V30 1042 C 108.186 -2.61112 2.19165 0
M  V30 1043 H 109.379 -0.927764 2.85189 0
M  V30 1044 H 106.932 -0.447718 1.4975 0
M  V30 1045 H 107.667 -2.97386 1.29352 0
M  V30 1046 H 107.452 -2.51552 3.00772 0
M  V30 1047 H 108.942 -3.35633 2.48476 0
M  V30 1048 N 109.379 -1.50304 -0.473955 0
M  V30 1049 C 110.342 -1.6841 -1.55469 0
M  V30 1050 C 111.342 -0.554905 -1.50922 0
M  V30 1051 O 112.532 -0.821882 -1.53593 0
M  V30 1052 C 109.664 -1.70667 -2.95102 0
M  V30 1053 H 110.857 -2.64828 -1.40733 0
M  V30 1054 H 108.41 -1.39742 -0.700132 0
M  V30 1055 H 109.145 -0.75932 -3.15285 0
M  V30 1056 H 108.93 -2.52698 -2.9981 0
M  V30 1057 H 110.42 -1.8664 -3.73571 0
M  V30 1058 N 110.857 0.726932 -1.39834 0
M  V30 1059 C 111.82 1.82269 -1.38962 0
M  V30 1060 C 112.82 1.58248 -0.285334 0
M  V30 1061 O 114.01 1.65499 -0.54366 0
M  V30 1062 C 111.142 3.20186 -1.17019 0
M  V30 1063 H 112.335 1.84443 -2.36476 0
M  V30 1064 H 109.888 0.931416 -1.25516 0
M  V30 1065 H 110.623 3.23669 -0.202204 0
M  V30 1066 H 110.408 3.3902 -1.96998 0
M  V30 1067 H 111.898 4.00235 -1.1917 0
M  V30 1068 N 112.336 1.25143 0.95797 0
M  V30 1069 C 113.299 1.05321 2.03569 0
M  V30 1070 C 114.299 0.007152 1.60798 0
M  V30 1071 O 115.489 0.24903 1.72411 0
M  V30 1072 C 112.621 0.598394 3.35607 0
M  V30 1073 H 113.814 2.00986 2.22586 0
M  V30 1074 H 111.367 1.07502 1.13459 0
M  V30 1075 H 112.102 -0.361014 3.22284 0
M  V30 1076 H 111.887 1.35351 3.67998 0
M  V30 1077 H 113.377 0.48104 4.1482 0
M  V30 1078 N 113.814 -1.1601 1.06675 0
M  V30 1079 C 115.225 -1.68235 0.809565 0
M  V30 1080 C 115.576 -1.8454 -0.666303 0
M  V30 1081 O 114.701 -1.54374 -1.5165 0
M  V30 1082 C 115.296 -3.05585 1.46299 0
M  V30 1083 C 113.855 -3.54915 1.25349 0
M  V30 1084 C 113.002 -2.30804 1.53703 0
M  V30 1085 H 115.953 -1.00318 1.22971 0
M  V30 1086 H 115.974 -3.70174 0.880431 0
M  V30 1087 H 115.486 -2.93686 2.53713 0
M  V30 1088 H 113.587 -3.72067 0.199261 0
M  V30 1089 H 113.7 -4.36774 1.9689 0
M  V30 1090 H 112.064 -2.36007 0.957739 0
M  V30 1091 H 112.847 -2.21499 2.62284 0
M  V30 1092 N 115.292 -0.849877 -1.32721 0
M  V30 1093 C 116.239 -0.289033 -2.28983 0
M  V30 1094 C 117.209 0.601324 -1.54833 0
M  V30 1095 O 118.394 0.537253 -1.8308 0
M  V30 1096 C 115.534 0.520623 -3.4115 0
M  V30 1097 C 114.647 -0.394989 -4.3019 0
M  V30 1098 C 113.782 0.426834 -5.29482 0
M  V30 1099 C 112.821 -0.486476 -6.10164 0
M  V30 1100 N 111.958 0.297879 -7.01468 0
M  V30 1101 H 116.798 -1.11519 -2.76347 0
M  V30 1102 H 114.335 -0.56138 -1.35967 0
M  V30 1103 H 116.293 1.00563 -4.04899 0
M  V30 1104 H 114.923 1.31165 -2.9495 0
M  V30 1105 H 113.975 -0.99836 -3.67065 0
M  V30 1106 H 115.287 -1.09612 -4.86607 0
M  V30 1107 H 114.441 0.975205 -5.98811 0
M  V30 1108 H 113.18 1.16136 -4.73671 0
M  V30 1109 H 112.185 -1.04677 -5.39743 0
M  V30 1110 H 113.41 -1.21953 -6.6806 0
M  V30 1111 H 111.356 1.01558 -6.48091 0
M  V30 1112 H 111.273 -0.344318 -7.55216 0
M  V30 1113 H 112.541 0.828131 -7.75089 0
M  V30 1114 N 116.77 1.45427 -0.607355 0
M  V30 1115 C 118.047 1.9557 -0.0344566 0
M  V30 1116 C 118.427 1.54979 1.43334 0
M  V30 1117 O 117.775 0.812241 2.13576 0
M  V30 1118 C 117.985 3.48226 -0.232321 0
M  V30 1119 C 119.333 4.2445 -0.113001 0
M  V30 1120 O 120.357 3.55829 -0.162431 0
M  V30 1121 O 119.216 5.465 0.00209442 0
M  V30 1122 H 116.31 0.826222 0.0358667 0
M  V30 1123 H 118.856 1.55594 -0.6774 0
M  V30 1124 H 117.628 3.70739 -1.25174 0
M  V30 1125 H 117.251 3.95092 0.445896 0
M  V30 1126 N 118.248 0.346503 1.53744 0
M  V30 1127 C 119.195 -0.508914 2.25119 0
M  V30 1128 C 120.165 -1.09315 1.25058 0
M  V30 1129 O 121.35 -1.12921 1.53797 0
M  V30 1130 C 118.49 -1.65246 3.02965 0
M  V30 1131 C 117.603 -1.09525 4.17886 0
M  V30 1132 C 116.738 -2.20634 4.83212 0
M  V30 1133 C 115.777 -1.62279 5.90196 0
M  V30 1134 N 114.914 -2.67143 6.49291 0
M  V30 1135 H 119.754 0.106283 2.9781 0
M  V30 1136 H 117.291 0.0642227 1.4696 0
M  V30 1137 H 119.249 -2.32574 3.4636 0
M  V30 1138 H 117.879 -2.2386 2.32565 0
M  V30 1139 H 116.931 -0.312818 3.79112 0
M  V30 1140 H 118.243 -0.628444 4.94825 0
M  V30 1141 H 117.397 -2.95821 5.29693 0
M  V30 1142 H 116.136 -2.70659 4.05703 0
M  V30 1143 H 115.141 -0.855989 5.43096 0
M  V30 1144 H 116.366 -1.13102 6.69615 0
M  V30 1145 H 114.312 -3.16417 5.74645 0
M  V30 1146 H 114.229 -2.25093 7.21713 0
M  V30 1147 H 115.497 -3.4209 7.00425 0
M  V30 1148 N 119.726 -1.57421 0.075193 0
M  V30 1149 C 120.972 -1.93905 -0.594025 0
M  V30 1150 C 121.305 -0.955701 -1.69056 0
M  V30 1151 O 120.58 0.0145373 -1.94495 0
M  V30 1152 C 120.863 -3.40638 -1.1678 0
M  V30 1153 C 120.716 -4.49733 -0.0776792 0
M  V30 1154 C 122.035 -3.88259 -2.07228 0
M  V30 1155 H 119.154 -0.705105 -0.214466 0
M  V30 1156 H 121.796 -1.8947 0.141854 0
M  V30 1157 H 119.946 -3.44549 -1.79494 0
M  V30 1158 H 121.618 -4.57942 0.555573 0
M  V30 1159 H 119.861 -4.29751 0.591286 0
M  V30 1160 H 120.532 -5.49549 -0.519603 0
M  V30 1161 H 123.008 -3.86376 -1.54445 0
M  V30 1162 H 121.884 -4.91533 -2.44308 0
M  V30 1163 H 122.145 -3.26396 -2.98191 0
M  V30 1164 N 121.204 0.198386 -1.56346 0
M  V30 1165 C 122.429 0.939682 -1.84891 0
M  V30 1166 C 122.854 1.76202 -0.658369 0
M  V30 1167 O 122.212 1.76993 0.392851 0
M  V30 1168 C 122.26 1.81428 -3.11635 0
M  V30 1169 O 121.364 2.91265 -2.91956 0
M  V30 1170 H 120.705 0.264807 -0.608912 0
M  V30 1171 H 123.235 0.204695 -2.03573 0
M  V30 1172 H 123.245 2.21958 -3.42343 0
M  V30 1173 H 121.92 1.21004 -3.97908 0
M  V30 1174 H 120.497 2.54514 -2.72538 0
M  V30 1175 N 122.682 1.50554 0.465978 0
M  V30 1176 C 124.093 1.54599 1.04671 0
M  V30 1177 C 124.444 0.352488 1.93008 0
M  V30 1178 O 123.569 -0.534044 2.09707 0
M  V30 1179 C 124.164 2.80166 1.90505 0
M  V30 1180 C 122.723 2.86876 2.43678 0
M  V30 1181 C 121.87 2.48947 1.22151 0
M  V30 1182 H 124.821 1.56744 0.248384 0
M  V30 1183 H 124.842 2.62311 2.75633 0
M  V30 1184 H 124.354 3.67013 1.26186 0
M  V30 1185 H 122.455 2.04393 3.11536 0
M  V30 1186 H 122.568 3.89885 2.78436 0
M  V30 1187 H 120.932 2.01498 1.5579 0
M  V30 1188 H 121.715 3.38107 0.594866 0
M  V30 1189 N 124.16 -0.719506 1.40217 0
M  V30 1190 C 125.11 -1.8251 1.36653 0
M  V30 1191 C 126.094 -1.59028 0.244732 0
M  V30 1192 O 127.286 -1.70268 0.483524 0
M  V30 1193 C 124.415 -3.20599 1.22763 0
M  V30 1194 C 123.501 -3.49858 2.39708 0
M  V30 1195 N 123.892 -3.49957 3.6519 0
M  V30 1196 C 122.19 -3.80297 2.33002 0
M  V30 1197 C 122.891 -3.77449 4.42614 0
M  V30 1198 N 121.867 -3.96002 3.72402 0
M  V30 1199 H 125.669 -1.80914 2.31619 0
M  V30 1200 H 123.183 -0.918455 1.33933 0
M  V30 1201 H 125.18 -3.99766 1.18292 0
M  V30 1202 H 123.84 -3.23424 0.287614 0
M  V30 1203 H 124.851 -3.309 3.98404 0
M  V30 1204 H 121.528 -3.90635 1.47346 0
M  V30 1205 H 122.918 -3.83863 5.51451 0
M  V30 1206 N 125.638 -1.25649 -0.95132 0
M  V30 1207 C 126.585 -1.06323 -2.04851 0
M  V30 1208 C 127.555 0.0286491 -1.66075 0
M  V30 1209 O 128.74 -0.12917 -1.90362 0
M  V30 1210 C 125.88 -0.691529 -3.381 0
M  V30 1211 C 124.993 -1.85861 -3.89974 0
M  V30 1212 C 124.128 -1.43096 -5.11563 0
M  V30 1213 C 123.167 -2.56696 -5.55674 0
M  V30 1214 N 122.304 -2.14684 -6.68472 0
M  V30 1215 H 127.144 -2.00222 -2.20715 0
M  V30 1216 H 124.681 -0.997027 -1.08156 0
M  V30 1217 H 126.639 -0.456963 -4.1469 0
M  V30 1218 H 125.269 0.210474 -3.22113 0
M  V30 1219 H 124.321 -2.20639 -3.09875 0
M  V30 1220 H 125.633 -2.71161 -4.18657 0
M  V30 1221 H 124.787 -1.15624 -5.9558 0
M  V30 1222 H 123.526 -0.548722 -4.84603 0
M  V30 1223 H 122.531 -2.84909 -4.7022 0
M  V30 1224 H 123.756 -3.45503 -5.8464 0
M  V30 1225 H 121.702 -1.28881 -6.43215 0
M  V30 1226 H 121.619 -2.9353 -6.96689 0
M  V30 1227 H 122.887 -1.90397 -7.5589 0
M  V30 1228 N 127.117 1.15442 -1.07289 0
M  V30 1229 C 128.342 1.90638 -0.816828 0
M  V30 1230 C 128.767 1.77445 0.624083 0
M  V30 1231 O 128.125 1.10671 1.43602 0
M  V30 1232 C 128.173 3.39008 -1.22906 0
M  V30 1233 O 127.277 4.10701 -0.373975 0
M  V30 1234 H 126.618 0.593555 -0.297638 0
M  V30 1235 H 129.148 1.46198 -1.43134 0
M  V30 1236 H 129.158 3.89801 -1.20497 0
M  V30 1237 H 127.833 3.47929 -2.27856 0
M  V30 1238 H 126.41 3.70046 -0.460499 0
M  V30 1239 N 128.595 0.856903 1.32268 0
M  V30 1240 C 129.545 0.274899 2.26337 0
M  V30 1241 C 130.529 -0.580543 1.50062 0
M  V30 1242 O 131.721 -0.429559 1.71708 0
M  V30 1243 C 128.85 -0.533841 3.39124 0
M  V30 1244 C 127.936 0.334114 4.22782 0
M  V30 1245 N 128.327 1.42143 4.85416 0
M  V30 1246 C 126.625 0.124256 4.45827 0
M  V30 1247 C 127.326 1.95559 5.47843 0
M  V30 1248 N 126.302 1.25444 5.28928 0
M  V30 1249 H 130.104 1.10612 2.72291 0
M  V30 1250 H 127.618 0.703258 1.46383 0
M  V30 1251 H 129.615 -0.96722 4.05525 0
M  V30 1252 H 128.275 -1.36283 2.94715 0
M  V30 1253 H 129.286 1.80436 4.85451 0
M  V30 1254 H 125.963 -0.669837 4.12092 0
M  V30 1255 H 127.353 2.86714 6.07655 0
M  V30 1256 N 130.073 -1.45103 0.615059 0
M  V30 1257 C 131.003 -2.33339 -0.0865619 0
M  V30 1258 C 131.984 -1.4727 -0.851209 0
M  V30 1259 O 133.169 -1.76026 -0.820281 0
M  V30 1260 C 130.299 -3.30095 -1.07956 0
M  V30 1261 C 129.253 -4.25858 -0.427628 0
M  V30 1262 C 128.579 -5.12361 -1.5294 0
M  V30 1263 C 129.879 -5.18165 0.655944 0
M  V30 1264 H 131.573 -2.92254 0.650224 0
M  V30 1265 H 129.119 -1.40532 0.314138 0
M  V30 1266 H 131.072 -3.90698 -1.57901 0
M  V30 1267 H 129.796 -2.69355 -1.84703 0
M  V30 1268 H 128.455 -3.66564 0.0510292 0
M  V30 1269 H 128.103 -4.47984 -2.28734 0
M  V30 1270 H 127.803 -5.77238 -1.09865 0
M  V30 1271 H 129.327 -5.75833 -2.03098 0
M  V30 1272 H 130.741 -5.72796 0.240257 0
M  V30 1273 H 129.138 -5.91559 1.00888 0
M  V30 1274 H 130.208 -4.60144 1.52957 0
M  V30 1275 N 131.551 -0.354651 -1.53558 0
M  V30 1276 C 132.8 0.239504 -2.00273 0
M  V30 1277 C 133.113 1.50759 -1.24623 0
M  V30 1278 O 134.319 2.17968 -1.61871 0
M  V30 1279 C 132.775 0.477341 -3.5672 0
M  V30 1280 C 132.383 -0.775488 -4.41237 0
M  V30 1281 C 134.127 1.02975 -4.11821 0
M  V30 1282 C 132.034 -0.507838 -5.89216 0
M  V30 1283 H 130.964 0.0932743 -0.748208 0
M  V30 1284 H 133.615 -0.471701 -1.77334 0
M  V30 1285 H 131.997 1.24953 -3.7577 0
M  V30 1286 H 133.171 -1.54963 -4.33962 0
M  V30 1287 H 131.486 -1.25033 -3.97185 0
M  V30 1288 H 134.083 1.24513 -5.2 0
M  V30 1289 H 134.426 1.98862 -3.65731 0
M  V30 1290 H 134.959 0.317994 -3.96527 0
M  V30 1291 H 131.698 -1.43674 -6.39561 0
M  V30 1292 H 131.218 0.228011 -5.99366 0
M  V30 1293 H 132.897 -0.129238 -6.46871 0
M  V30 1294 N 133.029 1.57378 -0.0835403 0
M  V30 1295 C 134.277 1.93547 0.581718 0
M  V30 1296 C 134.598 0.96524 1.69435 0
M  V30 1297 O 133.868 0.0153369 1.95894 0
M  V30 1298 H 132.448 0.714521 0.217874 0
M  V30 1299 H 135.11 1.94366 -0.144158 0
M  V30 1300 H 134.206 2.95665 0.999423 0
M  V30 1301 N 134.507 -0.190092 1.56449 0
M  V30 1302 C 135.417 -1.25591 1.98152 0
M  V30 1303 C 136.433 -1.49519 0.889944 0
M  V30 1304 O 137.609 -1.62036 1.19609 0
M  V30 1305 C 134.674 -2.57916 2.3169 0
M  V30 1306 C 133.735 -2.42015 3.5458 0
M  V30 1307 C 132.968 -3.6803 3.8651 0
M  V30 1308 O 133.191 -4.72413 3.1966 0
M  V30 1309 O 132.125 -3.6326 4.79923 0
M  V30 1310 H 135.951 -0.931988 2.89046 0
M  V30 1311 H 133.536 -0.395488 1.4407 0
M  V30 1312 H 135.418 -3.36008 2.54316 0
M  V30 1313 H 134.093 -2.89925 1.43963 0
M  V30 1314 H 133 -1.62017 3.37196 0
M  V30 1315 H 134.333 -2.14937 4.4279 0
M  V30 1316 N 135.985 -1.50799 -0.457987 0
M  V30 1317 C 137.234 -1.6168 -1.20593 0
M  V30 1318 C 137.547 -0.32888 -1.92815 0
M  V30 1319 O 138.753 -0.316773 -2.69646 0
M  V30 1320 C 137.209 -2.8545 -2.19195 0
M  V30 1321 C 136.817 -4.21168 -1.52715 0
M  V30 1322 C 138.561 -3.05681 -2.94549 0
M  V30 1323 C 136.468 -5.3611 -2.4968 0
M  V30 1324 H 135.398 -0.602134 -0.453818 0
M  V30 1325 H 138.049 -1.77245 -0.475031 0
M  V30 1326 H 136.431 -2.63472 -2.95632 0
M  V30 1327 H 137.605 -4.53449 -0.819775 0
M  V30 1328 H 135.92 -4.06648 -0.895922 0
M  V30 1329 H 138.517 -3.88727 -3.67145 0
M  V30 1330 H 138.86 -2.17929 -3.54701 0
M  V30 1331 H 139.393 -3.27901 -2.25223 0
M  V30 1332 H 136.132 -6.26057 -1.94249 0
M  V30 1333 H 135.652 -5.0823 -3.18532 0
M  V30 1334 H 137.331 -5.6722 -3.11241 0
M  V30 1335 N 137.463 0.71206 -1.40597 0
M  V30 1336 C 138.426 1.80785 -1.40888 0
M  V30 1337 C 139.426 1.57937 -0.302103 0
M  V30 1338 O 140.616 1.64913 -0.561182 0
M  V30 1339 C 137.748 3.18927 -1.20409 0
M  V30 1340 H 138.941 1.81924 -2.38419 0
M  V30 1341 H 136.494 0.91805 -1.26497 0
M  V30 1342 H 137.229 3.23436 -0.236522 0
M  V30 1343 H 137.014 3.36911 -2.00582 0
M  V30 1344 H 138.504 3.98949 -1.23408 0
M  V30 1345 N 138.941 1.26152 0.944643 0
M  V30 1346 C 140.181 1.12708 1.70517 0
M  V30 1347 C 140.545 -0.324727 1.89234 0
M  V30 1348 O 141.746 -0.581211 2.62441 0
M  V30 1349 C 140.017 1.8713 3.04495 0
M  V30 1350 S 141.576 1.89698 3.95677 0
M  V30 1351 H 138.394 0.402665 0.585988 0
M  V30 1352 H 140.996 1.59821 1.12594 0
M  V30 1353 H 139.7 2.91833 2.88551 0
M  V30 1354 H 139.231 1.40444 3.67477 0
M  V30 1355 H 141.246 0.981198 4.86402 0
M  V30 1356 N 140.419 -1.14872 1.07899 0
M  V30 1357 C 141.647 -1.89661 0.82683 0
M  V30 1358 C 142.062 -1.78312 -0.620519 0
M  V30 1359 O 141.419 -1.13888 -1.42604 0
M  V30 1360 C 141.47 -3.39817 1.23316 0
M  V30 1361 O 141.191 -3.50845 2.62372 0
M  V30 1362 C 142.692 -4.31615 1.0111 0
M  V30 1363 H 139.912 -0.60092 0.298557 0
M  V30 1364 H 142.456 -1.4551 1.43691 0
M  V30 1365 H 140.611 -3.8161 0.667286 0
M  V30 1366 H 141.025 -4.44076 2.79101 0
M  V30 1367 H 142.499 -5.35367 1.34486 0
M  V30 1368 H 142.976 -4.39169 -0.0522168 0
M  V30 1369 H 143.582 -3.95572 1.56215 0
M  V30 1370 N 141.898 -0.863906 -1.31812 0
M  V30 1371 C 143.123 -0.48527 -2.01643 0
M  V30 1372 C 143.548 0.913058 -1.64453 0
M  V30 1373 O 142.906 1.6014 -0.849985 0
M  V30 1374 C 142.954 -0.642625 -3.54828 0
M  V30 1375 O 142.058 0.320659 -4.11151 0
M  V30 1376 H 141.399 -0.193793 -0.635091 0
M  V30 1377 H 143.929 -1.16565 -1.68148 0
M  V30 1378 H 143.939 -0.533628 -4.04495 0
M  V30 1379 H 142.614 -1.66227 -3.81237 0
M  V30 1380 H 141.191 0.167126 -3.72525 0
M  V30 1381 N 143.376 1.44774 -0.622745 0
M  V30 1382 C 144.616 2.04004 -0.127102 0
M  V30 1383 C 144.98 1.47862 1.22478 0
M  V30 1384 O 146.181 1.98541 1.81204 0
M  V30 1385 C 144.452 3.57247 -0.104429 0
M  V30 1386 S 146.011 4.37574 0.327814 0
M  V30 1387 H 142.829 0.708713 -0.0569776 0
M  V30 1388 H 145.431 1.77275 -0.824253 0
M  V30 1389 H 144.135 3.95616 -1.09159 0
M  V30 1390 H 143.666 3.88575 0.614236 0
M  V30 1391 H 145.681 4.70575 1.57395 0
M  V30 1392 N 144.854 0.36279 1.53368 0
M  V30 1393 C 145.804 -0.501391 2.22419 0
M  V30 1394 C 146.788 -1.0509 1.2184 0
M  V30 1395 O 147.98 -0.981404 1.47301 0
M  V30 1396 C 145.109 -1.64201 3.01484 0
M  V30 1397 C 144.195 -1.10552 4.09438 0
M  V30 1398 N 144.586 -0.291788 5.04958 0
M  V30 1399 C 142.884 -1.3806 4.24094 0
M  V30 1400 C 143.585 0.00162655 5.817 0
M  V30 1401 N 142.561 -0.595244 5.40331 0
M  V30 1402 H 146.363 0.127159 2.93625 0
M  V30 1403 H 143.877 0.170658 1.61501 0
M  V30 1404 H 145.874 -2.27326 3.49469 0
M  V30 1405 H 144.534 -2.27365 2.31809 0
M  V30 1406 H 145.545 0.0687731 5.17854 0
M  V30 1407 H 142.222 -2.01522 3.65644 0
M  V30 1408 H 143.612 0.659278 6.68658 0
M  V30 1409 N 146.332 -1.57332 0.0918853 0
M  V30 1410 C 147.279 -2.13847 -0.868211 0
M  V30 1411 C 148.249 -1.05618 -1.28196 0
M  V30 1412 O 149.434 -1.33387 -1.36427 0
M  V30 1413 C 146.574 -2.72062 -2.12312 0
M  V30 1414 C 145.687 -3.94514 -1.7602 0
M  V30 1415 C 144.822 -4.40903 -2.96273 0
M  V30 1416 C 143.861 -5.55953 -2.56092 0
M  V30 1417 N 142.998 -5.97209 -3.69169 0
M  V30 1418 H 147.838 -2.95575 -0.379406 0
M  V30 1419 H 145.375 -1.46048 -0.175606 0
M  V30 1420 H 147.333 -3.03931 -2.858 0
M  V30 1421 H 145.963 -1.93068 -2.58698 0
M  V30 1422 H 145.015 -3.68979 -0.925135 0
M  V30 1423 H 146.327 -4.7802 -1.42472 0
M  V30 1424 H 145.481 -4.74539 -3.78018 0
M  V30 1425 H 144.22 -3.56291 -3.33029 0
M  V30 1426 H 143.225 -5.21948 -1.72773 0
M  V30 1427 H 144.45 -6.42311 -2.20484 0
M  V30 1428 H 142.396 -5.15543 -4.05649 0
M  V30 1429 H 142.313 -6.75504 -3.39456 0
M  V30 1430 H 143.581 -6.35475 -4.51434 0
M  V30 1431 N 147.81 0.181792 -1.56548 0
M  V30 1432 C 149.058 0.89832 -1.81038 0
M  V30 1433 C 149.379 1.83232 -0.667164 0
M  V30 1434 O 148.649 1.93372 0.313673 0
M  V30 1435 H 147.229 0.33471 -0.667816 0
M  V30 1436 H 149.891 0.184116 -1.94028 0
M  V30 1437 H 148.987 1.4815 -2.74696 0
M  V30 1438 N 149.288 1.51039 0.449983 0
M  V30 1439 C 150.238 1.67824 1.54335 0
M  V30 1440 C 151.222 0.5324 1.51836 0
M  V30 1441 O 152.414 0.787762 1.58503 0
M  V30 1442 C 149.543 1.7951 2.92628 0
M  V30 1443 C 148.629 2.99838 2.9993 0
M  V30 1444 N 149.02 4.23207 2.77001 0
M  V30 1445 C 147.318 2.98832 3.31082 0
M  V30 1446 C 148.019 5.04361 2.89818 0
M  V30 1447 N 146.995 4.38746 3.2094 0
M  V30 1448 H 150.797 2.60884 1.35339 0
M  V30 1449 H 148.311 1.48513 0.657085 0
M  V30 1450 H 150.308 1.89642 3.7127 0
M  V30 1451 H 148.968 0.876227 3.12654 0
M  V30 1452 H 149.979 4.5236 2.52172 0
M  V30 1453 H 146.656 2.16527 3.56963 0
M  V30 1454 H 148.046 6.12528 2.76151 0
M  V30 1455 N 150.766 -0.704594 1.40972 0
M  V30 1456 C 151.676 -1.84856 1.44448 0
M  V30 1457 C 152.692 -1.70726 0.335961 0
M  V30 1458 O 153.868 -1.92799 0.582276 0
M  V30 1459 C 150.933 -3.20758 1.31587 0
M  V30 1460 C 149.994 -3.47063 2.52677 0
M  V30 1461 C 149.227 -4.76481 2.4042 0
M  V30 1462 O 149.45 -5.52341 1.42391 0
M  V30 1463 O 148.384 -5.03367 3.30007 0
M  V30 1464 H 152.21 -1.8488 2.40942 0
M  V30 1465 H 149.795 -0.85647 1.22413 0
M  V30 1466 H 151.677 -4.01913 1.26665 0
M  V30 1467 H 150.352 -3.21438 0.382049 0
M  V30 1468 H 149.259 -2.65873 2.63177 0
M  V30 1469 H 150.592 -3.5119 3.44858 0
M  V30 1470 N 152.244 -1.26651 -0.937939 0
M  V30 1471 C 153.191 -1.0849 -2.03712 0
M  V30 1472 C 154.161 0.011033 -1.66096 0
M  V30 1473 O 155.346 -0.149353 -1.90215 0
M  V30 1474 C 152.486 -0.72735 -3.37348 0
M  V30 1475 C 151.599 -1.89986 -3.87981 0
M  V30 1476 C 150.734 -1.48513 -5.10017 0
M  V30 1477 C 149.773 -2.62575 -5.5292 0
M  V30 1478 N 148.91 -2.21762 -6.66158 0
M  V30 1479 H 153.75 -2.02551 -2.18579 0
M  V30 1480 H 151.287 -1.00844 -1.07093 0
M  V30 1481 H 153.245 -0.50092 -4.14182 0
M  V30 1482 H 151.875 0.176298 -3.22318 0
M  V30 1483 H 150.927 -2.23913 -3.07518 0
M  V30 1484 H 152.239 -2.75586 -4.15757 0
M  V30 1485 H 151.393 -1.21934 -5.94321 0
M  V30 1486 H 150.132 -0.60009 -4.83994 0
M  V30 1487 H 149.137 -2.8988 -4.67172 0
M  V30 1488 H 150.362 -3.51685 -5.80943 0
M  V30 1489 H 148.308 -1.35696 -6.41812 0
M  V30 1490 H 148.225 -3.00903 -6.93537 0
M  V30 1491 H 149.493 -1.98403 -7.53828 0
M  V30 1492 N 153.722 1.14298 -1.08507 0
M  V30 1493 C 154.947 1.8976 -0.837001 0
M  V30 1494 C 155.372 1.78097 0.605228 0
M  V30 1495 O 154.73 1.12188 1.4242 0
M  V30 1496 C 154.778 3.37685 -1.26495 0
M  V30 1497 O 153.882 4.10281 -0.417514 0
M  V30 1498 H 153.223 0.590365 -0.303917 0
M  V30 1499 H 155.753 1.44672 -1.44676 0
M  V30 1500 H 155.763 3.88501 -1.24625 0
M  V30 1501 H 154.438 3.45492 -2.31534 0
M  V30 1502 H 153.015 3.69536 -0.499722 0
M  V30 1503 N 155.201 0.870884 1.31352 0
M  V30 1504 C 156.447 0.482987 1.96965 0
M  V30 1505 C 156.78 -0.962462 1.68672 0
M  V30 1506 O 156.055 -1.6779 0.98371 0
M  V30 1507 C 156.338 0.741752 3.52378 0
M  V30 1508 C 156.191 2.2368 3.9024 0
M  V30 1509 C 157.51 0.208838 4.39604 0
M  V30 1510 H 154.629 0.176955 0.715441 0
M  V30 1511 H 157.271 1.09229 1.55464 0
M  V30 1512 H 155.421 0.223149 3.87859 0
M  V30 1513 H 157.093 2.82273 3.64856 0
M  V30 1514 H 155.336 2.70901 3.38814 0
M  V30 1515 H 156.007 2.3685 4.98604 0
M  V30 1516 H 158.483 0.652529 4.10952 0
M  V30 1517 H 157.359 0.419336 5.47296 0
M  V30 1518 H 157.62 -0.889275 4.33064 0
M  V30 1519 N 156.679 -1.44442 0.630414 0
M  V30 1520 C 157.642 -2.29107 -0.0652523 0
M  V30 1521 C 158.642 -1.41002 -0.772995 0
M  V30 1522 O 159.832 -1.62881 -0.617692 0
M  V30 1523 C 156.964 -3.22564 -1.10296 0
M  V30 1524 H 158.157 -2.92103 0.679401 0
M  V30 1525 H 155.71 -1.51343 0.390517 0
M  V30 1526 H 156.445 -2.64416 -1.87762 0
M  V30 1527 H 156.23 -3.87491 -0.59941 0
M  V30 1528 H 157.72 -3.86167 -1.5895 0
M  V30 1529 N 158.157 -0.370918 -1.53173 0
M  V30 1530 C 159.387 0.217389 -2.05453 0
M  V30 1531 C 159.795 1.42568 -1.24382 0
M  V30 1532 O 159.138 1.81571 -0.278839 0
M  V30 1533 C 159.2 0.669827 -3.53205 0
M  V30 1534 C 158.864 -0.4225 -4.55043 0
M  V30 1535 C 159.861 -1.27407 -5.04047 0
M  V30 1536 C 157.546 -0.58427 -4.9889 0
M  V30 1537 C 159.54 -2.27271 -5.95505 0
M  V30 1538 C 157.227 -1.58627 -5.90153 0
M  V30 1539 C 158.225 -2.42892 -6.38351 0
M  V30 1540 O 157.913 -3.41382 -7.27814 0
M  V30 1541 H 157.645 0.0408171 -0.674767 0
M  V30 1542 H 160.199 -0.5292 -1.98466 0
M  V30 1543 H 158.429 1.4681 -3.57748 0
M  V30 1544 H 160.118 1.18173 -3.88317 0
M  V30 1545 H 160.884 -1.16031 -4.70916 0
M  V30 1546 H 156.763 0.061851 -4.60959 0
M  V30 1547 H 160.307 -2.93079 -6.33049 0
M  V30 1548 H 156.204 -1.70048 -6.22699 0
M  V30 1549 H 156.972 -3.37173 -7.45826 0
M  V30 1550 N 159.635 1.57281 -0.100228 0
M  V30 1551 C 160.875 1.96419 0.56558 0
M  V30 1552 C 161.239 0.981265 1.65031 0
M  V30 1553 O 162.44 1.26133 2.37369 0
M  V30 1554 C 160.711 3.39996 1.10171 0
M  V30 1555 S 162.27 4.01134 1.77867 0
M  V30 1556 H 159.088 0.68667 0.184406 0
M  V30 1557 H 161.69 1.94662 -0.180851 0
M  V30 1558 H 160.394 4.09296 0.300803 0
M  V30 1559 H 159.925 3.45361 1.88385 0
M  V30 1560 H 161.94 3.90358 3.06326 0
M  V30 1561 N 161.113 -0.173488 1.56642 0
M  V30 1562 C 162.39 -0.917617 1.7274 0
M  V30 1563 C 162.77 -2.00484 0.661027 0
M  V30 1564 O 162.118 -2.26184 -0.32453 0
M  V30 1565 C 162.328 -1.48433 3.15862 0
M  V30 1566 C 163.676 -1.95809 3.76754 0
M  V30 1567 O 164.7 -1.58231 3.19126 0
M  V30 1568 O 163.559 -2.65024 4.77938 0
M  V30 1569 H 160.653 -0.431772 0.705338 0
M  V30 1570 H 163.199 -0.161487 1.6893 0
M  V30 1571 H 161.971 -0.701715 3.84957 0
M  V30 1572 H 161.594 -2.30471 3.23989 0
M  V30 1573 N 162.591 -1.51276 -0.441967 0
M  V30 1574 C 163.554 -1.7167 -1.51862 0
M  V30 1575 C 164.554 -0.586793 -1.49711 0
M  V30 1576 O 165.744 -0.854276 -1.51815 0
M  V30 1577 C 162.876 -1.76889 -2.91416 0
M  V30 1578 H 164.069 -2.67754 -1.35084 0
M  V30 1579 H 161.622 -1.41196 -0.670333 0
M  V30 1580 H 162.357 -0.826026 -3.13604 0
M  V30 1581 H 162.142 -2.59001 -2.94382 0
M  V30 1582 H 163.632 -1.94522 -3.69528 0
M  V30 1583 N 164.069 0.697108 -1.41344 0
M  V30 1584 C 165.309 1.46939 -1.42085 0
M  V30 1585 C 165.673 1.9198 -0.0280397 0
M  V30 1586 O 166.874 2.6865 0.0897504 0
M  V30 1587 C 165.145 2.64985 -2.39828 0
M  V30 1588 S 166.704 3.54147 -2.59085 0
M  V30 1589 H 163.522 0.502146 -0.503359 0
M  V30 1590 H 166.124 0.813546 -1.77769 0
M  V30 1591 H 164.828 2.30098 -3.39828 0
M  V30 1592 H 164.359 3.35464 -2.05493 0
M  V30 1593 H 166.374 4.60137 -1.85711 0
M  V30 1594 N 165.547 1.27147 0.931209 0
M  V30 1595 C 166.497 1.06227 2.01742 0
M  V30 1596 C 167.481 -0.00859065 1.60898 0
M  V30 1597 O 168.673 0.209537 1.75755 0
M  V30 1598 C 165.802 0.707787 3.35924 0
M  V30 1599 C 164.888 1.81661 3.83223 0
M  V30 1600 N 165.279 3.05564 4.03069 0
M  V30 1601 C 163.577 1.70249 4.12227 0
M  V30 1602 C 164.278 3.77697 4.42403 0
M  V30 1603 N 163.254 3.0544 4.49675 0
M  V30 1604 H 167.056 2.00261 2.15111 0
M  V30 1605 H 164.57 1.1781 1.11779 0
M  V30 1606 H 166.567 0.539043 4.134 0
M  V30 1607 H 165.227 -0.224964 3.2392 0
M  V30 1608 H 166.238 3.41363 3.89476 0
M  V30 1609 H 162.915 0.840329 4.08956 0
M  V30 1610 H 164.305 4.84168 4.65866 0
M  V30 1611 N 167.025 -1.13721 1.09112 0
M  V30 1612 C 168.25 -1.89314 0.847053 0
M  V30 1613 C 168.675 -1.78416 -0.595774 0
M  V30 1614 O 168.033 -1.12942 -1.41823 0
M  V30 1615 C 168.081 -3.3701 1.28284 0
M  V30 1616 O 167.185 -4.10054 0.439267 0
M  V30 1617 H 166.526 -0.588745 0.307044 0
M  V30 1618 H 169.056 -1.43902 1.45442 0
M  V30 1619 H 169.066 -3.87834 1.26683 0
M  V30 1620 H 167.741 -3.4426 2.33363 0
M  V30 1621 H 166.318 -3.69266 0.519312 0
M  V30 1622 N 168.503 -0.877838 -1.30888 0
M  V30 1623 C 169.75 -0.492696 -1.96415 0
M  V30 1624 C 170.078 0.956671 -1.69346 0
M  V30 1625 O 169.333 1.68993 -0.986913 0
M  V30 1626 C 169.632 -0.705748 -3.50363 0
M  V30 1627 C 169.298 -2.1291 -3.97467 0
M  V30 1628 C 167.96 -2.51834 -4.1004 0
M  V30 1629 C 170.312 -3.05702 -4.22132 0
M  V30 1630 C 167.64 -3.82775 -4.44635 0
M  V30 1631 C 169.992 -4.36166 -4.58194 0
M  V30 1632 C 168.656 -4.74993 -4.68975 0
M  V30 1633 H 167.926 -0.18029 -0.718733 0
M  V30 1634 H 170.573 -1.11233 -1.55883 0
M  V30 1635 H 168.878 -0.00303058 -3.918 0
M  V30 1636 H 170.575 -0.387456 -3.99124 0
M  V30 1637 H 167.165 -1.81694 -3.88182 0
M  V30 1638 H 171.349 -2.76853 -4.11906 0
M  V30 1639 H 166.605 -4.12609 -4.51181 0
M  V30 1640 H 170.779 -5.08111 -4.76231 0
M  V30 1641 H 168.406 -5.76495 -4.95537 0
M  V30 1642 N 169.982 1.44106 -0.638065 0
M  V30 1643 C 171.23 2.01579 -0.145043 0
M  V30 1644 C 171.551 1.50496 1.24 0
M  V30 1645 O 170.821 0.711374 1.82527 0
M  V30 1646 H 169.401 0.745282 -0.05063 0
M  V30 1647 H 172.063 1.76516 -0.826327 0
M  V30 1648 H 171.159 3.11877 -0.118039 0
M  V30 1649 N 171.46 0.379036 1.52974 0
M  V30 1650 C 172.707 -0.206421 2.01445 0
M  V30 1651 C 173.035 -1.47668 1.26587 0
M  V30 1652 O 172.29 -1.92514 0.351675 0
M  V30 1653 C 172.589 -0.53096 3.53434 0
M  V30 1654 C 172.255 0.646546 4.46241 0
M  V30 1655 C 170.917 0.969604 4.7133 0
M  V30 1656 C 173.269 1.43479 5.01062 0
M  V30 1657 C 170.597 2.08263 5.48492 0
M  V30 1658 C 172.949 2.53834 5.7944 0
M  V30 1659 C 171.613 2.86659 6.02812 0
M  V30 1660 H 170.883 -0.0755349 0.73714 0
M  V30 1661 H 173.53 0.514271 1.84465 0
M  V30 1662 H 171.835 -1.33285 3.68432 0
M  V30 1663 H 173.532 -0.996417 3.88423 0
M  V30 1664 H 170.122 0.384734 4.2687 0
M  V30 1665 H 174.306 1.19844 4.81613 0
M  V30 1666 H 169.562 2.34078 5.64816 0
M  V30 1667 H 173.736 3.15319 6.20924 0
M  V30 1668 H 171.363 3.73026 6.62387 0
M  V30 1669 N 172.938 -1.57226 0.108567 0
M  V30 1670 C 174.215 -1.86333 -0.594939 0
M  V30 1671 C 174.595 -1.00788 -1.85486 0
M  V30 1672 O 173.943 -0.0839293 -2.28346 0
M  V30 1673 C 174.153 -3.37265 -0.897405 0
M  V30 1674 C 175.501 -4.05629 -1.25501 0
M  V30 1675 O 176.525 -3.42224 -0.987998 0
M  V30 1676 O 175.384 -5.17531 -1.75567 0
M  V30 1677 H 172.478 -0.771018 -0.2991 0
M  V30 1678 H 175.024 -1.69102 0.142283 0
M  V30 1679 H 173.796 -3.913 -0.00413806 0
M  V30 1680 H 173.419 -3.59889 -1.69014 0
M  V30 1681 N 174.416 0.165178 -1.56732 0
M  V30 1682 C 175.349 1.23336 -1.91998 0
M  V30 1683 C 176.327 1.42476 -0.783531 0
M  V30 1684 O 177.511 1.57384 -1.03743 0
M  V30 1685 C 174.638 2.59533 -2.17625 0
M  V30 1686 C 173.684 2.57093 -3.40302 0
M  V30 1687 S 174.517 2.05571 -4.9447 0
M  V30 1688 C 175.673 3.43532 -5.23198 0
M  V30 1689 H 175.906 0.932387 -2.82301 0
M  V30 1690 H 173.439 0.370013 -1.49901 0
M  V30 1691 H 175.397 3.37918 -2.3307 0
M  V30 1692 H 174.058 2.86827 -1.28019 0
M  V30 1693 H 173.251 3.57308 -3.55453 0
M  V30 1694 H 172.853 1.86806 -3.24005 0
M  V30 1695 H 175.145 4.39559 -5.15552 0
M  V30 1696 H 176.088 3.33251 -6.2478 0
M  V30 1697 H 176.496 3.39828 -4.50752 0
M  V30 1698 N 175.894 1.51508 0.433938 0
M  V30 1699 C 177.305 1.56784 1.01369 0
M  V30 1700 C 177.656 0.393349 1.92217 0
M  V30 1701 O 176.781 -0.489441 2.10792 0
M  V30 1702 C 177.376 2.84144 1.8452 0
M  V30 1703 C 175.935 2.9198 2.37539 0
M  V30 1704 C 175.082 2.51482 1.16843 0
M  V30 1705 H 178.033 1.57236 0.215081 0
M  V30 1706 H 178.054 2.68098 2.70007 0
M  V30 1707 H 177.566 3.69607 1.18373 0
M  V30 1708 H 175.667 2.10955 3.0713 0
M  V30 1709 H 175.78 3.95704 2.70103 0
M  V30 1710 H 174.144 2.04758 1.51481 0
M  V30 1711 H 174.927 3.39293 0.523015 0
M  V30 1712 N 177.372 -0.689602 1.41712 0
M  V30 1713 C 178.619 -1.44966 1.4139 0
M  V30 1714 C 178.947 -1.94484 0.025105 0
M  V30 1715 O 178.202 -1.70307 -0.964048 0
M  V30 1716 C 178.501 -2.67298 2.37247 0
M  V30 1717 C 178.167 -2.36405 3.83958 0
M  V30 1718 C 176.829 -2.27691 4.23923 0
M  V30 1719 C 179.181 -2.11043 4.76561 0
M  V30 1720 C 176.509 -1.91719 5.54492 0
M  V30 1721 C 178.861 -1.76578 6.07456 0
M  V30 1722 C 177.525 -1.66363 6.46436 0
M  V30 1723 H 176.795 -0.53047 0.517381 0
M  V30 1724 H 179.442 -0.787655 1.74552 0
M  V30 1725 H 177.747 -3.38461 1.9736 0
M  V30 1726 H 179.444 -3.25452 2.34269 0
M  V30 1727 H 176.034 -2.44085 3.52308 0
M  V30 1728 H 180.218 -2.16717 4.46483 0
M  V30 1729 H 175.474 -1.82367 5.83568 0
M  V30 1730 H 179.648 -1.55974 6.78708 0
M  V30 1731 H 177.275 -1.38258 7.47522 0
M  V30 1732 N 178.85 -1.27639 -0.924453 0
M  V30 1733 C 180.098 -1.13941 -1.66918 0
M  V30 1734 C 180.419 0.314589 -1.92446 0
M  V30 1735 O 179.689 1.21964 -1.53303 0
M  V30 1736 H 178.269 -0.418678 -0.618642 0
M  V30 1737 H 180.931 -1.60213 -1.10985 0
M  V30 1738 H 180.027 -1.67094 -2.63602 0
M  V30 1739 N 180.328 1.1314 -1.09713 0
M  V30 1740 C 181.576 1.84119 -0.833338 0
M  V30 1741 C 181.897 1.84097 0.642904 0
M  V30 1742 O 181.167 1.29881 1.46655 0
M  V30 1743 H 179.747 0.681766 -0.305293 0
M  V30 1744 H 182.409 1.37038 -1.38588 0
M  V30 1745 H 181.505 2.88543 -1.18951 0
M  V30 1746 N 181.806 0.884767 1.30421 0
M  V30 1747 C 182.753 0.349642 2.28136 0
M  V30 1748 C 183.723 -0.560061 1.56373 0
M  V30 1749 O 184.908 -0.488524 1.8444 0
M  V30 1750 C 182.048 -0.42999 3.42411 0
M  V30 1751 C 181.161 0.508907 4.28992 0
M  V30 1752 C 180.296 -0.286301 5.30428 0
M  V30 1753 C 179.335 0.648079 6.08659 0
M  V30 1754 N 178.472 -0.111792 7.02011 0
M  V30 1755 H 183.312 1.18807 2.73293 0
M  V30 1756 H 180.849 0.597231 1.3443 0
M  V30 1757 H 182.807 -0.897923 4.07423 0
M  V30 1758 H 181.437 -1.23299 2.98324 0
M  V30 1759 H 180.489 1.09533 3.64289 0
M  V30 1760 H 181.801 1.22475 4.8353 0
M  V30 1761 H 180.955 -0.816098 6.01186 0
M  V30 1762 H 179.694 -1.03536 4.76583 0
M  V30 1763 H 178.699 1.18951 5.36778 0
M  V30 1764 H 179.924 1.39623 6.64592 0
M  V30 1765 H 177.87 -0.843395 6.50556 0
M  V30 1766 H 177.787 0.544429 7.54037 0
M  V30 1767 H 179.055 -0.622339 7.77012 0
M  V30 1768 N 183.284 -1.43765 0.645699 0
M  V30 1769 C 184.53 -2.02731 0.164844 0
M  V30 1770 C 184.885 -1.49983 -1.2051 0
M  V30 1771 O 184.178 -0.680208 -1.79119 0
M  V30 1772 C 184.372 -3.57238 0.107679 0
M  V30 1773 C 184.201 -4.24977 1.47054 0
M  V30 1774 C 182.971 -4.61356 2.06103 0
M  V30 1775 C 185.169 -4.54476 2.40741 0
M  V30 1776 N 183.151 -5.14132 3.35473 0
M  V30 1777 C 184.522 -5.08489 3.54737 0
M  V30 1778 C 186.577 -4.36438 2.39637 0
M  V30 1779 C 185.28 -5.46364 4.67845 0
M  V30 1780 C 187.306 -4.7537 3.5182 0
M  V30 1781 C 186.668 -5.2951 4.64541 0
M  V30 1782 H 182.767 -0.774976 0.104578 0
M  V30 1783 H 185.351 -1.75051 0.852367 0
M  V30 1784 H 183.522 -3.84498 -0.549165 0
M  V30 1785 H 185.254 -4.0288 -0.383351 0
M  V30 1786 H 182.009 -4.46151 1.58892 0
M  V30 1787 H 182.433 -5.4498 4.01654 0
M  V30 1788 H 187.075 -3.93861 1.53731 0
M  V30 1789 H 184.793 -5.87888 5.54448 0
M  V30 1790 H 188.379 -4.63115 3.52159 0
M  V30 1791 H 187.259 -5.59077 5.49911 0
M  V30 1792 N 184.763 -0.387143 -1.52771 0
M  V30 1793 C 185.673 0.456442 -2.30117 0
M  V30 1794 C 186.689 1.07342 -1.36944 0
M  V30 1795 O 187.865 1.07971 -1.70013 0
M  V30 1796 C 184.93 1.56957 -3.09136 0
M  V30 1797 C 183.991 0.977916 -4.18014 0
M  V30 1798 C 183.224 2.038 -4.93256 0
M  V30 1799 O 183.447 3.25271 -4.68567 0
M  V30 1800 O 182.381 1.6565 -5.78657 0
M  V30 1801 H 186.207 -0.17359 -3.03203 0
M  V30 1802 H 183.792 -0.150919 -1.48636 0
M  V30 1803 H 185.674 2.21628 -3.58412 0
M  V30 1804 H 184.349 2.18461 -2.38865 0
M  V30 1805 H 183.256 0.294525 -3.72939 0
M  V30 1806 H 184.589 0.407128 -4.90513 0
M  V30 1807 N 186.241 1.57166 -0.116904 0
M  V30 1808 C 187.657 1.5779 0.239693 0
M  V30 1809 C 187.857 1.1295 1.66867 0
M  V30 1810 O 186.913 0.81592 2.38954 0
M  V30 1811 C 188.226 3.00699 0.00828202 0
M  V30 1812 C 189.774 3.12912 0.0743438 0
M  V30 1813 C 190.249 4.57817 -0.129348 0
M  V30 1814 N 191.74 4.63139 -0.075247 0
M  V30 1815 C 192.475 5.73023 -0.207788 0
M  V30 1816 N 191.971 6.91665 -0.396382 0
M  V30 1817 N 193.764 5.61906 -0.14751 0
M  V30 1818 H 185.915 1.84615 -1.05029 0
M  V30 1819 H 188.178 0.85311 -0.41341 0
M  V30 1820 H 187.884 3.37784 -0.979531 0
M  V30 1821 H 187.758 3.69848 0.741077 0
M  V30 1822 H 190.145 2.75686 1.05268 0
M  V30 1823 H 190.226 2.4631 -0.690297 0
M  V30 1824 H 189.87 4.95742 -1.10465 0
M  V30 1825 H 189.8 5.22507 0.655253 0
M  V30 1826 H 192.291 3.7784 0.0670898 0
M  V30 1827 H 192.604 7.71255 -0.488437 0
M  V30 1828 H 190.949 6.93654 -0.432329 0
M  V30 1829 H 194.14 4.681 -0.00115036 0
M  V30 1830 H 194.313 6.47501 -0.254247 0
M  V30 1831 N 187.719 -0.156864 1.56817 0
M  V30 1832 C 188.666 -1.19394 1.97519 0
M  V30 1833 C 189.636 -1.4322 0.841265 0
M  V30 1834 O 190.821 -1.55719 1.10255 0
M  V30 1835 C 187.961 -2.52483 2.35258 0
M  V30 1836 C 187.074 -2.35914 3.61896 0
M  V30 1837 C 186.209 -3.61969 3.88782 0
M  V30 1838 C 185.248 -3.40395 5.08722 0
M  V30 1839 N 184.385 -4.58556 5.31668 0
M  V30 1840 H 189.225 -0.839845 2.85921 0
M  V30 1841 H 186.762 -0.403264 1.41464 0
M  V30 1842 H 188.72 -3.30071 2.55165 0
M  V30 1843 H 187.35 -2.85859 1.49949 0
M  V30 1844 H 186.402 -1.49429 3.49821 0
M  V30 1845 H 187.714 -2.15926 4.49641 0
M  V30 1846 H 186.868 -4.47989 4.09135 0
M  V30 1847 H 185.607 -3.84951 2.9944 0
M  V30 1848 H 184.612 -2.52763 4.88253 0
M  V30 1849 H 185.837 -3.18822 5.99608 0
M  V30 1850 H 183.783 -4.81729 4.45279 0
M  V30 1851 H 183.7 -4.41535 6.13664 0
M  V30 1852 H 184.968 -5.45817 5.5651 0
M  V30 1853 N 189.197 -1.51736 -0.425897 0
M  V30 1854 C 190.444 -1.6497 -1.17436 0
M  V30 1855 C 190.772 -0.371445 -1.9092 0
M  V30 1856 O 190.027 0.644963 -1.84767 0
M  V30 1857 C 190.326 -2.81103 -2.20717 0
M  V30 1858 C 189.992 -4.19954 -1.64162 0
M  V30 1859 C 188.654 -4.57725 -1.48462 0
M  V30 1860 C 191.006 -5.06552 -1.22696 0
M  V30 1861 C 188.334 -5.79789 -0.897873 0
M  V30 1862 C 190.686 -6.29205 -0.654464 0
M  V30 1863 C 189.35 -6.6574 -0.484456 0
M  V30 1864 H 188.62 -0.603668 -0.429727 0
M  V30 1865 H 191.267 -1.85798 -0.463829 0
M  V30 1866 H 189.572 -2.54542 -2.97852 0
M  V30 1867 H 191.269 -2.8854 -2.78471 0
M  V30 1868 H 187.859 -3.90181 -1.77361 0
M  V30 1869 H 192.043 -4.77968 -1.33642 0
M  V30 1870 H 187.299 -6.06733 -0.75402 0
M  V30 1871 H 191.473 -6.95643 -0.324694 0
M  V30 1872 H 189.1 -7.60195 -0.0276833 0
M  V30 1873 N 190.675 0.682077 -1.42076 0
M  V30 1874 C 191.921 1.44428 -1.42367 0
M  V30 1875 C 192.254 1.94164 -0.0373056 0
M  V30 1876 O 191.529 1.70429 0.937239 0
M  V30 1877 C 191.812 2.64654 -2.44194 0
M  V30 1878 C 191.665 2.20596 -3.91991 0
M  V30 1879 C 192.984 3.66865 -2.431 0
M  V30 1880 H 190.103 0.523834 -0.518428 0
M  V30 1881 H 192.745 0.77576 -1.73442 0
M  V30 1882 H 190.895 3.2169 -2.17826 0
M  V30 1883 H 192.567 1.68783 -4.29313 0
M  V30 1884 H 190.81 1.52242 -4.06208 0
M  V30 1885 H 191.481 3.06921 -4.58807 0
M  V30 1886 H 193.957 3.19531 -2.66532 0
M  V30 1887 H 192.833 4.48577 -3.16339 0
M  V30 1888 H 193.094 4.17493 -1.45437 0
M  V30 1889 N 192.153 1.28127 0.917671 0
M  V30 1890 C 193.564 1.13622 1.48145 0
M  V30 1891 C 193.915 -0.275207 1.9426 0
M  V30 1892 O 193.04 -1.1691 1.82102 0
M  V30 1893 C 193.635 2.05648 2.69248 0
M  V30 1894 C 192.194 1.95219 3.21818 0
M  V30 1895 C 191.341 1.97618 1.94532 0
M  V30 1896 H 194.292 1.40874 0.730772 0
M  V30 1897 H 194.313 1.61818 3.44377 0
M  V30 1898 H 193.825 3.08365 2.35653 0
M  V30 1899 H 191.926 0.955244 3.60147 0
M  V30 1900 H 192.039 2.81976 3.87333 0
M  V30 1901 H 190.403 1.41973 2.11461 0
M  V30 1902 H 191.186 3.02007 1.63238 0
M  V30 1903 N 193.631 -1.12557 1.10312 0
M  V30 1904 C 194.877 -1.84311 0.846011 0
M  V30 1905 C 195.21 -1.83805 -0.626859 0
M  V30 1906 O 194.485 -1.28268 -1.46211 0
M  V30 1907 C 194.768 -3.32048 1.39341 0
M  V30 1908 C 194.621 -3.41016 2.93305 0
M  V30 1909 C 195.94 -4.27764 1.03468 0
M  V30 1910 H 193.059 -0.669192 0.30879 0
M  V30 1911 H 195.701 -1.32057 1.36605 0
M  V30 1912 H 193.851 -3.76678 0.951087 0
M  V30 1913 H 195.523 -3.05031 3.46055 0
M  V30 1914 H 193.766 -2.81603 3.29973 0
M  V30 1915 H 194.437 -4.44948 3.26689 0
M  V30 1916 H 196.913 -3.91253 1.41633 0
M  V30 1917 H 195.789 -5.29549 1.44463 0
M  V30 1918 H 196.05 -4.42064 -0.0560404 0
M  V30 1919 N 195.109 -0.891671 -1.2995 0
M  V30 1920 C 196.386 -0.433307 -1.9074 0
M  V30 1921 C 196.766 1.08646 -1.80995 0
M  V30 1922 O 196.114 1.92476 -1.23147 0
M  V30 1923 C 196.324 -0.938895 -3.36134 0
M  V30 1924 C 197.672 -0.977829 -4.13187 0
M  V30 1925 O 198.696 -0.886015 -3.45005 0
M  V30 1926 O 197.555 -1.11453 -5.35015 0
M  V30 1927 H 194.649 -0.133699 -0.816121 0
M  V30 1928 H 197.195 -0.981011 -1.38471 0
M  V30 1929 H 195.967 -1.98281 -3.37343 0
M  V30 1930 H 195.59 -0.37074 -3.95868 0
M  V30 1931 N 196.587 1.43421 -0.653314 0
M  V30 1932 C 197.55 2.29182 0.0287951 0
M  V30 1933 C 198.55 1.42213 0.750465 0
M  V30 1934 O 199.74 1.63843 0.591701 0
M  V30 1935 C 196.872 3.24278 1.05151 0
M  V30 1936 H 198.065 2.90985 -0.725786 0
M  V30 1937 H 195.618 1.50702 -0.414545 0
M  V30 1938 H 196.353 2.6737 1.83532 0
M  V30 1939 H 196.138 3.88396 0.537687 0
M  V30 1940 H 197.628 3.88647 1.52786 0
M  V30 1941 N 198.065 0.39524 1.52563 0
M  V30 1942 C 199.342 -0.242908 1.94086 0
M  V30 1943 C 199.722 -1.63841 1.33114 0
M  V30 1944 O 199.07 -2.22928 0.501529 0
M  V30 1945 C 199.28 -0.26327 3.48006 0
M  V30 1946 C 200.628 -0.489354 4.21771 0
M  V30 1947 O 201.652 -0.343226 3.54543 0
M  V30 1948 O 200.511 -0.776169 5.4096 0
M  V30 1949 H 197.605 -0.152536 0.812811 0
M  V30 1950 H 200.151 0.450178 1.6362 0
M  V30 1951 H 198.923 0.713985 3.84731 0
M  V30 1952 H 198.546 -1.00103 3.84792 0
M  V30 1953 N 199.544 -1.57102 0.125237 0
M  V30 1954 C 200.491 -2.15641 -0.822655 0
M  V30 1955 C 201.461 -1.08313 -1.25927 0
M  V30 1956 O 202.646 -1.36251 -1.33567 0
M  V30 1957 C 199.786 -2.76504 -2.06494 0
M  V30 1958 C 198.899 -3.98158 -1.67612 0
M  V30 1959 C 198.034 -4.47088 -2.86854 0
M  V30 1960 C 197.073 -5.6126 -2.44242 0
M  V30 1961 N 196.21 -6.04905 -3.56419 0
M  V30 1962 H 201.05 -2.96313 -0.316625 0
M  V30 1963 H 198.587 -1.46388 -0.144588 0
M  V30 1964 H 200.545 -3.09925 -2.79289 0
M  V30 1965 H 199.175 -1.98512 -2.54545 0
M  V30 1966 H 198.227 -3.70858 -0.846661 0
M  V30 1967 H 199.539 -4.80934 -1.32301 0
M  V30 1968 H 198.693 -4.82451 -3.67867 0
M  V30 1969 H 197.432 -3.63275 -3.25396 0
M  V30 1970 H 196.437 -5.25495 -1.61663 0
M  V30 1971 H 197.662 -6.46843 -2.0681 0
M  V30 1972 H 195.608 -5.24032 -3.94623 0
M  V30 1973 H 195.525 -6.82552 -3.25051 0
M  V30 1974 H 196.793 -6.44907 -4.37853 0
M  V30 1975 N 201.022 0.148545 -1.56898 0
M  V30 1976 C 201.985 1.16736 -1.97244 0
M  V30 1977 C 202.985 1.35947 -0.858777 0
M  V30 1978 O 204.175 1.32966 -1.12542 0
M  V30 1979 C 201.307 2.52798 -2.28705 0
M  V30 1980 H 202.5 0.821279 -2.88435 0
M  V30 1981 H 200.053 0.391831 -1.51309 0
M  V30 1982 H 200.788 2.92381 -1.403 0
M  V30 1983 H 200.573 2.40216 -3.09901 0
M  V30 1984 H 202.063 3.26179 -2.60762 0
M  V30 1985 N 202.5 1.5196 0.417844 0
M  V30 1986 C 203.463 1.74065 1.49111 0
M  V30 1987 C 204.463 0.610537 1.48758 0
M  V30 1988 O 205.653 0.87832 1.50437 0
M  V30 1989 C 202.785 1.81502 2.88565 0
M  V30 1990 H 203.978 2.69869 1.30807 0
M  V30 1991 H 201.531 1.42244 0.647785 0
M  V30 1992 H 202.266 0.875813 3.1225 0
M  V30 1993 H 202.051 2.63651 2.90225 0
M  V30 1994 H 203.541 2.00376 3.66387 0
M  V30 1995 N 203.978 -0.674533 1.42435 0
M  V30 1996 C 204.91 -1.80005 1.41883 0
M  V30 1997 C 205.923 -1.59667 0.31787 0
M  V30 1998 O 207.112 -1.68781 0.580973 0
M  V30 1999 C 204.212 -3.17114 1.19549 0
M  V30 2000 C 203.385 -3.64299 2.42084 0
M  V30 2001 C 202.444 -4.80142 2.15291 0
M  V30 2002 O 201.47 -4.90673 2.88493 0
M  V30 2003 N 202.672 -5.68869 1.1562 0
M  V30 2004 H 205.437 -1.80964 2.38898 0
M  V30 2005 H 202.998 -0.857633 1.37318 0
M  V30 2006 H 204.99 -3.92267 0.995417 0
M  V30 2007 H 203.56 -3.11053 0.310569 0
M  V30 2008 H 202.78 -2.79822 2.77657 0
M  V30 2009 H 204.068 -3.92567 3.23679 0
M  V30 2010 H 203.466 -5.63012 0.550765 0
M  V30 2011 H 202.023 -6.43833 1.016 0
M  V30 2012 N 205.456 -1.28612 -0.910864 0
M  V30 2013 C 206.733 -1.06632 -1.63979 0
M  V30 2014 C 207.113 0.393351 -2.07403 0
M  V30 2015 O 206.461 1.37999 -1.82122 0
M  V30 2016 C 206.671 -2.0436 -2.8291 0
M  V30 2017 C 208.019 -2.34666 -3.5386 0
M  V30 2018 O 209.043 -2.02467 -2.93062 0
M  V30 2019 O 207.902 -2.89631 -4.63439 0
M  V30 2020 H 204.996 -0.407737 -0.7195 0
M  V30 2021 H 207.542 -1.39942 -0.959914 0
M  V30 2022 H 206.314 -3.02727 -2.47936 0
M  V30 2023 H 205.937 -1.71714 -3.58609 0
M  V30 2024 N 206.934 1.1197 -1.10907 0
M  V30 2025 C 207.881 2.17846 -0.762345 0
M  V30 2026 C 208.851 1.63995 0.263599 0
M  V30 2027 O 210.036 1.90273 0.141773 0
M  V30 2028 C 207.176 3.44487 -0.205651 0
M  V30 2029 C 206.289 4.12369 -1.28748 0
M  V30 2030 C 205.424 5.26674 -0.691919 0
M  V30 2031 C 204.463 5.86431 -1.75399 0
M  V30 2032 N 203.6 6.92142 -1.17833 0
M  V30 2033 H 208.44 2.46851 -1.6694 0
M  V30 2034 H 205.977 1.21188 -0.833776 0
M  V30 2035 H 207.935 4.16981 0.135037 0
M  V30 2036 H 206.565 3.15884 0.664613 0
M  V30 2037 H 205.617 3.38003 -1.74522 0
M  V30 2038 H 206.929 4.52844 -2.09125 0
M  V30 2039 H 206.083 6.05953 -0.300963 0
M  V30 2040 H 204.822 4.8749 0.143232 0
M  V30 2041 H 203.827 5.05835 -2.15432 0
M  V30 2042 H 205.052 6.27685 -2.59208 0
M  V30 2043 H 202.998 6.54985 -0.364725 0
M  V30 2044 H 202.915 7.31242 -1.91887 0
M  V30 2045 H 204.183 7.75237 -0.81408 0
M  V30 2046 N 208.412 0.89855 1.29475 0
M  V30 2047 C 209.375 0.380272 2.26023 0
M  V30 2048 C 210.375 -0.484891 1.53315 0
M  V30 2049 O 211.565 -0.290108 1.71767 0
M  V30 2050 C 208.697 -0.45651 3.3783 0
M  V30 2051 H 209.89 1.23295 2.73383 0
M  V30 2052 H 207.443 0.676589 1.40897 0
M  V30 2053 H 208.178 -1.32922 2.95808 0
M  V30 2054 H 207.963 0.163393 3.91759 0
M  V30 2055 H 209.453 -0.810466 4.0966 0
M  V30 2056 N 209.89 -1.43072 0.660911 0
M  V30 2057 C 211.139 -2.00942 0.174735 0
M  V30 2058 C 211.452 -1.52797 -1.22117 0
M  V30 2059 O 212.658 -2.02991 -1.80297 0
M  V30 2060 C 211.114 -3.58948 0.261559 0
M  V30 2061 C 210.722 -4.16085 1.66064 0
M  V30 2062 C 212.466 -4.24173 -0.166617 0
M  V30 2063 C 210.373 -5.6641 1.70098 0
M  V30 2064 H 209.303 -0.751483 0.0615631 0
M  V30 2065 H 211.954 -1.63955 0.824069 0
M  V30 2066 H 210.336 -3.93372 -0.455421 0
M  V30 2067 H 211.51 -3.93147 2.40359 0
M  V30 2068 H 209.825 -3.6326 2.03546 0
M  V30 2069 H 212.422 -5.34471 -0.156433 0
M  V30 2070 H 212.765 -3.98647 -1.19943 0
M  V30 2071 H 213.298 -3.94659 0.498875 0
M  V30 2072 H 210.037 -5.96715 2.71315 0
M  V30 2073 H 209.557 -5.91382 1.00139 0
M  V30 2074 H 211.236 -6.30585 1.44816 0
M  V30 2075 N 211.368 -0.403325 -1.52352 0
M  V30 2076 C 212.331 0.413051 -2.25447 0
M  V30 2077 C 213.331 0.978513 -1.276 0
M  V30 2078 O 214.521 0.858305 -1.51587 0
M  V30 2079 C 211.653 1.58087 -3.02029 0
M  V30 2080 H 212.846 -0.227094 -2.99039 0
M  V30 2081 H 210.399 -0.155722 -1.55522 0
M  V30 2082 H 211.134 2.25804 -2.32772 0
M  V30 2083 H 210.919 1.18195 -3.73861 0
M  V30 2084 H 212.409 2.1585 -3.57489 0
M  V30 2085 N 212.846 1.57033 -0.133567 0
M  V30 2086 C 213.809 2.14897 0.796995 0
M  V30 2087 C 214.809 1.0874 1.18458 0
M  V30 2088 O 215.999 1.34446 1.1077 0
M  V30 2089 C 213.131 2.70112 2.07973 0
M  V30 2090 H 214.324 2.98457 0.293873 0
M  V30 2091 H 211.877 1.55871 0.115787 0
M  V30 2092 H 212.612 1.9018 2.62682 0
M  V30 2093 H 212.397 3.47764 1.81115 0
M  V30 2094 H 213.887 3.14738 2.74462 0
M  V30 2095 N 214.325 -0.140222 1.56975 0
M  V30 2096 C 215.573 -0.850005 1.83356 0
M  V30 2097 C 215.894 -1.81399 0.71551 0
M  V30 2098 O 215.164 -1.94136 -0.262294 0
M  V30 2099 H 213.744 -0.316886 0.676456 0
M  V30 2100 H 216.406 -0.132608 1.94448 0
M  V30 2101 H 215.502 -1.40814 2.78528 0
M  V30 2102 N 215.803 -1.52179 -0.40978 0
M  V30 2103 C 217.049 -1.66453 -1.15851 0
M  V30 2104 C 217.382 -0.392972 -1.90182 0
M  V30 2105 O 216.657 0.608579 -1.84734 0
M  V30 2106 C 216.94 -2.88612 -2.15349 0
M  V30 2107 C 216.793 -4.25815 -1.44918 0
M  V30 2108 C 218.112 -3.06294 -3.16026 0
M  V30 2109 H 215.231 -0.60575 -0.419805 0
M  V30 2110 H 217.873 -1.84732 -0.444314 0
M  V30 2111 H 216.023 -2.73158 -2.76255 0
M  V30 2112 H 217.695 -4.52995 -0.871365 0
M  V30 2113 H 215.938 -4.27247 -0.751159 0
M  V30 2114 H 216.609 -5.07337 -2.17516 0
M  V30 2115 H 219.085 -3.20641 -2.65195 0
M  V30 2116 H 217.961 -3.93283 -3.8291 0
M  V30 2117 H 218.222 -2.19579 -3.83715 0
M  V30 2118 N 217.281 0.66697 -1.42791 0
M  V30 2119 C 218.228 1.7803 -1.4688 0
M  V30 2120 C 219.198 1.6299 -0.319919 0
M  V30 2121 O 220.383 1.83432 -0.525118 0
M  V30 2122 C 217.523 3.1611 -1.38451 0
M  V30 2123 C 216.636 3.42381 -2.63437 0
M  V30 2124 C 215.771 4.70232 -2.47094 0
M  V30 2125 C 214.81 4.89564 -3.67415 0
M  V30 2126 N 213.947 6.08661 -3.49966 0
M  V30 2127 H 218.787 1.7387 -2.42019 0
M  V30 2128 H 216.324 0.84868 -1.20149 0
M  V30 2129 H 218.282 3.95914 -1.31561 0
M  V30 2130 H 216.912 3.19374 -0.469033 0
M  V30 2131 H 215.964 2.56774 -2.80662 0
M  V30 2132 H 217.276 3.52557 -3.52853 0
M  V30 2133 H 216.43 5.5814 -2.37834 0
M  V30 2134 H 215.169 4.62353 -1.5518 0
M  V30 2135 H 214.174 4.00096 -3.77099 0
M  V30 2136 H 215.399 4.99282 -4.6032 0
M  V30 2137 H 213.345 6.0194 -2.60776 0
M  V30 2138 H 213.262 6.19733 -4.32975 0
M  V30 2139 H 214.53 6.99226 -3.44532 0
M  V30 2140 N 218.759 1.29093 0.90403 0
M  V30 2141 C 219.669 1.15727 2.0407 0
M  V30 2142 C 220.685 0.0815308 1.73809 0
M  V30 2143 O 221.861 0.292749 1.99261 0
M  V30 2144 C 218.926 0.830424 3.36608 0
M  V30 2145 C 217.987 1.98955 3.80415 0
M  V30 2146 C 217.22 1.6782 5.06628 0
M  V30 2147 O 217.443 0.597105 5.67266 0
M  V30 2148 O 216.377 2.52486 5.46383 0
M  V30 2149 H 220.203 2.11171 2.18267 0
M  V30 2150 H 217.788 1.08504 1.027 0
M  V30 2151 H 219.67 0.662521 4.16159 0
M  V30 2152 H 218.345 -0.0942678 3.23563 0
M  V30 2153 H 217.252 2.21267 3.01648 0
M  V30 2154 H 218.585 2.89529 3.98037 0
M  V30 2155 N 220.237 -1.11381 1.11499 0
M  V30 2156 C 221.465 -1.86934 0.88675 0
M  V30 2157 C 221.88 -1.80195 -0.563476 0
M  V30 2158 O 221.237 -1.18367 -1.38908 0
M  V30 2159 C 221.288 -3.35722 1.34064 0
M  V30 2160 O 221.009 -3.4232 2.73401 0
M  V30 2161 C 222.51 -4.2818 1.14791 0
M  V30 2162 H 219.73 -0.591117 0.317523 0
M  V30 2163 H 222.274 -1.40865 1.48248 0
M  V30 2164 H 220.429 -3.79294 0.788355 0
M  V30 2165 H 220.843 -4.34971 2.93087 0
M  V30 2166 H 222.317 -5.30817 1.5145 0
M  V30 2167 H 222.794 -4.39113 0.0875279 0
M  V30 2168 H 223.4 -3.90402 1.68721 0
M  V30 2169 N 221.715 -0.905404 -1.28997 0
M  V30 2170 C 222.943 -0.549846 -1.9946 0
M  V30 2171 C 223.358 0.866834 -1.67724 0
M  V30 2172 O 222.715 1.57298 -0.925404 0
M  V30 2173 C 222.766 -0.739387 -3.53858 0
M  V30 2174 O 222.487 -2.10031 -3.84472 0
M  V30 2175 C 223.988 -0.389541 -4.41585 0
M  V30 2176 H 221.208 -0.210429 -0.637151 0
M  V30 2177 H 223.752 -1.21632 -1.64396 0
M  V30 2178 H 221.907 -0.120023 -3.87214 0
M  V30 2179 H 222.321 -2.13385 -4.79132 0
M  V30 2180 H 223.795 -0.572972 -5.49018 0
M  V30 2181 H 224.272 0.673756 -4.34001 0
M  V30 2182 H 224.878 -0.986089 -4.1371 0
M  V30 2183 N 223.193 1.4272 -0.668489 0
M  V30 2184 C 224.47 1.95248 -0.117373 0
M  V30 2185 C 224.85 1.60919 1.36632 0
M  V30 2186 O 224.198 0.902095 2.09939 0
M  V30 2187 C 224.408 3.46927 -0.379806 0
M  V30 2188 C 225.756 4.23588 -0.292923 0
M  V30 2189 O 226.78 3.5482 -0.313204 0
M  V30 2190 O 225.639 5.46017 -0.229697 0
M  V30 2191 H 222.733 0.827 0.00079152 0
M  V30 2192 H 225.279 1.52581 -0.742783 0
M  V30 2193 H 224.051 3.65096 -1.40786 0
M  V30 2194 H 223.674 3.96627 0.277923 0
M  V30 2195 N 224.671 0.411399 1.52136 0
M  V30 2196 C 225.917 -0.163888 2.02137 0
M  V30 2197 C 226.25 -1.44597 1.29636 0
M  V30 2198 O 225.525 -1.90272 0.403353 0
M  V30 2199 C 225.808 -0.40927 3.57767 0
M  V30 2200 C 225.661 0.889643 4.40914 0
M  V30 2201 C 226.98 -1.19042 4.23694 0
M  V30 2202 H 224.099 -0.0580896 0.734707 0
M  V30 2203 H 226.741 0.54531 1.82007 0
M  V30 2204 H 224.891 -1.0134 3.7505 0
M  V30 2205 H 226.563 1.52575 4.35337 0
M  V30 2206 H 224.806 1.50011 4.07037 0
M  V30 2207 H 225.477 0.672314 5.4789 0
M  V30 2208 H 227.953 -0.678942 4.10524 0
M  V30 2209 H 226.829 -1.33086 5.32522 0
M  V30 2210 H 227.09 -2.21166 3.82803 0
M  V30 2211 N 226.149 -1.5696 0.141893 0
M  V30 2212 C 227.395 -1.9625 -0.511248 0
M  V30 2213 C 227.728 -1.02654 -1.64851 0
M  V30 2214 O 227.003 -0.0679676 -1.94381 0
M  V30 2215 C 227.286 -3.45285 -1.02227 0
M  V30 2216 C 227.139 -4.49658 0.113138 0
M  V30 2217 C 228.458 -3.96698 -1.90574 0
M  V30 2218 H 225.577 -0.713567 -0.184367 0
M  V30 2219 H 228.219 -1.88698 0.222087 0
M  V30 2220 H 226.369 -3.51852 -1.64719 0
M  V30 2221 H 228.041 -4.55174 0.749302 0
M  V30 2222 H 226.284 -4.26857 0.773026 0
M  V30 2223 H 226.955 -5.51258 -0.286053 0
M  V30 2224 H 229.431 -3.92578 -1.37918 0
M  V30 2225 H 228.307 -5.01453 -2.2324 0
M  V30 2226 H 228.568 -3.3875 -2.84079 0
M  V30 2227 N 227.627 0.131896 -1.57047 0
M  V30 2228 C 228.876 0.84044 -1.83356 0
M  V30 2229 C 229.189 1.81646 -0.725535 0
M  V30 2230 O 230.395 2.57025 -0.874659 0
M  V30 2231 C 228.851 1.54528 -3.25037 0
M  V30 2232 C 228.459 0.610902 -4.43815 0
M  V30 2233 C 230.203 2.23972 -3.60606 0
M  V30 2234 C 228.11 1.31823 -5.76521 0
M  V30 2235 H 227.04 0.317599 -0.683847 0
M  V30 2236 H 229.691 0.0931561 -1.83263 0
M  V30 2237 H 228.073 2.33873 -3.19561 0
M  V30 2238 H 229.247 -0.148407 -4.60561 0
M  V30 2239 H 227.562 0.0241016 -4.16393 0
M  V30 2240 H 230.159 2.77558 -4.57018 0
M  V30 2241 H 230.502 3.01173 -2.87403 0
M  V30 2242 H 231.035 1.51529 -3.6781 0
M  V30 2243 H 227.774 0.587771 -6.52859 0
M  V30 2244 H 227.294 2.04987 -5.63685 0
M  V30 2245 H 228.973 1.855 -6.19838 0
M  V30 2246 N 229.106 1.52395 0.401703 0
M  V30 2247 C 230.355 1.66044 1.14509 0
M  V30 2248 C 230.668 0.400216 1.91462 0
M  V30 2249 O 231.874 0.416632 2.68284 0
M  V30 2250 C 230.33 2.93388 2.0845 0
M  V30 2251 C 229.938 4.26545 1.36978 0
M  V30 2252 C 231.682 3.16402 2.83001 0
M  V30 2253 C 229.589 5.45007 2.29611 0
M  V30 2254 H 228.519 0.618562 0.431158 0
M  V30 2255 H 231.17 1.78886 0.40892 0
M  V30 2256 H 229.552 2.74263 2.8565 0
M  V30 2257 H 230.726 4.56179 0.650916 0
M  V30 2258 H 229.041 4.09692 0.74438 0
M  V30 2259 H 231.638 4.02085 3.52465 0
M  V30 2260 H 231.981 2.30943 3.46368 0
M  V30 2261 H 232.514 3.36034 2.12898 0
M  V30 2262 H 229.253 6.32835 1.70879 0
M  V30 2263 H 228.773 5.19702 2.9945 0
M  V30 2264 H 230.452 5.7838 2.89974 0
M  V30 2265 N 230.584 -0.659388 1.43143 0
M  V30 2266 C 231.832 -1.41654 1.44147 0
M  V30 2267 C 232.153 -1.94893 0.0645739 0
M  V30 2268 O 231.423 -1.74044 -0.899198 0
M  V30 2269 H 230.003 -0.525708 0.530697 0
M  V30 2270 H 232.665 -0.778097 1.78694 0
M  V30 2271 H 231.761 -2.26195 2.1504 0
M  V30 2272 N 232.062 -1.29571 -0.897171 0
M  V30 2273 C 233.287 -1.20705 -1.68656 0
M  V30 2274 C 233.712 0.228582 -1.86706 0
M  V30 2275 O 233.07 1.16494 -1.3892 0
M  V30 2276 C 233.118 -1.9282 -3.04717 0
M  V30 2277 O 232.222 -1.24697 -3.93096 0
M  V30 2278 H 231.563 -0.418126 -0.515816 0
M  V30 2279 H 234.093 -1.71183 -1.12061 0
M  V30 2280 H 234.103 -2.01372 -3.54843 0
M  V30 2281 H 232.778 -2.97239 -2.90899 0
M  V30 2282 H 231.355 -1.2442 -3.51531 0
M  V30 2283 N 233.54 1.10788 -1.12088 0
M  V30 2284 C 234.788 1.8231 -0.872205 0
M  V30 2285 C 235.109 1.85419 0.603709 0
M  V30 2286 O 234.379 1.32963 1.43867 0
M  V30 2287 H 232.959 0.675137 -0.319686 0
M  V30 2288 H 235.621 1.34068 -1.41463 0
M  V30 2289 H 234.717 2.85955 -1.25045 0
M  V30 2290 N 235.018 0.912232 1.28515 0
M  V30 2291 C 236.266 0.543523 1.94654 0
M  V30 2292 C 236.587 -0.9155 1.72173 0
M  V30 2293 O 235.857 -1.64708 1.06058 0
M  V30 2294 H 234.437 0.198017 0.720277 0
M  V30 2295 H 237.099 1.16126 1.56527 0
M  V30 2296 H 236.195 0.736684 3.03281 0
M  V30 2297 N 236.496 -1.42363 0.676048 0
M  V30 2298 C 237.459 -2.29199 0.00766941 0
M  V30 2299 C 238.459 -1.43389 -0.727745 0
M  V30 2300 O 239.649 -1.64764 -0.56556 0
M  V30 2301 C 236.781 -3.2591 -0.999785 0
M  V30 2302 H 237.974 -2.89794 0.771988 0
M  V30 2303 H 235.527 -1.50024 0.438468 0
M  V30 2304 H 236.262 -2.70256 -1.79255 0
M  V30 2305 H 236.047 -3.89202 -0.475829 0
M  V30 2306 H 237.537 -3.91028 -1.46583 0
M  V30 2307 N 237.974 -0.419461 -1.51915 0
M  V30 2308 C 239.222 0.152637 -2.01523 0
M  V30 2309 C 239.543 1.44762 -1.30649 0
M  V30 2310 O 238.813 1.90997 -0.435535 0
M  V30 2311 H 237.393 0.0593966 -0.744635 0
M  V30 2312 H 240.055 -0.558073 -1.86739 0
M  V30 2313 H 239.151 0.341369 -3.10227 0
M  V30 2314 N 239.452 1.56882 -0.150215 0
M  V30 2315 C 240.382 2.19935 0.784284 0
M  V30 2316 C 241.363 1.14854 1.25469 0
M  V30 2317 O 242.548 1.43209 1.31168 0
M  V30 2318 C 239.678 2.82349 2.02229 0
M  V30 2319 C 238.632 3.93285 1.68853 0
M  V30 2320 C 237.958 4.42649 2.99944 0
M  V30 2321 C 239.258 5.13904 0.932714 0
M  V30 2322 H 240.952 2.9828 0.258781 0
M  V30 2323 H 238.498 1.43473 0.123029 0
M  V30 2324 H 240.451 3.25126 2.68088 0
M  V30 2325 H 239.175 2.0134 2.57157 0
M  V30 2326 H 237.834 3.5113 1.05371 0
M  V30 2327 H 237.482 3.58458 3.52869 0
M  V30 2328 H 237.182 5.17476 2.78374 0
M  V30 2329 H 238.706 4.88099 3.66868 0
M  V30 2330 H 240.12 5.53506 1.49345 0
M  V30 2331 H 238.517 5.94515 0.81684 0
M  V30 2332 H 239.587 4.84842 -0.0749568 0
M  V30 2333 N 240.93 -0.123565 1.57115 0
M  V30 2334 C 241.893 -1.13583 1.99076 0
M  V30 2335 C 242.893 -1.34564 0.880296 0
M  V30 2336 O 244.083 -1.31158 1.14644 0
M  V30 2337 C 241.215 -2.49128 2.32698 0
M  V30 2338 H 242.408 -0.775287 2.89706 0
M  V30 2339 H 239.961 -0.36771 1.51913 0
M  V30 2340 H 240.696 -2.90111 1.44934 0
M  V30 2341 H 240.481 -2.35255 3.13684 0
M  V30 2342 H 241.971 -3.2199 2.65918 0
M  V30 2343 N 242.408 -1.52605 -0.393616 0
M  V30 2344 C 243.371 -1.76415 -1.46323 0
M  V30 2345 C 244.371 -0.634126 -1.47768 0
M  V30 2346 O 245.561 -0.902142 -1.4902 0
M  V30 2347 C 242.693 -1.8607 -2.85641 0
M  V30 2348 H 243.886 -2.71916 -1.26498 0
M  V30 2349 H 241.439 -1.43257 -0.625073 0
M  V30 2350 H 242.174 -0.925378 -3.10817 0
M  V30 2351 H 241.959 -2.68235 -2.85993 0
M  V30 2352 H 243.449 -2.06179 -3.63153 0
M  V30 2353 N 243.887 0.651787 -1.4349 0
M  V30 2354 C 244.85 1.74647 -1.48429 0
M  V30 2355 C 245.85 1.56513 -0.368817 0
M  V30 2356 O 247.04 1.62385 -0.630623 0
M  V30 2357 C 244.172 3.13533 -1.33827 0
M  V30 2358 H 245.365 1.71649 -2.4592 0
M  V30 2359 H 242.918 0.863573 -1.30277 0
M  V30 2360 H 243.653 3.22142 -0.37349 0
M  V30 2361 H 243.438 3.28101 -2.14691 0
M  V30 2362 H 244.928 3.93356 -1.40218 0
M  V30 2363 N 245.365 1.30045 0.890287 0
M  V30 2364 C 246.611 1.18737 1.64406 0
M  V30 2365 C 246.944 -0.258525 1.92472 0
M  V30 2366 O 246.219 -1.18562 1.54186 0
M  V30 2367 C 246.502 2.01087 2.98724 0
M  V30 2368 C 246.355 3.53867 2.77665 0
M  V30 2369 C 247.674 1.84457 3.9958 0
M  V30 2370 H 244.793 0.432698 0.596608 0
M  V30 2371 H 247.435 1.5962 1.0306 0
M  V30 2372 H 245.585 1.66349 3.51084 0
M  V30 2373 H 247.257 3.98637 2.32133 0
M  V30 2374 H 245.5 3.78318 2.12269 0
M  V30 2375 H 246.171 4.06772 3.7315 0
M  V30 2376 H 248.647 2.14817 3.56361 0
M  V30 2377 H 247.523 2.44411 4.91482 0
M  V30 2378 H 247.784 0.802276 4.3476 0
M  V30 2379 N 246.843 -1.10192 1.12674 0
M  V30 2380 C 248.068 -1.86523 0.906853 0
M  V30 2381 C 248.493 -1.80221 -0.538711 0
M  V30 2382 O 247.851 -1.17396 -1.38158 0
M  V30 2383 C 247.899 -3.32758 1.3894 0
M  V30 2384 O 247.003 -4.08449 0.5695 0
M  V30 2385 H 246.344 -0.578678 0.325619 0
M  V30 2386 H 248.874 -1.39203 1.49946 0
M  V30 2387 H 248.884 -3.83608 1.38958 0
M  V30 2388 H 247.559 -3.36661 2.44197 0
M  V30 2389 H 246.136 -3.67427 0.636528 0
M  V30 2390 N 248.321 -0.919034 -1.28029 0
M  V30 2391 C 249.284 -0.416182 -2.2539 0
M  V30 2392 C 250.284 0.460438 -1.54067 0
M  V30 2393 O 251.474 0.262744 -1.72207 0
M  V30 2394 C 248.606 0.402707 -3.38513 0
M  V30 2395 H 249.799 -1.27629 -2.71387 0
M  V30 2396 H 247.352 -0.698919 -1.39803 0
M  V30 2397 H 248.087 1.282 -2.97885 0
M  V30 2398 H 247.872 -0.225698 -3.9145 0
M  V30 2399 H 249.362 0.745191 -4.10897 0
M  V30 2400 N 249.799 1.42003 -0.683588 0
M  V30 2401 C 251.215 1.55625 -0.353976 0
M  V30 2402 C 251.415 1.66151 1.14 0
M  V30 2403 O 250.471 1.63329 1.92561 0
M  V30 2404 C 251.784 2.80171 -1.092 0
M  V30 2405 C 253.332 2.93954 -1.07518 0
M  V30 2406 C 253.807 4.21372 -1.79471 0
M  V30 2407 N 255.298 4.28303 -1.76381 0
M  V30 2408 C 256.033 5.25729 -2.28904 0
M  V30 2409 N 255.529 6.29254 -2.89846 0
M  V30 2410 N 257.322 5.17586 -2.19228 0
M  V30 2411 H 249.473 1.33415 -1.6527 0
M  V30 2412 H 251.736 0.64282 -0.696769 0
M  V30 2413 H 251.442 2.78561 -2.14701 0
M  V30 2414 H 251.316 3.7133 -0.662862 0
M  V30 2415 H 253.703 2.95086 -0.028475 0
M  V30 2416 H 253.784 2.04002 -1.54328 0
M  V30 2417 H 253.428 4.21001 -2.84114 0
M  V30 2418 H 253.358 5.10275 -1.30104 0
M  V30 2419 H 255.849 3.54119 -1.31939 0
M  V30 2420 H 256.162 6.99964 -3.27522 0
M  V30 2421 H 254.507 6.29791 -2.93919 0
M  V30 2422 H 257.698 4.35631 -1.71299 0
M  V30 2423 H 257.871 5.93348 -2.60466 0
M  V30 2424 N 251.277 0.427512 1.51691 0
M  V30 2425 C 252.554 -0.201684 1.94557 0
M  V30 2426 C 252.934 -1.60981 1.36559 0
M  V30 2427 O 252.282 -2.21814 0.548702 0
M  V30 2428 C 252.492 -0.189394 3.48486 0
M  V30 2429 C 253.84 -0.39978 4.22714 0
M  V30 2430 O 254.864 -0.267945 3.55191 0
M  V30 2431 O 253.723 -0.661249 5.42485 0
M  V30 2432 H 250.817 -0.135261 0.815864 0
M  V30 2433 H 253.363 0.484782 1.62628 0
M  V30 2434 H 252.135 0.795431 3.8313 0
M  V30 2435 H 251.758 -0.919187 3.86829 0
M  V30 2436 N 252.755 -1.56801 0.158532 0
M  V30 2437 C 253.718 -2.16138 -0.762705 0
M  V30 2438 C 254.718 -1.1061 -1.16713 0
M  V30 2439 O 255.908 -1.36191 -1.08617 0
M  V30 2440 C 253.04 -2.73386 -2.03649 0
M  V30 2441 H 254.233 -2.98886 -0.246354 0
M  V30 2442 H 251.786 -1.56035 -0.0909744 0
M  V30 2443 H 252.521 -1.94335 -2.59623 0
M  V30 2444 H 252.306 -3.50601 -1.75559 0
M  V30 2445 H 253.796 -3.19065 -2.6942 0
M  V30 2446 N 254.233 0.115231 -1.57178 0
M  V30 2447 C 255.481 0.820727 -1.84685 0
M  V30 2448 C 255.802 1.80237 -0.744279 0
M  V30 2449 O 255.072 1.94529 0.231375 0
M  V30 2450 H 253.652 0.306084 -0.681411 0
M  V30 2451 H 256.314 0.101656 -1.94635 0
M  V30 2452 H 255.41 1.36366 -2.80733 0
M  V30 2453 N 255.711 1.52812 0.385517 0
M  V30 2454 C 256.674 1.77188 1.45386 0
M  V30 2455 C 257.674 0.641953 1.4743 0
M  V30 2456 O 258.864 0.910033 1.4854 0
M  V30 2457 C 255.996 1.87582 2.8465 0
M  V30 2458 H 257.189 2.72583 1.25054 0
M  V30 2459 H 254.742 1.43586 0.617467 0
M  V30 2460 H 255.477 0.941849 3.10322 0
M  V30 2461 H 255.262 2.69748 2.84567 0
M  V30 2462 H 256.752 2.08102 3.62054 0
M  V30 2463 N 257.189 -0.644168 1.43834 0
M  V30 2464 C 258.136 -1.75671 1.49694 0
M  V30 2465 C 259.106 -1.6246 0.345809 0
M  V30 2466 O 260.291 -1.82573 0.554234 0
M  V30 2467 C 257.431 -3.13867 1.43463 0
M  V30 2468 C 256.544 -3.38147 2.6885 0
M  V30 2469 C 255.679 -4.66241 2.54544 0
M  V30 2470 C 254.718 -4.83657 3.75157 0
M  V30 2471 N 253.855 -6.03016 3.59605 0
M  V30 2472 H 258.695 -1.69998 2.44754 0
M  V30 2473 H 256.232 -0.829458 1.21484 0
M  V30 2474 H 258.19 -3.9377 1.37843 0
M  V30 2475 H 256.82 -3.18588 0.519783 0
M  V30 2476 H 255.872 -2.52276 2.84712 0
M  V30 2477 H 257.184 -3.46899 3.58417 0
M  V30 2478 H 256.338 -5.54285 2.46683 0
M  V30 2479 H 255.077 -4.59826 1.62516 0
M  V30 2480 H 254.082 -3.94046 3.83416 0
M  V30 2481 H 255.307 -4.91896 4.68204 0
M  V30 2482 H 253.253 -5.97715 2.7032 0
M  V30 2483 H 253.17 -6.12766 4.42779 0
M  V30 2484 H 254.438 -6.93657 3.55613 0
M  V30 2485 N 258.668 -1.30515 -0.883378 0
M  V30 2486 C 259.914 -1.19607 -1.63774 0
M  V30 2487 C 260.247 0.248314 -1.92606 0
M  V30 2488 O 259.522 1.17742 -1.54813 0
M  V30 2489 C 259.805 -2.02669 -2.97653 0
M  V30 2490 C 259.658 -3.55335 -2.75784 0
M  V30 2491 C 260.977 -1.86573 -3.98596 0
M  V30 2492 H 258.096 -0.435856 -0.594305 0
M  V30 2493 H 260.738 -1.60165 -1.02212 0
M  V30 2494 H 258.888 -1.68208 -3.50197 0
M  V30 2495 H 260.56 -3.99863 -2.30016 0
M  V30 2496 H 258.803 -3.79438 -2.1026 0
M  V30 2497 H 259.474 -4.08745 -3.70988 0
M  V30 2498 H 261.95 -2.16703 -3.55217 0
M  V30 2499 H 260.826 -2.47014 -4.90179 0
M  V30 2500 H 261.087 -0.825321 -4.34328 0
M  V30 2501 N 260.146 1.09593 -1.13257 0
M  V30 2502 C 261.395 1.81105 -0.887917 0
M  V30 2503 C 261.708 1.86563 0.587672 0
M  V30 2504 O 262.914 2.54367 0.949204 0
M  V30 2505 C 261.37 3.25338 -1.53895 0
M  V30 2506 C 260.978 3.28151 -3.04994 0
M  V30 2507 C 262.722 4.01617 -1.37492 0
M  V30 2508 C 260.629 4.66897 -3.6299 0
M  V30 2509 H 259.559 0.678661 -0.328534 0
M  V30 2510 H 262.21 1.23183 -1.36008 0
M  V30 2511 H 260.592 3.8331 -0.994446 0
M  V30 2512 H 261.766 2.79953 -3.66009 0
M  V30 2513 H 260.081 2.65361 -3.20893 0
M  V30 2514 H 262.678 5.04119 -1.78235 0
M  V30 2515 H 263.021 4.15072 -0.31957 0
M  V30 2516 H 263.554 3.50082 -1.88912 0
M  V30 2517 H 260.293 4.58643 -4.68323 0
M  V30 2518 H 259.813 5.15426 -3.06752 0
M  V30 2519 H 261.492 5.3587 -3.62563 0
M  V30 2520 N 261.624 0.925811 1.2754 0
M  V30 2521 C 262.554 0.440748 2.29303 0
M  V30 2522 C 263.535 -0.497971 1.62648 0
M  V30 2523 O 264.72 -0.403126 1.8997 0
M  V30 2524 C 261.85 -0.309048 3.45922 0
M  V30 2525 C 260.804 0.54166 4.24559 0
M  V30 2526 C 260.13 -0.337191 5.33636 0
M  V30 2527 C 261.43 1.80516 4.90114 0
M  V30 2528 H 263.124 1.29121 2.70126 0
M  V30 2529 H 260.67 0.622323 1.29858 0
M  V30 2530 H 262.623 -0.659315 4.1621 0
M  V30 2531 H 261.347 -1.19352 3.04011 0
M  V30 2532 H 260.006 0.874609 3.56014 0
M  V30 2533 H 259.654 -1.22056 4.87966 0
M  V30 2534 H 259.354 0.228497 5.87156 0
M  V30 2535 H 260.878 -0.683072 6.06767 0
M  V30 2536 H 262.292 1.52307 5.52698 0
M  V30 2537 H 260.689 2.3142 5.53683 0
M  V30 2538 H 261.759 2.52581 4.13921 0
M  V30 2539 N 263.102 -1.41638 0.69111 0
M  V30 2540 C 264.032 -2.3347 0.037248 0
M  V30 2541 C 265.013 -1.51575 -0.771947 0
M  V30 2542 O 266.198 -1.80126 -0.72582 0
M  V30 2543 C 263.328 -3.35354 -0.903064 0
M  V30 2544 C 262.282 -4.27526 -0.201288 0
M  V30 2545 C 261.608 -5.19747 -1.25565 0
M  V30 2546 C 262.908 -5.13959 0.929689 0
M  V30 2547 H 264.602 -2.88397 0.804227 0
M  V30 2548 H 262.148 -1.38669 0.388189 0
M  V30 2549 H 264.101 -3.98519 -1.36969 0
M  V30 2550 H 262.825 -2.78767 -1.70166 0
M  V30 2551 H 261.484 -3.65779 0.245265 0
M  V30 2552 H 261.132 -4.59479 -2.04666 0
M  V30 2553 H 260.832 -5.8225 -0.791128 0
M  V30 2554 H 262.356 -5.85789 -1.72288 0
M  V30 2555 H 263.77 -5.70718 0.543546 0
M  V30 2556 H 262.167 -5.85379 1.32103 0
M  V30 2557 H 263.237 -4.51389 1.77133 0
M  V30 2558 N 264.58 -0.43555 -1.51462 0
M  V30 2559 C 265.49 0.383001 -2.31453 0
M  V30 2560 C 266.506 1.02931 -1.4029 0
M  V30 2561 O 267.682 1.02507 -1.73362 0
M  V30 2562 C 264.747 1.47043 -3.13973 0
M  V30 2563 C 263.808 0.844433 -4.20913 0
M  V30 2564 C 263.041 1.88004 -4.9949 0
M  V30 2565 O 263.264 3.10199 -4.78678 0
M  V30 2566 O 262.198 1.47157 -5.83634 0
M  V30 2567 H 266.024 -0.269964 -3.02498 0
M  V30 2568 H 263.609 -0.19813 -1.4808 0
M  V30 2569 H 265.491 2.10113 -3.65281 0
M  V30 2570 H 264.166 2.10751 -2.45695 0
M  V30 2571 H 263.073 0.175729 -3.73687 0
M  V30 2572 H 264.406 0.250869 -4.9156 0
M  V30 2573 N 266.058 1.56714 -0.166846 0
M  V30 2574 C 267.005 2.17746 0.765193 0
M  V30 2575 C 267.975 1.11614 1.23011 0
M  V30 2576 O 269.16 1.39745 1.29908 0
M  V30 2577 C 266.3 2.81882 1.9909 0
M  V30 2578 C 265.413 4.02462 1.56997 0
M  V30 2579 C 264.548 4.54537 2.749 0
M  V30 2580 C 263.587 5.67538 2.29275 0
M  V30 2581 N 262.724 6.14142 3.40255 0
M  V30 2582 H 267.564 2.97048 0.237952 0
M  V30 2583 H 265.101 1.4672 0.105725 0
M  V30 2584 H 267.059 3.17221 2.70974 0
M  V30 2585 H 265.689 2.05191 2.49192 0
M  V30 2586 H 264.741 3.72973 0.748037 0
M  V30 2587 H 266.053 4.84273 1.19503 0
M  V30 2588 H 265.207 4.92035 3.54946 0
M  V30 2589 H 263.946 3.71774 3.1565 0
M  V30 2590 H 262.951 5.29597 1.47674 0
M  V30 2591 H 264.176 6.52099 1.89588 0
M  V30 2592 H 262.122 5.3431 3.8059 0
M  V30 2593 H 262.039 6.9093 3.06841 0
M  V30 2594 H 263.307 6.56289 4.206 0
M  V30 2595 N 267.536 -0.106894 1.57237 0
M  V30 2596 C 268.446 -1.14911 2.0453 0
M  V30 2597 C 269.462 -1.44592 0.96795 0
M  V30 2598 O 270.638 -1.55468 1.2803 0
M  V30 2599 C 267.703 -2.45272 2.45036 0
M  V30 2600 C 266.764 -2.22879 3.66911 0
M  V30 2601 C 265.997 -3.47024 4.05475 0
M  V30 2602 O 266.22 -4.54804 3.44252 0
M  V30 2603 O 265.154 -3.3731 4.98504 0
M  V30 2604 H 268.98 -0.777461 2.9358 0
M  V30 2605 H 266.565 -0.318563 1.45964 0
M  V30 2606 H 268.447 -3.22055 2.71769 0
M  V30 2607 H 267.122 -2.81886 1.59129 0
M  V30 2608 H 266.029 -1.43915 3.45311 0
M  V30 2609 H 267.362 -1.91163 4.53561 0
M  V30 2610 N 269.014 -1.53014 -0.377408 0
M  V30 2611 C 270.425 -1.60438 -0.954798 0
M  V30 2612 C 270.776 -0.464418 -1.90624 0
M  V30 2613 O 269.901 0.41087 -2.12464 0
M  V30 2614 C 270.496 -2.90797 -1.73847 0
M  V30 2615 C 269.055 -3.00595 -2.26538 0
M  V30 2616 C 268.202 -2.55645 -1.07429 0
M  V30 2617 H 271.153 -1.57926 -0.156575 0
M  V30 2618 H 271.174 -2.77935 -2.5987 0
M  V30 2619 H 270.686 -3.73746 -1.04574 0
M  V30 2620 H 268.787 -2.22208 -2.99089 0
M  V30 2621 H 268.9 -4.05456 -2.5523 0
M  V30 2622 H 267.264 -2.10239 -1.43777 0
M  V30 2623 H 268.047 -3.41 -0.396728 0
M  V30 2624 N 270.492 0.636531 -1.44174 0
M  V30 2625 C 271.741 1.39213 -1.45954 0
M  V30 2626 C 272.054 1.95374 -0.0939119 0
M  V30 2627 O 273.26 2.71498 0.0107767 0
M  V30 2628 C 271.716 2.52025 -2.56927 0
M  V30 2629 C 271.324 2.024 -3.99673 0
M  V30 2630 C 273.068 3.29269 -2.67922 0
M  V30 2631 C 270.975 3.12521 -5.0208 0
M  V30 2632 H 269.905 0.523132 -0.542999 0
M  V30 2633 H 272.556 0.685349 -1.70221 0
M  V30 2634 H 270.938 3.25253 -2.25891 0
M  V30 2635 H 272.112 1.36073 -4.40251 0
M  V30 2636 H 270.427 1.37987 -3.92872 0
M  V30 2637 H 273.024 4.11352 -3.41605 0
M  V30 2638 H 273.367 3.78397 -1.73555 0
M  V30 2639 H 273.9 2.63129 -2.98342 0
M  V30 2640 H 270.639 2.68343 -5.98057 0
M  V30 2641 H 270.159 3.77507 -4.66099 0
M  V30 2642 H 271.838 3.77385 -5.25538 0
M  V30 2643 N 271.97 1.30982 0.876444 0
M  V30 2644 C 273.381 1.18277 1.44456 0
M  V30 2645 C 273.732 -0.213265 1.95037 0
M  V30 2646 O 272.857 -1.11057 1.85729 0
M  V30 2647 C 273.452 2.1411 2.62569 0
M  V30 2648 C 272.011 2.05358 3.15444 0
M  V30 2649 C 271.158 2.03706 1.88146 0
M  V30 2650 H 274.109 1.43127 0.685584 0
M  V30 2651 H 274.13 1.72692 3.39054 0
M  V30 2652 H 273.642 3.15706 2.25724 0
M  V30 2653 H 271.743 1.06934 3.56926 0
M  V30 2654 H 271.856 2.94156 3.78166 0
M  V30 2655 H 270.22 1.48629 2.06837 0
M  V30 2656 H 271.003 3.07047 1.53547 0
M  V30 2657 N 273.449 -1.08991 1.13837 0
M  V30 2658 C 274.697 -1.80899 0.901098 0
M  V30 2659 C 275.018 -1.86356 -0.574134 0
M  V30 2660 O 274.288 -1.35235 -1.41733 0
M  V30 2661 H 272.868 -0.669966 0.330386 0
M  V30 2662 H 275.53 -1.318 1.43578 0
M  V30 2663 H 274.626 -2.83929 1.29578 0
M  V30 2664 N 274.927 -0.932562 -1.27047 0
M  V30 2665 C 276.175 -0.574422 -1.93765 0
M  V30 2666 C 276.496 0.887993 -1.73608 0
M  V30 2667 O 275.766 1.62999 -1.08665 0
M  V30 2668 H 274.346 -0.209451 -0.717035 0
M  V30 2669 H 277.008 -1.18601 -1.5466 0
M  V30 2670 H 276.104 -0.784841 -3.02071 0
M  V30 2671 N 276.405 1.4127 -0.698611 0
M  V30 2672 C 277.353 2.32588 -0.023855 0
M  V30 2673 C 278.347 1.51128 0.765292 0
M  V30 2674 O 279.553 1.67043 0.670571 0
M  V30 2675 H 275.928 0.751918 0.0110871 0
M  V30 2676 H 277.899 2.87167 -0.811031 0
M  V30 2677 C 276.648 3.35947 0.896369 0
M  V30 2678 H 275.971 3.98684 0.298548 0
M  V30 2679 H 277.411 4.02376 1.33676 0
M  V30 2680 C 275.87 2.70076 2.01396 0
M  V30 2681 O 276.4 2.55093 3.10307 0
M  V30 2682 N 274.606 2.28724 1.79259 0
M  V30 2683 H 274.153 2.4111 0.906841 0
M  V30 2684 H 274.111 1.84986 2.54219 0
M  V30 2685 N 277.883 0.443576 1.51229 0
M  V30 2686 C 279.111 -0.11929 2.06556 0
M  V30 2687 C 279.526 -1.35921 1.31038 0
M  V30 2688 O 278.883 -1.78675 0.371704 0
M  V30 2689 C 278.934 -0.435228 3.5887 0
M  V30 2690 O 278.655 0.755486 4.31537 0
M  V30 2691 C 280.156 -1.04808 4.30732 0
M  V30 2692 H 277.376 -0.0051584 0.67098 0
M  V30 2693 H 279.92 0.624453 1.94733 0
M  V30 2694 H 278.075 -1.12887 3.70588 0
M  V30 2695 H 278.489 0.483491 5.22267 0
M  V30 2696 H 279.963 -1.2191 5.3837 0
M  V30 2697 H 280.44 -2.03081 3.89429 0
M  V30 2698 H 281.046 -0.393637 4.23474 0
M  V30 2699 N 279.361 -1.56624 0.175154 0
M  V30 2700 C 280.308 -2.18149 -0.753634 0
M  V30 2701 C 281.278 -1.12265 -1.22417 0
M  V30 2702 O 282.463 -1.40432 -1.29165 0
M  V30 2703 C 279.603 -2.82933 -1.97592 0
M  V30 2704 C 278.716 -4.03289 -1.5486 0
M  V30 2705 C 277.851 -4.55988 -2.72485 0
M  V30 2706 C 276.89 -5.68746 -2.26262 0
M  V30 2707 N 276.027 -6.15938 -3.36994 0
M  V30 2708 H 280.867 -2.9717 -0.222195 0
M  V30 2709 H 278.404 -1.46774 -0.0979422 0
M  V30 2710 H 280.362 -3.18653 -2.69288 0
M  V30 2711 H 278.992 -2.06509 -2.481 0
M  V30 2712 H 278.044 -3.73364 -0.728246 0
M  V30 2713 H 279.356 -4.849 -1.16933 0
M  V30 2714 H 278.51 -4.9391 -3.52332 0
M  V30 2715 H 277.249 -3.73443 -3.13674 0
M  V30 2716 H 276.254 -5.30372 -1.44863 0
M  V30 2717 H 277.479 -6.53095 -1.86127 0
M  V30 2718 H 275.425 -5.36321 -3.77751 0
M  V30 2719 H 275.342 -6.92548 -3.03172 0
M  V30 2720 H 276.61 -6.58511 -4.17114 0
M  V30 2721 N 280.839 0.0985539 -1.57292 0
M  V30 2722 C 281.769 1.12064 -2.04851 0
M  V30 2723 C 282.75 1.41981 -0.936767 0
M  V30 2724 O 283.935 1.52071 -1.20781 0
M  V30 2725 C 281.065 2.44144 -2.47004 0
M  V30 2726 C 280.019 2.28643 -3.6181 0
M  V30 2727 C 279.345 3.65869 -3.89929 0
M  V30 2728 C 280.645 1.72986 -4.92822 0
M  V30 2729 H 282.339 0.724979 -2.9049 0
M  V30 2730 H 279.885 0.34729 -1.39749 0
M  V30 2731 H 281.838 3.15914 -2.78884 0
M  V30 2732 H 280.562 2.85639 -1.5836 0
M  V30 2733 H 279.221 1.59318 -3.30172 0
M  V30 2734 H 278.869 4.04885 -2.98458 0
M  V30 2735 H 278.569 3.56344 -4.67218 0
M  V30 2736 H 280.093 4.39112 -4.2428 0
M  V30 2737 H 281.507 2.34593 -5.23105 0
M  V30 2738 H 279.904 1.74229 -5.74251 0
M  V30 2739 H 280.974 0.689007 -4.7998 0
M  V30 2740 N 282.317 1.53212 0.369288 0
M  V30 2741 C 283.28 1.7872 1.43498 0
M  V30 2742 C 284.28 0.657554 1.46741 0
M  V30 2743 O 285.47 0.925736 1.47566 0
M  V30 2744 C 282.602 1.90591 2.82645 0
M  V30 2745 H 283.795 2.73894 1.22156 0
M  V30 2746 H 281.348 1.44233 0.602203 0
M  V30 2747 H 282.083 0.974709 3.09306 0
M  V30 2748 H 281.868 2.72751 2.8169 0
M  V30 2749 H 283.358 2.11931 3.59826 0
M  V30 2750 N 283.795 -0.628877 1.44509 0
M  V30 2751 C 284.758 -1.72263 1.51188 0
M  V30 2752 C 285.758 -1.55907 0.39367 0
M  V30 2753 O 286.948 -1.61361 0.656377 0
M  V30 2754 C 284.08 -3.11365 1.38798 0
M  V30 2755 H 285.273 -1.67714 2.4862 0
M  V30 2756 H 282.826 -0.842737 1.31634 0
M  V30 2757 H 283.561 -3.21507 0.424693 0
M  V30 2758 H 283.346 -3.24644 2.19884 0
M  V30 2759 H 284.836 -3.91075 1.46458 0
M  V30 2760 N 285.273 -1.31445 -0.869486 0
M  V30 2761 C 286.521 -1.20918 -1.61936 0
M  V30 2762 C 286.842 0.232683 -1.93607 0
M  V30 2763 O 286.112 1.15352 -1.58338 0
M  V30 2764 H 284.692 -0.44454 -0.600328 0
M  V30 2765 H 287.354 -1.64776 -1.0409 0
M  V30 2766 H 286.45 -1.78124 -2.56278 0
M  V30 2767 N 286.751 1.08385 -1.14413 0
M  V30 2768 C 287.999 1.80419 -0.910679 0
M  V30 2769 C 288.32 1.86658 0.564243 0
M  V30 2770 O 287.59 1.35985 1.41014 0
M  V30 2771 H 286.17 0.668204 -0.333934 0
M  V30 2772 H 288.832 1.31037 -1.44275 0
M  V30 2773 H 287.928 2.83238 -1.31082 0
M  V30 2774 N 288.23 0.939286 1.26551 0
M  V30 2775 C 289.163 0.391702 2.24813 0
M  V30 2776 C 290.141 -0.518421 1.54114 0
M  V30 2777 O 291.325 -0.456299 1.82894 0
M  V30 2778 C 288.452 -0.437382 3.35864 0
M  V30 2779 C 287.498 0.410946 4.24516 0
M  V30 2780 S 288.331 1.83372 5.03125 0
M  V30 2781 C 289.487 1.01264 6.17654 0
M  V30 2782 H 289.72 1.22448 2.70913 0
M  V30 2783 H 287.253 0.742269 1.35387 0
M  V30 2784 H 289.211 -0.909837 4.0029 0
M  V30 2785 H 287.872 -1.24482 2.8838 0
M  V30 2786 H 287.065 -0.224191 5.03501 0
M  V30 2787 H 286.667 0.818014 3.64945 0
M  V30 2788 H 288.959 0.254023 6.77024 0
M  V30 2789 H 289.902 1.77589 6.85469 0
M  V30 2790 H 290.31 0.549532 5.61819 0
M  V30 2791 N 289.708 -1.40897 0.706093 0
M  V30 2792 C 290.656 -2.32572 0.0361893 0
M  V30 2793 C 291.65 -1.51532 -0.757266 0
M  V30 2794 O 292.856 -1.67396 -0.661703 0
M  V30 2795 H 289.231 -0.751966 -0.00709935 0
M  V30 2796 H 291.202 -2.86733 0.826249 0
M  V30 2797 C 289.951 -3.36418 -0.87854 0
M  V30 2798 H 289.274 -3.98836 -0.277401 0
M  V30 2799 H 290.714 -4.0308 -1.3154 0
M  V30 2800 C 289.173 -2.71141 -1.99961 0
M  V30 2801 O 289.703 -2.56735 -3.0895 0
M  V30 2802 N 287.909 -2.29671 -1.78043 0
M  V30 2803 H 287.456 -2.41588 -0.894042 0
M  V30 2804 H 287.414 -1.86332 -2.53235 0
M  V30 2805 N 291.186 -0.45159 -1.50991 0
M  V30 2806 C 292.149 0.341117 -2.26647 0
M  V30 2807 C 293.149 0.937422 -1.30649 0
M  V30 2808 O 294.339 0.809644 -1.54241 0
M  V30 2809 C 291.471 1.48398 -3.06905 0
M  V30 2810 H 292.664 -0.322117 -2.98165 0
M  V30 2811 H 290.217 -0.205122 -1.54948 0
M  V30 2812 H 290.952 2.18284 -2.39838 0
M  V30 2813 H 290.737 1.06241 -3.77432 0
M  V30 2814 H 292.227 2.04367 -3.64176 0
M  V30 2815 N 292.664 1.56529 -0.183458 0
M  V30 2816 C 293.627 2.17324 0.728223 0
M  V30 2817 C 294.627 1.12453 1.14939 0
M  V30 2818 O 295.817 1.37902 1.06437 0
M  V30 2819 C 292.949 2.76591 1.99274 0
M  V30 2820 H 294.142 2.99241 0.198772 0
M  V30 2821 H 291.695 1.5616 0.0661391 0
M  V30 2822 H 292.43 1.98441 2.56499 0
M  V30 2823 H 292.215 3.5335 1.69959 0
M  V30 2824 H 293.705 3.23311 2.6431 0
M  V30 2825 N 294.142 -0.090211 1.57342 0
M  V30 2826 C 295.052 -1.12735 2.05738 0
M  V30 2827 C 296.068 -1.43557 0.983231 0
M  V30 2828 O 297.244 -1.54101 1.29672 0
M  V30 2829 C 294.309 -2.42659 2.47624 0
M  V30 2830 C 293.37 -2.18975 3.69254 0
M  V30 2831 C 292.603 -3.42704 4.09133 0
M  V30 2832 O 292.826 -4.51127 3.49057 0
M  V30 2833 O 291.76 -3.32003 5.02053 0
M  V30 2834 H 295.586 -0.746279 2.94388 0
M  V30 2835 H 293.171 -0.303064 1.46294 0
M  V30 2836 H 295.053 -3.19155 2.7517 0
M  V30 2837 H 293.728 -2.80182 1.62109 0
M  V30 2838 H 292.635 -1.40244 3.46818 0
M  V30 2839 H 293.968 -1.86342 4.55563 0
M  V30 2840 N 295.62 -1.53406 -0.361157 0
M  V30 2841 C 296.848 -1.73717 -1.12383 0
M  V30 2842 C 297.263 -0.468161 -1.82904 0
M  V30 2843 O 296.62 0.559198 -1.73722 0
M  V30 2844 C 296.671 -2.90558 -2.15078 0
M  V30 2845 O 296.392 -4.12549 -1.47428 0
M  V30 2846 C 297.893 -3.22777 -3.03858 0
M  V30 2847 H 295.113 -0.580896 -0.335858 0
M  V30 2848 H 297.657 -2.00167 -0.418728 0
M  V30 2849 H 295.812 -2.66489 -2.8118 0
M  V30 2850 H 296.226 -4.78009 -2.15887 0
M  V30 2851 H 297.7 -4.07927 -3.71887 0
M  V30 2852 H 298.177 -2.38329 -3.68912 0
M  V30 2853 H 298.783 -3.48787 -2.43367 0
M  V30 2854 N 297.098 0.621204 -1.44841 0
M  V30 2855 C 298.045 1.73267 -1.5247 0
M  V30 2856 C 299.015 1.6189 -0.371611 0
M  V30 2857 O 300.2 1.81668 -0.58321 0
M  V30 2858 C 297.34 3.11545 -1.48438 0
M  V30 2859 C 296.453 3.33827 -2.74196 0
M  V30 2860 C 295.588 4.62133 -2.61929 0
M  V30 2861 C 294.627 4.77627 -3.82804 0
M  V30 2862 N 293.764 5.97219 -3.69153 0
M  V30 2863 H 298.604 1.66082 -2.47428 0
M  V30 2864 H 296.141 0.810026 -1.22788 0
M  V30 2865 H 298.099 3.91528 -1.4409 0
M  V30 2866 H 296.729 3.1772 -0.570402 0
M  V30 2867 H 295.781 2.47715 -2.88689 0
M  V30 2868 H 297.093 3.41153 -3.6389 0
M  V30 2869 H 296.247 5.50291 -2.5547 0
M  V30 2870 H 294.986 4.57182 -1.69811 0
M  V30 2871 H 293.991 3.87896 -3.89637 0
M  V30 2872 H 295.216 4.84385 -4.75971 0
M  V30 2873 H 293.162 5.93339 -2.79794 0
M  V30 2874 H 293.079 6.05644 -4.52472 0
M  V30 2875 H 294.347 6.87912 -3.66603 0
M  V30 2876 N 298.576 1.31904 0.862503 0
M  V30 2877 C 299.987 1.19803 1.43193 0
M  V30 2878 C 300.338 -0.192567 1.95253 0
M  V30 2879 O 299.463 -1.09081 1.86896 0
M  V30 2880 C 300.058 2.16883 2.60283 0
M  V30 2881 C 298.617 2.08692 3.13248 0
M  V30 2882 C 297.764 2.05691 1.85975 0
M  V30 2883 H 300.715 1.43846 0.670365 0
M  V30 2884 H 300.736 1.76278 3.37204 0
M  V30 2885 H 300.248 3.18083 2.22363 0
M  V30 2886 H 298.349 1.10713 3.55771 0
M  V30 2887 H 298.462 2.9815 3.75025 0
M  V30 2888 H 296.826 1.50814 2.05249 0
M  V30 2889 H 297.609 3.08659 1.50282 0
M  V30 2890 N 300.054 -1.07777 1.14986 0
M  V30 2891 C 300.986 -2.14769 0.800436 0
M  V30 2892 C 301.999 -1.61739 -0.185595 0
M  V30 2893 O 303.188 -1.78462 0.0370358 0
M  V30 2894 C 300.288 -3.38481 0.168533 0
M  V30 2895 C 299.461 -4.20876 1.1909 0
M  V30 2896 C 298.52 -5.22976 0.581575 0
M  V30 2897 O 297.546 -5.55388 1.24633 0
M  V30 2898 N 298.748 -5.76976 -0.638706 0
M  V30 2899 H 301.513 -2.45348 1.72118 0
M  V30 2900 H 299.074 -1.23645 1.04515 0
M  V30 2901 H 301.066 -4.03916 -0.251764 0
M  V30 2902 H 299.636 -3.05651 -0.655467 0
M  V30 2903 H 298.856 -3.51322 1.78791 0
M  V30 2904 H 300.144 -4.7274 1.88133 0
M  V30 2905 H 299.542 -5.52886 -1.19723 0
M  V30 2906 H 298.099 -6.44061 -1.00142 0
M  V30 2907 N 301.532 -0.945985 -1.26051 0
M  V30 2908 C 302.495 -0.463897 -2.24456 0
M  V30 2909 C 303.495 0.427655 -1.55009 0
M  V30 2910 O 304.685 0.226157 -1.72726 0
M  V30 2911 C 301.817 0.330812 -3.39291 0
M  V30 2912 H 303.01 -1.33357 -2.68619 0
M  V30 2913 H 300.563 -0.728416 -1.38289 0
M  V30 2914 H 301.298 1.21852 -3.00537 0
M  V30 2915 H 301.083 -0.308679 -3.90883 0
M  V30 2916 H 302.573 0.657865 -4.12386 0
M  V30 2917 N 303.011 1.40521 -0.713556 0
M  V30 2918 C 303.958 2.30723 -0.059684 0
M  V30 2919 C 304.928 1.48079 0.752448 0
M  V30 2920 O 306.113 1.76823 0.71681 0
M  V30 2921 C 303.253 3.34274 0.857594 0
M  V30 2922 C 302.366 4.31986 0.0351536 0
M  V30 2923 C 301.501 5.22605 0.951724 0
M  V30 2924 C 300.54 6.11976 0.123253 0
M  V30 2925 N 299.677 6.9502 0.99459 0
M  V30 2926 H 304.517 2.86074 -0.834596 0
M  V30 2927 H 302.054 1.40879 -0.42326 0
M  V30 2928 H 304.012 3.92879 1.40364 0
M  V30 2929 H 302.642 2.8043 1.59871 0
M  V30 2930 H 301.694 3.7518 -0.628052 0
M  V30 2931 H 303.006 4.95101 -0.606347 0
M  V30 2932 H 302.16 5.86131 1.56638 0
M  V30 2933 H 300.899 4.59759 1.62705 0
M  V30 2934 H 299.904 5.47482 -0.50435 0
M  V30 2935 H 301.129 6.76881 -0.548539 0
M  V30 2936 H 299.075 6.34764 1.6556 0
M  V30 2937 H 298.992 7.54892 0.40908 0
M  V30 2938 H 300.26 7.62997 1.59549 0
M  V30 2939 N 304.489 0.459591 1.5075 0
M  V30 2940 C 305.419 -0.330644 2.31147 0
M  V30 2941 C 306.4 -1.00087 1.37538 0
M  V30 2942 O 307.585 -1.00025 1.66459 0
M  V30 2943 C 304.715 -1.41958 3.16962 0
M  V30 2944 C 303.669 -0.871608 4.19031 0
M  V30 2945 C 302.995 -2.05797 4.9351 0
M  V30 2946 C 304.295 0.109251 5.22186 0
M  V30 2947 H 305.989 0.340336 2.97459 0
M  V30 2948 H 303.535 0.165119 1.4305 0
M  V30 2949 H 305.488 -1.9798 3.71997 0
M  V30 2950 H 304.212 -2.11917 2.48513 0
M  V30 2951 H 302.871 -0.333442 3.6508 0
M  V30 2952 H 302.519 -2.74427 4.21544 0
M  V30 2953 H 302.219 -1.6976 5.62544 0
M  V30 2954 H 303.743 -2.62331 5.51375 0
M  V30 2955 H 305.157 -0.361405 5.7216 0
M  V30 2956 H 303.554 0.383316 5.98875 0
M  V30 2957 H 304.624 1.03887 4.73641 0
M  V30 2958 N 305.967 -1.56429 0.191757 0
M  V30 2959 C 307.215 -1.97095 -0.447006 0
M  V30 2960 C 307.536 -1.07967 -1.62383 0
M  V30 2961 O 306.806 -0.150248 -1.95323 0
M  V30 2962 H 305.386 -0.727832 -0.168135 0
M  V30 2963 H 308.048 -1.92911 0.27771 0
M  V30 2964 H 307.144 -3.01848 -0.793371 0
M  V30 2965 N 307.445 0.0818655 -1.57387 0
M  V30 2966 C 308.694 0.781681 -1.85937 0
M  V30 2967 C 309.007 1.79246 -0.782957 0
M  V30 2968 O 310.213 2.54112 -0.955987 0
M  V30 2969 C 308.669 1.44109 -3.29789 0
M  V30 2970 C 308.277 0.469396 -4.45534 0
M  V30 2971 C 310.021 2.12386 -3.67549 0
M  V30 2972 C 307.928 1.13415 -5.80423 0
M  V30 2973 H 306.858 0.295682 -0.693605 0
M  V30 2974 H 309.509 0.0348051 -1.83467 0
M  V30 2975 H 307.891 2.23588 -3.2684 0
M  V30 2976 H 309.065 -0.294856 -4.59856 0
M  V30 2977 H 307.38 -0.108383 -4.16259 0
M  V30 2978 H 309.977 2.62878 -4.65617 0
M  V30 2979 H 310.32 2.91877 -2.96839 0
M  V30 2980 H 310.853 1.39751 -3.72444 0
M  V30 2981 H 307.592 0.379771 -6.54399 0
M  V30 2982 H 307.112 1.8695 -5.69921 0
M  V30 2983 H 308.791 1.65686 -6.25426 0
M  V30 2984 N 308.923 1.53595 0.353017 0
M  V30 2985 C 309.833 1.83897 1.45667 0
M  V30 2986 C 310.849 0.728334 1.58023 0
M  V30 2987 O 312.025 1.01968 1.73679 0
M  V30 2988 C 309.09 2.03383 2.80778 0
M  V30 2989 C 308.151 3.27262 2.77845 0
M  V30 2990 C 307.384 3.45809 4.06512 0
M  V30 2991 O 307.607 2.68387 5.03314 0
M  V30 2992 O 306.541 4.39207 4.11559 0
M  V30 2993 H 310.367 2.77686 1.2298 0
M  V30 2994 H 307.952 1.39132 0.544308 0
M  V30 2995 H 309.834 2.17698 3.60812 0
M  V30 2996 H 308.509 1.12783 3.03417 0
M  V30 2997 H 307.416 3.18359 1.96465 0
M  V30 2998 H 308.749 4.17824 2.60161 0
M  V30 2999 N 310.401 -0.613514 1.45168 0
M  V30 3000 C 311.678 -1.37263 1.39349 0
M  V30 3001 C 312.058 -2.11012 0.0610848 0
M  V30 3002 O 311.406 -2.07502 -0.956825 0
M  V30 3003 C 311.616 -2.3244 2.60332 0
M  V30 3004 C 312.964 -2.9523 3.05163 0
M  V30 3005 O 313.988 -2.42762 2.60663 0
M  V30 3006 O 312.847 -3.90454 3.82372 0
M  V30 3007 H 309.941 -0.615188 0.552696 0
M  V30 3008 H 312.487 -0.637097 1.57287 0
M  V30 3009 H 311.259 -1.77164 3.48896 0
M  V30 3010 H 310.882 -3.13383 2.44698 0
M  V30 3011 N 311.879 -1.3236 -0.855495 0
M  V30 3012 C 312.826 -1.21225 -1.964 0
M  V30 3013 C 313.796 -0.0946204 -1.6583 0
M  V30 3014 O 314.981 -0.27002 -1.8888 0
M  V30 3015 C 312.121 -0.940419 -3.32039 0
M  V30 3016 C 311.234 -2.14276 -3.75113 0
M  V30 3017 C 310.369 -1.80648 -4.9954 0
M  V30 3018 C 309.408 -2.97208 -5.35102 0
M  V30 3019 N 308.545 -2.63678 -6.50706 0
M  V30 3020 H 313.385 -2.16042 -2.05255 0
M  V30 3021 H 310.922 -1.07451 -1.00463 0
M  V30 3022 H 312.88 -0.763311 -4.10158 0
M  V30 3023 H 311.51 -0.0290413 -3.22787 0
M  V30 3024 H 310.562 -2.43017 -2.92655 0
M  V30 3025 H 311.874 -3.01468 -3.97389 0
M  V30 3026 H 311.028 -1.59484 -5.85363 0
M  V30 3027 H 309.767 -0.906678 -4.79198 0
M  V30 3028 H 308.772 -3.19004 -4.47791 0
M  V30 3029 H 309.997 -3.87918 -5.57401 0
M  V30 3030 H 307.943 -1.76238 -6.31883 0
M  V30 3031 H 307.86 -3.444 -6.72997 0
M  V30 3032 H 309.128 -2.45942 -7.39684 0
M  V30 3033 N 313.357 1.07166 -1.15556 0
M  V30 3034 C 314.304 2.14417 -0.854055 0
M  V30 3035 C 315.274 1.64965 0.193806 0
M  V30 3036 O 316.459 1.90703 0.0609443 0
M  V30 3037 C 313.599 3.43304 -0.351574 0
M  V30 3038 C 312.712 4.06537 -1.46123 0
M  V30 3039 C 311.847 5.23266 -0.914677 0
M  V30 3040 C 310.886 5.78464 -2.00114 0
M  V30 3041 N 310.023 6.86521 -1.47083 0
M  V30 3042 H 314.863 2.39548 -1.77259 0
M  V30 3043 H 312.4 1.17543 -0.884425 0
M  V30 3044 H 314.358 4.17179 -0.0419409 0
M  V30 3045 H 312.988 3.18419 0.530037 0
M  V30 3046 H 312.04 3.30297 -1.88701 0
M  V30 3047 H 313.352 4.43567 -2.28144 0
M  V30 3048 H 312.506 6.04131 -0.557698 0
M  V30 3049 H 311.245 4.87658 -0.0636583 0
M  V30 3050 H 310.25 4.96243 -2.36692 0
M  V30 3051 H 311.475 6.16126 -2.85597 0
M  V30 3052 H 309.421 6.52849 -0.642198 0
M  V30 3053 H 309.338 7.22446 -2.22729 0
M  V30 3054 H 310.606 7.71087 -1.14215 0
M  V30 3055 N 314.835 0.952656 1.25548 0
M  V30 3056 C 315.767 0.428609 2.25157 0
M  V30 3057 C 316.78 -0.454428 1.56329 0
M  V30 3058 O 317.969 -0.263023 1.76552 0
M  V30 3059 C 315.069 -0.401972 3.36508 0
M  V30 3060 C 314.242 0.467601 4.34893 0
M  V30 3061 C 313.301 -0.30445 5.25319 0
M  V30 3062 O 312.327 0.296473 5.68427 0
M  V30 3063 N 313.529 -1.59805 5.5807 0
M  V30 3064 H 316.294 1.28497 2.70756 0
M  V30 3065 H 313.855 0.822798 1.39433 0
M  V30 3066 H 315.847 -0.926134 3.9396 0
M  V30 3067 H 314.417 -1.15918 2.90313 0
M  V30 3068 H 313.637 1.17288 3.76347 0
M  V30 3069 H 314.925 1.06119 4.97611 0
M  V30 3070 H 314.323 -2.10823 5.24948 0
M  V30 3071 H 312.88 -2.06822 6.18116 0
M  V30 3072 N 316.313 -1.40141 0.720998 0
M  V30 3073 C 317.562 -2.0002 0.259804 0
M  V30 3074 C 317.875 -1.57839 -1.15526 0
M  V30 3075 O 319.081 -2.10455 -1.71525 0
M  V30 3076 C 317.537 -3.57516 0.413566 0
M  V30 3077 C 317.145 -4.08667 1.83562 0
M  V30 3078 C 318.889 -4.24498 0.0134387 0
M  V30 3079 C 316.796 -5.58686 1.93968 0
M  V30 3080 H 315.726 -0.748195 0.0933806 0
M  V30 3081 H 318.377 -1.60313 0.892866 0
M  V30 3082 H 316.759 -3.9495 -0.288169 0
M  V30 3083 H 317.933 -3.82598 2.56817 0
M  V30 3084 H 316.248 -3.543 2.1877 0
M  V30 3085 H 318.845 -5.34654 0.0703954 0
M  V30 3086 H 319.188 -4.03375 -1.02927 0
M  V30 3087 H 319.721 -3.92188 0.665815 0
M  V30 3088 H 316.46 -5.8467 2.96379 0
M  V30 3089 H 315.98 -5.86602 1.25131 0
M  V30 3090 H 317.659 -6.23875 1.71431 0
M  V30 3091 N 317.792 -0.46758 -1.50504 0
M  V30 3092 C 318.725 0.374324 -2.25109 0
M  V30 3093 C 319.703 0.99921 -1.28275 0
M  V30 3094 O 320.887 1.03583 -1.57489 0
M  V30 3095 C 318.014 1.52419 -3.02467 0
M  V30 3096 C 317.06 1.01702 -4.14197 0
M  V30 3097 S 317.893 -0.0654477 -5.3546 0
M  V30 3098 C 319.049 1.08837 -6.16365 0
M  V30 3099 H 319.282 -0.258983 -2.9617 0
M  V30 3100 H 316.815 -0.252421 -1.52323 0
M  V30 3101 H 318.773 2.18322 -3.47628 0
M  V30 3102 H 317.434 2.129 -2.30938 0
M  V30 3103 H 316.627 1.87776 -4.67714 0
M  V30 3104 H 316.229 0.435757 -3.71453 0
M  V30 3105 H 318.521 2.00071 -6.47285 0
M  V30 3106 H 319.464 0.592538 -7.05616 0
M  V30 3107 H 319.872 1.34061 -5.4835 0
M  V30 3108 N 319.27 1.56325 -0.20005 0
M  V30 3109 C 320.519 1.96895 0.437652 0
M  V30 3110 C 320.832 1.08999 1.62415 0
M  V30 3111 O 322.038 1.39372 2.32997 0
M  V30 3112 C 320.494 3.50198 0.830025 0
M  V30 3113 C 320.102 4.46765 -0.332461 0
M  V30 3114 C 321.846 3.99526 1.43453 0
M  V30 3115 C 319.753 5.91344 0.0811468 0
M  V30 3116 H 318.683 0.735209 0.167282 0
M  V30 3117 H 321.334 1.81148 -0.292853 0
M  V30 3118 H 319.716 3.61467 1.61734 0
M  V30 3119 H 320.89 4.47231 -1.11 0
M  V30 3120 H 319.205 4.07657 -0.848789 0
M  V30 3121 H 321.802 5.05025 1.75652 0
M  V30 3122 H 322.145 3.44122 2.34277 0
M  V30 3123 H 322.678 3.91393 0.71109 0
M  V30 3124 H 319.417 6.50685 -0.793033 0
M  V30 3125 H 318.937 5.94121 0.823445 0
M  V30 3126 H 320.616 6.44945 0.515252 0
M  V30 3127 N 320.748 -0.0735177 1.57428 0
M  V30 3128 C 322.025 -0.805903 1.78226 0
M  V30 3129 C 322.405 -1.95874 0.787189 0
M  V30 3130 O 321.753 -2.2779 -0.180029 0
M  V30 3131 C 321.963 -1.28045 3.24662 0
M  V30 3132 C 323.311 -1.71453 3.88444 0
M  V30 3133 O 324.335 -1.37616 3.28543 0
M  V30 3134 O 323.194 -2.34093 4.93825 0
M  V30 3135 H 320.288 -0.386041 0.73137 0
M  V30 3136 H 322.834 -0.0537269 1.69615 0
M  V30 3137 H 321.606 -0.455476 3.8864 0
M  V30 3138 H 321.229 -2.094 3.37991 0
M  V30 3139 N 322.226 -1.5378 -0.344866 0
M  V30 3140 C 323.503 -1.61589 -1.10219 0
M  V30 3141 C 323.883 -0.436316 -2.06542 0
M  V30 3142 O 323.231 0.571543 -2.21237 0
M  V30 3143 C 323.441 -2.97602 -1.82301 0
M  V30 3144 C 324.789 -3.5291 -2.36093 0
M  V30 3145 O 325.813 -2.99768 -1.924 0
M  V30 3146 O 324.672 -4.45859 -3.16026 0
M  V30 3147 H 321.766 -0.653522 -0.506792 0
M  V30 3148 H 324.312 -1.66126 -0.346465 0
M  V30 3149 H 323.084 -3.74893 -1.12121 0
M  V30 3150 H 322.707 -2.9665 -2.64735 0
M  V30 3151 N 323.704 0.605807 -1.45491 0
M  V30 3152 C 324.932 1.39136 -1.5313 0
M  V30 3153 C 325.347 1.88082 -0.164507 0
M  V30 3154 O 324.704 1.62316 0.834247 0
M  V30 3155 C 324.755 2.59463 -2.51716 0
M  V30 3156 O 324.476 2.12551 -3.83084 0
M  V30 3157 C 325.977 3.52301 -2.6907 0
M  V30 3158 H 323.197 0.425849 -0.51855 0
M  V30 3159 H 325.741 0.73865 -1.90694 0
M  V30 3160 H 323.896 3.20772 -2.17219 0
M  V30 3161 H 324.31 2.90744 -4.36541 0
M  V30 3162 H 325.784 4.33271 -3.42024 0
M  V30 3163 H 326.261 4.02757 -1.75167 0
M  V30 3164 H 326.867 2.96845 -3.04571 0
M  V30 3165 N 325.182 1.32811 0.848464 0
M  V30 3166 C 326.115 1.16601 1.96162 0
M  V30 3167 C 327.093 0.0638855 1.62474 0
M  V30 3168 O 328.277 0.224348 1.8716 0
M  V30 3169 C 325.404 0.786333 3.29446 0
M  V30 3170 C 324.45 1.89459 3.8211 0
M  V30 3171 S 325.283 3.50395 4.04949 0
M  V30 3172 C 326.439 3.14413 5.41198 0
M  V30 3173 H 326.672 2.10832 2.09612 0
M  V30 3174 H 324.205 1.17543 1.00115 0
M  V30 3175 H 326.163 0.574044 4.06466 0
M  V30 3176 H 324.824 -0.137218 3.138 0
M  V30 3177 H 324.017 1.58207 4.78526 0
M  V30 3178 H 323.619 2.06304 3.11953 0
M  V30 3179 H 325.911 2.64642 6.23675 0
M  V30 3180 H 326.854 4.09874 5.77416 0
M  V30 3181 H 327.262 2.51266 5.05495 0
M  V30 3182 N 326.66 -1.06551 1.16123 0
M  V30 3183 C 327.607 -2.13961 0.865414 0
M  V30 3184 C 328.577 -1.65066 -0.185055 0
M  V30 3185 O 329.762 -1.90732 -0.05083 0
M  V30 3186 C 326.902 -3.43113 0.369776 0
M  V30 3187 C 326.015 -4.05756 1.48276 0
M  V30 3188 C 325.15 -5.22773 0.942414 0
M  V30 3189 C 324.189 -5.77395 2.03179 0
M  V30 3190 N 323.326 -6.85731 1.50721 0
M  V30 3191 H 328.166 -2.38605 1.78527 0
M  V30 3192 H 325.703 -1.17072 0.890646 0
M  V30 3193 H 327.661 -4.17151 0.0640643 0
M  V30 3194 H 326.291 -3.18695 -0.513143 0
M  V30 3195 H 325.343 -3.29292 1.9045 0
M  V30 3196 H 326.655 -4.42351 2.30493 0
M  V30 3197 H 325.809 -6.03827 0.589729 0
M  V30 3198 H 324.548 -4.87618 0.0895191 0
M  V30 3199 H 323.553 -4.94981 2.3932 0
M  V30 3200 H 324.778 -6.14603 2.8886 0
M  V30 3201 H 322.724 -6.52499 0.676811 0
M  V30 3202 H 322.641 -7.21254 2.26557 0
M  V30 3203 H 323.909 -7.7047 1.18303 0
M  V30 3204 N 328.138 -0.959301 -1.25041 0
M  V30 3205 C 329.386 -0.615393 -1.92503 0
M  V30 3206 C 329.707 0.850969 -1.75452 0
M  V30 3207 O 328.977 1.60658 -1.12098 0
M  V30 3208 H 327.557 -0.224613 -0.712431 0
M  V30 3209 H 330.219 -1.21855 -1.5211 0
M  V30 3210 H 329.315 -0.848738 -3.00338 0
M  V30 3211 N 329.616 1.39756 -0.72842 0
M  V30 3212 C 330.864 2.00248 -0.272946 0
M  V30 3213 C 331.185 1.58077 1.14178 0
M  V30 3214 O 330.455 0.826014 1.77634 0
M  V30 3215 H 329.035 0.740554 -0.0979247 0
M  V30 3216 H 331.697 1.70903 -0.936912 0
M  V30 3217 H 330.793 3.10495 -0.316142 0
M  V30 3218 N 331.094 0.475555 1.50254 0
M  V30 3219 C 332.51 0.12997 1.5907 0
M  V30 3220 C 332.71 -1.36385 1.48328 0
M  V30 3221 O 331.766 -2.13754 1.34407 0
M  V30 3222 C 333.079 0.684139 2.92814 0
M  V30 3223 C 334.627 0.647965 3.0622 0
M  V30 3224 C 335.102 1.17975 4.42545 0
M  V30 3225 N 336.593 1.13936 4.48969 0
M  V30 3226 C 337.328 1.52129 5.52851 0
M  V30 3227 N 336.824 1.97793 6.63965 0
M  V30 3228 N 338.617 1.43704 5.4342 0
M  V30 3229 H 330.768 1.44706 1.55479 0
M  V30 3230 H 333.031 0.598691 0.735033 0
M  V30 3231 H 332.737 1.73079 3.06164 0
M  V30 3232 H 332.611 0.130204 3.76975 0
M  V30 3233 H 334.998 -0.38979 2.92514 0
M  V30 3234 H 335.079 1.23876 2.23805 0
M  V30 3235 H 334.723 2.21616 4.57 0
M  V30 3236 H 334.653 0.565138 5.23559 0
M  V30 3237 H 337.144 0.804488 3.69238 0
M  V30 3238 H 337.457 2.25072 7.39299 0
M  V30 3239 H 335.802 2.01749 6.65073 0
M  V30 3240 H 338.993 1.07867 4.55502 0
M  V30 3241 H 339.166 1.73794 6.24259 0
M  V30 3242 N 332.573 -1.56217 0.208337 0
M  V30 3243 C 333.521 -2.21053 -0.723769 0
M  V30 3244 C 334.515 -1.18578 -1.20978 0
M  V30 3245 O 335.721 -1.36691 -1.17114 0
M  V30 3246 H 332.096 -0.708595 -0.251788 0
M  V30 3247 H 334.067 -2.98006 -0.153365 0
M  V30 3248 C 332.816 -2.89417 -1.927 0
M  V30 3249 H 332.139 -3.68019 -1.56212 0
M  V30 3250 H 333.579 -3.38201 -2.55727 0
M  V30 3251 C 332.038 -1.91166 -2.77411 0
M  V30 3252 O 332.568 -1.42026 -3.75754 0
M  V30 3253 N 330.774 -1.59105 -2.43175 0
M  V30 3254 H 330.321 -1.99259 -1.63259 0
M  V30 3255 H 330.279 -0.936255 -3.00136 0
M  V30 3256 N 334.051 0.0651679 -1.57465 0
M  V30 3257 C 335.3 0.761916 -1.86756 0
M  V30 3258 C 335.613 1.78406 -0.801925 0
M  V30 3259 O 336.819 2.53084 -0.982885 0
M  V30 3260 C 335.275 1.40603 -3.31299 0
M  V30 3261 C 334.883 0.422115 -4.46007 0
M  V30 3262 C 336.627 2.08476 -3.69781 0
M  V30 3263 C 334.534 1.07252 -5.81593 0
M  V30 3264 H 333.464 0.288308 -0.696702 0
M  V30 3265 H 336.115 0.015344 -1.83494 0
M  V30 3266 H 334.497 2.20109 -3.29193 0
M  V30 3267 H 335.671 -0.343613 -4.59517 0
M  V30 3268 H 333.986 -0.152527 -4.16121 0
M  V30 3269 H 336.583 2.57925 -4.68379 0
M  V30 3270 H 336.926 2.88712 -2.99919 0
M  V30 3271 H 337.459 1.35792 -3.73905 0
M  V30 3272 H 334.198 0.310342 -6.54765 0
M  V30 3273 H 333.718 1.80895 -5.71872 0
M  V30 3274 H 335.397 1.59043 -6.27148 0
M  V30 3275 N 335.529 1.53961 0.336706 0
M  V30 3276 C 336.477 1.83136 1.43401 0
M  V30 3277 C 337.471 0.702313 1.54156 0
M  V30 3278 O 338.677 0.885765 1.56698 0
M  V30 3279 H 335.052 0.580309 0.478273 0
M  V30 3280 H 337.023 2.74925 1.16012 0
M  V30 3281 C 335.772 2.06385 2.79822 0
M  V30 3282 H 335.095 2.92718 2.72316 0
M  V30 3283 H 336.535 2.30761 3.55704 0
M  V30 3284 C 334.994 0.851414 3.25964 0
M  V30 3285 O 335.524 0.0541904 4.01663 0
M  V30 3286 N 333.73 0.66672 2.82848 0
M  V30 3287 H 333.277 1.31665 2.21409 0
M  V30 3288 H 333.235 -0.143032 3.14074 0
M  V30 3289 N 337.007 -0.598083 1.45811 0
M  V30 3290 C 338.284 -1.35777 1.40797 0
M  V30 3291 C 338.664 -2.10935 0.083462 0
M  V30 3292 O 338.012 -2.08505 -0.934763 0
M  V30 3293 C 338.222 -2.29666 2.62783 0
M  V30 3294 C 339.57 -2.91977 3.08277 0
M  V30 3295 O 340.594 -2.39984 2.63223 0
M  V30 3296 O 339.453 -3.86376 3.86491 0
M  V30 3297 H 336.547 -0.609291 0.55919 0
M  V30 3298 H 339.093 -0.620379 1.57954 0
M  V30 3299 H 337.865 -1.73454 3.50756 0
M  V30 3300 H 337.488 -3.1077 2.48008 0
M  V30 3301 N 338.485 -1.33259 -0.841409 0
M  V30 3302 C 339.896 -1.22066 -1.41269 0
M  V30 3303 C 340.247 0.161479 -1.95534 0
M  V30 3304 O 339.372 1.06094 -1.88608 0
M  V30 3305 C 339.967 -2.20996 -2.568 0
M  V30 3306 C 338.526 -2.13649 -3.09888 0
M  V30 3307 C 337.673 -2.08623 -1.82679 0
M  V30 3308 H 340.624 -1.44895 -0.647395 0
M  V30 3309 H 340.645 -1.81621 -3.34356 0
M  V30 3310 H 340.157 -3.2158 -2.17274 0
M  V30 3311 H 338.258 -1.16359 -3.53965 0
M  V30 3312 H 338.371 -3.04079 -3.70234 0
M  V30 3313 H 336.735 -1.54061 -2.02824 0
M  V30 3314 H 337.518 -3.1101 -1.45353 0
M  V30 3315 N 339.963 1.05934 -1.16686 0
M  V30 3316 C 340.873 2.17014 -0.891183 0
M  V30 3317 C 341.889 1.73453 0.137907 0
M  V30 3318 O 343.065 2.01361 -0.039592 0
M  V30 3319 C 340.13 3.44384 -0.400099 0
M  V30 3320 C 339.191 4.02433 -1.49486 0
M  V30 3321 C 338.424 5.23723 -1.02711 0
M  V30 3322 O 338.647 5.7027 0.121716 0
M  V30 3323 O 337.581 5.7382 -1.81699 0
M  V30 3324 H 341.407 2.43113 -1.82015 0
M  V30 3325 H 338.992 1.15541 -0.947132 0
M  V30 3326 H 340.874 4.21189 -0.133392 0
M  V30 3327 H 339.549 3.19802 0.500817 0
M  V30 3328 H 338.456 3.27102 -1.81535 0
M  V30 3329 H 339.789 4.31317 -2.37121 0
M  V30 3330 N 341.441 0.965919 1.2453 0
M  V30 3331 C 342.371 0.513476 2.27784 0
M  V30 3332 C 343.352 -0.445974 1.6415 0
M  V30 3333 O 344.537 -0.342485 1.91156 0
M  V30 3334 C 341.667 -0.198839 3.4673 0
M  V30 3335 C 340.621 0.676456 4.2262 0
M  V30 3336 C 339.947 -0.167248 5.34438 0
M  V30 3337 C 341.247 1.96017 4.84123 0
M  V30 3338 H 342.941 1.3765 2.65881 0
M  V30 3339 H 340.487 0.663321 1.27813 0
M  V30 3340 H 342.44 -0.526567 4.18097 0
M  V30 3341 H 341.164 -1.0962 3.07654 0
M  V30 3342 H 339.823 0.98743 3.53052 0
M  V30 3343 H 339.471 -1.0647 4.91603 0
M  V30 3344 H 339.171 0.415181 5.86131 0
M  V30 3345 H 340.695 -0.489688 6.08633 0
M  V30 3346 H 342.109 1.69814 5.47573 0
M  V30 3347 H 340.506 2.48918 5.4604 0
M  V30 3348 H 341.576 2.65622 4.05676 0
M  V30 3349 N 342.919 -1.39368 0.735821 0
M  V30 3350 C 344.165 -2.00794 0.284544 0
M  V30 3351 C 344.498 -1.58255 -1.12557 0
M  V30 3352 O 343.773 -0.811819 -1.76748 0
M  V30 3353 C 344.056 -3.58011 0.387337 0
M  V30 3354 C 343.909 -4.10566 1.83728 0
M  V30 3355 C 345.228 -4.395 -0.22975 0
M  V30 3356 H 342.347 -0.729501 0.104866 0
M  V30 3357 H 344.989 -1.65564 0.93213 0
M  V30 3358 H 343.139 -3.88154 -0.164006 0
M  V30 3359 H 344.811 -3.91139 2.44556 0
M  V30 3360 H 343.054 -3.64095 2.35833 0
M  V30 3361 H 343.725 -5.19702 1.86047 0
M  V30 3362 H 346.201 -4.15406 0.240257 0
M  V30 3363 H 345.077 -5.48752 -0.127485 0
M  V30 3364 H 345.338 -4.22062 -1.3159 0
M  V30 3365 N 344.397 -0.483516 -1.5 0
M  V30 3366 C 345.344 0.304164 -2.28787 0
M  V30 3367 C 346.314 0.976114 -1.34392 0
M  V30 3368 O 347.499 0.986156 -1.63339 0
M  V30 3369 C 344.639 1.37298 -3.16612 0
M  V30 3370 C 343.752 0.714561 -4.26049 0
M  V30 3371 C 342.887 1.76232 -5.01114 0
M  V30 3372 C 341.926 1.08483 -6.0241 0
M  V30 3373 N 341.063 2.076 -6.70706 0
M  V30 3374 H 345.903 -0.373981 -2.95644 0
M  V30 3375 H 343.44 -0.196275 -1.45785 0
M  V30 3376 H 345.398 2.00445 -3.65893 0
M  V30 3377 H 344.028 2.02012 -2.51776 0
M  V30 3378 H 343.08 -0.0297798 -3.80388 0
M  V30 3379 H 344.392 0.180383 -4.98474 0
M  V30 3380 H 343.546 2.46929 -5.54176 0
M  V30 3381 H 342.285 2.33033 -4.28424 0
M  V30 3382 H 341.29 0.363545 -5.48597 0
M  V30 3383 H 342.515 0.523551 -6.77079 0
M  V30 3384 H 340.461 2.63394 -6.00799 0
M  V30 3385 H 340.378 1.59201 -7.39047 0
M  V30 3386 H 341.646 2.77639 -7.2838 0
M  V30 3387 N 345.875 1.56104 -0.216619 0
M  V30 3388 C 347.121 1.98466 0.417033 0
M  V30 3389 C 347.454 1.10403 1.59765 0
M  V30 3390 O 346.729 0.160632 1.93836 0
M  V30 3391 C 347.012 3.49769 0.85637 0
M  V30 3392 C 346.865 4.48606 -0.327546 0
M  V30 3393 C 348.184 4.05339 1.7143 0
M  V30 3394 H 345.303 0.721551 0.150112 0
M  V30 3395 H 347.945 1.87423 -0.311864 0
M  V30 3396 H 346.095 3.5931 1.47745 0
M  V30 3397 H 347.767 4.5108 -0.965618 0
M  V30 3398 H 346.01 4.22682 -0.975805 0
M  V30 3399 H 346.681 5.51995 0.0227149 0
M  V30 3400 H 349.157 3.98712 1.19031 0
M  V30 3401 H 348.033 5.11533 1.99061 0
M  V30 3402 H 348.294 3.51918 2.67593 0
M  V30 3403 N 347.353 -0.0568162 1.57498 0
M  V30 3404 C 348.283 -1.06593 2.0775 0
M  V30 3405 C 349.264 -1.39448 0.974082 0
M  V30 3406 O 350.449 -1.48815 1.24771 0
M  V30 3407 C 347.579 -2.37509 2.5339 0
M  V30 3408 C 346.533 -2.1897 3.67745 0
M  V30 3409 C 345.859 -3.55402 3.99492 0
M  V30 3410 C 347.159 -1.59859 4.97235 0
M  V30 3411 H 348.853 -0.647706 2.9231 0
M  V30 3412 H 346.399 -0.310116 1.40621 0
M  V30 3413 H 348.352 -3.08409 2.87162 0
M  V30 3414 H 347.076 -2.8134 1.65878 0
M  V30 3415 H 345.735 -1.50508 3.3428 0
M  V30 3416 H 345.383 -3.9683 3.09088 0
M  V30 3417 H 345.083 -3.43831 4.76502 0
M  V30 3418 H 346.607 -4.27708 4.35773 0
M  V30 3419 H 348.021 -2.20642 5.29141 0
M  V30 3420 H 346.418 -1.58942 5.78669 0
M  V30 3421 H 347.488 -0.561506 4.81638 0
M  V30 3422 N 348.832 -1.54138 -0.328536 0
M  V30 3423 C 349.795 -1.82462 -1.38709 0
M  V30 3424 C 350.795 -0.696229 -1.44946 0
M  V30 3425 O 351.985 -0.964535 -1.4506 0
M  V30 3426 C 349.117 -1.98018 -2.77492 0
M  V30 3427 H 350.31 -2.77037 -1.14851 0
M  V30 3428 H 347.863 -1.45779 -0.563751 0
M  V30 3429 H 348.598 -1.05637 -3.06613 0
M  V30 3430 H 348.383 -2.80124 -2.74359 0
M  V30 3431 H 349.873 -2.21396 -3.54081 0
M  V30 3432 N 350.31 0.590341 -1.46126 0
M  V30 3433 C 351.258 1.72105 -1.5647 0
M  V30 3434 C 352.252 1.63756 -0.433612 0
M  V30 3435 O 353.458 1.69342 -0.610194 0
M  V30 3436 H 349.833 0.568889 -0.491802 0
M  V30 3437 H 351.804 1.6051 -2.51553 0
M  V30 3438 C 350.553 3.10493 -1.56491 0
M  V30 3439 H 349.876 3.17583 -2.4286 0
M  V30 3440 H 351.316 3.8939 -1.67785 0
M  V30 3441 C 349.775 3.3563 -0.292231 0
M  V30 3442 O 350.305 3.96875 0.620739 0
M  V30 3443 N 348.511 2.90026 -0.182523 0
M  V30 3444 H 348.058 2.40367 -0.926356 0
M  V30 3445 H 348.016 3.07218 0.668152 0
M  V30 3446 N 351.788 1.33704 0.83433 0
M  V30 3447 C 352.736 1.24323 1.96587 0
M  V30 3448 C 353.73 0.143659 1.6879 0
M  V30 3449 O 354.936 0.30791 1.77347 0
M  V30 3450 H 351.311 0.385925 0.645419 0
M  V30 3451 H 353.282 2.19978 2.01624 0
M  V30 3452 C 352.031 1.00394 3.32891 0
M  V30 3453 H 351.354 1.84231 3.54822 0
M  V30 3454 H 352.794 0.97862 4.12552 0
M  V30 3455 C 351.253 -0.293047 3.35623 0
M  V30 3456 O 351.783 -1.29823 3.80143 0
M  V30 3457 N 349.989 -0.322174 2.88809 0
M  V30 3458 H 349.536 0.496379 2.52772 0
M  V30 3459 H 349.494 -1.18977 2.91019 0
M  V30 3460 N 353.266 -1.05314 1.17247 0
M  V30 3461 C 354.491 -1.82509 0.985148 0
M  V30 3462 C 354.916 -1.82343 -0.461788 0
M  V30 3463 O 354.274 -1.23151 -1.33055 0
M  V30 3464 C 354.322 -3.26566 1.52929 0
M  V30 3465 O 353.426 -4.05666 0.742225 0
M  V30 3466 H 352.767 -0.564347 0.349869 0
M  V30 3467 H 355.297 -1.32718 1.55715 0
M  V30 3468 H 355.307 -3.77369 1.55103 0
M  V30 3469 H 353.982 -3.26001 2.58256 0
M  V30 3470 H 352.559 -3.64397 0.791794 0
M  V30 3471 N 354.744 -0.972509 -1.24016 0
M  V30 3472 C 355.969 -0.654417 -1.96805 0
M  V30 3473 C 356.394 0.770398 -1.716 0
M  V30 3474 O 355.752 1.52361 -0.982647 0
M  V30 3475 C 355.8 -0.941031 -3.48105 0
M  V30 3476 O 354.904 -0.0289472 -4.1239 0
M  V30 3477 H 354.245 -0.24692 -0.616382 0
M  V30 3478 H 356.775 -1.30396 -1.57664 0
M  V30 3479 H 356.785 -0.87452 -3.98517 0
M  V30 3480 H 355.46 -1.97939 -3.65777 0
M  V30 3481 H 354.037 -0.149192 -3.72601 0
M  V30 3482 N 356.222 1.38976 -0.743202 0
M  V30 3483 C 357.499 1.94351 -0.220705 0
M  V30 3484 C 357.879 1.67935 1.2791 0
M  V30 3485 O 357.227 1.01211 2.04862 0
M  V30 3486 C 357.437 3.44426 -0.563171 0
M  V30 3487 C 358.785 4.2144 -0.517046 0
M  V30 3488 O 359.809 3.52661 -0.500846 0
M  V30 3489 O 358.668 5.44032 -0.518806 0
M  V30 3490 H 355.762 0.825879 -0.043047 0
M  V30 3491 H 358.308 1.48429 -0.822618 0
M  V30 3492 H 357.08 3.5712 -1.59941 0
M  V30 3493 H 356.703 3.97543 0.0672883 0
M  V30 3494 N 357.7 0.491464 1.49741 0
M  V30 3495 C 358.925 -0.0557177 2.07325 0
M  V30 3496 C 359.35 -1.30925 1.35056 0
M  V30 3497 O 358.708 -1.76733 0.404365 0
M  V30 3498 C 358.756 -0.302074 3.59333 0
M  V30 3499 O 357.86 -1.37868 3.88672 0
M  V30 3500 H 357.201 0.0219956 0.663636 0
M  V30 3501 H 359.731 0.688352 1.92673 0
M  V30 3502 H 359.741 -0.536464 4.04458 0
M  V30 3503 H 358.416 0.61383 4.11345 0
M  V30 3504 H 356.993 -1.12999 3.55367 0
M  V30 3505 N 359.178 -1.55987 0.224894 0
M  V30 3506 C 360.427 -1.97566 -0.406273 0
M  V30 3507 C 360.74 -1.11569 -1.6066 0
M  V30 3508 O 361.946 -1.43062 -2.3075 0
M  V30 3509 C 360.402 -3.51474 -0.774207 0
M  V30 3510 C 360.01 -4.46179 0.403496 0
M  V30 3511 C 361.754 -4.01758 -1.37079 0
M  V30 3512 C 359.661 -5.91399 0.0129412 0
M  V30 3513 H 358.591 -0.737777 -0.155565 0
M  V30 3514 H 361.242 -1.80659 0.321635 0
M  V30 3515 H 359.624 -3.63994 -1.55963 0
M  V30 3516 H 360.798 -4.45409 1.18101 0
M  V30 3517 H 359.113 -4.06255 0.913536 0
M  V30 3518 H 361.71 -5.07756 -1.67596 0
M  V30 3519 H 362.053 -3.47805 -2.28773 0
M  V30 3520 H 362.586 -3.92475 -0.648733 0
M  V30 3521 H 359.325 -6.49341 0.896451 0
M  V30 3522 H 358.845 -5.95356 -0.728821 0
M  V30 3523 H 360.524 -6.45683 -0.412582 0
M  V30 3524 N 360.656 0.0484629 -1.57525 0
M  V30 3525 C 361.933 0.777447 -1.79486 0
M  V30 3526 C 362.313 1.94597 -0.818251 0
M  V30 3527 O 361.661 2.28047 0.143767 0
M  V30 3528 C 361.871 1.22864 -3.26658 0
M  V30 3529 C 363.219 1.65251 -3.91123 0
M  V30 3530 O 364.243 1.32372 -3.3069 0
M  V30 3531 O 363.102 2.26207 -4.97486 0
M  V30 3532 H 360.196 0.374357 -0.737419 0
M  V30 3533 H 362.742 0.0267359 -1.69679 0
M  V30 3534 H 361.514 0.393589 -3.89316 0
M  V30 3535 H 361.137 2.03996 -3.41279 0
M  V30 3536 N 362.134 1.5431 0.320358 0
M  V30 3537 C 363.38 1.73859 1.05568 0
M  V30 3538 C 363.735 0.507807 1.85578 0
M  V30 3539 O 363.028 -0.499789 1.84967 0
M  V30 3540 C 363.222 2.95639 2.00828 0
M  V30 3541 C 363.051 4.30444 1.30186 0
M  V30 3542 C 361.821 4.94544 1.03703 0
M  V30 3543 C 364.019 5.0929 0.716138 0
M  V30 3544 N 362.001 6.13172 0.298846 0
M  V30 3545 C 363.372 6.19903 0.109729 0
M  V30 3546 C 365.427 4.94034 0.619269 0
M  V30 3547 C 364.13 7.16924 -0.584153 0
M  V30 3548 C 366.156 5.91369 -0.0609184 0
M  V30 3549 C 365.518 7.01336 -0.656258 0
M  V30 3550 H 361.617 0.688988 0.36989 0
M  V30 3551 H 364.201 1.9177 0.336494 0
M  V30 3552 H 362.372 2.79188 2.70016 0
M  V30 3553 H 364.104 3.03802 2.6737 0
M  V30 3554 H 360.859 4.54536 1.33019 0
M  V30 3555 H 361.283 6.76977 -0.0561964 0
M  V30 3556 H 365.925 4.0916 1.06526 0
M  V30 3557 H 363.643 8.01354 -1.04197 0
M  V30 3558 H 367.229 5.81642 -0.135552 0
M  V30 3559 H 366.109 7.75359 -1.17423 0
M  V30 3560 N 363.613 -0.582584 1.46437 0
M  V30 3561 C 364.543 -1.70187 1.59871 0
M  V30 3562 C 365.524 -1.64066 0.449042 0
M  V30 3563 O 366.709 -1.82081 0.6753 0
M  V30 3564 C 363.839 -3.08827 1.58881 0
M  V30 3565 C 362.793 -3.29779 2.72819 0
M  V30 3566 C 362.119 -4.68947 2.5689 0
M  V30 3567 C 363.419 -3.17601 4.1464 0
M  V30 3568 H 365.113 -1.592 2.53566 0
M  V30 3569 H 362.659 -0.764472 1.22032 0
M  V30 3570 H 364.612 -3.86951 1.66873 0
M  V30 3571 H 363.336 -3.20713 0.617306 0
M  V30 3572 H 361.995 -2.54054 2.64296 0
M  V30 3573 H 361.643 -4.77599 1.57823 0
M  V30 3574 H 361.343 -4.83919 3.33312 0
M  V30 3575 H 362.867 -5.4924 2.66773 0
M  V30 3576 H 364.281 -3.8557 4.24274 0
M  V30 3577 H 362.678 -3.44094 4.9165 0
M  V30 3578 H 363.748 -2.14681 4.34788 0
M  V30 3579 N 365.091 -1.34144 -0.827227 0
M  V30 3580 C 366.319 -1.29325 -1.61501 0
M  V30 3581 C 366.734 0.13354 -1.88327 0
M  V30 3582 O 366.091 1.0793 -1.47164 0
M  V30 3583 C 366.142 -2.07746 -2.95844 0
M  V30 3584 O 365.863 -3.4486 -2.70191 0
M  V30 3585 C 367.364 -2.10273 -3.90256 0
M  V30 3586 H 364.584 -0.445069 -0.50215 0
M  V30 3587 H 367.128 -1.76693 -1.02955 0
M  V30 3588 H 365.283 -1.6403 -3.5096 0
M  V30 3589 H 365.697 -3.85345 -3.55822 0
M  V30 3590 H 367.171 -2.69575 -4.81698 0
M  V30 3591 H 367.648 -1.096 -4.25305 0
M  V30 3592 H 368.254 -2.54059 -3.41078 0
M  V30 3593 N 366.569 1.04691 -1.17803 0
M  V30 3594 C 367.794 1.81984 -0.994813 0
M  V30 3595 C 368.219 1.82586 0.452112 0
M  V30 3596 O 367.577 1.23854 1.324 0
M  V30 3597 C 367.625 3.2575 -1.54659 0
M  V30 3598 O 366.729 4.05267 -0.763728 0
M  V30 3599 H 366.07 0.562483 -0.352857 0
M  V30 3600 H 368.6 1.3189 -1.56417 0
M  V30 3601 H 368.61 3.76541 -1.57102 0
M  V30 3602 H 367.285 3.24627 -2.59981 0
M  V30 3603 H 365.862 3.63972 -0.811108 0
M  V30 3604 N 368.047 0.979072 1.23499 0
M  V30 3605 C 368.98 0.463027 2.23453 0
M  V30 3606 C 369.958 -0.469128 1.55685 0
M  V30 3607 O 371.142 -0.397882 1.84253 0
M  V30 3608 C 368.269 -0.330308 3.37086 0
M  V30 3609 C 367.315 0.545795 4.22993 0
M  V30 3610 S 368.148 1.99285 4.97037 0
M  V30 3611 C 369.304 1.20862 6.1412 0
M  V30 3612 H 369.537 1.31005 2.6688 0
M  V30 3613 H 367.07 0.784965 1.32957 0
M  V30 3614 H 369.028 -0.782027 4.02982 0
M  V30 3615 H 367.689 -1.15244 2.92194 0
M  V30 3616 H 366.882 -0.0638928 5.03959 0
M  V30 3617 H 366.484 0.933705 3.62157 0
M  V30 3618 H 368.776 0.469284 6.75873 0
M  V30 3619 H 369.719 1.99307 6.79472 0
M  V30 3620 H 370.127 0.727992 5.59786 0
M  V30 3621 N 369.525 -1.3858 0.750561 0
M  V30 3622 C 370.773 -1.99789 0.30477 0
M  V30 3623 C 371.094 -1.59874 -1.11649 0
M  V30 3624 O 370.364 -0.85417 -1.76297 0
M  V30 3625 H 368.944 -0.738902 0.109694 0
M  V30 3626 H 371.606 -1.69391 0.963983 0
M  V30 3627 H 370.702 -3.09952 0.365499 0
M  V30 3628 N 371.003 -0.499398 -1.49478 0
M  V30 3629 C 371.966 0.268838 -2.27618 0
M  V30 3630 C 372.966 0.895383 -1.33565 0
M  V30 3631 O 374.156 0.760164 -1.56739 0
M  V30 3632 C 371.288 1.38559 -3.11471 0
M  V30 3633 H 372.481 -0.416812 -2.96989 0
M  V30 3634 H 370.034 -0.254313 -1.54217 0
M  V30 3635 H 370.769 2.10544 -2.46661 0
M  V30 3636 H 370.554 0.941797 -3.80621 0
M  V30 3637 H 372.044 1.92678 -3.70493 0
M  V30 3638 N 372.481 1.55866 -0.233164 0
M  V30 3639 C 373.758 1.90471 0.444988 0
M  V30 3640 C 374.138 1.15209 1.7689 0
M  V30 3641 O 373.486 0.265119 2.26957 0
M  V30 3642 C 373.696 3.4333 0.626559 0
M  V30 3643 C 375.044 4.14319 0.92871 0
M  V30 3644 O 376.068 3.48993 0.712926 0
M  V30 3645 O 374.927 5.29846 1.33887 0
M  V30 3646 H 372.021 0.792347 0.236885 0
M  V30 3647 H 374.567 1.67437 -0.276211 0
M  V30 3648 H 373.339 3.90095 -0.306822 0
M  V30 3649 H 372.962 3.72181 1.39881 0
M  V30 3650 N 373.959 -0.0401083 1.57549 0
M  V30 3651 C 374.892 -1.07689 2.01192 0
M  V30 3652 C 375.87 -1.358 0.894273 0
M  V30 3653 O 377.054 -1.48642 1.15921 0
M  V30 3654 C 374.181 -2.41418 2.3756 0
M  V30 3655 C 373.227 -2.29237 3.59656 0
M  V30 3656 S 374.06 -1.65628 5.09242 0
M  V30 3657 C 375.216 -3.0087 5.48843 0
M  V30 3658 H 375.449 -0.705108 2.88817 0
M  V30 3659 H 372.982 -0.249724 1.52367 0
M  V30 3660 H 374.94 -3.18329 2.59186 0
M  V30 3661 H 373.601 -2.75747 1.50407 0
M  V30 3662 H 372.794 -3.27932 3.82722 0
M  V30 3663 H 372.396 -1.60469 3.37825 0
M  V30 3664 H 374.688 -3.97201 5.48851 0
M  V30 3665 H 375.631 -2.82549 6.49286 0
M  V30 3666 H 376.039 -3.02934 4.76331 0
M  V30 3667 N 375.437 -1.54477 -0.31217 0
M  V30 3668 C 376.665 -1.77205 -1.068 0
M  V30 3669 C 377.08 -0.526114 -1.81321 0
M  V30 3670 O 376.437 0.503647 -1.75413 0
M  V30 3671 C 376.488 -2.97253 -2.05725 0
M  V30 3672 O 376.209 -4.1703 -1.34228 0
M  V30 3673 C 377.71 -3.32281 -2.93435 0
M  V30 3674 H 374.93 -0.591287 -0.317208 0
M  V30 3675 H 377.474 -2.01398 -0.354834 0
M  V30 3676 H 375.629 -2.753 -2.72559 0
M  V30 3677 H 376.043 -4.84636 -2.00571 0
M  V30 3678 H 377.517 -4.19551 -3.58721 0
M  V30 3679 H 377.994 -2.49945 -3.61143 0
M  V30 3680 H 378.6 -3.56353 -2.32147 0
M  V30 3681 N 376.915 0.57481 -1.46744 0
M  V30 3682 C 378.192 1.3352 -1.4294 0
M  V30 3683 C 378.572 2.10775 -0.117009 0
M  V30 3684 O 377.92 2.09966 0.901474 0
M  V30 3685 C 378.13 2.25456 -2.66403 0
M  V30 3686 C 379.478 2.87035 -3.12883 0
M  V30 3687 O 380.502 2.35766 -2.67007 0
M  V30 3688 O 379.361 3.80179 -3.92589 0
M  V30 3689 H 376.455 0.600318 -0.568812 0
M  V30 3690 H 379.001 0.595171 -1.58921 0
M  V30 3691 H 377.773 1.67851 -3.53471 0
M  V30 3692 H 377.396 3.06785 -2.52921 0
M  V30 3693 N 378.394 1.34581 0.820102 0
M  V30 3694 C 379.64 1.27285 1.57881 0
M  V30 3695 C 379.973 -0.156137 1.93571 0
M  V30 3696 O 379.248 -1.10222 1.60254 0
M  V30 3697 C 379.531 2.16639 2.87645 0
M  V30 3698 C 379.384 3.68088 2.58517 0
M  V30 3699 C 380.703 2.05378 3.8924 0
M  V30 3700 H 377.822 0.463714 0.572833 0
M  V30 3701 H 380.464 1.64859 0.944539 0
M  V30 3702 H 378.614 1.84725 3.41773 0
M  V30 3703 H 380.286 4.10382 2.10676 0
M  V30 3704 H 378.529 3.89038 1.91917 0
M  V30 3705 H 379.2 4.2598 3.51063 0
M  V30 3706 H 381.676 2.33404 3.44473 0
M  V30 3707 H 380.552 2.7012 4.77835 0
M  V30 3708 H 380.813 1.0316 4.29896 0
M  V30 3709 N 379.872 -1.04064 1.18357 0
M  V30 3710 C 381.12 -1.76915 0.977013 0
M  V30 3711 C 381.441 -1.88624 -0.494577 0
M  V30 3712 O 380.711 -1.41125 -1.3587 0
M  V30 3713 H 379.291 -0.65535 0.358504 0
M  V30 3714 H 381.953 -1.25592 1.49039 0
M  V30 3715 H 381.049 -2.78178 1.41504 0
M  V30 3716 N 381.35 -0.985608 -1.22978 0
M  V30 3717 C 382.766 -0.695104 -1.43668 0
M  V30 3718 C 382.966 0.736866 -1.87543 0
M  V30 3719 O 382.022 1.50868 -2.02473 0
M  V30 3720 C 383.335 -1.69447 -2.48412 0
M  V30 3721 C 384.883 -1.70909 -2.62219 0
M  V30 3722 C 385.358 -2.6969 -3.70178 0
M  V30 3723 N 386.849 -2.6824 -3.77626 0
M  V30 3724 C 387.584 -3.41339 -4.60733 0
M  V30 3725 N 387.08 -4.24015 -5.4789 0
M  V30 3726 N 388.873 -3.30079 -4.54977 0
M  V30 3727 H 381.024 -1.91054 -0.928016 0
M  V30 3728 H 383.287 -0.823553 -0.469536 0
M  V30 3729 H 382.993 -2.7188 -2.23102 0
M  V30 3730 H 382.867 -1.48147 -3.46889 0
M  V30 3731 H 385.254 -0.691785 -2.86877 0
M  V30 3732 H 385.335 -1.96276 -1.6404 0
M  V30 3733 H 384.979 -3.71566 -3.46268 0
M  V30 3734 H 384.909 -2.41595 -4.67909 0
M  V30 3735 H 387.4 -2.08243 -3.15346 0
M  V30 3736 H 387.713 -4.76636 -6.08308 0
M  V30 3737 H 386.058 -4.28104 -5.47496 0
M  V30 3738 H 389.249 -2.64937 -3.85909 0
M  V30 3739 H 389.422 -3.87308 -5.19516 0
M  V30 3740 N 382.828 1.3818 -0.7579 0
M  V30 3741 C 383.761 2.28055 -0.0814093 0
M  V30 3742 C 384.739 1.45603 0.723779 0
M  V30 3743 O 385.923 1.74961 0.701491 0
M  V30 3744 C 383.05 3.2676 0.891394 0
M  V30 3745 C 382.096 4.26153 0.171909 0
M  V30 3746 S 382.929 5.23434 -1.13035 0
M  V30 3747 C 384.085 6.25694 -0.160727 0
M  V30 3748 H 384.318 2.85082 -0.84353 0
M  V30 3749 H 381.851 1.44246 -0.550671 0
M  V30 3750 H 383.809 3.8414 1.44731 0
M  V30 3751 H 382.47 2.68706 1.62652 0
M  V30 3752 H 381.663 4.95738 0.908843 0
M  V30 3753 H 381.265 3.72691 -0.312606 0
M  V30 3754 H 383.557 6.74161 0.671773 0
M  V30 3755 H 384.5 7.03285 -0.824353 0
M  V30 3756 H 384.908 5.64064 0.221892 0
M  V30 3757 N 384.306 0.507319 1.49211 0
M  V30 3758 C 385.554 -0.0348839 2.0207 0
M  V30 3759 C 385.875 -1.36898 1.38866 0
M  V30 3760 O 385.145 -1.88133 0.546151 0
M  V30 3761 H 383.725 -0.0158812 0.746831 0
M  V30 3762 H 386.387 0.665998 1.83168 0
M  V30 3763 H 385.483 -0.159917 3.1169 0
M  V30 3764 N 385.784 -1.5574 0.241426 0
M  V30 3765 C 387.032 -1.98417 -0.384075 0
M  V30 3766 C 387.353 -1.13078 -1.58866 0
M  V30 3767 O 386.623 -0.212312 -1.94746 0
M  V30 3768 H 385.203 -0.732813 -0.144894 0
M  V30 3769 H 387.865 -1.9193 0.338943 0
M  V30 3770 H 386.961 -3.04219 -0.696939 0
M  V30 3771 N 387.262 0.0317525 -1.57568 0
M  V30 3772 C 388.225 1.01783 -2.0536 0
M  V30 3773 C 389.225 1.29203 -0.957253 0
M  V30 3774 O 390.415 1.24251 -1.22095 0
M  V30 3775 C 387.547 2.35137 -2.46827 0
M  V30 3776 H 388.74 0.605062 -2.93733 0
M  V30 3777 H 386.293 0.278514 -1.53799 0
M  V30 3778 H 387.028 2.81168 -1.61602 0
M  V30 3779 H 386.813 2.16566 -3.26866 0
M  V30 3780 H 388.303 3.05938 -2.84239 0
M  V30 3781 N 388.74 1.54641 0.303973 0
M  V30 3782 C 389.965 1.78092 1.06292 0
M  V30 3783 C 390.39 0.537342 1.80262 0
M  V30 3784 O 389.748 -0.511993 1.7392 0
M  V30 3785 C 389.796 2.98612 2.02147 0
M  V30 3786 O 388.9 2.71528 3.10397 0
M  V30 3787 H 388.241 0.589548 0.305497 0
M  V30 3788 H 390.771 2.01716 0.3423 0
M  V30 3789 H 390.781 3.265 2.44667 0
M  V30 3790 H 389.456 3.88785 1.47714 0
M  V30 3791 H 388.033 2.54648 2.72413 0
M  V30 3792 N 390.218 -0.567019 1.47046 0
M  V30 3793 C 391.464 -1.32658 1.53394 0
M  V30 3794 C 391.797 -1.93254 0.19148 0
M  V30 3795 O 391.072 -1.77338 -0.798844 0
M  V30 3796 C 391.355 -2.44412 2.64452 0
M  V30 3797 C 391.208 -1.88749 4.08282 0
M  V30 3798 C 392.527 -3.46387 2.71485 0
M  V30 3799 H 389.646 -0.48098 0.558415 0
M  V30 3800 H 392.288 -0.635481 1.79058 0
M  V30 3801 H 390.438 -3.03363 2.427 0
M  V30 3802 H 392.11 -1.34134 4.41368 0
M  V30 3803 H 390.353 -1.19481 4.17021 0
M  V30 3804 H 391.024 -2.69491 4.81745 0
M  V30 3805 H 393.5 -2.9734 2.91081 0
M  V30 3806 H 392.376 -4.2202 3.50985 0
M  V30 3807 H 392.637 -4.04616 1.78153 0
M  V30 3808 N 391.696 -1.35014 -0.812953 0
M  V30 3809 C 392.644 -1.27435 -1.94585 0
M  V30 3810 C 393.638 -0.170494 -1.6854 0
M  V30 3811 O 394.844 -0.336085 -1.76835 0
M  V30 3812 H 391.219 -0.396144 -0.639198 0
M  V30 3813 H 393.19 -2.23158 -1.98098 0
M  V30 3814 C 391.939 -1.05677 -3.31252 0
M  V30 3815 H 391.262 -1.89853 -3.51846 0
M  V30 3816 H 392.702 -1.04413 -4.10943 0
M  V30 3817 C 391.161 0.239615 -3.36047 0
M  V30 3818 O 391.691 1.23759 -3.8216 0
M  V30 3819 N 389.897 0.276186 -2.89285 0
M  V30 3820 H 389.444 -0.53653 -2.51951 0
M  V30 3821 H 389.402 1.14332 -2.92875 0
M  V30 3822 N 393.175 1.03435 -1.18907 0
M  V30 3823 C 394.591 1.28973 -0.940111 0
M  V30 3824 C 394.791 1.97676 0.390691 0
M  V30 3825 O 393.847 2.26127 1.12352 0
M  V30 3826 C 395.16 2.14221 -2.11021 0
M  V30 3827 C 396.708 2.27547 -2.14922 0
M  V30 3828 C 397.183 3.16164 -3.31367 0
M  V30 3829 N 398.674 3.23752 -3.31269 0
M  V30 3830 C 399.409 3.92495 -4.18014 0
M  V30 3831 N 398.905 4.63515 -5.14904 0
M  V30 3832 N 400.698 3.88838 -4.05908 0
M  V30 3833 H 392.849 0.57252 -2.04538 0
M  V30 3834 H 395.112 0.315184 -0.894071 0
M  V30 3835 H 394.818 1.71054 -3.073 0
M  V30 3836 H 394.692 3.14919 -2.0762 0
M  V30 3837 H 397.079 2.69947 -1.19217 0
M  V30 3838 H 397.16 1.26418 -2.22378 0
M  V30 3839 H 396.804 2.74474 -4.27348 0
M  V30 3840 H 396.734 4.17339 -3.21148 0
M  V30 3841 H 399.225 2.73167 -2.61129 0
M  V30 3842 H 399.538 5.13583 -5.77453 0
M  V30 3843 H 397.883 4.62398 -5.18857 0
M  V30 3844 H 401.074 3.32491 -3.29495 0
M  V30 3845 H 401.247 4.4214 -4.73726 0
M  V30 3846 N 394.653 0.992116 1.22453 0
M  V30 3847 C 395.878 0.685644 1.95739 0
M  V30 3848 C 396.303 -0.743 1.72804 0
M  V30 3849 O 395.661 -1.50778 1.00676 0
M  V30 3850 C 395.709 0.996293 3.46564 0
M  V30 3851 O 394.813 0.0945512 4.12292 0
M  V30 3852 H 394.154 0.256694 0.612376 0
M  V30 3853 H 396.684 1.32888 1.5557 0
M  V30 3854 H 396.694 0.93781 3.97076 0
M  V30 3855 H 395.369 2.03733 3.62582 0
M  V30 3856 H 393.946 0.208451 3.72317 0
M  V30 3857 N 396.131 -1.37776 0.765217 0
M  V30 3858 C 397.081 -2.2768 0.12075 0
M  V30 3859 C 398.065 -1.45778 -0.680988 0
M  V30 3860 O 399.257 -1.684 -0.545033 0
M  V30 3861 C 396.386 -3.34722 -0.762626 0
M  V30 3862 C 395.472 -4.24074 0.0465881 0
M  V30 3863 N 395.863 -4.93939 1.08892 0
M  V30 3864 C 394.161 -4.45643 -0.178418 0
M  V30 3865 C 394.862 -5.59845 1.57951 0
M  V30 3866 N 393.838 -5.36218 0.892797 0
M  V30 3867 H 397.64 -2.79166 0.918889 0
M  V30 3868 H 395.154 -1.50816 0.602353 0
M  V30 3869 H 397.151 -3.98031 -1.24005 0
M  V30 3870 H 395.811 -2.84793 -1.55959 0
M  V30 3871 H 396.822 -4.96572 1.47095 0
M  V30 3872 H 393.499 -4.06599 -0.9478 0
M  V30 3873 H 394.889 -6.25703 2.44838 0
M  V30 3874 N 397.609 -0.515225 -1.4894 0
M  V30 3875 C 399.025 -0.172099 -1.58669 0
M  V30 3876 C 399.225 1.32405 -1.51892 0
M  V30 3877 O 398.281 2.10116 -1.40027 0
M  V30 3878 C 399.594 -0.761533 -2.90897 0
M  V30 3879 C 401.142 -0.728926 -3.04394 0
M  V30 3880 C 401.617 -1.29667 -4.39261 0
M  V30 3881 N 403.108 -1.25799 -4.4579 0
M  V30 3882 C 403.843 -1.66733 -5.48623 0
M  V30 3883 N 403.339 -2.15327 -6.58488 0
M  V30 3884 N 405.132 -1.58061 -5.39419 0
M  V30 3885 H 397.283 -1.48778 -1.51588 0
M  V30 3886 H 399.546 -0.617968 -0.718901 0
M  V30 3887 H 399.252 -1.81136 -3.01468 0
M  V30 3888 H 399.126 -0.230106 -3.76497 0
M  V30 3889 H 401.513 0.312098 -2.93445 0
M  V30 3890 H 401.594 -1.29766 -2.20442 0
M  V30 3891 H 401.238 -2.33655 -4.50963 0
M  V30 3892 H 401.168 -0.703752 -5.21876 0
M  V30 3893 H 403.659 -0.902102 -3.66975 0
M  V30 3894 H 403.972 -2.44594 -7.33071 0
M  V30 3895 H 402.317 -2.19311 -6.59491 0
M  V30 3896 H 405.508 -1.19906 -4.52482 0
M  V30 3897 H 405.681 -1.90284 -6.19432 0
M  V30 3898 N 399.087 1.5561 -0.249682 0
M  V30 3899 C 400.498 1.84979 0.252949 0
M  V30 3900 C 400.849 1.17153 1.57384 0
M  V30 3901 O 399.974 0.450884 2.11651 0
M  V30 3902 C 400.569 3.35584 0.465732 0
M  V30 3903 C 399.128 3.65169 0.912624 0
M  V30 3904 C 398.275 2.77299 -0.00859085 0
M  V30 3905 H 401.226 1.51513 -0.47217 0
M  V30 3906 H 401.247 3.57313 1.30795 0
M  V30 3907 H 400.759 3.8492 -0.49579 0
M  V30 3908 H 398.86 3.21312 1.88652 0
M  V30 3909 H 398.973 4.72912 0.767559 0
M  V30 3910 H 397.337 2.49678 0.50327 0
M  V30 3911 H 398.12 3.29442 -0.965537 0
M  V30 3912 N 400.565 -0.0233959 1.57583 0
M  V30 3913 C 401.793 -0.724682 1.93794 0
M  V30 3914 C 402.208 -1.68588 0.849912 0
M  V30 3915 O 401.565 -1.81676 -0.173204 0
M  V30 3916 C 401.616 -1.47684 3.29957 0
M  V30 3917 O 401.337 -0.554222 4.3458 0
M  V30 3918 C 402.838 -2.27477 3.80485 0
M  V30 3919 H 400.058 -0.203317 0.639455 0
M  V30 3920 H 402.602 0.0207653 2.04489 0
M  V30 3921 H 400.757 -2.17412 3.20641 0
M  V30 3922 H 401.171 -1.08232 5.13212 0
M  V30 3923 H 402.645 -2.7564 4.78254 0
M  V30 3924 H 403.122 -3.09144 3.11972 0
M  V30 3925 H 403.728 -1.62813 3.92902 0
M  V30 3926 N 402.043 -1.548 -0.295768 0
M  V30 3927 C 403.291 -1.73985 -1.02828 0
M  V30 3928 C 403.612 -0.531406 -1.87619 0
M  V30 3929 O 402.882 0.454221 -1.90561 0
M  V30 3930 H 401.462 -0.641556 -0.382642 0
M  V30 3931 H 404.124 -1.92163 -0.325489 0
M  V30 3932 H 403.22 -2.63129 -1.67838 0
M  V30 3933 N 403.521 0.559213 -1.47345 0
M  V30 3934 C 404.769 1.31388 -1.53563 0
M  V30 3935 C 405.09 1.93985 -0.198678 0
M  V30 3936 O 404.36 1.79825 0.777167 0
M  V30 3937 H 402.94 0.487901 -0.565652 0
M  V30 3938 H 405.602 0.65315 -1.8363 0
M  V30 3939 H 404.698 2.10844 -2.30111 0
M  V30 3940 N 404.999 1.35443 0.805782 0
M  V30 3941 C 405.962 1.28301 1.89925 0
M  V30 3942 C 406.962 0.194285 1.59622 0
M  V30 3943 O 408.152 0.448036 1.6834 0
M  V30 3944 C 405.284 0.984997 3.2636 0
M  V30 3945 H 406.477 2.2553 1.97677 0
M  V30 3946 H 404.03 1.19979 1.00173 0
M  V30 3947 H 404.765 0.016603 3.24296 0
M  V30 3948 H 404.55 1.77269 3.4974 0
M  V30 3949 H 406.04 0.960651 4.064 0
M  V30 3950 N 406.477 -1.02803 1.19454 0
M  V30 3951 C 407.725 -1.75869 0.995722 0
M  V30 3952 C 408.046 -1.89138 -0.474543 0
M  V30 3953 O 407.316 -1.42558 -1.34366 0
M  V30 3954 H 405.896 -0.651511 0.365435 0
M  V30 3955 H 408.558 -1.24004 1.50363 0
M  V30 3956 H 407.654 -2.76661 1.44447 0
M  V30 3957 N 407.956 -0.998596 -1.21925 0
M  V30 3958 C 409.202 -0.678667 -1.91107 0
M  V30 3959 C 409.535 0.78791 -1.77498 0
M  V30 3960 O 408.81 1.57043 -1.1475 0
M  V30 3961 C 409.093 -1.09245 -3.43129 0
M  V30 3962 C 408.946 -2.61801 -3.6576 0
M  V30 3963 C 410.265 -0.649984 -4.35274 0
M  V30 3964 H 407.384 -0.248025 -0.694012 0
M  V30 3965 H 410.026 -1.24314 -1.43688 0
M  V30 3966 H 408.176 -0.612171 -3.83647 0
M  V30 3967 H 409.848 -3.17543 -3.34611 0
M  V30 3968 H 408.091 -3.03609 -3.09845 0
M  V30 3969 H 408.762 -2.85804 -4.7225 0
M  V30 3970 H 411.238 -1.0626 -4.02303 0
M  V30 3971 H 410.114 -0.967743 -5.40302 0
M  V30 3972 H 410.375 0.449139 -4.39813 0
M  V30 3973 N 409.434 1.37368 -0.772513 0
M  V30 3974 C 410.682 1.99279 -0.336516 0
M  V30 3975 C 411.003 1.6163 1.09091 0
M  V30 3976 O 410.273 0.882109 1.74916 0
M  V30 3977 H 408.853 0.737063 -0.121435 0
M  V30 3978 H 411.515 1.67836 -0.990809 0
M  V30 3979 H 410.611 3.09332 -0.414763 0
M  V30 3980 N 410.912 0.523116 1.48665 0
M  V30 3981 C 411.875 -0.232592 2.28017 0
M  V30 3982 C 412.875 -0.874021 1.34972 0
M  V30 3983 O 414.065 -0.735132 1.57929 0
M  V30 3984 C 411.197 -1.33586 3.13636 0
M  V30 3985 H 412.39 0.464008 2.96289 0
M  V30 3986 H 409.943 0.278816 1.53793 0
M  V30 3987 H 410.678 -2.06593 2.4998 0
M  V30 3988 H 410.463 -0.881125 3.82071 0
M  V30 3989 H 411.953 -1.86759 3.73511 0
M  V30 3990 N 412.39 -1.55475 0.257931 0
M  V30 3991 C 413.34 -2.18506 -0.651094 0
M  V30 3992 C 414.324 -1.14431 -1.13112 0
M  V30 3993 O 415.516 -1.40305 -1.07905 0
M  V30 3994 C 412.645 -2.89653 -1.84272 0
M  V30 3995 C 411.731 -4.00996 -1.38068 0
M  V30 3996 N 412.122 -5.01816 -0.633609 0
M  V30 3997 C 410.42 -4.13753 -1.66506 0
M  V30 3998 C 411.121 -5.80371 -0.392922 0
M  V30 3999 N 410.097 -5.3505 -0.960359 0
M  V30 4000 H 413.899 -2.93811 -0.0722883 0
M  V30 4001 H 411.413 -1.62286 0.0607256 0
M  V30 4002 H 413.41 -3.33245 -2.50506 0
M  V30 4003 H 412.07 -2.15854 -2.42564 0
M  V30 4004 H 413.081 -5.17128 -0.282626 0
M  V30 4005 H 409.758 -3.51133 -2.25858 0
M  V30 4006 H 411.148 -6.7159 0.204235 0
M  V30 4007 N 413.868 0.0150385 -1.57593 0
M  V30 4008 C 415.114 0.704043 -1.90187 0
M  V30 4009 C 415.447 1.74249 -0.857366 0
M  V30 4010 O 414.722 1.94092 0.125843 0
M  V30 4011 C 415.005 1.36087 -3.33395 0
M  V30 4012 C 414.858 0.334981 -4.48551 0
M  V30 4013 C 416.177 2.29112 -3.7576 0
M  V30 4014 H 413.296 0.254475 -0.691673 0
M  V30 4015 H 415.938 -0.0331678 -1.89971 0
M  V30 4016 H 414.088 1.98922 -3.3371 0
M  V30 4017 H 415.76 -0.292534 -4.60372 0
M  V30 4018 H 414.003 -0.344325 -4.32431 0
M  V30 4019 H 414.674 0.833316 -5.45674 0
M  V30 4020 H 417.15 1.76308 -3.76902 0
M  V30 4021 H 416.026 2.72043 -4.76743 0
M  V30 4022 H 416.287 3.16385 -3.08793 0
M  V30 4023 N 415.346 1.54954 0.287554 0
M  V30 4024 C 416.309 1.86076 1.33823 0
M  V30 4025 C 417.309 0.734414 1.43049 0
M  V30 4026 O 418.499 1.00266 1.42452 0
M  V30 4027 C 415.631 2.05305 2.72144 0
M  V30 4028 H 416.824 2.79984 1.07465 0
M  V30 4029 H 414.377 1.47223 0.524902 0
M  V30 4030 H 415.112 1.1373 3.03704 0
M  V30 4031 H 414.897 2.873 2.66836 0
M  V30 4032 H 416.387 2.30706 3.48087 0
M  V30 4033 N 416.824 -0.551391 1.4764 0
M  V30 4034 C 417.756 -1.67333 1.56628 0
M  V30 4035 C 418.769 -1.56398 0.452045 0
M  V30 4036 O 419.958 -1.6325 0.721926 0
M  V30 4037 C 417.058 -3.05841 1.45994 0
M  V30 4038 C 416.231 -3.42472 2.72088 0
M  V30 4039 C 415.29 -4.60168 2.55209 0
M  V30 4040 O 414.316 -4.64458 3.2904 0
M  V30 4041 N 415.518 -5.57024 1.63416 0
M  V30 4042 H 418.283 -1.60066 2.53375 0
M  V30 4043 H 415.844 -0.738169 1.44093 0
M  V30 4044 H 417.836 -3.8242 1.32428 0
M  V30 4045 H 416.406 -3.07302 0.573071 0
M  V30 4046 H 415.626 -2.55284 3.00373 0
M  V30 4047 H 416.914 -3.63723 3.55785 0
M  V30 4048 H 416.312 -5.56319 1.02594 0
M  V30 4049 H 414.869 -6.32906 1.558 0
M  V30 4050 N 418.302 -1.35869 -0.798587 0
M  V30 4051 C 419.548 -1.2978 -1.55836 0
M  V30 4052 C 419.881 0.125322 -1.93795 0
M  V30 4053 O 419.156 1.07658 -1.61987 0
M  V30 4054 C 419.439 -2.21188 -2.84162 0
M  V30 4055 C 419.292 -3.72155 -2.52628 0
M  V30 4056 C 420.611 -2.11545 -3.85923 0
M  V30 4057 H 417.73 -0.472769 -0.565383 0
M  V30 4058 H 420.372 -1.66341 -0.918192 0
M  V30 4059 H 418.522 -1.90139 -3.38791 0
M  V30 4060 H 420.194 -4.13682 -2.04121 0
M  V30 4061 H 418.437 -3.92042 -1.85704 0
M  V30 4062 H 419.108 -4.31511 -3.44242 0
M  V30 4063 H 421.584 -2.38855 -3.40716 0
M  V30 4064 H 420.46 -2.77688 -4.73477 0
M  V30 4065 H 420.721 -1.09987 -4.282 0
M  V30 4066 N 419.78 1.02168 -1.19998 0
M  V30 4067 C 420.71 2.12488 -0.96804 0
M  V30 4068 C 421.691 1.69799 0.101185 0
M  V30 4069 O 422.876 1.94121 -0.0552993 0
M  V30 4070 C 420.006 3.43479 -0.513776 0
M  V30 4071 C 418.96 3.99884 -1.52566 0
M  V30 4072 C 418.286 5.26582 -0.928214 0
M  V30 4073 C 419.586 4.33861 -2.90795 0
M  V30 4074 H 421.28 2.32149 -1.89069 0
M  V30 4075 H 418.826 1.11564 -0.910468 0
M  V30 4076 H 420.779 4.20036 -0.338774 0
M  V30 4077 H 419.503 3.23561 0.444493 0
M  V30 4078 H 418.162 3.25429 -1.68794 0
M  V30 4079 H 417.81 5.02986 0.0378289 0
M  V30 4080 H 417.51 5.65284 -1.60397 0
M  V30 4081 H 419.034 6.05799 -0.764167 0
M  V30 4082 H 420.448 5.01327 -2.78109 0
M  V30 4083 H 418.845 4.83664 -3.55231 0
M  V30 4084 H 419.915 3.42848 -3.42904 0
M  V30 4085 N 421.258 1.00505 1.21394 0
M  V30 4086 C 422.504 0.698477 1.91031 0
M  V30 4087 C 422.859 -0.762448 1.76648 0
M  V30 4088 O 422.152 -1.54554 1.13241 0
M  V30 4089 C 422.346 1.0546 3.41486 0
M  V30 4090 C 422.175 2.5486 3.70508 0
M  V30 4091 C 420.945 3.21461 3.8986 0
M  V30 4092 C 423.143 3.53019 3.74008 0
M  V30 4093 N 421.125 4.60211 4.06299 0
M  V30 4094 C 422.496 4.77279 3.95733 0
M  V30 4095 C 424.551 3.47154 3.56915 0
M  V30 4096 C 423.254 5.96388 4.02137 0
M  V30 4097 C 425.28 4.65652 3.64585 0
M  V30 4098 C 424.642 5.88717 3.86771 0
M  V30 4099 H 420.741 0.30707 0.719189 0
M  V30 4100 H 423.325 1.28753 1.46051 0
M  V30 4101 H 421.496 0.494007 3.85246 0
M  V30 4102 H 423.228 0.702765 3.98552 0
M  V30 4103 H 419.983 2.71906 3.87768 0
M  V30 4104 H 420.407 5.32216 4.1842 0
M  V30 4105 H 425.049 2.53015 3.38738 0
M  V30 4106 H 422.767 6.90919 4.19114 0
M  V30 4107 H 426.353 4.62717 3.52681 0
M  V30 4108 H 425.233 6.78877 3.92549 0
M  V30 4109 N 422.737 -1.36956 0.779787 0
M  V30 4110 C 424.014 -1.93697 0.272156 0
M  V30 4111 C 424.394 -1.71267 -1.23413 0
M  V30 4112 O 423.742 -1.06607 -2.02107 0
M  V30 4113 C 423.952 -3.42812 0.654291 0
M  V30 4114 C 425.3 -4.19921 0.628602 0
M  V30 4115 O 426.324 -3.51209 0.594172 0
M  V30 4116 O 425.183 -5.42465 0.662864 0
M  V30 4117 H 422.277 -0.824447 0.0649286 0
M  V30 4118 H 424.823 -1.46196 0.861682 0
M  V30 4119 H 423.595 -3.52754 1.69353 0
M  V30 4120 H 423.218 -3.97582 0.0381369 0
M  V30 4121 N 424.215 -0.530993 -1.48385 0
M  V30 4122 C 425.163 0.244595 -2.3131 0
M  V30 4123 C 426.157 0.93451 -1.41291 0
M  V30 4124 O 427.363 0.85878 -1.58193 0
M  V30 4125 H 423.738 0.0977472 -0.74562 0
M  V30 4126 H 425.709 -0.474369 -2.94605 0
M  V30 4127 C 424.458 1.2779 -3.23365 0
M  V30 4128 H 423.781 0.756439 -3.92579 0
M  V30 4129 H 425.221 1.79198 -3.84271 0
M  V30 4130 C 423.68 2.31205 -2.45042 0
M  V30 4131 O 424.21 3.37661 -2.17596 0
M  V30 4132 N 422.416 2.04446 -2.0652 0
M  V30 4133 H 421.963 1.17891 -2.2904 0
M  V30 4134 H 421.921 2.73861 -1.54427 0
M  V30 4135 N 425.693 1.55336 -0.266172 0
M  V30 4136 C 426.656 2.20878 0.612001 0
M  V30 4137 C 427.656 1.18388 1.08816 0
M  V30 4138 O 428.846 1.4335 0.989774 0
M  V30 4139 C 425.978 2.86765 1.84332 0
M  V30 4140 H 427.171 2.99873 0.0398718 0
M  V30 4141 H 424.724 1.56291 -0.0167309 0
M  V30 4142 H 425.459 2.11759 2.45619 0
M  V30 4143 H 425.244 3.61862 1.5099 0
M  V30 4144 H 426.734 3.36867 2.46801 0
M  V30 4145 N 427.171 -0.0066808 1.57599 0
M  V30 4146 C 428.417 -0.693947 1.90558 0
M  V30 4147 C 428.75 -1.73792 0.866594 0
M  V30 4148 O 428.025 -1.94156 -0.115548 0
M  V30 4149 C 428.308 -1.34317 3.34112 0
M  V30 4150 C 428.161 -0.311189 4.48722 0
M  V30 4151 C 429.48 -2.27116 3.7697 0
M  V30 4152 H 426.599 -0.250803 0.693013 0
M  V30 4153 H 429.241 0.043242 1.89951 0
M  V30 4154 H 427.391 -1.9715 3.3476 0
M  V30 4155 H 429.063 0.316944 4.6021 0
M  V30 4156 H 427.306 0.367253 4.32243 0
M  V30 4157 H 427.977 -0.804366 5.46108 0
M  V30 4158 H 430.453 -1.74306 3.77831 0
M  V30 4159 H 429.329 -2.69511 4.78179 0
M  V30 4160 H 429.59 -3.14743 3.10466 0
M  V30 4161 N 428.649 -1.55105 -0.279332 0
M  V30 4162 C 429.596 -1.8755 -1.34513 0
M  V30 4163 C 430.566 -0.726384 -1.49375 0
M  V30 4164 O 431.751 -0.977063 -1.63884 0
M  V30 4165 C 428.891 -2.14738 -2.70151 0
M  V30 4166 C 428.004 -3.42285 -2.63562 0
M  V30 4167 C 427.139 -3.59206 -3.91337 0
M  V30 4168 C 426.178 -4.80467 -3.79233 0
M  V30 4169 N 425.315 -4.94079 -4.98829 0
M  V30 4170 H 430.155 -2.78456 -1.06143 0
M  V30 4171 H 427.692 -1.37867 -0.512936 0
M  V30 4172 H 429.65 -2.28501 -3.49061 0
M  V30 4173 H 428.28 -1.27075 -2.96735 0
M  V30 4174 H 427.332 -3.37029 -1.76397 0
M  V30 4175 H 428.644 -4.31328 -2.50515 0
M  V30 4176 H 427.798 -3.72751 -4.78687 0
M  V30 4177 H 426.537 -2.68337 -4.07243 0
M  V30 4178 H 425.542 -4.66932 -2.90266 0
M  V30 4179 H 426.767 -5.72765 -3.64852 0
M  V30 4180 H 424.713 -4.06139 -5.15158 0
M  V30 4181 H 424.63 -5.77156 -4.8829 0
M  V30 4182 H 425.898 -5.12003 -5.8777 0
M  V30 4183 N 430.127 0.543554 -1.4793 0
M  V30 4184 C 431.543 0.870806 -1.3375 0
M  V30 4185 C 431.743 1.9864 -0.338261 0
M  V30 4186 O 430.799 2.51305 0.245371 0
M  V30 4187 C 432.112 1.25114 -2.73435 0
M  V30 4188 C 433.66 1.3618 -2.81823 0
M  V30 4189 C 434.135 1.77563 -4.22179 0
M  V30 4190 N 435.626 1.8469 -4.24787 0
M  V30 4191 C 436.361 2.18067 -5.30315 0
M  V30 4192 N 435.857 2.49963 -6.46135 0
M  V30 4193 N 437.65 2.18958 -5.17701 0
M  V30 4194 H 429.801 -0.19275 -2.11524 0
M  V30 4195 H 432.064 -0.0235777 -0.947707 0
M  V30 4196 H 431.77 0.50514 -3.48053 0
M  V30 4197 H 431.644 2.20431 -3.06088 0
M  V30 4198 H 434.031 2.09859 -2.07468 0
M  V30 4199 H 434.112 0.390169 -2.52807 0
M  V30 4200 H 433.756 1.04449 -4.97044 0
M  V30 4201 H 433.686 2.75753 -4.48629 0
M  V30 4202 H 436.177 1.62372 -3.41239 0
M  V30 4203 H 436.49 2.74497 -7.22406 0
M  V30 4204 H 434.835 2.47513 -6.49432 0
M  V30 4205 H 438.026 1.93488 -4.2624 0
M  V30 4206 H 438.199 2.44639 -6.00047 0
M  V30 4207 N 431.605 1.3629 0.791371 0
M  V30 4208 C 432.853 1.30154 1.5461 0
M  V30 4209 C 433.174 -0.119409 1.94634 0
M  V30 4210 O 432.444 -1.05924 1.64794 0
M  V30 4211 H 431.024 0.478784 0.573389 0
M  V30 4212 H 433.686 1.70565 0.94306 0
M  V30 4213 H 432.782 1.92762 2.45457 0
M  V30 4214 N 433.083 -1.0153 1.20538 0
M  V30 4215 C 434.311 -1.78746 1.04199 0
M  V30 4216 C 434.726 -1.84323 -0.408733 0
M  V30 4217 O 434.083 -1.29714 -1.28377 0
M  V30 4218 C 434.134 -3.23152 1.62035 0
M  V30 4219 O 433.855 -3.17918 3.0143 0
M  V30 4220 C 435.356 -4.16911 1.50666 0
M  V30 4221 H 432.576 -0.56208 0.366479 0
M  V30 4222 H 435.12 -1.27794 1.59653 0
M  V30 4223 H 433.275 -3.71248 1.10697 0
M  V30 4224 H 433.689 -4.08567 3.28897 0
M  V30 4225 H 435.163 -5.16072 1.95892 0
M  V30 4226 H 435.64 -4.36791 0.459363 0
M  V30 4227 H 436.246 -3.74698 2.01201 0
M  V30 4228 N 434.561 -1.01147 -1.20859 0
M  V30 4229 C 435.838 -0.613136 -1.85742 0
M  V30 4230 C 436.218 0.909004 -1.90526 0
M  V30 4231 O 435.566 1.79862 -1.40932 0
M  V30 4232 C 435.776 -1.255 -3.25654 0
M  V30 4233 C 437.124 -1.3672 -4.01986 0
M  V30 4234 O 438.148 -1.21082 -3.34989 0
M  V30 4235 O 437.007 -1.6194 -5.21956 0
M  V30 4236 H 434.101 -0.210878 -0.799662 0
M  V30 4237 H 436.647 -1.10853 -1.2849 0
M  V30 4238 H 435.419 -2.29532 -3.16908 0
M  V30 4239 H 435.042 -0.746369 -3.90532 0
M  V30 4240 N 436.039 1.36541 -0.78704 0
M  V30 4241 C 437.288 1.98552 -0.35494 0
M  V30 4242 C 437.601 1.63171 1.07864 0
M  V30 4243 O 438.807 2.18399 1.61289 0
M  V30 4244 C 437.263 3.55136 -0.583671 0
M  V30 4245 C 436.871 3.99444 -2.02851 0
M  V30 4246 C 438.615 4.2395 -0.215957 0
M  V30 4247 C 436.522 5.48796 -2.20403 0
M  V30 4248 H 435.452 0.742888 -0.128972 0
M  V30 4249 H 438.103 1.5587 -0.968337 0
M  V30 4250 H 436.485 3.95875 0.0994046 0
M  V30 4251 H 437.659 3.6991 -2.74779 0
M  V30 4252 H 435.974 3.43459 -2.35425 0
M  V30 4253 H 438.571 5.33709 -0.325405 0
M  V30 4254 H 438.914 4.07827 0.835646 0
M  V30 4255 H 439.447 3.88565 -0.852175 0
M  V30 4256 H 436.186 5.69864 -3.23937 0
M  V30 4257 H 435.706 5.79964 -1.52977 0
M  V30 4258 H 437.385 6.14986 -2.01002 0
M  V30 4259 N 437.518 0.538854 1.48102 0
M  V30 4260 C 438.934 0.19732 1.58376 0
M  V30 4261 C 439.134 -1.29971 1.5398 0
M  V30 4262 O 438.19 -2.07861 1.43352 0
M  V30 4263 C 439.503 0.807716 2.89649 0
M  V30 4264 C 441.051 0.77726 3.03196 0
M  V30 4265 C 441.526 1.36639 4.37143 0
M  V30 4266 N 443.017 1.32875 4.43732 0
M  V30 4267 C 443.752 1.7544 5.45901 0
M  V30 4268 N 443.248 2.25776 6.54979 0
M  V30 4269 N 445.041 1.66623 5.36836 0
M  V30 4270 H 437.192 1.5117 1.49202 0
M  V30 4271 H 439.455 0.629327 0.708979 0
M  V30 4272 H 439.161 1.85909 2.98548 0
M  V30 4273 H 439.035 0.289975 3.76084 0
M  V30 4274 H 441.422 -0.265374 2.93904 0
M  V30 4275 H 441.503 1.33256 2.18349 0
M  V30 4276 H 441.147 2.408 4.47189 0
M  V30 4277 H 441.077 0.786689 5.20691 0
M  V30 4278 H 443.568 0.96037 3.65493 0
M  V30 4279 H 443.881 2.56226 7.29087 0
M  V30 4280 H 442.226 2.29775 6.55918 0
M  V30 4281 H 445.417 1.27089 4.50517 0
M  V30 4282 H 445.59 2.00115 6.16326 0
M  V30 4283 N 438.996 -1.55193 0.274407 0
M  V30 4284 C 439.926 -2.25471 -0.607032 0
M  V30 4285 C 440.907 -1.24461 -1.15946 0
M  V30 4286 O 442.092 -1.53179 -1.19373 0
M  V30 4287 C 439.222 -2.97526 -1.79153 0
M  V30 4288 C 438.176 -4.05459 -1.37067 0
M  V30 4289 C 437.502 -4.65084 -2.6382 0
M  V30 4290 C 438.802 -5.19691 -0.521389 0
M  V30 4291 H 440.496 -2.99393 -0.0209343 0
M  V30 4292 H 438.042 -1.43997 -0.00862866 0
M  V30 4293 H 439.995 -3.45402 -2.41404 0
M  V30 4294 H 438.719 -2.21138 -2.40344 0
M  V30 4295 H 437.378 -3.58393 -0.771355 0
M  V30 4296 H 437.026 -3.85365 -3.23268 0
M  V30 4297 H 436.726 -5.37961 -2.36372 0
M  V30 4298 H 438.25 -5.15708 -3.26921 0
M  V30 4299 H 439.664 -5.63623 -1.04889 0
M  V30 4300 H 438.061 -5.99126 -0.341825 0
M  V30 4301 H 439.131 -4.82713 0.46 0
M  V30 4302 N 440.474 -0.00167713 -1.576 0
M  V30 4303 C 441.422 1.0074 -2.09652 0
M  V30 4304 C 442.416 1.35483 -1.01689 0
M  V30 4305 O 443.622 1.34028 -1.20152 0
M  V30 4306 H 439.997 0.342537 -0.669457 0
M  V30 4307 H 441.968 0.542841 -2.93421 0
M  V30 4308 C 440.717 2.2899 -2.61647 0
M  V30 4309 H 440.04 2.03124 -3.44355 0
M  V30 4310 H 441.48 2.9787 -3.01744 0
M  V30 4311 C 439.939 3.00085 -1.53136 0
M  V30 4312 O 440.469 3.91135 -0.91524 0
M  V30 4313 N 438.675 2.6194 -1.25841 0
M  V30 4314 H 438.222 1.8798 -1.76129 0
M  V30 4315 H 438.18 3.09822 -0.534576 0
M  V30 4316 N 441.952 1.55251 0.271103 0
M  V30 4317 C 443.177 1.80306 1.02491 0
M  V30 4318 C 443.602 0.575457 1.79081 0
M  V30 4319 O 442.96 -0.474987 1.74967 0
M  V30 4320 C 443.008 3.02832 1.95768 0
M  V30 4321 O 442.112 2.78051 3.04568 0
M  V30 4322 H 441.453 0.595896 0.292923 0
M  V30 4323 H 443.983 2.02397 0.299436 0
M  V30 4324 H 443.993 3.31616 2.37686 0
M  V30 4325 H 442.668 3.9183 1.39434 0
M  V30 4326 H 441.245 2.60369 2.66951 0
M  V30 4327 N 443.43 -0.535701 1.48216 0
M  V30 4328 C 444.846 -0.863701 1.3421 0
M  V30 4329 C 445.046 -1.98458 0.34879 0
M  V30 4330 O 444.102 -2.51432 -0.23204 0
M  V30 4331 C 445.415 -1.23662 2.74095 0
M  V30 4332 C 446.963 -1.34683 2.82541 0
M  V30 4333 C 447.438 -1.75322 4.23115 0
M  V30 4334 N 448.929 -1.82434 4.2576 0
M  V30 4335 C 449.664 -2.15252 5.31464 0
M  V30 4336 N 449.16 -2.46533 6.47452 0
M  V30 4337 N 450.953 -2.16209 5.18855 0
M  V30 4338 H 443.104 0.203965 2.11418 0
M  V30 4339 H 445.367 0.0286033 0.947568 0
M  V30 4340 H 445.073 -0.486674 3.48316 0
M  V30 4341 H 444.947 -2.18805 3.07253 0
M  V30 4342 H 447.334 -2.08756 2.08579 0
M  V30 4343 H 447.415 -0.376756 2.5301 0
M  V30 4344 H 447.059 -1.01812 4.97591 0
M  V30 4345 H 446.989 -2.7337 4.50085 0
M  V30 4346 H 449.48 -1.6056 3.42095 0
M  V30 4347 H 449.793 -2.70662 7.23852 0
M  V30 4348 H 448.138 -2.44065 6.50736 0
M  V30 4349 H 451.329 -1.91224 4.2726 0
M  V30 4350 H 451.502 -2.41453 6.01335 0
M  V30 4351 N 444.908 -1.36708 -0.784132 0
M  V30 4352 C 446.154 -1.31426 -1.54451 0
M  V30 4353 C 446.487 0.10476 -1.93917 0
M  V30 4354 O 445.762 1.05934 -1.6312 0
M  V30 4355 C 446.045 -2.24189 -2.818 0
M  V30 4356 C 445.898 -3.74813 -2.48667 0
M  V30 4357 C 447.217 -2.15626 -3.83658 0
M  V30 4358 H 444.336 -0.478739 -0.560337 0
M  V30 4359 H 446.978 -1.67305 -0.900498 0
M  V30 4360 H 445.128 -1.93722 -3.36755 0
M  V30 4361 H 446.8 -4.15823 -1.99722 0
M  V30 4362 H 445.043 -3.93989 -1.81535 0
M  V30 4363 H 445.714 -4.35138 -3.39646 0
M  V30 4364 H 448.19 -2.42456 -3.38163 0
M  V30 4365 H 447.066 -2.82694 -4.70506 0
M  V30 4366 H 447.327 -1.14522 -4.27009 0
M  V30 4367 N 446.386 1.0089 -1.21074 0
M  V30 4368 C 447.632 1.74866 -1.02712 0
M  V30 4369 C 447.965 1.89178 0.438787 0
M  V30 4370 O 447.24 1.42325 1.32567 0
M  V30 4371 C 447.523 3.16347 -1.72036 0
M  V30 4372 C 447.376 3.09782 -3.26121 0
M  V30 4373 C 448.695 4.15187 -1.45973 0
M  V30 4374 H 445.814 0.634736 -0.374539 0
M  V30 4375 H 448.456 1.17646 -1.49196 0
M  V30 4376 H 446.606 3.65201 -1.32517 0
M  V30 4377 H 448.278 2.68673 -3.74983 0
M  V30 4378 H 446.521 2.46982 -3.56626 0
M  V30 4379 H 447.192 4.09829 -3.6979 0
M  V30 4380 H 449.668 3.75022 -1.80272 0
M  V30 4381 H 448.544 5.12331 -1.96999 0
M  V30 4382 H 448.805 4.40386 -0.388924 0
M  V30 4383 N 447.864 1.01787 1.20321 0
M  V30 4384 C 449.28 0.732951 1.41774 0
M  V30 4385 C 449.48 -0.686883 1.89431 0
M  V30 4386 O 448.536 -1.45446 2.06402 0
M  V30 4387 C 449.849 1.75973 2.43832 0
M  V30 4388 C 451.397 1.77802 2.57596 0
M  V30 4389 C 451.872 2.7941 3.62897 0
M  V30 4390 N 453.363 2.78157 3.70382 0
M  V30 4391 C 454.098 3.53434 4.51521 0
M  V30 4392 N 453.594 4.38392 5.36455 0
M  V30 4393 N 455.387 3.42026 4.46066 0
M  V30 4394 H 447.538 1.93447 0.877035 0
M  V30 4395 H 449.801 0.835712 0.447536 0
M  V30 4396 H 449.507 2.77699 2.15815 0
M  V30 4397 H 449.381 1.57292 3.4284 0
M  V30 4398 H 451.768 0.767602 2.84942 0
M  V30 4399 H 451.849 2.00557 1.58779 0
M  V30 4400 H 451.493 3.80616 3.36295 0
M  V30 4401 H 451.423 2.53916 4.61339 0
M  V30 4402 H 453.914 2.16531 3.09714 0
M  V30 4403 H 454.227 4.92596 5.95457 0
M  V30 4404 H 452.572 4.4247 5.35953 0
M  V30 4405 H 455.763 2.75075 3.78749 0
M  V30 4406 H 455.936 4.00946 5.09064 0
M  V30 4407 N 449.342 -1.36122 0.79427 0
M  V30 4408 C 450.591 -1.98361 0.365464 0
M  V30 4409 C 450.904 -1.6374 -1.06997 0
M  V30 4410 O 452.11 -2.19251 -1.60129 0
M  V30 4411 C 450.566 -3.54821 0.602496 0
M  V30 4412 C 450.174 -3.98362 2.04967 0
M  V30 4413 C 451.918 -4.2383 0.238437 0
M  V30 4414 C 449.825 -5.47619 2.2331 0
M  V30 4415 H 448.755 -0.742193 0.13291 0
M  V30 4416 H 451.406 -1.55354 0.976589 0
M  V30 4417 H 449.788 -3.95922 -0.078409 0
M  V30 4418 H 450.962 -3.68447 2.76737 0
M  V30 4419 H 449.277 -3.42206 2.37243 0
M  V30 4420 H 451.874 -5.33529 0.353705 0
M  V30 4421 H 452.217 -4.08264 -0.814006 0
M  V30 4422 H 452.75 -3.88108 0.872769 0
M  V30 4423 H 449.489 -5.68138 3.26955 0
M  V30 4424 H 449.009 -5.79145 1.5605 0
M  V30 4425 H 450.688 -6.13911 2.0426 0
M  V30 4426 N 450.82 -0.546701 -1.47814 0
M  V30 4427 C 451.75 0.195317 -2.32682 0
M  V30 4428 C 452.731 0.918981 -1.43139 0
M  V30 4429 O 453.916 0.901501 -1.72008 0
M  V30 4430 C 451.046 1.23237 -3.247 0
M  V30 4431 C 450 0.625818 -4.234 0
M  V30 4432 C 449.326 1.76674 -5.04669 0
M  V30 4433 C 450.626 -0.413515 -5.2066 0
M  V30 4434 H 452.32 -0.513184 -2.94969 0
M  V30 4435 H 449.866 -0.248241 -1.41844 0
M  V30 4436 H 451.819 1.75955 -3.82907 0
M  V30 4437 H 450.543 1.97067 -2.60446 0
M  V30 4438 H 449.202 0.120023 -3.66403 0
M  V30 4439 H 448.85 2.49383 -4.36826 0
M  V30 4440 H 448.55 1.36673 -5.71484 0
M  V30 4441 H 450.074 2.29738 -5.65732 0
M  V30 4442 H 451.488 0.0272042 -5.73294 0
M  V30 4443 H 449.885 -0.731825 -5.95621 0
M  V30 4444 H 450.955 -1.31325 -4.66778 0
M  V30 4445 N 452.299 1.55045 -0.282633 0
M  V30 4446 C 453.209 2.26491 0.61147 0
M  V30 4447 C 454.225 1.29348 1.16384 0
M  V30 4448 O 455.401 1.62298 1.19253 0
M  V30 4449 C 452.466 2.97779 1.77563 0
M  V30 4450 C 451.527 4.10418 1.25919 0
M  V30 4451 C 450.76 4.78297 2.36786 0
M  V30 4452 O 450.983 4.45426 3.56303 0
M  V30 4453 O 449.917 5.66089 2.04517 0
M  V30 4454 H 453.743 3.03683 0.0324615 0
M  V30 4455 H 451.328 1.49317 -0.0497576 0
M  V30 4456 H 453.21 3.42554 2.45427 0
M  V30 4457 H 451.885 2.23498 2.34159 0
M  V30 4458 H 450.792 3.70082 0.546797 0
M  V30 4459 H 452.125 4.86622 0.738887 0
M  V30 4460 N 453.777 0.010035 1.57597 0
M  V30 4461 C 455.054 -0.710296 1.82248 0
M  V30 4462 C 455.434 -1.91426 0.889911 0
M  V30 4463 O 454.782 -2.28424 -0.0590292 0
M  V30 4464 C 454.992 -1.10655 3.30993 0
M  V30 4465 C 456.34 -1.50621 3.96987 0
M  V30 4466 O 457.364 -1.20007 3.35375 0
M  V30 4467 O 456.223 -2.07587 5.05539 0
M  V30 4468 H 453.317 -0.34673 0.750804 0
M  V30 4469 H 455.863 0.0362578 1.69661 0
M  V30 4470 H 454.635 -0.248826 3.90508 0
M  V30 4471 H 454.258 -1.91189 3.48615 0
M  V30 4472 N 455.255 -1.55392 -0.262866 0
M  V30 4473 C 456.218 -1.88181 -1.30846 0
M  V30 4474 C 457.218 -0.757079 -1.41862 0
M  V30 4475 O 458.408 -1.02519 -1.40838 0
M  V30 4476 C 455.54 -2.09609 -2.68844 0
M  V30 4477 H 456.733 -2.81659 -1.02997 0
M  V30 4478 H 454.286 -1.48039 -0.501414 0
M  V30 4479 H 455.021 -1.18547 -3.01856 0
M  V30 4480 H 454.806 -2.91508 -2.62231 0
M  V30 4481 H 456.296 -2.36215 -3.44372 0
M  V30 4482 N 456.733 0.527833 -1.48498 0
M  V30 4483 C 457.958 1.313 -1.60546 0
M  V30 4484 C 458.383 1.86199 -0.26672 0
M  V30 4485 O 457.741 1.64513 0.761918 0
M  V30 4486 C 457.789 2.43818 -2.65678 0
M  V30 4487 O 456.893 3.46916 -2.22987 0
M  V30 4488 H 456.234 0.388784 -0.538277 0
M  V30 4489 H 458.764 0.634896 -1.945 0
M  V30 4490 H 458.774 2.89973 -2.87018 0
M  V30 4491 H 457.449 2.03222 -3.62869 0
M  V30 4492 H 456.026 3.06864 -2.11869 0
M  V30 4493 N 458.211 1.37122 0.776871 0
M  V30 4494 C 459.459 1.31787 1.53221 0
M  V30 4495 C 459.78 -0.0987589 1.9475 0
M  V30 4496 O 459.05 -1.0417 1.65908 0
M  V30 4497 H 457.63 0.484839 0.568278 0
M  V30 4498 H 460.292 1.71556 0.924917 0
M  V30 4499 H 459.388 1.95355 2.43398 0
M  V30 4500 N 459.689 -1.00246 1.21608 0
M  V30 4501 C 460.636 -2.09073 0.977613 0
M  V30 4502 C 461.606 -1.65815 -0.097297 0
M  V30 4503 O 462.791 -1.90734 0.0503445 0
M  V30 4504 C 459.931 -3.40671 0.551133 0
M  V30 4505 C 459.044 -3.97326 1.69576 0
M  V30 4506 C 458.179 -5.17043 1.2182 0
M  V30 4507 C 457.218 -5.65813 2.335 0
M  V30 4508 N 456.355 -6.76778 1.86859 0
M  V30 4509 H 461.195 -2.28806 1.90924 0
M  V30 4510 H 458.732 -1.12186 0.951452 0
M  V30 4511 H 460.69 -4.16225 0.285097 0
M  V30 4512 H 459.32 -3.20967 -0.343489 0
M  V30 4513 H 458.372 -3.18734 2.07637 0
M  V30 4514 H 459.684 -4.29511 2.53617 0
M  V30 4515 H 458.838 -5.99852 0.908975 0
M  V30 4516 H 457.577 -4.86458 0.347869 0
M  V30 4517 H 456.582 -4.81599 2.65222 0
M  V30 4518 H 457.807 -5.98427 3.21033 0
M  V30 4519 H 455.753 -6.47994 1.02174 0
M  V30 4520 H 455.67 -7.08231 2.64471 0
M  V30 4521 H 456.938 -7.63116 1.58978 0
M  V30 4522 N 461.167 -1.02423 -1.1978 0
M  V30 4523 C 462.413 -0.719051 -1.89625 0
M  V30 4524 C 462.746 0.750083 -1.7913 0
M  V30 4525 O 462.021 1.54574 -1.18056 0
M  V30 4526 C 462.304 -1.16499 -3.40735 0
M  V30 4527 C 462.157 -2.695 -3.60125 0
M  V30 4528 C 463.476 -0.742166 -4.33797 0
M  V30 4529 H 460.595 -0.26269 -0.688595 0
M  V30 4530 H 463.237 -1.27333 -1.41018 0
M  V30 4531 H 461.387 -0.69341 -3.82262 0
M  V30 4532 H 463.059 -3.24569 -3.278 0
M  V30 4533 H 461.302 -3.10113 -3.03336 0
M  V30 4534 H 461.973 -2.95757 -4.66081 0
M  V30 4535 H 464.449 -1.1477 -3.99959 0
M  V30 4536 H 463.325 -1.08213 -5.38127 0
M  V30 4537 H 463.586 0.355747 -4.40666 0
M  V30 4538 N 462.645 1.35699 -0.801477 0
M  V30 4539 C 463.873 2.03157 -0.391768 0
M  V30 4540 C 464.288 1.60412 0.995668 0
M  V30 4541 O 463.645 0.799228 1.64069 0
M  V30 4542 C 463.696 3.58566 -0.459671 0
M  V30 4543 O 463.417 3.99756 -1.7924 0
M  V30 4544 C 464.918 4.4328 -0.0421205 0
M  V30 4545 H 462.138 0.651688 -0.159825 0
M  V30 4546 H 464.682 1.73426 -1.08368 0
M  V30 4547 H 462.837 3.86963 0.183939 0
M  V30 4548 H 463.251 4.94387 -1.75162 0
M  V30 4549 H 464.725 5.51821 -0.140754 0
M  V30 4550 H 465.202 4.27383 1.01196 0
M  V30 4551 H 465.808 4.20168 -0.658687 0
M  V30 4552 N 464.123 0.554532 1.47522 0
M  V30 4553 C 465.371 0.0294208 2.02079 0
M  V30 4554 C 465.692 -1.32411 1.43151 0
M  V30 4555 O 464.962 -1.863 0.605728 0
M  V30 4556 H 463.542 0.00788672 0.746958 0
M  V30 4557 H 466.204 0.723934 1.80956 0
M  V30 4558 H 465.3 -0.0606745 3.12041 0
M  V30 4559 N 465.601 -1.54893 0.290851 0
M  V30 4560 C 466.847 -2.0023 -0.321867 0
M  V30 4561 C 467.18 -1.179 -1.54316 0
M  V30 4562 O 466.455 -0.25293 -1.92848 0
M  V30 4563 C 466.738 -3.53456 -0.688515 0
M  V30 4564 C 466.591 -4.46532 0.541209 0
M  V30 4565 C 467.91 -4.13057 -1.51895 0
M  V30 4566 H 465.029 -0.727891 -0.115515 0
M  V30 4567 H 467.671 -1.85722 0.400931 0
M  V30 4568 H 465.821 -3.6595 -1.30433 0
M  V30 4569 H 467.493 -4.4596 1.17973 0
M  V30 4570 H 465.736 -4.17545 1.17636 0
M  V30 4571 H 466.407 -5.51475 0.240675 0
M  V30 4572 H 468.883 -4.03937 -0.99872 0
M  V30 4573 H 467.759 -5.20448 -1.74429 0
M  V30 4574 H 468.02 -3.64284 -2.50498 0
M  V30 4575 N 467.08 -0.0183926 -1.57589 0
M  V30 4576 C 468.01 0.965596 -2.12599 0
M  V30 4577 C 468.991 1.34641 -1.0395 0
M  V30 4578 O 470.176 1.42693 -1.31729 0
M  V30 4579 C 467.306 2.25149 -2.64434 0
M  V30 4580 C 466.26 2.01175 -3.77773 0
M  V30 4581 C 465.586 3.35937 -4.15994 0
M  V30 4582 C 466.886 1.35953 -5.04296 0
M  V30 4583 H 468.58 0.507504 -2.95067 0
M  V30 4584 H 466.126 0.242671 -1.41941 0
M  V30 4585 H 468.079 2.94357 -3.01549 0
M  V30 4586 H 466.803 2.73105 -1.79112 0
M  V30 4587 H 465.462 1.34388 -3.4108 0
M  V30 4588 H 465.11 3.81631 -3.27669 0
M  V30 4589 H 464.81 3.20705 -4.92364 0
M  V30 4590 H 466.334 4.0643 -4.55683 0
M  V30 4591 H 467.748 1.95144 -5.39065 0
M  V30 4592 H 466.145 1.31152 -5.85593 0
M  V30 4593 H 467.215 0.331071 -4.83768 0
M  V30 4594 N 468.558 1.5553 0.254621 0
M  V30 4595 C 469.804 1.77262 0.985193 0
M  V30 4596 C 470.137 0.582286 1.85265 0
M  V30 4597 O 469.412 -0.419666 1.89919 0
M  V30 4598 C 469.695 3.0881 1.85225 0
M  V30 4599 C 469.548 4.38233 1.0135 0
M  V30 4600 C 470.867 3.3653 2.83612 0
M  V30 4601 H 467.986 0.644906 0.356742 0
M  V30 4602 H 470.628 1.88264 0.256236 0
M  V30 4603 H 468.778 2.99562 2.47376 0
M  V30 4604 H 470.45 4.59463 0.411269 0
M  V30 4605 H 468.693 4.32636 0.317574 0
M  V30 4606 H 469.364 5.26644 1.65379 0
M  V30 4607 H 471.84 3.45691 2.31596 0
M  V30 4608 H 470.716 4.29805 3.41407 0
M  V30 4609 H 470.977 2.57064 3.59681 0
M  V30 4610 N 470.036 -0.519951 1.48776 0
M  V30 4611 C 470.983 -1.62352 1.64044 0
M  V30 4612 C 471.953 -1.58945 0.482251 0
M  V30 4613 O 473.138 -1.77219 0.706971 0
M  V30 4614 C 470.278 -3.00579 1.69547 0
M  V30 4615 C 469.391 -3.14145 2.96541 0
M  V30 4616 C 468.526 -4.42991 2.93142 0
M  V30 4617 C 467.565 -4.50122 4.14797 0
M  V30 4618 N 466.702 -5.7037 4.09418 0
M  V30 4619 H 471.542 -1.48643 2.58281 0
M  V30 4620 H 469.079 -0.723516 1.28077 0
M  V30 4621 H 471.037 -3.80671 1.70719 0
M  V30 4622 H 469.667 -3.13036 0.787918 0
M  V30 4623 H 468.719 -2.27239 3.05068 0
M  V30 4624 H 470.031 -3.15275 3.86527 0
M  V30 4625 H 469.185 -5.31385 2.92772 0
M  V30 4626 H 467.924 -4.44398 2.00902 0
M  V30 4627 H 466.929 -3.60133 4.15433 0
M  V30 4628 H 468.154 -4.50445 5.08208 0
M  V30 4629 H 466.1 -5.72655 3.20004 0
M  V30 4630 H 466.017 -5.73036 4.93119 0
M  V30 4631 H 467.285 -6.61023 4.13121 0
M  V30 4632 N 471.514 -1.37532 -0.769588 0
M  V30 4633 C 472.762 -1.32597 -1.5252 0
M  V30 4634 C 473.083 0.0884294 -1.94799 0
M  V30 4635 O 472.353 1.03289 -1.66458 0
M  V30 4636 H 470.933 -0.487846 -0.565699 0
M  V30 4637 H 473.595 -1.72044 -0.915806 0
M  V30 4638 H 472.691 -1.96643 -2.42359 0
M  V30 4639 N 472.992 0.995999 -1.22138 0
M  V30 4640 C 473.902 2.11985 -1.00496 0
M  V30 4641 C 474.918 1.7394 0.0457701 0
M  V30 4642 O 476.094 2.00868 -0.146273 0
M  V30 4643 C 473.159 3.41779 -0.582086 0
M  V30 4644 C 472.22 3.93943 -1.70608 0
M  V30 4645 C 471.453 5.17542 -1.30328 0
M  V30 4646 O 471.676 5.70114 -0.180743 0
M  V30 4647 O 470.61 5.63382 -2.11861 0
M  V30 4648 H 474.436 2.33123 -1.94647 0
M  V30 4649 H 472.021 1.10358 -1.00705 0
M  V30 4650 H 473.903 4.1989 -0.356467 0
M  V30 4651 H 472.578 3.22007 0.330592 0
M  V30 4652 H 471.485 3.17019 -1.98619 0
M  V30 4653 H 472.818 4.18141 -2.59651 0
M  V30 4654 N 474.47 1.03057 1.19235 0
M  V30 4655 C 475.7 0.746613 1.92638 0
M  V30 4656 C 476.108 -0.698708 1.75826 0
M  V30 4657 O 475.451 -1.487 1.07861 0
M  V30 4658 C 475.513 1.02024 3.44719 0
M  V30 4659 C 475.177 2.45745 3.85303 0
M  V30 4660 C 476.174 3.43887 3.8992 0
M  V30 4661 C 473.859 2.8019 4.16892 0
M  V30 4662 C 475.853 4.74529 4.2556 0
M  V30 4663 C 473.54 4.1104 4.52205 0
M  V30 4664 C 474.538 5.0802 4.56513 0
M  V30 4665 O 474.226 6.36527 4.91008 0
M  V30 4666 H 473.958 0.272401 0.618687 0
M  V30 4667 H 476.512 1.37853 1.52269 0
M  V30 4668 H 474.742 0.331184 3.85279 0
M  V30 4669 H 476.431 0.725677 3.9936 0
M  V30 4670 H 477.197 3.18614 3.65664 0
M  V30 4671 H 473.076 2.05382 4.12722 0
M  V30 4672 H 476.62 5.50222 4.28838 0
M  V30 4673 H 472.517 4.36086 4.7592 0
M  V30 4674 H 473.285 6.41025 5.08949 0
M  V30 4675 N 475.948 -1.35272 0.808662 0
M  V30 4676 C 477.176 -2.02946 0.402537 0
M  V30 4677 C 477.591 -1.60937 -0.987147 0
M  V30 4678 O 476.948 -0.807917 -1.63643 0
M  V30 4679 C 476.999 -3.58317 0.47868 0
M  V30 4680 O 476.72 -3.98799 1.81358 0
M  V30 4681 C 478.221 -4.43251 0.0656281 0
M  V30 4682 H 475.441 -0.650831 0.163279 0
M  V30 4683 H 477.985 -1.72849 1.09286 0
M  V30 4684 H 476.14 -3.87055 -0.163415 0
M  V30 4685 H 476.554 -4.93451 1.77781 0
M  V30 4686 H 478.028 -5.51738 0.170017 0
M  V30 4687 H 478.505 -4.27913 -0.989278 0
M  V30 4688 H 479.111 -4.19813 0.68096 0
M  V30 4689 N 477.426 -0.562348 -1.47226 0
M  V30 4690 C 478.674 -0.0401371 -2.0206 0
M  V30 4691 C 478.995 1.3165 -1.43852 0
M  V30 4692 O 478.265 1.85976 -0.615599 0
M  V30 4693 H 476.845 -0.0118479 -0.746906 0
M  V30 4694 H 479.507 -0.73352 -1.8057 0
M  V30 4695 H 478.603 0.0441254 -3.12069 0
M  V30 4696 N 478.904 1.54736 -0.299062 0
M  V30 4697 C 480.134 2.04215 0.312992 0
M  V30 4698 C 480.542 1.17596 1.48215 0
M  V30 4699 O 479.885 0.193835 1.82674 0
M  V30 4700 C 479.947 3.49696 0.833862 0
M  V30 4701 C 479.611 4.56518 -0.20977 0
M  V30 4702 C 480.608 5.09442 -1.03756 0
M  V30 4703 C 478.293 5.01073 -0.35091 0
M  V30 4704 C 480.287 6.05459 -1.99244 0
M  V30 4705 C 477.974 5.9691 -1.30924 0
M  V30 4706 C 478.972 6.48987 -2.1285 0
M  V30 4707 O 478.66 7.42947 -3.07059 0
M  V30 4708 H 478.392 0.672128 0.0722494 0
M  V30 4709 H 480.946 2.00718 -0.436043 0
M  V30 4710 H 479.176 3.5051 1.63339 0
M  V30 4711 H 480.865 3.82381 1.36159 0
M  V30 4712 H 481.631 4.75816 -0.939376 0
M  V30 4713 H 477.51 4.60168 0.276813 0
M  V30 4714 H 481.054 6.46031 -2.63229 0
M  V30 4715 H 476.951 6.29953 -1.40815 0
M  V30 4716 H 477.719 7.60743 -3.02015 0
M  V30 4717 N 480.382 0.0267497 1.57577 0
M  V30 4718 C 481.612 -0.6617 1.95717 0
M  V30 4719 C 482.02 -1.66331 0.901706 0
M  V30 4720 O 481.363 -1.83273 -0.125241 0
M  V30 4721 C 481.425 -1.42649 3.29987 0
M  V30 4722 C 481.089 -0.583482 4.5326 0
M  V30 4723 C 482.086 0.140221 5.19711 0
M  V30 4724 C 479.771 -0.521581 4.99585 0
M  V30 4725 C 481.765 0.914523 6.30805 0
M  V30 4726 C 479.452 0.256428 6.10562 0
M  V30 4727 C 480.45 0.973189 6.76031 0
M  V30 4728 O 480.138 1.73845 7.84878 0
M  V30 4729 H 479.87 -0.187483 0.649481 0
M  V30 4730 H 482.424 0.0820847 2.05236 0
M  V30 4731 H 480.654 -2.21536 3.16952 0
M  V30 4732 H 482.343 -2.00282 3.53047 0
M  V30 4733 H 483.109 0.101716 4.84893 0
M  V30 4734 H 478.988 -1.06904 4.48433 0
M  V30 4735 H 482.532 1.4745 6.81839 0
M  V30 4736 H 478.429 0.296657 6.44818 0
M  V30 4737 H 479.197 1.65797 8.01532 0
M  V30 4738 N 481.861 -1.55662 -0.24637 0
M  V30 4739 C 483.107 -1.77782 -0.975779 0
M  V30 4740 C 483.44 -0.592103 -1.84953 0
M  V30 4741 O 482.715 0.409588 -1.90138 0
M  V30 4742 C 482.998 -3.09788 -1.83584 0
M  V30 4743 C 482.851 -4.38764 -0.990241 0
M  V30 4744 C 484.17 -3.38029 -2.81823 0
M  V30 4745 H 481.289 -0.646789 -0.353317 0
M  V30 4746 H 483.931 -1.88398 -0.246248 0
M  V30 4747 H 482.081 -3.00869 -2.45784 0
M  V30 4748 H 483.753 -4.59675 -0.386897 0
M  V30 4749 H 481.996 -4.32798 -0.294626 0
M  V30 4750 H 482.667 -5.27514 -1.62584 0
M  V30 4751 H 485.143 -3.46915 -2.2976 0
M  V30 4752 H 484.019 -4.3161 -3.39122 0
M  V30 4753 H 484.28 -2.58968 -3.58313 0
M  V30 4754 N 483.339 0.512053 -1.4905 0
M  V30 4755 C 484.588 1.26343 -1.57227 0
M  V30 4756 C 484.901 1.93876 -0.259155 0
M  V30 4757 O 486.107 2.70612 -0.219358 0
M  V30 4758 C 484.563 2.29343 -2.77362 0
M  V30 4759 C 484.171 1.67799 -4.15388 0
M  V30 4760 C 485.915 3.05378 -2.94864 0
M  V30 4761 C 483.822 2.68845 -5.2676 0
M  V30 4762 H 482.752 0.475231 -0.585382 0
M  V30 4763 H 485.403 0.53862 -1.75417 0
M  V30 4764 H 483.785 3.04938 -2.52643 0
M  V30 4765 H 484.959 0.982715 -4.50199 0
M  V30 4766 H 483.274 1.04194 -4.03153 0
M  V30 4767 H 485.871 3.80921 -3.75238 0
M  V30 4768 H 486.214 3.62327 -2.05 0
M  V30 4769 H 486.747 2.36898 -3.19569 0
M  V30 4770 H 483.486 2.16692 -6.18647 0
M  V30 4771 H 483.006 3.36647 -4.96416 0
M  V30 4772 H 484.685 3.31487 -5.5563 0
M  V30 4773 N 484.817 1.37938 0.762283 0
M  V30 4774 C 485.764 1.34467 1.87583 0
M  V30 4775 C 486.734 0.208633 1.64785 0
M  V30 4776 O 487.919 0.399494 1.86571 0
M  V30 4777 C 485.059 1.16692 3.24772 0
M  V30 4778 C 484.172 2.39608 3.59461 0
M  V30 4779 C 483.307 2.14631 4.85908 0
M  V30 4780 C 482.346 3.33364 5.13357 0
M  V30 4781 N 481.483 3.07877 6.30996 0
M  V30 4782 H 486.323 2.29669 1.89885 0
M  V30 4783 H 483.86 1.14116 0.928219 0
M  V30 4784 H 485.818 1.04405 4.03925 0
M  V30 4785 H 484.448 0.251333 3.2182 0
M  V30 4786 H 483.5 2.626 2.75219 0
M  V30 4787 H 484.812 3.28128 3.75678 0
M  V30 4788 H 483.966 1.99429 5.72986 0
M  V30 4789 H 482.705 1.23463 4.71814 0
M  V30 4790 H 481.71 3.49094 4.24751 0
M  V30 4791 H 482.935 4.25395 5.29354 0
M  V30 4792 H 480.881 2.19348 6.18241 0
M  V30 4793 H 480.798 3.89944 6.47673 0
M  V30 4794 H 482.066 2.96313 7.20985 0
M  V30 4795 N 486.295 -0.989507 1.22664 0
M  V30 4796 C 487.258 -2.06183 1.00106 0
M  V30 4797 C 488.258 -1.60765 -0.0337726 0
M  V30 4798 O 489.448 -1.72989 0.205072 0
M  V30 4799 C 486.58 -3.37021 0.51279 0
M  V30 4800 H 487.773 -2.27629 1.95256 0
M  V30 4801 H 485.326 -1.16158 1.0458 0
M  V30 4802 H 486.061 -3.21261 -0.442917 0
M  V30 4803 H 485.846 -3.71323 1.25942 0
M  V30 4804 H 487.336 -4.1591 0.375315 0
M  V30 4805 N 487.773 -1.03688 -1.18687 0
M  V30 4806 C 489.05 -0.652397 -1.84399 0
M  V30 4807 C 489.43 0.868386 -1.92412 0
M  V30 4808 O 488.778 1.76832 -1.44716 0
M  V30 4809 C 488.988 -1.3238 -3.22919 0
M  V30 4810 C 490.336 -1.45216 -3.98996 0
M  V30 4811 O 491.36 -1.2816 -3.32345 0
M  V30 4812 O 490.219 -1.72975 -5.18403 0
M  V30 4813 H 487.313 -0.227793 -0.795009 0
M  V30 4814 H 489.859 -1.13553 -1.2611 0
M  V30 4815 H 488.631 -2.36202 -3.11968 0
M  V30 4816 H 488.254 -0.829039 -3.88861 0
M  V30 4817 N 489.251 1.34841 -0.815825 0
M  V30 4818 C 490.214 2.27959 -0.238185 0
M  V30 4819 C 491.214 1.49983 0.579816 0
M  V30 4820 O 492.404 1.69617 0.396953 0
M  V30 4821 C 489.536 3.34314 0.666876 0
M  V30 4822 H 490.729 2.80558 -1.05958 0
M  V30 4823 H 488.282 1.44852 -0.587156 0
M  V30 4824 H 489.017 2.86916 1.5116 0
M  V30 4825 H 488.802 3.92014 0.0819106 0
M  V30 4826 H 490.292 4.0379 1.06506 0
M  V30 4827 N 490.729 0.570148 1.46925 0
M  V30 4828 C 491.975 0.0510284 2.02736 0
M  V30 4829 C 492.308 -1.3006 1.44215 0
M  V30 4830 O 491.583 -1.84932 0.602521 0
M  V30 4831 C 491.866 -0.028215 3.60089 0
M  V30 4832 C 491.719 1.35142 4.29018 0
M  V30 4833 C 493.038 -0.735181 4.33916 0
M  V30 4834 H 490.157 0.0200178 0.736728 0
M  V30 4835 H 492.799 0.73493 1.75211 0
M  V30 4836 H 490.949 -0.610648 3.83671 0
M  V30 4837 H 492.621 1.97806 4.16738 0
M  V30 4838 H 490.864 1.9226 3.88868 0
M  V30 4839 H 491.535 1.24857 5.37694 0
M  V30 4840 H 494.011 -0.240519 4.15404 0
M  V30 4841 H 492.887 -0.759622 5.43618 0
M  V30 4842 H 493.148 -1.79397 4.04066 0
M  V30 4843 N 492.207 -1.54576 0.307264 0
M  V30 4844 C 493.453 -2.0056 -0.300612 0
M  V30 4845 C 493.786 -1.1953 -1.53057 0
M  V30 4846 O 493.061 -0.27337 -1.92569 0
M  V30 4847 C 493.344 -3.54167 -0.650987 0
M  V30 4848 C 493.197 -4.45933 0.588539 0
M  V30 4849 C 494.516 -4.14645 -1.47506 0
M  V30 4850 H 491.635 -0.729075 -0.107788 0
M  V30 4851 H 494.277 -1.85286 0.420606 0
M  V30 4852 H 492.427 -3.67313 -1.26544 0
M  V30 4853 H 494.099 -4.44683 1.22697 0
M  V30 4854 H 492.342 -4.16274 1.22058 0
M  V30 4855 H 493.013 -5.51189 0.299153 0
M  V30 4856 H 495.489 -4.04973 -0.955821 0
M  V30 4857 H 494.365 -5.22269 -1.68899 0
M  V30 4858 H 494.626 -3.66921 -2.4662 0
M  V30 4859 N 493.685 -0.035106 -1.57561 0
M  V30 4860 C 494.934 0.641604 -1.91223 0
M  V30 4861 C 495.247 1.72944 -0.913761 0
M  V30 4862 O 496.453 2.46321 -1.14185 0
M  V30 4863 C 494.909 1.19249 -3.3957 0
M  V30 4864 C 494.517 0.137616 -4.47789 0
M  V30 4865 C 496.261 1.84537 -3.82291 0
M  V30 4866 C 494.168 0.700478 -5.87237 0
M  V30 4867 H 493.098 0.243417 -0.713627 0
M  V30 4868 H 495.749 -0.101382 -1.8322 0
M  V30 4869 H 494.131 1.98728 -3.42525 0
M  V30 4870 H 495.305 -0.635153 -4.56402 0
M  V30 4871 H 493.62 -0.416855 -4.14308 0
M  V30 4872 H 496.217 2.27616 -4.83834 0
M  V30 4873 H 496.56 2.69054 -3.17672 0
M  V30 4874 H 497.093 1.11739 -3.81784 0
M  V30 4875 H 493.832 -0.106693 -6.55413 0
M  V30 4876 H 493.352 1.4416 -5.82218 0
M  V30 4877 H 495.031 1.18837 -6.35993 0
M  V30 4878 N 495.163 1.55791 0.238111 0
M  V30 4879 C 496.126 1.90239 1.27835 0
M  V30 4880 C 497.126 0.779552 1.4064 0
M  V30 4881 O 498.316 1.04747 1.3919 0
M  V30 4882 C 495.448 2.13859 2.65475 0
M  V30 4883 H 496.641 2.83262 0.985034 0
M  V30 4884 H 494.194 1.48818 0.477799 0
M  V30 4885 H 494.929 1.23334 2.99932 0
M  V30 4886 H 494.714 2.95643 2.57561 0
M  V30 4887 H 496.204 2.41664 3.40571 0
M  V30 4888 N 496.642 -0.504142 1.49319 0
M  V30 4889 C 497.605 -1.5883 1.65244 0
M  V30 4890 C 498.605 -1.52009 0.524386 0
M  V30 4891 O 499.795 -1.55218 0.79077 0
M  V30 4892 C 496.927 -2.98481 1.64687 0
M  V30 4893 H 498.12 -1.4604 2.61939 0
M  V30 4894 H 495.673 -0.728144 1.38303 0
M  V30 4895 H 496.408 -3.16751 0.695644 0
M  V30 4896 H 496.193 -3.0484 2.46607 0
M  V30 4897 H 497.683 -3.77256 1.79075 0
M  V30 4898 N 498.12 -1.38341 -0.754957 0
M  V30 4899 C 499.368 -1.34208 -1.51105 0
M  V30 4900 C 499.689 0.0677634 -1.94882 0
M  V30 4901 O 498.959 1.01517 -1.67544 0
M  V30 4902 H 497.539 -0.493819 -0.560493 0
M  V30 4903 H 500.201 -1.73005 -0.897507 0
M  V30 4904 H 499.297 -1.99203 -2.4026 0
M  V30 4905 N 499.598 0.982988 -1.23187 0
M  V30 4906 C 500.846 1.72052 -1.06031 0
M  V30 4907 C 501.167 1.90769 0.404019 0
M  V30 4908 O 500.437 1.47446 1.28982 0
M  V30 4909 H 499.017 0.637499 -0.389363 0
M  V30 4910 H 501.679 1.18338 -1.54862 0
M  V30 4911 H 500.775 2.7111 -1.54615 0
M  V30 4912 N 501.076 1.04316 1.18135 0
M  V30 4913 C 502.323 0.74802 1.88178 0
M  V30 4914 C 502.651 -0.72441 1.80506 0
M  V30 4915 O 501.906 -1.54463 1.20165 0
M  V30 4916 C 502.205 1.16271 3.37958 0
M  V30 4917 C 501.871 2.63585 3.65833 0
M  V30 4918 C 500.533 3.03829 3.73151 0
M  V30 4919 C 502.885 3.58822 3.78016 0
M  V30 4920 C 500.213 4.38194 3.90132 0
M  V30 4921 C 502.565 4.92909 3.96514 0
M  V30 4922 C 501.229 5.3282 4.02068 0
M  V30 4923 H 500.499 0.27372 0.688592 0
M  V30 4924 H 503.146 1.30863 1.39811 0
M  V30 4925 H 501.451 0.520938 3.88321 0
M  V30 4926 H 503.148 0.911672 3.90499 0
M  V30 4927 H 499.738 2.31414 3.60757 0
M  V30 4928 H 503.922 3.28875 3.71692 0
M  V30 4929 H 499.178 4.68631 3.92677 0
M  V30 4930 H 503.352 5.66606 4.04883 0
M  V30 4931 H 500.979 6.36943 4.14979 0
M  V30 4932 N 502.554 -1.34406 0.822964 0
M  V30 4933 C 503.517 -2.2783 0.250271 0
M  V30 4934 C 504.517 -1.50288 -0.571854 0
M  V30 4935 O 505.707 -1.69825 -0.387952 0
M  V30 4936 C 502.839 -3.34663 -0.649137 0
M  V30 4937 H 504.032 -2.79992 1.07444 0
M  V30 4938 H 501.585 -1.44539 0.594829 0
M  V30 4939 H 502.32 -2.87714 -1.49637 0
M  V30 4940 H 502.105 -3.92052 -0.0611199 0
M  V30 4941 H 503.595 -4.04349 -1.04363 0
M  V30 4942 N 504.032 -0.577932 -1.46621 0
M  V30 4943 C 504.979 0.158048 -2.30258 0
M  V30 4944 C 505.949 0.888669 -1.40328 0
M  V30 4945 O 507.134 0.880283 -1.6928 0
M  V30 4946 C 504.274 1.16884 -3.24703 0
M  V30 4947 C 503.387 0.442163 -4.29731 0
M  V30 4948 C 502.522 1.44007 -5.11308 0
M  V30 4949 C 501.561 0.69952 -6.0809 0
M  V30 4950 N 500.698 1.64525 -6.82551 0
M  V30 4951 H 505.538 -0.561242 -2.92667 0
M  V30 4952 H 503.075 -0.288591 -1.44241 0
M  V30 4953 H 505.033 1.7677 -3.779 0
M  V30 4954 H 503.663 1.85591 -2.64113 0
M  V30 4955 H 502.715 -0.271632 -3.79429 0
M  V30 4956 H 504.027 -0.136992 -4.98612 0
M  V30 4957 H 503.181 2.11186 -5.68758 0
M  V30 4958 H 501.92 2.05315 -4.42377 0
M  V30 4959 H 500.925 0.0139217 -5.49798 0
M  V30 4960 H 502.15 0.091894 -6.79038 0
M  V30 4961 H 500.096 2.24653 -6.16334 0
M  V30 4962 H 500.013 1.11878 -7.47676 0
M  V30 4963 H 501.281 2.30754 -7.44562 0
M  V30 4964 N 505.51 1.54411 -0.315457 0
M  V30 4965 C 506.458 2.25514 0.569771 0
M  V30 4966 C 507.452 1.2663 1.12522 0
M  V30 4967 O 508.658 1.44434 1.07419 0
M  V30 4968 H 505.033 0.724257 0.202376 0
M  V30 4969 H 507.004 2.98354 -0.0522895 0
M  V30 4970 C 505.753 3.02004 1.72305 0
M  V30 4971 H 505.076 3.77906 1.30488 0
M  V30 4972 H 506.516 3.55014 2.31821 0
M  V30 4973 C 504.975 2.09822 2.63583 0
M  V30 4974 O 505.505 1.67574 3.65078 0
M  V30 4975 N 503.711 1.75478 2.31637 0
M  V30 4976 H 503.258 2.10032 1.49145 0
M  V30 4977 H 503.216 1.14079 2.92973 0
M  V30 4978 N 506.988 0.0434614 1.5754 0
M  V30 4979 C 507.936 -0.951465 2.1225 0
M  V30 4980 C 508.93 -1.3274 1.05245 0
M  V30 4981 O 510.136 -1.30795 1.23663 0
M  V30 4982 H 506.511 -0.324667 0.678303 0
M  V30 4983 H 508.482 -0.464855 2.94757 0
M  V30 4984 C 507.231 -2.21972 2.67626 0
M  V30 4985 H 506.554 -1.93923 3.4962 0
M  V30 4986 H 507.994 -2.89765 3.09536 0
M  V30 4987 C 506.453 -2.95919 1.61038 0
M  V30 4988 O 506.983 -3.8857 1.01862 0
M  V30 4989 N 505.189 -2.58511 1.32741 0
M  V30 4990 H 504.736 -1.83244 1.81051 0
M  V30 4991 H 504.694 -3.08296 0.616531 0
M  V30 4992 N 508.466 -1.55915 -0.229846 0
M  V30 4993 C 509.376 -1.94891 -1.30593 0
M  V30 4994 C 510.392 -0.851604 -1.51736 0
M  V30 4995 O 511.568 -1.15447 -1.65027 0
M  V30 4996 C 508.633 -2.25052 -2.63728 0
M  V30 4997 C 507.694 -3.48306 -2.5096 0
M  V30 4998 C 506.927 -3.77019 -3.77747 0
M  V30 4999 O 507.15 -3.07534 -4.80395 0
M  V30 5000 O 506.084 -4.70523 -3.75356 0
M  V30 5001 H 509.91 -2.86581 -1.00525 0
M  V30 5002 H 507.495 -1.43017 -0.432025 0
M  V30 5003 H 509.377 -2.45682 -3.42372 0
M  V30 5004 H 508.052 -1.36538 -2.93495 0
M  V30 5005 H 506.959 -3.32964 -1.70546 0
M  V30 5006 H 508.292 -4.37177 -2.26136 0
M  V30 5007 N 509.944 0.496216 -1.49584 0
M  V30 5008 C 511.36 0.827814 -1.36453 0
M  V30 5009 C 511.56 1.97464 -0.401285 0
M  V30 5010 O 510.616 2.51958 0.165296 0
M  V30 5011 C 511.929 1.16352 -2.77277 0
M  V30 5012 C 513.477 1.27145 -2.86013 0
M  V30 5013 C 513.952 1.64042 -4.27615 0
M  V30 5014 N 515.443 1.71082 -4.30448 0
M  V30 5015 C 516.178 2.01085 -5.36984 0
M  V30 5016 N 515.674 2.2928 -6.5376 0
M  V30 5017 N 517.467 2.02376 -5.24405 0
M  V30 5018 H 509.618 -0.259947 -2.10803 0
M  V30 5019 H 511.881 -0.0537163 -0.946477 0
M  V30 5020 H 511.587 0.394153 -3.49484 0
M  V30 5021 H 511.461 2.10582 -3.12946 0
M  V30 5022 H 513.848 2.03152 -2.1404 0
M  V30 5023 H 513.929 0.309542 -2.5392 0
M  V30 5024 H 513.573 0.88583 -5.00115 0
M  V30 5025 H 513.503 2.6134 -4.57175 0
M  V30 5026 H 515.994 1.51434 -3.46232 0
M  V30 5027 H 516.307 2.51376 -7.30774 0
M  V30 5028 H 514.652 2.26726 -6.56978 0
M  V30 5029 H 517.843 1.79829 -4.32179 0
M  V30 5030 H 518.016 2.25425 -6.07526 0
M  V30 5031 N 511.423 1.38739 0.74761 0
M  V30 5032 C 512.669 1.35475 1.50912 0
M  V30 5033 C 513.002 -0.0533093 1.94127 0
M  V30 5034 O 512.277 -1.01572 1.65871 0
M  V30 5035 C 512.56 2.31582 2.75757 0
M  V30 5036 C 512.413 3.81274 2.38642 0
M  V30 5037 C 513.732 2.25722 3.77806 0
M  V30 5038 H 510.851 0.493427 0.547447 0
M  V30 5039 H 513.493 1.69634 0.855823 0
M  V30 5040 H 511.643 2.02582 3.31501 0
M  V30 5041 H 513.315 4.20972 1.88626 0
M  V30 5042 H 511.558 3.98664 1.71025 0
M  V30 5043 H 512.229 4.4399 3.27989 0
M  V30 5044 H 514.705 2.51336 3.31616 0
M  V30 5045 H 513.581 2.95069 4.62845 0
M  V30 5046 H 513.842 1.25803 4.23823 0
M  V30 5047 N 512.901 -0.976442 1.23707 0
M  V30 5048 C 514.126 -1.75875 1.09922 0
M  V30 5049 C 514.551 -1.84911 -0.34489 0
M  V30 5050 O 513.909 -1.31363 -1.24954 0
M  V30 5051 C 513.957 -3.16179 1.73388 0
M  V30 5052 O 513.061 -4.00124 0.99871 0
M  V30 5053 H 512.402 -0.540954 0.385052 0
M  V30 5054 H 514.932 -1.22546 1.6384 0
M  V30 5055 H 514.942 -3.66741 1.78788 0
M  V30 5056 H 513.617 -3.08917 2.78466 0
M  V30 5057 H 512.194 -3.58624 1.02193 0
M  V30 5058 N 514.379 -1.04941 -1.1758 0
M  V30 5059 C 515.326 -0.648155 -2.21512 0
M  V30 5060 C 516.296 0.348431 -1.62404 0
M  V30 5061 O 517.481 0.240419 -1.89279 0
M  V30 5062 C 514.621 -0.0264291 -3.4509 0
M  V30 5063 C 513.734 -1.07154 -4.185 0
M  V30 5064 C 512.869 -0.417403 -5.29558 0
M  V30 5065 C 511.908 -1.447 -5.94751 0
M  V30 5066 N 511.045 -0.817203 -6.97328 0
M  V30 5067 H 515.885 -1.53891 -2.55189 0
M  V30 5068 H 513.422 -0.769699 -1.25356 0
M  V30 5069 H 515.38 0.351456 -4.15717 0
M  V30 5070 H 514.01 0.827802 -3.12005 0
M  V30 5071 H 513.062 -1.56728 -3.46613 0
M  V30 5072 H 514.374 -1.8532 -4.63096 0
M  V30 5073 H 513.528 0.0142061 -6.06698 0
M  V30 5074 H 512.267 0.396265 -4.86087 0
M  V30 5075 H 511.272 -1.88865 -5.16343 0
M  V30 5076 H 512.497 -2.26252 -6.40302 0
M  V30 5077 H 510.443 -0.0239995 -6.55996 0
M  V30 5078 H 510.36 -1.53644 -7.40223 0
M  V30 5079 H 511.628 -0.410283 -7.7842 0
M  V30 5080 N 515.857 1.33968 -0.830081 0
M  V30 5081 C 517.087 2.01987 -0.434142 0
M  V30 5082 C 517.495 1.62639 0.96671 0
M  V30 5083 O 516.838 0.831151 1.63822 0
M  V30 5084 C 516.9 3.5648 -0.465018 0
M  V30 5085 C 516.564 4.19176 -1.82045 0
M  V30 5086 C 517.561 4.39181 -2.78237 0
M  V30 5087 C 515.246 4.55792 -2.11089 0
M  V30 5088 C 517.24 4.94937 -4.01642 0
M  V30 5089 C 514.927 5.11258 -3.34752 0
M  V30 5090 C 515.925 5.30775 -4.29845 0
M  V30 5091 O 515.613 5.85064 -5.51322 0
M  V30 5092 H 515.345 0.653847 -0.171639 0
M  V30 5093 H 517.899 1.72066 -1.12171 0
M  V30 5094 H 516.129 3.8569 0.279284 0
M  V30 5095 H 517.818 4.05804 -0.0881334 0
M  V30 5096 H 518.584 4.11249 -2.57097 0
M  V30 5097 H 514.463 4.39901 -1.3787 0
M  V30 5098 H 518.007 5.10086 -4.75876 0
M  V30 5099 H 513.904 5.38619 -3.55753 0
M  V30 5100 H 514.672 6.03489 -5.5294 0
M  V30 5101 N 517.335 0.585699 1.46312 0
M  V30 5102 C 518.612 0.00542031 1.95599 0
M  V30 5103 C 518.992 -1.45619 1.52834 0
M  V30 5104 O 518.34 -2.14759 0.780446 0
M  V30 5105 C 518.55 0.180601 3.48532 0
M  V30 5106 C 519.898 0.049979 4.24571 0
M  V30 5107 O 520.922 0.109589 3.56031 0
M  V30 5108 O 519.781 -0.0832226 5.46437 0
M  V30 5109 H 516.875 -0.0481281 0.825598 0
M  V30 5110 H 519.421 0.654227 1.56582 0
M  V30 5111 H 518.193 1.19657 3.72556 0
M  V30 5112 H 517.816 -0.504498 3.94386 0
M  V30 5113 N 518.813 -1.54241 0.323641 0
M  V30 5114 C 520.224 -1.85975 -0.164405 0
M  V30 5115 C 520.575 -1.24529 -1.51615 0
M  V30 5116 O 519.7 -0.551351 -2.09258 0
M  V30 5117 C 520.295 -3.37424 -0.305091 0
M  V30 5118 C 518.854 -3.69107 -0.737358 0
M  V30 5119 C 518.001 -2.76942 0.140884 0
M  V30 5120 H 520.952 -1.49088 0.543922 0
M  V30 5121 H 520.973 -3.63147 -1.13598 0
M  V30 5122 H 520.485 -3.82116 0.678876 0
M  V30 5123 H 518.586 -3.29947 -1.73107 0
M  V30 5124 H 518.699 -4.76035 -0.541053 0
M  V30 5125 H 517.063 -2.51795 -0.383572 0
M  V30 5126 H 517.846 -3.24461 1.12162 0
M  V30 5127 N 520.291 -0.0518155 -1.57515 0
M  V30 5128 C 521.238 0.922352 -2.11569 0
M  V30 5129 C 522.208 1.30842 -1.02321 0
M  V30 5130 O 523.393 1.39778 -1.29872 0
M  V30 5131 C 520.533 2.19167 -2.6657 0
M  V30 5132 C 519.646 1.86003 -3.89906 0
M  V30 5133 C 518.781 3.07398 -4.33221 0
M  V30 5134 C 517.82 2.70158 -5.49255 0
M  V30 5135 N 516.957 3.84248 -5.8762 0
M  V30 5136 H 521.797 0.454506 -2.94514 0
M  V30 5137 H 519.334 0.212718 -1.45554 0
M  V30 5138 H 521.292 2.93443 -2.96559 0
M  V30 5139 H 519.922 2.63528 -1.86421 0
M  V30 5140 H 518.974 1.01874 -3.66505 0
M  V30 5141 H 520.286 1.54592 -4.74239 0
M  V30 5142 H 519.44 3.89972 -4.64765 0
M  V30 5143 H 518.179 3.41988 -3.477 0
M  V30 5144 H 517.184 1.86001 -5.17382 0
M  V30 5145 H 518.409 2.36759 -6.36492 0
M  V30 5146 H 516.355 4.18638 -5.05053 0
M  V30 5147 H 516.272 3.56538 -6.66646 0
M  V30 5148 H 517.54 4.6746 -6.2378 0
M  V30 5149 N 521.769 1.56035 0.221574 0
M  V30 5150 C 522.699 1.95434 1.2778 0
M  V30 5151 C 523.68 0.822564 1.48889 0
M  V30 5152 O 524.865 1.08486 1.61072 0
M  V30 5153 C 521.995 2.27102 2.62759 0
M  V30 5154 C 520.949 3.4277 2.56306 0
M  V30 5155 C 520.275 3.60043 3.95314 0
M  V30 5156 C 521.575 4.77742 2.11093 0
M  V30 5157 H 523.269 2.83912 0.950504 0
M  V30 5158 H 520.815 1.36596 0.455791 0
M  V30 5159 H 522.768 2.53256 3.36807 0
M  V30 5160 H 521.492 1.35478 2.97176 0
M  V30 5161 H 520.151 3.16664 1.84715 0
M  V30 5162 H 519.799 2.65794 4.27039 0
M  V30 5163 H 519.499 4.37841 3.91879 0
M  V30 5164 H 521.023 3.88545 4.71025 0
M  V30 5165 H 522.437 5.03102 2.74885 0
M  V30 5166 H 520.834 5.58823 2.18716 0
M  V30 5167 H 521.904 4.731 1.06321 0
M  V30 5168 N 523.247 -0.488276 1.49845 0
M  V30 5169 C 524.194 -1.58836 1.67451 0
M  V30 5170 C 525.164 -1.57886 0.515857 0
M  V30 5171 O 526.349 -1.75679 0.744403 0
M  V30 5172 C 523.489 -2.96915 1.75885 0
M  V30 5173 C 522.602 -3.07784 3.03138 0
M  V30 5174 C 521.737 -4.36673 3.02473 0
M  V30 5175 C 520.776 -4.41222 4.24252 0
M  V30 5176 N 519.913 -5.61557 4.21424 0
M  V30 5177 H 524.753 -1.43131 2.61376 0
M  V30 5178 H 522.29 -0.696186 1.29583 0
M  V30 5179 H 524.248 -3.76965 1.78755 0
M  V30 5180 H 522.878 -3.11295 0.85414 0
M  V30 5181 H 521.93 -2.20717 3.09819 0
M  V30 5182 H 523.242 -3.07005 3.93128 0
M  V30 5183 H 522.396 -5.25055 3.03977 0
M  V30 5184 H 521.135 -4.40037 2.10283 0
M  V30 5185 H 520.14 -3.5124 4.22978 0
M  V30 5186 H 521.365 -4.39564 5.17649 0
M  V30 5187 H 519.311 -5.65738 3.32078 0
M  V30 5188 H 519.228 -5.62447 5.05163 0
M  V30 5189 H 520.496 -6.52111 4.2705 0
M  V30 5190 N 524.725 -1.39134 -0.740242 0
M  V30 5191 C 525.973 -1.35803 -1.49673 0
M  V30 5192 C 526.294 0.0470897 -1.94943 0
M  V30 5193 O 525.564 0.997347 -1.68611 0
M  V30 5194 H 524.144 -0.499736 -0.555224 0
M  V30 5195 H 526.806 -1.73947 -0.879107 0
M  V30 5196 H 525.902 -2.0174 -2.38133 0
M  V30 5197 N 526.204 0.969867 -1.24223 0
M  V30 5198 C 527.451 1.71256 -1.08063 0
M  V30 5199 C 527.779 1.90734 0.380872 0
M  V30 5200 O 527.034 1.46469 1.29789 0
M  V30 5201 C 527.333 3.10883 -1.76314 0
M  V30 5202 C 526.999 3.11252 -3.26241 0
M  V30 5203 C 525.661 3.1106 -3.67144 0
M  V30 5204 C 528.013 3.05751 -4.22097 0
M  V30 5205 C 525.341 3.03097 -5.02344 0
M  V30 5206 C 527.693 2.9933 -5.57301 0
M  V30 5207 C 526.357 2.97466 -5.97554 0
M  V30 5208 H 525.627 0.62667 -0.395431 0
M  V30 5209 H 528.274 1.13422 -1.54297 0
M  V30 5210 H 526.579 3.72168 -1.22468 0
M  V30 5211 H 528.276 3.67138 -1.61277 0
M  V30 5212 H 524.866 3.12165 -2.93685 0
M  V30 5213 H 529.05 3.05031 -3.91497 0
M  V30 5214 H 524.306 3.00013 -5.32731 0
M  V30 5215 H 528.48 2.94033 -6.31283 0
M  V30 5216 H 526.107 2.91051 -7.02277 0
M  V30 5217 N 527.682 1.05563 1.17022 0
M  V30 5218 C 528.629 0.659893 2.21165 0
M  V30 5219 C 529.599 -0.339813 1.62587 0
M  V30 5220 O 530.784 -0.230378 1.89404 0
M  V30 5221 C 527.924 0.0447297 3.45071 0
M  V30 5222 C 527.037 1.09372 4.17926 0
M  V30 5223 C 526.172 0.445481 5.29329 0
M  V30 5224 C 525.211 1.47852 5.93975 0
M  V30 5225 N 524.348 0.854172 6.96885 0
M  V30 5226 H 529.188 1.55243 2.54369 0
M  V30 5227 H 526.725 0.776336 1.24946 0
M  V30 5228 H 528.683 -0.329404 4.15898 0
M  V30 5229 H 527.313 -0.811244 3.1244 0
M  V30 5230 H 526.365 1.58564 3.45777 0
M  V30 5231 H 527.677 1.87773 4.62107 0
M  V30 5232 H 526.831 0.0179688 6.06697 0
M  V30 5233 H 525.57 -0.370481 4.86291 0
M  V30 5234 H 524.575 1.91601 5.15334 0
M  V30 5235 H 525.8 2.29645 6.39093 0
M  V30 5236 H 523.746 0.0587882 6.55974 0
M  V30 5237 H 523.663 1.57567 7.39397 0
M  V30 5238 H 524.931 0.451559 7.78191 0
M  V30 5239 N 529.16 -1.33526 0.837174 0
M  V30 5240 C 530.123 -2.27551 0.274421 0
M  V30 5241 C 531.123 -1.50886 -0.555881 0
M  V30 5242 O 532.313 -1.70227 -0.369918 0
M  V30 5243 C 529.445 -3.35332 -0.613605 0
M  V30 5244 H 530.638 -2.78837 1.10408 0
M  V30 5245 H 528.191 -1.439 0.610126 0
M  V30 5246 H 528.926 -2.89285 -1.46577 0
M  V30 5247 H 528.711 -3.92095 -0.0195341 0
M  V30 5248 H 530.201 -4.05433 -1.00068 0
M  V30 5249 N 530.638 -0.59345 -1.46 0
M  V30 5250 C 531.866 -0.0890934 -2.06708 0
M  V30 5251 C 532.281 1.2205 -1.44046 0
M  V30 5252 O 531.638 1.74029 -0.549551 0
M  V30 5253 C 531.689 0.0720263 -3.61428 0
M  V30 5254 O 531.41 -1.18574 -4.21748 0
M  V30 5255 C 532.911 0.609487 -4.3909 0
M  V30 5256 H 530.131 -0.0623628 -0.668096 0
M  V30 5257 H 532.675 -0.817171 -1.87464 0
M  V30 5258 H 530.83 0.750369 -3.80063 0
M  V30 5259 H 531.244 -1.0064 -5.14754 0
M  V30 5260 H 532.718 0.671363 -5.47902 0
M  V30 5261 H 533.195 1.62878 -4.07882 0
M  V30 5262 H 533.801 -0.03434 -4.25286 0
M  V30 5263 N 532.116 1.54067 -0.331816 0
M  V30 5264 C 533.064 2.26105 0.54582 0
M  V30 5265 C 534.058 1.27816 1.11173 0
M  V30 5266 O 535.264 1.45565 1.05882 0
M  V30 5267 H 531.639 0.726363 0.194683 0
M  V30 5268 H 533.61 2.98282 -0.083931 0
M  V30 5269 C 532.359 3.03814 1.69092 0
M  V30 5270 H 531.682 3.79269 1.26473 0
M  V30 5271 H 533.122 3.57453 2.28043 0
M  V30 5272 C 531.581 2.12606 2.61343 0
M  V30 5273 O 532.111 1.71437 3.6328 0
M  V30 5274 N 530.317 1.77925 2.29763 0
M  V30 5275 H 529.864 2.11602 1.46909 0
M  V30 5276 H 529.822 1.1718 2.91747 0
M  V30 5277 N 533.594 0.0601682 1.57485 0
M  V30 5278 C 534.544 -0.920969 2.08572 0
M  V30 5279 C 535.528 -1.26617 0.992827 0
M  V30 5280 O 536.72 -1.24708 1.25606 0
M  V30 5281 C 533.849 -2.19267 2.64153 0
M  V30 5282 C 532.935 -1.87447 3.80427 0
M  V30 5283 N 533.326 -1.26025 4.89848 0
M  V30 5284 C 531.624 -2.17265 3.89502 0
M  V30 5285 C 532.325 -1.12036 5.70809 0
M  V30 5286 N 531.301 -1.62624 5.18705 0
M  V30 5287 H 535.103 -0.441561 2.90564 0
M  V30 5288 H 532.617 -0.144043 1.6176 0
M  V30 5289 H 534.614 -2.90462 2.99061 0
M  V30 5290 H 533.274 -2.67806 1.83603 0
M  V30 5291 H 534.285 -0.931336 5.09457 0
M  V30 5292 H 530.962 -2.68262 3.19909 0
M  V30 5293 H 532.352 -0.642783 6.68818 0
M  V30 5294 N 535.072 -1.5615 -0.213296 0
M  V30 5295 C 536.483 -1.69645 -0.779582 0
M  V30 5296 C 536.834 -0.663615 -1.84636 0
M  V30 5297 O 535.959 0.183633 -2.15619 0
M  V30 5298 C 536.554 -3.07567 -1.42084 0
M  V30 5299 C 535.113 -3.22889 -1.93442 0
M  V30 5300 C 534.26 -2.65581 -0.797612 0
M  V30 5301 H 537.211 -1.58696 0.0114951 0
M  V30 5302 H 537.232 -3.03884 -2.28986 0
M  V30 5303 H 536.744 -3.82716 -0.644187 0
M  V30 5304 H 534.845 -2.52623 -2.73884 0
M  V30 5305 H 534.958 -4.30197 -2.10872 0
M  V30 5306 H 533.322 -2.24278 -1.20712 0
M  V30 5307 H 534.105 -3.43284 -0.033494 0
M  V30 5308 N 536.55 0.480323 -1.50102 0
M  V30 5309 C 537.798 1.23063 -1.60312 0
M  V30 5310 C 538.119 1.92659 -0.301226 0
M  V30 5311 O 537.389 1.83691 0.680753 0
M  V30 5312 H 535.969 0.457231 -0.590719 0
M  V30 5313 H 538.631 0.554893 -1.86834 0
M  V30 5314 H 537.727 1.9835 -2.40964 0
M  V30 5315 N 538.028 1.39524 0.732853 0
M  V30 5316 C 538.991 1.38189 1.82857 0
M  V30 5317 C 539.991 0.278624 1.58368 0
M  V30 5318 O 541.181 0.536639 1.65728 0
M  V30 5319 C 538.313 1.15661 3.2068 0
M  V30 5320 H 539.506 2.35692 1.85444 0
M  V30 5321 H 537.059 1.2512 0.936728 0
M  V30 5322 H 537.794 0.188482 3.23752 0
M  V30 5323 H 537.579 1.95559 3.39852 0
M  V30 5324 H 539.069 1.17472 4.00737 0
M  V30 5325 N 539.506 -0.963266 1.24736 0
M  V30 5326 C 540.734 -1.74166 1.11686 0
M  V30 5327 C 541.149 -1.8589 -0.330187 0
M  V30 5328 O 540.506 -1.35042 -1.2276 0
M  V30 5329 C 540.557 -3.15989 1.75595 0
M  V30 5330 O 540.278 -3.04847 3.14642 0
M  V30 5331 C 541.779 -4.10145 1.68213 0
M  V30 5332 H 538.999 -0.546031 0.389989 0
M  V30 5333 H 541.543 -1.20907 1.64929 0
M  V30 5334 H 539.698 -3.66219 1.26343 0
M  V30 5335 H 540.112 -3.9425 3.4593 0
M  V30 5336 H 541.586 -5.07299 2.17604 0
M  V30 5337 H 542.063 -4.3445 0.644208 0
M  V30 5338 H 542.669 -3.65827 2.16912 0
M  V30 5339 N 540.985 -1.06182 -1.16461 0
M  V30 5340 C 542.233 -0.776326 -1.86595 0
M  V30 5341 C 542.554 0.69921 -1.82033 0
M  V30 5342 O 541.824 1.50579 -1.2531 0
M  V30 5343 H 540.404 -0.284184 -0.690832 0
M  V30 5344 H 543.066 -1.34308 -1.41235 0
M  V30 5345 H 542.162 -1.10022 -2.92064 0
M  V30 5346 N 542.463 1.3308 -0.844243 0
M  V30 5347 C 543.74 1.92178 -0.364261 0
M  V30 5348 C 544.12 1.76961 1.15101 0
M  V30 5349 O 543.468 1.16128 1.9679 0
M  V30 5350 C 543.678 3.393 -0.817106 0
M  V30 5351 C 545.026 4.16444 -0.828236 0
M  V30 5352 O 546.05 3.47975 -0.761062 0
M  V30 5353 O 544.909 5.38685 -0.920926 0
M  V30 5354 H 542.003 0.820411 -0.10419 0
M  V30 5355 H 544.549 1.41918 -0.930453 0
M  V30 5356 H 543.321 3.44272 -1.85991 0
M  V30 5357 H 542.944 3.96947 -0.227785 0
M  V30 5358 N 543.941 0.601185 1.45683 0
M  V30 5359 C 545.189 0.0936957 2.01883 0
M  V30 5360 C 545.51 -1.2779 1.47291 0
M  V30 5361 O 544.78 -1.84279 0.664691 0
M  V30 5362 H 543.36 0.0316466 0.746329 0
M  V30 5363 H 546.022 0.781137 1.78562 0
M  V30 5364 H 545.118 0.0386297 3.12076 0
M  V30 5365 N 545.419 -1.53889 0.339982 0
M  V30 5366 C 546.349 -2.27843 -0.510856 0
M  V30 5367 C 547.33 -1.29267 -1.10563 0
M  V30 5368 O 548.515 -1.58104 -1.12768 0
M  V30 5369 C 545.645 -3.04857 -1.66372 0
M  V30 5370 C 544.599 -4.10907 -1.19746 0
M  V30 5371 C 543.925 -4.75855 -2.43857 0
M  V30 5372 C 545.225 -5.21435 -0.300501 0
M  V30 5373 H 546.919 -2.99212 0.106067 0
M  V30 5374 H 544.465 -1.43904 0.0524533 0
M  V30 5375 H 546.418 -3.5533 -2.26537 0
M  V30 5376 H 545.142 -2.31133 -2.30749 0
M  V30 5377 H 543.801 -3.61342 -0.618654 0
M  V30 5378 H 543.449 -3.9873 -3.06633 0
M  V30 5379 H 543.149 -5.47502 -2.13343 0
M  V30 5380 H 544.673 -5.2911 -3.04754 0
M  V30 5381 H 546.087 -5.67565 -0.80889 0
M  V30 5382 H 544.484 -6.00036 -0.0874076 0
M  V30 5383 H 545.554 -4.80328 0.664321 0
M  V30 5384 N 546.897 -0.0685191 -1.57451 0
M  V30 5385 C 548.174 0.642167 -1.84758 0
M  V30 5386 C 548.554 1.87991 -0.960344 0
M  V30 5387 O 547.902 2.28485 -0.0257894 0
M  V30 5388 C 548.112 0.982946 -3.34872 0
M  V30 5389 C 549.46 1.35784 -4.02303 0
M  V30 5390 O 550.484 1.07477 -3.39598 0
M  V30 5391 O 549.343 1.88681 -5.12895 0
M  V30 5392 H 546.437 0.318625 -0.763156 0
M  V30 5393 H 548.983 -0.0992015 -1.6941 0
M  V30 5394 H 547.755 0.10372 -3.91163 0
M  V30 5395 H 547.378 1.78119 -3.55471 0
M  V30 5396 N 548.375 1.56261 0.205012 0
M  V30 5397 C 549.621 1.80306 0.9283 0
M  V30 5398 C 549.954 0.640932 1.83319 0
M  V30 5399 O 549.229 -0.359032 1.91158 0
M  V30 5400 C 549.512 3.14547 1.75306 0
M  V30 5401 C 549.365 4.41236 0.873562 0
M  V30 5402 C 550.684 3.45382 2.72762 0
M  V30 5403 H 547.803 0.655929 0.336044 0
M  V30 5404 H 550.445 1.88984 0.196211 0
M  V30 5405 H 548.595 3.0728 2.37721 0
M  V30 5406 H 550.267 4.60539 0.264887 0
M  V30 5407 H 548.51 4.33427 0.179773 0
M  V30 5408 H 549.181 5.31639 1.48541 0
M  V30 5409 H 551.657 3.52884 2.20481 0
M  V30 5410 H 550.533 4.40449 3.2756 0
M  V30 5411 H 550.794 2.68377 3.51321 0
M  V30 5412 N 549.853 -0.472356 1.50355 0
M  V30 5413 C 550.816 -1.5529 1.68576 0
M  V30 5414 C 551.816 -1.50863 0.556511 0
M  V30 5415 O 553.006 -1.53505 0.823516 0
M  V30 5416 C 550.138 -2.94921 1.70981 0
M  V30 5417 H 551.331 -1.40451 2.64978 0
M  V30 5418 H 548.884 -0.698645 1.39816 0
M  V30 5419 H 549.619 -3.15204 0.762675 0
M  V30 5420 H 549.404 -2.99541 2.53017 0
M  V30 5421 H 550.894 -3.73372 1.87037 0
M  V30 5422 N 551.331 -1.39911 -0.725443 0
M  V30 5423 C 552.261 -1.42138 -1.85254 0
M  V30 5424 C 553.242 -0.283513 -1.67721 0
M  V30 5425 O 554.427 -0.490717 -1.87898 0
M  V30 5426 C 551.557 -1.27354 -3.23107 0
M  V30 5427 C 550.511 -2.3864 -3.55296 0
M  V30 5428 C 549.837 -2.08939 -4.92188 0
M  V30 5429 C 551.137 -3.8097 -3.57295 0
M  V30 5430 H 552.831 -2.36461 -1.83648 0
M  V30 5431 H 550.377 -1.13817 -0.882138 0
M  V30 5432 H 552.33 -1.2753 -4.01639 0
M  V30 5433 H 551.054 -0.295025 -3.25265 0
M  V30 5434 H 549.713 -2.37696 -2.79099 0
M  V30 5435 H 549.361 -1.09502 -4.90936 0
M  V30 5436 H 549.061 -2.83491 -5.14691 0
M  V30 5437 H 550.585 -2.10781 -5.73065 0
M  V30 5438 H 551.999 -3.8379 -4.25885 0
M  V30 5439 H 550.396 -4.5496 -3.9132 0
M  V30 5440 H 551.466 -4.11261 -2.5689 0
M  V30 5441 N 552.809 0.956637 -1.25245 0
M  V30 5442 C 553.741 2.05628 -1.01242 0
M  V30 5443 C 554.754 1.62785 0.0219579 0
M  V30 5444 O 555.943 1.77184 -0.216365 0
M  V30 5445 C 553.043 3.35069 -0.508161 0
M  V30 5446 C 552.216 4.06761 -1.60823 0
M  V30 5447 C 551.275 5.14473 -1.1047 0
M  V30 5448 O 550.301 5.40033 -1.79868 0
M  V30 5449 N 551.503 5.80474 0.0550773 0
M  V30 5450 H 554.268 2.2679 -1.95925 0
M  V30 5451 H 551.829 1.12505 -1.16423 0
M  V30 5452 H 553.821 4.044 -0.155819 0
M  V30 5453 H 552.391 3.10694 0.344683 0
M  V30 5454 H 551.611 3.31555 -2.13224 0
M  V30 5455 H 552.899 4.51418 -2.34733 0
M  V30 5456 H 552.297 5.62125 0.635004 0
M  V30 5457 H 550.854 6.50868 0.348469 0
M  V30 5458 N 554.287 1.06798 1.15896 0
M  V30 5459 C 555.25 0.687328 2.18651 0
M  V30 5460 C 556.25 -0.269559 1.58524 0
M  V30 5461 O 557.44 -0.0512627 1.74125 0
M  V30 5462 C 554.572 0.0121642 3.40898 0
M  V30 5463 H 555.765 1.59701 2.53842 0
M  V30 5464 H 553.318 0.863828 1.3026 0
M  V30 5465 H 554.053 -0.910025 3.1127 0
M  V30 5466 H 553.838 0.700309 3.85795 0
M  V30 5467 H 555.328 -0.239703 4.16911 0
M  V30 5468 N 555.766 -1.3263 0.851289 0
M  V30 5469 C 557.014 -1.96978 0.452128 0
M  V30 5470 C 557.335 -1.67715 -0.99482 0
M  V30 5471 O 556.605 -0.98259 -1.69476 0
M  V30 5472 H 555.185 -0.72873 0.164202 0
M  V30 5473 H 557.847 -1.61774 1.08698 0
M  V30 5474 H 556.943 -3.06387 0.594407 0
M  V30 5475 N 557.244 -0.608902 -1.45362 0
M  V30 5476 C 558.207 0.0992563 -2.28985 0
M  V30 5477 C 559.207 0.793841 -1.39838 0
M  V30 5478 O 560.397 0.641804 -1.61946 0
M  V30 5479 C 557.529 1.15073 -3.20891 0
M  V30 5480 H 558.722 -0.635964 -2.93079 0
M  V30 5481 H 556.275 -0.368007 -1.51906 0
M  V30 5482 H 557.01 1.91667 -2.616 0
M  V30 5483 H 556.795 0.656867 -3.86559 0
M  V30 5484 H 558.285 1.64665 -3.83765 0
M  V30 5485 N 558.722 1.53707 -0.348139 0
M  V30 5486 C 559.685 2.23812 0.494058 0
M  V30 5487 C 560.685 1.23989 1.02388 0
M  V30 5488 O 561.875 1.48395 0.912396 0
M  V30 5489 C 559.007 2.96133 1.68872 0
M  V30 5490 H 560.2 2.99663 -0.119141 0
M  V30 5491 H 557.753 1.55983 -0.0995539 0
M  V30 5492 H 558.488 2.24481 2.34049 0
M  V30 5493 H 558.273 3.69357 1.31596 0
M  V30 5494 H 559.763 3.49475 2.28597 0
M  V30 5495 N 560.2 0.0768682 1.57412 0
M  V30 5496 C 561.428 -0.59997 1.9801 0
M  V30 5497 C 561.843 -1.62842 0.955408 0
M  V30 5498 O 561.2 -1.8241 -0.057314 0
M  V30 5499 C 561.251 -1.26401 3.38681 0
M  V30 5500 O 560.972 -0.276723 4.37225 0
M  V30 5501 C 562.473 -2.0282 3.94182 0
M  V30 5502 H 559.693 -0.162239 0.651091 0
M  V30 5503 H 562.237 0.150771 2.03943 0
M  V30 5504 H 560.392 -1.96581 3.33819 0
M  V30 5505 H 560.806 -0.753744 5.19056 0
M  V30 5506 H 562.28 -2.44667 4.94815 0
M  V30 5507 H 562.757 -2.88678 3.31001 0
M  V30 5508 H 563.363 -1.37496 4.02461 0
M  V30 5509 N 561.678 -1.56367 -0.196722 0
M  V30 5510 C 563.094 -1.49916 -0.54749 0
M  V30 5511 C 563.294 -0.77659 -1.85934 0
M  V30 5512 O 562.35 -0.32644 -2.50381 0
M  V30 5513 C 563.663 -2.94577 -0.603734 0
M  V30 5514 C 565.211 -3.05239 -0.692677 0
M  V30 5515 C 565.686 -4.51308 -0.780046 0
M  V30 5516 N 567.177 -4.55453 -0.843616 0
M  V30 5517 C 567.912 -5.65786 -0.931358 0
M  V30 5518 N 567.408 -6.85812 -0.981503 0
M  V30 5519 N 569.201 -5.53695 -0.968421 0
M  V30 5520 H 561.352 -2.01761 0.663803 0
M  V30 5521 H 563.615 -0.918094 0.236238 0
M  V30 5522 H 563.321 -3.50494 0.29105 0
M  V30 5523 H 563.195 -3.47841 -1.45898 0
M  V30 5524 H 565.582 -2.49372 -1.57789 0
M  V30 5525 H 565.663 -2.55103 0.188736 0
M  V30 5526 H 565.307 -5.078 0.100811 0
M  V30 5527 H 565.237 -4.99176 -1.67724 0
M  V30 5528 H 567.728 -3.69025 -0.814176 0
M  V30 5529 H 568.041 -7.65648 -1.04892 0
M  V30 5530 H 566.386 -6.88474 -0.950208 0
M  V30 5531 H 569.577 -4.58848 -0.926072 0
M  V30 5532 H 569.75 -6.39708 -1.03334 0
M  V30 5533 N 563.156 0.464375 -1.50603 0
M  V30 5534 C 564.433 1.22549 -1.5245 0
M  V30 5535 C 564.813 2.09327 -0.273035 0
M  V30 5536 O 564.161 2.16074 0.743242 0
M  V30 5537 C 564.371 2.05074 -2.82393 0
M  V30 5538 C 565.719 2.63036 -3.33313 0
M  V30 5539 O 566.743 2.1531 -2.8376 0
M  V30 5540 O 565.602 3.5001 -4.19709 0
M  V30 5541 H 562.696 0.556471 -0.611775 0
M  V30 5542 H 565.242 0.475648 -1.62898 0
M  V30 5543 H 564.014 1.41169 -3.64948 0
M  V30 5544 H 563.637 2.87179 -2.7498 0
M  V30 5545 N 564.634 1.40294 0.718013 0
M  V30 5546 C 565.564 1.43118 1.84498 0
M  V30 5547 C 566.545 0.292403 1.67568 0
M  V30 5548 O 567.73 0.500675 1.87635 0
M  V30 5549 C 564.86 1.29065 3.22427 0
M  V30 5550 C 563.814 2.40521 3.54025 0
M  V30 5551 C 563.14 2.11546 4.91073 0
M  V30 5552 C 564.44 3.82859 3.55269 0
M  V30 5553 H 566.134 2.37432 1.82391 0
M  V30 5554 H 563.68 1.14283 0.87609 0
M  V30 5555 H 565.633 1.29658 4.00957 0
M  V30 5556 H 564.357 0.312271 3.25104 0
M  V30 5557 H 563.016 2.39173 2.77834 0
M  V30 5558 H 562.664 1.12104 4.90348 0
M  V30 5559 H 562.364 2.86216 5.1318 0
M  V30 5560 H 563.888 2.13817 5.71939 0
M  V30 5561 H 565.302 3.86044 4.23843 0
M  V30 5562 H 563.699 4.57029 3.88902 0
M  V30 5563 H 564.769 4.12617 2.54706 0
M  V30 5564 N 566.112 -0.949982 1.2575 0
M  V30 5565 C 567.022 -2.08109 1.08295 0
M  V30 5566 C 568.038 -1.7399 0.0188181 0
M  V30 5567 O 569.214 -2.00187 0.220724 0
M  V30 5568 C 566.279 -3.39383 0.708534 0
M  V30 5569 C 565.34 -3.8734 1.85111 0
M  V30 5570 C 564.573 -5.12349 1.49447 0
M  V30 5571 O 564.796 -5.6905 0.392212 0
M  V30 5572 O 563.73 -5.5513 2.32624 0
M  V30 5573 H 567.556 -2.25738 2.03165 0
M  V30 5574 H 565.141 -1.06545 1.04731 0
M  V30 5575 H 567.023 -4.18277 0.512061 0
M  V30 5576 H 565.698 -3.23013 -0.210854 0
M  V30 5577 H 564.605 -3.09429 2.10248 0
M  V30 5578 H 565.938 -4.08216 2.74991 0
M  V30 5579 N 567.59 -1.07411 -1.15328 0
M  V30 5580 C 568.82 -0.817595 -1.89734 0
M  V30 5581 C 569.228 0.63297 -1.78298 0
M  V30 5582 O 568.571 1.44594 -1.13306 0
M  V30 5583 C 568.633 -1.14748 -3.40695 0
M  V30 5584 C 568.297 -2.59876 -3.75917 0
M  V30 5585 C 569.294 -3.58122 -3.76888 0
M  V30 5586 C 566.979 -2.95469 -4.06206 0
M  V30 5587 C 568.973 -4.89996 -4.07655 0
M  V30 5588 C 566.66 -4.2754 -4.36638 0
M  V30 5589 C 567.658 -5.24614 -4.37344 0
M  V30 5590 O 567.346 -6.54312 -4.67045 0
M  V30 5591 H 567.078 -0.295175 -0.608151 0
M  V30 5592 H 569.632 -1.43409 -1.47048 0
M  V30 5593 H 567.862 -0.47395 -3.83785 0
M  V30 5594 H 569.551 -0.873397 -3.96392 0
M  V30 5595 H 570.317 -3.31966 -3.53587 0
M  V30 5596 H 566.196 -2.20558 -4.04815 0
M  V30 5597 H 569.74 -5.65759 -4.08121 0
M  V30 5598 H 565.637 -4.53449 -4.59407 0
M  V30 5599 H 566.405 -6.59473 -4.84807 0
M  V30 5600 N 569.068 1.32177 -0.85831 0
M  V30 5601 C 570.317 1.96392 -0.459689 0
M  V30 5602 C 570.63 1.68659 0.990632 0
M  V30 5603 O 571.836 2.26641 1.49485 0
M  V30 5604 C 570.292 3.51542 -0.7711 0
M  V30 5605 C 569.9 3.8813 -2.2374 0
M  V30 5606 C 571.644 4.2221 -0.44038 0
M  V30 5607 C 569.551 5.36341 -2.49183 0
M  V30 5608 H 568.481 0.735007 -0.168169 0
M  V30 5609 H 571.132 1.50518 -1.0496 0
M  V30 5610 H 569.514 3.95846 -0.11058 0
M  V30 5611 H 570.688 3.54824 -2.94001 0
M  V30 5612 H 569.003 3.30497 -2.533 0
M  V30 5613 H 571.6 5.31234 -0.607855 0
M  V30 5614 H 571.943 4.11683 0.618291 0
M  V30 5615 H 572.476 3.83502 -1.05695 0
M  V30 5616 H 569.215 5.51892 -3.53689 0
M  V30 5617 H 568.735 5.7104 -1.83504 0
M  V30 5618 H 570.414 6.03466 -2.33318 0
M  V30 5619 N 570.547 0.616602 1.45037 0
M  V30 5620 C 571.479 -0.135186 2.28801 0
M  V30 5621 C 572.492 -0.82303 1.40464 0
M  V30 5622 O 573.681 -0.686909 1.64754 0
M  V30 5623 C 570.781 -1.21292 3.16451 0
M  V30 5624 C 569.954 -0.61043 4.3312 0
M  V30 5625 C 569.013 -1.58022 5.01912 0
M  V30 5626 O 568.039 -1.10301 5.58411 0
M  V30 5627 N 569.241 -2.91464 5.02025 0
M  V30 5628 H 572.006 0.583612 2.93963 0
M  V30 5629 H 569.567 0.456723 1.55324 0
M  V30 5630 H 571.559 -1.86169 3.59337 0
M  V30 5631 H 570.129 -1.83412 2.53138 0
M  V30 5632 H 569.349 0.216638 3.93604 0
M  V30 5633 H 570.637 -0.188293 5.08451 0
M  V30 5634 H 570.035 -3.32829 4.57429 0
M  V30 5635 H 568.592 -3.51741 5.48745 0
M  V30 5636 N 572.025 -1.5352 0.356285 0
M  V30 5637 C 572.988 -2.24071 -0.482182 0
M  V30 5638 C 573.988 -1.24531 -1.01729 0
M  V30 5639 O 575.178 -1.48876 -0.904513 0
M  V30 5640 C 572.31 -2.97025 -1.67299 0
M  V30 5641 H 573.503 -2.99596 0.135031 0
M  V30 5642 H 571.056 -1.55928 0.107825 0
M  V30 5643 H 571.791 -2.25719 -2.32855 0
M  V30 5644 H 571.576 -3.7005 -1.29636 0
M  V30 5645 H 573.066 -3.50683 -2.26741 0
M  V30 5646 N 573.503 -0.0852151 -1.57369 0
M  V30 5647 C 574.453 0.88767 -2.10011 0
M  V30 5648 C 575.437 1.25021 -1.01285 0
M  V30 5649 O 576.629 1.22694 -1.27574 0
M  V30 5650 C 573.758 2.15037 -2.67608 0
M  V30 5651 C 572.844 1.81371 -3.83361 0
M  V30 5652 N 573.235 1.18216 -4.91791 0
M  V30 5653 C 571.533 2.11041 -3.92909 0
M  V30 5654 C 572.234 1.02941 -5.72519 0
M  V30 5655 N 571.21 1.54351 -5.21226 0
M  V30 5656 H 575.012 0.395279 -2.9123 0
M  V30 5657 H 572.526 0.11829 -1.61969 0
M  V30 5658 H 574.523 2.85667 -3.03644 0
M  V30 5659 H 573.183 2.64851 -1.8784 0
M  V30 5660 H 574.194 0.850168 -5.10874 0
M  V30 5661 H 570.871 2.63138 -3.24136 0
M  V30 5662 H 572.261 0.536298 -6.69756 0
M  V30 5663 N 574.981 1.5647 0.188427 0
M  V30 5664 C 576.392 1.70864 0.752494 0
M  V30 5665 C 576.743 0.692905 1.83557 0
M  V30 5666 O 575.868 -0.149307 2.15884 0
M  V30 5667 C 576.463 3.09789 1.37173 0
M  V30 5668 C 575.022 3.25925 1.88281 0
M  V30 5669 C 574.169 2.66817 0.755259 0
M  V30 5670 H 577.12 1.58657 -0.0367408 0
M  V30 5671 H 577.141 3.07489 2.24122 0
M  V30 5672 H 576.653 3.83693 0.583219 0
M  V30 5673 H 574.754 2.56948 2.6983 0
M  V30 5674 H 574.867 4.33498 2.04001 0
M  V30 5675 H 573.231 2.2617 1.17128 0
M  V30 5676 H 574.014 3.43294 -0.0211237 0
M  V30 5677 N 576.459 -0.456382 1.50847 0
M  V30 5678 C 577.687 -1.23026 1.66349 0
M  V30 5679 C 578.102 -1.85473 0.352868 0
M  V30 5680 O 577.459 -1.69885 -0.666739 0
M  V30 5681 C 577.51 -2.32827 2.76539 0
M  V30 5682 O 577.231 -1.72938 4.02522 0
M  V30 5683 C 578.732 -3.23448 3.03144 0
M  V30 5684 H 575.952 -0.371527 0.558756 0
M  V30 5685 H 578.496 -0.543082 1.97157 0
M  V30 5686 H 576.651 -2.97294 2.48384 0
M  V30 5687 H 577.065 -2.45357 4.63573 0
M  V30 5688 H 578.539 -3.96669 3.83872 0
M  V30 5689 H 579.016 -3.83094 2.14793 0
M  V30 5690 H 579.622 -2.64702 3.32886 0
M  V30 5691 N 577.937 -1.40673 -0.710563 0
M  V30 5692 C 579.167 -1.4234 -1.49742 0
M  V30 5693 C 579.575 -0.022821 -1.89186 0
M  V30 5694 O 578.918 0.964773 -1.56326 0
M  V30 5695 C 578.98 -2.25509 -2.79975 0
M  V30 5696 C 578.644 -3.73862 -2.62824 0
M  V30 5697 C 579.641 -4.66379 -2.29752 0
M  V30 5698 C 577.326 -4.17735 -2.78932 0
M  V30 5699 C 579.32 -6.00756 -2.13006 0
M  V30 5700 C 577.007 -5.5218 -2.61802 0
M  V30 5701 C 578.005 -6.43505 -2.28888 0
M  V30 5702 O 577.693 -7.75472 -2.11894 0
M  V30 5703 H 577.425 -0.487311 -0.468513 0
M  V30 5704 H 579.979 -1.8542 -0.883668 0
M  V30 5705 H 578.209 -1.77218 -3.43701 0
M  V30 5706 H 579.898 -2.19058 -3.41714 0
M  V30 5707 H 580.664 -4.33778 -2.16936 0
M  V30 5708 H 576.543 -3.46967 -3.03537 0
M  V30 5709 H 580.087 -6.72003 -1.87237 0
M  V30 5710 H 575.984 -5.84365 -2.74204 0
M  V30 5711 H 576.752 -7.86458 -2.26775 0
M  V30 5712 N 579.415 0.9433 -1.26252 0
M  V30 5713 C 580.64 1.72898 -1.14547 0
M  V30 5714 C 581.065 1.85761 0.295743 0
M  V30 5715 O 580.423 1.3463 1.21427 0
M  V30 5716 C 580.471 3.11471 -1.8171 0
M  V30 5717 O 579.575 3.97336 -1.10445 0
M  V30 5718 H 578.916 0.530555 -0.399259 0
M  V30 5719 H 581.446 1.18159 -1.67032 0
M  V30 5720 H 581.456 3.61872 -1.88449 0
M  V30 5721 H 580.131 3.01425 -2.86558 0
M  V30 5722 H 578.708 3.55788 -1.11666 0
M  V30 5723 N 580.893 1.08022 1.14757 0
M  V30 5724 C 582.304 0.829144 1.67279 0
M  V30 5725 C 582.655 -0.644721 1.85305 0
M  V30 5726 O 581.78 -1.49838 1.56133 0
M  V30 5727 C 582.375 1.49855 3.03857 0
M  V30 5728 C 580.934 1.29482 3.53428 0
M  V30 5729 C 580.081 1.56386 2.28995 0
M  V30 5730 H 583.032 1.24134 0.988762 0
M  V30 5731 H 583.053 0.923572 3.69121 0
M  V30 5732 H 582.565 2.57123 2.90705 0
M  V30 5733 H 580.666 0.242669 3.71809 0
M  V30 5734 H 580.779 2.01974 4.34446 0
M  V30 5735 H 579.143 0.985217 2.34874 0
M  V30 5736 H 579.926 2.64851 2.18423 0
M  V30 5737 N 582.371 -1.3172 0.865308 0
M  V30 5738 C 583.334 -2.26918 0.322627 0
M  V30 5739 C 584.334 -1.52031 -0.523751 0
M  V30 5740 O 585.524 -1.70973 -0.333727 0
M  V30 5741 C 582.656 -3.36558 -0.542338 0
M  V30 5742 H 583.849 -2.76432 1.16298 0
M  V30 5743 H 581.402 -1.42573 0.640512 0
M  V30 5744 H 582.137 -2.92329 -1.40407 0
M  V30 5745 H 581.922 -3.92048 0.0636395 0
M  V30 5746 H 583.412 -4.07465 -0.91446 0
M  V30 5747 N 583.85 -0.624285 -1.44708 0
M  V30 5748 C 585.098 -0.125802 -2.01708 0
M  V30 5749 C 585.418 1.2543 -1.49306 0
M  V30 5750 O 584.689 1.83198 -0.693924 0
M  V30 5751 H 583.269 -0.0435161 -0.745731 0
M  V30 5752 H 585.931 -0.809446 -1.77296 0
M  V30 5753 H 585.027 -0.0882734 -3.11975 0
M  V30 5754 N 585.328 1.53329 -0.364422 0
M  V30 5755 C 586.576 2.00842 0.225189 0
M  V30 5756 C 586.897 1.25345 1.49378 0
M  V30 5757 O 586.167 0.366396 1.92443 0
M  V30 5758 H 584.747 0.742009 0.0862027 0
M  V30 5759 H 587.409 1.8863 -0.490389 0
M  V30 5760 H 586.505 3.08795 0.452987 0
M  V30 5761 N 586.806 0.0935595 1.57322 0
M  V30 5762 C 588.052 -0.571355 1.94585 0
M  V30 5763 C 588.385 -1.67929 0.975366 0
M  V30 5764 O 587.66 -1.94498 0.00816206 0
M  V30 5765 C 587.943 -1.12797 3.41978 0
M  V30 5766 C 587.796 -0.0251881 4.49793 0
M  V30 5767 C 589.115 -2.02682 3.90651 0
M  V30 5768 H 586.234 -0.206223 0.70756 0
M  V30 5769 H 588.876 0.163956 1.89291 0
M  V30 5770 H 587.026 -1.75461 3.4662 0
M  V30 5771 H 588.698 0.608979 4.57263 0
M  V30 5772 H 586.941 0.641399 4.29032 0
M  V30 5773 H 587.612 -0.455433 5.50118 0
M  V30 5774 H 590.088 -1.49925 3.88152 0
M  V30 5775 H 588.964 -2.38555 4.94351 0
M  V30 5776 H 589.225 -2.94362 3.29854 0
M  V30 5777 N 588.284 -1.56567 -0.180126 0
M  V30 5778 C 589.217 -1.90813 -1.25163 0
M  V30 5779 C 590.195 -0.7699 -1.43218 0
M  V30 5780 O 591.379 -1.02236 -1.58367 0
M  V30 5781 C 588.506 -2.15138 -2.61597 0
M  V30 5782 C 587.552 -3.37834 -2.60328 0
M  V30 5783 S 588.385 -4.92486 -2.1028 0
M  V30 5784 C 589.541 -5.19896 -3.48509 0
M  V30 5785 H 589.774 -2.81398 -0.959283 0
M  V30 5786 H 587.307 -1.49541 -0.3843 0
M  V30 5787 H 589.265 -2.29835 -3.40127 0
M  V30 5788 H 587.926 -1.25276 -2.88036 0
M  V30 5789 H 587.119 -3.52027 -3.60684 0
M  V30 5790 H 586.721 -3.22208 -1.8989 0
M  V30 5791 H 589.013 -5.11334 -4.44459 0
M  V30 5792 H 589.956 -6.21571 -3.39198 0
M  V30 5793 H 590.364 -4.47489 -3.44114 0
M  V30 5794 N 589.762 0.448376 -1.51087 0
M  V30 5795 C 591.011 1.19561 -1.62444 0
M  V30 5796 C 591.324 1.92602 -0.341151 0
M  V30 5797 O 592.53 2.69439 -0.333936 0
M  V30 5798 C 590.986 2.17373 -2.8684 0
M  V30 5799 C 590.594 1.5003 -4.22131 0
M  V30 5800 C 592.338 2.92597 -3.0755 0
M  V30 5801 C 590.245 2.46262 -5.37689 0
M  V30 5802 H 589.175 0.449975 -0.605011 0
M  V30 5803 H 591.826 0.463735 -1.77544 0
M  V30 5804 H 590.208 2.93948 -2.65349 0
M  V30 5805 H 591.382 0.790886 -4.53962 0
M  V30 5806 H 589.697 0.870011 -4.0721 0
M  V30 5807 H 592.294 3.64663 -3.91056 0
M  V30 5808 H 592.637 3.53306 -2.20183 0
M  V30 5809 H 593.17 2.23131 -3.29329 0
M  V30 5810 H 589.909 1.90258 -6.27281 0
M  V30 5811 H 589.429 3.15289 -5.10248 0
M  V30 5812 H 591.108 3.07623 -5.6919 0
M  V30 5813 N 591.24 1.41047 0.703093 0
M  V30 5814 C 592.468 1.4334 1.49202 0
M  V30 5815 C 592.883 0.0365596 1.88765 0
M  V30 5816 O 592.24 -0.942419 1.56284 0
M  V30 5817 C 592.291 2.33538 2.75939 0
M  V30 5818 O 592.012 3.67786 2.38045 0
M  V30 5819 C 593.513 2.44555 3.6974 0
M  V30 5820 H 590.733 0.488472 0.460039 0
M  V30 5821 H 593.277 1.85245 0.86629 0
M  V30 5822 H 591.432 1.94962 3.34766 0
M  V30 5823 H 591.846 4.15816 3.19683 0
M  V30 5824 H 593.32 3.11849 4.55471 0
M  V30 5825 H 593.797 1.47447 4.1371 0
M  V30 5826 H 594.403 2.83735 3.16819 0
M  V30 5827 N 592.718 -0.936591 1.26751 0
M  V30 5828 C 593.628 -2.06949 1.10496 0
M  V30 5829 C 594.644 -1.7396 0.037271 0
M  V30 5830 O 595.82 -1.99941 0.241944 0
M  V30 5831 C 592.885 -3.38612 0.744491 0
M  V30 5832 C 591.946 -3.85355 1.89209 0
M  V30 5833 C 591.179 -5.10735 1.54873 0
M  V30 5834 O 591.402 -5.68602 0.452546 0
M  V30 5835 O 590.336 -5.52632 2.38499 0
M  V30 5836 H 594.162 -2.23571 2.05547 0
M  V30 5837 H 591.747 -1.05428 1.05855 0
M  V30 5838 H 593.629 -4.17711 0.556396 0
M  V30 5839 H 592.304 -3.23218 -0.176582 0
M  V30 5840 H 591.211 -3.07182 2.13518 0
M  V30 5841 H 592.544 -4.05277 2.79305 0
M  V30 5842 N 594.196 -1.08629 -1.14182 0
M  V30 5843 C 595.159 -0.722027 -2.1753 0
M  V30 5844 C 596.159 0.244305 -1.58933 0
M  V30 5845 O 597.349 0.0235545 -1.74184 0
M  V30 5846 C 594.481 -0.0663966 -3.40835 0
M  V30 5847 H 595.674 -1.63719 -2.51269 0
M  V30 5848 H 593.227 -0.884442 -1.28869 0
M  V30 5849 H 593.962 0.860389 -3.12678 0
M  V30 5850 H 593.747 -0.761598 -3.84632 0
M  V30 5851 H 595.237 0.173346 -4.1724 0
M  V30 5852 N 595.674 1.31259 -0.872281 0
M  V30 5853 C 596.92 1.96913 -0.485083 0
M  V30 5854 C 597.253 1.68774 0.960667 0
M  V30 5855 O 596.528 0.985495 1.67685 0
M  V30 5856 C 596.811 3.52299 -0.745502 0
M  V30 5857 C 596.664 3.90002 -2.24095 0
M  V30 5858 C 597.983 4.39582 -0.213516 0
M  V30 5859 H 595.102 0.715252 -0.177716 0
M  V30 5860 H 597.744 1.55347 -1.09395 0
M  V30 5861 H 595.894 3.87835 -0.227276 0
M  V30 5862 H 597.566 3.64555 -2.82661 0
M  V30 5863 H 595.809 3.38526 -2.71261 0
M  V30 5864 H 596.48 4.98352 -2.37381 0
M  V30 5865 H 598.956 4.10882 -0.656902 0
M  V30 5866 H 597.832 5.47251 -0.42516 0
M  V30 5867 H 598.093 4.33158 0.884666 0
M  V30 5868 N 597.152 0.631951 1.44375 0
M  V30 5869 C 598.568 0.297642 1.568 0
M  V30 5870 C 598.768 -1.19916 1.61934 0
M  V30 5871 O 597.824 -1.98324 1.56281 0
M  V30 5872 C 599.137 0.990286 2.83926 0
M  V30 5873 C 600.685 0.968507 2.97639 0
M  V30 5874 C 601.16 1.64163 4.27568 0
M  V30 5875 N 602.651 1.60826 4.34384 0
M  V30 5876 C 603.386 2.09802 5.33639 0
M  V30 5877 N 602.882 2.66973 6.39294 0
M  V30 5878 N 604.675 2.00426 5.25153 0
M  V30 5879 H 596.826 1.60353 1.39286 0
M  V30 5880 H 599.089 0.673142 0.667521 0
M  V30 5881 H 598.795 2.04519 2.8612 0
M  V30 5882 H 598.669 0.528563 3.73478 0
M  V30 5883 H 601.056 -0.0779247 2.94997 0
M  V30 5884 H 601.137 1.46873 2.09433 0
M  V30 5885 H 600.781 2.68752 4.3097 0
M  V30 5886 H 600.711 1.11624 5.14634 0
M  V30 5887 H 603.202 1.19087 3.58646 0
M  V30 5888 H 603.515 3.02074 7.11316 0
M  V30 5889 H 601.86 2.71024 6.39977 0
M  V30 5890 H 605.051 1.55483 4.41523 0
M  V30 5891 H 605.224 2.38906 6.02352 0
M  V30 5892 N 598.631 -1.53133 0.372548 0
M  V30 5893 C 599.879 -2.00958 -0.214534 0
M  V30 5894 C 600.2 -1.26135 -1.48711 0
M  V30 5895 O 599.47 -0.376597 -1.92246 0
M  V30 5896 H 598.05 -0.742456 -0.0822664 0
M  V30 5897 H 600.712 -1.88367 0.500385 0
M  V30 5898 H 599.808 -3.09031 -0.436605 0
M  V30 5899 N 600.109 -0.101901 -1.5727 0
M  V30 5900 C 601.057 0.872034 -2.15635 0
M  V30 5901 C 602.051 1.28742 -1.10099 0
M  V30 5902 O 603.257 1.26116 -1.28432 0
M  V30 5903 H 599.632 0.299269 -0.689886 0
M  V30 5904 H 601.603 0.355137 -2.96279 0
M  V30 5905 C 600.352 2.11886 -2.7568 0
M  V30 5906 H 599.675 1.80813 -3.56576 0
M  V30 5907 H 601.115 2.78077 -3.20077 0
M  V30 5908 C 599.574 2.89739 -1.7191 0
M  V30 5909 O 600.104 3.84522 -1.16213 0
M  V30 5910 N 598.31 2.53407 -1.42245 0
M  V30 5911 H 597.857 1.76398 -1.87727 0
M  V30 5912 H 597.815 3.05795 -0.730529 0
M  V30 5913 N 601.587 1.56661 0.17182 0
M  V30 5914 C 602.835 1.81606 0.886774 0
M  V30 5915 C 603.156 0.678818 1.82803 0
M  V30 5916 O 602.426 -0.301354 1.93568 0
M  V30 5917 H 601.006 0.669934 0.330451 0
M  V30 5918 H 603.668 1.94142 0.171757 0
M  V30 5919 H 602.764 2.75634 1.46398 0
M  V30 5920 N 603.065 -0.440357 1.51323 0
M  V30 5921 C 604.028 -1.51679 1.71832 0
M  V30 5922 C 605.028 -1.49648 0.588386 0
M  V30 5923 O 606.218 -1.51724 0.855891 0
M  V30 5924 C 603.35 -2.91228 1.77199 0
M  V30 5925 H 604.543 -1.34799 2.67898 0
M  V30 5926 H 602.096 -0.66883 1.41267 0
M  V30 5927 H 602.831 -3.13516 0.829363 0
M  V30 5928 H 602.616 -2.94107 2.59314 0
M  V30 5929 H 604.106 -3.69321 1.94915 0
M  V30 5930 N 604.543 -1.41418 -0.695603 0
M  V30 5931 C 605.792 -1.40073 -1.4513 0
M  V30 5932 C 606.105 -0.0130439 -1.95596 0
M  V30 5933 O 607.311 0.123032 -2.71221 0
M  V30 5934 C 605.767 -2.46286 -2.62433 0
M  V30 5935 C 605.375 -3.90962 -2.18753 0
M  V30 5936 C 607.119 -2.54077 -3.40066 0
M  V30 5937 C 605.026 -4.88728 -3.33015 0
M  V30 5938 H 603.956 -0.520903 -0.545138 0
M  V30 5939 H 606.607 -1.67242 -0.75515 0
M  V30 5940 H 604.989 -2.12248 -3.34315 0
M  V30 5941 H 606.163 -4.34248 -1.54161 0
M  V30 5942 H 604.478 -3.86831 -1.54114 0
M  V30 5943 H 607.075 -3.24303 -4.25125 0
M  V30 5944 H 607.418 -1.5776 -3.8525 0
M  V30 5945 H 607.951 -2.87206 -2.75241 0
M  V30 5946 H 604.69 -5.86449 -2.92844 0
M  V30 5947 H 604.21 -4.50091 -3.96457 0
M  V30 5948 H 605.889 -5.09483 -3.98793 0
M  V30 5949 N 606.021 0.929856 -1.27246 0
M  V30 5950 C 607.267 1.6798 -1.13625 0
M  V30 5951 C 607.6 1.91586 0.317589 0
M  V30 5952 O 606.875 1.50467 1.23247 0
M  V30 5953 C 607.158 3.04766 -1.91806 0
M  V30 5954 C 607.011 2.88415 -3.45162 0
M  V30 5955 C 608.33 4.05063 -1.72082 0
M  V30 5956 H 605.449 0.609632 -0.414147 0
M  V30 5957 H 608.091 1.0792 -1.56376 0
M  V30 5958 H 606.241 3.56034 -1.55474 0
M  V30 5959 H 607.913 2.44282 -3.91311 0
M  V30 5960 H 606.156 2.23802 -3.71611 0
M  V30 5961 H 606.827 3.85482 -3.95105 0
M  V30 5962 H 609.303 3.62798 -2.03757 0
M  V30 5963 H 608.179 4.98765 -2.29182 0
M  V30 5964 H 608.44 4.37021 -0.668206 0
M  V30 5965 N 607.499 1.09233 1.13605 0
M  V30 5966 C 608.745 0.828385 1.8511 0
M  V30 5967 C 609.078 -0.64437 1.83198 0
M  V30 5968 O 608.353 -1.47428 1.26867 0
M  V30 5969 C 608.636 1.36167 3.33363 0
M  V30 5970 C 608.489 2.90038 3.438 0
M  V30 5971 C 609.808 0.993819 4.28732 0
M  V30 5972 H 606.927 0.30239 0.672108 0
M  V30 5973 H 609.569 1.35339 1.33355 0
M  V30 5974 H 607.719 0.9151 3.77569 0
M  V30 5975 H 609.391 3.43128 3.08319 0
M  V30 5976 H 607.634 3.27271 2.84739 0
M  V30 5977 H 608.305 3.22428 4.48045 0
M  V30 5978 H 610.781 1.37893 3.92587 0
M  V30 5979 H 609.657 1.39403 5.30903 0
M  V30 5980 H 609.918 -0.0982206 4.41991 0
M  V30 5981 N 608.977 -1.30795 0.87923 0
M  V30 5982 C 609.925 -2.30231 0.331112 0
M  V30 5983 C 610.919 -1.59918 -0.558794 0
M  V30 5984 O 612.125 -1.74441 -0.443866 0
M  V30 5985 H 608.5 -0.746785 0.088409 0
M  V30 5986 H 610.471 -2.73925 1.18353 0
M  V30 5987 C 609.22 -3.44848 -0.444401 0
M  V30 5988 H 608.543 -3.99131 0.231106 0
M  V30 5989 H 609.983 -4.16516 -0.793109 0
M  V30 5990 C 608.442 -2.94329 -1.63926 0
M  V30 5991 O 608.972 -2.93875 -2.73862 0
M  V30 5992 N 607.178 -2.50413 -1.4745 0
M  V30 5993 H 606.725 -2.50982 -0.58015 0
M  V30 5994 H 606.683 -2.16969 -2.27534 0
M  V30 5995 N 610.455 -0.639598 -1.44038 0
M  V30 5996 C 611.871 -0.305953 -1.5664 0
M  V30 5997 C 612.071 1.19055 -1.62567 0
M  V30 5998 O 611.127 1.97492 -1.57331 0
M  V30 5999 C 612.44 -1.00533 -2.83397 0
M  V30 6000 C 613.988 -0.984278 -2.97121 0
M  V30 6001 C 614.463 -1.66428 -4.26691 0
M  V30 6002 N 615.954 -1.63127 -4.33525 0
M  V30 6003 C 616.689 -2.12629 -5.32519 0
M  V30 6004 N 616.185 -2.70359 -6.3787 0
M  V30 6005 N 617.978 -2.03208 -5.24083 0
M  V30 6006 H 610.129 -1.6109 -1.38434 0
M  V30 6007 H 612.392 -0.676672 -0.663942 0
M  V30 6008 H 612.098 -2.06034 -2.85032 0
M  V30 6009 H 611.972 -0.548362 -3.73193 0
M  V30 6010 H 614.359 0.0622792 -2.95034 0
M  V30 6011 H 614.44 -1.47981 -2.08651 0
M  V30 6012 H 614.084 -2.71034 -4.29538 0
M  V30 6013 H 614.014 -1.14351 -5.14034 0
M  V30 6014 H 616.505 -1.20987 -3.58009 0
M  V30 6015 H 616.818 -3.05842 -7.09704 0
M  V30 6016 H 615.163 -2.74414 -6.38531 0
M  V30 6017 H 618.354 -1.57823 -4.40692 0
M  V30 6018 H 618.527 -2.42097 -6.01077 0
M  V30 6019 N 611.933 1.52934 -0.380664 0
M  V30 6020 C 612.843 2.29921 0.466192 0
M  V30 6021 C 613.859 1.36488 1.07922 0
M  V30 6022 O 615.035 1.69553 1.0869 0
M  V30 6023 C 612.1 3.08468 1.58266 0
M  V30 6024 C 611.161 4.17595 0.995627 0
M  V30 6025 C 610.394 4.92387 2.05889 0
M  V30 6026 O 610.617 4.67184 3.27254 0
M  V30 6027 O 609.551 5.77949 1.68102 0
M  V30 6028 H 613.377 3.03274 -0.160735 0
M  V30 6029 H 610.962 1.48698 -0.144617 0
M  V30 6030 H 612.844 3.57469 2.23145 0
M  V30 6031 H 611.519 2.37937 2.19471 0
M  V30 6032 H 610.426 3.72811 0.310332 0
M  V30 6033 H 611.759 4.90336 0.427918 0
M  V30 6034 N 613.412 0.11024 1.57214 0
M  V30 6035 C 614.66 -0.548783 1.94506 0
M  V30 6036 C 614.981 -1.67772 0.99386 0
M  V30 6037 O 614.251 -1.9584 0.0485841 0
M  V30 6038 H 612.831 -0.205715 0.718116 0
M  V30 6039 H 615.493 0.177127 1.94093 0
M  V30 6040 H 614.589 -0.949096 2.97319 0
M  V30 6041 N 614.89 -1.56749 -0.16351 0
M  V30 6042 C 615.838 -1.97939 -1.22159 0
M  V30 6043 C 616.832 -0.869288 -1.45395 0
M  V30 6044 O 618.038 -1.05443 -1.45883 0
M  V30 6045 H 614.413 -0.629869 -0.410815 0
M  V30 6046 H 616.384 -2.86115 -0.847381 0
M  V30 6047 C 615.133 -2.36206 -2.55151 0
M  V30 6048 H 614.456 -3.2117 -2.38097 0
M  V30 6049 H 615.896 -2.68863 -3.27854 0
M  V30 6050 C 614.355 -1.20841 -3.14482 0
M  V30 6051 O 614.885 -0.500258 -3.98573 0
M  V30 6052 N 613.091 -0.976943 -2.73686 0
M  V30 6053 H 612.638 -1.55457 -2.05404 0
M  V30 6054 H 612.596 -0.206912 -3.13718 0
M  V30 6055 N 616.368 0.432326 -1.51554 0
M  V30 6056 C 617.784 0.769195 -1.39841 0
M  V30 6057 C 617.984 1.95584 -0.484675 0
M  V30 6058 O 617.04 2.52433 0.0582829 0
M  V30 6059 C 618.353 1.04487 -2.81963 0
M  V30 6060 C 619.901 1.149 -2.91148 0
M  V30 6061 C 620.376 1.45758 -4.34187 0
M  V30 6062 N 621.867 1.52671 -4.37317 0
M  V30 6063 C 622.602 1.78129 -5.4503 0
M  V30 6064 N 622.098 2.01345 -6.62897 0
M  V30 6065 N 623.891 1.79953 -5.32516 0
M  V30 6066 H 616.042 -0.349122 -2.09511 0
M  V30 6067 H 618.305 -0.0938113 -0.943347 0
M  V30 6068 H 618.011 0.24557 -3.50842 0
M  V30 6069 H 617.885 1.97119 -3.21596 0
M  V30 6070 H 620.272 1.93891 -2.22464 0
M  V30 6071 H 620.353 0.201568 -2.55005 0
M  V30 6072 H 619.997 0.672917 -5.03423 0
M  V30 6073 H 619.927 2.41715 -4.67848 0
M  V30 6074 H 622.418 1.36612 -3.52343 0
M  V30 6075 H 622.731 2.20155 -7.40778 0
M  V30 6076 H 621.076 1.98657 -6.66003 0
M  V30 6077 H 624.267 1.61337 -4.39418 0
M  V30 6078 H 624.44 1.99455 -6.1654 0
M  V30 6079 N 617.846 1.41785 0.688094 0
M  V30 6080 C 619.093 1.41544 1.44816 0
M  V30 6081 C 619.421 0.0271746 1.94481 0
M  V30 6082 O 618.676 -0.962235 1.7041 0
M  V30 6083 C 618.975 2.37532 2.67046 0
M  V30 6084 C 618.641 3.84209 2.35996 0
M  V30 6085 C 617.303 4.24165 2.27239 0
M  V30 6086 C 619.655 4.76785 2.10536 0
M  V30 6087 C 616.983 5.54695 1.91128 0
M  V30 6088 C 619.335 6.07644 1.75931 0
M  V30 6089 C 617.999 6.46613 1.65675 0
M  V30 6090 H 617.269 0.517945 0.529919 0
M  V30 6091 H 619.916 1.74635 0.785797 0
M  V30 6092 H 618.221 1.9772 3.38251 0
M  V30 6093 H 619.918 2.34615 3.25203 0
M  V30 6094 H 616.508 3.52567 2.4371 0
M  V30 6095 H 620.692 4.46714 2.16242 0
M  V30 6096 H 615.948 5.83762 1.81746 0
M  V30 6097 H 620.122 6.78874 1.55252 0
M  V30 6098 H 617.749 7.47668 1.37463 0
M  V30 6099 N 619.324 -0.923095 1.27737 0
M  V30 6100 C 620.257 -2.02515 1.05181 0
M  V30 6101 C 621.235 -1.62574 -0.0292204 0
M  V30 6102 O 622.419 -1.88137 0.116848 0
M  V30 6103 C 619.546 -3.33407 0.596468 0
M  V30 6104 C 618.592 -3.92328 1.67276 0
M  V30 6105 S 619.425 -4.24342 3.26641 0
M  V30 6106 C 620.581 -5.58308 2.82919 0
M  V30 6107 H 620.814 -2.21336 1.98488 0
M  V30 6108 H 618.347 -1.06679 1.1162 0
M  V30 6109 H 620.305 -4.09086 0.34044 0
M  V30 6110 H 618.966 -3.125 -0.316614 0
M  V30 6111 H 618.159 -4.86797 1.30556 0
M  V30 6112 H 617.761 -3.2325 1.8811 0
M  V30 6113 H 620.053 -6.37801 2.28509 0
M  V30 6114 H 620.996 -5.99931 3.7615 0
M  V30 6115 H 621.404 -5.19049 2.21919 0
M  V30 6116 N 620.802 -1.09834 -1.13024 0
M  V30 6117 C 621.75 -0.736283 -2.20639 0
M  V30 6118 C 622.744 0.264725 -1.67319 0
M  V30 6119 O 623.95 0.125745 -1.7956 0
M  V30 6120 H 620.325 -0.220136 -0.719058 0
M  V30 6121 H 622.296 -1.65295 -2.48436 0
M  V30 6122 C 621.045 -0.177544 -3.47246 0
M  V30 6123 H 620.368 -0.939009 -3.88616 0
M  V30 6124 H 621.808 0.0378007 -4.23983 0
M  V30 6125 C 620.267 1.08824 -3.1884 0
M  V30 6126 O 620.797 2.1708 -3.37993 0
M  V30 6127 N 619.003 1.00442 -2.7269 0
M  V30 6128 H 618.55 0.123383 -2.57304 0
M  V30 6129 H 618.508 1.85206 -2.5406 0
M  V30 6130 N 622.28 1.30327 -0.886154 0
M  V30 6131 C 623.19 2.31854 -0.357866 0
M  V30 6132 C 624.206 1.65392 0.540502 0
M  V30 6133 O 625.382 1.96683 0.433339 0
M  V30 6134 C 622.447 3.44171 0.417999 0
M  V30 6135 C 621.508 4.26257 -0.510263 0
M  V30 6136 C 620.741 5.3321 0.228669 0
M  V30 6137 O 620.964 5.51542 1.45458 0
M  V30 6138 O 619.898 6.0042 -0.421832 0
M  V30 6139 H 623.724 2.78995 -1.19982 0
M  V30 6140 H 621.309 1.34518 -0.650028 0
M  V30 6141 H 623.191 4.12588 0.857251 0
M  V30 6142 H 621.866 2.99164 1.23623 0
M  V30 6143 H 620.773 3.60533 -0.99835 0
M  V30 6144 H 622.106 4.74871 -1.29454 0
M  V30 6145 N 623.758 0.647228 1.43697 0
M  V30 6146 C 625.007 0.155552 2.01099 0
M  V30 6147 C 625.32 -1.23569 1.51624 0
M  V30 6148 O 626.526 -1.82226 2.01261 0
M  V30 6149 C 624.982 0.227296 3.59182 0
M  V30 6150 C 624.59 1.62086 4.17651 0
M  V30 6151 C 626.334 -0.207085 4.23995 0
M  V30 6152 C 624.241 1.64685 5.68008 0
M  V30 6153 H 623.171 0.0543895 0.752036 0
M  V30 6154 H 625.822 0.808386 1.64734 0
M  V30 6155 H 624.204 -0.492937 3.9292 0
M  V30 6156 H 625.378 2.36597 3.95422 0
M  V30 6157 H 623.693 2.0007 3.65186 0
M  V30 6158 H 626.29 -0.207426 5.34298 0
M  V30 6159 H 626.633 -1.23742 3.97484 0
M  V30 6160 H 627.166 0.461193 3.95118 0
M  V30 6161 H 623.905 2.65608 5.99277 0
M  V30 6162 H 623.425 0.944914 5.9231 0
M  V30 6163 H 625.104 1.38792 6.31938 0
M  V30 6164 N 625.236 -1.5273 0.388769 0
M  V30 6165 C 626.464 -2.05992 -0.193677 0
M  V30 6166 C 626.879 -1.26053 -1.40557 0
M  V30 6167 O 626.236 -0.307049 -1.79898 0
M  V30 6168 C 626.287 -3.57068 -0.564321 0
M  V30 6169 O 626.008 -4.3398 0.599422 0
M  V30 6170 C 627.509 -4.26674 -1.20269 0
M  V30 6171 H 624.729 -0.670358 -0.0293445 0
M  V30 6172 H 627.273 -1.96857 0.553844 0
M  V30 6173 H 625.428 -3.66277 -1.26174 0
M  V30 6174 H 625.842 -5.2367 0.294895 0
M  V30 6175 H 627.316 -5.33625 -1.4124 0
M  V30 6176 H 627.793 -3.81854 -2.16989 0
M  V30 6177 H 628.399 -4.2178 -0.546047 0
M  V30 6178 N 626.714 -0.118576 -1.57153 0
M  V30 6179 C 627.942 0.54726 -1.99531 0
M  V30 6180 C 628.357 1.60251 -0.998246 0
M  V30 6181 O 627.714 1.82498 0.00893106 0
M  V30 6182 C 627.765 1.17378 -3.41913 0
M  V30 6183 O 627.486 0.160703 -4.37805 0
M  V30 6184 C 628.987 1.92297 -3.9942 0
M  V30 6185 H 626.207 0.144919 -0.655164 0
M  V30 6186 H 628.751 -0.20479 -2.03472 0
M  V30 6187 H 626.906 1.87661 -3.38913 0
M  V30 6188 H 627.32 0.61586 -5.20872 0
M  V30 6189 H 628.794 2.31462 -5.01128 0
M  V30 6190 H 629.271 2.79801 -3.38538 0
M  V30 6191 H 629.877 1.26777 -4.05965 0
M  V30 6192 N 628.193 1.56834 0.155195 0
M  V30 6193 C 629.609 1.51315 0.50755 0
M  V30 6194 C 629.809 0.825614 1.83809 0
M  V30 6195 O 628.865 0.39271 2.49427 0
M  V30 6196 C 630.178 2.96074 0.52542 0
M  V30 6197 C 631.726 3.06968 0.611505 0
M  V30 6198 C 632.201 4.53218 0.660115 0
M  V30 6199 N 633.692 4.5753 0.722564 0
M  V30 6200 C 634.427 5.68056 0.781023 0
M  V30 6201 N 633.923 6.88173 0.799327 0
M  V30 6202 N 635.716 5.56068 0.821278 0
M  V30 6203 H 627.867 1.9993 -0.717063 0
M  V30 6204 H 630.13 0.911507 -0.260496 0
M  V30 6205 H 629.836 3.49599 -0.383875 0
M  V30 6206 H 629.71 3.51587 1.36624 0
M  V30 6207 H 632.097 2.53468 1.51122 0
M  V30 6208 H 632.178 2.54513 -0.256306 0
M  V30 6209 H 631.822 5.07354 -0.23541 0
M  V30 6210 H 631.752 5.03447 1.5443 0
M  V30 6211 H 634.243 3.71054 0.716049 0
M  V30 6212 H 634.556 7.6816 0.845553 0
M  V30 6213 H 632.901 6.90751 0.767337 0
M  V30 6214 H 636.092 4.61142 0.804091 0
M  V30 6215 H 636.265 6.42223 0.863372 0
M  V30 6216 N 629.671 -0.424282 1.51781 0
M  V30 6217 C 630.948 -1.18464 1.55646 0
M  V30 6218 C 631.328 -2.08529 0.328438 0
M  V30 6219 O 630.676 -2.17969 -0.685693 0
M  V30 6220 C 630.886 -1.97514 2.87731 0
M  V30 6221 C 632.234 -2.54106 3.40169 0
M  V30 6222 O 633.258 -2.07711 2.89369 0
M  V30 6223 O 632.117 -3.38759 4.28841 0
M  V30 6224 H 629.211 -0.540055 0.626314 0
M  V30 6225 H 631.757 -0.432291 1.64102 0
M  V30 6226 H 630.529 -1.31444 3.68562 0
M  V30 6227 H 630.152 -2.79787 2.82498 0
M  V30 6228 N 631.149 -1.42148 -0.680565 0
M  V30 6229 C 632.096 -1.45175 -1.79424 0
M  V30 6230 C 633.066 -0.304352 -1.63288 0
M  V30 6231 O 634.251 -0.507591 -1.83924 0
M  V30 6232 C 631.391 -1.35429 -3.17416 0
M  V30 6233 C 630.504 -2.60158 -3.4488 0
M  V30 6234 C 629.639 -2.42596 -4.72568 0
M  V30 6235 C 628.678 -3.62727 -4.93047 0
M  V30 6236 N 627.815 -3.44143 -6.11973 0
M  V30 6237 H 632.655 -2.40349 -1.76172 0
M  V30 6238 H 630.192 -1.19334 -0.860107 0
M  V30 6239 H 632.15 -1.27777 -3.97151 0
M  V30 6240 H 630.78 -0.438536 -3.19807 0
M  V30 6241 H 629.832 -2.78199 -2.5944 0
M  V30 6242 H 631.144 -3.49473 -3.55908 0
M  V30 6243 H 630.298 -2.32497 -5.60384 0
M  V30 6244 H 629.037 -1.50761 -4.63813 0
M  V30 6245 H 628.042 -3.73264 -4.03676 0
M  V30 6246 H 629.267 -4.55534 -5.03652 0
M  V30 6247 H 627.213 -2.5502 -6.04401 0
M  V30 6248 H 627.13 -4.27041 -6.23836 0
M  V30 6249 H 628.398 -3.37845 -7.02482 0
M  V30 6250 N 632.627 0.916307 -1.28225 0
M  V30 6251 C 633.59 1.99996 -1.11957 0
M  V30 6252 C 634.59 1.60688 -0.0600152 0
M  V30 6253 O 635.78 1.71499 -0.30558 0
M  V30 6254 C 632.912 3.33458 -0.708411 0
M  V30 6255 H 634.105 2.15858 -2.08196 0
M  V30 6256 H 631.658 1.09863 -1.11175 0
M  V30 6257 H 632.393 3.23297 0.254859 0
M  V30 6258 H 632.178 3.63349 -1.47377 0
M  V30 6259 H 633.668 4.13014 -0.617164 0
M  V30 6260 N 634.105 1.10431 1.1244 0
M  V30 6261 C 635.33 0.869089 1.88313 0
M  V30 6262 C 635.755 -0.574912 1.79099 0
M  V30 6263 O 635.113 -1.40496 1.14589 0
M  V30 6264 C 635.161 1.32208 3.3549 0
M  V30 6265 O 634.265 0.487092 4.09513 0
M  V30 6266 H 633.606 0.313894 0.585121 0
M  V30 6267 H 636.136 1.47111 1.42195 0
M  V30 6268 H 636.146 1.31201 3.86329 0
M  V30 6269 H 634.821 2.37364 3.41513 0
M  V30 6270 H 633.398 0.562372 3.68635 0
M  V30 6271 N 635.583 -1.29855 0.893053 0
M  V30 6272 C 636.546 -2.26183 0.370687 0
M  V30 6273 C 637.546 -1.53108 -0.491385 0
M  V30 6274 O 638.736 -1.71643 -0.297386 0
M  V30 6275 C 635.868 -3.37633 -0.470827 0
M  V30 6276 H 637.061 -2.73903 1.22135 0
M  V30 6277 H 634.614 -1.41183 0.67061 0
M  V30 6278 H 635.349 -2.95241 -1.34175 0
M  V30 6279 H 635.134 -3.91825 0.146784 0
M  V30 6280 H 636.624 -4.09313 -0.827825 0
M  V30 6281 N 637.061 -0.65484 -1.43351 0
M  V30 6282 C 638.024 0.0263562 -2.29185 0
M  V30 6283 C 639.024 0.748951 -1.42293 0
M  V30 6284 O 640.214 0.589957 -1.63906 0
M  V30 6285 C 637.346 1.04806 -3.2439 0
M  V30 6286 H 638.539 -0.728883 -2.90908 0
M  V30 6287 H 636.092 -0.416149 -1.50658 0
M  V30 6288 H 636.827 1.83247 -2.67565 0
M  V30 6289 H 636.612 0.533554 -3.88453 0
M  V30 6290 H 638.102 1.52372 -3.88809 0
M  V30 6291 N 638.539 1.52521 -0.396863 0
M  V30 6292 C 639.788 2.00857 0.184184 0
M  V30 6293 C 640.101 1.28733 1.47265 0
M  V30 6294 O 641.307 1.67821 2.13421 0
M  V30 6295 C 639.763 3.57901 0.378787 0
M  V30 6296 C 639.371 4.38931 -0.896873 0
M  V30 6297 C 641.115 4.14504 0.915789 0
M  V30 6298 C 639.022 5.87591 -0.670133 0
M  V30 6299 H 637.952 0.750496 0.0726055 0
M  V30 6300 H 640.603 1.75965 -0.520425 0
M  V30 6301 H 638.985 3.79072 1.14543 0
M  V30 6302 H 640.159 4.29524 -1.66872 0
M  V30 6303 H 638.474 3.93586 -1.35938 0
M  V30 6304 H 641.071 5.23236 1.10126 0
M  V30 6305 H 641.414 3.71076 1.88701 0
M  V30 6306 H 641.947 3.97253 0.208523 0
M  V30 6307 H 638.686 6.35355 -1.61257 0
M  V30 6308 H 638.206 5.99767 0.0626368 0
M  V30 6309 H 639.885 6.46268 -0.307577 0
M  V30 6310 N 640.017 0.126909 1.57088 0
M  V30 6311 C 640.947 -0.816847 2.18746 0
M  V30 6312 C 641.928 -1.27161 1.12979 0
M  V30 6313 O 643.113 -1.33279 1.41246 0
M  V30 6314 C 640.243 -2.06398 2.79315 0
M  V30 6315 C 639.197 -1.74673 3.90735 0
M  V30 6316 C 638.523 -3.06482 4.38147 0
M  V30 6317 C 639.823 -1.0089 5.12463 0
M  V30 6318 H 641.517 -0.303032 2.97863 0
M  V30 6319 H 639.063 -0.144314 1.43275 0
M  V30 6320 H 641.016 -2.72885 3.2111 0
M  V30 6321 H 639.74 -2.60118 1.975 0
M  V30 6322 H 638.399 -1.10572 3.49527 0
M  V30 6323 H 638.047 -3.58152 3.5318 0
M  V30 6324 H 637.747 -2.86025 5.13287 0
M  V30 6325 H 639.271 -3.74073 4.82599 0
M  V30 6326 H 640.685 -1.57546 5.51228 0
M  V30 6327 H 639.082 -0.905006 5.93237 0
M  V30 6328 H 640.152 0.00297335 4.849 0
M  V30 6329 N 641.495 -1.56914 -0.146875 0
M  V30 6330 C 642.427 -1.94878 -1.20645 0
M  V30 6331 C 643.44 -0.844633 -1.39175 0
M  V30 6332 O 644.629 -1.12304 -1.38744 0
M  V30 6333 C 641.729 -2.20769 -2.57127 0
M  V30 6334 C 640.902 -3.52053 -2.59572 0
M  V30 6335 C 639.961 -3.66482 -3.77594 0
M  V30 6336 O 638.987 -4.38873 -3.62462 0
M  V30 6337 N 640.189 -3.03156 -4.95052 0
M  V30 6338 H 642.954 -2.86374 -0.883757 0
M  V30 6339 H 640.515 -1.58366 -0.336436 0
M  V30 6340 H 642.507 -2.27664 -3.34591 0
M  V30 6341 H 641.077 -1.35538 -2.81688 0
M  V30 6342 H 640.297 -3.56598 -1.68023 0
M  V30 6343 H 641.585 -4.38396 -2.58238 0
M  V30 6344 H 640.983 -2.44258 -5.10249 0
M  V30 6345 H 639.54 -3.15611 -5.70292 0
M  V30 6346 N 642.974 0.416227 -1.52004 0
M  V30 6347 C 643.906 1.52552 -1.71058 0
M  V30 6348 C 644.919 1.51693 -0.59102 0
M  V30 6349 O 646.108 1.56087 -0.865973 0
M  V30 6350 C 643.208 2.91455 -1.72937 0
M  V30 6351 C 642.381 3.16584 -3.01816 0
M  V30 6352 C 641.44 4.35322 -2.95603 0
M  V30 6353 O 640.466 4.32947 -3.6952 0
M  V30 6354 N 641.668 5.40049 -2.12903 0
M  V30 6355 H 644.433 1.36604 -2.66757 0
M  V30 6356 H 641.994 0.60544 -1.50153 0
M  V30 6357 H 643.986 3.68944 -1.66321 0
M  V30 6358 H 642.556 3.00895 -0.847418 0
M  V30 6359 H 641.776 2.27203 -3.22137 0
M  V30 6360 H 643.064 3.30213 -3.87088 0
M  V30 6361 H 642.462 5.44823 -1.52265 0
M  V30 6362 H 641.019 6.16308 -2.1215 0
M  V30 6363 N 644.452 1.42507 0.673017 0
M  V30 6364 C 645.399 1.46124 1.78651 0
M  V30 6365 C 646.369 0.313007 1.63124 0
M  V30 6366 O 647.554 0.517337 1.83653 0
M  V30 6367 C 644.694 1.3711 3.16694 0
M  V30 6368 C 643.807 2.61983 3.43495 0
M  V30 6369 C 642.942 2.45098 4.71275 0
M  V30 6370 C 641.981 3.65336 4.91117 0
M  V30 6371 N 641.118 3.47383 6.10139 0
M  V30 6372 H 645.958 2.4128 1.74895 0
M  V30 6373 H 643.495 1.19788 0.853766 0
M  V30 6374 H 645.453 1.29881 3.96468 0
M  V30 6375 H 644.083 0.45549 3.1957 0
M  V30 6376 H 643.135 2.79571 2.57961 0
M  V30 6377 H 644.447 3.51355 3.5405 0
M  V30 6378 H 643.601 2.35466 5.59143 0
M  V30 6379 H 642.34 1.53219 4.63007 0
M  V30 6380 H 641.345 3.754 4.0169 0
M  V30 6381 H 642.57 4.58199 5.01229 0
M  V30 6382 H 640.516 2.58222 6.0304 0
M  V30 6383 H 640.433 4.30344 6.21563 0
M  V30 6384 H 641.701 3.41565 7.00681 0
M  V30 6385 N 645.93 -0.909495 1.28709 0
M  V30 6386 C 647.178 -1.65577 1.15882 0
M  V30 6387 C 647.499 -1.928 -0.292108 0
M  V30 6388 O 646.769 -1.54716 -1.20166 0
M  V30 6389 H 645.349 -0.613714 0.425869 0
M  V30 6390 H 648.011 -1.09108 1.61498 0
M  V30 6391 H 647.107 -2.61634 1.70159 0
M  V30 6392 N 647.408 -1.11026 -1.11852 0
M  V30 6393 C 648.318 -0.777252 -2.2135 0
M  V30 6394 C 649.334 0.227821 -1.72502 0
M  V30 6395 O 650.51 0.0650587 -2.01295 0
M  V30 6396 C 647.575 -0.220668 -3.45997 0
M  V30 6397 C 646.636 -1.2838 -4.09655 0
M  V30 6398 C 645.869 -0.753678 -5.28352 0
M  V30 6399 O 646.092 0.417779 -5.68868 0
M  V30 6400 O 645.026 -1.51647 -5.82483 0
M  V30 6401 H 648.852 -1.69141 -2.5224 0
M  V30 6402 H 646.437 -0.885836 -1.20305 0
M  V30 6403 H 648.319 0.0855756 -4.21313 0
M  V30 6404 H 646.994 0.666262 -3.16769 0
M  V30 6405 H 645.901 -1.64299 -3.3609 0
M  V30 6406 H 647.234 -2.14396 -4.43052 0
M  V30 6407 N 648.886 1.2938 -0.899927 0
M  V30 6408 C 650.111 2.00228 -0.540692 0
M  V30 6409 C 650.536 1.66909 0.867359 0
M  V30 6410 O 649.894 0.893824 1.57735 0
M  V30 6411 C 649.942 3.52921 -0.740232 0
M  V30 6412 O 649.046 4.11879 0.207154 0
M  V30 6413 H 648.387 0.629505 -0.211233 0
M  V30 6414 H 650.917 1.6487 -1.21158 0
M  V30 6415 H 650.927 4.0287 -0.644973 0
M  V30 6416 H 649.602 3.76508 -1.76677 0
M  V30 6417 H 648.179 3.72845 0.0643315 0
M  V30 6418 N 650.364 0.662433 1.43002 0
M  V30 6419 C 651.327 -0.0142016 2.29196 0
M  V30 6420 C 652.327 -0.741394 1.42688 0
M  V30 6421 O 653.517 -0.581257 1.64216 0
M  V30 6422 C 650.649 -1.03084 3.24941 0
M  V30 6423 H 651.842 0.7443 2.90517 0
M  V30 6424 H 649.395 0.424133 1.50435 0
M  V30 6425 H 650.13 -1.81826 2.68533 0
M  V30 6426 H 649.915 -0.512946 3.8873 0
M  V30 6427 H 651.405 -1.50308 3.89612 0
M  V30 6428 N 651.842 -1.52309 0.404946 0
M  V30 6429 C 653.072 -2.05886 -0.171569 0
M  V30 6430 C 653.48 -1.27527 -1.39762 0
M  V30 6431 O 652.823 -0.319215 -1.80905 0
M  V30 6432 C 652.885 -3.54609 -0.590983 0
M  V30 6433 C 652.549 -4.53989 0.523757 0
M  V30 6434 C 653.546 -5.01084 1.38604 0
M  V30 6435 C 651.231 -4.97465 0.695255 0
M  V30 6436 C 653.225 -5.90295 2.4048 0
M  V30 6437 C 650.912 -5.86473 1.71733 0
M  V30 6438 C 651.91 -6.32782 2.57051 0
M  V30 6439 O 651.598 -7.20029 3.57509 0
M  V30 6440 H 651.33 -0.675508 -0.0257763 0
M  V30 6441 H 653.884 -1.97238 0.573278 0
M  V30 6442 H 652.114 -3.60929 -1.38805 0
M  V30 6443 H 653.803 -3.90853 -1.09494 0
M  V30 6444 H 654.569 -4.68214 1.26492 0
M  V30 6445 H 650.448 -4.60982 0.0408447 0
M  V30 6446 H 653.992 -6.26363 3.07108 0
M  V30 6447 H 649.889 -6.18756 1.83877 0
M  V30 6448 H 650.657 -7.3813 3.53703 0
M  V30 6449 N 653.32 -0.135238 -1.57019 0
M  V30 6450 C 654.25 0.805235 -2.19176 0
M  V30 6451 C 655.231 1.2656 -1.13651 0
M  V30 6452 O 656.416 1.32528 -1.4195 0
M  V30 6453 C 653.546 2.04914 -2.80406 0
M  V30 6454 C 652.5 1.72598 -3.91655 0
M  V30 6455 C 651.826 3.04154 -4.39766 0
M  V30 6456 C 653.126 0.981709 -5.12991 0
M  V30 6457 H 654.82 0.287232 -2.98019 0
M  V30 6458 H 652.366 0.136714 -1.4335 0
M  V30 6459 H 654.319 2.71178 -3.22553 0
M  V30 6460 H 653.043 2.59067 -1.98877 0
M  V30 6461 H 651.702 1.08717 -3.50109 0
M  V30 6462 H 651.35 3.56274 -3.55075 0
M  V30 6463 H 651.05 2.83299 -5.14796 0
M  V30 6464 H 652.574 3.71509 -4.84576 0
M  V30 6465 H 653.988 1.5462 -5.52056 0
M  V30 6466 H 652.385 0.873533 -5.93708 0
M  V30 6467 H 653.455 -0.0286887 -4.84892 0
M  V30 6468 N 654.798 1.5699 0.138552 0
M  V30 6469 C 656.044 1.84081 0.85099 0
M  V30 6470 C 656.377 0.718107 1.80435 0
M  V30 6471 O 655.652 -0.277633 1.92508 0
M  V30 6472 C 655.935 3.21699 1.61808 0
M  V30 6473 C 655.788 4.44544 0.685633 0
M  V30 6474 C 657.107 3.5664 2.57868 0
M  V30 6475 H 654.226 0.669592 0.307922 0
M  V30 6476 H 656.868 1.89646 0.11588 0
M  V30 6477 H 655.018 3.17086 2.24474 0
M  V30 6478 H 656.69 4.61248 0.0693179 0
M  V30 6479 H 654.933 4.338 -0.00421993 0
M  V30 6480 H 655.604 5.3746 1.25858 0
M  V30 6481 H 658.08 3.61918 2.05316 0
M  V30 6482 H 656.956 4.53946 3.08584 0
M  V30 6483 H 657.217 2.83036 3.39622 0
M  V30 6484 N 656.276 -0.40816 1.52223 0
M  V30 6485 C 657.523 -1.15502 1.66329 0
M  V30 6486 C 657.851 -1.90474 0.393701 0
M  V30 6487 O 657.106 -1.85507 -0.623356 0
M  V30 6488 C 657.405 -2.17422 2.83659 0
M  V30 6489 C 657.071 -1.5925 4.21841 0
M  V30 6490 C 655.733 -1.4311 4.59427 0
M  V30 6491 C 658.085 -1.16776 5.0795 0
M  V30 6492 C 655.413 -0.830148 5.80797 0
M  V30 6493 C 657.765 -0.580988 6.29926 0
M  V30 6494 C 656.429 -0.406729 6.6626 0
M  V30 6495 H 655.699 -0.422653 0.608642 0
M  V30 6496 H 658.346 -0.442114 1.86327 0
M  V30 6497 H 656.651 -2.94861 2.58001 0
M  V30 6498 H 658.348 -2.75084 2.9177 0
M  V30 6499 H 654.938 -1.72796 3.92224 0
M  V30 6500 H 659.122 -1.28055 4.79495 0
M  V30 6501 H 654.378 -0.68316 6.07571 0
M  V30 6502 H 658.552 -0.243488 6.95974 0
M  V30 6503 H 656.179 0.0610366 7.60175 0
M  V30 6504 N 657.755 -1.42862 -0.66545 0
M  V30 6505 C 659.032 -1.3431 -1.42197 0
M  V30 6506 C 659.412 0.0150265 -2.11095 0
M  V30 6507 O 658.76 1.03101 -2.03918 0
M  V30 6508 C 658.97 -2.51783 -2.41674 0
M  V30 6509 C 660.318 -2.94321 -3.0604 0
M  V30 6510 O 661.342 -2.51741 -2.52001 0
M  V30 6511 O 660.201 -3.68047 -4.03985 0
M  V30 6512 H 657.295 -0.530159 -0.634713 0
M  V30 6513 H 659.841 -1.54888 -0.693386 0
M  V30 6514 H 658.613 -3.42282 -1.89627 0
M  V30 6515 H 658.236 -2.33241 -3.22001 0
M  V30 6516 N 659.233 0.902656 -1.29189 0
M  V30 6517 C 660.51 1.63296 -1.07674 0
M  V30 6518 C 660.89 2.07649 0.380137 0
M  V30 6519 O 660.238 1.82997 1.36837 0
M  V30 6520 C 660.448 2.81603 -2.06158 0
M  V30 6521 C 661.796 3.52359 -2.36914 0
M  V30 6522 O 662.82 2.91767 -2.04329 0
M  V30 6523 O 661.679 4.61586 -2.92576 0
M  V30 6524 H 658.773 0.716889 -0.41231 0
M  V30 6525 H 661.319 0.950984 -1.4055 0
M  V30 6526 H 660.091 2.46004 -3.04299 0
M  V30 6527 H 659.714 3.57508 -1.73993 0
M  V30 6528 N 660.711 1.11618 1.11262 0
M  V30 6529 C 661.936 0.889013 1.8738 0
M  V30 6530 C 662.361 -0.555884 1.79698 0
M  V30 6531 O 661.719 -1.39272 1.16073 0
M  V30 6532 C 661.767 1.35759 3.34069 0
M  V30 6533 O 660.871 0.530499 4.08974 0
M  V30 6534 H 660.212 0.320082 0.581759 0
M  V30 6535 H 662.742 1.48611 1.40627 0
M  V30 6536 H 662.752 1.35291 3.84916 0
M  V30 6537 H 661.427 2.40973 3.38976 0
M  V30 6538 H 660.004 0.601439 3.68018 0
M  V30 6539 N 662.189 -1.289 0.906776 0
M  V30 6540 C 663.438 -1.9455 0.532262 0
M  V30 6541 C 663.751 -1.72219 -0.927353 0
M  V30 6542 O 664.957 -2.32033 -1.40971 0
M  V30 6543 C 663.413 -3.48438 0.901041 0
M  V30 6544 C 663.021 -3.79558 2.37991 0
M  V30 6545 C 664.765 -4.20284 0.596777 0
M  V30 6546 C 662.672 -5.26723 2.68918 0
M  V30 6547 H 661.602 -0.728259 0.195333 0
M  V30 6548 H 664.253 -1.46519 1.10474 0
M  V30 6549 H 662.635 -3.95162 0.257419 0
M  V30 6550 H 663.809 -3.43668 3.06967 0
M  V30 6551 H 662.124 -3.20868 2.65391 0
M  V30 6552 H 664.721 -5.28612 0.8046 0
M  V30 6553 H 665.064 -4.13694 -0.465072 0
M  V30 6554 H 665.597 -3.79315 1.19855 0
M  V30 6555 H 662.336 -5.38384 3.73928 0
M  V30 6556 H 661.856 -5.63836 2.04571 0
M  V30 6557 H 663.535 -5.94391 2.55555 0
M  V30 6558 N 663.667 -0.670007 -1.42649 0
M  V30 6559 C 665.083 -0.33911 -1.55956 0
M  V30 6560 C 665.283 1.1558 -1.65056 0
M  V30 6561 O 664.339 1.94111 -1.61485 0
M  V30 6562 C 665.652 -1.06522 -2.812 0
M  V30 6563 C 667.2 -1.04708 -2.94966 0
M  V30 6564 C 667.675 -1.75442 -4.23065 0
M  V30 6565 N 669.166 -1.72286 -4.29967 0
M  V30 6566 C 669.901 -2.23877 -5.27889 0
M  V30 6567 N 669.397 -2.83829 -6.31991 0
M  V30 6568 N 671.19 -2.14279 -5.19654 0
M  V30 6569 H 663.341 -1.6399 -1.34986 0
M  V30 6570 H 665.604 -0.690603 -0.649439 0
M  V30 6571 H 665.31 -2.12033 -2.80597 0
M  V30 6572 H 665.184 -0.627398 -3.71946 0
M  V30 6573 H 667.571 -0.000315966 -2.951 0
M  V30 6574 H 667.652 -1.52374 -2.05465 0
M  V30 6575 H 667.296 -2.80084 -4.23693 0
M  V30 6576 H 667.226 -1.25229 -5.11493 0
M  V30 6577 H 669.717 -1.28554 -3.55362 0
M  V30 6578 H 670.03 -3.20827 -7.03057 0
M  V30 6579 H 668.375 -2.87896 -6.32567 0
M  V30 6580 H 671.566 -1.67135 -4.37245 0
M  V30 6581 H 671.739 -2.54792 -5.95806 0
M  V30 6582 N 665.145 1.52092 -0.413018 0
M  V30 6583 C 666.092 2.27119 0.410558 0
M  V30 6584 C 667.062 1.29692 1.03774 0
M  V30 6585 O 668.247 1.58561 1.06128 0
M  V30 6586 C 665.387 3.09863 1.51918 0
M  V30 6587 C 664.5 4.22252 0.912528 0
M  V30 6588 C 663.635 4.92348 1.99417 0
M  V30 6589 C 662.674 5.96694 1.36466 0
M  V30 6590 N 661.811 6.60292 2.38661 0
M  V30 6591 H 666.651 2.97067 -0.235661 0
M  V30 6592 H 664.188 1.46542 -0.128055 0
M  V30 6593 H 666.146 3.56144 2.17295 0
M  V30 6594 H 664.776 2.42078 2.13537 0
M  V30 6595 H 663.828 3.80113 0.147697 0
M  V30 6596 H 665.14 4.9709 0.412717 0
M  V30 6597 H 664.294 5.42054 2.72512 0
M  V30 6598 H 663.033 4.17087 2.52764 0
M  V30 6599 H 662.038 5.46304 0.61906 0
M  V30 6600 H 663.263 6.73899 0.838827 0
M  V30 6601 H 661.209 5.87858 2.91134 0
M  V30 6602 H 661.126 7.30816 1.93503 0
M  V30 6603 H 662.394 7.14635 3.11314 0
M  V30 6604 N 666.623 0.143563 1.56945 0
M  V30 6605 C 667.848 -0.518701 2.00809 0
M  V30 6606 C 668.273 -1.5785 1.02298 0
M  V30 6607 O 667.631 -1.813 -0.0017839 0
M  V30 6608 C 667.679 -1.09929 3.43436 0
M  V30 6609 O 666.783 -2.21425 3.47915 0
M  V30 6610 H 666.124 -0.127215 0.6517 0
M  V30 6611 H 668.654 0.239283 2.03196 0
M  V30 6612 H 668.664 -1.4288 3.82164 0
M  V30 6613 H 667.339 -0.323162 4.14643 0
M  V30 6614 H 665.916 -1.89728 3.21026 0
M  V30 6615 N 668.101 -1.57061 -0.130224 0
M  V30 6616 C 669.031 -2.02552 -1.16168 0
M  V30 6617 C 670.012 -0.907971 -1.4384 0
M  V30 6618 O 671.197 -1.17693 -1.54473 0
M  V30 6619 C 668.327 -2.42035 -2.49071 0
M  V30 6620 C 667.281 -3.5713 -2.35886 0
M  V30 6621 C 666.607 -3.82478 -3.7365 0
M  V30 6622 C 667.907 -4.89236 -1.8288 0
M  V30 6623 H 669.601 -2.8897 -0.783359 0
M  V30 6624 H 667.147 -1.39021 -0.375376 0
M  V30 6625 H 669.1 -2.72462 -3.21469 0
M  V30 6626 H 667.824 -1.52573 -2.88771 0
M  V30 6627 H 666.483 -3.26895 -1.65938 0
M  V30 6628 H 666.131 -2.9024 -4.10816 0
M  V30 6629 H 665.831 -4.59944 -3.65685 0
M  V30 6630 H 667.355 -4.15347 -4.47571 0
M  V30 6631 H 668.769 -5.18272 -2.45085 0
M  V30 6632 H 667.166 -5.70624 -1.85763 0
M  V30 6633 H 668.236 -4.78494 -0.785571 0
M  V30 6634 N 669.579 0.400081 -1.52437 0
M  V30 6635 C 670.526 1.48803 -1.76426 0
M  V30 6636 C 671.496 1.5461 -0.607032 0
M  V30 6637 O 672.681 1.71041 -0.845563 0
M  V30 6638 C 669.821 2.86156 -1.92896 0
M  V30 6639 C 668.934 2.89587 -3.20567 0
M  V30 6640 C 668.069 4.18296 -3.27417 0
M  V30 6641 C 667.108 4.15736 -4.49255 0
M  V30 6642 N 666.245 5.36032 -4.53447 0
M  V30 6643 H 671.085 1.27649 -2.69276 0
M  V30 6644 H 668.622 0.619451 -1.33421 0
M  V30 6645 H 670.58 3.65901 -2.00429 0
M  V30 6646 H 669.21 3.05785 -1.03418 0
M  V30 6647 H 668.262 2.02278 -3.22161 0
M  V30 6648 H 669.574 2.83562 -4.10358 0
M  V30 6649 H 668.728 5.06439 -3.34072 0
M  V30 6650 H 667.467 4.27028 -2.35581 0
M  V30 6651 H 666.472 3.25982 -4.42737 0
M  V30 6652 H 667.697 4.08636 -5.42396 0
M  V30 6653 H 665.643 5.45415 -3.64498 0
M  V30 6654 H 665.56 5.32038 -5.37096 0
M  V30 6655 H 666.828 6.26104 -4.64343 0
M  V30 6656 N 671.057 1.43213 0.657864 0
M  V30 6657 C 672.02 1.47687 1.75275 0
M  V30 6658 C 673.02 0.362179 1.56668 0
M  V30 6659 O 674.21 0.623734 1.62651 0
M  V30 6660 C 671.342 1.32497 3.14098 0
M  V30 6661 H 672.535 2.4519 1.7269 0
M  V30 6662 H 670.088 1.2991 0.869087 0
M  V30 6663 H 670.823 0.359831 3.22298 0
M  V30 6664 H 670.608 2.13299 3.29008 0
M  V30 6665 H 672.098 1.38549 3.93946 0
M  V30 6666 N 672.536 -0.895792 1.29666 0
M  V30 6667 C 673.785 -1.64131 1.17234 0
M  V30 6668 C 674.098 -1.93665 -0.274416 0
M  V30 6669 O 675.304 -2.66472 -0.520105 0
M  V30 6670 C 673.76 -2.95764 2.05065 0
M  V30 6671 C 673.368 -2.7381 3.54587 0
M  V30 6672 C 675.112 -3.737 2.01367 0
M  V30 6673 C 673.019 -4.01194 4.34508 0
M  V30 6674 H 671.949 -0.615742 0.435175 0
M  V30 6675 H 674.6 -0.992626 1.54335 0
M  V30 6676 H 672.982 -3.61867 1.60837 0
M  V30 6677 H 674.156 -2.16277 4.06892 0
M  V30 6678 H 672.471 -2.09265 3.59996 0
M  V30 6679 H 675.068 -4.68152 2.58337 0
M  V30 6680 H 675.411 -4.04245 0.994575 0
M  V30 6681 H 675.944 -3.14444 2.43659 0
M  V30 6682 H 672.683 -3.75813 5.37071 0
M  V30 6683 H 672.203 -4.58272 3.86971 0
M  V30 6684 H 673.882 -4.69307 4.45376 0
M  V30 6685 N 674.014 -1.12206 -1.10668 0
M  V30 6686 C 674.924 -0.800686 -2.20513 0
M  V30 6687 C 675.94 0.209512 -1.72734 0
M  V30 6688 O 677.116 0.043705 -2.01353 0
M  V30 6689 C 674.181 -0.257353 -3.45744 0
M  V30 6690 C 673.242 -1.32718 -4.0827 0
M  V30 6691 C 672.475 -0.809674 -5.27522 0
M  V30 6692 O 672.698 0.35742 -5.69279 0
M  V30 6693 O 671.632 -1.57816 -5.80842 0
M  V30 6694 H 675.458 -1.71807 -2.50432 0
M  V30 6695 H 673.043 -0.898546 -1.19359 0
M  V30 6696 H 674.925 0.0408849 -4.2138 0
M  V30 6697 H 673.6 0.632627 -3.17458 0
M  V30 6698 H 672.507 -1.67855 -3.34329 0
M  V30 6699 H 673.84 -2.19083 -4.40753 0
M  V30 6700 N 675.492 1.28418 -0.913599 0
M  V30 6701 C 676.74 1.94596 -0.545594 0
M  V30 6702 C 677.061 1.7227 0.913668 0
M  V30 6703 O 676.331 1.06233 1.64595 0
M  V30 6704 H 674.911 0.720065 -0.198783 0
M  V30 6705 H 677.573 1.56404 -1.16292 0
M  V30 6706 H 676.669 3.03202 -0.739911 0
M  V30 6707 N 676.97 0.677563 1.42291 0
M  V30 6708 C 678.2 0.209155 2.05539 0
M  V30 6709 C 678.608 -1.13987 1.51009 0
M  V30 6710 O 677.951 -1.71976 0.645764 0
M  V30 6711 C 678.013 0.0697758 3.59432 0
M  V30 6712 C 677.677 1.34795 4.36668 0
M  V30 6713 C 678.674 2.28201 4.67141 0
M  V30 6714 C 676.359 1.59632 4.76259 0
M  V30 6715 C 678.353 3.44718 5.36142 0
M  V30 6716 C 676.04 2.76437 5.45 0
M  V30 6717 C 677.038 3.68805 5.74867 0
M  V30 6718 O 676.726 4.83567 6.42198 0
M  V30 6719 H 676.458 0.0986202 0.668768 0
M  V30 6720 H 679.012 0.925483 1.83368 0
M  V30 6721 H 677.242 -0.702157 3.80272 0
M  V30 6722 H 678.931 -0.359115 4.04308 0
M  V30 6723 H 679.697 2.10264 4.37052 0
M  V30 6724 H 675.576 0.886073 4.52404 0
M  V30 6725 H 679.12 4.16833 5.59371 0
M  V30 6726 H 675.017 2.94299 5.74507 0
M  V30 6727 H 675.785 4.83147 6.6069 0
M  V30 6728 N 678.448 -1.51871 0.421078 0
M  V30 6729 C 679.694 -2.02237 -0.151014 0
M  V30 6730 C 680.027 -1.30554 -1.43768 0
M  V30 6731 O 679.302 -0.41546 -1.90011 0
M  V30 6732 C 679.585 -3.5802 -0.386482 0
M  V30 6733 C 679.438 -4.40339 0.9177 0
M  V30 6734 C 680.757 -4.24444 -1.16342 0
M  V30 6735 H 677.876 -0.735062 -0.0534102 0
M  V30 6736 H 680.518 -1.81656 0.556888 0
M  V30 6737 H 678.668 -3.75688 -0.989494 0
M  V30 6738 H 680.34 -4.34357 1.55344 0
M  V30 6739 H 678.583 -4.06073 1.526 0
M  V30 6740 H 679.254 -5.47451 0.707187 0
M  V30 6741 H 681.73 -4.10948 -0.652788 0
M  V30 6742 H 680.606 -5.33358 -1.29693 0
M  V30 6743 H 680.867 -3.84204 -2.18724 0
M  V30 6744 N 679.926 -0.151884 -1.56866 0
M  V30 6745 C 680.876 0.797799 -2.13586 0
M  V30 6746 C 681.86 1.20613 -1.06496 0
M  V30 6747 O 683.052 1.17173 -1.32663 0
M  V30 6748 C 680.181 2.03493 -2.76488 0
M  V30 6749 C 679.267 1.64948 -3.90708 0
M  V30 6750 N 679.658 0.972513 -4.96363 0
M  V30 6751 C 677.956 1.94186 -4.01507 0
M  V30 6752 C 678.657 0.785661 -5.7637 0
M  V30 6753 N 677.633 1.32105 -5.27304 0
M  V30 6754 H 681.435 0.271403 -2.92644 0
M  V30 6755 H 678.949 0.049487 -1.62325 0
M  V30 6756 H 680.946 2.72532 -3.15487 0
M  V30 6757 H 679.606 2.56646 -1.98904 0
M  V30 6758 H 680.617 0.632724 -5.1402 0
M  V30 6759 H 677.294 2.49154 -3.35005 0
M  V30 6760 H 678.684 0.251749 -6.71428 0
M  V30 6761 N 681.404 1.57128 0.121893 0
M  V30 6762 C 682.334 2.03165 1.15092 0
M  V30 6763 C 683.315 0.915587 1.43356 0
M  V30 6764 O 684.5 1.1851 1.53847 0
M  V30 6765 C 681.63 2.43352 2.47784 0
M  V30 6766 C 680.584 3.58376 2.33989 0
M  V30 6767 C 679.91 3.84454 3.71617 0
M  V30 6768 C 681.21 4.90199 1.80283 0
M  V30 6769 H 682.904 2.89382 0.768023 0
M  V30 6770 H 680.45 1.39218 0.367998 0
M  V30 6771 H 682.403 2.74163 3.20019 0
M  V30 6772 H 681.127 1.54103 2.87958 0
M  V30 6773 H 679.786 3.2777 1.64202 0
M  V30 6774 H 679.434 2.92414 4.09271 0
M  V30 6775 H 679.134 4.61877 3.6324 0
M  V30 6776 H 680.658 4.17714 4.45362 0
M  V30 6777 H 682.072 5.19565 2.42333 0
M  V30 6778 H 680.469 5.71601 1.82735 0
M  V30 6779 H 681.539 4.78904 0.760184 0
M  V30 6780 N 682.882 -0.391992 1.52647 0
M  V30 6781 C 683.83 -1.4991 1.77848 0
M  V30 6782 C 684.824 -1.56587 0.646282 0
M  V30 6783 O 686.03 -1.59789 0.828698 0
M  V30 6784 H 682.405 -0.498883 0.56269 0
M  V30 6785 H 684.376 -1.25847 2.70564 0
M  V30 6786 C 683.125 -2.87081 1.96163 0
M  V30 6787 H 682.448 -2.82692 2.82711 0
M  V30 6788 H 683.888 -3.63792 2.17787 0
M  V30 6789 C 682.347 -3.28822 0.733348 0
M  V30 6790 O 682.877 -4.01598 -0.0906481 0
M  V30 6791 N 681.083 -2.85068 0.564317 0
M  V30 6792 H 680.63 -2.26012 1.23598 0
M  V30 6793 H 680.588 -3.13355 -0.256166 0
M  V30 6794 N 684.36 -1.4356 -0.65026 0
M  V30 6795 C 685.609 -1.44619 -1.406 0
M  V30 6796 C 685.922 -0.0752645 -1.95455 0
M  V30 6797 O 687.128 0.0366832 -2.71475 0
M  V30 6798 C 685.584 -2.54511 -2.54465 0
M  V30 6799 C 685.192 -3.97723 -2.06204 0
M  V30 6800 C 686.936 -2.64768 -3.31811 0
M  V30 6801 C 684.843 -4.99075 -3.17298 0
M  V30 6802 H 683.773 -0.537983 -0.52829 0
M  V30 6803 H 686.424 -1.69559 -0.701561 0
M  V30 6804 H 684.806 -2.22777 -3.27393 0
M  V30 6805 H 685.98 -4.38932 -1.40267 0
M  V30 6806 H 684.295 -3.91538 -1.41729 0
M  V30 6807 H 686.892 -3.37664 -4.14593 0
M  V30 6808 H 687.235 -1.69936 -3.80036 0
M  V30 6809 H 687.768 -2.95817 -2.65964 0
M  V30 6810 H 684.507 -5.95469 -2.74038 0
M  V30 6811 H 684.027 -4.62476 -3.81937 0
M  V30 6812 H 685.706 -5.21913 -3.82382 0
M  V30 6813 N 685.838 0.888903 -1.30139 0
M  V30 6814 C 687.084 1.6428 -1.18912 0
M  V30 6815 C 687.417 1.92499 0.256477 0
M  V30 6816 O 686.692 1.54312 1.18397 0
M  V30 6817 C 686.975 2.9851 -2.01405 0
M  V30 6818 C 686.828 2.77288 -3.54163 0
M  V30 6819 C 688.147 3.99383 -1.84882 0
M  V30 6820 H 685.266 0.596148 -0.433333 0
M  V30 6821 H 687.908 1.0289 -1.5973 0
M  V30 6822 H 686.058 3.50907 -1.66722 0
M  V30 6823 H 687.73 2.31709 -3.98884 0
M  V30 6824 H 685.973 2.11867 -3.78543 0
M  V30 6825 H 686.644 3.72717 -4.07168 0
M  V30 6826 H 689.12 3.56132 -2.15196 0
M  V30 6827 H 687.996 4.91222 -2.44934 0
M  V30 6828 H 688.257 4.34674 -0.806902 0
M  V30 6829 N 687.317 1.12792 1.10072 0
M  V30 6830 C 688.264 0.79921 2.16521 0
M  V30 6831 C 689.234 -0.235726 1.64419 0
M  V30 6832 O 690.419 -0.109457 1.90486 0
M  V30 6833 C 687.559 0.264091 3.44088 0
M  V30 6834 C 686.672 1.35729 4.10124 0
M  V30 6835 C 685.807 0.781212 5.25424 0
M  V30 6836 C 684.846 1.85327 5.8337 0
M  V30 6837 N 683.983 1.29564 6.90042 0
M  V30 6838 H 688.823 1.71105 2.43981 0
M  V30 6839 H 686.36 0.854225 1.19756 0
M  V30 6840 H 688.318 -0.0642423 4.17151 0
M  V30 6841 H 686.948 -0.610901 3.16967 0
M  V30 6842 H 686 1.80234 3.34993 0
M  V30 6843 H 687.312 2.16782 4.4923 0
M  V30 6844 H 686.466 0.403769 6.05355 0
M  V30 6845 H 685.205 -0.0604686 4.87663 0
M  V30 6846 H 684.21 2.23986 5.02106 0
M  V30 6847 H 685.435 2.69824 6.23195 0
M  V30 6848 H 683.381 0.475844 6.54272 0
M  V30 6849 H 683.298 2.04271 7.2788 0
M  V30 6850 H 684.566 0.945545 7.73744 0
M  V30 6851 N 688.795 -1.27931 0.920396 0
M  V30 6852 C 689.705 -2.30824 0.419212 0
M  V30 6853 C 690.721 -1.66767 -0.496461 0
M  V30 6854 O 691.897 -1.97763 -0.38104 0
M  V30 6855 C 688.962 -3.45158 -0.326601 0
M  V30 6856 C 688.023 -4.24754 0.623098 0
M  V30 6857 C 687.256 -5.33629 -0.0872172 0
M  V30 6858 O 687.479 -5.55204 -1.30784 0
M  V30 6859 O 686.413 -5.99091 0.580875 0
M  V30 6860 H 690.239 -2.75716 1.27337 0
M  V30 6861 H 687.824 -1.32747 0.685465 0
M  V30 6862 H 689.706 -4.14716 -0.747559 0
M  V30 6863 H 688.381 -3.02336 -1.15648 0
M  V30 6864 H 687.288 -3.57759 1.09359 0
M  V30 6865 H 688.621 -4.71272 1.41998 0
M  V30 6866 N 690.273 -0.685099 -1.4193 0
M  V30 6867 C 691.521 -0.21124 -2.00993 0
M  V30 6868 C 691.842 1.18985 -1.54491 0
M  V30 6869 O 691.112 1.8009 -0.771 0
M  V30 6870 H 689.692 -0.0751059 -0.743215 0
M  V30 6871 H 692.354 -0.883915 -1.73704 0
M  V30 6872 H 691.45 -0.220513 -3.1132 0
M  V30 6873 N 691.751 1.51645 -0.429126 0
M  V30 6874 C 692.698 2.27542 0.386446 0
M  V30 6875 C 693.668 1.30786 1.02393 0
M  V30 6876 O 694.853 1.59678 1.0444 0
M  V30 6877 C 691.993 3.11457 1.48623 0
M  V30 6878 C 691.106 4.23196 0.867691 0
M  V30 6879 C 690.241 4.94435 1.94183 0
M  V30 6880 C 689.28 5.98108 1.30129 0
M  V30 6881 N 688.417 6.62786 2.31644 0
M  V30 6882 H 693.257 2.968 -0.267155 0
M  V30 6883 H 690.794 1.46397 -0.143591 0
M  V30 6884 H 692.752 3.58429 2.13506 0
M  V30 6885 H 691.382 2.44329 2.10957 0
M  V30 6886 H 690.434 3.80248 0.107373 0
M  V30 6887 H 691.746 4.97499 0.35997 0
M  V30 6888 H 690.9 5.44914 2.66747 0
M  V30 6889 H 689.639 4.19744 2.48326 0
M  V30 6890 H 688.644 5.4693 0.561082 0
M  V30 6891 H 689.869 6.74751 0.767303 0
M  V30 6892 H 687.815 5.90913 2.84883 0
M  V30 6893 H 687.732 7.32828 1.85741 0
M  V30 6894 H 689 7.17897 3.03717 0
M  V30 6895 N 693.229 0.160201 1.56784 0
M  V30 6896 C 694.457 -0.494165 2.00912 0
M  V30 6897 C 694.872 -1.57548 1.04038 0
M  V30 6898 O 694.229 -1.82457 0.0394581 0
M  V30 6899 C 694.28 -1.08271 3.44905 0
M  V30 6900 O 694.001 -0.0445704 4.38077 0
M  V30 6901 C 695.502 -1.8164 4.04378 0
M  V30 6902 H 692.722 -0.127498 0.658776 0
M  V30 6903 H 695.266 0.258665 2.02858 0
M  V30 6904 H 693.421 -1.78609 3.4377 0
M  V30 6905 H 693.835 -0.477544 5.22322 0
M  V30 6906 H 695.309 -2.18094 5.07089 0
M  V30 6907 H 695.786 -2.70727 3.45838 0
M  V30 6908 H 696.392 -1.15969 4.09184 0
M  V30 6909 N 694.707 -1.5719 -0.113559 0
M  V30 6910 C 695.956 -1.84325 -0.818984 0
M  V30 6911 C 696.269 -0.746685 -1.80787 0
M  V30 6912 O 697.475 -0.904596 -2.55987 0
M  V30 6913 C 695.931 -3.26818 -1.50724 0
M  V30 6914 C 695.539 -4.44498 -0.559065 0
M  V30 6915 C 697.283 -3.63196 -2.19748 0
M  V30 6916 C 695.19 -5.7802 -1.25086 0
M  V30 6917 H 694.12 -0.687507 -0.309596 0
M  V30 6918 H 696.771 -1.8336 -0.0717621 0
M  V30 6919 H 695.153 -3.22269 -2.30128 0
M  V30 6920 H 696.327 -4.60356 0.202146 0
M  V30 6921 H 694.642 -4.16393 0.024495 0
M  V30 6922 H 697.239 -4.60226 -2.72206 0
M  V30 6923 H 697.582 -2.90899 -2.97798 0
M  V30 6924 H 698.115 -3.69553 -1.47226 0
M  V30 6925 H 694.854 -6.53501 -0.511539 0
M  V30 6926 H 694.374 -5.66038 -1.98395 0
M  V30 6927 H 696.053 -6.2196 -1.78253 0
M  V30 6928 N 696.185 0.383891 -1.52853 0
M  V30 6929 C 697.095 1.49343 -1.80925 0
M  V30 6930 C 698.111 1.59458 -0.696348 0
M  V30 6931 O 699.287 1.75698 -0.984481 0
M  V30 6932 C 696.352 2.84819 -1.97684 0
M  V30 6933 C 695.413 2.84382 -3.21598 0
M  V30 6934 C 694.646 4.13397 -3.37548 0
M  V30 6935 O 694.869 5.08619 -2.58192 0
M  V30 6936 O 693.803 4.20325 -4.30826 0
M  V30 6937 H 697.629 1.2855 -2.75152 0
M  V30 6938 H 695.214 0.572229 -1.38007 0
M  V30 6939 H 697.096 3.65125 -2.10385 0
M  V30 6940 H 695.771 3.05627 -1.06647 0
M  V30 6941 H 694.678 2.0284 -3.14336 0
M  V30 6942 H 696.011 2.68526 -4.12498 0
M  V30 6943 N 697.663 1.43903 0.642637 0
M  V30 6944 C 698.573 1.52349 1.78401 0
M  V30 6945 C 699.589 0.409869 1.69104 0
M  V30 6946 O 700.765 0.665548 1.90085 0
M  V30 6947 C 697.83 1.45408 3.14734 0
M  V30 6948 C 696.891 2.67528 3.35749 0
M  V30 6949 C 696.124 2.60909 4.65577 0
M  V30 6950 O 696.347 1.6627 5.45628 0
M  V30 6951 O 695.281 3.5158 4.88544 0
M  V30 6952 H 699.107 2.48752 1.7423 0
M  V30 6953 H 696.692 1.26021 0.802439 0
M  V30 6954 H 698.574 1.44019 3.96026 0
M  V30 6955 H 697.249 0.521437 3.19473 0
M  V30 6956 H 696.156 2.74487 2.5418 0
M  V30 6957 H 697.489 3.598 3.35864 0
M  V30 6958 N 699.141 -0.881989 1.30609 0
M  V30 6959 C 700.071 -2.00413 1.1982 0
M  V30 6960 C 701.052 -1.69871 0.0881538 0
M  V30 6961 O 702.237 -1.92304 0.2707 0
M  V30 6962 C 699.367 -3.35641 0.89233 0
M  V30 6963 C 698.321 -3.80451 1.96064 0
M  V30 6964 C 697.647 -5.13003 1.5077 0
M  V30 6965 C 698.947 -3.98855 3.37213 0
M  V30 6966 H 700.641 -2.09698 2.13699 0
M  V30 6967 H 698.187 -1.00754 1.02882 0
M  V30 6968 H 700.14 -4.13669 0.803497 0
M  V30 6969 H 698.864 -3.26497 -0.0821381 0
M  V30 6970 H 697.523 -3.04654 2.03916 0
M  V30 6971 H 697.171 -5.0029 0.521417 0
M  V30 6972 H 696.871 -5.43956 2.22229 0
M  V30 6973 H 698.395 -5.93554 1.43271 0
M  V30 6974 H 699.809 -4.67312 3.32103 0
M  V30 6975 H 698.206 -4.41188 4.06784 0
M  V30 6976 H 699.276 -3.02614 3.78883 0
M  V30 6977 N 700.619 -1.13374 -1.09472 0
M  V30 6978 C 701.582 -0.813639 -2.14272 0
M  V30 6979 C 702.582 0.176677 -1.59826 0
M  V30 6980 O 703.772 -0.0503441 -1.74127 0
M  V30 6981 C 700.904 -0.210897 -3.40247 0
M  V30 6982 H 702.097 -1.74229 -2.44099 0
M  V30 6983 H 699.65 -0.938304 -1.25002 0
M  V30 6984 H 700.385 0.726998 -3.16046 0
M  V30 6985 H 700.17 -0.924048 -3.81056 0
M  V30 6986 H 701.66 -0.00377603 -4.176 0
M  V30 6987 N 702.098 1.27442 -0.927168 0
M  V30 6988 C 703.045 2.26863 -0.424459 0
M  V30 6989 C 704.015 1.5813 0.508346 0
M  V30 6990 O 705.2 1.85946 0.42762 0
M  V30 6991 C 702.34 3.43639 0.31718 0
M  V30 6992 C 701.453 4.27087 -0.649675 0
M  V30 6993 C 700.588 5.31082 0.111753 0
M  V30 6994 C 699.627 6.062 -0.847843 0
M  V30 6995 N 698.764 7.01999 -0.119074 0
M  V30 6996 H 703.604 2.69239 -1.27728 0
M  V30 6997 H 701.141 1.32394 -0.641106 0
M  V30 6998 H 703.099 4.10155 0.763486 0
M  V30 6999 H 701.729 3.02217 1.13424 0
M  V30 7000 H 700.781 3.60491 -1.21451 0
M  V30 7001 H 702.093 4.79242 -1.38307 0
M  V30 7002 H 701.247 6.03544 0.618 0
M  V30 7003 H 699.986 4.7973 0.878114 0
M  V30 7004 H 698.991 5.32577 -1.36534 0
M  V30 7005 H 700.216 6.59642 -1.61398 0
M  V30 7006 H 698.162 6.52977 0.629051 0
M  V30 7007 H 698.079 7.5184 -0.792046 0
M  V30 7008 H 699.347 7.78638 0.366537 0
M  V30 7009 N 703.576 0.692616 1.41565 0
M  V30 7010 C 704.508 -0.0137132 2.29196 0
M  V30 7011 C 705.521 -0.747417 1.44629 0
M  V30 7012 O 706.71 -0.598611 1.68163 0
M  V30 7013 C 703.81 -1.04347 3.22436 0
M  V30 7014 C 702.983 -0.379985 4.35746 0
M  V30 7015 C 702.042 -1.31195 5.09583 0
M  V30 7016 O 701.068 -0.805455 5.63472 0
M  V30 7017 N 702.27 -2.64443 5.16769 0
M  V30 7018 H 705.035 0.738614 2.90456 0
M  V30 7019 H 702.596 0.538415 1.52685 0
M  V30 7020 H 704.588 -1.6686 3.687 0
M  V30 7021 H 703.158 -1.69736 2.62504 0
M  V30 7022 H 702.378 0.424975 3.91903 0
M  V30 7023 H 703.666 0.0814904 5.08735 0
M  V30 7024 H 703.064 -3.08114 4.74428 0
M  V30 7025 H 701.621 -3.22159 5.66619 0
M  V30 7026 N 705.054 -1.51416 0.437162 0
M  V30 7027 C 706.303 -2.01275 -0.130865 0
M  V30 7028 C 706.616 -1.32593 -1.438 0
M  V30 7029 O 707.822 -1.7342 -2.08897 0
M  V30 7030 C 706.278 -3.5878 -0.283763 0
M  V30 7031 C 705.886 -4.36399 1.01293 0
M  V30 7032 C 707.63 -4.16786 -0.805569 0
M  V30 7033 C 705.537 -5.85608 0.825687 0
M  V30 7034 H 704.467 -0.752157 -0.0526818 0
M  V30 7035 H 707.118 -1.74524 0.566896 0
M  V30 7036 H 705.5 -3.81976 -1.04452 0
M  V30 7037 H 706.674 -4.24948 1.78201 0
M  V30 7038 H 704.989 -3.89843 1.46326 0
M  V30 7039 H 707.586 -5.25972 -0.962146 0
M  V30 7040 H 707.929 -3.75949 -1.78796 0
M  V30 7041 H 708.462 -3.97666 -0.103125 0
M  V30 7042 H 705.201 -6.30857 1.78045 0
M  V30 7043 H 704.721 -5.99723 0.0964029 0
M  V30 7044 H 706.4 -6.45226 0.478815 0
M  V30 7045 N 706.532 -0.168513 -1.56696 0
M  V30 7046 C 707.809 0.523367 -1.88468 0
M  V30 7047 C 708.189 1.81503 -1.07796 0
M  V30 7048 O 707.537 2.27859 -0.171045 0
M  V30 7049 C 707.747 0.767991 -3.40445 0
M  V30 7050 C 709.095 1.09924 -4.10124 0
M  V30 7051 O 710.119 0.856625 -3.45746 0
M  V30 7052 O 708.978 1.55681 -5.23856 0
M  V30 7053 H 706.072 0.269447 -0.781874 0
M  V30 7054 H 708.618 -0.206739 -1.68436 0
M  V30 7055 H 707.39 -0.145254 -3.9103 0
M  V30 7056 H 707.013 1.55151 -3.66079 0
M  V30 7057 N 708.01 1.57248 0.105221 0
M  V30 7058 C 709.256 1.85845 0.811753 0
M  V30 7059 C 709.589 0.756219 1.78871 0
M  V30 7060 O 708.864 -0.236736 1.93054 0
M  V30 7061 C 709.147 3.25059 1.54947 0
M  V30 7062 C 709 4.45898 0.591185 0
M  V30 7063 C 710.319 3.6203 2.50245 0
M  V30 7064 H 707.438 0.675973 0.293649 0
M  V30 7065 H 710.08 1.89849 0.0756269 0
M  V30 7066 H 708.23 3.21776 2.17698 0
M  V30 7067 H 709.902 4.61291 -0.0285352 0
M  V30 7068 H 708.145 4.33693 -0.0962343 0
M  V30 7069 H 708.816 5.40009 1.1443 0
M  V30 7070 H 711.292 3.66192 1.97593 0
M  V30 7071 H 710.168 4.60389 2.98886 0
M  V30 7072 H 710.429 2.90176 3.33542 0
M  V30 7073 N 709.488 -0.375779 1.53054 0
M  V30 7074 C 710.899 -0.95309 1.6054 0
M  V30 7075 C 711.25 -1.90575 0.466446 0
M  V30 7076 O 710.375 -2.12507 -0.408609 0
M  V30 7077 C 710.97 -1.73537 2.90982 0
M  V30 7078 C 709.529 -2.26218 3.00836 0
M  V30 7079 C 708.676 -1.07157 2.55759 0
M  V30 7080 H 711.627 -0.154895 1.57942 0
M  V30 7081 H 711.648 -2.59574 2.78211 0
M  V30 7082 H 711.16 -1.04176 3.73857 0
M  V30 7083 H 709.261 -2.98852 2.22527 0
M  V30 7084 H 709.374 -2.54799 4.05727 0
M  V30 7085 H 707.738 -1.43553 2.10391 0
M  V30 7086 H 708.521 -0.393099 3.41042 0
M  V30 7087 N 710.966 -1.44241 -0.634997 0
M  V30 7088 C 711.929 -1.50457 -1.72903 0
M  V30 7089 C 712.929 -0.387058 -1.56072 0
M  V30 7090 O 714.119 -0.649531 -1.61638 0
M  V30 7091 C 711.251 -1.37477 -3.1195 0
M  V30 7092 H 712.444 -2.47907 -1.68767 0
M  V30 7093 H 709.997 -1.31276 -0.84831 0
M  V30 7094 H 710.732 -0.41106 -3.21684 0
M  V30 7095 H 710.517 -2.18506 -3.25573 0
M  V30 7096 H 712.007 -1.44799 -3.91692 0
M  V30 7097 N 712.444 0.87505 -1.31075 0
M  V30 7098 C 713.407 1.96333 -1.18263 0
M  V30 7099 C 714.407 1.60416 -0.111106 0
M  V30 7100 O 715.597 1.7044 -0.359987 0
M  V30 7101 C 712.729 3.31036 -0.81414 0
M  V30 7102 H 713.922 2.09125 -2.14958 0
M  V30 7103 H 711.475 1.06271 -1.14614 0
M  V30 7104 H 712.21 3.23944 0.151875 0
M  V30 7105 H 711.995 3.58476 -1.58862 0
M  V30 7106 H 713.485 4.10842 -0.748249 0
M  V30 7107 N 713.922 1.13953 1.08869 0
M  V30 7108 C 714.832 0.835666 2.19212 0
M  V30 7109 C 715.848 -0.182005 1.73045 0
M  V30 7110 O 717.024 -0.0116661 2.01397 0
M  V30 7111 C 714.089 0.312325 3.4529 0
M  V30 7112 C 713.15 1.39196 4.06107 0
M  V30 7113 C 712.383 0.893496 5.26168 0
M  V30 7114 O 712.606 -0.266807 5.69776 0
M  V30 7115 O 711.54 1.67037 5.78258 0
M  V30 7116 H 715.366 1.75769 2.47667 0
M  V30 7117 H 712.951 0.917421 1.17914 0
M  V30 7118 H 714.833 0.0261582 4.21392 0
M  V30 7119 H 713.508 -0.582042 3.18424 0
M  V30 7120 H 712.415 1.73152 3.31616 0
M  V30 7121 H 713.748 2.26068 4.37212 0
M  V30 7122 N 715.4 -1.26948 0.933913 0
M  V30 7123 C 716.33 -2.29017 0.45534 0
M  V30 7124 C 717.311 -1.62961 -0.487605 0
M  V30 7125 O 718.496 -1.90223 -0.391022 0
M  V30 7126 C 715.626 -3.46112 -0.287015 0
M  V30 7127 C 714.58 -4.24205 0.568682 0
M  V30 7128 C 713.906 -5.3384 -0.303206 0
M  V30 7129 C 715.206 -4.88954 1.83633 0
M  V30 7130 H 716.9 -2.69298 1.30839 0
M  V30 7131 H 714.446 -1.29459 0.630579 0
M  V30 7132 H 716.399 -4.16622 -0.6328 0
M  V30 7133 H 715.123 -3.04765 -1.17414 0
M  V30 7134 H 713.782 -3.5545 0.897261 0
M  V30 7135 H 713.43 -4.88734 -1.18947 0
M  V30 7136 H 713.13 -5.86998 0.265879 0
M  V30 7137 H 714.654 -6.0719 -0.644423 0
M  V30 7138 H 716.068 -5.51717 1.55823 0
M  V30 7139 H 714.465 -5.52198 2.34941 0
M  V30 7140 H 715.535 -4.12305 2.55211 0
M  V30 7141 N 716.879 -0.700114 -1.41195 0
M  V30 7142 C 717.842 -0.0465706 -2.29153 0
M  V30 7143 C 718.842 0.703302 -1.44604 0
M  V30 7144 O 720.032 0.537513 -1.657 0
M  V30 7145 C 717.164 0.944324 -3.2756 0
M  V30 7146 H 718.357 -0.821064 -2.88442 0
M  V30 7147 H 715.91 -0.463869 -1.49258 0
M  V30 7148 H 716.645 1.74642 -2.73259 0
M  V30 7149 H 716.43 0.409701 -3.89954 0
M  V30 7150 H 717.92 1.39925 -3.9346 0
M  V30 7151 N 718.357 1.51182 -0.445186 0
M  V30 7152 C 719.304 2.27939 0.362291 0
M  V30 7153 C 720.274 1.31864 1.01 0
M  V30 7154 O 721.459 1.60776 1.02741 0
M  V30 7155 C 718.599 3.13016 1.45311 0
M  V30 7156 C 717.712 4.24093 0.822757 0
M  V30 7157 C 716.847 4.96467 1.88928 0
M  V30 7158 C 715.886 5.99454 1.23778 0
M  V30 7159 N 715.023 6.65206 2.24602 0
M  V30 7160 H 719.863 2.965 -0.29862 0
M  V30 7161 H 717.4 1.46237 -0.15911 0
M  V30 7162 H 719.358 3.60673 2.09692 0
M  V30 7163 H 717.988 2.46553 2.08354 0
M  V30 7164 H 717.04 3.80341 0.0670364 0
M  V30 7165 H 718.352 4.97853 0.307184 0
M  V30 7166 H 717.506 5.47712 2.60953 0
M  V30 7167 H 716.245 4.22355 2.4386 0
M  V30 7168 H 715.25 5.47494 0.503042 0
M  V30 7169 H 716.475 6.75527 0.695694 0
M  V30 7170 H 714.421 5.93901 2.78599 0
M  V30 7171 H 714.338 7.34756 1.77958 0
M  V30 7172 H 715.606 7.21078 2.96085 0
M  V30 7173 N 719.835 0.176821 1.56605 0
M  V30 7174 C 721.063 -0.472828 2.01425 0
M  V30 7175 C 721.478 -1.56436 1.05703 0
M  V30 7176 O 720.835 -1.82405 0.058808 0
M  V30 7177 C 720.886 -1.04607 3.46034 0
M  V30 7178 O 720.607 0.00189608 4.381 0
M  V30 7179 C 722.108 -1.7734 4.06282 0
M  V30 7180 H 719.328 -0.120503 0.660091 0
M  V30 7181 H 721.872 0.280166 2.02572 0
M  V30 7182 H 720.027 -1.74953 3.45645 0
M  V30 7183 H 720.441 -0.422118 5.22799 0
M  V30 7184 H 721.915 -2.12703 5.09374 0
M  V30 7185 H 722.392 -2.67043 3.4869 0
M  V30 7186 H 722.998 -1.11623 4.10391 0
M  V30 7187 N 721.313 -1.57302 -0.09688 0
M  V30 7188 C 722.559 -1.86273 -0.801885 0
M  V30 7189 C 722.892 -0.765694 -1.78468 0
M  V30 7190 O 722.167 0.226495 -1.93177 0
M  V30 7191 C 722.45 -3.25876 -1.53221 0
M  V30 7192 C 722.303 -4.46205 -0.567529 0
M  V30 7193 C 723.622 -3.63352 -2.48321 0
M  V30 7194 H 720.741 -0.67752 -0.29006 0
M  V30 7195 H 723.383 -1.89887 -0.0655577 0
M  V30 7196 H 721.533 -3.22926 -2.15988 0
M  V30 7197 H 723.205 -4.6127 0.0529982 0
M  V30 7198 H 721.448 -4.33636 0.119233 0
M  V30 7199 H 722.119 -5.40608 -1.11564 0
M  V30 7200 H 724.595 -3.67234 -1.95648 0
M  V30 7201 H 723.471 -4.61968 -2.9644 0
M  V30 7202 H 723.732 -2.91941 -3.31998 0
M  V30 7203 N 722.791 0.367657 -1.53252 0
M  V30 7204 C 724.019 1.13119 -1.73239 0
M  V30 7205 C 724.434 1.831 -0.460404 0
M  V30 7206 O 723.791 1.73483 0.566557 0
M  V30 7207 C 723.842 2.16308 -2.89643 0
M  V30 7208 O 723.563 1.49175 -4.1192 0
M  V30 7209 C 725.064 3.05224 -3.21486 0
M  V30 7210 H 722.284 0.338318 -0.579467 0
M  V30 7211 H 724.828 0.42721 -1.99988 0
M  V30 7212 H 722.983 2.82307 -2.65295 0
M  V30 7213 H 723.397 2.17912 -4.7709 0
M  V30 7214 H 724.871 3.73613 -4.06346 0
M  V30 7215 H 725.348 3.69919 -2.36763 0
M  V30 7216 H 725.954 2.44843 -3.47753 0
M  V30 7217 N 724.269 1.44576 0.627338 0
M  V30 7218 C 725.232 1.51372 1.72102 0
M  V30 7219 C 726.232 0.395329 1.55865 0
M  V30 7220 O 727.422 0.658094 1.61291 0
M  V30 7221 C 724.554 1.39129 3.11217 0
M  V30 7222 H 725.747 2.48798 1.6745 0
M  V30 7223 H 723.3 1.31724 0.841336 0
M  V30 7224 H 724.035 0.428114 3.21462 0
M  V30 7225 H 723.82 2.20229 3.24409 0
M  V30 7226 H 725.31 1.46874 3.90919 0
M  V30 7227 N 725.747 -0.868086 1.31537 0
M  V30 7228 C 726.977 -1.65162 1.24118 0
M  V30 7229 C 727.385 -1.88187 -0.195558 0
M  V30 7230 O 726.728 -1.44154 -1.13866 0
M  V30 7231 C 726.79 -3.04119 1.91708 0
M  V30 7232 C 726.454 -3.04194 3.4105 0
M  V30 7233 C 727.451 -2.82016 4.36764 0
M  V30 7234 C 725.136 -3.25256 3.82772 0
M  V30 7235 C 727.13 -2.80881 5.72175 0
M  V30 7236 C 724.817 -3.23749 5.18295 0
M  V30 7237 C 725.815 -3.01589 6.12808 0
M  V30 7238 O 725.503 -2.9993 7.45853 0
M  V30 7239 H 725.235 -0.521597 0.430015 0
M  V30 7240 H 727.789 -1.09165 1.73989 0
M  V30 7241 H 726.019 -3.61849 1.36389 0
M  V30 7242 H 727.708 -3.64701 1.78179 0
M  V30 7243 H 728.474 -2.65525 4.05859 0
M  V30 7244 H 724.353 -3.41534 3.09638 0
M  V30 7245 H 727.897 -2.63503 6.45919 0
M  V30 7246 H 723.794 -3.39781 5.48834 0
M  V30 7247 H 724.562 -3.15979 7.55049 0
M  V30 7248 N 727.225 -1.14528 -1.08264 0
M  V30 7249 C 728.173 -0.829201 -2.17318 0
M  V30 7250 C 729.167 0.193521 -1.68291 0
M  V30 7251 O 730.373 0.0494744 -1.79932 0
M  V30 7252 H 726.748 -0.250435 -0.709074 0
M  V30 7253 H 728.719 -1.75683 -2.41201 0
M  V30 7254 C 727.468 -0.324663 -3.46181 0
M  V30 7255 H 726.791 -1.10299 -3.84284 0
M  V30 7256 H 728.231 -0.142059 -4.23762 0
M  V30 7257 C 726.69 0.952033 -3.23169 0
M  V30 7258 O 727.22 2.02549 -3.46896 0
M  V30 7259 N 725.426 0.887854 -2.76705 0
M  V30 7260 H 724.973 0.0141402 -2.57596 0
M  V30 7261 H 724.931 1.74263 -2.61686 0
M  V30 7262 N 728.703 1.26451 -0.940633 0
M  V30 7263 C 729.951 1.93395 -0.586748 0
M  V30 7264 C 730.272 1.7417 0.876921 0
M  V30 7265 O 729.542 1.097 1.62304 0
M  V30 7266 H 728.122 0.715687 -0.214012 0
M  V30 7267 H 730.784 1.53902 -1.19584 0
M  V30 7268 H 729.88 3.01565 -0.804059 0
M  V30 7269 N 730.181 0.707592 1.40822 0
M  V30 7270 C 731.428 0.243671 2.01029 0
M  V30 7271 C 731.756 -1.16057 1.5608 0
M  V30 7272 O 731.011 -1.7999 0.768251 0
M  V30 7273 C 731.31 0.262892 3.56432 0
M  V30 7274 C 730.976 1.61632 4.20935 0
M  V30 7275 C 729.638 1.98682 4.38268 0
M  V30 7276 C 731.99 2.50619 4.5699 0
M  V30 7277 C 729.318 3.2428 4.88937 0
M  V30 7278 C 731.67 3.75562 5.09054 0
M  V30 7279 C 730.334 4.12739 5.24598 0
M  V30 7280 H 729.604 0.0891654 0.735616 0
M  V30 7281 H 732.251 0.909051 1.68548 0
M  V30 7282 H 730.556 -0.486052 3.88773 0
M  V30 7283 H 732.253 -0.113775 4.00839 0
M  V30 7284 H 728.843 1.31818 4.07826 0
M  V30 7285 H 733.027 2.23272 4.43242 0
M  V30 7286 H 728.283 3.53064 4.99155 0
M  V30 7287 H 732.457 4.44692 5.35931 0
M  V30 7288 H 730.084 5.10132 5.63622 0
M  V30 7289 N 731.66 -1.50943 0.453197 0
M  V30 7290 C 732.906 -2.02512 -0.108082 0
M  V30 7291 C 733.239 -1.33574 -1.40967 0
M  V30 7292 O 732.514 -0.455671 -1.89087 0
M  V30 7293 C 732.797 -3.58759 -0.310453 0
M  V30 7294 C 732.65 -4.38293 1.0109 0
M  V30 7295 C 733.969 -4.26816 -1.07313 0
M  V30 7296 H 731.088 -0.73603 -0.0378064 0
M  V30 7297 H 733.73 -1.80433 0.595295 0
M  V30 7298 H 731.88 -3.77702 -0.909582 0
M  V30 7299 H 733.552 -4.30964 1.64523 0
M  V30 7300 H 731.795 -4.02745 1.61179 0
M  V30 7301 H 732.466 -5.45828 0.82315 0
M  V30 7302 H 734.942 -4.1224 -0.565473 0
M  V30 7303 H 733.818 -5.35989 -1.1835 0
M  V30 7304 H 734.079 -3.88757 -2.10525 0
M  V30 7305 N 733.138 -0.185124 -1.56509 0
M  V30 7306 C 734.085 0.739729 -2.18624 0
M  V30 7307 C 735.055 1.217 -1.13042 0
M  V30 7308 O 736.24 1.28268 -1.41251 0
M  V30 7309 C 733.38 1.95787 -2.84186 0
M  V30 7310 C 732.493 1.52289 -4.04267 0
M  V30 7311 C 731.628 2.69576 -4.57714 0
M  V30 7312 C 730.667 2.22636 -5.70175 0
M  V30 7313 N 729.804 3.33065 -6.18071 0
M  V30 7314 H 734.644 0.203269 -2.97306 0
M  V30 7315 H 732.181 0.0885946 -1.46833 0
M  V30 7316 H 734.139 2.67253 -3.20361 0
M  V30 7317 H 732.769 2.4678 -2.08085 0
M  V30 7318 H 731.821 0.704458 -3.7382 0
M  V30 7319 H 733.133 1.13843 -4.85635 0
M  V30 7320 H 732.287 3.4918 -4.96143 0
M  V30 7321 H 731.026 3.1129 -3.75433 0
M  V30 7322 H 730.031 1.41483 -5.31284 0
M  V30 7323 H 731.256 1.81964 -6.54267 0
M  V30 7324 H 729.202 3.74328 -5.38715 0
M  V30 7325 H 729.119 2.98756 -6.94464 0
M  V30 7326 H 730.387 4.12912 -6.61153 0
M  V30 7327 N 734.616 1.57351 0.0885366 0
M  V30 7328 C 735.841 1.91011 0.80805 0
M  V30 7329 C 736.266 0.780009 1.71165 0
M  V30 7330 O 735.624 -0.268083 1.79307 0
M  V30 7331 C 735.672 3.23562 1.59185 0
M  V30 7332 O 734.776 3.11615 2.7013 0
M  V30 7333 H 734.117 0.625943 0.221565 0
M  V30 7334 H 736.647 2.04507 0.0617954 0
M  V30 7335 H 736.657 3.5703 1.97468 0
M  V30 7336 H 735.332 4.05398 0.928741 0
M  V30 7337 H 733.909 2.89673 2.34827 0
M  V30 7338 N 736.094 -0.359525 1.53444 0
M  V30 7339 C 737.342 -1.09935 1.69584 0
M  V30 7340 C 737.663 -1.89656 0.453371 0
M  V30 7341 O 736.933 -1.8852 -0.53263 0
M  V30 7342 H 735.513 -0.408843 0.625185 0
M  V30 7343 H 738.175 -0.40467 1.90653 0
M  V30 7344 H 737.271 -1.78575 2.55964 0
M  V30 7345 N 737.572 -1.44907 -0.619662 0
M  V30 7346 C 738.519 -1.52654 -1.73105 0
M  V30 7347 C 739.489 -0.373334 -1.6185 0
M  V30 7348 O 740.674 -0.585143 -1.81606 0
M  V30 7349 C 737.814 -1.48769 -3.11387 0
M  V30 7350 C 736.927 -2.74551 -3.33535 0
M  V30 7351 C 736.062 -2.62421 -4.61854 0
M  V30 7352 C 735.101 -3.83312 -4.77219 0
M  V30 7353 N 734.238 -3.69789 -5.96826 0
M  V30 7354 H 739.078 -2.47605 -1.65819 0
M  V30 7355 H 736.615 -1.22875 -0.808719 0
M  V30 7356 H 738.573 -1.44507 -3.91374 0
M  V30 7357 H 737.203 -0.573783 -3.1766 0
M  V30 7358 H 736.255 -2.88953 -2.47408 0
M  V30 7359 H 737.567 -3.64253 -3.40765 0
M  V30 7360 H 736.721 -2.56056 -5.50019 0
M  V30 7361 H 735.46 -1.70298 -4.57001 0
M  V30 7362 H 734.465 -3.90049 -3.87481 0
M  V30 7363 H 735.69 -4.76486 -4.83878 0
M  V30 7364 H 733.636 -2.80426 -5.93041 0
M  V30 7365 H 733.553 -4.53116 -6.05163 0
M  V30 7366 H 734.821 -3.67335 -6.87521 0
M  V30 7367 N 739.05 0.861098 -1.31996 0
M  V30 7368 C 740.327 1.59788 -1.12814 0
M  V30 7369 C 740.707 2.08753 0.313882 0
M  V30 7370 O 740.055 1.87258 1.30946 0
M  V30 7371 C 740.265 2.74901 -2.15012 0
M  V30 7372 C 741.613 3.44643 -2.48004 0
M  V30 7373 O 742.637 2.85119 -2.13508 0
M  V30 7374 O 741.496 4.52044 -3.07113 0
M  V30 7375 H 738.59 0.703408 -0.434909 0
M  V30 7376 H 741.136 0.905788 -1.43505 0
M  V30 7377 H 739.908 2.36198 -3.11971 0
M  V30 7378 H 739.531 3.51792 -1.85279 0
M  V30 7379 N 740.528 1.15101 1.07655 0
M  V30 7380 C 741.491 0.847625 2.12951 0
M  V30 7381 C 742.491 -0.151227 1.60087 0
M  V30 7382 O 743.681 0.0780399 1.74025 0
M  V30 7383 C 740.813 0.265 3.39868 0
M  V30 7384 H 742.006 1.7809 2.41296 0
M  V30 7385 H 739.559 0.958072 1.23494 0
M  V30 7386 H 740.294 -0.676625 3.17163 0
M  V30 7387 H 740.079 0.984554 3.79538 0
M  V30 7388 H 741.569 0.0702121 4.17541 0
M  V30 7389 N 742.006 -1.2595 0.947325 0
M  V30 7390 C 742.938 -2.25336 0.41906 0
M  V30 7391 C 743.951 -1.56135 -0.461051 0
M  V30 7392 O 745.14 -1.76438 -0.270505 0
M  V30 7393 C 742.24 -3.36334 -0.416233 0
M  V30 7394 C 741.413 -4.35088 0.449162 0
M  V30 7395 C 740.472 -5.25185 -0.326716 0
M  V30 7396 O 739.498 -5.68548 0.272374 0
M  V30 7397 N 740.7 -5.57388 -1.6217 0
M  V30 7398 H 743.465 -2.71298 1.27348 0
M  V30 7399 H 741.026 -1.39781 0.81688 0
M  V30 7400 H 743.018 -3.93564 -0.942826 0
M  V30 7401 H 741.588 -2.89819 -1.17148 0
M  V30 7402 H 740.808 -3.76841 1.15692 0
M  V30 7403 H 742.096 -4.98056 1.04008 0
M  V30 7404 H 741.494 -5.2405 -2.13046 0
M  V30 7405 H 740.051 -6.17234 -2.0944 0
M  V30 7406 N 743.484 -0.715051 -1.40445 0
M  V30 7407 C 744.731 -0.254328 -2.00897 0
M  V30 7408 C 745.059 1.15228 -1.56693 0
M  V30 7409 O 744.314 1.7958 -0.777786 0
M  V30 7410 C 744.613 -0.281791 -3.56287 0
M  V30 7411 C 744.279 -1.63862 -4.20071 0
M  V30 7412 C 742.941 -2.01003 -4.37208 0
M  V30 7413 C 745.293 -2.53039 -4.55654 0
M  V30 7414 C 742.621 -3.26869 -4.8721 0
M  V30 7415 C 744.973 -3.78256 -5.07055 0
M  V30 7416 C 743.637 -4.15515 -5.22401 0
M  V30 7417 H 742.907 -0.0930652 -0.735133 0
M  V30 7418 H 745.554 -0.917977 -1.68064 0
M  V30 7419 H 743.859 0.465428 -3.89026 0
M  V30 7420 H 745.556 0.0925158 -4.00893 0
M  V30 7421 H 742.146 -1.33979 -4.07121 0
M  V30 7422 H 746.33 -2.2562 -4.42051 0
M  V30 7423 H 741.586 -3.55706 -4.97276 0
M  V30 7424 H 745.76 -4.47528 -5.33565 0
M  V30 7425 H 743.387 -5.13114 -5.60909 0
M  V30 7426 N 744.962 1.50701 -0.461195 0
M  V30 7427 C 745.872 2.32069 0.343661 0
M  V30 7428 C 746.888 1.42016 1.00535 0
M  V30 7429 O 748.064 1.75077 0.995498 0
M  V30 7430 C 745.129 3.16424 1.41692 0
M  V30 7431 C 744.19 4.22286 0.772869 0
M  V30 7432 C 743.423 5.02609 1.79499 0
M  V30 7433 O 743.646 4.83874 3.0203 0
M  V30 7434 O 742.58 5.86047 1.3723 0
M  V30 7435 H 746.406 3.01996 -0.321268 0
M  V30 7436 H 743.991 1.47723 -0.223235 0
M  V30 7437 H 745.873 3.68795 2.03883 0
M  V30 7438 H 744.548 2.49236 2.0655 0
M  V30 7439 H 743.455 3.73931 0.112277 0
M  V30 7440 H 744.788 4.91915 0.167399 0
M  V30 7441 N 746.441 0.193421 1.56409 0
M  V30 7442 C 747.857 -0.162447 1.58771 0
M  V30 7443 C 748.057 -1.6116 1.20954 0
M  V30 7444 O 747.113 -2.3469 0.931497 0
M  V30 7445 C 748.426 0.138391 3.00381 0
M  V30 7446 C 749.974 0.0783649 3.12902 0
M  V30 7447 C 750.449 0.352491 4.56642 0
M  V30 7448 N 751.94 0.30105 4.62221 0
M  V30 7449 C 752.675 0.487028 5.71328 0
M  V30 7450 N 752.171 0.733265 6.88909 0
M  V30 7451 N 753.964 0.4214 5.60518 0
M  V30 7452 H 746.115 1.13909 1.79272 0
M  V30 7453 H 748.378 0.454528 0.83193 0
M  V30 7454 H 748.084 1.14312 3.32604 0
M  V30 7455 H 747.958 -0.559804 3.73023 0
M  V30 7456 H 750.345 -0.916963 2.80492 0
M  V30 7457 H 750.426 0.809611 2.4265 0
M  V30 7458 H 750.07 1.34513 4.89764 0
M  V30 7459 H 750 -0.399624 5.25081 0
M  V30 7460 H 752.491 0.117279 3.77718 0
M  V30 7461 H 752.804 0.86403 7.67955 0
M  V30 7462 H 751.149 0.770138 6.9072 0
M  V30 7463 H 754.34 0.229461 4.67537 0
M  V30 7464 H 754.513 0.569758 6.4549 0
M  V30 7465 N 747.919 -1.57396 -0.0801906 0
M  V30 7466 C 749.33 -1.75642 -0.633002 0
M  V30 7467 C 749.681 -0.817708 -1.78348 0
M  V30 7468 O 748.806 0.000233743 -2.164 0
M  V30 7469 C 749.401 -3.18502 -1.15507 0
M  V30 7470 C 747.96 -3.38121 -1.65381 0
M  V30 7471 C 747.107 -2.71386 -0.569661 0
M  V30 7472 H 750.058 -1.58027 0.145949 0
M  V30 7473 H 750.079 -3.22198 -2.02408 0
M  V30 7474 H 749.591 -3.86799 -0.317515 0
M  V30 7475 H 747.692 -2.74926 -2.51488 0
M  V30 7476 H 747.805 -4.46521 -1.73654 0
M  V30 7477 H 746.169 -2.33702 -1.0127 0
M  V30 7478 H 746.952 -3.42332 0.257561 0
M  V30 7479 N 749.397 0.351382 -1.53633 0
M  V30 7480 C 750.674 1.10903 -1.6112 0
M  V30 7481 C 751.054 2.06725 -0.427556 0
M  V30 7482 O 750.402 2.20992 0.580916 0
M  V30 7483 C 750.612 1.83561 -2.96827 0
M  V30 7484 C 751.96 2.37587 -3.51906 0
M  V30 7485 O 752.984 1.93669 -2.9895 0
M  V30 7486 O 751.843 3.17913 -4.44515 0
M  V30 7487 H 748.937 0.509558 -0.651368 0
M  V30 7488 H 751.483 0.353504 -1.65977 0
M  V30 7489 H 750.255 1.1371 -3.74414 0
M  V30 7490 H 749.878 2.6599 -2.95525 0
M  V30 7491 N 750.875 1.45233 0.611969 0
M  V30 7492 C 751.805 1.5641 1.73373 0
M  V30 7493 C 752.786 0.415896 1.64937 0
M  V30 7494 O 753.971 0.638478 1.83404 0
M  V30 7495 C 751.101 1.52627 3.11965 0
M  V30 7496 C 750.055 2.66119 3.35208 0
M  V30 7497 C 749.381 2.4739 4.74028 0
M  V30 7498 C 750.681 4.08157 3.25891 0
M  V30 7499 H 752.375 2.50307 1.64277 0
M  V30 7500 H 749.921 1.20467 0.788904 0
M  V30 7501 H 751.874 1.59043 3.90235 0
M  V30 7502 H 750.598 0.552564 3.21892 0
M  V30 7503 H 749.257 2.59123 2.59327 0
M  V30 7504 H 748.905 1.48168 4.80682 0
M  V30 7505 H 748.605 3.23494 4.90536 0
M  V30 7506 H 750.129 2.55653 5.54503 0
M  V30 7507 H 751.543 4.1642 3.9404 0
M  V30 7508 H 749.94 4.84617 3.5393 0
M  V30 7509 H 751.01 4.30374 2.23397 0
M  V30 7510 N 752.353 -0.854086 1.3245 0
M  V30 7511 C 753.764 -1.42427 1.20712 0
M  V30 7512 C 754.115 -1.95371 -0.18013 0
M  V30 7513 O 753.24 -1.87587 -1.07889 0
M  V30 7514 C 753.835 -2.58897 2.18536 0
M  V30 7515 C 752.394 -3.11913 2.10683 0
M  V30 7516 C 751.541 -1.84661 2.06871 0
M  V30 7517 H 754.492 -0.661192 1.4427 0
M  V30 7518 H 754.513 -3.36074 1.78422 0
M  V30 7519 H 754.025 -2.20333 3.19492 0
M  V30 7520 H 752.126 -3.55059 1.12977 0
M  V30 7521 H 752.239 -3.73119 3.00532 0
M  V30 7522 H 750.603 -2.04285 1.52118 0
M  V30 7523 H 751.386 -1.48314 3.09609 0
M  V30 7524 N 753.831 -1.1567 -1.07043 0
M  V30 7525 C 755.247 -0.900006 -1.31803 0
M  V30 7526 C 755.447 0.451293 -1.96381 0
M  V30 7527 O 754.503 1.19252 -2.22565 0
M  V30 7528 C 755.816 -2.04334 -2.20609 0
M  V30 7529 C 757.364 -2.07823 -2.34048 0
M  V30 7530 C 757.839 -3.21488 -3.26204 0
M  V30 7531 N 759.33 -3.21156 -3.33786 0
M  V30 7532 C 760.065 -4.05746 -4.05163 0
M  V30 7533 N 759.561 -5.00407 -4.79129 0
M  V30 7534 N 761.354 -3.93759 -4.01136 0
M  V30 7535 H 753.505 -2.02681 -0.635146 0
M  V30 7536 H 755.768 -0.883956 -0.342528 0
M  V30 7537 H 755.474 -3.01895 -1.80423 0
M  V30 7538 H 755.348 -1.97838 -3.21154 0
M  V30 7539 H 757.735 -1.1086 -2.73485 0
M  V30 7540 H 757.816 -2.18386 -1.33197 0
M  V30 7541 H 757.46 -4.18706 -2.87485 0
M  V30 7542 H 757.39 -3.08162 -4.27017 0
M  V30 7543 H 759.881 -2.52606 -2.81067 0
M  V30 7544 H 760.194 -5.61387 -5.31097 0
M  V30 7545 H 758.539 -5.04393 -4.78135 0
M  V30 7546 H 761.73 -3.19115 -3.42466 0
M  V30 7547 H 761.903 -4.59906 -4.56498 0
M  V30 7548 N 755.309 1.25446 -0.953992 0
M  V30 7549 C 756.219 2.29632 -0.480264 0
M  V30 7550 C 757.235 1.68025 0.452071 0
M  V30 7551 O 758.411 1.98703 0.328472 0
M  V30 7552 C 755.476 3.45903 0.234974 0
M  V30 7553 C 754.537 4.22953 -0.735495 0
M  V30 7554 C 753.77 5.33672 -0.0542957 0
M  V30 7555 O 753.993 5.58477 1.16018 0
M  V30 7556 O 752.927 5.9734 -0.739509 0
M  V30 7557 H 756.753 2.72242 -1.34602 0
M  V30 7558 H 754.338 1.30883 -0.720419 0
M  V30 7559 H 756.22 4.16552 0.637341 0
M  V30 7560 H 754.895 3.05296 1.07592 0
M  V30 7561 H 753.802 3.54734 -1.18806 0
M  V30 7562 H 755.135 4.67341 -1.54444 0
M  V30 7563 N 756.787 0.722489 1.40064 0
M  V30 7564 C 757.717 0.0892452 2.33329 0
M  V30 7565 C 758.698 -0.737992 1.53257 0
M  V30 7566 O 759.883 -0.685516 1.81698 0
M  V30 7567 C 757.013 -0.828139 3.37282 0
M  V30 7568 C 755.967 -0.106005 4.27869 0
M  V30 7569 C 755.293 -1.13957 5.22415 0
M  V30 7570 C 756.593 1.04395 5.11761 0
M  V30 7571 H 758.287 0.868269 2.86534 0
M  V30 7572 H 755.833 0.418982 1.3777 0
M  V30 7573 H 757.786 -1.28058 4.01471 0
M  V30 7574 H 756.51 -1.63914 2.82489 0
M  V30 7575 H 755.169 0.326683 3.65142 0
M  V30 7576 H 754.817 -1.9438 4.63924 0
M  V30 7577 H 754.517 -0.661233 5.83868 0
M  V30 7578 H 756.041 -1.59197 5.89482 0
M  V30 7579 H 757.455 0.670541 5.69365 0
M  V30 7580 H 755.852 1.4511 5.82291 0
M  V30 7581 H 756.922 1.87144 4.47331 0
M  V30 7582 N 758.265 -1.50454 0.469181 0
M  V30 7583 C 759.511 -2.02615 -0.0865971 0
M  V30 7584 C 759.844 -1.35062 -1.39542 0
M  V30 7585 O 759.119 -0.475701 -1.88593 0
M  V30 7586 C 759.402 -3.59068 -0.272385 0
M  V30 7587 C 759.255 -4.37196 1.05733 0
M  V30 7588 C 760.574 -4.2793 -1.0278 0
M  V30 7589 H 757.693 -0.736389 -0.0299977 0
M  V30 7590 H 760.335 -1.79792 0.614399 0
M  V30 7591 H 758.485 -3.78646 -0.869471 0
M  V30 7592 H 760.157 -4.29195 1.69084 0
M  V30 7593 H 758.4 -4.01013 1.65442 0
M  V30 7594 H 759.071 -5.44924 0.880997 0
M  V30 7595 H 761.547 -4.12816 -0.521718 0
M  V30 7596 H 760.423 -5.37214 -1.12659 0
M  V30 7597 H 760.684 -3.90968 -2.0639 0
M  V30 7598 N 759.743 -0.201713 -1.56304 0
M  V30 7599 C 760.989 0.435952 -1.98059 0
M  V30 7600 C 761.322 1.60811 -1.08873 0
M  V30 7601 O 760.597 1.9398 -0.142128 0
M  V30 7602 C 760.88 0.889706 -3.48936 0
M  V30 7603 C 760.733 -0.284725 -4.48898 0
M  V30 7604 C 762.052 1.7529 -4.03685 0
M  V30 7605 H 759.171 0.15699 -0.720085 0
M  V30 7606 H 761.813 -0.293965 -1.87712 0
M  V30 7607 H 759.963 1.51166 -3.57884 0
M  V30 7608 H 761.635 -0.922531 -4.51981 0
M  V30 7609 H 759.878 -0.935427 -4.23594 0
M  V30 7610 H 760.549 0.0753865 -5.51949 0
M  V30 7611 H 763.025 1.2283 -3.97558 0
M  V30 7612 H 761.901 2.03933 -5.0961 0
M  V30 7613 H 762.162 2.70939 -3.49348 0
M  V30 7614 N 761.222 1.57436 0.0718424 0
M  V30 7615 C 762.185 2.02703 1.06977 0
M  V30 7616 C 763.185 0.924062 1.31597 0
M  V30 7617 O 764.375 1.18894 1.27318 0
M  V30 7618 C 761.507 2.40763 2.41342 0
M  V30 7619 H 762.7 2.92098 0.679619 0
M  V30 7620 H 760.253 1.5304 0.317565 0
M  V30 7621 H 760.988 1.54394 2.8519 0
M  V30 7622 H 760.773 3.21249 2.24814 0
M  V30 7623 H 762.263 2.76361 3.13073 0
M  V30 7624 N 762.7 -0.34323 1.53817 0
M  V30 7625 C 764.111 -0.918823 1.62525 0
M  V30 7626 C 764.462 -1.89542 0.506765 0
M  V30 7627 O 763.587 -2.13326 -0.363441 0
M  V30 7628 C 764.182 -1.67326 2.94597 0
M  V30 7629 C 762.741 -2.19786 3.05567 0
M  V30 7630 C 761.888 -1.01708 2.57974 0
M  V30 7631 H 764.839 -0.121358 1.58235 0
M  V30 7632 H 764.86 -2.53615 2.83654 0
M  V30 7633 H 764.372 -0.962223 3.75983 0
M  V30 7634 H 762.473 -2.94065 2.28816 0
M  V30 7635 H 762.586 -2.46135 4.1104 0
M  V30 7636 H 760.95 -1.39058 2.13389 0
M  V30 7637 H 761.733 -0.320671 3.41799 0
M  V30 7638 N 764.178 -1.45556 -0.604258 0
M  V30 7639 C 765.425 -1.49746 -1.36317 0
M  V30 7640 C 765.753 -0.140516 -1.93992 0
M  V30 7641 O 765.008 0.861244 -1.7573 0
M  V30 7642 C 765.307 -2.52697 -2.52743 0
M  V30 7643 C 764.973 -3.97315 -2.13195 0
M  V30 7644 C 763.635 -4.36692 -2.02123 0
M  V30 7645 C 765.987 -4.88249 -1.8238 0
M  V30 7646 C 763.315 -5.64895 -1.58463 0
M  V30 7647 C 765.667 -6.16867 -1.40205 0
M  V30 7648 C 764.331 -6.55172 -1.27694 0
M  V30 7649 H 763.601 -0.54796 -0.49882 0
M  V30 7650 H 766.248 -1.7892 -0.682643 0
M  V30 7651 H 764.553 -2.17105 -3.26148 0
M  V30 7652 H 766.25 -2.53176 -3.10971 0
M  V30 7653 H 762.84 -3.66176 -2.22739 0
M  V30 7654 H 767.024 -4.58561 -1.89829 0
M  V30 7655 H 762.28 -5.93365 -1.47402 0
M  V30 7656 H 766.454 -6.86771 -1.15408 0
M  V30 7657 H 764.081 -7.54411 -0.936375 0
M  V30 7658 N 765.656 0.84705 -1.32902 0
M  V30 7659 C 766.886 1.63166 -1.26729 0
M  V30 7660 C 767.294 1.88474 0.165595 0
M  V30 7661 O 766.637 1.45947 1.11558 0
M  V30 7662 C 766.699 3.0103 -1.96522 0
M  V30 7663 C 766.363 2.9873 -3.45846 0
M  V30 7664 C 767.36 2.75032 -4.41196 0
M  V30 7665 C 765.045 3.19125 -3.87898 0
M  V30 7666 C 767.039 2.71743 -5.76571 0
M  V30 7667 C 764.726 3.15462 -5.2338 0
M  V30 7668 C 765.724 2.91801 -6.17528 0
M  V30 7669 O 765.412 2.88027 -7.5053 0
M  V30 7670 H 765.144 0.51469 -0.438258 0
M  V30 7671 H 767.698 1.06383 -1.75704 0
M  V30 7672 H 765.928 3.59634 -1.42128 0
M  V30 7673 H 767.617 3.61821 -1.83958 0
M  V30 7674 H 768.383 2.59034 -4.10032 0
M  V30 7675 H 764.262 3.36565 -3.15032 0
M  V30 7676 H 767.806 2.53194 -6.5003 0
M  V30 7677 H 763.703 3.31006 -5.54171 0
M  V30 7678 H 764.471 3.03927 -7.59981 0
M  V30 7679 N 767.134 1.16236 1.06428 0
M  V30 7680 C 768.097 0.870163 2.1204 0
M  V30 7681 C 769.097 -0.134239 1.60239 0
M  V30 7682 O 770.287 0.0964932 1.73933 0
M  V30 7683 C 767.419 0.301033 3.39568 0
M  V30 7684 H 768.612 1.8064 2.39394 0
M  V30 7685 H 766.165 0.971116 1.2247 0
M  V30 7686 H 766.9 -0.642948 3.17863 0
M  V30 7687 H 766.685 1.02475 3.78472 0
M  V30 7688 H 768.175 0.114494 4.17443 0
M  V30 7689 N 768.612 -1.24939 0.960631 0
M  V30 7690 C 769.542 -2.28 0.503815 0
M  V30 7691 C 770.523 -1.63959 -0.452928 0
M  V30 7692 O 771.708 -1.91009 -0.350585 0
M  V30 7693 C 768.838 -3.46643 -0.213535 0
M  V30 7694 C 767.792 -4.22903 0.658535 0
M  V30 7695 C 767.118 -5.34363 -0.189902 0
M  V30 7696 C 768.418 -4.84949 1.93963 0
M  V30 7697 H 770.112 -2.66462 1.36521 0
M  V30 7698 H 767.658 -1.28093 0.657897 0
M  V30 7699 H 769.611 -4.1787 -0.544286 0
M  V30 7700 H 768.335 -3.07187 -1.10923 0
M  V30 7701 H 766.994 -3.53467 0.972455 0
M  V30 7702 H 766.642 -4.91147 -1.08553 0
M  V30 7703 H 766.342 -5.86302 0.390331 0
M  V30 7704 H 767.866 -6.0842 -0.515484 0
M  V30 7705 H 769.28 -5.48288 1.67491 0
M  V30 7706 H 767.677 -5.47091 2.46601 0
M  V30 7707 H 768.747 -4.06799 2.639 0
M  V30 7708 N 770.09 -0.729906 -1.39679 0
M  V30 7709 C 771 -0.0880322 -2.34435 0
M  V30 7710 C 772.016 0.727674 -1.58053 0
M  V30 7711 O 773.192 0.657321 -1.90371 0
M  V30 7712 C 770.257 0.812211 -3.37052 0
M  V30 7713 C 769.318 -0.0151681 -4.29297 0
M  V30 7714 C 768.551 0.842202 -5.27013 0
M  V30 7715 O 768.774 2.08108 -5.31081 0
M  V30 7716 O 767.708 0.27357 -6.01278 0
M  V30 7717 H 771.534 -0.869989 -2.90972 0
M  V30 7718 H 769.119 -0.490522 -1.41118 0
M  V30 7719 H 771.001 1.32745 -3.99946 0
M  V30 7720 H 769.676 1.57307 -2.82907 0
M  V30 7721 H 768.583 -0.575811 -3.69642 0
M  V30 7722 H 769.916 -0.738129 -4.86634 0
M  V30 7723 N 771.568 1.50203 -0.477153 0
M  V30 7724 C 772.817 2.01551 0.0774548 0
M  V30 7725 C 773.13 1.36359 1.40234 0
M  V30 7726 O 774.336 1.78898 2.04225 0
M  V30 7727 C 772.792 3.59406 0.188539 0
M  V30 7728 C 772.4 4.3356 -1.12828 0
M  V30 7729 C 774.144 4.18776 0.694782 0
M  V30 7730 C 772.051 5.83213 -0.98066 0
M  V30 7731 H 770.981 0.75329 0.0327212 0
M  V30 7732 H 773.632 1.72959 -0.612969 0
M  V30 7733 H 772.014 3.84611 0.942881 0
M  V30 7734 H 773.188 4.20074 -1.89405 0
M  V30 7735 H 771.503 3.85827 -1.5661 0
M  V30 7736 H 774.1 5.28338 0.822356 0
M  V30 7737 H 774.443 3.80557 1.68766 0
M  V30 7738 H 774.976 3.978 -0.00234519 0
M  V30 7739 H 771.715 6.25914 -1.94709 0
M  V30 7740 H 771.235 5.99256 -0.255375 0
M  V30 7741 H 772.914 6.4373 -0.649717 0
M  V30 7742 N 773.046 0.209999 1.56195 0
M  V30 7743 C 774.009 -0.691232 2.18528 0
M  V30 7744 C 775.009 -1.13013 1.14388 0
M  V30 7745 O 776.199 -1.04081 1.39688 0
M  V30 7746 C 773.331 -1.94551 2.79934 0
M  V30 7747 H 774.524 -0.147953 2.99535 0
M  V30 7748 H 772.077 -0.0396243 1.5625 0
M  V30 7749 H 772.812 -2.53094 2.02766 0
M  V30 7750 H 772.597 -1.63938 3.56184 0
M  V30 7751 H 774.087 -2.58785 3.2775 0
M  V30 7752 N 774.524 -1.57472 -0.0634922 0
M  V30 7753 C 775.935 -1.76303 -0.614337 0
M  V30 7754 C 776.286 -0.836578 -1.77471 0
M  V30 7755 O 775.411 -0.0227184 -2.16388 0
M  V30 7756 C 776.006 -3.19709 -1.12122 0
M  V30 7757 C 774.565 -3.39856 -1.61786 0
M  V30 7758 C 773.712 -2.71975 -0.540845 0
M  V30 7759 H 776.663 -1.57864 0.162702 0
M  V30 7760 H 776.684 -3.24326 -1.98979 0
M  V30 7761 H 776.196 -3.87114 -0.276472 0
M  V30 7762 H 774.297 -2.77578 -2.48558 0
M  V30 7763 H 774.41 -4.48338 -1.68908 0
M  V30 7764 H 772.774 -2.34763 -0.987854 0
M  V30 7765 H 773.557 -3.4204 0.293856 0
M  V30 7766 N 776.003 0.335068 -1.53997 0
M  V30 7767 C 776.966 1.39481 -1.81872 0
M  V30 7768 C 777.966 1.4524 -0.690078 0
M  V30 7769 O 779.156 1.45467 -0.958377 0
M  V30 7770 C 776.288 2.78329 -1.9684 0
M  V30 7771 H 777.481 1.16024 -2.76547 0
M  V30 7772 H 775.034 0.569926 -1.45539 0
M  V30 7773 H 775.769 3.07058 -1.04337 0
M  V30 7774 H 775.554 2.75544 -2.78958 0
M  V30 7775 H 777.044 3.55016 -2.19894 0
M  V30 7776 N 777.481 1.45874 0.596531 0
M  V30 7777 C 778.727 1.5069 1.35722 0
M  V30 7778 C 779.06 0.152506 1.936 0
M  V30 7779 O 778.335 -0.834411 1.75692 0
M  V30 7780 C 778.618 2.59474 2.4969 0
M  V30 7781 C 778.471 4.04396 1.96937 0
M  V30 7782 C 779.79 2.64451 3.51787 0
M  V30 7783 H 776.909 0.548611 0.492133 0
M  V30 7784 H 779.551 1.77741 0.671428 0
M  V30 7785 H 777.701 2.36539 3.08191 0
M  V30 7786 H 779.373 4.38576 1.43 0
M  V30 7787 H 777.616 4.14529 1.27859 0
M  V30 7788 H 778.287 4.76218 2.79143 0
M  V30 7789 H 780.763 2.85031 3.03145 0
M  V30 7790 H 779.639 3.42411 4.29006 0
M  V30 7791 H 779.9 1.69965 4.08123 0
M  V30 7792 N 778.959 -0.83999 1.33349 0
M  V30 7793 C 779.909 -1.93817 1.20079 0
M  V30 7794 C 780.893 -1.60564 0.103978 0
M  V30 7795 O 782.085 -1.73859 0.331964 0
M  V30 7796 C 779.214 -3.30151 0.941031 0
M  V30 7797 C 778.3 -3.69577 2.08023 0
M  V30 7798 N 778.691 -3.80707 3.3301 0
M  V30 7799 C 776.989 -3.99309 1.98667 0
M  V30 7800 C 777.69 -4.14899 4.07717 0
M  V30 7801 N 776.666 -4.27208 3.36146 0
M  V30 7802 H 780.468 -2.00576 2.14817 0
M  V30 7803 H 777.982 -1.03264 1.2534 0
M  V30 7804 H 779.979 -4.08617 0.826894 0
M  V30 7805 H 778.639 -3.247 0.00216738 0
M  V30 7806 H 779.65 -3.64644 3.67771 0
M  V30 7807 H 776.327 -4.02076 1.12433 0
M  V30 7808 H 777.717 -4.30857 5.15569 0
M  V30 7809 N 780.437 -1.16799 -1.0581 0
M  V30 7810 C 781.387 -0.847231 -2.11674 0
M  V30 7811 C 782.371 0.175476 -1.5994 0
M  V30 7812 O 783.563 -0.0260602 -1.76981 0
M  V30 7813 C 780.692 -0.355446 -3.41455 0
M  V30 7814 C 779.778 -1.40922 -4.00002 0
M  V30 7815 N 780.169 -2.62096 -4.32596 0
M  V30 7816 C 778.467 -1.26562 -4.27666 0
M  V30 7817 C 779.168 -3.29759 -4.79201 0
M  V30 7818 N 778.144 -2.57138 -4.78938 0
M  V30 7819 H 781.946 -1.76862 -2.34727 0
M  V30 7820 H 779.46 -1.05577 -1.23399 0
M  V30 7821 H 781.457 -0.107231 -4.16762 0
M  V30 7822 H 780.117 0.559817 -3.19838 0
M  V30 7823 H 781.128 -2.99113 -4.22791 0
M  V30 7824 H 777.805 -0.411503 -4.15467 0
M  V30 7825 H 779.195 -4.33222 -5.13584 0
M  V30 7826 N 781.915 1.24427 -0.967243 0
M  V30 7827 C 783.143 1.96541 -0.646477 0
M  V30 7828 C 783.558 1.71753 0.783996 0
M  V30 7829 O 782.915 1.00102 1.52597 0
M  V30 7830 C 782.966 3.4983 -0.911098 0
M  V30 7831 O 782.687 3.7377 -2.28534 0
M  V30 7832 C 784.188 4.3916 -0.604458 0
M  V30 7833 H 781.408 0.626129 -0.241255 0
M  V30 7834 H 783.952 1.58268 -1.29505 0
M  V30 7835 H 782.107 3.86168 -0.308741 0
M  V30 7836 H 782.521 4.68154 -2.365 0
M  V30 7837 H 783.995 5.4557 -0.840069 0
M  V30 7838 H 784.472 4.36771 0.461273 0
M  V30 7839 H 785.078 4.08409 -1.1867 0
M  V30 7840 N 783.393 0.737304 1.3929 0
M  V30 7841 C 784.326 0.0475454 2.2815 0
M  V30 7842 C 785.304 -0.745314 1.44512 0
M  V30 7843 O 786.488 -0.727387 1.739 0
M  V30 7844 C 783.615 -0.939803 3.254 0
M  V30 7845 C 782.661 -0.235153 4.25851 0
M  V30 7846 S 783.494 1.05252 5.25055 0
M  V30 7847 C 784.65 0.0678242 6.25863 0
M  V30 7848 H 784.883 0.801117 2.86303 0
M  V30 7849 H 782.416 0.529197 1.45048 0
M  V30 7850 H 784.374 -1.50417 3.81949 0
M  V30 7851 H 783.035 -1.66623 2.66262 0
M  V30 7852 H 782.228 -0.982336 4.94334 0
M  V30 7853 H 781.83 0.257245 3.73114 0
M  V30 7854 H 784.122 -0.771779 6.7309 0
M  V30 7855 H 785.065 0.719858 7.04431 0
M  V30 7856 H 785.473 -0.305604 5.63672 0
M  V30 7857 N 784.871 -1.49948 0.485112 0
M  V30 7858 C 786.119 -2.01996 -0.0648775 0
M  V30 7859 C 786.44 -1.36819 -1.38945 0
M  V30 7860 O 785.71 -0.518163 -1.88923 0
M  V30 7861 H 784.29 -0.746513 -0.0269662 0
M  V30 7862 H 786.952 -1.84136 0.638733 0
M  V30 7863 H 786.048 -3.11418 -0.20617 0
M  V30 7864 N 786.349 -0.21828 -1.56081 0
M  V30 7865 C 787.597 0.413488 -1.97825 0
M  V30 7866 C 787.918 1.60527 -1.10707 0
M  V30 7867 O 787.188 1.9504 -0.183378 0
M  V30 7868 H 785.768 0.155757 -0.730581 0
M  V30 7869 H 788.43 -0.310413 -1.92412 0
M  V30 7870 H 787.526 0.742024 -3.03151 0
M  V30 7871 N 787.827 1.57504 0.0551401 0
M  V30 7872 C 788.757 2.07864 1.06372 0
M  V30 7873 C 789.738 0.975565 1.39344 0
M  V30 7874 O 790.923 1.24929 1.48682 0
M  V30 7875 C 788.053 2.53643 2.3724 0
M  V30 7876 C 787.007 3.67978 2.18578 0
M  V30 7877 C 786.333 3.9987 3.54976 0
M  V30 7878 C 787.633 4.97405 1.59329 0
M  V30 7879 H 789.327 2.92379 0.644595 0
M  V30 7880 H 786.873 1.40654 0.308619 0
M  V30 7881 H 788.826 2.8749 3.08103 0
M  V30 7882 H 787.55 1.66177 2.81163 0
M  V30 7883 H 786.209 3.3444 1.50152 0
M  V30 7884 H 785.857 3.0951 3.965 0
M  V30 7885 H 785.557 4.76867 3.43324 0
M  V30 7886 H 787.081 4.36228 4.27244 0
M  V30 7887 H 788.495 5.29375 2.20078 0
M  V30 7888 H 786.892 5.78837 1.58327 0
M  V30 7889 H 787.962 4.81697 0.55638 0
M  V30 7890 N 789.305 -0.326896 1.54172 0
M  V30 7891 C 790.551 -1.06681 1.72473 0
M  V30 7892 C 790.884 -1.87779 0.49523 0
M  V30 7893 O 790.159 -1.87754 -0.507803 0
M  V30 7894 C 790.442 -1.99429 2.99834 0
M  V30 7895 C 790.295 -1.21682 4.33028 0
M  V30 7896 C 791.614 -2.99002 3.22933 0
M  V30 7897 H 788.733 -0.386438 0.627563 0
M  V30 7898 H 791.375 -0.343779 1.86864 0
M  V30 7899 H 789.525 -2.61081 2.87696 0
M  V30 7900 H 791.197 -0.625153 4.57044 0
M  V30 7901 H 789.44 -0.519045 4.30684 0
M  V30 7902 H 790.111 -1.89766 5.18356 0
M  V30 7903 H 792.587 -2.4747 3.34511 0
M  V30 7904 H 791.463 -3.61085 4.13412 0
M  V30 7905 H 791.724 -3.71281 2.40006 0
M  V30 7906 N 790.784 -1.46188 -0.588786 0
M  V30 7907 C 792.033 -1.50452 -1.34339 0
M  V30 7908 C 792.346 -0.158096 -1.9496 0
M  V30 7909 O 793.552 -0.0784918 -2.71387 0
M  V30 7910 C 792.008 -2.65074 -2.43441 0
M  V30 7911 C 791.616 -4.06111 -1.8915 0
M  V30 7912 C 793.36 -2.78603 -3.20282 0
M  V30 7913 C 791.267 -5.12084 -2.95845 0
M  V30 7914 H 790.197 -0.559905 -0.504997 0
M  V30 7915 H 792.848 -1.72382 -0.629014 0
M  V30 7916 H 791.23 -2.36462 -3.1765 0
M  V30 7917 H 792.404 -4.44487 -1.21524 0
M  V30 7918 H 790.719 -3.97197 -1.24995 0
M  V30 7919 H 793.316 -3.54944 -3.99898 0
M  V30 7920 H 793.659 -1.85902 -3.72486 0
M  V30 7921 H 794.192 -3.06832 -2.53178 0
M  V30 7922 H 790.931 -6.06556 -2.48535 0
M  V30 7923 H 790.451 -4.78259 -3.61979 0
M  V30 7924 H 792.13 -5.37661 -3.59902 0
M  V30 7925 N 792.262 0.832906 -1.33792 0
M  V30 7926 C 793.539 1.57359 -1.16178 0
M  V30 7927 C 793.919 2.09372 0.269532 0
M  V30 7928 O 793.267 1.89993 1.26944 0
M  V30 7929 C 793.477 2.70279 -2.20795 0
M  V30 7930 C 794.825 3.39305 -2.55259 0
M  V30 7931 O 795.849 2.80526 -2.19508 0
M  V30 7932 O 794.708 4.45428 -3.16632 0
M  V30 7933 H 791.802 0.694025 -0.449731 0
M  V30 7934 H 794.348 0.875144 -1.45394 0
M  V30 7935 H 793.12 2.29527 -3.16911 0
M  V30 7936 H 792.743 3.47782 -1.927 0
M  V30 7937 N 793.74 1.17359 1.05189 0
M  V30 7938 C 794.968 0.986529 1.81866 0
M  V30 7939 C 795.383 -0.46522 1.82979 0
M  V30 7940 O 794.74 -1.32305 1.25705 0
M  V30 7941 C 794.791 1.52021 3.27982 0
M  V30 7942 O 794.512 2.91511 3.27037 0
M  V30 7943 C 796.013 1.37774 4.21347 0
M  V30 7944 H 793.233 0.349021 0.573084 0
M  V30 7945 H 795.777 1.55648 1.32643 0
M  V30 7946 H 793.932 0.992287 3.74476 0
M  V30 7947 H 794.346 3.16178 4.18488 0
M  V30 7948 H 795.82 1.7993 5.21852 0
M  V30 7949 H 796.297 0.32483 4.37997 0
M  V30 7950 H 796.903 1.89583 3.80708 0
M  V30 7951 N 795.218 -1.23913 0.973828 0
M  V30 7952 C 796.165 -2.25132 0.508366 0
M  V30 7953 C 797.135 -1.59908 -0.449307 0
M  V30 7954 O 798.32 -1.87405 -0.358313 0
M  V30 7955 C 795.46 -3.4458 -0.189422 0
M  V30 7956 C 794.573 -4.24381 0.807738 0
M  V30 7957 C 793.708 -5.31131 0.0854315 0
M  V30 7958 C 792.747 -6.02635 1.07225 0
M  V30 7959 N 791.884 -7.01073 0.379535 0
M  V30 7960 H 796.724 -2.64313 1.37632 0
M  V30 7961 H 794.261 -1.29924 0.689802 0
M  V30 7962 H 796.219 -4.12706 -0.610733 0
M  V30 7963 H 794.849 -3.06218 -1.02129 0
M  V30 7964 H 793.901 -3.55735 1.34747 0
M  V30 7965 H 795.213 -4.73778 1.55998 0
M  V30 7966 H 794.367 -6.05422 -0.393572 0
M  V30 7967 H 793.106 -4.82658 -0.699461 0
M  V30 7968 H 792.111 -5.27143 1.56207 0
M  V30 7969 H 793.336 -6.53197 1.85769 0
M  V30 7970 H 791.282 -6.54862 -0.386269 0
M  V30 7971 H 791.199 -7.48382 1.07054 0
M  V30 7972 H 792.467 -7.79462 -0.0772984 0
M  V30 7973 N 796.696 -0.74468 -1.38897 0
M  V30 7974 C 797.659 -0.11945 -2.28889 0
M  V30 7975 C 798.659 0.656942 -1.46768 0
M  V30 7976 O 799.849 0.484525 -1.67326 0
M  V30 7977 C 796.981 0.839635 -3.30398 0
M  V30 7978 H 798.174 -0.912414 -2.85683 0
M  V30 7979 H 795.727 -0.511119 -1.47707 0
M  V30 7980 H 796.462 1.6586 -2.78677 0
M  V30 7981 H 796.247 0.285432 -3.9106 0
M  V30 7982 H 797.737 1.27337 -3.97712 0
M  V30 7983 N 798.174 1.49689 -0.493057 0
M  V30 7984 C 799.084 2.32746 0.294358 0
M  V30 7985 C 800.1 1.44117 0.975003 0
M  V30 7986 O 801.276 1.77149 0.958138 0
M  V30 7987 C 798.341 3.19358 1.34949 0
M  V30 7988 C 797.402 4.2383 0.683122 0
M  V30 7989 C 796.635 5.06303 1.68798 0
M  V30 7990 O 796.858 4.90172 2.91698 0
M  V30 7991 O 795.792 5.88826 1.24768 0
M  V30 7992 H 799.618 3.01247 -0.385254 0
M  V30 7993 H 797.203 1.47216 -0.254519 0
M  V30 7994 H 799.085 3.73037 1.96014 0
M  V30 7995 H 797.76 2.53561 2.01217 0
M  V30 7996 H 796.667 3.74086 0.0329351 0
M  V30 7997 H 798 4.9216 0.0630192 0
M  V30 7998 N 799.652 0.226554 1.55963 0
M  V30 7999 C 800.898 -0.404387 1.98727 0
M  V30 8000 C 801.231 -1.59059 1.11418 0
M  V30 8001 O 800.506 -1.93729 0.172971 0
M  V30 8002 C 800.789 -0.834081 3.50307 0
M  V30 8003 C 800.642 0.356104 4.48388 0
M  V30 8004 C 801.961 -1.68845 4.06423 0
M  V30 8005 H 799.08 -0.145515 0.722492 0
M  V30 8006 H 801.722 0.323791 1.87221 0
M  V30 8007 H 799.872 -1.45454 3.60244 0
M  V30 8008 H 801.544 0.99432 4.50456 0
M  V30 8009 H 799.787 1.0027 4.22053 0
M  V30 8010 H 800.458 0.0124333 5.51999 0
M  V30 8011 H 802.934 -1.16489 3.99461 0
M  V30 8012 H 801.81 -1.958 5.1279 0
M  V30 8013 H 802.071 -2.65347 3.53615 0
M  V30 8014 N 801.13 -1.57531 -0.0467866 0
M  V30 8015 C 802.077 -2.05387 -1.05285 0
M  V30 8016 C 803.047 -0.939385 -1.36985 0
M  V30 8017 O 804.232 -1.20877 -1.47626 0
M  V30 8018 C 801.372 -2.52343 -2.35408 0
M  V30 8019 C 800.485 -3.77512 -2.10022 0
M  V30 8020 C 799.62 -4.1315 -3.33887 0
M  V30 8021 C 798.659 -5.31286 -3.03976 0
M  V30 8022 N 797.796 -5.62441 -4.20243 0
M  V30 8023 H 802.636 -2.91095 -0.637788 0
M  V30 8024 H 800.173 -1.43939 -0.303322 0
M  V30 8025 H 802.131 -2.77628 -3.11413 0
M  V30 8026 H 800.761 -1.69577 -2.7467 0
M  V30 8027 H 799.813 -3.59417 -1.24594 0
M  V30 8028 H 801.125 -4.63644 -1.83945 0
M  V30 8029 H 800.279 -4.39469 -4.18273 0
M  V30 8030 H 799.018 -3.25634 -3.63062 0
M  V30 8031 H 798.023 -5.04738 -2.17991 0
M  V30 8032 H 799.248 -6.20441 -2.76098 0
M  V30 8033 H 797.194 -4.77885 -4.49402 0
M  V30 8034 H 797.111 -6.43046 -3.97528 0
M  V30 8035 H 798.379 -5.93327 -5.05553 0
M  V30 8036 N 802.608 0.318715 -1.54344 0
M  V30 8037 C 803.833 1.07987 -1.77069 0
M  V30 8038 C 804.258 1.80766 -0.520117 0
M  V30 8039 O 803.616 1.73424 0.528566 0
M  V30 8040 C 803.664 2.04987 -2.96669 0
M  V30 8041 O 802.768 3.12974 -2.68554 0
M  V30 8042 H 802.109 0.311109 -0.586606 0
M  V30 8043 H 804.639 0.361533 -2.0138 0
M  V30 8044 H 804.649 2.47771 -3.2415 0
M  V30 8045 H 803.324 1.51417 -3.87357 0
M  V30 8046 H 801.901 2.74831 -2.52037 0
M  V30 8047 N 804.086 1.46499 0.581025 0
M  V30 8048 C 804.996 1.59778 1.71779 0
M  V30 8049 C 806.012 0.481223 1.67213 0
M  V30 8050 O 807.188 0.74557 1.87091 0
M  V30 8051 C 804.253 1.58626 3.08283 0
M  V30 8052 C 803.314 2.81527 3.241 0
M  V30 8053 C 802.547 2.80421 4.54092 0
M  V30 8054 O 802.77 1.89262 5.38085 0
M  V30 8055 O 801.704 3.71984 4.73193 0
M  V30 8056 H 805.53 2.55918 1.63523 0
M  V30 8057 H 803.115 1.29311 0.748267 0
M  V30 8058 H 804.997 1.60686 3.89561 0
M  V30 8059 H 803.672 0.656467 3.16973 0
M  V30 8060 H 802.579 2.85021 2.42309 0
M  V30 8061 H 803.912 3.73721 3.20302 0
M  V30 8062 N 805.565 -0.825799 1.34232 0
M  V30 8063 C 806.512 -1.93651 1.2557 0
M  V30 8064 C 807.482 -1.65578 0.131536 0
M  V30 8065 O 808.667 -1.88231 0.312027 0
M  V30 8066 C 805.807 -3.29862 1.01415 0
M  V30 8067 C 804.92 -3.70247 2.22579 0
M  V30 8068 C 804.055 -4.95392 1.91731 0
M  V30 8069 C 803.094 -5.28349 3.09053 0
M  V30 8070 N 802.231 -6.44671 2.78107 0
M  V30 8071 H 807.071 -2.00392 2.20561 0
M  V30 8072 H 804.608 -0.980441 1.09662 0
M  V30 8073 H 806.566 -4.08356 0.854485 0
M  V30 8074 H 805.196 -3.22642 0.100936 0
M  V30 8075 H 804.248 -2.87169 2.49476 0
M  V30 8076 H 805.56 -3.90575 3.10246 0
M  V30 8077 H 804.714 -5.81665 1.72484 0
M  V30 8078 H 803.453 -4.77059 1.0132 0
M  V30 8079 H 802.458 -4.40574 3.289 0
M  V30 8080 H 803.683 -5.48622 4.00239 0
M  V30 8081 H 801.629 -6.278 1.9027 0
M  V30 8082 H 801.546 -6.65158 3.59306 0
M  V30 8083 H 802.814 -7.34022 2.62358 0
M  V30 8084 N 807.043 -1.17915 -1.04565 0
M  V30 8085 C 808.271 -0.99616 -1.8134 0
M  V30 8086 C 808.686 0.455509 -1.83223 0
M  V30 8087 O 808.043 1.31636 -1.26405 0
M  V30 8088 C 808.094 -1.53758 -3.27171 0
M  V30 8089 O 807.815 -2.93241 -3.25486 0
M  V30 8090 C 809.316 -1.40007 -4.2061 0
M  V30 8091 H 806.536 -0.352055 -0.571225 0
M  V30 8092 H 809.08 -1.56349 -1.31815 0
M  V30 8093 H 807.235 -1.01213 -3.73945 0
M  V30 8094 H 807.649 -3.18392 -4.16805 0
M  V30 8095 H 809.123 -1.82695 -5.2089 0
M  V30 8096 H 809.6 -0.348054 -4.37819 0
M  V30 8097 H 810.206 -1.916 -3.79697 0
M  V30 8098 N 808.521 1.23394 -0.980386 0
M  V30 8099 C 809.769 1.91431 -0.647978 0
M  V30 8100 C 810.09 1.76871 0.821066 0
M  V30 8101 O 809.36 1.14808 1.58732 0
M  V30 8102 H 807.94 0.708516 -0.236673 0
M  V30 8103 H 810.602 1.50019 -1.2442 0
M  V30 8104 H 809.698 2.98854 -0.899592 0
M  V30 8105 N 809.999 0.752036 1.385 0
M  V30 8106 C 810.946 0.123288 2.3047 0
M  V30 8107 C 811.916 -0.711326 1.50098 0
M  V30 8108 O 813.101 -0.667775 1.78733 0
M  V30 8109 C 810.241 -0.765085 3.36512 0
M  V30 8110 C 809.354 0.0839885 4.31918 0
M  V30 8111 C 808.489 -0.807243 5.25031 0
M  V30 8112 C 807.528 0.0455583 6.12083 0
M  V30 8113 N 806.665 -0.802547 6.97498 0
M  V30 8114 H 811.505 0.913169 2.83664 0
M  V30 8115 H 809.042 0.46195 1.39658 0
M  V30 8116 H 811 -1.29476 3.966 0
M  V30 8117 H 809.63 -1.52077 2.84732 0
M  V30 8118 H 808.682 0.731276 3.73305 0
M  V30 8119 H 809.994 0.74265 4.9324 0
M  V30 8120 H 809.148 -1.40414 5.90228 0
M  V30 8121 H 807.887 -1.49964 4.64071 0
M  V30 8122 H 806.892 0.655137 5.45883 0
M  V30 8123 H 808.117 0.734994 6.75111 0
M  V30 8124 H 806.063 -1.47992 6.39089 0
M  V30 8125 H 805.98 -0.200747 7.55733 0
M  V30 8126 H 807.248 -1.38447 7.67107 0
M  V30 8127 N 811.477 -1.49425 0.500989 0
M  V30 8128 C 812.888 -1.86624 0.0532011 0
M  V30 8129 C 813.239 -1.41331 -1.36088 0
M  V30 8130 O 812.364 -0.791195 -2.01418 0
M  V30 8131 C 812.959 -3.38681 0.0897693 0
M  V30 8132 C 811.518 -3.75181 -0.302677 0
M  V30 8133 C 810.665 -2.73419 0.462307 0
M  V30 8134 H 813.616 -1.41743 0.713773 0
M  V30 8135 H 813.637 -3.73902 -0.705528 0
M  V30 8136 H 813.149 -3.71616 1.11907 0
M  V30 8137 H 811.25 -3.47855 -1.33521 0
M  V30 8138 H 811.363 -4.79097 0.0167653 0
M  V30 8139 H 809.727 -2.54548 -0.0878557 0
M  V30 8140 H 810.51 -3.09198 1.49169 0
M  V30 8141 N 812.955 -0.234822 -1.55841 0
M  V30 8142 C 814.204 0.393685 -1.97821 0
M  V30 8143 C 814.517 1.59947 -1.1259 0
M  V30 8144 O 815.723 2.29835 -1.44528 0
M  V30 8145 C 814.179 0.751811 -3.5196 0
M  V30 8146 C 813.787 -0.431898 -4.45913 0
M  V30 8147 C 815.531 1.34518 -4.02623 0
M  V30 8148 C 813.438 -0.0505976 -5.91378 0
M  V30 8149 H 812.368 0.150864 -0.738753 0
M  V30 8150 H 815.019 -0.333132 -1.80451 0
M  V30 8151 H 813.401 1.53642 -3.6498 0
M  V30 8152 H 814.575 -1.20935 -4.44647 0
M  V30 8153 H 812.89 -0.939385 -4.05666 0
M  V30 8154 H 815.487 1.64359 -5.08813 0
M  V30 8155 H 815.83 2.26554 -3.49255 0
M  V30 8156 H 816.363 0.623729 -3.9288 0
M  V30 8157 H 813.102 -0.937779 -6.48757 0
M  V30 8158 H 812.622 0.690898 -5.95808 0
M  V30 8159 H 814.301 0.37146 -6.45933 0
M  V30 8160 N 814.433 1.57553 0.0384317 0
M  V30 8161 C 815.661 1.93093 0.743141 0
M  V30 8162 C 816.076 0.833787 1.69391 0
M  V30 8163 O 815.433 -0.190532 1.81503 0
M  V30 8164 C 815.484 3.28533 1.50826 0
M  V30 8165 O 815.205 4.34032 0.595665 0
M  V30 8166 C 816.706 3.78297 2.31098 0
M  V30 8167 H 813.926 0.637486 0.20941 0
M  V30 8168 H 816.47 2.045 -0.00125154 0
M  V30 8169 H 814.625 3.18552 2.20462 0
M  V30 8170 H 815.039 5.12155 1.13124 0
M  V30 8171 H 816.513 4.75602 2.80191 0
M  V30 8172 H 816.99 3.09008 3.12107 0
M  V30 8173 H 817.596 3.91331 1.66555 0
M  V30 8174 N 815.911 -0.310526 1.54511 0
M  V30 8175 C 817.159 -1.04484 1.72996 0
M  V30 8176 C 817.48 -1.88118 0.513479 0
M  V30 8177 O 816.75 -1.90119 -0.472384 0
M  V30 8178 H 815.33 -0.388747 0.637875 0
M  V30 8179 H 817.992 -0.343811 1.91844 0
M  V30 8180 H 817.088 -1.70341 2.61515 0
M  V30 8181 N 817.389 -1.46805 -0.573248 0
M  V30 8182 C 818.319 -1.60951 -1.69165 0
M  V30 8183 C 819.3 -0.45948 -1.63777 0
M  V30 8184 O 820.485 -0.68688 -1.81647 0
M  V30 8185 C 817.615 -1.60844 -3.07809 0
M  V30 8186 C 816.569 -2.74913 -3.28035 0
M  V30 8187 C 815.895 -2.59871 -4.67302 0
M  V30 8188 C 817.195 -4.16654 -3.14955 0
M  V30 8189 H 818.889 -2.54574 -1.57582 0
M  V30 8190 H 816.435 -1.22516 -0.756686 0
M  V30 8191 H 818.388 -1.69334 -3.85881 0
M  V30 8192 H 817.112 -0.637714 -3.20314 0
M  V30 8193 H 815.771 -2.65908 -2.52366 0
M  V30 8194 H 815.419 -1.60861 -4.76585 0
M  V30 8195 H 815.119 -3.36386 -4.81786 0
M  V30 8196 H 816.643 -2.70265 -5.4753 0
M  V30 8197 H 818.057 -4.26721 -3.82861 0
M  V30 8198 H 816.454 -4.93831 -3.40956 0
M  V30 8199 H 817.524 -4.36146 -2.11908 0
M  V30 8200 N 818.867 0.818669 -1.34668 0
M  V30 8201 C 820.097 1.60441 -1.30162 0
M  V30 8202 C 820.505 1.88783 0.125579 0
M  V30 8203 O 819.848 1.48281 1.08437 0
M  V30 8204 C 819.91 2.96794 -2.02864 0
M  V30 8205 C 819.574 2.91327 -3.52105 0
M  V30 8206 C 820.571 2.65611 -4.4693 0
M  V30 8207 C 818.256 3.10825 -3.9458 0
M  V30 8208 C 820.25 2.59452 -5.82206 0
M  V30 8209 C 817.937 3.0429 -5.29954 0
M  V30 8210 C 818.935 2.78637 -6.23579 0
M  V30 8211 O 818.623 2.72042 -7.56471 0
M  V30 8212 H 818.355 0.505278 -0.449077 0
M  V30 8213 H 820.909 1.02632 -1.77921 0
M  V30 8214 H 819.139 3.56538 -1.49725 0
M  V30 8215 H 820.828 3.57837 -1.91592 0
M  V30 8216 H 821.594 2.50278 -4.15434 0
M  V30 8217 H 817.473 3.29807 -3.221 0
M  V30 8218 H 821.017 2.39349 -6.55254 0
M  V30 8219 H 816.914 3.19177 -5.61067 0
M  V30 8220 H 817.682 2.87738 -7.66257 0
M  V30 8221 N 820.346 1.18468 1.03938 0
M  V30 8222 C 821.309 0.914944 2.10146 0
M  V30 8223 C 822.309 -0.10022 1.60487 0
M  V30 8224 O 823.499 0.133365 1.73689 0
M  V30 8225 C 820.631 0.372993 3.38853 0
M  V30 8226 H 821.824 1.85677 2.35508 0
M  V30 8227 H 819.377 0.996876 1.20383 0
M  V30 8228 H 820.112 -0.57538 3.19155 0
M  V30 8229 H 819.897 1.1048 3.76213 0
M  V30 8230 H 821.387 0.203014 4.17106 0
M  V30 8231 N 821.824 -1.22873 0.986916 0
M  V30 8232 C 822.787 -2.2281 0.537442 0
M  V30 8233 C 823.787 -1.56331 -0.37646 0
M  V30 8234 O 824.977 -1.73376 -0.169247 0
M  V30 8235 C 822.109 -3.40195 -0.219082 0
M  V30 8236 H 823.302 -2.64089 1.42116 0
M  V30 8237 H 820.855 -1.35819 0.773488 0
M  V30 8238 H 821.59 -3.04381 -1.11905 0
M  V30 8239 H 821.375 -3.89657 0.437026 0
M  V30 8240 H 822.865 -4.14326 -0.521926 0
M  V30 8241 N 823.302 -0.75937 -1.38099 0
M  V30 8242 C 824.55 -0.317485 -1.99591 0
M  V30 8243 C 824.871 1.10628 -1.60581 0
M  V30 8244 O 824.141 1.7575 -0.865378 0
M  V30 8245 H 822.721 -0.114397 -0.738189 0
M  V30 8246 H 825.383 -0.974749 -1.68774 0
M  V30 8247 H 824.479 -0.385227 -3.09713 0
M  V30 8248 N 824.78 1.49157 -0.508906 0
M  V30 8249 C 825.69 2.33045 0.269656 0
M  V30 8250 C 826.706 1.45143 0.959662 0
M  V30 8251 O 827.882 1.78155 0.939295 0
M  V30 8252 C 824.947 3.20772 1.31554 0
M  V30 8253 C 824.008 4.24531 0.638131 0
M  V30 8254 C 823.241 5.08065 1.63418 0
M  V30 8255 O 823.464 4.93238 2.86483 0
M  V30 8256 O 822.398 5.90117 1.18516 0
M  V30 8257 H 826.224 3.00821 -0.417183 0
M  V30 8258 H 823.809 1.46938 -0.270119 0
M  V30 8259 H 825.691 3.75095 1.92047 0
M  V30 8260 H 824.366 2.55681 1.98516 0
M  V30 8261 H 823.273 3.74099 -0.00674357 0
M  V30 8262 H 824.606 4.92199 0.0108155 0
M  V30 8263 N 826.258 0.243083 1.55714 0
M  V30 8264 C 827.504 -0.383287 1.99145 0
M  V30 8265 C 827.837 -1.57868 1.13098 0
M  V30 8266 O 827.112 -1.93535 0.193509 0
M  V30 8267 C 827.395 -0.796879 3.51172 0
M  V30 8268 C 827.248 0.403642 4.47985 0
M  V30 8269 C 828.567 -1.64525 4.08191 0
M  V30 8270 H 825.686 -0.137843 0.723995 0
M  V30 8271 H 828.328 0.343631 1.86867 0
M  V30 8272 H 826.478 -1.41625 3.61766 0
M  V30 8273 H 828.15 1.04204 4.49376 0
M  V30 8274 H 826.393 1.04741 4.20965 0
M  V30 8275 H 827.064 0.0709794 5.51954 0
M  V30 8276 H 829.54 -1.12246 4.00674 0
M  V30 8277 H 828.416 -1.9035 5.14838 0
M  V30 8278 H 828.677 -2.61582 3.56409 0
M  V30 8279 N 827.736 -1.57571 -0.0300757 0
M  V30 8280 C 828.964 -1.93485 -0.732891 0
M  V30 8281 C 829.379 -0.842758 -1.68947 0
M  V30 8282 O 828.736 0.180904 -1.81601 0
M  V30 8283 C 828.787 -3.29328 -1.49082 0
M  V30 8284 O 828.508 -4.34341 -0.572639 0
M  V30 8285 C 830.009 -3.79517 -2.29088 0
M  V30 8286 H 827.229 -0.638588 -0.206026 0
M  V30 8287 H 829.773 -2.04496 0.0120966 0
M  V30 8288 H 827.928 -3.19716 -2.1877 0
M  V30 8289 H 828.342 -5.12748 -1.10406 0
M  V30 8290 H 829.816 -4.77081 -2.77665 0
M  V30 8291 H 830.293 -3.10659 -3.10464 0
M  V30 8292 H 830.899 -3.92208 -1.64477 0
M  V30 8293 N 829.214 0.302327 -1.54673 0
M  V30 8294 C 830.462 1.03565 -1.73547 0
M  V30 8295 C 830.783 1.87843 -0.523448 0
M  V30 8296 O 830.053 1.90367 0.462295 0
M  V30 8297 H 828.633 0.385358 -0.639928 0
M  V30 8298 H 831.295 0.333632 -1.92023 0
M  V30 8299 H 830.391 1.68952 -2.62415 0
M  V30 8300 N 830.692 1.47107 0.565454 0
M  V30 8301 C 831.94 1.53005 1.32038 0
M  V30 8302 C 832.261 0.190453 1.94068 0
M  V30 8303 O 831.531 -0.784783 1.79494 0
M  V30 8304 H 830.111 0.563578 0.490294 0
M  V30 8305 H 832.773 1.83351 0.660928 0
M  V30 8306 H 831.869 2.29215 2.11818 0
M  V30 8307 N 832.17 -0.811516 1.35101 0
M  V30 8308 C 833.416 -1.57068 1.28287 0
M  V30 8309 C 833.749 -1.93667 -0.143808 0
M  V30 8310 O 833.024 -1.60953 -1.09199 0
M  V30 8311 C 833.307 -2.86259 2.18466 0
M  V30 8312 C 833.16 -2.56168 3.69727 0
M  V30 8313 C 834.479 -3.87924 2.07852 0
M  V30 8314 H 831.598 -0.569869 0.467353 0
M  V30 8315 H 834.24 -0.934023 1.65457 0
M  V30 8316 H 832.39 -3.4059 1.86898 0
M  V30 8317 H 834.062 -2.08059 4.11715 0
M  V30 8318 H 832.305 -1.89436 3.90252 0
M  V30 8319 H 832.976 -3.48344 4.28206 0
M  V30 8320 H 835.452 -3.4298 2.35593 0
M  V30 8321 H 834.328 -4.76106 2.73157 0
M  V30 8322 H 834.589 -4.2923 1.05896 0
M  V30 8323 N 833.648 -1.19017 -1.03309 0
M  V30 8324 C 834.598 -0.89194 -2.0983 0
M  V30 8325 C 835.582 0.14151 -1.60277 0
M  V30 8326 O 836.774 -0.0635946 -1.76886 0
M  V30 8327 C 833.903 -0.427793 -3.40624 0
M  V30 8328 C 832.989 -1.49374 -3.96923 0
M  V30 8329 N 833.38 -2.71213 -4.26939 0
M  V30 8330 C 831.678 -1.35605 -4.24885 0
M  V30 8331 C 832.379 -3.39849 -4.72099 0
M  V30 8332 N 831.355 -2.67239 -4.73375 0
M  V30 8333 H 835.157 -1.81801 -2.30923 0
M  V30 8334 H 832.671 -1.08171 -1.21131 0
M  V30 8335 H 834.668 -0.195608 -4.16441 0
M  V30 8336 H 833.328 0.491848 -3.20953 0
M  V30 8337 H 834.339 -3.08014 -4.16351 0
M  V30 8338 H 831.016 -0.499537 -4.14501 0
M  V30 8339 H 832.406 -4.44018 -5.04279 0
M  V30 8340 N 835.127 1.22348 -0.993418 0
M  V30 8341 C 836.375 1.90733 -0.668246 0
M  V30 8342 C 836.696 1.77732 0.802261 0
M  V30 8343 O 835.966 1.16486 1.57505 0
M  V30 8344 H 834.546 0.705966 -0.244174 0
M  V30 8345 H 837.208 1.48691 -1.26004 0
M  V30 8346 H 836.304 2.97883 -0.931239 0
M  V30 8347 N 836.605 0.766683 1.37694 0
M  V30 8348 C 837.568 0.155849 2.2867 0
M  V30 8349 C 838.568 -0.633509 1.47795 0
M  V30 8350 O 839.758 -0.457844 1.68076 0
M  V30 8351 C 836.89 -0.786965 3.31692 0
M  V30 8352 H 838.083 0.957748 2.84196 0
M  V30 8353 H 835.636 0.534554 1.46875 0
M  V30 8354 H 836.371 -1.61406 2.8128 0
M  V30 8355 H 836.156 -0.223182 3.91464 0
M  V30 8356 H 837.646 -1.20994 3.99688 0
M  V30 8357 N 838.083 -1.48885 0.516809 0
M  V30 8358 C 839.031 -2.31066 -0.266656 0
M  V30 8359 C 840.025 -1.40393 -0.94795 0
M  V30 8360 O 841.231 -1.57366 -0.873836 0
M  V30 8361 H 837.606 -0.744654 -0.104858 0
M  V30 8362 H 839.577 -2.95045 0.446236 0
M  V30 8363 C 838.326 -3.22131 -1.3087 0
M  V30 8364 H 837.649 -3.91839 -0.793865 0
M  V30 8365 H 839.089 -3.82544 -1.82856 0
M  V30 8366 C 837.548 -2.42825 -2.33533 0
M  V30 8367 O 838.078 -2.14364 -3.39722 0
M  V30 8368 N 836.284 -2.04559 -2.06407 0
M  V30 8369 H 835.831 -2.27905 -1.20071 0
M  V30 8370 H 835.789 -1.51807 -2.75322 0
M  V30 8371 N 839.561 -0.251338 -1.55583 0
M  V30 8372 C 840.977 0.103409 -1.59265 0
M  V30 8373 C 841.177 1.56559 -1.26852 0
M  V30 8374 O 840.233 2.31071 -1.01796 0
M  V30 8375 C 841.546 -0.249781 -2.99661 0
M  V30 8376 C 843.094 -0.194442 -3.12395 0
M  V30 8377 C 843.569 -0.521728 -4.55019 0
M  V30 8378 N 845.06 -0.472393 -4.60785 0
M  V30 8379 C 845.795 -0.698737 -5.69127 0
M  V30 8380 N 845.291 -0.988443 -6.85713 0
M  V30 8381 N 847.084 -0.629143 -5.58568 0
M  V30 8382 H 839.235 -1.20484 -1.74921 0
M  V30 8383 H 841.498 -0.485092 -0.814488 0
M  V30 8384 H 841.204 -1.26577 -3.28133 0
M  V30 8385 H 841.078 0.420973 -3.74844 0
M  V30 8386 H 843.465 0.812229 -2.83702 0
M  V30 8387 H 843.546 -0.899111 -2.39478 0
M  V30 8388 H 843.19 -1.52597 -4.84434 0
M  V30 8389 H 843.12 0.204468 -5.26203 0
M  V30 8390 H 845.611 -0.257386 -3.77022 0
M  V30 8391 H 845.924 -1.14846 -7.64219 0
M  V30 8392 H 844.269 -1.02596 -6.87386 0
M  V30 8393 H 847.46 -0.402826 -4.66364 0
M  V30 8394 H 847.633 -0.808935 -6.42931 0
M  V30 8395 N 841.039 1.57585 0.0217189 0
M  V30 8396 C 841.969 2.10073 1.01939 0
M  V30 8397 C 842.95 1.0049 1.37243 0
M  V30 8398 O 844.135 1.28055 1.45999 0
M  V30 8399 C 841.265 2.58618 2.31806 0
M  V30 8400 C 840.219 3.72531 2.10724 0
M  V30 8401 C 839.545 4.07309 3.46415 0
M  V30 8402 C 840.845 5.00672 1.48743 0
M  V30 8403 H 842.539 2.9368 0.582432 0
M  V30 8404 H 840.085 1.41277 0.278715 0
M  V30 8405 H 842.038 2.9396 3.01936 0
M  V30 8406 H 840.762 1.72104 2.77575 0
M  V30 8407 H 839.421 3.37549 1.43025 0
M  V30 8408 H 839.069 3.17851 3.89846 0
M  V30 8409 H 838.769 4.84042 3.33132 0
M  V30 8410 H 840.293 4.45192 4.17895 0
M  V30 8411 H 841.707 5.33925 2.088 0
M  V30 8412 H 840.104 5.82065 1.46013 0
M  V30 8413 H 841.174 4.82769 0.45408 0
M  V30 8414 N 842.517 -0.29412 1.54831 0
M  V30 8415 C 843.765 -1.02643 1.74094 0
M  V30 8416 C 844.086 -1.87563 0.533402 0
M  V30 8417 O 843.356 -1.9061 -0.452192 0
M  V30 8418 H 841.936 -0.381959 0.641963 0
M  V30 8419 H 844.598 -0.323444 1.92197 0
M  V30 8420 H 843.694 -1.67558 2.63307 0
M  V30 8421 N 843.995 -1.47404 -0.557645 0
M  V30 8422 C 845.243 -1.53703 -1.31224 0
M  V30 8423 C 845.564 -0.200742 -1.93964 0
M  V30 8424 O 844.834 0.775253 -1.79907 0
M  V30 8425 H 843.414 -0.566171 -0.487299 0
M  V30 8426 H 846.076 -1.83699 -0.651195 0
M  V30 8427 H 845.172 -2.30335 -2.10599 0
M  V30 8428 N 845.473 0.80434 -1.35529 0
M  V30 8429 C 846.421 1.93769 -1.28671 0
M  V30 8430 C 847.415 1.68428 -0.181222 0
M  V30 8431 O 848.621 1.76617 -0.347338 0
M  V30 8432 H 844.996 0.636663 -0.400206 0
M  V30 8433 H 846.967 1.96673 -2.24415 0
M  V30 8434 C 845.716 3.30572 -1.07784 0
M  V30 8435 H 845.039 3.5063 -1.9209 0
M  V30 8436 H 846.479 4.1027 -1.07027 0
M  V30 8437 C 844.938 3.36193 0.218213 0
M  V30 8438 O 845.468 3.82941 1.21323 0
M  V30 8439 N 843.674 2.89455 0.257761 0
M  V30 8440 H 843.221 2.51604 -0.552562 0
M  V30 8441 H 843.179 2.93597 1.12465 0
M  V30 8442 N 846.951 1.19563 1.02676 0
M  V30 8443 C 847.914 0.937182 2.09164 0
M  V30 8444 C 848.914 -0.0831927 1.60585 0
M  V30 8445 O 850.104 0.15178 1.73538 0
M  V30 8446 C 847.236 0.408912 3.38439 0
M  V30 8447 H 848.429 1.88164 2.33526 0
M  V30 8448 H 845.982 1.00959 1.19319 0
M  V30 8449 H 846.717 -0.541497 3.19747 0
M  V30 8450 H 846.502 1.14464 3.7502 0
M  V30 8451 H 847.992 0.247242 4.16867 0
M  V30 8452 N 848.429 -1.21819 0.999893 0
M  V30 8453 C 849.678 -1.90066 0.675108 0
M  V30 8454 C 849.991 -1.78624 -0.79705 0
M  V30 8455 O 851.197 -2.41851 -1.23371 0
M  V30 8456 C 849.653 -3.40795 1.15702 0
M  V30 8457 C 849.261 -3.60859 2.6549 0
M  V30 8458 C 851.005 -4.147 0.906889 0
M  V30 8459 C 848.912 -5.05324 3.07248 0
M  V30 8460 H 847.842 -0.711763 0.248815 0
M  V30 8461 H 850.493 -1.3792 1.21038 0
M  V30 8462 H 848.875 -3.92164 0.549832 0
M  V30 8463 H 850.049 -3.19951 3.31614 0
M  V30 8464 H 848.364 -3.00298 2.88461 0
M  V30 8465 H 850.961 -5.21187 1.1945 0
M  V30 8466 H 851.304 -4.16004 -0.156923 0
M  V30 8467 H 851.837 -3.69379 1.47662 0
M  V30 8468 H 848.576 -5.09164 4.12834 0
M  V30 8469 H 848.096 -5.47108 2.45832 0
M  V30 8470 H 849.775 -5.73797 2.98941 0
M  V30 8471 N 849.908 -0.773975 -1.37286 0
M  V30 8472 C 851.133 -0.349561 -2.04433 0
M  V30 8473 C 851.558 1.02082 -1.5799 0
M  V30 8474 O 850.916 1.65458 -0.741172 0
M  V30 8475 C 850.964 -0.404292 -3.58326 0
M  V30 8476 O 850.068 0.594447 -4.08093 0
M  V30 8477 H 849.409 -0.150959 -0.646612 0
M  V30 8478 H 851.939 -1.05079 -1.75555 0
M  V30 8479 H 851.949 -0.262378 -4.07155 0
M  V30 8480 H 850.624 -1.40403 -3.91484 0
M  V30 8481 H 849.201 0.415468 -3.70578 0
M  V30 8482 N 851.386 1.48609 -0.524698 0
M  V30 8483 C 852.663 1.95454 0.075465 0
M  V30 8484 C 853.043 1.46682 1.51814 0
M  V30 8485 O 852.391 0.690975 2.17802 0
M  V30 8486 C 852.601 3.48981 -0.0363273 0
M  V30 8487 C 853.949 4.24414 0.125624 0
M  V30 8488 O 854.973 3.5618 0.0377239 0
M  V30 8489 O 853.832 5.45625 0.309104 0
M  V30 8490 H 850.926 0.822902 0.0822256 0
M  V30 8491 H 853.472 1.59153 -0.588921 0
M  V30 8492 H 852.244 3.77185 -1.04149 0
M  V30 8493 H 851.867 3.91963 0.667146 0
M  V30 8494 N 852.864 0.259585 1.55447 0
M  V30 8495 C 854.113 -0.362163 1.98422 0
M  V30 8496 C 854.426 -1.58135 1.1512 0
M  V30 8497 O 855.632 -2.27506 1.48166 0
M  V30 8498 C 854.088 -0.695722 3.53111 0
M  V30 8499 C 853.696 0.502784 4.4517 0
M  V30 8500 C 855.44 -1.28096 4.04712 0
M  V30 8501 C 853.347 0.144674 5.91223 0
M  V30 8502 H 852.277 -0.139092 0.74106 0
M  V30 8503 H 854.928 0.361798 1.79898 0
M  V30 8504 H 853.31 -1.47816 3.67378 0
M  V30 8505 H 854.484 1.27994 4.42667 0
M  V30 8506 H 852.799 1.0038 4.0412 0
M  V30 8507 H 855.396 -1.56243 5.11363 0
M  V30 8508 H 855.739 -2.20969 3.52815 0
M  V30 8509 H 856.272 -0.561146 3.93822 0
M  V30 8510 H 853.011 1.04087 6.47183 0
M  V30 8511 H 852.531 -0.596023 5.96831 0
M  V30 8512 H 854.21 -0.268651 6.46442 0
M  V30 8513 N 854.342 -1.57594 -0.0133615 0
M  V30 8514 C 855.588 -1.90262 -0.702019 0
M  V30 8515 C 855.921 -0.859219 -1.74158 0
M  V30 8516 O 855.196 0.123778 -1.94106 0
M  V30 8517 C 855.479 -3.3354 -1.35732 0
M  V30 8518 C 855.332 -4.48586 -0.330208 0
M  V30 8519 C 856.651 -3.76004 -2.28712 0
M  V30 8520 H 853.77 -0.691943 -0.253739 0
M  V30 8521 H 856.412 -1.89967 0.0351894 0
M  V30 8522 H 854.562 -3.33921 -1.98567 0
M  V30 8523 H 856.234 -4.6034 0.297433 0
M  V30 8524 H 854.477 -4.32394 0.348926 0
M  V30 8525 H 855.148 -5.45762 -0.827508 0
M  V30 8526 H 857.624 -3.77089 -1.75906 0
M  V30 8527 H 856.5 -4.77032 -2.71535 0
M  V30 8528 H 856.761 -3.09129 -3.16056 0
M  V30 8529 N 855.82 0.285905 -1.54985 0
M  V30 8530 C 857.048 1.03776 -1.78992 0
M  V30 8531 C 857.463 1.80402 -0.556814 0
M  V30 8532 O 856.82 1.76242 0.473801 0
M  V30 8533 C 856.871 2.0065 -3.00702 0
M  V30 8534 O 856.592 1.27131 -4.19249 0
M  V30 8535 C 858.093 2.87753 -3.37214 0
M  V30 8536 H 855.313 0.307126 -0.596586 0
M  V30 8537 H 857.857 0.3206 -2.01971 0
M  V30 8538 H 856.012 2.67847 -2.79887 0
M  V30 8539 H 856.426 1.92316 -4.8797 0
M  V30 8540 H 857.9 3.51548 -4.2558 0
M  V30 8541 H 858.377 3.56848 -2.56039 0
M  V30 8542 H 858.983 2.26065 -3.60242 0
M  V30 8543 N 857.298 1.47698 0.54982 0
M  V30 8544 C 858.528 1.58101 1.32995 0
M  V30 8545 C 858.936 0.232939 1.87761 0
M  V30 8546 O 858.279 -0.785058 1.6608 0
M  V30 8547 C 858.341 2.55228 2.53178 0
M  V30 8548 C 858.005 4.00756 2.19645 0
M  V30 8549 C 859.002 4.89025 1.76496 0
M  V30 8550 C 856.687 4.46147 2.30777 0
M  V30 8551 C 858.681 6.20707 1.44919 0
M  V30 8552 C 856.368 5.77856 1.98812 0
M  V30 8553 C 857.366 6.64957 1.55952 0
M  V30 8554 O 857.054 7.94217 1.24396 0
M  V30 8555 H 856.786 0.536362 0.411451 0
M  V30 8556 H 859.34 1.94092 0.67212 0
M  V30 8557 H 857.57 2.14319 3.21876 0
M  V30 8558 H 859.259 2.55678 3.15251 0
M  V30 8559 H 860.025 4.55201 1.67383 0
M  V30 8560 H 855.904 3.78552 2.63096 0
M  V30 8561 H 859.448 6.88649 1.11392 0
M  V30 8562 H 855.345 6.11219 2.0756 0
M  V30 8563 H 856.113 8.06789 1.37964 0
M  V30 8564 N 858.776 -0.797141 1.35954 0
M  V30 8565 C 860.024 -1.55161 1.29497 0
M  V30 8566 C 860.345 -1.94582 -0.127659 0
M  V30 8567 O 859.615 -1.64343 -1.06622 0
M  V30 8568 H 858.195 -0.575413 0.47635 0
M  V30 8569 H 860.857 -0.950282 1.70164 0
M  V30 8570 H 859.953 -2.46272 1.9172 0
M  V30 8571 N 860.254 -1.20106 -1.0204 0
M  V30 8572 C 861.67 -0.955099 -1.27867 0
M  V30 8573 C 861.87 0.367595 -1.98119 0
M  V30 8574 O 860.926 1.09705 -2.27423 0
M  V30 8575 C 862.239 -2.13507 -2.11744 0
M  V30 8576 C 863.787 -2.17563 -2.25023 0
M  V30 8577 C 864.262 -3.35035 -3.12275 0
M  V30 8578 N 865.753 -3.35024 -3.19864 0
M  V30 8579 C 866.488 -4.22566 -3.8759 0
M  V30 8580 N 865.984 -5.20278 -4.57474 0
M  V30 8581 N 867.777 -4.10418 -3.84075 0
M  V30 8582 H 859.928 -2.05193 -0.54861 0
M  V30 8583 H 862.191 -0.897689 -0.304728 0
M  V30 8584 H 861.897 -3.09275 -1.67456 0
M  V30 8585 H 861.771 -2.11281 -3.12474 0
M  V30 8586 H 864.158 -1.22359 -2.68537 0
M  V30 8587 H 864.239 -2.23838 -1.23815 0
M  V30 8588 H 863.883 -4.30522 -2.69468 0
M  V30 8589 H 863.813 -3.25996 -4.13563 0
M  V30 8590 H 866.304 -2.64299 -2.701 0
M  V30 8591 H 866.617 -5.83408 -5.06809 0
M  V30 8592 H 864.962 -5.24219 -4.56311 0
M  V30 8593 H 868.153 -3.33353 -3.28623 0
M  V30 8594 H 868.326 -4.78854 -4.36581 0
M  V30 8595 N 861.732 1.21287 -1.00634 0
M  V30 8596 C 862.981 1.89706 -0.685178 0
M  V30 8597 C 863.294 1.79044 0.787566 0
M  V30 8598 O 864.5 2.42502 1.22086 0
M  V30 8599 C 862.956 3.40176 -1.17508 0
M  V30 8600 C 862.564 3.59446 -2.674 0
M  V30 8601 C 864.308 4.14213 -0.928869 0
M  V30 8602 C 862.215 5.03688 -3.09923 0
M  V30 8603 H 861.145 0.710434 -0.252586 0
M  V30 8604 H 863.796 1.37277 -1.21768 0
M  V30 8605 H 862.178 3.91867 -0.570622 0
M  V30 8606 H 863.352 3.18188 -3.33306 0
M  V30 8607 H 861.667 2.98764 -2.9005 0
M  V30 8608 H 864.264 5.20546 -1.22212 0
M  V30 8609 H 864.607 4.16082 0.134859 0
M  V30 8610 H 865.14 3.68591 -1.49619 0
M  V30 8611 H 861.879 5.06968 -4.15529 0
M  V30 8612 H 861.399 5.45796 -2.4873 0
M  V30 8613 H 863.078 5.72204 -3.0198 0
M  V30 8614 N 863.21 0.781244 1.36873 0
M  V30 8615 C 864.173 0.180094 2.28491 0
M  V30 8616 C 865.173 -0.617798 1.48458 0
M  V30 8617 O 866.363 -0.439991 1.68552 0
M  V30 8618 C 863.495 -0.751741 3.32508 0
M  V30 8619 H 864.688 0.987837 2.83164 0
M  V30 8620 H 862.241 0.550102 1.463 0
M  V30 8621 H 862.976 -1.58413 2.82977 0
M  V30 8622 H 862.761 -0.181649 3.91679 0
M  V30 8623 H 864.251 -1.16748 4.00949 0
M  V30 8624 N 864.689 -1.48329 0.532571 0
M  V30 8625 C 865.937 -2.021 -0.000581206 0
M  V30 8626 C 866.258 -1.4117 -1.34522 0
M  V30 8627 O 865.528 -0.578005 -1.87179 0
M  V30 8628 H 864.108 -0.746993 -0.00320281 0
M  V30 8629 H 866.77 -1.82011 0.696991 0
M  V30 8630 H 865.866 -3.11917 -0.106991 0
M  V30 8631 N 866.167 -0.267825 -1.55308 0
M  V30 8632 C 867.13 0.60965 -2.20943 0
M  V30 8633 C 868.13 1.0869 -1.18504 0
M  V30 8634 O 869.32 0.988248 -1.43455 0
M  V30 8635 C 866.452 1.84027 -2.86961 0
M  V30 8636 H 867.645 0.0366806 -2.99878 0
M  V30 8637 H 865.198 -0.0183941 -1.56289 0
M  V30 8638 H 865.933 2.45394 -2.1202 0
M  V30 8639 H 865.718 1.50605 -3.62023 0
M  V30 8640 H 867.208 2.46442 -3.37129 0
M  V30 8641 N 867.645 1.57599 0.00500368 0
M  V30 8642 C 868.87 1.95026 0.705663 0
M  V30 8643 C 869.295 0.869643 1.6679 0
M  V30 8644 O 868.653 -0.172659 1.80476 0
M  V30 8645 C 868.701 3.31545 1.4181 0
M  V30 8646 O 867.805 3.25495 2.53232 0
M  V30 8647 H 867.146 0.636808 0.188074 0
M  V30 8648 H 869.676 2.04547 -0.046696 0
M  V30 8649 H 869.686 3.66996 1.78265 0
M  V30 8650 H 868.361 4.09751 0.712543 0
M  V30 8651 H 866.938 3.01714 2.19142 0
M  V30 8652 N 869.123 -0.277682 1.55134 0
M  V30 8653 C 870.086 -1.32635 1.86924 0
M  V30 8654 C 871.086 -1.42578 0.743507 0
M  V30 8655 O 872.276 -1.4181 1.01171 0
M  V30 8656 C 869.408 -2.70832 2.07034 0
M  V30 8657 H 870.601 -1.0568 2.80663 0
M  V30 8658 H 868.154 -0.515517 1.47554 0
M  V30 8659 H 868.889 -3.02974 1.15661 0
M  V30 8660 H 868.674 -2.65001 2.88993 0
M  V30 8661 H 870.164 -3.46611 2.32918 0
M  V30 8662 N 870.601 -1.47988 -0.541979 0
M  V30 8663 C 871.564 -1.61148 -1.62984 0
M  V30 8664 C 872.564 -0.48553 -1.53295 0
M  V30 8665 O 873.754 -0.751012 -1.5718 0
M  V30 8666 C 870.886 -1.57038 -3.02576 0
M  V30 8667 H 872.079 -2.58138 -1.52659 0
M  V30 8668 H 869.632 -1.36405 -0.763106 0
M  V30 8669 H 870.367 -0.614807 -3.18419 0
M  V30 8670 H 870.152 -2.38769 -3.11018 0
M  V30 8671 H 871.642 -1.69416 -3.81691 0
M  V30 8672 N 872.079 0.78992 -1.36375 0
M  V30 8673 C 873.026 1.90254 -1.3066 0
M  V30 8674 C 873.996 1.65171 -0.17539 0
M  V30 8675 O 875.181 1.87338 -0.361824 0
M  V30 8676 C 872.321 3.27057 -1.10125 0
M  V30 8677 C 871.434 3.64215 -2.32317 0
M  V30 8678 C 870.569 4.90134 -2.04798 0
M  V30 8679 C 869.608 5.19969 -3.22953 0
M  V30 8680 N 868.745 6.37071 -2.95102 0
M  V30 8681 H 873.585 1.94474 -2.25796 0
M  V30 8682 H 871.122 0.951022 -1.12223 0
M  V30 8683 H 873.08 4.05947 -0.962453 0
M  V30 8684 H 871.71 3.22261 -0.186444 0
M  V30 8685 H 870.762 2.80454 -2.57002 0
M  V30 8686 H 872.074 3.82212 -3.20492 0
M  V30 8687 H 871.228 5.76888 -1.87845 0
M  V30 8688 H 869.967 4.74205 -1.13932 0
M  V30 8689 H 868.972 4.31699 -3.40465 0
M  V30 8690 H 870.197 5.37817 -4.14644 0
M  V30 8691 H 868.143 6.22535 -2.06848 0
M  V30 8692 H 868.06 6.55398 -3.76815 0
M  V30 8693 H 869.328 7.26808 -2.81727 0
M  V30 8694 N 873.557 1.20646 1.01402 0
M  V30 8695 C 874.804 1.01819 1.7504 0
M  V30 8696 C 875.132 -0.449386 1.89237 0
M  V30 8697 O 874.387 -1.34985 1.41695 0
M  V30 8698 C 874.686 1.64991 3.17037 0
M  V30 8699 C 874.352 3.14808 3.22811 0
M  V30 8700 C 873.014 3.55692 3.24094 0
M  V30 8701 C 875.366 4.108 3.2077 0
M  V30 8702 C 872.694 4.9109 3.2101 0
M  V30 8703 C 875.046 5.46147 3.19227 0
M  V30 8704 C 873.71 5.86441 3.18815 0
M  V30 8705 H 872.98 0.372582 0.640518 0
M  V30 8706 H 875.627 1.50108 1.18911 0
M  V30 8707 H 873.932 1.08971 3.76341 0
M  V30 8708 H 875.629 1.47937 3.72714 0
M  V30 8709 H 872.219 2.8224 3.2255 0
M  V30 8710 H 876.403 3.80246 3.18946 0
M  V30 8711 H 871.659 5.21569 3.19023 0
M  V30 8712 H 875.833 6.20272 3.166 0
M  V30 8713 H 873.46 6.91328 3.16179 0
M  V30 8714 N 875.035 -1.20752 1.01276 0
M  V30 8715 C 875.998 -2.2162 0.584583 0
M  V30 8716 C 876.998 -1.57094 -0.343215 0
M  V30 8717 O 878.188 -1.73696 -0.132433 0
M  V30 8718 C 875.32 -3.40583 -0.146872 0
M  V30 8719 H 876.513 -2.61015 1.47686 0
M  V30 8720 H 874.066 -1.34148 0.802123 0
M  V30 8721 H 874.801 -3.06686 -1.05424 0
M  V30 8722 H 874.586 -3.88642 0.51958 0
M  V30 8723 H 876.076 -4.15339 -0.433924 0
M  V30 8724 N 876.513 -0.788492 -1.36457 0
M  V30 8725 C 877.46 -0.18435 -2.30063 0
M  V30 8726 C 878.43 0.67128 -1.51931 0
M  V30 8727 O 879.615 0.620152 -1.8044 0
M  V30 8728 C 876.755 0.675596 -3.38422 0
M  V30 8729 C 875.868 -0.198475 -4.31544 0
M  V30 8730 C 875.003 0.667757 -5.26986 0
M  V30 8731 C 874.042 -0.207825 -6.11747 0
M  V30 8732 N 873.179 0.617335 -6.99381 0
M  V30 8733 H 878.019 -0.988056 -2.81143 0
M  V30 8734 H 875.556 -0.498815 -1.38384 0
M  V30 8735 H 877.514 1.18916 -3.99894 0
M  V30 8736 H 876.144 1.44474 -2.88664 0
M  V30 8737 H 875.196 -0.829995 -3.71235 0
M  V30 8738 H 876.508 -0.873163 -4.91098 0
M  V30 8739 H 875.662 1.24716 -5.93743 0
M  V30 8740 H 874.401 1.37607 -4.67884 0
M  V30 8741 H 873.406 -0.799638 -5.43954 0
M  V30 8742 H 874.631 -0.913729 -6.72925 0
M  V30 8743 H 872.577 1.30996 -6.42788 0
M  V30 8744 H 872.494 0.000307255 -7.56 0
M  V30 8745 H 873.762 1.1806 -7.70508 0
M  V30 8746 N 877.991 1.48044 -0.54043 0
M  V30 8747 C 879.268 1.95523 0.0547302 0
M  V30 8748 C 879.648 1.48284 1.5025 0
M  V30 8749 O 878.996 0.714037 2.17057 0
M  V30 8750 C 879.206 3.48923 -0.0733393 0
M  V30 8751 C 880.554 4.24523 0.0806026 0
M  V30 8752 O 881.578 3.562 -5.58687e-05 0
M  V30 8753 O 880.437 5.45922 0.251216 0
M  V30 8754 H 877.531 0.823728 0.073493 0
M  V30 8755 H 880.077 1.5852 -0.605768 0
M  V30 8756 H 878.849 3.76059 -1.08144 0
M  V30 8757 H 878.472 3.92648 0.625536 0
M  V30 8758 N 879.47 0.276058 1.55163 0
M  V30 8759 C 880.418 -0.626978 2.2399 0
M  V30 8760 C 881.412 -1.15708 1.23725 0
M  V30 8761 O 882.618 -1.1106 1.41653 0
M  V30 8762 H 878.993 -0.220742 0.718872 0
M  V30 8763 H 880.964 -0.0236569 2.98391 0
M  V30 8764 C 879.713 -1.79935 2.97521 0
M  V30 8765 H 879.036 -1.40064 3.74463 0
M  V30 8766 H 880.476 -2.40781 3.48999 0
M  V30 8767 C 878.935 -2.68838 2.03046 0
M  V30 8768 O 879.465 -3.69224 1.58229 0
M  V30 8769 N 877.671 -2.36028 1.69527 0
M  V30 8770 H 877.218 -1.54442 2.06169 0
M  V30 8771 H 877.176 -2.95782 1.06586 0
M  V30 8772 O 880.987 -1.60877 0.141725 0
M  V30 8773 H 881.678 -1.88325 -0.453148 0
M  V30 END ATOM
M  V30 BEGIN BOND
M  V30 END BOND
M  V30 END CTAB
M  END
$$$$
