drugbank_target|P83689 Orange carotenoid-binding protein (DB02772)
 OpenBabel12092120253D

  0  0  0     0  0            999 V3000
M  V30 BEGIN CTAB
M  V30 COUNTS 4967 5021 0 0 0
M  V30 BEGIN ATOM
M  V30 1 H -0.908 1.98254 -0.117106 0
M  V30 2 N 0 1.576 0 0
M  V30 3 C 0.933 2.03868 1.02534 0
M  V30 4 C 1.911 0.928543 1.3348 0
M  V30 5 O 3.095 1.19667 1.45644 0
M  V30 6 C 0.222 2.43627 2.35294 0
M  V30 7 C -0.732 3.65373 2.2001 0
M  V30 8 S 0.101 5.13292 1.52614 0
M  V30 9 C 1.257 5.56322 2.86805 0
M  V30 10 H 1.49 2.90518 0.631377 0
M  V30 11 H -0.977 1.52953 0.210867 0
M  V30 12 H 0.981 2.67203 3.11629 0
M  V30 13 H -0.358 1.57376 2.7183 0
M  V30 14 H -1.165 3.90944 3.18086 0
M  V30 15 H -1.563 3.418 1.51819 0
M  V30 16 H 0.729 5.58782 3.83104 0
M  V30 17 H 1.672 6.56266 2.65933 0
M  V30 18 H 2.08 4.83886 2.90714 0
M  V30 19 N 1.4781 -0.272755 1.55222 0
M  V30 20 C 2.8891 -0.84378 1.66545 0
M  V30 21 C 3.2401 -1.87035 0.592641 0
M  V30 22 O 2.3651 -2.14761 -0.265818 0
M  V30 23 C 2.9601 -1.53723 3.01918 0
M  V30 24 C 1.5191 -2.05628 3.15268 0
M  V30 25 C 0.6661 -0.898424 2.62343 0
M  V30 26 H 3.6171 -0.0490998 1.58624 0
M  V30 27 H 3.6381 -2.40421 2.94921 0
M  V30 28 H 3.1501 -0.78983 3.79978 0
M  V30 29 H 1.2511 -2.83329 2.41983 0
M  V30 30 H 1.3641 -2.27142 4.21833 0
M  V30 31 H -0.2719 -1.29186 2.19506 0
M  V30 32 H 0.5111 -0.164528 3.42906 0
M  V30 33 N 2.9562 -1.48159 -0.537278 0
M  V30 34 C 4.2032 -1.55804 -1.29349 0
M  V30 35 C 4.5312 -0.228802 -1.9315 0
M  V30 36 O 3.7862 0.780242 -1.79473 0
M  V30 37 C 4.0852 -2.63956 -2.40961 0
M  V30 38 C 3.7512 -4.0662 -1.94861 0
M  V30 39 C 2.4132 -4.45452 -1.82006 0
M  V30 40 C 4.7652 -4.96055 -1.59933 0
M  V30 41 C 2.0932 -5.71531 -1.32547 0
M  V30 42 C 4.4452 -6.22617 -1.11939 0
M  V30 43 C 3.1092 -6.60312 -0.976951 0
M  V30 44 H 2.3792 -0.570129 -0.473322 0
M  V30 45 H 5.0262 -1.81845 -0.600372 0
M  V30 46 H 3.3312 -2.31747 -3.15912 0
M  V30 47 H 5.0282 -2.67089 -2.99107 0
M  V30 48 H 1.6182 -3.75949 -2.05815 0
M  V30 49 H 5.8022 -4.66738 -1.68728 0
M  V30 50 H 1.0582 -5.99468 -1.202 0
M  V30 51 H 5.2322 -6.91318 -0.839811 0
M  V30 52 H 2.8592 -7.57895 -0.591501 0
M  V30 53 N 4.4343 0.785586 -1.36625 0
M  V30 54 C 5.6623 1.57448 -1.3423 0
M  V30 55 C 6.0773 1.88649 0.0755653 0
M  V30 56 O 5.4343 1.50414 1.03354 0
M  V30 57 C 5.4853 2.89316 -2.16745 0
M  V30 58 O 5.2063 2.59459 -3.53005 0
M  V30 59 C 6.7073 3.83606 -2.22174 0
M  V30 60 H 3.9273 0.488226 -0.4603 0
M  V30 61 H 6.4713 0.974733 -1.79775 0
M  V30 62 H 4.6263 3.4575 -1.74745 0
M  V30 63 H 5.0403 3.43804 -3.96105 0
M  V30 64 H 6.5143 4.73181 -2.8426 0
M  V30 65 H 6.9913 4.21734 -1.22627 0
M  V30 66 H 7.5973 3.33104 -2.64427 0
M  V30 67 N 5.9124 1.20967 1.01018 0
M  V30 68 C 7.1614 1.01796 1.74128 0
M  V30 69 C 7.4744 -0.449691 1.90361 0
M  V30 70 O 8.6804 -0.76068 2.60626 0
M  V30 71 C 7.1364 1.7727 3.13215 0
M  V30 72 C 6.7444 3.28171 3.04972 0
M  V30 73 C 8.4884 1.66489 3.90489 0
M  V30 74 C 6.3954 3.96156 4.39107 0
M  V30 75 H 5.3254 0.377276 0.652824 0
M  V30 76 H 7.9764 1.44651 1.12909 0
M  V30 77 H 6.3584 1.27205 3.75013 0
M  V30 78 H 7.5324 3.85499 2.52443 0
M  V30 79 H 5.8474 3.39437 2.41188 0
M  V30 80 H 8.4444 2.14617 4.89738 0
M  V30 81 H 8.7874 0.6222 4.11624 0
M  V30 82 H 9.3204 2.14003 3.35332 0
M  V30 83 H 6.0594 5.00604 4.23174 0
M  V30 84 H 5.5794 3.43617 4.91617 0
M  V30 85 H 7.2584 4.00774 5.07926 0
M  V30 86 N 7.3905 -1.2043 1.01659 0
M  V30 87 C 8.6675 -1.8548 0.621004 0
M  V30 88 C 9.0475 -1.9091 -0.900919 0
M  V30 89 O 8.3955 -1.41694 -1.79263 0
M  V30 90 C 8.6055 -3.25119 1.2688 0
M  V30 91 C 9.9535 -4.01403 1.38423 0
M  V30 92 O 10.9775 -3.34473 1.22501 0
M  V30 93 O 9.8365 -5.21265 1.64151 0
M  V30 94 H 6.9305 -0.798761 0.214266 0
M  V30 95 H 9.4765 -1.28019 1.11396 0
M  V30 96 H 8.2485 -3.15932 2.30873 0
M  V30 97 H 7.8715 -3.90212 0.762917 0
M  V30 98 N 8.8686 -0.792821 -1.36206 0
M  V30 99 C 10.0966 -0.378825 -2.03402 0
M  V30 100 C 10.5116 1.00586 -1.59774 0
M  V30 101 O 9.8686 1.64574 -0.788764 0
M  V30 102 C 9.9196 -0.43683 -3.58851 0
M  V30 103 O 9.6406 -1.76691 -4.00889 0
M  V30 104 C 11.1416 -0.0138943 -4.43298 0
M  V30 105 H 8.3616 -0.155673 -0.652692 0
M  V30 106 H 10.9056 -1.07261 -1.74113 0
M  V30 107 H 9.0606 0.208575 -3.86838 0
M  V30 108 H 9.4746 -1.72011 -4.95492 0
M  V30 109 H 10.9486 -0.105615 -5.51899 0
M  V30 110 H 11.4256 1.03915 -4.2673 0
M  V30 111 H 12.0316 -0.63192 -4.20579 0
M  V30 112 N 10.3467 1.47872 -0.545128 0
M  V30 113 C 11.3097 2.28337 0.198717 0
M  V30 114 C 12.3097 1.36255 0.853888 0
M  V30 115 O 13.4997 1.59003 0.711606 0
M  V30 116 C 10.6317 3.15585 1.28915 0
M  V30 117 H 11.8247 2.95567 -0.507941 0
M  V30 118 H 9.3777 1.53362 -0.301616 0
M  V30 119 H 10.1127 2.53019 2.02859 0
M  V30 120 H 9.8977 3.83337 0.824309 0
M  V30 121 H 11.3877 3.76243 1.81194 0
M  V30 122 N 11.8248 0.280983 1.55075 0
M  V30 123 C 13.2408 -0.0729964 1.59433 0
M  V30 124 C 13.4408 -1.5411 1.29817 0
M  V30 125 O 12.4968 -2.29086 1.06187 0
M  V30 126 C 13.8098 0.306921 2.9913 0
M  V30 127 C 15.3578 0.254023 3.11968 0
M  V30 128 C 15.8328 0.608467 4.5394 0
M  V30 129 N 17.3238 0.560241 4.59799 0
M  V30 130 C 18.0588 0.80722 5.6769 0
M  V30 131 N 17.5548 1.11912 6.83701 0
M  V30 132 N 19.3478 0.735623 5.57266 0
M  V30 133 H 11.4988 1.238 1.7259 0
M  V30 134 H 13.7618 0.500547 0.805082 0
M  V30 135 H 13.4678 1.32816 3.25657 0
M  V30 136 H 13.3418 -0.349363 3.75579 0
M  V30 137 H 15.7288 -0.75794 2.852 0
M  V30 138 H 15.8098 0.944649 2.37718 0
M  V30 139 H 15.4538 1.61814 4.81434 0
M  V30 140 H 15.3838 -0.104013 5.26497 0
M  V30 141 H 17.8748 0.329288 3.76463 0
M  V30 142 H 18.1878 1.29409 7.61888 0
M  V30 143 H 16.5328 1.15695 6.85303 0
M  V30 144 H 19.7238 0.491752 4.6551 0
M  V30 145 H 19.8968 0.931482 6.4127 0
M  V30 146 N 13.3029 -1.57598 0.00835791 0
M  V30 147 C 14.5279 -1.95617 -0.689103 0
M  V30 148 C 14.9529 -0.883753 -1.66046 0
M  V30 149 O 14.3109 0.157352 -1.80616 0
M  V30 150 C 14.3589 -3.32736 -1.38994 0
M  V30 151 O 13.4629 -3.27631 -2.50463 0
M  V30 152 H 12.8039 -0.638379 -0.182668 0
M  V30 153 H 15.3339 -2.045 0.064036 0
M  V30 154 H 15.3439 -3.68494 -1.75147 0
M  V30 155 H 14.0189 -4.1034 -0.677778 0
M  V30 156 H 12.5959 -3.03561 -2.16576 0
M  V30 157 N 14.781 0.264519 -1.55364 0
M  V30 158 C 16.03 0.992812 -1.75574 0
M  V30 159 C 16.343 1.87142 -0.568979 0
M  V30 160 O 17.549 2.63513 -0.653682 0
M  V30 161 C 16.005 1.81519 -3.10771 0
M  V30 162 C 15.613 0.984839 -4.37041 0
M  V30 163 C 17.357 2.53727 -3.40327 0
M  V30 164 C 15.264 1.80209 -5.63275 0
M  V30 165 H 14.194 0.374412 -0.65447 0
M  V30 166 H 16.845 0.248138 -1.81815 0
M  V30 167 H 15.227 2.60115 -2.98591 0
M  V30 168 H 16.401 0.242455 -4.60162 0
M  V30 169 H 14.716 0.37691 -4.14691 0
M  V30 170 H 17.313 3.15292 -4.3185 0
M  V30 171 H 17.656 3.24447 -2.60845 0
M  V30 172 H 18.189 1.82156 -3.53644 0
M  V30 173 H 14.928 1.13896 -6.45529 0
M  V30 174 H 14.448 2.52022 -5.44284 0
M  V30 175 H 16.127 2.37364 -6.01887 0
M  V30 176 N 16.2591 1.48442 0.529413 0
M  V30 177 C 17.5061 1.56488 1.28521 0
M  V30 178 C 17.8341 0.239042 1.93025 0
M  V30 179 O 17.0891 -0.770713 1.79885 0
M  V30 180 C 17.3881 2.6523 2.39558 0
M  V30 181 C 17.0541 4.07648 1.92702 0
M  V30 182 C 15.7161 4.46411 1.79641 0
M  V30 183 C 18.0681 4.96896 1.573 0
M  V30 184 C 15.3961 5.72226 1.29514 0
M  V30 185 C 17.7481 6.23202 1.08636 0
M  V30 186 C 16.4121 6.60821 0.941919 0
M  V30 187 H 15.6821 0.572631 0.470292 0
M  V30 188 H 18.3291 1.82161 0.59072 0
M  V30 189 H 16.6341 2.33419 3.14679 0
M  V30 190 H 18.3311 2.68671 2.97686 0
M  V30 191 H 14.9211 3.77036 2.03819 0
M  V30 192 H 19.1051 4.67626 1.66251 0
M  V30 193 H 14.3611 6.00097 1.17019 0
M  V30 194 H 18.5351 6.91753 0.803136 0
M  V30 195 H 16.1621 7.58198 0.5513 0
M  V30 196 N 17.7372 -0.778329 1.37039 0
M  V30 197 C 19.1482 -1.35421 1.28523 0
M  V30 198 C 19.4992 -1.96075 -0.0700901 0
M  V30 199 O 18.6242 -1.93352 -0.971801 0
M  V30 200 C 19.2192 -2.46211 2.32735 0
M  V30 201 C 17.7782 -2.99585 2.27873 0
M  V30 202 C 16.9252 -1.72748 2.16918 0
M  V30 203 H 19.8762 -0.5791 1.47757 0
M  V30 204 H 19.8972 -3.2552 1.9702 0
M  V30 205 H 19.4092 -2.02036 3.31365 0
M  V30 206 H 17.5102 -3.48152 1.32745 0
M  V30 207 H 17.6232 -3.55646 3.21018 0
M  V30 208 H 15.9872 -1.95416 1.63354 0
M  V30 209 H 16.7702 -1.30686 3.17452 0
M  V30 210 N 19.2153 -1.21501 -1.00376 0
M  V30 211 C 20.1253 -0.991447 -2.12621 0
M  V30 212 C 21.1413 0.0568446 -1.73907 0
M  V30 213 O 22.3173 -0.13348 -2.00957 0
M  V30 214 C 19.3823 -0.560312 -3.42142 0
M  V30 215 C 18.4433 -1.68096 -3.95022 0
M  V30 216 C 17.6763 -1.2703 -5.18362 0
M  V30 217 O 17.8993 -0.144438 -5.70217 0
M  V30 218 O 16.8333 -2.08269 -5.64719 0
M  V30 219 H 20.6593 -1.93158 -2.34358 0
M  V30 220 H 18.2443 -0.999999 -1.10997 0
M  V30 221 H 20.1263 -0.329724 -4.20108 0
M  V30 222 H 18.8013 0.351089 -3.2179 0
M  V30 223 H 17.7083 -1.96597 -3.18278 0
M  V30 224 H 19.0413 -2.56983 -4.19786 0
M  V30 225 N 20.6934 1.19889 -1.02296 0
M  V30 226 C 21.9214 1.9339 -0.735399 0
M  V30 227 C 22.3364 1.75148 0.704887 0
M  V30 228 O 21.6934 1.06954 1.47875 0
M  V30 229 C 21.7444 3.45313 -1.06962 0
M  V30 230 O 21.4654 3.62964 -2.45334 0
M  V30 231 C 22.9664 4.35948 -0.804021 0
M  V30 232 H 20.1864 0.61448 -0.269546 0
M  V30 233 H 22.7304 1.522 -1.36585 0
M  V30 234 H 20.8854 3.84359 -0.484455 0
M  V30 235 H 21.2994 4.56886 -2.57595 0
M  V30 236 H 22.7734 5.41174 -1.0879 0
M  V30 237 H 23.2504 4.3842 0.261691 0
M  V30 238 H 23.8564 4.02574 -1.37164 0
M  V30 239 N 22.1715 0.800033 1.35784 0
M  V30 240 C 23.1015 0.220184 2.3246 0
M  V30 241 C 24.0825 -0.65073 1.57161 0
M  V30 242 O 25.2675 -0.582359 1.85263 0
M  V30 243 C 22.3975 -0.637353 3.41402 0
M  V30 244 C 21.3515 0.134531 4.27789 0
M  V30 245 C 20.6775 -0.844285 5.27992 0
M  V30 246 C 21.9775 1.32979 5.05088 0
M  V30 247 H 23.6715 1.02787 2.81203 0
M  V30 248 H 21.2175 0.495717 1.35199 0
M  V30 249 H 23.1705 -1.05302 4.08031 0
M  V30 250 H 21.8945 -1.47785 2.91251 0
M  V30 251 H 20.5535 0.531296 3.6273 0
M  V30 252 H 20.2015 -1.68011 4.74111 0
M  V30 253 H 19.9015 -0.332184 5.8666 0
M  V30 254 H 21.4255 -1.2583 5.97494 0
M  V30 255 H 22.8395 0.98934 5.64699 0
M  V30 256 H 21.2365 1.77593 5.7322 0
M  V30 257 H 22.3065 2.11978 4.36111 0
M  V30 258 N 23.6496 -1.47581 0.552962 0
M  V30 259 C 24.6126 -2.28439 -0.186605 0
M  V30 260 C 25.6126 -1.36706 -0.84665 0
M  V30 261 O 26.8026 -1.59378 -0.703164 0
M  V30 262 C 23.9346 -3.16264 -1.2724 0
M  V30 263 H 25.1276 -2.95294 0.523609 0
M  V30 264 H 22.6806 -1.532 0.309745 0
M  V30 265 H 23.4156 -2.54091 -2.01514 0
M  V30 266 H 23.2006 -3.83769 -0.803968 0
M  V30 267 H 24.6906 -3.77198 -1.79196 0
M  V30 268 N 25.1277 -0.289203 -1.54924 0
M  V30 269 C 26.0907 0.579144 -2.21762 0
M  V30 270 C 27.0907 1.07047 -1.1999 0
M  V30 271 O 28.2807 0.968384 -1.44803 0
M  V30 272 C 25.4127 1.80055 -2.8947 0
M  V30 273 H 26.6057 -0.00464908 -2.999 0
M  V30 274 H 24.1587 -0.0399306 -1.56249 0
M  V30 275 H 24.8937 2.42449 -2.15381 0
M  V30 276 H 24.6787 1.45602 -3.64064 0
M  V30 277 H 26.1687 2.41773 -3.40493 0
M  V30 278 N 26.6058 1.57591 -0.0167156 0
M  V30 279 C 27.8828 1.82547 0.702564 0
M  V30 280 C 28.2628 0.898018 1.91047 0
M  V30 281 O 27.6108 -0.0493456 2.28447 0
M  V30 282 C 27.8208 3.31459 1.09251 0
M  V30 283 C 29.1688 3.97622 1.48937 0
M  V30 284 O 30.1928 3.35881 1.18584 0
M  V30 285 O 29.0518 5.06415 2.05442 0
M  V30 286 H 26.1458 0.752268 0.343544 0
M  V30 287 H 28.6918 1.69644 -0.0434495 0
M  V30 288 H 27.4638 3.9061 0.23227 0
M  V30 289 H 27.0868 3.49422 1.89709 0
M  V30 290 N 28.0839 -0.256276 1.55502 0
M  V30 291 C 29.3299 -0.987079 1.77157 0
M  V30 292 C 29.6629 -1.85327 0.580315 0
M  V30 293 O 28.9379 -1.89874 -0.421686 0
M  V30 294 C 29.2209 -1.85553 3.08613 0
M  V30 295 C 29.0739 -1.01816 4.38125 0
M  V30 296 C 30.3929 -2.8397 3.36228 0
M  V30 297 H 27.5119 -0.357428 0.644526 0
M  V30 298 H 30.1539 -0.258239 1.88237 0
M  V30 299 H 28.3039 -2.47695 2.99298 0
M  V30 300 H 29.9759 -0.416159 4.59419 0
M  V30 301 H 28.2189 -0.322178 4.32602 0
M  V30 302 H 28.8899 -1.65939 5.26468 0
M  V30 303 H 31.3659 -2.31964 3.45445 0
M  V30 304 H 30.2419 -3.41864 4.29442 0
M  V30 305 H 30.5029 -3.59955 2.56681 0
M  V30 306 N 29.562 -1.4872 -0.521534 0
M  V30 307 C 30.808 -1.574 -1.27879 0
M  V30 308 C 31.141 -0.250817 -1.92573 0
M  V30 309 O 30.416 0.743934 -1.79711 0
M  V30 310 C 30.699 -2.71843 -2.36164 0
M  V30 311 C 30.552 -4.13893 -1.76105 0
M  V30 312 C 31.871 -2.82008 -3.37875 0
M  V30 313 H 28.99 -0.572941 -0.463581 0
M  V30 314 H 31.632 -1.80927 -0.580119 0
M  V30 315 H 29.782 -2.51914 -2.95756 0
M  V30 316 H 31.454 -4.45284 -1.20499 0
M  V30 317 H 29.697 -4.20498 -1.06601 0
M  V30 318 H 30.368 -4.89804 -2.5455 0
M  V30 319 H 32.844 -3.00086 -2.88249 0
M  V30 320 H 31.72 -3.63796 -4.11028 0
M  V30 321 H 31.981 -1.90511 -3.98946 0
M  V30 322 N 31.0401 0.771051 -1.3745 0
M  V30 323 C 32.4511 1.34737 -1.29239 0
M  V30 324 C 32.8021 1.96109 0.0596908 0
M  V30 325 O 31.9271 1.93865 0.961534 0
M  V30 326 C 32.5221 2.44973 -2.34037 0
M  V30 327 C 31.0811 2.98372 -2.29458 0
M  V30 328 C 30.2281 1.71595 -2.17831 0
M  V30 329 H 33.1791 0.571256 -1.48062 0
M  V30 330 H 33.2001 3.24471 -1.98744 0
M  V30 331 H 32.7121 2.00276 -3.32432 0
M  V30 332 H 30.8131 3.47443 -1.34589 0
M  V30 333 H 30.9261 3.53939 -3.229 0
M  V30 334 H 29.2901 1.94547 -1.64388 0
M  V30 335 H 30.0731 1.29001 -3.18141 0
M  V30 336 N 32.5182 1.22032 0.997298 0
M  V30 337 C 33.4812 0.987909 2.06816 0
M  V30 338 C 34.4812 -0.0440084 1.6074 0
M  V30 339 O 35.6712 0.194053 1.73116 0
M  V30 340 C 32.8032 0.49132 3.37341 0
M  V30 341 H 33.9962 1.93803 2.28868 0
M  V30 342 H 31.5492 1.03838 1.16822 0
M  V30 343 H 32.2842 -0.463364 3.20973 0
M  V30 344 H 32.0692 1.23575 3.72118 0
M  V30 345 H 33.5592 0.348824 4.16141 0
M  V30 346 N 33.9963 -1.19345 1.0293 0
M  V30 347 C 35.2243 -1.92997 0.745644 0
M  V30 348 C 35.6393 -1.75519 -0.695589 0
M  V30 349 O 34.9963 -1.07737 -1.47306 0
M  V30 350 C 35.0473 -3.44741 1.08792 0
M  V30 351 O 34.7683 -3.61658 2.47256 0
M  V30 352 C 36.2693 -4.35515 0.827129 0
M  V30 353 H 33.4893 -0.613042 0.272801 0
M  V30 354 H 36.0333 -1.51473 1.3739 0
M  V30 355 H 34.1883 -3.84097 0.504832 0
M  V30 356 H 34.6023 -4.55514 2.60015 0
M  V30 357 H 36.0763 -5.40589 1.11658 0
M  V30 358 H 36.5533 -4.38552 -0.238436 0
M  V30 359 H 37.1593 -4.01841 1.39297 0
M  V30 360 N 35.4744 -0.807222 -1.35358 0
M  V30 361 C 36.7234 -0.384376 -1.98004 0
M  V30 362 C 37.0364 1.0543 -1.64754 0
M  V30 363 O 38.2424 1.58029 -2.20769 0
M  V30 364 C 36.6984 -0.636326 -3.5423 0
M  V30 365 C 36.3064 -2.08759 -3.96388 0
M  V30 366 C 38.0504 -0.278869 -4.23583 0
M  V30 367 C 35.9574 -2.28525 -5.45463 0
M  V30 368 H 34.8874 -0.139986 -0.740891 0
M  V30 369 H 37.5384 -0.991369 -1.54415 0
M  V30 370 H 35.9204 0.0406256 -3.95979 0
M  V30 371 H 37.0944 -2.8024 -3.6579 0
M  V30 372 H 35.4094 -2.40497 -3.39926 0
M  V30 373 H 38.0064 -0.404599 -5.33167 0
M  V30 374 H 38.3494 0.775012 -4.09022 0
M  V30 375 H 38.8824 -0.909764 -3.87257 0
M  V30 376 H 35.6214 -3.32361 -5.64992 0
M  V30 377 H 35.1414 -1.61569 -5.77629 0
M  V30 378 H 36.8204 -2.10109 -6.11934 0
M  V30 379 N 36.9525 1.47285 -0.560781 0
M  V30 380 C 37.9155 2.28535 0.174488 0
M  V30 381 C 38.9155 1.37153 0.839388 0
M  V30 382 O 40.1055 1.59748 0.694702 0
M  V30 383 C 37.2375 3.16934 1.25561 0
M  V30 384 H 38.4305 2.95012 -0.539262 0
M  V30 385 H 35.9835 1.53034 -0.317865 0
M  V30 386 H 36.7185 2.55157 2.00164 0
M  V30 387 H 36.5035 3.8419 0.783604 0
M  V30 388 H 37.9935 3.78143 1.77193 0
M  V30 389 N 38.4306 0.297415 1.54768 0
M  V30 390 C 39.8466 -0.0560823 1.59501 0
M  V30 391 C 40.0466 -1.52725 1.31444 0
M  V30 392 O 39.1026 -2.27947 1.08611 0
M  V30 393 C 40.4156 0.338631 2.98787 0
M  V30 394 C 41.9636 0.287097 3.11681 0
M  V30 395 C 42.4386 0.656579 4.53269 0
M  V30 396 N 43.9296 0.608977 4.59179 0
M  V30 397 C 44.6646 0.867385 5.66802 0
M  V30 398 N 44.1606 1.19157 6.82476 0
M  V30 399 N 45.9536 0.794687 5.56454 0
M  V30 400 H 38.1046 1.25624 1.71267 0
M  V30 401 H 40.3676 0.509057 0.799728 0
M  V30 402 H 40.0736 1.36263 3.2423 0
M  V30 403 H 39.9476 -0.309508 3.75928 0
M  V30 404 H 42.3346 -0.727649 2.85988 0
M  V30 405 H 42.4156 0.969809 2.36703 0
M  V30 406 H 42.0596 1.66912 4.7969 0
M  V30 407 H 41.9896 -0.0481649 5.26578 0
M  V30 408 H 44.4806 0.369198 3.76092 0
M  V30 409 H 44.7936 1.37482 7.60473 0
M  V30 410 H 43.1386 1.22958 6.84037 0
M  V30 411 H 46.3296 0.541098 4.64962 0
M  V30 412 H 46.5026 0.999445 6.40246 0
M  V30 413 N 39.9087 -1.5758 0.0250728 0
M  V30 414 C 41.1557 -1.91633 -0.654444 0
M  V30 415 C 41.4837 -0.901103 -1.72367 0
M  V30 416 O 40.7387 0.0905647 -1.9549 0
M  V30 417 C 41.0377 -3.32421 -1.31268 0
M  V30 418 C 40.7037 -4.49344 -0.374223 0
M  V30 419 C 39.3657 -4.8106 -0.115911 0
M  V30 420 C 41.7177 -5.20498 0.270432 0
M  V30 421 C 39.0457 -5.8129 0.79493 0
M  V30 422 C 41.3977 -6.21699 1.1693 0
M  V30 423 C 40.0617 -6.51859 1.43655 0
M  V30 424 H 39.3317 -0.701236 -0.239478 0
M  V30 425 H 41.9787 -1.91307 0.0859734 0
M  V30 426 H 40.2837 -3.28989 -2.12775 0
M  V30 427 H 41.9807 -3.56038 -1.84494 0
M  V30 428 H 38.5707 -4.24579 -0.58573 0
M  V30 429 H 42.7547 -4.96229 0.0839194 0
M  V30 430 H 38.0107 -6.03005 1.00973 0
M  V30 431 H 42.1847 -6.75955 1.67504 0
M  V30 432 H 39.8117 -7.2934 2.144 0
M  V30 433 N 41.3868 0.248026 -1.55636 0
M  V30 434 C 42.3338 1.30707 -1.90222 0
M  V30 435 C 43.3038 1.47881 -0.756332 0
M  V30 436 O 44.4888 1.61883 -1.00988 0
M  V30 437 C 41.6288 2.65769 -2.20138 0
M  V30 438 C 40.7418 2.56612 -3.47526 0
M  V30 439 C 39.8768 3.8402 -3.67017 0
M  V30 440 C 38.9158 3.69476 -4.8801 0
M  V30 441 N 38.0528 4.88774 -5.04029 0
M  V30 442 H 42.8928 1.00512 -2.80538 0
M  V30 443 H 40.4298 0.485055 -1.38873 0
M  V30 444 H 42.3878 3.44386 -2.35487 0
M  V30 445 H 41.0178 2.94115 -1.33027 0
M  V30 446 H 40.0698 1.69571 -3.40514 0
M  V30 447 H 41.3818 2.41774 -4.36287 0
M  V30 448 H 40.5358 4.7108 -3.8232 0
M  V30 449 H 39.2748 4.01754 -2.76487 0
M  V30 450 H 38.2798 2.80799 -4.72686 0
M  V30 451 H 39.5048 3.53238 -5.8 0
M  V30 452 H 37.4508 5.0687 -4.16435 0
M  V30 453 H 37.3678 4.76562 -5.86877 0
M  V30 454 H 38.6358 5.77335 -5.23741 0
M  V30 455 N 42.8649 1.48995 0.513639 0
M  V30 456 C 43.7969 1.60836 1.63293 0
M  V30 457 C 44.8099 0.491701 1.55197 0
M  V30 458 O 45.9989 0.763238 1.6136 0
M  V30 459 C 43.0989 1.53731 3.02027 0
M  V30 460 C 42.2719 2.80715 3.35437 0
M  V30 461 C 41.3309 2.66837 4.53525 0
M  V30 462 O 40.3569 3.40753 4.55934 0
M  V30 463 N 41.5589 1.77539 5.52684 0
M  V30 464 H 44.3239 2.57366 1.53566 0
M  V30 465 H 41.8849 1.45925 0.701259 0
M  V30 466 H 43.8769 1.42118 3.78926 0
M  V30 467 H 42.4469 0.651092 3.05744 0
M  V30 468 H 41.6669 3.06772 2.47557 0
M  V30 469 H 42.9549 3.64927 3.54551 0
M  V30 470 H 42.3529 1.16719 5.53528 0
M  V30 471 H 40.9099 1.71856 6.28736 0
M  V30 472 N 44.343 -0.763751 1.37857 0
M  V30 473 C 45.273 -1.89103 1.36975 0
M  V30 474 C 46.254 -1.68439 0.237152 0
M  V30 475 O 47.439 -1.8918 0.438713 0
M  V30 476 C 44.569 -3.26496 1.18395 0
M  V30 477 C 43.523 -3.61741 2.28751 0
M  V30 478 C 42.849 -4.97762 1.95286 0
M  V30 479 C 44.149 -3.67665 3.70972 0
M  V30 480 H 45.843 -1.90099 2.31307 0
M  V30 481 H 43.389 -0.91319 1.11341 0
M  V30 482 H 45.342 -4.05003 1.16406 0
M  V30 483 H 44.066 -3.25955 0.205215 0
M  V30 484 H 42.725 -2.85547 2.29909 0
M  V30 485 H 42.373 -4.93769 0.959221 0
M  V30 486 H 42.073 -5.22313 2.69189 0
M  V30 487 H 43.597 -5.7866 1.94898 0
M  V30 488 H 45.011 -4.36307 3.719 0
M  V30 489 H 43.408 -4.03718 4.43995 0
M  V30 490 H 44.478 -2.68134 4.0402 0
M  V30 491 N 45.8211 -1.22559 -0.990812 0
M  V30 492 C 47.0461 -1.07862 -1.77145 0
M  V30 493 C 47.4711 0.366447 -1.84496 0
M  V30 494 O 46.8291 1.26478 -1.29896 0
M  V30 495 C 46.8771 -1.69686 -3.18181 0
M  V30 496 O 45.9811 -0.951946 -4.01263 0
M  V30 497 H 45.3221 -0.378712 -0.545411 0
M  V30 498 H 47.8521 -1.62399 -1.2445 0
M  V30 499 H 47.8621 -1.74496 -3.68802 0
M  V30 500 H 46.5371 -2.74841 -3.12146 0
M  V30 501 H 45.1141 -0.980011 -3.59792 0
M  V30 502 N 47.2992 1.18797 -1.03562 0
M  V30 503 C 48.2622 2.20464 -0.626769 0
M  V30 504 C 49.2622 1.57721 0.313173 0
M  V30 505 O 50.4522 1.73917 0.0992615 0
M  V30 506 C 47.5842 3.40802 0.0818498 0
M  V30 507 H 48.7772 2.58149 -1.5264 0
M  V30 508 H 46.3302 1.32593 -0.827578 0
M  V30 509 H 47.0652 3.08642 0.995518 0
M  V30 510 H 46.8502 3.8758 -0.593652 0
M  V30 511 H 48.3402 4.16092 0.354584 0
M  V30 512 N 48.7773 0.814389 1.34928 0
M  V30 513 C 49.6873 0.231978 2.3345 0
M  V30 514 C 50.7033 -0.629139 1.62228 0
M  V30 515 O 51.8793 -0.539052 1.94052 0
M  V30 516 C 48.9443 -0.603482 3.41407 0
M  V30 517 C 48.0053 0.279037 4.28392 0
M  V30 518 C 47.2383 -0.516643 5.31193 0
M  V30 519 O 47.4613 -1.75068 5.4287 0
M  V30 520 O 46.3953 0.0965652 6.01823 0
M  V30 521 H 50.2213 1.04721 2.85074 0
M  V30 522 H 47.8063 0.576343 1.37836 0
M  V30 523 H 49.6883 -1.07908 4.0735 0
M  V30 524 H 48.3633 -1.39618 2.92042 0
M  V30 525 H 47.2703 0.801948 3.65403 0
M  V30 526 H 48.6033 1.03588 4.81176 0
M  V30 527 N 50.2554 -1.46986 0.568584 0
M  V30 528 C 51.5324 -1.95592 -0.0174074 0
M  V30 529 C 51.9124 -1.51124 -1.47393 0
M  V30 530 O 51.2604 -0.755329 -2.15655 0
M  V30 531 C 51.4704 -3.48719 0.139913 0
M  V30 532 C 52.8184 -4.246 0.000426376 0
M  V30 533 O 53.8424 -3.56135 0.0680316 0
M  V30 534 O 52.7014 -5.46302 -0.146988 0
M  V30 535 H 49.7954 -0.82498 -0.0577599 0
M  V30 536 H 52.3414 -1.57335 0.635909 0
M  V30 537 H 51.1134 -3.73927 1.15301 0
M  V30 538 H 50.7364 -3.93771 -0.550491 0
M  V30 539 N 51.7335 -0.305618 -1.54608 0
M  V30 540 C 52.6655 0.602161 -2.21149 0
M  V30 541 C 53.6785 1.09394 -1.20569 0
M  V30 542 O 54.8675 1.0106 -1.47136 0
M  V30 543 C 51.9675 1.83692 -2.84799 0
M  V30 544 C 51.1405 1.48686 -4.11353 0
M  V30 545 C 50.1995 2.57725 -4.58764 0
M  V30 546 O 49.2255 2.22623 -5.23858 0
M  V30 547 N 50.4275 3.88346 -4.31471 0
M  V30 548 H 53.1925 0.0324966 -2.99682 0
M  V30 549 H 50.7535 -0.128021 -1.61393 0
M  V30 550 H 52.7455 2.55994 -3.13448 0
M  V30 551 H 51.3155 2.31486 -2.10078 0
M  V30 552 H 50.5355 0.596269 -3.89664 0
M  V30 553 H 51.8235 1.22842 -4.93748 0
M  V30 554 H 51.2215 4.19671 -3.79331 0
M  V30 555 H 49.7785 4.56932 -4.64818 0
M  V30 556 N 53.2116 1.57565 -0.0334293 0
M  V30 557 C 54.1416 2.13511 0.945265 0
M  V30 558 C 55.1226 1.05231 1.33643 0
M  V30 559 O 56.3076 1.33084 1.41429 0
M  V30 560 C 53.4376 2.6657 2.22616 0
M  V30 561 C 52.3916 3.79676 1.97561 0
M  V30 562 C 51.7176 4.1918 3.31952 0
M  V30 563 C 53.0176 5.0557 1.31135 0
M  V30 564 H 54.7116 2.95538 0.479325 0
M  V30 565 H 52.2576 1.42166 0.229115 0
M  V30 566 H 54.2106 3.04344 2.91466 0
M  V30 567 H 52.9346 1.8171 2.71384 0
M  V30 568 H 51.5936 3.42347 1.31127 0
M  V30 569 H 51.2416 3.31296 3.78487 0
M  V30 570 H 50.9416 4.95402 3.15992 0
M  V30 571 H 52.4656 4.59541 4.02063 0
M  V30 572 H 53.8796 5.40903 1.89992 0
M  V30 573 H 52.2766 5.86818 1.25559 0
M  V30 574 H 53.3466 4.84062 0.284894 0
M  V30 575 N 54.6897 -0.239769 1.55765 0
M  V30 576 C 55.6527 -1.28038 1.90103 0
M  V30 577 C 56.6527 -1.40723 0.778055 0
M  V30 578 O 57.8427 -1.39301 1.04599 0
M  V30 579 C 54.9747 -2.65702 2.13577 0
M  V30 580 H 56.1677 -0.988048 2.83157 0
M  V30 581 H 53.7207 -0.479382 1.48767 0
M  V30 582 H 54.4557 -3.00063 1.23015 0
M  V30 583 H 54.2407 -2.57875 2.95369 0
M  V30 584 H 55.7307 -3.40828 2.41301 0
M  V30 585 N 56.1678 -1.49265 -0.50573 0
M  V30 586 C 57.0978 -1.68495 -1.61653 0
M  V30 587 C 58.0788 -0.53366 -1.61512 0
M  V30 588 O 59.2638 -0.76897 -1.78327 0
M  V30 589 C 56.3938 -1.74709 -3.00157 0
M  V30 590 C 55.3478 -2.89581 -3.15162 0
M  V30 591 C 54.6738 -2.80903 -4.5497 0
M  V30 592 C 55.9738 -4.30578 -2.95634 0
M  V30 593 H 57.6678 -2.61493 -1.45814 0
M  V30 594 H 55.2138 -1.25838 -0.70005 0
M  V30 595 H 57.1668 -1.86748 -3.77761 0
M  V30 596 H 55.8908 -0.783067 -3.17074 0
M  V30 597 H 54.5498 -2.77136 -2.39982 0
M  V30 598 H 54.1978 -1.82419 -4.68756 0
M  V30 599 H 53.8978 -3.57999 -4.65951 0
M  V30 600 H 55.4218 -2.94944 -5.34641 0
M  V30 601 H 56.8358 -4.4373 -3.63011 0
M  V30 602 H 55.2328 -5.0886 -3.18091 0
M  V30 603 H 56.3028 -4.45352 -1.91806 0
M  V30 604 N 57.6459 0.756429 -1.3826 0
M  V30 605 C 58.8949 1.51082 -1.3363 0
M  V30 606 C 59.2079 1.95467 0.0720068 0
M  V30 607 O 60.4139 2.7043 0.240834 0
M  V30 608 C 58.8699 2.72893 -2.34644 0
M  V30 609 C 58.4779 2.35544 -3.81081 0
M  V30 610 C 60.2219 3.50791 -2.39052 0
M  V30 611 C 58.1289 3.53948 -4.73787 0
M  V30 612 H 57.0589 0.56727 -0.49671 0
M  V30 613 H 59.7099 0.827147 -1.638 0
M  V30 614 H 58.0919 3.43227 -1.97513 0
M  V30 615 H 59.2659 1.72894 -4.27135 0
M  V30 616 H 57.5809 1.70786 -3.79764 0
M  V30 617 H 60.1779 4.38823 -3.05513 0
M  V30 618 H 60.5209 3.91745 -1.40861 0
M  V30 619 H 61.0539 2.87467 -2.74968 0
M  V30 620 H 57.7929 3.18064 -5.73163 0
M  V30 621 H 57.3129 4.15651 -4.32428 0
M  V30 622 H 58.9919 4.20566 -4.91663 0
M  V30 623 N 59.124 1.23083 0.984299 0
M  V30 624 C 60.37 1.07221 1.72845 0
M  V30 625 C 60.725 -0.387453 1.88458 0
M  V30 626 O 60.018 -1.28309 1.42293 0
M  V30 627 C 60.212 1.72673 3.1292 0
M  V30 628 C 60.041 3.24853 3.10967 0
M  V30 629 C 58.811 3.93998 3.16376 0
M  V30 630 C 61.009 4.21674 2.94441 0
M  V30 631 N 58.991 5.33192 3.04268 0
M  V30 632 C 60.362 5.47756 2.90453 0
M  V30 633 C 62.417 4.12457 2.78897 0
M  V30 634 C 61.12 6.6568 2.72512 0
M  V30 635 C 63.146 5.3004 2.62319 0
M  V30 636 C 62.508 6.55046 2.59026 0
M  V30 637 H 58.607 0.44685 0.641755 0
M  V30 638 H 61.191 1.55753 1.16829 0
M  V30 639 H 59.362 1.26679 3.67161 0
M  V30 640 H 61.094 1.49824 3.75945 0
M  V30 641 H 57.849 3.45052 3.24401 0
M  V30 642 H 58.273 6.06157 3.015 0
M  V30 643 H 62.915 3.16588 2.80235 0
M  V30 644 H 60.633 7.61689 2.69919 0
M  V30 645 H 64.219 5.24747 2.5126 0
M  V30 646 H 63.099 7.44498 2.46357 0
M  V30 647 N 60.6021 -1.18246 1.0419 0
M  V30 648 C 61.8491 -1.88257 0.746017 0
M  V30 649 C 62.1771 -1.80429 -0.726331 0
M  V30 650 O 61.4321 -1.2 -1.54591 0
M  V30 651 C 61.7311 -3.38082 1.15911 0
M  V30 652 C 61.3971 -3.66114 2.63195 0
M  V30 653 C 60.0591 -3.73474 3.03432 0
M  V30 654 C 62.4111 -3.78398 3.5842 0
M  V30 655 C 59.7391 -3.90599 4.37778 0
M  V30 656 C 62.0911 -3.97039 4.92487 0
M  V30 657 C 60.7551 -4.02635 5.32392 0
M  V30 658 H 60.0251 -0.688883 0.272987 0
M  V30 659 H 62.6721 -1.3995 1.30715 0
M  V30 660 H 60.9771 -3.88377 0.516806 0
M  V30 661 H 62.6741 -3.90596 0.907516 0
M  V30 662 H 59.2641 -3.61003 2.3103 0
M  V30 663 H 63.4481 -3.72042 3.28479 0
M  V30 664 H 58.7041 -3.93175 4.68213 0
M  V30 665 H 62.8781 -4.05486 5.66175 0
M  V30 666 H 60.5051 -4.15657 6.36501 0
M  V30 667 N 62.0802 -0.821533 -1.34494 0
M  V30 668 C 63.0432 -0.247847 -2.27856 0
M  V30 669 C 64.0432 0.573453 -1.50227 0
M  V30 670 O 65.2332 0.389759 -1.69784 0
M  V30 671 C 62.3652 0.652698 -3.34593 0
M  V30 672 H 63.5582 -1.07146 -2.80107 0
M  V30 673 H 61.1112 -0.593291 -1.44602 0
M  V30 674 H 61.8462 1.49943 -2.87555 0
M  V30 675 H 61.6312 0.065292 -3.92046 0
M  V30 676 H 63.1212 1.04793 -4.04238 0
M  V30 677 N 63.5583 1.46682 -0.576371 0
M  V30 678 C 64.7883 2.06498 -0.0648694 0
M  V30 679 C 65.1963 1.42665 1.24271 0
M  V30 680 O 64.5393 0.523886 1.76071 0
M  V30 681 C 64.6013 3.5904 0.181816 0
M  V30 682 C 64.2653 4.45028 -1.0392 0
M  V30 683 C 65.2623 4.81959 -1.94966 0
M  V30 684 C 62.9473 4.86259 -1.25927 0
M  V30 685 C 64.9413 5.58942 -3.06371 0
M  V30 686 C 62.6283 5.63002 -2.37638 0
M  V30 687 C 63.6263 5.99257 -3.2769 0
M  V30 688 O 63.3143 6.7445 -4.37461 0
M  V30 689 H 63.0463 0.674028 -0.0515987 0
M  V30 690 H 65.6003 1.89393 -0.794951 0
M  V30 691 H 63.8303 3.74429 0.966436 0
M  V30 692 H 65.5193 4.00806 0.641047 0
M  V30 693 H 66.2853 4.50689 -1.79177 0
M  V30 694 H 62.1643 4.57494 -0.567448 0
M  V30 695 H 65.7083 5.87158 -3.76684 0
M  V30 696 H 61.6053 5.93686 -2.53392 0
M  V30 697 H 62.3733 6.92867 -4.35749 0
M  V30 698 N 65.0364 0.313813 1.54444 0
M  V30 699 C 65.9664 -0.549454 2.26943 0
M  V30 700 C 66.9474 -1.12741 1.27372 0
M  V30 701 O 68.1324 -1.15436 1.56167 0
M  V30 702 C 65.2624 -1.71523 3.01989 0
M  V30 703 C 64.2164 -1.26703 4.08816 0
M  V30 704 C 63.5424 -2.51898 4.71647 0
M  V30 705 C 64.8424 -0.388962 5.2085 0
M  V30 706 H 66.5364 0.0552661 2.99349 0
M  V30 707 H 64.0824 0.0280207 1.43973 0
M  V30 708 H 66.0354 -2.32535 3.51433 0
M  V30 709 H 64.7594 -2.34639 2.27183 0
M  V30 710 H 63.4184 -0.679896 3.6024 0
M  V30 711 H 63.0664 -3.13356 3.93468 0
M  V30 712 H 62.7664 -2.22605 5.43802 0
M  V30 713 H 64.2904 -3.1369 5.23861 0
M  V30 714 H 65.7044 -0.905107 5.6611 0
M  V30 715 H 64.1014 -0.18924 5.99802 0
M  V30 716 H 65.1714 0.582699 4.81386 0
M  V30 717 N 66.5145 -1.57545 0.0417849 0
M  V30 718 C 67.4245 -2.14451 -0.951213 0
M  V30 719 C 68.4405 -1.09992 -1.34825 0
M  V30 720 O 69.6165 -1.42114 -1.42708 0
M  V30 721 C 66.6815 -2.67063 -2.21084 0
M  V30 722 C 65.7425 -3.86284 -1.87304 0
M  V30 723 C 64.9755 -4.36378 -3.07261 0
M  V30 724 O 65.1985 -3.85587 -4.20332 0
M  V30 725 O 64.1325 -5.28077 -2.88822 0
M  V30 726 H 67.9585 -2.99601 -0.497287 0
M  V30 727 H 65.5435 -1.48317 -0.179567 0
M  V30 728 H 67.4255 -3.00914 -2.95006 0
M  V30 729 H 66.1005 -1.84989 -2.65633 0
M  V30 730 H 65.0075 -3.57338 -1.10727 0
M  V30 731 H 66.3405 -4.6956 -1.47562 0
M  V30 732 N 67.9926 0.231505 -1.5589 0
M  V30 733 C 68.9256 1.31369 -1.86595 0
M  V30 734 C 69.9036 1.45671 -0.722397 0
M  V30 735 O 71.0876 1.61642 -0.969743 0
M  V30 736 C 68.2146 2.68529 -2.06421 0
M  V30 737 C 67.2606 2.71295 -3.29092 0
M  V30 738 S 68.0936 2.26358 -4.85306 0
M  V30 739 C 69.2496 3.65414 -5.08157 0
M  V30 740 H 69.4826 1.05128 -2.78092 0
M  V30 741 H 67.0156 0.433259 -1.48197 0
M  V30 742 H 68.9736 3.47499 -2.18528 0
M  V30 743 H 67.6346 2.91999 -1.15738 0
M  V30 744 H 66.8276 3.72063 -3.39978 0
M  V30 745 H 66.4296 2.0038 -3.15791 0
M  V30 746 H 68.7216 4.6103 -4.96445 0
M  V30 747 H 69.6646 3.5945 -6.10083 0
M  V30 748 H 70.0726 3.5864 -4.35933 0
M  V30 749 N 69.4707 1.49531 0.497807 0
M  V30 750 C 70.7187 1.58865 1.24926 0
M  V30 751 C 71.0397 0.278721 1.92998 0
M  V30 752 O 70.3097 -0.702144 1.82885 0
M  V30 753 H 68.8897 0.585343 0.464094 0
M  V30 754 H 71.5517 1.86174 0.57666 0
M  V30 755 H 70.6477 2.38633 2.01149 0
M  V30 756 N 70.9488 -0.749086 1.3866 0
M  V30 757 C 71.8958 -1.86291 1.36251 0
M  V30 758 C 72.8658 -1.64578 0.224347 0
M  V30 759 O 74.0508 -1.86181 0.417279 0
M  V30 760 C 71.1908 -3.23644 1.19786 0
M  V30 761 C 70.3038 -3.57158 2.43027 0
M  V30 762 C 69.4388 -4.83838 2.19258 0
M  V30 763 C 68.4778 -5.10152 3.38247 0
M  V30 764 N 67.6148 -6.28029 3.13884 0
M  V30 765 H 72.4548 -1.87685 2.3147 0
M  V30 766 H 69.9918 -0.917287 1.14997 0
M  V30 767 H 71.9498 -4.0291 1.08254 0
M  V30 768 H 70.5798 -3.21566 0.282031 0
M  V30 769 H 69.6318 -2.72701 2.65214 0
M  V30 770 H 70.9438 -3.7253 3.31697 0
M  V30 771 H 70.0978 -5.71057 2.04888 0
M  V30 772 H 68.8368 -4.70614 1.2796 0
M  V30 773 H 67.8418 -4.21401 3.53131 0
M  V30 774 H 69.0668 -5.25271 4.30427 0
M  V30 775 H 67.0128 -6.1612 2.25238 0
M  V30 776 H 66.9298 -6.43922 3.96106 0
M  V30 777 H 68.1978 -7.18124 3.03179 0
M  V30 778 N 72.4269 -1.23603 -0.977757 0
M  V30 779 C 73.6549 -1.09646 -1.75458 0
M  V30 780 C 74.0699 0.351859 -1.85492 0
M  V30 781 O 73.4269 1.24327 -1.336 0
M  V30 782 C 73.4779 -1.71895 -3.18016 0
M  V30 783 O 73.1989 -3.11063 -3.08498 0
M  V30 784 C 74.6999 -1.63415 -4.12081 0
M  V30 785 H 71.9199 -0.38359 -0.550545 0
M  V30 786 H 74.4639 -1.63507 -1.22824 0
M  V30 787 H 72.6189 -1.22061 -3.67668 0
M  V30 788 H 73.0329 -3.41305 -3.9826 0
M  V30 789 H 74.5069 -2.11669 -5.09804 0
M  V30 790 H 74.9839 -0.593462 -4.35172 0
M  V30 791 H 75.5899 -2.12628 -3.68334 0
M  V30 792 N 73.905 1.17692 -1.04816 0
M  V30 793 C 75.154 1.87192 -0.751132 0
M  V30 794 C 75.467 1.8169 0.724441 0
M  V30 795 O 76.673 2.46625 1.13527 0
M  V30 796 C 75.129 3.35857 -1.29338 0
M  V30 797 C 74.737 3.4987 -2.79812 0
M  V30 798 C 76.481 4.10709 -1.07322 0
M  V30 799 C 74.388 4.92536 -3.27356 0
M  V30 800 H 73.318 0.701162 -0.277288 0
M  V30 801 H 75.969 1.32932 -1.26496 0
M  V30 802 H 74.351 3.89631 -0.707376 0
M  V30 803 H 75.525 3.06332 -3.44235 0
M  V30 804 H 73.84 2.88433 -3.00325 0
M  V30 805 H 76.437 5.15952 -1.4035 0
M  V30 806 H 76.78 4.16299 -0.0108001 0
M  V30 807 H 77.313 3.6313 -1.62423 0
M  V30 808 H 74.052 4.92119 -4.33012 0
M  V30 809 H 73.572 5.3676 -2.67673 0
M  V30 810 H 75.251 5.61288 -3.21815 0
M  V30 811 N 75.3831 0.828654 1.34056 0
M  V30 812 C 76.6111 0.43262 2.02326 0
M  V30 813 C 77.0261 -0.963147 1.62385 0
M  V30 814 O 76.3831 -1.62425 0.832121 0
M  V30 815 C 76.4341 0.53182 3.57567 0
M  V30 816 O 76.1551 1.87258 3.96063 0
M  V30 817 C 77.6561 0.131422 4.43105 0
M  V30 818 H 74.8761 0.172923 0.648335 0
M  V30 819 H 77.4201 1.1184 1.71208 0
M  V30 820 H 75.5751 -0.105938 3.87255 0
M  V30 821 H 75.9891 1.85087 4.90758 0
M  V30 822 H 77.4631 0.251904 5.51425 0
M  V30 823 H 77.9401 -0.925645 4.29335 0
M  V30 824 H 78.5461 0.743207 4.18756 0
M  V30 825 N 76.8612 -1.46375 0.584142 0
M  V30 826 C 78.1102 -2.01585 0.0679741 0
M  V30 827 C 78.4232 -1.46109 -1.30045 0
M  V30 828 O 79.6292 -1.93148 -1.90804 0
M  V30 829 C 78.0852 -3.5983 0.0709207 0
M  V30 830 C 77.6932 -4.24303 1.43775 0
M  V30 831 C 79.4372 -4.22693 -0.391228 0
M  V30 832 C 77.3442 -5.74631 1.39834 0
M  V30 833 H 76.2742 -0.753689 0.0216421 0
M  V30 834 H 78.9252 -1.68093 0.736001 0
M  V30 835 H 77.3072 -3.90405 -0.663299 0
M  V30 836 H 78.4812 -4.05335 2.19181 0
M  V30 837 H 76.7962 -3.73539 1.84004 0
M  V30 838 H 79.3932 -5.3289 -0.439524 0
M  V30 839 H 79.7362 -3.91728 -1.40906 0
M  V30 840 H 80.2692 -3.96749 0.288974 0
M  V30 841 H 77.0082 -6.10258 2.39303 0
M  V30 842 H 76.5282 -5.95858 0.686505 0
M  V30 843 H 78.2072 -6.37375 1.11187 0
M  V30 844 N 78.3393 -0.321999 -1.54275 0
M  V30 845 C 79.3023 0.531975 -2.22941 0
M  V30 846 C 80.3023 1.04478 -1.22234 0
M  V30 847 O 81.4923 0.937452 -1.46825 0
M  V30 848 C 78.6243 1.73874 -2.93224 0
M  V30 849 H 79.8173 -0.0682612 -2.99822 0
M  V30 850 H 77.3703 -0.0730644 -1.56129 0
M  V30 851 H 78.1053 2.37825 -2.20476 0
M  V30 852 H 77.8903 1.37847 -3.6707 0
M  V30 853 H 79.3803 2.34496 -3.45545 0
M  V30 854 N 79.8174 1.5752 -0.0501392 0
M  V30 855 C 80.7804 2.1037 0.909786 0
M  V30 856 C 81.7804 1.02308 1.24056 0
M  V30 857 O 82.9704 1.28385 1.17741 0
M  V30 858 C 80.1024 2.58708 2.21998 0
M  V30 859 H 81.2954 2.96479 0.451665 0
M  V30 860 H 78.8484 1.55038 0.198248 0
M  V30 861 H 79.5834 1.75989 2.72394 0
M  V30 862 H 79.3684 3.37675 1.99295 0
M  V30 863 H 80.8584 2.99747 2.9076 0
M  V30 864 N 81.2955 -0.223234 1.56011 0
M  V30 865 C 82.7065 -0.790368 1.69145 0
M  V30 866 C 83.0575 -1.85055 0.651845 0
M  V30 867 O 82.1825 -2.15498 -0.197359 0
M  V30 868 C 82.7775 -1.4404 3.06656 0
M  V30 869 C 81.3365 -1.95494 3.2165 0
M  V30 870 C 80.4835 -0.814506 2.65068 0
M  V30 871 H 83.4345 0.00139011 1.587 0
M  V30 872 H 83.4555 -2.30916 3.0242 0
M  V30 873 H 82.9675 -0.668543 3.82298 0
M  V30 874 H 81.0685 -2.75487 2.50874 0
M  V30 875 H 81.1815 -2.13607 4.28846 0
M  V30 876 H 79.5455 -1.22137 2.23505 0
M  V30 877 H 80.3285 -0.0553515 3.43255 0
M  V30 878 N 82.7736 -1.49793 -0.48987 0
M  V30 879 C 84.0216 -1.59525 -1.24081 0
M  V30 880 C 84.3426 -0.288953 -1.92847 0
M  V30 881 O 83.6126 0.692436 -1.83254 0
M  V30 882 H 82.1926 -0.587796 -0.460983 0
M  V30 883 H 84.8546 -1.86477 -0.566778 0
M  V30 884 H 83.9506 -2.39696 -1.99881 0
M  V30 885 N 84.2517 0.741722 -1.39055 0
M  V30 886 C 85.2147 1.83733 -1.37021 0
M  V30 887 C 86.2147 1.58542 -0.268534 0
M  V30 888 O 87.4047 1.66067 -0.526076 0
M  V30 889 C 84.5367 3.2141 -1.13617 0
M  V30 890 H 85.7297 1.86941 -2.34506 0
M  V30 891 H 83.2827 0.944676 -1.24521 0
M  V30 892 H 84.0177 3.23865 -0.167863 0
M  V30 893 H 83.8027 3.4109 -1.93391 0
M  V30 894 H 85.2927 4.01477 -1.14918 0
M  V30 895 N 85.7298 1.2412 0.971189 0
M  V30 896 C 86.6928 1.03156 2.04674 0
M  V30 897 C 87.6928 -0.00990322 1.60797 0
M  V30 898 O 88.8828 0.230729 1.72665 0
M  V30 899 C 86.0148 0.562765 3.36223 0
M  V30 900 H 87.2078 1.98614 2.24705 0
M  V30 901 H 84.7608 1.06293 1.14593 0
M  V30 902 H 85.4958 -0.395176 3.21883 0
M  V30 903 H 85.2808 1.31441 3.69413 0
M  V30 904 H 86.7708 0.437015 4.15307 0
M  V30 905 N 87.2079 -1.17134 1.05439 0
M  V30 906 C 88.1559 -2.23289 0.651511 0
M  V30 907 C 89.1499 -1.66186 -0.328411 0
M  V30 908 O 90.3559 -1.78949 -0.194206 0
M  V30 909 H 86.7309 -0.726938 0.192523 0
M  V30 910 H 88.7019 -2.54565 1.55689 0
M  V30 911 C 87.4509 -3.47671 0.0448436 0
M  V30 912 H 86.7739 -3.91918 0.78996 0
M  V30 913 H 88.2139 -4.2353 -0.19964 0
M  V30 914 C 86.6729 -3.14453 -1.20918 0
M  V30 915 O 87.2029 -3.29459 -2.29825 0
M  V30 916 N 85.4089 -2.68657 -1.10779 0
M  V30 917 H 84.9559 -2.56646 -0.221526 0
M  V30 918 H 84.9139 -2.46804 -1.9477 0
M  V30 919 N 88.686 -0.835752 -1.33615 0
M  V30 920 C 89.619 -0.211815 -2.27215 0
M  V30 921 C 90.597 0.639249 -1.49507 0
M  V30 922 O 91.781 0.600193 -1.78689 0
M  V30 923 C 88.908 0.702893 -3.31326 0
M  V30 924 C 87.954 -0.0723049 -4.26439 0
M  V30 925 S 88.787 -1.42811 -5.16106 0
M  V30 926 C 89.943 -0.518613 -6.23748 0
M  V30 927 H 90.176 -1.00533 -2.79786 0
M  V30 928 H 87.709 -0.632336 -1.40858 0
M  V30 929 H 89.667 1.22505 -3.91794 0
M  V30 930 H 88.328 1.47004 -2.77576 0
M  V30 931 H 87.521 0.62359 -5.00127 0
M  V30 932 H 87.123 -0.525424 -3.70291 0
M  V30 933 H 89.415 0.284778 -6.76901 0
M  V30 934 H 90.358 -1.22556 -6.97413 0
M  V30 935 H 90.766 -0.101344 -5.64409 0
M  V30 936 N 90.1641 1.46063 -0.591896 0
M  V30 937 C 91.0961 2.28539 0.174001 0
M  V30 938 C 92.1091 1.39047 0.846753 0
M  V30 939 O 93.2981 1.63564 0.714774 0
M  V30 940 C 90.3981 3.14347 1.26645 0
M  V30 941 C 89.5711 4.32021 0.683856 0
M  V30 942 C 88.6301 4.99157 1.66518 0
M  V30 943 O 87.6561 5.56458 1.19763 0
M  V30 944 N 88.8581 4.97005 2.99943 0
M  V30 945 H 91.6231 2.94911 -0.533633 0
M  V30 946 H 89.1841 1.56077 -0.430294 0
M  V30 947 H 91.1761 3.56125 1.92242 0
M  V30 948 H 89.7461 2.49988 1.87682 0
M  V30 949 H 88.9661 3.93915 -0.1498 0
M  V30 950 H 90.2541 5.08059 0.274567 0
M  V30 951 H 89.6521 4.51714 3.40545 0
M  V30 952 H 88.2091 5.42696 3.61004 0
M  V30 953 N 91.6422 0.330177 1.54103 0
M  V30 954 C 92.8892 -0.270405 2.00686 0
M  V30 955 C 93.2172 -1.51621 1.21825 0
M  V30 956 O 92.4722 -1.93536 0.29025 0
M  V30 957 C 92.7712 -0.643134 3.51566 0
M  V30 958 C 92.4372 0.504251 4.48072 0
M  V30 959 C 91.0992 0.819163 4.74176 0
M  V30 960 C 93.4512 1.27465 5.05373 0
M  V30 961 C 90.7792 1.90708 5.5484 0
M  V30 962 C 93.1312 2.35271 5.87223 0
M  V30 963 C 91.7952 2.67336 6.11627 0
M  V30 964 H 91.0652 -0.0989482 0.734364 0
M  V30 965 H 93.7122 0.455324 1.86008 0
M  V30 966 H 92.0172 -1.44938 3.64006 0
M  V30 967 H 93.7142 -1.11949 3.85056 0
M  V30 968 H 90.3042 0.248733 4.27878 0
M  V30 969 H 94.4882 1.04462 4.85182 0
M  V30 970 H 89.7442 2.15991 5.71977 0
M  V30 971 H 93.9182 2.95405 6.30641 0
M  V30 972 H 91.5452 3.51763 6.73919 0
M  V30 973 N 93.1203 -1.57491 0.0584922 0
M  V30 974 C 94.0833 -2.1085 -0.898617 0
M  V30 975 C 95.0833 -1.02964 -1.23511 0
M  V30 976 O 96.2733 -1.29007 -1.17059 0
M  V30 977 C 93.4053 -2.59881 -2.20623 0
M  V30 978 H 94.5983 -2.96715 -0.435936 0
M  V30 979 H 92.1513 -1.55141 -0.190023 0
M  V30 980 H 92.8863 -1.77431 -2.71457 0
M  V30 981 H 92.6713 -3.38727 -1.97501 0
M  V30 982 H 94.1613 -3.01285 -2.89166 0
M  V30 983 N 94.5984 0.214957 -1.56127 0
M  V30 984 C 95.5084 1.28727 -1.96129 0
M  V30 985 C 96.5244 1.50916 -0.866044 0
M  V30 986 O 97.7004 1.63918 -1.17016 0
M  V30 987 C 94.7654 2.61569 -2.27558 0
M  V30 988 C 93.8264 2.47625 -3.50685 0
M  V30 989 C 93.0594 3.74132 -3.80606 0
M  V30 990 O 93.2824 4.77438 -3.12104 0
M  V30 991 O 92.2164 3.70849 -4.74083 0
M  V30 992 H 96.0424 0.977855 -2.87527 0
M  V30 993 H 93.6274 0.418358 -1.43423 0
M  V30 994 H 95.5094 3.40012 -2.48938 0
M  V30 995 H 94.1844 2.92178 -1.39332 0
M  V30 996 H 93.0914 1.67361 -3.34576 0
M  V30 997 H 94.4244 2.21954 -4.39315 0
M  V30 998 N 96.0765 1.50051 0.48192 0
M  V30 999 C 97.0245 1.68635 1.60203 0
M  V30 1000 C 98.0185 0.552184 1.60148 0
M  V30 1001 O 99.2245 0.732377 1.64427 0
M  V30 1002 H 95.5995 0.532081 0.531407 0
M  V30 1003 H 97.5705 2.62616 1.41688 0
M  V30 1004 C 96.3195 1.78775 2.9822 0
M  V30 1005 H 95.6425 2.6543 2.98976 0
M  V30 1006 H 97.0825 1.95806 3.7608 0
M  V30 1007 C 95.5415 0.536849 3.32595 0
M  V30 1008 O 96.0715 -0.328897 4.00351 0
M  V30 1009 N 94.2775 0.394091 2.87915 0
M  V30 1010 H 93.8245 1.09962 2.32951 0
M  V30 1011 H 93.7825 -0.441737 3.11281 0
M  V30 1012 N 97.5546 -0.734337 1.39446 0
M  V30 1013 C 98.7826 -1.52358 1.39981 0
M  V30 1014 C 99.1976 -1.88799 -0.0054975 0
M  V30 1015 O 98.5546 -1.54146 -0.976998 0
M  V30 1016 C 98.6056 -2.81072 2.27333 0
M  V30 1017 O 98.3266 -2.46178 3.62392 0
M  V30 1018 C 99.8276 -3.75096 2.36259 0
M  V30 1019 H 97.0476 -0.470806 0.478103 0
M  V30 1020 H 99.5916 -0.907339 1.83269 0
M  V30 1021 H 97.7466 -3.39026 1.87457 0
M  V30 1022 H 98.1606 -3.28866 4.08592 0
M  V30 1023 H 99.6346 -4.62305 3.01626 0
M  V30 1024 H 100.112 -4.16892 1.38194 0
M  V30 1025 H 100.718 -3.23061 2.76608 0
M  V30 1026 N 99.0327 -1.24633 -0.964593 0
M  V30 1027 C 99.9627 -1.06611 -2.07741 0
M  V30 1028 C 100.944 0.0218666 -1.70086 0
M  V30 1029 O 102.129 -0.145793 -1.93652 0
M  V30 1030 C 99.2587 -0.673444 -3.40708 0
M  V30 1031 C 98.2127 -1.71054 -3.92332 0
M  V30 1032 C 97.5387 -1.17285 -5.21678 0
M  V30 1033 C 98.8387 -3.10718 -4.19824 0
M  V30 1034 H 100.533 -1.99693 -2.23076 0
M  V30 1035 H 98.0787 -0.96152 -1.07195 0
M  V30 1036 H 100.032 -0.534345 -4.17998 0
M  V30 1037 H 98.7557 0.293073 -3.25282 0
M  V30 1038 H 97.4147 -1.83791 -3.17201 0
M  V30 1039 H 97.0627 -0.196847 -5.02615 0
M  V30 1040 H 96.7627 -1.86592 -5.57187 0
M  V30 1041 H 98.2867 -1.04593 -6.01575 0
M  V30 1042 H 99.7007 -3.01192 -4.87808 0
M  V30 1043 H 98.0977 -3.77406 -4.66567 0
M  V30 1044 H 99.1677 -3.58524 -3.26479 0
M  V30 1045 N 100.511 1.16574 -1.06058 0
M  V30 1046 C 101.443 2.2045 -0.627239 0
M  V30 1047 C 102.456 1.59752 0.313534 0
M  V30 1048 O 103.645 1.78192 0.104896 0
M  V30 1049 C 100.745 3.3875 0.100974 0
M  V30 1050 C 99.9178 4.29008 -0.852687 0
M  V30 1051 C 98.9768 5.25944 -0.164152 0
M  V30 1052 O 98.0028 5.63535 -0.801047 0
M  V30 1053 N 99.2048 5.70075 1.09518 0
M  V30 1054 H 101.97 2.58249 -1.52077 0
M  V30 1055 H 99.5308 1.3156 -0.943594 0
M  V30 1056 H 101.523 4.00638 0.57194 0
M  V30 1057 H 100.093 2.99476 0.89628 0
M  V30 1058 H 99.3128 3.64419 -1.50308 0
M  V30 1059 H 100.601 4.86195 -1.49972 0
M  V30 1060 H 99.9988 5.41624 1.6328 0
M  V30 1061 H 98.5558 6.34067 1.51006 0
M  V30 1062 N 101.989 0.842826 1.3317 0
M  V30 1063 C 102.899 0.281444 2.32906 0
M  V30 1064 C 103.915 -0.594587 1.63526 0
M  V30 1065 O 105.091 -0.49777 1.95152 0
M  V30 1066 C 102.156 -0.530929 3.42611 0
M  V30 1067 C 101.217 0.369843 4.27704 0
M  V30 1068 C 100.45 -0.403853 5.3217 0
M  V30 1069 O 100.673 -1.63513 5.46461 0
M  V30 1070 O 99.6069 0.224199 6.01482 0
M  V30 1071 H 103.433 1.10744 2.82789 0
M  V30 1072 H 101.018 0.60545 1.36582 0
M  V30 1073 H 102.9 -0.992437 4.09547 0
M  V30 1074 H 101.575 -1.33392 2.94938 0
M  V30 1075 H 100.482 0.879275 3.6362 0
M  V30 1076 H 101.815 1.13771 4.78871 0
M  V30 1077 N 103.467 -1.45747 0.599634 0
M  V30 1078 C 104.716 -2.01502 0.0893511 0
M  V30 1079 C 105.029 -1.4748 -1.28488 0
M  V30 1080 O 106.235 -1.95161 -1.88745 0
M  V30 1081 C 104.691 -3.59735 0.109082 0
M  V30 1082 C 104.299 -4.22754 1.48267 0
M  V30 1083 C 106.043 -4.23085 -0.346374 0
M  V30 1084 C 103.95 -5.73115 1.45921 0
M  V30 1085 H 102.88 -0.753417 0.0296347 0
M  V30 1086 H 105.531 -1.67303 0.753788 0
M  V30 1087 H 103.913 -3.91087 -0.621854 0
M  V30 1088 H 105.087 -4.02987 2.23468 0
M  V30 1089 H 103.402 -3.71567 1.87955 0
M  V30 1090 H 105.999 -5.33327 -0.38298 0
M  V30 1091 H 106.342 -3.93201 -1.36743 0
M  V30 1092 H 106.875 -3.9642 0.331038 0
M  V30 1093 H 103.614 -6.07685 2.45762 0
M  V30 1094 H 103.134 -5.95097 0.749665 0
M  V30 1095 H 104.813 -6.3616 1.17941 0
M  V30 1096 N 104.945 -0.338344 -1.53925 0
M  V30 1097 C 106.361 0.0137736 -1.59594 0
M  V30 1098 C 106.561 1.49186 -1.35447 0
M  V30 1099 O 105.617 2.24987 -1.14616 0
M  V30 1100 C 106.93 -0.41773 -2.97784 0
M  V30 1101 C 108.478 -0.369633 -3.1081 0
M  V30 1102 C 108.953 -0.776524 -4.51369 0
M  V30 1103 N 110.444 -0.730506 -4.57403 0
M  V30 1104 C 111.179 -1.01736 -5.64303 0
M  V30 1105 N 110.675 -1.3721 -6.79077 0
M  V30 1106 N 112.468 -0.941942 -5.54151 0
M  V30 1107 H 104.619 -1.3012 -1.67876 0
M  V30 1108 H 106.882 -0.530082 -0.78595 0
M  V30 1109 H 106.588 -1.44811 -3.20504 0
M  V30 1110 H 106.462 0.209729 -3.76616 0
M  V30 1111 H 108.849 0.651568 -2.87817 0
M  V30 1112 H 108.93 -1.03223 -2.34049 0
M  V30 1113 H 108.574 -1.79571 -4.75096 0
M  V30 1114 H 108.504 -0.0914649 -5.26521 0
M  V30 1115 H 110.995 -0.468783 -3.74981 0
M  V30 1116 H 111.308 -1.57597 -7.5656 0
M  V30 1117 H 109.653 -1.4105 -6.80536 0
M  V30 1118 H 112.844 -0.664184 -4.63364 0
M  V30 1119 H 113.017 -1.16884 -6.37371 0
M  V30 1120 N 106.423 1.57458 -0.0668435 0
M  V30 1121 C 107.355 2.09413 0.931601 0
M  V30 1122 C 108.368 1.02522 1.26464 0
M  V30 1123 O 109.557 1.30049 1.22269 0
M  V30 1124 C 106.657 2.53537 2.24882 0
M  V30 1125 C 105.83 3.83944 2.09537 0
M  V30 1126 C 104.889 4.14214 3.2452 0
M  V30 1127 O 103.915 4.83891 2.9973 0
M  V30 1128 N 105.117 3.67367 4.49469 0
M  V30 1129 H 107.882 2.95699 0.488048 0
M  V30 1130 H 105.443 1.61462 0.119009 0
M  V30 1131 H 107.435 2.70853 3.00701 0
M  V30 1132 H 106.005 1.72415 2.60753 0
M  V30 1133 H 105.225 3.76057 1.18215 0
M  V30 1134 H 106.513 4.69312 1.96529 0
M  V30 1135 H 105.911 3.11068 4.72497 0
M  V30 1136 H 104.468 3.89891 5.2233 0
M  V30 1137 N 107.901 -0.206675 1.56239 0
M  V30 1138 C 108.834 -1.28383 1.88661 0
M  V30 1139 C 109.812 -1.44504 0.745481 0
M  V30 1140 O 110.996 -1.60079 0.995336 0
M  V30 1141 C 108.123 -2.65211 2.10667 0
M  V30 1142 C 107.169 -2.66025 3.33366 0
M  V30 1143 S 108.002 -2.18609 4.88846 0
M  V30 1144 C 109.158 -3.57283 5.13906 0
M  V30 1145 H 109.391 -1.00691 2.7973 0
M  V30 1146 H 106.924 -0.409627 1.48867 0
M  V30 1147 H 108.882 -3.43979 2.24029 0
M  V30 1148 H 107.543 -2.90121 1.20369 0
M  V30 1149 H 106.736 -3.66607 3.45855 0
M  V30 1150 H 106.338 -1.95331 3.18938 0
M  V30 1151 H 108.63 -4.53074 5.03717 0
M  V30 1152 H 109.573 -3.49699 6.15724 0
M  V30 1153 H 109.981 -3.51659 4.41583 0
M  V30 1154 N 109.379 -1.50304 -0.473955 0
M  V30 1155 C 110.607 -1.64902 -1.24959 0
M  V30 1156 C 111.022 -0.331198 -1.85872 0
M  V30 1157 O 110.379 0.68652 -1.69095 0
M  V30 1158 C 110.43 -2.73803 -2.36038 0
M  V30 1159 O 110.151 -4.00477 -1.77624 0
M  V30 1160 C 111.652 -2.99349 -3.26964 0
M  V30 1161 H 108.872 -0.554383 -0.378022 0
M  V30 1162 H 111.416 -1.9651 -0.566054 0
M  V30 1163 H 109.571 -2.44898 -3.00173 0
M  V30 1164 H 109.985 -4.60678 -2.5075 0
M  V30 1165 H 111.459 -3.79217 -4.01121 0
M  V30 1166 H 111.936 -2.10307 -3.85574 0
M  V30 1167 H 112.542 -3.29774 -2.68569 0
M  V30 1168 N 110.857 0.726932 -1.39834 0
M  V30 1169 C 112.268 1.30558 -1.3346 0
M  V30 1170 C 112.619 1.962 -0.00273003 0
M  V30 1171 O 111.744 1.96826 0.899371 0
M  V30 1172 C 112.339 2.37404 -2.41713 0
M  V30 1173 C 110.898 2.90921 -2.38835 0
M  V30 1174 C 110.045 1.64578 -2.2318 0
M  V30 1175 H 112.996 0.523862 -1.49804 0
M  V30 1176 H 113.017 3.17984 -2.08966 0
M  V30 1177 H 112.529 1.89599 -3.38635 0
M  V30 1178 H 110.63 3.42985 -1.45575 0
M  V30 1179 H 110.743 3.43487 -3.33997 0
M  V30 1180 H 109.107 1.89219 -1.70494 0
M  V30 1181 H 109.89 1.18814 -3.22084 0
M  V30 1182 N 112.336 1.25143 0.95797 0
M  V30 1183 C 113.266 1.07711 2.07173 0
M  V30 1184 C 114.247 -0.0128462 1.70095 0
M  V30 1185 O 115.432 0.156061 1.93572 0
M  V30 1186 C 112.562 0.691503 3.40346 0
M  V30 1187 C 111.516 1.73132 3.9142 0
M  V30 1188 C 110.842 1.20049 5.21049 0
M  V30 1189 C 112.142 3.1294 4.1817 0
M  V30 1190 H 113.836 2.00873 2.22014 0
M  V30 1191 H 111.382 0.967191 1.06684 0
M  V30 1192 H 113.335 0.556505 4.17709 0
M  V30 1193 H 112.059 -0.275819 3.25433 0
M  V30 1194 H 110.718 1.8547 3.16222 0
M  V30 1195 H 110.366 0.223499 5.02503 0
M  V30 1196 H 110.066 1.89545 5.56189 0
M  V30 1197 H 111.59 1.07782 6.01012 0
M  V30 1198 H 113.004 3.03775 4.86203 0
M  V30 1199 H 111.401 3.79875 4.64559 0
M  V30 1200 H 112.471 3.6025 3.24573 0
M  V30 1201 N 113.814 -1.1601 1.06675 0
M  V30 1202 C 114.746 -2.20115 0.638921 0
M  V30 1203 C 115.759 -1.59916 -0.305057 0
M  V30 1204 O 116.948 -1.78245 -0.0954446 0
M  V30 1205 C 114.048 -3.38798 -0.0830083 0
M  V30 1206 C 113.221 -4.2855 0.875426 0
M  V30 1207 C 112.28 -5.25849 0.192042 0
M  V30 1208 O 111.306 -5.63102 0.830921 0
M  V30 1209 N 112.508 -5.70648 -1.06493 0
M  V30 1210 H 115.273 -2.57439 1.53444 0
M  V30 1211 H 112.834 -1.31057 0.950557 0
M  V30 1212 H 114.826 -4.00936 -0.550685 0
M  V30 1213 H 113.396 -2.99947 -0.880386 0
M  V30 1214 H 112.616 -3.63617 1.52238 0
M  V30 1215 H 113.904 -4.85393 1.52548 0
M  V30 1216 H 113.302 -5.42482 -1.60405 0
M  V30 1217 H 111.859 -6.34859 -1.47641 0
M  V30 1218 N 115.292 -0.849877 -1.32721 0
M  V30 1219 C 116.224 -0.248332 -2.27851 0
M  V30 1220 C 117.237 0.577218 -1.52224 0
M  V30 1221 O 118.426 0.402489 -1.73903 0
M  V30 1222 C 115.526 0.668107 -3.32249 0
M  V30 1223 C 114.699 -0.120534 -4.37234 0
M  V30 1224 C 113.758 0.720932 -5.21238 0
M  V30 1225 O 112.784 0.156166 -5.68986 0
M  V30 1226 N 113.986 2.03647 -5.43607 0
M  V30 1227 H 116.751 -1.06575 -2.80111 0
M  V30 1228 H 114.312 -0.709395 -1.45531 0
M  V30 1229 H 116.304 1.23627 -3.85355 0
M  V30 1230 H 114.874 1.38621 -2.80184 0
M  V30 1231 H 114.094 -0.870108 -3.84477 0
M  V30 1232 H 115.382 -0.662406 -5.0447 0
M  V30 1233 H 114.78 2.51871 -5.06535 0
M  V30 1234 H 113.337 2.55287 -5.99727 0
M  V30 1235 N 116.77 1.45427 -0.607355 0
M  V30 1236 C 117.998 2.06614 -0.108814 0
M  V30 1237 C 118.413 1.45204 1.2067 0
M  V30 1238 O 117.77 0.566132 1.73497 0
M  V30 1239 C 117.821 3.61481 0.0375347 0
M  V30 1240 O 117.542 4.20598 -1.22593 0
M  V30 1241 C 119.043 4.39652 0.567561 0
M  V30 1242 H 116.263 0.66747 -0.0687351 0
M  V30 1243 H 118.807 1.86675 -0.835022 0
M  V30 1244 H 116.962 3.80762 0.714068 0
M  V30 1245 H 117.376 5.1377 -1.05547 0
M  V30 1246 H 118.85 5.48518 0.61905 0
M  V30 1247 H 119.327 4.09417 1.58978 0
M  V30 1248 H 119.933 4.25234 -0.0749202 0
M  V30 1249 N 118.248 0.346503 1.53744 0
M  V30 1250 C 119.18 -0.543316 2.22667 0
M  V30 1251 C 120.193 -1.06159 1.23427 0
M  V30 1252 O 121.382 -0.971235 1.49764 0
M  V30 1253 C 118.482 -1.76076 2.89569 0
M  V30 1254 C 117.655 -1.37727 4.15151 0
M  V30 1255 C 116.714 -2.45471 4.65436 0
M  V30 1256 O 115.74 -2.08655 5.29577 0
M  V30 1257 N 116.942 -3.7677 4.41616 0
M  V30 1258 H 119.707 0.0469703 2.99663 0
M  V30 1259 H 117.268 0.170766 1.60997 0
M  V30 1260 H 119.26 -2.47593 3.20125 0
M  V30 1261 H 117.83 -2.25835 2.16142 0
M  V30 1262 H 117.05 -0.492746 3.91108 0
M  V30 1263 H 118.338 -1.09708 4.96832 0
M  V30 1264 H 117.736 -4.09467 3.90325 0
M  V30 1265 H 116.293 -4.44448 4.7677 0
M  V30 1266 N 119.726 -1.57421 0.075193 0
M  V30 1267 C 120.689 -2.11791 -0.876203 0
M  V30 1268 C 121.689 -1.04268 -1.22412 0
M  V30 1269 O 122.879 -1.30242 -1.15684 0
M  V30 1270 C 120.011 -2.62207 -2.17854 0
M  V30 1271 H 121.204 -2.9716 -0.40444 0
M  V30 1272 H 118.757 -1.55333 -0.173557 0
M  V30 1273 H 119.492 -1.803 -2.6956 0
M  V30 1274 H 119.277 -3.40802 -1.93897 0
M  V30 1275 H 120.767 -3.04335 -2.85955 0
M  V30 1276 N 121.204 0.198386 -1.56346 0
M  V30 1277 C 122.137 1.27381 -1.89339 0
M  V30 1278 C 123.115 1.44106 -0.753134 0
M  V30 1279 O 124.299 1.59549 -1.00381 0
M  V30 1280 C 121.426 2.6409 -2.12071 0
M  V30 1281 C 120.472 2.64253 -3.34772 0
M  V30 1282 S 121.305 2.16013 -4.89999 0
M  V30 1283 C 122.461 3.54553 -5.15794 0
M  V30 1284 H 122.694 0.992058 -2.8026 0
M  V30 1285 H 120.227 0.401726 -1.49082 0
M  V30 1286 H 122.185 3.42786 -2.2585 0
M  V30 1287 H 120.846 2.89478 -1.21906 0
M  V30 1288 H 120.039 3.64768 -3.47794 0
M  V30 1289 H 119.641 1.93637 -3.1997 0
M  V30 1290 H 121.933 4.50396 -5.06112 0
M  V30 1291 H 122.876 3.46428 -6.1757 0
M  V30 1292 H 123.284 3.49313 -4.43442 0
M  V30 1293 N 122.682 1.50554 0.465978 0
M  V30 1294 C 123.922 1.63439 1.22747 0
M  V30 1295 C 124.286 0.329822 1.89146 0
M  V30 1296 O 125.487 0.334161 2.66715 0
M  V30 1297 C 123.758 2.78542 2.2394 0
M  V30 1298 S 125.317 3.11591 3.0896 0
M  V30 1299 H 122.135 0.576113 0.416672 0
M  V30 1300 H 124.737 1.88357 0.523641 0
M  V30 1301 H 123.441 3.71805 1.7375 0
M  V30 1302 H 122.972 2.55726 2.98944 0
M  V30 1303 H 124.987 2.55811 4.25176 0
M  V30 1304 N 124.16 -0.719506 1.40217 0
M  V30 1305 C 125.437 -1.47221 1.28784 0
M  V30 1306 C 125.817 -2.10883 -0.0956067 0
M  V30 1307 O 125.165 -1.99833 -1.10811 0
M  V30 1308 C 125.375 -2.5111 2.42373 0
M  V30 1309 C 126.723 -3.17053 2.82423 0
M  V30 1310 O 127.747 -2.61429 2.41937 0
M  V30 1311 O 126.606 -4.17742 3.52355 0
M  V30 1312 H 123.7 -0.654491 0.50554 0
M  V30 1313 H 126.246 -0.752014 1.52128 0
M  V30 1314 H 125.018 -2.02556 3.34793 0
M  V30 1315 H 124.641 -3.3067 2.20778 0
M  V30 1316 N 125.638 -1.25649 -0.95132 0
M  V30 1317 C 126.568 -1.08808 -2.06599 0
M  V30 1318 C 127.549 0.00382547 -1.701 0
M  V30 1319 O 128.734 -0.166325 -1.93486 0
M  V30 1320 C 125.864 -0.709542 -3.39975 0
M  V30 1321 C 124.818 -1.75206 -3.90496 0
M  V30 1322 C 124.144 -1.22811 -5.20405 0
M  V30 1323 C 125.444 -3.15153 -4.16504 0
M  V30 1324 H 127.138 -2.02048 -2.20946 0
M  V30 1325 H 124.684 -0.972835 -1.06169 0
M  V30 1326 H 126.637 -0.578649 -4.17408 0
M  V30 1327 H 125.361 0.258556 -3.25575 0
M  V30 1328 H 124.02 -1.87145 -3.15234 0
M  V30 1329 H 123.668 -0.250145 -5.02378 0
M  V30 1330 H 123.368 -1.92492 -5.55176 0
M  V30 1331 H 124.892 -1.10968 -6.00432 0
M  V30 1332 H 126.306 -3.06349 -4.84586 0
M  V30 1333 H 124.703 -3.82333 -4.62538 0
M  V30 1334 H 125.773 -3.61966 -3.22658 0
M  V30 1335 N 127.117 1.15442 -1.07289 0
M  V30 1336 C 128.08 2.18358 -0.696591 0
M  V30 1337 C 129.08 1.58637 0.262837 0
M  V30 1338 O 130.27 1.74145 0.0438809 0
M  V30 1339 C 127.402 3.4089 -0.0266151 0
M  V30 1340 H 128.595 2.53162 -1.60776 0
M  V30 1341 H 126.148 1.29893 -0.869342 0
M  V30 1342 H 126.883 3.11653 0.896822 0
M  V30 1343 H 126.668 3.85495 -0.716657 0
M  V30 1344 H 128.158 4.17009 0.222028 0
M  V30 1345 N 128.595 0.856903 1.32268 0
M  V30 1346 C 129.543 0.291987 2.3076 0
M  V30 1347 C 130.537 -0.585857 1.58947 0
M  V30 1348 O 131.743 -0.47341 1.73663 0
M  V30 1349 H 128.118 0.075721 0.748178 0
M  V30 1350 H 130.089 1.13687 2.75895 0
M  V30 1351 C 128.838 -0.502869 3.44044 0
M  V30 1352 H 128.161 0.163328 3.99466 0
M  V30 1353 H 129.601 -0.863691 4.1511 0
M  V30 1354 C 128.06 -1.68898 2.91505 0
M  V30 1355 O 128.59 -2.78811 2.89184 0
M  V30 1356 N 126.796 -1.51679 2.47875 0
M  V30 1357 H 126.343 -0.622666 2.49961 0
M  V30 1358 H 126.301 -2.31184 2.13076 0
M  V30 1359 N 130.073 -1.45103 0.615059 0
M  V30 1360 C 131.489 -1.57137 0.279322 0
M  V30 1361 C 131.689 -1.60523 -1.21797 0
M  V30 1362 O 130.745 -1.53956 -2.00134 0
M  V30 1363 C 132.058 -2.85062 0.957083 0
M  V30 1364 C 133.606 -2.98749 0.933706 0
M  V30 1365 C 134.081 -4.29455 1.59162 0
M  V30 1366 N 135.572 -4.36231 1.55746 0
M  V30 1367 C 136.307 -5.36051 2.0356 0
M  V30 1368 N 135.803 -6.42367 2.59494 0
M  V30 1369 N 137.596 -5.27456 1.94284 0
M  V30 1370 H 129.747 -1.41148 1.58717 0
M  V30 1371 H 132.01 -0.675331 0.665306 0
M  V30 1372 H 131.716 -2.88488 2.01166 0
M  V30 1373 H 131.59 -3.7407 0.48494 0
M  V30 1374 H 133.977 -2.94886 -0.112347 0
M  V30 1375 H 134.058 -2.11132 1.44419 0
M  V30 1376 H 133.702 -4.34077 2.63704 0
M  V30 1377 H 133.632 -5.15901 1.0561 0
M  V30 1378 H 136.123 -3.60011 1.14893 0
M  V30 1379 H 136.436 -7.14793 2.93752 0
M  V30 1380 H 134.781 -6.43097 2.63537 0
M  V30 1381 H 137.972 -4.43308 1.5032 0
M  V30 1382 H 138.145 -6.05099 2.3186 0
M  V30 1383 N 131.551 -0.354651 -1.53558 0
M  V30 1384 C 132.779 0.239515 -2.05509 0
M  V30 1385 C 133.194 1.4333 -1.2289 0
M  V30 1386 O 132.551 1.80538 -0.266899 0
M  V30 1387 C 132.602 0.643719 -3.55723 0
M  V30 1388 O 132.323 -0.502602 -4.35207 0
M  V30 1389 C 133.824 1.29743 -4.23889 0
M  V30 1390 H 131.044 0.0442697 -0.669538 0
M  V30 1391 H 133.588 -0.509856 -1.98042 0
M  V30 1392 H 131.743 1.34302 -3.63376 0
M  V30 1393 H 132.157 -0.178172 -5.24197 0
M  V30 1394 H 133.631 1.53091 -5.30346 0
M  V30 1395 H 134.108 2.25441 -3.76926 0
M  V30 1396 H 134.714 0.639865 -4.20459 0
M  V30 1397 N 133.029 1.57378 -0.0835403 0
M  V30 1398 C 134.306 1.85363 0.624507 0
M  V30 1399 C 134.686 0.978239 1.87066 0
M  V30 1400 O 134.034 0.0475908 2.2845 0
M  V30 1401 C 134.244 3.35795 0.950947 0
M  V30 1402 C 135.592 4.03581 1.31939 0
M  V30 1403 O 136.616 3.40609 1.04232 0
M  V30 1404 O 135.475 5.14672 1.83779 0
M  V30 1405 H 132.569 0.766162 0.311329 0
M  V30 1406 H 135.115 1.69307 -0.115362 0
M  V30 1407 H 133.887 3.91244 0.0663899 0
M  V30 1408 H 133.51 3.57154 1.74719 0
M  V30 1409 N 134.507 -0.190092 1.56449 0
M  V30 1410 C 135.735 -0.925772 1.85033 0
M  V30 1411 C 136.15 -1.76638 0.666658 0
M  V30 1412 O 135.507 -1.78822 -0.364565 0
M  V30 1413 C 135.558 -1.81786 3.12468 0
M  V30 1414 O 135.279 -1.01118 4.26271 0
M  V30 1415 C 136.78 -2.6648 3.54265 0
M  V30 1416 H 134 -0.269872 0.614337 0
M  V30 1417 H 136.544 -0.195837 2.0356 0
M  V30 1418 H 134.699 -2.50136 2.95822 0
M  V30 1419 H 135.113 -1.61956 4.98869 0
M  V30 1420 H 136.587 -3.24722 4.46385 0
M  V30 1421 H 137.064 -3.40434 2.77491 0
M  V30 1422 H 137.67 -2.03493 3.73458 0
M  V30 1423 N 135.985 -1.50799 -0.457987 0
M  V30 1424 C 137.396 -1.55152 -1.0385 0
M  V30 1425 C 137.747 -0.362719 -1.92818 0
M  V30 1426 O 136.872 0.522915 -2.09987 0
M  V30 1427 C 137.467 -2.81173 -1.89017 0
M  V30 1428 C 136.026 -2.88164 -2.42154 0
M  V30 1429 C 135.173 -2.49591 -1.20829 0
M  V30 1430 H 138.124 -1.56874 -0.240068 0
M  V30 1431 H 138.145 -2.63769 -2.74238 0
M  V30 1432 H 137.657 -3.67677 -1.24238 0
M  V30 1433 H 135.758 -2.06042 -3.10447 0
M  V30 1434 H 135.871 -3.91356 -2.76364 0
M  V30 1435 H 134.235 -2.02322 -1.54719 0
M  V30 1436 H 135.018 -3.38418 -0.576927 0
M  V30 1437 N 137.463 0.71206 -1.40597 0
M  V30 1438 C 138.712 1.46754 -1.38369 0
M  V30 1439 C 139.025 1.95598 0.0097839 0
M  V30 1440 O 140.231 2.71059 0.154677 0
M  V30 1441 C 138.687 2.65289 -2.43207 0
M  V30 1442 C 138.295 2.23301 -3.88382 0
M  V30 1443 C 140.039 3.43008 -2.50091 0
M  V30 1444 C 137.946 3.38696 -4.84808 0
M  V30 1445 H 136.876 0.55118 -0.514506 0
M  V30 1446 H 139.527 0.774616 -1.66349 0
M  V30 1447 H 137.909 3.36769 -2.08332 0
M  V30 1448 H 139.083 1.59218 -4.32419 0
M  V30 1449 H 137.398 1.58618 -3.85006 0
M  V30 1450 H 139.995 4.28881 -3.1932 0
M  V30 1451 H 140.338 3.87065 -1.53253 0
M  V30 1452 H 140.871 2.78574 -2.83974 0
M  V30 1453 H 137.61 2.99668 -5.82992 0
M  V30 1454 H 137.13 4.01683 -4.45433 0
M  V30 1455 H 138.809 4.04712 -5.04794 0
M  V30 1456 N 138.941 1.26152 0.944643 0
M  V30 1457 C 140.181 1.12708 1.70517 0
M  V30 1458 C 140.545 -0.324727 1.89234 0
M  V30 1459 O 141.746 -0.581211 2.62441 0
M  V30 1460 C 140.017 1.8713 3.04495 0
M  V30 1461 S 141.576 1.89698 3.95677 0
M  V30 1462 H 138.394 0.402665 0.585988 0
M  V30 1463 H 140.996 1.59821 1.12594 0
M  V30 1464 H 139.7 2.91833 2.88551 0
M  V30 1465 H 139.231 1.40444 3.67477 0
M  V30 1466 H 141.246 0.981198 4.86402 0
M  V30 1467 N 140.419 -1.14872 1.07899 0
M  V30 1468 C 141.835 -1.37776 0.805606 0
M  V30 1469 C 142.035 -1.92743 -0.587555 0
M  V30 1470 O 141.091 -2.13678 -1.34528 0
M  V30 1471 C 142.404 -2.34361 1.88402 0
M  V30 1472 C 143.952 -2.48012 1.90942 0
M  V30 1473 C 144.427 -3.47893 2.97883 0
M  V30 1474 N 145.918 -3.55433 2.97021 0
M  V30 1475 C 146.653 -4.32553 3.76412 0
M  V30 1476 N 146.149 -5.12959 4.65666 0
M  V30 1477 N 147.942 -4.27697 3.64735 0
M  V30 1478 H 140.093 -0.775365 1.97742 0
M  V30 1479 H 142.356 -0.403521 0.857831 0
M  V30 1480 H 142.062 -2.01098 2.88535 0
M  V30 1481 H 141.936 -3.34206 1.74889 0
M  V30 1482 H 144.323 -2.8057 0.914579 0
M  V30 1483 H 144.404 -1.48147 2.08534 0
M  V30 1484 H 144.048 -3.16069 3.97571 0
M  V30 1485 H 143.978 -4.47527 2.77538 0
M  V30 1486 H 146.469 -2.98048 2.32326 0
M  V30 1487 H 146.782 -5.69065 5.22862 0
M  V30 1488 H 145.127 -5.12245 4.69712 0
M  V30 1489 H 148.318 -3.63949 2.94378 0
M  V30 1490 H 148.491 -4.8755 4.26848 0
M  V30 1491 N 141.898 -0.863906 -1.31812 0
M  V30 1492 C 143.126 -0.486111 -2.01108 0
M  V30 1493 C 143.541 0.919755 -1.64882 0
M  V30 1494 O 142.898 1.60162 -0.874893 0
M  V30 1495 C 142.949 -0.626435 -3.56031 0
M  V30 1496 O 142.67 -1.97693 -3.90959 0
M  V30 1497 C 144.171 -0.248857 -4.42601 0
M  V30 1498 H 141.391 -0.190052 -0.643523 0
M  V30 1499 H 143.935 -1.1634 -1.68182 0
M  V30 1500 H 142.09 0.00322717 -3.874 0
M  V30 1501 H 142.504 -1.98034 -4.85678 0
M  V30 1502 H 143.978 -0.398016 -5.50563 0
M  V30 1503 H 144.455 0.811489 -4.31638 0
M  V30 1504 H 145.061 -0.853971 -4.16638 0
M  V30 1505 N 143.376 1.44774 -0.622745 0
M  V30 1506 C 144.606 2.06187 -0.130532 0
M  V30 1507 C 145.014 1.46547 1.19669 0
M  V30 1508 O 144.357 0.579636 1.74316 0
M  V30 1509 C 144.419 3.59437 0.0674983 0
M  V30 1510 C 144.083 4.41496 -1.18026 0
M  V30 1511 C 145.08 4.75512 -2.102 0
M  V30 1512 C 142.765 4.82007 -1.41333 0
M  V30 1513 C 144.759 5.48912 -3.23998 0
M  V30 1514 C 142.446 5.55157 -2.55429 0
M  V30 1515 C 143.444 5.88528 -3.46589 0
M  V30 1516 O 143.132 6.60191 -4.58697 0
M  V30 1517 H 142.864 0.672045 -0.0730162 0
M  V30 1518 H 145.418 1.86768 -0.854802 0
M  V30 1519 H 143.648 3.77314 0.846825 0
M  V30 1520 H 145.337 4.02642 0.513209 0
M  V30 1521 H 146.103 4.4476 -1.93425 0
M  V30 1522 H 141.982 4.55457 -0.712709 0
M  V30 1523 H 145.526 5.74877 -3.95174 0
M  V30 1524 H 141.423 5.85324 -2.72151 0
M  V30 1525 H 142.191 6.78654 -4.57571 0
M  V30 1526 N 144.854 0.36279 1.53368 0
M  V30 1527 C 145.817 -0.472679 2.24273 0
M  V30 1528 C 146.817 -1.012 1.24961 0
M  V30 1529 O 148.007 -0.898194 1.49259 0
M  V30 1530 C 145.139 -1.66039 2.97731 0
M  V30 1531 H 146.332 0.14773 2.99536 0
M  V30 1532 H 143.885 0.114434 1.55881 0
M  V30 1533 H 144.62 -2.31896 2.26704 0
M  V30 1534 H 144.405 -1.28066 3.70596 0
M  V30 1535 H 145.895 -2.25252 3.51641 0
M  V30 1536 N 146.332 -1.57332 0.0918853 0
M  V30 1537 C 147.557 -1.98995 -0.584442 0
M  V30 1538 C 147.982 -0.970528 -1.61128 0
M  V30 1539 O 147.34 0.0613904 -1.81196 0
M  V30 1540 C 147.388 -3.39636 -1.21161 0
M  V30 1541 O 146.492 -3.40447 -2.32744 0
M  V30 1542 H 145.833 -0.647165 -0.148572 0
M  V30 1543 H 148.363 -2.03873 0.172347 0
M  V30 1544 H 148.373 -3.7726 -1.55367 0
M  V30 1545 H 147.048 -4.13356 -0.459313 0
M  V30 1546 H 145.625 -3.14614 -2.0018 0
M  V30 1547 N 147.81 0.181792 -1.56548 0
M  V30 1548 C 149.056 0.896803 -1.82562 0
M  V30 1549 C 149.411 1.80324 -0.670908 0
M  V30 1550 O 148.704 1.8868 0.333235 0
M  V30 1551 C 148.898 1.73728 -3.12335 0
M  V30 1552 C 148.727 0.913714 -4.4032 0
M  V30 1553 C 147.497 0.592903 -5.01809 0
M  V30 1554 C 149.695 0.260164 -5.13642 0
M  V30 1555 N 147.677 -0.247901 -6.13399 0
M  V30 1556 C 149.048 -0.442256 -6.18421 0
M  V30 1557 C 151.103 0.177253 -4.97584 0
M  V30 1558 C 149.806 -1.21971 -7.08883 0
M  V30 1559 C 151.832 -0.586839 -5.88481 0
M  V30 1560 C 151.194 -1.27766 -6.92716 0
M  V30 1561 H 147.293 0.307122 -0.719166 0
M  V30 1562 H 149.877 0.164535 -1.94004 0
M  V30 1563 H 148.048 2.44105 -3.02105 0
M  V30 1564 H 149.78 2.39279 -3.26386 0
M  V30 1565 H 146.535 0.920502 -4.64568 0
M  V30 1566 H 146.959 -0.658304 -6.73792 0
M  V30 1567 H 151.601 0.696993 -4.17015 0
M  V30 1568 H 149.319 -1.75083 -7.88905 0
M  V30 1569 H 152.905 -0.652522 -5.78129 0
M  V30 1570 H 151.785 -1.85943 -7.61836 0
M  V30 1571 N 149.288 1.51039 0.449983 0
M  V30 1572 C 150.513 1.6715 1.22783 0
M  V30 1573 C 150.938 0.363081 1.84563 0
M  V30 1574 O 150.296 -0.675433 1.68249 0
M  V30 1575 C 150.344 2.77985 2.29689 0
M  V30 1576 O 149.448 2.40707 3.34864 0
M  V30 1577 H 148.789 0.557746 0.360299 0
M  V30 1578 H 151.319 1.97535 0.533005 0
M  V30 1579 H 151.329 3.01693 2.74673 0
M  V30 1580 H 150.004 3.72935 1.84098 0
M  V30 1581 H 148.581 2.27523 2.95445 0
M  V30 1582 N 150.766 -0.704594 1.40972 0
M  V30 1583 C 152.177 -1.28418 1.3552 0
M  V30 1584 C 152.528 -1.96171 0.0339434 0
M  V30 1585 O 151.653 -1.98231 -0.867944 0
M  V30 1586 C 152.248 -2.33528 2.45459 0
M  V30 1587 C 150.807 -2.87085 2.43433 0
M  V30 1588 C 149.954 -1.61007 2.2577 0
M  V30 1589 H 152.905 -0.499963 1.50619 0
M  V30 1590 H 152.926 -3.14619 2.13998 0
M  V30 1591 H 152.438 -1.84187 3.41609 0
M  V30 1592 H 150.539 -3.40626 1.51013 0
M  V30 1593 H 150.652 -3.3813 3.39419 0
M  V30 1594 H 149.016 -1.86482 1.73483 0
M  V30 1595 H 149.799 -1.13675 3.23933 0
M  V30 1596 N 152.244 -1.26651 -0.937939 0
M  V30 1597 C 153.192 -1.08308 -2.05845 0
M  V30 1598 C 154.186 -0.0090757 -1.69398 0
M  V30 1599 O 155.392 -0.166007 -1.79233 0
M  V30 1600 H 151.767 -0.333416 -0.674046 0
M  V30 1601 H 153.738 -2.03261 -2.18467 0
M  V30 1602 C 152.487 -0.736229 -3.39816 0
M  V30 1603 H 151.81 -1.55453 -3.6834 0
M  V30 1604 H 153.25 -0.64769 -4.19024 0
M  V30 1605 C 151.709 0.558824 -3.32233 0
M  V30 1606 O 152.239 1.59621 -3.68624 0
M  V30 1607 N 150.445 0.550657 -2.85335 0
M  V30 1608 H 149.992 -0.293943 -2.55917 0
M  V30 1609 H 149.95 1.41726 -2.80644 0
M  V30 1610 N 153.722 1.14298 -1.08507 0
M  V30 1611 C 154.971 1.84708 -0.810305 0
M  V30 1612 C 155.284 1.83903 0.666271 0
M  V30 1613 O 156.49 2.50112 1.05624 0
M  V30 1614 C 154.946 3.31572 -1.39957 0
M  V30 1615 C 154.554 3.40791 -2.90801 0
M  V30 1616 C 156.298 4.07087 -1.20334 0
M  V30 1617 C 154.205 4.81872 -3.4286 0
M  V30 1618 H 153.135 0.691985 -0.299454 0
M  V30 1619 H 155.786 1.28841 -1.30661 0
M  V30 1620 H 154.168 3.87183 -0.830976 0
M  V30 1621 H 155.342 2.95225 -3.53806 0
M  V30 1622 H 153.657 2.78732 -3.0935 0
M  V30 1623 H 156.254 5.11225 -1.56693 0
M  V30 1624 H 156.597 4.16054 -0.143237 0
M  V30 1625 H 157.13 3.57779 -1.73893 0
M  V30 1626 H 153.869 4.78094 -4.48449 0
M  V30 1627 H 153.389 5.27972 -2.84615 0
M  V30 1628 H 155.068 5.50765 -3.39509 0
M  V30 1629 N 155.201 0.870884 1.31352 0
M  V30 1630 C 156.148 0.325425 2.28494 0
M  V30 1631 C 157.118 -0.576615 1.5577 0
M  V30 1632 O 158.303 -0.508059 1.83911 0
M  V30 1633 C 155.443 -0.466283 3.41935 0
M  V30 1634 C 154.556 0.463378 4.29508 0
M  V30 1635 C 153.691 -0.342544 5.30094 0
M  V30 1636 C 152.73 0.583486 6.09313 0
M  V30 1637 N 151.867 -0.186244 7.01853 0
M  V30 1638 H 156.707 1.15901 2.74538 0
M  V30 1639 H 154.244 0.58294 1.35056 0
M  V30 1640 H 156.202 -0.941085 4.06447 0
M  V30 1641 H 154.832 -1.26456 2.97 0
M  V30 1642 H 153.884 1.05663 3.65431 0
M  V30 1643 H 155.196 1.1734 4.84802 0
M  V30 1644 H 154.35 -0.879816 6.00287 0
M  V30 1645 H 153.089 -1.08585 4.75458 0
M  V30 1646 H 152.094 1.13251 5.3801 0
M  V30 1647 H 153.319 1.32566 6.66035 0
M  V30 1648 H 151.265 -0.912348 6.49625 0
M  V30 1649 H 151.182 0.464422 7.54572 0
M  V30 1650 H 152.45 -0.704716 7.76308 0
M  V30 1651 N 156.679 -1.44442 0.630414 0
M  V30 1652 C 157.609 -2.33418 -0.0618083 0
M  V30 1653 C 158.59 -1.48165 -0.835541 0
M  V30 1654 O 159.775 -1.76886 -0.801564 0
M  V30 1655 C 156.905 -3.31222 -1.04449 0
M  V30 1656 C 155.859 -4.26288 -0.382436 0
M  V30 1657 C 155.185 -5.13954 -1.47497 0
M  V30 1658 C 156.485 -5.1744 0.710865 0
M  V30 1659 H 158.179 -2.91548 0.681184 0
M  V30 1660 H 155.725 -1.40191 0.329026 0
M  V30 1661 H 157.678 -3.92351 -1.53748 0
M  V30 1662 H 156.402 -2.71299 -1.81836 0
M  V30 1663 H 155.061 -3.6649 0.0899054 0
M  V30 1664 H 154.709 -4.50385 -2.2397 0
M  V30 1665 H 154.409 -5.7837 -1.03737 0
M  V30 1666 H 155.933 -5.77955 -1.96979 0
M  V30 1667 H 157.347 -5.72509 0.300996 0
M  V30 1668 H 155.744 -5.90455 1.07156 0
M  V30 1669 H 156.814 -4.58496 1.57829 0
M  V30 1670 N 158.157 -0.370918 -1.53173 0
M  V30 1671 C 159.405 0.216673 -2.00935 0
M  V30 1672 C 159.726 1.48845 -1.25977 0
M  V30 1673 O 158.996 1.92286 -0.374551 0
M  V30 1674 H 157.576 0.0830565 -0.742368 0
M  V30 1675 H 160.238 -0.49838 -1.8842 0
M  V30 1676 H 159.334 0.439893 -3.08984 0
M  V30 1677 N 159.635 1.57281 -0.100228 0
M  V30 1678 C 160.882 1.94537 0.562268 0
M  V30 1679 C 161.21 0.982315 1.67871 0
M  V30 1680 O 160.465 0.00280936 1.957 0
M  V30 1681 C 160.764 3.38305 1.15259 0
M  V30 1682 C 160.43 4.50618 0.159409 0
M  V30 1683 C 159.092 4.81066 -0.113741 0
M  V30 1684 C 161.444 5.18615 -0.518461 0
M  V30 1685 C 158.772 5.76835 -1.07137 0
M  V30 1686 C 161.124 6.15412 -1.46459 0
M  V30 1687 C 159.788 6.44262 -1.74592 0
M  V30 1688 H 159.058 0.711863 0.205748 0
M  V30 1689 H 161.705 1.90679 -0.17715 0
M  V30 1690 H 160.01 3.38766 1.96836 0
M  V30 1691 H 161.707 3.64435 1.67297 0
M  V30 1692 H 158.297 4.2689 0.382491 0
M  V30 1693 H 162.481 4.95264 -0.320581 0
M  V30 1694 H 157.737 5.975 -1.29628 0
M  V30 1695 H 161.911 6.67194 -1.99564 0
M  V30 1696 H 159.538 7.1828 -2.48953 0
M  V30 1697 N 161.113 -0.173488 1.56642 0
M  V30 1698 C 162.359 -0.887108 1.83035 0
M  V30 1699 C 162.714 -1.79965 0.680461 0
M  V30 1700 O 162.007 -1.88854 -0.323225 0
M  V30 1701 C 162.201 -1.72069 3.13252 0
M  V30 1702 C 162.03 -0.89035 4.40798 0
M  V30 1703 C 160.8 -0.566282 5.02117 0
M  V30 1704 C 162.998 -0.232921 5.13772 0
M  V30 1705 N 160.98 0.280427 6.13259 0
M  V30 1706 C 162.351 0.475046 6.18177 0
M  V30 1707 C 164.406 -0.150863 4.97671 0
M  V30 1708 C 163.109 1.25729 7.08227 0
M  V30 1709 C 165.135 0.618039 5.88162 0
M  V30 1710 C 164.497 1.31438 6.92029 0
M  V30 1711 H 160.596 -0.303303 0.720785 0
M  V30 1712 H 163.18 -0.154244 1.94088 0
M  V30 1713 H 161.351 -2.42499 3.03395 0
M  V30 1714 H 163.083 -2.37545 3.2765 0
M  V30 1715 H 159.838 -0.895852 4.6505 0
M  V30 1716 H 160.262 0.694027 6.73433 0
M  V30 1717 H 164.904 -0.674868 4.17379 0
M  V30 1718 H 162.622 1.79265 7.87966 0
M  V30 1719 H 166.208 0.683173 5.77775 0
M  V30 1720 H 165.088 1.89981 7.6084 0
M  V30 1721 N 162.591 -1.51276 -0.441967 0
M  V30 1722 C 163.821 -1.67273 -1.21257 0
M  V30 1723 C 164.229 -0.367624 -1.85594 0
M  V30 1724 O 163.572 0.663349 -1.71305 0
M  V30 1725 C 163.634 -2.72807 -2.34129 0
M  V30 1726 C 163.298 -4.1554 -1.90198 0
M  V30 1727 C 164.295 -5.00471 -1.40801 0
M  V30 1728 C 161.98 -4.61616 -1.9803 0
M  V30 1729 C 163.974 -6.29536 -0.998174 0
M  V30 1730 C 161.661 -5.90679 -1.56658 0
M  V30 1731 C 162.659 -6.74466 -1.07633 0
M  V30 1732 O 162.347 -8.01116 -0.668459 0
M  V30 1733 H 162.079 -0.564614 -0.371734 0
M  V30 1734 H 164.633 -1.9843 -0.530521 0
M  V30 1735 H 162.863 -2.36954 -3.05597 0
M  V30 1736 H 164.552 -2.77729 -2.96009 0
M  V30 1737 H 165.318 -4.66079 -1.34148 0
M  V30 1738 H 161.197 -3.96526 -2.35135 0
M  V30 1739 H 164.741 -6.94885 -0.61482 0
M  V30 1740 H 160.638 -6.24586 -1.62979 0
M  V30 1741 H 161.406 -8.14633 -0.794722 0
M  V30 1742 N 164.069 0.697108 -1.41344 0
M  V30 1743 C 164.979 1.84088 -1.45427 0
M  V30 1744 C 165.995 1.70545 -0.34501 0
M  V30 1745 O 167.171 1.92488 -0.592492 0
M  V30 1746 C 164.236 3.20056 -1.33286 0
M  V30 1747 C 163.297 3.45718 -2.54514 0
M  V30 1748 C 162.53 4.75199 -2.42944 0
M  V30 1749 O 162.753 5.51579 -1.45318 0
M  V30 1750 O 161.687 5.0161 -3.32672 0
M  V30 1751 H 165.513 1.836 -2.41919 0
M  V30 1752 H 163.098 0.849966 -1.22866 0
M  V30 1753 H 164.98 4.01236 -1.28794 0
M  V30 1754 H 163.655 3.2123 -0.39909 0
M  V30 1755 H 162.562 2.64474 -2.64583 0
M  V30 1756 H 163.895 3.49356 -3.46715 0
M  V30 1757 N 165.547 1.27147 0.931209 0
M  V30 1758 C 166.477 1.12081 2.04842 0
M  V30 1759 C 167.458 0.0232364 1.70084 0
M  V30 1760 O 168.643 0.197085 1.93197 0
M  V30 1761 C 165.773 0.76354 3.38803 0
M  V30 1762 C 164.727 1.81396 3.87659 0
M  V30 1763 C 164.053 1.31075 5.18385 0
M  V30 1764 C 165.353 3.21739 4.11438 0
M  V30 1765 H 167.047 2.05537 2.17703 0
M  V30 1766 H 164.593 0.989603 1.04608 0
M  V30 1767 H 166.546 0.644982 4.16435 0
M  V30 1768 H 165.27 -0.206727 3.25945 0
M  V30 1769 H 163.929 1.92136 3.12217 0
M  V30 1770 H 163.577 0.330037 5.01916 0
M  V30 1771 H 163.277 2.013 5.52044 0
M  V30 1772 H 164.801 1.20506 5.98591 0
M  V30 1773 H 166.215 3.14019 4.79651 0
M  V30 1774 H 164.612 3.89644 4.56397 0
M  V30 1775 H 165.682 3.67054 3.16859 0
M  V30 1776 N 167.025 -1.13721 1.09112 0
M  V30 1777 C 168.273 -1.84559 0.823562 0
M  V30 1778 C 168.594 -1.83754 -0.652658 0
M  V30 1779 O 167.864 -1.29102 -1.47342 0
M  V30 1780 H 166.444 -0.683376 0.301673 0
M  V30 1781 H 169.106 -1.37771 1.37859 0
M  V30 1782 H 168.202 -2.8917 1.17419 0
M  V30 1783 N 168.503 -0.877838 -1.30888 0
M  V30 1784 C 169.919 -0.570844 -1.49042 0
M  V30 1785 C 170.119 0.893159 -1.80624 0
M  V30 1786 O 169.175 1.67485 -1.88958 0
M  V30 1787 C 170.488 -1.47784 -2.61878 0
M  V30 1788 C 172.036 -1.48071 -2.75761 0
M  V30 1789 C 172.511 -2.37347 -3.91702 0
M  V30 1790 N 174.002 -2.35271 -3.99001 0
M  V30 1791 C 174.737 -3.01063 -4.88004 0
M  V30 1792 N 174.233 -3.76055 -5.81854 0
M  V30 1793 N 176.026 -2.90332 -4.81315 0
M  V30 1794 H 168.177 -1.82502 -1.0866 0
M  V30 1795 H 170.44 -0.780797 -0.537644 0
M  V30 1796 H 170.146 -2.51993 -2.45341 0
M  V30 1797 H 170.02 -1.18215 -3.58197 0
M  V30 1798 H 172.407 -0.446166 -2.91708 0
M  V30 1799 H 172.488 -1.81668 -1.80085 0
M  V30 1800 H 172.132 -3.40883 -3.76512 0
M  V30 1801 H 172.062 -2.01071 -4.86701 0
M  V30 1802 H 174.553 -1.80768 -3.3186 0
M  V30 1803 H 174.866 -4.23366 -6.46514 0
M  V30 1804 H 173.211 -3.80163 -5.81808 0
M  V30 1805 H 176.402 -2.31278 -4.06974 0
M  V30 1806 H 176.575 -3.41885 -5.50471 0
M  V30 1807 N 169.982 1.44106 -0.638065 0
M  V30 1808 C 171.229 2.01978 -0.14533 0
M  V30 1809 C 171.557 1.50234 1.23532 0
M  V30 1810 O 170.812 0.679548 1.83523 0
M  V30 1811 C 171.111 3.5729 -0.0887327 0
M  V30 1812 C 170.777 4.28317 -1.40909 0
M  V30 1813 C 169.439 4.47437 -1.77069 0
M  V30 1814 C 171.791 4.6867 -2.28031 0
M  V30 1815 C 169.119 5.04171 -3.00047 0
M  V30 1816 C 171.471 5.26766 -3.50286 0
M  V30 1817 C 170.135 5.44104 -3.86661 0
M  V30 1818 H 169.405 0.739089 -0.0531801 0
M  V30 1819 H 172.052 1.72781 -0.825761 0
M  V30 1820 H 170.357 3.8594 0.675095 0
M  V30 1821 H 172.054 3.99807 0.309145 0
M  V30 1822 H 168.644 4.1377 -1.1177 0
M  V30 1823 H 172.828 4.53604 -2.01388 0
M  V30 1824 H 168.084 5.15782 -3.28298 0
M  V30 1825 H 172.258 5.56983 -4.18023 0
M  V30 1826 H 169.885 5.87832 -4.82034 0
M  V30 1827 N 171.46 0.379036 1.52974 0
M  V30 1828 C 172.393 -0.504932 2.22544 0
M  V30 1829 C 173.371 -1.0723 1.22231 0
M  V30 1830 O 174.555 -1.12589 1.51182 0
M  V30 1831 C 171.682 -1.69794 2.93066 0
M  V30 1832 C 170.728 -1.25678 4.07563 0
M  V30 1833 S 171.561 -0.246852 5.34931 0
M  V30 1834 C 172.717 -1.44588 6.08971 0
M  V30 1835 H 172.95 0.0858666 2.97176 0
M  V30 1836 H 170.483 0.163183 1.53535 0
M  V30 1837 H 172.441 -2.38219 3.34308 0
M  V30 1838 H 171.102 -2.26002 2.18133 0
M  V30 1839 H 170.295 -2.14725 4.5597 0
M  V30 1840 H 169.897 -0.651584 3.6828 0
M  V30 1841 H 172.189 -2.37469 6.34519 0
M  V30 1842 H 173.132 -1.00292 7.00962 0
M  V30 1843 H 173.54 -1.65804 5.39601 0
M  V30 1844 N 172.938 -1.57226 0.108567 0
M  V30 1845 C 174.215 -1.86333 -0.594939 0
M  V30 1846 C 174.595 -1.00788 -1.85486 0
M  V30 1847 O 173.943 -0.0839293 -2.28346 0
M  V30 1848 C 174.153 -3.37265 -0.897405 0
M  V30 1849 C 175.501 -4.05629 -1.25501 0
M  V30 1850 O 176.525 -3.42224 -0.987998 0
M  V30 1851 O 175.384 -5.17531 -1.75567 0
M  V30 1852 H 172.478 -0.771018 -0.2991 0
M  V30 1853 H 175.024 -1.69102 0.142283 0
M  V30 1854 H 173.796 -3.913 -0.00413806 0
M  V30 1855 H 173.419 -3.59889 -1.69014 0
M  V30 1856 N 174.416 0.165178 -1.56732 0
M  V30 1857 C 175.348 1.22911 -1.93457 0
M  V30 1858 C 176.361 1.40152 -0.828333 0
M  V30 1859 O 177.55 1.40046 -1.10677 0
M  V30 1860 C 174.65 2.59686 -2.17753 0
M  V30 1861 C 173.823 2.63663 -3.48999 0
M  V30 1862 C 172.882 3.81845 -3.62051 0
M  V30 1863 O 171.908 3.67559 -4.34613 0
M  V30 1864 N 173.11 4.98557 -2.97357 0
M  V30 1865 H 175.875 0.917118 -2.85323 0
M  V30 1866 H 173.436 0.354895 -1.57962 0
M  V30 1867 H 175.428 3.37225 -2.23743 0
M  V30 1868 H 173.998 2.83251 -1.32242 0
M  V30 1869 H 173.218 1.72173 -3.54612 0
M  V30 1870 H 174.506 2.63336 -4.35352 0
M  V30 1871 H 173.904 5.13065 -2.38287 0
M  V30 1872 H 172.461 5.73936 -3.08934 0
M  V30 1873 N 175.894 1.51508 0.433938 0
M  V30 1874 C 177.142 1.6402 1.18075 0
M  V30 1875 C 177.463 0.360328 1.91642 0
M  V30 1876 O 176.733 -0.623945 1.85698 0
M  V30 1877 H 175.313 0.6045 0.43885 0
M  V30 1878 H 177.975 1.88452 0.497178 0
M  V30 1879 H 177.071 2.46949 1.90847 0
M  V30 1880 N 177.372 -0.689602 1.41712 0
M  V30 1881 C 178.302 -1.81577 1.46806 0
M  V30 1882 C 179.283 -1.66945 0.326105 0
M  V30 1883 O 180.468 -1.86588 0.538377 0
M  V30 1884 C 177.598 -3.19762 1.35535 0
M  V30 1885 C 176.552 -3.49107 2.47605 0
M  V30 1886 C 175.878 -4.86711 2.21397 0
M  V30 1887 C 177.178 -3.47483 3.89939 0
M  V30 1888 H 178.872 -1.7757 2.41058 0
M  V30 1889 H 176.418 -0.852887 1.16025 0
M  V30 1890 H 178.371 -3.98263 1.3771 0
M  V30 1891 H 177.095 -3.24409 0.377708 0
M  V30 1892 H 175.754 -2.72959 2.44722 0
M  V30 1893 H 175.402 -4.8799 1.21961 0
M  V30 1894 H 175.102 -5.0731 2.96497 0
M  V30 1895 H 176.626 -5.67515 2.25297 0
M  V30 1896 H 178.04 -4.1598 3.94505 0
M  V30 1897 H 176.437 -3.79615 4.64771 0
M  V30 1898 H 177.507 -2.46341 4.17665 0
M  V30 1899 N 178.85 -1.27639 -0.924453 0
M  V30 1900 C 180.096 -1.14336 -1.67497 0
M  V30 1901 C 180.429 0.309465 -1.91718 0
M  V30 1902 O 179.704 1.22608 -1.50989 0
M  V30 1903 C 179.987 -1.93096 -3.0395 0
M  V30 1904 C 179.84 -3.46381 -2.8695 0
M  V30 1905 C 181.159 -1.73798 -4.0433 0
M  V30 1906 H 178.278 -0.416728 -0.607871 0
M  V30 1907 H 180.92 -1.56832 -1.07256 0
M  V30 1908 H 179.07 -1.56982 -3.55372 0
M  V30 1909 H 180.742 -3.92343 -2.42621 0
M  V30 1910 H 178.985 -3.72557 -2.22225 0
M  V30 1911 H 179.656 -3.96735 -3.83804 0
M  V30 1912 H 182.132 -2.05293 -3.61931 0
M  V30 1913 H 181.008 -2.31294 -4.97789 0
M  V30 1914 H 181.269 -0.686725 -4.36734 0
M  V30 1915 N 180.328 1.1314 -1.09713 0
M  V30 1916 C 181.291 2.16831 -0.742751 0
M  V30 1917 C 182.291 1.59159 0.229129 0
M  V30 1918 O 183.481 1.74199 0.00693237 0
M  V30 1919 C 180.613 3.40756 -0.0989168 0
M  V30 1920 H 181.806 2.49695 -1.66109 0
M  V30 1921 H 179.359 1.2802 -0.896699 0
M  V30 1922 H 180.094 3.13485 0.830514 0
M  V30 1923 H 179.879 3.83888 -0.798265 0
M  V30 1924 H 181.369 4.17386 0.133524 0
M  V30 1925 N 181.806 0.884767 1.30421 0
M  V30 1926 C 183.217 0.553656 1.78302 0
M  V30 1927 C 183.568 -0.930153 1.7275 0
M  V30 1928 O 182.693 -1.72681 1.30423 0
M  V30 1929 C 183.288 0.998234 3.2376 0
M  V30 1930 C 181.847 0.71854 3.69478 0
M  V30 1931 C 180.994 1.18132 2.50879 0
M  V30 1932 H 183.945 1.06901 1.17294 0
M  V30 1933 H 183.966 0.327118 3.79091 0
M  V30 1934 H 183.478 2.0782 3.27769 0
M  V30 1935 H 181.579 -0.349444 3.70958 0
M  V30 1936 H 181.692 1.30595 4.60958 0
M  V30 1937 H 180.056 0.600669 2.47516 0
M  V30 1938 H 180.839 2.26902 2.57624 0
M  V30 1939 N 183.284 -1.43765 0.645699 0
M  V30 1940 C 184.533 -2.01116 0.153412 0
M  V30 1941 C 184.846 -1.51493 -1.23731 0
M  V30 1942 O 186.052 -2.01067 -1.8244 0
M  V30 1943 C 184.508 -3.59206 0.223473 0
M  V30 1944 C 184.116 -4.17823 1.61642 0
M  V30 1945 C 185.86 -4.23972 -0.211597 0
M  V30 1946 C 183.767 -5.68183 1.64081 0
M  V30 1947 H 182.697 -0.752093 0.0535891 0
M  V30 1948 H 185.348 -1.6482 0.806633 0
M  V30 1949 H 183.73 -3.92867 -0.497118 0
M  V30 1950 H 184.904 -3.95674 2.36176 0
M  V30 1951 H 183.219 -3.65399 1.99681 0
M  V30 1952 H 185.816 -5.34275 -0.213112 0
M  V30 1953 H 186.159 -3.97352 -1.24165 0
M  V30 1954 H 186.692 -3.95166 0.456988 0
M  V30 1955 H 183.431 -5.99559 2.64971 0
M  V30 1956 H 182.951 -5.9241 0.938611 0
M  V30 1957 H 184.63 -6.32085 1.3812 0
M  V30 1958 N 184.763 -0.387143 -1.52771 0
M  V30 1959 C 186.174 0.0873634 -1.86495 0
M  V30 1960 C 186.525 1.46336 -1.30691 0
M  V30 1961 O 185.65 2.068 -0.637409 0
M  V30 1962 C 186.245 0.165305 -3.38396 0
M  V30 1963 C 184.804 0.584101 -3.7184 0
M  V30 1964 C 183.951 -0.255279 -2.76122 0
M  V30 1965 H 186.902 -0.605104 -1.46711 0
M  V30 1966 H 186.923 0.984848 -3.67534 0
M  V30 1967 H 186.435 -0.836301 -3.78982 0
M  V30 1968 H 184.536 1.59315 -3.36823 0
M  V30 1969 H 184.649 0.343749 -4.77865 0
M  V30 1970 H 183.013 0.279126 -2.53166 0
M  V30 1971 H 183.796 -1.25482 -3.19545 0
M  V30 1972 N 186.241 1.57166 -0.116904 0
M  V30 1973 C 187.151 2.18745 0.847812 0
M  V30 1974 C 188.167 1.163 1.29423 0
M  V30 1975 O 189.343 1.48761 1.35765 0
M  V30 1976 C 186.408 2.77307 2.0809 0
M  V30 1977 C 185.469 3.94781 1.68661 0
M  V30 1978 C 184.702 4.50541 2.86091 0
M  V30 1979 O 184.925 4.05202 4.01456 0
M  V30 1980 O 183.859 5.41256 2.63298 0
M  V30 1981 H 187.685 3.01632 0.353778 0
M  V30 1982 H 185.27 1.49005 0.108599 0
M  V30 1983 H 187.152 3.14647 2.80313 0
M  V30 1984 H 185.827 1.97452 2.56504 0
M  V30 1985 H 184.734 3.62214 0.935518 0
M  V30 1986 H 186.067 4.76065 1.24991 0
M  V30 1987 N 187.719 -0.156864 1.56817 0
M  V30 1988 C 188.967 -0.869404 1.82444 0
M  V30 1989 C 189.288 -1.82147 0.69623 0
M  V30 1990 O 188.558 -1.93847 -0.28287 0
M  V30 1991 H 187.138 -0.324043 0.673056 0
M  V30 1992 H 189.8 -0.153224 1.94297 0
M  V30 1993 H 188.896 -1.43761 2.77019 0
M  V30 1994 N 189.197 -1.51736 -0.425897 0
M  V30 1995 C 190.427 -1.68549 -1.19476 0
M  V30 1996 C 190.835 -0.387288 -1.85194 0
M  V30 1997 O 190.178 0.645142 -1.71999 0
M  V30 1998 C 190.24 -2.75275 -2.31223 0
M  V30 1999 C 189.904 -4.17534 -1.8578 0
M  V30 2000 C 190.901 -5.01936 -1.35485 0
M  V30 2001 C 188.586 -4.6369 -1.93123 0
M  V30 2002 C 190.58 -6.30559 -0.931347 0
M  V30 2003 C 188.267 -5.92307 -1.50384 0
M  V30 2004 C 189.265 -6.75569 -1.00473 0
M  V30 2005 O 188.953 -8.0178 -0.583452 0
M  V30 2006 H 188.685 -0.568525 -0.365725 0
M  V30 2007 H 191.239 -1.98982 -0.509444 0
M  V30 2008 H 189.469 -2.40182 -3.03067 0
M  V30 2009 H 191.158 -2.80853 -2.93047 0
M  V30 2010 H 191.924 -4.67475 -1.29197 0
M  V30 2011 H 187.803 -3.98997 -2.30916 0
M  V30 2012 H 191.347 -6.95498 -0.541084 0
M  V30 2013 H 187.244 -6.2628 -1.56346 0
M  V30 2014 H 188.012 -8.1543 -0.708275 0
M  V30 2015 N 190.675 0.682077 -1.42076 0
M  V30 2016 C 191.622 1.79578 -1.44984 0
M  V30 2017 C 192.592 1.6332 -0.302614 0
M  V30 2018 O 193.777 1.83978 -0.505633 0
M  V30 2019 C 190.917 3.1756 -1.35091 0
M  V30 2020 C 190.03 3.45156 -2.59791 0
M  V30 2021 C 189.165 4.72826 -2.42093 0
M  V30 2022 C 188.204 4.93433 -3.62202 0
M  V30 2023 N 187.341 6.12338 -3.43491 0
M  V30 2024 H 192.181 1.76427 -2.40161 0
M  V30 2025 H 189.718 0.861376 -1.19242 0
M  V30 2026 H 191.676 3.97287 -1.27354 0
M  V30 2027 H 190.306 3.19854 -0.435133 0
M  V30 2028 H 189.358 2.59736 -2.77923 0
M  V30 2029 H 190.67 3.5628 -3.49094 0
M  V30 2030 H 189.824 5.60631 -2.319 0
M  V30 2031 H 188.563 4.63973 -1.50268 0
M  V30 2032 H 187.568 4.04073 -3.72834 0
M  V30 2033 H 188.793 5.04136 -4.54998 0
M  V30 2034 H 186.739 6.04672 -2.54377 0
M  V30 2035 H 186.656 6.2429 -4.26377 0
M  V30 2036 H 187.924 7.02841 -3.37097 0
M  V30 2037 N 192.153 1.28127 0.917671 0
M  V30 2038 C 193.083 1.14248 2.03641 0
M  V30 2039 C 194.064 0.0412748 1.7005 0
M  V30 2040 O 195.249 0.217566 1.92977 0
M  V30 2041 C 192.379 0.799431 3.37974 0
M  V30 2042 C 191.333 1.85497 3.85713 0
M  V30 2043 C 190.659 1.36565 5.16966 0
M  V30 2044 C 191.959 3.26085 4.08002 0
M  V30 2045 H 193.653 2.07835 2.15511 0
M  V30 2046 H 191.199 1.00064 1.03553 0
M  V30 2047 H 193.152 0.689114 4.15727 0
M  V30 2048 H 191.876 -0.172145 3.26146 0
M  V30 2049 H 190.535 1.95437 3.10161 0
M  V30 2050 H 190.183 0.383253 5.01538 0
M  V30 2051 H 189.883 2.07143 5.49878 0
M  V30 2052 H 191.407 1.26848 5.97279 0
M  V30 2053 H 192.821 3.19089 4.76293 0
M  V30 2054 H 191.218 3.94462 4.52238 0
M  V30 2055 H 192.288 3.70394 3.12948 0
M  V30 2056 N 193.631 -1.12557 1.10312 0
M  V30 2057 C 194.856 -1.88405 0.867085 0
M  V30 2058 C 195.281 -1.79038 -0.576817 0
M  V30 2059 O 194.639 -1.14439 -1.40618 0
M  V30 2060 C 194.687 -3.3563 1.31851 0
M  V30 2061 O 193.791 -4.09565 0.482734 0
M  V30 2062 H 193.132 -0.585455 0.313271 0
M  V30 2063 H 195.662 -1.42352 1.4696 0
M  V30 2064 H 195.672 -3.86469 1.3079 0
M  V30 2065 H 194.347 -3.41765 2.37001 0
M  V30 2066 H 192.924 -3.68695 0.558448 0
M  V30 2067 N 195.109 -0.891671 -1.2995 0
M  V30 2068 C 196.072 -0.36828 -2.26222 0
M  V30 2069 C 197.072 0.493014 -1.53056 0
M  V30 2070 O 198.262 0.299213 -1.71611 0
M  V30 2071 C 195.394 0.47442 -3.37583 0
M  V30 2072 H 196.587 -1.21844 -2.74033 0
M  V30 2073 H 194.14 -0.669107 -1.41254 0
M  V30 2074 H 194.875 1.34489 -2.95099 0
M  V30 2075 H 194.66 -0.142615 -3.91841 0
M  V30 2076 H 196.15 0.83218 -4.09224 0
M  V30 2077 N 196.587 1.43421 -0.653314 0
M  V30 2078 C 197.535 2.32546 0.0501531 0
M  V30 2079 C 198.529 1.48617 0.812985 0
M  V30 2080 O 199.735 1.64825 0.723375 0
M  V30 2081 H 196.11 0.751185 0.0350032 0
M  V30 2082 H 198.081 2.89602 -0.719261 0
M  V30 2083 C 196.83 3.32925 1.00279 0
M  V30 2084 H 196.153 3.97532 0.425236 0
M  V30 2085 H 197.593 3.9792 1.46409 0
M  V30 2086 C 196.052 2.63532 2.09886 0
M  V30 2087 O 196.582 2.45092 3.18265 0
M  V30 2088 N 194.788 2.22905 1.86445 0
M  V30 2089 H 194.335 2.38103 0.98309 0
M  V30 2090 H 194.293 1.76805 2.59976 0
M  V30 2091 N 198.065 0.39524 1.52563 0
M  V30 2092 C 199.028 -0.425001 2.25225 0
M  V30 2093 C 200.028 -0.985266 1.27079 0
M  V30 2094 O 201.218 -0.866332 1.5113 0
M  V30 2095 C 198.35 -1.59686 3.01186 0
M  V30 2096 H 199.543 0.211233 2.99155 0
M  V30 2097 H 197.096 0.147472 1.55603 0
M  V30 2098 H 197.831 -2.27035 2.31572 0
M  V30 2099 H 197.616 -1.20176 3.73229 0
M  V30 2100 H 199.106 -2.17743 3.5634 0
M  V30 2101 N 199.544 -1.57102 0.125237 0
M  V30 2102 C 200.492 -2.16905 -0.839927 0
M  V30 2103 C 201.486 -1.11998 -1.27094 0
M  V30 2104 O 202.692 -1.3029 -1.24195 0
M  V30 2105 H 199.067 -0.694252 -0.288995 0
M  V30 2106 H 201.038 -2.96774 -0.311115 0
M  V30 2107 C 199.787 -2.78795 -2.07771 0
M  V30 2108 H 199.11 -3.59221 -1.755 0
M  V30 2109 H 200.55 -3.2417 -2.73295 0
M  V30 2110 C 199.009 -1.76193 -2.87155 0
M  V30 2111 O 199.539 -1.21909 -3.82755 0
M  V30 2112 N 197.745 -1.45991 -2.51267 0
M  V30 2113 H 197.292 -1.90325 -1.73592 0
M  V30 2114 H 197.25 -0.775844 -3.04677 0
M  V30 2115 N 201.022 0.148545 -1.56898 0
M  V30 2116 C 201.985 1.16736 -1.97244 0
M  V30 2117 C 202.985 1.35947 -0.858777 0
M  V30 2118 O 204.175 1.32966 -1.12542 0
M  V30 2119 C 201.307 2.52798 -2.28705 0
M  V30 2120 H 202.5 0.821279 -2.88435 0
M  V30 2121 H 200.053 0.391831 -1.51309 0
M  V30 2122 H 200.788 2.92381 -1.403 0
M  V30 2123 H 200.573 2.40216 -3.09901 0
M  V30 2124 H 202.063 3.26179 -2.60762 0
M  V30 2125 N 202.5 1.5196 0.417844 0
M  V30 2126 C 203.749 1.6482 1.16264 0
M  V30 2127 C 204.062 0.379886 1.91876 0
M  V30 2128 O 205.268 0.388154 2.68711 0
M  V30 2129 C 203.724 2.91161 2.1155 0
M  V30 2130 C 203.332 4.25068 1.41495 0
M  V30 2131 C 205.076 3.13383 2.86341 0
M  V30 2132 C 202.983 5.42541 2.35379 0
M  V30 2133 H 201.913 0.613954 0.437694 0
M  V30 2134 H 204.564 1.78442 0.427871 0
M  V30 2135 H 202.946 2.71218 2.88543 0
M  V30 2136 H 204.12 4.55463 0.699263 0
M  V30 2137 H 202.435 4.0888 0.787792 0
M  V30 2138 H 205.032 3.98324 3.5671 0
M  V30 2139 H 205.375 2.27256 3.48798 0
M  V30 2140 H 205.908 3.33757 2.1645 0
M  V30 2141 H 202.647 6.30987 1.77582 0
M  V30 2142 H 202.167 5.16497 3.04945 0
M  V30 2143 H 203.846 5.75272 2.96093 0
M  V30 2144 N 203.978 -0.674533 1.42435 0
M  V30 2145 C 204.908 -1.80009 1.48724 0
M  V30 2146 C 205.889 -1.6659 0.343793 0
M  V30 2147 O 207.074 -1.86007 0.558137 0
M  V30 2148 C 204.204 -3.18306 1.38919 0
M  V30 2149 C 203.158 -3.46461 2.51294 0
M  V30 2150 C 202.484 -4.84335 2.26547 0
M  V30 2151 C 203.784 -3.43328 3.93603 0
M  V30 2152 H 205.478 -1.75004 2.42928 0
M  V30 2153 H 203.024 -0.840533 1.16923 0
M  V30 2154 H 204.977 -3.9678 1.41927 0
M  V30 2155 H 203.701 -3.2399 0.412094 0
M  V30 2156 H 202.36 -2.70348 2.47604 0
M  V30 2157 H 202.008 -4.86669 1.2713 0
M  V30 2158 H 201.708 -5.04136 3.01861 0
M  V30 2159 H 203.232 -5.65094 2.31304 0
M  V30 2160 H 204.646 -4.11772 3.98894 0
M  V30 2161 H 203.043 -3.74664 4.68771 0
M  V30 2162 H 204.113 -2.41897 4.20255 0
M  V30 2163 N 205.456 -1.28612 -0.910864 0
M  V30 2164 C 206.702 -1.16106 -1.66274 0
M  V30 2165 C 207.035 0.289113 -1.92036 0
M  V30 2166 O 206.31 1.21 -1.52281 0
M  V30 2167 C 206.593 -1.96309 -3.01885 0
M  V30 2168 C 206.446 -3.49405 -2.8326 0
M  V30 2169 C 207.765 -1.78076 -4.02463 0
M  V30 2170 H 204.884 -0.423152 -0.603417 0
M  V30 2171 H 207.526 -1.57961 -1.05586 0
M  V30 2172 H 205.676 -1.60742 -3.53687 0
M  V30 2173 H 207.348 -3.94894 -2.38446 0
M  V30 2174 H 205.591 -3.74893 -2.18261 0
M  V30 2175 H 206.262 -4.00784 -3.79574 0
M  V30 2176 H 208.738 -2.0912 -3.59733 0
M  V30 2177 H 207.614 -2.36561 -4.95308 0
M  V30 2178 H 207.875 -0.733008 -4.35981 0
M  V30 2179 N 206.934 1.1197 -1.10907 0
M  V30 2180 C 208.162 1.87402 -0.876824 0
M  V30 2181 C 208.577 1.79894 0.573025 0
M  V30 2182 O 207.934 1.17629 1.39534 0
M  V30 2183 C 207.985 3.36428 -1.32282 0
M  V30 2184 O 207.706 3.43765 -2.71582 0
M  V30 2185 C 209.207 4.28783 -1.12518 0
M  V30 2186 H 206.427 0.592793 -0.314384 0
M  V30 2187 H 208.971 1.41649 -1.47499 0
M  V30 2188 H 207.126 3.79706 -0.768229 0
M  V30 2189 H 207.54 4.3652 -2.90776 0
M  V30 2190 H 209.014 5.31613 -1.48633 0
M  V30 2191 H 209.491 4.39153 -0.0642394 0
M  V30 2192 H 210.097 3.91291 -1.66648 0
M  V30 2193 N 208.412 0.89855 1.29475 0
M  V30 2194 C 209.661 0.519863 1.94885 0
M  V30 2195 C 209.974 -0.9383 1.71625 0
M  V30 2196 O 211.18 -1.42445 2.31131 0
M  V30 2197 C 209.636 0.878836 3.49005 0
M  V30 2198 C 209.244 2.35569 3.81066 0
M  V30 2199 C 210.988 0.570004 4.20656 0
M  V30 2200 C 208.895 2.65558 5.28425 0
M  V30 2201 H 207.825 0.190692 0.729488 0
M  V30 2202 H 210.476 1.09539 1.47219 0
M  V30 2203 H 208.858 0.232253 3.95318 0
M  V30 2204 H 210.032 3.04773 3.45616 0
M  V30 2205 H 208.347 2.63343 3.22552 0
M  V30 2206 H 210.944 0.770925 5.29113 0
M  V30 2207 H 211.287 -0.491404 4.1339 0
M  V30 2208 H 211.82 1.17438 3.8007 0
M  V30 2209 H 208.559 3.70493 5.40754 0
M  V30 2210 H 208.079 2.00977 5.65127 0
M  V30 2211 H 209.758 2.51765 5.96006 0
M  V30 2212 N 209.89 -1.43072 0.660911 0
M  V30 2213 C 210.822 -2.29108 -0.0647641 0
M  V30 2214 C 211.835 -1.42928 -0.779448 0
M  V30 2215 O 213.024 -1.66788 -0.635921 0
M  V30 2216 C 210.124 -3.20032 -1.11503 0
M  V30 2217 C 209.297 -4.34792 -0.476955 0
M  V30 2218 C 208.356 -5.06534 -1.42513 0
M  V30 2219 O 207.382 -5.61538 -0.930771 0
M  V30 2220 N 208.584 -5.1075 -2.75889 0
M  V30 2221 H 211.349 -2.92029 0.673731 0
M  V30 2222 H 208.91 -1.53846 0.50427 0
M  V30 2223 H 210.902 -3.64892 -1.75032 0
M  V30 2224 H 209.472 -2.58658 -1.75541 0
M  V30 2225 H 208.692 -3.92752 0.337572 0
M  V30 2226 H 209.98 -5.0879 -0.0318525 0
M  V30 2227 H 209.378 -4.67447 -3.18606 0
M  V30 2228 H 207.935 -5.59302 -3.347 0
M  V30 2229 N 211.368 -0.403325 -1.52352 0
M  V30 2230 C 212.616 0.174003 -2.0135 0
M  V30 2231 C 212.937 1.46139 -1.29106 0
M  V30 2232 O 212.207 1.91448 -0.415253 0
M  V30 2233 H 210.787 0.0672911 -0.743963 0
M  V30 2234 H 213.449 -0.538235 -1.87321 0
M  V30 2235 H 212.545 0.374254 -3.09848 0
M  V30 2236 N 212.846 1.57033 -0.133567 0
M  V30 2237 C 214.095 1.94861 0.520768 0
M  V30 2238 C 214.408 1.02012 1.66892 0
M  V30 2239 O 215.614 1.29365 2.38699 0
M  V30 2240 C 214.07 3.46362 0.977809 0
M  V30 2241 C 213.678 4.47773 -0.142674 0
M  V30 2242 C 215.422 3.93083 1.60269 0
M  V30 2243 C 213.329 5.90468 0.331883 0
M  V30 2244 H 212.259 0.727453 0.198315 0
M  V30 2245 H 214.91 1.82227 -0.215759 0
M  V30 2246 H 213.292 3.54282 1.7692 0
M  V30 2247 H 214.466 4.51536 -0.919317 0
M  V30 2248 H 212.781 4.10891 -0.675124 0
M  V30 2249 H 215.378 4.97121 1.96914 0
M  V30 2250 H 215.721 3.33876 2.48662 0
M  V30 2251 H 216.254 3.88025 0.876453 0
M  V30 2252 H 212.993 6.53463 -0.516341 0
M  V30 2253 H 212.513 5.90094 1.07469 0
M  V30 2254 H 214.192 6.42179 0.788332 0
M  V30 2255 N 214.325 -0.140222 1.56975 0
M  V30 2256 C 215.602 -0.880769 1.74648 0
M  V30 2257 C 215.982 -1.99036 0.703404 0
M  V30 2258 O 215.33 -2.26821 -0.27648 0
M  V30 2259 C 215.54 -1.417 3.18939 0
M  V30 2260 C 216.888 -1.87774 3.80823 0
M  V30 2261 O 217.912 -1.51427 3.2241 0
M  V30 2262 O 216.771 -2.54827 4.83452 0
M  V30 2263 H 213.865 -0.416713 0.714338 0
M  V30 2264 H 216.411 -0.125618 1.69234 0
M  V30 2265 H 215.183 -0.619902 3.86359 0
M  V30 2266 H 214.806 -2.23546 3.28805 0
M  V30 2267 N 215.803 -1.52179 -0.40978 0
M  V30 2268 C 217.214 -1.58377 -0.988615 0
M  V30 2269 C 217.565 -0.423879 -1.91566 0
M  V30 2270 O 216.69 0.455844 -2.11544 0
M  V30 2271 C 217.285 -2.87044 -1.79976 0
M  V30 2272 C 215.844 -2.95722 -2.32863 0
M  V30 2273 C 214.991 -2.53309 -1.12828 0
M  V30 2274 H 217.942 -1.57558 -0.190039 0
M  V30 2275 H 217.963 -2.7236 -2.65707 0
M  V30 2276 H 217.475 -3.71444 -1.12478 0
M  V30 2277 H 215.576 -2.15814 -3.03735 0
M  V30 2278 H 215.689 -3.99951 -2.63773 0
M  V30 2279 H 214.053 -2.07142 -1.48204 0
M  V30 2280 H 214.836 -3.40082 -0.46897 0
M  V30 2281 N 217.281 0.66697 -1.42791 0
M  V30 2282 C 218.529 1.42417 -1.43394 0
M  V30 2283 C 218.85 1.94925 -0.0542373 0
M  V30 2284 O 218.12 1.73564 0.908415 0
M  V30 2285 H 216.7 0.528515 -0.527902 0
M  V30 2286 H 219.362 0.787562 -1.78279 0
M  V30 2287 H 218.458 2.27333 -2.13837 0
M  V30 2288 N 218.759 1.29093 0.90403 0
M  V30 2289 C 219.691 1.09658 2.01266 0
M  V30 2290 C 220.704 0.0453729 1.62737 0
M  V30 2291 O 221.893 0.289446 1.76138 0
M  V30 2292 C 218.993 0.646278 3.32681 0
M  V30 2293 C 218.166 1.77505 3.99763 0
M  V30 2294 C 217.225 1.31649 5.09465 0
M  V30 2295 O 216.251 2.02045 5.32134 0
M  V30 2296 N 217.453 0.184997 5.80205 0
M  V30 2297 H 220.218 2.05135 2.18494 0
M  V30 2298 H 217.779 1.20975 1.07594 0
M  V30 2299 H 219.771 0.322906 4.0341 0
M  V30 2300 H 218.341 -0.215916 3.11853 0
M  V30 2301 H 217.561 2.26752 3.22455 0
M  V30 2302 H 218.849 2.53198 4.41325 0
M  V30 2303 H 218.247 -0.402021 5.6427 0
M  V30 2304 H 216.804 -0.0790358 6.51752 0
M  V30 2305 N 220.237 -1.11381 1.11499 0
M  V30 2306 C 221.169 -2.17207 0.731704 0
M  V30 2307 C 222.182 -1.61066 -0.236957 0
M  V30 2308 O 223.371 -1.78489 -0.0197591 0
M  V30 2309 C 220.471 -3.38846 0.0607624 0
M  V30 2310 C 219.644 -4.24451 1.0564 0
M  V30 2311 C 218.703 -5.24562 0.4149 0
M  V30 2312 O 217.729 -5.59071 1.069 0
M  V30 2313 N 218.931 -5.74651 -0.821943 0
M  V30 2314 H 221.696 -2.50699 1.64225 0
M  V30 2315 H 219.257 -1.26908 1.00529 0
M  V30 2316 H 221.249 -4.02911 -0.380139 0
M  V30 2317 H 219.819 -3.03411 -0.752376 0
M  V30 2318 H 219.039 -3.56833 1.67524 0
M  V30 2319 H 220.327 -4.78486 1.72998 0
M  V30 2320 H 219.725 -5.48797 -1.37252 0
M  V30 2321 H 218.282 -6.40549 -1.20582 0
M  V30 2322 N 221.715 -0.905404 -1.28997 0
M  V30 2323 C 222.964 -0.530191 -1.94607 0
M  V30 2324 C 223.277 0.929185 -1.72121 0
M  V30 2325 O 224.483 1.41218 -2.31883 0
M  V30 2326 C 222.939 -0.897333 -3.48534 0
M  V30 2327 C 222.547 -2.37587 -3.79811 0
M  V30 2328 C 224.291 -0.592304 -4.20347 0
M  V30 2329 C 222.198 -2.68357 -5.27009 0
M  V30 2330 H 221.128 -0.194558 -0.728466 0
M  V30 2331 H 223.779 -1.10318 -1.46636 0
M  V30 2332 H 222.161 -0.253214 -3.9519 0
M  V30 2333 H 223.335 -3.06602 -3.43994 0
M  V30 2334 H 221.65 -2.6505 -3.2115 0
M  V30 2335 H 224.247 -0.798975 -5.28697 0
M  V30 2336 H 224.59 0.469474 -4.13644 0
M  V30 2337 H 225.123 -1.19452 -3.79442 0
M  V30 2338 H 221.862 -3.73355 -5.38782 0
M  V30 2339 H 221.382 -2.03971 -5.64053 0
M  V30 2340 H 223.061 -2.54922 -5.94663 0
M  V30 2341 N 223.193 1.4272 -0.668489 0
M  V30 2342 C 224.421 2.05966 -0.196348 0
M  V30 2343 C 224.836 1.50191 1.14403 0
M  V30 2344 O 224.193 0.639208 1.7094 0
M  V30 2345 C 224.244 3.61314 -0.115815 0
M  V30 2346 O 223.965 4.1502 -1.40322 0
M  V30 2347 C 225.466 4.41663 0.380579 0
M  V30 2348 H 222.686 0.663954 -0.0969829 0
M  V30 2349 H 225.23 1.82966 -0.913446 0
M  V30 2350 H 223.385 3.83448 0.551931 0
M  V30 2351 H 223.799 5.08832 -1.27243 0
M  V30 2352 H 225.273 5.5065 0.385848 0
M  V30 2353 H 225.75 4.15792 1.41471 0
M  V30 2354 H 226.356 4.24534 -0.255209 0
M  V30 2355 N 224.671 0.411399 1.52136 0
M  V30 2356 C 225.917 -0.163888 2.02137 0
M  V30 2357 C 226.25 -1.44597 1.29636 0
M  V30 2358 O 225.525 -1.90272 0.403353 0
M  V30 2359 C 225.808 -0.40927 3.57767 0
M  V30 2360 C 225.661 0.889643 4.40914 0
M  V30 2361 C 226.98 -1.19042 4.23694 0
M  V30 2362 H 224.099 -0.0580896 0.734707 0
M  V30 2363 H 226.741 0.54531 1.82007 0
M  V30 2364 H 224.891 -1.0134 3.7505 0
M  V30 2365 H 226.563 1.52575 4.35337 0
M  V30 2366 H 224.806 1.50011 4.07037 0
M  V30 2367 H 225.477 0.672314 5.4789 0
M  V30 2368 H 227.953 -0.678942 4.10524 0
M  V30 2369 H 226.829 -1.33086 5.32522 0
M  V30 2370 H 227.09 -2.21166 3.82803 0
M  V30 2371 N 226.149 -1.5696 0.141893 0
M  V30 2372 C 227.079 -2.19516 -0.795936 0
M  V30 2373 C 228.06 -1.14187 -1.26077 0
M  V30 2374 O 229.245 -1.42511 -1.31925 0
M  V30 2375 C 226.375 -2.81272 -2.03723 0
M  V30 2376 C 225.329 -3.92384 -1.70936 0
M  V30 2377 C 224.655 -4.41052 -3.02287 0
M  V30 2378 C 225.955 -5.13403 -0.959954 0
M  V30 2379 H 227.649 -2.98138 -0.274596 0
M  V30 2380 H 225.195 -1.43406 -0.130636 0
M  V30 2381 H 227.148 -3.237 -2.69808 0
M  V30 2382 H 225.872 -1.99973 -2.58221 0
M  V30 2383 H 224.531 -3.50566 -1.07232 0
M  V30 2384 H 224.179 -3.56582 -3.54765 0
M  V30 2385 H 223.879 -5.15993 -2.81114 0
M  V30 2386 H 225.403 -4.86146 -3.69451 0
M  V30 2387 H 226.817 -5.52706 -1.52279 0
M  V30 2388 H 225.214 -5.94073 -0.848357 0
M  V30 2389 H 226.284 -4.84875 0.0492434 0
M  V30 2390 N 227.627 0.131896 -1.57047 0
M  V30 2391 C 229.043 0.485031 -1.52051 0
M  V30 2392 C 229.243 1.82563 -0.85281 0
M  V30 2393 O 228.299 2.48817 -0.429694 0
M  V30 2394 C 229.612 0.481409 -2.96821 0
M  V30 2395 C 231.16 0.565868 -3.07842 0
M  V30 2396 C 231.635 0.592762 -4.54148 0
M  V30 2397 N 233.126 0.654564 -4.58552 0
M  V30 2398 C 233.861 0.696608 -5.69153 0
M  V30 2399 N 233.357 0.697078 -6.89284 0
M  V30 2400 N 235.15 0.738639 -5.57226 0
M  V30 2401 H 227.301 -0.746664 -1.98843 0
M  V30 2402 H 229.564 -0.273999 -0.90754 0
M  V30 2403 H 229.27 -0.435731 -3.4899 0
M  V30 2404 H 229.144 1.3139 -3.53577 0
M  V30 2405 H 231.531 1.47343 -2.55684 0
M  V30 2406 H 231.612 -0.29406 -2.54104 0
M  V30 2407 H 231.256 -0.310701 -5.06949 0
M  V30 2408 H 231.186 1.46939 -5.05684 0
M  V30 2409 H 233.677 0.660887 -3.72076 0
M  V30 2410 H 233.99 0.731426 -7.69331 0
M  V30 2411 H 232.335 0.66471 -6.91814 0
M  V30 2412 H 235.526 0.735545 -4.62285 0
M  V30 2413 H 235.699 0.767938 -6.43434 0
M  V30 2414 N 229.106 1.52395 0.401703 0
M  V30 2415 C 230.054 1.7689 1.51039 0
M  V30 2416 C 231.048 0.636298 1.56996 0
M  V30 2417 O 232.254 0.818507 1.60314 0
M  V30 2418 H 228.629 0.559502 0.502456 0
M  V30 2419 H 230.6 2.69757 1.27568 0
M  V30 2420 C 229.349 1.94331 2.88324 0
M  V30 2421 H 228.672 2.80905 2.84486 0
M  V30 2422 H 230.112 2.15466 3.65172 0
M  V30 2423 C 228.571 0.712396 3.29282 0
M  V30 2424 O 229.101 -0.116218 4.01532 0
M  V30 2425 N 227.307 0.546154 2.85422 0
M  V30 2426 H 226.854 1.22156 2.26794 0
M  V30 2427 H 226.812 -0.276113 3.13185 0
M  V30 2428 N 230.584 -0.659388 1.43143 0
M  V30 2429 C 231.824 -1.43121 1.45931 0
M  V30 2430 C 232.188 -1.91838 0.0789298 0
M  V30 2431 O 233.389 -2.68794 -0.018491 0
M  V30 2432 C 231.66 -2.58534 2.46769 0
M  V30 2433 S 233.219 -3.47154 2.68384 0
M  V30 2434 H 230.037 -0.488624 0.516496 0
M  V30 2435 H 232.639 -0.766128 1.79863 0
M  V30 2436 H 231.343 -2.21007 3.45809 0
M  V30 2437 H 230.874 -3.29898 2.14315 0
M  V30 2438 H 232.889 -4.55051 1.97845 0
M  V30 2439 N 232.062 -1.29571 -0.897171 0
M  V30 2440 C 233.308 -1.17863 -1.65034 0
M  V30 2441 C 233.641 0.268729 -1.92332 0
M  V30 2442 O 232.916 1.19378 -1.53555 0
M  V30 2443 C 233.199 -1.995 -2.99786 0
M  V30 2444 C 233.052 -3.5239 -2.79538 0
M  V30 2445 C 234.371 -1.82335 -4.00552 0
M  V30 2446 H 231.49 -0.429528 -0.598895 0
M  V30 2447 H 234.132 -1.59072 -1.03905 0
M  V30 2448 H 232.282 -1.64485 -3.51962 0
M  V30 2449 H 233.954 -3.97401 -2.34244 0
M  V30 2450 H 232.197 -3.77187 -2.14273 0
M  V30 2451 H 232.868 -4.04787 -3.75302 0
M  V30 2452 H 235.344 -2.12924 -3.57495 0
M  V30 2453 H 234.22 -2.41801 -4.92771 0
M  V30 2454 H 234.481 -0.779209 -4.35179 0
M  V30 2455 N 233.54 1.10788 -1.12088 0
M  V30 2456 C 234.786 1.82942 -0.875226 0
M  V30 2457 C 235.119 1.84779 0.597538 0
M  V30 2458 O 234.394 1.30578 1.44152 0
M  V30 2459 C 234.677 3.29789 -1.44606 0
M  V30 2460 C 234.53 3.36307 -2.98693 0
M  V30 2461 C 235.849 4.26064 -1.10261 0
M  V30 2462 H 232.968 0.664195 -0.319397 0
M  V30 2463 H 235.61 1.29867 -1.38689 0
M  V30 2464 H 233.76 3.75118 -1.01089 0
M  V30 2465 H 235.432 2.99487 -3.50864 0
M  V30 2466 H 233.675 2.76318 -3.34411 0
M  V30 2467 H 234.346 4.39694 -3.33726 0
M  V30 2468 H 236.822 3.88951 -1.4784 0
M  V30 2469 H 235.698 5.27183 -1.52869 0
M  V30 2470 H 235.959 4.42098 -0.0142953 0
M  V30 2471 N 235.018 0.912232 1.28515 0
M  V30 2472 C 236.295 0.463597 1.90027 0
M  V30 2473 C 236.675 -1.05753 1.82701 0
M  V30 2474 O 236.023 -1.90492 1.26194 0
M  V30 2475 C 236.233 0.992253 3.34597 0
M  V30 2476 C 237.581 1.04344 4.11579 0
M  V30 2477 O 238.605 0.94079 3.43551 0
M  V30 2478 O 237.464 1.1995 5.33174 0
M  V30 2479 H 234.558 0.146666 0.813891 0
M  V30 2480 H 237.104 1.00292 1.36893 0
M  V30 2481 H 235.876 2.03623 3.34146 0
M  V30 2482 H 235.499 0.433672 3.95228 0
M  V30 2483 N 236.496 -1.42363 0.676048 0
M  V30 2484 C 237.429 -2.28141 -0.0516916 0
M  V30 2485 C 238.407 -1.41135 -0.807439 0
M  V30 2486 O 239.591 -1.70573 -0.802305 0
M  V30 2487 C 236.718 -3.21007 -1.08039 0
M  V30 2488 C 235.764 -4.24426 -0.420076 0
M  V30 2489 S 236.597 -5.29134 0.823246 0
M  V30 2490 C 237.753 -6.25566 -0.204344 0
M  V30 2491 H 237.986 -2.89515 0.675884 0
M  V30 2492 H 235.519 -1.47211 0.465635 0
M  V30 2493 H 237.477 -3.75048 -1.66881 0
M  V30 2494 H 236.138 -2.58766 -1.78042 0
M  V30 2495 H 235.331 -4.89596 -1.19633 0
M  V30 2496 H 234.933 -3.7388 0.0947845 0
M  V30 2497 H 237.225 -6.69098 -1.06369 0
M  V30 2498 H 238.168 -7.06895 0.412915 0
M  V30 2499 H 238.576 -5.61811 -0.55038 0
M  V30 2500 N 237.974 -0.419461 -1.51915 0
M  V30 2501 C 239.222 0.152637 -2.01523 0
M  V30 2502 C 239.543 1.44762 -1.30649 0
M  V30 2503 O 238.813 1.90997 -0.435535 0
M  V30 2504 H 237.393 0.0593966 -0.744635 0
M  V30 2505 H 240.055 -0.558073 -1.86739 0
M  V30 2506 H 239.151 0.341369 -3.10227 0
M  V30 2507 N 239.452 1.56882 -0.150215 0
M  V30 2508 C 240.699 1.96228 0.500093 0
M  V30 2509 C 241.027 1.03522 1.64661 0
M  V30 2510 O 240.282 0.0650683 1.95592 0
M  V30 2511 C 240.581 3.41801 1.04437 0
M  V30 2512 C 240.247 4.50897 0.0159671 0
M  V30 2513 C 238.909 4.8046 -0.266731 0
M  V30 2514 C 241.261 5.16703 -0.683192 0
M  V30 2515 C 238.589 5.73135 -1.25434 0
M  V30 2516 C 240.941 6.10441 -1.65964 0
M  V30 2517 C 239.605 6.38382 -1.95 0
M  V30 2518 H 238.875 0.718048 0.182997 0
M  V30 2519 H 241.522 1.90019 -0.237724 0
M  V30 2520 H 239.827 3.44857 1.85959 0
M  V30 2521 H 241.524 3.69573 1.55618 0
M  V30 2522 H 238.114 4.27891 0.246485 0
M  V30 2523 H 242.298 4.93993 -0.477983 0
M  V30 2524 H 237.554 5.93074 -1.48571 0
M  V30 2525 H 241.728 6.60507 -2.20689 0
M  V30 2526 H 239.355 7.09996 -2.71679 0
M  V30 2527 N 240.93 -0.123565 1.57115 0
M  V30 2528 C 242.207 -0.862196 1.75572 0
M  V30 2529 C 242.587 -1.98279 0.724475 0
M  V30 2530 O 241.935 -2.27102 -0.252407 0
M  V30 2531 C 242.145 -1.38309 3.20424 0
M  V30 2532 C 243.493 -1.83724 3.82793 0
M  V30 2533 O 244.517 -1.47999 3.23998 0
M  V30 2534 O 243.376 -2.49685 4.86127 0
M  V30 2535 H 240.47 -0.409113 0.718718 0
M  V30 2536 H 243.016 -0.107661 1.69358 0
M  V30 2537 H 241.788 -0.578889 3.86994 0
M  V30 2538 H 241.411 -2.20046 3.31158 0
M  V30 2539 N 242.408 -1.52605 -0.393616 0
M  V30 2540 C 243.636 -1.71294 -1.16043 0
M  V30 2541 C 244.051 -0.429259 -1.83855 0
M  V30 2542 O 243.408 0.595921 -1.72496 0
M  V30 2543 C 243.459 -2.8593 -2.21193 0
M  V30 2544 O 243.18 -4.09329 -1.56146 0
M  V30 2545 C 244.681 -3.16259 -3.10636 0
M  V30 2546 H 241.901 -0.573641 -0.348104 0
M  V30 2547 H 244.445 -1.99234 -0.461092 0
M  V30 2548 H 242.6 -2.60465 -2.86769 0
M  V30 2549 H 243.014 -4.73323 -2.25978 0
M  V30 2550 H 244.488 -3.99946 -3.80456 0
M  V30 2551 H 244.965 -2.3045 -3.73884 0
M  V30 2552 H 245.571 -3.43547 -2.50711 0
M  V30 2553 N 243.887 0.651787 -1.4349 0
M  V30 2554 C 245.112 1.44434 -1.48841 0
M  V30 2555 C 245.537 1.8779 -0.107955 0
M  V30 2556 O 244.895 1.57464 0.898602 0
M  V30 2557 C 244.943 2.65458 -2.44059 0
M  V30 2558 O 244.047 3.64566 -1.92784 0
M  V30 2559 H 243.388 0.433005 -0.503391 0
M  V30 2560 H 245.918 0.797451 -1.88419 0
M  V30 2561 H 245.928 3.13255 -2.6141 0
M  V30 2562 H 244.603 2.33244 -3.4434 0
M  V30 2563 H 243.18 3.23716 -1.851 0
M  V30 2564 N 245.365 1.30045 0.890287 0
M  V30 2565 C 246.312 1.15976 1.99545 0
M  V30 2566 C 247.282 0.0506202 1.66023 0
M  V30 2567 O 248.467 0.219847 1.89529 0
M  V30 2568 C 245.607 0.852054 3.34416 0
M  V30 2569 C 244.72 2.04255 3.80662 0
M  V30 2570 C 243.855 1.6734 5.04154 0
M  V30 2571 C 242.894 2.82916 5.42794 0
M  V30 2572 N 242.031 2.46333 6.57468 0
M  V30 2573 H 246.871 2.10524 2.10911 0
M  V30 2574 H 244.408 1.04749 1.03276 0
M  V30 2575 H 246.366 0.654296 4.12037 0
M  V30 2576 H 244.996 -0.0565502 3.2275 0
M  V30 2577 H 244.048 2.35172 2.98995 0
M  V30 2578 H 245.36 2.90826 4.05242 0
M  V30 2579 H 244.514 1.43908 5.89386 0
M  V30 2580 H 243.253 0.779308 4.81433 0
M  V30 2581 H 242.258 3.0702 4.56091 0
M  V30 2582 H 243.483 3.73004 5.6749 0
M  V30 2583 H 241.429 1.59423 6.36334 0
M  V30 2584 H 241.346 3.26436 6.81891 0
M  V30 2585 H 242.614 2.26244 7.45945 0
M  V30 2586 N 246.843 -1.10192 1.12674 0
M  V30 2587 C 247.773 -2.18652 0.819362 0
M  V30 2588 C 248.754 -1.68698 -0.217915 0
M  V30 2589 O 249.939 -1.94041 -0.0785581 0
M  V30 2590 C 247.069 -3.46202 0.27594 0
M  V30 2591 C 246.023 -4.09444 1.24656 0
M  V30 2592 C 245.349 -5.31725 0.563258 0
M  V30 2593 C 246.649 -4.52863 2.60217 0
M  V30 2594 H 248.343 -2.44622 1.72628 0
M  V30 2595 H 245.889 -1.17571 0.831451 0
M  V30 2596 H 247.842 -4.21372 0.0486149 0
M  V30 2597 H 246.566 -3.1973 -0.666331 0
M  V30 2598 H 245.225 -3.36284 1.45974 0
M  V30 2599 H 244.873 -5.0153 -0.384235 0
M  V30 2600 H 244.573 -5.74991 1.21075 0
M  V30 2601 H 246.097 -6.09624 0.34503 0
M  V30 2602 H 247.511 -5.19294 2.42913 0
M  V30 2603 H 245.908 -5.06986 3.21068 0
M  V30 2604 H 246.978 -3.65656 3.18471 0
M  V30 2605 N 248.321 -0.919034 -1.28029 0
M  V30 2606 C 249.569 -0.553838 -1.94363 0
M  V30 2607 C 249.89 0.906357 -1.72656 0
M  V30 2608 O 249.16 1.64143 -1.0693 0
M  V30 2609 H 247.74 -0.201834 -0.719216 0
M  V30 2610 H 250.402 -1.16954 -1.55909 0
M  V30 2611 H 249.498 -0.752758 -3.02886 0
M  V30 2612 N 249.799 1.42003 -0.683588 0
M  V30 2613 C 251.024 2.06265 -0.216647 0
M  V30 2614 C 251.449 1.51059 1.12083 0
M  V30 2615 O 250.807 0.632638 1.69904 0
M  V30 2616 C 250.855 3.60191 -0.171759 0
M  V30 2617 O 249.959 4.03396 0.857069 0
M  V30 2618 H 249.3 0.65502 -0.108834 0
M  V30 2619 H 251.83 1.81982 -0.935077 0
M  V30 2620 H 251.84 4.08 0.0014303 0
M  V30 2621 H 250.515 3.99743 -1.14796 0
M  V30 2622 H 249.092 3.67117 0.654208 0
M  V30 2623 N 251.277 0.427512 1.51691 0
M  V30 2624 C 252.507 -0.140986 2.06118 0
M  V30 2625 C 252.915 -1.37854 1.29588 0
M  V30 2626 O 252.258 -1.80411 0.346036 0
M  V30 2627 C 252.32 -0.538276 3.55447 0
M  V30 2628 C 251.984 0.591095 4.53161 0
M  V30 2629 C 252.981 1.46027 4.98971 0
M  V30 2630 C 250.666 0.769028 4.96378 0
M  V30 2631 C 252.66 2.49216 5.8666 0
M  V30 2632 C 250.347 1.80421 5.83859 0
M  V30 2633 C 251.345 2.66417 6.28897 0
M  V30 2634 O 251.033 3.68159 7.14643 0
M  V30 2635 H 250.765 -0.0157455 0.675817 0
M  V30 2636 H 253.319 0.602495 1.96365 0
M  V30 2637 H 251.549 -1.33432 3.6295 0
M  V30 2638 H 253.238 -1.0368 3.92435 0
M  V30 2639 H 254.004 1.33429 4.66285 0
M  V30 2640 H 249.883 0.109273 4.6087 0
M  V30 2641 H 253.427 3.16372 6.21735 0
M  V30 2642 H 249.324 1.93042 6.15959 0
M  V30 2643 H 250.092 3.64622 7.32798 0
M  V30 2644 N 252.755 -1.56801 0.158532 0
M  V30 2645 C 253.687 -2.14488 -0.807923 0
M  V30 2646 C 254.7 -1.09721 -1.20271 0
M  V30 2647 O 255.889 -1.36956 -1.14478 0
M  V30 2648 C 252.989 -2.66217 -2.09718 0
M  V30 2649 C 252.162 -3.95507 -1.86796 0
M  V30 2650 C 251.221 -4.3243 -2.99818 0
M  V30 2651 O 250.247 -5.00543 -2.71008 0
M  V30 2652 N 251.449 -3.92947 -4.27285 0
M  V30 2653 H 254.214 -2.98042 -0.314816 0
M  V30 2654 H 251.775 -1.61881 -0.0246692 0
M  V30 2655 H 253.767 -2.87924 -2.84398 0
M  V30 2656 H 252.337 -1.87324 -2.50257 0
M  V30 2657 H 251.557 -3.82309 -0.96089 0
M  V30 2658 H 252.845 -4.79972 -1.68833 0
M  V30 2659 H 252.243 -3.38087 -4.53557 0
M  V30 2660 H 250.8 -4.19681 -4.9871 0
M  V30 2661 N 254.233 0.115231 -1.57178 0
M  V30 2662 C 255.649 0.468877 -1.52557 0
M  V30 2663 C 255.849 1.81649 -0.872125 0
M  V30 2664 O 254.905 2.48347 -0.45606 0
M  V30 2665 C 256.218 0.4499 -2.97315 0
M  V30 2666 C 257.766 0.533185 -3.08425 0
M  V30 2667 C 258.241 0.54456 -4.54751 0
M  V30 2668 N 259.732 0.605892 -4.5922 0
M  V30 2669 C 260.467 0.636203 -5.6986 0
M  V30 2670 N 259.963 0.623931 -6.89985 0
M  V30 2671 N 261.756 0.679496 -5.57978 0
M  V30 2672 H 253.907 -0.767712 -1.9804 0
M  V30 2673 H 256.17 -0.283609 -0.904583 0
M  V30 2674 H 255.876 -0.472721 -3.48509 0
M  V30 2675 H 255.75 1.27632 -3.5495 0
M  V30 2676 H 258.137 1.44623 -2.57232 0
M  V30 2677 H 258.218 -0.320995 -2.53778 0
M  V30 2678 H 257.862 -0.364452 -5.06591 0
M  V30 2679 H 257.792 1.41568 -5.07214 0
M  V30 2680 H 260.283 0.621386 -3.72756 0
M  V30 2681 H 260.596 0.649787 -7.70063 0
M  V30 2682 H 258.941 0.591296 -6.9248 0
M  V30 2683 H 262.132 0.686472 -4.63039 0
M  V30 2684 H 262.305 0.69965 -6.44212 0
M  V30 2685 N 255.711 1.52812 0.385517 0
M  V30 2686 C 256.957 1.68275 1.13188 0
M  V30 2687 C 257.29 0.423179 1.89533 0
M  V30 2688 O 256.565 -0.579113 1.85679 0
M  V30 2689 C 256.848 2.92001 2.1073 0
M  V30 2690 C 256.701 4.28067 1.38125 0
M  V30 2691 C 258.02 3.11283 3.11113 0
M  V30 2692 H 255.139 0.612352 0.410115 0
M  V30 2693 H 257.781 1.85415 0.414869 0
M  V30 2694 H 255.931 2.77519 2.71874 0
M  V30 2695 H 257.603 4.54324 0.799187 0
M  V30 2696 H 255.846 4.28388 0.683092 0
M  V30 2697 H 256.517 5.10733 2.09417 0
M  V30 2698 H 258.993 3.2482 2.6006 0
M  V30 2699 H 257.869 3.99325 3.76605 0
M  V30 2700 H 258.13 2.25656 3.80173 0
M  V30 2701 N 257.189 -0.644168 1.43834 0
M  V30 2702 C 258.152 -1.73857 1.49353 0
M  V30 2703 C 259.152 -1.56315 0.377112 0
M  V30 2704 O 260.342 -1.62048 0.639226 0
M  V30 2705 C 257.474 -3.12819 1.35488 0
M  V30 2706 H 258.667 -1.70342 2.46827 0
M  V30 2707 H 256.22 -0.856652 1.30733 0
M  V30 2708 H 256.955 -3.2194 0.390569 0
M  V30 2709 H 256.74 -3.26958 2.16428 0
M  V30 2710 H 258.23 -3.92606 1.42302 0
M  V30 2711 N 258.668 -1.30515 -0.883378 0
M  V30 2712 C 259.578 -1.18959 -2.02203 0
M  V30 2713 C 260.594 -0.109172 -1.73657 0
M  V30 2714 O 261.77 -0.324413 -1.9877 0
M  V30 2715 C 258.835 -0.883871 -3.35244 0
M  V30 2716 C 257.896 -2.04982 -3.77201 0
M  V30 2717 C 257.129 -1.75859 -5.03894 0
M  V30 2718 O 257.352 -0.687276 -5.66244 0
M  V30 2719 O 256.286 -2.61146 -5.42297 0
M  V30 2720 H 260.112 -2.14616 -2.1488 0
M  V30 2721 H 257.697 -1.10124 -1.0096 0
M  V30 2722 H 259.579 -0.728644 -4.15053 0
M  V30 2723 H 258.254 0.0427798 -3.23672 0
M  V30 2724 H 257.161 -2.26038 -2.9809 0
M  V30 2725 H 258.494 -2.95825 -3.93381 0
M  V30 2726 N 260.146 1.09593 -1.13257 0
M  V30 2727 C 261.557 1.63229 -0.906274 0
M  V30 2728 C 261.908 1.8811 0.557578 0
M  V30 2729 O 261.033 1.62953 1.42391 0
M  V30 2730 C 261.628 2.96535 -1.63867 0
M  V30 2731 C 260.187 3.47003 -1.45828 0
M  V30 2732 C 259.334 2.2145 -1.66898 0
M  V30 2733 H 262.285 0.92978 -1.28611 0
M  V30 2734 H 262.306 3.64411 -1.09476 0
M  V30 2735 H 261.818 2.78394 -2.70404 0
M  V30 2736 H 259.919 3.70272 -0.415848 0
M  V30 2737 H 260.032 4.24551 -2.2202 0
M  V30 2738 H 258.396 2.30022 -1.09371 0
M  V30 2739 H 259.179 2.0583 -2.74752 0
M  V30 2740 N 261.624 0.925811 1.2754 0
M  V30 2741 C 262.87 0.566092 1.94739 0
M  V30 2742 C 263.203 -0.890057 1.72603 0
M  V30 2743 O 262.478 -1.63467 1.05399 0
M  V30 2744 C 262.761 0.89054 3.48915 0
M  V30 2745 C 262.614 2.4003 3.80402 0
M  V30 2746 C 263.933 0.395101 4.38323 0
M  V30 2747 H 261.052 0.20714 0.707292 0
M  V30 2748 H 263.694 1.15725 1.50691 0
M  V30 2749 H 261.844 0.387452 3.86563 0
M  V30 2750 H 263.516 2.97494 3.52555 0
M  V30 2751 H 261.759 2.85028 3.2702 0
M  V30 2752 H 262.43 2.57785 4.8811 0
M  V30 2753 H 264.906 0.826241 4.07814 0
M  V30 2754 H 263.782 0.651086 5.45025 0
M  V30 2755 H 264.043 -0.704798 4.36446 0
M  V30 2756 N 263.102 -1.41638 0.69111 0
M  V30 2757 C 264.348 -2.01598 0.220519 0
M  V30 2758 C 264.681 -1.54594 -1.17535 0
M  V30 2759 O 263.956 -0.755177 -1.79241 0
M  V30 2760 C 264.239 -3.59062 0.273243 0
M  V30 2761 C 264.092 -4.16203 1.70573 0
M  V30 2762 C 265.411 -4.38546 -0.369457 0
M  V30 2763 H 262.53 -0.732468 0.0816045 0
M  V30 2764 H 265.172 -1.68445 0.878986 0
M  V30 2765 H 263.322 -3.87435 -0.287411 0
M  V30 2766 H 264.994 -3.98722 2.31989 0
M  V30 2767 H 263.237 -3.71414 2.2413 0
M  V30 2768 H 263.908 -5.25358 1.69419 0
M  V30 2769 H 266.384 -4.1596 0.107977 0
M  V30 2770 H 265.26 -5.48069 -0.302002 0
M  V30 2771 H 265.521 -4.17662 -1.44951 0
M  V30 2772 N 264.58 -0.43555 -1.51462 0
M  V30 2773 C 265.991 0.0279871 -1.86679 0
M  V30 2774 C 266.342 1.42104 -1.35281 0
M  V30 2775 O 265.467 2.04667 -0.702878 0
M  V30 2776 C 266.062 0.0575626 -3.38751 0
M  V30 2777 C 264.621 0.465507 -3.7351 0
M  V30 2778 C 263.768 -0.342996 -2.75171 0
M  V30 2779 H 266.719 -0.651473 -1.44712 0
M  V30 2780 H 266.74 0.867421 -3.70481 0
M  V30 2781 H 266.252 -0.956448 -3.7613 0
M  V30 2782 H 264.353 1.48519 -3.41721 0
M  V30 2783 H 264.466 0.191546 -4.78717 0
M  V30 2784 H 262.83 0.198442 -2.53926 0
M  V30 2785 H 263.613 -1.35585 -3.15391 0
M  V30 2786 N 266.058 1.56714 -0.166846 0
M  V30 2787 C 267.469 1.83378 0.350646 0
M  V30 2788 C 267.82 1.08646 1.63372 0
M  V30 2789 O 266.945 0.338058 2.13743 0
M  V30 2790 C 267.54 3.32643 0.642963 0
M  V30 2791 C 266.099 3.59818 1.10491 0
M  V30 2792 C 265.246 2.76954 0.138411 0
M  V30 2793 H 268.197 1.53803 -0.391193 0
M  V30 2794 H 268.218 3.49878 1.49551 0
M  V30 2795 H 267.73 3.87007 -0.291055 0
M  V30 2796 H 265.831 3.1086 2.05418 0
M  V30 2797 H 265.944 4.68178 1.01716 0
M  V30 2798 H 264.308 2.4666 0.634911 0
M  V30 2799 H 265.091 3.34097 -0.789549 0
M  V30 2800 N 267.536 -0.106894 1.57237 0
M  V30 2801 C 268.468 -1.15646 1.97885 0
M  V30 2802 C 269.481 -1.36981 0.879779 0
M  V30 2803 O 270.67 -1.35841 1.15799 0
M  V30 2804 C 267.77 -2.51425 2.27241 0
M  V30 2805 C 266.943 -2.50529 3.58545 0
M  V30 2806 C 266.002 -3.68145 3.75973 0
M  V30 2807 O 265.028 -3.51176 4.47956 0
M  V30 2808 N 266.23 -4.87177 3.15656 0
M  V30 2809 H 268.995 -0.81059 2.8853 0
M  V30 2810 H 266.556 -0.296024 1.59171 0
M  V30 2811 H 268.548 -3.28689 2.36105 0
M  V30 2812 H 267.118 -2.78147 1.42663 0
M  V30 2813 H 266.338 -1.58894 3.60758 0
M  V30 2814 H 267.626 -2.46997 4.44826 0
M  V30 2815 H 267.024 -5.03868 2.57165 0
M  V30 2816 H 265.581 -5.62075 3.30023 0
M  V30 2817 N 269.014 -1.53014 -0.377408 0
M  V30 2818 C 269.924 -1.81557 -1.48574 0
M  V30 2819 C 270.94 -0.703102 -1.59162 0
M  V30 2820 O 272.116 -0.99192 -1.75279 0
M  V30 2821 C 269.181 -1.9889 -2.83978 0
M  V30 2822 C 268.242 -3.22801 -2.83016 0
M  V30 2823 C 267.475 -3.39298 -4.11962 0
M  V30 2824 O 267.698 -2.60345 -5.0752 0
M  V30 2825 O 266.632 -4.32604 -4.18494 0
M  V30 2826 H 270.458 -2.75695 -1.27382 0
M  V30 2827 H 268.043 -1.38248 -0.566373 0
M  V30 2828 H 269.925 -2.11931 -3.6423 0
M  V30 2829 H 268.6 -1.07942 -3.05172 0
M  V30 2830 H 267.507 -3.15193 -2.01505 0
M  V30 2831 H 268.84 -4.13632 -2.66775 0
M  V30 2832 N 270.492 0.636531 -1.44174 0
M  V30 2833 C 271.425 1.76139 -1.45087 0
M  V30 2834 C 272.403 1.59611 -0.310326 0
M  V30 2835 O 273.587 1.81568 -0.506477 0
M  V30 2836 C 270.714 3.13648 -1.27839 0
M  V30 2837 C 269.76 3.48838 -2.45386 0
M  V30 2838 S 270.593 3.46927 -4.07924 0
M  V30 2839 C 271.749 4.87064 -3.9309 0
M  V30 2840 H 271.982 1.75096 -2.40268 0
M  V30 2841 H 269.515 0.810666 -1.31406 0
M  V30 2842 H 271.473 3.93002 -1.18575 0
M  V30 2843 H 270.134 3.12235 -0.341787 0
M  V30 2844 H 269.327 4.48886 -2.29167 0
M  V30 2845 H 268.929 2.76935 -2.51362 0
M  V30 2846 H 271.221 5.76153 -3.56446 0
M  V30 2847 H 272.164 5.08337 -4.92949 0
M  V30 2848 H 272.572 4.61384 -3.25246 0
M  V30 2849 N 271.97 1.30982 0.876444 0
M  V30 2850 C 273.195 1.23373 1.66715 0
M  V30 2851 C 273.62 -0.19885 1.87046 0
M  V30 2852 O 272.978 -1.1427 1.40756 0
M  V30 2853 C 273.026 1.97644 3.01611 0
M  V30 2854 O 272.13 1.30935 3.91062 0
M  V30 2855 H 271.471 0.426279 0.509099 0
M  V30 2856 H 274.001 1.72944 1.09323 0
M  V30 2857 H 274.011 2.06992 3.51594 0
M  V30 2858 H 272.686 3.01829 2.86133 0
M  V30 2859 H 271.263 1.29996 3.49507 0
M  V30 2860 N 273.449 -1.08991 1.13837 0
M  V30 2861 C 274.381 -2.15606 0.777612 0
M  V30 2862 C 275.394 -1.61533 -0.202739 0
M  V30 2863 O 276.583 -1.78491 0.0181055 0
M  V30 2864 C 273.683 -3.3864 0.132623 0
M  V30 2865 C 272.856 -4.22115 1.1462 0
M  V30 2866 C 271.915 -5.23564 0.526074 0
M  V30 2867 O 270.941 -5.56678 1.18735 0
M  V30 2868 N 272.143 -5.76266 -0.699866 0
M  V30 2869 H 274.908 -2.47159 1.69506 0
M  V30 2870 H 272.469 -1.24747 1.03198 0
M  V30 2871 H 274.461 -4.03626 -0.29459 0
M  V30 2872 H 273.031 -3.04938 -0.687849 0
M  V30 2873 H 272.251 -3.53199 1.75055 0
M  V30 2874 H 273.539 -4.74709 1.83109 0
M  V30 2875 H 272.937 -5.51585 -1.25581 0
M  V30 2876 H 271.494 -6.42963 -1.06968 0
M  V30 2877 N 274.927 -0.932562 -1.27047 0
M  V30 2878 C 276.343 -0.633544 -1.46487 0
M  V30 2879 C 276.543 0.815746 -1.84249 0
M  V30 2880 O 275.599 1.59319 -1.95892 0
M  V30 2881 C 276.912 -1.58758 -2.55375 0
M  V30 2882 C 278.46 -1.59634 -2.69232 0
M  V30 2883 C 278.935 -2.53747 -3.81283 0
M  V30 2884 N 280.426 -2.51982 -3.88664 0
M  V30 2885 C 281.161 -3.21491 -4.74796 0
M  V30 2886 N 280.657 -4.00395 -5.65381 0
M  V30 2887 N 282.45 -3.10485 -4.68568 0
M  V30 2888 H 274.601 -1.86946 -1.00821 0
M  V30 2889 H 276.864 -0.802897 -0.504044 0
M  V30 2890 H 276.57 -2.62172 -2.34432 0
M  V30 2891 H 276.444 -1.33301 -3.52861 0
M  V30 2892 H 278.831 -0.569488 -2.89553 0
M  V30 2893 H 278.912 -1.89142 -1.72218 0
M  V30 2894 H 278.556 -3.56545 -3.61715 0
M  V30 2895 H 278.486 -2.21532 -4.77735 0
M  V30 2896 H 280.977 -1.94681 -3.23895 0
M  V30 2897 H 281.29 -4.50406 -6.27976 0
M  V30 2898 H 279.635 -4.04498 -5.65161 0
M  V30 2899 H 282.826 -2.48331 -3.96799 0
M  V30 2900 H 282.999 -3.64925 -5.35475 0
M  V30 2901 N 276.405 1.4127 -0.698611 0
M  V30 2902 C 277.633 2.05503 -0.239992 0
M  V30 2903 C 278.048 1.52584 1.11191 0
M  V30 2904 O 277.405 0.675323 1.69545 0
M  V30 2905 C 277.456 3.60987 -0.192429 0
M  V30 2906 O 277.177 4.1195 -1.49094 0
M  V30 2907 C 278.678 4.42371 0.28681 0
M  V30 2908 H 275.898 0.661748 -0.111045 0
M  V30 2909 H 278.442 1.80987 -0.95205 0
M  V30 2910 H 276.597 3.84533 0.470472 0
M  V30 2911 H 277.011 5.06018 -1.38007 0
M  V30 2912 H 278.485 5.51344 0.26896 0
M  V30 2913 H 278.962 4.18699 1.32619 0
M  V30 2914 H 279.568 4.23897 -0.345201 0
M  V30 2915 N 277.883 0.443576 1.51229 0
M  V30 2916 C 278.83 -0.364716 2.279 0
M  V30 2917 C 279.8 -1.0114 1.31757 0
M  V30 2918 O 280.985 -1.02912 1.60667 0
M  V30 2919 C 278.125 -1.45644 3.12861 0
M  V30 2920 C 277.238 -0.827269 4.24005 0
M  V30 2921 C 276.373 -1.89456 4.96266 0
M  V30 2922 C 275.412 -1.24416 5.99322 0
M  V30 2923 N 274.549 -2.25309 6.64966 0
M  V30 2924 H 279.389 0.295464 2.96532 0
M  V30 2925 H 276.926 0.157554 1.46254 0
M  V30 2926 H 278.884 -2.10076 3.6045 0
M  V30 2927 H 277.514 -2.08616 2.46331 0
M  V30 2928 H 276.566 -0.0710839 3.80334 0
M  V30 2929 H 277.878 -0.312481 4.9782 0
M  V30 2930 H 277.032 -2.61535 5.47434 0
M  V30 2931 H 275.771 -2.4431 4.22095 0
M  V30 2932 H 274.776 -0.508868 5.4744 0
M  V30 2933 H 276.001 -0.702882 6.75453 0
M  V30 2934 H 273.947 -2.79231 5.93604 0
M  V30 2935 H 273.864 -1.78739 7.34567 0
M  V30 2936 H 275.132 -2.96853 7.20763 0
M  V30 2937 N 279.361 -1.56624 0.175154 0
M  V30 2938 C 280.607 -1.9729 -0.469506 0
M  V30 2939 C 280.94 -1.06128 -1.62636 0
M  V30 2940 O 280.215 -0.109183 -1.94193 0
M  V30 2941 C 280.498 -3.47375 -0.948804 0
M  V30 2942 C 280.351 -4.49317 0.208491 0
M  V30 2943 C 281.67 -4.00652 -1.82116 0
M  V30 2944 H 278.789 -0.717317 -0.16919 0
M  V30 2945 H 281.431 -1.88184 0.262062 0
M  V30 2946 H 279.581 -3.55267 -1.57219 0
M  V30 2947 H 281.253 -4.53482 0.845682 0
M  V30 2948 H 279.496 -4.25121 0.863395 0
M  V30 2949 H 280.167 -5.51741 -0.169059 0
M  V30 2950 H 282.643 -3.95416 -1.2956 0
M  V30 2951 H 281.519 -5.06075 -2.12554 0
M  V30 2952 H 281.78 -3.44699 -2.7683 0
M  V30 2953 N 280.839 0.0985539 -1.57292 0
M  V30 2954 C 281.771 1.14595 -1.98496 0
M  V30 2955 C 282.784 1.36512 -0.887031 0
M  V30 2956 O 283.973 1.35225 -1.16518 0
M  V30 2957 C 281.073 2.50216 -2.28572 0
M  V30 2958 C 280.246 2.48624 -3.59868 0
M  V30 2959 C 279.305 3.66146 -3.7792 0
M  V30 2960 O 278.331 3.48795 -4.49812 0
M  V30 2961 N 279.533 4.85496 -3.18235 0
M  V30 2962 H 282.298 0.795277 -2.88956 0
M  V30 2963 H 279.859 0.287579 -1.59325 0
M  V30 2964 H 281.851 3.27432 -2.37845 0
M  V30 2965 H 280.421 2.77387 -1.44136 0
M  V30 2966 H 279.641 1.56978 -3.61596 0
M  V30 2967 H 280.929 2.44635 -4.46129 0
M  V30 2968 H 280.327 5.02497 -2.59833 0
M  V30 2969 H 278.884 5.60317 -3.32999 0
M  V30 2970 N 282.317 1.53212 0.369288 0
M  V30 2971 C 283.566 1.68436 1.10961 0
M  V30 2972 C 283.879 0.440738 1.9057 0
M  V30 2973 O 285.085 0.473446 2.6734 0
M  V30 2974 C 283.541 2.97744 2.0218 0
M  V30 2975 C 283.149 4.29355 1.279 0
M  V30 2976 C 284.893 3.22334 2.76226 0
M  V30 2977 C 282.8 5.49755 2.17999 0
M  V30 2978 H 281.73 0.627568 0.41794 0
M  V30 2979 H 284.381 1.79713 0.370884 0
M  V30 2980 H 282.763 2.8026 2.79768 0
M  V30 2981 H 283.937 4.57458 0.554007 0
M  V30 2982 H 282.252 4.11179 0.657311 0
M  V30 2983 H 284.849 4.09471 3.43857 0
M  V30 2984 H 285.192 2.38238 3.41392 0
M  V30 2985 H 285.725 3.40475 2.05723 0
M  V30 2986 H 282.464 6.36318 1.57417 0
M  V30 2987 H 281.984 5.25937 2.88359 0
M  V30 2988 H 283.663 5.84401 2.77641 0
M  V30 2989 N 283.795 -0.628877 1.44509 0
M  V30 2990 C 284.705 -1.7694 1.54044 0
M  V30 2991 C 285.721 -1.68705 0.425987 0
M  V30 2992 O 286.897 -1.89442 0.683656 0
M  V30 2993 C 283.962 -3.13332 1.48405 0
M  V30 2994 C 283.023 -3.33181 2.70719 0
M  V30 2995 C 282.256 -4.63067 2.6534 0
M  V30 2996 O 282.479 -5.44017 1.71469 0
M  V30 2997 O 281.413 -4.85167 3.56226 0
M  V30 2998 H 285.239 -1.71848 2.50403 0
M  V30 2999 H 282.824 -0.790378 1.26781 0
M  V30 3000 H 284.706 -3.94634 1.47791 0
M  V30 3001 H 283.381 -3.1896 0.551898 0
M  V30 3002 H 282.288 -2.51549 2.769 0
M  V30 3003 H 283.621 -3.32416 3.62988 0
M  V30 3004 N 285.273 -1.31445 -0.869486 0
M  V30 3005 C 286.521 -1.20918 -1.61936 0
M  V30 3006 C 286.842 0.232683 -1.93607 0
M  V30 3007 O 286.112 1.15352 -1.58338 0
M  V30 3008 H 284.692 -0.44454 -0.600328 0
M  V30 3009 H 287.354 -1.64776 -1.0409 0
M  V30 3010 H 286.45 -1.78124 -2.56278 0
M  V30 3011 N 286.751 1.08385 -1.14413 0
M  V30 3012 C 287.997 1.81044 -0.913834 0
M  V30 3013 C 288.33 1.86004 0.558209 0
M  V30 3014 O 287.605 1.33606 1.4135 0
M  V30 3015 C 287.888 3.26648 -1.51569 0
M  V30 3016 C 287.741 3.29895 -3.0576 0
M  V30 3017 C 289.06 4.23629 -1.19273 0
M  V30 3018 H 286.179 0.65727 -0.333414 0
M  V30 3019 H 288.821 1.26896 -1.41412 0
M  V30 3020 H 286.971 3.72889 -1.09023 0
M  V30 3021 H 288.643 2.91977 -3.57137 0
M  V30 3022 H 286.886 2.69163 -3.40197 0
M  V30 3023 H 287.557 4.32516 -3.42977 0
M  V30 3024 H 290.033 3.85727 -1.56057 0
M  V30 3025 H 288.909 5.23822 -1.64017 0
M  V30 3026 H 289.17 4.41968 -0.108068 0
M  V30 3027 N 288.23 0.939286 1.26551 0
M  V30 3028 C 289.458 0.602536 1.97932 0
M  V30 3029 C 289.873 -0.82206 1.69964 0
M  V30 3030 O 289.23 -1.54789 0.966784 0
M  V30 3031 C 289.281 0.832946 3.51773 0
M  V30 3032 O 289.002 2.20151 3.78768 0
M  V30 3033 C 290.503 0.506483 4.40397 0
M  V30 3034 H 287.723 0.227248 0.631347 0
M  V30 3035 H 290.267 1.25948 1.61113 0
M  V30 3036 H 288.422 0.222644 3.8676 0
M  V30 3037 H 288.836 2.26013 4.73306 0
M  V30 3038 H 290.31 0.718333 5.47306 0
M  V30 3039 H 290.787 -0.558451 4.35635 0
M  V30 3040 H 291.393 1.09543 4.10951 0
M  V30 3041 N 289.708 -1.40897 0.706093 0
M  V30 3042 C 290.656 -2.32572 0.0361893 0
M  V30 3043 C 291.65 -1.51532 -0.757266 0
M  V30 3044 O 292.856 -1.67396 -0.661703 0
M  V30 3045 H 289.231 -0.751966 -0.00709935 0
M  V30 3046 H 291.202 -2.86733 0.826249 0
M  V30 3047 C 289.951 -3.36418 -0.87854 0
M  V30 3048 H 289.274 -3.98836 -0.277401 0
M  V30 3049 H 290.714 -4.0308 -1.3154 0
M  V30 3050 C 289.173 -2.71141 -1.99961 0
M  V30 3051 O 289.703 -2.56735 -3.0895 0
M  V30 3052 N 287.909 -2.29671 -1.78043 0
M  V30 3053 H 287.456 -2.41588 -0.894042 0
M  V30 3054 H 287.414 -1.86332 -2.53235 0
M  V30 3055 N 291.186 -0.45159 -1.50991 0
M  V30 3056 C 292.411 0.110667 -2.07105 0
M  V30 3057 C 292.836 1.3446 -1.31538 0
M  V30 3058 O 292.194 1.77743 -0.357365 0
M  V30 3059 C 292.242 0.397238 -3.58405 0
M  V30 3060 O 291.346 1.48124 -3.84881 0
M  V30 3061 H 290.687 -0.00439271 -0.663985 0
M  V30 3062 H 293.217 -0.637026 -1.9443 0
M  V30 3063 H 293.227 0.64351 -4.02893 0
M  V30 3064 H 291.902 -0.504553 -4.12828 0
M  V30 3065 H 290.479 1.22381 -3.52246 0
M  V30 3066 N 292.664 1.56529 -0.183458 0
M  V30 3067 C 293.892 2.01623 0.464285 0
M  V30 3068 C 294.307 1.06366 1.55986 0
M  V30 3069 O 293.664 0.0665398 1.82379 0
M  V30 3070 C 293.715 3.46475 1.03139 0
M  V30 3071 O 293.436 4.38095 -0.0204675 0
M  V30 3072 C 294.937 4.0703 1.75617 0
M  V30 3073 H 292.157 0.660596 0.117704 0
M  V30 3074 H 294.701 2.02451 -0.288751 0
M  V30 3075 H 292.856 3.46383 1.73486 0
M  V30 3076 H 293.27 5.22973 0.399952 0
M  V30 3077 H 294.744 5.10271 2.10542 0
M  V30 3078 H 295.221 3.49819 2.65563 0
M  V30 3079 H 295.827 4.1086 1.09882 0
M  V30 3080 N 294.142 -0.090211 1.57342 0
M  V30 3081 C 295.388 -0.793982 1.86611 0
M  V30 3082 C 295.721 -1.78142 0.773252 0
M  V30 3083 O 294.996 -1.93271 -0.218304 0
M  V30 3084 C 295.279 -1.51839 3.26523 0
M  V30 3085 C 295.132 -0.548609 4.46442 0
M  V30 3086 C 296.451 -2.46779 3.64401 0
M  V30 3087 H 293.57 -0.287186 0.678744 0
M  V30 3088 H 296.212 -0.0575076 1.89913 0
M  V30 3089 H 294.362 -2.14617 3.23839 0
M  V30 3090 H 296.034 0.0725513 4.61243 0
M  V30 3091 H 294.277 0.137614 4.33582 0
M  V30 3092 H 294.948 -1.09271 5.41076 0
M  V30 3093 H 297.424 -1.94089 3.68061 0
M  V30 3094 H 296.3 -2.94479 4.63221 0
M  V30 3095 H 296.561 -3.30758 2.93346 0
M  V30 3096 N 295.62 -1.53406 -0.361157 0
M  V30 3097 C 296.55 -1.83136 -1.44857 0
M  V30 3098 C 297.531 -0.685174 -1.5569 0
M  V30 3099 O 298.716 -0.93544 -1.70186 0
M  V30 3100 C 295.846 -2.02522 -2.82138 0
M  V30 3101 C 294.8 -3.18302 -2.86126 0
M  V30 3102 C 294.126 -3.22989 -4.26125 0
M  V30 3103 C 295.426 -4.56796 -2.53248 0
M  V30 3104 H 297.12 -2.74201 -1.20226 0
M  V30 3105 H 294.666 -1.31938 -0.576922 0
M  V30 3106 H 296.619 -2.21904 -3.58241 0
M  V30 3107 H 295.343 -1.08172 -3.08166 0
M  V30 3108 H 294.002 -2.98747 -2.12475 0
M  V30 3109 H 293.65 -2.26267 -4.49235 0
M  V30 3110 H 293.35 -4.00781 -4.29708 0
M  V30 3111 H 294.874 -3.44559 -5.04094 0
M  V30 3112 H 296.288 -4.7631 -3.19064 0
M  V30 3113 H 294.685 -5.36862 -2.68141 0
M  V30 3114 H 295.755 -4.61606 -1.48484 0
M  V30 3115 N 297.098 0.621204 -1.44841 0
M  V30 3116 C 298.03 1.74615 -1.48466 0
M  V30 3117 C 299.043 1.58377 -0.37691 0
M  V30 3118 O 300.232 1.66508 -0.643215 0
M  V30 3119 C 297.332 3.12459 -1.31236 0
M  V30 3120 C 296.505 3.55064 -2.55438 0
M  V30 3121 C 295.564 4.71821 -2.32963 0
M  V30 3122 O 294.59 4.79628 -3.06505 0
M  V30 3123 N 295.792 5.64186 -1.36654 0
M  V30 3124 H 298.557 1.71973 -2.45449 0
M  V30 3125 H 296.118 0.806077 -1.40407 0
M  V30 3126 H 298.11 3.88302 -1.14032 0
M  V30 3127 H 296.68 3.09686 -0.4258 0
M  V30 3128 H 295.9 2.69324 -2.87851 0
M  V30 3129 H 297.188 3.80284 -3.38026 0
M  V30 3130 H 296.586 5.6058 -0.759344 0
M  V30 3131 H 295.143 6.39618 -1.25425 0
M  V30 3132 N 298.576 1.31904 0.862503 0
M  V30 3133 C 299.806 1.24817 1.64634 0
M  V30 3134 C 300.214 -0.187579 1.88268 0
M  V30 3135 O 299.557 -1.13253 1.44635 0
M  V30 3136 C 299.619 1.92996 3.03303 0
M  V30 3137 C 299.283 3.42336 3.02746 0
M  V30 3138 C 300.28 4.37956 2.80162 0
M  V30 3139 C 297.965 3.84147 3.2363 0
M  V30 3140 C 299.959 5.73361 2.78453 0
M  V30 3141 C 297.646 5.19663 3.21549 0
M  V30 3142 C 298.644 6.14081 2.98988 0
M  V30 3143 O 298.332 7.47118 2.96766 0
M  V30 3144 H 298.064 0.432222 0.519769 0
M  V30 3145 H 300.618 1.7445 1.08427 0
M  V30 3146 H 298.848 1.37922 3.61268 0
M  V30 3147 H 300.537 1.79723 3.63943 0
M  V30 3148 H 301.303 4.06981 2.63802 0
M  V30 3149 H 297.182 3.11083 3.40218 0
M  V30 3150 H 300.726 6.4703 2.60763 0
M  V30 3151 H 296.623 5.5027 3.37451 0
M  V30 3152 H 297.391 7.56382 3.12775 0
M  V30 3153 N 300.054 -1.07777 1.14986 0
M  V30 3154 C 300.987 -2.14228 0.786243 0
M  V30 3155 C 301.965 -1.60888 -0.235347 0
M  V30 3156 O 303.149 -1.88099 -0.122909 0
M  V30 3157 C 300.276 -3.38281 0.168433 0
M  V30 3158 C 299.322 -4.10387 1.16123 0
M  V30 3159 S 300.155 -4.62371 2.70135 0
M  V30 3160 C 301.311 -5.89704 2.09762 0
M  V30 3161 H 301.544 -2.44741 1.68787 0
M  V30 3162 H 299.077 -1.19984 0.971756 0
M  V30 3163 H 301.035 -4.10098 -0.181588 0
M  V30 3164 H 299.696 -3.05953 -0.710725 0
M  V30 3165 H 298.889 -4.99431 0.677086 0
M  V30 3166 H 298.491 -3.44513 1.45556 0
M  V30 3167 H 300.783 -6.61648 1.45701 0
M  V30 3168 H 301.726 -6.42824 2.96955 0
M  V30 3169 H 302.134 -5.4302 1.54239 0
M  V30 3170 N 301.532 -0.945985 -1.26051 0
M  V30 3171 C 302.809 -0.513816 -1.88731 0
M  V30 3172 C 303.189 1.00872 -1.8544 0
M  V30 3173 O 302.537 1.8708 -1.312 0
M  V30 3174 C 302.747 -1.08062 -3.31849 0
M  V30 3175 C 304.095 -1.1522 -4.08668 0
M  V30 3176 O 305.119 -1.03155 -3.40936 0
M  V30 3177 O 303.978 -1.34044 -5.29806 0
M  V30 3178 H 301.072 -0.168193 -0.809716 0
M  V30 3179 H 303.618 -1.03886 -1.34186 0
M  V30 3180 H 302.39 -2.1241 -3.2863 0
M  V30 3181 H 302.013 -0.538307 -3.93939 0
M  V30 3182 N 303.011 1.40521 -0.713556 0
M  V30 3183 C 303.959 2.32549 -0.0485227 0
M  V30 3184 C 304.953 1.51931 0.74922 0
M  V30 3185 O 306.159 1.67745 0.652816 0
M  V30 3186 H 302.534 0.751994 0.00311138 0
M  V30 3187 H 304.505 2.86291 -0.841443 0
M  V30 3188 C 303.254 3.36879 0.860687 0
M  V30 3189 H 302.577 3.98978 0.256246 0
M  V30 3190 H 304.017 4.03772 1.294 0
M  V30 3191 C 302.476 2.72197 1.9852 0
M  V30 3192 O 303.006 2.5837 3.07584 0
M  V30 3193 N 301.212 2.30612 1.76823 0
M  V30 3194 H 300.759 2.42059 0.881217 0
M  V30 3195 H 300.717 1.87672 2.52243 0
M  V30 3196 N 304.489 0.459591 1.5075 0
M  V30 3197 C 305.419 -0.330644 2.31147 0
M  V30 3198 C 306.4 -1.00087 1.37538 0
M  V30 3199 O 307.585 -1.00025 1.66459 0
M  V30 3200 C 304.715 -1.41958 3.16962 0
M  V30 3201 C 303.669 -0.871608 4.19031 0
M  V30 3202 C 302.995 -2.05797 4.9351 0
M  V30 3203 C 304.295 0.109251 5.22186 0
M  V30 3204 H 305.989 0.340336 2.97459 0
M  V30 3205 H 303.535 0.165119 1.4305 0
M  V30 3206 H 305.488 -1.9798 3.71997 0
M  V30 3207 H 304.212 -2.11917 2.48513 0
M  V30 3208 H 302.871 -0.333442 3.6508 0
M  V30 3209 H 302.519 -2.74427 4.21544 0
M  V30 3210 H 302.219 -1.6976 5.62544 0
M  V30 3211 H 303.743 -2.62331 5.51375 0
M  V30 3212 H 305.157 -0.361405 5.7216 0
M  V30 3213 H 303.554 0.383316 5.98875 0
M  V30 3214 H 304.624 1.03887 4.73641 0
M  V30 3215 N 305.967 -1.56429 0.191757 0
M  V30 3216 C 306.915 -2.20273 -0.747174 0
M  V30 3217 C 307.909 -1.17288 -1.22229 0
M  V30 3218 O 309.115 -1.35441 -1.18557 0
M  V30 3219 H 305.49 -0.705885 -0.259289 0
M  V30 3220 H 307.461 -2.97826 -0.184963 0
M  V30 3221 C 306.21 -2.87356 -1.95759 0
M  V30 3222 H 305.533 -3.66341 -1.60106 0
M  V30 3223 H 306.973 -3.3547 -2.59299 0
M  V30 3224 C 305.432 -1.88213 -2.79423 0
M  V30 3225 O 305.962 -1.38033 -3.7724 0
M  V30 3226 N 304.168 -1.56516 -2.44849 0
M  V30 3227 H 303.715 -1.97516 -1.65364 0
M  V30 3228 H 303.673 -0.904369 -3.01112 0
M  V30 3229 N 307.445 0.0818655 -1.57387 0
M  V30 3230 C 308.408 1.08265 -2.02018 0
M  V30 3231 C 309.408 1.32183 -0.915664 0
M  V30 3232 O 310.598 1.28073 -1.18081 0
M  V30 3233 C 307.73 2.42871 -2.39221 0
M  V30 3234 H 308.923 0.698204 -2.91659 0
M  V30 3235 H 306.476 0.327303 -1.52835 0
M  V30 3236 H 307.211 2.86167 -1.52575 0
M  V30 3237 H 306.996 2.26855 -3.19811 0
M  V30 3238 H 308.486 3.14826 -2.74362 0
M  V30 3239 N 308.923 1.53595 0.353017 0
M  V30 3240 C 309.871 1.81605 1.45335 0
M  V30 3241 C 310.865 0.685923 1.54892 0
M  V30 3242 O 312.071 0.869095 1.57628 0
M  V30 3243 H 308.446 0.575204 0.484401 0
M  V30 3244 H 310.417 2.73679 1.18921 0
M  V30 3245 C 309.166 2.03406 2.81995 0
M  V30 3246 H 308.489 2.89814 2.75405 0
M  V30 3247 H 309.929 2.26975 3.58132 0
M  V30 3248 C 308.388 0.816794 3.26849 0
M  V30 3249 O 308.918 0.0115856 4.01698 0
M  V30 3250 N 307.124 0.636682 2.8354 0
M  V30 3251 H 306.671 1.2931 2.22793 0
M  V30 3252 H 306.629 -0.176336 3.13905 0
M  V30 3253 N 310.401 -0.613514 1.45168 0
M  V30 3254 C 311.678 -1.37263 1.39349 0
M  V30 3255 C 312.058 -2.11012 0.0610848 0
M  V30 3256 O 311.406 -2.07502 -0.956825 0
M  V30 3257 C 311.616 -2.3244 2.60332 0
M  V30 3258 C 312.964 -2.9523 3.05163 0
M  V30 3259 O 313.988 -2.42762 2.60663 0
M  V30 3260 O 312.847 -3.90454 3.82372 0
M  V30 3261 H 309.941 -0.615188 0.552696 0
M  V30 3262 H 312.487 -0.637097 1.57287 0
M  V30 3263 H 311.259 -1.77164 3.48896 0
M  V30 3264 H 310.882 -3.13383 2.44698 0
M  V30 3265 N 311.879 -1.3236 -0.855495 0
M  V30 3266 C 313.126 -1.22872 -1.60962 0
M  V30 3267 C 313.454 0.209658 -1.93367 0
M  V30 3268 O 312.709 1.16243 -1.57436 0
M  V30 3269 C 313.008 -2.03275 -2.93963 0
M  V30 3270 C 312.674 -3.5264 -2.80991 0
M  V30 3271 C 311.336 -3.93364 -2.7716 0
M  V30 3272 C 313.688 -4.47626 -2.66983 0
M  V30 3273 C 311.016 -5.27319 -2.572 0
M  V30 3274 C 313.368 -5.81723 -2.48558 0
M  V30 3275 C 312.032 -6.2165 -2.4312 0
M  V30 3276 H 311.302 -0.44962 -0.589001 0
M  V30 3277 H 313.949 -1.63777 -0.992442 0
M  V30 3278 H 312.254 -1.55095 -3.59795 0
M  V30 3279 H 313.951 -1.93303 -3.51333 0
M  V30 3280 H 310.541 -3.20295 -2.84797 0
M  V30 3281 H 314.725 -4.17084 -2.68988 0
M  V30 3282 H 309.981 -5.57311 -2.51424 0
M  V30 3283 H 314.155 -6.5494 -2.36699 0
M  V30 3284 H 311.782 -7.25388 -2.27412 0
M  V30 3285 N 313.357 1.07166 -1.15556 0
M  V30 3286 C 314.634 1.76546 -0.842069 0
M  V30 3287 C 315.014 2.00453 0.661939 0
M  V30 3288 O 314.362 1.62452 1.60691 0
M  V30 3289 C 314.572 3.07266 -1.65495 0
M  V30 3290 C 315.92 3.81578 -1.86234 0
M  V30 3291 O 316.944 3.17083 -1.62287 0
M  V30 3292 O 315.803 4.97419 -2.26355 0
M  V30 3293 H 312.897 0.766756 -0.309862 0
M  V30 3294 H 315.443 1.13514 -1.26145 0
M  V30 3295 H 314.215 2.85494 -2.67598 0
M  V30 3296 H 313.838 3.7803 -1.23203 0
M  V30 3297 N 314.835 0.952656 1.25548 0
M  V30 3298 C 315.783 0.462354 2.27958 0
M  V30 3299 C 316.777 -0.46634 1.62855 0
M  V30 3300 O 317.983 -0.343287 1.76696 0
M  V30 3301 H 314.358 0.13101 0.7405 0
M  V30 3302 H 316.329 1.33839 2.66702 0
M  V30 3303 C 315.078 -0.24628 3.46827 0
M  V30 3304 H 314.401 0.459192 3.97154 0
M  V30 3305 H 315.841 -0.553393 4.20373 0
M  V30 3306 C 314.3 -1.4681 3.0323 0
M  V30 3307 O 314.83 -2.56591 3.09069 0
M  V30 3308 N 313.036 -1.32874 2.58443 0
M  V30 3309 H 312.583 -0.435536 2.53891 0
M  V30 3310 H 312.541 -2.14742 2.29637 0
M  V30 3311 N 316.313 -1.40141 0.720998 0
M  V30 3312 C 317.243 -2.33339 0.0867621 0
M  V30 3313 C 318.224 -1.53178 -0.739622 0
M  V30 3314 O 319.409 -1.81625 -0.687449 0
M  V30 3315 C 316.539 -3.37194 -0.831728 0
M  V30 3316 C 315.493 -4.27857 -0.110558 0
M  V30 3317 C 314.819 -5.22294 -1.14513 0
M  V30 3318 C 316.119 -5.11872 1.0385 0
M  V30 3319 H 317.813 -2.86626 0.865219 0
M  V30 3320 H 315.359 -1.37814 0.417516 0
M  V30 3321 H 317.312 -4.01335 -1.28485 0
M  V30 3322 H 316.036 -2.82314 -1.64214 0
M  V30 3323 H 314.695 -3.65176 0.322797 0
M  V30 3324 H 314.343 -4.63717 -1.94874 0
M  V30 3325 H 314.043 -5.83797 -0.667446 0
M  V30 3326 H 315.567 -5.89312 -1.59824 0
M  V30 3327 H 316.981 -5.69436 0.664482 0
M  V30 3328 H 315.378 -5.82445 1.4449 0
M  V30 3329 H 316.448 -4.4753 1.86668 0
M  V30 3330 N 317.792 -0.46758 -1.50504 0
M  V30 3331 C 319.041 0.0902868 -2.01498 0
M  V30 3332 C 319.354 1.411 -1.35463 0
M  V30 3333 O 320.56 2.0536 -1.77594 0
M  V30 3334 C 319.016 0.21142 -3.59278 0
M  V30 3335 C 318.624 -1.10065 -4.34269 0
M  V30 3336 C 320.368 0.721433 -4.18325 0
M  V30 3337 C 318.275 -0.943505 -5.83825 0
M  V30 3338 H 317.205 0.037517 -0.753066 0
M  V30 3339 H 319.856 -0.601943 -1.73346 0
M  V30 3340 H 318.238 0.967352 -3.84003 0
M  V30 3341 H 319.412 -1.86726 -4.21272 0
M  V30 3342 H 317.727 -1.5415 -3.86816 0
M  V30 3343 H 320.324 0.85598 -5.27804 0
M  V30 3344 H 320.667 1.71186 -3.79475 0
M  V30 3345 H 321.2 0.0229843 -3.97793 0
M  V30 3346 H 317.939 -1.90719 -6.27141 0
M  V30 3347 H 317.459 -0.217213 -5.99407 0
M  V30 3348 H 319.138 -0.608715 -6.4413 0
M  V30 3349 N 319.27 1.56325 -0.20005 0
M  V30 3350 C 320.495 2.02548 0.44597 0
M  V30 3351 C 320.92 1.07922 1.5406 0
M  V30 3352 O 320.278 0.0635775 1.81188 0
M  V30 3353 C 320.326 3.47175 0.974761 0
M  V30 3354 O 319.43 3.55671 2.08739 0
M  V30 3355 H 318.771 0.655862 0.103638 0
M  V30 3356 H 321.301 2.02201 -0.312381 0
M  V30 3357 H 321.311 3.87067 1.2901 0
M  V30 3358 H 319.986 4.15538 0.17347 0
M  V30 3359 H 318.563 3.27657 1.78032 0
M  V30 3360 N 320.748 -0.0735177 1.57428 0
M  V30 3361 C 321.678 -1.0879 2.06608 0
M  V30 3362 C 322.659 -1.40473 0.959237 0
M  V30 3363 O 323.844 -1.5013 1.23185 0
M  V30 3364 C 320.974 -2.40183 2.50857 0
M  V30 3365 C 319.928 -2.22858 3.65402 0
M  V30 3366 C 319.254 -3.59619 3.957 0
M  V30 3367 C 320.554 -1.65123 4.95511 0
M  V30 3368 H 322.248 -0.678673 2.91607 0
M  V30 3369 H 319.794 -0.325013 1.40284 0
M  V30 3370 H 321.747 -3.11437 2.83874 0
M  V30 3371 H 320.471 -2.83083 1.62885 0
M  V30 3372 H 319.13 -1.54045 3.32664 0
M  V30 3373 H 318.778 -4.00086 3.04861 0
M  V30 3374 H 318.478 -3.48866 4.72828 0
M  V30 3375 H 320.002 -4.32306 4.31212 0
M  V30 3376 H 321.416 -2.26241 5.26771 0
M  V30 3377 H 319.813 -1.65071 5.7695 0
M  V30 3378 H 320.883 -0.612559 4.81015 0
M  V30 3379 N 322.226 -1.5378 -0.344866 0
M  V30 3380 C 323.473 -1.70963 -1.08526 0
M  V30 3381 C 323.801 -0.472126 -1.88683 0
M  V30 3382 O 323.056 0.546116 -1.87926 0
M  V30 3383 C 323.355 -2.92407 -2.05506 0
M  V30 3384 C 323.021 -4.28066 -1.41671 0
M  V30 3385 C 321.683 -4.64951 -1.2399 0
M  V30 3386 C 324.035 -5.12344 -0.956726 0
M  V30 3387 C 321.363 -5.83733 -0.589277 0
M  V30 3388 C 323.715 -6.3179 -0.320015 0
M  V30 3389 C 322.379 -6.67372 -0.130881 0
M  V30 3390 H 321.649 -0.625598 -0.397124 0
M  V30 3391 H 324.296 -1.87995 -0.36469 0
M  V30 3392 H 322.601 -2.69973 -2.8394 0
M  V30 3393 H 324.298 -3.02895 -2.62784 0
M  V30 3394 H 320.888 -3.99034 -1.56429 0
M  V30 3395 H 325.072 -4.8438 -1.08118 0
M  V30 3396 H 320.328 -6.09877 -0.431344 0
M  V30 3397 H 324.502 -6.96386 0.0445072 0
M  V30 3398 H 322.129 -7.59273 0.375318 0
M  V30 3399 N 323.704 0.605807 -1.45491 0
M  V30 3400 C 324.667 1.69836 -1.5391 0
M  V30 3401 C 325.667 1.55261 -0.418424 0
M  V30 3402 O 326.857 1.60296 -0.681965 0
M  V30 3403 C 323.989 3.09117 -1.43734 0
M  V30 3404 H 325.182 1.63738 -2.51257 0
M  V30 3405 H 322.735 0.821689 -1.32959 0
M  V30 3406 H 323.47 3.20791 -0.475788 0
M  V30 3407 H 323.255 3.21104 -2.25021 0
M  V30 3408 H 324.745 3.88696 -1.52661 0
M  V30 3409 N 325.182 1.32811 0.848464 0
M  V30 3410 C 326.092 1.24278 1.98978 0
M  V30 3411 C 327.108 0.155176 1.73307 0
M  V30 3412 O 328.284 0.376999 1.9784 0
M  V30 3413 C 325.349 0.972444 3.32783 0
M  V30 3414 C 324.41 2.14911 3.71634 0
M  V30 3415 C 323.643 1.89157 4.99054 0
M  V30 3416 O 323.866 0.837165 5.64223 0
M  V30 3417 O 322.8 2.75433 5.35183 0
M  V30 3418 H 326.626 2.20238 2.09115 0
M  V30 3419 H 324.211 1.12762 0.980052 0
M  V30 3420 H 326.093 0.838432 4.12975 0
M  V30 3421 H 324.768 0.043051 3.23671 0
M  V30 3422 H 323.675 2.33862 2.91992 0
M  V30 3423 H 325.008 3.06151 3.85399 0
M  V30 3424 N 326.66 -1.06551 1.16123 0
M  V30 3425 C 327.937 -1.76097 0.85142 0
M  V30 3426 C 328.317 -2.00802 -0.6513 0
M  V30 3427 O 327.665 -1.63302 -1.59827 0
M  V30 3428 C 327.875 -3.06384 1.67122 0
M  V30 3429 C 329.223 -3.80585 1.88255 0
M  V30 3430 O 330.247 -3.16218 1.63966 0
M  V30 3431 O 329.106 -4.96212 2.2899 0
M  V30 3432 H 326.2 -0.765102 0.313923 0
M  V30 3433 H 328.746 -1.12844 1.26745 0
M  V30 3434 H 327.518 -2.84071 2.69108 0
M  V30 3435 H 327.141 -3.77371 1.25206 0
M  V30 3436 N 328.138 -0.959301 -1.25041 0
M  V30 3437 C 329.386 -0.615393 -1.92503 0
M  V30 3438 C 329.707 0.850969 -1.75452 0
M  V30 3439 O 328.977 1.60658 -1.12098 0
M  V30 3440 H 327.557 -0.224613 -0.712431 0
M  V30 3441 H 330.219 -1.21855 -1.5211 0
M  V30 3442 H 329.315 -0.848738 -3.00338 0
M  V30 3443 N 329.616 1.39756 -0.72842 0
M  V30 3444 C 330.579 2.29012 -0.0927297 0
M  V30 3445 C 331.579 1.45992 0.674025 0
M  V30 3446 O 332.769 1.66749 0.50402 0
M  V30 3447 C 329.901 3.29396 0.878137 0
M  V30 3448 H 331.094 2.86729 -0.879011 0
M  V30 3449 H 328.647 1.48293 -0.493847 0
M  V30 3450 H 329.382 2.76722 1.69101 0
M  V30 3451 H 329.167 3.907 0.331051 0
M  V30 3452 H 330.657 3.96199 1.3197 0
M  V30 3453 N 331.094 0.475555 1.50254 0
M  V30 3454 C 332.024 -0.30611 2.31485 0
M  V30 3455 C 333.005 -0.986228 1.38591 0
M  V30 3456 O 334.19 -0.982541 1.67511 0
M  V30 3457 C 331.32 -1.38588 3.1845 0
M  V30 3458 C 330.274 -0.827115 4.19932 0
M  V30 3459 C 329.6 -2.00551 4.95665 0
M  V30 3460 C 330.9 0.16463 5.2204 0
M  V30 3461 H 332.594 0.371866 2.97082 0
M  V30 3462 H 330.14 0.180282 1.42867 0
M  V30 3463 H 332.093 -1.94023 3.74076 0
M  V30 3464 H 330.817 -2.09269 2.50747 0
M  V30 3465 H 329.476 -0.294702 3.65414 0
M  V30 3466 H 329.124 -2.6994 4.2443 0
M  V30 3467 H 328.824 -1.63784 5.64313 0
M  V30 3468 H 330.348 -2.56468 5.54127 0
M  V30 3469 H 331.762 -0.300699 5.72511 0
M  V30 3470 H 330.159 0.446813 5.98434 0
M  V30 3471 H 331.229 1.08905 4.72512 0
M  V30 3472 N 332.573 -1.56217 0.208337 0
M  V30 3473 C 333.505 -2.1695 -0.739276 0
M  V30 3474 C 334.518 -1.13492 -1.1672 0
M  V30 3475 O 335.707 -1.40529 -1.10063 0
M  V30 3476 C 332.807 -2.72755 -2.01142 0
M  V30 3477 C 331.98 -4.0125 -1.74118 0
M  V30 3478 C 331.039 -4.41749 -2.85909 0
M  V30 3479 O 330.065 -5.08912 -2.54946 0
M  V30 3480 N 331.267 -4.06342 -4.14568 0
M  V30 3481 H 334.032 -2.98893 -0.219837 0
M  V30 3482 H 331.593 -1.61878 0.0268445 0
M  V30 3483 H 333.585 -2.96826 -2.75094 0
M  V30 3484 H 332.155 -1.95191 -2.4417 0
M  V30 3485 H 331.375 -3.85173 -0.838775 0
M  V30 3486 H 332.663 -4.851 -1.53477 0
M  V30 3487 H 332.061 -3.52345 -4.42571 0
M  V30 3488 H 330.618 -4.35335 -4.85105 0
M  V30 3489 N 334.051 0.0651679 -1.57465 0
M  V30 3490 C 335.462 0.616213 -1.76238 0
M  V30 3491 C 335.813 1.7756 -0.834689 0
M  V30 3492 O 334.938 2.1639 -0.0204156 0
M  V30 3493 C 335.533 1.12462 -3.1959 0
M  V30 3494 C 334.092 1.62147 -3.39684 0
M  V30 3495 C 333.239 0.543739 -2.71917 0
M  V30 3496 H 336.19 -0.161022 -1.57881 0
M  V30 3497 H 336.211 1.99324 -3.24114 0
M  V30 3498 H 335.723 0.280592 -3.87084 0
M  V30 3499 H 333.824 2.48854 -2.77313 0
M  V30 3500 H 333.937 1.69385 -4.48158 0
M  V30 3501 H 332.301 0.990352 -2.34657 0
M  V30 3502 H 333.084 -0.290216 -3.42071 0
M  V30 3503 N 335.529 1.53961 0.336706 0
M  V30 3504 C 336.94 1.62914 0.911925 0
M  V30 3505 C 337.291 0.514795 1.89326 0
M  V30 3506 O 336.416 -0.354395 2.13478 0
M  V30 3507 C 337.011 2.95304 1.66076 0
M  V30 3508 C 335.57 3.06496 2.18489 0
M  V30 3509 C 334.717 2.58403 1.00613 0
M  V30 3510 H 337.668 1.58285 0.114649 0
M  V30 3511 H 337.689 2.84727 2.5241 0
M  V30 3512 H 337.201 3.76387 0.946276 0
M  V30 3513 H 335.302 2.3006 2.93092 0
M  V30 3514 H 335.415 4.1208 2.44391 0
M  V30 3515 H 333.779 2.13977 1.38152 0
M  V30 3516 H 334.562 3.41932 0.306179 0
M  V30 3517 N 337.007 -0.598083 1.45811 0
M  V30 3518 C 338.254 -1.35681 1.50323 0
M  V30 3519 C 338.582 -1.9393 0.148739 0
M  V30 3520 O 337.837 -1.76094 -0.853787 0
M  V30 3521 C 338.136 -2.51669 2.53766 0
M  V30 3522 C 337.802 -2.11508 3.98215 0
M  V30 3523 C 336.464 -2.0027 4.37545 0
M  V30 3524 C 338.816 -1.80308 4.89018 0
M  V30 3525 C 336.144 -1.56067 5.65562 0
M  V30 3526 C 338.496 -1.37589 6.17456 0
M  V30 3527 C 337.16 -1.24916 6.55708 0
M  V30 3528 H 336.43 -0.496492 0.550069 0
M  V30 3529 H 339.077 -0.675052 1.79207 0
M  V30 3530 H 337.382 -3.25225 2.18486 0
M  V30 3531 H 339.079 -3.09895 2.54492 0
M  V30 3532 H 335.669 -2.21185 3.67117 0
M  V30 3533 H 339.853 -1.87884 4.59362 0
M  V30 3534 H 335.109 -1.44886 5.93985 0
M  V30 3535 H 339.283 -1.12495 6.87254 0
M  V30 3536 H 336.91 -0.904386 7.54801 0
M  V30 3537 N 338.485 -1.33259 -0.841409 0
M  V30 3538 C 339.417 -1.19136 -1.95804 0
M  V30 3539 C 340.43 -0.122965 -1.62335 0
M  V30 3540 O 341.619 -0.373154 -1.74556 0
M  V30 3541 C 338.719 -0.804268 -3.29218 0
M  V30 3542 C 337.892 -1.96376 -3.90839 0
M  V30 3543 C 336.951 -1.55806 -5.02604 0
M  V30 3544 O 335.977 -2.27203 -5.21888 0
M  V30 3545 N 337.179 -0.461609 -5.78662 0
M  V30 3546 H 339.944 -2.15326 -2.08458 0
M  V30 3547 H 337.505 -1.25971 -1.017 0
M  V30 3548 H 339.497 -0.51501 -4.0141 0
M  V30 3549 H 338.067 0.0668809 -3.12528 0
M  V30 3550 H 337.287 -2.41879 -3.11269 0
M  V30 3551 H 338.575 -2.73966 -4.28742 0
M  V30 3552 H 337.973 0.132343 -5.65545 0
M  V30 3553 H 336.53 -0.232013 -6.51387 0
M  V30 3554 N 339.963 1.05934 -1.16686 0
M  V30 3555 C 340.91 2.13499 -0.876748 0
M  V30 3556 C 341.88 1.65162 0.176299 0
M  V30 3557 O 343.065 1.90757 0.0407143 0
M  V30 3558 C 340.205 3.42912 -0.387967 0
M  V30 3559 C 339.318 4.04964 -1.50426 0
M  V30 3560 C 338.453 5.22266 -0.970125 0
M  V30 3561 C 337.492 5.76309 -2.06238 0
M  V30 3562 N 336.629 6.84922 -1.54356 0
M  V30 3563 H 341.469 2.37654 -1.7979 0
M  V30 3564 H 339.006 1.16598 -0.896843 0
M  V30 3565 H 340.964 4.17111 -0.086186 0
M  V30 3566 H 339.594 3.18963 0.496235 0
M  V30 3567 H 338.646 3.28277 -1.92193 0
M  V30 3568 H 339.958 4.41122 -2.32836 0
M  V30 3569 H 339.112 6.03506 -0.621743 0
M  V30 3570 H 337.851 4.87564 -0.115377 0
M  V30 3571 H 336.856 4.93704 -2.41942 0
M  V30 3572 H 338.081 6.13062 -2.92115 0
M  V30 3573 H 336.027 6.52131 -0.711406 0
M  V30 3574 H 335.944 7.20043 -2.30379 0
M  V30 3575 H 337.212 7.69832 -1.22387 0
M  V30 3576 N 341.441 0.965919 1.2453 0
M  V30 3577 C 342.852 0.665929 1.7442 0
M  V30 3578 C 343.203 -0.818407 1.78316 0
M  V30 3579 O 342.328 -1.64037 1.41141 0
M  V30 3580 C 342.923 1.20211 3.16757 0
M  V30 3581 C 341.482 0.952059 3.6416 0
M  V30 3582 C 340.629 1.33848 2.42858 0
M  V30 3583 H 343.58 1.14144 1.10258 0
M  V30 3584 H 343.601 0.567544 3.76244 0
M  V30 3585 H 343.113 2.28244 3.13889 0
M  V30 3586 H 341.214 -0.112821 3.72429 0
M  V30 3587 H 341.327 1.59645 4.51719 0
M  V30 3588 H 339.691 0.756864 2.43195 0
M  V30 3589 H 340.474 2.42827 2.42673 0
M  V30 3590 N 342.919 -1.39368 0.735821 0
M  V30 3591 C 344.168 -1.99733 0.281004 0
M  V30 3592 C 344.481 -1.59055 -1.13846 0
M  V30 3593 O 345.687 -2.12262 -1.69284 0
M  V30 3594 C 344.143 -3.57057 0.451462 0
M  V30 3595 C 343.751 -4.06697 1.87886 0
M  V30 3596 C 345.495 -4.2446 0.0584616 0
M  V30 3597 C 343.402 -5.56598 1.99883 0
M  V30 3598 H 342.332 -0.747163 0.101311 0
M  V30 3599 H 344.983 -1.59357 0.909819 0
M  V30 3600 H 343.365 -3.95234 -0.246263 0
M  V30 3601 H 344.539 -3.79853 2.60861 0
M  V30 3602 H 342.854 -3.5196 2.22515 0
M  V30 3603 H 345.451 -5.34549 0.127099 0
M  V30 3604 H 345.794 -4.04444 -0.986433 0
M  V30 3605 H 346.327 -3.9146 0.707374 0
M  V30 3606 H 343.066 -5.81494 3.02564 0
M  V30 3607 H 342.586 -5.85242 1.31346 0
M  V30 3608 H 344.265 -6.22022 1.78039 0
M  V30 3609 N 344.397 -0.483516 -1.5 0
M  V30 3610 C 345.643 0.0672592 -2.02688 0
M  V30 3611 C 345.976 1.38247 -1.36387 0
M  V30 3612 O 345.251 1.88131 -0.493675 0
M  V30 3613 C 345.534 0.238109 -3.59312 0
M  V30 3614 C 345.387 -1.099 -4.36168 0
M  V30 3615 C 346.706 0.986916 -4.28892 0
M  V30 3616 H 343.825 0.0229696 -0.736642 0
M  V30 3617 H 346.467 -0.631527 -1.79197 0
M  V30 3618 H 344.617 0.8333 -3.79458 0
M  V30 3619 H 346.289 -1.73172 -4.27562 0
M  V30 3620 H 344.532 -1.69261 -3.99416 0
M  V30 3621 H 345.203 -0.932954 -5.44059 0
M  V30 3622 H 347.679 0.482302 -4.13295 0
M  V30 3623 H 346.555 1.07527 -5.38265 0
M  V30 3624 H 346.816 2.0265 -3.92919 0
M  V30 3625 N 345.875 1.56104 -0.216619 0
M  V30 3626 C 347.123 1.97781 0.415593 0
M  V30 3627 C 347.444 1.10536 1.60645 0
M  V30 3628 O 346.714 0.181303 1.95059 0
M  V30 3629 H 345.294 0.730415 0.156534 0
M  V30 3630 H 347.956 1.92445 -0.308366 0
M  V30 3631 H 347.052 3.03072 0.74525 0
M  V30 3632 N 347.353 -0.0568162 1.57498 0
M  V30 3633 C 348.3 -1.06591 2.04712 0
M  V30 3634 C 349.27 -1.3758 0.930644 0
M  V30 3635 O 350.455 -1.48392 1.19935 0
M  V30 3636 C 347.595 -2.3701 2.50839 0
M  V30 3637 C 346.708 -2.12421 3.76167 0
M  V30 3638 C 345.843 -3.36511 4.11015 0
M  V30 3639 C 344.882 -3.07353 5.2934 0
M  V30 3640 N 344.019 -4.23816 5.59754 0
M  V30 3641 H 348.859 -0.65631 2.90683 0
M  V30 3642 H 346.396 -0.312481 1.43743 0
M  V30 3643 H 348.354 -3.13175 2.7564 0
M  V30 3644 H 346.984 -2.75744 1.67825 0
M  V30 3645 H 346.036 -1.2688 3.58616 0
M  V30 3646 H 347.348 -1.86894 4.62463 0
M  V30 3647 H 346.502 -4.21062 4.36797 0
M  V30 3648 H 345.241 -3.65128 3.23315 0
M  V30 3649 H 344.246 -2.212 5.03339 0
M  V30 3650 H 345.471 -2.80043 6.1867 0
M  V30 3651 H 343.417 -4.52436 4.75014 0
M  V30 3652 H 343.334 -4.01614 6.40501 0
M  V30 3653 H 344.602 -5.0932 5.90096 0
M  V30 3654 N 348.832 -1.54138 -0.328536 0
M  V30 3655 C 349.742 -1.86192 -1.42723 0
M  V30 3656 C 350.758 -0.753382 -1.56844 0
M  V30 3657 O 351.934 -1.04718 -1.72035 0
M  V30 3658 C 348.999 -2.07824 -2.77507 0
M  V30 3659 C 348.06 -3.31641 -2.72603 0
M  V30 3660 C 347.293 -3.52232 -4.00959 0
M  V30 3661 O 347.516 -2.7636 -4.9898 0
M  V30 3662 O 346.45 -4.45699 -4.0452 0
M  V30 3663 H 350.276 -2.79608 -1.18547 0
M  V30 3664 H 347.861 -1.3998 -0.522104 0
M  V30 3665 H 349.743 -2.23411 -3.57303 0
M  V30 3666 H 348.418 -1.17596 -3.01584 0
M  V30 3667 H 347.325 -3.21444 -1.91376 0
M  V30 3668 H 348.658 -4.2191 -2.53481 0
M  V30 3669 N 350.31 0.590341 -1.46126 0
M  V30 3670 C 351.258 1.72105 -1.5647 0
M  V30 3671 C 352.252 1.63756 -0.433612 0
M  V30 3672 O 353.458 1.69342 -0.610194 0
M  V30 3673 H 349.833 0.568889 -0.491802 0
M  V30 3674 H 351.804 1.6051 -2.51553 0
M  V30 3675 C 350.553 3.10493 -1.56491 0
M  V30 3676 H 349.876 3.17583 -2.4286 0
M  V30 3677 H 351.316 3.8939 -1.67785 0
M  V30 3678 C 349.775 3.3563 -0.292231 0
M  V30 3679 O 350.305 3.96875 0.620739 0
M  V30 3680 N 348.511 2.90026 -0.182523 0
M  V30 3681 H 348.058 2.40367 -0.926356 0
M  V30 3682 H 348.016 3.07218 0.668152 0
M  V30 3683 N 351.788 1.33704 0.83433 0
M  V30 3684 C 353.016 1.28467 1.62185 0
M  V30 3685 C 353.431 -0.143526 1.88254 0
M  V30 3686 O 352.788 -1.08709 1.4659 0
M  V30 3687 C 352.839 2.06174 2.96942 0
M  V30 3688 O 352.56 3.43422 2.72016 0
M  V30 3689 C 354.061 2.08201 3.91366 0
M  V30 3690 H 351.281 0.4424 0.504503 0
M  V30 3691 H 353.825 1.76145 1.03891 0
M  V30 3692 H 351.98 1.62167 3.51825 0
M  V30 3693 H 352.394 3.83453 3.57861 0
M  V30 3694 H 353.868 2.67017 4.83121 0
M  V30 3695 H 354.345 1.07343 4.2588 0
M  V30 3696 H 354.951 2.52246 3.42421 0
M  V30 3697 N 353.266 -1.05314 1.17247 0
M  V30 3698 C 354.196 -2.1498 0.911362 0
M  V30 3699 C 355.177 -1.69471 -0.146169 0
M  V30 3700 O 356.362 -1.942 0.003812 0
M  V30 3701 C 353.492 -3.4472 0.422528 0
M  V30 3702 C 352.446 -4.03789 1.4191 0
M  V30 3703 C 351.772 -5.28858 0.788274 0
M  V30 3704 C 353.072 -4.41418 2.7919 0
M  V30 3705 H 354.766 -2.3708 1.82848 0
M  V30 3706 H 352.312 -1.13938 0.880569 0
M  V30 3707 H 354.265 -4.20787 0.227289 0
M  V30 3708 H 352.989 -3.22269 -0.530123 0
M  V30 3709 H 351.648 -3.2979 1.60106 0
M  V30 3710 H 351.296 -5.02709 -0.171173 0
M  V30 3711 H 350.996 -5.69338 1.45353 0
M  V30 3712 H 352.52 -6.07612 0.603282 0
M  V30 3713 H 353.934 -5.08524 2.64719 0
M  V30 3714 H 352.331 -4.92913 3.42282 0
M  V30 3715 H 353.401 -3.51819 3.33693 0
M  V30 3716 N 354.744 -0.972509 -1.24016 0
M  V30 3717 C 356.16 -0.679827 -1.44397 0
M  V30 3718 C 356.36 0.756716 -1.86751 0
M  V30 3719 O 355.416 1.53007 -2.00861 0
M  V30 3720 C 356.729 -1.66803 -2.50195 0
M  V30 3721 C 358.277 -1.68119 -2.64017 0
M  V30 3722 C 358.752 -2.65748 -3.73017 0
M  V30 3723 N 360.243 -2.64219 -3.8045 0
M  V30 3724 C 360.978 -3.36433 -4.64328 0
M  V30 3725 N 360.474 -4.1818 -5.52356 0
M  V30 3726 N 362.267 -3.25235 -4.58453 0
M  V30 3727 H 354.418 -1.90059 -0.948228 0
M  V30 3728 H 356.681 -0.818527 -0.478245 0
M  V30 3729 H 356.387 -2.69498 -2.25973 0
M  V30 3730 H 356.261 -1.4446 -3.48441 0
M  V30 3731 H 358.648 -0.661319 -2.87594 0
M  V30 3732 H 358.729 -1.94525 -1.66113 0
M  V30 3733 H 358.373 -3.67872 -3.50189 0
M  V30 3734 H 358.303 -2.36619 -4.70446 0
M  V30 3735 H 360.794 -2.04887 -3.17537 0
M  V30 3736 H 361.107 -4.70157 -6.13329 0
M  V30 3737 H 359.452 -4.22273 -5.52006 0
M  V30 3738 H 362.643 -2.60829 -3.88698 0
M  V30 3739 H 362.816 -3.81776 -5.23594 0
M  V30 3740 N 356.222 1.38976 -0.743202 0
M  V30 3741 C 357.469 2.00343 -0.294752 0
M  V30 3742 C 357.797 1.58983 1.12047 0
M  V30 3743 O 357.052 0.813809 1.77977 0
M  V30 3744 C 357.351 3.55647 -0.353517 0
M  V30 3745 C 357.017 4.16685 -1.72292 0
M  V30 3746 C 355.679 4.3307 -2.09771 0
M  V30 3747 C 358.031 4.50464 -2.62168 0
M  V30 3748 C 355.359 4.80526 -3.36618 0
M  V30 3749 C 357.711 4.99332 -3.88395 0
M  V30 3750 C 356.375 5.13924 -4.25956 0
M  V30 3751 H 355.645 0.733108 -0.107857 0
M  V30 3752 H 358.292 1.6618 -0.951651 0
M  V30 3753 H 356.597 3.89884 0.386954 0
M  V30 3754 H 358.294 4.00998 0.0117269 0
M  V30 3755 H 354.884 4.04339 -1.42155 0
M  V30 3756 H 359.068 4.37416 -2.3448 0
M  V30 3757 H 354.324 4.90008 -3.65653 0
M  V30 3758 H 358.498 5.2444 -4.58187 0
M  V30 3759 H 356.125 5.50457 -5.2431 0
M  V30 3760 N 357.7 0.491464 1.49741 0
M  V30 3761 C 358.947 -0.0564256 2.02421 0
M  V30 3762 C 359.275 -1.37872 1.37192 0
M  V30 3763 O 358.53 -1.89375 0.493508 0
M  V30 3764 C 358.829 -0.267329 3.56399 0
M  V30 3765 C 358.495 0.975775 4.40215 0
M  V30 3766 C 357.157 1.31655 4.62839 0
M  V30 3767 C 359.509 1.80251 4.89039 0
M  V30 3768 C 356.837 2.48375 5.31532 0
M  V30 3769 C 359.189 2.96116 5.59015 0
M  V30 3770 C 357.853 3.30585 5.79888 0
M  V30 3771 H 357.123 -0.0206476 0.740712 0
M  V30 3772 H 359.77 0.649686 1.80143 0
M  V30 3773 H 358.075 -1.05588 3.77304 0
M  V30 3774 H 359.772 -0.705549 3.94744 0
M  V30 3775 H 356.362 0.700315 4.2284 0
M  V30 3776 H 360.546 1.55239 4.71396 0
M  V30 3777 H 355.802 2.7533 5.45897 0
M  V30 3778 H 359.976 3.60509 5.95824 0
M  V30 3779 H 357.603 4.21132 6.32892 0
M  V30 3780 N 359.178 -1.55987 0.224894 0
M  V30 3781 C 360.594 -1.59066 -0.130426 0
M  V30 3782 C 360.794 -1.24176 -1.5869 0
M  V30 3783 O 359.85 -0.978592 -2.32766 0
M  V30 3784 C 361.163 -3.00042 0.198883 0
M  V30 3785 C 362.711 -3.1268 0.141391 0
M  V30 3786 C 363.186 -4.55839 0.444422 0
M  V30 3787 N 364.677 -4.6152 0.394115 0
M  V30 3788 C 365.412 -5.70231 0.602038 0
M  V30 3789 N 364.908 -6.87291 0.871914 0
M  V30 3790 N 366.701 -5.59555 0.534245 0
M  V30 3791 H 358.852 -1.76941 1.17497 0
M  V30 3792 H 361.115 -0.822604 0.471197 0
M  V30 3793 H 360.821 -3.30234 1.2099 0
M  V30 3794 H 360.695 -3.74075 -0.484535 0
M  V30 3795 H 363.082 -2.82283 -0.860265 0
M  V30 3796 H 363.163 -2.40969 0.858335 0
M  V30 3797 H 362.807 -4.86954 1.44353 0
M  V30 3798 H 362.737 -5.2578 -0.293752 0
M  V30 3799 H 365.228 -3.77405 0.193356 0
M  V30 3800 H 365.541 -7.66058 1.01858 0
M  V30 3801 H 363.886 -6.89028 0.909145 0
M  V30 3802 H 367.077 -4.6698 0.323612 0
M  V30 3803 H 367.25 -6.44211 0.699693 0
M  V30 3804 N 360.656 0.0484629 -1.57525 0
M  V30 3805 C 361.566 1.07241 -2.08654 0
M  V30 3806 C 362.582 1.409 -1.02095 0
M  V30 3807 O 363.758 1.50609 -1.33712 0
M  V30 3808 C 360.823 2.36008 -2.5397 0
M  V30 3809 C 359.884 2.09108 -3.7493 0
M  V30 3810 C 359.117 3.31736 -4.18075 0
M  V30 3811 O 359.34 4.41714 -3.60895 0
M  V30 3812 O 358.274 3.18576 -5.10679 0
M  V30 3813 H 362.1 0.667965 -2.96263 0
M  V30 3814 H 359.685 0.26417 -1.47046 0
M  V30 3815 H 361.567 3.11747 -2.83535 0
M  V30 3816 H 360.242 2.75786 -1.69481 0
M  V30 3817 H 359.149 1.31 -3.50414 0
M  V30 3818 H 360.482 1.74198 -4.60343 0
M  V30 3819 N 362.134 1.5431 0.320358 0
M  V30 3820 C 363.044 1.86946 1.41734 0
M  V30 3821 C 364.06 0.761689 1.56443 0
M  V30 3822 O 365.236 1.05629 1.71477 0
M  V30 3823 C 362.301 2.09293 2.76401 0
M  V30 3824 C 361.362 3.33082 2.70841 0
M  V30 3825 C 360.595 3.54353 3.99086 0
M  V30 3826 O 360.818 2.79002 4.97508 0
M  V30 3827 O 359.752 4.47838 4.0215 0
M  V30 3828 H 363.578 2.80232 1.17062 0
M  V30 3829 H 361.163 1.40255 0.514673 0
M  V30 3830 H 363.045 2.25303 3.56113 0
M  V30 3831 H 361.72 1.19194 3.00956 0
M  V30 3832 H 360.627 3.22454 1.89668 0
M  V30 3833 H 361.96 4.23249 2.5124 0
M  V30 3834 N 363.613 -0.582584 1.46437 0
M  V30 3835 C 364.853 -1.35184 1.53312 0
M  V30 3836 C 365.217 -1.9115 0.180508 0
M  V30 3837 O 366.418 -2.68514 0.124017 0
M  V30 3838 C 364.689 -2.45089 2.60127 0
M  V30 3839 S 366.248 -3.32439 2.86408 0
M  V30 3840 H 363.066 -0.460559 0.54167 0
M  V30 3841 H 365.668 -0.669709 1.83671 0
M  V30 3842 H 364.372 -2.02366 3.57038 0
M  V30 3843 H 363.903 -3.18074 2.315 0
M  V30 3844 H 365.918 -4.43924 2.21688 0
M  V30 3845 N 365.091 -1.34144 -0.827227 0
M  V30 3846 C 366.023 -1.21206 -1.9453 0
M  V30 3847 C 367.036 -0.140176 -1.62195 0
M  V30 3848 O 368.225 -0.391647 -1.7415 0
M  V30 3849 C 365.325 -0.839141 -3.28347 0
M  V30 3850 C 364.498 -2.0051 -3.88734 0
M  V30 3851 C 363.557 -1.61128 -5.00923 0
M  V30 3852 O 362.583 -2.32726 -5.19449 0
M  V30 3853 N 363.785 -0.522958 -5.7814 0
M  V30 3854 H 366.55 -2.17525 -2.06162 0
M  V30 3855 H 364.111 -1.27043 -1.00358 0
M  V30 3856 H 366.103 -0.557556 -4.00841 0
M  V30 3857 H 364.673 0.0337293 -3.12582 0
M  V30 3858 H 363.893 -2.45166 -3.08686 0
M  V30 3859 H 365.181 -2.78498 -4.25812 0
M  V30 3860 H 364.579 0.0723518 -5.65654 0
M  V30 3861 H 363.136 -0.301089 -6.51104 0
M  V30 3862 N 366.569 1.04691 -1.17803 0
M  V30 3863 C 367.517 2.14665 -0.895635 0
M  V30 3864 C 368.511 1.68806 0.141679 0
M  V30 3865 O 369.717 1.79999 -0.00587914 0
M  V30 3866 H 366.092 0.701038 -0.272121 0
M  V30 3867 H 368.063 2.35685 -1.83017 0
M  V30 3868 C 366.812 3.45019 -0.430962 0
M  V30 3869 H 366.135 3.8071 -1.22064 0
M  V30 3870 H 367.575 4.23125 -0.272301 0
M  V30 3871 C 366.034 3.25943 0.852207 0
M  V30 3872 O 366.564 3.5296 1.91786 0
M  V30 3873 N 364.77 2.79304 0.802346 0
M  V30 3874 H 364.317 2.57518 -0.0650788 0
M  V30 3875 H 364.275 2.66921 1.66134 0
M  V30 3876 N 368.047 0.979072 1.23499 0
M  V30 3877 C 368.977 0.537606 2.27227 0
M  V30 3878 C 369.958 -0.428539 1.64613 0
M  V30 3879 O 371.143 -0.322191 1.91509 0
M  V30 3880 C 368.273 -0.162052 3.46922 0
M  V30 3881 C 367.227 0.721242 4.21879 0
M  V30 3882 C 366.553 -0.110555 5.34586 0
M  V30 3883 C 367.853 2.01141 4.82016 0
M  V30 3884 H 369.547 1.40462 2.64406 0
M  V30 3885 H 367.093 0.67684 1.27102 0
M  V30 3886 H 369.046 -0.482192 4.18632 0
M  V30 3887 H 367.77 -1.06351 3.08799 0
M  V30 3888 H 366.429 1.02482 3.51984 0
M  V30 3889 H 366.077 -1.0125 4.92704 0
M  V30 3890 H 365.777 0.477325 5.85658 0
M  V30 3891 H 367.301 -0.425107 6.09118 0
M  V30 3892 H 368.715 1.75612 5.45741 0
M  V30 3893 H 367.112 2.54695 5.43369 0
M  V30 3894 H 368.182 2.69909 4.02836 0
M  V30 3895 N 369.525 -1.3858 0.750561 0
M  V30 3896 C 370.472 -2.30483 0.120835 0
M  V30 3897 C 371.442 -1.50022 -0.712923 0
M  V30 3898 O 372.627 -1.78662 -0.669676 0
M  V30 3899 C 369.767 -3.36431 -0.768666 0
M  V30 3900 C 368.88 -4.31927 0.0793922 0
M  V30 3901 C 368.015 -5.24944 -0.81283 0
M  V30 3902 C 367.054 -6.12088 0.0390447 0
M  V30 3903 N 366.191 -6.97412 -0.809969 0
M  V30 3904 H 371.031 -2.83761 0.91015 0
M  V30 3905 H 368.568 -1.39707 0.460463 0
M  V30 3906 H 370.526 -3.96462 -1.29898 0
M  V30 3907 H 369.156 -2.8457 -1.5238 0
M  V30 3908 H 368.208 -3.73382 0.727303 0
M  V30 3909 H 369.52 -4.93319 0.737401 0
M  V30 3910 H 368.674 -5.90078 -1.41042 0
M  V30 3911 H 367.413 -4.63911 -1.50458 0
M  V30 3912 H 366.418 -5.45952 0.649328 0
M  V30 3913 H 367.643 -6.75189 0.727809 0
M  V30 3914 H 365.589 -6.38931 -1.48672 0
M  V30 3915 H 365.506 -7.55712 -0.208789 0
M  V30 3916 H 366.774 -7.66959 -1.39263 0
M  V30 3917 N 371.003 -0.499398 -1.49478 0
M  V30 3918 C 371.933 0.269244 -2.31943 0
M  V30 3919 C 372.914 0.964054 -1.40143 0
M  V30 3920 O 374.099 0.955767 -1.69052 0
M  V30 3921 C 371.229 1.33504 -3.20615 0
M  V30 3922 C 370.183 0.760202 -4.21195 0
M  V30 3923 C 369.509 1.9264 -4.98792 0
M  V30 3924 C 370.809 -0.247661 -5.21712 0
M  V30 3925 H 372.503 -0.419082 -2.96452 0
M  V30 3926 H 370.049 -0.202988 -1.42562 0
M  V30 3927 H 372.002 1.88048 -3.77115 0
M  V30 3928 H 370.726 2.05253 -2.54045 0
M  V30 3929 H 369.385 0.23653 -3.65836 0
M  V30 3930 H 369.033 2.63154 -4.28671 0
M  V30 3931 H 368.733 1.54785 -5.66847 0
M  V30 3932 H 370.257 2.4762 -5.58137 0
M  V30 3933 H 371.671 0.209579 -5.72917 0
M  V30 3934 H 370.068 -0.541962 -5.97648 0
M  V30 3935 H 371.138 -1.16409 -4.7072 0
M  V30 3936 N 372.481 1.55866 -0.233164 0
M  V30 3937 C 373.73 1.97779 0.39579 0
M  V30 3938 C 374.043 1.12419 1.60066 0
M  V30 3939 O 375.249 1.44283 2.29988 0
M  V30 3940 C 373.705 3.5188 0.755556 0
M  V30 3941 C 373.313 4.45959 -0.427152 0
M  V30 3942 C 375.057 4.02479 1.34946 0
M  V30 3943 C 372.964 5.91383 -0.0443043 0
M  V30 3944 H 371.894 0.738592 0.15165 0
M  V30 3945 H 374.545 1.80486 -0.331212 0
M  V30 3946 H 372.927 3.64816 1.5403 0
M  V30 3947 H 374.101 4.44776 -1.20462 0
M  V30 3948 H 372.416 4.05765 -0.935068 0
M  V30 3949 H 375.013 5.08637 1.649 0
M  V30 3950 H 375.356 3.49014 2.26925 0
M  V30 3951 H 375.889 3.92813 0.62791 0
M  V30 3952 H 372.628 6.48857 -0.930874 0
M  V30 3953 H 372.148 5.95734 0.697238 0
M  V30 3954 H 373.827 6.45893 0.378334 0
M  V30 3955 N 373.959 -0.0401083 1.57549 0
M  V30 3956 C 375.37 -0.588097 1.77196 0
M  V30 3957 C 375.721 -1.76209 0.862832 0
M  V30 3958 O 374.846 -2.16331 0.0548389 0
M  V30 3959 C 375.441 -1.07363 3.21339 0
M  V30 3960 C 374 -1.56723 3.42221 0
M  V30 3961 C 373.147 -0.50041 2.72747 0
M  V30 3962 H 376.098 0.186119 1.57605 0
M  V30 3963 H 376.119 -1.94143 3.27244 0
M  V30 3964 H 375.631 -0.218975 3.87482 0
M  V30 3965 H 373.732 -2.4441 2.81237 0
M  V30 3966 H 373.845 -1.62234 4.50796 0
M  V30 3967 H 372.209 -0.952894 2.36203 0
M  V30 3968 H 372.992 0.344599 3.41566 0
M  V30 3969 N 375.437 -1.54477 -0.31217 0
M  V30 3970 C 376.347 -1.87695 -1.4074 0
M  V30 3971 C 377.363 -0.769975 -1.56036 0
M  V30 3972 O 378.539 -1.06537 -1.70915 0
M  V30 3973 C 375.604 -2.10755 -2.75287 0
M  V30 3974 C 374.665 -3.34514 -2.69071 0
M  V30 3975 C 373.898 -3.56465 -3.97201 0
M  V30 3976 O 374.121 -2.81637 -4.96021 0
M  V30 3977 O 373.055 -4.49964 -3.9977 0
M  V30 3978 H 376.881 -2.80849 -1.15574 0
M  V30 3979 H 374.466 -1.40526 -0.507228 0
M  V30 3980 H 376.348 -2.27188 -3.54913 0
M  V30 3981 H 375.023 -1.20788 -3.0032 0
M  V30 3982 H 373.93 -3.23456 -1.87955 0
M  V30 3983 H 375.263 -4.24575 -2.48992 0
M  V30 3984 N 376.915 0.57481 -1.46744 0
M  V30 3985 C 378.331 0.898981 -1.31873 0
M  V30 3986 C 378.531 1.99313 -0.29605 0
M  V30 3987 O 377.587 2.50728 0.298621 0
M  V30 3988 C 378.9 1.30886 -2.7072 0
M  V30 3989 C 380.448 1.42127 -2.78871 0
M  V30 3990 C 380.923 1.86478 -4.18318 0
M  V30 3991 N 382.414 1.93658 -4.20774 0
M  V30 3992 C 383.149 2.29267 -5.2557 0
M  V30 3993 N 382.645 2.63612 -6.40688 0
M  V30 3994 N 384.438 2.29889 -5.1294 0
M  V30 3995 H 376.589 -0.147839 -2.11885 0
M  V30 3996 H 378.852 -0.00347013 -0.947994 0
M  V30 3997 H 378.558 0.578853 -3.46904 0
M  V30 3998 H 378.432 2.26874 -3.01343 0
M  V30 3999 H 380.819 2.14213 -2.0297 0
M  V30 4000 H 380.9 0.443705 -2.51922 0
M  V30 4001 H 380.544 1.14968 -4.94717 0
M  V30 4002 H 380.474 2.85207 -4.42679 0
M  V30 4003 H 382.965 1.69574 -3.37718 0
M  V30 4004 H 383.278 2.89759 -7.16421 0
M  V30 4005 H 381.623 2.61232 -6.44036 0
M  V30 4006 H 384.814 2.02485 -4.22039 0
M  V30 4007 H 384.987 2.57312 -5.94722 0
M  V30 4008 N 378.394 1.34581 0.820102 0
M  V30 4009 C 379.642 1.26845 1.57336 0
M  V30 4010 C 379.963 -0.160667 1.94337 0
M  V30 4011 O 379.233 -1.09396 1.6251 0
M  V30 4012 H 377.813 0.466514 0.583415 0
M  V30 4013 H 380.475 1.68526 0.979027 0
M  V30 4014 H 379.571 1.87513 2.4949 0
M  V30 4015 N 379.872 -1.04064 1.18357 0
M  V30 4016 C 381.118 -1.77528 0.980397 0
M  V30 4017 C 381.451 -1.87948 -0.48879 0
M  V30 4018 O 380.726 -1.3876 -1.36293 0
M  V30 4019 C 381.009 -3.20797 1.63588 0
M  V30 4020 C 380.862 -3.1832 3.17793 0
M  V30 4021 C 382.181 -4.18911 1.34914 0
M  V30 4022 H 379.3 -0.644443 0.357578 0
M  V30 4023 H 381.942 -1.2156 1.46024 0
M  V30 4024 H 380.092 -3.68586 1.22788 0
M  V30 4025 H 381.764 -2.78521 3.67728 0
M  V30 4026 H 380.007 -2.56351 3.49952 0
M  V30 4027 H 380.678 -4.19489 3.58794 0
M  V30 4028 H 383.154 -3.7967 1.70265 0
M  V30 4029 H 382.03 -5.17374 1.83346 0
M  V30 4030 H 382.291 -4.41262 0.272027 0
M  V30 4031 N 381.35 -0.985608 -1.22978 0
M  V30 4032 C 382.575 -0.675254 -1.961 0
M  V30 4033 C 383 0.752154 -1.72407 0
M  V30 4034 O 382.358 1.5131 -0.998751 0
M  V30 4035 C 382.406 -0.977899 -3.47087 0
M  V30 4036 O 381.51 -0.072685 -4.12336 0
M  V30 4037 H 380.851 -0.253443 -0.613728 0
M  V30 4038 H 383.381 -1.32061 -1.56272 0
M  V30 4039 H 383.391 -0.916739 -3.97567 0
M  V30 4040 H 382.066 -2.01807 -3.63657 0
M  V30 4041 H 380.643 -0.188703 -3.72422 0
M  V30 4042 N 382.828 1.3818 -0.7579 0
M  V30 4043 C 383.738 2.3421 -0.135247 0
M  V30 4044 C 384.754 1.59487 0.695683 0
M  V30 4045 O 385.93 1.91657 0.618832 0
M  V30 4046 C 382.995 3.3862 0.744139 0
M  V30 4047 C 382.056 4.2918 -0.101658 0
M  V30 4048 C 381.289 5.28603 0.735851 0
M  V30 4049 O 381.512 5.35166 1.97366 0
M  V30 4050 O 380.446 6.01707 0.152372 0
M  V30 4051 H 384.272 2.8916 -0.928436 0
M  V30 4052 H 381.857 1.40101 -0.518855 0
M  V30 4053 H 383.739 4.02539 1.2466 0
M  V30 4054 H 382.414 2.86019 1.51575 0
M  V30 4055 H 381.321 3.68407 -0.650167 0
M  V30 4056 H 382.654 4.85048 -0.836024 0
M  V30 4057 N 384.306 0.507319 1.49211 0
M  V30 4058 C 385.717 0.0611118 1.866 0
M  V30 4059 C 386.068 -1.35488 1.41907 0
M  V30 4060 O 385.193 -2.0108 0.799726 0
M  V30 4061 C 385.788 0.104125 3.3864 0
M  V30 4062 C 384.347 -0.28677 3.75306 0
M  V30 4063 C 383.494 0.473893 2.73221 0
M  V30 4064 H 386.445 0.719775 1.41439 0
M  V30 4065 H 386.466 -0.689672 3.74198 0
M  V30 4066 H 385.978 1.13482 3.71138 0
M  V30 4067 H 384.079 -1.32046 3.48417 0
M  V30 4068 H 384.192 0.0370745 4.79086 0
M  V30 4069 H 382.556 -0.0770644 2.54583 0
M  V30 4070 H 383.339 1.50478 3.08563 0
M  V30 4071 N 385.784 -1.5574 0.241426 0
M  V30 4072 C 387.012 -2.03208 -0.389134 0
M  V30 4073 C 387.427 -1.12082 -1.51931 0
M  V30 4074 O 386.784 -0.134183 -1.82006 0
M  V30 4075 C 386.835 -3.50064 -0.902087 0
M  V30 4076 O 386.556 -4.37717 0.18305 0
M  V30 4077 C 388.057 -4.13268 -1.60389 0
M  V30 4078 H 385.277 -0.664509 -0.0931053 0
M  V30 4079 H 387.821 -2.0124 0.36369 0
M  V30 4080 H 385.976 -3.52583 -1.60511 0
M  V30 4081 H 386.39 -5.24097 -0.205579 0
M  V30 4082 H 387.864 -5.17733 -1.91458 0
M  V30 4083 H 388.341 -3.59434 -2.52397 0
M  V30 4084 H 388.947 -4.14655 -0.945576 0
M  V30 4085 N 387.262 0.0317525 -1.57568 0
M  V30 4086 C 388.172 1.05021 -2.0978 0
M  V30 4087 C 389.188 1.39809 -1.03583 0
M  V30 4088 O 390.364 1.49182 -1.35302 0
M  V30 4089 C 387.429 2.33301 -2.56459 0
M  V30 4090 C 386.49 2.0512 -3.77127 0
M  V30 4091 C 385.723 3.27283 -4.2157 0
M  V30 4092 O 385.946 4.37861 -3.65559 0
M  V30 4093 O 384.88 3.13141 -5.14029 0
M  V30 4094 H 388.706 0.636505 -2.96955 0
M  V30 4095 H 386.291 0.248559 -1.47318 0
M  V30 4096 H 388.173 3.08722 -2.86825 0
M  V30 4097 H 386.848 2.73973 -1.72397 0
M  V30 4098 H 385.755 1.27276 -3.51784 0
M  V30 4099 H 387.088 1.69305 -4.62165 0
M  V30 4100 N 388.74 1.54641 0.303973 0
M  V30 4101 C 390.017 1.64455 1.05896 0
M  V30 4102 C 390.397 0.490923 2.05312 0
M  V30 4103 O 389.745 -0.512685 2.22674 0
M  V30 4104 C 389.955 3.02331 1.74347 0
M  V30 4105 C 391.303 3.59045 2.26653 0
M  V30 4106 O 392.327 3.04764 1.84384 0
M  V30 4107 O 391.186 4.54081 3.04093 0
M  V30 4108 H 388.28 0.666729 0.489287 0
M  V30 4109 H 390.826 1.66986 0.302298 0
M  V30 4110 H 389.598 3.77734 1.02142 0
M  V30 4111 H 389.221 3.03565 2.56777 0
M  V30 4112 N 390.218 -0.567019 1.47046 0
M  V30 4113 C 391.466 -1.322 1.52864 0
M  V30 4114 C 391.787 -1.94088 0.188388 0
M  V30 4115 O 391.057 -1.7941 -0.786693 0
M  V30 4116 H 389.637 -0.490894 0.563056 0
M  V30 4117 H 392.299 -0.662879 1.83281 0
M  V30 4118 H 391.395 -2.12062 2.2899 0
M  V30 4119 N 391.696 -1.35014 -0.812953 0
M  V30 4120 C 392.926 -1.30841 -1.59888 0
M  V30 4121 C 393.334 0.117576 -1.88834 0
M  V30 4122 O 392.677 1.07807 -1.48739 0
M  V30 4123 C 392.739 -2.0412 -2.95931 0
M  V30 4124 C 392.403 -3.53336 -2.89832 0
M  V30 4125 C 393.4 -4.48052 -2.63714 0
M  V30 4126 C 391.085 -3.95894 -3.0915 0
M  V30 4127 C 393.079 -5.833 -2.56982 0
M  V30 4128 C 390.766 -5.31239 -3.0204 0
M  V30 4129 C 391.764 -6.24754 -2.75991 0
M  V30 4130 O 391.452 -7.57617 -2.68833 0
M  V30 4131 H 391.184 -0.451215 -0.50337 0
M  V30 4132 H 393.738 -1.78354 -1.01877 0
M  V30 4133 H 391.968 -1.51235 -3.559 0
M  V30 4134 H 393.657 -1.93107 -3.57022 0
M  V30 4135 H 394.423 -4.16492 -2.48515 0
M  V30 4136 H 390.302 -3.23495 -3.28438 0
M  V30 4137 H 393.846 -6.56263 -2.36569 0
M  V30 4138 H 389.743 -5.62415 -3.16796 0
M  V30 4139 H 390.511 -7.67469 -2.84487 0
M  V30 4140 N 393.175 1.03435 -1.18907 0
M  V30 4141 C 394.403 1.80381 -1.01342 0
M  V30 4142 C 394.818 1.83649 0.438005 0
M  V30 4143 O 394.175 1.27655 1.30424 0
M  V30 4144 C 394.226 3.25689 -1.56873 0
M  V30 4145 O 393.947 3.22673 -2.96334 0
M  V30 4146 C 395.448 4.19255 -1.44014 0
M  V30 4147 H 392.668 0.56784 -0.35749 0
M  V30 4148 H 395.212 1.30317 -1.576 0
M  V30 4149 H 393.367 3.72962 -1.04777 0
M  V30 4150 H 393.781 4.13748 -3.22355 0
M  V30 4151 H 395.255 5.19123 -1.87657 0
M  V30 4152 H 395.732 4.37467 -0.389815 0
M  V30 4153 H 396.338 3.77851 -1.95214 0
M  V30 4154 N 394.653 0.992116 1.22453 0
M  V30 4155 C 395.585 0.500024 2.23679 0
M  V30 4156 C 396.598 -0.404463 1.57696 0
M  V30 4157 O 397.787 -0.206722 1.77299 0
M  V30 4158 C 394.887 -0.294711 3.37616 0
M  V30 4159 C 394.06 0.605723 4.33186 0
M  V30 4160 C 393.119 -0.13717 5.26021 0
M  V30 4161 O 392.145 0.477164 5.67196 0
M  V30 4162 N 393.347 -1.4197 5.62872 0
M  V30 4163 H 396.112 1.37045 2.66531 0
M  V30 4164 H 393.673 0.866741 1.36745 0
M  V30 4165 H 395.665 -0.800329 3.96707 0
M  V30 4166 H 394.235 -1.06623 2.93854 0
M  V30 4167 H 393.455 1.29202 3.72425 0
M  V30 4168 H 394.743 1.21896 4.93983 0
M  V30 4169 H 394.141 -1.94015 5.31389 0
M  V30 4170 H 392.698 -1.87052 6.24383 0
M  V30 4171 N 396.131 -1.37776 0.765217 0
M  V30 4172 C 397.38 -1.99092 0.323307 0
M  V30 4173 C 397.693 -1.61434 -1.10446 0
M  V30 4174 O 398.899 -2.15805 -1.64743 0
M  V30 4175 C 397.355 -3.56019 0.527098 0
M  V30 4176 C 396.963 -4.0262 1.96471 0
M  V30 4177 C 398.707 -4.2424 0.148483 0
M  V30 4178 C 396.614 -5.52233 2.11644 0
M  V30 4179 H 395.544 -0.744846 0.117137 0
M  V30 4180 H 398.195 -1.57391 0.943417 0
M  V30 4181 H 396.577 -3.95667 -0.162372 0
M  V30 4182 H 397.751 -3.74234 2.68859 0
M  V30 4183 H 396.066 -3.47161 2.29931 0
M  V30 4184 H 398.663 -5.34159 0.240456 0
M  V30 4185 H 399.006 -4.06446 -0.900422 0
M  V30 4186 H 399.539 -3.89872 0.79025 0
M  V30 4187 H 396.278 -5.74945 3.1483 0
M  V30 4188 H 395.798 -5.82324 1.4373 0
M  V30 4189 H 397.477 -6.18106 1.91193 0
M  V30 4190 N 397.609 -0.515225 -1.4894 0
M  V30 4191 C 398.556 0.255567 -2.29381 0
M  V30 4192 C 399.526 0.947387 -1.36432 0
M  V30 4193 O 400.711 0.951288 -1.65394 0
M  V30 4194 C 397.851 1.30551 -3.19453 0
M  V30 4195 C 396.964 0.624029 -4.27469 0
M  V30 4196 C 396.099 1.65563 -5.0474 0
M  V30 4197 C 395.138 0.956802 -6.04576 0
M  V30 4198 N 394.275 1.93326 -6.74959 0
M  V30 4199 H 399.115 -0.436607 -2.94784 0
M  V30 4200 H 396.652 -0.227154 -1.45336 0
M  V30 4201 H 398.61 1.92639 -3.70062 0
M  V30 4202 H 397.24 1.96626 -2.56004 0
M  V30 4203 H 396.292 -0.110459 -3.8024 0
M  V30 4204 H 397.604 0.0746092 -4.98744 0
M  V30 4205 H 396.758 2.35119 -5.59289 0
M  V30 4206 H 395.497 2.23893 -4.3327 0
M  V30 4207 H 394.502 0.247097 -5.49244 0
M  V30 4208 H 395.727 0.379814 -6.78037 0
M  V30 4209 H 393.673 2.50591 -6.06251 0
M  V30 4210 H 393.59 1.43489 -7.42258 0
M  V30 4211 H 394.858 2.62126 -7.34105 0
M  V30 4212 N 399.087 1.5561 -0.249682 0
M  V30 4213 C 400.333 1.99306 0.374841 0
M  V30 4214 C 400.666 1.13767 1.57387 0
M  V30 4215 O 399.941 0.201711 1.93451 0
M  V30 4216 C 400.224 3.51507 0.781986 0
M  V30 4217 C 400.077 4.4781 -0.422629 0
M  V30 4218 C 401.396 4.08884 1.62793 0
M  V30 4219 H 398.515 0.724572 0.134773 0
M  V30 4220 H 401.157 1.86719 -0.351549 0
M  V30 4221 H 399.307 3.62363 1.4009 0
M  V30 4222 H 400.979 4.48931 -1.06108 0
M  V30 4223 H 399.222 4.20518 -1.06524 0
M  V30 4224 H 399.893 5.51919 -0.0943766 0
M  V30 4225 H 402.369 4.01147 1.10547 0
M  V30 4226 H 401.245 5.1564 1.88166 0
M  V30 4227 H 401.506 3.57515 2.60068 0
M  V30 4228 N 400.565 -0.0233959 1.57583 0
M  V30 4229 C 401.793 -0.724682 1.93794 0
M  V30 4230 C 402.208 -1.68588 0.849912 0
M  V30 4231 O 401.565 -1.81676 -0.173204 0
M  V30 4232 C 401.616 -1.47684 3.29957 0
M  V30 4233 O 401.337 -0.554222 4.3458 0
M  V30 4234 C 402.838 -2.27477 3.80485 0
M  V30 4235 H 400.058 -0.203317 0.639455 0
M  V30 4236 H 402.602 0.0207653 2.04489 0
M  V30 4237 H 400.757 -2.17412 3.20641 0
M  V30 4238 H 401.171 -1.08232 5.13212 0
M  V30 4239 H 402.645 -2.7564 4.78254 0
M  V30 4240 H 403.122 -3.09144 3.11972 0
M  V30 4241 H 403.728 -1.62813 3.92902 0
M  V30 4242 N 402.043 -1.548 -0.295768 0
M  V30 4243 C 403.291 -1.73985 -1.02828 0
M  V30 4244 C 403.612 -0.531406 -1.87619 0
M  V30 4245 O 402.882 0.454221 -1.90561 0
M  V30 4246 H 401.462 -0.641556 -0.382642 0
M  V30 4247 H 404.124 -1.92163 -0.325489 0
M  V30 4248 H 403.22 -2.63129 -1.67838 0
M  V30 4249 N 403.521 0.559213 -1.47345 0
M  V30 4250 C 404.468 1.66645 -1.59682 0
M  V30 4251 C 405.438 1.60168 -0.43994 0
M  V30 4252 O 406.623 1.79031 -0.659736 0
M  V30 4253 C 403.763 3.04969 -1.61518 0
M  V30 4254 C 402.876 3.21897 -2.88108 0
M  V30 4255 C 402.011 4.50608 -2.81294 0
M  V30 4256 C 401.05 4.60961 -4.02717 0
M  V30 4257 N 400.187 5.81024 -3.94151 0
M  V30 4258 H 405.027 1.55439 -2.54249 0
M  V30 4259 H 402.564 0.757219 -1.26113 0
M  V30 4260 H 404.522 3.85064 -1.60566 0
M  V30 4261 H 403.152 3.15015 -0.704645 0
M  V30 4262 H 402.204 2.35248 -2.98936 0
M  V30 4263 H 403.516 3.25412 -3.78032 0
M  V30 4264 H 402.67 5.3896 -2.7858 0
M  V30 4265 H 401.409 4.49568 -1.89049 0
M  V30 4266 H 400.414 3.71021 -4.05738 0
M  V30 4267 H 401.639 4.63761 -4.96087 0
M  V30 4268 H 399.585 5.80938 -3.04708 0
M  V30 4269 H 399.502 5.85909 -4.77752 0
M  V30 4270 H 400.77 6.71744 -3.9545 0
M  V30 4271 N 404.999 1.35443 0.805782 0
M  V30 4272 C 406.245 1.28952 1.56522 0
M  V30 4273 C 406.578 -0.135597 1.93726 0
M  V30 4274 O 405.853 -1.08516 1.61414 0
M  V30 4275 C 406.136 2.19678 2.85331 0
M  V30 4276 C 405.989 3.7081 2.54598 0
M  V30 4277 C 407.308 2.09495 3.8704 0
M  V30 4278 H 404.427 0.469764 0.567883 0
M  V30 4279 H 407.069 1.65851 0.927001 0
M  V30 4280 H 405.219 1.8834 3.39795 0
M  V30 4281 H 406.891 4.12593 2.06312 0
M  V30 4282 H 405.134 3.91051 1.8778 0
M  V30 4283 H 405.805 4.29679 3.46525 0
M  V30 4284 H 408.281 2.37045 3.41978 0
M  V30 4285 H 407.157 2.75173 4.74943 0
M  V30 4286 H 407.418 1.07714 4.28777 0
M  V30 4287 N 406.477 -1.02803 1.19454 0
M  V30 4288 C 407.409 -2.11181 0.890807 0
M  V30 4289 C 408.422 -1.6238 -0.116829 0
M  V30 4290 O 409.611 -1.78144 0.112694 0
M  V30 4291 C 406.711 -3.37461 0.311942 0
M  V30 4292 C 405.884 -4.15446 1.36834 0
M  V30 4293 C 404.943 -5.20039 0.802864 0
M  V30 4294 O 403.969 -5.49602 1.48077 0
M  V30 4295 N 405.171 -5.79165 -0.393417 0
M  V30 4296 H 407.936 -2.37827 1.82369 0
M  V30 4297 H 405.497 -1.19101 1.09666 0
M  V30 4298 H 407.489 -4.0462 -0.0802225 0
M  V30 4299 H 406.059 -3.08156 -0.52524 0
M  V30 4300 H 405.279 -3.43423 1.93531 0
M  V30 4301 H 406.567 -4.64335 2.08015 0
M  V30 4302 H 405.965 -5.57466 -0.961658 0
M  V30 4303 H 404.522 -6.47729 -0.727351 0
M  V30 4304 N 407.956 -0.998596 -1.21925 0
M  V30 4305 C 409.184 -0.696286 -1.94832 0
M  V30 4306 C 409.599 0.740032 -1.73692 0
M  V30 4307 O 408.956 1.5 -1.03953 0
M  V30 4308 C 409.007 -0.999833 -3.47398 0
M  V30 4309 O 408.728 -2.37972 -3.67833 0
M  V30 4310 C 410.229 -0.716025 -4.37479 0
M  V30 4311 H 407.449 -0.257111 -0.619786 0
M  V30 4312 H 409.993 -1.33491 -1.54921 0
M  V30 4313 H 408.148 -0.406918 -3.85257 0
M  V30 4314 H 408.562 -2.48338 -4.61983 0
M  V30 4315 H 410.036 -0.978642 -5.43256 0
M  V30 4316 H 410.513 0.349968 -4.37803 0
M  V30 4317 H 411.119 -1.29025 -4.05256 0
M  V30 4318 N 409.434 1.37368 -0.772513 0
M  V30 4319 C 410.845 1.8231 -0.402493 0
M  V30 4320 C 411.196 1.6436 1.07146 0
M  V30 4321 O 410.321 1.15514 1.82991 0
M  V30 4322 C 410.916 3.30979 -0.723776 0
M  V30 4323 C 409.475 3.74195 -0.406802 0
M  V30 4324 C 408.622 2.59885 -0.967218 0
M  V30 4325 H 411.573 1.25829 -0.967099 0
M  V30 4326 H 411.594 3.80499 -0.00870832 0
M  V30 4327 H 411.106 3.44011 -1.7966 0
M  V30 4328 H 409.207 3.66732 0.658673 0
M  V30 4329 H 409.32 4.7027 -0.915588 0
M  V30 4330 H 407.684 2.51674 -0.391416 0
M  V30 4331 H 408.467 2.7571 -2.04546 0
M  V30 4332 N 410.912 0.523116 1.48665 0
M  V30 4333 C 412.158 -0.00540031 2.03399 0
M  V30 4334 C 412.513 -1.3264 1.39372 0
M  V30 4335 O 411.806 -1.84184 0.527916 0
M  V30 4336 C 412 -0.191671 3.56886 0
M  V30 4337 C 411.829 1.10972 4.35793 0
M  V30 4338 C 410.599 1.66769 4.76987 0
M  V30 4339 C 412.797 2.01861 4.73029 0
M  V30 4340 N 410.779 2.91268 5.40404 0
M  V30 4341 C 412.15 3.10937 5.36394 0
M  V30 4342 C 414.205 2.02271 4.54962 0
M  V30 4343 C 412.908 4.20478 5.83601 0
M  V30 4344 C 414.934 3.10802 5.03146 0
M  V30 4345 C 414.296 4.18597 5.6653 0
M  V30 4346 H 410.395 0.0393531 0.781009 0
M  V30 4347 H 412.979 0.702876 1.8157 0
M  V30 4348 H 411.15 -0.869025 3.78553 0
M  V30 4349 H 412.882 -0.719177 3.98259 0
M  V30 4350 H 409.637 1.20996 4.57883 0
M  V30 4351 H 410.061 3.54635 5.76683 0
M  V30 4352 H 414.703 1.2023 4.05345 0
M  V30 4353 H 412.421 5.03303 6.32228 0
M  V30 4354 H 416.007 3.12166 4.90962 0
M  V30 4355 H 414.887 5.01193 6.03138 0
M  V30 4356 N 412.39 -1.55475 0.257931 0
M  V30 4357 C 413.637 -1.99207 -0.363728 0
M  V30 4358 C 413.965 -1.1462 -1.57139 0
M  V30 4359 O 413.22 -0.199653 -1.94679 0
M  V30 4360 C 413.519 -3.48183 -0.806433 0
M  V30 4361 C 413.185 -4.49936 0.294684 0
M  V30 4362 C 411.847 -4.77481 0.597076 0
M  V30 4363 C 414.199 -5.10769 1.03751 0
M  V30 4364 C 411.527 -5.63132 1.64618 0
M  V30 4365 C 413.879 -5.97558 2.07622 0
M  V30 4366 C 412.543 -6.23432 2.38514 0
M  V30 4367 H 411.813 -0.728949 -0.133097 0
M  V30 4368 H 414.46 -1.8793 0.368059 0
M  V30 4369 H 412.765 -3.56848 -1.61761 0
M  V30 4370 H 414.462 -3.79415 -1.29789 0
M  V30 4371 H 411.052 -4.28572 0.0488649 0
M  V30 4372 H 415.236 -4.89527 0.817149 0
M  V30 4373 H 410.492 -5.8143 1.89074 0
M  V30 4374 H 414.666 -6.43735 2.65666 0
M  V30 4375 H 412.293 -6.89594 3.19943 0
M  V30 4376 N 413.868 0.0150385 -1.57593 0
M  V30 4377 C 415.116 0.701613 -1.8953 0
M  V30 4378 C 415.437 1.75139 -0.857396 0
M  V30 4379 O 414.707 1.95607 0.107194 0
M  V30 4380 H 413.287 0.26213 -0.699498 0
M  V30 4381 H 415.949 -0.0223304 -1.94887 0
M  V30 4382 H 415.045 1.18236 -2.88837 0
M  V30 4383 N 415.346 1.54954 0.287554 0
M  V30 4384 C 416.594 1.74528 1.01904 0
M  V30 4385 C 416.915 0.541349 1.87335 0
M  V30 4386 O 416.185 -0.444108 1.908 0
M  V30 4387 H 414.765 0.643576 0.379235 0
M  V30 4388 H 417.427 1.92333 0.315294 0
M  V30 4389 H 416.523 2.64015 1.6644 0
M  V30 4390 N 416.824 -0.551391 1.4764 0
M  V30 4391 C 417.772 -1.67896 1.60978 0
M  V30 4392 C 418.766 -1.62549 0.476877 0
M  V30 4393 O 419.972 -1.67664 0.654878 0
M  V30 4394 H 416.347 -0.555649 0.506713 0
M  V30 4395 H 418.318 -1.53784 2.55721 0
M  V30 4396 C 417.067 -3.06234 1.64669 0
M  V30 4397 H 416.39 -3.11033 2.51194 0
M  V30 4398 H 417.83 -3.84804 1.7805 0
M  V30 4399 C 416.289 -3.34737 0.381115 0
M  V30 4400 O 416.819 -3.98381 -0.515297 0
M  V30 4401 N 415.025 -2.8944 0.259354 0
M  V30 4402 H 414.572 -2.37827 0.98976 0
M  V30 4403 H 414.53 -3.08882 -0.586464 0
M  V30 4404 N 418.302 -1.35869 -0.798587 0
M  V30 4405 C 419.548 -1.2978 -1.55836 0
M  V30 4406 C 419.881 0.125322 -1.93795 0
M  V30 4407 O 419.156 1.07658 -1.61987 0
M  V30 4408 C 419.439 -2.21188 -2.84162 0
M  V30 4409 C 419.292 -3.72155 -2.52628 0
M  V30 4410 C 420.611 -2.11545 -3.85923 0
M  V30 4411 H 417.73 -0.472769 -0.565383 0
M  V30 4412 H 420.372 -1.66341 -0.918192 0
M  V30 4413 H 418.522 -1.90139 -3.38791 0
M  V30 4414 H 420.194 -4.13682 -2.04121 0
M  V30 4415 H 418.437 -3.92042 -1.85704 0
M  V30 4416 H 419.108 -4.31511 -3.44242 0
M  V30 4417 H 421.584 -2.38855 -3.40716 0
M  V30 4418 H 420.46 -2.77688 -4.73477 0
M  V30 4419 H 420.721 -1.09987 -4.282 0
M  V30 4420 N 419.78 1.02168 -1.19998 0
M  V30 4421 C 421.028 1.75338 -1.00504 0
M  V30 4422 C 421.349 1.89387 0.464506 0
M  V30 4423 O 420.619 1.43268 1.33608 0
M  V30 4424 H 419.199 0.649564 -0.368885 0
M  V30 4425 H 421.861 1.23205 -1.51018 0
M  V30 4426 H 420.957 2.75892 -1.45912 0
M  V30 4427 N 421.258 1.00505 1.21394 0
M  V30 4428 C 422.191 0.51032 2.22421 0
M  V30 4429 C 423.169 -0.436 1.56645 0
M  V30 4430 O 424.353 -0.358709 1.85055 0
M  V30 4431 C 421.48 -0.258733 3.3771 0
M  V30 4432 C 420.526 0.635395 4.2174 0
M  V30 4433 S 421.359 2.09783 4.92698 0
M  V30 4434 C 422.515 1.33862 6.11418 0
M  V30 4435 H 422.748 1.36637 2.64041 0
M  V30 4436 H 420.281 0.812991 1.31262 0
M  V30 4437 H 422.239 -0.696372 4.0455 0
M  V30 4438 H 420.9 -1.0902 2.94573 0
M  V30 4439 H 420.093 0.0430189 5.03982 0
M  V30 4440 H 419.695 1.01031 3.60095 0
M  V30 4441 H 421.987 0.612541 6.74725 0
M  V30 4442 H 422.93 2.13675 6.75092 0
M  V30 4443 H 423.338 0.846568 5.58116 0
M  V30 4444 N 422.737 -1.36956 0.779787 0
M  V30 4445 C 423.685 -2.32053 0.15942 0
M  V30 4446 C 424.679 -1.55333 -0.675878 0
M  V30 4447 O 425.885 -1.70668 -0.57204 0
M  V30 4448 H 422.26 -0.751286 0.0327707 0
M  V30 4449 H 424.231 -2.8195 0.977078 0
M  V30 4450 C 422.98 -3.40602 -0.698977 0
M  V30 4451 H 422.303 -3.99746 -0.0655966 0
M  V30 4452 H 423.743 -4.09486 -1.09989 0
M  V30 4453 C 422.202 -2.81359 -1.85307 0
M  V30 4454 O 422.732 -2.72751 -2.94906 0
M  V30 4455 N 420.938 -2.38786 -1.65619 0
M  V30 4456 H 420.485 -2.45987 -0.764725 0
M  V30 4457 H 420.443 -1.99493 -2.43002 0
M  V30 4458 N 424.215 -0.530993 -1.48385 0
M  V30 4459 C 425.464 0.00474348 -2.01699 0
M  V30 4460 C 425.777 1.35227 -1.41325 0
M  V30 4461 O 426.983 1.97643 -1.86144 0
M  V30 4462 C 425.439 0.0588473 -3.59852 0
M  V30 4463 C 425.047 -1.28385 -4.2921 0
M  V30 4464 C 426.791 0.543358 -4.21008 0
M  V30 4465 C 424.698 -1.19028 -5.79298 0
M  V30 4466 H 423.628 0.00554317 -0.75398 0
M  V30 4467 H 426.279 -0.674924 -1.70637 0
M  V30 4468 H 424.661 0.803612 -3.8776 0
M  V30 4469 H 425.835 -2.04426 -4.12973 0
M  V30 4470 H 424.15 -1.70418 -3.7993 0
M  V30 4471 H 426.747 0.631351 -5.3096 0
M  V30 4472 H 427.09 1.54937 -3.86394 0
M  V30 4473 H 427.623 -0.145754 -3.97533 0
M  V30 4474 H 424.362 -2.17147 -6.18488 0
M  V30 4475 H 423.882 -0.471246 -5.97946 0
M  V30 4476 H 425.561 -0.881365 -6.40969 0
M  V30 4477 N 425.693 1.55336 -0.266172 0
M  V30 4478 C 426.656 2.20878 0.612001 0
M  V30 4479 C 427.656 1.18388 1.08816 0
M  V30 4480 O 428.846 1.4335 0.989774 0
M  V30 4481 C 425.978 2.86765 1.84332 0
M  V30 4482 H 427.171 2.99873 0.0398718 0
M  V30 4483 H 424.724 1.56291 -0.0167309 0
M  V30 4484 H 425.459 2.11759 2.45619 0
M  V30 4485 H 425.244 3.61862 1.5099 0
M  V30 4486 H 426.734 3.36867 2.46801 0
M  V30 4487 N 427.171 -0.0066808 1.57599 0
M  V30 4488 C 428.417 -0.68835 1.91398 0
M  V30 4489 C 428.772 -1.7175 0.86716 0
M  V30 4490 O 428.065 -1.91215 -0.121475 0
M  V30 4491 C 428.259 -1.37939 3.29708 0
M  V30 4492 C 428.088 -0.418689 4.47747 0
M  V30 4493 C 426.858 -0.031526 5.0529 0
M  V30 4494 C 429.056 0.312301 5.13351 0
M  V30 4495 N 427.038 0.928088 6.06844 0
M  V30 4496 C 428.409 1.12682 6.09674 0
M  V30 4497 C 430.464 0.376853 4.96472 0
M  V30 4498 C 429.167 2 6.90936 0
M  V30 4499 C 431.193 1.23723 5.78314 0
M  V30 4500 C 430.555 2.03962 6.74225 0
M  V30 4501 H 426.654 -0.225292 0.748844 0
M  V30 4502 H 429.238 0.0520973 1.9463 0
M  V30 4503 H 427.409 -2.09017 3.27363 0
M  V30 4504 H 429.141 -2.01522 3.50957 0
M  V30 4505 H 425.896 -0.398485 4.71921 0
M  V30 4506 H 426.32 1.40307 6.62301 0
M  V30 4507 H 430.962 -0.22921 4.22178 0
M  V30 4508 H 428.68 2.61676 7.64559 0
M  V30 4509 H 432.266 1.291 5.67296 0
M  V30 4510 H 431.146 2.69461 7.36451 0
M  V30 4511 N 428.649 -1.55105 -0.279332 0
M  V30 4512 C 430.065 -1.46803 -0.626187 0
M  V30 4513 C 430.265 -0.676939 -1.89789 0
M  V30 4514 O 429.321 -0.19326 -2.51759 0
M  V30 4515 C 430.634 -2.90962 -0.759034 0
M  V30 4516 C 432.182 -3.01138 -0.853504 0
M  V30 4517 C 432.657 -4.46539 -1.01818 0
M  V30 4518 N 434.148 -4.50341 -1.08386 0
M  V30 4519 C 434.883 -5.60053 -1.22996 0
M  V30 4520 N 434.379 -6.79645 -1.34366 0
M  V30 4521 N 436.172 -5.47783 -1.26056 0
M  V30 4522 H 428.323 -2.04996 0.555921 0
M  V30 4523 H 430.586 -0.929325 0.187239 0
M  V30 4524 H 430.292 -3.51544 0.104852 0
M  V30 4525 H 430.166 -3.39619 -1.64131 0
M  V30 4526 H 432.553 -2.40658 -1.70786 0
M  V30 4527 H 432.634 -2.55745 0.0532466 0
M  V30 4528 H 432.278 -5.0762 -0.168504 0
M  V30 4529 H 432.208 -4.89583 -1.93948 0
M  V30 4530 H 434.699 -3.64191 -1.00864 0
M  V30 4531 H 435.012 -7.59012 -1.4533 0
M  V30 4532 H 433.357 -6.82469 -1.31382 0
M  V30 4533 H 436.548 -4.53294 -1.168 0
M  V30 4534 H 436.721 -6.33331 -1.37098 0
M  V30 4535 N 430.127 0.543554 -1.4793 0
M  V30 4536 C 431.374 1.30008 -1.55255 0
M  V30 4537 C 431.702 1.93245 -0.220612 0
M  V30 4538 O 430.957 1.79141 0.787843 0
M  V30 4539 C 431.256 2.42078 -2.62932 0
M  V30 4540 C 430.922 1.96583 -4.0579 0
M  V30 4541 C 429.584 1.83893 -4.44676 0
M  V30 4542 C 431.936 1.62034 -4.95373 0
M  V30 4543 C 429.264 1.34969 -5.70964 0
M  V30 4544 C 431.616 1.14577 -6.22137 0
M  V30 4545 C 430.28 1.00493 -6.59892 0
M  V30 4546 H 429.55 0.475735 -0.568117 0
M  V30 4547 H 432.197 0.608075 -1.81589 0
M  V30 4548 H 430.502 3.16892 -2.30406 0
M  V30 4549 H 432.199 3.00236 -2.65818 0
M  V30 4550 H 428.789 2.07407 -3.75074 0
M  V30 4551 H 432.973 1.70705 -4.66019 0
M  V30 4552 H 428.229 1.2274 -5.98953 0
M  V30 4553 H 432.403 0.869109 -6.90955 0
M  V30 4554 H 430.03 0.623624 -7.57638 0
M  V30 4555 N 431.605 1.3629 0.791371 0
M  V30 4556 C 432.535 1.33137 1.91825 0
M  V30 4557 C 433.516 0.203168 1.68882 0
M  V30 4558 O 434.701 0.400509 1.90025 0
M  V30 4559 C 431.831 1.11793 3.28816 0
M  V30 4560 C 430.785 2.21417 3.66277 0
M  V30 4561 C 430.111 1.85218 5.01596 0
M  V30 4562 C 431.411 3.63489 3.75064 0
M  V30 4563 H 433.105 2.2743 1.9472 0
M  V30 4564 H 430.651 1.09479 0.935437 0
M  V30 4565 H 432.604 1.08222 4.07266 0
M  V30 4566 H 431.328 0.139501 3.26302 0
M  V30 4567 H 429.987 2.2411 2.90121 0
M  V30 4568 H 429.635 0.859544 4.95602 0
M  V30 4569 H 429.335 2.58611 5.27631 0
M  V30 4570 H 430.859 1.832 5.82469 0
M  V30 4571 H 432.273 3.63034 4.43711 0
M  V30 4572 H 430.67 4.35771 4.12582 0
M  V30 4573 H 431.74 3.98536 2.76219 0
M  V30 4574 N 433.083 -1.0153 1.20538 0
M  V30 4575 C 434.013 -2.11972 0.979295 0
M  V30 4576 C 434.994 -1.6985 -0.0921787 0
M  V30 4577 O 436.179 -1.94089 0.0655932 0
M  V30 4578 C 433.309 -3.43201 0.531984 0
M  V30 4579 C 432.263 -3.9907 1.54685 0
M  V30 4580 C 431.589 -5.26082 0.956127 0
M  V30 4581 C 432.889 -4.32313 2.93092 0
M  V30 4582 H 434.583 -2.31143 1.90298 0
M  V30 4583 H 432.129 -1.11079 0.916372 0
M  V30 4584 H 434.082 -4.1985 0.361044 0
M  V30 4585 H 432.806 -3.23792 -0.427327 0
M  V30 4586 H 431.465 -3.2453 1.70517 0
M  V30 4587 H 431.113 -5.02999 -0.0111538 0
M  V30 4588 H 430.813 -5.64426 1.63393 0
M  V30 4589 H 432.337 -6.05386 0.796284 0
M  V30 4590 H 433.751 -4.99845 2.80763 0
M  V30 4591 H 432.148 -4.81774 3.57791 0
M  V30 4592 H 433.218 -3.41025 3.44717 0
M  V30 4593 N 434.561 -1.01147 -1.20859 0
M  V30 4594 C 435.509 -0.57059 -2.25493 0
M  V30 4595 C 436.503 0.388109 -1.64894 0
M  V30 4596 O 437.709 0.258592 -1.78133 0
M  V30 4597 H 434.084 -0.166191 -0.733406 0
M  V30 4598 H 436.055 -1.46411 -2.60012 0
M  V30 4599 C 434.804 0.0805241 -3.47607 0
M  V30 4600 H 434.127 -0.648156 -3.94511 0
M  V30 4601 H 435.567 0.352197 -4.22535 0
M  V30 4602 C 434.026 1.32175 -3.09889 0
M  V30 4603 O 434.556 2.41553 -3.20959 0
M  V30 4604 N 432.762 1.20392 -2.64488 0
M  V30 4605 H 432.309 0.313905 -2.5568 0
M  V30 4606 H 432.267 2.03541 -2.39621 0
M  V30 4607 N 436.039 1.36541 -0.78704 0
M  V30 4608 C 437.45 1.81873 -0.421807 0
M  V30 4609 C 437.801 1.65487 1.05397 0
M  V30 4610 O 436.926 1.17448 1.81755 0
M  V30 4611 C 437.521 3.30192 -0.758841 0
M  V30 4612 C 436.08 3.73743 -0.446468 0
M  V30 4613 C 435.227 2.58844 -0.994728 0
M  V30 4614 H 438.178 1.24796 -0.98039 0
M  V30 4615 H 438.199 3.80468 -0.0490648 0
M  V30 4616 H 437.711 3.42087 -1.83299 0
M  V30 4617 H 435.812 3.6741 0.619739 0
M  V30 4618 H 435.925 4.69272 -0.965415 0
M  V30 4619 H 434.289 2.51245 -0.418087 0
M  V30 4620 H 435.072 2.73525 -2.07458 0
M  V30 4621 N 437.518 0.538854 1.48102 0
M  V30 4622 C 438.428 -0.222648 2.33541 0
M  V30 4623 C 439.444 -0.930225 1.47047 0
M  V30 4624 O 440.62 -0.903211 1.80011 0
M  V30 4625 C 437.685 -1.25064 3.23357 0
M  V30 4626 C 436.746 -0.552469 4.2573 0
M  V30 4627 C 435.979 -1.53149 5.11254 0
M  V30 4628 O 436.202 -2.76487 4.9891 0
M  V30 4629 O 435.136 -1.06602 5.92385 0
M  V30 4630 H 438.962 0.477707 2.99919 0
M  V30 4631 H 436.547 0.299669 1.46364 0
M  V30 4632 H 438.429 -1.8445 3.78888 0
M  V30 4633 H 437.104 -1.93325 2.59629 0
M  V30 4634 H 436.011 0.082114 3.7401 0
M  V30 4635 H 437.344 0.0883526 4.92121 0
M  V30 4636 N 438.996 -1.55193 0.274407 0
M  V30 4637 C 439.944 -2.23924 -0.629362 0
M  V30 4638 C 440.938 -1.23602 -1.1584 0
M  V30 4639 O 442.144 -1.41535 -1.11211 0
M  V30 4640 H 438.519 -0.718637 -0.221507 0
M  V30 4641 H 440.49 -2.98388 -0.0268322 0
M  V30 4642 C 439.239 -2.97329 -1.80252 0
M  V30 4643 H 438.562 -3.74313 -1.40462 0
M  V30 4644 H 440.002 -3.48743 -2.41152 0
M  V30 4645 C 438.461 -2.0276 -2.69054 0
M  V30 4646 O 438.991 -1.57836 -3.69392 0
M  V30 4647 N 437.197 -1.69275 -2.36208 0
M  V30 4648 H 436.744 -2.06004 -1.54661 0
M  V30 4649 H 436.702 -1.06271 -2.95895 0
M  V30 4650 N 440.474 -0.00167713 -1.576 0
M  V30 4651 C 441.421 0.989195 -2.08527 0
M  V30 4652 C 442.391 1.34031 -0.981065 0
M  V30 4653 O 443.576 1.43839 -1.2536 0
M  V30 4654 C 440.716 2.27537 -2.59463 0
M  V30 4655 C 439.829 1.98314 -3.83791 0
M  V30 4656 C 438.964 3.21025 -4.23222 0
M  V30 4657 C 438.003 2.87495 -5.40382 0
M  V30 4658 N 437.14 4.02749 -5.75098 0
M  V30 4659 H 441.98 0.547973 -2.92919 0
M  V30 4660 H 439.517 0.258917 -1.44803 0
M  V30 4661 H 441.475 3.02729 -2.87073 0
M  V30 4662 H 440.105 2.69325 -1.77943 0
M  V30 4663 H 439.157 1.13482 -3.63078 0
M  V30 4664 H 440.469 1.69601 -4.69081 0
M  V30 4665 H 439.623 4.04561 -4.52123 0
M  V30 4666 H 438.362 3.52877 -3.36644 0
M  V30 4667 H 437.367 2.02367 -5.11202 0
M  V30 4668 H 438.592 2.56889 -6.28637 0
M  V30 4669 H 436.538 4.34494 -4.91478 0
M  V30 4670 H 436.455 3.77566 -6.54966 0
M  V30 4671 H 437.723 4.87068 -6.08592 0
M  V30 4672 N 441.952 1.55251 0.271103 0
M  V30 4673 C 443.198 1.76207 1.00394 0
M  V30 4674 C 443.531 0.562604 1.85872 0
M  V30 4675 O 442.806 -0.439785 1.89463 0
M  V30 4676 C 443.089 3.06828 1.8849 0
M  V30 4677 C 442.942 4.37134 1.05992 0
M  V30 4678 C 444.261 3.33503 2.87165 0
M  V30 4679 H 441.38 0.641086 0.363562 0
M  V30 4680 H 444.022 1.87982 0.276189 0
M  V30 4681 H 442.172 2.96921 2.5054 0
M  V30 4682 H 443.844 4.59001 0.459978 0
M  V30 4683 H 442.087 4.32275 0.363443 0
M  V30 4684 H 442.758 5.2486 1.70955 0
M  V30 4685 H 445.234 3.43215 2.3525 0
M  V30 4686 H 444.11 4.2616 3.45946 0
M  V30 4687 H 444.371 2.53235 3.62387 0
M  V30 4688 N 443.43 -0.535701 1.48216 0
M  V30 4689 C 444.677 -1.29183 1.55942 0
M  V30 4690 C 445.005 -1.93125 0.230857 0
M  V30 4691 O 444.26 -1.79556 -0.778331 0
M  V30 4692 C 444.559 -2.4068 2.64212 0
M  V30 4693 C 444.225 -1.94428 4.06827 0
M  V30 4694 C 442.887 -1.81532 4.45645 0
M  V30 4695 C 445.239 -1.59405 4.96225 0
M  V30 4696 C 442.567 -1.31939 5.71672 0
M  V30 4697 C 444.919 -1.11276 6.22736 0
M  V30 4698 C 443.583 -0.969924 6.60416 0
M  V30 4699 H 442.853 -0.472715 0.570632 0
M  V30 4700 H 445.5 -0.598437 1.81909 0
M  V30 4701 H 443.805 -3.15666 2.32083 0
M  V30 4702 H 445.502 -2.98822 2.67407 0
M  V30 4703 H 442.092 -2.05415 3.76168 0
M  V30 4704 H 446.276 -1.68231 4.66917 0
M  V30 4705 H 441.532 -1.19562 5.99596 0
M  V30 4706 H 445.706 -0.832453 6.91407 0
M  V30 4707 H 443.333 -0.583436 7.57958 0
M  V30 4708 N 444.908 -1.36708 -0.784132 0
M  V30 4709 C 446.155 -1.31231 -1.54222 0
M  V30 4710 C 446.483 0.106864 -1.94206 0
M  V30 4711 O 445.738 1.07734 -1.63376 0
M  V30 4712 C 446.037 -2.18571 -2.82774 0
M  V30 4713 C 445.703 -3.67039 -2.61903 0
M  V30 4714 C 444.365 -4.07503 -2.55919 0
M  V30 4715 C 446.717 -4.61149 -2.4288 0
M  V30 4716 C 444.045 -5.40211 -2.28886 0
M  V30 4717 C 446.397 -5.94081 -2.17373 0
M  V30 4718 C 445.061 -6.33664 -2.09825 0
M  V30 4719 H 444.331 -0.48021 -0.56434 0
M  V30 4720 H 446.978 -1.68807 -0.904233 0
M  V30 4721 H 445.283 -1.73949 -3.51068 0
M  V30 4722 H 446.98 -2.11655 -3.40592 0
M  V30 4723 H 443.57 -3.34941 -2.67418 0
M  V30 4724 H 447.754 -4.30756 -2.46501 0
M  V30 4725 H 443.01 -5.69855 -2.21529 0
M  V30 4726 H 447.184 -6.66566 -2.01649 0
M  V30 4727 H 444.811 -7.36423 -1.88641 0
M  V30 4728 N 446.386 1.0089 -1.21074 0
M  V30 4729 C 447.632 1.74866 -1.02712 0
M  V30 4730 C 447.965 1.89178 0.438787 0
M  V30 4731 O 447.24 1.42325 1.32567 0
M  V30 4732 C 447.523 3.16347 -1.72036 0
M  V30 4733 C 447.376 3.09782 -3.26121 0
M  V30 4734 C 448.695 4.15187 -1.45973 0
M  V30 4735 H 445.814 0.634736 -0.374539 0
M  V30 4736 H 448.456 1.17646 -1.49196 0
M  V30 4737 H 446.606 3.65201 -1.32517 0
M  V30 4738 H 448.278 2.68673 -3.74983 0
M  V30 4739 H 446.521 2.46982 -3.56626 0
M  V30 4740 H 447.192 4.09829 -3.6979 0
M  V30 4741 H 449.668 3.75022 -1.80272 0
M  V30 4742 H 448.544 5.12331 -1.96999 0
M  V30 4743 H 448.805 4.40386 -0.388924 0
M  V30 4744 N 447.864 1.01787 1.20321 0
M  V30 4745 C 448.827 0.593972 2.2137 0
M  V30 4746 C 449.827 -0.336553 1.57239 0
M  V30 4747 O 451.017 -0.125069 1.7375 0
M  V30 4748 C 448.149 -0.132433 3.40643 0
M  V30 4749 H 449.342 1.48791 2.60387 0
M  V30 4750 H 446.895 0.807803 1.33807 0
M  V30 4751 H 447.63 -1.04123 3.0713 0
M  V30 4752 H 447.415 0.53605 3.88418 0
M  V30 4753 H 448.905 -0.416314 4.1552 0
M  V30 4754 N 449.342 -1.36122 0.79427 0
M  V30 4755 C 450.591 -1.98361 0.365464 0
M  V30 4756 C 450.904 -1.6374 -1.06997 0
M  V30 4757 O 452.11 -2.19251 -1.60129 0
M  V30 4758 C 450.566 -3.54821 0.602496 0
M  V30 4759 C 450.174 -3.98362 2.04967 0
M  V30 4760 C 451.918 -4.2383 0.238437 0
M  V30 4761 C 449.825 -5.47619 2.2331 0
M  V30 4762 H 448.755 -0.742193 0.13291 0
M  V30 4763 H 451.406 -1.55354 0.976589 0
M  V30 4764 H 449.788 -3.95922 -0.078409 0
M  V30 4765 H 450.962 -3.68447 2.76737 0
M  V30 4766 H 449.277 -3.42206 2.37243 0
M  V30 4767 H 451.874 -5.33529 0.353705 0
M  V30 4768 H 452.217 -4.08264 -0.814006 0
M  V30 4769 H 452.75 -3.88108 0.872769 0
M  V30 4770 H 449.489 -5.68138 3.26955 0
M  V30 4771 H 449.009 -5.79145 1.5605 0
M  V30 4772 H 450.688 -6.13911 2.0426 0
M  V30 4773 N 450.82 -0.546701 -1.47814 0
M  V30 4774 C 452.097 0.0464413 -1.95545 0
M  V30 4775 C 452.477 1.4962 -1.48919 0
M  V30 4776 O 451.825 2.16752 -0.723232 0
M  V30 4777 C 452.035 -0.0881298 -3.48889 0
M  V30 4778 C 453.383 0.0626059 -4.24554 0
M  V30 4779 O 454.407 -0.0151555 -3.56197 0
M  V30 4780 O 453.266 0.228071 -5.46024 0
M  V30 4781 H 450.36 0.0700004 -0.824032 0
M  V30 4782 H 452.906 -0.612482 -1.58262 0
M  V30 4783 H 451.678 -1.09737 -3.75597 0
M  V30 4784 H 451.301 0.608886 -3.9291 0
M  V30 4785 N 452.299 1.55045 -0.282633 0
M  V30 4786 C 453.229 2.2579 0.595066 0
M  V30 4787 C 454.21 1.25074 1.15284 0
M  V30 4788 O 455.395 1.5381 1.18559 0
M  V30 4789 C 452.525 2.98472 1.77572 0
M  V30 4790 C 451.479 4.0618 1.34914 0
M  V30 4791 C 450.805 4.66477 2.6135 0
M  V30 4792 C 452.105 5.1996 0.493821 0
M  V30 4793 H 453.799 2.994 0.00505653 0
M  V30 4794 H 451.345 1.44 0.000992001 0
M  V30 4795 H 453.298 3.46677 2.39568 0
M  V30 4796 H 452.022 2.2241 2.39168 0
M  V30 4797 H 450.681 3.58797 0.752338 0
M  V30 4798 H 450.329 3.87074 3.2122 0
M  V30 4799 H 450.029 5.39207 2.33516 0
M  V30 4800 H 451.553 5.17435 3.24181 0
M  V30 4801 H 452.967 5.64172 1.01898 0
M  V30 4802 H 451.364 5.99299 0.310047 0
M  V30 4803 H 452.434 4.82462 -0.485593 0
M  V30 4804 N 453.777 0.010035 1.57597 0
M  V30 4805 C 454.707 -0.976857 2.12084 0
M  V30 4806 C 455.688 -1.35191 1.03235 0
M  V30 4807 O 456.873 -1.43389 1.3097 0
M  V30 4808 C 454.003 -2.26548 2.63236 0
M  V30 4809 C 452.957 -2.03175 3.76701 0
M  V30 4810 C 452.283 -3.38138 4.14206 0
M  V30 4811 C 453.583 -1.38625 5.03568 0
M  V30 4812 H 455.277 -0.523145 2.94794 0
M  V30 4813 H 452.823 -0.250195 1.4181 0
M  V30 4814 H 454.776 -2.95952 2.99984 0
M  V30 4815 H 453.5 -2.74051 1.77661 0
M  V30 4816 H 452.159 -1.36195 3.40362 0
M  V30 4817 H 451.807 -3.83363 3.25641 0
M  V30 4818 H 451.507 -3.23312 4.90656 0
M  V30 4819 H 453.031 -4.08841 4.53521 0
M  V30 4820 H 454.445 -1.98 5.38023 0
M  V30 4821 H 452.842 -1.34256 5.84889 0
M  V30 4822 H 453.912 -0.356722 4.83586 0
M  V30 4823 N 455.255 -1.55392 -0.262866 0
M  V30 4824 C 456.218 -1.88181 -1.30846 0
M  V30 4825 C 457.218 -0.757079 -1.41862 0
M  V30 4826 O 458.408 -1.02519 -1.40838 0
M  V30 4827 C 455.54 -2.09609 -2.68844 0
M  V30 4828 H 456.733 -2.81659 -1.02997 0
M  V30 4829 H 454.286 -1.48039 -0.501414 0
M  V30 4830 H 455.021 -1.18547 -3.01856 0
M  V30 4831 H 454.806 -2.91508 -2.62231 0
M  V30 4832 H 456.296 -2.36215 -3.44372 0
M  V30 4833 N 456.733 0.527833 -1.48498 0
M  V30 4834 C 457.958 1.313 -1.60546 0
M  V30 4835 C 458.383 1.86199 -0.26672 0
M  V30 4836 O 457.741 1.64513 0.761918 0
M  V30 4837 C 457.789 2.43818 -2.65678 0
M  V30 4838 O 456.893 3.46916 -2.22987 0
M  V30 4839 H 456.234 0.388784 -0.538277 0
M  V30 4840 H 458.764 0.634896 -1.945 0
M  V30 4841 H 458.774 2.89973 -2.87018 0
M  V30 4842 H 457.449 2.03222 -3.62869 0
M  V30 4843 H 456.026 3.06864 -2.11869 0
M  V30 4844 N 458.211 1.37122 0.776871 0
M  V30 4845 C 459.622 1.28667 1.35284 0
M  V30 4846 C 459.973 -0.0680035 1.96082 0
M  V30 4847 O 459.098 -0.969743 1.93455 0
M  V30 4848 C 459.693 2.32997 2.45963 0
M  V30 4849 C 458.252 2.28191 2.99342 0
M  V30 4850 C 457.399 2.17101 1.72517 0
M  V30 4851 H 460.35 1.47819 0.577527 0
M  V30 4852 H 460.371 1.97366 3.2531 0
M  V30 4853 H 459.883 3.3158 2.01684 0
M  V30 4854 H 457.984 1.33115 3.4801 0
M  V30 4855 H 458.097 3.21397 3.55304 0
M  V30 4856 H 456.461 1.63562 1.95242 0
M  V30 4857 H 457.244 3.17591 1.30348 0
M  V30 4858 N 459.689 -1.00246 1.21608 0
M  V30 4859 C 460.636 -2.09073 0.977613 0
M  V30 4860 C 461.606 -1.65815 -0.097297 0
M  V30 4861 O 462.791 -1.90734 0.0503445 0
M  V30 4862 C 459.931 -3.40671 0.551133 0
M  V30 4863 C 459.044 -3.97326 1.69576 0
M  V30 4864 C 458.179 -5.17043 1.2182 0
M  V30 4865 C 457.218 -5.65813 2.335 0
M  V30 4866 N 456.355 -6.76778 1.86859 0
M  V30 4867 H 461.195 -2.28806 1.90924 0
M  V30 4868 H 458.732 -1.12186 0.951452 0
M  V30 4869 H 460.69 -4.16225 0.285097 0
M  V30 4870 H 459.32 -3.20967 -0.343489 0
M  V30 4871 H 458.372 -3.18734 2.07637 0
M  V30 4872 H 459.684 -4.29511 2.53617 0
M  V30 4873 H 458.838 -5.99852 0.908975 0
M  V30 4874 H 457.577 -4.86458 0.347869 0
M  V30 4875 H 456.582 -4.81599 2.65222 0
M  V30 4876 H 457.807 -5.98427 3.21033 0
M  V30 4877 H 455.753 -6.47994 1.02174 0
M  V30 4878 H 455.67 -7.08231 2.64471 0
M  V30 4879 H 456.938 -7.63116 1.58978 0
M  V30 4880 N 461.167 -1.02423 -1.1978 0
M  V30 4881 C 462.077 -0.610919 -2.26506 0
M  V30 4882 C 463.093 0.355152 -1.70337 0
M  V30 4883 O 464.269 0.214195 -2.00258 0
M  V30 4884 C 461.334 0.0365921 -3.46681 0
M  V30 4885 C 460.395 -0.976389 -4.18049 0
M  V30 4886 C 459.628 -0.359683 -5.32487 0
M  V30 4887 O 459.851 0.838601 -5.64202 0
M  V30 4888 O 458.785 -1.08022 -5.92127 0
M  V30 4889 H 462.611 -1.49965 -2.64091 0
M  V30 4890 H 460.196 -0.794156 -1.26545 0
M  V30 4891 H 462.078 0.39786 -4.19518 0
M  V30 4892 H 460.753 0.899398 -3.10954 0
M  V30 4893 H 459.66 -1.38916 -3.47352 0
M  V30 4894 H 460.993 -1.80941 -4.57735 0
M  V30 4895 N 462.645 1.35699 -0.801477 0
M  V30 4896 C 463.575 2.32436 -0.222658 0
M  V30 4897 C 464.556 1.5723 0.649057 0
M  V30 4898 O 465.741 1.85324 0.580387 0
M  V30 4899 C 462.871 3.41469 0.633719 0
M  V30 4900 C 461.825 4.27774 -0.139083 0
M  V30 4901 C 461.151 5.28082 0.838666 0
M  V30 4902 C 462.451 5.04946 -1.33517 0
M  V30 4903 H 464.145 2.81094 -1.03086 0
M  V30 4904 H 461.691 1.35146 -0.497155 0
M  V30 4905 H 463.644 4.08143 1.04868 0
M  V30 4906 H 462.368 2.91408 1.47475 0
M  V30 4907 H 461.027 3.62673 -0.535156 0
M  V30 4908 H 460.675 4.7429 1.67506 0
M  V30 4909 H 460.375 5.86695 0.32594 0
M  V30 4910 H 461.899 5.97628 1.25194 0
M  V30 4911 H 463.313 5.64593 -0.995349 0
M  V30 4912 H 461.71 5.7303 -1.78202 0
M  V30 4913 H 462.78 4.35886 -2.12442 0
M  V30 4914 N 464.123 0.554532 1.47522 0
M  V30 4915 C 465.053 -0.182974 2.32782 0
M  V30 4916 C 466.034 -0.911377 1.43624 0
M  V30 4917 O 467.219 -0.892366 1.72483 0
M  V30 4918 C 464.349 -1.21513 3.25349 0
M  V30 4919 C 463.303 -0.603355 4.23726 0
M  V30 4920 C 462.629 -1.73995 5.05598 0
M  V30 4921 C 463.929 0.441121 5.20434 0
M  V30 4922 H 465.623 0.52882 2.94693 0
M  V30 4923 H 463.169 0.255759 1.41711 0
M  V30 4924 H 465.122 -1.73922 3.83835 0
M  V30 4925 H 463.846 -1.95683 2.61487 0
M  V30 4926 H 462.505 -0.10059 3.66462 0
M  V30 4927 H 462.153 -2.47063 4.38143 0
M  V30 4928 H 461.853 -1.3364 5.72201 0
M  V30 4929 H 463.377 -2.26735 5.66942 0
M  V30 4930 H 464.791 0.00319931 5.733 0
M  V30 4931 H 463.188 0.763402 5.95224 0
M  V30 4932 H 464.258 1.33799 4.66075 0
M  V30 4933 N 465.601 -1.54893 0.290851 0
M  V30 4934 C 466.549 -2.24579 -0.605576 0
M  V30 4935 C 467.543 -1.24824 -1.14522 0
M  V30 4936 O 468.749 -1.42706 -1.09704 0
M  V30 4937 H 465.124 -0.720946 -0.213872 0
M  V30 4938 H 467.095 -2.984 0.0048173 0
M  V30 4939 C 465.844 -2.99224 -1.77088 0
M  V30 4940 H 465.167 -3.75782 -1.36484 0
M  V30 4941 H 466.607 -3.51281 -2.3744 0
M  V30 4942 C 465.066 -2.05602 -2.66888 0
M  V30 4943 O 465.596 -1.61745 -3.67698 0
M  V30 4944 N 463.802 -1.71771 -2.34399 0
M  V30 4945 H 463.349 -2.07633 -1.52468 0
M  V30 4946 H 463.307 -1.09403 -2.94751 0
M  V30 4947 N 467.08 -0.0183926 -1.57589 0
M  V30 4948 C 468.01 0.965596 -2.12599 0
M  V30 4949 C 468.991 1.34641 -1.0395 0
M  V30 4950 O 470.176 1.42693 -1.31729 0
M  V30 4951 C 467.306 2.25149 -2.64434 0
M  V30 4952 C 466.26 2.01175 -3.77773 0
M  V30 4953 C 465.586 3.35937 -4.15994 0
M  V30 4954 C 466.886 1.35953 -5.04296 0
M  V30 4955 H 468.58 0.507504 -2.95067 0
M  V30 4956 H 466.126 0.242671 -1.41941 0
M  V30 4957 H 468.079 2.94357 -3.01549 0
M  V30 4958 H 466.803 2.73105 -1.79112 0
M  V30 4959 H 465.462 1.34388 -3.4108 0
M  V30 4960 H 465.11 3.81631 -3.27669 0
M  V30 4961 H 464.81 3.20705 -4.92364 0
M  V30 4962 H 466.334 4.0643 -4.55683 0
M  V30 4963 H 467.748 1.95144 -5.39065 0
M  V30 4964 H 466.145 1.31152 -5.85593 0
M  V30 4965 H 467.215 0.331071 -4.83768 0
M  V30 4966 O 468.597 1.61027 0.12348 0
M  V30 4967 H 469.288 1.78369 0.755254 0
M  V30 END ATOM
M  V30 BEGIN BOND
M  V30 END BOND
M  V30 END CTAB
M  END
$$$$
