drugbank_target|P83786 Aspartate aminotransferase (DB04083)
 OpenBabel12092120283D

  0  0  0     0  0            999 V3000
M  V30 BEGIN CTAB
M  V30 COUNTS 5408 5466 0 0 0
M  V30 BEGIN ATOM
M  V30 1 H -0.908 1.98254 -0.117106 0
M  V30 2 N 0 1.576 0 0
M  V30 3 C 0.933 2.03868 1.02534 0
M  V30 4 C 1.911 0.928543 1.3348 0
M  V30 5 O 3.095 1.19667 1.45644 0
M  V30 6 C 0.222 2.43627 2.35294 0
M  V30 7 C -0.732 3.65373 2.2001 0
M  V30 8 S 0.101 5.13292 1.52614 0
M  V30 9 C 1.257 5.56322 2.86805 0
M  V30 10 H 1.49 2.90518 0.631377 0
M  V30 11 H -0.977 1.52953 0.210867 0
M  V30 12 H 0.981 2.67203 3.11629 0
M  V30 13 H -0.358 1.57376 2.7183 0
M  V30 14 H -1.165 3.90944 3.18086 0
M  V30 15 H -1.563 3.418 1.51819 0
M  V30 16 H 0.729 5.58782 3.83104 0
M  V30 17 H 1.672 6.56266 2.65933 0
M  V30 18 H 2.08 4.83886 2.90714 0
M  V30 19 N 1.4781 -0.272755 1.55222 0
M  V30 20 C 2.7551 -1.02562 1.66555 0
M  V30 21 C 3.1351 -2.04282 0.532189 0
M  V30 22 O 2.4831 -2.23662 -0.467717 0
M  V30 23 C 2.6931 -1.6822 3.05782 0
M  V30 24 C 4.0411 -2.19373 3.63539 0
M  V30 25 O 5.0651 -1.78206 3.08417 0
M  V30 26 O 3.9241 -2.94883 4.60115 0
M  V30 27 H 1.0181 -0.475755 0.676451 0
M  V30 28 H 3.5641 -0.268593 1.67561 0
M  V30 29 H 2.3361 -0.945112 3.79715 0
M  V30 30 H 1.9591 -2.50609 3.08676 0
M  V30 31 N 2.9562 -1.48159 -0.537278 0
M  V30 32 C 4.2022 -1.57015 -1.29297 0
M  V30 33 C 4.5572 -0.237791 -1.90925 0
M  V30 34 O 3.8502 0.758621 -1.75942 0
M  V30 35 C 4.0442 -2.63956 -2.40961 0
M  V30 36 C 3.8732 -4.07461 -1.90278 0
M  V30 37 C 2.6432 -4.74685 -1.73213 0
M  V30 38 C 4.8412 -4.93858 -1.43556 0
M  V30 39 N 2.8232 -6.02633 -1.17078 0
M  V30 40 C 4.1942 -6.11993 -0.993204 0
M  V30 41 C 6.2492 -4.80141 -1.31792 0
M  V30 42 C 4.9522 -7.17923 -0.444872 0
M  V30 43 C 6.9782 -5.86186 -0.783585 0
M  V30 44 C 6.3402 -7.03524 -0.351261 0
M  V30 45 H 2.4392 -0.629154 -0.464423 0
M  V30 46 H 5.0232 -1.85006 -0.606705 0
M  V30 47 H 3.1942 -2.378 -3.07093 0
M  V30 48 H 4.9262 -2.62539 -3.07986 0
M  V30 49 H 1.6812 -4.30902 -1.9652 0
M  V30 50 H 2.1052 -6.7085 -0.910421 0
M  V30 51 H 6.7472 -3.89772 -1.63823 0
M  V30 52 H 4.4652 -8.08022 -0.11222 0
M  V30 53 H 8.0512 -5.77624 -0.695835 0
M  V30 54 H 6.9312 -7.8418 0.055777 0
M  V30 55 N 4.4343 0.785586 -1.36625 0
M  V30 56 C 5.3643 1.91259 -1.33949 0
M  V30 57 C 6.3453 1.68795 -0.210325 0
M  V30 58 O 7.5303 1.89854 -0.408561 0
M  V30 59 C 4.6603 3.28339 -1.13186 0
M  V30 60 C 3.6143 3.65335 -2.22967 0
M  V30 61 C 2.9403 5.00806 -1.87342 0
M  V30 62 C 4.2403 3.7352 -3.65075 0
M  V30 63 H 5.9343 1.93755 -2.28253 0
M  V30 64 H 3.4803 0.930788 -1.09874 0
M  V30 65 H 5.4333 4.06804 -1.09948 0
M  V30 66 H 4.1573 3.2624 -0.153332 0
M  V30 67 H 2.8163 2.89169 -2.25337 0
M  V30 68 H 2.4643 4.95233 -0.880545 0
M  V30 69 H 2.1643 5.26529 -2.60846 0
M  V30 70 H 3.6883 5.81687 -1.85667 0
M  V30 71 H 5.1023 4.42168 -3.64911 0
M  V30 72 H 3.4993 4.10731 -4.37516 0
M  V30 73 H 4.5693 2.74527 -3.99703 0
M  V30 74 N 5.9124 1.20967 1.01018 0
M  V30 75 C 6.8424 0.988272 2.11555 0
M  V30 76 C 7.8234 -0.0849778 1.69888 0
M  V30 77 O 9.0084 0.0738202 1.9406 0
M  V30 78 C 6.1384 0.546528 3.42973 0
M  V30 79 C 5.0924 1.56375 3.9841 0
M  V30 80 C 4.4184 0.97842 5.25672 0
M  V30 81 C 5.7184 2.94922 4.31066 0
M  V30 82 H 7.4124 1.91276 2.30334 0
M  V30 83 H 4.9584 0.921073 1.1069 0
M  V30 84 H 6.9114 0.378839 4.19694 0
M  V30 85 H 5.6354 -0.413598 3.23971 0
M  V30 86 H 4.2944 1.71891 3.23804 0
M  V30 87 H 3.9424 0.0101688 5.02999 0
M  V30 88 H 3.6424 1.65784 5.63728 0
M  V30 89 H 5.1664 0.821939 6.05043 0
M  V30 90 H 6.5804 2.8288 4.9865 0
M  V30 91 H 4.9774 3.5983 4.80253 0
M  V30 92 H 6.0474 3.4616 3.39561 0
M  V30 93 N 7.3905 -1.2043 1.01659 0
M  V30 94 C 8.6185 -1.93777 0.725132 0
M  V30 95 C 9.0335 -1.74772 -0.714166 0
M  V30 96 O 8.3905 -1.06169 -1.4844 0
M  V30 97 C 8.4415 -3.45876 1.05129 0
M  V30 98 O 8.1625 -3.6426 2.43406 0
M  V30 99 C 9.6635 -4.36368 0.780891 0
M  V30 100 H 6.8835 -0.615901 0.266284 0
M  V30 101 H 9.4275 -1.52922 1.35776 0
M  V30 102 H 7.5825 -3.8461 0.464065 0
M  V30 103 H 7.9965 -4.58246 2.55169 0
M  V30 104 H 9.4705 -5.41743 1.05918 0
M  V30 105 H 9.9475 -4.38275 -0.284937 0
M  V30 106 H 10.5535 -4.03296 1.35027 0
M  V30 107 N 8.8686 -0.792821 -1.36206 0
M  V30 108 C 10.2796 -0.429513 -1.81692 0
M  V30 109 C 10.6306 1.04695 -1.65932 0
M  V30 110 O 9.7556 1.81256 -1.18218 0
M  V30 111 C 10.3506 -0.772831 -3.29868 0
M  V30 112 C 8.9096 -0.462307 -3.7355 0
M  V30 113 C 8.0566 -1.00569 -2.5842 0
M  V30 114 H 11.0076 -0.985672 -1.24379 0
M  V30 115 H 11.0286 -0.0651928 -3.80444 0
M  V30 116 H 10.5406 -1.84747 -3.41307 0
M  V30 117 H 8.6416 0.604158 -3.67669 0
M  V30 118 H 8.7546 -0.985299 -4.68859 0
M  V30 119 H 7.1186 -0.428734 -2.51066 0
M  V30 120 H 7.9016 -2.08616 -2.72643 0
M  V30 121 N 10.3467 1.47872 -0.545128 0
M  V30 122 C 11.5947 2.02093 -0.016553 0
M  V30 123 C 11.9157 1.42305 1.3332 0
M  V30 124 O 11.1857 0.593853 1.86682 0
M  V30 125 H 9.7657 0.746993 -0.00313038 0
M  V30 126 H 12.4277 1.81414 -0.712397 0
M  V30 127 H 11.5237 3.11996 0.0805422 0
M  V30 128 N 11.8248 0.280983 1.55075 0
M  V30 129 C 13.2358 -0.215629 1.85451 0
M  V30 130 C 13.5868 -1.54991 1.203 0
M  V30 131 O 12.7118 -2.10699 0.493435 0
M  V30 132 C 13.3068 -0.398026 3.36454 0
M  V30 133 C 11.8658 -0.838866 3.66933 0
M  V30 134 C 11.0128 0.064458 2.77225 0
M  V30 135 H 13.9638 0.502601 1.50531 0
M  V30 136 H 13.9848 -1.23569 3.59876 0
M  V30 137 H 13.4968 0.573241 3.83843 0
M  V30 138 H 11.5978 -1.8214 3.25048 0
M  V30 139 H 11.7108 -0.672123 4.74362 0
M  V30 140 H 10.0748 -0.452863 2.50642 0
M  V30 141 H 10.8578 1.03172 3.2743 0
M  V30 142 N 13.3029 -1.57598 0.00835791 0
M  V30 143 C 14.5489 -1.91211 -0.675732 0
M  V30 144 C 14.8819 -0.883139 -1.72958 0
M  V30 145 O 14.1569 0.097016 -1.94258 0
M  V30 146 C 14.4399 -3.35379 -1.31123 0
M  V30 147 C 14.2929 -4.48999 -0.268356 0
M  V30 148 C 15.6119 -3.7912 -2.23508 0
M  V30 149 H 12.7309 -0.695374 -0.244179 0
M  V30 150 H 15.3729 -1.89901 0.0613655 0
M  V30 151 H 13.5229 -3.36626 -1.93946 0
M  V30 152 H 15.1949 -4.59887 0.360844 0
M  V30 153 H 13.4379 -4.31873 0.408482 0
M  V30 154 H 14.1089 -5.46851 -0.752218 0
M  V30 155 H 16.5849 -3.79477 -1.70693 0
M  V30 156 H 15.4609 -4.80729 -2.64936 0
M  V30 157 H 15.7219 -3.13455 -3.11766 0
M  V30 158 N 14.781 0.264519 -1.55364 0
M  V30 159 C 16.197 0.61215 -1.47394 0
M  V30 160 C 16.397 1.89134 -0.695018 0
M  V30 161 O 15.453 2.51563 -0.217275 0
M  V30 162 C 16.766 0.731235 -2.91674 0
M  V30 163 C 18.314 0.82473 -3.01939 0
M  V30 164 C 18.789 0.975522 -4.4749 0
M  V30 165 N 20.28 1.04083 -4.51354 0
M  V30 166 C 21.015 1.17646 -5.61201 0
M  V30 167 N 20.511 1.27874 -6.80896 0
M  V30 168 N 22.304 1.20823 -5.48961 0
M  V30 169 H 14.455 -0.575456 -2.04456 0
M  V30 170 H 16.718 -0.196099 -0.927496 0
M  V30 171 H 16.424 -0.138392 -3.51428 0
M  V30 172 H 16.298 1.60883 -3.41169 0
M  V30 173 H 18.685 1.68482 -2.42276 0
M  V30 174 H 18.766 -0.0776479 -2.55682 0
M  V30 175 H 18.41 0.120058 -5.07758 0
M  V30 176 H 18.34 1.89268 -4.91412 0
M  V30 177 H 20.831 0.973846 -3.65136 0
M  V30 178 H 21.144 1.38081 -7.60364 0
M  V30 179 H 19.489 1.24863 -6.83692 0
M  V30 180 H 22.68 1.12469 -4.54388 0
M  V30 181 H 22.853 1.31049 -6.3461 0
M  V30 182 N 16.2591 1.48442 0.529413 0
M  V30 183 C 17.1891 1.65902 1.64313 0
M  V30 184 C 18.1701 0.507897 1.6234 0
M  V30 185 O 19.3551 0.740503 1.79528 0
M  V30 186 C 16.4851 1.69911 3.02898 0
M  V30 187 C 15.4391 2.8453 3.19729 0
M  V30 188 C 14.7651 2.73629 4.59381 0
M  V30 189 C 16.0651 4.25821 3.02447 0
M  V30 190 H 17.7591 2.5914 1.49955 0
M  V30 191 H 15.3051 1.24709 0.719982 0
M  V30 192 H 17.2581 1.80715 3.80684 0
M  V30 193 H 15.9821 0.732524 3.18279 0
M  V30 194 H 14.6411 2.73283 2.44361 0
M  V30 195 H 14.2891 1.74938 4.71599 0
M  V30 196 H 13.9891 3.50541 4.71588 0
M  V30 197 H 15.5131 2.86401 5.39265 0
M  V30 198 H 16.9271 4.37898 3.70024 0
M  V30 199 H 15.3241 5.03735 3.26146 0
M  V30 200 H 16.3941 4.42244 1.98867 0
M  V30 201 N 17.7372 -0.778329 1.37039 0
M  V30 202 C 18.6872 -1.88142 1.28789 0
M  V30 203 C 19.6712 -1.59923 0.177063 0
M  V30 204 O 20.8632 -1.72165 0.410873 0
M  V30 205 C 17.9922 -3.25518 1.09055 0
M  V30 206 C 17.0782 -3.5971 2.24654 0
M  V30 207 N 17.4692 -3.65131 3.50018 0
M  V30 208 C 15.7672 -3.89837 2.16663 0
M  V30 209 C 16.4682 -3.95882 4.26207 0
M  V30 210 N 15.4442 -4.11441 3.55271 0
M  V30 211 H 19.2462 -1.90575 2.23737 0
M  V30 212 H 16.7602 -0.974435 1.29917 0
M  V30 213 H 18.7572 -4.04423 1.0123 0
M  V30 214 H 17.4172 -3.24353 0.15018 0
M  V30 215 H 18.4282 -3.475 3.84011 0
M  V30 216 H 15.1052 -3.96533 1.30645 0
M  V30 217 H 16.4952 -4.06907 5.34674 0
M  V30 218 N 19.2153 -1.21501 -1.00376 0
M  V30 219 C 20.6263 -1.03146 -1.55621 0
M  V30 220 C 20.9773 0.408375 -1.91903 0
M  V30 221 O 20.1023 1.29177 -1.73616 0
M  V30 222 C 20.6973 -1.86612 -2.82775 0
M  V30 223 C 19.2563 -1.72586 -3.34501 0
M  V30 224 C 18.4033 -1.83747 -2.07683 0
M  V30 225 H 21.3543 -1.35505 -0.826081 0
M  V30 226 H 21.3753 -1.3771 -3.54706 0
M  V30 227 H 20.8873 -2.91399 -2.56336 0
M  V30 228 H 18.9883 -0.704877 -3.65872 0
M  V30 229 H 19.1013 -2.54623 -4.05837 0
M  V30 230 H 17.4653 -1.27069 -2.20739 0
M  V30 231 H 18.2483 -2.90044 -1.83655 0
M  V30 232 N 20.6934 1.19889 -1.02296 0
M  V30 233 C 21.6404 2.22901 -0.598651 0
M  V30 234 C 22.6104 1.61588 0.384521 0
M  V30 235 O 23.7954 1.88697 0.282522 0
M  V30 236 C 20.9354 3.45063 0.0504476 0
M  V30 237 C 20.0484 4.20783 -0.978053 0
M  V30 238 C 19.1834 5.30356 -0.299338 0
M  V30 239 C 18.2224 5.97826 -1.31416 0
M  V30 240 N 17.3594 6.98975 -0.661667 0
M  V30 241 H 22.1994 2.58554 -1.48169 0
M  V30 242 H 19.7364 1.27039 -0.741584 0
M  V30 243 H 21.6944 4.14831 0.443971 0
M  V30 244 H 20.3244 3.10084 0.897097 0
M  V30 245 H 19.3764 3.50018 -1.48969 0
M  V30 246 H 20.6884 4.67109 -1.74958 0
M  V30 247 H 19.8424 6.06516 0.149347 0
M  V30 248 H 18.5814 4.85084 0.504445 0
M  V30 249 H 17.5864 5.20422 -1.77317 0
M  V30 250 H 18.8114 6.45183 -2.11933 0
M  V30 251 H 16.7574 6.55886 0.122132 0
M  V30 252 H 16.6744 7.43461 -1.37117 0
M  V30 253 H 17.9424 7.7914 -0.236785 0
M  V30 254 N 22.1715 0.800033 1.35784 0
M  V30 255 C 23.1345 0.211565 2.28221 0
M  V30 256 C 24.1345 -0.59728 1.49296 0
M  V30 257 O 25.3245 -0.416721 1.69142 0
M  V30 258 C 22.4565 -0.705846 3.33513 0
M  V30 259 H 23.6495 1.02677 2.81776 0
M  V30 260 H 21.2025 0.570211 1.45528 0
M  V30 261 H 21.9375 -1.54498 2.85133 0
M  V30 262 H 21.7225 -0.127655 3.91892 0
M  V30 263 H 23.2125 -1.11211 4.02519 0
M  V30 264 N 23.6496 -1.47581 0.552962 0
M  V30 265 C 24.5796 -2.32762 -0.185451 0
M  V30 266 C 25.5606 -1.43527 -0.912905 0
M  V30 267 O 26.7456 -1.72388 -0.894201 0
M  V30 268 C 23.8756 -3.25219 -1.21859 0
M  V30 269 C 22.8296 -4.23661 -0.607864 0
M  V30 270 C 22.1556 -5.05413 -1.74533 0
M  V30 271 C 23.4556 -5.20481 0.435582 0
M  V30 272 H 25.1496 -2.94749 0.525684 0
M  V30 273 H 22.6956 -1.41738 0.254251 0
M  V30 274 H 24.6486 -3.8365 -1.7433 0
M  V30 275 H 23.3726 -2.61279 -1.95961 0
M  V30 276 H 22.0316 -3.66451 -0.104489 0
M  V30 277 H 21.6796 -4.3788 -2.47529 0
M  V30 278 H 21.3796 -5.72059 -1.34249 0
M  V30 279 H 22.9036 -5.66701 -2.27338 0
M  V30 280 H 24.3176 -5.733 -0.00290157 0
M  V30 281 H 22.7146 -5.95305 0.757067 0
M  V30 282 H 23.7846 -4.66217 1.33303 0
M  V30 283 N 25.1277 -0.289203 -1.54924 0
M  V30 284 C 26.0377 0.601863 -2.26748 0
M  V30 285 C 27.0537 1.15834 -1.2984 0
M  V30 286 O 28.2297 1.18564 -1.62802 0
M  V30 287 C 25.2947 1.76299 -2.98529 0
M  V30 288 C 24.3557 1.24178 -4.10948 0
M  V30 289 C 23.5887 2.34757 -4.79296 0
M  V30 290 O 23.8117 3.54411 -4.46933 0
M  V30 291 O 22.7457 2.02115 -5.66951 0
M  V30 292 H 26.5717 0.0195879 -3.03694 0
M  V30 293 H 24.1567 -0.0560868 -1.49295 0
M  V30 294 H 26.0387 2.43973 -3.43592 0
M  V30 295 H 24.7137 2.33209 -2.24488 0
M  V30 296 H 23.6207 0.531104 -3.70311 0
M  V30 297 H 24.9537 0.718252 -4.86931 0
M  V30 298 N 26.6058 1.57591 -0.0167156 0
M  V30 299 C 27.5688 2.08393 0.954204 0
M  V30 300 C 28.5688 0.996531 1.26198 0
M  V30 301 O 29.7588 1.25858 1.20438 0
M  V30 302 C 26.8908 2.5394 2.27436 0
M  V30 303 H 28.0838 2.95455 0.514451 0
M  V30 304 H 25.6368 1.54582 0.231089 0
M  V30 305 H 26.3718 1.70171 2.76066 0
M  V30 306 H 26.1568 3.33371 2.06412 0
M  V30 307 H 27.6468 2.93512 2.97053 0
M  V30 308 N 28.0839 -0.256276 1.55502 0
M  V30 309 C 29.0139 -1.32102 1.92539 0
M  V30 310 C 29.9949 -1.50684 0.789194 0
M  V30 311 O 31.1799 -1.63449 1.04872 0
M  V30 312 C 28.3099 -2.67752 2.21192 0
M  V30 313 C 27.2639 -2.63878 3.36975 0
M  V30 314 C 26.5899 -4.03236 3.51147 0
M  V30 315 C 27.8899 -2.21682 4.72921 0
M  V30 316 H 29.5839 -1.01351 2.81724 0
M  V30 317 H 27.1299 -0.486105 1.35547 0
M  V30 318 H 29.0829 -3.42365 2.45691 0
M  V30 319 H 27.8069 -3.0012 1.28824 0
M  V30 320 H 26.4659 -1.91722 3.12471 0
M  V30 321 H 26.1139 -4.32854 2.56216 0
M  V30 322 H 25.8139 -4.01535 4.29003 0
M  V30 323 H 27.3379 -4.79563 3.77957 0
M  V30 324 H 28.7519 -2.86023 4.96854 0
M  V30 325 H 27.1489 -2.3111 5.53812 0
M  V30 326 H 28.2189 -1.16833 4.70615 0
M  V30 327 N 29.562 -1.4872 -0.521534 0
M  V30 328 C 30.525 -1.63379 -1.60748 0
M  V30 329 C 31.525 -0.50661 -1.52611 0
M  V30 330 O 32.715 -0.772601 -1.5613 0
M  V30 331 C 29.847 -1.61192 -3.00383 0
M  V30 332 H 31.04 -2.60217 -1.49087 0
M  V30 333 H 28.593 -1.37444 -0.744235 0
M  V30 334 H 29.328 -0.65863 -3.17541 0
M  V30 335 H 29.113 -2.43032 -3.07698 0
M  V30 336 H 30.603 -1.7466 -3.7932 0
M  V30 337 N 31.0401 0.771051 -1.3745 0
M  V30 338 C 32.4561 1.07171 -1.18265 0
M  V30 339 C 32.6561 2.01491 -0.019287 0
M  V30 340 O 31.7121 2.44244 0.640408 0
M  V30 341 C 33.0251 1.66854 -2.50161 0
M  V30 342 C 34.5731 1.79109 -2.56689 0
M  V30 343 C 35.0481 2.42205 -3.88717 0
M  V30 344 N 36.5391 2.49655 -3.90162 0
M  V30 345 C 37.2741 2.9933 -4.8907 0
M  V30 346 N 36.7701 3.49172 -5.98374 0
M  V30 347 N 38.5631 2.9821 -4.76474 0
M  V30 348 H 30.7141 0.144796 -2.11906 0
M  V30 349 H 32.9771 0.126863 -0.939473 0
M  V30 350 H 32.6831 1.05017 -3.35655 0
M  V30 351 H 32.5571 2.6614 -2.673 0
M  V30 352 H 34.9441 2.40077 -1.71601 0
M  V30 353 H 35.0251 0.785757 -2.43433 0
M  V30 354 H 34.6691 1.81875 -4.74219 0
M  V30 355 H 34.5991 3.43345 -3.99276 0
M  V30 356 H 37.0901 2.14383 -3.11205 0
M  V30 357 H 37.4031 3.8548 -6.69795 0
M  V30 358 H 35.7481 3.47275 -6.02018 0
M  V30 359 H 38.9391 2.58572 -3.90203 0
M  V30 360 H 39.1121 3.36613 -5.53711 0
M  V30 361 N 32.5182 1.22032 0.997298 0
M  V30 362 C 33.9292 1.0397 1.55071 0
M  V30 363 C 34.2802 -0.398192 1.92117 0
M  V30 364 O 33.4052 -1.28254 1.74298 0
M  V30 365 C 34.0002 1.88109 2.81781 0
M  V30 366 C 32.5592 1.74357 3.33581 0
M  V30 367 C 31.7062 1.84846 2.06706 0
M  V30 368 H 34.6572 1.35941 0.818883 0
M  V30 369 H 34.6782 1.39589 3.53971 0
M  V30 370 H 34.1902 2.92754 2.54787 0
M  V30 371 H 32.2912 0.72427 3.65493 0
M  V30 372 H 32.4042 2.56772 4.04481 0
M  V30 373 H 30.7682 1.28238 2.20062 0
M  V30 374 H 31.5512 2.91014 1.82114 0
M  V30 375 N 33.9963 -1.19345 1.0293 0
M  V30 376 C 34.9283 -2.22036 0.56857 0
M  V30 377 C 35.9413 -1.58865 -0.355779 0
M  V30 378 O 37.1303 -1.77851 -0.152103 0
M  V30 379 C 34.2303 -3.38363 -0.190752 0
M  V30 380 C 33.4033 -4.31118 0.738643 0
M  V30 381 C 32.4623 -5.26194 0.0246497 0
M  V30 382 O 31.4883 -5.65461 0.651354 0
M  V30 383 N 32.6903 -5.66971 -1.24594 0
M  V30 384 H 35.4553 -2.6219 1.45177 0
M  V30 385 H 33.0163 -1.34015 0.908381 0
M  V30 386 H 35.0083 -3.98981 -0.677961 0
M  V30 387 H 33.5783 -2.96994 -0.975366 0
M  V30 388 H 32.7983 -3.68276 1.40593 0
M  V30 389 H 34.0863 -4.90001 1.37029 0
M  V30 390 H 33.4843 -5.37104 -1.77583 0
M  V30 391 H 32.0413 -6.2984 -1.67764 0
M  V30 392 N 35.4744 -0.807222 -1.35358 0
M  V30 393 C 36.4044 -0.232509 -2.3234 0
M  V30 394 C 37.3854 0.642386 -1.57504 0
M  V30 395 O 38.5704 0.572526 -1.85569 0
M  V30 396 C 35.7004 0.619238 -3.41735 0
M  V30 397 C 34.6544 -0.157215 -4.27711 0
M  V30 398 C 33.9804 0.816273 -5.28433 0
M  V30 399 C 35.2804 -1.35656 -5.04376 0
M  V30 400 H 36.9744 -1.04276 -2.80654 0
M  V30 401 H 34.5204 -0.50288 -1.34934 0
M  V30 402 H 36.4734 1.03137 -4.08584 0
M  V30 403 H 35.1974 1.46239 -2.92031 0
M  V30 404 H 33.8564 -0.550525 -3.62443 0
M  V30 405 H 33.5044 1.65494 -4.74996 0
M  V30 406 H 33.2044 0.301067 -5.86828 0
M  V30 407 H 34.7284 1.22659 -5.98153 0
M  V30 408 H 36.1424 -1.01927 -5.64166 0
M  V30 409 H 34.5394 -1.8063 -5.7227 0
M  V30 410 H 35.6094 -2.14288 -4.34981 0
M  V30 411 N 36.9525 1.47285 -0.560781 0
M  V30 412 C 37.9025 2.27073 0.205384 0
M  V30 413 C 38.8865 1.34569 0.882044 0
M  V30 414 O 40.0785 1.58899 0.77976 0
M  V30 415 C 37.2075 3.20414 1.23247 0
M  V30 416 C 36.2935 4.20399 0.559041 0
M  V30 417 N 36.6845 5.04423 -0.372927 0
M  V30 418 C 34.9825 4.38536 0.812522 0
M  V30 419 C 35.6835 5.76655 -0.764446 0
M  V30 420 N 34.6595 5.43471 -0.11848 0
M  V30 421 H 38.4615 2.89422 -0.511117 0
M  V30 422 H 35.9755 1.57868 -0.380975 0
M  V30 423 H 37.9725 3.76262 1.79534 0
M  V30 424 H 36.6325 2.59623 1.95002 0
M  V30 425 H 37.6435 5.1248 -0.747287 0
M  V30 426 H 34.3205 3.88913 1.51832 0
M  V30 427 H 35.7105 6.54238 -1.53045 0
M  V30 428 N 38.4306 0.297415 1.54768 0
M  V30 429 C 39.3806 -0.595275 2.20092 0
M  V30 430 C 40.3646 -1.10163 1.17273 0
M  V30 431 O 41.5566 -1.043 1.43006 0
M  V30 432 C 38.6856 -1.7684 2.94249 0
M  V30 433 C 37.7716 -1.27818 4.0438 0
M  V30 434 N 38.1626 -0.505695 5.03266 0
M  V30 435 C 36.4606 -1.55923 4.17857 0
M  V30 436 C 37.1616 -0.245094 5.81183 0
M  V30 437 N 36.1376 -0.823881 5.3732 0
M  V30 438 H 39.9396 0.00250837 2.939 0
M  V30 439 H 37.4536 0.102007 1.62079 0
M  V30 440 H 39.4506 -2.41944 3.39513 0
M  V30 441 H 38.1106 -2.36992 2.21957 0
M  V30 442 H 39.1216 -0.150928 5.1768 0
M  V30 443 H 35.7986 -2.16849 3.56767 0
M  V30 444 H 37.1886 0.375084 6.70852 0
M  V30 445 N 39.9087 -1.5758 0.0250728 0
M  V30 446 C 41.3247 -1.56124 -0.331282 0
M  V30 447 C 41.5247 -1.03029 -1.73169 0
M  V30 448 O 40.5807 -0.675215 -2.43305 0
M  V30 449 C 41.8937 -3.00139 -0.183584 0
M  V30 450 C 43.4417 -3.11946 -0.256654 0
M  V30 451 C 43.9167 -4.57793 -0.137792 0
M  V30 452 N 45.4077 -4.6279 -0.194904 0
M  V30 453 C 46.1427 -5.7326 -0.126655 0
M  V30 454 N 45.6387 -6.928 -0.00755288 0
M  V30 455 N 47.4317 -5.61811 -0.180348 0
M  V30 456 H 39.5827 -1.90424 0.94087 0
M  V30 457 H 41.8457 -0.875761 0.362968 0
M  V30 458 H 41.5517 -3.4292 0.780927 0
M  V30 459 H 41.4257 -3.64899 -0.955448 0
M  V30 460 H 43.8127 -2.69079 -1.21162 0
M  V30 461 H 43.8937 -2.49915 0.545517 0
M  V30 462 H 43.5377 -5.01339 0.813739 0
M  V30 463 H 43.4677 -5.17798 -0.958775 0
M  V30 464 H 45.9587 -3.76807 -0.287267 0
M  V30 465 H 46.2717 -7.72791 0.0379428 0
M  V30 466 H 44.6167 -6.94995 0.0271731 0
M  V30 467 H 47.8077 -4.6731 -0.271767 0
M  V30 468 H 47.9807 -6.47882 -0.123697 0
M  V30 469 N 41.3868 0.248026 -1.55636 0
M  V30 470 C 42.6148 0.993808 -1.81469 0
M  V30 471 C 43.0298 1.78991 -0.60064 0
M  V30 472 O 42.3868 1.77345 0.430682 0
M  V30 473 C 42.4378 1.93258 -3.05506 0
M  V30 474 O 42.1588 1.16869 -4.22224 0
M  V30 475 C 43.6598 2.79444 -3.4413 0
M  V30 476 H 40.8798 0.292486 -0.603898 0
M  V30 477 H 43.4238 0.271253 -2.02693 0
M  V30 478 H 41.5788 2.60943 -2.86335 0
M  V30 479 H 41.9928 1.80359 -4.92515 0
M  V30 480 H 43.4668 3.41066 -4.34026 0
M  V30 481 H 43.9438 3.50499 -2.64665 0
M  V30 482 H 44.5498 2.17214 -3.65648 0
M  V30 483 N 42.8649 1.48995 0.513639 0
M  V30 484 C 43.7749 1.67443 1.64317 0
M  V30 485 C 44.7909 0.556947 1.64846 0
M  V30 486 O 45.9669 0.830082 1.83498 0
M  V30 487 C 43.0319 1.72515 3.00732 0
M  V30 488 C 42.0929 2.96009 3.1093 0
M  V30 489 C 41.3259 3.00829 4.40837 0
M  V30 490 O 41.5489 2.13594 5.28898 0
M  V30 491 O 40.4829 3.93168 4.55744 0
M  V30 492 H 44.3089 2.63106 1.51687 0
M  V30 493 H 41.8939 1.32588 0.688543 0
M  V30 494 H 43.7759 1.78277 3.81831 0
M  V30 495 H 42.4509 0.800278 3.13651 0
M  V30 496 H 41.3579 2.9577 2.29065 0
M  V30 497 H 42.6909 3.87934 3.02933 0
M  V30 498 N 44.343 -0.763751 1.37857 0
M  V30 499 C 45.306 -1.85889 1.34081 0
M  V30 500 C 46.306 -1.58949 0.243277 0
M  V30 501 O 47.496 -1.66882 0.499589 0
M  V30 502 C 44.628 -3.23176 1.08489 0
M  V30 503 H 45.821 -1.90648 2.31502 0
M  V30 504 H 43.374 -0.964367 1.23003 0
M  V30 505 H 44.109 -3.24091 0.116318 0
M  V30 506 H 43.894 -3.44124 1.8794 0
M  V30 507 H 45.384 -4.03254 1.08517 0
M  V30 508 N 45.8211 -1.22559 -0.990812 0
M  V30 509 C 46.7841 -0.998863 -2.0629 0
M  V30 510 C 47.7841 0.0354834 -1.60761 0
M  V30 511 O 48.9741 -0.203231 -1.7301 0
M  V30 512 C 46.1061 -0.509203 -3.37076 0
M  V30 513 H 47.2991 -1.95014 -2.27837 0
M  V30 514 H 44.8521 -1.04456 -1.16269 0
M  V30 515 H 45.5871 0.446335 -3.21214 0
M  V30 516 H 45.3721 -1.25547 -3.71457 0
M  V30 517 H 46.8621 -0.370888 -4.1595 0
M  V30 518 N 47.2992 1.18797 -1.03562 0
M  V30 519 C 48.7152 1.40671 -0.753917 0
M  V30 520 C 48.9152 1.9043 0.658686 0
M  V30 521 O 47.9712 2.08538 1.42366 0
M  V30 522 C 49.2842 2.41192 -1.79574 0
M  V30 523 C 50.8322 2.54928 -1.81606 0
M  V30 524 C 51.3072 3.58709 -2.84766 0
M  V30 525 N 52.7982 3.66212 -2.83625 0
M  V30 526 C 53.5332 4.46225 -3.60098 0
M  V30 527 N 53.0292 5.29888 -4.46308 0
M  V30 528 N 54.8222 4.40939 -3.4861 0
M  V30 529 H 46.9732 0.848221 -1.94728 0
M  V30 530 H 49.2362 0.435081 -0.842264 0
M  V30 531 H 48.9422 2.11669 -2.80872 0
M  V30 532 H 48.8162 3.40467 -1.62365 0
M  V30 533 H 51.2032 2.83771 -0.809817 0
M  V30 534 H 51.2842 1.55784 -2.02891 0
M  V30 535 H 50.9282 3.30607 -3.85566 0
M  V30 536 H 50.8582 4.57519 -2.60737 0
M  V30 537 H 53.3492 3.06466 -2.21105 0
M  V30 538 H 53.6622 5.88078 -5.01382 0
M  V30 539 H 52.0072 5.29326 -4.50377 0
M  V30 540 H 55.1982 3.74624 -2.80668 0
M  V30 541 H 55.3712 5.03056 -4.08459 0
M  V30 542 N 48.7773 0.814389 1.34928 0
M  V30 543 C 49.6873 0.231978 2.3345 0
M  V30 544 C 50.7033 -0.629139 1.62228 0
M  V30 545 O 51.8793 -0.539052 1.94052 0
M  V30 546 C 48.9443 -0.603482 3.41407 0
M  V30 547 C 48.0053 0.279037 4.28392 0
M  V30 548 C 47.2383 -0.516643 5.31193 0
M  V30 549 O 47.4613 -1.75068 5.4287 0
M  V30 550 O 46.3953 0.0965652 6.01823 0
M  V30 551 H 50.2213 1.04721 2.85074 0
M  V30 552 H 47.8063 0.576343 1.37836 0
M  V30 553 H 49.6883 -1.07908 4.0735 0
M  V30 554 H 48.3633 -1.39618 2.92042 0
M  V30 555 H 47.2703 0.801948 3.65403 0
M  V30 556 H 48.6033 1.03588 4.81176 0
M  V30 557 N 50.2554 -1.46986 0.568584 0
M  V30 558 C 51.5014 -2.02741 0.0488709 0
M  V30 559 C 51.8344 -1.44077 -1.30214 0
M  V30 560 O 51.1094 -0.600552 -1.84996 0
M  V30 561 C 51.3924 -3.60086 -0.032047 0
M  V30 562 C 51.2454 -4.29162 1.34686 0
M  V30 563 C 52.5644 -4.33838 -0.739798 0
M  V30 564 H 49.6834 -0.736749 0.0192338 0
M  V30 565 H 52.3254 -1.75289 0.733065 0
M  V30 566 H 50.4754 -3.83606 -0.61473 0
M  V30 567 H 52.1474 -4.16948 1.97362 0
M  V30 568 H 50.3904 -3.89073 1.91846 0
M  V30 569 H 51.0614 -5.37826 1.24285 0
M  V30 570 H 53.5374 -4.15378 -0.244939 0
M  V30 571 H 52.4134 -5.43537 -0.765406 0
M  V30 572 H 52.6744 -4.03875 -1.79827 0
M  V30 573 N 51.7335 -0.305618 -1.54608 0
M  V30 574 C 52.9805 0.302298 -2.00231 0
M  V30 575 C 53.3085 1.5354 -1.19398 0
M  V30 576 O 52.5635 1.93973 -0.259423 0
M  V30 577 C 52.8625 0.698983 -3.50498 0
M  V30 578 C 52.5285 -0.432903 -4.48817 0
M  V30 579 C 51.1905 -0.743622 -4.75419 0
M  V30 580 C 53.5425 -1.19409 -5.07337 0
M  V30 581 C 50.8705 -1.81857 -5.57804 0
M  V30 582 C 53.2225 -2.25899 -5.90891 0
M  V30 583 C 51.8865 -2.57572 -6.15803 0
M  V30 584 H 51.1565 0.110619 -0.732697 0
M  V30 585 H 53.8035 -0.425674 -1.86709 0
M  V30 586 H 52.1085 1.50711 -3.61654 0
M  V30 587 H 53.8055 1.1806 -3.83227 0
M  V30 588 H 50.3955 -0.18063 -4.28219 0
M  V30 589 H 54.5795 -0.967295 -4.86782 0
M  V30 590 H 49.8355 -2.06864 -5.75341 0
M  V30 591 H 54.0095 -2.85335 -6.35261 0
M  V30 592 H 51.6365 -3.40998 -6.7943 0
M  V30 593 N 53.2116 1.57565 -0.0334293 0
M  V30 594 C 54.1416 2.13511 0.945265 0
M  V30 595 C 55.1226 1.05231 1.33643 0
M  V30 596 O 56.3076 1.33084 1.41429 0
M  V30 597 C 53.4376 2.6657 2.22616 0
M  V30 598 C 52.3916 3.79676 1.97561 0
M  V30 599 C 51.7176 4.1918 3.31952 0
M  V30 600 C 53.0176 5.0557 1.31135 0
M  V30 601 H 54.7116 2.95538 0.479325 0
M  V30 602 H 52.2576 1.42166 0.229115 0
M  V30 603 H 54.2106 3.04344 2.91466 0
M  V30 604 H 52.9346 1.8171 2.71384 0
M  V30 605 H 51.5936 3.42347 1.31127 0
M  V30 606 H 51.2416 3.31296 3.78487 0
M  V30 607 H 50.9416 4.95402 3.15992 0
M  V30 608 H 52.4656 4.59541 4.02063 0
M  V30 609 H 53.8796 5.40903 1.89992 0
M  V30 610 H 52.2766 5.86818 1.25559 0
M  V30 611 H 53.3466 4.84062 0.284894 0
M  V30 612 N 54.6897 -0.239769 1.55765 0
M  V30 613 C 55.6367 -1.29696 1.90913 0
M  V30 614 C 56.6067 -1.47478 0.764164 0
M  V30 615 O 57.7917 -1.61345 1.01845 0
M  V30 616 C 54.9317 -2.64598 2.21544 0
M  V30 617 C 54.0447 -2.54765 3.48882 0
M  V30 618 C 53.1797 -3.82069 3.69049 0
M  V30 619 C 52.2187 -3.66883 4.89963 0
M  V30 620 N 51.3557 -4.86094 5.06614 0
M  V30 621 H 56.1957 -0.990224 2.81067 0
M  V30 622 H 53.7327 -0.477684 1.39128 0
M  V30 623 H 55.6907 -3.43132 2.3731 0
M  V30 624 H 54.3207 -2.93405 1.34585 0
M  V30 625 H 53.3727 -1.67763 3.41409 0
M  V30 626 H 54.6847 -2.39457 4.37563 0
M  V30 627 H 53.8387 -4.69046 3.84812 0
M  V30 628 H 52.5777 -4.00282 2.78614 0
M  V30 629 H 51.5827 -2.78289 4.74168 0
M  V30 630 H 52.8077 -3.50157 5.81865 0
M  V30 631 H 50.7537 -5.04655 4.19117 0
M  V30 632 H 50.6707 -4.73443 5.89396 0
M  V30 633 H 51.9387 -5.74549 5.26795 0
M  V30 634 N 56.1678 -1.49265 -0.50573 0
M  V30 635 C 57.1308 -1.65075 -1.59006 0
M  V30 636 C 58.1308 -0.522768 -1.52065 0
M  V30 637 O 59.3208 -0.789117 -1.55302 0
M  V30 638 C 56.4528 -1.64369 -2.98656 0
M  V30 639 H 57.6458 -2.61784 -1.46319 0
M  V30 640 H 55.1988 -1.38226 -0.729616 0
M  V30 641 H 55.9338 -0.692272 -3.16825 0
M  V30 642 H 55.7188 -2.46282 -3.05103 0
M  V30 643 H 57.2088 -1.78674 -3.77446 0
M  V30 644 N 57.6459 0.756429 -1.3826 0
M  V30 645 C 59.0619 1.0591 -1.19395 0
M  V30 646 C 59.2619 2.01459 -0.0406567 0
M  V30 647 O 58.3179 2.44909 0.614467 0
M  V30 648 C 59.6309 1.64191 -2.51916 0
M  V30 649 C 61.1789 1.76376 -2.58574 0
M  V30 650 C 61.6539 2.38069 -3.91264 0
M  V30 651 N 63.1449 2.45503 -3.92788 0
M  V30 652 C 63.8799 2.94126 -4.92217 0
M  V30 653 N 63.3759 3.42805 -6.02043 0
M  V30 654 N 65.1689 2.9314 -4.7961 0
M  V30 655 H 57.3199 0.122313 -2.12048 0
M  V30 656 H 59.5829 0.116892 -0.940766 0
M  V30 657 H 59.2889 1.01451 -3.3675 0
M  V30 658 H 59.1629 2.6329 -2.70108 0
M  V30 659 H 61.5499 2.38244 -1.74137 0
M  V30 660 H 61.6309 0.759894 -2.44252 0
M  V30 661 H 61.2749 1.76835 -4.76121 0
M  V30 662 H 61.2049 3.39091 -4.02895 0
M  V30 663 H 63.6959 2.1107 -3.13461 0
M  V30 664 H 64.0089 3.78354 -6.73846 0
M  V30 665 H 62.3539 3.4087 -6.05667 0
M  V30 666 H 65.5449 2.54419 -3.92923 0
M  V30 667 H 65.7179 3.30721 -5.5725 0
M  V30 668 N 59.124 1.23083 0.984299 0
M  V30 669 C 60.372 1.05848 1.72165 0
M  V30 670 C 60.693 -0.406049 1.90726 0
M  V30 671 O 59.963 -1.29139 1.47309 0
M  V30 672 H 58.543 0.388685 0.637913 0
M  V30 673 H 61.205 1.54736 1.18503 0
M  V30 674 H 60.301 1.54327 2.71274 0
M  V30 675 N 60.6021 -1.18246 1.0419 0
M  V30 676 C 61.5321 -2.24127 0.654914 0
M  V30 677 C 62.5131 -1.66617 -0.342451 0
M  V30 678 O 63.6981 -1.92924 -0.222277 0
M  V30 679 C 60.8281 -3.47295 0.0183757 0
M  V30 680 C 59.7821 -4.17563 0.939414 0
M  V30 681 C 59.1081 -5.34438 0.167286 0
M  V30 682 C 60.4081 -4.70917 2.25908 0
M  V30 683 H 62.1021 -2.56753 1.54007 0
M  V30 684 H 59.6481 -1.23414 0.74195 0
M  V30 685 H 61.6011 -4.20572 -0.264082 0
M  V30 686 H 60.3251 -3.13907 -0.901664 0
M  V30 687 H 58.9841 -3.46186 1.20628 0
M  V30 688 H 58.6321 -4.97298 -0.7552 0
M  V30 689 H 58.3321 -5.82388 0.780901 0
M  V30 690 H 59.8561 -6.10504 -0.108125 0
M  V30 691 H 61.2701 -5.35882 2.03724 0
M  V30 692 H 59.6671 -5.29406 2.82577 0
M  V30 693 H 60.7371 -3.88272 2.9047 0
M  V30 694 N 62.0802 -0.821533 -1.34494 0
M  V30 695 C 63.0102 -0.257138 -2.3208 0
M  V30 696 C 63.9912 0.625645 -1.58176 0
M  V30 697 O 65.1762 0.552811 -1.86166 0
M  V30 698 C 62.3062 0.582958 -3.42372 0
M  V30 699 C 61.2602 -0.202571 -4.2752 0
M  V30 700 C 60.5862 0.760179 -5.29269 0
M  V30 701 C 61.8862 -1.40998 -5.02908 0
M  V30 702 H 63.5802 -1.07247 -2.79532 0
M  V30 703 H 61.1262 -0.517163 -1.34393 0
M  V30 704 H 63.0792 0.987972 -4.09655 0
M  V30 705 H 61.8032 1.43133 -2.93565 0
M  V30 706 H 60.4622 -0.588936 -3.61838 0
M  V30 707 H 60.1102 1.60447 -4.76724 0
M  V30 708 H 59.8102 0.238809 -5.87115 0
M  V30 709 H 61.3342 1.16308 -5.9942 0
M  V30 710 H 62.7482 -1.07905 -5.63054 0
M  V30 711 H 61.1452 -1.86689 -5.70322 0
M  V30 712 H 62.2152 -2.1889 -4.32684 0
M  V30 713 N 63.5583 1.46682 -0.576371 0
M  V30 714 C 64.9743 1.57822 -0.237562 0
M  V30 715 C 65.1743 1.57237 1.26011 0
M  V30 716 O 64.2303 1.48596 2.04146 0
M  V30 717 C 65.5433 2.87499 -0.881168 0
M  V30 718 C 67.0913 3.01119 -0.85417 0
M  V30 719 C 67.5663 4.33524 -1.4772 0
M  V30 720 N 69.0573 4.40207 -1.44125 0
M  V30 721 C 69.7923 5.4126 -1.89276 0
M  V30 722 N 69.2883 6.49021 -2.42371 0
M  V30 723 N 71.0813 5.32422 -1.80231 0
M  V30 724 H 63.2323 1.45306 -1.54919 0
M  V30 725 H 65.4953 0.692733 -0.647167 0
M  V30 726 H 65.2013 2.9372 -1.93447 0
M  V30 727 H 65.0753 3.75224 -0.385592 0
M  V30 728 H 67.4623 2.94485 0.190491 0
M  V30 729 H 67.5433 2.14887 -1.3877 0
M  V30 730 H 67.1873 4.40916 -2.52103 0
M  V30 731 H 67.1173 5.1852 -0.918947 0
M  V30 732 H 69.6083 3.62931 -1.05307 0
M  V30 733 H 69.9213 7.2233 -2.74698 0
M  V30 734 H 68.2663 6.49858 -2.46393 0
M  V30 735 H 71.4573 4.47137 -1.38514 0
M  V30 736 H 71.6303 6.11034 -2.15735 0
M  V30 737 N 65.0364 0.313813 1.54444 0
M  V30 738 C 65.9464 -0.565714 2.27677 0
M  V30 739 C 66.9624 -1.13754 1.31666 0
M  V30 740 O 68.1384 -1.15959 1.64668 0
M  V30 741 C 65.2034 -1.71528 3.01296 0
M  V30 742 C 64.2644 -1.17624 4.12872 0
M  V30 743 C 63.4974 -2.27102 4.8297 0
M  V30 744 O 63.7204 -3.47256 4.52514 0
M  V30 745 O 62.6544 -1.9307 5.70094 0
M  V30 746 H 66.4804 0.0287296 3.03686 0
M  V30 747 H 64.0654 0.0798312 1.49187 0
M  V30 748 H 65.9474 -2.38476 3.4743 0
M  V30 749 H 64.6224 -2.29608 2.2817 0
M  V30 750 H 63.5294 -0.472124 3.71109 0
M  V30 751 H 64.8624 -0.640695 4.88012 0
M  V30 752 N 66.5145 -1.57545 0.0417849 0
M  V30 753 C 67.4775 -2.09885 -0.92093 0
M  V30 754 C 68.4775 -1.01648 -1.24596 0
M  V30 755 O 69.6675 -1.27759 -1.1842 0
M  V30 756 C 66.7995 -2.57527 -2.23367 0
M  V30 757 H 67.9925 -2.96236 -0.467382 0
M  V30 758 H 65.5455 -1.5493 -0.206467 0
M  V30 759 H 66.2805 -1.74542 -2.73323 0
M  V30 760 H 66.0655 -3.36613 -2.01083 0
M  V30 761 H 67.5555 -2.98201 -2.92346 0
M  V30 762 N 67.9926 0.231505 -1.5589 0
M  V30 763 C 69.2396 0.957352 -1.78441 0
M  V30 764 C 69.5676 1.84726 -0.60882 0
M  V30 765 O 68.8226 1.91416 0.40725 0
M  V30 766 C 69.1216 1.83577 -3.0665 0
M  V30 767 C 68.7876 1.09993 -4.37278 0
M  V30 768 C 67.4496 0.896629 -4.72773 0
M  V30 769 C 69.8016 0.579558 -5.17968 0
M  V30 770 C 67.1296 0.160896 -5.86479 0
M  V30 771 C 69.4816 -0.142783 -6.32439 0
M  V30 772 C 68.1456 -0.357427 -6.66542 0
M  V30 773 H 67.4156 0.35032 -0.65296 0
M  V30 774 H 70.0626 0.226259 -1.90159 0
M  V30 775 H 68.3676 2.63441 -2.90011 0
M  V30 776 H 70.0646 2.39934 -3.21298 0
M  V30 777 H 66.6546 1.26835 -4.09403 0
M  V30 778 H 70.8386 0.724125 -4.90989 0
M  V30 779 H 66.0946 -0.0157293 -6.11398 0
M  V30 780 H 70.2686 -0.553559 -6.94196 0
M  V30 781 H 67.8956 -0.929466 -7.54497 0
M  V30 782 N 69.4707 1.49531 0.497807 0
M  V30 783 C 70.8867 1.36365 0.829266 0
M  V30 784 C 71.0867 0.399184 1.97506 0
M  V30 785 O 70.1427 -0.167977 2.51941 0
M  V30 786 C 71.4557 2.77153 1.16647 0
M  V30 787 C 73.0037 2.85877 1.27449 0
M  V30 788 C 73.4787 4.2744 1.64497 0
M  V30 789 N 74.9697 4.30265 1.7154 0
M  V30 790 C 75.7047 5.3677 2.01656 0
M  V30 791 N 75.2007 6.53516 2.29976 0
M  V30 792 N 76.9937 5.24189 2.02934 0
M  V30 793 H 69.1447 2.10831 -0.257703 0
M  V30 794 H 71.4077 0.946534 -0.0527091 0
M  V30 795 H 71.1137 3.49442 0.397872 0
M  V30 796 H 70.9877 3.12722 2.10915 0
M  V30 797 H 73.3747 2.13824 2.0338 0
M  V30 798 H 73.4557 2.53887 0.312244 0
M  V30 799 H 73.0997 5.00021 0.891151 0
M  V30 800 H 73.0297 4.56896 2.61827 0
M  V30 801 H 75.5207 3.4607 1.51802 0
M  V30 802 H 75.8337 7.30506 2.52153 0
M  V30 803 H 74.1787 6.56737 2.27425 0
M  V30 804 H 77.3697 4.31988 1.80289 0
M  V30 805 H 77.5427 6.07286 2.26071 0
M  V30 806 N 70.9488 -0.749086 1.3866 0
M  V30 807 C 72.1768 -1.53834 1.38358 0
M  V30 808 C 72.5918 -1.88783 -0.0255219 0
M  V30 809 O 71.9488 -1.53101 -0.993292 0
M  V30 810 C 71.9998 -2.83468 2.2434 0
M  V30 811 O 71.7208 -2.50008 3.5976 0
M  V30 812 C 73.2218 -3.7758 2.32267 0
M  V30 813 H 70.4418 -0.47585 0.473083 0
M  V30 814 H 72.9858 -0.926726 1.82297 0
M  V30 815 H 71.1408 -3.40995 1.83851 0
M  V30 816 H 71.5548 -3.33182 4.05081 0
M  V30 817 H 73.0288 -4.65478 2.96706 0
M  V30 818 H 73.5058 -4.18334 1.33765 0
M  V30 819 H 74.1118 -3.25976 2.73166 0
M  V30 820 N 72.4269 -1.23603 -0.977757 0
M  V30 821 C 73.3369 -1.03632 -2.1047 0
M  V30 822 C 74.3529 0.0199435 -1.73989 0
M  V30 823 O 75.5289 -0.176076 -2.00629 0
M  V30 824 C 72.5939 -0.63276 -3.40877 0
M  V30 825 C 71.6549 -1.76437 -3.91367 0
M  V30 826 C 70.8879 -1.37997 -5.15551 0
M  V30 827 O 71.1109 -0.265357 -5.69782 0
M  V30 828 O 70.0449 -2.20201 -5.60174 0
M  V30 829 H 73.8709 -1.98086 -2.30208 0
M  V30 830 H 71.4559 -1.02332 -1.08851 0
M  V30 831 H 73.3379 -0.418761 -4.19314 0
M  V30 832 H 72.0129 0.282754 -3.22463 0
M  V30 833 H 70.9199 -2.03304 -3.14036 0
M  V30 834 H 72.2529 -2.6583 -4.14241 0
M  V30 835 N 73.905 1.17692 -1.04816 0
M  V30 836 C 75.153 1.87488 -0.754497 0
M  V30 837 C 75.474 1.81205 0.720407 0
M  V30 838 O 74.744 1.23544 1.52032 0
M  V30 839 H 73.324 0.694101 -0.276102 0
M  V30 840 H 75.986 1.42793 -1.32651 0
M  V30 841 H 75.082 2.93328 -1.06606 0
M  V30 842 N 75.3831 0.828654 1.34056 0
M  V30 843 C 76.2931 0.256725 2.33191 0
M  V30 844 C 77.3091 -0.611898 1.62886 0
M  V30 845 O 78.4851 -0.51844 1.94613 0
M  V30 846 C 75.5501 -0.567238 3.42028 0
M  V30 847 C 74.6111 0.324458 4.28072 0
M  V30 848 C 73.8441 -0.460274 5.31712 0
M  V30 849 O 74.0671 -1.693 5.44696 0
M  V30 850 O 73.0011 0.160391 6.01686 0
M  V30 851 H 76.8271 1.07739 2.83947 0
M  V30 852 H 74.4121 0.59093 1.37217 0
M  V30 853 H 76.2941 -1.03582 4.08471 0
M  V30 854 H 74.9691 -1.36513 2.93506 0
M  V30 855 H 73.8761 0.840659 3.64532 0
M  V30 856 H 75.2091 1.08685 4.8005 0
M  V30 857 N 76.8612 -1.46375 0.584142 0
M  V30 858 C 78.1072 -2.02678 0.0703716 0
M  V30 859 C 78.4402 -1.4545 -1.28678 0
M  V30 860 O 77.7152 -0.62014 -1.84349 0
M  V30 861 C 77.9982 -3.60099 0.00614674 0
M  V30 862 C 77.8512 -4.27709 1.3923 0
M  V30 863 C 79.1702 -4.34598 -0.693742 0
M  V30 864 H 76.2892 -0.736504 0.027047 0
M  V30 865 H 78.9312 -1.74501 0.751615 0
M  V30 866 H 77.0812 -3.84236 -0.574009 0
M  V30 867 H 78.7532 -4.14832 2.01773 0
M  V30 868 H 76.9962 -3.87016 1.95962 0
M  V30 869 H 77.6672 -5.36478 1.29982 0
M  V30 870 H 80.1432 -4.15615 -0.200869 0
M  V30 871 H 79.0192 -5.44318 -0.707714 0
M  V30 872 H 79.2802 -4.05759 -1.75533 0
M  V30 873 N 78.3393 -0.321999 -1.54275 0
M  V30 874 C 79.2693 0.537411 -2.27231 0
M  V30 875 C 80.2503 1.12064 -1.27968 0
M  V30 876 O 81.4353 1.14606 -1.56777 0
M  V30 877 C 78.5653 1.69919 -3.02894 0
M  V30 878 C 77.5193 1.24534 -4.09482 0
M  V30 879 C 76.8453 2.49394 -4.72977 0
M  V30 880 C 78.1453 0.361335 -5.21049 0
M  V30 881 H 79.8393 -0.0711406 -2.99315 0
M  V30 882 H 77.3853 -0.0356555 -1.43956 0
M  V30 883 H 79.3383 2.30668 -3.52662 0
M  V30 884 H 78.0623 2.33431 -2.28424 0
M  V30 885 H 76.7213 0.660782 -3.60596 0
M  V30 886 H 76.3693 3.11265 -3.95124 0
M  V30 887 H 76.0693 2.19718 -5.44975 0
M  V30 888 H 77.5933 3.10908 -5.25517 0
M  V30 889 H 79.0073 0.875072 -5.66582 0
M  V30 890 H 77.4043 0.157428 -5.99893 0
M  V30 891 H 78.4743 -0.60822 -4.8107 0
M  V30 892 N 79.8174 1.5752 -0.0501392 0
M  V30 893 C 81.0664 1.91827 0.623328 0
M  V30 894 C 81.3794 0.930222 1.72065 0
M  V30 895 O 82.5854 1.1653 2.4522 0
M  V30 896 C 81.0414 3.40692 1.16003 0
M  V30 897 C 80.6494 4.479 0.0948811 0
M  V30 898 C 82.3934 3.84034 1.80881 0
M  V30 899 C 80.3004 5.87879 0.644411 0
M  V30 900 H 79.2304 0.715918 0.236596 0
M  V30 901 H 81.8814 1.83115 -0.118861 0
M  V30 902 H 80.2634 3.44405 1.9545 0
M  V30 903 H 81.4374 4.55775 -0.678675 0
M  V30 904 H 79.7524 4.13892 -0.45637 0
M  V30 905 H 82.3494 4.85984 2.22988 0
M  V30 906 H 82.6924 3.20225 2.6601 0
M  V30 907 H 83.2254 3.82833 1.0809 0
M  V30 908 H 79.9644 6.55282 -0.169229 0
M  V30 909 H 79.4844 5.83567 1.38598 0
M  V30 910 H 81.1634 6.37098 1.12763 0
M  V30 911 N 81.2955 -0.223234 1.56011 0
M  V30 912 C 82.2255 -1.27988 1.95298 0
M  V30 913 C 83.2065 -1.48976 0.820979 0
M  V30 914 O 84.3915 -1.61188 1.08315 0
M  V30 915 C 81.5215 -2.63 2.26822 0
M  V30 916 C 80.4755 -2.56671 3.42497 0
M  V30 917 C 79.8015 -3.95697 3.59622 0
M  V30 918 C 81.1015 -2.11601 4.77517 0
M  V30 919 H 82.7955 -0.953525 2.8381 0
M  V30 920 H 80.3415 -0.457244 1.36548 0
M  V30 921 H 82.2945 -3.37077 2.52898 0
M  V30 922 H 81.0185 -2.9732 1.35161 0
M  V30 923 H 79.6775 -1.85051 3.16467 0
M  V30 924 H 79.3255 -4.27322 2.6534 0
M  V30 925 H 79.0255 -3.92345 4.37424 0
M  V30 926 H 80.5495 -4.71438 3.88044 0
M  V30 927 H 81.9635 -2.7542 5.02809 0
M  V30 928 H 80.3605 -2.19311 5.5859 0
M  V30 929 H 81.4305 -1.06824 4.72987 0
M  V30 930 N 82.7736 -1.49793 -0.48987 0
M  V30 931 C 84.0016 -1.63568 -1.26701 0
M  V30 932 C 84.4166 -0.311465 -1.86213 0
M  V30 933 O 83.7736 0.704416 -1.68357 0
M  V30 934 C 83.8246 -2.71284 -2.38929 0
M  V30 935 O 83.5456 -3.9857 -1.81861 0
M  V30 936 C 85.0466 -2.95864 -3.3012 0
M  V30 937 H 82.2666 -0.550342 -0.383881 0
M  V30 938 H 84.8106 -1.95898 -0.586864 0
M  V30 939 H 82.9656 -2.417 -3.02753 0
M  V30 940 H 83.3796 -4.57993 -2.55622 0
M  V30 941 H 84.8536 -3.74941 -4.05121 0
M  V30 942 H 85.3306 -2.06206 -3.87783 0
M  V30 943 H 85.9366 -3.26907 -2.72051 0
M  V30 944 N 84.2517 0.741722 -1.39055 0
M  V30 945 C 85.4997 1.49818 -1.35643 0
M  V30 946 C 85.8207 1.94938 0.0491642 0
M  V30 947 O 85.0907 1.68505 0.999141 0
M  V30 948 H 83.6707 0.555755 -0.499144 0
M  V30 949 H 86.3327 0.880957 -1.73854 0
M  V30 950 H 85.4287 2.38348 -2.01486 0
M  V30 951 N 85.7298 1.2412 0.971189 0
M  V30 952 C 86.9548 1.10667 1.75407 0
M  V30 953 C 87.3798 -0.337048 1.85056 0
M  V30 954 O 86.7378 -1.24396 1.31892 0
M  V30 955 C 86.7858 1.74726 3.15441 0
M  V30 956 O 85.8898 1.01566 3.99697 0
M  V30 957 H 85.2308 0.387341 0.539317 0
M  V30 958 H 87.7608 1.64358 1.2185 0
M  V30 959 H 87.7708 1.80341 3.6598 0
M  V30 960 H 86.4458 2.79773 3.07734 0
M  V30 961 H 85.0228 1.03713 3.58187 0
M  V30 962 N 87.2079 -1.17134 1.05439 0
M  V30 963 C 88.4559 -1.87085 0.764429 0
M  V30 964 C 88.7769 -1.81584 -0.710787 0
M  V30 965 O 88.0469 -1.24349 -1.51374 0
M  V30 966 H 86.6269 -0.692627 0.279779 0
M  V30 967 H 89.2889 -1.42087 1.33406 0
M  V30 968 H 88.3849 -2.92759 1.0816 0
M  V30 969 N 88.686 -0.835752 -1.33615 0
M  V30 970 C 89.914 -0.443344 -2.02094 0
M  V30 971 C 90.329 0.954522 -1.62894 0
M  V30 972 O 89.686 1.61982 -0.840723 0
M  V30 973 C 89.737 -0.550775 -3.5728 0
M  V30 974 O 89.458 -1.89356 -3.95065 0
M  V30 975 C 90.959 -0.154919 -4.43029 0
M  V30 976 H 88.179 -0.176359 -0.647409 0
M  V30 977 H 90.723 -1.12746 -1.70612 0
M  V30 978 H 88.878 0.0853997 -3.87306 0
M  V30 979 H 89.292 -1.87687 -4.89769 0
M  V30 980 H 90.766 -0.281144 -5.51284 0
M  V30 981 H 91.243 0.902863 -4.2982 0
M  V30 982 H 91.849 -0.765404 -4.18356 0
M  V30 983 N 90.1641 1.46063 -0.591896 0
M  V30 984 C 91.0941 2.33172 0.123673 0
M  V30 985 C 92.0751 1.45897 0.87453 0
M  V30 986 O 93.2601 1.74698 0.848181 0
M  V30 987 C 90.3901 3.28336 1.13194 0
M  V30 988 C 89.3441 4.25124 0.495324 0
M  V30 989 C 88.6701 5.09863 1.61071 0
M  V30 990 C 89.9701 5.19143 -0.573425 0
M  V30 991 H 91.6641 2.93252 -0.603646 0
M  V30 992 H 89.2101 1.41014 -0.291741 0
M  V30 993 H 91.1631 3.88137 1.64097 0
M  V30 994 H 89.8871 2.66383 1.88965 0
M  V30 995 H 88.5461 3.66599 0.00729452 0
M  V30 996 H 88.1941 4.44288 2.35832 0
M  V30 997 H 87.8941 5.75417 1.19035 0
M  V30 998 H 89.4181 5.72529 2.12233 0
M  V30 999 H 90.8321 5.73106 -0.1491 0
M  V30 1000 H 89.2291 5.93089 -0.914636 0
M  V30 1001 H 90.2991 4.62519 -1.45617 0
M  V30 1002 N 91.6422 0.330177 1.54103 0
M  V30 1003 C 92.6052 -0.520144 2.2322 0
M  V30 1004 C 93.6052 -1.03828 1.22786 0
M  V30 1005 O 94.7952 -0.929652 1.4732 0
M  V30 1006 C 91.9272 -1.72317 2.94142 0
M  V30 1007 H 93.1202 0.0841605 2.99782 0
M  V30 1008 H 90.6732 0.0813433 1.56088 0
M  V30 1009 H 91.4082 -2.36653 2.21734 0
M  V30 1010 H 91.1932 -1.35898 3.67796 0
M  V30 1011 H 92.6832 -2.3266 3.46784 0
M  V30 1012 N 93.1203 -1.57491 0.0584922 0
M  V30 1013 C 94.0533 -2.07533 -0.948969 0
M  V30 1014 C 95.0313 -0.977444 -1.29942 0
M  V30 1015 O 96.2153 -1.2499 -1.41102 0
M  V30 1016 C 93.3423 -2.52192 -2.2609 0
M  V30 1017 C 92.3883 -3.73287 -2.06298 0
M  V30 1018 S 93.2213 -5.18603 -1.33459 0
M  V30 1019 C 94.3773 -5.66583 -2.65959 0
M  V30 1020 H 94.6103 -2.92662 -0.523118 0
M  V30 1021 H 92.1433 -1.53631 -0.153954 0
M  V30 1022 H 94.1013 -2.78585 -3.01498 0
M  V30 1023 H 92.7623 -1.67356 -2.65802 0
M  V30 1024 H 91.9553 -4.0248 -3.03357 0
M  V30 1025 H 91.5573 -3.47199 -1.39029 0
M  V30 1026 H 93.8493 -5.72616 -3.62101 0
M  V30 1027 H 94.7923 -6.65684 -2.41393 0
M  V30 1028 H 95.2003 -4.94342 -2.72554 0
M  V30 1029 N 94.5984 0.214957 -1.56127 0
M  V30 1030 C 95.5084 1.28727 -1.96129 0
M  V30 1031 C 96.5244 1.50916 -0.866044 0
M  V30 1032 O 97.7004 1.63918 -1.17016 0
M  V30 1033 C 94.7654 2.61569 -2.27558 0
M  V30 1034 C 93.8264 2.47625 -3.50685 0
M  V30 1035 C 93.0594 3.74132 -3.80606 0
M  V30 1036 O 93.2824 4.77438 -3.12104 0
M  V30 1037 O 92.2164 3.70849 -4.74083 0
M  V30 1038 H 96.0424 0.977855 -2.87527 0
M  V30 1039 H 93.6274 0.418358 -1.43423 0
M  V30 1040 H 95.5094 3.40012 -2.48938 0
M  V30 1041 H 94.1844 2.92178 -1.39332 0
M  V30 1042 H 93.0914 1.67361 -3.34576 0
M  V30 1043 H 94.4244 2.21954 -4.39315 0
M  V30 1044 N 96.0765 1.50051 0.48192 0
M  V30 1045 C 97.0395 1.67584 1.5636 0
M  V30 1046 C 98.0395 0.546894 1.51214 0
M  V30 1047 O 99.2295 0.813725 1.54026 0
M  V30 1048 C 96.3615 1.691 2.96003 0
M  V30 1049 H 97.5545 2.64078 1.42136 0
M  V30 1050 H 95.1075 1.39369 0.707533 0
M  V30 1051 H 95.8425 0.742589 3.15684 0
M  V30 1052 H 95.6275 2.51105 3.01146 0
M  V30 1053 H 97.1175 1.84656 3.74556 0
M  V30 1054 N 97.5546 -0.734337 1.39446 0
M  V30 1055 C 98.4846 -1.86155 1.40955 0
M  V30 1056 C 99.4656 -1.67898 0.272827 0
M  V30 1057 O 100.651 -1.88207 0.478743 0
M  V30 1058 C 97.7806 -3.23912 1.25294 0
M  V30 1059 C 96.7346 -3.56808 2.36373 0
M  V30 1060 C 96.0606 -4.93508 2.058 0
M  V30 1061 C 97.3606 -3.59713 3.78687 0
M  V30 1062 H 99.0546 -1.8515 2.35287 0
M  V30 1063 H 96.6006 -0.889367 1.13253 0
M  V30 1064 H 98.5536 -4.02443 1.2497 0
M  V30 1065 H 97.2776 -3.25446 0.274308 0
M  V30 1066 H 95.9366 -2.80606 2.35914 0
M  V30 1067 H 95.5846 -4.91623 1.06374 0
M  V30 1068 H 95.2846 -5.16486 2.80208 0
M  V30 1069 H 96.8086 -5.74396 2.07128 0
M  V30 1070 H 98.2226 -4.2832 3.81071 0
M  V30 1071 H 96.6196 -3.94209 4.52459 0
M  V30 1072 H 97.6896 -2.59504 4.09617 0
M  V30 1073 N 99.0327 -1.24633 -0.964593 0
M  V30 1074 C 100.279 -1.08949 -1.71049 0
M  V30 1075 C 100.612 0.370302 -1.90637 0
M  V30 1076 O 99.8867 1.27349 -1.47011 0
M  V30 1077 C 100.17 -1.83329 -3.0994 0
M  V30 1078 C 100.023 -3.37077 -2.97824 0
M  V30 1079 C 101.342 -1.60846 -4.09654 0
M  V30 1080 H 98.4607 -0.397178 -0.620821 0
M  V30 1081 H 101.103 -1.5334 -1.12191 0
M  V30 1082 H 99.2527 -1.45597 -3.60186 0
M  V30 1083 H 100.925 -3.84425 -2.5498 0
M  V30 1084 H 99.1677 -3.65298 -2.33965 0
M  V30 1085 H 99.8387 -3.84324 -3.96231 0
M  V30 1086 H 102.315 -1.93674 -3.68279 0
M  V30 1087 H 101.191 -2.1534 -5.04896 0
M  V30 1088 H 101.452 -0.547434 -4.38698 0
M  V30 1089 N 100.511 1.16574 -1.06058 0
M  V30 1090 C 101.458 2.20883 -0.669263 0
M  V30 1091 C 102.428 1.62729 0.332918 0
M  V30 1092 O 103.613 1.895 0.222346 0
M  V30 1093 C 100.753 3.45049 -0.0593572 0
M  V30 1094 C 99.8658 4.17458 -1.11143 0
M  V30 1095 C 99.0008 5.29135 -0.467916 0
M  V30 1096 C 98.0398 5.93343 -1.50369 0
M  V30 1097 N 97.1768 6.96516 -0.883706 0
M  V30 1098 H 102.017 2.53709 -1.5632 0
M  V30 1099 H 99.5538 1.24616 -0.781625 0
M  V30 1100 H 101.512 4.16033 0.311771 0
M  V30 1101 H 100.142 3.12781 0.797992 0
M  V30 1102 H 99.1938 3.45101 -1.60029 0
M  V30 1103 H 100.506 4.61307 -1.89731 0
M  V30 1104 H 99.6598 6.06684 -0.0436871 0
M  V30 1105 H 98.3988 4.86443 0.349864 0
M  V30 1106 H 97.4038 5.14517 -1.93784 0
M  V30 1107 H 98.6288 6.38114 -2.32352 0
M  V30 1108 H 96.5748 6.55943 -0.086595 0
M  V30 1109 H 96.4918 7.38723 -1.607 0
M  V30 1110 H 97.7598 7.77993 -0.484543 0
M  V30 1111 N 101.989 0.842826 1.3317 0
M  V30 1112 C 102.937 0.267495 2.31057 0
M  V30 1113 C 103.931 -0.602682 1.58316 0
M  V30 1114 O 105.137 -0.491803 1.73151 0
M  V30 1115 H 101.512 0.0677813 0.748939 0
M  V30 1116 H 103.483 1.10754 2.77085 0
M  V30 1117 C 102.232 -0.539331 3.43492 0
M  V30 1118 H 101.555 0.12095 3.99617 0
M  V30 1119 H 102.995 -0.90767 4.14171 0
M  V30 1120 C 101.454 -1.71981 2.89697 0
M  V30 1121 O 101.984 -2.81862 2.86211 0
M  V30 1122 N 100.19 -1.54299 2.46252 0
M  V30 1123 H 99.7369 -0.649143 2.49287 0
M  V30 1124 H 99.6949 -2.33431 2.10612 0
M  V30 1125 N 103.467 -1.45747 0.599634 0
M  V30 1126 C 104.397 -2.33235 -0.111306 0
M  V30 1127 C 105.378 -1.46359 -0.866781 0
M  V30 1128 O 106.563 -1.75146 -0.838904 0
M  V30 1129 C 103.693 -3.28932 -1.11451 0
M  V30 1130 C 102.647 -4.25381 -0.472772 0
M  V30 1131 C 101.973 -5.1071 -1.58365 0
M  V30 1132 C 103.273 -5.18831 0.600948 0
M  V30 1133 H 104.967 -2.92927 0.61919 0
M  V30 1134 H 102.513 -1.40857 0.299215 0
M  V30 1135 H 104.466 -3.89002 -1.62036 0
M  V30 1136 H 103.19 -2.67381 -1.8755 0
M  V30 1137 H 101.849 -3.66598 0.0121472 0
M  V30 1138 H 101.497 -4.45533 -2.33473 0
M  V30 1139 H 101.197 -5.7604 -1.15982 0
M  V30 1140 H 102.721 -5.73647 -2.09194 0
M  V30 1141 H 104.135 -5.73019 0.179491 0
M  V30 1142 H 102.532 -5.92595 0.946076 0
M  V30 1143 H 103.602 -4.6174 1.48068 0
M  V30 1144 N 104.945 -0.338344 -1.53925 0
M  V30 1145 C 106.192 0.259758 -2.00827 0
M  V30 1146 C 106.52 1.50973 -1.22628 0
M  V30 1147 O 105.775 1.93379 -0.300509 0
M  V30 1148 C 106.074 0.62448 -3.51902 0
M  V30 1149 C 105.74 -0.528006 -4.47798 0
M  V30 1150 C 104.402 -0.844298 -4.73735 0
M  V30 1151 C 106.754 -1.30143 -5.0469 0
M  V30 1152 C 104.082 -1.93648 -5.53821 0
M  V30 1153 C 106.434 -2.38382 -5.85967 0
M  V30 1154 C 105.098 -2.70576 -6.10201 0
M  V30 1155 H 104.368 0.0950523 -0.734878 0
M  V30 1156 H 107.015 -0.465182 -1.85764 0
M  V30 1157 H 105.32 1.43006 -3.64769 0
M  V30 1158 H 107.017 1.09905 -3.85645 0
M  V30 1159 H 103.607 -0.271421 -4.2774 0
M  V30 1160 H 107.791 -1.07033 -4.84621 0
M  V30 1161 H 103.047 -2.19021 -5.70824 0
M  V30 1162 H 107.221 -2.98746 -6.29066 0
M  V30 1163 H 104.848 -3.55333 -6.72044 0
M  V30 1164 N 106.423 1.57458 -0.0668435 0
M  V30 1165 C 107.386 2.11323 0.887422 0
M  V30 1166 C 108.386 1.03618 1.22964 0
M  V30 1167 O 109.576 1.29626 1.16373 0
M  V30 1168 C 106.708 2.61048 2.19242 0
M  V30 1169 H 107.901 2.96942 0.420194 0
M  V30 1170 H 105.454 1.55239 0.181793 0
M  V30 1171 H 106.189 1.78868 2.70512 0
M  V30 1172 H 105.974 3.39769 1.95702 0
M  V30 1173 H 107.464 3.02814 2.87565 0
M  V30 1174 N 107.901 -0.206675 1.56239 0
M  V30 1175 C 109.312 -0.772383 1.69974 0
M  V30 1176 C 109.663 -1.84353 0.671436 0
M  V30 1177 O 108.788 -2.15695 -0.174491 0
M  V30 1178 C 109.383 -1.40779 3.08167 0
M  V30 1179 C 107.942 -1.92072 3.23706 0
M  V30 1180 C 107.089 -0.786347 2.65917 0
M  V30 1181 H 110.04 0.0182223 1.5869 0
M  V30 1182 H 110.061 -2.27696 3.04852 0
M  V30 1183 H 109.573 -0.627958 3.82986 0
M  V30 1184 H 107.674 -2.7281 2.53782 0
M  V30 1185 H 107.787 -2.09046 4.31087 0
M  V30 1186 H 106.151 -1.1976 2.24788 0
M  V30 1187 H 106.934 -0.0189416 3.43295 0
M  V30 1188 N 109.379 -1.50304 -0.473955 0
M  V30 1189 C 110.627 -1.60832 -1.22382 0
M  V30 1190 C 110.948 -0.30939 -1.9253 0
M  V30 1191 O 110.218 0.67296 -1.83978 0
M  V30 1192 H 108.798 -0.592652 -0.454723 0
M  V30 1193 H 111.46 -1.87068 -0.546968 0
M  V30 1194 H 110.556 -2.41803 -1.97327 0
M  V30 1195 N 110.857 0.726932 -1.39834 0
M  V30 1196 C 111.767 1.87131 -1.41489 0
M  V30 1197 C 112.783 1.71239 -0.308757 0
M  V30 1198 O 113.959 1.93701 -0.551529 0
M  V30 1199 C 111.024 3.22811 -1.26468 0
M  V30 1200 C 110.085 3.51039 -2.47124 0
M  V30 1201 C 109.318 4.80245 -2.3281 0
M  V30 1202 O 109.541 5.54537 -1.33585 0
M  V30 1203 O 108.475 5.08554 -3.21957 0
M  V30 1204 H 112.301 1.8869 -2.3797 0
M  V30 1205 H 109.886 0.875837 -1.21035 0
M  V30 1206 H 111.768 4.03877 -1.20255 0
M  V30 1207 H 110.443 3.22005 -0.330862 0
M  V30 1208 H 109.35 2.70027 -2.58914 0
M  V30 1209 H 110.683 3.56632 -3.39227 0
M  V30 1210 N 112.336 1.25143 0.95797 0
M  V30 1211 C 113.752 1.01892 1.22842 0
M  V30 1212 C 113.952 -0.266311 1.99732 0
M  V30 1213 O 113.008 -0.979913 2.3271 0
M  V30 1214 C 114.321 2.24004 2.00606 0
M  V30 1215 C 115.869 2.28731 2.13662 0
M  V30 1216 C 116.344 3.5049 2.94823 0
M  V30 1217 N 117.835 3.50866 3.02403 0
M  V30 1218 C 118.57 4.4174 3.65586 0
M  V30 1219 N 118.066 5.42882 4.30408 0
M  V30 1220 N 119.859 4.29429 3.62694 0
M  V30 1221 H 112.01 2.07718 0.443493 0
M  V30 1222 H 114.273 0.912031 0.258657 0
M  V30 1223 H 113.979 3.17395 1.51503 0
M  V30 1224 H 113.853 2.26907 3.01319 0
M  V30 1225 H 116.24 1.35865 2.61963 0
M  V30 1226 H 116.321 2.29848 1.12265 0
M  V30 1227 H 115.965 4.43676 2.47213 0
M  V30 1228 H 115.895 3.46617 3.96439 0
M  V30 1229 H 118.386 2.777 2.56302 0
M  V30 1230 H 118.699 6.0844 4.76467 0
M  V30 1231 H 117.044 5.46758 4.29047 0
M  V30 1232 H 120.235 3.49643 3.11236 0
M  V30 1233 H 120.408 5.00448 4.1165 0
M  V30 1234 N 113.814 -1.1601 1.06675 0
M  V30 1235 C 115.06 -1.86909 0.786945 0
M  V30 1236 C 115.393 -1.81717 -0.685018 0
M  V30 1237 O 114.668 -1.23551 -1.50218 0
M  V30 1238 C 114.951 -3.36313 1.28707 0
M  V30 1239 C 114.804 -3.50175 2.82308 0
M  V30 1240 C 116.123 -4.3084 0.898071 0
M  V30 1241 H 113.242 -0.678677 0.287343 0
M  V30 1242 H 115.884 -1.36336 1.32334 0
M  V30 1243 H 114.034 -3.79513 0.830768 0
M  V30 1244 H 115.706 -3.15886 3.36175 0
M  V30 1245 H 113.949 -2.91959 3.20847 0
M  V30 1246 H 114.62 -4.55116 3.12368 0
M  V30 1247 H 117.096 -3.95561 1.29114 0
M  V30 1248 H 115.972 -5.33876 1.27543 0
M  V30 1249 H 116.233 -4.41662 -0.196651 0
M  V30 1250 N 115.292 -0.849877 -1.32721 0
M  V30 1251 C 116.222 -0.306308 -2.31482 0
M  V30 1252 C 117.203 0.591952 -1.59468 0
M  V30 1253 O 118.388 0.513199 -1.87296 0
M  V30 1254 C 115.518 0.510204 -3.43532 0
M  V30 1255 C 114.472 -0.293209 -4.26994 0
M  V30 1256 C 113.798 0.647743 -5.30762 0
M  V30 1257 C 115.098 -1.51634 -4.99804 0
M  V30 1258 H 116.792 -1.13153 -2.77195 0
M  V30 1259 H 114.338 -0.545553 -1.33266 0
M  V30 1260 H 116.291 0.900856 -4.11658 0
M  V30 1261 H 115.015 1.36874 -2.96535 0
M  V30 1262 H 113.674 -0.665555 -3.60508 0
M  V30 1263 H 113.322 1.50299 -4.8002 0
M  V30 1264 H 113.022 0.11422 -5.87489 0
M  V30 1265 H 114.546 1.03567 -6.01753 0
M  V30 1266 H 115.96 -1.19824 -5.60638 0
M  V30 1267 H 114.357 -1.98745 -5.66234 0
M  V30 1268 H 115.427 -2.28018 -4.27943 0
M  V30 1269 N 116.77 1.45427 -0.607355 0
M  V30 1270 C 118.016 2.0254 -0.102607 0
M  V30 1271 C 118.349 1.47478 1.26348 0
M  V30 1272 O 117.624 0.64939 1.83339 0
M  V30 1273 C 117.907 3.60044 -0.0634347 0
M  V30 1274 C 117.76 4.2544 -1.46017 0
M  V30 1275 C 119.079 4.35646 0.624514 0
M  V30 1276 H 116.198 0.73598 -0.0387607 0
M  V30 1277 H 118.84 1.73284 -0.779282 0
M  V30 1278 H 116.99 3.85101 0.512808 0
M  V30 1279 H 118.662 4.11569 -2.08347 0
M  V30 1280 H 116.905 3.83849 -2.02094 0
M  V30 1281 H 117.576 5.34342 -1.385 0
M  V30 1282 H 120.052 4.15882 0.134723 0
M  V30 1283 H 118.928 5.45376 0.621028 0
M  V30 1284 H 119.189 4.08501 1.69055 0
M  V30 1285 N 118.248 0.346503 1.53744 0
M  V30 1286 C 119.659 -0.136779 1.86198 0
M  V30 1287 C 120.01 -1.49749 1.26766 0
M  V30 1288 O 119.135 -2.08417 0.582355 0
M  V30 1289 C 119.73 -0.254966 3.37839 0
M  V30 1290 C 118.289 -0.682482 3.70161 0
M  V30 1291 C 117.436 0.181981 2.76702 0
M  V30 1292 H 120.387 0.565994 1.48264 0
M  V30 1293 H 120.408 -1.08195 3.64793 0
M  V30 1294 H 119.92 0.735526 3.81066 0
M  V30 1295 H 118.021 -1.68189 3.3248 0
M  V30 1296 H 118.134 -0.470326 4.76786 0
M  V30 1297 H 116.498 -0.34615 2.52337 0
M  V30 1298 H 117.281 1.16966 3.2276 0
M  V30 1299 N 119.726 -1.57421 0.075193 0
M  V30 1300 C 120.972 -1.93905 -0.594025 0
M  V30 1301 C 121.305 -0.955701 -1.69056 0
M  V30 1302 O 120.58 0.0145373 -1.94495 0
M  V30 1303 C 120.863 -3.40638 -1.1678 0
M  V30 1304 C 120.716 -4.49733 -0.0776792 0
M  V30 1305 C 122.035 -3.88259 -2.07228 0
M  V30 1306 H 119.154 -0.705105 -0.214466 0
M  V30 1307 H 121.796 -1.8947 0.141854 0
M  V30 1308 H 119.946 -3.44549 -1.79494 0
M  V30 1309 H 121.618 -4.57942 0.555573 0
M  V30 1310 H 119.861 -4.29751 0.591286 0
M  V30 1311 H 120.532 -5.49549 -0.519603 0
M  V30 1312 H 123.008 -3.86376 -1.54445 0
M  V30 1313 H 121.884 -4.91533 -2.44308 0
M  V30 1314 H 122.145 -3.26396 -2.98191 0
M  V30 1315 N 121.204 0.198386 -1.56346 0
M  V30 1316 C 122.434 0.934215 -1.84271 0
M  V30 1317 C 122.842 1.77496 -0.655125 0
M  V30 1318 O 122.185 1.7961 0.385488 0
M  V30 1319 C 122.247 1.88278 -3.06254 0
M  V30 1320 C 121.911 1.22431 -4.40295 0
M  V30 1321 C 122.908 0.602839 -5.16393 0
M  V30 1322 C 120.593 1.22915 -4.87029 0
M  V30 1323 C 122.587 -0.0050083 -6.374 0
M  V30 1324 C 120.274 0.617465 -6.07973 0
M  V30 1325 C 121.272 0.00146341 -6.83 0
M  V30 1326 O 120.96 -0.600642 -8.01653 0
M  V30 1327 H 120.692 0.278245 -0.616081 0
M  V30 1328 H 123.246 0.211626 -2.04307 0
M  V30 1329 H 121.476 2.64498 -2.82095 0
M  V30 1330 H 123.165 2.48612 -3.20853 0
M  V30 1331 H 123.931 0.591265 -4.81382 0
M  V30 1332 H 119.81 1.69801 -4.28589 0
M  V30 1333 H 123.354 -0.48643 -6.95902 0
M  V30 1334 H 119.251 0.62653 -6.42452 0
M  V30 1335 H 120.019 -0.497225 -8.16988 0
M  V30 1336 N 122.682 1.50554 0.465978 0
M  V30 1337 C 123.93 1.61479 1.21528 0
M  V30 1338 C 124.251 0.319596 1.92363 0
M  V30 1339 O 123.521 -0.663194 1.84333 0
M  V30 1340 H 122.101 0.595055 0.451573 0
M  V30 1341 H 124.763 1.87355 0.53704 0
M  V30 1342 H 123.859 2.42846 1.96042 0
M  V30 1343 N 124.16 -0.719506 1.40217 0
M  V30 1344 C 125.107 -1.83359 1.40172 0
M  V30 1345 C 126.077 -1.64065 0.259206 0
M  V30 1346 O 127.262 -1.85254 0.456677 0
M  V30 1347 C 124.402 -3.2103 1.26624 0
M  V30 1348 C 123.515 -3.51923 2.50548 0
M  V30 1349 C 122.65 -4.79079 2.29471 0
M  V30 1350 C 121.689 -5.02863 3.48992 0
M  V30 1351 N 120.826 -6.2123 3.27135 0
M  V30 1352 H 125.666 -1.82733 2.35399 0
M  V30 1353 H 123.203 -0.892688 1.16917 0
M  V30 1354 H 125.161 -4.00524 1.16776 0
M  V30 1355 H 123.791 -3.20895 0.350176 0
M  V30 1356 H 122.843 -2.67014 2.70939 0
M  V30 1357 H 124.155 -3.6541 3.39525 0
M  V30 1358 H 123.309 -5.66582 2.16955 0
M  V30 1359 H 122.048 -4.67794 1.37913 0
M  V30 1360 H 121.053 -4.13816 3.6199 0
M  V30 1361 H 122.278 -5.16023 4.41472 0
M  V30 1362 H 120.224 -6.11204 2.38256 0
M  V30 1363 H 120.141 -6.35375 4.09675 0
M  V30 1364 H 121.409 -7.11532 3.18344 0
M  V30 1365 N 125.638 -1.25649 -0.95132 0
M  V30 1366 C 126.885 -1.10594 -1.69633 0
M  V30 1367 C 127.213 0.352515 -1.91279 0
M  V30 1368 O 126.468 1.27601 -1.4838 0
M  V30 1369 C 126.767 -1.80909 -3.08231 0
M  V30 1370 C 126.433 -3.30825 -3.06375 0
M  V30 1371 C 125.095 -3.71722 -3.05576 0
M  V30 1372 C 127.447 -4.26589 -2.99452 0
M  V30 1373 C 124.775 -5.06788 -2.95606 0
M  V30 1374 C 127.127 -5.61683 -2.91024 0
M  V30 1375 C 125.791 -6.01904 -2.88562 0
M  V30 1376 H 125.061 -0.404691 -0.620731 0
M  V30 1377 H 127.708 -1.55964 -1.11119 0
M  V30 1378 H 126.013 -1.27979 -3.70309 0
M  V30 1379 H 127.71 -1.6671 -3.64704 0
M  V30 1380 H 124.3 -2.98287 -3.07771 0
M  V30 1381 H 128.484 -3.95982 -2.99185 0
M  V30 1382 H 123.74 -5.37126 -2.92071 0
M  V30 1383 H 127.914 -6.35578 -2.84629 0
M  V30 1384 H 125.541 -7.06521 -2.80593 0
M  V30 1385 N 127.117 1.15442 -1.07289 0
M  V30 1386 C 128.342 1.90638 -0.816828 0
M  V30 1387 C 128.767 1.77445 0.624083 0
M  V30 1388 O 128.125 1.10671 1.43602 0
M  V30 1389 C 128.173 3.39008 -1.22906 0
M  V30 1390 O 127.277 4.10701 -0.373975 0
M  V30 1391 H 126.618 0.593555 -0.297638 0
M  V30 1392 H 129.148 1.46198 -1.43134 0
M  V30 1393 H 129.158 3.89801 -1.20497 0
M  V30 1394 H 127.833 3.47929 -2.27856 0
M  V30 1395 H 126.41 3.70046 -0.460499 0
M  V30 1396 N 128.595 0.856903 1.32268 0
M  V30 1397 C 129.505 0.306131 2.32594 0
M  V30 1398 C 130.521 -0.577209 1.64147 0
M  V30 1399 O 131.697 -0.477043 1.95669 0
M  V30 1400 C 128.762 -0.494561 3.43154 0
M  V30 1401 C 127.823 0.415186 4.27288 0
M  V30 1402 C 127.056 -0.347387 5.32568 0
M  V30 1403 O 127.279 -1.57708 5.48165 0
M  V30 1404 O 126.213 0.287982 6.01211 0
M  V30 1405 H 130.039 1.13737 2.81598 0
M  V30 1406 H 127.624 0.619902 1.35932 0
M  V30 1407 H 129.506 -0.948944 4.10576 0
M  V30 1408 H 128.181 -1.30257 2.96336 0
M  V30 1409 H 127.088 0.917793 3.62667 0
M  V30 1410 H 128.421 1.18844 4.77637 0
M  V30 1411 N 130.073 -1.45103 0.615059 0
M  V30 1412 C 131.489 -1.57137 0.279322 0
M  V30 1413 C 131.689 -1.60523 -1.21797 0
M  V30 1414 O 130.745 -1.53956 -2.00134 0
M  V30 1415 C 132.058 -2.85062 0.957083 0
M  V30 1416 C 133.606 -2.98749 0.933706 0
M  V30 1417 C 134.081 -4.29455 1.59162 0
M  V30 1418 N 135.572 -4.36231 1.55746 0
M  V30 1419 C 136.307 -5.36051 2.0356 0
M  V30 1420 N 135.803 -6.42367 2.59494 0
M  V30 1421 N 137.596 -5.27456 1.94284 0
M  V30 1422 H 129.747 -1.41148 1.58717 0
M  V30 1423 H 132.01 -0.675331 0.665306 0
M  V30 1424 H 131.716 -2.88488 2.01166 0
M  V30 1425 H 131.59 -3.7407 0.48494 0
M  V30 1426 H 133.977 -2.94886 -0.112347 0
M  V30 1427 H 134.058 -2.11132 1.44419 0
M  V30 1428 H 133.702 -4.34077 2.63704 0
M  V30 1429 H 133.632 -5.15901 1.0561 0
M  V30 1430 H 136.123 -3.60011 1.14893 0
M  V30 1431 H 136.436 -7.14793 2.93752 0
M  V30 1432 H 134.781 -6.43097 2.63537 0
M  V30 1433 H 137.972 -4.43308 1.5032 0
M  V30 1434 H 138.145 -6.05099 2.3186 0
M  V30 1435 N 131.551 -0.354651 -1.53558 0
M  V30 1436 C 132.798 0.238443 -2.01091 0
M  V30 1437 C 133.126 1.49663 -1.24222 0
M  V30 1438 O 132.381 1.93049 -0.321003 0
M  V30 1439 C 132.68 0.587121 -3.52545 0
M  V30 1440 C 132.346 -0.575472 -4.47213 0
M  V30 1441 C 131.008 -0.894497 -4.72813 0
M  V30 1442 C 133.36 -1.35489 -5.03281 0
M  V30 1443 C 130.688 -1.99511 -5.51736 0
M  V30 1444 C 133.04 -2.44583 -5.83405 0
M  V30 1445 C 131.704 -2.77033 -6.07296 0
M  V30 1446 H 130.974 0.0872526 -0.735845 0
M  V30 1447 H 133.621 -0.484859 -1.8526 0
M  V30 1448 H 131.926 1.39129 -3.66265 0
M  V30 1449 H 133.623 1.05809 -3.86789 0
M  V30 1450 H 130.213 -0.316774 -4.27428 0
M  V30 1451 H 134.397 -1.12167 -4.83459 0
M  V30 1452 H 129.653 -2.25063 -5.68469 0
M  V30 1453 H 133.827 -3.05401 -6.25862 0
M  V30 1454 H 131.454 -3.6244 -6.68237 0
M  V30 1455 N 133.029 1.57378 -0.0835403 0
M  V30 1456 C 134.259 1.97975 0.590713 0
M  V30 1457 C 134.667 0.961083 1.62972 0
M  V30 1458 O 134.01 -0.0590879 1.83605 0
M  V30 1459 C 134.072 3.34915 1.3066 0
M  V30 1460 C 133.736 4.55069 0.419698 0
M  V30 1461 C 134.733 5.18868 -0.32749 0
M  V30 1462 C 132.418 5.0114 0.341137 0
M  V30 1463 C 134.412 6.27098 -1.14134 0
M  V30 1464 C 132.099 6.0924 -0.476374 0
M  V30 1465 C 133.097 6.72083 -1.21627 0
M  V30 1466 O 132.785 7.781 -2.02028 0
M  V30 1467 H 132.517 0.655818 0.163947 0
M  V30 1468 H 135.071 2.04807 -0.156021 0
M  V30 1469 H 133.301 3.24733 2.09966 0
M  V30 1470 H 134.99 3.60037 1.87424 0
M  V30 1471 H 135.756 4.84211 -0.276459 0
M  V30 1472 H 131.635 4.51996 0.90668 0
M  V30 1473 H 135.179 6.7608 -1.71935 0
M  V30 1474 H 131.076 6.43329 -0.528927 0
M  V30 1475 H 131.844 7.95034 -1.94586 0
M  V30 1476 N 134.507 -0.190092 1.56449 0
M  V30 1477 C 135.417 -1.25591 1.98152 0
M  V30 1478 C 136.433 -1.49519 0.889944 0
M  V30 1479 O 137.609 -1.62036 1.19609 0
M  V30 1480 C 134.674 -2.57916 2.3169 0
M  V30 1481 C 133.735 -2.42015 3.5458 0
M  V30 1482 C 132.968 -3.6803 3.8651 0
M  V30 1483 O 133.191 -4.72413 3.1966 0
M  V30 1484 O 132.125 -3.6326 4.79923 0
M  V30 1485 H 135.951 -0.931988 2.89046 0
M  V30 1486 H 133.536 -0.395488 1.4407 0
M  V30 1487 H 135.418 -3.36008 2.54316 0
M  V30 1488 H 134.093 -2.89925 1.43963 0
M  V30 1489 H 133 -1.62017 3.37196 0
M  V30 1490 H 134.333 -2.14937 4.4279 0
M  V30 1491 N 135.985 -1.50799 -0.457987 0
M  V30 1492 C 137.234 -1.6168 -1.20593 0
M  V30 1493 C 137.547 -0.32888 -1.92815 0
M  V30 1494 O 138.753 -0.316773 -2.69646 0
M  V30 1495 C 137.209 -2.8545 -2.19195 0
M  V30 1496 C 136.817 -4.21168 -1.52715 0
M  V30 1497 C 138.561 -3.05681 -2.94549 0
M  V30 1498 C 136.468 -5.3611 -2.4968 0
M  V30 1499 H 135.398 -0.602134 -0.453818 0
M  V30 1500 H 138.049 -1.77245 -0.475031 0
M  V30 1501 H 136.431 -2.63472 -2.95632 0
M  V30 1502 H 137.605 -4.53449 -0.819775 0
M  V30 1503 H 135.92 -4.06648 -0.895922 0
M  V30 1504 H 138.517 -3.88727 -3.67145 0
M  V30 1505 H 138.86 -2.17929 -3.54701 0
M  V30 1506 H 139.393 -3.27901 -2.25223 0
M  V30 1507 H 136.132 -6.26057 -1.94249 0
M  V30 1508 H 135.652 -5.0823 -3.18532 0
M  V30 1509 H 137.331 -5.6722 -3.11241 0
M  V30 1510 N 137.463 0.71206 -1.40597 0
M  V30 1511 C 138.426 1.80785 -1.40888 0
M  V30 1512 C 139.426 1.57937 -0.302103 0
M  V30 1513 O 140.616 1.64913 -0.561182 0
M  V30 1514 C 137.748 3.18927 -1.20409 0
M  V30 1515 H 138.941 1.81924 -2.38419 0
M  V30 1516 H 136.494 0.91805 -1.26497 0
M  V30 1517 H 137.229 3.23436 -0.236522 0
M  V30 1518 H 137.014 3.36911 -2.00582 0
M  V30 1519 H 138.504 3.98949 -1.23408 0
M  V30 1520 N 138.941 1.26152 0.944643 0
M  V30 1521 C 139.871 1.09902 2.06019 0
M  V30 1522 C 140.852 0.00519538 1.70099 0
M  V30 1523 O 142.037 0.176583 1.93396 0
M  V30 1524 C 139.167 0.727562 3.39594 0
M  V30 1525 C 138.121 1.77274 3.89561 0
M  V30 1526 C 137.447 1.25569 5.19747 0
M  V30 1527 C 138.747 3.17357 4.14827 0
M  V30 1528 H 140.441 2.03217 2.19871 0
M  V30 1529 H 137.987 0.978452 1.05652 0
M  V30 1530 H 139.94 0.600777 4.17095 0
M  V30 1531 H 138.664 -0.241287 3.25707 0
M  V30 1532 H 137.323 1.88814 3.14237 0
M  V30 1533 H 136.971 0.276783 5.02238 0
M  V30 1534 H 136.671 1.95433 5.54148 0
M  V30 1535 H 138.195 1.1415 5.99835 0
M  V30 1536 H 139.609 3.08914 4.82954 0
M  V30 1537 H 138.006 3.84781 4.60504 0
M  V30 1538 H 139.076 3.63673 3.20734 0
M  V30 1539 N 140.419 -1.14872 1.07899 0
M  V30 1540 C 141.329 -2.2341 0.715915 0
M  V30 1541 C 142.345 -1.71808 -0.275306 0
M  V30 1542 O 143.521 -2.01039 -0.120545 0
M  V30 1543 C 140.586 -3.46474 0.125168 0
M  V30 1544 C 139.647 -4.13039 1.17034 0
M  V30 1545 C 138.88 -5.30229 0.607688 0
M  V30 1546 O 139.103 -5.675 -0.574497 0
M  V30 1547 O 138.037 -5.86444 1.35526 0
M  V30 1548 H 141.863 -2.56808 1.62121 0
M  V30 1549 H 139.448 -1.22702 0.852322 0
M  V30 1550 H 141.33 -4.20917 -0.201729 0
M  V30 1551 H 140.005 -3.14811 -0.753364 0
M  V30 1552 H 138.912 -3.40493 1.54968 0
M  V30 1553 H 140.245 -4.48796 2.02097 0
M  V30 1554 N 141.898 -0.863906 -1.31812 0
M  V30 1555 C 142.861 -0.320212 -2.26952 0
M  V30 1556 C 143.861 0.525369 -1.51975 0
M  V30 1557 O 145.051 0.335547 -1.70938 0
M  V30 1558 C 142.183 0.545919 -3.365 0
M  V30 1559 H 143.376 -1.16004 -2.76556 0
M  V30 1560 H 140.929 -0.638995 -1.42641 0
M  V30 1561 H 141.664 1.40718 -2.92179 0
M  V30 1562 H 141.449 -0.0594674 -3.92055 0
M  V30 1563 H 142.939 0.918796 -4.07367 0
M  V30 1564 N 143.376 1.44774 -0.622745 0
M  V30 1565 C 144.624 2.01721 -0.123655 0
M  V30 1566 C 144.945 1.49172 1.25589 0
M  V30 1567 O 144.215 0.691974 1.83272 0
M  V30 1568 H 142.795 0.745777 -0.0427225 0
M  V30 1569 H 145.457 1.77382 -0.807559 0
M  V30 1570 H 144.553 3.11984 -0.0849534 0
M  V30 1571 N 144.854 0.36279 1.53368 0
M  V30 1572 C 145.784 -0.476976 2.28576 0
M  V30 1573 C 146.765 -1.08631 1.30894 0
M  V30 1574 O 147.95 -1.10409 1.59761 0
M  V30 1575 C 145.08 -1.61828 3.07293 0
M  V30 1576 C 144.034 -1.13633 4.1264 0
M  V30 1577 C 143.36 -2.36766 4.79423 0
M  V30 1578 C 144.66 -0.223061 5.21823 0
M  V30 1579 H 146.354 0.150474 2.99022 0
M  V30 1580 H 143.9 0.0738103 1.43811 0
M  V30 1581 H 145.853 -2.21237 3.58653 0
M  V30 1582 H 144.577 -2.27292 2.34533 0
M  V30 1583 H 143.236 -0.564945 3.62221 0
M  V30 1584 H 142.884 -3.0068 4.03238 0
M  V30 1585 H 142.584 -2.05192 5.50609 0
M  V30 1586 H 144.108 -2.96865 5.33576 0
M  V30 1587 H 145.522 -0.724545 5.68703 0
M  V30 1588 H 143.919 0.001678 6.001 0
M  V30 1589 H 144.989 0.735553 4.79289 0
M  V30 1590 N 146.332 -1.57332 0.0918853 0
M  V30 1591 C 147.578 -1.94524 -0.573425 0
M  V30 1592 C 147.911 -0.973578 -1.68033 0
M  V30 1593 O 147.186 -0.00609226 -1.94499 0
M  V30 1594 C 147.469 -3.41858 -1.13161 0
M  V30 1595 C 147.322 -4.4979 -0.0299747 0
M  V30 1596 C 148.641 -3.90435 -2.03098 0
M  V30 1597 H 145.76 -0.70734 -0.206975 0
M  V30 1598 H 148.402 -1.89309 0.161942 0
M  V30 1599 H 146.552 -3.46433 -1.7583 0
M  V30 1600 H 148.224 -4.57327 0.604112 0
M  V30 1601 H 146.467 -4.291 0.636833 0
M  V30 1602 H 147.138 -5.50069 -0.461287 0
M  V30 1603 H 149.614 -3.87992 -1.50338 0
M  V30 1604 H 148.49 -4.94097 -2.39081 0
M  V30 1605 H 148.751 -3.29541 -2.94712 0
M  V30 1606 N 147.81 0.181792 -1.56548 0
M  V30 1607 C 149.056 0.901431 -1.81665 0
M  V30 1608 C 149.389 1.82347 -0.668075 0
M  V30 1609 O 148.664 1.91669 0.330615 0
M  V30 1610 C 148.947 1.70618 -3.17115 0
M  V30 1611 C 148.8 0.807964 -4.42484 0
M  V30 1612 C 150.119 2.67605 -3.49393 0
M  V30 1613 H 147.238 0.32627 -0.660846 0
M  V30 1614 H 149.88 0.168134 -1.89255 0
M  V30 1615 H 148.03 2.33133 -3.10775 0
M  V30 1616 H 149.702 0.19649 -4.60881 0
M  V30 1617 H 147.945 0.115411 -4.33646 0
M  V30 1618 H 148.616 1.40632 -5.33785 0
M  V30 1619 H 151.092 2.15218 -3.56118 0
M  V30 1620 H 149.968 3.20985 -4.45264 0
M  V30 1621 H 150.229 3.47298 -2.73563 0
M  V30 1622 N 149.288 1.51039 0.449983 0
M  V30 1623 C 150.198 1.74261 1.57067 0
M  V30 1624 C 151.214 0.626363 1.62335 0
M  V30 1625 O 152.39 0.907162 1.79812 0
M  V30 1626 C 149.455 1.85114 2.93144 0
M  V30 1627 C 148.516 3.0893 2.98095 0
M  V30 1628 C 147.749 3.19256 4.27681 0
M  V30 1629 O 147.972 2.35835 5.19363 0
M  V30 1630 O 146.906 4.12144 4.38658 0
M  V30 1631 H 150.732 2.69303 1.40391 0
M  V30 1632 H 148.317 1.35389 0.631688 0
M  V30 1633 H 150.199 1.94311 3.73926 0
M  V30 1634 H 148.874 0.932588 3.09975 0
M  V30 1635 H 147.781 3.0522 2.16314 0
M  V30 1636 H 149.114 4.00433 2.86206 0
M  V30 1637 N 150.766 -0.704594 1.40972 0
M  V30 1638 C 152.182 -1.01406 1.23244 0
M  V30 1639 C 152.382 -2.01169 0.115399 0
M  V30 1640 O 151.438 -2.47021 -0.523147 0
M  V30 1641 C 152.751 -1.54728 2.57836 0
M  V30 1642 C 154.299 -1.66658 2.64942 0
M  V30 1643 C 154.774 -2.23383 3.9983 0
M  V30 1644 N 156.265 -2.30756 4.01629 0
M  V30 1645 C 157 -2.75655 5.02794 0
M  V30 1646 N 156.496 -3.20225 6.14352 0
M  V30 1647 N 158.289 -2.75138 4.90159 0
M  V30 1648 H 150.44 -0.0435285 2.12355 0
M  V30 1649 H 152.703 -0.0818951 0.944456 0
M  V30 1650 H 152.409 -0.888832 3.40283 0
M  V30 1651 H 152.283 -2.53084 2.79693 0
M  V30 1652 H 154.67 -2.31617 1.8286 0
M  V30 1653 H 154.751 -0.668717 2.46904 0
M  V30 1654 H 154.395 -1.59043 4.82357 0
M  V30 1655 H 154.325 -3.23904 4.15203 0
M  V30 1656 H 156.816 -1.99291 3.21079 0
M  V30 1657 H 157.129 -3.53084 6.87424 0
M  V30 1658 H 155.474 -3.18156 6.17901 0
M  V30 1659 H 158.665 -2.39661 4.02095 0
M  V30 1660 H 158.838 -3.09812 5.6914 0
M  V30 1661 N 152.244 -1.26651 -0.937939 0
M  V30 1662 C 153.174 -1.10993 -2.05433 0
M  V30 1663 C 154.155 -0.0142161 -1.70094 0
M  V30 1664 O 155.34 -0.186837 -1.93299 0
M  V30 1665 C 152.47 -0.745561 -3.39203 0
M  V30 1666 C 151.424 -1.79337 -3.88616 0
M  V30 1667 C 150.75 -1.28324 -5.19073 0
M  V30 1668 C 152.05 -3.19553 -4.13138 0
M  V30 1669 H 153.744 -2.0438 -2.1879 0
M  V30 1670 H 151.29 -0.984041 -1.05131 0
M  V30 1671 H 153.243 -0.622888 -4.16771 0
M  V30 1672 H 151.967 0.22401 -3.25831 0
M  V30 1673 H 150.626 -1.90477 -3.13231 0
M  V30 1674 H 150.274 -0.303414 -5.02084 0
M  V30 1675 H 149.974 -1.98369 -5.53103 0
M  V30 1676 H 151.498 -1.1733 -5.99221 0
M  V30 1677 H 152.912 -3.11471 -4.81309 0
M  V30 1678 H 151.309 -3.87218 -4.58457 0
M  V30 1679 H 152.379 -3.65368 -3.18801 0
M  V30 1680 N 153.722 1.14298 -1.08507 0
M  V30 1681 C 154.999 1.81544 -0.728088 0
M  V30 1682 C 155.379 1.95838 0.78808 0
M  V30 1683 O 154.727 1.51904 1.70697 0
M  V30 1684 C 154.937 3.17169 -1.45619 0
M  V30 1685 C 156.285 3.9265 -1.61591 0
M  V30 1686 O 157.309 3.26762 -1.41793 0
M  V30 1687 O 156.168 5.10807 -1.94263 0
M  V30 1688 H 153.262 0.78491 -0.260471 0
M  V30 1689 H 155.808 1.21307 -1.18671 0
M  V30 1690 H 154.58 3.01934 -2.489 0
M  V30 1691 H 154.203 3.851 -0.989124 0
M  V30 1692 N 155.201 0.870884 1.31352 0
M  V30 1693 C 156.431 0.496049 2.00557 0
M  V30 1694 C 156.839 -0.916241 1.65534 0
M  V30 1695 O 156.182 -1.61188 0.881134 0
M  V30 1696 C 156.244 0.574418 3.54881 0
M  V30 1697 C 155.908 1.94849 4.1338 0
M  V30 1698 C 156.905 2.91611 4.30417 0
M  V30 1699 C 154.59 2.25005 4.49086 0
M  V30 1700 C 156.584 4.16672 4.82352 0
M  V30 1701 C 154.271 3.50315 5.00722 0
M  V30 1702 C 155.269 4.45964 5.17306 0
M  V30 1703 O 154.957 5.69052 5.67833 0
M  V30 1704 H 154.689 0.191664 0.64826 0
M  V30 1705 H 157.243 1.17409 1.68536 0
M  V30 1706 H 155.473 -0.160549 3.86367 0
M  V30 1707 H 157.162 0.212879 4.05341 0
M  V30 1708 H 157.928 2.69622 4.03149 0
M  V30 1709 H 153.807 1.51332 4.35453 0
M  V30 1710 H 157.351 4.91336 4.95211 0
M  V30 1711 H 153.248 3.72147 5.27424 0
M  V30 1712 H 154.016 5.71236 5.86201 0
M  V30 1713 N 156.679 -1.44442 0.630414 0
M  V30 1714 C 158.09 -1.85434 0.217063 0
M  V30 1715 C 158.441 -1.52748 -1.23136 0
M  V30 1716 O 157.566 -0.965205 -1.93682 0
M  V30 1717 C 158.161 -3.36581 0.387168 0
M  V30 1718 C 156.72 -3.76389 0.0283297 0
M  V30 1719 C 155.867 -2.68296 0.700889 0
M  V30 1720 H 158.818 -1.34919 0.83562 0
M  V30 1721 H 158.839 -3.78657 -0.374086 0
M  V30 1722 H 158.351 -3.60339 1.44144 0
M  V30 1723 H 156.452 -3.58246 -1.02423 0
M  V30 1724 H 156.565 -4.77095 0.437892 0
M  V30 1725 H 154.929 -2.54335 0.136267 0
M  V30 1726 H 155.712 -2.94887 1.75774 0
M  V30 1727 N 158.157 -0.370918 -1.53173 0
M  V30 1728 C 159.387 0.217389 -2.05453 0
M  V30 1729 C 159.795 1.42568 -1.24382 0
M  V30 1730 O 159.138 1.81571 -0.278839 0
M  V30 1731 C 159.2 0.669827 -3.53205 0
M  V30 1732 C 158.864 -0.4225 -4.55043 0
M  V30 1733 C 159.861 -1.27407 -5.04047 0
M  V30 1734 C 157.546 -0.58427 -4.9889 0
M  V30 1735 C 159.54 -2.27271 -5.95505 0
M  V30 1736 C 157.227 -1.58627 -5.90153 0
M  V30 1737 C 158.225 -2.42892 -6.38351 0
M  V30 1738 O 157.913 -3.41382 -7.27814 0
M  V30 1739 H 157.645 0.0408171 -0.674767 0
M  V30 1740 H 160.199 -0.5292 -1.98466 0
M  V30 1741 H 158.429 1.4681 -3.57748 0
M  V30 1742 H 160.118 1.18173 -3.88317 0
M  V30 1743 H 160.884 -1.16031 -4.70916 0
M  V30 1744 H 156.763 0.061851 -4.60959 0
M  V30 1745 H 160.307 -2.93079 -6.33049 0
M  V30 1746 H 156.204 -1.70048 -6.22699 0
M  V30 1747 H 156.972 -3.37173 -7.45826 0
M  V30 1748 N 159.635 1.57281 -0.100228 0
M  V30 1749 C 160.883 1.94153 0.561157 0
M  V30 1750 C 161.204 0.983157 1.68401 0
M  V30 1751 O 160.474 0.0361132 1.95867 0
M  V30 1752 H 159.054 0.716791 0.210283 0
M  V30 1753 H 161.716 1.94202 -0.164765 0
M  V30 1754 H 160.812 2.96709 0.968008 0
M  V30 1755 N 161.113 -0.173488 1.56642 0
M  V30 1756 C 162.39 -0.917617 1.7274 0
M  V30 1757 C 162.77 -2.00484 0.661027 0
M  V30 1758 O 162.118 -2.26184 -0.32453 0
M  V30 1759 C 162.328 -1.48433 3.15862 0
M  V30 1760 C 163.676 -1.95809 3.76754 0
M  V30 1761 O 164.7 -1.58231 3.19126 0
M  V30 1762 O 163.559 -2.65024 4.77938 0
M  V30 1763 H 160.653 -0.431772 0.705338 0
M  V30 1764 H 163.199 -0.161487 1.6893 0
M  V30 1765 H 161.971 -0.701715 3.84957 0
M  V30 1766 H 161.594 -2.30471 3.23989 0
M  V30 1767 N 162.591 -1.51276 -0.441967 0
M  V30 1768 C 163.819 -1.67516 -1.21434 0
M  V30 1769 C 164.234 -0.37055 -1.85128 0
M  V30 1770 O 163.591 0.650498 -1.70513 0
M  V30 1771 C 163.642 -2.78748 -2.30177 0
M  V30 1772 O 163.363 -4.04154 -1.69089 0
M  V30 1773 C 164.864 -3.06217 -3.20541 0
M  V30 1774 H 162.084 -0.562276 -0.366178 0
M  V30 1775 H 164.628 -1.97666 -0.524244 0
M  V30 1776 H 162.783 -2.5121 -2.94911 0
M  V30 1777 H 163.197 -4.65894 -2.40922 0
M  V30 1778 H 164.671 -3.8764 -3.92987 0
M  V30 1779 H 165.148 -2.18439 -3.81026 0
M  V30 1780 H 165.754 -3.35397 -2.61513 0
M  V30 1781 N 164.069 0.697108 -1.41344 0
M  V30 1782 C 165.48 1.27697 -1.36199 0
M  V30 1783 C 165.831 1.9615 -0.0443463 0
M  V30 1784 O 164.956 1.98689 0.857419 0
M  V30 1785 C 165.551 2.32223 -2.46694 0
M  V30 1786 C 164.11 2.8579 -2.44952 0
M  V30 1787 C 163.257 1.59807 -2.26621 0
M  V30 1788 H 166.208 0.491968 -1.50882 0
M  V30 1789 H 166.229 3.1348 -2.15664 0
M  V30 1790 H 165.741 1.82373 -3.42581 0
M  V30 1791 H 163.842 3.3982 -1.52817 0
M  V30 1792 H 163.955 3.36325 -3.41207 0
M  V30 1793 H 162.319 1.8556 -1.7447 0
M  V30 1794 H 163.102 1.11956 -3.24532 0
M  V30 1795 N 165.547 1.27147 0.931209 0
M  V30 1796 C 166.963 1.04475 1.20653 0
M  V30 1797 C 167.163 -0.223885 2.00252 0
M  V30 1798 O 166.219 -0.930332 2.34736 0
M  V30 1799 C 167.532 2.28209 1.95809 0
M  V30 1800 C 169.08 2.33211 2.08762 0
M  V30 1801 C 169.555 3.56665 2.87323 0
M  V30 1802 N 171.046 3.57201 2.94892 0
M  V30 1803 C 171.781 4.49395 3.56134 0
M  V30 1804 N 171.277 5.51889 4.18796 0
M  V30 1805 N 173.07 4.37026 3.53504 0
M  V30 1806 H 165.221 2.08612 0.399333 0
M  V30 1807 H 167.484 0.917312 0.239253 0
M  V30 1808 H 167.19 3.20538 1.44736 0
M  V30 1809 H 167.064 2.33247 2.96438 0
M  V30 1810 H 169.451 1.41391 2.59023 0
M  V30 1811 H 169.532 2.32178 1.07364 0
M  V30 1812 H 169.176 4.4882 2.37746 0
M  V30 1813 H 169.106 3.54948 3.88998 0
M  V30 1814 H 171.597 2.83074 2.50354 0
M  V30 1815 H 171.91 6.18409 4.63454 0
M  V30 1816 H 170.255 5.55735 4.17353 0
M  V30 1817 H 173.446 3.56166 3.03749 0
M  V30 1818 H 173.619 5.09067 4.00942 0
M  V30 1819 N 167.025 -1.13721 1.09112 0
M  V30 1820 C 168.436 -1.6648 0.845068 0
M  V30 1821 C 168.787 -1.85911 -0.62701 0
M  V30 1822 O 167.912 -1.57556 -1.48341 0
M  V30 1823 C 168.507 -3.02413 1.52748 0
M  V30 1824 C 167.066 -3.52176 1.32849 0
M  V30 1825 C 166.213 -2.27492 1.58564 0
M  V30 1826 H 169.164 -0.976872 1.25072 0
M  V30 1827 H 169.185 -3.68223 0.958752 0
M  V30 1828 H 168.697 -2.88238 2.59885 0
M  V30 1829 H 166.798 -3.7156 0.278137 0
M  V30 1830 H 166.911 -4.32499 2.0611 0
M  V30 1831 H 165.275 -2.33923 1.00758 0
M  V30 1832 H 166.058 -2.15886 2.66924 0
M  V30 1833 N 168.503 -0.877838 -1.30888 0
M  V30 1834 C 169.413 -0.343096 -2.32078 0
M  V30 1835 C 170.429 0.551022 -1.65045 0
M  V30 1836 O 171.605 0.445854 -1.96403 0
M  V30 1837 C 168.67 0.439905 -3.43898 0
M  V30 1838 C 167.731 -0.483111 -4.26573 0
M  V30 1839 C 166.964 0.262616 -5.33053 0
M  V30 1840 O 167.187 1.48967 -5.50604 0
M  V30 1841 O 166.121 -0.383593 -6.00676 0
M  V30 1842 H 169.947 -1.18203 -2.79753 0
M  V30 1843 H 167.532 -0.64145 -1.34929 0
M  V30 1844 H 169.414 0.883504 -4.12034 0
M  V30 1845 H 168.089 1.25526 -2.98371 0
M  V30 1846 H 166.996 -0.975374 -3.61161 0
M  V30 1847 H 168.329 -1.26427 -4.75686 0
M  V30 1848 N 169.982 1.44106 -0.638065 0
M  V30 1849 C 171.259 1.95453 -0.0759321 0
M  V30 1850 C 171.639 1.57984 1.40015 0
M  V30 1851 O 170.987 0.857361 2.11806 0
M  V30 1852 C 171.197 3.47655 -0.306132 0
M  V30 1853 C 172.545 4.24114 -0.203008 0
M  V30 1854 O 173.569 3.55405 -0.237871 0
M  V30 1855 O 172.428 5.46381 -0.113827 0
M  V30 1856 H 169.522 0.826797 0.0183332 0
M  V30 1857 H 172.068 1.54122 -0.710251 0
M  V30 1858 H 170.84 3.68 -1.3301 0
M  V30 1859 H 170.463 3.95949 0.361991 0
M  V30 1860 N 171.46 0.379036 1.52974 0
M  V30 1861 C 172.706 -0.206727 2.01744 0
M  V30 1862 C 173.039 -1.47314 1.26539 0
M  V30 1863 O 172.314 -1.91084 0.362903 0
M  V30 1864 C 172.597 -0.485066 3.56818 0
M  V30 1865 C 172.45 0.795919 4.42702 0
M  V30 1866 C 173.769 -1.28003 4.21074 0
M  V30 1867 H 170.888 -0.0736607 0.73331 0
M  V30 1868 H 173.53 0.506581 1.83122 0
M  V30 1869 H 171.68 -1.09272 3.72816 0
M  V30 1870 H 173.352 1.43307 4.38476 0
M  V30 1871 H 171.595 1.41344 4.10127 0
M  V30 1872 H 172.266 0.555947 5.49193 0
M  V30 1873 H 174.742 -0.765867 4.08991 0
M  V30 1874 H 173.618 -1.44352 5.29579 0
M  V30 1875 H 173.879 -2.29236 3.78026 0
M  V30 1876 N 172.938 -1.57226 0.108567 0
M  V30 1877 C 173.901 -2.13602 -0.831082 0
M  V30 1878 C 174.901 -1.06841 -1.20173 0
M  V30 1879 O 176.091 -1.32666 -1.12895 0
M  V30 1880 C 173.223 -2.66769 -2.12243 0
M  V30 1881 H 174.416 -2.97951 -0.341317 0
M  V30 1882 H 171.969 -1.55667 -0.14057 0
M  V30 1883 H 172.704 -1.85977 -2.65675 0
M  V30 1884 H 172.489 -3.44839 -1.86625 0
M  V30 1885 H 173.979 -3.10332 -2.79435 0
M  V30 1886 N 174.416 0.165178 -1.56732 0
M  V30 1887 C 175.363 1.2044 -1.96883 0
M  V30 1888 C 176.333 1.43664 -0.833657 0
M  V30 1889 O 177.518 1.56302 -1.09427 0
M  V30 1890 C 174.658 2.53727 -2.33916 0
M  V30 1891 C 173.771 2.3783 -3.6064 0
M  V30 1892 C 172.906 3.64026 -3.86857 0
M  V30 1893 C 171.945 3.43088 -5.06909 0
M  V30 1894 N 171.082 4.61369 -5.29229 0
M  V30 1895 H 175.922 0.854996 -2.85471 0
M  V30 1896 H 173.459 0.41076 -1.41249 0
M  V30 1897 H 175.417 3.31419 -2.53411 0
M  V30 1898 H 174.047 2.8665 -1.48431 0
M  V30 1899 H 173.099 1.51282 -3.49024 0
M  V30 1900 H 174.411 2.18308 -4.4849 0
M  V30 1901 H 173.565 4.50152 -4.06753 0
M  V30 1902 H 172.304 3.86533 -2.97394 0
M  V30 1903 H 171.309 2.55349 -4.86906 0
M  V30 1904 H 172.534 3.21997 -5.97909 0
M  V30 1905 H 170.48 4.84084 -4.42718 0
M  V30 1906 H 170.397 4.44783 -6.11313 0
M  V30 1907 H 171.665 5.48761 -5.53608 0
M  V30 1908 N 175.894 1.51508 0.433938 0
M  V30 1909 C 176.804 1.75917 1.5521 0
M  V30 1910 C 177.82 0.643545 1.61662 0
M  V30 1911 O 178.996 0.926183 1.7884 0
M  V30 1912 C 176.061 1.88213 2.91164 0
M  V30 1913 C 175.122 3.12074 2.94802 0
M  V30 1914 C 174.355 3.23774 4.24271 0
M  V30 1915 O 174.578 2.4133 5.16833 0
M  V30 1916 O 173.512 4.16774 4.34262 0
M  V30 1917 H 177.338 2.70777 1.37527 0
M  V30 1918 H 174.923 1.36051 0.617293 0
M  V30 1919 H 176.805 1.98267 3.71845 0
M  V30 1920 H 175.48 0.965413 3.08968 0
M  V30 1921 H 174.387 3.07497 2.13065 0
M  V30 1922 H 175.72 4.03446 2.81943 0
M  V30 1923 N 177.372 -0.689602 1.41712 0
M  V30 1924 C 178.62 -1.4468 1.4111 0
M  V30 1925 C 178.941 -1.94986 0.0232196 0
M  V30 1926 O 178.211 -1.72097 -0.935913 0
M  V30 1927 H 176.791 -0.536847 0.519427 0
M  V30 1928 H 179.453 -0.815825 1.77004 0
M  V30 1929 H 178.549 -2.30706 2.10193 0
M  V30 1930 N 178.85 -1.27639 -0.924453 0
M  V30 1931 C 180.08 -1.16819 -1.70402 0
M  V30 1932 C 180.488 0.277191 -1.87158 0
M  V30 1933 O 179.831 1.20025 -1.39067 0
M  V30 1934 C 179.893 -1.78305 -3.12166 0
M  V30 1935 C 179.557 -3.27502 -3.18734 0
M  V30 1936 C 180.554 -4.2409 -3.00738 0
M  V30 1937 C 178.239 -3.68269 -3.4159 0
M  V30 1938 C 180.233 -5.59422 -3.05492 0
M  V30 1939 C 177.92 -5.0373 -3.45977 0
M  V30 1940 C 178.918 -5.99116 -3.27946 0
M  V30 1941 O 178.606 -7.32108 -3.32074 0
M  V30 1942 H 178.338 -0.406931 -0.539799 0
M  V30 1943 H 180.892 -1.69078 -1.16626 0
M  V30 1944 H 179.122 -1.20528 -3.67437 0
M  V30 1945 H 180.811 -1.62154 -3.72103 0
M  V30 1946 H 181.577 -3.93931 -2.82919 0
M  V30 1947 H 177.456 -2.94496 -3.54673 0
M  V30 1948 H 181 -6.33852 -2.91337 0
M  V30 1949 H 176.897 -5.33543 -3.63321 0
M  V30 1950 H 177.665 -7.40598 -3.48507 0
M  V30 1951 N 180.328 1.1314 -1.09713 0
M  V30 1952 C 181.291 2.16831 -0.742751 0
M  V30 1953 C 182.291 1.59159 0.229129 0
M  V30 1954 O 183.481 1.74199 0.00693237 0
M  V30 1955 C 180.613 3.40756 -0.0989168 0
M  V30 1956 H 181.806 2.49695 -1.66109 0
M  V30 1957 H 179.359 1.2802 -0.896699 0
M  V30 1958 H 180.094 3.13485 0.830514 0
M  V30 1959 H 179.879 3.83888 -0.798265 0
M  V30 1960 H 181.369 4.17386 0.133524 0
M  V30 1961 N 181.806 0.884767 1.30421 0
M  V30 1962 C 183.054 0.502112 1.95763 0
M  V30 1963 C 183.375 -0.951815 1.70192 0
M  V30 1964 O 182.645 -1.6692 1.0254 0
M  V30 1965 H 181.225 0.182694 0.724315 0
M  V30 1966 H 183.887 1.1278 1.58955 0
M  V30 1967 H 182.983 0.672188 3.04775 0
M  V30 1968 N 183.284 -1.43765 0.645699 0
M  V30 1969 C 184.214 -2.33471 -0.0370477 0
M  V30 1970 C 185.195 -1.49042 -0.819779 0
M  V30 1971 O 186.38 -1.77726 -0.782758 0
M  V30 1972 C 183.51 -3.32311 -1.0093 0
M  V30 1973 C 182.464 -4.2667 -0.337201 0
M  V30 1974 C 181.79 -5.1549 -1.42037 0
M  V30 1975 C 183.09 -5.16657 0.765706 0
M  V30 1976 H 184.784 -2.90809 0.712069 0
M  V30 1977 H 182.33 -1.39834 0.343876 0
M  V30 1978 H 184.283 -3.9396 -1.49578 0
M  V30 1979 H 183.007 -2.73213 -1.78948 0
M  V30 1980 H 181.666 -3.66374 0.128771 0
M  V30 1981 H 181.314 -4.52735 -2.1918 0
M  V30 1982 H 181.014 -5.79438 -0.975966 0
M  V30 1983 H 182.538 -5.80012 -1.90838 0
M  V30 1984 H 183.952 -5.72158 0.361702 0
M  V30 1985 H 182.349 -5.89286 1.13413 0
M  V30 1986 H 183.419 -4.56796 1.62683 0
M  V30 1987 N 184.763 -0.387143 -1.52771 0
M  V30 1988 C 185.693 0.440551 -2.29306 0
M  V30 1989 C 186.674 1.06535 -1.32606 0
M  V30 1990 O 187.859 1.07853 -1.61497 0
M  V30 1991 C 184.989 1.56919 -3.09829 0
M  V30 1992 C 183.943 1.07054 -4.14395 0
M  V30 1993 C 183.269 2.29109 -4.83129 0
M  V30 1994 C 184.569 0.140015 -5.22112 0
M  V30 1995 H 186.263 -0.198026 -2.98744 0
M  V30 1996 H 183.809 -0.09668 -1.43675 0
M  V30 1997 H 185.762 2.15503 -3.62128 0
M  V30 1998 H 184.486 2.23532 -2.3812 0
M  V30 1999 H 183.145 0.507247 -3.63074 0
M  V30 2000 H 182.793 2.94227 -4.0797 0
M  V30 2001 H 182.493 1.96406 -5.53804 0
M  V30 2002 H 184.017 2.88339 -5.38231 0
M  V30 2003 H 185.431 0.633978 -5.69784 0
M  V30 2004 H 183.828 -0.0971485 -6.00021 0
M  V30 2005 H 184.898 -0.811711 -4.78058 0
M  V30 2006 N 186.241 1.57166 -0.116904 0
M  V30 2007 C 187.171 2.18222 0.830759 0
M  V30 2008 C 188.152 1.12167 1.27877 0
M  V30 2009 O 189.337 1.40394 1.34176 0
M  V30 2010 C 186.467 2.77996 2.08172 0
M  V30 2011 C 185.421 3.89614 1.77157 0
M  V30 2012 C 184.747 4.36187 3.09265 0
M  V30 2013 C 186.047 5.1181 1.04151 0
M  V30 2014 H 187.741 2.97664 0.321992 0
M  V30 2015 H 185.287 1.4318 0.153434 0
M  V30 2016 H 187.24 3.19366 2.74924 0
M  V30 2017 H 185.964 1.9584 2.6137 0
M  V30 2018 H 184.623 3.48816 1.12796 0
M  V30 2019 H 184.271 3.50893 3.60393 0
M  V30 2020 H 183.971 5.11455 2.89288 0
M  V30 2021 H 185.495 4.80207 3.77139 0
M  V30 2022 H 186.909 5.50214 1.61052 0
M  V30 2023 H 185.306 5.92648 0.942762 0
M  V30 2024 H 186.376 4.84892 0.0279022 0
M  V30 2025 N 187.719 -0.156864 1.56817 0
M  V30 2026 C 188.965 -0.872416 1.83076 0
M  V30 2027 C 189.298 -1.81261 0.697001 0
M  V30 2028 O 188.573 -1.92171 -0.30008 0
M  V30 2029 C 188.856 -1.65551 3.19789 0
M  V30 2030 C 188.709 -0.737467 4.43713 0
M  V30 2031 C 190.028 -2.62012 3.53606 0
M  V30 2032 H 187.147 -0.315715 0.665953 0
M  V30 2033 H 189.789 -0.138004 1.89498 0
M  V30 2034 H 187.939 -2.28159 3.14445 0
M  V30 2035 H 189.611 -0.123143 4.61136 0
M  V30 2036 H 187.854 -0.0464067 4.33775 0
M  V30 2037 H 188.525 -1.32122 5.35955 0
M  V30 2038 H 191.001 -2.09525 3.59497 0
M  V30 2039 H 189.877 -3.13861 4.50314 0
M  V30 2040 H 190.138 -3.42902 2.79053 0
M  V30 2041 N 189.197 -1.51736 -0.425897 0
M  V30 2042 C 190.147 -1.70258 -1.51645 0
M  V30 2043 C 191.131 -0.556488 -1.5097 0
M  V30 2044 O 192.323 -0.812879 -1.5723 0
M  V30 2045 C 189.452 -1.84143 -2.89735 0
M  V30 2046 C 188.538 -3.04572 -2.95122 0
M  V30 2047 N 188.929 -4.2756 -2.70233 0
M  V30 2048 C 187.227 -3.04061 -3.26286 0
M  V30 2049 C 187.928 -5.08908 -2.81757 0
M  V30 2050 N 186.904 -4.43797 -3.13919 0
M  V30 2051 H 190.706 -2.63004 -1.31172 0
M  V30 2052 H 188.22 -1.4954 -0.633375 0
M  V30 2053 H 190.217 -1.95525 -3.68206 0
M  V30 2054 H 188.877 -0.925857 -3.1122 0
M  V30 2055 H 189.888 -4.56315 -2.44943 0
M  V30 2056 H 186.565 -2.22179 -3.53473 0
M  V30 2057 H 187.955 -6.16843 -2.66372 0
M  V30 2058 N 190.675 0.682077 -1.42076 0
M  V30 2059 C 191.9 1.47558 -1.45744 0
M  V30 2060 C 192.325 1.87977 -0.0680981 0
M  V30 2061 O 191.683 1.55522 0.9318 0
M  V30 2062 C 191.731 2.70575 -2.38373 0
M  V30 2063 O 190.835 3.68573 -1.85007 0
M  V30 2064 H 190.176 0.443585 -0.494093 0
M  V30 2065 H 192.706 0.837238 -1.86686 0
M  V30 2066 H 192.716 3.18729 -2.54707 0
M  V30 2067 H 191.391 2.40495 -3.39315 0
M  V30 2068 H 189.968 3.2757 -1.78192 0
M  V30 2069 N 192.153 1.28127 0.917671 0
M  V30 2070 C 193.063 1.13556 2.05286 0
M  V30 2071 C 194.079 0.0630914 1.73886 0
M  V30 2072 O 195.255 0.271598 1.9956 0
M  V30 2073 C 192.32 0.794676 3.3747 0
M  V30 2074 C 191.381 1.94909 3.82504 0
M  V30 2075 C 190.614 1.62437 5.0838 0
M  V30 2076 O 190.837 0.536905 5.67867 0
M  V30 2077 O 189.771 2.46677 5.4903 0
M  V30 2078 H 193.597 2.08844 2.20495 0
M  V30 2079 H 191.182 1.07409 1.03845 0
M  V30 2080 H 193.064 0.618344 4.16839 0
M  V30 2081 H 191.739 -0.128581 3.23445 0
M  V30 2082 H 190.646 2.18055 3.03978 0
M  V30 2083 H 191.979 2.85291 4.01086 0
M  V30 2084 N 193.631 -1.12557 1.10312 0
M  V30 2085 C 194.859 -1.87864 0.866873 0
M  V30 2086 C 195.274 -1.79588 -0.582557 0
M  V30 2087 O 194.631 -1.16887 -1.40156 0
M  V30 2088 C 194.682 -3.37125 1.30496 0
M  V30 2089 O 194.403 -3.45201 2.69755 0
M  V30 2090 C 195.904 -4.29373 1.10243 0
M  V30 2091 H 193.124 -0.594452 0.311236 0
M  V30 2092 H 195.668 -1.42429 1.46745 0
M  V30 2093 H 193.823 -3.80109 0.748081 0
M  V30 2094 H 194.237 -4.38056 2.88457 0
M  V30 2095 H 195.711 -5.32394 1.45811 0
M  V30 2096 H 196.188 -4.39181 0.0409492 0
M  V30 2097 H 196.794 -3.92169 1.64571 0
M  V30 2098 N 195.109 -0.891671 -1.2995 0
M  V30 2099 C 196.334 -0.527932 -2.00568 0
M  V30 2100 C 196.759 0.877969 -1.66353 0
M  V30 2101 O 196.117 1.58301 -0.883762 0
M  V30 2102 C 196.165 -0.717745 -3.53385 0
M  V30 2103 O 195.269 0.233376 -4.11739 0
M  V30 2104 H 194.61 -0.20722 -0.630837 0
M  V30 2105 H 197.14 -1.20105 -1.65638 0
M  V30 2106 H 197.15 -0.619307 -4.03272 0
M  V30 2107 H 195.825 -1.74276 -3.77625 0
M  V30 2108 H 194.402 0.0880706 -3.72796 0
M  V30 2109 N 196.587 1.43421 -0.653314 0
M  V30 2110 C 197.815 2.06163 -0.174491 0
M  V30 2111 C 198.23 1.48969 1.1599 0
M  V30 2112 O 197.587 0.621042 1.71608 0
M  V30 2113 C 197.638 3.61417 -0.0774865 0
M  V30 2114 O 197.359 4.16485 -1.35912 0
M  V30 2115 C 198.86 4.41235 0.427402 0
M  V30 2116 H 196.08 0.664946 -0.0899353 0
M  V30 2117 H 198.624 1.83924 -0.893988 0
M  V30 2118 H 196.779 3.82841 0.59257 0
M  V30 2119 H 197.193 5.10153 -1.21839 0
M  V30 2120 H 198.667 5.5021 0.44423 0
M  V30 2121 H 199.144 4.14268 1.45873 0
M  V30 2122 H 199.75 4.2478 -0.210167 0
M  V30 2123 N 198.065 0.39524 1.52563 0
M  V30 2124 C 199.313 -0.184678 2.01254 0
M  V30 2125 C 199.634 -1.46822 1.28329 0
M  V30 2126 O 198.904 -1.91666 0.405094 0
M  V30 2127 H 197.484 -0.0712355 0.743596 0
M  V30 2128 H 200.146 0.528293 1.87603 0
M  V30 2129 H 199.242 -0.390681 3.09645 0
M  V30 2130 N 199.544 -1.57102 0.125237 0
M  V30 2131 C 200.507 -2.14471 -0.80838 0
M  V30 2132 C 201.507 -1.0811 -1.19033 0
M  V30 2133 O 202.697 -1.33856 -1.11482 0
M  V30 2134 C 199.829 -2.69005 -2.09402 0
M  V30 2135 H 201.022 -2.98297 -0.309696 0
M  V30 2136 H 198.575 -1.55807 -0.124051 0
M  V30 2137 H 199.31 -1.88785 -2.63687 0
M  V30 2138 H 199.095 -3.46799 -1.82957 0
M  V30 2139 H 200.585 -3.13278 -2.76128 0
M  V30 2140 N 201.022 0.148545 -1.56898 0
M  V30 2141 C 201.952 1.18524 -2.01182 0
M  V30 2142 C 202.933 1.4489 -0.891123 0
M  V30 2143 O 204.118 1.55836 -1.15882 0
M  V30 2144 C 201.248 2.51879 -2.39112 0
M  V30 2145 C 200.202 2.40038 -3.54353 0
M  V30 2146 C 199.528 3.78089 -3.78091 0
M  V30 2147 C 200.828 1.88577 -4.87069 0
M  V30 2148 H 202.522 0.817029 -2.88036 0
M  V30 2149 H 200.068 0.391575 -1.38574 0
M  V30 2150 H 202.021 3.24627 -2.68692 0
M  V30 2151 H 200.745 2.90532 -1.49193 0
M  V30 2152 H 199.404 1.69742 -3.24936 0
M  V30 2153 H 199.052 4.14175 -2.85426 0
M  V30 2154 H 198.752 3.71028 -4.55645 0
M  V30 2155 H 200.276 4.52387 -4.10095 0
M  V30 2156 H 201.69 2.51117 -5.15377 0
M  V30 2157 H 200.087 1.9241 -5.68417 0
M  V30 2158 H 201.157 0.84136 -4.77545 0
M  V30 2159 N 202.5 1.5196 0.417844 0
M  V30 2160 C 203.463 1.74065 1.49111 0
M  V30 2161 C 204.463 0.610537 1.48758 0
M  V30 2162 O 205.653 0.87832 1.50437 0
M  V30 2163 C 202.785 1.81502 2.88565 0
M  V30 2164 H 203.978 2.69869 1.30807 0
M  V30 2165 H 201.531 1.42244 0.647785 0
M  V30 2166 H 202.266 0.875813 3.1225 0
M  V30 2167 H 202.051 2.63651 2.90225 0
M  V30 2168 H 203.541 2.00376 3.66387 0
M  V30 2169 N 203.978 -0.674533 1.42435 0
M  V30 2170 C 205.255 -1.4305 1.33402 0
M  V30 2171 C 205.635 -2.11081 -0.0284674 0
M  V30 2172 O 204.983 -2.03257 -1.04397 0
M  V30 2173 C 205.193 -2.43272 2.50239 0
M  V30 2174 C 206.541 -3.07907 2.92367 0
M  V30 2175 O 207.565 -2.53599 2.50132 0
M  V30 2176 O 206.424 -4.0632 3.65467 0
M  V30 2177 H 203.518 -0.638076 0.526106 0
M  V30 2178 H 206.064 -0.703235 1.54443 0
M  V30 2179 H 204.836 -1.91803 3.41068 0
M  V30 2180 H 204.459 -3.23479 2.31186 0
M  V30 2181 N 205.456 -1.28612 -0.910864 0
M  V30 2182 C 206.386 -1.15326 -2.03032 0
M  V30 2183 C 207.367 -0.0502924 -1.70026 0
M  V30 2184 O 208.552 -0.227797 -1.92859 0
M  V30 2185 C 205.682 -0.817343 -3.37545 0
M  V30 2186 C 204.636 -1.8754 -3.84724 0
M  V30 2187 C 203.962 -1.39305 -5.16235 0
M  V30 2188 C 205.262 -3.28244 -4.06267 0
M  V30 2189 H 206.956 -2.08975 -2.14406 0
M  V30 2190 H 204.502 -1.00612 -1.03021 0
M  V30 2191 H 206.455 -0.711151 -4.15356 0
M  V30 2192 H 205.179 0.154846 -3.26233 0
M  V30 2193 H 203.838 -1.97079 -3.09121 0
M  V30 2194 H 203.486 -0.409846 -5.01328 0
M  V30 2195 H 203.186 -2.10057 -5.48771 0
M  V30 2196 H 204.71 -1.30014 -5.96598 0
M  V30 2197 H 206.124 -3.21611 -4.74594 0
M  V30 2198 H 204.521 -3.96855 -4.5014 0
M  V30 2199 H 205.591 -3.72048 -3.10979 0
M  V30 2200 N 206.934 1.1197 -1.10907 0
M  V30 2201 C 208.345 1.65114 -0.871446 0
M  V30 2202 C 208.696 1.86885 0.597353 0
M  V30 2203 O 207.821 1.59896 1.45816 0
M  V30 2204 C 208.416 2.99944 -1.5754 0
M  V30 2205 C 206.975 3.50018 -1.38435 0
M  V30 2206 C 206.122 2.24941 -1.62164 0
M  V30 2207 H 209.073 0.956851 -1.2661 0
M  V30 2208 H 209.094 3.66651 -1.01721 0
M  V30 2209 H 208.606 2.84067 -2.64438 0
M  V30 2210 H 206.707 3.71071 -0.337214 0
M  V30 2211 H 206.82 4.29165 -2.12965 0
M  V30 2212 H 205.184 2.3229 -1.04467 0
M  V30 2213 H 205.967 2.11612 -2.70324 0
M  V30 2214 N 208.412 0.89855 1.29475 0
M  V30 2215 C 209.375 0.380272 2.26023 0
M  V30 2216 C 210.375 -0.484891 1.53315 0
M  V30 2217 O 211.565 -0.290108 1.71767 0
M  V30 2218 C 208.697 -0.45651 3.3783 0
M  V30 2219 H 209.89 1.23295 2.73383 0
M  V30 2220 H 207.443 0.676589 1.40897 0
M  V30 2221 H 208.178 -1.32922 2.95808 0
M  V30 2222 H 207.963 0.163393 3.91759 0
M  V30 2223 H 209.453 -0.810466 4.0966 0
M  V30 2224 N 209.89 -1.43072 0.660911 0
M  V30 2225 C 210.82 -2.33497 -0.0122829 0
M  V30 2226 C 211.801 -1.49903 -0.803925 0
M  V30 2227 O 212.986 -1.78546 -0.763864 0
M  V30 2228 C 210.116 -3.33363 -0.973994 0
M  V30 2229 C 209.07 -4.27003 -0.291928 0
M  V30 2230 C 208.396 -5.16967 -1.36562 0
M  V30 2231 C 209.696 -5.15816 0.820462 0
M  V30 2232 H 211.39 -2.90038 0.742873 0
M  V30 2233 H 208.936 -1.39461 0.358688 0
M  V30 2234 H 210.889 -3.95524 -1.45392 0
M  V30 2235 H 209.613 -2.75095 -1.7604 0
M  V30 2236 H 208.272 -3.66217 0.167623 0
M  V30 2237 H 207.92 -4.55034 -2.14366 0
M  V30 2238 H 207.62 -5.80441 -0.914454 0
M  V30 2239 H 209.144 -5.82003 -1.84675 0
M  V30 2240 H 210.558 -5.71742 0.422366 0
M  V30 2241 H 208.955 -5.8805 1.19656 0
M  V30 2242 H 210.025 -4.55045 1.67518 0
M  V30 2243 N 211.368 -0.403325 -1.52352 0
M  V30 2244 C 212.331 0.413051 -2.25447 0
M  V30 2245 C 213.331 0.978513 -1.276 0
M  V30 2246 O 214.521 0.858305 -1.51587 0
M  V30 2247 C 211.653 1.58087 -3.02029 0
M  V30 2248 H 212.846 -0.227094 -2.99039 0
M  V30 2249 H 210.399 -0.155722 -1.55522 0
M  V30 2250 H 211.134 2.25804 -2.32772 0
M  V30 2251 H 210.919 1.18195 -3.73861 0
M  V30 2252 H 212.409 2.1585 -3.57489 0
M  V30 2253 N 212.846 1.57033 -0.133567 0
M  V30 2254 C 214.262 1.58035 0.222944 0
M  V30 2255 C 214.462 1.14713 1.6566 0
M  V30 2256 O 213.518 0.841218 2.38075 0
M  V30 2257 C 214.831 3.00691 -0.0236116 0
M  V30 2258 C 216.379 3.12973 0.0411512 0
M  V30 2259 C 216.854 4.57654 -0.177899 0
M  V30 2260 N 218.345 4.63033 -0.124365 0
M  V30 2261 C 219.08 5.72771 -0.268553 0
M  V30 2262 N 218.576 6.91206 -0.46972 0
M  V30 2263 N 220.369 5.61718 -0.2071 0
M  V30 2264 H 212.52 1.8349 -1.06981 0
M  V30 2265 H 214.783 0.848677 -0.422436 0
M  V30 2266 H 214.489 3.36726 -1.0153 0
M  V30 2267 H 214.363 3.70614 0.701808 0
M  V30 2268 H 216.75 2.76787 1.02338 0
M  V30 2269 H 216.831 2.45564 -0.716383 0
M  V30 2270 H 216.475 4.94542 -1.15717 0
M  V30 2271 H 216.405 5.23173 0.599797 0
M  V30 2272 H 218.896 3.7789 0.027011 0
M  V30 2273 H 219.209 7.70693 -0.570212 0
M  V30 2274 H 217.554 6.93156 -0.505876 0
M  V30 2275 H 220.745 4.68072 -0.0507986 0
M  V30 2276 H 220.918 6.47195 -0.322909 0
M  V30 2277 N 214.325 -0.140222 1.56975 0
M  V30 2278 C 215.288 -1.15689 1.97861 0
M  V30 2279 C 216.288 -1.3549 0.865974 0
M  V30 2280 O 217.478 -1.32367 1.13246 0
M  V30 2281 C 214.61 -2.51582 2.30042 0
M  V30 2282 H 215.803 -0.805971 2.88867 0
M  V30 2283 H 213.356 -0.383801 1.51515 0
M  V30 2284 H 214.091 -2.91632 1.41849 0
M  V30 2285 H 213.876 -2.38569 3.11171 0
M  V30 2286 H 215.366 -3.24792 2.62488 0
M  V30 2287 N 215.803 -1.52179 -0.40978 0
M  V30 2288 C 217.05 -1.66206 -1.15679 0
M  V30 2289 C 217.378 -0.391674 -1.90516 0
M  V30 2290 O 216.633 0.62533 -1.8544 0
M  V30 2291 C 216.932 -2.83428 -2.17723 0
M  V30 2292 C 216.598 -4.21672 -1.59699 0
M  V30 2293 C 215.26 -4.59274 -1.43599 0
M  V30 2294 C 217.612 -5.07825 -1.17317 0
M  V30 2295 C 214.94 -5.80709 -0.836328 0
M  V30 2296 C 217.292 -6.29864 -0.587691 0
M  V30 2297 C 215.956 -6.66216 -0.413818 0
M  V30 2298 H 215.226 -0.608192 -0.423301 0
M  V30 2299 H 217.873 -1.86279 -0.444097 0
M  V30 2300 H 216.178 -2.57687 -2.95135 0
M  V30 2301 H 217.875 -2.91477 -2.75394 0
M  V30 2302 H 214.465 -3.9204 -1.73213 0
M  V30 2303 H 218.649 -4.79359 -1.28565 0
M  V30 2304 H 213.905 -6.07498 -0.689626 0
M  V30 2305 H 218.079 -6.95948 -0.250894 0
M  V30 2306 H 215.706 -7.60182 0.0529471 0
M  V30 2307 N 217.281 0.66697 -1.42791 0
M  V30 2308 C 218.228 1.7803 -1.4688 0
M  V30 2309 C 219.198 1.6299 -0.319919 0
M  V30 2310 O 220.383 1.83432 -0.525118 0
M  V30 2311 C 217.523 3.1611 -1.38451 0
M  V30 2312 C 216.636 3.42381 -2.63437 0
M  V30 2313 C 215.771 4.70232 -2.47094 0
M  V30 2314 C 214.81 4.89564 -3.67415 0
M  V30 2315 N 213.947 6.08661 -3.49966 0
M  V30 2316 H 218.787 1.7387 -2.42019 0
M  V30 2317 H 216.324 0.84868 -1.20149 0
M  V30 2318 H 218.282 3.95914 -1.31561 0
M  V30 2319 H 216.912 3.19374 -0.469033 0
M  V30 2320 H 215.964 2.56774 -2.80662 0
M  V30 2321 H 217.276 3.52557 -3.52853 0
M  V30 2322 H 216.43 5.5814 -2.37834 0
M  V30 2323 H 215.169 4.62353 -1.5518 0
M  V30 2324 H 214.174 4.00096 -3.77099 0
M  V30 2325 H 215.399 4.99282 -4.6032 0
M  V30 2326 H 213.345 6.0194 -2.60776 0
M  V30 2327 H 213.262 6.19733 -4.32975 0
M  V30 2328 H 214.53 6.99226 -3.44532 0
M  V30 2329 N 218.759 1.29093 0.90403 0
M  V30 2330 C 219.669 1.15727 2.0407 0
M  V30 2331 C 220.685 0.0815308 1.73809 0
M  V30 2332 O 221.861 0.292749 1.99261 0
M  V30 2333 C 218.926 0.830424 3.36608 0
M  V30 2334 C 217.987 1.98955 3.80415 0
M  V30 2335 C 217.22 1.6782 5.06628 0
M  V30 2336 O 217.443 0.597105 5.67266 0
M  V30 2337 O 216.377 2.52486 5.46383 0
M  V30 2338 H 220.203 2.11171 2.18267 0
M  V30 2339 H 217.788 1.08504 1.027 0
M  V30 2340 H 219.67 0.662521 4.16159 0
M  V30 2341 H 218.345 -0.0942678 3.23563 0
M  V30 2342 H 217.252 2.21267 3.01648 0
M  V30 2343 H 218.585 2.89529 3.98037 0
M  V30 2344 N 220.237 -1.11381 1.11499 0
M  V30 2345 C 221.184 -2.17439 0.773887 0
M  V30 2346 C 222.154 -1.64132 -0.254899 0
M  V30 2347 O 223.339 -1.90345 -0.13168 0
M  V30 2348 C 220.479 -3.44373 0.223917 0
M  V30 2349 C 219.592 -4.1168 1.30934 0
M  V30 2350 C 218.727 -5.263 0.71984 0
M  V30 2351 C 217.766 -5.85493 1.78507 0
M  V30 2352 N 216.903 -6.91507 1.21502 0
M  V30 2353 H 221.743 -2.45962 1.68246 0
M  V30 2354 H 219.28 -1.20744 0.840191 0
M  V30 2355 H 221.238 -4.17047 -0.112921 0
M  V30 2356 H 219.868 -3.16232 -0.647851 0
M  V30 2357 H 218.92 -3.37073 1.76312 0
M  V30 2358 H 220.232 -4.51729 2.11524 0
M  V30 2359 H 219.386 -6.05785 0.333094 0
M  V30 2360 H 218.125 -4.87559 -0.117377 0
M  V30 2361 H 217.13 -5.04686 2.18111 0
M  V30 2362 H 218.355 -6.26301 2.62533 0
M  V30 2363 H 216.301 -6.54783 0.399455 0
M  V30 2364 H 216.218 -7.30214 1.95763 0
M  V30 2365 H 217.486 -7.74795 0.855181 0
M  V30 2366 N 221.715 -0.905404 -1.28997 0
M  V30 2367 C 222.663 -0.377431 -2.29517 0
M  V30 2368 C 223.657 0.526461 -1.61012 0
M  V30 2369 O 224.863 0.40863 -1.753 0
M  V30 2370 H 221.238 -0.103437 -0.744852 0
M  V30 2371 H 223.209 -1.23848 -2.71485 0
M  V30 2372 C 221.958 0.374833 -3.45674 0
M  V30 2373 H 221.281 -0.311474 -3.98585 0
M  V30 2374 H 222.721 0.70903 -4.1803 0
M  V30 2375 C 221.18 1.57963 -2.97572 0
M  V30 2376 O 221.71 2.67886 -2.99333 0
M  V30 2377 N 219.916 1.42375 -2.53333 0
M  V30 2378 H 219.463 0.529466 -2.521 0
M  V30 2379 H 219.421 2.23117 -2.21509 0
M  V30 2380 N 223.193 1.4272 -0.668489 0
M  V30 2381 C 224.604 1.84793 -0.266151 0
M  V30 2382 C 224.955 1.55959 1.19043 0
M  V30 2383 O 224.08 1.01622 1.91055 0
M  V30 2384 C 224.675 3.35436 -0.476271 0
M  V30 2385 C 223.234 3.76182 -0.128113 0
M  V30 2386 C 222.381 2.66344 -0.771777 0
M  V30 2387 H 225.332 1.32656 -0.871098 0
M  V30 2388 H 225.353 3.79515 0.273561 0
M  V30 2389 H 224.865 3.5639 -1.53647 0
M  V30 2390 H 222.966 3.60836 0.928891 0
M  V30 2391 H 223.079 4.75766 -0.564231 0
M  V30 2392 H 221.443 2.53885 -0.203652 0
M  V30 2393 H 222.226 2.90123 -1.83531 0
M  V30 2394 N 224.671 0.411399 1.52136 0
M  V30 2395 C 225.581 -0.419774 2.30814 0
M  V30 2396 C 226.597 -1.0515 1.38634 0
M  V30 2397 O 227.773 -1.05252 1.71709 0
M  V30 2398 C 224.838 -1.52019 3.11594 0
M  V30 2399 C 223.899 -0.91129 4.19516 0
M  V30 2400 C 223.132 -1.95927 4.96436 0
M  V30 2401 O 223.355 -3.17775 4.73683 0
M  V30 2402 O 222.289 -1.56423 5.81219 0
M  V30 2403 H 226.115 0.221805 3.02889 0
M  V30 2404 H 223.7 0.174547 1.48377 0
M  V30 2405 H 225.582 -2.15898 3.61892 0
M  V30 2406 H 224.257 -2.14633 2.42311 0
M  V30 2407 H 223.164 -0.235157 3.7336 0
M  V30 2408 H 224.497 -0.32904 4.91099 0
M  V30 2409 N 226.149 -1.5696 0.141893 0
M  V30 2410 C 227.397 -1.95573 -0.509484 0
M  V30 2411 C 227.718 -1.02746 -1.65736 0
M  V30 2412 O 226.988 -0.0880311 -1.95702 0
M  V30 2413 H 225.568 -0.722115 -0.191205 0
M  V30 2414 H 228.23 -1.93697 0.216196 0
M  V30 2415 H 227.326 -2.99171 -0.889 0
M  V30 2416 N 227.627 0.131896 -1.57047 0
M  V30 2417 C 228.557 1.16384 -2.02428 0
M  V30 2418 C 229.538 1.43936 -0.90644 0
M  V30 2419 O 230.723 1.54599 -1.17528 0
M  V30 2420 C 227.853 2.49328 -2.4177 0
M  V30 2421 C 226.807 2.36266 -3.56879 0
M  V30 2422 C 226.133 3.74057 -3.8208 0
M  V30 2423 C 227.433 1.834 -4.89042 0
M  V30 2424 H 229.127 0.786433 -2.88887 0
M  V30 2425 H 226.673 0.376855 -1.38981 0
M  V30 2426 H 228.626 3.21759 -2.7212 0
M  V30 2427 H 227.35 2.88934 -1.52266 0
M  V30 2428 H 226.009 1.66286 -3.26718 0
M  V30 2429 H 225.657 4.11125 -2.89803 0
M  V30 2430 H 225.357 3.66174 -4.59554 0
M  V30 2431 H 226.881 4.48012 -4.1487 0
M  V30 2432 H 228.295 2.45636 -5.18011 0
M  V30 2433 H 226.692 1.8637 -5.70426 0
M  V30 2434 H 227.762 0.790662 -4.7841 0
M  V30 2435 N 229.106 1.52395 0.401703 0
M  V30 2436 C 230.352 1.67065 1.14966 0
M  V30 2437 C 230.685 0.403052 1.89971 0
M  V30 2438 O 229.96 -0.598774 1.85054 0
M  V30 2439 C 230.243 2.8975 2.13815 0
M  V30 2440 C 230.096 4.26578 1.42658 0
M  V30 2441 C 231.415 3.07965 3.14397 0
M  V30 2442 H 228.534 0.607968 0.416587 0
M  V30 2443 H 231.176 1.84965 0.434511 0
M  V30 2444 H 229.326 2.74619 2.74803 0
M  V30 2445 H 230.998 4.53451 0.847329 0
M  V30 2446 H 229.241 4.27639 0.72849 0
M  V30 2447 H 229.912 5.08483 2.14823 0
M  V30 2448 H 232.388 3.22043 2.63491 0
M  V30 2449 H 231.264 3.95308 3.80819 0
M  V30 2450 H 231.525 2.21611 3.82545 0
M  V30 2451 N 230.584 -0.659388 1.43143 0
M  V30 2452 C 231.832 -1.41654 1.44147 0
M  V30 2453 C 232.153 -1.94893 0.0645739 0
M  V30 2454 O 231.423 -1.74044 -0.899198 0
M  V30 2455 H 230.003 -0.525708 0.530697 0
M  V30 2456 H 232.665 -0.778097 1.78694 0
M  V30 2457 H 231.761 -2.26195 2.1504 0
M  V30 2458 N 232.062 -1.29571 -0.897171 0
M  V30 2459 C 233.025 -1.14913 -1.98312 0
M  V30 2460 C 234.025 -0.0838629 -1.60581 0
M  V30 2461 O 235.215 -0.331006 -1.71026 0
M  V30 2462 C 232.347 -0.757835 -3.3237 0
M  V30 2463 H 233.54 -2.11377 -2.12743 0
M  V30 2464 H 231.093 -1.12793 -1.08201 0
M  V30 2465 H 231.828 0.206837 -3.2364 0
M  V30 2466 H 231.613 -1.52755 -3.61121 0
M  V30 2467 H 233.103 -0.678408 -4.12053 0
M  V30 2468 N 233.54 1.10788 -1.12088 0
M  V30 2469 C 234.817 1.79136 -0.785476 0
M  V30 2470 C 235.197 1.98246 0.725377 0
M  V30 2471 O 234.545 1.57258 1.65778 0
M  V30 2472 C 234.755 3.12375 -1.55636 0
M  V30 2473 C 236.103 3.8731 -1.74001 0
M  V30 2474 O 237.127 3.22085 -1.52117 0
M  V30 2475 O 235.986 5.04369 -2.10415 0
M  V30 2476 H 233.08 0.776226 -0.285311 0
M  V30 2477 H 235.626 1.1747 -1.2247 0
M  V30 2478 H 234.398 2.93863 -2.5838 0
M  V30 2479 H 234.021 3.81758 -1.11114 0
M  V30 2480 N 235.018 0.912232 1.28515 0
M  V30 2481 C 235.951 0.343928 2.25593 0
M  V30 2482 C 236.929 -0.550994 1.5298 0
M  V30 2483 O 238.113 -0.494991 1.81885 0
M  V30 2484 C 235.24 -0.508525 3.34861 0
M  V30 2485 C 234.286 0.320808 4.25292 0
M  V30 2486 S 235.119 1.72658 5.06902 0
M  V30 2487 C 236.275 0.881394 6.19663 0
M  V30 2488 H 236.508 1.16674 2.73449 0
M  V30 2489 H 234.041 0.713384 1.36931 0
M  V30 2490 H 235.999 -0.994539 3.9827 0
M  V30 2491 H 234.66 -1.30571 2.85675 0
M  V30 2492 H 233.853 -0.330941 5.02912 0
M  V30 2493 H 233.455 0.74042 3.66598 0
M  V30 2494 H 235.747 0.110359 6.7741 0
M  V30 2495 H 236.69 1.63009 6.89082 0
M  V30 2496 H 237.098 0.430239 5.62858 0
M  V30 2497 N 236.496 -1.42363 0.676048 0
M  V30 2498 C 237.742 -2.0182 0.199125 0
M  V30 2499 C 238.075 -1.53339 -1.19168 0
M  V30 2500 O 237.35 -0.736124 -1.80032 0
M  V30 2501 C 237.633 -3.59331 0.235144 0
M  V30 2502 C 237.486 -4.17989 1.66149 0
M  V30 2503 C 238.805 -4.3813 -0.41595 0
M  V30 2504 H 235.924 -0.733293 0.0738311 0
M  V30 2505 H 238.566 -1.69368 0.86107 0
M  V30 2506 H 236.716 -3.87109 -0.328487 0
M  V30 2507 H 238.388 -4.0116 2.27747 0
M  V30 2508 H 236.631 -3.7377 2.20178 0
M  V30 2509 H 237.302 -5.27126 1.63837 0
M  V30 2510 H 239.778 -4.16051 0.0638529 0
M  V30 2511 H 238.654 -5.47717 -0.360115 0
M  V30 2512 H 238.915 -4.16101 -1.49373 0
M  V30 2513 N 237.974 -0.419461 -1.51915 0
M  V30 2514 C 239.202 0.152136 -2.0634 0
M  V30 2515 C 239.617 1.37988 -1.28859 0
M  V30 2516 O 238.974 1.79243 -0.343232 0
M  V30 2517 C 239.025 0.492266 -3.58133 0
M  V30 2518 O 238.746 -0.686736 -4.32684 0
M  V30 2519 C 240.247 1.11648 -4.2901 0
M  V30 2520 H 237.467 0.0158325 -0.670813 0
M  V30 2521 H 240.011 -0.593394 -1.95702 0
M  V30 2522 H 238.166 1.18769 -3.68745 0
M  V30 2523 H 238.58 -0.400341 -5.2297 0
M  V30 2524 H 240.054 1.3046 -5.36362 0
M  V30 2525 H 240.531 2.09251 -3.86148 0
M  V30 2526 H 241.137 0.460958 -4.22795 0
M  V30 2527 N 239.452 1.56882 -0.150215 0
M  V30 2528 C 240.677 2.01027 0.510184 0
M  V30 2529 C 241.102 1.02966 1.57415 0
M  V30 2530 O 240.46 0.00590158 1.81299 0
M  V30 2531 C 240.508 3.43899 1.08472 0
M  V30 2532 O 239.612 3.4885 2.19948 0
M  V30 2533 H 238.953 0.652233 0.124451 0
M  V30 2534 H 241.483 2.03093 -0.247894 0
M  V30 2535 H 241.493 3.82766 1.41259 0
M  V30 2536 H 240.168 4.14776 0.305582 0
M  V30 2537 H 238.745 3.21827 1.88366 0
M  V30 2538 N 240.93 -0.123565 1.57115 0
M  V30 2539 C 241.86 -1.15309 2.03042 0
M  V30 2540 C 242.841 -1.43454 0.914061 0
M  V30 2541 O 244.026 -1.53973 1.18347 0
M  V30 2542 C 241.156 -2.48043 2.43089 0
M  V30 2543 C 240.11 -2.3437 3.58127 0
M  V30 2544 C 239.436 -3.72026 3.84059 0
M  V30 2545 C 240.736 -1.80804 4.90007 0
M  V30 2546 H 242.43 -0.771102 2.893 0
M  V30 2547 H 239.976 -0.369479 1.39179 0
M  V30 2548 H 241.929 -3.20311 2.73823 0
M  V30 2549 H 240.653 -2.88122 1.53796 0
M  V30 2550 H 239.312 -1.64551 3.27595 0
M  V30 2551 H 238.96 -4.09582 2.91979 0
M  V30 2552 H 238.66 -3.63732 4.6149 0
M  V30 2553 H 240.184 -4.45806 4.1724 0
M  V30 2554 H 241.598 -2.42886 5.19307 0
M  V30 2555 H 239.995 -1.83343 5.71407 0
M  V30 2556 H 241.065 -0.76528 4.78823 0
M  V30 2557 N 242.408 -1.52605 -0.393616 0
M  V30 2558 C 243.338 -1.80022 -1.48709 0
M  V30 2559 C 244.319 -0.651995 -1.57108 0
M  V30 2560 O 245.504 -0.89913 -1.72132 0
M  V30 2561 C 242.634 -1.96492 -2.86371 0
M  V30 2562 C 241.588 -3.12161 -2.92813 0
M  V30 2563 C 240.914 -3.13877 -4.3288 0
M  V30 2564 C 242.214 -4.51322 -2.6288 0
M  V30 2565 H 243.908 -2.71589 -1.26015 0
M  V30 2566 H 241.454 -1.30684 -0.604778 0
M  V30 2567 H 243.407 -2.14255 -3.62867 0
M  V30 2568 H 242.131 -1.01611 -3.10391 0
M  V30 2569 H 240.79 -2.94173 -2.18764 0
M  V30 2570 H 240.438 -2.16687 -4.53933 0
M  V30 2571 H 240.138 -3.91576 -4.38112 0
M  V30 2572 H 241.662 -3.33789 -5.1129 0
M  V30 2573 H 243.076 -4.69435 -3.29096 0
M  V30 2574 H 241.473 -5.31053 -2.79468 0
M  V30 2575 H 242.543 -4.58353 -1.58242 0
M  V30 2576 N 243.887 0.651787 -1.4349 0
M  V30 2577 C 245.133 1.41376 -1.45398 0
M  V30 2578 C 245.466 1.94041 -0.0784823 0
M  V30 2579 O 244.741 1.72379 0.900878 0
M  V30 2580 C 245.024 2.59414 -2.49752 0
M  V30 2581 C 244.877 2.12232 -3.96582 0
M  V30 2582 C 246.196 3.61626 -2.50827 0
M  V30 2583 H 243.315 0.512719 -0.529422 0
M  V30 2584 H 245.957 0.738796 -1.75048 0
M  V30 2585 H 244.107 3.16997 -2.246 0
M  V30 2586 H 245.779 1.59639 -4.32797 0
M  V30 2587 H 244.022 1.43592 -4.09346 0
M  V30 2588 H 244.693 2.9712 -4.65214 0
M  V30 2589 H 247.169 3.13805 -2.7325 0
M  V30 2590 H 246.045 4.41766 -3.25783 0
M  V30 2591 H 246.306 4.14314 -1.5426 0
M  V30 2592 N 245.365 1.30045 0.890287 0
M  V30 2593 C 246.613 1.18327 1.63839 0
M  V30 2594 C 246.934 -0.263455 1.93212 0
M  V30 2595 O 246.204 -1.17856 1.56482 0
M  V30 2596 H 244.784 0.434933 0.607324 0
M  V30 2597 H 247.446 1.631 1.06698 0
M  V30 2598 H 246.542 1.74024 2.59079 0
M  V30 2599 N 246.843 -1.10192 1.12674 0
M  V30 2600 C 247.753 -2.20172 0.810026 0
M  V30 2601 C 248.769 -1.72821 -0.202188 0
M  V30 2602 O 249.945 -2.01369 -0.0351691 0
M  V30 2603 C 247.01 -3.45631 0.272007 0
M  V30 2604 C 246.071 -4.07704 1.34447 0
M  V30 2605 C 245.304 -5.27175 0.832029 0
M  V30 2606 O 245.527 -5.69425 -0.333284 0
M  V30 2607 O 244.461 -5.80168 1.60277 0
M  V30 2608 H 248.287 -2.49701 1.72867 0
M  V30 2609 H 245.872 -1.18977 0.903597 0
M  V30 2610 H 247.754 -4.21394 -0.0230219 0
M  V30 2611 H 246.429 -3.17723 -0.619164 0
M  V30 2612 H 245.336 -3.33614 1.6927 0
M  V30 2613 H 246.669 -4.3982 2.2095 0
M  V30 2614 N 248.321 -0.919034 -1.28029 0
M  V30 2615 C 249.567 -0.555757 -1.95036 0
M  V30 2616 C 249.9 0.899198 -1.72128 0
M  V30 2617 O 249.175 1.64023 -1.04531 0
M  V30 2618 C 249.458 -0.872024 -3.49382 0
M  V30 2619 C 249.311 -2.3801 -3.81669 0
M  V30 2620 C 250.63 -0.37185 -4.38526 0
M  V30 2621 H 247.749 -0.203386 -0.708381 0
M  V30 2622 H 250.391 -1.14924 -1.51303 0
M  V30 2623 H 248.541 -0.366946 -3.86763 0
M  V30 2624 H 250.213 -2.9562 -3.54128 0
M  V30 2625 H 248.456 -2.83289 -3.28526 0
M  V30 2626 H 249.127 -2.55192 -4.8947 0
M  V30 2627 H 251.603 -0.804602 -4.08247 0
M  V30 2628 H 250.479 -0.622173 -5.45362 0
M  V30 2629 H 250.74 0.727934 -4.36066 0
M  V30 2630 N 249.799 1.42003 -0.683588 0
M  V30 2631 C 250.762 2.29191 -0.0198243 0
M  V30 2632 C 251.762 1.43773 0.72013 0
M  V30 2633 O 252.952 1.65061 0.556815 0
M  V30 2634 C 250.084 3.26435 0.982487 0
M  V30 2635 H 251.277 2.8938 -0.787345 0
M  V30 2636 H 248.83 1.49789 -0.446418 0
M  V30 2637 H 249.565 2.71203 1.77819 0
M  V30 2638 H 249.35 3.89449 0.455182 0
M  V30 2639 H 250.84 3.918 1.44508 0
M  V30 2640 N 251.277 0.427512 1.51691 0
M  V30 2641 C 252.207 -0.3796 2.30394 0
M  V30 2642 C 253.188 -1.02982 1.35384 0
M  V30 2643 O 254.373 -1.03534 1.643 0
M  V30 2644 C 251.503 -1.48649 3.1388 0
M  V30 2645 C 250.457 -0.960294 4.17088 0
M  V30 2646 C 249.783 -2.16219 4.89033 0
M  V30 2647 C 251.083 -0.00153679 5.223 0
M  V30 2648 H 252.777 0.277164 2.98114 0
M  V30 2649 H 250.323 0.134739 1.43368 0
M  V30 2650 H 252.276 -2.05826 3.67714 0
M  V30 2651 H 251 -2.1714 2.43962 0
M  V30 2652 H 249.659 -0.410806 3.64291 0
M  V30 2653 H 249.307 -2.83307 4.15628 0
M  V30 2654 H 249.007 -1.81654 5.58816 0
M  V30 2655 H 250.531 -2.73968 5.45687 0
M  V30 2656 H 251.945 -0.482687 5.71264 0
M  V30 2657 H 250.342 0.256199 5.99553 0
M  V30 2658 H 251.412 0.938174 4.75738 0
M  V30 2659 N 252.755 -1.56801 0.158532 0
M  V30 2660 C 253.665 -2.20916 -0.789518 0
M  V30 2661 C 254.681 -1.1969 -1.26294 0
M  V30 2662 O 255.857 -1.52308 -1.31773 0
M  V30 2663 C 252.922 -2.82727 -2.00665 0
M  V30 2664 C 251.983 -3.99114 -1.58134 0
M  V30 2665 C 251.216 -4.57968 -2.74045 0
M  V30 2666 O 251.439 -4.15704 -3.90572 0
M  V30 2667 O 250.373 -5.48047 -2.48855 0
M  V30 2668 H 254.199 -3.02464 -0.273681 0
M  V30 2669 H 251.784 -1.4924 -0.0690548 0
M  V30 2670 H 253.666 -3.21968 -2.71872 0
M  V30 2671 H 252.341 -2.04184 -2.51179 0
M  V30 2672 H 251.248 -3.64567 -0.839155 0
M  V30 2673 H 252.581 -4.79212 -1.12325 0
M  V30 2674 N 254.233 0.115231 -1.57178 0
M  V30 2675 C 255.196 1.12526 -1.99676 0
M  V30 2676 C 256.196 1.34095 -0.88742 0
M  V30 2677 O 257.386 1.30548 -1.15337 0
M  V30 2678 C 254.518 2.4789 -2.34015 0
M  V30 2679 H 255.711 0.759912 -2.90113 0
M  V30 2680 H 253.264 0.359648 -1.52106 0
M  V30 2681 H 253.999 2.89339 -1.4647 0
M  V30 2682 H 253.784 2.33588 -3.14927 0
M  V30 2683 H 255.274 3.20575 -2.67622 0
M  V30 2684 N 255.711 1.52812 0.385517 0
M  V30 2685 C 256.644 1.72592 1.49289 0
M  V30 2686 C 257.622 0.573819 1.52138 0
M  V30 2687 O 258.806 0.80404 1.70492 0
M  V30 2688 C 255.933 1.78669 2.87741 0
M  V30 2689 C 254.979 3.00455 3.02703 0
M  V30 2690 S 255.812 4.60366 2.73538 0
M  V30 2691 C 256.968 4.69263 4.14177 0
M  V30 2692 H 257.201 2.66248 1.32285 0
M  V30 2693 H 254.734 1.43148 0.578611 0
M  V30 2694 H 256.692 1.82855 3.67524 0
M  V30 2695 H 255.353 0.861 3.02069 0
M  V30 2696 H 254.546 3.01258 4.04054 0
M  V30 2697 H 254.148 2.94278 2.30817 0
M  V30 2698 H 256.44 4.48092 5.08153 0
M  V30 2699 H 257.383 5.71276 4.18388 0
M  V30 2700 H 257.791 3.98072 4.00249 0
M  V30 2701 N 257.189 -0.644168 1.43834 0
M  V30 2702 C 258.437 -1.40117 1.45642 0
M  V30 2703 C 258.758 -1.94814 0.0852413 0
M  V30 2704 O 258.028 -1.74988 -0.880688 0
M  V30 2705 H 256.608 -0.52005 0.536243 0
M  V30 2706 H 259.27 -0.7591 1.7951 0
M  V30 2707 H 258.366 -2.23902 2.17427 0
M  V30 2708 N 258.668 -1.30515 -0.883378 0
M  V30 2709 C 259.914 -1.19607 -1.63774 0
M  V30 2710 C 260.247 0.248314 -1.92606 0
M  V30 2711 O 259.522 1.17742 -1.54813 0
M  V30 2712 C 259.805 -2.02669 -2.97653 0
M  V30 2713 C 259.658 -3.55335 -2.75784 0
M  V30 2714 C 260.977 -1.86573 -3.98596 0
M  V30 2715 H 258.096 -0.435856 -0.594305 0
M  V30 2716 H 260.738 -1.60165 -1.02212 0
M  V30 2717 H 258.888 -1.68208 -3.50197 0
M  V30 2718 H 260.56 -3.99863 -2.30016 0
M  V30 2719 H 258.803 -3.79438 -2.1026 0
M  V30 2720 H 259.474 -4.08745 -3.70988 0
M  V30 2721 H 261.95 -2.16703 -3.55217 0
M  V30 2722 H 260.826 -2.47014 -4.90179 0
M  V30 2723 H 261.087 -0.825321 -4.34328 0
M  V30 2724 N 260.146 1.09593 -1.13257 0
M  V30 2725 C 261.423 1.78293 -0.804432 0
M  V30 2726 C 261.803 1.99004 0.70431 0
M  V30 2727 O 261.151 1.59007 1.641 0
M  V30 2728 C 261.361 3.10707 -1.5894 0
M  V30 2729 C 262.709 3.85443 -1.78099 0
M  V30 2730 O 263.733 3.20454 -1.55525 0
M  V30 2731 O 262.592 5.02108 -2.15753 0
M  V30 2732 H 259.686 0.773156 -0.293528 0
M  V30 2733 H 262.232 1.16164 -1.23709 0
M  V30 2734 H 261.004 2.91106 -2.61482 0
M  V30 2735 H 260.627 3.80558 -1.15157 0
M  V30 2736 N 261.624 0.925811 1.2754 0
M  V30 2737 C 262.587 0.428129 2.25166 0
M  V30 2738 C 263.587 -0.452261 1.54309 0
M  V30 2739 O 264.777 -0.253608 1.72344 0
M  V30 2740 C 261.909 -0.384749 3.38722 0
M  V30 2741 H 263.102 1.29066 2.70706 0
M  V30 2742 H 260.655 0.706323 1.3943 0
M  V30 2743 H 261.39 -1.26618 2.98561 0
M  V30 2744 H 261.175 0.246454 3.91325 0
M  V30 2745 H 262.665 -0.723389 4.11287 0
M  V30 2746 N 263.102 -1.41638 0.69111 0
M  V30 2747 C 264.065 -2.29178 0.0319786 0
M  V30 2748 C 265.065 -1.44153 -0.712496 0
M  V30 2749 O 266.255 -1.65354 -0.548053 0
M  V30 2750 C 263.387 -3.26952 -0.965161 0
M  V30 2751 H 264.58 -2.88959 0.802681 0
M  V30 2752 H 262.133 -1.4955 0.454356 0
M  V30 2753 H 262.868 -2.72142 -1.76378 0
M  V30 2754 H 262.653 -3.89685 -0.434522 0
M  V30 2755 H 264.143 -3.92561 -1.42428 0
M  V30 2756 N 264.58 -0.43555 -1.51462 0
M  V30 2757 C 265.543 0.365137 -2.26273 0
M  V30 2758 C 266.543 0.951227 -1.29647 0
M  V30 2759 O 267.733 0.825958 -1.53374 0
M  V30 2760 C 264.865 1.51645 -3.05314 0
M  V30 2761 H 266.058 -0.290474 -2.9849 0
M  V30 2762 H 263.611 -0.188676 -1.55157 0
M  V30 2763 H 264.346 2.20816 -2.3751 0
M  V30 2764 H 264.131 1.10238 -3.76284 0
M  V30 2765 H 265.621 2.08218 -3.61987 0
M  V30 2766 N 266.058 1.56714 -0.166846 0
M  V30 2767 C 267.283 2.01557 0.488833 0
M  V30 2768 C 267.708 1.0463 1.56314 0
M  V30 2769 O 267.066 0.0251304 1.81283 0
M  V30 2770 C 267.114 3.4503 1.04818 0
M  V30 2771 O 266.218 3.51163 2.16236 0
M  V30 2772 H 265.559 0.653516 0.117526 0
M  V30 2773 H 268.089 2.02818 -0.269421 0
M  V30 2774 H 268.099 3.84243 1.37191 0
M  V30 2775 H 266.774 4.15077 0.261572 0
M  V30 2776 H 265.351 3.23807 1.84942 0
M  V30 2777 N 267.536 -0.106894 1.57237 0
M  V30 2778 C 268.784 -0.810921 1.85117 0
M  V30 2779 C 269.105 -1.7984 0.753827 0
M  V30 2780 O 268.375 -1.94649 -0.221056 0
M  V30 2781 H 266.955 -0.302466 0.683025 0
M  V30 2782 H 269.617 -0.0913324 1.94686 0
M  V30 2783 H 268.713 -1.34875 2.81452 0
M  V30 2784 N 269.014 -1.53014 -0.377408 0
M  V30 2785 C 270.239 -1.72818 -1.14668 0
M  V30 2786 C 270.664 -0.450725 -1.8262 0
M  V30 2787 O 270.022 0.59439 -1.7128 0
M  V30 2788 C 270.07 -2.88627 -2.16164 0
M  V30 2789 O 269.174 -2.56409 -3.22998 0
M  V30 2790 H 268.515 -0.574301 -0.333278 0
M  V30 2791 H 271.045 -1.99853 -0.438152 0
M  V30 2792 H 271.055 -3.14455 -2.59966 0
M  V30 2793 H 269.73 -3.81294 -1.66095 0
M  V30 2794 H 268.307 -2.4136 -2.84253 0
M  V30 2795 N 270.492 0.636531 -1.44174 0
M  V30 2796 C 271.424 1.7618 -1.46606 0
M  V30 2797 C 272.437 1.58768 -0.360091 0
M  V30 2798 O 273.626 1.67181 -0.625518 0
M  V30 2799 C 270.726 3.13833 -1.27915 0
M  V30 2800 C 269.899 3.57753 -2.51658 0
M  V30 2801 C 268.958 4.74265 -2.27945 0
M  V30 2802 O 267.984 4.82852 -3.01401 0
M  V30 2803 N 269.186 5.65604 -1.30662 0
M  V30 2804 H 271.951 1.74567 -2.43612 0
M  V30 2805 H 269.512 0.820924 -1.39544 0
M  V30 2806 H 271.504 3.8949 -1.09907 0
M  V30 2807 H 270.074 3.10121 -0.39293 0
M  V30 2808 H 269.294 2.72362 -2.84978 0
M  V30 2809 H 270.582 3.83847 -3.33974 0
M  V30 2810 H 269.98 5.61354 -0.699844 0
M  V30 2811 H 268.537 6.40913 -1.18634 0
M  V30 2812 N 271.97 1.30982 0.876444 0
M  V30 2813 C 272.933 1.18054 1.96459 0
M  V30 2814 C 273.933 0.109399 1.60427 0
M  V30 2815 O 275.123 0.358173 1.70478 0
M  V30 2816 N 273.449 -1.08991 1.13837 0
M  V30 2817 C 274.697 -1.80899 0.901098 0
M  V30 2818 C 275.018 -1.86356 -0.574134 0
M  V30 2819 O 274.288 -1.35235 -1.41733 0
M  V30 2820 H 272.868 -0.669966 0.330386 0
M  V30 2821 H 275.53 -1.318 1.43578 0
M  V30 2822 H 274.626 -2.83929 1.29578 0
M  V30 2823 N 274.927 -0.932562 -1.27047 0
M  V30 2824 C 275.857 -0.452902 -2.29066 0
M  V30 2825 C 276.838 0.489338 -1.62909 0
M  V30 2826 O 278.023 0.393046 -1.90181 0
M  V30 2827 C 275.153 0.290698 -3.46081 0
M  V30 2828 C 274.107 -0.564168 -4.24265 0
M  V30 2829 C 273.433 0.308886 -5.33807 0
M  V30 2830 C 274.733 -1.83112 -4.89149 0
M  V30 2831 H 276.427 -1.30552 -2.69437 0
M  V30 2832 H 273.973 -0.629201 -1.29526 0
M  V30 2833 H 275.926 0.637233 -4.16554 0
M  V30 2834 H 274.65 1.17738 -3.0464 0
M  V30 2835 H 273.309 -0.893477 -3.55545 0
M  V30 2836 H 272.957 1.19467 -4.88607 0
M  V30 2837 H 272.657 -0.259633 -5.87026 0
M  V30 2838 H 274.181 0.650884 -6.07121 0
M  V30 2839 H 275.595 -1.55236 -5.51883 0
M  V30 2840 H 273.992 -2.34353 -5.52448 0
M  V30 2841 H 275.062 -2.54772 -4.12576 0
M  V30 2842 N 276.405 1.4127 -0.698611 0
M  V30 2843 C 277.338 2.28195 0.0153898 0
M  V30 2844 C 278.316 1.42402 0.784883 0
M  V30 2845 O 279.5 1.71828 0.775067 0
M  V30 2846 C 276.627 3.22685 1.02918 0
M  V30 2847 C 275.673 4.25041 0.352501 0
M  V30 2848 S 276.506 5.27757 -0.907322 0
M  V30 2849 C 277.662 6.25812 0.104796 0
M  V30 2850 H 277.895 2.88403 -0.721858 0
M  V30 2851 H 275.428 1.46452 -0.488996 0
M  V30 2852 H 277.386 3.77655 1.60893 0
M  V30 2853 H 276.047 2.61566 1.73902 0
M  V30 2854 H 275.24 4.91437 1.11828 0
M  V30 2855 H 274.842 3.73682 -0.154254 0
M  V30 2856 H 277.134 6.70705 0.957103 0
M  V30 2857 H 278.077 7.06149 -0.525323 0
M  V30 2858 H 278.485 5.62615 0.460931 0
M  V30 2859 N 277.883 0.443576 1.51229 0
M  V30 2860 C 279.123 -0.119889 2.04048 0
M  V30 2861 C 279.487 -1.39418 1.32009 0
M  V30 2862 O 280.688 -2.03829 1.75235 0
M  V30 2863 C 278.959 -0.327233 3.55899 0
M  V30 2864 S 280.518 -0.853208 4.30425 0
M  V30 2865 H 277.336 -0.028921 0.710412 0
M  V30 2866 H 279.938 0.604413 1.85922 0
M  V30 2867 H 278.642 0.606445 4.05895 0
M  V30 2868 H 278.173 -1.07844 3.7833 0
M  V30 2869 H 280.188 -2.13005 4.48155 0
M  V30 2870 N 279.361 -1.56624 0.175154 0
M  V30 2871 C 280.772 -1.83561 -0.340916 0
M  V30 2872 C 281.123 -1.09511 -1.62794 0
M  V30 2873 O 280.248 -0.349389 -2.13561 0
M  V30 2874 C 280.843 -3.32979 -0.625313 0
M  V30 2875 C 279.402 -3.60399 -1.08581 0
M  V30 2876 C 278.549 -2.77024 -0.123722 0
M  V30 2877 H 281.5 -1.53593 0.399344 0
M  V30 2878 H 281.521 -3.50666 -1.47694 0
M  V30 2879 H 281.033 -3.86847 0.311575 0
M  V30 2880 H 279.134 -3.11945 -2.03767 0
M  V30 2881 H 279.247 -4.68711 -0.992317 0
M  V30 2882 H 277.611 -2.46993 -0.621821 0
M  V30 2883 H 278.394 -3.33674 0.807256 0
M  V30 2884 N 280.839 0.0985539 -1.57292 0
M  V30 2885 C 282.25 0.653457 -1.74891 0
M  V30 2886 C 282.601 1.7929 -0.796838 0
M  V30 2887 O 281.726 2.16385 0.0254886 0
M  V30 2888 C 282.321 1.19216 -3.17133 0
M  V30 2889 C 280.88 1.69316 -3.36168 0
M  V30 2890 C 280.027 0.601294 -2.70702 0
M  V30 2891 H 282.978 -0.127497 -1.58187 0
M  V30 2892 H 282.999 2.06154 -3.19814 0
M  V30 2893 H 282.511 0.362635 -3.86402 0
M  V30 2894 H 280.612 2.5468 -2.71972 0
M  V30 2895 H 280.725 1.78853 -4.44464 0
M  V30 2896 H 279.089 1.0399 -2.32504 0
M  V30 2897 H 279.872 -0.217592 -3.4261 0
M  V30 2898 N 282.317 1.53212 0.369288 0
M  V30 2899 C 283.565 1.68881 1.11012 0
M  V30 2900 C 283.886 0.441285 1.89941 0
M  V30 2901 O 283.156 -0.544623 1.88177 0
M  V30 2902 H 281.736 0.622569 0.412816 0
M  V30 2903 H 284.398 1.90391 0.416802 0
M  V30 2904 H 283.494 2.54822 1.80201 0
M  V30 2905 N 283.795 -0.628877 1.44509 0
M  V30 2906 C 284.725 -1.75187 1.54376 0
M  V30 2907 C 285.706 -1.65411 0.396618 0
M  V30 2908 O 286.891 -1.84137 0.617031 0
M  V30 2909 C 284.021 -3.13725 1.48976 0
M  V30 2910 C 282.975 -3.38291 2.62189 0
M  V30 2911 C 282.301 -4.76883 2.41841 0
M  V30 2912 C 283.601 -3.30632 4.04326 0
M  V30 2913 H 285.295 -1.67187 2.48373 0
M  V30 2914 H 282.841 -0.802909 1.19538 0
M  V30 2915 H 284.794 -3.92064 1.54478 0
M  V30 2916 H 283.518 -3.22515 0.514961 0
M  V30 2917 H 282.177 -2.62334 2.56079 0
M  V30 2918 H 281.825 -4.82378 1.42548 0
M  V30 2919 H 281.525 -4.94278 3.17747 0
M  V30 2920 H 283.049 -5.57449 2.49165 0
M  V30 2921 H 284.463 -3.98873 4.11793 0
M  V30 2922 H 282.86 -3.59561 4.80454 0
M  V30 2923 H 283.93 -2.28404 4.27738 0
M  V30 2924 N 285.273 -1.31445 -0.869486 0
M  V30 2925 C 286.521 -1.20918 -1.61936 0
M  V30 2926 C 286.842 0.232683 -1.93607 0
M  V30 2927 O 286.112 1.15352 -1.58338 0
M  V30 2928 H 284.692 -0.44454 -0.600328 0
M  V30 2929 H 287.354 -1.64776 -1.0409 0
M  V30 2930 H 286.45 -1.78124 -2.56278 0
M  V30 2931 N 286.751 1.08385 -1.14413 0
M  V30 2932 C 287.998 1.80776 -0.912482 0
M  V30 2933 C 288.326 1.86236 0.560934 0
M  V30 2934 O 287.581 1.33431 1.43159 0
M  V30 2935 C 287.88 3.26273 -1.45879 0
M  V30 2936 C 287.546 3.4093 -2.95089 0
M  V30 2937 C 286.208 3.44638 -3.35824 0
M  V30 2938 C 288.56 3.44591 -3.91033 0
M  V30 2939 C 285.888 3.49597 -4.71167 0
M  V30 2940 C 288.24 3.51086 -5.26233 0
M  V30 2941 C 286.904 3.53067 -5.6648 0
M  V30 2942 H 286.174 0.661507 -0.333901 0
M  V30 2943 H 288.821 1.27613 -1.42784 0
M  V30 2944 H 287.126 3.82146 -0.864376 0
M  V30 2945 H 288.823 3.80839 -1.2555 0
M  V30 2946 H 285.413 3.38736 -2.62594 0
M  V30 2947 H 289.597 3.40957 -3.60641 0
M  V30 2948 H 284.853 3.49424 -5.0171 0
M  V30 2949 H 289.027 3.52864 -6.00383 0
M  V30 2950 H 286.654 3.56662 -6.71339 0
M  V30 2951 N 288.23 0.939286 1.26551 0
M  V30 2952 C 289.476 0.586715 1.94128 0
M  V30 2953 C 289.809 -0.8717 1.73537 0
M  V30 2954 O 289.084 -1.62339 1.07127 0
M  V30 2955 C 289.367 0.927497 3.4795 0
M  V30 2956 C 289.22 2.44052 3.77834 0
M  V30 2957 C 290.539 0.441569 4.37879 0
M  V30 2958 H 287.658 0.21463 0.705055 0
M  V30 2959 H 290.3 1.17316 1.49455 0
M  V30 2960 H 288.45 0.428431 3.8613 0
M  V30 2961 H 290.122 3.01216 3.4938 0
M  V30 2962 H 288.365 2.8848 3.23978 0
M  V30 2963 H 289.036 2.62947 4.85348 0
M  V30 2964 H 291.512 0.869448 4.06915 0
M  V30 2965 H 290.388 0.708856 5.44304 0
M  V30 2966 H 290.649 -0.658467 4.37169 0
M  V30 2967 N 289.708 -1.40897 0.706093 0
M  V30 2968 C 290.671 -2.29131 0.0562841 0
M  V30 2969 C 291.671 -1.44901 -0.697166 0
M  V30 2970 O 292.861 -1.65926 -0.530484 0
M  V30 2971 C 289.993 -3.27957 -0.93043 0
M  V30 2972 H 291.186 -2.88091 0.833284 0
M  V30 2973 H 288.739 -1.4906 0.470192 0
M  V30 2974 H 289.474 -2.73997 -1.73482 0
M  V30 2975 H 289.259 -3.90124 -0.393166 0
M  V30 2976 H 290.749 -3.94049 -1.38256 0
M  V30 2977 N 291.186 -0.45159 -1.50991 0
M  V30 2978 C 292.116 0.342898 -2.30969 0
M  V30 2979 C 293.097 1.00815 -1.37005 0
M  V30 2980 O 294.282 1.00907 -1.65926 0
M  V30 2981 C 291.412 1.43637 -3.16205 0
M  V30 2982 C 290.366 0.893818 -4.18563 0
M  V30 2983 C 289.692 2.08411 -4.92411 0
M  V30 2984 C 290.992 -0.0815568 -5.22236 0
M  V30 2985 H 292.686 -0.324556 -2.97636 0
M  V30 2986 H 290.232 -0.157531 -1.43136 0
M  V30 2987 H 292.185 1.9995 -3.70942 0
M  V30 2988 H 290.909 2.13232 -2.47386 0
M  V30 2989 H 289.568 0.352798 -3.64898 0
M  V30 2990 H 289.216 2.76658 -4.20082 0
M  V30 2991 H 288.916 1.72741 -5.61636 0
M  V30 2992 H 290.44 2.65251 -5.49976 0
M  V30 2993 H 291.854 0.391742 -5.7196 0
M  V30 2994 H 290.251 -0.351551 -5.99069 0
M  V30 2995 H 291.321 -1.01374 -4.74185 0
M  V30 2996 N 292.664 1.56529 -0.183458 0
M  V30 2997 C 293.889 2.02064 0.467428 0
M  V30 2998 C 294.314 1.06282 1.55196 0
M  V30 2999 O 293.672 0.0443565 1.81246 0
M  V30 3000 C 293.72 3.46122 1.01153 0
M  V30 3001 O 292.824 3.53437 2.12499 0
M  V30 3002 H 292.165 0.654726 0.110588 0
M  V30 3003 H 294.695 2.02521 -0.290917 0
M  V30 3004 H 294.705 3.85676 1.33108 0
M  V30 3005 H 293.38 4.15331 0.217533 0
M  V30 3006 H 291.957 3.2575 1.81497 0
M  V30 3007 N 294.142 -0.090211 1.57342 0
M  V30 3008 C 295.553 -0.644173 1.75235 0
M  V30 3009 C 295.904 -1.78865 0.806335 0
M  V30 3010 O 295.029 -2.16395 -0.0140128 0
M  V30 3011 C 295.624 -1.17532 3.1776 0
M  V30 3012 C 294.183 -1.67531 3.37061 0
M  V30 3013 C 293.33 -0.58693 2.71017 0
M  V30 3014 H 296.281 0.135884 1.58117 0
M  V30 3015 H 296.302 -2.04455 3.20902 0
M  V30 3016 H 295.814 -0.342138 3.86589 0
M  V30 3017 H 293.915 -2.53234 2.73319 0
M  V30 3018 H 294.028 -1.76493 4.45406 0
M  V30 3019 H 292.392 -1.02756 2.33052 0
M  V30 3020 H 293.175 0.235758 3.4249 0
M  V30 3021 N 295.62 -1.53406 -0.361157 0
M  V30 3022 C 297.036 -1.43277 -0.703124 0
M  V30 3023 C 297.236 -0.575384 -1.9311 0
M  V30 3024 O 296.292 -0.0595362 -2.5243 0
M  V30 3025 C 297.605 -2.8653 -0.9122 0
M  V30 3026 C 299.153 -2.96191 -1.01193 0
M  V30 3027 C 299.628 -4.40514 -1.25345 0
M  V30 3028 N 301.119 -4.43962 -1.32105 0
M  V30 3029 C 301.854 -5.52746 -1.5251 0
M  V30 3030 N 301.35 -6.71567 -1.70203 0
M  V30 3031 N 303.143 -5.40331 -1.54916 0
M  V30 3032 H 295.294 -2.07654 0.446475 0
M  V30 3033 H 297.557 -0.937944 0.137715 0
M  V30 3034 H 297.263 -3.51605 -0.0816414 0
M  V30 3035 H 297.137 -3.30441 -1.81903 0
M  V30 3036 H 299.524 -2.31266 -1.83303 0
M  V30 3037 H 299.605 -2.55667 -0.0823929 0
M  V30 3038 H 299.249 -5.06014 -0.437346 0
M  V30 3039 H 299.179 -4.78614 -2.19627 0
M  V30 3040 H 301.67 -3.58332 -1.20028 0
M  V30 3041 H 301.983 -7.50241 -1.85359 0
M  V30 3042 H 300.328 -6.74545 -1.67373 0
M  V30 3043 H 303.519 -4.46465 -1.40663 0
M  V30 3044 H 303.692 -6.25173 -1.70477 0
M  V30 3045 N 297.098 0.621204 -1.44841 0
M  V30 3046 C 298.061 1.71459 -1.521 0
M  V30 3047 C 299.061 1.55696 -0.401933 0
M  V30 3048 O 300.251 1.61011 -0.664925 0
M  V30 3049 C 297.383 3.10624 -1.40447 0
M  V30 3050 H 298.576 1.66394 -2.49506 0
M  V30 3051 H 296.129 0.835745 -1.3208 0
M  V30 3052 H 296.864 3.21277 -0.441737 0
M  V30 3053 H 296.649 3.23473 -2.21602 0
M  V30 3054 H 298.139 3.90293 -1.4853 0
M  V30 3055 N 298.576 1.31904 0.862503 0
M  V30 3056 C 299.506 1.22782 1.98612 0
M  V30 3057 C 300.487 0.113362 1.69722 0
M  V30 3058 O 301.672 0.299218 1.91881 0
M  V30 3059 C 298.802 0.942058 3.34279 0
M  V30 3060 C 297.756 2.0169 3.77499 0
M  V30 3061 C 297.082 1.58369 5.10709 0
M  V30 3062 C 298.382 3.43096 3.93805 0
M  V30 3063 H 300.076 2.16788 2.06502 0
M  V30 3064 H 297.622 1.04366 0.992154 0
M  V30 3065 H 299.575 0.864818 4.1243 0
M  V30 3066 H 298.299 -0.0336603 3.26583 0
M  V30 3067 H 296.958 2.08416 3.01593 0
M  V30 3068 H 296.606 0.595628 4.99461 0
M  V30 3069 H 296.306 2.30279 5.40597 0
M  V30 3070 H 297.83 1.52067 5.91361 0
M  V30 3071 H 299.244 3.39003 4.62331 0
M  V30 3072 H 297.641 4.13288 4.35101 0
M  V30 3073 H 298.711 3.83334 2.96957 0
M  V30 3074 N 300.054 -1.07777 1.14986 0
M  V30 3075 C 300.964 -2.18404 0.856546 0
M  V30 3076 C 301.98 -1.73211 -0.165485 0
M  V30 3077 O 303.156 -2.01399 0.00755219 0
M  V30 3078 C 300.221 -3.44977 0.34526 0
M  V30 3079 C 299.282 -4.0476 1.43065 0
M  V30 3080 C 298.515 -5.25291 0.943663 0
M  V30 3081 O 298.738 -5.70004 -0.212426 0
M  V30 3082 O 297.672 -5.76638 1.72547 0
M  V30 3083 H 301.498 -2.45978 1.78125 0
M  V30 3084 H 299.083 -1.17033 0.928631 0
M  V30 3085 H 300.965 -4.21348 0.0663671 0
M  V30 3086 H 299.64 -3.18965 -0.551631 0
M  V30 3087 H 298.547 -3.29949 1.76309 0
M  V30 3088 H 299.88 -4.35035 2.30229 0
M  V30 3089 N 301.532 -0.945985 -1.26051 0
M  V30 3090 C 302.948 -0.649045 -1.45807 0
M  V30 3091 C 303.148 0.796158 -1.85104 0
M  V30 3092 O 302.204 1.57233 -1.97571 0
M  V30 3093 C 303.517 -1.61458 -2.53677 0
M  V30 3094 C 305.065 -1.62481 -2.67524 0
M  V30 3095 C 305.54 -2.57776 -3.7857 0
M  V30 3096 N 307.031 -2.5609 -3.85969 0
M  V30 3097 C 307.766 -3.26508 -4.7136 0
M  V30 3098 N 307.262 -4.0637 -5.61102 0
M  V30 3099 N 309.055 -3.15437 -4.65248 0
M  V30 3100 H 301.206 -1.88005 -0.988328 0
M  V30 3101 H 303.469 -0.808198 -0.4955 0
M  V30 3102 H 303.175 -2.64644 -2.31638 0
M  V30 3103 H 303.049 -1.37036 -3.51427 0
M  V30 3104 H 305.436 -0.600167 -2.88933 0
M  V30 3105 H 305.517 -1.90958 -1.70202 0
M  V30 3106 H 305.161 -3.60361 -3.57913 0
M  V30 3107 H 305.091 -2.26587 -4.75359 0
M  V30 3108 H 307.582 -1.98105 -3.21812 0
M  V30 3109 H 307.895 -4.57042 -6.23164 0
M  V30 3110 H 306.24 -4.10469 -5.60839 0
M  V30 3111 H 309.431 -2.52525 -3.94143 0
M  V30 3112 H 309.604 -3.70584 -5.31575 0
M  V30 3113 N 303.011 1.40521 -0.713556 0
M  V30 3114 C 303.941 2.33381 -0.0743864 0
M  V30 3115 C 304.922 1.52784 0.747735 0
M  V30 3116 O 306.107 1.81258 0.697071 0
M  V30 3117 C 303.237 3.36748 0.849598 0
M  V30 3118 C 302.191 4.27793 0.133247 0
M  V30 3119 C 301.517 5.21679 1.17281 0
M  V30 3120 C 302.817 5.12415 -1.01134 0
M  V30 3121 H 304.511 2.87081 -0.850007 0
M  V30 3122 H 302.057 1.38034 -0.410201 0
M  V30 3123 H 304.01 4.00648 1.30612 0
M  V30 3124 H 302.734 2.81439 1.65709 0
M  V30 3125 H 301.393 3.65342 -0.303426 0
M  V30 3126 H 301.041 4.62677 1.9733 0
M  V30 3127 H 300.741 5.83435 0.698397 0
M  V30 3128 H 302.265 5.88456 1.62947 0
M  V30 3129 H 303.679 5.69781 -0.634274 0
M  V30 3130 H 302.076 5.83203 -1.41399 0
M  V30 3131 H 303.146 4.48514 -1.84292 0
M  V30 3132 N 304.489 0.459591 1.5075 0
M  V30 3133 C 305.436 -0.340524 2.28274 0
M  V30 3134 C 306.406 -0.997371 1.32822 0
M  V30 3135 O 307.591 -1.01202 1.61749 0
M  V30 3136 C 304.731 -1.42317 3.14388 0
M  V30 3137 C 303.844 -0.782251 4.24859 0
M  V30 3138 C 302.979 -1.84182 4.98247 0
M  V30 3139 C 302.018 -1.18053 6.00608 0
M  V30 3140 N 301.155 -2.18244 6.67319 0
M  V30 3141 H 305.995 0.326899 2.96202 0
M  V30 3142 H 303.532 0.173057 1.46078 0
M  V30 3143 H 305.49 -2.06241 3.62658 0
M  V30 3144 H 304.12 -2.05992 2.4853 0
M  V30 3145 H 303.172 -0.0307404 3.80388 0
M  V30 3146 H 304.484 -0.259663 4.98124 0
M  V30 3147 H 303.638 -2.55714 5.50177 0
M  V30 3148 H 302.377 -2.39819 4.24662 0
M  V30 3149 H 301.382 -0.450776 5.47949 0
M  V30 3150 H 302.607 -0.631202 6.7616 0
M  V30 3151 H 300.553 -2.72919 5.96533 0
M  V30 3152 H 300.47 -1.70938 7.36421 0
M  V30 3153 H 301.738 -2.89191 7.23871 0
M  V30 3154 N 305.967 -1.56429 0.191757 0
M  V30 3155 C 307.378 -1.83912 -0.321428 0
M  V30 3156 C 307.729 -1.11231 -1.61623 0
M  V30 3157 O 306.854 -0.37202 -2.13178 0
M  V30 3158 C 307.449 -3.33624 -0.589961 0
M  V30 3159 C 306.008 -3.6153 -1.04753 0
M  V30 3160 C 305.155 -2.7714 -0.0943327 0
M  V30 3161 H 308.106 -1.53161 0.415612 0
M  V30 3162 H 308.127 -3.52213 -1.43966 0
M  V30 3163 H 307.639 -3.86495 0.352588 0
M  V30 3164 H 305.74 -3.14089 -2.00447 0
M  V30 3165 H 305.853 -4.69737 -0.942549 0
M  V30 3166 H 304.217 -2.47638 -0.595589 0
M  V30 3167 H 305 -3.32799 0.842601 0
M  V30 3168 N 307.445 0.0818655 -1.57387 0
M  V30 3169 C 308.861 0.436412 -1.53517 0
M  V30 3170 C 309.061 1.79758 -0.910459 0
M  V30 3171 O 308.117 2.47324 -0.508636 0
M  V30 3172 C 309.43 0.386734 -2.98203 0
M  V30 3173 C 310.978 0.467644 -3.09487 0
M  V30 3174 C 311.453 0.447978 -4.55804 0
M  V30 3175 N 312.944 0.508348 -4.60402 0
M  V30 3176 C 313.679 0.515184 -5.71081 0
M  V30 3177 N 313.175 0.477435 -6.91153 0
M  V30 3178 N 314.968 0.560988 -5.59294 0
M  V30 3179 H 307.119 -0.809546 -1.96367 0
M  V30 3180 H 309.382 -0.302733 -0.898363 0
M  V30 3181 H 309.088 -0.546539 -3.47427 0
M  V30 3182 H 308.962 1.20075 -3.57578 0
M  V30 3183 H 311.349 1.39134 -2.60242 0
M  V30 3184 H 311.43 -0.374753 -2.5304 0
M  V30 3185 H 311.074 -0.471826 -5.05704 0
M  V30 3186 H 311.004 1.30777 -5.10103 0
M  V30 3187 H 313.495 0.54218 -3.7399 0
M  V30 3188 H 313.808 0.486299 -7.71268 0
M  V30 3189 H 312.153 0.444278 -6.93579 0
M  V30 3190 H 315.344 0.5881 -4.64391 0
M  V30 3191 H 315.517 0.562846 -6.45551 0
M  V30 3192 N 308.923 1.53595 0.353017 0
M  V30 3193 C 310.171 1.70049 1.09215 0
M  V30 3194 C 310.492 0.461406 1.89463 0
M  V30 3195 O 309.762 -0.524633 1.88744 0
M  V30 3196 H 308.342 0.626912 0.40619 0
M  V30 3197 H 311.004 1.90822 0.396585 0
M  V30 3198 H 310.1 2.56718 1.77488 0
M  V30 3199 N 310.401 -0.613514 1.45168 0
M  V30 3200 C 311.631 -1.39743 1.52169 0
M  V30 3201 C 312.039 -1.88596 0.151086 0
M  V30 3202 O 311.382 -1.6251 -0.856521 0
M  V30 3203 C 311.444 -2.64035 2.43979 0
M  V30 3204 C 311.108 -2.36861 3.90827 0
M  V30 3205 C 312.105 -1.97591 4.80889 0
M  V30 3206 C 309.79 -2.49956 4.35692 0
M  V30 3207 C 311.784 -1.71768 6.1382 0
M  V30 3208 C 309.471 -2.23747 5.68665 0
M  V30 3209 C 310.469 -1.84714 6.57548 0
M  V30 3210 O 310.157 -1.58809 7.88058 0
M  V30 3211 H 309.889 -0.434382 0.517966 0
M  V30 3212 H 312.443 -0.75587 1.90986 0
M  V30 3213 H 310.673 -3.3089 2.00122 0
M  V30 3214 H 312.362 -3.26069 2.41731 0
M  V30 3215 H 313.128 -1.87015 4.47493 0
M  V30 3216 H 309.007 -2.79305 3.66756 0
M  V30 3217 H 312.551 -1.41227 6.83155 0
M  V30 3218 H 308.448 -2.33938 6.01617 0
M  V30 3219 H 309.216 -1.7291 8.00028 0
M  V30 3220 N 311.879 -1.3236 -0.855495 0
M  V30 3221 C 313.109 -1.25688 -1.6397 0
M  V30 3222 C 313.517 0.177592 -1.88365 0
M  V30 3223 O 312.86 1.12485 -1.45234 0
M  V30 3224 C 312.922 -1.94602 -3.02275 0
M  V30 3225 C 312.586 -3.43937 -3.00926 0
M  V30 3226 C 313.583 -4.39435 -2.77835 0
M  V30 3227 C 311.268 -3.85858 -3.21588 0
M  V30 3228 C 313.262 -5.74829 -2.75409 0
M  V30 3229 C 310.949 -5.21361 -3.18789 0
M  V30 3230 C 311.947 -6.15658 -2.95727 0
M  V30 3231 O 311.635 -7.48681 -2.928 0
M  V30 3232 H 311.367 -0.434972 -0.51747 0
M  V30 3233 H 313.921 -1.75023 -1.075 0
M  V30 3234 H 312.151 -1.39836 -3.60531 0
M  V30 3235 H 313.84 -1.81651 -3.62985 0
M  V30 3236 H 314.606 -4.08374 -2.6164 0
M  V30 3237 H 310.485 -3.12883 -3.38564 0
M  V30 3238 H 314.029 -6.48404 -2.57328 0
M  V30 3239 H 309.926 -5.52052 -3.34528 0
M  V30 3240 H 310.694 -7.5803 -3.0876 0
M  V30 3241 N 313.357 1.07166 -1.15556 0
M  V30 3242 C 314.287 2.16403 -0.877046 0
M  V30 3243 C 315.268 1.69217 0.173111 0
M  V30 3244 O 316.453 1.94181 0.027084 0
M  V30 3245 C 313.583 3.45349 -0.367632 0
M  V30 3246 C 312.537 4.05995 -1.35468 0
M  V30 3247 C 311.863 5.30045 -0.704038 0
M  V30 3248 C 313.163 4.45804 -2.72132 0
M  V30 3249 H 314.857 2.39959 -1.79053 0
M  V30 3250 H 312.403 1.15325 -0.862331 0
M  V30 3251 H 314.356 4.21095 -0.160317 0
M  V30 3252 H 313.08 3.21385 0.581326 0
M  V30 3253 H 311.739 3.32296 -1.54839 0
M  V30 3254 H 311.387 5.02373 0.251128 0
M  V30 3255 H 311.087 5.71579 -1.36277 0
M  V30 3256 H 312.611 6.08495 -0.50654 0
M  V30 3257 H 314.025 5.12671 -2.56595 0
M  V30 3258 H 312.422 4.98296 -3.34397 0
M  V30 3259 H 313.492 3.57083 -3.28054 0
M  V30 3260 N 314.835 0.952656 1.25548 0
M  V30 3261 C 316.112 0.523818 1.88456 0
M  V30 3262 C 316.492 -0.998871 1.85973 0
M  V30 3263 O 315.84 -1.86381 1.3219 0
M  V30 3264 C 316.05 1.0982 3.31271 0
M  V30 3265 C 317.398 1.17385 4.08051 0
M  V30 3266 O 318.422 1.04961 3.40384 0
M  V30 3267 O 317.281 1.36852 5.29088 0
M  V30 3268 H 314.375 0.172485 0.808813 0
M  V30 3269 H 316.921 1.04596 1.33633 0
M  V30 3270 H 315.693 2.1415 3.27499 0
M  V30 3271 H 315.316 0.559191 3.93648 0
M  V30 3272 N 316.313 -1.40141 0.720998 0
M  V30 3273 C 317.243 -2.33339 0.0867621 0
M  V30 3274 C 318.224 -1.53178 -0.739622 0
M  V30 3275 O 319.409 -1.81625 -0.687449 0
M  V30 3276 C 316.539 -3.37194 -0.831728 0
M  V30 3277 C 315.493 -4.27857 -0.110558 0
M  V30 3278 C 314.819 -5.22294 -1.14513 0
M  V30 3279 C 316.119 -5.11872 1.0385 0
M  V30 3280 H 317.813 -2.86626 0.865219 0
M  V30 3281 H 315.359 -1.37814 0.417516 0
M  V30 3282 H 317.312 -4.01335 -1.28485 0
M  V30 3283 H 316.036 -2.82314 -1.64214 0
M  V30 3284 H 314.695 -3.65176 0.322797 0
M  V30 3285 H 314.343 -4.63717 -1.94874 0
M  V30 3286 H 314.043 -5.83797 -0.667446 0
M  V30 3287 H 315.567 -5.89312 -1.59824 0
M  V30 3288 H 316.981 -5.69436 0.664482 0
M  V30 3289 H 315.378 -5.82445 1.4449 0
M  V30 3290 H 316.448 -4.4753 1.86668 0
M  V30 3291 N 317.792 -0.46758 -1.50504 0
M  V30 3292 C 318.755 0.317059 -2.26996 0
M  V30 3293 C 319.755 0.923513 -1.31635 0
M  V30 3294 O 320.945 0.793239 -1.55091 0
M  V30 3295 C 318.077 1.45134 -3.08462 0
M  V30 3296 H 319.27 -0.353723 -2.97807 0
M  V30 3297 H 316.823 -0.221545 -1.54722 0
M  V30 3298 H 317.558 2.15728 -2.4214 0
M  V30 3299 H 317.343 1.02232 -3.78538 0
M  V30 3300 H 318.833 2.00493 -3.66323 0
M  V30 3301 N 319.27 1.56325 -0.20005 0
M  V30 3302 C 320.686 1.58839 0.155716 0
M  V30 3303 C 320.886 1.21636 1.60645 0
M  V30 3304 O 319.942 0.941437 2.34293 0
M  V30 3305 C 321.255 3.0032 -0.151124 0
M  V30 3306 C 322.803 3.12866 -0.0916284 0
M  V30 3307 C 323.278 4.56488 -0.371845 0
M  V30 3308 N 324.769 4.62089 -0.320641 0
M  V30 3309 C 325.504 5.71116 -0.511243 0
M  V30 3310 N 325 6.88592 -0.762461 0
M  V30 3311 N 326.793 5.60335 -0.445157 0
M  V30 3312 H 318.944 1.78788 -1.14668 0
M  V30 3313 H 321.207 0.829996 -0.458051 0
M  V30 3314 H 320.913 3.32117 -1.15721 0
M  V30 3315 H 320.787 3.73257 0.543986 0
M  V30 3316 H 323.174 2.80878 0.905065 0
M  V30 3317 H 323.255 2.42304 -0.81989 0
M  V30 3318 H 322.899 4.89189 -1.36588 0
M  V30 3319 H 322.829 5.25246 0.377362 0
M  V30 3320 H 325.32 3.77665 -0.13329 0
M  V30 3321 H 325.633 7.67581 -0.896576 0
M  V30 3322 H 323.978 6.90387 -0.799412 0
M  V30 3323 H 327.169 4.67436 -0.249278 0
M  V30 3324 H 327.342 6.45243 -0.597116 0
M  V30 3325 N 320.748 -0.0735177 1.57428 0
M  V30 3326 C 321.658 -1.10547 2.06922 0
M  V30 3327 C 322.674 -1.42506 0.998402 0
M  V30 3328 O 323.85 -1.52717 1.31299 0
M  V30 3329 C 320.915 -2.40019 2.50184 0
M  V30 3330 C 319.976 -2.15046 3.71556 0
M  V30 3331 C 319.209 -3.38345 4.12745 0
M  V30 3332 O 319.432 -4.47399 3.53822 0
M  V30 3333 O 318.366 -3.2666 5.05546 0
M  V30 3334 H 322.192 -0.715013 2.95163 0
M  V30 3335 H 319.777 -0.287531 1.46607 0
M  V30 3336 H 321.659 -3.16218 2.78539 0
M  V30 3337 H 320.334 -2.78447 1.65072 0
M  V30 3338 H 319.241 -1.36558 3.48285 0
M  V30 3339 H 320.574 -1.81499 4.57514 0
M  V30 3340 N 322.226 -1.5378 -0.344866 0
M  V30 3341 C 323.156 -1.84662 -1.42906 0
M  V30 3342 C 324.137 -0.701648 -1.54955 0
M  V30 3343 O 325.322 -0.953438 -1.69184 0
M  V30 3344 C 322.452 -2.05503 -2.79974 0
M  V30 3345 C 321.406 -3.21318 -2.82734 0
M  V30 3346 C 320.732 -3.2749 -4.22675 0
M  V30 3347 C 322.032 -4.59456 -2.48389 0
M  V30 3348 H 323.726 -2.75461 -1.17311 0
M  V30 3349 H 321.272 -1.32542 -0.562896 0
M  V30 3350 H 323.225 -2.25691 -3.55867 0
M  V30 3351 H 321.949 -1.11434 -3.07002 0
M  V30 3352 H 320.608 -3.00984 -2.09294 0
M  V30 3353 H 320.256 -2.31019 -4.4681 0
M  V30 3354 H 319.956 -4.05316 -4.25433 0
M  V30 3355 H 321.48 -3.49887 -5.00412 0
M  V30 3356 H 322.894 -4.79667 -3.13995 0
M  V30 3357 H 321.291 -5.39675 -2.62432 0
M  V30 3358 H 322.361 -4.63155 -1.4358 0
M  V30 3359 N 323.704 0.605807 -1.45491 0
M  V30 3360 C 324.651 1.7164 -1.54299 0
M  V30 3361 C 325.621 1.61486 -0.388761 0
M  V30 3362 O 326.806 1.81039 -0.602445 0
M  V30 3363 C 323.946 3.09953 -1.51734 0
M  V30 3364 C 323.059 3.309 -2.77721 0
M  V30 3365 C 322.194 4.59329 -2.66816 0
M  V30 3366 C 321.233 4.7354 -3.87848 0
M  V30 3367 N 320.37 5.9327 -3.75467 0
M  V30 3368 H 325.21 1.63449 -2.49176 0
M  V30 3369 H 322.747 0.796957 -1.23641 0
M  V30 3370 H 324.705 3.89977 -1.48235 0
M  V30 3371 H 323.335 3.17098 -0.604068 0
M  V30 3372 H 322.387 2.44639 -2.913 0
M  V30 3373 H 323.699 3.37274 -3.67488 0
M  V30 3374 H 322.853 5.4755 -2.61292 0
M  V30 3375 H 321.592 4.55355 -1.74651 0
M  V30 3376 H 320.597 3.83741 -3.93729 0
M  V30 3377 H 321.822 4.79309 -4.81082 0
M  V30 3378 H 319.768 5.90338 -2.86072 0
M  V30 3379 H 319.685 6.00811 -4.5887 0
M  V30 3380 H 320.953 6.83984 -3.73879 0
M  V30 3381 N 325.182 1.32811 0.848464 0
M  V30 3382 C 326.145 1.22194 1.9391 0
M  V30 3383 C 327.145 0.143404 1.60159 0
M  V30 3384 O 328.335 0.394253 1.6968 0
M  V30 3385 C 325.467 0.88067 3.29328 0
M  V30 3386 H 326.66 2.19127 2.04752 0
M  V30 3387 H 324.213 1.16731 1.0394 0
M  V30 3388 H 324.948 -0.0865776 3.24184 0
M  V30 3389 H 324.733 1.66052 3.55203 0
M  V30 3390 H 326.223 0.830871 4.09251 0
M  V30 3391 N 326.66 -1.06551 1.16123 0
M  V30 3392 C 327.592 -2.13908 0.823171 0
M  V30 3393 C 328.605 -1.61926 -0.16843 0
M  V30 3394 O 329.794 -1.78412 0.055962 0
M  V30 3395 C 326.894 -3.38283 0.204424 0
M  V30 3396 C 326.067 -4.19589 1.23548 0
M  V30 3397 C 325.126 -5.2233 0.637011 0
M  V30 3398 O 324.152 -5.54034 1.30516 0
M  V30 3399 N 325.354 -5.77621 -0.577474 0
M  V30 3400 H 328.119 -2.43508 1.74711 0
M  V30 3401 H 325.68 -1.2253 1.05821 0
M  V30 3402 H 327.672 -4.0416 -0.208909 0
M  V30 3403 H 326.242 -3.06329 -0.623012 0
M  V30 3404 H 325.462 -3.49406 1.82507 0
M  V30 3405 H 326.75 -4.70718 1.93137 0
M  V30 3406 H 326.148 -5.54125 -1.13853 0
M  V30 3407 H 324.705 -6.45087 -0.933053 0
M  V30 3408 N 328.138 -0.959301 -1.25041 0
M  V30 3409 C 329.085 -0.482057 -2.2571 0
M  V30 3410 C 330.055 0.467939 -1.59372 0
M  V30 3411 O 331.24 0.380159 -1.86974 0
M  V30 3412 C 328.38 0.229623 -3.44335 0
M  V30 3413 C 327.493 -0.758156 -4.25295 0
M  V30 3414 C 326.628 -0.0234403 -5.31195 0
M  V30 3415 C 325.667 -1.00184 -6.03846 0
M  V30 3416 N 324.804 -0.29769 -7.01469 0
M  V30 3417 H 329.644 -1.34538 -2.65901 0
M  V30 3418 H 327.181 -0.674592 -1.3072 0
M  V30 3419 H 329.139 0.658856 -4.11965 0
M  V30 3420 H 327.769 1.05696 -3.05005 0
M  V30 3421 H 326.821 -1.30586 -3.57284 0
M  V30 3422 H 328.133 -1.50458 -4.75567 0
M  V30 3423 H 327.287 0.464201 -6.04922 0
M  V30 3424 H 326.026 0.755741 -4.81809 0
M  V30 3425 H 325.031 -1.50044 -5.2893 0
M  V30 3426 H 326.256 -1.78133 -6.55321 0
M  V30 3427 H 324.202 0.462668 -6.54366 0
M  V30 3428 H 324.119 -0.983128 -7.4958 0
M  V30 3429 H 325.387 0.16826 -7.79318 0
M  V30 3430 N 329.616 1.39756 -0.72842 0
M  V30 3431 C 330.526 2.34444 -0.0855374 0
M  V30 3432 C 331.542 1.57976 0.729356 0
M  V30 3433 O 332.718 1.90301 0.659346 0
M  V30 3434 C 329.783 3.36965 0.815798 0
M  V30 3435 C 328.844 4.29299 -0.0105996 0
M  V30 3436 C 328.077 5.26923 0.84781 0
M  V30 3437 O 328.3 5.30859 2.08673 0
M  V30 3438 O 327.234 6.01249 0.279969 0
M  V30 3439 H 331.06 2.91065 -0.866892 0
M  V30 3440 H 328.645 1.4117 -0.48902 0
M  V30 3441 H 330.527 3.99804 1.33171 0
M  V30 3442 H 329.202 2.82739 1.57608 0
M  V30 3443 H 328.109 3.69703 -0.571877 0
M  V30 3444 H 329.442 4.86712 -0.73295 0
M  V30 3445 N 331.094 0.475555 1.50254 0
M  V30 3446 C 332.342 -0.077738 2.0195 0
M  V30 3447 C 332.663 -1.39813 1.35931 0
M  V30 3448 O 331.933 -1.89249 0.506123 0
M  V30 3449 H 330.513 -0.031719 0.746326 0
M  V30 3450 H 333.175 0.626995 1.84539 0
M  V30 3451 H 332.271 -0.225995 3.11281 0
M  V30 3452 N 332.573 -1.56217 0.208337 0
M  V30 3453 C 333.483 -2.23316 -0.718836 0
M  V30 3454 C 334.499 -1.23648 -1.22422 0
M  V30 3455 O 335.675 -1.56423 -1.26861 0
M  V30 3456 C 332.74 -2.88968 -1.91568 0
M  V30 3457 C 331.801 -4.03943 -1.45357 0
M  V30 3458 C 331.034 -4.66455 -2.59337 0
M  V30 3459 O 331.257 -4.27919 -3.77149 0
M  V30 3460 O 330.191 -5.55686 -2.31293 0
M  V30 3461 H 334.017 -3.03182 -0.177315 0
M  V30 3462 H 331.602 -1.49384 -0.0215402 0
M  V30 3463 H 333.484 -3.30455 -2.61491 0
M  V30 3464 H 332.159 -2.12071 -2.44556 0
M  V30 3465 H 331.066 -3.67052 -0.722746 0
M  V30 3466 H 332.399 -4.82543 -0.970219 0
M  V30 3467 N 334.051 0.0651679 -1.57465 0
M  V30 3468 C 335.276 0.779605 -1.9219 0
M  V30 3469 C 335.701 1.69988 -0.805333 0
M  V30 3470 O 335.059 1.79685 0.241435 0
M  V30 3471 C 335.107 1.54364 -3.2589 0
M  V30 3472 O 334.211 2.65474 -3.1559 0
M  V30 3473 H 333.552 0.212249 -0.629163 0
M  V30 3474 H 336.082 0.0314294 -2.04576 0
M  V30 3475 H 336.092 1.92146 -3.59922 0
M  V30 3476 H 334.767 0.868457 -4.06732 0
M  V30 3477 H 333.344 2.30501 -2.93128 0
M  V30 3478 N 335.529 1.53961 0.336706 0
M  V30 3479 C 336.492 1.81724 1.39675 0
M  V30 3480 C 337.492 0.688532 1.45313 0
M  V30 3481 O 338.682 0.956829 1.45569 0
M  V30 3482 C 335.814 1.96543 2.78538 0
M  V30 3483 H 337.007 2.76424 1.16318 0
M  V30 3484 H 334.56 1.45478 0.571474 0
M  V30 3485 H 335.295 1.0401 3.07168 0
M  V30 3486 H 335.08 2.78665 2.75841 0
M  V30 3487 H 336.57 2.19516 3.5525 0
M  V30 3488 N 337.007 -0.598083 1.45811 0
M  V30 3489 C 338.253 -1.35679 1.51535 0
M  V30 3490 C 338.608 -1.91745 0.15864 0
M  V30 3491 O 337.901 -1.72654 -0.830724 0
M  V30 3492 C 338.095 -2.51669 2.53766 0
M  V30 3493 C 337.924 -2.06963 3.99245 0
M  V30 3494 C 336.694 -1.92693 4.67116 0
M  V30 3495 C 338.892 -1.63855 4.875 0
M  V30 3496 N 336.874 -1.41897 5.97276 0
M  V30 3497 C 338.245 -1.24541 6.07363 0
M  V30 3498 C 340.3 -1.51533 4.74281 0
M  V30 3499 C 339.003 -0.741354 7.15469 0
M  V30 3500 C 341.029 -1.0253 5.82444 0
M  V30 3501 C 340.391 -0.641869 7.01469 0
M  V30 3502 H 336.49 -0.490042 0.609412 0
M  V30 3503 H 339.074 -0.682687 1.82339 0
M  V30 3504 H 337.245 -3.16663 2.24898 0
M  V30 3505 H 338.977 -3.18578 2.4958 0
M  V30 3506 H 335.732 -2.1417 4.22408 0
M  V30 3507 H 336.156 -1.18704 6.66512 0
M  V30 3508 H 340.798 -1.798 3.82664 0
M  V30 3509 H 338.516 -0.446243 8.06867 0
M  V30 3510 H 342.102 -0.934088 5.74253 0
M  V30 3511 H 340.982 -0.268531 7.8374 0
M  V30 3512 N 338.485 -1.33259 -0.841409 0
M  V30 3513 C 339.713 -1.27605 -1.62864 0
M  V30 3514 C 340.128 0.153507 -1.88175 0
M  V30 3515 O 339.485 1.09485 -1.46011 0
M  V30 3516 C 339.536 -2.04596 -2.98031 0
M  V30 3517 O 339.257 -3.41975 -2.73834 0
M  V30 3518 C 340.758 -2.06122 -3.92465 0
M  V30 3519 H 337.978 -0.439718 -0.506842 0
M  V30 3520 H 340.522 -1.75591 -1.04824 0
M  V30 3521 H 338.677 -1.60299 -3.5268 0
M  V30 3522 H 339.091 -3.81549 -3.59889 0
M  V30 3523 H 340.565 -2.64451 -4.84531 0
M  V30 3524 H 341.042 -1.05083 -4.26444 0
M  V30 3525 H 341.648 -2.50427 -3.43753 0
M  V30 3526 N 339.963 1.05934 -1.16686 0
M  V30 3527 C 341.374 1.60263 -0.957745 0
M  V30 3528 C 341.725 1.89789 0.49745 0
M  V30 3529 O 340.85 1.67401 1.37135 0
M  V30 3530 C 341.445 2.91172 -1.73218 0
M  V30 3531 C 340.004 3.42188 -1.56794 0
M  V30 3532 C 339.151 2.16028 -1.73859 0
M  V30 3533 H 342.102 0.888392 -1.31504 0
M  V30 3534 H 342.123 3.60744 -1.21014 0
M  V30 3535 H 341.635 2.6965 -2.79124 0
M  V30 3536 H 339.736 3.68762 -0.533437 0
M  V30 3537 H 339.849 4.17273 -2.35414 0
M  V30 3538 H 338.213 2.26426 -1.16633 0
M  V30 3539 H 338.996 1.96985 -2.81161 0
M  V30 3540 N 341.441 0.965919 1.2453 0
M  V30 3541 C 342.404 0.499547 2.2369 0
M  V30 3542 C 343.404 -0.40294 1.5567 0
M  V30 3543 O 344.594 -0.19865 1.73064 0
M  V30 3544 C 341.726 -0.276792 3.39774 0
M  V30 3545 H 342.919 1.37613 2.66463 0
M  V30 3546 H 340.472 0.750324 1.37112 0
M  V30 3547 H 341.207 -1.17055 3.02438 0
M  V30 3548 H 340.992 0.370826 3.90343 0
M  V30 3549 H 342.482 -0.592175 4.1338 0
M  V30 3550 N 342.919 -1.39368 0.735821 0
M  V30 3551 C 344.168 -1.99733 0.281004 0
M  V30 3552 C 344.481 -1.59055 -1.13846 0
M  V30 3553 O 345.687 -2.12262 -1.69284 0
M  V30 3554 C 344.143 -3.57057 0.451462 0
M  V30 3555 C 343.751 -4.06697 1.87886 0
M  V30 3556 C 345.495 -4.2446 0.0584616 0
M  V30 3557 C 343.402 -5.56598 1.99883 0
M  V30 3558 H 342.332 -0.747163 0.101311 0
M  V30 3559 H 344.983 -1.59357 0.909819 0
M  V30 3560 H 343.365 -3.95234 -0.246263 0
M  V30 3561 H 344.539 -3.79853 2.60861 0
M  V30 3562 H 342.854 -3.5196 2.22515 0
M  V30 3563 H 345.451 -5.34549 0.127099 0
M  V30 3564 H 345.794 -4.04444 -0.986433 0
M  V30 3565 H 346.327 -3.9146 0.707374 0
M  V30 3566 H 343.066 -5.81494 3.02564 0
M  V30 3567 H 342.586 -5.85242 1.31346 0
M  V30 3568 H 344.265 -6.22022 1.78039 0
M  V30 3569 N 344.397 -0.483516 -1.5 0
M  V30 3570 C 345.345 0.318061 -2.30415 0
M  V30 3571 C 346.339 0.978988 -1.38247 0
M  V30 3572 O 347.545 0.908673 -1.55381 0
M  V30 3573 H 343.92 0.121419 -0.742133 0
M  V30 3574 H 345.891 -0.380403 -2.95965 0
M  V30 3575 C 344.64 1.38013 -3.19136 0
M  V30 3576 H 343.963 0.880952 -3.89973 0
M  V30 3577 H 345.403 1.91332 -3.78375 0
M  V30 3578 C 343.862 2.38884 -2.37563 0
M  V30 3579 O 344.392 3.44412 -2.06744 0
M  V30 3580 N 342.598 2.10912 -1.99911 0
M  V30 3581 H 342.145 1.25118 -2.25174 0
M  V30 3582 H 342.103 2.78635 -1.45636 0
M  V30 3583 N 345.875 1.56104 -0.216619 0
M  V30 3584 C 346.805 2.23063 0.690296 0
M  V30 3585 C 347.786 1.20072 1.20485 0
M  V30 3586 O 348.971 1.48643 1.24976 0
M  V30 3587 C 346.101 2.90672 1.90072 0
M  V30 3588 C 345.055 4.00092 1.5202 0
M  V30 3589 C 344.381 4.54972 2.80899 0
M  V30 3590 C 345.681 5.17398 0.71391 0
M  V30 3591 H 347.375 2.99109 0.132038 0
M  V30 3592 H 344.921 1.43866 0.0620664 0
M  V30 3593 H 346.874 3.36204 2.54057 0
M  V30 3594 H 345.598 2.12066 2.48386 0
M  V30 3595 H 344.257 3.55283 0.903839 0
M  V30 3596 H 343.905 3.73102 3.37348 0
M  V30 3597 H 343.605 5.28817 2.56176 0
M  V30 3598 H 345.129 5.0322 3.45836 0
M  V30 3599 H 346.543 5.59342 1.25735 0
M  V30 3600 H 344.94 5.97444 0.563951 0
M  V30 3601 H 346.01 4.84088 -0.280527 0
M  V30 3602 N 347.353 -0.0568162 1.57498 0
M  V30 3603 C 348.599 -0.75422 1.88253 0
M  V30 3604 C 348.932 -1.76461 0.810865 0
M  V30 3605 O 348.207 -1.93691 -0.177259 0
M  V30 3606 C 348.49 -1.44878 3.2967 0
M  V30 3607 C 348.343 -0.453789 4.47505 0
M  V30 3608 C 349.662 -2.38994 3.69554 0
M  V30 3609 H 346.781 -0.272724 0.684683 0
M  V30 3610 H 349.423 -0.0172113 1.89992 0
M  V30 3611 H 347.573 -2.077 3.28318 0
M  V30 3612 H 349.245 0.170371 4.60985 0
M  V30 3613 H 347.488 0.229552 4.33192 0
M  V30 3614 H 348.159 -0.977699 5.43273 0
M  V30 3615 H 350.635 -1.86239 3.72095 0
M  V30 3616 H 349.511 -2.84587 4.69363 0
M  V30 3617 H 349.772 -3.24461 3.00296 0
M  V30 3618 N 348.832 -1.54138 -0.328536 0
M  V30 3619 C 349.762 -1.86167 -1.40939 0
M  V30 3620 C 350.743 -0.718044 -1.54202 0
M  V30 3621 O 351.928 -0.971328 -1.68163 0
M  V30 3622 C 349.058 -2.08461 -2.77779 0
M  V30 3623 C 348.012 -3.24299 -2.7931 0
M  V30 3624 C 347.338 -3.31955 -4.19178 0
M  V30 3625 C 348.638 -4.62065 -2.43502 0
M  V30 3626 H 350.332 -2.76689 -1.14383 0
M  V30 3627 H 347.878 -1.33132 -0.548806 0
M  V30 3628 H 349.831 -2.29453 -3.53454 0
M  V30 3629 H 348.555 -1.14684 -3.05802 0
M  V30 3630 H 347.214 -3.03187 -2.0609 0
M  V30 3631 H 346.862 -2.35745 -4.44335 0
M  V30 3632 H 346.562 -4.09805 -4.2111 0
M  V30 3633 H 348.086 -3.55175 -4.96672 0
M  V30 3634 H 349.5 -4.8297 -3.08889 0
M  V30 3635 H 347.897 -5.42429 -2.56693 0
M  V30 3636 H 348.967 -4.64652 -1.38659 0
M  V30 3637 N 350.31 0.590341 -1.46126 0
M  V30 3638 C 351.273 1.68194 -1.55703 0
M  V30 3639 C 352.273 1.54808 -0.434868 0
M  V30 3640 O 353.463 1.59564 -0.698928 0
M  V30 3641 C 350.595 3.07575 -1.47005 0
M  V30 3642 H 351.788 1.61064 -2.52979 0
M  V30 3643 H 349.341 0.807541 -1.33823 0
M  V30 3644 H 350.076 3.20268 -0.509785 0
M  V30 3645 H 349.861 3.187 -2.28414 0
M  V30 3646 H 351.351 3.87055 -1.56776 0
M  V30 3647 N 351.788 1.33704 0.83433 0
M  V30 3648 C 353.034 1.25603 1.59222 0
M  V30 3649 C 353.367 -0.176659 1.93395 0
M  V30 3650 O 352.642 -1.11915 1.59076 0
M  V30 3651 C 352.925 2.13576 2.89926 0
M  V30 3652 C 352.778 3.65326 2.62406 0
M  V30 3653 C 354.097 2.01238 3.91397 0
M  V30 3654 H 351.216 0.457613 0.577719 0
M  V30 3655 H 353.858 1.63848 0.961972 0
M  V30 3656 H 352.008 1.8109 3.43713 0
M  V30 3657 H 353.68 4.08124 2.15017 0
M  V30 3658 H 351.923 3.8698 1.96033 0
M  V30 3659 H 352.594 4.22232 3.55562 0
M  V30 3660 H 355.07 2.29738 3.46929 0
M  V30 3661 H 353.946 2.65036 4.80673 0
M  V30 3662 H 354.207 0.985951 4.30966 0
M  V30 3663 N 353.266 -1.05314 1.17247 0
M  V30 3664 C 354.229 -2.112 0.890357 0
M  V30 3665 C 355.229 -1.60359 -0.118943 0
M  V30 3666 O 356.419 -1.73833 0.113086 0
M  V30 3667 C 353.551 -3.39266 0.333422 0
M  V30 3668 H 354.744 -2.37659 1.82916 0
M  V30 3669 H 352.297 -1.21538 0.982758 0
M  V30 3670 H 353.032 -3.18462 -0.612587 0
M  V30 3671 H 352.817 -3.77477 1.06082 0
M  V30 3672 H 354.307 -4.17315 0.154322 0
M  V30 3673 N 354.744 -0.972509 -1.24016 0
M  V30 3674 C 355.707 -0.511403 -2.23422 0
M  V30 3675 C 356.707 0.394679 -1.55881 0
M  V30 3676 O 357.897 0.189469 -1.73167 0
M  V30 3677 C 355.029 0.258769 -3.39916 0
M  V30 3678 H 356.222 -1.39024 -2.6573 0
M  V30 3679 H 353.775 -0.757585 -1.36713 0
M  V30 3680 H 354.51 1.1545 -3.03054 0
M  V30 3681 H 354.295 -0.391522 -3.9014 0
M  V30 3682 H 355.785 0.570244 -4.13688 0
M  V30 3683 N 356.222 1.38976 -0.743202 0
M  V30 3684 C 357.468 2.0064 -0.295189 0
M  V30 3685 C 357.801 1.5885 1.11716 0
M  V30 3686 O 357.076 0.821181 1.76315 0
M  V30 3687 C 357.359 3.578 -0.406318 0
M  V30 3688 C 357.212 4.09586 -1.85903 0
M  V30 3689 C 358.531 4.39616 0.206439 0
M  V30 3690 H 355.65 0.728935 -0.108733 0
M  V30 3691 H 358.292 1.65067 -0.940897 0
M  V30 3692 H 356.442 3.88235 0.143419 0
M  V30 3693 H 358.114 3.89837 -2.46627 0
M  V30 3694 H 356.357 3.6284 -2.3776 0
M  V30 3695 H 357.028 5.18708 -1.888 0
M  V30 3696 H 359.504 4.15273 -0.262283 0
M  V30 3697 H 358.38 5.48812 0.0983819 0
M  V30 3698 H 358.641 4.22754 1.2935 0
M  V30 3699 N 357.7 0.491464 1.49741 0
M  V30 3700 C 358.63 -0.28154 2.31796 0
M  V30 3701 C 359.611 -0.971473 1.3963 0
M  V30 3702 O 360.796 -0.964719 1.68543 0
M  V30 3703 C 357.926 -1.35203 3.19902 0
M  V30 3704 C 356.88 -0.782529 4.20786 0
M  V30 3705 C 356.206 -1.95283 4.97764 0
M  V30 3706 C 357.506 0.21999 5.21837 0
M  V30 3707 H 359.2 0.403355 2.96671 0
M  V30 3708 H 356.746 0.195425 1.42668 0
M  V30 3709 H 358.699 -1.90045 3.76113 0
M  V30 3710 H 357.423 -2.06598 2.52953 0
M  V30 3711 H 356.082 -0.255928 3.65706 0
M  V30 3712 H 355.73 -2.65423 4.2727 0
M  V30 3713 H 355.43 -1.57789 5.66018 0
M  V30 3714 H 356.954 -2.50577 5.56816 0
M  V30 3715 H 358.368 -0.23996 5.72798 0
M  V30 3716 H 356.765 0.51026 5.97927 0
M  V30 3717 H 357.835 1.13911 4.7133 0
M  V30 3718 N 359.178 -1.55987 0.224894 0
M  V30 3719 C 360.088 -2.24066 -0.69511 0
M  V30 3720 C 361.104 -1.24939 -1.21104 0
M  V30 3721 O 362.28 -1.5776 -1.25195 0
M  V30 3722 C 359.345 -2.90983 -1.88493 0
M  V30 3723 C 358.406 -4.05462 -1.41064 0
M  V30 3724 C 357.639 -4.69179 -2.54375 0
M  V30 3725 O 357.862 -4.31895 -3.72589 0
M  V30 3726 O 356.796 -5.58108 -2.25386 0
M  V30 3727 H 360.622 -3.03353 -0.145149 0
M  V30 3728 H 358.207 -1.49399 -0.00569476 0
M  V30 3729 H 360.089 -3.33209 -2.57972 0
M  V30 3730 H 358.764 -2.14653 -2.42293 0
M  V30 3731 H 357.671 -3.67798 -0.683774 0
M  V30 3732 H 359.004 -4.83545 -0.918985 0
M  V30 3733 N 360.656 0.0484629 -1.57525 0
M  V30 3734 C 361.566 1.07241 -2.08654 0
M  V30 3735 C 362.582 1.409 -1.02095 0
M  V30 3736 O 363.758 1.50609 -1.33712 0
M  V30 3737 C 360.823 2.36008 -2.5397 0
M  V30 3738 C 359.884 2.09108 -3.7493 0
M  V30 3739 C 359.117 3.31736 -4.18075 0
M  V30 3740 O 359.34 4.41714 -3.60895 0
M  V30 3741 O 358.274 3.18576 -5.10679 0
M  V30 3742 H 362.1 0.667965 -2.96263 0
M  V30 3743 H 359.685 0.26417 -1.47046 0
M  V30 3744 H 361.567 3.11747 -2.83535 0
M  V30 3745 H 360.242 2.75786 -1.69481 0
M  V30 3746 H 359.149 1.31 -3.50414 0
M  V30 3747 H 360.482 1.74198 -4.60343 0
M  V30 3748 N 362.134 1.5431 0.320358 0
M  V30 3749 C 363.38 1.72924 1.05949 0
M  V30 3750 C 363.713 0.503185 1.87568 0
M  V30 3751 O 362.988 -0.499839 1.87968 0
M  V30 3752 C 363.271 3.00676 1.98156 0
M  V30 3753 C 363.124 4.3354 1.19845 0
M  V30 3754 C 364.443 3.24198 2.9763 0
M  V30 3755 H 361.562 0.629195 0.383774 0
M  V30 3756 H 364.204 1.87008 0.335854 0
M  V30 3757 H 362.354 2.888 2.59859 0
M  V30 3758 H 364.026 4.57305 0.605773 0
M  V30 3759 H 362.269 4.309 0.500784 0
M  V30 3760 H 362.94 5.19156 1.87567 0
M  V30 3761 H 365.416 3.35557 2.4605 0
M  V30 3762 H 364.292 4.14938 3.59329 0
M  V30 3763 H 364.553 2.41577 3.7026 0
M  V30 3764 N 363.613 -0.582584 1.46437 0
M  V30 3765 C 364.543 -1.70187 1.59871 0
M  V30 3766 C 365.524 -1.64066 0.449042 0
M  V30 3767 O 366.709 -1.82081 0.6753 0
M  V30 3768 C 363.839 -3.08827 1.58881 0
M  V30 3769 C 362.793 -3.29779 2.72819 0
M  V30 3770 C 362.119 -4.68947 2.5689 0
M  V30 3771 C 363.419 -3.17601 4.1464 0
M  V30 3772 H 365.113 -1.592 2.53566 0
M  V30 3773 H 362.659 -0.764472 1.22032 0
M  V30 3774 H 364.612 -3.86951 1.66873 0
M  V30 3775 H 363.336 -3.20713 0.617306 0
M  V30 3776 H 361.995 -2.54054 2.64296 0
M  V30 3777 H 361.643 -4.77599 1.57823 0
M  V30 3778 H 361.343 -4.83919 3.33312 0
M  V30 3779 H 362.867 -5.4924 2.66773 0
M  V30 3780 H 364.281 -3.8557 4.24274 0
M  V30 3781 H 362.678 -3.44094 4.9165 0
M  V30 3782 H 363.748 -2.14681 4.34788 0
M  V30 3783 N 365.091 -1.34144 -0.827227 0
M  V30 3784 C 366.502 -1.23557 -1.39966 0
M  V30 3785 C 366.853 0.140731 -1.95695 0
M  V30 3786 O 365.978 1.04087 -1.89723 0
M  V30 3787 C 366.573 -2.23708 -2.54441 0
M  V30 3788 C 365.132 -2.16924 -3.07605 0
M  V30 3789 C 364.279 -2.10549 -1.80456 0
M  V30 3790 H 367.23 -1.45573 -0.631991 0
M  V30 3791 H 367.251 -1.85157 -3.32411 0
M  V30 3792 H 366.763 -3.23866 -2.13851 0
M  V30 3793 H 364.864 -1.20107 -3.52711 0
M  V30 3794 H 364.977 -3.07988 -3.66988 0
M  V30 3795 H 363.341 -1.56203 -2.01178 0
M  V30 3796 H 364.124 -3.12535 -1.42046 0
M  V30 3797 N 366.569 1.04691 -1.17803 0
M  V30 3798 C 367.985 1.29963 -0.926379 0
M  V30 3799 C 368.185 1.97251 0.411635 0
M  V30 3800 O 367.241 2.24922 1.14744 0
M  V30 3801 C 368.554 2.16447 -2.08737 0
M  V30 3802 C 370.102 2.29814 -2.12496 0
M  V30 3803 C 370.577 3.19661 -3.27995 0
M  V30 3804 N 372.068 3.27247 -3.27816 0
M  V30 3805 C 372.803 3.96906 -4.13827 0
M  V30 3806 N 372.299 4.6895 -5.09959 0
M  V30 3807 N 374.092 3.93122 -4.01761 0
M  V30 3808 H 366.243 0.594182 -2.0392 0
M  V30 3809 H 368.506 0.324649 -0.890678 0
M  V30 3810 H 368.212 1.74304 -3.05469 0
M  V30 3811 H 368.086 3.17103 -2.04268 0
M  V30 3812 H 370.473 2.71196 -1.16347 0
M  V30 3813 H 370.554 1.2877 -2.21025 0
M  V30 3814 H 370.198 2.78991 -4.24413 0
M  V30 3815 H 370.128 4.20722 -3.16703 0
M  V30 3816 H 372.619 2.75921 -2.58217 0
M  V30 3817 H 372.932 5.19679 -5.71974 0
M  V30 3818 H 371.277 4.67875 -5.13924 0
M  V30 3819 H 374.468 3.35967 -3.2595 0
M  V30 3820 H 374.641 4.47139 -4.6901 0
M  V30 3821 N 368.047 0.979072 1.23499 0
M  V30 3822 C 368.977 0.537606 2.27227 0
M  V30 3823 C 369.958 -0.428539 1.64613 0
M  V30 3824 O 371.143 -0.322191 1.91509 0
M  V30 3825 C 368.273 -0.162052 3.46922 0
M  V30 3826 C 367.227 0.721242 4.21879 0
M  V30 3827 C 366.553 -0.110555 5.34586 0
M  V30 3828 C 367.853 2.01141 4.82016 0
M  V30 3829 H 369.547 1.40462 2.64406 0
M  V30 3830 H 367.093 0.67684 1.27102 0
M  V30 3831 H 369.046 -0.482192 4.18632 0
M  V30 3832 H 367.77 -1.06351 3.08799 0
M  V30 3833 H 366.429 1.02482 3.51984 0
M  V30 3834 H 366.077 -1.0125 4.92704 0
M  V30 3835 H 365.777 0.477325 5.85658 0
M  V30 3836 H 367.301 -0.425107 6.09118 0
M  V30 3837 H 368.715 1.75612 5.45741 0
M  V30 3838 H 367.112 2.54695 5.43369 0
M  V30 3839 H 368.182 2.69909 4.02836 0
M  V30 3840 N 369.525 -1.3858 0.750561 0
M  V30 3841 C 370.435 -2.34278 0.122825 0
M  V30 3842 C 371.451 -1.59116 -0.704131 0
M  V30 3843 O 372.627 -1.91326 -0.628987 0
M  V30 3844 C 369.692 -3.38221 -0.762086 0
M  V30 3845 C 368.753 -4.29227 0.078896 0
M  V30 3846 C 367.986 -5.28205 -0.763874 0
M  V30 3847 O 368.209 -5.34112 -2.00201 0
M  V30 3848 O 367.143 -6.01618 -0.18428 0
M  V30 3849 H 370.969 -2.89649 0.913088 0
M  V30 3850 H 368.554 -1.40374 0.511417 0
M  V30 3851 H 370.436 -4.01872 -1.26793 0
M  V30 3852 H 369.111 -2.85211 -1.5309 0
M  V30 3853 H 368.018 -3.68747 0.630621 0
M  V30 3854 H 369.351 -4.85484 0.810289 0
M  V30 3855 N 371.003 -0.499398 -1.49478 0
M  V30 3856 C 371.913 0.284489 -2.32869 0
M  V30 3857 C 372.929 0.968885 -1.44529 0
M  V30 3858 O 374.105 0.95062 -1.77553 0
M  V30 3859 C 371.17 1.33594 -3.19928 0
M  V30 3860 C 370.231 0.665149 -4.24116 0
M  V30 3861 C 369.464 1.6665 -5.07014 0
M  V30 3862 O 369.687 2.89618 -4.91404 0
M  V30 3863 O 368.621 1.22271 -5.8935 0
M  V30 3864 H 372.447 -0.39802 -3.01081 0
M  V30 3865 H 370.032 -0.260758 -1.47107 0
M  V30 3866 H 371.914 1.94431 -3.73864 0
M  V30 3867 H 370.589 2.0014 -2.54412 0
M  V30 3868 H 369.496 0.0170769 -3.74096 0
M  V30 3869 H 370.829 0.0421555 -4.92182 0
M  V30 3870 N 372.481 1.55866 -0.233164 0
M  V30 3871 C 373.431 2.17442 0.685774 0
M  V30 3872 C 374.415 1.12617 1.14918 0
M  V30 3873 O 375.607 1.3857 1.10124 0
M  V30 3874 C 372.736 2.86685 1.88856 0
M  V30 3875 C 371.822 3.98749 1.4443 0
M  V30 3876 N 372.213 5.00744 0.713364 0
M  V30 3877 C 370.511 4.11052 1.73068 0
M  V30 3878 C 371.212 5.79673 0.485205 0
M  V30 3879 N 370.188 5.33454 1.04536 0
M  V30 3880 H 373.99 2.93659 0.119022 0
M  V30 3881 H 371.504 1.62362 -0.0348995 0
M  V30 3882 H 373.501 3.29218 2.55776 0
M  V30 3883 H 372.161 2.11967 2.45967 0
M  V30 3884 H 373.172 5.16613 0.364861 0
M  V30 3885 H 369.849 3.47495 2.31416 0
M  V30 3886 H 371.239 6.71829 -0.097365 0
M  V30 3887 N 373.959 -0.0401083 1.57549 0
M  V30 3888 C 374.889 -1.04384 2.08869 0
M  V30 3889 C 375.87 -1.38407 0.988817 0
M  V30 3890 O 377.055 -1.47483 1.26342 0
M  V30 3891 C 374.185 -2.34808 2.55895 0
M  V30 3892 C 373.139 -2.15057 3.70047 0
M  V30 3893 C 372.465 -3.51145 4.03239 0
M  V30 3894 C 373.765 -1.54576 4.98902 0
M  V30 3895 H 375.459 -0.616666 2.92981 0
M  V30 3896 H 373.005 -0.295184 1.40942 0
M  V30 3897 H 374.958 -3.05346 2.90417 0
M  V30 3898 H 373.682 -2.79565 1.68853 0
M  V30 3899 H 372.341 -1.46954 3.35857 0
M  V30 3900 H 371.989 -3.93529 3.13279 0
M  V30 3901 H 371.689 -3.38758 4.80122 0
M  V30 3902 H 373.213 -4.23062 4.40285 0
M  V30 3903 H 374.627 -2.15017 5.31451 0
M  V30 3904 H 373.024 -1.52796 5.80322 0
M  V30 3905 H 374.094 -0.51039 4.82206 0
M  V30 3906 N 375.437 -1.54477 -0.31217 0
M  V30 3907 C 376.4 -1.83923 -1.36766 0
M  V30 3908 C 377.4 -0.711563 -1.44199 0
M  V30 3909 O 378.59 -0.979866 -1.44029 0
M  V30 3910 C 375.722 -2.0095 -2.75376 0
M  V30 3911 H 376.915 -2.78239 -1.11906 0
M  V30 3912 H 374.468 -1.46369 -0.548257 0
M  V30 3913 H 375.203 -1.08883 -3.05475 0
M  V30 3914 H 374.988 -2.83018 -2.71373 0
M  V30 3915 H 376.478 -2.2514 -3.51713 0
M  V30 3916 N 376.915 0.57481 -1.46744 0
M  V30 3917 C 377.845 1.69337 -1.60771 0
M  V30 3918 C 378.826 1.63825 -0.457736 0
M  V30 3919 O 380.011 1.8172 -0.684947 0
M  V30 3920 C 377.141 3.0798 -1.60517 0
M  V30 3921 C 376.095 3.28327 -2.74564 0
M  V30 3922 C 375.421 4.67578 -2.59373 0
M  V30 3923 C 376.721 3.15398 -4.16319 0
M  V30 3924 H 378.415 1.57853 -2.54407 0
M  V30 3925 H 375.961 0.75799 -1.22436 0
M  V30 3926 H 377.914 3.86061 -1.68923 0
M  V30 3927 H 376.638 3.20381 -0.634305 0
M  V30 3928 H 375.297 2.52649 -2.65639 0
M  V30 3929 H 374.945 4.76755 -1.60353 0
M  V30 3930 H 374.645 4.82144 -3.35873 0
M  V30 3931 H 376.169 5.47817 -2.69682 0
M  V30 3932 H 377.583 3.83315 -4.26313 0
M  V30 3933 H 375.98 3.41482 -4.93468 0
M  V30 3934 H 377.05 2.12372 -4.3592 0
M  V30 3935 N 378.394 1.34581 0.820102 0
M  V30 3936 C 379.341 1.2639 1.93117 0
M  V30 3937 C 380.311 0.138554 1.65521 0
M  V30 3938 O 381.496 0.320004 1.88097 0
M  V30 3939 C 378.636 1.02812 3.29429 0
M  V30 3940 C 377.749 2.24146 3.693 0
M  V30 3941 C 376.884 1.93829 4.94574 0
M  V30 3942 C 375.923 3.1129 5.27034 0
M  V30 3943 N 375.06 2.80838 6.43486 0
M  V30 3944 H 379.9 2.21408 1.99455 0
M  V30 3945 H 377.437 1.10077 0.975784 0
M  V30 3946 H 379.395 0.871788 4.0799 0
M  V30 3947 H 378.025 0.114612 3.22596 0
M  V30 3948 H 377.077 2.50691 2.86109 0
M  V30 3949 H 378.389 3.11899 3.89257 0
M  V30 3950 H 377.543 1.74948 5.80929 0
M  V30 3951 H 376.282 1.03341 4.76626 0
M  V30 3952 H 375.287 3.30764 4.39175 0
M  V30 3953 H 376.512 4.02561 5.4692 0
M  V30 3954 H 374.458 1.92929 6.26988 0
M  V30 3955 H 374.375 3.62123 6.63629 0
M  V30 3956 H 375.643 2.65467 7.32903 0
M  V30 3957 N 379.872 -1.04064 1.18357 0
M  V30 3958 C 380.835 -2.10243 0.912707 0
M  V30 3959 C 381.835 -1.60477 -0.101928 0
M  V30 3960 O 383.025 -1.73703 0.131517 0
M  V30 3961 C 380.157 -3.38893 0.369387 0
M  V30 3962 H 381.35 -2.35706 1.85426 0
M  V30 3963 H 378.903 -1.20489 0.995594 0
M  V30 3964 H 379.638 -3.19094 -0.578776 0
M  V30 3965 H 379.423 -3.76331 1.1008 0
M  V30 3966 H 380.913 -4.17128 0.198575 0
M  V30 3967 N 381.35 -0.985608 -1.22978 0
M  V30 3968 C 382.596 -0.667998 -1.92118 0
M  V30 3969 C 382.951 0.790454 -1.75413 0
M  V30 3970 O 382.244 1.56336 -1.10768 0
M  V30 3971 C 382.438 -1.00014 -3.43121 0
M  V30 3972 C 382.267 -2.48933 -3.74516 0
M  V30 3973 C 381.037 -3.15218 -3.94925 0
M  V30 3974 C 383.235 -3.47024 -3.79577 0
M  V30 3975 N 381.217 -4.53689 -4.13569 0
M  V30 3976 C 382.588 -4.70923 -4.03276 0
M  V30 3977 C 384.643 -3.41432 -3.62393 0
M  V30 3978 C 383.346 -5.89914 -4.11574 0
M  V30 3979 C 385.372 -4.59793 -3.71947 0
M  V30 3980 C 384.734 -5.82489 -3.96088 0
M  V30 3981 H 380.833 -0.295589 -0.723983 0
M  V30 3982 H 383.417 -1.26413 -1.4808 0
M  V30 3983 H 381.588 -0.432655 -3.85983 0
M  V30 3984 H 383.32 -0.63927 -3.99619 0
M  V30 3985 H 380.075 -2.65702 -3.92045 0
M  V30 3986 H 380.499 -5.25492 -4.26834 0
M  V30 3987 H 385.141 -2.47594 -3.4272 0
M  V30 3988 H 382.859 -6.84164 -4.30053 0
M  V30 3989 H 386.445 -4.57048 -3.59998 0
M  V30 3990 H 385.325 -6.72546 -4.033 0
M  V30 3991 N 382.828 1.3818 -0.7579 0
M  V30 3992 C 383.76 2.2901 -0.0932177 0
M  V30 3993 C 384.773 1.47958 0.679136 0
M  V30 3994 O 385.962 1.70773 0.519514 0
M  V30 3995 C 383.062 3.26953 0.89192 0
M  V30 3996 C 382.235 4.37045 0.176303 0
M  V30 3997 C 381.294 5.15148 1.07281 0
M  V30 3998 O 380.32 5.66616 0.541728 0
M  V30 3999 N 381.522 5.28542 2.40049 0
M  V30 4000 H 384.287 2.86694 -0.873303 0
M  V30 4001 H 381.848 1.50007 -0.609054 0
M  V30 4002 H 383.84 3.76083 1.49479 0
M  V30 4003 H 382.41 2.70136 1.57306 0
M  V30 4004 H 381.63 3.89493 -0.607328 0
M  V30 4005 H 382.918 5.07801 -0.318718 0
M  V30 4006 H 382.316 4.88285 2.85647 0
M  V30 4007 H 380.873 5.8103 2.95376 0
M  V30 4008 N 384.306 0.507319 1.49211 0
M  V30 4009 C 385.254 -0.281364 2.30892 0
M  V30 4010 C 386.248 -0.95687 1.39787 0
M  V30 4011 O 387.454 -0.883838 1.56807 0
M  V30 4012 H 383.829 -0.109597 0.743971 0
M  V30 4013 H 385.8 0.42744 2.95323 0
M  V30 4014 C 384.549 -1.32918 3.21291 0
M  V30 4015 H 383.872 -0.818799 3.91326 0
M  V30 4016 H 385.312 -1.85288 3.81372 0
M  V30 4017 C 383.771 -2.35074 2.41333 0
M  V30 4018 O 384.301 -3.4108 2.12197 0
M  V30 4019 N 382.507 -2.07705 2.03241 0
M  V30 4020 H 382.054 -1.2152 2.27136 0
M  V30 4021 H 382.012 -2.76283 1.50051 0
M  V30 4022 N 385.784 -1.5574 0.241426 0
M  V30 4023 C 386.747 -2.19877 -0.647063 0
M  V30 4024 C 387.747 -1.16642 -1.10686 0
M  V30 4025 O 388.937 -1.41757 -1.01245 0
M  V30 4026 C 386.069 -2.83797 -1.88871 0
M  V30 4027 H 387.262 -2.99772 -0.087574 0
M  V30 4028 H 384.815 -1.56298 -0.00813574 0
M  V30 4029 H 385.55 -2.07824 -2.48957 0
M  V30 4030 H 385.335 -3.59414 -1.56728 0
M  V30 4031 H 386.825 -3.32898 -2.52129 0
M  V30 4032 N 387.262 0.0317525 -1.57568 0
M  V30 4033 C 388.192 1.03274 -2.0942 0
M  V30 4034 C 389.173 1.3788 -0.996143 0
M  V30 4035 O 390.358 1.46811 -1.27122 0
M  V30 4036 C 387.488 2.33448 -2.57137 0
M  V30 4037 C 386.442 2.13091 -3.71182 0
M  V30 4038 C 385.768 3.49001 -4.05095 0
M  V30 4039 C 387.068 1.51928 -4.99715 0
M  V30 4040 H 388.762 0.60112 -2.93303 0
M  V30 4041 H 386.308 0.287705 -1.41097 0
M  V30 4042 H 388.261 3.03802 -2.92032 0
M  V30 4043 H 386.985 2.78665 -1.70333 0
M  V30 4044 H 385.644 1.45171 -3.36632 0
M  V30 4045 H 385.292 3.91862 -3.15362 0
M  V30 4046 H 384.992 3.36207 -4.81911 0
M  V30 4047 H 386.516 4.20721 -4.42522 0
M  V30 4048 H 387.93 2.12196 -5.32584 0
M  V30 4049 H 386.327 1.49716 -5.81124 0
M  V30 4050 H 387.397 0.484811 -4.8247 0
M  V30 4051 N 388.74 1.54641 0.303973 0
M  V30 4052 C 389.67 1.88386 1.3796 0
M  V30 4053 C 390.651 0.742485 1.5304 0
M  V30 4054 O 391.836 0.997959 1.66597 0
M  V30 4055 C 388.966 2.12854 2.74427 0
M  V30 4056 C 387.92 3.28702 2.74115 0
M  V30 4057 C 387.246 3.38582 4.13844 0
M  V30 4058 C 388.546 4.65881 2.3612 0
M  V30 4059 H 390.24 2.78474 1.09966 0
M  V30 4060 H 387.786 1.33988 0.527556 0
M  V30 4061 H 389.739 2.35047 3.49758 0
M  V30 4062 H 388.463 1.19535 3.03939 0
M  V30 4063 H 387.122 3.06428 2.0124 0
M  V30 4064 H 386.77 2.42784 4.40528 0
M  V30 4065 H 386.47 4.16453 4.14537 0
M  V30 4066 H 387.994 3.63031 4.90959 0
M  V30 4067 H 389.408 4.87823 3.01167 0
M  V30 4068 H 387.805 5.46444 2.48031 0
M  V30 4069 H 388.875 4.66799 1.3125 0
M  V30 4070 N 390.218 -0.567019 1.47046 0
M  V30 4071 C 391.448 -1.34831 1.56538 0
M  V30 4072 C 391.856 -1.8802 0.21101 0
M  V30 4073 O 391.199 -1.65152 -0.804387 0
M  V30 4074 C 391.261 -2.56139 2.52256 0
M  V30 4075 C 390.925 -2.24307 3.98165 0
M  V30 4076 C 391.922 -1.82192 4.86931 0
M  V30 4077 C 389.607 -2.35968 4.43423 0
M  V30 4078 C 391.601 -1.52153 6.18973 0
M  V30 4079 C 389.288 -2.05542 5.75496 0
M  V30 4080 C 390.286 -1.63701 6.63092 0
M  V30 4081 O 389.974 -1.33657 7.92711 0
M  V30 4082 H 389.706 -0.417683 0.531523 0
M  V30 4083 H 392.26 -0.694726 1.93294 0
M  V30 4084 H 390.49 -3.24356 2.10548 0
M  V30 4085 H 392.179 -3.18214 2.51982 0
M  V30 4086 H 392.945 -1.72684 4.53217 0
M  V30 4087 H 388.824 -2.67495 3.75456 0
M  V30 4088 H 392.368 -1.19421 6.87302 0
M  V30 4089 H 388.265 -2.14679 6.08755 0
M  V30 4090 H 389.033 -1.4737 8.05124 0
M  V30 4091 N 391.696 -1.35014 -0.812953 0
M  V30 4092 C 392.944 -1.27678 -1.56661 0
M  V30 4093 C 393.265 0.150359 -1.94419 0
M  V30 4094 O 392.535 1.08532 -1.63088 0
M  V30 4095 H 391.115 -0.469602 -0.580933 0
M  V30 4096 H 393.777 -1.69043 -0.970076 0
M  V30 4097 H 392.873 -1.88833 -2.48492 0
M  V30 4098 N 393.175 1.03435 -1.18907 0
M  V30 4099 C 394.421 1.77005 -0.989798 0
M  V30 4100 C 394.754 1.88205 0.478816 0
M  V30 4101 O 394.029 1.39481 1.35556 0
M  V30 4102 C 394.312 3.19925 -1.65287 0
M  V30 4103 C 394.165 3.1663 -3.19477 0
M  V30 4104 C 395.484 4.18189 -1.37134 0
M  V30 4105 H 392.603 0.642538 -0.360991 0
M  V30 4106 H 395.245 1.20784 -1.46667 0
M  V30 4107 H 393.395 3.67929 -1.24741 0
M  V30 4108 H 395.067 2.76567 -3.692 0
M  V30 4109 H 393.31 2.54491 -3.51307 0
M  V30 4110 H 393.981 4.1758 -3.61013 0
M  V30 4111 H 396.457 3.78761 -1.72276 0
M  V30 4112 H 395.333 5.16394 -1.86087 0
M  V30 4113 H 395.594 4.41112 -0.295424 0
M  V30 4114 N 394.653 0.992116 1.22453 0
M  V30 4115 C 395.901 0.666215 1.90804 0
M  V30 4116 C 396.222 -0.804152 1.77647 0
M  V30 4117 O 395.492 -1.57629 1.16318 0
M  V30 4118 H 394.072 0.243423 0.706225 0
M  V30 4119 H 396.734 1.25845 1.48825 0
M  V30 4120 H 395.83 0.928069 2.97982 0
M  V30 4121 N 396.131 -1.37776 0.765217 0
M  V30 4122 C 397.041 -2.34135 0.147666 0
M  V30 4123 C 398.057 -1.59854 -0.687215 0
M  V30 4124 O 399.233 -1.91983 -0.608659 0
M  V30 4125 C 396.298 -3.3901 -0.72617 0
M  V30 4126 C 395.359 -4.2912 0.124417 0
M  V30 4127 C 394.592 -5.28986 -0.707807 0
M  V30 4128 O 394.815 -5.36205 -1.94525 0
M  V30 4129 O 393.749 -6.01779 -0.12046 0
M  V30 4130 H 397.575 -2.88664 0.943758 0
M  V30 4131 H 395.16 -1.39824 0.526277 0
M  V30 4132 H 397.042 -4.03195 -1.22524 0
M  V30 4133 H 395.717 -2.86819 -1.50056 0
M  V30 4134 H 394.624 -3.68057 0.669696 0
M  V30 4135 H 395.957 -4.84598 0.861736 0
M  V30 4136 N 397.609 -0.515225 -1.4894 0
M  V30 4137 C 398.519 0.259774 -2.33157 0
M  V30 4138 C 399.535 0.953501 -1.45548 0
M  V30 4139 O 400.711 0.931735 -1.78552 0
M  V30 4140 C 397.776 1.30193 -3.21326 0
M  V30 4141 C 396.837 0.620129 -4.24797 0
M  V30 4142 C 396.07 1.61263 -5.08753 0
M  V30 4143 O 396.293 2.84389 -4.94448 0
M  V30 4144 O 395.227 1.16013 -5.90614 0
M  V30 4145 H 399.053 -0.429932 -3.00641 0
M  V30 4146 H 396.638 -0.276346 -1.46822 0
M  V30 4147 H 398.52 1.90455 -3.75905 0
M  V30 4148 H 397.195 1.97431 -2.56521 0
M  V30 4149 H 396.102 -0.0226019 -3.74093 0
M  V30 4150 H 397.435 -0.0100493 -4.92199 0
M  V30 4151 N 399.087 1.5561 -0.249682 0
M  V30 4152 C 400.335 1.98618 0.373548 0
M  V30 4153 C 400.656 1.13919 1.58264 0
M  V30 4154 O 399.926 0.222637 1.94631 0
M  V30 4155 H 398.506 0.733571 0.141006 0
M  V30 4156 H 401.168 1.91748 -0.349117 0
M  V30 4157 H 400.264 3.04584 0.680796 0
M  V30 4158 N 400.565 -0.0233959 1.57583 0
M  V30 4159 C 401.813 -0.711654 1.89156 0
M  V30 4160 C 402.134 -1.75591 0.848096 0
M  V30 4161 O 401.404 -1.95547 -0.117566 0
M  V30 4162 H 399.984 -0.265835 0.698098 0
M  V30 4163 H 402.646 0.0119948 1.94896 0
M  V30 4164 H 401.742 -1.19766 2.88206 0
M  V30 4165 N 402.043 -1.548 -0.295768 0
M  V30 4166 C 402.973 -1.89115 -1.36959 0
M  V30 4167 C 403.954 -0.75059 -1.52644 0
M  V30 4168 O 405.139 -1.00678 -1.66065 0
M  V30 4169 C 402.269 -2.14307 -2.73295 0
M  V30 4170 C 401.223 -3.30151 -2.72368 0
M  V30 4171 C 400.549 -3.40772 -4.12042 0
M  V30 4172 C 401.849 -4.67126 -2.33646 0
M  V30 4173 H 403.543 -2.79053 -1.08488 0
M  V30 4174 H 401.089 -1.34266 -0.520443 0
M  V30 4175 H 403.042 -2.36898 -3.48507 0
M  V30 4176 H 401.766 -1.21145 -3.03301 0
M  V30 4177 H 400.425 -3.0749 -1.99613 0
M  V30 4178 H 400.073 -2.45117 -4.39234 0
M  V30 4179 H 399.773 -4.18645 -4.12322 0
M  V30 4180 H 401.297 -3.6563 -4.89027 0
M  V30 4181 H 402.711 -4.89414 -2.98575 0
M  V30 4182 H 401.108 -5.47751 -2.45129 0
M  V30 4183 H 402.178 -4.67489 -1.28772 0
M  V30 4184 N 403.521 0.559213 -1.47345 0
M  V30 4185 C 404.937 0.884943 -1.32819 0
M  V30 4186 C 405.137 1.98988 -0.317173 0
M  V30 4187 O 404.193 2.51031 0.272011 0
M  V30 4188 C 405.506 1.28007 -2.72093 0
M  V30 4189 C 407.054 1.39161 -2.80363 0
M  V30 4190 C 407.529 1.82031 -4.20272 0
M  V30 4191 N 409.02 1.89185 -4.22804 0
M  V30 4192 C 409.755 2.2368 -5.27973 0
M  V30 4193 N 409.251 2.56802 -6.43447 0
M  V30 4194 N 411.044 2.24436 -5.15349 0
M  V30 4195 H 403.195 -0.170304 -2.11716 0
M  V30 4196 H 405.458 -0.0135247 -0.947904 0
M  V30 4197 H 405.164 0.542027 -3.47498 0
M  V30 4198 H 405.038 2.23665 -3.03733 0
M  V30 4199 H 407.425 2.12048 -2.05231 0
M  V30 4200 H 407.506 0.41696 -2.52379 0
M  V30 4201 H 407.15 1.09715 -4.95908 0
M  V30 4202 H 407.08 2.80495 -4.45679 0
M  V30 4203 H 409.571 1.65982 -3.39497 0
M  V30 4204 H 409.884 2.82144 -7.19454 0
M  V30 4205 H 408.229 2.54387 -6.46771 0
M  V30 4206 H 411.42 1.97998 -4.24163 0
M  V30 4207 H 411.593 2.50989 -5.97418 0
M  V30 4208 N 404.999 1.35443 0.805782 0
M  V30 4209 C 406.41 1.25768 1.37983 0
M  V30 4210 C 406.761 -0.10958 1.95894 0
M  V30 4211 O 405.886 -1.01056 1.91355 0
M  V30 4212 C 406.481 2.27727 2.5085 0
M  V30 4213 C 405.04 2.2179 3.04115 0
M  V30 4214 C 404.187 2.13393 1.77084 0
M  V30 4215 H 407.138 1.4656 0.608752 0
M  V30 4216 H 407.159 1.90422 3.29424 0
M  V30 4217 H 406.671 3.27227 2.08671 0
M  V30 4218 H 404.772 1.25703 3.50756 0
M  V30 4219 H 404.885 3.13788 3.62042 0
M  V30 4220 H 403.249 1.59384 1.98668 0
M  V30 4221 H 404.032 3.14755 1.37056 0
M  V30 4222 N 406.477 -1.02803 1.19454 0
M  V30 4223 C 407.723 -1.76478 0.999171 0
M  V30 4224 C 408.056 -1.88456 -0.468828 0
M  V30 4225 O 407.331 -1.40198 -1.34814 0
M  V30 4226 C 407.614 -3.19044 1.66981 0
M  V30 4227 C 407.467 -3.14932 3.21151 0
M  V30 4228 C 408.786 -4.17456 1.39349 0
M  V30 4229 H 405.905 -0.640614 0.364393 0
M  V30 4230 H 408.547 -1.20005 1.47305 0
M  V30 4231 H 406.697 -3.67263 1.2669 0
M  V30 4232 H 408.369 -2.74605 3.70661 0
M  V30 4233 H 406.612 -2.52625 3.52652 0
M  V30 4234 H 407.283 -4.1566 3.63223 0
M  V30 4235 H 409.759 -3.77842 1.74283 0
M  V30 4236 H 408.635 -5.154 1.88823 0
M  V30 4237 H 408.896 -4.40949 0.318813 0
M  V30 4238 N 407.956 -0.998596 -1.21925 0
M  V30 4239 C 409.367 -0.711939 -1.72593 0
M  V30 4240 C 409.718 0.770842 -1.80423 0
M  V30 4241 O 408.843 1.60237 -1.4544 0
M  V30 4242 C 409.438 -1.28567 -3.13458 0
M  V30 4243 C 407.997 -1.04828 -3.61508 0
M  V30 4244 C 407.144 -1.4024 -2.39224 0
M  V30 4245 H 410.095 -1.17027 -1.07193 0
M  V30 4246 H 410.116 -0.667098 -3.74607 0
M  V30 4247 H 409.628 -2.36486 -3.07727 0
M  V30 4248 H 407.729 0.0140383 -3.72597 0
M  V30 4249 H 407.842 -1.71566 -4.47328 0
M  V30 4250 H 406.206 -0.821077 -2.41103 0
M  V30 4251 H 406.989 -2.49176 -2.36149 0
M  V30 4252 N 409.434 1.37368 -0.772513 0
M  V30 4253 C 410.381 2.30262 -0.157488 0
M  V30 4254 C 411.351 1.51137 0.688965 0
M  V30 4255 O 412.536 1.79704 0.641168 0
M  V30 4256 C 409.676 3.37611 0.715045 0
M  V30 4257 C 408.789 4.31746 -0.148098 0
M  V30 4258 C 407.924 5.26171 0.729213 0
M  V30 4259 C 406.963 6.11948 -0.136418 0
M  V30 4260 N 406.1 6.98613 0.698914 0
M  V30 4261 H 410.94 2.82277 -0.955179 0
M  V30 4262 H 408.477 1.38957 -0.482631 0
M  V30 4263 H 410.435 3.98479 1.23575 0
M  V30 4264 H 409.065 2.86959 1.47833 0
M  V30 4265 H 408.117 3.72178 -0.786613 0
M  V30 4266 H 409.429 4.92084 -0.81579 0
M  V30 4267 H 408.583 5.92247 1.31637 0
M  V30 4268 H 407.322 4.66246 1.43059 0
M  V30 4269 H 406.327 5.4485 -0.736102 0
M  V30 4270 H 407.552 6.73945 -0.835134 0
M  V30 4271 H 405.498 6.41215 1.38489 0
M  V30 4272 H 405.415 7.55948 0.0885358 0
M  V30 4273 H 406.683 7.69077 1.27044 0
M  V30 4274 N 410.912 0.523116 1.48665 0
M  V30 4275 C 412.328 0.180511 1.58576 0
M  V30 4276 C 412.528 -1.31597 1.52592 0
M  V30 4277 O 411.584 -2.0937 1.4114 0
M  V30 4278 C 412.897 0.776949 2.90489 0
M  V30 4279 C 414.445 0.745058 3.04003 0
M  V30 4280 C 414.92 1.31995 4.38567 0
M  V30 4281 N 416.411 1.28162 4.45117 0
M  V30 4282 C 417.146 1.6964 5.47731 0
M  V30 4283 N 416.642 2.18816 6.57337 0
M  V30 4284 N 418.435 1.6092 5.38573 0
M  V30 4285 H 410.586 1.4958 1.50797 0
M  V30 4286 H 412.849 0.621772 0.715614 0
M  V30 4287 H 412.555 1.82732 3.00503 0
M  V30 4288 H 412.429 0.25007 3.7637 0
M  V30 4289 H 414.816 -0.296532 2.93606 0
M  V30 4290 H 414.897 1.30933 2.1975 0
M  V30 4291 H 414.541 2.36043 4.49718 0
M  V30 4292 H 414.471 0.731418 5.21496 0
M  V30 4293 H 416.962 0.92155 3.66491 0
M  V30 4294 H 417.275 2.48478 7.31764 0
M  V30 4295 H 415.62 2.22805 6.58318 0
M  V30 4296 H 418.811 1.22304 4.5184 0
M  V30 4297 H 418.984 1.93567 6.18414 0
M  V30 4298 N 412.39 -1.55475 0.257931 0
M  V30 4299 C 413.637 -1.99207 -0.363728 0
M  V30 4300 C 413.965 -1.1462 -1.57139 0
M  V30 4301 O 413.22 -0.199653 -1.94679 0
M  V30 4302 C 413.519 -3.48183 -0.806433 0
M  V30 4303 C 413.185 -4.49936 0.294684 0
M  V30 4304 C 411.847 -4.77481 0.597076 0
M  V30 4305 C 414.199 -5.10769 1.03751 0
M  V30 4306 C 411.527 -5.63132 1.64618 0
M  V30 4307 C 413.879 -5.97558 2.07622 0
M  V30 4308 C 412.543 -6.23432 2.38514 0
M  V30 4309 H 411.813 -0.728949 -0.133097 0
M  V30 4310 H 414.46 -1.8793 0.368059 0
M  V30 4311 H 412.765 -3.56848 -1.61761 0
M  V30 4312 H 414.462 -3.79415 -1.29789 0
M  V30 4313 H 411.052 -4.28572 0.0488649 0
M  V30 4314 H 415.236 -4.89527 0.817149 0
M  V30 4315 H 410.492 -5.8143 1.89074 0
M  V30 4316 H 414.666 -6.43735 2.65666 0
M  V30 4317 H 412.293 -6.89594 3.19943 0
M  V30 4318 N 413.868 0.0150385 -1.57593 0
M  V30 4319 C 415.093 0.718067 -1.94573 0
M  V30 4320 C 415.518 1.6734 -0.859005 0
M  V30 4321 O 414.876 1.80362 0.184147 0
M  V30 4322 C 414.924 1.43918 -3.30636 0
M  V30 4323 O 414.028 2.55299 -3.23876 0
M  V30 4324 H 413.369 0.192125 -0.635597 0
M  V30 4325 H 415.899 -0.0336708 -2.04572 0
M  V30 4326 H 415.909 1.80598 -3.65853 0
M  V30 4327 H 414.584 0.738619 -4.09289 0
M  V30 4328 H 413.161 2.21058 -3.00312 0
M  V30 4329 N 415.346 1.54954 0.287554 0
M  V30 4330 C 416.757 1.65732 0.859634 0
M  V30 4331 C 417.108 0.574767 1.87592 0
M  V30 4332 O 416.233 -0.286299 2.14498 0
M  V30 4333 C 416.828 3.00438 1.56597 0
M  V30 4334 C 415.387 3.13292 2.08627 0
M  V30 4335 C 414.534 2.61473 0.923416 0
M  V30 4336 H 417.485 1.5857 0.0642338 0
M  V30 4337 H 417.506 2.92613 2.43224 0
M  V30 4338 H 417.018 3.79207 0.826053 0
M  V30 4339 H 415.119 2.39268 2.85625 0
M  V30 4340 H 415.232 4.19647 2.31157 0
M  V30 4341 H 413.596 2.18264 1.31275 0
M  V30 4342 H 414.379 3.42733 0.197241 0
M  V30 4343 N 416.824 -0.551391 1.4764 0
M  V30 4344 C 417.787 -1.64007 1.60107 0
M  V30 4345 C 418.787 -1.53601 0.47576 0
M  V30 4346 O 419.977 -1.57655 0.740988 0
M  V30 4347 C 417.109 -3.03569 1.55108 0
M  V30 4348 H 418.302 -1.543 2.57161 0
M  V30 4349 H 415.855 -0.771776 1.35917 0
M  V30 4350 H 416.59 -3.18804 0.594519 0
M  V30 4351 H 416.375 -3.12532 2.36783 0
M  V30 4352 H 417.865 -3.82762 1.66982 0
M  V30 4353 N 418.302 -1.35869 -0.798587 0
M  V30 4354 C 419.548 -1.2978 -1.55836 0
M  V30 4355 C 419.881 0.125322 -1.93795 0
M  V30 4356 O 419.156 1.07658 -1.61987 0
M  V30 4357 C 419.439 -2.21188 -2.84162 0
M  V30 4358 C 419.292 -3.72155 -2.52628 0
M  V30 4359 C 420.611 -2.11545 -3.85923 0
M  V30 4360 H 417.73 -0.472769 -0.565383 0
M  V30 4361 H 420.372 -1.66341 -0.918192 0
M  V30 4362 H 418.522 -1.90139 -3.38791 0
M  V30 4363 H 420.194 -4.13682 -2.04121 0
M  V30 4364 H 418.437 -3.92042 -1.85704 0
M  V30 4365 H 419.108 -4.31511 -3.44242 0
M  V30 4366 H 421.584 -2.38855 -3.40716 0
M  V30 4367 H 420.46 -2.77688 -4.73477 0
M  V30 4368 H 420.721 -1.09987 -4.282 0
M  V30 4369 N 419.78 1.02168 -1.19998 0
M  V30 4370 C 420.743 2.08765 -0.94604 0
M  V30 4371 C 421.743 1.60618 0.0763846 0
M  V30 4372 O 422.933 1.73472 -0.159135 0
M  V30 4373 C 420.065 3.38262 -0.423255 0
M  V30 4374 H 421.258 2.32726 -1.89153 0
M  V30 4375 H 418.811 1.1889 -1.01464 0
M  V30 4376 H 419.546 3.19974 0.527938 0
M  V30 4377 H 419.331 3.74532 -1.16053 0
M  V30 4378 H 420.821 4.16759 -0.264911 0
M  V30 4379 N 421.258 1.00505 1.21394 0
M  V30 4380 C 422.221 0.570459 2.21987 0
M  V30 4381 C 423.221 -0.353211 1.56873 0
M  V30 4382 O 424.411 -0.14349 1.73608 0
M  V30 4383 C 421.543 -0.168555 3.40483 0
M  V30 4384 H 422.736 1.46021 2.6195 0
M  V30 4385 H 420.289 0.793565 1.34656 0
M  V30 4386 H 421.024 -1.07374 3.06009 0
M  V30 4387 H 420.809 0.494823 3.88965 0
M  V30 4388 H 422.299 -0.460362 4.15055 0
M  V30 4389 N 422.737 -1.36956 0.779787 0
M  V30 4390 C 423.984 -1.99491 0.347766 0
M  V30 4391 C 424.312 -1.61898 -1.07793 0
M  V30 4392 O 423.567 -0.86071 -1.75756 0
M  V30 4393 C 423.866 -3.54585 0.447686 0
M  V30 4394 C 423.532 -4.1197 1.83279 0
M  V30 4395 C 422.194 -4.27356 2.2118 0
M  V30 4396 C 424.546 -4.43354 2.74019 0
M  V30 4397 C 421.874 -4.71432 3.4924 0
M  V30 4398 C 424.226 -4.88858 4.01497 0
M  V30 4399 C 422.89 -5.0245 4.39432 0
M  V30 4400 H 422.16 -0.729991 0.127257 0
M  V30 4401 H 424.807 -1.63599 0.995376 0
M  V30 4402 H 423.112 -3.90773 -0.283447 0
M  V30 4403 H 424.809 -4.00888 0.0945948 0
M  V30 4404 H 421.399 -4.00428 1.52825 0
M  V30 4405 H 425.583 -4.31045 2.45995 0
M  V30 4406 H 420.839 -4.80141 3.78516 0
M  V30 4407 H 425.013 -5.12108 4.71931 0
M  V30 4408 H 422.64 -5.36362 5.38721 0
M  V30 4409 N 424.215 -0.530993 -1.48385 0
M  V30 4410 C 425.445 -0.00133928 -2.066 0
M  V30 4411 C 425.853 1.28599 -1.38777 0
M  V30 4412 O 425.196 1.77599 -0.469495 0
M  V30 4413 C 425.258 0.292137 -3.58311 0
M  V30 4414 C 424.922 -0.901864 -4.48013 0
M  V30 4415 C 425.919 -1.80053 -4.87726 0
M  V30 4416 C 423.604 -1.10915 -4.89901 0
M  V30 4417 C 425.598 -2.89038 -5.68098 0
M  V30 4418 C 423.285 -2.20213 -5.70043 0
M  V30 4419 C 424.283 -3.09107 -6.0905 0
M  V30 4420 O 423.971 -4.16514 -6.87583 0
M  V30 4421 H 423.703 -0.0308475 -0.675296 0
M  V30 4422 H 426.257 -0.736335 -1.91748 0
M  V30 4423 H 424.487 1.08112 -3.7128 0
M  V30 4424 H 426.176 0.763994 -3.98645 0
M  V30 4425 H 426.942 -1.65234 -4.55986 0
M  V30 4426 H 422.821 -0.426498 -4.59023 0
M  V30 4427 H 426.365 -3.58451 -5.98464 0
M  V30 4428 H 422.262 -2.35016 -6.01197 0
M  V30 4429 H 423.03 -4.14237 -7.05939 0
M  V30 4430 N 425.693 1.55336 -0.266172 0
M  V30 4431 C 426.623 2.25146 0.618981 0
M  V30 4432 C 427.604 1.23845 1.16604 0
M  V30 4433 O 428.789 1.52544 1.20183 0
M  V30 4434 C 425.919 2.96572 1.80728 0
M  V30 4435 C 424.873 4.04726 1.39215 0
M  V30 4436 C 424.199 4.63678 2.66283 0
M  V30 4437 C 425.499 5.19407 0.548942 0
M  V30 4438 H 427.193 2.99377 0.0368116 0
M  V30 4439 H 424.739 1.43991 0.0162651 0
M  V30 4440 H 426.692 3.44116 2.43232 0
M  V30 4441 H 425.416 2.19861 2.41514 0
M  V30 4442 H 424.075 3.57979 0.790351 0
M  V30 4443 H 423.723 3.83646 3.25308 0
M  V30 4444 H 423.423 5.367 2.39222 0
M  V30 4445 H 424.947 5.13967 3.29651 0
M  V30 4446 H 426.361 5.63059 1.07876 0
M  V30 4447 H 424.758 5.98936 0.373593 0
M  V30 4448 H 425.828 4.8295 -0.434394 0
M  V30 4449 N 427.171 -0.0066808 1.57599 0
M  V30 4450 C 428.582 -0.550379 1.78403 0
M  V30 4451 C 428.933 -1.74339 0.900014 0
M  V30 4452 O 428.058 -2.16166 0.100713 0
M  V30 4453 C 428.653 -1.00523 3.23544 0
M  V30 4454 C 427.212 -1.49428 3.45468 0
M  V30 4455 C 426.359 -0.442444 2.73748 0
M  V30 4456 H 429.31 0.219508 1.57175 0
M  V30 4457 H 429.331 -1.87157 3.31289 0
M  V30 4458 H 428.843 -0.136735 3.87859 0
M  V30 4459 H 426.944 -2.3839 2.86358 0
M  V30 4460 H 427.057 -1.52635 4.54136 0
M  V30 4461 H 425.421 -0.902578 2.38171 0
M  V30 4462 H 426.204 0.416973 3.40758 0
M  V30 4463 N 428.649 -1.55105 -0.279332 0
M  V30 4464 C 429.559 -1.90638 -1.36727 0
M  V30 4465 C 430.575 -0.802899 -1.54368 0
M  V30 4466 O 431.751 -1.10138 -1.68616 0
M  V30 4467 C 428.816 -2.16547 -2.70755 0
M  V30 4468 C 427.877 -3.40146 -2.61915 0
M  V30 4469 C 427.11 -3.6481 -3.8955 0
M  V30 4470 O 427.333 -2.92095 -4.89935 0
M  V30 4471 O 426.267 -4.58343 -3.90135 0
M  V30 4472 H 430.093 -2.83237 -1.09591 0
M  V30 4473 H 427.678 -1.4157 -0.477306 0
M  V30 4474 H 429.56 -2.34665 -3.50014 0
M  V30 4475 H 428.235 -1.27131 -2.9769 0
M  V30 4476 H 427.142 -3.2737 -1.81052 0
M  V30 4477 H 428.475 -4.29761 -2.3993 0
M  V30 4478 N 430.127 0.543554 -1.4793 0
M  V30 4479 C 431.375 1.29752 -1.54948 0
M  V30 4480 C 431.696 1.93764 -0.219242 0
M  V30 4481 O 430.966 1.80639 0.75805 0
M  V30 4482 H 429.546 0.481874 -0.570795 0
M  V30 4483 H 432.208 0.633636 -1.84312 0
M  V30 4484 H 431.304 2.08392 -2.32334 0
M  V30 4485 N 431.605 1.3629 0.791371 0
M  V30 4486 C 432.851 1.30605 1.55146 0
M  V30 4487 C 433.184 -0.115042 1.93859 0
M  V30 4488 O 432.459 -1.06798 1.62556 0
M  V30 4489 C 432.742 2.22692 2.82985 0
M  V30 4490 C 432.595 3.73489 2.50651 0
M  V30 4491 C 433.914 2.13588 3.84796 0
M  V30 4492 H 431.033 0.475761 0.562868 0
M  V30 4493 H 433.675 1.66825 0.909358 0
M  V30 4494 H 431.825 1.91933 3.37778 0
M  V30 4495 H 433.497 4.14758 2.01924 0
M  V30 4496 H 431.74 3.93021 1.83622 0
M  V30 4497 H 432.411 4.3333 3.41949 0
M  V30 4498 H 434.887 2.40659 3.39445 0
M  V30 4499 H 433.763 2.80195 4.71998 0
M  V30 4500 H 434.024 1.12256 4.27611 0
M  V30 4501 N 433.083 -1.0153 1.20538 0
M  V30 4502 C 434.494 -1.56598 1.01657 0
M  V30 4503 C 434.845 -1.91505 -0.426668 0
M  V30 4504 O 433.97 -1.72375 -1.30827 0
M  V30 4505 C 434.565 -2.84542 1.83905 0
M  V30 4506 C 433.124 -3.36133 1.69386 0
M  V30 4507 C 432.271 -2.09427 1.81757 0
M  V30 4508 H 435.222 -0.838974 1.34711 0
M  V30 4509 H 435.243 -3.56004 1.34319 0
M  V30 4510 H 434.755 -2.59105 2.8894 0
M  V30 4511 H 432.856 -3.66528 0.669933 0
M  V30 4512 H 432.969 -4.08248 2.50739 0
M  V30 4513 H 431.333 -2.21941 1.24957 0
M  V30 4514 H 432.116 -1.86414 2.88279 0
M  V30 4515 N 434.561 -1.01147 -1.20859 0
M  V30 4516 C 435.791 -0.715872 -1.93801 0
M  V30 4517 C 436.199 0.726592 -1.74692 0
M  V30 4518 O 435.542 1.50397 -1.05482 0
M  V30 4519 C 435.604 -0.965269 -3.46299 0
M  V30 4520 C 435.268 -2.39584 -3.89164 0
M  V30 4521 C 436.265 -3.3764 -3.95342 0
M  V30 4522 C 433.95 -2.73522 -4.21297 0
M  V30 4523 C 435.944 -4.67698 -4.33056 0
M  V30 4524 C 433.631 -4.03794 -4.58687 0
M  V30 4525 C 434.629 -5.00693 -4.64538 0
M  V30 4526 O 434.317 -6.28635 -5.01072 0
M  V30 4527 H 434.049 -0.262524 -0.622942 0
M  V30 4528 H 436.603 -1.35413 -1.54443 0
M  V30 4529 H 434.833 -0.269847 -3.85757 0
M  V30 4530 H 436.522 -0.662051 -4.00464 0
M  V30 4531 H 437.288 -3.12757 -3.70686 0
M  V30 4532 H 433.167 -1.9879 -4.15937 0
M  V30 4533 H 436.711 -5.4333 -4.37537 0
M  V30 4534 H 432.608 -4.28459 -4.82797 0
M  V30 4535 H 433.376 -6.32847 -5.19083 0
M  V30 4536 N 436.039 1.36541 -0.78704 0
M  V30 4537 C 437.002 2.28413 -0.189778 0
M  V30 4538 C 438.002 1.48719 0.611499 0
M  V30 4539 O 439.192 1.68737 0.432842 0
M  V30 4540 C 436.324 3.32824 0.737638 0
M  V30 4541 H 437.517 2.82743 -0.999831 0
M  V30 4542 H 435.07 1.46065 -0.556298 0
M  V30 4543 H 435.805 2.83646 1.57212 0
M  V30 4544 H 435.59 3.91752 0.165044 0
M  V30 4545 H 437.08 4.0144 1.15047 0
M  V30 4546 N 437.518 0.538854 1.48102 0
M  V30 4547 C 438.934 0.19732 1.58376 0
M  V30 4548 C 439.134 -1.29971 1.5398 0
M  V30 4549 O 438.19 -2.07861 1.43352 0
M  V30 4550 C 439.503 0.807716 2.89649 0
M  V30 4551 C 441.051 0.77726 3.03196 0
M  V30 4552 C 441.526 1.36639 4.37143 0
M  V30 4553 N 443.017 1.32875 4.43732 0
M  V30 4554 C 443.752 1.7544 5.45901 0
M  V30 4555 N 443.248 2.25776 6.54979 0
M  V30 4556 N 445.041 1.66623 5.36836 0
M  V30 4557 H 437.192 1.5117 1.49202 0
M  V30 4558 H 439.455 0.629327 0.708979 0
M  V30 4559 H 439.161 1.85909 2.98548 0
M  V30 4560 H 439.035 0.289975 3.76084 0
M  V30 4561 H 441.422 -0.265374 2.93904 0
M  V30 4562 H 441.503 1.33256 2.18349 0
M  V30 4563 H 441.147 2.408 4.47189 0
M  V30 4564 H 441.077 0.786689 5.20691 0
M  V30 4565 H 443.568 0.96037 3.65493 0
M  V30 4566 H 443.881 2.56226 7.29087 0
M  V30 4567 H 442.226 2.29775 6.55918 0
M  V30 4568 H 445.417 1.27089 4.50517 0
M  V30 4569 H 445.59 2.00115 6.16326 0
M  V30 4570 N 438.996 -1.55193 0.274407 0
M  V30 4571 C 440.242 -1.99877 -0.343086 0
M  V30 4572 C 440.575 -1.16256 -1.55558 0
M  V30 4573 O 439.85 -0.232462 -1.93106 0
M  V30 4574 C 440.133 -3.52706 -0.725965 0
M  V30 4575 C 439.986 -4.47081 0.493818 0
M  V30 4576 C 441.305 -4.11422 -1.56268 0
M  V30 4577 H 438.424 -0.726625 -0.123229 0
M  V30 4578 H 441.066 -1.86136 0.38121 0
M  V30 4579 H 439.216 -3.64546 -1.34307 0
M  V30 4580 H 440.888 -4.47186 1.13237 0
M  V30 4581 H 439.131 -4.1877 1.13201 0
M  V30 4582 H 439.802 -5.51699 0.18217 0
M  V30 4583 H 442.278 -4.02855 -1.04151 0
M  V30 4584 H 441.154 -5.18568 -1.79939 0
M  V30 4585 H 441.415 -3.61607 -2.54348 0
M  V30 4586 N 440.474 -0.00167713 -1.576 0
M  V30 4587 C 441.421 0.989195 -2.08527 0
M  V30 4588 C 442.391 1.34031 -0.981065 0
M  V30 4589 O 443.576 1.43839 -1.2536 0
M  V30 4590 C 440.716 2.27537 -2.59463 0
M  V30 4591 C 439.829 1.98314 -3.83791 0
M  V30 4592 C 438.964 3.21025 -4.23222 0
M  V30 4593 C 438.003 2.87495 -5.40382 0
M  V30 4594 N 437.14 4.02749 -5.75098 0
M  V30 4595 H 441.98 0.547973 -2.92919 0
M  V30 4596 H 439.517 0.258917 -1.44803 0
M  V30 4597 H 441.475 3.02729 -2.87073 0
M  V30 4598 H 440.105 2.69325 -1.77943 0
M  V30 4599 H 439.157 1.13482 -3.63078 0
M  V30 4600 H 440.469 1.69601 -4.69081 0
M  V30 4601 H 439.623 4.04561 -4.52123 0
M  V30 4602 H 438.362 3.52877 -3.36644 0
M  V30 4603 H 437.367 2.02367 -5.11202 0
M  V30 4604 H 438.592 2.56889 -6.28637 0
M  V30 4605 H 436.538 4.34494 -4.91478 0
M  V30 4606 H 436.455 3.77566 -6.54966 0
M  V30 4607 H 437.723 4.87068 -6.08592 0
M  V30 4608 N 441.952 1.55251 0.271103 0
M  V30 4609 C 442.862 1.9136 1.35714 0
M  V30 4610 C 443.878 0.811075 1.5394 0
M  V30 4611 O 445.054 1.11031 1.6803 0
M  V30 4612 C 442.119 2.1798 2.69603 0
M  V30 4613 C 441.18 3.4153 2.60107 0
M  V30 4614 C 440.413 3.66871 3.8761 0
M  V30 4615 O 440.636 2.94689 4.8838 0
M  V30 4616 O 439.57 4.60405 3.87699 0
M  V30 4617 H 443.396 2.83815 1.08088 0
M  V30 4618 H 440.981 1.41821 0.469792 0
M  V30 4619 H 442.863 2.36518 3.48765 0
M  V30 4620 H 441.538 1.28708 2.97012 0
M  V30 4621 H 440.445 3.28325 1.79314 0
M  V30 4622 H 441.778 4.31027 2.37647 0
M  V30 4623 N 443.43 -0.535701 1.48216 0
M  V30 4624 C 444.393 -1.623 1.61838 0
M  V30 4625 C 445.393 -1.53087 0.492024 0
M  V30 4626 O 446.583 -1.5686 0.757668 0
M  V30 4627 C 443.715 -3.01907 1.58319 0
M  V30 4628 H 444.908 -1.51564 2.58783 0
M  V30 4629 H 442.461 -0.757317 1.36727 0
M  V30 4630 H 443.196 -3.18155 0.628299 0
M  V30 4631 H 442.981 -3.10003 2.40085 0
M  V30 4632 H 444.471 -3.80969 1.71033 0
M  V30 4633 N 444.908 -1.36708 -0.784132 0
M  V30 4634 C 446.155 -1.31231 -1.54222 0
M  V30 4635 C 446.483 0.106864 -1.94206 0
M  V30 4636 O 445.738 1.07734 -1.63376 0
M  V30 4637 C 446.037 -2.18571 -2.82774 0
M  V30 4638 C 445.703 -3.67039 -2.61903 0
M  V30 4639 C 444.365 -4.07503 -2.55919 0
M  V30 4640 C 446.717 -4.61149 -2.4288 0
M  V30 4641 C 444.045 -5.40211 -2.28886 0
M  V30 4642 C 446.397 -5.94081 -2.17373 0
M  V30 4643 C 445.061 -6.33664 -2.09825 0
M  V30 4644 H 444.331 -0.48021 -0.56434 0
M  V30 4645 H 446.978 -1.68807 -0.904233 0
M  V30 4646 H 445.283 -1.73949 -3.51068 0
M  V30 4647 H 446.98 -2.11655 -3.40592 0
M  V30 4648 H 443.57 -3.34941 -2.67418 0
M  V30 4649 H 447.754 -4.30756 -2.46501 0
M  V30 4650 H 443.01 -5.69855 -2.21529 0
M  V30 4651 H 447.184 -6.66566 -2.01649 0
M  V30 4652 H 444.811 -7.36423 -1.88641 0
M  V30 4653 N 446.386 1.0089 -1.21074 0
M  V30 4654 C 447.349 2.0775 -0.968129 0
M  V30 4655 C 448.349 1.6069 0.0593445 0
M  V30 4656 O 449.539 1.73293 -0.177525 0
M  V30 4657 C 446.671 3.37794 -0.459108 0
M  V30 4658 H 447.864 2.30707 -1.9161 0
M  V30 4659 H 445.417 1.17807 -1.02719 0
M  V30 4660 H 446.152 3.20516 0.49397 0
M  V30 4661 H 445.937 3.7328 -1.20019 0
M  V30 4662 H 447.427 4.16454 -0.309099 0
M  V30 4663 N 447.864 1.01787 1.20321 0
M  V30 4664 C 448.796 0.547357 2.22568 0
M  V30 4665 C 449.809 -0.370922 1.58518 0
M  V30 4666 O 450.998 -0.169067 1.77698 0
M  V30 4667 C 448.098 -0.223031 3.38165 0
M  V30 4668 C 447.271 0.697472 4.31803 0
M  V30 4669 C 446.33 -0.025562 5.26194 0
M  V30 4670 O 445.356 0.597367 5.66057 0
M  V30 4671 N 446.558 -1.29999 5.65757 0
M  V30 4672 H 449.323 1.42668 2.63564 0
M  V30 4673 H 446.884 0.895552 1.34876 0
M  V30 4674 H 448.876 -0.716002 3.98316 0
M  V30 4675 H 447.446 -1.00366 2.9605 0
M  V30 4676 H 446.666 1.37073 3.69601 0
M  V30 4677 H 447.954 1.32347 4.91286 0
M  V30 4678 H 447.352 -1.827 5.35385 0
M  V30 4679 H 445.909 -1.73766 6.28211 0
M  V30 4680 N 449.342 -1.36122 0.79427 0
M  V30 4681 C 450.758 -1.5232 0.476525 0
M  V30 4682 C 450.958 -1.74685 -1.00436 0
M  V30 4683 O 450.014 -1.78115 -1.78973 0
M  V30 4684 C 451.327 -2.70607 1.31119 0
M  V30 4685 C 452.875 -2.8448 1.30537 0
M  V30 4686 C 453.35 -4.05778 2.12387 0
M  V30 4687 N 454.841 -4.12933 2.09859 0
M  V30 4688 C 455.576 -5.05876 2.69957 0
M  V30 4689 N 455.072 -6.04232 3.38934 0
M  V30 4690 N 456.865 -4.98528 2.59665 0
M  V30 4691 H 449.016 -1.1986 1.75349 0
M  V30 4692 H 451.279 -0.585418 0.745647 0
M  V30 4693 H 450.985 -2.60619 2.36158 0
M  V30 4694 H 450.859 -3.64888 0.955843 0
M  V30 4695 H 453.246 -2.93927 0.262876 0
M  V30 4696 H 453.327 -1.91093 1.70051 0
M  V30 4697 H 452.971 -3.97092 3.1667 0
M  V30 4698 H 452.901 -4.98323 1.70242 0
M  V30 4699 H 455.392 -3.42515 1.59662 0
M  V30 4700 H 455.705 -6.71724 3.82109 0
M  V30 4701 H 454.05 -6.04443 3.43036 0
M  V30 4702 H 457.241 -4.20641 2.05375 0
M  V30 4703 H 457.414 -5.70773 3.06793 0
M  V30 4704 N 450.82 -0.546701 -1.47814 0
M  V30 4705 C 452.068 -0.0187037 -2.02091 0
M  V30 4706 C 452.389 1.33168 -1.42447 0
M  V30 4707 O 451.659 1.86619 -0.595839 0
M  V30 4708 H 450.239 -0.00392531 -0.74699 0
M  V30 4709 H 452.901 -0.714327 -1.81338 0
M  V30 4710 H 451.997 0.0772219 -3.12004 0
M  V30 4711 N 452.299 1.55045 -0.282633 0
M  V30 4712 C 453.262 2.21515 0.588539 0
M  V30 4713 C 454.262 1.19535 1.07554 0
M  V30 4714 O 455.452 1.44391 0.974514 0
M  V30 4715 C 452.584 2.88704 1.8128 0
M  V30 4716 H 453.777 2.99899 0.00806397 0
M  V30 4717 H 451.33 1.56265 -0.0333067 0
M  V30 4718 H 452.065 2.14352 2.43359 0
M  V30 4719 H 451.85 3.63443 1.47144 0
M  V30 4720 H 453.34 3.39465 2.43214 0
M  V30 4721 N 453.777 0.010035 1.57597 0
M  V30 4722 C 455.023 -0.673697 1.91283 0
M  V30 4723 C 455.356 -1.72863 0.884979 0
M  V30 4724 O 454.631 -1.94268 -0.0949487 0
M  V30 4725 C 454.914 -1.30766 3.35518 0
M  V30 4726 C 454.767 -0.263578 4.49027 0
M  V30 4727 C 456.086 -2.23105 3.79358 0
M  V30 4728 H 453.205 -0.243439 0.695634 0
M  V30 4729 H 455.847 0.0633864 1.89894 0
M  V30 4730 H 453.997 -1.93588 3.36832 0
M  V30 4731 H 455.669 0.365738 4.59848 0
M  V30 4732 H 453.912 0.413077 4.31829 0
M  V30 4733 H 454.583 -0.746398 5.4693 0
M  V30 4734 H 457.059 -1.70289 3.79659 0
M  V30 4735 H 455.935 -2.64424 4.81011 0
M  V30 4736 H 456.196 -3.11433 3.13787 0
M  V30 4737 N 455.255 -1.55392 -0.262866 0
M  V30 4738 C 456.504 -1.75679 -0.990943 0
M  V30 4739 C 456.817 -0.57097 -1.87081 0
M  V30 4740 O 458.023 -0.656486 -2.63444 0
M  V30 4741 C 456.479 -3.10964 -1.81188 0
M  V30 4742 C 456.087 -4.37146 -0.980188 0
M  V30 4743 C 457.831 -3.40597 -2.53365 0
M  V30 4744 C 455.738 -5.63466 -1.7961 0
M  V30 4745 H 454.668 -0.654868 -0.373716 0
M  V30 4746 H 457.319 -1.81841 -0.246203 0
M  V30 4747 H 455.701 -2.98867 -2.59797 0
M  V30 4748 H 456.875 -4.60187 -0.237558 0
M  V30 4749 H 455.19 -4.14731 -0.372497 0
M  V30 4750 H 457.787 -4.32186 -3.14833 0
M  V30 4751 H 458.13 -2.6119 -3.24169 0
M  V30 4752 H 458.663 -3.53838 -1.81779 0
M  V30 4753 H 455.402 -6.4565 -1.13209 0
M  V30 4754 H 454.922 -5.44552 -2.51443 0
M  V30 4755 H 456.601 -6.02139 -2.36723 0
M  V30 4756 N 456.733 0.527833 -1.48498 0
M  V30 4757 C 457.696 1.61439 -1.62696 0
M  V30 4758 C 458.696 1.52824 -0.500136 0
M  V30 4759 O 459.886 1.56456 -0.765976 0
M  V30 4760 C 457.018 3.01063 -1.59918 0
M  V30 4761 H 458.211 1.50189 -2.59583 0
M  V30 4762 H 455.764 0.750055 -1.37127 0
M  V30 4763 H 456.499 3.17818 -0.645163 0
M  V30 4764 H 456.284 3.08725 -2.41726 0
M  V30 4765 H 457.774 3.80057 -1.73051 0
M  V30 4766 N 458.211 1.37122 0.776871 0
M  V30 4767 C 459.459 1.31787 1.53221 0
M  V30 4768 C 459.78 -0.0987589 1.9475 0
M  V30 4769 O 459.05 -1.0417 1.65908 0
M  V30 4770 H 457.63 0.484839 0.568278 0
M  V30 4771 H 460.292 1.71556 0.924917 0
M  V30 4772 H 459.388 1.95355 2.43398 0
M  V30 4773 N 459.689 -1.00246 1.21608 0
M  V30 4774 C 460.937 -1.73717 1.0328 0
M  V30 4775 C 461.258 -1.90102 -0.434318 0
M  V30 4776 O 460.528 -1.45376 -1.31311 0
M  V30 4777 H 459.108 -0.643613 0.379172 0
M  V30 4778 H 461.77 -1.20787 1.52959 0
M  V30 4779 H 460.866 -2.73535 1.50283 0
M  V30 4780 N 461.167 -1.02423 -1.1978 0
M  V30 4781 C 462.099 -0.559152 -2.22275 0
M  V30 4782 C 463.112 0.36251 -1.58713 0
M  V30 4783 O 464.301 0.159641 -1.77785 0
M  V30 4784 C 461.401 0.205094 -3.38279 0
M  V30 4785 C 460.574 -0.720361 -4.31427 0
M  V30 4786 C 459.633 -0.00234368 -5.262 0
M  V30 4787 O 458.659 -0.627378 -5.65732 0
M  V30 4788 N 459.861 1.26996 -5.66438 0
M  V30 4789 H 462.626 -1.44064 -2.62804 0
M  V30 4790 H 460.187 -0.902692 -1.34399 0
M  V30 4791 H 462.179 0.694868 -3.9869 0
M  V30 4792 H 460.749 0.987947 -2.96578 0
M  V30 4793 H 459.969 -1.39031 -3.68869 0
M  V30 4794 H 461.257 -1.3495 -4.90577 0
M  V30 4795 H 460.655 1.79858 -5.36347 0
M  V30 4796 H 459.212 1.70432 -6.29123 0
M  V30 4797 N 462.645 1.35699 -0.801477 0
M  V30 4798 C 463.893 1.9852 -0.37871 0
M  V30 4799 C 464.214 1.63907 1.05638 0
M  V30 4800 O 463.484 0.919013 1.73006 0
M  V30 4801 H 462.064 0.734322 -0.137042 0
M  V30 4802 H 464.726 1.65697 -1.02619 0
M  V30 4803 H 463.822 3.08382 -0.480284 0
M  V30 4804 N 464.123 0.554532 1.47522 0
M  V30 4805 C 465.534 0.120446 1.86311 0
M  V30 4806 C 465.885 -1.30904 1.46145 0
M  V30 4807 O 465.01 -1.98434 0.863294 0
M  V30 4808 C 465.605 0.211808 3.38137 0
M  V30 4809 C 464.164 -0.167224 3.76028 0
M  V30 4810 C 463.311 0.560576 2.71575 0
M  V30 4811 H 466.262 0.764408 1.39077 0
M  V30 4812 H 466.283 -0.570275 3.76202 0
M  V30 4813 H 465.795 1.25232 3.6734 0
M  V30 4814 H 463.896 -1.20894 3.52442 0
M  V30 4815 H 464.009 0.189473 4.78725 0
M  V30 4816 H 462.373 0.00396836 2.547 0
M  V30 4817 H 463.156 1.60219 3.0362 0
M  V30 4818 N 465.601 -1.54893 0.290851 0
M  V30 4819 C 466.531 -2.26103 -0.583084 0
M  V30 4820 C 467.512 -1.25684 -1.14619 0
M  V30 4821 O 468.697 -1.54436 -1.17741 0
M  V30 4822 C 465.827 -2.99409 -1.75987 0
M  V30 4823 C 464.781 -4.0689 -1.32758 0
M  V30 4824 C 464.107 -4.67856 -2.58872 0
M  V30 4825 C 465.407 -5.20215 -0.46624 0
M  V30 4826 H 467.101 -2.99398 0.0108214 0
M  V30 4827 H 464.647 -1.43998 0.00664468 0
M  V30 4828 H 466.6 -3.47943 -2.37727 0
M  V30 4829 H 465.324 -2.23675 -2.37985 0
M  V30 4830 H 463.983 -3.59191 -0.733299 0
M  V30 4831 H 463.631 -3.88772 -3.19163 0
M  V30 4832 H 463.331 -5.40438 -2.30653 0
M  V30 4833 H 464.855 -5.19147 -3.21433 0
M  V30 4834 H 466.269 -5.64704 -0.989047 0
M  V30 4835 H 464.666 -5.99455 -0.27826 0
M  V30 4836 H 465.736 -4.82198 0.511173 0
M  V30 4837 N 467.08 -0.0183926 -1.57589 0
M  V30 4838 C 468.027 0.967022 -2.09565 0
M  V30 4839 C 468.997 1.32983 -0.995225 0
M  V30 4840 O 470.182 1.42501 -1.26878 0
M  V30 4841 C 467.322 2.24772 -2.61861 0
M  V30 4842 C 466.435 1.94232 -3.85873 0
M  V30 4843 C 465.57 3.16518 -4.26603 0
M  V30 4844 C 464.609 2.81748 -5.43401 0
M  V30 4845 N 463.746 3.96626 -5.79338 0
M  V30 4846 H 468.586 0.516874 -2.93483 0
M  V30 4847 H 466.123 0.243544 -1.4507 0
M  V30 4848 H 468.081 2.99667 -2.90268 0
M  V30 4849 H 466.711 2.67423 -1.8079 0
M  V30 4850 H 465.763 1.09625 -3.64262 0
M  V30 4851 H 467.075 1.64616 -4.70853 0
M  V30 4852 H 466.229 3.99743 -4.56389 0
M  V30 4853 H 464.968 3.49286 -3.40368 0
M  V30 4854 H 463.973 1.96933 -5.1332 0
M  V30 4855 H 465.198 2.50207 -6.31327 0
M  V30 4856 H 463.144 4.29257 -4.96059 0
M  V30 4857 H 463.061 3.70598 -6.58933 0
M  V30 4858 H 464.329 4.80586 -6.13724 0
M  V30 4859 N 468.558 1.5553 0.254621 0
M  V30 4860 C 469.806 1.7665 0.981793 0
M  V30 4861 C 470.127 0.580963 1.86145 0
M  V30 4862 O 469.397 -0.403537 1.91699 0
M  V30 4863 H 467.977 0.651475 0.365498 0
M  V30 4864 H 470.639 1.92958 0.274426 0
M  V30 4865 H 469.735 2.67486 1.60802 0
M  V30 4866 N 470.036 -0.519951 1.48776 0
M  V30 4867 C 470.983 -1.62352 1.64044 0
M  V30 4868 C 471.953 -1.58945 0.482251 0
M  V30 4869 O 473.138 -1.77219 0.706971 0
M  V30 4870 C 470.278 -3.00579 1.69547 0
M  V30 4871 C 469.391 -3.14145 2.96541 0
M  V30 4872 C 468.526 -4.42991 2.93142 0
M  V30 4873 C 467.565 -4.50122 4.14797 0
M  V30 4874 N 466.702 -5.7037 4.09418 0
M  V30 4875 H 471.542 -1.48643 2.58281 0
M  V30 4876 H 469.079 -0.723516 1.28077 0
M  V30 4877 H 471.037 -3.80671 1.70719 0
M  V30 4878 H 469.667 -3.13036 0.787918 0
M  V30 4879 H 468.719 -2.27239 3.05068 0
M  V30 4880 H 470.031 -3.15275 3.86527 0
M  V30 4881 H 469.185 -5.31385 2.92772 0
M  V30 4882 H 467.924 -4.44398 2.00902 0
M  V30 4883 H 466.929 -3.60133 4.15433 0
M  V30 4884 H 468.154 -4.50445 5.08208 0
M  V30 4885 H 466.1 -5.72655 3.20004 0
M  V30 4886 H 466.017 -5.73036 4.93119 0
M  V30 4887 H 467.285 -6.61023 4.13121 0
M  V30 4888 N 471.514 -1.37532 -0.769588 0
M  V30 4889 C 472.76 -1.33057 -1.53048 0
M  V30 4890 C 473.093 0.0841865 -1.94017 0
M  V30 4891 O 472.368 1.04198 -1.64235 0
M  V30 4892 C 472.651 -2.27166 -2.79406 0
M  V30 4893 C 472.504 -3.77429 -2.44677 0
M  V30 4894 C 473.823 -2.19683 -3.81349 0
M  V30 4895 H 470.942 -0.484655 -0.555228 0
M  V30 4896 H 473.584 -1.68251 -0.882702 0
M  V30 4897 H 471.734 -1.97283 -3.34682 0
M  V30 4898 H 473.406 -4.17918 -1.953 0
M  V30 4899 H 471.649 -3.95892 -1.77346 0
M  V30 4900 H 472.32 -4.38716 -3.35011 0
M  V30 4901 H 474.796 -2.46029 -3.35573 0
M  V30 4902 H 473.672 -2.87668 -4.67481 0
M  V30 4903 H 473.933 -1.19045 -4.25771 0
M  V30 4904 N 472.992 0.995999 -1.22138 0
M  V30 4905 C 474.239 1.7351 -1.04406 0
M  V30 4906 C 474.567 1.89884 0.421244 0
M  V30 4907 O 473.822 1.43683 1.32867 0
M  V30 4908 C 474.121 3.14553 -1.6968 0
M  V30 4909 C 473.787 3.18102 -3.19565 0
M  V30 4910 C 472.449 3.18778 -3.60464 0
M  V30 4911 C 474.801 3.14636 -4.15516 0
M  V30 4912 C 472.129 3.13684 -4.95801 0
M  V30 4913 C 474.481 3.11084 -5.50826 0
M  V30 4914 C 473.145 3.10074 -5.91109 0
M  V30 4915 H 472.415 0.634916 -0.38205 0
M  V30 4916 H 475.062 1.1667 -1.51857 0
M  V30 4917 H 473.367 3.74682 -1.14546 0
M  V30 4918 H 475.064 3.70477 -1.53454 0
M  V30 4919 H 471.654 3.18324 -2.86998 0
M  V30 4920 H 475.838 3.13266 -3.84939 0
M  V30 4921 H 471.094 3.11245 -5.26247 0
M  V30 4922 H 475.268 3.07357 -6.24904 0
M  V30 4923 H 472.895 3.05882 -6.95946 0
M  V30 4924 N 474.47 1.03057 1.19235 0
M  V30 4925 C 475.886 0.747947 1.40989 0
M  V30 4926 C 476.086 -0.666752 1.90149 0
M  V30 4927 O 475.142 -1.43249 2.07933 0
M  V30 4928 C 476.455 1.7855 2.41951 0
M  V30 4929 C 478.003 1.80524 2.55695 0
M  V30 4930 C 478.478 2.83243 3.59913 0
M  V30 4931 N 479.969 2.8207 3.67411 0
M  V30 4932 C 480.704 3.58204 4.47747 0
M  V30 4933 N 480.2 4.44057 5.31775 0
M  V30 4934 N 481.993 3.46738 4.42413 0
M  V30 4935 H 474.144 1.94367 0.856468 0
M  V30 4936 H 476.407 0.840412 0.438647 0
M  V30 4937 H 476.113 2.79973 2.12857 0
M  V30 4938 H 475.987 1.6092 3.41152 0
M  V30 4939 H 478.374 0.79778 2.84112 0
M  V30 4940 H 478.455 2.02229 1.56643 0
M  V30 4941 H 478.099 3.84161 3.32239 0
M  V30 4942 H 478.029 2.58795 4.5862 0
M  V30 4943 H 480.52 2.19803 3.074 0
M  V30 4944 H 480.833 4.98884 5.90199 0
M  V30 4945 H 479.178 4.48129 5.3123 0
M  V30 4946 H 482.369 2.79077 3.75811 0
M  V30 4947 H 482.542 4.06322 5.04783 0
M  V30 4948 N 475.948 -1.35272 0.808662 0
M  V30 4949 C 476.878 -2.32315 0.234981 0
M  V30 4950 C 477.859 -1.57572 -0.64071 0
M  V30 4951 O 479.044 -1.8563 -0.570551 0
M  V30 4952 C 476.174 -3.41801 -0.615601 0
M  V30 4953 C 475.128 -4.27694 0.161767 0
M  V30 4954 C 474.454 -5.28519 -0.810649 0
M  V30 4955 C 475.754 -5.04231 1.36193 0
M  V30 4956 H 477.448 -2.80543 1.04575 0
M  V30 4957 H 474.994 -1.3488 0.504315 0
M  V30 4958 H 476.947 -4.08693 -1.02702 0
M  V30 4959 H 475.671 -2.92186 -1.45928 0
M  V30 4960 H 474.33 -3.62384 0.554382 0
M  V30 4961 H 473.978 -4.75171 -1.64988 0
M  V30 4962 H 473.678 -5.8686 -0.294822 0
M  V30 4963 H 475.202 -5.98283 -1.22023 0
M  V30 4964 H 476.616 -5.64058 1.02528 0
M  V30 4965 H 475.013 -5.72077 1.81239 0
M  V30 4966 H 476.083 -4.34753 2.14751 0
M  V30 4967 N 477.426 -0.562348 -1.47226 0
M  V30 4968 C 478.651 -0.0432632 -2.07355 0
M  V30 4969 C 479.076 1.24332 -1.41149 0
M  V30 4970 O 478.434 1.74603 -0.488226 0
M  V30 4971 C 478.482 0.130288 -3.60365 0
M  V30 4972 O 477.586 1.19166 -3.94808 0
M  V30 4973 H 476.927 -0.0536334 -0.66183 0
M  V30 4974 H 479.457 -0.779495 -1.89169 0
M  V30 4975 H 479.467 0.342881 -4.06557 0
M  V30 4976 H 478.142 -0.809389 -4.07948 0
M  V30 4977 H 476.719 0.959153 -3.60354 0
M  V30 4978 N 478.904 1.54736 -0.299062 0
M  V30 4979 C 479.834 2.26409 0.571085 0
M  V30 4980 C 480.815 1.2629 1.13951 0
M  V30 4981 O 482 1.55059 1.16921 0
M  V30 4982 C 479.13 3.00338 1.74396 0
M  V30 4983 C 478.084 4.07588 1.30599 0
M  V30 4984 C 477.41 4.69222 2.56387 0
M  V30 4985 C 478.71 5.20455 0.438645 0
M  V30 4986 H 480.404 2.99388 -0.0266991 0
M  V30 4987 H 477.95 1.43993 -0.0142812 0
M  V30 4988 H 479.903 3.49198 2.35878 0
M  V30 4989 H 478.627 2.24934 2.36796 0
M  V30 4990 H 477.286 3.59575 0.71424 0
M  V30 4991 H 476.934 3.9046 3.17097 0
M  V30 4992 H 476.634 5.41653 2.27784 0
M  V30 4993 H 478.158 5.20844 3.18675 0
M  V30 4994 H 479.572 5.65221 0.959085 0
M  V30 4995 H 477.969 5.99594 0.246466 0
M  V30 4996 H 479.039 4.8192 -0.536738 0
M  V30 4997 N 480.382 0.0267497 1.57577 0
M  V30 4998 C 481.315 -0.99059 2.05579 0
M  V30 4999 C 482.293 -1.31884 0.951065 0
M  V30 5000 O 483.477 -1.43592 1.22121 0
M  V30 5001 C 480.604 -2.31125 2.47586 0
M  V30 5002 C 479.65 -2.13777 3.69055 0
M  V30 5003 S 480.483 -1.4388 5.15809 0
M  V30 5004 C 481.639 -2.77321 5.6111 0
M  V30 5005 H 481.872 -0.581976 2.91548 0
M  V30 5006 H 479.405 -0.184876 1.53289 0
M  V30 5007 H 481.363 -3.07049 2.72454 0
M  V30 5008 H 480.024 -2.6912 1.61967 0
M  V30 5009 H 479.217 -3.11405 3.96287 0
M  V30 5010 H 478.819 -1.45996 3.44327 0
M  V30 5011 H 481.111 -3.73565 5.65204 0
M  V30 5012 H 482.054 -2.54756 6.60685 0
M  V30 5013 H 482.462 -2.82459 4.88751 0
M  V30 5014 N 481.861 -1.55662 -0.24637 0
M  V30 5015 C 483.109 -1.77168 -0.972411 0
M  V30 5016 C 483.43 -0.590827 -1.85834 0
M  V30 5017 O 482.7 0.393365 -1.9191 0
M  V30 5018 H 481.28 -0.653405 -0.362038 0
M  V30 5019 H 483.942 -1.93101 -0.264189 0
M  V30 5020 H 483.038 -2.68335 -1.59382 0
M  V30 5021 N 483.339 0.512053 -1.4905 0
M  V30 5022 C 484.302 1.59704 -1.64399 0
M  V30 5023 C 485.302 1.52285 -0.516317 0
M  V30 5024 O 486.492 1.55635 -0.782527 0
M  V30 5025 C 483.624 2.9935 -1.63102 0
M  V30 5026 H 484.817 1.47428 -2.61161 0
M  V30 5027 H 482.37 0.735469 -1.37915 0
M  V30 5028 H 483.105 3.17116 -0.678836 0
M  V30 5029 H 482.89 3.06144 -2.44986 0
M  V30 5030 H 484.38 3.782 -1.77072 0
M  V30 5031 N 484.817 1.37938 0.762283 0
M  V30 5032 C 486.047 1.36685 1.54922 0
M  V30 5033 C 486.455 -0.0474099 1.89141 0
M  V30 5034 O 485.798 -1.02213 1.52638 0
M  V30 5035 C 485.86 2.14963 2.88152 0
M  V30 5036 C 485.524 3.6385 2.76518 0
M  V30 5037 C 486.521 4.57531 2.46904 0
M  V30 5038 C 484.206 4.07095 2.94243 0
M  V30 5039 C 486.2 5.92436 2.35156 0
M  V30 5040 C 483.887 5.42083 2.82116 0
M  V30 5041 C 484.885 6.34567 2.52614 0
M  V30 5042 O 484.573 7.67073 2.40529 0
M  V30 5043 H 484.305 0.469586 0.486276 0
M  V30 5044 H 486.859 1.82012 0.951876 0
M  V30 5045 H 485.089 1.6434 3.50042 0
M  V30 5046 H 486.778 2.06224 3.49609 0
M  V30 5047 H 487.544 4.25428 2.32886 0
M  V30 5048 H 483.423 3.35462 3.16206 0
M  V30 5049 H 486.967 6.64591 2.12049 0
M  V30 5050 H 482.864 5.73785 2.95704 0
M  V30 5051 H 483.632 7.77499 2.55807 0
M  V30 5052 N 486.295 -0.989507 1.22664 0
M  V30 5053 C 487.572 -1.70326 0.961688 0
M  V30 5054 C 487.952 -2.04537 -0.522279 0
M  V30 5055 O 487.3 -1.73136 -1.49118 0
M  V30 5056 C 487.51 -2.95135 1.86269 0
M  V30 5057 C 488.858 -3.67842 2.12078 0
M  V30 5058 O 489.882 -3.0515 1.83745 0
M  V30 5059 O 488.741 -4.80644 2.60083 0
M  V30 5060 H 485.835 -0.743589 0.361946 0
M  V30 5061 H 488.381 -1.04555 1.33665 0
M  V30 5062 H 487.153 -2.66382 2.8663 0
M  V30 5063 H 486.776 -3.68645 1.48952 0
M  V30 5064 N 487.773 -1.03688 -1.18687 0
M  V30 5065 C 489.189 -0.755413 -1.4059 0
M  V30 5066 C 489.389 0.656659 -1.905 0
M  V30 5067 O 488.445 1.42144 -2.08689 0
M  V30 5068 C 489.758 -1.7983 -2.41001 0
M  V30 5069 C 491.306 -1.81877 -2.54735 0
M  V30 5070 C 491.781 -2.85148 -3.58406 0
M  V30 5071 N 493.272 -2.84015 -3.6591 0
M  V30 5072 C 494.007 -3.60573 -4.45841 0
M  V30 5073 N 493.503 -4.46871 -5.29413 0
M  V30 5074 N 495.296 -3.49079 -4.40568 0
M  V30 5075 H 487.447 -1.94818 -0.846148 0
M  V30 5076 H 489.71 -0.842727 -0.434184 0
M  V30 5077 H 489.416 -2.81097 -2.1137 0
M  V30 5078 H 489.29 -1.62727 -3.40294 0
M  V30 5079 H 491.677 -0.812836 -2.83685 0
M  V30 5080 H 491.758 -2.03057 -1.55568 0
M  V30 5081 H 491.402 -3.85918 -3.30197 0
M  V30 5082 H 491.332 -2.61224 -4.57241 0
M  V30 5083 H 493.823 -2.21431 -3.0623 0
M  V30 5084 H 494.136 -5.02007 -5.87545 0
M  V30 5085 H 492.481 -4.5094 -5.28846 0
M  V30 5086 H 495.672 -2.81066 -3.74325 0
M  V30 5087 H 495.845 -4.08994 -5.02621 0
M  V30 5088 N 489.251 1.34841 -0.815825 0
M  V30 5089 C 490.481 2.02436 -0.412695 0
M  V30 5090 C 490.889 1.61604 0.983906 0
M  V30 5091 O 490.232 0.813729 1.64694 0
M  V30 5092 C 490.294 3.56953 -0.427182 0
M  V30 5093 C 489.958 4.21083 -1.77589 0
M  V30 5094 C 490.955 4.42107 -2.73564 0
M  V30 5095 C 488.64 4.58006 -2.06243 0
M  V30 5096 C 490.634 4.99169 -3.9637 0
M  V30 5097 C 488.321 5.1478 -3.2931 0
M  V30 5098 C 489.319 5.35304 -4.24191 0
M  V30 5099 O 489.007 5.90878 -5.45086 0
M  V30 5100 H 488.739 0.655631 -0.164695 0
M  V30 5101 H 491.293 1.73246 -1.1034 0
M  V30 5102 H 489.523 3.85372 0.320175 0
M  V30 5103 H 491.212 4.05875 -0.0450875 0
M  V30 5104 H 491.978 4.13953 -2.52721 0
M  V30 5105 H 487.857 4.41339 -1.33196 0
M  V30 5106 H 491.401 5.15105 -4.70439 0
M  V30 5107 H 487.298 5.42362 -3.5002 0
M  V30 5108 H 488.066 6.0932 -5.46508 0
M  V30 5109 N 490.729 0.570148 1.46925 0
M  V30 5110 C 491.639 -0.173061 2.33961 0
M  V30 5111 C 492.655 -0.898825 1.48987 0
M  V30 5112 O 493.831 -0.864825 1.81887 0
M  V30 5113 C 490.896 -1.18177 3.25937 0
M  V30 5114 C 489.957 -0.462041 4.26806 0
M  V30 5115 C 489.19 -1.4227 5.14388 0
M  V30 5116 O 489.413 -2.65842 5.04662 0
M  V30 5117 O 488.347 -0.940127 5.94513 0
M  V30 5118 H 492.173 0.541216 2.98839 0
M  V30 5119 H 489.758 0.330647 1.45695 0
M  V30 5120 H 491.64 -1.76372 3.82715 0
M  V30 5121 H 490.315 -1.87774 2.63671 0
M  V30 5122 H 489.222 0.161429 3.73752 0
M  V30 5123 H 490.555 0.192719 4.91823 0
M  V30 5124 N 492.207 -1.54576 0.307264 0
M  V30 5125 C 493.17 -2.22423 -0.553224 0
M  V30 5126 C 494.17 -1.21231 -1.05639 0
M  V30 5127 O 495.36 -1.45923 -0.951419 0
M  V30 5128 C 492.492 -2.91552 -1.76664 0
M  V30 5129 H 493.685 -2.99874 0.0396484 0
M  V30 5130 H 491.238 -1.56192 0.0581629 0
M  V30 5131 H 491.973 -2.18196 -2.39918 0
M  V30 5132 H 491.758 -3.65738 -1.41343 0
M  V30 5133 H 493.248 -3.43292 -2.37783 0
M  V30 5134 N 493.685 -0.035106 -1.57561 0
M  V30 5135 C 494.615 0.942993 -2.13612 0
M  V30 5136 C 495.596 1.33531 -1.05373 0
M  V30 5137 O 496.781 1.41287 -1.33235 0
M  V30 5138 C 493.911 2.22332 -2.66807 0
M  V30 5139 C 492.865 1.97156 -3.79886 0
M  V30 5140 C 492.191 3.31506 -4.19533 0
M  V30 5141 C 493.491 1.30596 -5.05709 0
M  V30 5142 H 495.185 0.476179 -2.95589 0
M  V30 5143 H 492.731 0.227602 -1.4219 0
M  V30 5144 H 494.684 2.91142 -3.04654 0
M  V30 5145 H 493.408 2.7119 -1.81999 0
M  V30 5146 H 492.067 1.30763 -3.42486 0
M  V30 5147 H 491.715 3.78134 -3.31698 0
M  V30 5148 H 491.415 3.15465 -4.95738 0
M  V30 5149 H 492.939 4.01574 -4.59968 0
M  V30 5150 H 494.353 1.89416 -5.41105 0
M  V30 5151 H 492.75 1.24934 -5.86951 0
M  V30 5152 H 493.82 0.279742 -4.84092 0
M  V30 5153 N 495.163 1.55791 0.238111 0
M  V30 5154 C 496.411 1.77681 0.963001 0
M  V30 5155 C 496.732 0.600674 1.85518 0
M  V30 5156 O 496.002 -0.383182 1.92116 0
M  V30 5157 H 494.582 0.655315 0.358568 0
M  V30 5158 H 497.244 1.93239 0.253945 0
M  V30 5159 H 496.34 2.69177 1.57956 0
M  V30 5160 N 496.642 -0.504142 1.49319 0
M  V30 5161 C 497.888 -1.26033 1.58882 0
M  V30 5162 C 498.221 -1.92268 0.273274 0
M  V30 5163 O 497.496 -1.80567 -0.72291 0
M  V30 5164 C 497.779 -2.32976 2.7458 0
M  V30 5165 C 497.632 -1.71263 4.1592 0
M  V30 5166 C 498.951 -3.34561 2.85932 0
M  V30 5167 H 496.07 -0.456863 0.578312 0
M  V30 5168 H 498.712 -0.558965 1.81592 0
M  V30 5169 H 496.862 -2.92796 2.55348 0
M  V30 5170 H 498.534 -1.15294 4.4666 0
M  V30 5171 H 496.777 -1.01686 4.21714 0
M  V30 5172 H 497.448 -2.48816 4.92742 0
M  V30 5173 H 499.924 -2.84727 3.0343 0
M  V30 5174 H 498.8 -4.06754 3.68568 0
M  V30 5175 H 499.061 -3.96695 1.95154 0
M  V30 5176 N 498.12 -1.38341 -0.754957 0
M  V30 5177 C 499.083 -1.35262 -1.85032 0
M  V30 5178 C 500.083 -0.253393 -1.58791 0
M  V30 5179 O 501.273 -0.510205 -1.66561 0
M  V30 5180 C 498.405 -1.10544 -3.22479 0
M  V30 5181 H 499.598 -2.32712 -1.8917 0
M  V30 5182 H 497.151 -1.23614 -0.956515 0
M  V30 5183 H 497.886 -0.136952 -3.24011 0
M  V30 5184 H 497.671 -1.90127 -3.4292 0
M  V30 5185 H 499.161 -1.11082 -4.02555 0
M  V30 5186 N 499.598 0.982988 -1.23187 0
M  V30 5187 C 500.846 1.72052 -1.06031 0
M  V30 5188 C 501.167 1.90769 0.404019 0
M  V30 5189 O 500.437 1.47446 1.28982 0
M  V30 5190 H 499.017 0.637499 -0.389363 0
M  V30 5191 H 501.679 1.18338 -1.54862 0
M  V30 5192 H 500.775 2.7111 -1.54615 0
M  V30 5193 N 501.076 1.04316 1.18135 0
M  V30 5194 C 502.009 0.580823 2.20685 0
M  V30 5195 C 502.987 -0.385943 1.57953 0
M  V30 5196 O 504.171 -0.299654 1.86103 0
M  V30 5197 C 501.298 -0.151162 3.38363 0
M  V30 5198 C 500.344 0.769247 4.19505 0
M  V30 5199 S 501.177 2.25352 4.85774 0
M  V30 5200 C 502.333 1.53246 6.0685 0
M  V30 5201 H 502.566 1.44968 2.5956 0
M  V30 5202 H 500.099 0.85434 1.28609 0
M  V30 5203 H 502.057 -0.567315 4.06561 0
M  V30 5204 H 500.718 -0.995936 2.97892 0
M  V30 5205 H 499.911 0.203335 5.0359 0
M  V30 5206 H 499.513 1.12436 3.56699 0
M  V30 5207 H 501.805 0.82689 6.72435 0
M  V30 5208 H 502.748 2.35044 6.67952 0
M  V30 5209 H 503.156 1.0237 5.5514 0
M  V30 5210 N 502.554 -1.34406 0.822964 0
M  V30 5211 C 503.801 -1.98284 0.411057 0
M  V30 5212 C 504.129 -1.65245 -1.02588 0
M  V30 5213 O 503.384 -0.91619 -1.72929 0
M  V30 5214 C 503.683 -3.52981 0.560268 0
M  V30 5215 C 503.349 -4.05931 1.96293 0
M  V30 5216 C 502.011 -4.20103 2.34664 0
M  V30 5217 C 504.363 -4.34412 2.87985 0
M  V30 5218 C 501.691 -4.60082 3.64062 0
M  V30 5219 C 504.043 -4.75838 4.16847 0
M  V30 5220 C 502.707 -4.88215 4.55195 0
M  V30 5221 H 501.977 -0.725573 0.150416 0
M  V30 5222 H 504.624 -1.60349 1.04692 0
M  V30 5223 H 502.929 -3.91477 -0.158982 0
M  V30 5224 H 504.626 -4.00385 0.222087 0
M  V30 5225 H 501.216 -3.95363 1.65487 0
M  V30 5226 H 505.4 -4.23001 2.59584 0
M  V30 5227 H 500.656 -4.67856 3.93599 0
M  V30 5228 H 504.83 -4.96834 4.87984 0
M  V30 5229 H 502.457 -5.18952 5.55512 0
M  V30 5230 N 504.032 -0.577932 -1.46621 0
M  V30 5231 C 505.448 -0.239242 -1.57797 0
M  V30 5232 C 505.648 1.25843 -1.57371 0
M  V30 5233 O 504.704 2.03988 -1.48813 0
M  V30 5234 C 506.017 -0.884227 -2.87405 0
M  V30 5235 C 507.565 -0.857373 -3.01028 0
M  V30 5236 C 508.04 -1.48181 -4.33366 0
M  V30 5237 N 509.531 -1.44593 -4.40053 0
M  V30 5238 C 510.266 -1.89852 -5.41058 0
M  V30 5239 N 509.762 -2.43062 -6.48762 0
M  V30 5240 N 511.555 -1.80797 -5.3223 0
M  V30 5241 H 503.706 -1.55073 -1.45142 0
M  V30 5242 H 505.969 -0.647903 -0.692044 0
M  V30 5243 H 505.675 -1.93759 -2.93514 0
M  V30 5244 H 505.549 -0.389585 -3.75183 0
M  V30 5245 H 507.936 0.187357 -2.94505 0
M  V30 5246 H 508.017 -1.38999 -2.14739 0
M  V30 5247 H 507.661 -2.52572 -4.40647 0
M  V30 5248 H 507.591 -0.924464 -5.18422 0
M  V30 5249 H 510.082 -1.05694 -3.62819 0
M  V30 5250 H 510.395 -2.75466 -7.22038 0
M  V30 5251 H 508.74 -2.47085 -6.49595 0
M  V30 5252 H 511.931 -1.38989 -4.46989 0
M  V30 5253 H 512.104 -2.16385 -6.10804 0
M  V30 5254 N 505.51 1.54411 -0.315457 0
M  V30 5255 C 506.42 2.27737 0.56329 0
M  V30 5256 C 507.436 1.31787 1.13614 0
M  V30 5257 O 508.612 1.64791 1.15784 0
M  V30 5258 C 505.677 3.01478 1.71207 0
M  V30 5259 C 504.738 4.12997 1.17185 0
M  V30 5260 C 503.971 4.83212 2.26588 0
M  V30 5261 O 504.194 4.52884 3.46775 0
M  V30 5262 O 503.128 5.70299 1.92463 0
M  V30 5263 H 506.954 3.03683 -0.0319614 0
M  V30 5264 H 504.539 1.49178 -0.0814188 0
M  V30 5265 H 506.421 3.47683 2.38106 0
M  V30 5266 H 505.096 2.28414 2.29366 0
M  V30 5267 H 504.003 3.71159 0.468174 0
M  V30 5268 H 505.336 4.8808 0.635501 0
M  V30 5269 N 506.988 0.0434614 1.5754 0
M  V30 5270 C 508.234 -0.632971 1.92669 0
M  V30 5271 C 508.567 -1.70947 0.921446 0
M  V30 5272 O 507.842 -1.94426 -0.0537202 0
M  V30 5273 C 508.125 -1.23619 3.38216 0
M  V30 5274 C 507.978 -0.168274 4.49485 0
M  V30 5275 C 509.297 -2.15008 3.84005 0
M  V30 5276 H 506.416 -0.228629 0.700641 0
M  V30 5277 H 509.058 0.103651 1.89717 0
M  V30 5278 H 507.208 -1.864 3.40863 0
M  V30 5279 H 508.88 0.463196 4.58969 0
M  V30 5280 H 507.123 0.504581 4.30855 0
M  V30 5281 H 507.794 -0.630218 5.48391 0
M  V30 5282 H 510.27 -1.62198 3.83185 0
M  V30 5283 H 509.146 -2.54161 4.86511 0
M  V30 5284 H 509.407 -3.04707 3.20322 0
M  V30 5285 N 508.466 -1.55915 -0.229846 0
M  V30 5286 C 509.396 -1.94754 -1.28815 0
M  V30 5287 C 510.377 -0.814657 -1.49323 0
M  V30 5288 O 511.562 -1.07631 -1.61645 0
M  V30 5289 C 508.692 -2.25705 -2.63959 0
M  V30 5290 C 507.646 -3.41406 -2.5812 0
M  V30 5291 C 506.972 -3.57941 -3.97218 0
M  V30 5292 C 508.272 -4.76616 -2.13623 0
M  V30 5293 H 509.966 -2.83404 -0.965547 0
M  V30 5294 H 507.512 -1.36353 -0.463028 0
M  V30 5295 H 509.465 -2.51467 -3.38146 0
M  V30 5296 H 508.189 -1.339 -2.9789 0
M  V30 5297 H 506.848 -3.1568 -1.86391 0
M  V30 5298 H 506.496 -2.63526 -4.28443 0
M  V30 5299 H 506.196 -4.35757 -3.94195 0
M  V30 5300 H 507.72 -3.86042 -4.73079 0
M  V30 5301 H 509.134 -5.01637 -2.77549 0
M  V30 5302 H 507.531 -5.57655 -2.21677 0
M  V30 5303 H 508.601 -4.7253 -1.08829 0
M  V30 5304 N 509.944 0.496216 -1.49584 0
M  V30 5305 C 510.854 1.62352 -1.69349 0
M  V30 5306 C 511.87 1.64184 -0.576147 0
M  V30 5307 O 513.046 1.82517 -0.85144 0
M  V30 5308 C 510.111 2.98698 -1.76013 0
M  V30 5309 C 509.172 3.07454 -2.99617 0
M  V30 5310 C 508.405 4.37296 -3.05953 0
M  V30 5311 O 508.628 5.2637 -2.19752 0
M  V30 5312 O 507.562 4.51124 -3.9846 0
M  V30 5313 H 511.388 1.48606 -2.64859 0
M  V30 5314 H 508.973 0.673022 -1.33382 0
M  V30 5315 H 510.855 3.79725 -1.82721 0
M  V30 5316 H 509.53 3.12696 -0.836828 0
M  V30 5317 H 508.437 2.25597 -2.98424 0
M  V30 5318 H 509.77 2.98385 -3.91443 0
M  V30 5319 N 511.423 1.38739 0.74761 0
M  V30 5320 C 512.333 1.38696 1.89211 0
M  V30 5321 C 513.349 0.283303 1.71678 0
M  V30 5322 O 514.525 0.522713 1.94498 0
M  V30 5323 C 511.59 1.21662 3.24653 0
M  V30 5324 C 510.651 2.41886 3.54669 0
M  V30 5325 C 509.884 2.25655 4.83648 0
M  V30 5326 O 510.107 1.25339 5.56459 0
M  V30 5327 O 509.041 3.14372 5.13277 0
M  V30 5328 H 512.867 2.35143 1.92202 0
M  V30 5329 H 510.452 1.19721 0.893708 0
M  V30 5330 H 512.334 1.14246 4.05618 0
M  V30 5331 H 511.009 0.283024 3.2246 0
M  V30 5332 H 509.916 2.54877 2.73841 0
M  V30 5333 H 511.249 3.33895 3.61628 0
M  V30 5334 N 512.901 -0.976442 1.23707 0
M  V30 5335 C 514.15 -1.71254 1.06559 0
M  V30 5336 C 514.463 -1.91528 -0.397024 0
M  V30 5337 O 515.669 -2.62625 -0.688518 0
M  V30 5338 C 514.125 -3.08207 1.8584 0
M  V30 5339 C 513.733 -2.95806 3.36456 0
M  V30 5340 C 515.477 -3.85749 1.77194 0
M  V30 5341 C 513.384 -4.28015 4.08114 0
M  V30 5342 H 512.314 -0.642171 0.395136 0
M  V30 5343 H 514.965 -1.08877 1.4771 0
M  V30 5344 H 513.347 -3.71363 1.37498 0
M  V30 5345 H 514.521 -2.41716 3.92314 0
M  V30 5346 H 512.836 -2.31736 3.45959 0
M  V30 5347 H 515.433 -4.83633 2.28041 0
M  V30 5348 H 515.776 -4.09752 0.735477 0
M  V30 5349 H 516.309 -3.29303 2.23169 0
M  V30 5350 H 513.048 -4.09208 5.12083 0
M  V30 5351 H 512.568 -4.81955 3.57043 0
M  V30 5352 H 514.247 -4.96681 4.14629 0
M  V30 5353 N 514.379 -1.04941 -1.1758 0
M  V30 5354 C 515.309 -0.669172 -2.23706 0
M  V30 5355 C 516.29 0.331835 -1.66832 0
M  V30 5356 O 517.475 0.209988 -1.93061 0
M  V30 5357 C 514.605 -0.0404889 -3.47276 0
M  V30 5358 C 513.559 -0.965983 -4.16957 0
M  V30 5359 C 512.885 -0.201312 -5.34321 0
M  V30 5360 C 514.185 -2.28902 -4.69469 0
M  V30 5361 H 515.879 -1.55639 -2.55767 0
M  V30 5362 H 513.425 -0.749793 -1.22939 0
M  V30 5363 H 515.378 0.237298 -4.20731 0
M  V30 5364 H 514.102 0.881658 -3.14475 0
M  V30 5365 H 512.761 -1.22829 -3.45411 0
M  V30 5366 H 512.409 0.723519 -4.97769 0
M  V30 5367 H 512.109 -0.817968 -5.81879 0
M  V30 5368 H 513.633 0.0692499 -6.10561 0
M  V30 5369 H 515.047 -2.07132 -5.34574 0
M  V30 5370 H 513.444 -2.85942 -5.27596 0
M  V30 5371 H 514.514 -2.92937 -3.86414 0
M  V30 5372 N 515.857 1.33968 -0.830081 0
M  V30 5373 C 517.268 1.80439 -0.479455 0
M  V30 5374 C 517.619 1.68756 1.00079 0
M  V30 5375 O 516.744 1.23171 1.77927 0
M  V30 5376 C 517.339 3.27611 -0.863505 0
M  V30 5377 C 515.898 3.72133 -0.565145 0
M  V30 5378 C 515.045 2.55549 -1.07657 0
M  V30 5379 H 517.996 1.21614 -1.0196 0
M  V30 5380 H 518.017 3.8012 -0.170083 0
M  V30 5381 H 517.529 3.36082 -1.94089 0
M  V30 5382 H 515.63 3.69196 0.502536 0
M  V30 5383 H 515.743 4.65963 -1.11422 0
M  V30 5384 H 514.107 2.49788 -0.497807 0
M  V30 5385 H 514.89 2.66786 -2.16055 0
M  V30 5386 N 517.335 0.585699 1.46312 0
M  V30 5387 C 518.298 -0.135673 2.28798 0
M  V30 5388 C 519.298 -0.815988 1.38558 0
M  V30 5389 O 520.488 -0.667487 1.60904 0
M  V30 5390 C 517.62 -1.20163 3.1902 0
M  V30 5391 H 518.813 0.589257 2.94054 0
M  V30 5392 H 516.366 0.343794 1.52472 0
M  V30 5393 H 517.101 -1.95804 2.58517 0
M  V30 5394 H 516.886 -0.718282 3.85465 0
M  V30 5395 H 518.376 -1.70749 3.81096 0
M  V30 5396 N 518.813 -1.54241 0.323641 0
M  V30 5397 C 520.038 -2.05452 -0.283605 0
M  V30 5398 C 520.463 -1.19823 -1.44997 0
M  V30 5399 O 519.821 -0.207358 -1.8011 0
M  V30 5400 C 519.869 -3.53823 -0.695795 0
M  V30 5401 O 518.973 -3.71134 -1.79815 0
M  V30 5402 H 518.314 -0.662024 -0.0511917 0
M  V30 5403 H 520.844 -1.99079 0.472073 0
M  V30 5404 H 520.854 -3.96094 -0.978434 0
M  V30 5405 H 519.529 -4.15602 0.157287 0
M  V30 5406 H 518.106 -3.40768 -1.51431 0
M  V30 5407 O 520.33 -0.191128 -1.60365 0
M  V30 5408 H 521.021 0.395023 -1.89629 0
M  V30 END ATOM
M  V30 BEGIN BOND
M  V30 END BOND
M  V30 END CTAB
M  END
$$$$
