drugbank_target|P83796 Cytochrome b6-f complex subunit 7 (DB04646; DB08453)
 OpenBabel12092120433D

555559  0  0  0  0  0  0  0  0999 V2000
   -0.9080    1.9825   -0.1171 H   0  0  0  0  0 15  0  0  0  0  0  0
    0.0000    1.5760    0.0000 N   0  0  0  0  0 15  0  0  0  0  0  0
    0.9330    2.0387    1.0253 C   0  0  0  0  0 15  0  0  0  0  0  0
    1.9110    0.9285    1.3348 C   0  0  0  0  0 15  0  0  0  0  0  0
    3.0950    1.1967    1.4564 O   0  0  0  0  0 15  0  0  0  0  0  0
    0.2220    2.4363    2.3529 C   0  0  0  0  0 15  0  0  0  0  0  0
   -0.7320    3.6537    2.2001 C   0  0  0  0  0 15  0  0  0  0  0  0
    0.1010    5.1329    1.5261 S   0  0  0  0  0 15  0  0  0  0  0  0
    1.2570    5.5632    2.8680 C   0  0  0  0  0 15  0  0  0  0  0  0
    1.4900    2.9052    0.6314 H   0  0  0  0  0 15  0  0  0  0  0  0
   -0.9770    1.5295    0.2109 H   0  0  0  0  0 15  0  0  0  0  0  0
    0.9810    2.6720    3.1163 H   0  0  0  0  0 15  0  0  0  0  0  0
   -0.3580    1.5738    2.7183 H   0  0  0  0  0 15  0  0  0  0  0  0
   -1.1650    3.9094    3.1809 H   0  0  0  0  0 15  0  0  0  0  0  0
   -1.5630    3.4180    1.5182 H   0  0  0  0  0 15  0  0  0  0  0  0
    0.7290    5.5878    3.8310 H   0  0  0  0  0 15  0  0  0  0  0  0
    1.6720    6.5627    2.6593 H   0  0  0  0  0 15  0  0  0  0  0  0
    2.0800    4.8389    2.9071 H   0  0  0  0  0 15  0  0  0  0  0  0
    1.4781   -0.2728    1.5522 N   0  0  0  0  0 15  0  0  0  0  0  0
    2.7061   -1.0226    1.7987 C   0  0  0  0  0 15  0  0  0  0  0  0
    3.1211   -1.7992    0.5721 C   0  0  0  0  0 15  0  0  0  0  0  0
    2.4781   -1.7664   -0.4588 O   0  0  0  0  0 15  0  0  0  0  0  0
    2.5291   -1.9809    3.0239 C   0  0  0  0  0 15  0  0  0  0  0  0
    2.2501   -1.2357    4.2031 O   0  0  0  0  0 15  0  0  0  0  0  0
    3.7511   -2.8488    3.3964 C   0  0  0  0  0 15  0  0  0  0  0  0
    0.9711   -0.3021    0.5992 H   0  0  0  0  0 15  0  0  0  0  0  0
    3.5151   -0.3035    2.0224 H   0  0  0  0  0 15  0  0  0  0  0  0
    1.6701   -2.6546    2.8215 H   0  0  0  0  0 15  0  0  0  0  0  0
    2.0841   -1.8817    4.8958 H   0  0  0  0  0 15  0  0  0  0  0  0
    3.5581   -3.4793    4.2854 H   0  0  0  0  0 15  0  0  0  0  0  0
    4.0351   -3.5466    2.5905 H   0  0  0  0  0 15  0  0  0  0  0  0
    4.6411   -2.2300    3.6215 H   0  0  0  0  0 15  0  0  0  0  0  0
    2.9562   -1.4816   -0.5373 N   0  0  0  0  0 15  0  0  0  0  0  0
    3.8662   -1.6481   -1.6696 C   0  0  0  0  0 15  0  0  0  0  0  0
    4.8822   -0.5307   -1.6571 C   0  0  0  0  0 15  0  0  0  0  0  0
    6.0582   -0.8008   -1.8480 O   0  0  0  0  0 15  0  0  0  0  0  0
    3.1232   -1.6771   -3.0344 C   0  0  0  0  0 15  0  0  0  0  0  0
    2.1842   -2.9102   -3.1560 C   0  0  0  0  0 15  0  0  0  0  0  0
    1.4172   -2.9378   -4.4557 C   0  0  0  0  0 15  0  0  0  0  0  0
    1.6402   -2.0515   -5.3223 O   0  0  0  0  0 15  0  0  0  0  0  0
    0.5742   -3.8587   -4.6194 O   0  0  0  0  0 15  0  0  0  0  0  0
    4.4002   -2.6066   -1.5585 H   0  0  0  0  0 15  0  0  0  0  0  0
    1.9852   -1.3148   -0.7095 H   0  0  0  0  0 15  0  0  0  0  0  0
    3.8672   -1.7218   -3.8462 H   0  0  0  0  0 15  0  0  0  0  0  0
    2.5422   -0.7503   -3.1488 H   0  0  0  0  0 15  0  0  0  0  0  0
    1.4492   -2.9209   -2.3374 H   0  0  0  0  0 15  0  0  0  0  0  0
    2.7822   -3.8307   -3.0907 H   0  0  0  0  0 15  0  0  0  0  0  0
    4.4343    0.7856   -1.3662 N   0  0  0  0  0 15  0  0  0  0  0  0
    5.3443    1.9296   -1.3342 C   0  0  0  0  0 15  0  0  0  0  0  0
    6.3603    1.7239   -0.2359 C   0  0  0  0  0 15  0  0  0  0  0  0
    7.5363    1.9587   -0.4689 O   0  0  0  0  0 15  0  0  0  0  0  0
    4.6013    3.2788   -1.1266 C   0  0  0  0  0 15  0  0  0  0  0  0
    3.6623    3.6120   -2.3201 C   0  0  0  0  0 15  0  0  0  0  0  0
    2.8953    4.8969   -2.1223 C   0  0  0  0  0 15  0  0  0  0  0  0
    3.1183    5.5970   -1.0995 O   0  0  0  0  0 15  0  0  0  0  0  0
    2.0523    5.2175   -3.0010 O   0  0  0  0  0 15  0  0  0  0  0  0
    5.8783    1.9861   -2.2975 H   0  0  0  0  0 15  0  0  0  0  0  0
    3.4633    0.9264   -1.1721 H   0  0  0  0  0 15  0  0  0  0  0  0
    5.3453    4.0861   -1.0302 H   0  0  0  0  0 15  0  0  0  0  0  0
    4.0203    3.2312   -0.1940 H   0  0  0  0  0 15  0  0  0  0  0  0
    2.9273    2.8077   -2.4723 H   0  0  0  0  0 15  0  0  0  0  0  0
    4.2603    3.7070   -3.2380 H   0  0  0  0  0 15  0  0  0  0  0  0
    5.9124    1.2097    1.0102 N   0  0  0  0  0 15  0  0  0  0  0  0
    6.8454    0.9076    2.0938 C   0  0  0  0  0 15  0  0  0  0  0  0
    7.8234   -0.1429    1.6197 C   0  0  0  0  0 15  0  0  0  0  0  0
    9.0074   -0.0150    1.8849 O   0  0  0  0  0 15  0  0  0  0  0  0
    6.1344    0.3618    3.3676 C   0  0  0  0  0 15  0  0  0  0  0  0
    5.1804    1.3942    4.0307 C   0  0  0  0  0 15  0  0  0  0  0  0
    6.0134    2.9616    4.4615 S   0  0  0  0  0 15  0  0  0  0  0  0
    7.1694    2.4317    5.7673 C   0  0  0  0  0 15  0  0  0  0  0  0
    7.4024    1.8252    2.3468 H   0  0  0  0  0 15  0  0  0  0  0  0
    4.9354    1.0388    1.1423 H   0  0  0  0  0 15  0  0  0  0  0  0
    6.8934    0.0535    4.1047 H   0  0  0  0  0 15  0  0  0  0  0  0
    5.5544   -0.5344    3.0952 H   0  0  0  0  0 15  0  0  0  0  0  0
    4.7474    0.9619    4.9474 H   0  0  0  0  0 15  0  0  0  0  0  0
    4.3494    1.6504    3.3562 H   0  0  0  0  0 15  0  0  0  0  0  0
    6.6414    1.8334    6.5222 H   0  0  0  0  0 15  0  0  0  0  0  0
    7.5844    3.3326    6.2477 H   0  0  0  0  0 15  0  0  0  0  0  0
    7.9924    1.8507    5.3330 H   0  0  0  0  0 15  0  0  0  0  0  0
    7.3905   -1.2043    1.0166 N   0  0  0  0  0 15  0  0  0  0  0  0
    8.3205   -2.2547    0.6072 C   0  0  0  0  0 15  0  0  0  0  0  0
    9.3015   -1.6585   -0.3777 C   0  0  0  0  0 15  0  0  0  0  0  0
   10.4865   -1.9241   -0.2631 O   0  0  0  0  0 15  0  0  0  0  0  0
    7.6165   -3.4726   -0.0553 C   0  0  0  0  0 15  0  0  0  0  0  0
    6.5705   -4.1946    0.8506 C   0  0  0  0  0 15  0  0  0  0  0  0
    5.8965   -5.3467    0.0539 C   0  0  0  0  0 15  0  0  0  0  0  0
    7.1965   -4.7560    2.1587 C   0  0  0  0  0 15  0  0  0  0  0  0
    8.8905   -2.5996    1.4853 H   0  0  0  0  0 15  0  0  0  0  0  0
    6.4365   -1.2496    0.7156 H   0  0  0  0  0 15  0  0  0  0  0  0
    8.3895   -4.1992   -0.3532 H   0  0  0  0  0 15  0  0  0  0  0  0
    7.1135   -3.1192   -0.9680 H   0  0  0  0  0 15  0  0  0  0  0  0
    5.7725   -3.4867    1.1326 H   0  0  0  0  0 15  0  0  0  0  0  0
    5.4205   -4.9558   -0.8605 H   0  0  0  0  0 15  0  0  0  0  0  0
    5.1205   -5.8391    0.6572 H   0  0  0  0  0 15  0  0  0  0  0  0
    6.6445   -6.1014   -0.2376 H   0  0  0  0  0 15  0  0  0  0  0  0
    8.0585   -5.4008    1.9231 H   0  0  0  0  0 15  0  0  0  0  0  0
    6.4555   -5.3528    2.7128 H   0  0  0  0  0 15  0  0  0  0  0  0
    7.5255   -3.9435    2.8217 H   0  0  0  0  0 15  0  0  0  0  0  0
    8.8686   -0.7928   -1.3621 N   0  0  0  0  0 15  0  0  0  0  0  0
   10.0986   -0.3783   -2.0311 C   0  0  0  0  0 15  0  0  0  0  0  0
   10.5066    1.0112   -1.5991 C   0  0  0  0  0 15  0  0  0  0  0  0
    9.8496    1.6605   -0.7857 O   0  0  0  0  0 15  0  0  0  0  0  0
    9.9116   -0.3665   -3.5763 C   0  0  0  0  0 15  0  0  0  0  0  0
    9.5756   -1.7042   -4.2404 C   0  0  0  0  0 15  0  0  0  0  0  0
   10.5726   -2.6602   -4.4669 C   0  0  0  0  0 15  0  0  0  0  0  0
    8.2576   -1.9844   -4.6144 C   0  0  0  0  0 15  0  0  0  0  0  0
   10.2516   -3.8784   -5.0582 C   0  0  0  0  0 15  0  0  0  0  0  0
    7.9386   -3.2053   -5.2029 C   0  0  0  0  0 15  0  0  0  0  0  0
    8.9366   -4.1504   -5.4243 C   0  0  0  0  0 15  0  0  0  0  0  0
    8.6246   -5.3498   -6.0004 O   0  0  0  0  0 15  0  0  0  0  0  0
    8.3566   -0.1535   -0.6583 H   0  0  0  0  0 15  0  0  0  0  0  0
   10.9106   -1.0738   -1.7509 H   0  0  0  0  0 15  0  0  0  0  0  0
    9.1406    0.3855   -3.8477 H   0  0  0  0  0 15  0  0  0  0  0  0
   10.8296    0.0238   -4.0589 H   0  0  0  0  0 15  0  0  0  0  0  0
   11.5956   -2.4566   -4.1818 H   0  0  0  0  0 15  0  0  0  0  0  0
    7.4746   -1.2569   -4.4354 H   0  0  0  0  0 15  0  0  0  0  0  0
   11.0186   -4.6163   -5.2302 H   0  0  0  0  0 15  0  0  0  0  0  0
    6.9156   -3.4076   -5.4822 H   0  0  0  0  0 15  0  0  0  0  0  0
    7.6836   -5.3609   -6.1851 H   0  0  0  0  0 15  0  0  0  0  0  0
   10.3467    1.4787   -0.5451 N   0  0  0  0  0 15  0  0  0  0  0  0
   11.3097    2.2834    0.1987 C   0  0  0  0  0 15  0  0  0  0  0  0
   12.3097    1.3625    0.8539 C   0  0  0  0  0 15  0  0  0  0  0  0
   13.4997    1.5900    0.7116 O   0  0  0  0  0 15  0  0  0  0  0  0
   10.6317    3.1558    1.2892 C   0  0  0  0  0 15  0  0  0  0  0  0
   11.8247    2.9557   -0.5079 H   0  0  0  0  0 15  0  0  0  0  0  0
    9.3777    1.5336   -0.3016 H   0  0  0  0  0 15  0  0  0  0  0  0
   10.1127    2.5302    2.0286 H   0  0  0  0  0 15  0  0  0  0  0  0
    9.8977    3.8334    0.8243 H   0  0  0  0  0 15  0  0  0  0  0  0
   11.3877    3.7624    1.8119 H   0  0  0  0  0 15  0  0  0  0  0  0
   11.8248    0.2810    1.5507 N   0  0  0  0  0 15  0  0  0  0  0  0
   12.7878   -0.5909    2.2145 C   0  0  0  0  0 15  0  0  0  0  0  0
   13.7878   -1.0768    1.1942 C   0  0  0  0  0 15  0  0  0  0  0  0
   14.9778   -0.9760    1.4429 O   0  0  0  0  0 15  0  0  0  0  0  0
   12.1098   -1.8159    2.8851 C   0  0  0  0  0 15  0  0  0  0  0  0
   13.3028   -0.0113    2.9990 H   0  0  0  0  0 15  0  0  0  0  0  0
   10.8558    0.0316    1.5627 H   0  0  0  0  0 15  0  0  0  0  0  0
   11.5908   -2.4359    2.1409 H   0  0  0  0  0 15  0  0  0  0  0  0
   11.3758   -1.4753    3.6329 H   0  0  0  0  0 15  0  0  0  0  0  0
   12.8658   -2.4358    3.3921 H   0  0  0  0  0 15  0  0  0  0  0  0
   13.3029   -1.5760    0.0084 N   0  0  0  0  0 15  0  0  0  0  0  0
   14.2329   -2.1198   -0.9791 C   0  0  0  0  0 15  0  0  0  0  0  0
   15.2139   -1.0309   -1.3530 C   0  0  0  0  0 15  0  0  0  0  0  0
   16.3989   -1.3082   -1.4353 O   0  0  0  0  0 15  0  0  0  0  0  0
   13.5289   -2.6299   -2.2683 C   0  0  0  0  0 15  0  0  0  0  0  0
   12.4829   -3.7648   -2.0358 C   0  0  0  0  0 15  0  0  0  0  0  0
   11.8089   -4.1385   -3.3858 C   0  0  0  0  0 15  0  0  0  0  0  0
   13.1089   -5.0342   -1.3916 C   0  0  0  0  0 15  0  0  0  0  0  0
   14.8029   -2.9474   -0.5263 H   0  0  0  0  0 15  0  0  0  0  0  0
   12.3489   -1.4178   -0.2517 H   0  0  0  0  0 15  0  0  0  0  0  0
   14.3019   -2.9967   -2.9627 H   0  0  0  0  0 15  0  0  0  0  0  0
   13.0259   -1.7737   -2.7424 H   0  0  0  0  0 15  0  0  0  0  0  0
   11.6849   -3.4022   -1.3656 H   0  0  0  0  0 15  0  0  0  0  0  0
   11.3329   -3.2523   -3.8371 H   0  0  0  0  0 15  0  0  0  0  0  0
   11.0329   -4.9031   -3.2383 H   0  0  0  0  0 15  0  0  0  0  0  0
   12.5569   -4.5309   -4.0932 H   0  0  0  0  0 15  0  0  0  0  0  0
   13.9709   -5.3781   -1.9857 H   0  0  0  0  0 15  0  0  0  0  0  0
   12.3679   -5.8475   -1.3488 H   0  0  0  0  0 15  0  0  0  0  0  0
   13.4379   -4.8355   -0.3619 H   0  0  0  0  0 15  0  0  0  0  0  0
   14.7810    0.2645   -1.5536 N   0  0  0  0  0 15  0  0  0  0  0  0
   15.7110    1.3312   -1.9184 C   0  0  0  0  0 15  0  0  0  0  0  0
   16.6920    1.5110   -0.7812 C   0  0  0  0  0 15  0  0  0  0  0  0
   17.8770    1.6400   -1.0400 O   0  0  0  0  0 15  0  0  0  0  0  0
   15.0070    2.6892   -2.1977 C   0  0  0  0  0 15  0  0  0  0  0  0
   13.9610    2.6566   -3.3557 C   0  0  0  0  0 15  0  0  0  0  0  0
   13.2870    4.0509   -3.4900 C   0  0  0  0  0 15  0  0  0  0  0  0
   14.5870    2.2419   -4.7174 C   0  0  0  0  0 15  0  0  0  0  0  0
   16.2810    1.0284   -2.8118 H   0  0  0  0  0 15  0  0  0  0  0  0
   13.8270    0.4933   -1.3529 H   0  0  0  0  0 15  0  0  0  0  0  0
   15.7800    3.4366   -2.4387 H   0  0  0  0  0 15  0  0  0  0  0  0
   14.5040    3.0080   -1.2723 H   0  0  0  0  0 15  0  0  0  0  0  0
   13.1630    1.9338   -3.1145 H   0  0  0  0  0 15  0  0  0  0  0  0
   12.8110    4.3421   -2.5392 H   0  0  0  0  0 15  0  0  0  0  0  0
   12.5110    4.0380   -4.2687 H   0  0  0  0  0 15  0  0  0  0  0  0
   14.0350    4.8156   -3.7541 H   0  0  0  0  0 15  0  0  0  0  0  0
   15.4490    2.8865   -4.9533 H   0  0  0  0  0 15  0  0  0  0  0  0
   13.8460    2.3404   -5.5258 H   0  0  0  0  0 15  0  0  0  0  0  0
   14.9160    1.1933   -4.6999 H   0  0  0  0  0 15  0  0  0  0  0  0
   16.2591    1.4844    0.5294 N   0  0  0  0  0 15  0  0  0  0  0  0
   17.4841    1.6041    1.3147 C   0  0  0  0  0 15  0  0  0  0  0  0
   17.9091    0.2647    1.8623 C   0  0  0  0  0 15  0  0  0  0  0  0
   17.2671   -0.7637    1.6443 O   0  0  0  0  0 15  0  0  0  0  0  0
   17.3151    2.6542    2.4410 C   0  0  0  0  0 15  0  0  0  0  0  0
   16.4191    2.2262    3.4715 O   0  0  0  0  0 15  0  0  0  0  0  0
   15.7601    0.5379    0.3894 H   0  0  0  0  0 15  0  0  0  0  0  0
   18.2901    1.9443    0.6370 H   0  0  0  0  0 15  0  0  0  0  0  0
   18.3001    2.8671    2.9028 H   0  0  0  0  0 15  0  0  0  0  0  0
   16.9751    3.6265    2.0361 H   0  0  0  0  0 15  0  0  0  0  0  0
   15.5521    2.1154    3.0709 H   0  0  0  0  0 15  0  0  0  0  0  0
   17.7372   -0.7783    1.3704 N   0  0  0  0  0 15  0  0  0  0  0  0
   18.9842   -1.5366    1.3188 C   0  0  0  0  0 15  0  0  0  0  0  0
   19.3122   -1.9425   -0.0986 C   0  0  0  0  0 15  0  0  0  0  0  0
   18.5672   -1.6383   -1.0704 O   0  0  0  0  0 15  0  0  0  0  0  0
   18.8662   -2.8185    2.1977 C   0  0  0  0  0 15  0  0  0  0  0  0
   18.5322   -2.6034    3.6815 C   0  0  0  0  0 15  0  0  0  0  0  0
   17.1942   -2.5419    4.0858 C   0  0  0  0  0 15  0  0  0  0  0  0
   19.5462   -2.4092    4.6217 C   0  0  0  0  0 15  0  0  0  0  0  0
   16.8742   -2.2659    5.4118 C   0  0  0  0  0 15  0  0  0  0  0  0
   19.2262   -2.1485    5.9500 C   0  0  0  0  0 15  0  0  0  0  0  0
   17.8902   -2.0714    6.3455 C   0  0  0  0  0 15  0  0  0  0  0  0
   17.1602   -0.5623    0.4826 H   0  0  0  0  0 15  0  0  0  0  0  0
   19.8072   -0.8971    1.6919 H   0  0  0  0  0 15  0  0  0  0  0  0
   18.1122   -3.5033    1.7544 H   0  0  0  0  0 15  0  0  0  0  0  0
   19.8092   -3.3969    2.1310 H   0  0  0  0  0 15  0  0  0  0  0  0
   16.3992   -2.6600    3.3607 H   0  0  0  0  0 15  0  0  0  0  0  0
   20.5832   -2.4467    4.3180 H   0  0  0  0  0 15  0  0  0  0  0  0
   15.8392   -2.1911    5.7079 H   0  0  0  0  0 15  0  0  0  0  0  0
   20.0132   -1.9882    6.6742 H   0  0  0  0  0 15  0  0  0  0  0  0
   17.6402   -1.8552    7.3722 H   0  0  0  0  0 15  0  0  0  0  0  0
   19.2153   -1.2150   -1.0038 N   0  0  0  0  0 15  0  0  0  0  0  0
   20.4633   -1.0310   -1.7383 C   0  0  0  0  0 15  0  0  0  0  0  0
   20.7843    0.4363   -1.9006 C   0  0  0  0  0 15  0  0  0  0  0  0
   20.0543    1.3147   -1.4524 O   0  0  0  0  0 15  0  0  0  0  0  0
   18.6343   -0.3785   -0.6440 H   0  0  0  0  0 15  0  0  0  0  0  0
   21.2963   -1.5283   -1.2095 H   0  0  0  0  0 15  0  0  0  0  0  0
   20.3923   -1.4999   -2.7370 H   0  0  0  0  0 15  0  0  0  0  0  0
   20.6934    1.1989   -1.0230 N   0  0  0  0  0 15  0  0  0  0  0  0
   21.6234    2.2514   -0.6192 C   0  0  0  0  0 15  0  0  0  0  0  0
   22.6044    1.6605    0.3689 C   0  0  0  0  0 15  0  0  0  0  0  0
   23.7894    1.9255    0.2529 O   0  0  0  0  0 15  0  0  0  0  0  0
   20.9194    3.4728    0.0369 C   0  0  0  0  0 15  0  0  0  0  0  0
   19.8734    4.1900   -0.8729 C   0  0  0  0  0 15  0  0  0  0  0  0
   19.1994    5.3464   -0.0822 C   0  0  0  0  0 15  0  0  0  0  0  0
   20.4994    4.7445   -2.1839 C   0  0  0  0  0 15  0  0  0  0  0  0
   22.1934    2.5917   -1.4990 H   0  0  0  0  0 15  0  0  0  0  0  0
   19.7394    1.2458   -0.7222 H   0  0  0  0  0 15  0  0  0  0  0  0
   21.6924    4.2010    0.3310 H   0  0  0  0  0 15  0  0  0  0  0  0
   20.4164    3.1243    0.9515 H   0  0  0  0  0 15  0  0  0  0  0  0
   19.0754    3.4806   -1.1510 H   0  0  0  0  0 15  0  0  0  0  0  0
   18.7234    4.9603    0.8342 H   0  0  0  0  0 15  0  0  0  0  0  0
   18.4234    5.8356   -0.6881 H   0  0  0  0  0 15  0  0  0  0  0  0
   19.9474    6.1025    0.2052 H   0  0  0  0  0 15  0  0  0  0  0  0
   21.3614    5.3906   -1.9517 H   0  0  0  0  0 15  0  0  0  0  0  0
   19.7584    5.3383   -2.7412 H   0  0  0  0  0 15  0  0  0  0  0  0
   20.8284    3.9284   -2.8426 H   0  0  0  0  0 15  0  0  0  0  0  0
   22.1715    0.8000    1.3578 N   0  0  0  0  0 15  0  0  0  0  0  0
   23.4205    0.3739    1.9820 C   0  0  0  0  0 15  0  0  0  0  0  0
   23.7335   -1.0630    1.6419 C   0  0  0  0  0 15  0  0  0  0  0  0
   24.9395   -1.5920    2.1993 O   0  0  0  0  0 15  0  0  0  0  0  0
   23.3955    0.6175    3.5456 C   0  0  0  0  0 15  0  0  0  0  0  0
   23.0035    2.0665    3.9749 C   0  0  0  0  0 15  0  0  0  0  0  0
   24.7475    0.2564    4.2372 C   0  0  0  0  0 15  0  0  0  0  0  0
   22.6545    2.2563    5.4667 C   0  0  0  0  0 15  0  0  0  0  0  0
   21.5845    0.1361    0.7416 H   0  0  0  0  0 15  0  0  0  0  0  0
   24.2355    0.9832    1.5494 H   0  0  0  0  0 15  0  0  0  0  0  0
   22.6175   -0.0616    3.9595 H   0  0  0  0  0 15  0  0  0  0  0  0
   23.7915    2.7830    3.6727 H   0  0  0  0  0 15  0  0  0  0  0  0
   22.1065    2.3869    3.4120 H   0  0  0  0  0 15  0  0  0  0  0  0
   24.7035    0.3763    5.3337 H   0  0  0  0  0 15  0  0  0  0  0  0
   25.0465   -0.7967    4.0861 H   0  0  0  0  0 15  0  0  0  0  0  0
   25.5795    0.8892    3.8773 H   0  0  0  0  0 15  0  0  0  0  0  0
   22.3185    3.2936    5.6675 H   0  0  0  0  0 15  0  0  0  0  0  0
   21.8385    1.5850    5.7848 H   0  0  0  0  0 15  0  0  0  0  0  0
   23.5175    2.0686    6.1304 H   0  0  0  0  0 15  0  0  0  0  0  0
   23.6496   -1.4758    0.5530 N   0  0  0  0  0 15  0  0  0  0  0  0
   24.8966   -2.0248    0.0273 C   0  0  0  0  0 15  0  0  0  0  0  0
   25.2246   -1.4278   -1.3208 C   0  0  0  0  0 15  0  0  0  0  0  0
   24.4796   -0.5714   -1.8717 O   0  0  0  0  0 15  0  0  0  0  0  0
   24.7786   -3.5720   -0.1197 C   0  0  0  0  0 15  0  0  0  0  0  0
   24.4446   -4.3580    1.1570 C   0  0  0  0  0 15  0  0  0  0  0  0
   23.1066   -4.5700    1.5068 C   0  0  0  0  0 15  0  0  0  0  0  0
   25.4586   -4.8117    2.0032 C   0  0  0  0  0 15  0  0  0  0  0  0
   22.7866   -5.2081    2.7014 C   0  0  0  0  0 15  0  0  0  0  0  0
   25.1386   -5.4629    3.1898 C   0  0  0  0  0 15  0  0  0  0  0  0
   23.8026   -5.6572    3.5428 C   0  0  0  0  0 15  0  0  0  0  0  0
   23.0726   -0.7409    0.0100 H   0  0  0  0  0 15  0  0  0  0  0  0
   25.7196   -1.7730    0.7236 H   0  0  0  0  0 15  0  0  0  0  0  0
   24.0246   -3.8135   -0.8990 H   0  0  0  0  0 15  0  0  0  0  0  0
   25.7216   -3.9732   -0.5417 H   0  0  0  0  0 15  0  0  0  0  0  0
   22.3116   -4.1958    0.8746 H   0  0  0  0  0 15  0  0  0  0  0  0
   26.4956   -4.6457    1.7460 H   0  0  0  0  0 15  0  0  0  0  0  0
   21.7516   -5.3404    2.9767 H   0  0  0  0  0 15  0  0  0  0  0  0
   25.9256   -5.8041    3.8484 H   0  0  0  0  0 15  0  0  0  0  0  0
   23.5526   -6.1494    4.4694 H   0  0  0  0  0 15  0  0  0  0  0  0
   25.1277   -0.2892   -1.5492 N   0  0  0  0  0 15  0  0  0  0  0  0
   26.3737    0.3240   -2.0020 C   0  0  0  0  0 15  0  0  0  0  0  0
   26.7067    1.5444   -1.1774 C   0  0  0  0  0 15  0  0  0  0  0  0
   25.9817    1.9288   -0.2509 O   0  0  0  0  0 15  0  0  0  0  0  0
   26.2647    0.6923   -3.5338 C   0  0  0  0  0 15  0  0  0  0  0  0
   26.1177   -0.5365   -4.4659 C   0  0  0  0  0 15  0  0  0  0  0  0
   27.4367    1.5233   -4.1289 C   0  0  0  0  0 15  0  0  0  0  0  0
   24.5557    0.1163   -0.7278 H   0  0  0  0  0 15  0  0  0  0  0  0
   27.1977   -0.3990   -1.8576 H   0  0  0  0  0 15  0  0  0  0  0  0
   25.3477    1.3082   -3.6581 H   0  0  0  0  0 15  0  0  0  0  0  0
   27.0197   -1.1750   -4.4608 H   0  0  0  0  0 15  0  0  0  0  0  0
   25.2627   -1.1719   -4.1767 H   0  0  0  0  0 15  0  0  0  0  0  0
   25.9337   -0.2348   -5.5150 H   0  0  0  0  0 15  0  0  0  0  0  0
   28.4097    1.0030   -4.0383 H   0  0  0  0  0 15  0  0  0  0  0  0
   27.2857    1.7498   -5.2026 H   0  0  0  0  0 15  0  0  0  0  0  0
   27.5467    2.5089   -3.6402 H   0  0  0  0  0 15  0  0  0  0  0  0
   26.6058    1.5759   -0.0167 N   0  0  0  0  0 15  0  0  0  0  0  0
   27.8538    1.9091    0.6633 C   0  0  0  0  0 15  0  0  0  0  0  0
   28.1748    0.8925    1.7338 C   0  0  0  0  0 15  0  0  0  0  0  0
   27.4448   -0.0678    1.9578 O   0  0  0  0  0 15  0  0  0  0  0  0
   26.0248    0.7046    0.2480 H   0  0  0  0  0 15  0  0  0  0  0  0
   28.6868    1.9480   -0.0616 H   0  0  0  0  0 15  0  0  0  0  0  0
   27.7828    2.9116    1.1239 H   0  0  0  0  0 15  0  0  0  0  0  0
   28.0839   -0.2563    1.5550 N   0  0  0  0  0 15  0  0  0  0  0  0
   29.3299   -0.9829    1.7808 C   0  0  0  0  0 15  0  0  0  0  0  0
   29.6849   -1.8332    0.5841 C   0  0  0  0  0 15  0  0  0  0  0  0
   28.9779   -1.8688   -0.4229 O   0  0  0  0  0 15  0  0  0  0  0  0
   29.1719   -1.8843    3.0369 C   0  0  0  0  0 15  0  0  0  0  0  0
   29.0009   -1.1228    4.3546 C   0  0  0  0  0 15  0  0  0  0  0  0
   27.7709   -0.8316    4.9841 C   0  0  0  0  0 15  0  0  0  0  0  0
   29.9689   -0.5049    5.1182 C   0  0  0  0  0 15  0  0  0  0  0  0
   27.9509   -0.0450    6.1388 N   0  0  0  0  0 15  0  0  0  0  0  0
   29.3219    0.1467    6.1983 C   0  0  0  0  0 15  0  0  0  0  0  0
   31.3769   -0.4145    4.9617 C   0  0  0  0  0 15  0  0  0  0  0  0
   30.0799    0.8801    7.1390 C   0  0  0  0  0 15  0  0  0  0  0  0
   32.1059    0.3054    5.9061 C   0  0  0  0  0 15  0  0  0  0  0  0
   31.4679    0.9457    6.9802 C   0  0  0  0  0 15  0  0  0  0  0  0
   27.5669   -0.3411    0.7037 H   0  0  0  0  0 15  0  0  0  0  0  0
   30.1509   -0.2569    1.9300 H   0  0  0  0  0 15  0  0  0  0  0  0
   28.3219   -2.5824    2.9011 H   0  0  0  0  0 15  0  0  0  0  0  0
   30.0539   -2.5458    3.1460 H   0  0  0  0  0 15  0  0  0  0  0  0
   26.8089   -1.1411    4.5965 H   0  0  0  0  0 15  0  0  0  0  0  0
   27.2329    0.3361    6.7617 H   0  0  0  0  0 15  0  0  0  0  0  0
   31.8749   -0.8952    4.1322 H   0  0  0  0  0 15  0  0  0  0  0  0
   29.5929    1.3724    7.9636 H   0  0  0  0  0 15  0  0  0  0  0  0
   33.1789    0.3759    5.8058 H   0  0  0  0  0 15  0  0  0  0  0  0
   32.0589    1.4938    7.6984 H   0  0  0  0  0 15  0  0  0  0  0  0
   29.5620   -1.4872   -0.5215 N   0  0  0  0  0 15  0  0  0  0  0  0
   30.8100   -1.5686   -1.2744 C   0  0  0  0  0 15  0  0  0  0  0  0
   31.1310   -0.2480   -1.9342 C   0  0  0  0  0 15  0  0  0  0  0  0
   30.4010    0.7312   -1.8174 O   0  0  0  0  0 15  0  0  0  0  0  0
   28.9810   -0.5779   -0.4733 H   0  0  0  0  0 15  0  0  0  0  0  0
   31.6430   -1.8523   -0.6062 H   0  0  0  0  0 15  0  0  0  0  0  0
   30.7390   -2.3540   -2.0492 H   0  0  0  0  0 15  0  0  0  0  0  0
   31.0401    0.7711   -1.3745 N   0  0  0  0  0 15  0  0  0  0  0  0
   31.9701    1.8983   -1.3597 C   0  0  0  0  0 15  0  0  0  0  0  0
   32.9511    1.6856   -0.2282 C   0  0  0  0  0 15  0  0  0  0  0  0
   34.1361    1.8941   -0.4287 O   0  0  0  0  0 15  0  0  0  0  0  0
   31.2661    3.2712   -1.1666 C   0  0  0  0  0 15  0  0  0  0  0  0
   30.2201    3.6295   -2.2683 C   0  0  0  0  0 15  0  0  0  0  0  0
   29.5461    4.9879   -1.9264 C   0  0  0  0  0 15  0  0  0  0  0  0
   30.8461    3.6963   -3.6902 C   0  0  0  0  0 15  0  0  0  0  0  0
   32.5401    1.9132   -2.3030 H   0  0  0  0  0 15  0  0  0  0  0  0
   30.0861    0.9191   -1.1086 H   0  0  0  0  0 15  0  0  0  0  0  0
   32.0391    4.0561   -1.1426 H   0  0  0  0  0 15  0  0  0  0  0  0
   30.7631    3.2606   -0.1879 H   0  0  0  0  0 15  0  0  0  0  0  0
   29.4221    2.8676   -2.2839 H   0  0  0  0  0 15  0  0  0  0  0  0
   29.0701    4.9427   -0.9330 H   0  0  0  0  0 15  0  0  0  0  0  0
   28.7701    5.2373   -2.6642 H   0  0  0  0  0 15  0  0  0  0  0  0
   30.2941    5.7969   -1.9183 H   0  0  0  0  0 15  0  0  0  0  0  0
   31.7081    4.3827   -3.6958 H   0  0  0  0  0 15  0  0  0  0  0  0
   30.1051    4.0607   -4.4185 H   0  0  0  0  0 15  0  0  0  0  0  0
   31.1751    2.7027   -4.0259 H   0  0  0  0  0 15  0  0  0  0  0  0
   32.5182    1.2203    0.9973 N   0  0  0  0  0 15  0  0  0  0  0  0
   33.7662    1.0402    1.7328 C   0  0  0  0  0 15  0  0  0  0  0  0
   34.0872   -0.4263    1.9028 C   0  0  0  0  0 15  0  0  0  0  0  0
   33.3572   -1.3069    1.4593 O   0  0  0  0  0 15  0  0  0  0  0  0
   31.9372    0.3819    0.6420 H   0  0  0  0  0 15  0  0  0  0  0  0
   34.5992    1.5347    1.2014 H   0  0  0  0  0 15  0  0  0  0  0  0
   33.6952    1.5144    2.7290 H   0  0  0  0  0 15  0  0  0  0  0  0
   33.9963   -1.1934    1.0293 N   0  0  0  0  0 15  0  0  0  0  0  0
   35.2423   -1.8932    0.7271 C   0  0  0  0  0 15  0  0  0  0  0  0
   35.5753   -1.7945   -0.7425 C   0  0  0  0  0 15  0  0  0  0  0  0
   34.8503   -1.1871   -1.5407 O   0  0  0  0  0 15  0  0  0  0  0  0
   35.1333   -3.4024    1.1794 C   0  0  0  0  0 15  0  0  0  0  0  0
   34.9863   -3.5898    2.7102 C   0  0  0  0  0 15  0  0  0  0  0  0
   36.3053   -4.3348    0.7605 C   0  0  0  0  0 15  0  0  0  0  0  0
   33.4243   -0.6875    0.2656 H   0  0  0  0  0 15  0  0  0  0  0  0
   36.0663   -1.4048    1.2793 H   0  0  0  0  0 15  0  0  0  0  0  0
   34.2163   -3.8196    0.7096 H   0  0  0  0  0 15  0  0  0  0  0  0
   35.8883   -3.2642    3.2596 H   0  0  0  0  0 15  0  0  0  0  0  0
   34.1313   -3.0202    3.1140 H   0  0  0  0  0 15  0  0  0  0  0  0
   34.8023   -4.6482    2.9773 H   0  0  0  0  0 15  0  0  0  0  0  0
   37.2783   -3.9947    1.1646 H   0  0  0  0  0 15  0  0  0  0  0  0
   36.1543   -5.3766    1.1049 H   0  0  0  0  0 15  0  0  0  0  0  0
   36.4153   -4.4081   -0.3371 H   0  0  0  0  0 15  0  0  0  0  0  0
   35.4744   -0.8072   -1.3536 N   0  0  0  0  0 15  0  0  0  0  0  0
   36.4044   -0.2325   -2.3234 C   0  0  0  0  0 15  0  0  0  0  0  0
   37.3854    0.6424   -1.5750 C   0  0  0  0  0 15  0  0  0  0  0  0
   38.5704    0.5725   -1.8557 O   0  0  0  0  0 15  0  0  0  0  0  0
   35.7004    0.6192   -3.4173 C   0  0  0  0  0 15  0  0  0  0  0  0
   34.6544   -0.1572   -4.2771 C   0  0  0  0  0 15  0  0  0  0  0  0
   33.9804    0.8163   -5.2843 C   0  0  0  0  0 15  0  0  0  0  0  0
   35.2804   -1.3566   -5.0438 C   0  0  0  0  0 15  0  0  0  0  0  0
   36.9744   -1.0428   -2.8065 H   0  0  0  0  0 15  0  0  0  0  0  0
   34.5204   -0.5029   -1.3493 H   0  0  0  0  0 15  0  0  0  0  0  0
   36.4734    1.0314   -4.0858 H   0  0  0  0  0 15  0  0  0  0  0  0
   35.1974    1.4624   -2.9203 H   0  0  0  0  0 15  0  0  0  0  0  0
   33.8564   -0.5505   -3.6244 H   0  0  0  0  0 15  0  0  0  0  0  0
   33.5044    1.6549   -4.7500 H   0  0  0  0  0 15  0  0  0  0  0  0
   33.2044    0.3011   -5.8683 H   0  0  0  0  0 15  0  0  0  0  0  0
   34.7284    1.2266   -5.9815 H   0  0  0  0  0 15  0  0  0  0  0  0
   36.1424   -1.0193   -5.6417 H   0  0  0  0  0 15  0  0  0  0  0  0
   34.5394   -1.8063   -5.7227 H   0  0  0  0  0 15  0  0  0  0  0  0
   35.6094   -2.1429   -4.3498 H   0  0  0  0  0 15  0  0  0  0  0  0
   36.9525    1.4729   -0.5608 N   0  0  0  0  0 15  0  0  0  0  0  0
   37.8825    2.3286    0.1731 C   0  0  0  0  0 15  0  0  0  0  0  0
   38.8635    1.4401    0.9053 C   0  0  0  0  0 15  0  0  0  0  0  0
   40.0485    1.7286    0.8850 O   0  0  0  0  0 15  0  0  0  0  0  0
   37.1785    3.2586    1.2013 C   0  0  0  0  0 15  0  0  0  0  0  0
   36.1325    4.2398    0.5854 C   0  0  0  0  0 15  0  0  0  0  0  0
   35.4585    5.0633    1.7185 C   0  0  0  0  0 15  0  0  0  0  0  0
   36.7585    5.2024   -0.4632 C   0  0  0  0  0 15  0  0  0  0  0  0
   38.4525    2.9447   -0.5413 H   0  0  0  0  0 15  0  0  0  0  0  0
   35.9985    1.4160   -0.2618 H   0  0  0  0  0 15  0  0  0  0  0  0
   37.9515    3.8457    1.7229 H   0  0  0  0  0 15  0  0  0  0  0  0
   36.6755    2.6231    1.9457 H   0  0  0  0  0 15  0  0  0  0  0  0
   35.3345    3.6650    0.0851 H   0  0  0  0  0 15  0  0  0  0  0  0
   34.9825    4.3919    2.4520 H   0  0  0  0  0 15  0  0  0  0  0  0
   34.6825    5.7276    1.3121 H   0  0  0  0  0 15  0  0  0  0  0  0
   36.2065    5.6790    2.2433 H   0  0  0  0  0 15  0  0  0  0  0  0
   37.6205    5.7329   -0.0275 H   0  0  0  0  0 15  0  0  0  0  0  0
   36.0175    5.9490   -0.7886 H   0  0  0  0  0 15  0  0  0  0  0  0
   37.0875    4.6550   -1.3577 H   0  0  0  0  0 15  0  0  0  0  0  0
   38.4306    0.2974    1.5477 N   0  0  0  0  0 15  0  0  0  0  0  0
   39.3606   -0.5735    2.2635 C   0  0  0  0  0 15  0  0  0  0  0  0
   40.3416   -1.1409    1.2617 C   0  0  0  0  0 15  0  0  0  0  0  0
   41.5266   -1.1709    1.5493 O   0  0  0  0  0 15  0  0  0  0  0  0
   38.6566   -1.7472    3.0015 C   0  0  0  0  0 15  0  0  0  0  0  0
   37.6106   -1.3103    4.0745 C   0  0  0  0  0 15  0  0  0  0  0  0
   36.9366   -2.5689    4.6895 C   0  0  0  0  0 15  0  0  0  0  0  0
   38.2366   -0.4442    5.2041 C   0  0  0  0  0 15  0  0  0  0  0  0
   39.9306    0.0235    2.9939 H   0  0  0  0  0 15  0  0  0  0  0  0
   37.4766    0.0127    1.4399 H   0  0  0  0  0 15  0  0  0  0  0  0
   39.4296   -2.3625    3.4895 H   0  0  0  0  0 15  0  0  0  0  0  0
   38.1536   -2.3704    2.2468 H   0  0  0  0  0 15  0  0  0  0  0  0
   36.8126   -0.7181    3.5950 H   0  0  0  0  0 15  0  0  0  0  0  0
   36.4606   -3.1751    3.9012 H   0  0  0  0  0 15  0  0  0  0  0  0
   36.1606   -2.2836    5.4141 H   0  0  0  0  0 15  0  0  0  0  0  0
   37.6846   -3.1923    5.2050 H   0  0  0  0  0 15  0  0  0  0  0  0
   39.0986   -0.9651    5.6512 H   0  0  0  0  0 15  0  0  0  0  0  0
   37.4956   -0.2528    5.9957 H   0  0  0  0  0 15  0  0  0  0  0  0
   38.5656    0.5316    4.8198 H   0  0  0  0  0 15  0  0  0  0  0  0
   39.9087   -1.5758    0.0251 N   0  0  0  0  0 15  0  0  0  0  0  0
   40.8557   -2.0997   -0.9581 C   0  0  0  0  0 15  0  0  0  0  0  0
   41.8257   -1.0009   -1.3256 C   0  0  0  0  0 15  0  0  0  0  0  0
   43.0107   -1.2748   -1.4196 O   0  0  0  0  0 15  0  0  0  0  0  0
   40.1507   -2.6281   -2.2366 C   0  0  0  0  0 15  0  0  0  0  0  0
   39.2637   -3.8669   -1.9259 C   0  0  0  0  0 15  0  0  0  0  0  0
   38.3987   -4.2794   -3.1471 C   0  0  0  0  0 15  0  0  0  0  0  0
   37.4377   -5.4459   -2.7944 C   0  0  0  0  0 15  0  0  0  0  0  0
   36.5747   -5.8101   -3.9417 N   0  0  0  0  0 15  0  0  0  0  0  0
   41.4147   -2.9370   -0.5044 H   0  0  0  0  0 15  0  0  0  0  0  0
   38.9517   -1.4517   -0.2374 H   0  0  0  0  0 15  0  0  0  0  0  0
   40.9097   -2.9154   -2.9843 H   0  0  0  0  0 15  0  0  0  0  0  0
   39.5397   -1.8192   -2.6665 H   0  0  0  0  0 15  0  0  0  0  0  0
   38.5917   -3.6472   -1.0808 H   0  0  0  0  0 15  0  0  0  0  0  0
   39.9037   -4.7155   -1.6262 H   0  0  0  0  0 15  0  0  0  0  0  0
   39.0577   -4.5808   -3.9780 H   0  0  0  0  0 15  0  0  0  0  0  0
   37.7967   -3.4185   -3.4784 H   0  0  0  0  0 15  0  0  0  0  0  0
   36.8017   -5.1415   -1.9476 H   0  0  0  0  0 15  0  0  0  0  0  0
   38.0267   -6.3238   -2.4753 H   0  0  0  0  0 15  0  0  0  0  0  0
   35.9727   -4.9787   -4.2715 H   0  0  0  0  0 15  0  0  0  0  0  0
   35.8897   -6.6050   -3.6780 H   0  0  0  0  0 15  0  0  0  0  0  0
   37.1577   -6.1576   -4.7798 H   0  0  0  0  0 15  0  0  0  0  0  0
   41.3868    0.2480   -1.5564 N   0  0  0  0  0 15  0  0  0  0  0  0
   42.6358    0.9741   -1.7662 C   0  0  0  0  0 15  0  0  0  0  0  0
   42.9488    1.8653   -0.5888 C   0  0  0  0  0 15  0  0  0  0  0  0
   44.1548    2.6281   -0.6816 O   0  0  0  0  0 15  0  0  0  0  0  0
   42.6108    1.7821   -3.1268 C   0  0  0  0  0 15  0  0  0  0  0  0
   42.2188    0.9384   -4.3806 C   0  0  0  0  0 15  0  0  0  0  0  0
   43.9628    2.5010   -3.4300 C   0  0  0  0  0 15  0  0  0  0  0  0
   41.8698    1.7422   -5.6515 C   0  0  0  0  0 15  0  0  0  0  0  0
   40.7998    0.3674   -0.6584 H   0  0  0  0  0 15  0  0  0  0  0  0
   43.4508    0.2288   -1.8207 H   0  0  0  0  0 15  0  0  0  0  0  0
   41.8328    2.5693   -3.0133 H   0  0  0  0  0 15  0  0  0  0  0  0
   43.0068    0.1936   -4.6039 H   0  0  0  0  0 15  0  0  0  0  0  0
   41.3218    0.3329   -4.1507 H   0  0  0  0  0 15  0  0  0  0  0  0
   43.9188    3.1069   -4.3517 H   0  0  0  0  0 15  0  0  0  0  0  0
   44.2618    3.2166   -2.6427 H   0  0  0  0  0 15  0  0  0  0  0  0
   44.7948    1.7839   -3.5556 H   0  0  0  0  0 15  0  0  0  0  0  0
   41.5338    1.0704   -6.4670 H   0  0  0  0  0 15  0  0  0  0  0  0
   41.0538    2.4624   -5.4693 H   0  0  0  0  0 15  0  0  0  0  0  0
   42.7328    2.3097   -6.0437 H   0  0  0  0  0 15  0  0  0  0  0  0
   42.8649    1.4899    0.5136 N   0  0  0  0  0 15  0  0  0  0  0  0
   43.7969    1.6084    1.6329 C   0  0  0  0  0 15  0  0  0  0  0  0
   44.8099    0.4917    1.5520 C   0  0  0  0  0 15  0  0  0  0  0  0
   45.9989    0.7632    1.6136 O   0  0  0  0  0 15  0  0  0  0  0  0
   43.0989    1.5373    3.0203 C   0  0  0  0  0 15  0  0  0  0  0  0
   42.2719    2.8072    3.3544 C   0  0  0  0  0 15  0  0  0  0  0  0
   41.3309    2.6684    4.5352 C   0  0  0  0  0 15  0  0  0  0  0  0
   40.3569    3.4075    4.5593 O   0  0  0  0  0 15  0  0  0  0  0  0
   41.5589    1.7754    5.5268 N   0  0  0  0  0 15  0  0  0  0  0  0
   44.3239    2.5737    1.5357 H   0  0  0  0  0 15  0  0  0  0  0  0
   41.8849    1.4592    0.7013 H   0  0  0  0  0 15  0  0  0  0  0  0
   43.8769    1.4212    3.7893 H   0  0  0  0  0 15  0  0  0  0  0  0
   42.4469    0.6511    3.0574 H   0  0  0  0  0 15  0  0  0  0  0  0
   41.6669    3.0677    2.4756 H   0  0  0  0  0 15  0  0  0  0  0  0
   42.9549    3.6493    3.5455 H   0  0  0  0  0 15  0  0  0  0  0  0
   42.3529    1.1672    5.5353 H   0  0  0  0  0 15  0  0  0  0  0  0
   40.9099    1.7186    6.2874 H   0  0  0  0  0 15  0  0  0  0  0  0
   44.3430   -0.7638    1.3786 N   0  0  0  0  0 15  0  0  0  0  0  0
   45.5910   -1.5196    1.3324 C   0  0  0  0  0 15  0  0  0  0  0  0
   45.9120   -1.9484   -0.0802 C   0  0  0  0  0 15  0  0  0  0  0  0
   45.1820   -1.6689   -1.0258 O   0  0  0  0  0 15  0  0  0  0  0  0
   43.7620   -0.5636    0.4902 H   0  0  0  0  0 15  0  0  0  0  0  0
   46.4240   -0.9085    1.7243 H   0  0  0  0  0 15  0  0  0  0  0  0
   45.5200   -2.4152    1.9767 H   0  0  0  0  0 15  0  0  0  0  0  0
   45.8211   -1.2256   -0.9908 N   0  0  0  0  0 15  0  0  0  0  0  0
   46.7841   -0.9989   -2.0629 C   0  0  0  0  0 15  0  0  0  0  0  0
   47.7841    0.0355   -1.6076 C   0  0  0  0  0 15  0  0  0  0  0  0
   48.9741   -0.2032   -1.7301 O   0  0  0  0  0 15  0  0  0  0  0  0
   46.1061   -0.5092   -3.3708 C   0  0  0  0  0 15  0  0  0  0  0  0
   47.2991   -1.9501   -2.2784 H   0  0  0  0  0 15  0  0  0  0  0  0
   44.8521   -1.0446   -1.1627 H   0  0  0  0  0 15  0  0  0  0  0  0
   45.5871    0.4463   -3.2121 H   0  0  0  0  0 15  0  0  0  0  0  0
   45.3721   -1.2555   -3.7146 H   0  0  0  0  0 15  0  0  0  0  0  0
   46.8621   -0.3709   -4.1595 H   0  0  0  0  0 15  0  0  0  0  0  0
   47.2992    1.1880   -1.0356 N   0  0  0  0  0 15  0  0  0  0  0  0
   48.2092    2.2591   -0.6325 C   0  0  0  0  0 15  0  0  0  0  0  0
   49.2252    1.7067    0.3389 C   0  0  0  0  0 15  0  0  0  0  0  0
   50.4012    2.0045    0.1951 O   0  0  0  0  0 15  0  0  0  0  0  0
   47.4662    3.4670    0.0035 C   0  0  0  0  0 15  0  0  0  0  0  0
   46.5272    4.1710   -1.0162 C   0  0  0  0  0 15  0  0  0  0  0  0
   45.7602    5.3212   -0.4105 C   0  0  0  0  0 15  0  0  0  0  0  0
   45.9832    5.6498    0.7847 O   0  0  0  0  0 15  0  0  0  0  0  0
   44.9172    5.9107   -1.1367 O   0  0  0  0  0 15  0  0  0  0  0  0
   48.7432    2.6265   -1.5248 H   0  0  0  0  0 15  0  0  0  0  0  0
   46.3282    1.2578   -0.8062 H   0  0  0  0  0 15  0  0  0  0  0  0
   48.2102    4.1988    0.3578 H   0  0  0  0  0 15  0  0  0  0  0  0
   46.8852    3.1180    0.8697 H   0  0  0  0  0 15  0  0  0  0  0  0
   45.7922    3.4601   -1.4222 H   0  0  0  0  0 15  0  0  0  0  0  0
   47.1252    4.5599   -1.8530 H   0  0  0  0  0 15  0  0  0  0  0  0
   48.7773    0.8144    1.3493 N   0  0  0  0  0 15  0  0  0  0  0  0
   49.7243    0.2282    2.2967 C   0  0  0  0  0 15  0  0  0  0  0  0
   50.6943   -0.6422    1.5318 C   0  0  0  0  0 15  0  0  0  0  0  0
   51.8793   -0.5856    1.8159 O   0  0  0  0  0 15  0  0  0  0  0  0
   49.0193   -0.6109    3.3965 C   0  0  0  0  0 15  0  0  0  0  0  0
   48.1323    0.2808    4.3109 C   0  0  0  0  0 15  0  0  0  0  0  0
   47.2673   -0.5671    5.2816 C   0  0  0  0  0 15  0  0  0  0  0  0
   46.3063    0.3245    6.1124 C   0  0  0  0  0 15  0  0  0  0  0  0
   45.4433   -0.4838    7.0043 N   0  0  0  0  0 15  0  0  0  0  0  0
   50.2833    1.0415    2.7921 H   0  0  0  0  0 15  0  0  0  0  0  0
   47.8203    0.5251    1.3741 H   0  0  0  0  0 15  0  0  0  0  0  0
   49.7783   -1.1126    4.0209 H   0  0  0  0  0 15  0  0  0  0  0  0
   48.4083   -1.3894    2.9137 H   0  0  0  0  0 15  0  0  0  0  0  0
   47.4603    0.9007    3.6958 H   0  0  0  0  0 15  0  0  0  0  0  0
   48.7723    0.9667    4.8934 H   0  0  0  0  0 15  0  0  0  0  0  0
   47.9263   -1.1336    5.9601 H   0  0  0  0  0 15  0  0  0  0  0  0
   46.6653   -1.2865    4.7042 H   0  0  0  0  0 15  0  0  0  0  0  0
   45.6703    0.9033    5.4233 H   0  0  0  0  0 15  0  0  0  0  0  0
   46.8953    1.0420    6.7106 H   0  0  0  0  0 15  0  0  0  0  0  0
   44.8413   -1.1871    6.4517 H   0  0  0  0  0 15  0  0  0  0  0  0
   44.7583    0.1440    7.5586 H   0  0  0  0  0 15  0  0  0  0  0  0
   46.0263   -1.0333    7.7262 H   0  0  0  0  0 15  0  0  0  0  0  0
   50.2554   -1.4699    0.5686 N   0  0  0  0  0 15  0  0  0  0  0  0
   51.1654   -2.3394   -0.1756 C   0  0  0  0  0 15  0  0  0  0  0  0
   52.1814   -1.4889   -0.9004 C   0  0  0  0  0 15  0  0  0  0  0  0
   53.3574   -1.8179   -0.8668 O   0  0  0  0  0 15  0  0  0  0  0  0
   50.4224   -3.2581   -1.1852 C   0  0  0  0  0 15  0  0  0  0  0  0
   49.4834   -4.2676   -0.4666 C   0  0  0  0  0 15  0  0  0  0  0  0
   48.7164   -5.1424   -1.4282 C   0  0  0  0  0 15  0  0  0  0  0  0
   48.9394   -5.0438   -2.6638 O   0  0  0  0  0 15  0  0  0  0  0  0
   47.8734   -5.9441   -0.9465 O   0  0  0  0  0 15  0  0  0  0  0  0
   51.6994   -2.9890    0.5380 H   0  0  0  0  0 15  0  0  0  0  0  0
   49.2844   -1.4573    0.3291 H   0  0  0  0  0 15  0  0  0  0  0  0
   51.1664   -3.8253   -1.7678 H   0  0  0  0  0 15  0  0  0  0  0  0
   49.8414   -2.6347   -1.8805 H   0  0  0  0  0 15  0  0  0  0  0  0
   48.7484   -3.7377    0.1575 H   0  0  0  0  0 15  0  0  0  0  0  0
   50.0814   -4.9184    0.1875 H   0  0  0  0  0 15  0  0  0  0  0  0
   51.7724   -0.4477   -1.5517 O   0  0  0  0  0 15  0  0  0  0  0  0
   52.4634    0.0835   -1.9352 H   0  0  0  0  0 15  0  0  0  0  0  0
M  END
$$$$
