drugbank_target|P83787 Cytochrome c peroxidase (DB04272)
 OpenBabel12092120263D

  0  0  0     0  0            999 V3000
M  V30 BEGIN CTAB
M  V30 COUNTS 4883 4945 0 0 0
M  V30 BEGIN ATOM
M  V30 1 H -0.908 1.98254 -0.117106 0
M  V30 2 N 0 1.576 0 0
M  V30 3 C 1.277 1.81792 0.721886 0
M  V30 4 C 1.657 0.877704 1.91988 0
M  V30 5 O 1.005 -0.0735727 2.28382 0
M  V30 6 C 1.215 3.30282 1.12761 0
M  V30 7 C 2.563 3.9602 1.53146 0
M  V30 8 O 3.587 3.34605 1.2214 0
M  V30 9 O 2.446 5.04207 2.10802 0
M  V30 10 H -0.46 0.748582 0.351504 0
M  V30 11 H 2.086 1.69681 -0.025454 0
M  V30 12 H 0.858 3.90342 0.273686 0
M  V30 13 H 0.481 3.47391 1.93405 0
M  V30 14 N 1.4781 -0.272755 1.55222 0
M  V30 15 C 2.4261 -1.35705 1.88909 0
M  V30 16 C 3.4201 -1.5112 0.765456 0
M  V30 17 O 4.6261 -1.52901 0.949802 0
M  V30 18 H 1.0011 -0.453868 0.59959 0
M  V30 19 H 2.9721 -1.04544 2.79487 0
M  V30 20 C 1.7211 -2.71049 2.17779 0
M  V30 21 H 1.0441 -2.59979 3.03728 0
M  V30 22 H 2.4841 -3.45858 2.45272 0
M  V30 23 C 0.9431 -3.22165 0.985473 0
M  V30 24 O 1.4731 -4.01096 0.220233 0
M  V30 25 N -0.3209 -2.7985 0.783108 0
M  V30 26 H -0.7739 -2.15775 1.40708 0
M  V30 27 H -0.8159 -3.14397 -0.0130392 0
M  V30 28 N 2.9562 -1.48159 -0.537278 0
M  V30 29 C 3.8862 -1.65029 -1.6519 0
M  V30 30 C 4.8672 -0.499281 -1.62607 0
M  V30 31 O 6.0522 -0.730972 -1.79918 0
M  V30 32 C 3.1822 -1.68303 -3.03795 0
M  V30 33 C 2.1362 -2.8283 -3.21234 0
M  V30 34 C 1.4622 -2.71189 -4.60826 0
M  V30 35 C 2.7622 -4.24211 -3.04701 0
M  V30 36 H 4.4562 -2.58341 -1.51328 0
M  V30 37 H 2.0022 -1.24325 -0.726585 0
M  V30 38 H 3.9552 -1.78693 -3.81637 0
M  V30 39 H 2.6792 -0.715635 -3.18663 0
M  V30 40 H 1.3382 -2.71983 -2.45807 0
M  V30 41 H 0.9862 -1.72435 -4.7252 0
M  V30 42 H 0.6862 -3.48035 -4.7344 0
M  V30 43 H 2.2102 -2.83537 -5.40777 0
M  V30 44 H 3.6242 -4.3593 -3.72341 0
M  V30 45 H 2.0212 -5.01998 -3.28813 0
M  V30 46 H 3.0912 -4.41184 -2.01209 0
M  V30 47 N 4.4343 0.785586 -1.36625 0
M  V30 48 C 5.3673 1.90509 -1.25625 0
M  V30 49 C 6.3453 1.62 -0.139607 0
M  V30 50 O 7.5293 1.8591 -0.31141 0
M  V30 51 C 4.6563 3.25419 -0.939158 0
M  V30 52 C 3.7023 3.72856 -2.07077 0
M  V30 53 S 4.5353 3.88162 -3.68904 0
M  V30 54 C 5.6913 5.25942 -3.39317 0
M  V30 55 H 5.9243 1.99549 -2.20381 0
M  V30 56 H 3.4573 0.945226 -1.22085 0
M  V30 57 H 5.4153 4.03346 -0.763029 0
M  V30 58 H 4.0763 3.14099 -0.00931402 0
M  V30 59 H 3.2693 4.70624 -1.80357 0
M  V30 60 H 2.8713 3.01989 -2.20632 0
M  V30 61 H 5.1633 6.10651 -2.93447 0
M  V30 62 H 6.1063 5.57668 -4.36363 0
M  V30 63 H 6.5143 4.93224 -2.74573 0
M  V30 64 N 5.9124 1.20967 1.01018 0
M  V30 65 C 6.8224 0.980157 2.13143 0
M  V30 66 C 7.8384 -0.0660665 1.73875 0
M  V30 67 O 9.0144 0.122821 2.01025 0
M  V30 68 C 6.0794 0.54216 3.42435 0
M  V30 69 C 5.1404 1.65999 3.95908 0
M  V30 70 C 4.3734 1.2428 5.19028 0
M  V30 71 O 4.5964 0.114196 5.70286 0
M  V30 72 O 3.5304 2.05271 5.65816 0
M  V30 73 H 7.3564 1.91913 2.35379 0
M  V30 74 H 4.9414 0.994099 1.11526 0
M  V30 75 H 6.8234 0.30744 4.20277 0
M  V30 76 H 5.4984 -0.36815 3.216 0
M  V30 77 H 4.4054 1.94906 3.19316 0
M  V30 78 H 5.7384 2.54753 4.21143 0
M  V30 79 N 7.3905 -1.2043 1.01659 0
M  V30 80 C 8.8065 -1.41852 0.731442 0
M  V30 81 C 9.0065 -1.89358 -0.688898 0
M  V30 82 O 8.0625 -2.06247 -1.45666 0
M  V30 83 C 9.3755 -2.44019 1.75714 0
M  V30 84 C 10.9235 -2.57785 1.77527 0
M  V30 85 C 11.3985 -3.63194 2.79023 0
M  V30 86 N 12.8895 -3.70678 2.77763 0
M  V30 87 C 13.6245 -4.51897 3.52954 0
M  V30 88 N 13.1205 -5.36921 4.37821 0
M  V30 89 N 14.9135 -4.4643 3.41551 0
M  V30 90 H 7.0645 -0.879093 1.93354 0
M  V30 91 H 9.3275 -0.448425 0.835236 0
M  V30 92 H 9.0335 -2.1611 2.77469 0
M  V30 93 H 8.9075 -3.43007 1.56927 0
M  V30 94 H 11.2945 -2.85023 0.764569 0
M  V30 95 H 11.3755 -1.58992 2.00387 0
M  V30 96 H 11.0195 -3.36699 3.80258 0
M  V30 97 H 10.9495 -4.61609 2.53425 0
M  V30 98 H 13.4405 -3.09944 2.16201 0
M  V30 99 H 13.7535 -5.95981 4.91962 0
M  V30 100 H 12.0985 -5.36424 4.41899 0
M  V30 101 H 15.2895 -3.79042 2.74672 0
M  V30 102 H 15.4625 -5.09491 4.00404 0
M  V30 103 N 8.8686 -0.792821 -1.36206 0
M  V30 104 C 9.8316 -0.199459 -2.2833 0
M  V30 105 C 10.8316 0.605189 -1.48977 0
M  V30 106 O 12.0216 0.425685 -1.68919 0
M  V30 107 C 9.1536 0.723523 -3.33134 0
M  V30 108 H 10.3466 -1.01181 -2.82316 0
M  V30 109 H 7.8996 -0.562485 -1.45828 0
M  V30 110 H 8.6346 1.56008 -2.84309 0
M  V30 111 H 8.4196 0.148436 -3.91819 0
M  V30 112 H 9.9096 1.13344 -4.01924 0
M  V30 113 N 10.3467 1.47872 -0.545128 0
M  V30 114 C 11.2947 2.31533 0.222512 0
M  V30 115 C 12.2887 1.42177 0.920985 0
M  V30 116 O 13.4947 1.59005 0.843645 0
M  V30 117 H 9.8697 0.746519 0.0906278 0
M  V30 118 H 11.8407 2.94139 -0.50246 0
M  V30 119 C 10.5897 3.2457 1.24699 0
M  V30 120 H 9.9127 3.93283 0.718944 0
M  V30 121 H 11.3527 3.85963 1.75523 0
M  V30 122 C 9.8117 2.47237 2.28856 0
M  V30 123 O 10.3417 2.20808 3.35569 0
M  V30 124 N 8.5477 2.08461 2.02466 0
M  V30 125 H 8.0947 2.30155 1.157 0
M  V30 126 H 8.0527 1.57033 2.72375 0
M  V30 127 N 11.8248 0.280983 1.55075 0
M  V30 128 C 13.0498 -0.340154 2.04592 0
M  V30 129 C 13.4748 -1.48246 1.15779 0
M  V30 130 O 12.8328 -1.80614 0.15761 0
M  V30 131 C 12.8808 -0.793104 3.5177 0
M  V30 132 O 11.9848 -1.89981 3.66034 0
M  V30 133 H 11.3258 -0.0694289 0.66036 0
M  V30 134 H 13.8558 0.416993 2.00306 0
M  V30 135 H 13.8658 -1.08729 3.93245 0
M  V30 136 H 12.5408 0.0426163 4.15878 0
M  V30 137 H 11.1178 -1.60771 3.36463 0
M  V30 138 N 13.3029 -1.57598 0.00835791 0
M  V30 139 C 14.2359 -2.04409 -1.01451 0
M  V30 140 C 15.2139 -0.935609 -1.32985 0
M  V30 141 O 16.3979 -1.20437 -1.45007 0
M  V30 142 C 13.5249 -2.44872 -2.33999 0
M  V30 143 C 12.5709 -3.66535 -2.18069 0
M  V30 144 S 13.4039 -5.14095 -1.4989 0
M  V30 145 C 14.5599 -5.57835 -2.8385 0
M  V30 146 H 14.7929 -2.90849 -0.615961 0
M  V30 147 H 12.3259 -1.53063 -0.202752 0
M  V30 148 H 14.2839 -2.68852 -3.10208 0
M  V30 149 H 12.9449 -1.58815 -2.70992 0
M  V30 150 H 12.1379 -3.92626 -3.16008 0
M  V30 151 H 11.7399 -3.426 -1.50004 0
M  V30 152 H 14.0319 -5.60806 -3.80136 0
M  V30 153 H 14.9749 -6.57667 -2.62449 0
M  V30 154 H 15.3829 -4.85421 -2.88144 0
M  V30 155 N 14.781 0.264519 -1.55364 0
M  V30 156 C 16.028 0.994986 -1.7637 0
M  V30 157 C 16.356 1.85976 -0.5695 0
M  V30 158 O 15.611 1.90509 0.44776 0
M  V30 159 C 15.91 1.9004 -3.02687 0
M  V30 160 C 15.576 1.19243 -4.34847 0
M  V30 161 C 14.238 0.996709 -4.70764 0
M  V30 162 C 16.59 0.689296 -5.16622 0
M  V30 163 C 13.918 0.285261 -5.86006 0
M  V30 164 C 16.27 -0.00860079 -6.32599 0
M  V30 165 C 14.934 -0.215963 -6.67151 0
M  V30 166 H 14.204 0.364091 -0.645383 0
M  V30 167 H 16.851 0.266543 -1.89636 0
M  V30 168 H 15.156 2.69533 -2.84357 0
M  V30 169 H 16.853 2.46695 -3.16137 0
M  V30 170 H 13.443 1.3549 -4.06621 0
M  V30 171 H 17.627 0.828108 -4.89342 0
M  V30 172 H 12.883 0.113961 -6.11294 0
M  V30 173 H 17.057 -0.406186 -6.95214 0
M  V30 174 H 14.684 -0.769217 -7.56298 0
M  V30 175 N 16.2591 1.48442 0.529413 0
M  V30 176 C 17.1691 1.6569 1.66084 0
M  V30 177 C 18.1851 0.539432 1.65427 0
M  V30 178 O 19.3611 0.810572 1.84368 0
M  V30 179 C 16.4261 1.69315 3.02545 0
M  V30 180 C 15.4871 2.92694 3.14052 0
M  V30 181 C 14.7201 2.96137 4.44003 0
M  V30 182 O 14.9431 2.07973 5.31134 0
M  V30 183 O 13.8771 3.88312 4.59888 0
M  V30 184 H 17.7031 2.61483 1.54469 0
M  V30 185 H 15.2881 1.3185 0.702567 0
M  V30 186 H 17.1701 1.74217 3.83701 0
M  V30 187 H 15.8451 0.766966 3.14483 0
M  V30 188 H 14.7521 2.93324 2.32189 0
M  V30 189 H 16.0851 3.84699 3.0703 0
M  V30 190 N 17.7372 -0.778329 1.37039 0
M  V30 191 C 19.1482 -1.35421 1.28523 0
M  V30 192 C 19.4992 -1.96075 -0.0700901 0
M  V30 193 O 18.6242 -1.93352 -0.971801 0
M  V30 194 C 19.2192 -2.46211 2.32735 0
M  V30 195 C 17.7782 -2.99585 2.27873 0
M  V30 196 C 16.9252 -1.72748 2.16918 0
M  V30 197 H 19.8762 -0.5791 1.47757 0
M  V30 198 H 19.8972 -3.2552 1.9702 0
M  V30 199 H 19.4092 -2.02036 3.31365 0
M  V30 200 H 17.5102 -3.48152 1.32745 0
M  V30 201 H 17.6232 -3.55646 3.21018 0
M  V30 202 H 15.9872 -1.95416 1.63354 0
M  V30 203 H 16.7702 -1.30686 3.17452 0
M  V30 204 N 19.2153 -1.21501 -1.00376 0
M  V30 205 C 20.4643 -1.02718 -1.73586 0
M  V30 206 C 20.7773 0.439589 -1.90596 0
M  V30 207 O 21.9833 0.746848 -2.61026 0
M  V30 208 C 20.4393 -1.78929 -3.1227 0
M  V30 209 C 20.0473 -3.29783 -3.03228 0
M  V30 210 C 21.7913 -1.68557 -3.89601 0
M  V30 211 C 19.6983 -3.98479 -4.36999 0
M  V30 212 H 18.6283 -0.380733 -0.650814 0
M  V30 213 H 21.2793 -1.45248 -1.1214 0
M  V30 214 H 19.6613 -1.29192 -3.74333 0
M  V30 215 H 20.8353 -3.86832 -2.50395 0
M  V30 216 H 19.1503 -3.40711 -2.39385 0
M  V30 217 H 21.7473 -2.17211 -4.88593 0
M  V30 218 H 22.0903 -0.644021 -4.11288 0
M  V30 219 H 22.6233 -2.15778 -3.34193 0
M  V30 220 H 19.3623 -5.02841 -4.20513 0
M  V30 221 H 18.8823 -3.46219 -4.89788 0
M  V30 222 H 20.5613 -4.03462 -5.05794 0
M  V30 223 N 20.6934 1.19889 -1.02296 0
M  V30 224 C 22.1044 1.71124 -0.746568 0
M  V30 225 C 22.4554 1.81939 0.734335 0
M  V30 226 O 21.5804 1.48639 1.57275 0
M  V30 227 C 22.1754 3.10804 -1.34857 0
M  V30 228 C 20.7344 3.59323 -1.1209 0
M  V30 229 C 19.8814 2.3635 -1.45031 0
M  V30 230 H 22.8324 1.04813 -1.19163 0
M  V30 231 H 22.8534 3.73186 -0.742437 0
M  V30 232 H 22.3654 3.029 -2.42638 0
M  V30 233 H 20.4664 3.7255 -0.0610337 0
M  V30 234 H 20.5794 4.4378 -1.80544 0
M  V30 235 H 18.9434 2.39399 -0.869487 0
M  V30 236 H 19.7264 2.31081 -2.53883 0
M  V30 237 N 22.1715 0.800033 1.35784 0
M  V30 238 C 23.1185 0.203848 2.29898 0
M  V30 239 C 24.0885 -0.658375 1.52495 0
M  V30 240 O 25.2735 -0.604832 1.8096 0
M  V30 241 C 22.4135 -0.64688 3.38983 0
M  V30 242 C 21.5265 0.235054 4.3136 0
M  V30 243 C 20.6615 -0.623054 5.27533 0
M  V30 244 C 19.7005 0.259682 6.11549 0
M  V30 245 N 18.8375 -0.558019 6.99879 0
M  V30 246 H 23.6775 1.01186 2.80295 0
M  V30 247 H 21.2145 0.51053 1.37957 0
M  V30 248 H 23.1725 -1.15521 4.00887 0
M  V30 249 H 21.8025 -1.42021 2.89879 0
M  V30 250 H 20.8545 0.861438 3.70518 0
M  V30 251 H 22.1665 0.914768 4.9034 0
M  V30 252 H 21.3205 -1.19678 5.94779 0
M  V30 253 H 20.0595 -1.33636 4.69034 0
M  V30 254 H 19.0645 0.845726 5.43256 0
M  V30 255 H 20.2895 0.970748 6.72126 0
M  V30 256 H 18.2355 -1.25542 6.43875 0
M  V30 257 H 18.1525 0.0637872 7.55973 0
M  V30 258 H 19.4205 -1.11523 7.71481 0
M  V30 259 N 23.6496 -1.47581 0.552962 0
M  V30 260 C 24.8796 -2.06575 0.0320091 0
M  V30 261 C 25.2876 -1.4067 -1.26525 0
M  V30 262 O 24.6306 -0.495808 -1.76883 0
M  V30 263 C 24.6926 -3.58705 -0.238913 0
M  V30 264 C 24.3566 -4.46625 0.968272 0
M  V30 265 C 25.3536 -4.85 1.87274 0
M  V30 266 C 23.0386 -4.88201 1.18175 0
M  V30 267 C 25.0326 -5.63745 2.9744 0
M  V30 268 C 22.7196 -5.66712 2.28651 0
M  V30 269 C 23.7176 -6.04394 3.18114 0
M  V30 270 O 23.4056 -6.81324 4.26676 0
M  V30 271 H 23.1376 -0.674763 0.0408689 0
M  V30 272 H 25.6916 -1.90634 0.764719 0
M  V30 273 H 23.9216 -3.72844 -1.02588 0
M  V30 274 H 25.6106 -3.99735 -0.704731 0
M  V30 275 H 26.3766 -4.53482 1.71984 0
M  V30 276 H 22.2556 -4.58339 0.494593 0
M  V30 277 H 25.7996 -5.93077 3.67296 0
M  V30 278 H 21.6966 -5.97642 2.43915 0
M  V30 279 H 22.4646 -6.99712 4.24671 0
M  V30 280 N 25.1277 -0.289203 -1.54924 0
M  V30 281 C 26.5387 0.205791 -1.85562 0
M  V30 282 C 26.8897 1.54351 -1.2112 0
M  V30 283 O 26.0147 2.10435 -0.504601 0
M  V30 284 C 26.6097 0.380177 -3.3666 0
M  V30 285 C 25.1687 0.819395 -3.67373 0
M  V30 286 C 24.3157 -0.079159 -2.77187 0
M  V30 287 H 27.2667 -0.510577 -1.50262 0
M  V30 288 H 27.2877 1.21659 -3.60526 0
M  V30 289 H 26.7997 -0.593589 -3.83534 0
M  V30 290 H 24.9007 1.80413 -3.26009 0
M  V30 291 H 25.0137 0.646957 -4.74712 0
M  V30 292 H 23.3777 0.439565 -2.50878 0
M  V30 293 H 24.1607 -1.04906 -3.26878 0
M  V30 294 N 26.6058 1.57591 -0.0167156 0
M  V30 295 C 28.0168 1.79201 0.523834 0
M  V30 296 C 28.3678 0.925796 1.72984 0
M  V30 297 O 27.4928 0.132792 2.15992 0
M  V30 298 C 28.0878 3.25 0.957091 0
M  V30 299 C 26.6468 3.47648 1.44283 0
M  V30 300 C 25.7938 2.74374 0.401757 0
M  V30 301 H 28.7448 1.56831 -0.242816 0
M  V30 302 H 28.7658 3.34031 1.82219 0
M  V30 303 H 28.2778 3.88019 0.0791415 0
M  V30 304 H 26.3788 2.89866 2.34113 0
M  V30 305 H 26.4918 4.56352 1.45877 0
M  V30 306 H 24.8558 2.39485 0.867121 0
M  V30 307 H 25.6388 3.40102 -0.467513 0
M  V30 308 N 28.0839 -0.256276 1.55502 0
M  V30 309 C 29.3299 -0.987079 1.77157 0
M  V30 310 C 29.6629 -1.85327 0.580315 0
M  V30 311 O 28.9379 -1.89874 -0.421686 0
M  V30 312 C 29.2209 -1.85553 3.08613 0
M  V30 313 C 29.0739 -1.01816 4.38125 0
M  V30 314 C 30.3929 -2.8397 3.36228 0
M  V30 315 H 27.5119 -0.357428 0.644526 0
M  V30 316 H 30.1539 -0.258239 1.88237 0
M  V30 317 H 28.3039 -2.47695 2.99298 0
M  V30 318 H 29.9759 -0.416159 4.59419 0
M  V30 319 H 28.2189 -0.322178 4.32602 0
M  V30 320 H 28.8899 -1.65939 5.26468 0
M  V30 321 H 31.3659 -2.31964 3.45445 0
M  V30 322 H 30.2419 -3.41864 4.29442 0
M  V30 323 H 30.5029 -3.59955 2.56681 0
M  V30 324 N 29.562 -1.4872 -0.521534 0
M  V30 325 C 30.811 -1.56419 -1.27341 0
M  V30 326 C 31.124 -0.246805 -1.94037 0
M  V30 327 O 32.33 -0.202122 -2.70747 0
M  V30 328 C 30.786 -2.75896 -2.31105 0
M  V30 329 C 30.394 -4.14311 -1.70441 0
M  V30 330 C 32.138 -2.92913 -3.07249 0
M  V30 331 C 30.045 -5.25038 -2.72194 0
M  V30 332 H 28.975 -0.582344 -0.478949 0
M  V30 333 H 31.626 -1.75071 -0.549779 0
M  V30 334 H 30.008 -2.50697 -3.06541 0
M  V30 335 H 31.182 -4.49564 -1.01136 0
M  V30 336 H 29.497 -4.02482 -1.06759 0
M  V30 337 H 32.094 -3.72805 -3.83302 0
M  V30 338 H 32.437 -2.02689 -3.63625 0
M  V30 339 H 32.97 -3.18054 -2.38928 0
M  V30 340 H 29.709 -6.17255 -2.20627 0
M  V30 341 H 29.229 -4.94263 -3.39801 0
M  V30 342 H 30.908 -5.53508 -3.35019 0
M  V30 343 N 31.0401 0.771051 -1.3745 0
M  V30 344 C 32.3171 1.519 -1.23231 0
M  V30 345 C 32.6971 2.10383 0.173809 0
M  V30 346 O 32.0451 1.95583 1.18151 0
M  V30 347 C 32.2551 2.59933 -2.32886 0
M  V30 348 C 33.6031 3.27316 -2.70461 0
M  V30 349 O 34.6271 2.70228 -2.32068 0
M  V30 350 O 33.4861 4.30531 -3.36608 0
M  V30 351 H 30.5801 0.672803 -0.480901 0
M  V30 352 H 33.1261 0.807957 -1.49232 0
M  V30 353 H 31.8981 2.14842 -3.27045 0
M  V30 354 H 31.5211 3.38637 -2.08353 0
M  V30 355 N 32.5182 1.22032 0.997298 0
M  V30 356 C 33.7662 1.04016 1.73278 0
M  V30 357 C 34.0872 -0.426255 1.90284 0
M  V30 358 O 33.3572 -1.30694 1.45931 0
M  V30 359 H 31.9372 0.381897 0.642 0
M  V30 360 H 34.5992 1.5347 1.20137 0
M  V30 361 H 33.6952 1.51441 2.72896 0
M  V30 362 N 33.9963 -1.19345 1.0293 0
M  V30 363 C 34.9443 -2.24621 0.604001 0
M  V30 364 C 35.9383 -1.65452 -0.363587 0
M  V30 365 O 37.1443 -1.78497 -0.23212 0
M  V30 366 H 33.5193 -0.730858 0.177061 0
M  V30 367 H 35.4903 -2.5781 1.50255 0
M  V30 368 C 34.2393 -3.47688 -0.0289127 0
M  V30 369 H 33.5623 -3.93505 0.706651 0
M  V30 370 H 35.0023 -4.23011 -0.289432 0
M  V30 371 C 33.4613 -3.11817 -1.2756 0
M  V30 372 O 33.9913 -3.2451 -2.36762 0
M  V30 373 N 32.1973 -2.66246 -1.16453 0
M  V30 374 H 31.7443 -2.56118 -0.275914 0
M  V30 375 H 31.7023 -2.42617 -1.99961 0
M  V30 376 N 35.4744 -0.807222 -1.35358 0
M  V30 377 C 36.3844 -0.219594 -2.3357 0
M  V30 378 C 37.4004 0.637734 -1.61892 0
M  V30 379 O 38.5764 0.549336 -1.93763 0
M  V30 380 C 35.6414 0.62158 -3.41083 0
M  V30 381 C 34.7024 -0.256315 -4.28534 0
M  V30 382 C 33.9354 0.544807 -5.30912 0
M  V30 383 O 34.1584 1.77944 -5.41934 0
M  V30 384 O 33.0924 -0.0646478 -6.01865 0
M  V30 385 H 36.9184 -1.03208 -2.85625 0
M  V30 386 H 34.5034 -0.569025 -1.38139 0
M  V30 387 H 36.3854 1.10067 -4.06772 0
M  V30 388 H 35.0604 1.41165 -2.91297 0
M  V30 389 H 33.9674 -0.782559 -3.65823 0
M  V30 390 H 35.3004 -1.01034 -4.81719 0
M  V30 391 N 36.9525 1.47285 -0.560781 0
M  V30 392 C 37.8825 2.32857 0.173105 0
M  V30 393 C 38.8635 1.44009 0.905281 0
M  V30 394 O 40.0485 1.7286 0.885046 0
M  V30 395 C 37.1785 3.25861 1.20133 0
M  V30 396 C 36.1325 4.23978 0.585388 0
M  V30 397 C 35.4585 5.06332 1.7185 0
M  V30 398 C 36.7585 5.20242 -0.463178 0
M  V30 399 H 38.4525 2.94466 -0.541307 0
M  V30 400 H 35.9985 1.41601 -0.261764 0
M  V30 401 H 37.9515 3.84569 1.72293 0
M  V30 402 H 36.6755 2.62315 1.94573 0
M  V30 403 H 35.3345 3.66501 0.085054 0
M  V30 404 H 34.9825 4.39186 2.45203 0
M  V30 405 H 34.6825 5.72762 1.31213 0
M  V30 406 H 36.2065 5.67899 2.24329 0
M  V30 407 H 37.6205 5.73293 -0.027502 0
M  V30 408 H 36.0175 5.94896 -0.788627 0
M  V30 409 H 37.0875 4.65504 -1.35773 0
M  V30 410 N 38.4306 0.297415 1.54768 0
M  V30 411 C 39.6586 -0.315623 2.04478 0
M  V30 412 C 40.0736 -1.47792 1.17486 0
M  V30 413 O 39.4306 -1.81404 0.19971 0
M  V30 414 C 39.4816 -0.7753 3.53088 0
M  V30 415 O 39.2026 0.340732 4.36773 0
M  V30 416 C 40.7036 -1.45386 4.18781 0
M  V30 417 H 37.9236 -0.0690887 0.667434 0
M  V30 418 H 40.4676 0.436003 1.99798 0
M  V30 419 H 38.6226 -1.47696 3.58141 0
M  V30 420 H 39.0366 -0.0165035 5.24497 0
M  V30 421 H 40.5106 -1.72669 5.24299 0
M  V30 422 H 40.9876 -2.39275 3.68299 0
M  V30 423 H 41.5936 -0.795475 4.17795 0
M  V30 424 N 39.9087 -1.5758 0.0250728 0
M  V30 425 C 40.8407 -2.06869 -0.986796 0
M  V30 426 C 41.8537 -0.991332 -1.29137 0
M  V30 427 O 43.0427 -1.26761 -1.25674 0
M  V30 428 C 40.1427 -2.47486 -2.31525 0
M  V30 429 C 39.3157 -3.78253 -2.19643 0
M  V30 430 C 38.3747 -4.05464 -3.35388 0
M  V30 431 O 37.4007 -4.75774 -3.12454 0
M  V30 432 N 38.6027 -3.55321 -4.59051 0
M  V30 433 H 41.3677 -2.94302 -0.566276 0
M  V30 434 H 38.9287 -1.6109 -0.161776 0
M  V30 435 H 40.9207 -2.62785 -3.07776 0
M  V30 436 H 39.4907 -1.65441 -2.65232 0
M  V30 437 H 38.7107 -3.7279 -1.28144 0
M  V30 438 H 39.9987 -4.63936 -2.08903 0
M  V30 439 H 39.3967 -2.98431 -4.80578 0
M  V30 440 H 37.9537 -3.75905 -5.32483 0
M  V30 441 N 41.3868 0.248026 -1.55636 0
M  V30 442 C 42.3498 1.29044 -1.89421 0
M  V30 443 C 43.3498 1.41134 -0.770581 0
M  V30 444 O 44.5398 1.39854 -1.03858 0
M  V30 445 C 41.6718 2.66831 -2.12165 0
M  V30 446 H 42.8648 1.00305 -2.82629 0
M  V30 447 H 40.4178 0.487265 -1.48511 0
M  V30 448 H 41.1528 3.00711 -1.21422 0
M  V30 449 H 40.9378 2.59438 -2.93997 0
M  V30 450 H 42.4278 3.42103 -2.3949 0
M  V30 451 N 42.8649 1.48995 0.513639 0
M  V30 452 C 43.8119 1.6473 1.61656 0
M  V30 453 C 44.7819 0.488984 1.58739 0
M  V30 454 O 45.9669 0.714478 1.76918 0
M  V30 455 C 43.1069 1.7082 2.99858 0
M  V30 456 C 42.2199 2.9787 3.12885 0
M  V30 457 C 41.3549 2.95017 4.41744 0
M  V30 458 C 40.3939 4.16702 4.48359 0
M  V30 459 N 39.5309 4.11832 5.68629 0
M  V30 460 H 44.3709 2.58909 1.47547 0
M  V30 461 H 41.9079 1.28382 0.71808 0
M  V30 462 H 43.8659 1.72331 3.79944 0
M  V30 463 H 42.4959 0.801181 3.12699 0
M  V30 464 H 41.5479 3.06029 2.25944 0
M  V30 465 H 42.8599 3.8786 3.13633 0
M  V30 466 H 42.0139 2.95021 5.30139 0
M  V30 467 H 40.7529 2.02784 4.43542 0
M  V30 468 H 39.7579 4.16955 3.58369 0
M  V30 469 H 40.9829 5.10113 4.48287 0
M  V30 470 H 38.9289 3.22428 5.71293 0
M  V30 471 H 38.8459 4.95543 5.7094 0
M  V30 472 H 40.1139 4.1592 6.59266 0
M  V30 473 N 44.343 -0.763751 1.37857 0
M  V30 474 C 45.589 -1.52483 1.33704 0
M  V30 475 C 45.922 -1.94051 -0.0759612 0
M  V30 476 O 45.197 -1.64675 -1.03501 0
M  V30 477 C 45.48 -2.78441 2.28348 0
M  V30 478 C 45.333 -2.43075 3.78463 0
M  V30 479 C 46.652 -3.80415 2.21298 0
M  V30 480 H 43.771 -0.553169 0.487005 0
M  V30 481 H 46.413 -0.875562 1.68624 0
M  V30 482 H 44.563 -3.33842 1.987 0
M  V30 483 H 46.235 -1.93527 4.18742 0
M  V30 484 H 44.478 -1.75666 3.96641 0
M  V30 485 H 45.149 -3.33149 4.40132 0
M  V30 486 H 47.625 -3.34527 2.47449 0
M  V30 487 H 46.501 -4.66257 2.89647 0
M  V30 488 H 46.762 -4.25262 1.20849 0
M  V30 489 N 45.8211 -1.22559 -0.990812 0
M  V30 490 C 46.7311 -1.01394 -2.11557 0
M  V30 491 C 47.7471 0.0383962 -1.73958 0
M  V30 492 O 48.9231 -0.154787 -2.00804 0
M  V30 493 C 45.9881 -0.596569 -3.41529 0
M  V30 494 C 45.0491 -1.72276 -3.93217 0
M  V30 495 C 44.2821 -1.32521 -5.16985 0
M  V30 496 O 44.5051 -0.204909 -5.70032 0
M  V30 497 O 43.4391 -2.14247 -5.62478 0
M  V30 498 H 47.2651 -1.95633 -2.32296 0
M  V30 499 H 44.8501 -1.01172 -1.0993 0
M  V30 500 H 46.7321 -0.374263 -4.19735 0
M  V30 501 H 45.4071 0.316939 -3.22145 0
M  V30 502 H 44.3141 -1.99961 -3.16174 0
M  V30 503 H 45.6471 -2.61421 -4.17037 0
M  V30 504 N 47.2992 1.18797 -1.03562 0
M  V30 505 C 48.2292 2.24472 -0.643019 0
M  V30 506 C 49.2102 1.66433 0.351283 0
M  V30 507 O 50.3952 1.92803 0.232505 0
M  V30 508 C 47.5252 3.473 4.24935e-05 0
M  V30 509 C 46.4792 4.18055 -0.917257 0
M  V30 510 C 45.8052 5.34519 -0.138941 0
M  V30 511 C 47.1052 4.72109 -2.23407 0
M  V30 512 H 48.7992 2.57566 -1.52643 0
M  V30 513 H 46.3452 1.23806 -0.735394 0
M  V30 514 H 48.2982 4.20426 0.286383 0
M  V30 515 H 47.0222 3.13424 0.918299 0
M  V30 516 H 45.6812 3.46821 -1.1879 0
M  V30 517 H 45.3292 4.96891 0.781562 0
M  V30 518 H 45.0292 5.82794 -0.750005 0
M  V30 519 H 46.5532 6.10438 0.1405 0
M  V30 520 H 47.9672 5.36955 -2.00879 0
M  V30 521 H 46.3642 5.30897 -2.79765 0
M  V30 522 H 47.4342 3.89807 -2.88407 0
M  V30 523 N 48.7773 0.814389 1.34928 0
M  V30 524 C 50.0253 0.397636 1.9815 0
M  V30 525 C 50.3463 -1.04069 1.64908 0
M  V30 526 O 49.6163 -1.72121 0.93548 0
M  V30 527 H 48.1963 0.144043 0.732981 0
M  V30 528 H 50.8583 1.04195 1.6471 0
M  V30 529 H 49.9543 0.509688 3.0791 0
M  V30 530 N 50.2554 -1.46986 0.568584 0
M  V30 531 C 51.2024 -2.30153 -0.172707 0
M  V30 532 C 52.1724 -1.39759 -0.897586 0
M  V30 533 O 53.3574 -1.68716 -0.891044 0
M  V30 534 C 50.4974 -3.23952 -1.1895 0
M  V30 535 C 49.6104 -4.29441 -0.469517 0
M  V30 536 C 48.7454 -5.1038 -1.47259 0
M  V30 537 C 47.7844 -6.07632 -0.738225 0
M  V30 538 N 46.9214 -6.8149 -1.68868 0
M  V30 539 H 51.7614 -2.93019 0.542596 0
M  V30 540 H 49.2984 -1.44422 0.279401 0
M  V30 541 H 51.2564 -3.76767 -1.79173 0
M  V30 542 H 49.8864 -2.62926 -1.87269 0
M  V30 543 H 48.9384 -3.79594 0.247467 0
M  V30 544 H 50.2504 -4.98689 0.105241 0
M  V30 545 H 49.4044 -5.67402 -2.14803 0
M  V30 546 H 48.1434 -4.4106 -2.08128 0
M  V30 547 H 47.1484 -5.49778 -0.0489293 0
M  V30 548 H 48.3734 -6.78966 -0.135129 0
M  V30 549 H 46.3194 -6.14891 -2.28573 0
M  V30 550 H 46.2364 -7.46948 -1.16636 0
M  V30 551 H 47.5044 -7.43078 -2.3549 0
M  V30 552 N 51.7335 -0.305618 -1.54608 0
M  V30 553 C 52.6665 0.610536 -2.19881 0
M  V30 554 C 53.6445 1.1294 -1.16976 0
M  V30 555 O 54.8285 1.19673 -1.45638 0
M  V30 556 C 51.9555 1.83583 -2.84631 0
M  V30 557 C 51.0015 1.4498 -4.01102 0
M  V30 558 S 51.8345 0.501793 -5.33144 0
M  V30 559 C 52.9905 1.73478 -6.01379 0
M  V30 560 H 53.2235 0.0560177 -2.97247 0
M  V30 561 H 50.7565 -0.0897434 -1.54139 0
M  V30 562 H 52.7145 2.53898 -3.22562 0
M  V30 563 H 51.3755 2.36152 -2.07102 0
M  V30 564 H 50.5685 2.36236 -4.45206 0
M  V30 565 H 50.1705 0.826553 -3.64752 0
M  V30 566 H 52.4625 2.67473 -6.22467 0
M  V30 567 H 53.4055 1.33622 -6.95378 0
M  V30 568 H 53.8135 1.9136 -5.31076 0
M  V30 569 N 53.2116 1.57565 -0.0334293 0
M  V30 570 C 54.1216 2.13943 0.962572 0
M  V30 571 C 55.1376 1.09276 1.35406 0
M  V30 572 O 56.3136 1.41355 1.4346 0
M  V30 573 C 53.3786 2.65887 2.22497 0
M  V30 574 C 52.4396 3.85286 1.8935 0
M  V30 575 C 51.6726 4.34743 3.09571 0
M  V30 576 O 51.8956 3.83352 4.22371 0
M  V30 577 O 50.8296 5.26538 2.91618 0
M  V30 578 H 54.6556 2.99333 0.513169 0
M  V30 579 H 52.2406 1.4822 0.18743 0
M  V30 580 H 54.1226 2.99346 2.96598 0
M  V30 581 H 52.7976 1.83578 2.6661 0
M  V30 582 H 51.7046 3.56746 1.1262 0
M  V30 583 H 53.0376 4.68771 1.5005 0
M  V30 584 N 54.6897 -0.239769 1.55765 0
M  V30 585 C 55.9367 -0.966801 1.7793 0
M  V30 586 C 56.2647 -1.85046 0.599015 0
M  V30 587 O 55.5197 -1.91197 -0.417395 0
M  V30 588 C 55.8187 -1.852 3.05672 0
M  V30 589 C 55.4847 -1.1231 4.36689 0
M  V30 590 C 54.1467 -0.921689 4.72291 0
M  V30 591 C 56.4987 -0.607019 5.17653 0
M  V30 592 C 53.8267 -0.191996 5.86386 0
M  V30 593 C 56.1787 0.109241 6.32506 0
M  V30 594 C 54.8427 0.322073 6.66723 0
M  V30 595 H 54.1127 -0.353778 0.651093 0
M  V30 596 H 56.7597 -0.23634 1.90036 0
M  V30 597 H 55.0647 -2.64975 2.8861 0
M  V30 598 H 56.7617 -2.41635 3.20021 0
M  V30 599 H 53.3517 -1.29004 4.08725 0
M  V30 600 H 57.5357 -0.750153 4.90598 0
M  V30 601 H 52.7917 -0.0166949 6.11398 0
M  V30 602 H 56.9657 0.516737 6.9448 0
M  V30 603 H 54.5927 0.88944 7.54979 0
M  V30 604 N 56.1678 -1.49265 -0.50573 0
M  V30 605 C 57.4148 -1.58513 -1.26015 0
M  V30 606 C 57.7428 -0.26972 -1.92621 0
M  V30 607 O 56.9978 0.741997 -1.81088 0
M  V30 608 C 57.2968 -2.69008 -2.35308 0
M  V30 609 C 56.9628 -4.10662 -1.86192 0
M  V30 610 C 55.6248 -4.49212 -1.72516 0
M  V30 611 C 57.9768 -4.99336 -1.49375 0
M  V30 612 C 55.3048 -5.74214 -1.20394 0
M  V30 613 C 57.6568 -6.24852 -0.987072 0
M  V30 614 C 56.3208 -6.62236 -0.836669 0
M  V30 615 H 55.5908 -0.580041 -0.461122 0
M  V30 616 H 58.2378 -1.83078 -0.561665 0
M  V30 617 H 56.5428 -2.38396 -3.10926 0
M  V30 618 H 58.2398 -2.73373 -2.93374 0
M  V30 619 H 54.8298 -3.8023 -1.97795 0
M  V30 620 H 59.0138 -4.70212 -1.5879 0
M  V30 621 H 54.2698 -6.01883 -1.07458 0
M  V30 622 H 58.4438 -6.92944 -0.692983 0
M  V30 623 H 56.0708 -7.58979 -0.430607 0
M  V30 624 N 57.6459 0.756429 -1.3826 0
M  V30 625 C 58.5559 1.9009 -1.37488 0
M  V30 626 C 59.5719 1.71855 -0.272366 0
M  V30 627 O 60.7479 1.94827 -0.510318 0
M  V30 628 C 57.8129 3.25421 -1.19592 0
M  V30 629 C 56.8739 3.56202 -2.39622 0
M  V30 630 C 56.1069 4.85075 -2.2257 0
M  V30 631 O 56.3299 5.57246 -1.21793 0
M  V30 632 O 55.2639 5.15269 -3.11098 0
M  V30 633 H 59.0899 1.93695 -2.33914 0
M  V30 634 H 56.6749 0.901313 -1.1915 0
M  V30 635 H 58.5569 4.06337 -1.11661 0
M  V30 636 H 57.2319 3.22634 -0.262486 0
M  V30 637 H 56.1389 2.75458 -2.53128 0
M  V30 638 H 57.4719 3.63747 -3.31586 0
M  V30 639 N 59.124 1.23083 0.984299 0
M  V30 640 C 60.535 1.05609 1.5396 0
M  V30 641 C 60.886 -0.377793 1.92528 0
M  V30 642 O 60.011 -1.26398 1.75649 0
M  V30 643 C 60.606 1.91087 2.7977 0
M  V30 644 C 59.165 1.77885 3.31713 0
M  V30 645 C 58.312 1.87028 2.04733 0
M  V30 646 H 61.263 1.36802 0.804419 0
M  V30 647 H 61.284 1.43336 3.5247 0
M  V30 648 H 60.796 2.9544 2.51668 0
M  V30 649 H 58.897 0.762995 3.64704 0
M  V30 650 H 59.01 2.61047 4.01735 0
M  V30 651 H 57.374 1.30565 2.18689 0
M  V30 652 H 58.157 2.92929 1.79017 0
M  V30 653 N 60.6021 -1.18246 1.0419 0
M  V30 654 C 62.0181 -1.40269 0.761366 0
M  V30 655 C 62.2181 -1.90777 -0.648578 0
M  V30 656 O 61.2741 -2.0929 -1.41258 0
M  V30 657 C 62.5871 -2.40237 1.8085 0
M  V30 658 C 64.1351 -2.53961 1.82955 0
M  V30 659 C 64.6101 -3.57194 2.86664 0
M  V30 660 N 66.1011 -3.64702 2.85563 0
M  V30 661 C 66.8361 -4.44309 3.6246 0
M  V30 662 N 66.3321 -5.27514 4.49111 0
M  V30 663 N 68.1251 -4.39084 3.50944 0
M  V30 664 H 60.2761 -0.837882 1.95175 0
M  V30 665 H 62.5391 -0.430608 0.84456 0
M  V30 666 H 62.2451 -2.10176 2.81991 0
M  V30 667 H 62.1191 -3.39601 1.64168 0
M  V30 668 H 64.5061 -2.83338 0.824855 0
M  V30 669 H 64.5871 -1.54706 2.03715 0
M  V30 670 H 64.2311 -3.28558 3.87314 0
M  V30 671 H 64.1611 -4.5613 2.6316 0
M  V30 672 H 66.6521 -3.05289 2.22727 0
M  V30 673 H 66.9651 -5.85411 5.04493 0
M  V30 674 H 65.3101 -5.2693 4.53178 0
M  V30 675 H 68.5011 -3.7313 2.82651 0
M  V30 676 H 68.6741 -5.00883 4.11121 0
M  V30 677 N 62.0802 -0.821533 -1.34494 0
M  V30 678 C 63.0102 -0.257138 -2.3208 0
M  V30 679 C 63.9912 0.625645 -1.58176 0
M  V30 680 O 65.1762 0.552811 -1.86166 0
M  V30 681 C 62.3062 0.582958 -3.42372 0
M  V30 682 C 61.2602 -0.202571 -4.2752 0
M  V30 683 C 60.5862 0.760179 -5.29269 0
M  V30 684 C 61.8862 -1.40998 -5.02908 0
M  V30 685 H 63.5802 -1.07247 -2.79532 0
M  V30 686 H 61.1262 -0.517163 -1.34393 0
M  V30 687 H 63.0792 0.987972 -4.09655 0
M  V30 688 H 61.8032 1.43133 -2.93565 0
M  V30 689 H 60.4622 -0.588936 -3.61838 0
M  V30 690 H 60.1102 1.60447 -4.76724 0
M  V30 691 H 59.8102 0.238809 -5.87115 0
M  V30 692 H 61.3342 1.16308 -5.9942 0
M  V30 693 H 62.7482 -1.07905 -5.63054 0
M  V30 694 H 61.1452 -1.86689 -5.70322 0
M  V30 695 H 62.2152 -2.1889 -4.32684 0
M  V30 696 N 63.5583 1.46682 -0.576371 0
M  V30 697 C 64.7833 2.07304 -0.0630475 0
M  V30 698 C 65.2083 1.42329 1.2298 0
M  V30 699 O 64.5663 0.504865 1.74129 0
M  V30 700 C 64.6143 3.60472 0.095895 0
M  V30 701 O 63.7183 3.95927 1.15394 0
M  V30 702 H 63.0593 0.661288 -0.0599463 0
M  V30 703 H 65.5893 1.88417 -0.797511 0
M  V30 704 H 65.5993 4.06865 0.304071 0
M  V30 705 H 64.2743 4.07157 -0.84828 0
M  V30 706 H 62.8513 3.61252 0.924724 0
M  V30 707 N 65.0364 0.313813 1.54444 0
M  V30 708 C 66.2614 -0.296681 2.05267 0
M  V30 709 C 66.6864 -1.45757 1.18897 0
M  V30 710 O 66.0444 -1.80239 0.195886 0
M  V30 711 C 66.0924 -0.71831 3.53373 0
M  V30 712 O 65.1964 -1.82175 3.69981 0
M  V30 713 H 64.5374 -0.0554061 0.661684 0
M  V30 714 H 67.0674 0.459387 1.99376 0
M  V30 715 H 67.0774 -1.00364 3.95463 0
M  V30 716 H 65.7524 0.130821 4.15694 0
M  V30 717 H 64.3294 -1.53598 3.39797 0
M  V30 718 N 66.5145 -1.57545 0.0417849 0
M  V30 719 C 67.7395 -1.97035 -0.647455 0
M  V30 720 C 68.1645 -0.918775 -1.64135 0
M  V30 721 O 67.5225 0.119006 -1.80909 0
M  V30 722 C 67.5705 -3.35609 -1.31905 0
M  V30 723 O 66.6745 -3.3287 -2.43457 0
M  V30 724 H 66.0155 -0.64211 -0.169086 0
M  V30 725 H 68.5455 -2.04318 0.107399 0
M  V30 726 H 68.5555 -3.72126 -1.67291 0
M  V30 727 H 67.2305 -4.11685 -0.590586 0
M  V30 728 H 65.8075 -3.08087 -2.10088 0
M  V30 729 N 67.9926 0.231505 -1.5589 0
M  V30 730 C 68.9426 1.29007 -1.87993 0
M  V30 731 C 69.9266 1.42764 -0.742102 0
M  V30 732 O 71.1186 1.45747 -1.00433 0
M  V30 733 C 68.2476 2.6425 -2.1915 0
M  V30 734 C 67.3336 2.54435 -3.39299 0
M  V30 735 N 67.7246 2.14262 -4.58176 0
M  V30 736 C 66.0226 2.85416 -3.42715 0
M  V30 737 C 66.7236 2.15455 -5.40328 0
M  V30 738 N 65.6996 2.55558 -4.79783 0
M  V30 739 H 69.5016 0.970213 -2.77424 0
M  V30 740 H 67.0156 0.440097 -1.56323 0
M  V30 741 H 69.0126 3.40665 -2.40319 0
M  V30 742 H 67.6726 2.9709 -1.31025 0
M  V30 743 H 68.6836 1.85554 -4.83518 0
M  V30 744 H 65.3606 3.22693 -2.64906 0
M  V30 745 H 66.7506 1.86605 -6.45467 0
M  V30 746 N 69.4707 1.49531 0.497807 0
M  V30 747 C 70.4007 1.6935 1.60757 0
M  V30 748 C 71.3817 0.542218 1.61227 0
M  V30 749 O 72.5667 0.778417 1.77917 0
M  V30 750 C 69.6967 1.76298 2.99226 0
M  V30 751 C 68.6507 2.91248 3.13622 0
M  V30 752 C 67.9767 2.83312 4.53474 0
M  V30 753 C 69.2767 4.3214 2.93346 0
M  V30 754 H 70.9707 2.62263 1.44425 0
M  V30 755 H 68.5167 1.26208 0.693367 0
M  V30 756 H 70.4697 1.88749 3.76765 0
M  V30 757 H 69.1937 0.799871 3.16654 0
M  V30 758 H 67.8527 2.78404 2.38509 0
M  V30 759 H 67.5007 1.84902 4.67782 0
M  V30 760 H 67.2007 3.60465 4.64046 0
M  V30 761 H 68.7247 2.97775 5.33069 0
M  V30 762 H 70.1387 4.45649 3.60652 0
M  V30 763 H 68.5357 5.1054 3.15387 0
M  V30 764 H 69.6057 4.46363 1.89441 0
M  V30 765 N 70.9488 -0.749086 1.3866 0
M  V30 766 C 72.1978 -1.50371 1.3443 0
M  V30 767 C 72.5108 -1.95503 -0.0616397 0
M  V30 768 O 73.7168 -2.70554 -0.226489 0
M  V30 769 C 72.1728 -2.71644 2.36088 0
M  V30 770 C 71.7808 -2.3352 3.82325 0
M  V30 771 C 73.5248 -3.49518 2.40909 0
M  V30 772 C 71.4318 -3.51431 4.75658 0
M  V30 773 H 70.3618 -0.564628 0.499712 0
M  V30 774 H 73.0128 -0.818449 1.64237 0
M  V30 775 H 71.3948 -3.42175 1.9933 0
M  V30 776 H 72.5688 -1.70627 4.28046 0
M  V30 777 H 70.8838 -1.6877 3.80665 0
M  V30 778 H 73.4808 -4.37197 3.07836 0
M  V30 779 H 73.8238 -3.90992 1.42937 0
M  V30 780 H 74.3568 -2.86005 2.76489 0
M  V30 781 H 71.0958 -3.15019 5.74842 0
M  V30 782 H 70.6158 -4.13352 4.34627 0
M  V30 783 H 72.2948 -4.17953 4.93887 0
M  V30 784 N 72.4269 -1.23603 -0.977757 0
M  V30 785 C 73.6519 -1.09735 -1.75991 0
M  V30 786 C 74.0769 0.346858 -1.84874 0
M  V30 787 O 73.4349 1.25093 -1.3123 0
M  V30 788 C 73.4829 -1.73051 -3.16363 0
M  V30 789 O 72.5869 -0.994452 -4.0023 0
M  V30 790 H 71.9279 -0.384476 -0.541364 0
M  V30 791 H 74.4579 -1.6371 -1.2272 0
M  V30 792 H 74.4679 -1.78398 -3.66931 0
M  V30 793 H 73.1429 -2.78137 -3.09213 0
M  V30 794 H 71.7199 -1.01812 -3.58732 0
M  V30 795 N 73.905 1.17692 -1.04816 0
M  V30 796 C 75.145 1.89545 -0.764979 0
M  V30 797 C 75.509 1.78979 0.695028 0
M  V30 798 O 76.71 2.45613 1.09215 0
M  V30 799 C 74.981 3.35659 -1.22751 0
M  V30 800 S 76.54 4.25526 -1.07112 0
M  V30 801 H 73.358 0.654432 -0.27792 0
M  V30 802 H 75.96 1.42163 -1.34201 0
M  V30 803 H 74.664 3.40882 -2.28533 0
M  V30 804 H 74.195 3.88083 -0.644594 0
M  V30 805 H 76.21 4.962 0.00697508 0
M  V30 806 N 75.3831 0.828654 1.34056 0
M  V30 807 C 76.3311 0.242973 2.31327 0
M  V30 808 C 77.3251 -0.61944 1.57668 0
M  V30 809 O 78.5311 -0.51014 1.7262 0
M  V30 810 H 74.9061 0.059834 0.749616 0
M  V30 811 H 76.8771 1.07809 2.78244 0
M  V30 812 C 75.6261 -0.575733 3.429 0
M  V30 813 H 74.9491 0.0785582 3.99723 0
M  V30 814 H 76.3891 -0.951547 4.13185 0
M  V30 815 C 74.8481 -1.75044 2.87856 0
M  V30 816 O 75.3781 -2.84882 2.83205 0
M  V30 817 N 73.5841 -1.56903 2.44602 0
M  V30 818 H 73.1311 -0.675547 2.48584 0
M  V30 819 H 73.0891 -2.35652 2.08124 0
M  V30 820 N 76.8612 -1.46375 0.584142 0
M  V30 821 C 78.0892 -2.06761 0.0759296 0
M  V30 822 C 78.5042 -1.43266 -1.22965 0
M  V30 823 O 77.8612 -0.538458 -1.74376 0
M  V30 824 C 77.9122 -3.61375 -0.0950384 0
M  V30 825 O 77.6332 -4.22495 1.15887 0
M  V30 826 C 79.1342 -4.38693 -0.637434 0
M  V30 827 H 76.3542 -0.668479 0.0581075 0
M  V30 828 H 78.8982 -1.8798 0.805218 0
M  V30 829 H 77.0532 -3.79578 -0.774554 0
M  V30 830 H 77.4672 -5.15385 0.973598 0
M  V30 831 H 78.9412 -5.47464 -0.706237 0
M  V30 832 H 79.4182 -4.06836 -1.65472 0
M  V30 833 H 80.0242 -4.25299 0.00725967 0
M  V30 834 N 78.3393 -0.321999 -1.54275 0
M  V30 835 C 79.5793 0.281657 -2.0245 0
M  V30 836 C 79.9433 1.49468 -1.20513 0
M  V30 837 O 81.1443 2.17109 -1.58484 0
M  V30 838 C 79.4153 0.609014 -3.52173 0
M  V30 839 S 80.9743 1.19255 -4.22284 0
M  V30 840 H 77.7923 0.0852825 -0.705867 0
M  V30 841 H 80.3943 -0.454758 -1.90137 0
M  V30 842 H 79.0983 -0.281982 -4.0943 0
M  V30 843 H 78.6293 1.37567 -3.68563 0
M  V30 844 H 80.6443 2.47944 -4.29812 0
M  V30 845 N 79.8174 1.5752 -0.0501392 0
M  V30 846 C 80.7674 2.07981 0.934231 0
M  V30 847 C 81.7514 0.984745 1.27246 0
M  V30 848 O 82.9434 1.24809 1.25506 0
M  V30 849 C 80.0724 2.62751 2.20945 0
M  V30 850 C 79.1584 3.79225 1.89865 0
M  V30 851 N 79.5494 4.89036 1.29142 0
M  V30 852 C 77.8474 3.88111 2.19741 0
M  V30 853 C 78.5484 5.70084 1.15669 0
M  V30 854 N 77.5244 5.17659 1.65923 0
M  V30 855 H 81.3264 2.90277 0.460053 0
M  V30 856 H 78.8404 1.61665 0.15434 0
M  V30 857 H 80.8374 2.97205 2.9236 0
M  V30 858 H 79.4974 1.81894 2.6897 0
M  V30 859 H 80.5084 5.08854 0.963756 0
M  V30 860 H 77.1854 3.18194 2.70293 0
M  V30 861 H 78.5754 6.68395 0.685356 0
M  V30 862 N 81.2955 -0.223234 1.56011 0
M  V30 863 C 82.2435 -1.29627 1.93131 0
M  V30 864 C 83.2375 -1.48608 0.813146 0
M  V30 865 O 84.4435 -1.49802 0.997966 0
M  V30 866 H 80.8185 -0.434563 0.613726 0
M  V30 867 H 82.7895 -0.955995 2.82672 0
M  V30 868 C 81.5385 -2.63983 2.26292 0
M  V30 869 H 80.8615 -2.50185 3.11846 0
M  V30 870 H 82.3015 -3.3788 2.56151 0
M  V30 871 C 80.7605 -3.18866 1.08747 0
M  V30 872 O 81.2905 -4.00192 0.347727 0
M  V30 873 N 79.4965 -2.77217 0.871743 0
M  V30 874 H 79.0435 -2.1119 1.47501 0
M  V30 875 H 79.0015 -3.1428 0.0869905 0
M  V30 876 N 82.7736 -1.49793 -0.48987 0
M  V30 877 C 84.0196 -1.60078 -1.24511 0
M  V30 878 C 84.3526 -0.291608 -1.91998 0
M  V30 879 O 83.6276 0.705647 -1.81248 0
M  V30 880 C 83.9106 -2.76791 -2.30345 0
M  V30 881 C 83.7636 -4.17535 -1.67286 0
M  V30 882 C 85.0826 -2.89111 -3.31817 0
M  V30 883 H 82.2016 -0.582645 -0.451324 0
M  V30 884 H 84.8436 -1.82117 -0.541612 0
M  V30 885 H 82.9936 -2.5813 -2.90346 0
M  V30 886 H 84.6656 -4.4774 -1.11026 0
M  V30 887 H 82.9086 -4.22665 -0.976577 0
M  V30 888 H 83.5796 -4.95094 -2.44103 0
M  V30 889 H 86.0556 -3.06133 -2.81819 0
M  V30 890 H 84.9316 -3.72433 -4.03219 0
M  V30 891 H 85.1926 -1.9893 -3.94815 0
M  V30 892 N 84.2517 0.741722 -1.39055 0
M  V30 893 C 85.4997 1.49818 -1.35643 0
M  V30 894 C 85.8207 1.94938 0.0491642 0
M  V30 895 O 85.0907 1.68505 0.999141 0
M  V30 896 H 83.6707 0.555755 -0.499144 0
M  V30 897 H 86.3327 0.880957 -1.73854 0
M  V30 898 H 85.4287 2.38348 -2.01486 0
M  V30 899 N 85.7298 1.2412 0.971189 0
M  V30 900 C 86.6598 1.05508 2.08304 0
M  V30 901 C 87.6408 -0.0308864 1.70072 0
M  V30 902 O 88.8258 0.135521 1.93727 0
M  V30 903 C 85.9558 0.655365 3.4106 0
M  V30 904 C 84.9098 1.68971 3.93234 0
M  V30 905 C 84.2358 1.14516 5.22293 0
M  V30 906 C 85.5358 3.08487 4.21465 0
M  V30 907 H 87.2298 1.98507 2.24132 0
M  V30 908 H 84.7758 0.955821 1.07704 0
M  V30 909 H 86.7288 0.51217 4.18276 0
M  V30 910 H 85.4528 -0.31032 3.25122 0
M  V30 911 H 84.1118 1.82106 3.18171 0
M  V30 912 H 83.7598 0.170189 5.02712 0
M  V30 913 H 83.4598 1.83635 5.58168 0
M  V30 914 H 84.9838 1.01401 6.02121 0
M  V30 915 H 86.3978 2.98601 4.89398 0
M  V30 916 H 84.7948 3.74926 4.68562 0
M  V30 917 H 85.8648 3.56787 3.28376 0
M  V30 918 N 87.2079 -1.17134 1.05439 0
M  V30 919 C 88.4559 -1.87085 0.764429 0
M  V30 920 C 88.7769 -1.81584 -0.710787 0
M  V30 921 O 88.0469 -1.24349 -1.51374 0
M  V30 922 H 86.6269 -0.692627 0.279779 0
M  V30 923 H 89.2889 -1.42087 1.33406 0
M  V30 924 H 88.3849 -2.92759 1.0816 0
M  V30 925 N 88.686 -0.835752 -1.33615 0
M  V30 926 C 89.934 -0.429109 -1.97492 0
M  V30 927 C 90.255 1.01433 -1.66543 0
M  V30 928 O 89.525 1.70611 -0.962744 0
M  V30 929 H 88.105 -0.155686 -0.730596 0
M  V30 930 H 90.767 -1.06802 -1.63031 0
M  V30 931 H 89.863 -0.55861 -3.0706 0
M  V30 932 N 90.1641 1.46063 -0.591896 0
M  V30 933 C 91.4411 1.95595 -0.0137119 0
M  V30 934 C 91.8211 1.5345 1.4497 0
M  V30 935 O 91.1691 0.789543 2.14426 0
M  V30 936 C 91.3791 3.48453 -0.195373 0
M  V30 937 C 92.7271 4.24546 -0.0679765 0
M  V30 938 O 93.7511 3.55982 -0.124681 0
M  V30 939 O 92.6101 5.46467 0.0600579 0
M  V30 940 H 89.7041 0.825795 0.0446279 0
M  V30 941 H 92.2501 1.56303 -0.660859 0
M  V30 942 H 91.0221 3.72045 -1.21235 0
M  V30 943 H 90.6451 3.94597 0.487775 0
M  V30 944 N 91.6422 0.330177 1.54103 0
M  V30 945 C 92.9192 -0.325007 1.92881 0
M  V30 946 C 93.2992 -1.6934 1.26045 0
M  V30 947 O 92.6472 -2.24855 0.406526 0
M  V30 948 C 92.8572 -0.410634 3.46576 0
M  V30 949 C 94.2052 -0.667801 4.19316 0
M  V30 950 O 95.2292 -0.49329 3.52768 0
M  V30 951 O 94.0882 -1.00491 5.37181 0
M  V30 952 H 91.1822 -0.186873 0.80561 0
M  V30 953 H 93.7282 0.380376 1.65382 0
M  V30 954 H 92.5002 0.550164 3.87413 0
M  V30 955 H 92.1232 -1.16333 3.802 0
M  V30 956 N 93.1203 -1.57491 0.0584922 0
M  V30 957 C 94.0303 -2.15448 -0.928414 0
M  V30 958 C 95.0463 -1.11416 -1.3365 0
M  V30 959 O 96.2223 -1.4362 -1.41193 0
M  V30 960 C 93.2873 -2.69393 -2.18239 0
M  V30 961 C 92.3483 -3.88249 -1.83196 0
M  V30 962 C 91.5813 -4.39613 -3.02616 0
M  V30 963 O 91.8043 -3.90023 -4.16219 0
M  V30 964 O 90.7383 -5.31111 -2.83204 0
M  V30 965 H 94.5643 -3.00112 -0.465483 0
M  V30 966 H 92.1493 -1.48499 -0.163826 0
M  V30 967 H 94.0313 -3.04026 -2.91798 0
M  V30 968 H 92.7063 -1.87796 -2.63656 0
M  V30 969 H 91.6133 -3.58492 -1.06931 0
M  V30 970 H 92.9463 -4.71098 -1.42573 0
M  V30 971 N 94.5984 0.214957 -1.56127 0
M  V30 972 C 95.5284 1.2695 -1.95974 0
M  V30 973 C 96.5094 1.48539 -0.828868 0
M  V30 974 O 97.6944 1.60611 -1.09168 0
M  V30 975 C 94.8244 2.61794 -2.28214 0
M  V30 976 C 93.7784 2.54851 -3.43853 0
M  V30 977 C 93.1044 3.93785 -3.61715 0
M  V30 978 C 94.4044 2.09065 -4.78632 0
M  V30 979 H 96.0984 0.93846 -2.84312 0
M  V30 980 H 93.6444 0.449996 -1.36788 0
M  V30 981 H 95.5974 3.35731 -2.54682 0
M  V30 982 H 94.3214 2.96599 -1.36736 0
M  V30 983 H 92.9804 1.8337 -3.17444 0
M  V30 984 H 92.6284 4.25908 -2.67602 0
M  V30 985 H 92.3284 3.90019 -4.39498 0
M  V30 986 H 93.8524 4.69374 -3.90539 0
M  V30 987 H 95.2664 2.7275 -5.04262 0
M  V30 988 H 93.6634 2.16346 -5.59745 0
M  V30 989 H 94.7334 1.04315 -4.73547 0
M  V30 990 N 96.0765 1.50051 0.48192 0
M  V30 991 C 97.4875 1.5348 1.06305 0
M  V30 992 C 97.8385 0.331997 1.93371 0
M  V30 993 O 96.9635 -0.556256 2.09129 0
M  V30 994 C 97.5585 2.7813 1.93466 0
M  V30 995 C 96.1175 2.84275 2.46707 0
M  V30 996 C 95.2645 2.47637 1.24785 0
M  V30 997 H 98.2155 1.56472 0.264995 0
M  V30 998 H 98.2365 2.59372 2.78399 0
M  V30 999 H 97.7485 3.65654 1.30072 0
M  V30 1000 H 95.8495 2.01077 3.13686 0
M  V30 1001 H 95.9625 3.8691 2.82555 0
M  V30 1002 H 94.3265 1.99835 1.57918 0
M  V30 1003 H 95.1095 3.37457 0.630694 0
M  V30 1004 N 97.5546 -0.734337 1.39446 0
M  V30 1005 C 98.7826 -1.52358 1.39981 0
M  V30 1006 C 99.1976 -1.88799 -0.0054975 0
M  V30 1007 O 98.5546 -1.54146 -0.976998 0
M  V30 1008 C 98.6056 -2.81072 2.27333 0
M  V30 1009 O 98.3266 -2.46178 3.62392 0
M  V30 1010 C 99.8276 -3.75096 2.36259 0
M  V30 1011 H 97.0476 -0.470806 0.478103 0
M  V30 1012 H 99.5916 -0.907339 1.83269 0
M  V30 1013 H 97.7466 -3.39026 1.87457 0
M  V30 1014 H 98.1606 -3.28866 4.08592 0
M  V30 1015 H 99.6346 -4.62305 3.01626 0
M  V30 1016 H 100.112 -4.16892 1.38194 0
M  V30 1017 H 100.718 -3.23061 2.76608 0
M  V30 1018 N 99.0327 -1.24633 -0.964593 0
M  V30 1019 C 100.258 -1.11596 -1.74818 0
M  V30 1020 C 100.683 0.32723 -1.85232 0
M  V30 1021 O 100.041 1.23695 -1.32549 0
M  V30 1022 C 100.089 -1.76397 -3.1451 0
M  V30 1023 O 99.1927 -1.03685 -3.99153 0
M  V30 1024 H 98.5337 -0.390196 -0.537255 0
M  V30 1025 H 101.064 -1.65002 -1.20977 0
M  V30 1026 H 101.074 -1.8228 -3.65018 0
M  V30 1027 H 99.7487 -2.81401 -3.06246 0
M  V30 1028 H 98.3257 -1.05611 -3.57632 0
M  V30 1029 N 100.511 1.16574 -1.06058 0
M  V30 1030 C 101.76 1.86385 -0.770944 0
M  V30 1031 C 102.073 1.82448 0.705129 0
M  V30 1032 O 103.279 2.47815 1.10905 0
M  V30 1033 C 101.735 3.34466 -1.32893 0
M  V30 1034 C 101.343 3.46883 -2.83507 0
M  V30 1035 C 103.087 4.09548 -1.11672 0
M  V30 1036 C 100.994 4.89036 -3.32562 0
M  V30 1037 H 99.9238 0.698181 -0.284709 0
M  V30 1038 H 102.575 1.31583 -1.27899 0
M  V30 1039 H 100.957 3.88859 -0.748662 0
M  V30 1040 H 102.131 3.02663 -3.47465 0
M  V30 1041 H 100.446 2.85232 -3.03368 0
M  V30 1042 H 103.043 5.14434 -1.45814 0
M  V30 1043 H 103.386 4.16264 -0.0549535 0
M  V30 1044 H 103.919 3.61387 -1.66265 0
M  V30 1045 H 100.658 4.87499 -4.38207 0
M  V30 1046 H 100.178 5.3389 -2.73351 0
M  V30 1047 H 101.857 5.57843 -3.2775 0
M  V30 1048 N 101.989 0.842826 1.3317 0
M  V30 1049 C 103.237 0.439577 1.97262 0
M  V30 1050 C 103.558 -1.00548 1.67078 0
M  V30 1051 O 102.828 -1.70098 0.971779 0
M  V30 1052 H 101.408 0.159558 0.72976 0
M  V30 1053 H 104.07 1.07665 1.62463 0
M  V30 1054 H 103.166 0.574886 3.0676 0
M  V30 1055 N 103.467 -1.45747 0.599634 0
M  V30 1056 C 104.417 -2.27538 -0.145107 0
M  V30 1057 C 105.401 -1.3686 -0.846055 0
M  V30 1058 O 106.593 -1.6091 -0.737357 0
M  V30 1059 C 103.722 -3.23569 -1.14708 0
M  V30 1060 C 102.808 -4.21734 -0.447383 0
M  V30 1061 N 103.199 -5.03257 0.506535 0
M  V30 1062 C 101.497 -4.40536 -0.695966 0
M  V30 1063 C 102.198 -5.74426 0.917068 0
M  V30 1064 N 101.174 -5.42966 0.26253 0
M  V30 1065 H 104.976 -2.87965 0.587672 0
M  V30 1066 H 102.49 -1.56803 0.422697 0
M  V30 1067 H 104.487 -3.8089 -1.69495 0
M  V30 1068 H 103.147 -2.64702 -1.8805 0
M  V30 1069 H 104.158 -5.10319 0.882899 0
M  V30 1070 H 100.835 -3.92802 -1.41467 0
M  V30 1071 H 102.225 -6.4995 1.70338 0
M  V30 1072 N 104.945 -0.338344 -1.53925 0
M  V30 1073 C 106.193 0.259245 -2.0043 0
M  V30 1074 C 106.514 1.51484 -1.22791 0
M  V30 1075 O 105.784 1.93037 -0.33368 0
M  V30 1076 H 104.364 0.0987845 -0.740439 0
M  V30 1077 H 107.026 -0.458302 -1.89435 0
M  V30 1078 H 106.122 0.505334 -3.07982 0
M  V30 1079 N 106.423 1.57458 -0.0668435 0
M  V30 1080 C 107.669 1.94401 0.598316 0
M  V30 1081 C 108.024 0.946335 1.67518 0
M  V30 1082 O 107.317 -0.0321442 1.91573 0
M  V30 1083 C 107.511 3.35784 1.22409 0
M  V30 1084 C 107.34 4.49212 0.209367 0
M  V30 1085 C 106.11 5.04887 -0.204218 0
M  V30 1086 C 108.308 5.11335 -0.551431 0
M  V30 1087 N 106.29 6.01854 -1.21016 0
M  V30 1088 C 107.661 6.03754 -1.41 0
M  V30 1089 C 109.716 4.94173 -0.608038 0
M  V30 1090 C 108.419 6.80854 -2.32013 0
M  V30 1091 C 110.445 5.71912 -1.50566 0
M  V30 1092 C 109.807 6.63976 -2.35191 0
M  V30 1093 H 105.906 0.758538 0.190114 0
M  V30 1094 H 108.49 1.94175 -0.142832 0
M  V30 1095 H 106.661 3.36757 1.93518 0
M  V30 1096 H 108.393 3.59976 1.84931 0
M  V30 1097 H 105.148 4.73266 0.177908 0
M  V30 1098 H 105.572 6.55035 -1.71049 0
M  V30 1099 H 110.214 4.22788 0.032022 0
M  V30 1100 H 107.932 7.5152 -2.97057 0
M  V30 1101 H 111.518 5.60656 -1.55423 0
M  V30 1102 H 110.398 7.2308 -3.03522 0
M  V30 1103 N 107.901 -0.206675 1.56239 0
M  V30 1104 C 108.833 -1.27997 1.9013 0
M  V30 1105 C 109.846 -1.42299 0.790883 0
M  V30 1106 O 111.035 -1.42931 1.06925 0
M  V30 1107 C 108.135 -2.65368 2.10792 0
M  V30 1108 C 107.308 -2.72824 3.41886 0
M  V30 1109 C 106.367 -3.9131 3.51799 0
M  V30 1110 O 105.393 -3.78953 4.24716 0
M  V30 1111 N 106.595 -5.06265 2.84035 0
M  V30 1112 H 109.36 -0.992444 2.82791 0
M  V30 1113 H 106.921 -0.396652 1.56966 0
M  V30 1114 H 108.913 -3.43039 2.14724 0
M  V30 1115 H 107.483 -2.86657 1.24685 0
M  V30 1116 H 106.703 -1.81515 3.49923 0
M  V30 1117 H 107.991 -2.74786 4.28217 0
M  V30 1118 H 107.389 -5.19203 2.246 0
M  V30 1119 H 105.946 -5.81925 2.93609 0
M  V30 1120 N 109.379 -1.50304 -0.473955 0
M  V30 1121 C 110.326 -1.68959 -1.57231 0
M  V30 1122 C 111.296 -0.530899 -1.57387 0
M  V30 1123 O 112.481 -0.761133 -1.74961 0
M  V30 1124 C 109.621 -1.7871 -2.95223 0
M  V30 1125 C 108.734 -3.06061 -3.04878 0
M  V30 1126 C 107.869 -3.06626 -4.33767 0
M  V30 1127 C 106.908 -4.28443 -4.37154 0
M  V30 1128 N 106.045 -4.26763 -5.5751 0
M  V30 1129 H 110.885 -2.6273 -1.40631 0
M  V30 1130 H 108.422 -1.30241 -0.683789 0
M  V30 1131 H 110.38 -1.82344 -3.75242 0
M  V30 1132 H 109.01 -0.883806 -3.10465 0
M  V30 1133 H 108.062 -3.11911 -2.17751 0
M  V30 1134 H 109.374 -3.96039 -3.0324 0
M  V30 1135 H 108.528 -3.08973 -5.22131 0
M  V30 1136 H 107.267 -2.14473 -4.3801 0
M  V30 1137 H 106.272 -4.2631 -3.47188 0
M  V30 1138 H 107.497 -5.2182 -4.34605 0
M  V30 1139 H 105.443 -3.37462 -5.62544 0
M  V30 1140 H 105.36 -5.10507 -5.57601 0
M  V30 1141 H 106.628 -4.33253 -6.48006 0
M  V30 1142 N 110.857 0.726932 -1.39834 0
M  V30 1143 C 112.105 1.4837 -1.37225 0
M  V30 1144 C 112.426 1.94979 0.0284857 0
M  V30 1145 O 111.696 1.69555 0.981213 0
M  V30 1146 H 110.276 0.55043 -0.505011 0
M  V30 1147 H 112.938 0.862468 -1.74778 0
M  V30 1148 H 112.034 2.36198 -2.04003 0
M  V30 1149 N 112.336 1.25143 0.95797 0
M  V30 1150 C 113.747 1.08851 1.51685 0
M  V30 1151 C 114.098 -0.33687 1.93286 0
M  V30 1152 O 113.223 -1.22644 1.7829 0
M  V30 1153 C 113.818 1.96978 2.75654 0
M  V30 1154 C 112.377 1.84881 3.27866 0
M  V30 1155 C 111.524 1.91329 2.0072 0
M  V30 1156 H 114.475 1.38478 0.77522 0
M  V30 1157 H 114.496 1.5078 3.4935 0
M  V30 1158 H 114.008 3.00712 2.45345 0
M  V30 1159 H 112.109 0.840182 3.63004 0
M  V30 1160 H 112.222 2.6951 3.96107 0
M  V30 1161 H 110.586 1.35174 2.15871 0
M  V30 1162 H 111.369 2.96661 1.72764 0
M  V30 1163 N 113.814 -1.1601 1.06675 0
M  V30 1164 C 115.23 -1.38622 0.790948 0
M  V30 1165 C 115.43 -1.92109 -0.607965 0
M  V30 1166 O 114.486 -2.12239 -1.36787 0
M  V30 1167 C 115.799 -2.36347 1.85905 0
M  V30 1168 C 117.347 -2.50023 1.88301 0
M  V30 1169 C 117.822 -3.51033 2.94176 0
M  V30 1170 N 119.313 -3.58563 2.93235 0
M  V30 1171 C 120.048 -4.36521 3.71803 0
M  V30 1172 N 119.544 -5.17869 4.602 0
M  V30 1173 N 121.337 -4.31541 3.60178 0
M  V30 1174 H 113.488 -0.796294 1.96908 0
M  V30 1175 H 115.751 -0.412597 0.853503 0
M  V30 1176 H 115.457 -2.04147 2.86386 0
M  V30 1177 H 115.331 -3.36042 1.71334 0
M  V30 1178 H 117.718 -2.81524 0.884769 0
M  V30 1179 H 117.799 -1.5035 2.06951 0
M  V30 1180 H 117.443 -3.20268 3.94196 0
M  V30 1181 H 117.373 -4.50445 2.72776 0
M  V30 1182 H 119.864 -3.00496 2.29152 0
M  V30 1183 H 120.177 -5.74578 5.16797 0
M  V30 1184 H 118.522 -5.17199 4.64253 0
M  V30 1185 H 121.713 -3.67051 2.90502 0
M  V30 1186 H 121.886 -4.9205 4.21653 0
M  V30 1187 N 115.292 -0.849877 -1.32721 0
M  V30 1188 C 116.24 -0.279745 -2.30912 0
M  V30 1189 C 117.234 0.594278 -1.58634 0
M  V30 1190 O 118.44 0.482613 -1.73409 0
M  V30 1191 H 114.815 -0.0717521 -0.748569 0
M  V30 1192 H 116.786 -1.12222 -2.76494 0
M  V30 1193 C 115.535 0.521108 -3.43773 0
M  V30 1194 H 114.858 -0.142141 -3.99547 0
M  V30 1195 H 116.298 0.885693 -4.14646 0
M  V30 1196 C 114.757 1.70442 -2.90605 0
M  V30 1197 O 115.287 2.8034 -2.87702 0
M  V30 1198 N 113.493 1.52991 -2.47067 0
M  V30 1199 H 113.04 0.635914 -2.49628 0
M  V30 1200 H 112.998 2.32311 -2.11847 0
M  V30 1201 N 116.77 1.45427 -0.607355 0
M  V30 1202 C 117.995 2.07124 -0.107006 0
M  V30 1203 C 118.42 1.44906 1.19933 0
M  V30 1204 O 117.778 0.541687 1.73019 0
M  V30 1205 C 117.826 3.60595 0.0194119 0
M  V30 1206 O 116.93 3.98285 1.0697 0
M  V30 1207 H 116.271 0.659868 -0.0739597 0
M  V30 1208 H 118.801 1.86683 -0.837297 0
M  V30 1209 H 118.811 4.07419 0.2177 0
M  V30 1210 H 117.486 4.05266 -0.934453 0
M  V30 1211 H 116.063 3.63133 0.847889 0
M  V30 1212 N 118.248 0.346503 1.53744 0
M  V30 1213 C 119.659 -0.136779 1.86198 0
M  V30 1214 C 120.01 -1.49749 1.26766 0
M  V30 1215 O 119.135 -2.08417 0.582355 0
M  V30 1216 C 119.73 -0.254966 3.37839 0
M  V30 1217 C 118.289 -0.682482 3.70161 0
M  V30 1218 C 117.436 0.181981 2.76702 0
M  V30 1219 H 120.387 0.565994 1.48264 0
M  V30 1220 H 120.408 -1.08195 3.64793 0
M  V30 1221 H 119.92 0.735526 3.81066 0
M  V30 1222 H 118.021 -1.68189 3.3248 0
M  V30 1223 H 118.134 -0.470326 4.76786 0
M  V30 1224 H 116.498 -0.34615 2.52337 0
M  V30 1225 H 117.281 1.16966 3.2276 0
M  V30 1226 N 119.726 -1.57421 0.075193 0
M  V30 1227 C 120.954 -1.97946 -0.602076 0
M  V30 1228 C 121.369 -0.953674 -1.62943 0
M  V30 1229 O 120.726 0.0592551 -1.82404 0
M  V30 1230 C 120.777 -3.38546 -1.26762 0
M  V30 1231 O 120.498 -4.37195 -0.281376 0
M  V30 1232 C 121.999 -3.93966 -2.03239 0
M  V30 1233 H 119.219 -0.650918 -0.162931 0
M  V30 1234 H 121.763 -2.03959 0.148601 0
M  V30 1235 H 119.918 -3.33609 -1.96936 0
M  V30 1236 H 120.332 -5.18975 -0.759267 0
M  V30 1237 H 121.806 -4.94555 -2.45193 0
M  V30 1238 H 122.283 -3.30693 -2.8903 0
M  V30 1239 H 122.889 -4.02315 -1.37924 0
M  V30 1240 N 121.204 0.198386 -1.56346 0
M  V30 1241 C 122.45 0.920648 -1.80698 0
M  V30 1242 C 122.783 1.83045 -0.648697 0
M  V30 1243 O 122.058 1.91308 0.350925 0
M  V30 1244 C 122.341 1.73971 -3.15287 0
M  V30 1245 C 122.194 0.85485 -4.41602 0
M  V30 1246 C 123.513 2.71296 -3.46535 0
M  V30 1247 H 120.632 0.333261 -0.657348 0
M  V30 1248 H 123.274 0.188198 -1.89066 0
M  V30 1249 H 121.424 2.36416 -3.08285 0
M  V30 1250 H 123.096 0.245362 -4.60647 0
M  V30 1251 H 121.339 0.161398 -4.335 0
M  V30 1252 H 122.01 1.46286 -5.32264 0
M  V30 1253 H 124.486 2.18983 -3.53816 0
M  V30 1254 H 123.362 3.2569 -4.41834 0
M  V30 1255 H 123.623 3.5018 -2.69864 0
M  V30 1256 N 122.682 1.50554 0.465978 0
M  V30 1257 C 123.929 1.61798 1.21768 0
M  V30 1258 C 124.257 0.320696 1.91838 0
M  V30 1259 O 123.512 -0.693724 1.82992 0
M  V30 1260 C 123.811 2.75152 2.28093 0
M  V30 1261 C 123.477 4.15454 1.75239 0
M  V30 1262 C 122.139 4.53628 1.60546 0
M  V30 1263 C 124.491 5.03121 1.36083 0
M  V30 1264 C 121.819 5.77204 1.05128 0
M  V30 1265 C 124.171 6.27249 0.821056 0
M  V30 1266 C 122.835 6.64221 0.660795 0
M  V30 1267 H 122.105 0.592063 0.445582 0
M  V30 1268 H 124.752 1.84503 0.512927 0
M  V30 1269 H 123.057 2.46556 3.04496 0
M  V30 1270 H 124.754 2.81055 2.86023 0
M  V30 1271 H 121.344 3.85341 1.87644 0
M  V30 1272 H 125.528 4.74257 1.46267 0
M  V30 1273 H 120.784 6.0452 0.91462 0
M  V30 1274 H 124.958 6.94537 0.509018 0
M  V30 1275 H 122.585 7.59854 0.229226 0
M  V30 1276 N 124.16 -0.719506 1.40217 0
M  V30 1277 C 125.108 -1.85493 1.40339 0
M  V30 1278 C 126.102 -1.66995 0.284415 0
M  V30 1279 O 127.308 -1.74148 0.455252 0
M  V30 1280 H 123.683 -0.610857 0.438586 0
M  V30 1281 H 125.654 -1.82506 2.36081 0
M  V30 1282 C 124.403 -3.23321 1.27901 0
M  V30 1283 H 123.726 -3.38159 2.1328 0
M  V30 1284 H 125.166 -4.02914 1.32045 0
M  V30 1285 C 123.625 -3.36898 -0.0111355 0
M  V30 1286 O 124.155 -3.89674 -0.975538 0
M  V30 1287 N 122.361 -2.90492 -0.0793393 0
M  V30 1288 H 121.908 -2.47731 0.706183 0
M  V30 1289 H 121.866 -2.99955 -0.942038 0
M  V30 1290 N 125.638 -1.25649 -0.95132 0
M  V30 1291 C 126.601 -1.06399 -2.03007 0
M  V30 1292 C 127.601 -0.0156794 -1.60792 0
M  V30 1293 O 128.791 -0.25817 -1.72276 0
M  V30 1294 C 125.923 -0.616184 -3.35285 0
M  V30 1295 H 127.116 -2.02164 -2.21517 0
M  V30 1296 H 124.669 -1.08103 -1.12887 0
M  V30 1297 H 125.404 0.343917 -3.22471 0
M  V30 1298 H 125.189 -1.37301 -3.67275 0
M  V30 1299 H 126.679 -0.503032 -4.14559 0
M  V30 1300 N 127.117 1.15442 -1.07289 0
M  V30 1301 C 128.363 1.86489 -0.796846 0
M  V30 1302 C 128.696 1.82078 0.675371 0
M  V30 1303 O 127.971 1.24346 1.4956 0
M  V30 1304 C 128.254 3.35626 -1.30489 0
M  V30 1305 C 128.107 3.48673 -2.84161 0
M  V30 1306 C 129.426 4.30357 -0.920907 0
M  V30 1307 H 126.545 0.677144 -0.290939 0
M  V30 1308 H 129.187 1.35633 -1.33056 0
M  V30 1309 H 127.337 3.79068 -0.850883 0
M  V30 1310 H 129.009 3.14099 -3.37846 0
M  V30 1311 H 127.252 2.90253 -3.22391 0
M  V30 1312 H 127.923 4.53453 -3.14777 0
M  V30 1313 H 130.399 3.94871 -1.3121 0
M  V30 1314 H 129.275 5.33193 -1.30372 0
M  V30 1315 H 129.536 4.4176 0.173226 0
M  V30 1316 N 128.595 0.856903 1.32268 0
M  V30 1317 C 129.842 0.461386 1.97174 0
M  V30 1318 C 130.17 -0.983491 1.67803 0
M  V30 1319 O 129.425 -1.70541 0.959903 0
M  V30 1320 C 129.724 0.649919 3.51441 0
M  V30 1321 C 129.39 2.0656 4.00804 0
M  V30 1322 C 128.052 2.45279 4.13995 0
M  V30 1323 C 130.404 2.98947 4.26943 0
M  V30 1324 C 127.732 3.75653 4.50668 0
M  V30 1325 C 130.084 4.28822 4.65075 0
M  V30 1326 C 128.748 4.67472 4.76472 0
M  V30 1327 H 128.018 0.168833 0.72151 0
M  V30 1328 H 130.665 1.08739 1.57633 0
M  V30 1329 H 128.97 -0.0593018 3.91755 0
M  V30 1330 H 130.667 0.32391 3.9969 0
M  V30 1331 H 127.257 1.75495 3.91024 0
M  V30 1332 H 131.441 2.70265 4.16258 0
M  V30 1333 H 126.697 4.05379 4.57688 0
M  V30 1334 H 130.871 5.0047 4.84255 0
M  V30 1335 H 128.498 5.68539 5.04646 0
M  V30 1336 N 130.073 -1.45103 0.615059 0
M  V30 1337 C 131.021 -2.32331 -0.111791 0
M  V30 1338 C 132.015 -1.46409 -0.852102 0
M  V30 1339 O 133.221 -1.62849 -0.766821 0
M  V30 1340 H 129.596 -0.749993 -0.0549072 0
M  V30 1341 H 131.567 -2.91407 0.642225 0
M  V30 1342 C 130.316 -3.3015 -1.09071 0
M  V30 1343 H 129.639 -3.96265 -0.530485 0
M  V30 1344 H 131.079 -3.93898 -1.56908 0
M  V30 1345 C 129.538 -2.57875 -2.168 0
M  V30 1346 O 130.068 -2.36567 -3.24652 0
M  V30 1347 N 128.274 -2.17884 -1.92289 0
M  V30 1348 H 127.821 -2.35413 -1.04587 0
M  V30 1349 H 127.779 -1.6985 -2.64572 0
M  V30 1350 N 131.551 -0.354651 -1.53558 0
M  V30 1351 C 132.514 0.484566 -2.24019 0
M  V30 1352 C 133.514 1.01861 -1.24422 0
M  V30 1353 O 134.704 0.906097 -1.4878 0
M  V30 1354 C 131.836 1.67615 -2.96847 0
M  V30 1355 H 133.029 -0.131843 -2.9961 0
M  V30 1356 H 130.582 -0.106165 -1.55939 0
M  V30 1357 H 131.317 2.33095 -2.25471 0
M  V30 1358 H 131.102 1.30029 -3.69912 0
M  V30 1359 H 132.592 2.27114 -3.50441 0
M  V30 1360 N 133.029 1.57378 -0.0835403 0
M  V30 1361 C 133.992 2.12252 0.864959 0
M  V30 1362 C 134.992 1.04916 1.21858 0
M  V30 1363 O 136.182 1.30853 1.14991 0
M  V30 1364 C 133.314 2.63358 2.16461 0
M  V30 1365 H 134.507 2.97371 0.388676 0
M  V30 1366 H 132.06 1.55423 0.165317 0
M  V30 1367 H 132.795 1.81727 2.686 0
M  V30 1368 H 132.58 3.41826 1.92087 0
M  V30 1369 H 134.07 3.05847 2.84337 0
M  V30 1370 N 134.507 -0.190092 1.56449 0
M  V30 1371 C 135.439 -1.25973 1.91477 0
M  V30 1372 C 136.452 -1.41452 0.805931 0
M  V30 1373 O 137.641 -1.41789 1.08435 0
M  V30 1374 C 134.741 -2.63117 2.13594 0
M  V30 1375 C 133.914 -2.69182 3.4476 0
M  V30 1376 C 132.973 -3.87557 3.5593 0
M  V30 1377 O 131.999 -3.74427 4.28711 0
M  V30 1378 N 133.201 -5.03224 2.89388 0
M  V30 1379 H 135.966 -0.962394 2.83828 0
M  V30 1380 H 133.527 -0.379981 1.57378 0
M  V30 1381 H 135.519 -3.40742 2.1835 0
M  V30 1382 H 134.089 -2.85319 1.27719 0
M  V30 1383 H 133.309 -1.77793 3.51828 0
M  V30 1384 H 134.597 -2.70229 4.31107 0
M  V30 1385 H 133.995 -5.16791 2.30094 0
M  V30 1386 H 132.552 -5.78778 2.99764 0
M  V30 1387 N 135.985 -1.50799 -0.457987 0
M  V30 1388 C 137.232 -1.62442 -1.20908 0
M  V30 1389 C 137.56 -0.330865 -1.91665 0
M  V30 1390 O 136.815 0.68401 -1.83357 0
M  V30 1391 C 137.114 -2.76358 -2.2663 0
M  V30 1392 C 136.78 -4.16378 -1.73033 0
M  V30 1393 C 135.442 -4.54473 -1.58138 0
M  V30 1394 C 137.794 -5.03836 -1.33413 0
M  V30 1395 C 135.122 -5.77754 -1.02065 0
M  V30 1396 C 137.474 -6.27676 -0.78778 0
M  V30 1397 C 136.138 -6.64562 -0.625561 0
M  V30 1398 H 135.408 -0.594417 -0.442435 0
M  V30 1399 H 138.055 -1.84772 -0.503136 0
M  V30 1400 H 136.36 -2.48167 -3.03184 0
M  V30 1401 H 138.057 -2.82568 -2.84528 0
M  V30 1402 H 134.647 -3.86331 -1.85598 0
M  V30 1403 H 138.831 -4.75026 -1.4375 0
M  V30 1404 H 134.087 -6.04997 -0.882547 0
M  V30 1405 H 138.261 -6.94797 -0.472177 0
M  V30 1406 H 135.888 -7.59965 -0.188926 0
M  V30 1407 N 137.463 0.71206 -1.40597 0
M  V30 1408 C 138.709 1.47292 -1.40274 0
M  V30 1409 C 139.064 1.92399 -0.00576812 0
M  V30 1410 O 138.357 1.65507 0.965297 0
M  V30 1411 C 138.551 2.71039 -2.32965 0
M  V30 1412 C 138.38 2.38035 -3.81536 0
M  V30 1413 C 137.15 2.29203 -4.50327 0
M  V30 1414 C 139.348 2.02076 -4.72938 0
M  V30 1415 N 137.33 1.88911 -5.84111 0
M  V30 1416 C 138.701 1.72412 -5.95545 0
M  V30 1417 C 140.756 1.88742 -4.60739 0
M  V30 1418 C 139.459 1.30756 -7.07316 0
M  V30 1419 C 141.485 1.4849 -5.72455 0
M  V30 1420 C 140.847 1.19726 -6.94151 0
M  V30 1421 H 136.946 0.536919 -0.568544 0
M  V30 1422 H 139.53 0.825424 -1.76337 0
M  V30 1423 H 137.701 3.33533 -1.99023 0
M  V30 1424 H 139.433 3.37404 -2.23474 0
M  V30 1425 H 136.188 2.47059 -4.04053 0
M  V30 1426 H 136.612 1.71293 -6.54972 0
M  V30 1427 H 141.254 2.0964 -3.67166 0
M  V30 1428 H 138.972 1.08601 -8.00769 0
M  V30 1429 H 142.558 1.38747 -5.65014 0
M  V30 1430 H 141.438 0.890482 -7.79128 0
M  V30 1431 N 138.941 1.26152 0.944643 0
M  V30 1432 C 140.218 1.02247 1.66748 0
M  V30 1433 C 140.598 -0.448202 2.06287 0
M  V30 1434 O 139.946 -1.42779 1.78399 0
M  V30 1435 C 140.156 1.96788 2.88228 0
M  V30 1436 C 141.504 2.25201 3.59958 0
M  V30 1437 O 142.528 1.94626 2.98327 0
M  V30 1438 O 141.387 2.77242 4.70956 0
M  V30 1439 H 138.481 0.388517 0.730057 0
M  V30 1440 H 141.027 1.37348 0.99668 0
M  V30 1441 H 139.799 2.96047 2.55875 0
M  V30 1442 H 139.422 1.62145 3.63035 0
M  V30 1443 N 140.419 -1.14872 1.07899 0
M  V30 1444 C 141.667 -1.85422 0.803941 0
M  V30 1445 C 141.988 -1.83051 -0.67211 0
M  V30 1446 O 141.258 -1.27532 -1.48703 0
M  V30 1447 H 139.838 -0.686537 0.294408 0
M  V30 1448 H 142.5 -1.39226 1.3639 0
M  V30 1449 H 141.596 -2.90399 1.14346 0
M  V30 1450 N 141.898 -0.863906 -1.31812 0
M  V30 1451 C 143.314 -0.555004 -1.49639 0
M  V30 1452 C 143.514 0.912266 -1.79666 0
M  V30 1453 O 142.57 1.69479 -1.87171 0
M  V30 1454 C 143.883 -1.44998 -2.63431 0
M  V30 1455 C 145.431 -1.45138 -2.77316 0
M  V30 1456 C 145.906 -2.33179 -3.94197 0
M  V30 1457 N 147.397 -2.31025 -4.01474 0
M  V30 1458 C 148.132 -2.95871 -4.9117 0
M  V30 1459 N 147.628 -3.69863 -5.8581 0
M  V30 1460 N 149.421 -2.85211 -4.84367 0
M  V30 1461 H 141.572 -1.81339 -1.10589 0
M  V30 1462 H 143.835 -0.77505 -0.545895 0
M  V30 1463 H 143.541 -2.49377 -2.48 0
M  V30 1464 H 143.415 -1.14409 -3.59431 0
M  V30 1465 H 145.802 -0.415201 -2.92164 0
M  V30 1466 H 145.883 -1.79747 -1.82001 0
M  V30 1467 H 145.527 -3.3687 -3.80107 0
M  V30 1468 H 145.457 -1.95897 -4.88807 0
M  V30 1469 H 147.948 -1.77238 -3.33759 0
M  V30 1470 H 148.261 -4.16486 -6.50968 0
M  V30 1471 H 146.606 -3.73971 -5.85808 0
M  V30 1472 H 149.797 -2.26948 -4.09405 0
M  V30 1473 H 149.97 -3.36027 -5.54066 0
M  V30 1474 N 143.376 1.44774 -0.622745 0
M  V30 1475 C 144.339 2.29069 0.0774015 0
M  V30 1476 C 145.339 1.4059 0.780461 0
M  V30 1477 O 146.529 1.62551 0.626322 0
M  V30 1478 C 143.661 3.21974 1.12006 0
M  V30 1479 H 144.854 2.92459 -0.663901 0
M  V30 1480 H 142.407 1.51548 -0.382486 0
M  V30 1481 H 143.142 2.63417 1.89162 0
M  V30 1482 H 142.927 3.87168 0.619951 0
M  V30 1483 H 144.417 3.85318 1.60995 0
M  V30 1484 N 144.854 0.36279 1.53368 0
M  V30 1485 C 145.817 -0.472679 2.24273 0
M  V30 1486 C 146.817 -1.012 1.24961 0
M  V30 1487 O 148.007 -0.898194 1.49259 0
M  V30 1488 C 145.139 -1.66039 2.97731 0
M  V30 1489 H 146.332 0.14773 2.99536 0
M  V30 1490 H 143.885 0.114434 1.55881 0
M  V30 1491 H 144.62 -2.31896 2.26704 0
M  V30 1492 H 144.405 -1.28066 3.70596 0
M  V30 1493 H 145.895 -2.25252 3.51641 0
M  V30 1494 N 146.332 -1.57332 0.0918853 0
M  V30 1495 C 147.609 -1.85691 -0.614668 0
M  V30 1496 C 147.989 -0.988146 -1.86545 0
M  V30 1497 O 147.337 -0.0597055 -2.28422 0
M  V30 1498 C 147.547 -3.36294 -0.933126 0
M  V30 1499 C 148.895 -4.04275 -1.29796 0
M  V30 1500 O 149.919 -3.41157 -1.02424 0
M  V30 1501 O 148.778 -5.1564 -1.81047 0
M  V30 1502 H 145.872 -0.767802 -0.307261 0
M  V30 1503 H 148.418 -1.69244 0.12434 0
M  V30 1504 H 147.19 -3.91273 -0.0456404 0
M  V30 1505 H 146.813 -3.58076 -1.72822 0
M  V30 1506 N 147.81 0.181792 -1.56548 0
M  V30 1507 C 148.74 1.22765 -1.98623 0
M  V30 1508 C 149.721 1.46747 -0.860189 0
M  V30 1509 O 150.906 1.58259 -1.12551 0
M  V30 1510 C 148.036 2.56894 -2.33715 0
M  V30 1511 C 146.99 2.475 -3.49182 0
M  V30 1512 C 146.316 3.86023 -3.69986 0
M  V30 1513 C 147.616 1.98866 -4.82959 0
M  V30 1514 H 149.31 0.877942 -2.86239 0
M  V30 1515 H 146.856 0.42088 -1.37712 0
M  V30 1516 H 148.809 3.30253 -2.61746 0
M  V30 1517 H 147.533 2.93632 -1.42997 0
M  V30 1518 H 146.192 1.76596 -3.21262 0
M  V30 1519 H 145.84 4.20136 -2.76576 0
M  V30 1520 H 145.54 3.80609 -4.47672 0
M  V30 1521 H 147.064 4.60984 -4.00407 0
M  V30 1522 H 148.478 2.61992 -5.09934 0
M  V30 1523 H 146.875 2.04424 -5.64208 0
M  V30 1524 H 147.945 0.942465 -4.75653 0
M  V30 1525 N 149.288 1.51039 0.449983 0
M  V30 1526 C 150.251 1.70863 1.5277 0
M  V30 1527 C 151.251 0.578846 1.5002 0
M  V30 1528 O 152.441 0.846213 1.52266 0
M  V30 1529 C 149.573 1.75341 2.9235 0
M  V30 1530 H 150.766 2.67034 1.36502 0
M  V30 1531 H 148.319 1.40838 0.677812 0
M  V30 1532 H 149.054 0.809383 3.14037 0
M  V30 1533 H 148.839 2.57436 2.95752 0
M  V30 1534 H 150.329 1.92559 3.70555 0
M  V30 1535 N 150.766 -0.704594 1.40972 0
M  V30 1536 C 151.676 -1.84856 1.44448 0
M  V30 1537 C 152.692 -1.70726 0.335961 0
M  V30 1538 O 153.868 -1.92799 0.582276 0
M  V30 1539 C 150.933 -3.20758 1.31587 0
M  V30 1540 C 149.994 -3.47063 2.52677 0
M  V30 1541 C 149.227 -4.76481 2.4042 0
M  V30 1542 O 149.45 -5.52341 1.42391 0
M  V30 1543 O 148.384 -5.03367 3.30007 0
M  V30 1544 H 152.21 -1.8488 2.40942 0
M  V30 1545 H 149.795 -0.85647 1.22413 0
M  V30 1546 H 151.677 -4.01913 1.26665 0
M  V30 1547 H 150.352 -3.21438 0.382049 0
M  V30 1548 H 149.259 -2.65873 2.63177 0
M  V30 1549 H 150.592 -3.5119 3.44858 0
M  V30 1550 N 152.244 -1.26651 -0.937939 0
M  V30 1551 C 153.176 -1.04283 -2.04102 0
M  V30 1552 C 154.189 -0.00221014 -1.628 0
M  V30 1553 O 155.378 -0.242645 -1.76843 0
M  V30 1554 C 152.478 -0.557846 -3.34277 0
M  V30 1555 C 151.651 -1.66843 -4.04329 0
M  V30 1556 C 150.71 -1.18095 -5.12777 0
M  V30 1557 O 149.736 -1.87865 -5.37304 0
M  V30 1558 N 150.938 -0.0311006 -5.80492 0
M  V30 1559 H 153.703 -1.9927 -2.23856 0
M  V30 1560 H 151.264 -1.1808 -1.10764 0
M  V30 1561 H 153.256 -0.215836 -4.04124 0
M  V30 1562 H 151.826 0.298523 -3.11171 0
M  V30 1563 H 151.046 -2.18123 -3.28353 0
M  V30 1564 H 152.334 -2.41408 -4.47883 0
M  V30 1565 H 151.732 0.551486 -5.63005 0
M  V30 1566 H 150.289 0.251809 -6.51313 0
M  V30 1567 N 153.722 1.14298 -1.08507 0
M  V30 1568 C 154.685 2.17607 -0.719711 0
M  V30 1569 C 155.685 1.58907 0.245997 0
M  V30 1570 O 156.875 1.74181 0.0254081 0
M  V30 1571 C 154.007 3.40842 -0.0627695 0
M  V30 1572 H 155.2 2.51443 -1.63452 0
M  V30 1573 H 152.753 1.28963 -0.88307 0
M  V30 1574 H 153.488 3.12587 0.863716 0
M  V30 1575 H 153.273 3.84713 -0.757504 0
M  V30 1576 H 154.763 4.17221 0.177786 0
M  V30 1577 N 155.201 0.870884 1.31352 0
M  V30 1578 C 156.148 0.325425 2.28494 0
M  V30 1579 C 157.118 -0.576615 1.5577 0
M  V30 1580 O 158.303 -0.508059 1.83911 0
M  V30 1581 C 155.443 -0.466283 3.41935 0
M  V30 1582 C 154.556 0.463378 4.29508 0
M  V30 1583 C 153.691 -0.342544 5.30094 0
M  V30 1584 C 152.73 0.583486 6.09313 0
M  V30 1585 N 151.867 -0.186244 7.01853 0
M  V30 1586 H 156.707 1.15901 2.74538 0
M  V30 1587 H 154.244 0.58294 1.35056 0
M  V30 1588 H 156.202 -0.941085 4.06447 0
M  V30 1589 H 154.832 -1.26456 2.97 0
M  V30 1590 H 153.884 1.05663 3.65431 0
M  V30 1591 H 155.196 1.1734 4.84802 0
M  V30 1592 H 154.35 -0.879816 6.00287 0
M  V30 1593 H 153.089 -1.08585 4.75458 0
M  V30 1594 H 152.094 1.13251 5.3801 0
M  V30 1595 H 153.319 1.32566 6.66035 0
M  V30 1596 H 151.265 -0.912348 6.49625 0
M  V30 1597 H 151.182 0.464422 7.54572 0
M  V30 1598 H 152.45 -0.704716 7.76308 0
M  V30 1599 N 156.679 -1.44442 0.630414 0
M  V30 1600 C 157.927 -2.01653 0.134351 0
M  V30 1601 C 158.248 -1.49836 -1.24796 0
M  V30 1602 O 157.518 -0.701684 -1.82902 0
M  V30 1603 H 156.098 -0.74554 0.0466769 0
M  V30 1604 H 158.76 -1.76952 0.816955 0
M  V30 1605 H 157.856 -3.11935 0.101498 0
M  V30 1606 N 158.157 -0.370918 -1.53173 0
M  V30 1607 C 159.568 0.107139 -1.86392 0
M  V30 1608 C 159.919 1.47714 -1.29132 0
M  V30 1609 O 159.044 2.07464 -0.615439 0
M  V30 1610 C 159.639 0.201187 -3.38202 0
M  V30 1611 C 158.198 0.623507 -3.712 0
M  V30 1612 C 157.345 -0.225978 -2.76378 0
M  V30 1613 H 160.296 -0.58951 -1.47345 0
M  V30 1614 H 160.317 1.02377 -3.66468 0
M  V30 1615 H 159.829 -0.796058 -3.79848 0
M  V30 1616 H 157.93 1.62879 -3.35114 0
M  V30 1617 H 158.043 0.394414 -4.77474 0
M  V30 1618 H 156.407 0.305962 -2.52856 0
M  V30 1619 H 157.19 -1.22086 -3.20858 0
M  V30 1620 N 159.635 1.57281 -0.100228 0
M  V30 1621 C 160.881 1.94826 0.563101 0
M  V30 1622 C 161.214 0.982475 1.67514 0
M  V30 1623 O 160.489 0.0164069 1.94493 0
M  V30 1624 C 160.772 3.42453 1.11346 0
M  V30 1625 C 160.625 4.498 0.00612081 0
M  V30 1626 C 161.944 3.91506 2.01024 0
M  V30 1627 H 159.063 0.708428 0.203221 0
M  V30 1628 H 161.705 1.8922 -0.171979 0
M  V30 1629 H 159.855 3.47361 1.7399 0
M  V30 1630 H 161.527 4.57 -0.628357 0
M  V30 1631 H 159.77 4.28756 -0.659581 0
M  V30 1632 H 160.441 5.50306 0.432109 0
M  V30 1633 H 162.917 3.88784 1.48278 0
M  V30 1634 H 161.793 4.95358 2.36457 0
M  V30 1635 H 162.054 3.31099 2.92961 0
M  V30 1636 N 161.113 -0.173488 1.56642 0
M  V30 1637 C 162.045 -1.23935 1.92802 0
M  V30 1638 C 163.058 -1.40589 0.820889 0
M  V30 1639 O 164.247 -1.40631 1.09933 0
M  V30 1640 C 161.347 -2.60837 2.16373 0
M  V30 1641 C 160.52 -2.6551 3.47596 0
M  V30 1642 C 159.579 -3.8376 3.60021 0
M  V30 1643 O 158.605 -3.69859 4.32658 0
M  V30 1644 N 159.807 -5.00127 2.94709 0
M  V30 1645 H 162.572 -0.932236 2.84832 0
M  V30 1646 H 160.133 -0.363268 1.57772 0
M  V30 1647 H 162.125 -3.38407 2.21952 0
M  V30 1648 H 160.695 -2.83948 1.30738 0
M  V30 1649 H 159.915 -1.74052 3.53694 0
M  V30 1650 H 161.203 -2.65641 4.33949 0
M  V30 1651 H 160.601 -5.14322 2.35563 0
M  V30 1652 H 159.158 -5.75567 3.05886 0
M  V30 1653 N 162.591 -1.51276 -0.441967 0
M  V30 1654 C 163.554 -1.7167 -1.51862 0
M  V30 1655 C 164.554 -0.586793 -1.49711 0
M  V30 1656 O 165.744 -0.854276 -1.51815 0
M  V30 1657 C 162.876 -1.76889 -2.91416 0
M  V30 1658 H 164.069 -2.67754 -1.35084 0
M  V30 1659 H 161.622 -1.41196 -0.670333 0
M  V30 1660 H 162.357 -0.826026 -3.13604 0
M  V30 1661 H 162.142 -2.59001 -2.94382 0
M  V30 1662 H 163.632 -1.94522 -3.69528 0
M  V30 1663 N 164.069 0.697108 -1.41344 0
M  V30 1664 C 165.317 1.45426 -1.40341 0
M  V30 1665 C 165.638 1.94996 -0.0128787 0
M  V30 1666 O 164.908 1.71599 0.945027 0
M  V30 1667 H 163.488 0.539594 -0.516573 0
M  V30 1668 H 166.15 0.825201 -1.76569 0
M  V30 1669 H 165.246 2.31817 -2.08967 0
M  V30 1670 N 165.547 1.27147 0.931209 0
M  V30 1671 C 166.793 1.13446 1.68101 0
M  V30 1672 C 167.126 -0.319628 1.91552 0
M  V30 1673 O 166.401 -1.23407 1.50336 0
M  V30 1674 C 166.684 1.91482 3.0497 0
M  V30 1675 C 166.537 3.44855 2.88782 0
M  V30 1676 C 167.856 1.71651 4.05246 0
M  V30 1677 H 164.975 0.413498 0.610072 0
M  V30 1678 H 167.617 1.56261 1.08086 0
M  V30 1679 H 165.767 1.55095 3.56199 0
M  V30 1680 H 167.439 3.9105 2.44698 0
M  V30 1681 H 165.682 3.71373 2.24198 0
M  V30 1682 H 166.353 3.94694 3.85902 0
M  V30 1683 H 168.829 2.0337 3.63015 0
M  V30 1684 H 167.705 2.28651 4.99009 0
M  V30 1685 H 167.966 0.663555 4.37092 0
M  V30 1686 N 167.025 -1.13721 1.09112 0
M  V30 1687 C 167.935 -2.22638 0.73957 0
M  V30 1688 C 168.951 -1.72091 -0.257068 0
M  V30 1689 O 170.127 -2.01155 -0.0992154 0
M  V30 1690 C 167.192 -3.46322 0.16191 0
M  V30 1691 C 166.253 -4.11775 1.21408 0
M  V30 1692 C 165.486 -5.29555 0.663891 0
M  V30 1693 O 165.709 -5.68077 -0.514274 0
M  V30 1694 O 164.643 -5.84973 1.41738 0
M  V30 1695 H 168.469 -2.55074 1.64836 0
M  V30 1696 H 166.054 -1.21791 0.865289 0
M  V30 1697 H 167.936 -4.21107 -0.157073 0
M  V30 1698 H 166.611 -3.15593 -0.719932 0
M  V30 1699 H 165.518 -3.3883 1.58571 0
M  V30 1700 H 166.851 -4.46627 2.06845 0
M  V30 1701 N 168.503 -0.877838 -1.30888 0
M  V30 1702 C 169.436 -0.283995 -2.26426 0
M  V30 1703 C 170.414 0.591361 -1.51465 0
M  V30 1704 O 171.598 0.54304 -1.80509 0
M  V30 1705 C 168.725 0.597129 -3.33395 0
M  V30 1706 C 167.771 -0.207937 -4.25993 0
M  V30 1707 S 168.604 -1.59158 -5.11301 0
M  V30 1708 C 169.76 -0.716791 -6.21782 0
M  V30 1709 H 169.993 -1.09383 -2.76446 0
M  V30 1710 H 167.526 -0.676828 -1.38775 0
M  V30 1711 H 169.484 1.09978 -3.95493 0
M  V30 1712 H 168.145 1.38099 -2.82113 0
M  V30 1713 H 167.338 0.464163 -5.01858 0
M  V30 1714 H 166.94 -0.642963 -3.68432 0
M  V30 1715 H 169.232 0.0692833 -6.77465 0
M  V30 1716 H 170.175 -1.44682 -6.93161 0
M  V30 1717 H 170.583 -0.280855 -5.63801 0
M  V30 1718 N 169.982 1.44106 -0.638065 0
M  V30 1719 C 171.207 2.0685 -0.150916 0
M  V30 1720 C 171.632 1.47417 1.16833 0
M  V30 1721 O 170.99 0.578264 1.71831 0
M  V30 1722 C 171.038 3.60555 -0.05708 0
M  V30 1723 O 170.142 4.00465 0.984972 0
M  V30 1724 H 169.483 0.658151 -0.0879399 0
M  V30 1725 H 172.013 1.84865 -0.876707 0
M  V30 1726 H 172.023 4.07789 0.131232 0
M  V30 1727 H 170.698 4.03193 -1.02021 0
M  V30 1728 H 169.275 3.64849 0.770672 0
M  V30 1729 N 171.46 0.379036 1.52974 0
M  V30 1730 C 172.685 -0.209353 2.06341 0
M  V30 1731 C 173.11 -1.40583 1.24972 0
M  V30 1732 O 172.468 -1.79246 0.272155 0
M  V30 1733 C 172.516 -0.567786 3.56102 0
M  V30 1734 O 171.62 -1.66318 3.77375 0
M  V30 1735 H 170.961 -0.0272919 0.663439 0
M  V30 1736 H 173.491 0.543536 1.97248 0
M  V30 1737 H 173.501 -0.835003 3.99364 0
M  V30 1738 H 172.176 0.307013 4.14765 0
M  V30 1739 H 170.753 -1.39048 3.46006 0
M  V30 1740 N 172.938 -1.57226 0.108567 0
M  V30 1741 C 174.166 -1.99179 -0.559954 0
M  V30 1742 C 174.581 -0.988022 -1.60884 0
M  V30 1743 O 173.938 0.0205512 -1.82488 0
M  V30 1744 C 173.989 -3.41159 -1.19552 0
M  V30 1745 O 173.71 -4.37694 -0.188577 0
M  V30 1746 C 175.211 -3.98188 -1.94837 0
M  V30 1747 H 172.431 -0.654228 -0.149088 0
M  V30 1748 H 174.975 -2.03598 0.19183 0
M  V30 1749 H 173.13 -3.37711 -1.89815 0
M  V30 1750 H 173.544 -5.20469 -0.649014 0
M  V30 1751 H 175.018 -4.99644 -2.34648 0
M  V30 1752 H 175.495 -3.3675 -2.81951 0
M  V30 1753 H 176.101 -4.0515 -1.2936 0
M  V30 1754 N 174.416 0.165178 -1.56732 0
M  V30 1755 C 175.827 0.727046 -1.71962 0
M  V30 1756 C 176.178 1.82508 -0.720078 0
M  V30 1757 O 175.303 2.16082 0.117242 0
M  V30 1758 C 175.898 1.32559 -3.11791 0
M  V30 1759 C 174.457 1.83422 -3.28684 0
M  V30 1760 C 173.604 0.715567 -2.67908 0
M  V30 1761 H 176.555 -0.0602896 -1.58585 0
M  V30 1762 H 176.576 2.19533 -3.10782 0
M  V30 1763 H 176.088 0.526195 -3.84516 0
M  V30 1764 H 174.189 2.65986 -2.60926 0
M  V30 1765 H 174.302 1.97543 -4.36478 0
M  V30 1766 H 172.666 1.13758 -2.27884 0
M  V30 1767 H 173.449 -0.0720836 -3.43224 0
M  V30 1768 N 175.894 1.51508 0.433938 0
M  V30 1769 C 177.171 1.54888 1.19453 0
M  V30 1770 C 177.551 0.315154 2.08734 0
M  V30 1771 O 176.899 -0.699558 2.17528 0
M  V30 1772 C 177.109 2.86467 1.99342 0
M  V30 1773 C 178.457 3.38545 2.56267 0
M  V30 1774 O 179.481 2.88041 2.0955 0
M  V30 1775 O 178.34 4.26675 3.41483 0
M  V30 1776 H 175.434 0.622863 0.544032 0
M  V30 1777 H 177.98 1.63823 0.442732 0
M  V30 1778 H 176.752 3.67718 1.33788 0
M  V30 1779 H 176.375 2.8071 2.8158 0
M  V30 1780 N 177.372 -0.689602 1.41712 0
M  V30 1781 C 178.788 -1.00093 1.24312 0
M  V30 1782 C 178.988 -2.01036 0.136729 0
M  V30 1783 O 178.044 -2.47562 -0.496918 0
M  V30 1784 C 179.357 -1.51985 2.59463 0
M  V30 1785 C 180.905 -1.63838 2.66695 0
M  V30 1786 C 181.38 -2.1913 4.02177 0
M  V30 1787 N 182.871 -2.26483 4.04054 0
M  V30 1788 C 183.606 -2.70306 5.0569 0
M  V30 1789 N 183.102 -3.13691 6.17713 0
M  V30 1790 N 184.895 -2.69923 4.9305 0
M  V30 1791 H 177.046 -0.0210029 2.1239 0
M  V30 1792 H 179.309 -0.0718733 0.945272 0
M  V30 1793 H 179.015 -0.85269 3.41207 0
M  V30 1794 H 178.889 -2.50103 2.82362 0
M  V30 1795 H 181.276 -2.29664 1.85306 0
M  V30 1796 H 181.357 -0.642492 2.476 0
M  V30 1797 H 181.001 -1.53918 4.84016 0
M  V30 1798 H 180.931 -3.19482 4.18615 0
M  V30 1799 H 183.422 -1.95874 3.23174 0
M  V30 1800 H 183.735 -3.45773 6.9113 0
M  V30 1801 H 182.08 -3.11585 6.21241 0
M  V30 1802 H 185.271 -2.35382 4.04614 0
M  V30 1803 H 185.444 -3.03758 5.72394 0
M  V30 1804 N 178.85 -1.27639 -0.924453 0
M  V30 1805 C 180.096 -1.14336 -1.67497 0
M  V30 1806 C 180.429 0.309465 -1.91718 0
M  V30 1807 O 179.704 1.22608 -1.50989 0
M  V30 1808 C 179.987 -1.93096 -3.0395 0
M  V30 1809 C 179.84 -3.46381 -2.8695 0
M  V30 1810 C 181.159 -1.73798 -4.0433 0
M  V30 1811 H 178.278 -0.416728 -0.607871 0
M  V30 1812 H 180.92 -1.56832 -1.07256 0
M  V30 1813 H 179.07 -1.56982 -3.55372 0
M  V30 1814 H 180.742 -3.92343 -2.42621 0
M  V30 1815 H 178.985 -3.72557 -2.22225 0
M  V30 1816 H 179.656 -3.96735 -3.83804 0
M  V30 1817 H 182.132 -2.05293 -3.61931 0
M  V30 1818 H 181.008 -2.31294 -4.97789 0
M  V30 1819 H 181.269 -0.686725 -4.36734 0
M  V30 1820 N 180.328 1.1314 -1.09713 0
M  V30 1821 C 181.574 1.84757 -0.836224 0
M  V30 1822 C 181.907 1.8347 0.636598 0
M  V30 1823 O 181.182 1.27491 1.46889 0
M  V30 1824 C 181.465 3.32782 -1.37578 0
M  V30 1825 C 181.318 3.42567 -2.91493 0
M  V30 1826 C 182.637 4.28307 -1.01198 0
M  V30 1827 H 179.756 0.67082 -0.305236 0
M  V30 1828 H 182.398 1.3278 -1.35903 0
M  V30 1829 H 180.548 3.77177 -0.931097 0
M  V30 1830 H 182.22 3.06862 -3.44432 0
M  V30 1831 H 180.463 2.83349 -3.28475 0
M  V30 1832 H 181.134 4.46674 -3.24324 0
M  V30 1833 H 183.61 3.91999 -1.39556 0
M  V30 1834 H 182.486 5.30307 -1.41653 0
M  V30 1835 H 182.747 4.42029 0.0794833 0
M  V30 1836 N 181.806 0.884767 1.30421 0
M  V30 1837 C 182.769 0.356277 2.26414 0
M  V30 1838 C 183.769 -0.501124 1.52792 0
M  V30 1839 O 184.959 -0.30831 1.7145 0
M  V30 1840 C 182.091 -0.492316 3.37326 0
M  V30 1841 H 183.284 1.20389 2.74675 0
M  V30 1842 H 180.837 0.661607 1.41607 0
M  V30 1843 H 181.572 -1.36052 2.94381 0
M  V30 1844 H 181.357 0.121832 3.91911 0
M  V30 1845 H 182.847 -0.853871 4.08777 0
M  V30 1846 N 183.284 -1.43765 0.645699 0
M  V30 1847 C 184.512 -2.06253 0.163556 0
M  V30 1848 C 184.927 -1.48352 -1.16778 0
M  V30 1849 O 184.284 -0.611932 -1.71935 0
M  V30 1850 C 184.335 -3.61453 0.0583186 0
M  V30 1851 O 184.056 -4.172 1.33702 0
M  V30 1852 C 185.557 -4.41002 -0.450795 0
M  V30 1853 H 182.777 -0.665413 0.0864077 0
M  V30 1854 H 185.321 -1.84396 0.884222 0
M  V30 1855 H 183.476 -3.82522 -0.612865 0
M  V30 1856 H 183.89 -5.10791 1.19131 0
M  V30 1857 H 185.364 -5.49966 -0.473403 0
M  V30 1858 H 185.841 -4.13488 -1.48068 0
M  V30 1859 H 186.447 -4.24886 0.187637 0
M  V30 1860 N 184.763 -0.387143 -1.52771 0
M  V30 1861 C 185.693 0.440551 -2.29306 0
M  V30 1862 C 186.674 1.06535 -1.32606 0
M  V30 1863 O 187.859 1.07853 -1.61497 0
M  V30 1864 C 184.989 1.56919 -3.09829 0
M  V30 1865 C 183.943 1.07054 -4.14395 0
M  V30 1866 C 183.269 2.29109 -4.83129 0
M  V30 1867 C 184.569 0.140015 -5.22112 0
M  V30 1868 H 186.263 -0.198026 -2.98744 0
M  V30 1869 H 183.809 -0.09668 -1.43675 0
M  V30 1870 H 185.762 2.15503 -3.62128 0
M  V30 1871 H 184.486 2.23532 -2.3812 0
M  V30 1872 H 183.145 0.507247 -3.63074 0
M  V30 1873 H 182.793 2.94227 -4.0797 0
M  V30 1874 H 182.493 1.96406 -5.53804 0
M  V30 1875 H 184.017 2.88339 -5.38231 0
M  V30 1876 H 185.431 0.633978 -5.69784 0
M  V30 1877 H 183.828 -0.0971485 -6.00021 0
M  V30 1878 H 184.898 -0.811711 -4.78058 0
M  V30 1879 N 186.241 1.57166 -0.116904 0
M  V30 1880 C 187.188 2.15202 0.83408 0
M  V30 1881 C 188.158 1.07644 1.26499 0
M  V30 1882 O 189.343 1.35541 1.34288 0
M  V30 1883 C 186.483 2.75405 2.07957 0
M  V30 1884 C 185.596 3.97264 1.69721 0
M  V30 1885 C 184.731 4.45561 2.89221 0
M  V30 1886 C 183.77 5.59956 2.47215 0
M  V30 1887 N 182.907 6.03006 3.59622 0
M  V30 1888 H 187.747 2.96141 0.332335 0
M  V30 1889 H 185.284 1.46309 0.152349 0
M  V30 1890 H 187.242 3.08439 2.80929 0
M  V30 1891 H 185.872 1.97159 2.55594 0
M  V30 1892 H 184.924 3.70404 0.866316 0
M  V30 1893 H 186.236 4.80226 1.34849 0
M  V30 1894 H 185.39 4.80493 3.7042 0
M  V30 1895 H 184.129 3.61544 3.27318 0
M  V30 1896 H 183.134 5.2463 1.64448 0
M  V30 1897 H 184.359 6.45738 2.10238 0
M  V30 1898 H 182.305 5.21931 3.97396 0
M  V30 1899 H 182.222 6.80819 3.28667 0
M  V30 1900 H 183.49 6.42576 4.41267 0
M  V30 1901 N 187.719 -0.156864 1.56817 0
M  V30 1902 C 188.944 -0.890331 1.87318 0
M  V30 1903 C 189.369 -1.74394 0.704855 0
M  V30 1904 O 188.727 -1.77972 -0.345786 0
M  V30 1905 C 188.775 -1.73102 3.16336 0
M  V30 1906 O 187.879 -2.83422 2.99576 0
M  V30 1907 H 187.22 -0.24857 0.615718 0
M  V30 1908 H 189.75 -0.150649 2.04045 0
M  V30 1909 H 189.76 -2.12803 3.48107 0
M  V30 1910 H 188.435 -1.10412 4.00976 0
M  V30 1911 H 187.012 -2.47199 2.7919 0
M  V30 1912 N 189.197 -1.51736 -0.425897 0
M  V30 1913 C 190.13 -1.68574 -1.53812 0
M  V30 1914 C 191.108 -0.53328 -1.53606 0
M  V30 1915 O 192.292 -0.758555 -1.72564 0
M  V30 1916 C 189.419 -1.70977 -2.92377 0
M  V30 1917 C 188.465 -2.92324 -3.10563 0
M  V30 1918 S 189.298 -4.52952 -2.85648 0
M  V30 1919 C 190.454 -4.58117 -4.26474 0
M  V30 1920 H 190.687 -2.62647 -1.39298 0
M  V30 1921 H 188.22 -1.41564 -0.616361 0
M  V30 1922 H 190.178 -1.73047 -3.72243 0
M  V30 1923 H 188.839 -0.78061 -3.04245 0
M  V30 1924 H 188.032 -2.90439 -4.11899 0
M  V30 1925 H 187.634 -2.88055 -2.38538 0
M  V30 1926 H 189.926 -4.34462 -5.19855 0
M  V30 1927 H 190.869 -5.59983 -4.33388 0
M  V30 1928 H 191.277 -3.8732 -4.10662 0
M  V30 1929 N 190.675 0.682077 -1.42076 0
M  V30 1930 C 192.086 1.26246 -1.37546 0
M  V30 1931 C 192.437 1.96092 -0.0651481 0
M  V30 1932 O 191.562 1.99587 0.836297 0
M  V30 1933 C 192.157 2.29594 -2.49143 0
M  V30 1934 C 190.716 2.83175 -2.47969 0
M  V30 1935 C 189.863 1.57395 -2.28303 0
M  V30 1936 H 192.814 0.475937 -1.51395 0
M  V30 1937 H 192.835 3.11175 -2.18976 0
M  V30 1938 H 192.347 1.78729 -3.44496 0
M  V30 1939 H 190.448 3.3818 -1.56413 0
M  V30 1940 H 190.561 3.32687 -3.44755 0
M  V30 1941 H 188.925 1.83699 -1.76428 0
M  V30 1942 H 189.708 1.08507 -3.25701 0
M  V30 1943 N 192.153 1.28127 0.917671 0
M  V30 1944 C 193.063 1.13556 2.05286 0
M  V30 1945 C 194.079 0.0630914 1.73886 0
M  V30 1946 O 195.255 0.271598 1.9956 0
M  V30 1947 C 192.32 0.794676 3.3747 0
M  V30 1948 C 191.381 1.94909 3.82504 0
M  V30 1949 C 190.614 1.62437 5.0838 0
M  V30 1950 O 190.837 0.536905 5.67867 0
M  V30 1951 O 189.771 2.46677 5.4903 0
M  V30 1952 H 193.597 2.08844 2.20495 0
M  V30 1953 H 191.182 1.07409 1.03845 0
M  V30 1954 H 193.064 0.618344 4.16839 0
M  V30 1955 H 191.739 -0.128581 3.23445 0
M  V30 1956 H 190.646 2.18055 3.03978 0
M  V30 1957 H 191.979 2.85291 4.01086 0
M  V30 1958 N 193.631 -1.12557 1.10312 0
M  V30 1959 C 194.861 -1.87592 0.865617 0
M  V30 1960 C 195.269 -1.79851 -0.587389 0
M  V30 1961 O 194.612 -1.16949 -1.41664 0
M  V30 1962 C 194.674 -3.37665 1.23381 0
M  V30 1963 C 194.338 -3.69181 2.69359 0
M  V30 1964 C 195.335 -3.67652 3.67597 0
M  V30 1965 C 193.02 -3.98555 3.05711 0
M  V30 1966 C 195.014 -3.95053 5.00212 0
M  V30 1967 C 192.701 -4.25616 4.38514 0
M  V30 1968 C 193.699 -4.23851 5.35574 0
M  V30 1969 O 193.387 -4.50242 6.65986 0
M  V30 1970 H 193.119 -0.600442 0.310557 0
M  V30 1971 H 195.673 -1.4335 1.47105 0
M  V30 1972 H 193.903 -3.82454 0.571467 0
M  V30 1973 H 195.592 -3.94041 0.973994 0
M  V30 1974 H 196.358 -3.45024 3.40857 0
M  V30 1975 H 192.237 -3.99071 2.30789 0
M  V30 1976 H 195.781 -3.93591 5.75962 0
M  V30 1977 H 191.678 -4.47718 4.64994 0
M  V30 1978 H 192.446 -4.67867 6.71597 0
M  V30 1979 N 195.109 -0.891671 -1.2995 0
M  V30 1980 C 196.358 -0.509521 -1.95158 0
M  V30 1981 C 196.671 0.947388 -1.71125 0
M  V30 1982 O 197.877 1.43669 -2.30372 0
M  V30 1983 C 196.333 -0.860315 -3.49466 0
M  V30 1984 C 195.941 -2.33545 -3.8231 0
M  V30 1985 C 197.685 -0.547687 -4.20952 0
M  V30 1986 C 195.592 -2.62752 -5.29826 0
M  V30 1987 H 194.522 -0.18682 -0.730489 0
M  V30 1988 H 197.173 -1.08756 -1.47798 0
M  V30 1989 H 195.555 -0.211285 -3.95436 0
M  V30 1990 H 196.729 -3.02936 -3.47227 0
M  V30 1991 H 195.044 -2.61629 -3.23944 0
M  V30 1992 H 197.641 -0.742854 -5.29515 0
M  V30 1993 H 197.984 0.51332 -4.13123 0
M  V30 1994 H 198.517 -1.1542 -3.80688 0
M  V30 1995 H 195.256 -3.6762 -5.42712 0
M  V30 1996 H 194.776 -1.97977 -5.66185 0
M  V30 1997 H 196.455 -2.48601 -5.97333 0
M  V30 1998 N 196.587 1.43421 -0.653314 0
M  V30 1999 C 197.497 2.34568 0.0388565 0
M  V30 2000 C 198.513 1.53888 0.81207 0
M  V30 2001 O 199.689 1.86539 0.759294 0
M  V30 2002 C 196.754 3.32167 0.993269 0
M  V30 2003 C 195.815 4.28751 0.216977 0
M  V30 2004 C 195.048 5.21688 1.12593 0
M  V30 2005 O 195.271 5.19052 2.36519 0
M  V30 2006 O 194.205 5.98919 0.598284 0
M  V30 2007 H 198.031 2.95251 -0.711386 0
M  V30 2008 H 195.616 1.43564 -0.413502 0
M  V30 2009 H 197.498 3.92183 1.54176 0
M  V30 2010 H 196.173 2.73987 1.72374 0
M  V30 2011 H 195.08 3.72215 -0.375101 0
M  V30 2012 H 196.413 4.89913 -0.473924 0
M  V30 2013 N 198.065 0.39524 1.52563 0
M  V30 2014 C 199.481 0.0454682 1.59535 0
M  V30 2015 C 199.681 -1.44056 1.4089 0
M  V30 2016 O 198.737 -2.20579 1.22888 0
M  V30 2017 C 200.05 0.527963 2.96029 0
M  V30 2018 C 201.598 0.484733 3.09224 0
M  V30 2019 C 202.073 0.943512 4.48176 0
M  V30 2020 N 203.564 0.899765 4.54377 0
M  V30 2021 C 204.299 1.22609 5.60138 0
M  V30 2022 N 203.795 1.62319 6.73516 0
M  V30 2023 N 205.588 1.14696 5.50274 0
M  V30 2024 H 197.739 1.36261 1.62931 0
M  V30 2025 H 200.002 0.558887 0.765735 0
M  V30 2026 H 199.708 1.56607 3.14908 0
M  V30 2027 H 199.582 -0.0698056 3.77135 0
M  V30 2028 H 201.969 -0.544298 2.90037 0
M  V30 2029 H 202.05 1.11838 2.30056 0
M  V30 2030 H 201.694 1.9708 4.68104 0
M  V30 2031 H 201.624 0.286817 5.25818 0
M  V30 2032 H 204.115 0.607632 3.72983 0
M  V30 2033 H 204.428 1.85567 7.5019 0
M  V30 2034 H 202.773 1.66211 6.74833 0
M  V30 2035 H 205.964 0.835701 4.6058 0
M  V30 2036 H 206.137 1.40459 6.32594 0
M  V30 2037 N 199.544 -1.57102 0.125237 0
M  V30 2038 C 200.791 -1.95407 -0.531248 0
M  V30 2039 C 201.119 -1.0089 -1.66287 0
M  V30 2040 O 200.374 -0.0339431 -1.95671 0
M  V30 2041 C 200.673 -3.40096 -1.09862 0
M  V30 2042 C 200.339 -4.50815 -0.0876989 0
M  V30 2043 C 199.001 -4.80824 0.19026 0
M  V30 2044 C 201.353 -5.17724 0.600902 0
M  V30 2045 C 198.681 -5.75058 1.163 0
M  V30 2046 C 201.033 -6.13005 1.56231 0
M  V30 2047 C 199.697 -6.41403 1.8482 0
M  V30 2048 H 198.967 -0.715046 -0.194397 0
M  V30 2049 H 201.614 -1.90373 0.207463 0
M  V30 2050 H 199.919 -3.41855 -1.91422 0
M  V30 2051 H 201.616 -3.6705 -1.61478 0
M  V30 2052 H 198.206 -4.27444 -0.314528 0
M  V30 2053 H 202.39 -4.94691 0.399333 0
M  V30 2054 H 197.646 -5.95362 1.39117 0
M  V30 2055 H 201.82 -6.63934 2.10153 0
M  V30 2056 H 199.447 -7.14229 2.60349 0
M  V30 2057 N 201.022 0.148545 -1.56898 0
M  V30 2058 C 201.932 1.20293 -2.01412 0
M  V30 2059 C 202.948 1.47107 -0.929273 0
M  V30 2060 O 204.124 1.58807 -1.23863 0
M  V30 2061 C 201.189 2.51682 -2.38447 0
M  V30 2062 C 200.25 2.32529 -3.60872 0
M  V30 2063 C 199.483 3.57653 -3.96132 0
M  V30 2064 O 199.706 4.63771 -3.32073 0
M  V30 2065 O 198.64 3.50408 -4.89385 0
M  V30 2066 H 202.466 0.855025 -2.91416 0
M  V30 2067 H 200.051 0.357151 -1.45068 0
M  V30 2068 H 201.933 3.29147 -2.63135 0
M  V30 2069 H 200.608 2.86006 -1.51599 0
M  V30 2070 H 199.515 1.53019 -3.41373 0
M  V30 2071 H 200.848 2.03121 -4.48333 0
M  V30 2072 N 202.5 1.5196 0.417844 0
M  V30 2073 C 203.777 1.56146 1.17803 0
M  V30 2074 C 204.157 0.337275 2.08388 0
M  V30 2075 O 203.505 -0.676447 2.18258 0
M  V30 2076 C 203.715 2.88566 1.96293 0
M  V30 2077 C 205.063 3.41244 2.52662 0
M  V30 2078 O 206.087 2.90247 2.06483 0
M  V30 2079 O 204.946 4.30273 3.36938 0
M  V30 2080 H 202.04 0.628598 0.537395 0
M  V30 2081 H 204.586 1.64283 0.425331 0
M  V30 2082 H 203.358 3.69116 1.2988 0
M  V30 2083 H 202.981 2.83681 2.78587 0
M  V30 2084 N 203.978 -0.674533 1.42435 0
M  V30 2085 C 204.941 -1.76986 1.45632 0
M  V30 2086 C 205.941 -1.5708 0.343871 0
M  V30 2087 O 207.131 -1.63367 0.604709 0
M  V30 2088 C 204.263 -3.15623 1.28822 0
M  V30 2089 H 205.456 -1.75539 2.43158 0
M  V30 2090 H 203.009 -0.884189 1.28887 0
M  V30 2091 H 203.744 -3.22696 0.322193 0
M  V30 2092 H 203.529 -3.31475 2.09444 0
M  V30 2093 H 205.019 -3.95537 1.33942 0
M  V30 2094 N 205.456 -1.28612 -0.910864 0
M  V30 2095 C 206.703 -1.15934 -1.66029 0
M  V30 2096 C 207.031 0.291483 -1.92303 0
M  V30 2097 O 206.286 1.22816 -1.52364 0
M  V30 2098 C 206.585 -1.90624 -3.0232 0
M  V30 2099 C 206.251 -3.40405 -2.95695 0
M  V30 2100 C 204.913 -3.81255 -2.93595 0
M  V30 2101 C 207.265 -4.359 -2.85728 0
M  V30 2102 C 204.593 -5.15936 -2.79334 0
M  V30 2103 C 206.945 -5.70657 -2.73007 0
M  V30 2104 C 205.609 -6.10779 -2.69267 0
M  V30 2105 H 204.879 -0.424234 -0.607541 0
M  V30 2106 H 207.526 -1.5942 -1.06101 0
M  V30 2107 H 205.831 -1.39696 -3.6605 0
M  V30 2108 H 207.528 -1.78228 -3.59215 0
M  V30 2109 H 204.118 -3.07927 -2.98125 0
M  V30 2110 H 208.302 -4.053 -2.86436 0
M  V30 2111 H 203.558 -5.46146 -2.74835 0
M  V30 2112 H 207.732 -6.44311 -2.64264 0
M  V30 2113 H 205.359 -7.1509 -2.57974 0
M  V30 2114 N 206.934 1.1197 -1.10907 0
M  V30 2115 C 208.345 1.65114 -0.871446 0
M  V30 2116 C 208.696 1.86885 0.597353 0
M  V30 2117 O 207.821 1.59896 1.45816 0
M  V30 2118 C 208.416 2.99944 -1.5754 0
M  V30 2119 C 206.975 3.50018 -1.38435 0
M  V30 2120 C 206.122 2.24941 -1.62164 0
M  V30 2121 H 209.073 0.956851 -1.2661 0
M  V30 2122 H 209.094 3.66651 -1.01721 0
M  V30 2123 H 208.606 2.84067 -2.64438 0
M  V30 2124 H 206.707 3.71071 -0.337214 0
M  V30 2125 H 206.82 4.29165 -2.12965 0
M  V30 2126 H 205.184 2.3229 -1.04467 0
M  V30 2127 H 205.967 2.11612 -2.70324 0
M  V30 2128 N 208.412 0.89855 1.29475 0
M  V30 2129 C 209.66 0.522847 1.9522 0
M  V30 2130 C 209.981 -0.93371 1.71192 0
M  V30 2131 O 209.251 -1.65823 1.04305 0
M  V30 2132 H 207.831 0.190366 0.722336 0
M  V30 2133 H 210.493 1.14459 1.5775 0
M  V30 2134 H 209.589 0.704476 3.04045 0
M  V30 2135 N 209.89 -1.43072 0.660911 0
M  V30 2136 C 210.822 -2.29108 -0.0647641 0
M  V30 2137 C 211.835 -1.42928 -0.779448 0
M  V30 2138 O 213.024 -1.66788 -0.635921 0
M  V30 2139 C 210.124 -3.20032 -1.11503 0
M  V30 2140 C 209.297 -4.34792 -0.476955 0
M  V30 2141 C 208.356 -5.06534 -1.42513 0
M  V30 2142 O 207.382 -5.61538 -0.930771 0
M  V30 2143 N 208.584 -5.1075 -2.75889 0
M  V30 2144 H 211.349 -2.92029 0.673731 0
M  V30 2145 H 208.91 -1.53846 0.50427 0
M  V30 2146 H 210.902 -3.64892 -1.75032 0
M  V30 2147 H 209.472 -2.58658 -1.75541 0
M  V30 2148 H 208.692 -3.92752 0.337572 0
M  V30 2149 H 209.98 -5.0879 -0.0318525 0
M  V30 2150 H 209.378 -4.67447 -3.18606 0
M  V30 2151 H 207.935 -5.59302 -3.347 0
M  V30 2152 N 211.368 -0.403325 -1.52352 0
M  V30 2153 C 212.278 0.432009 -2.30588 0
M  V30 2154 C 213.294 1.05884 -1.38075 0
M  V30 2155 O 214.47 1.06161 -1.71148 0
M  V30 2156 C 211.535 1.53669 -3.10784 0
M  V30 2157 C 210.596 0.933525 -4.19027 0
M  V30 2158 C 209.829 1.98557 -4.9539 0
M  V30 2159 O 210.052 3.20283 -4.71991 0
M  V30 2160 O 208.986 1.59504 -5.80381 0
M  V30 2161 H 212.812 -0.205739 -3.03002 0
M  V30 2162 H 210.397 -0.166675 -1.48467 0
M  V30 2163 H 212.279 2.17814 -3.60742 0
M  V30 2164 H 210.954 2.15915 -2.41169 0
M  V30 2165 H 209.861 0.254954 -3.7323 0
M  V30 2166 H 211.194 0.35508 -4.90918 0
M  V30 2167 N 212.846 1.57033 -0.133567 0
M  V30 2168 C 213.794 2.17348 0.828412 0
M  V30 2169 C 214.788 1.12671 1.26498 0
M  V30 2170 O 215.994 1.30947 1.23502 0
M  V30 2171 H 212.369 0.695775 0.285309 0
M  V30 2172 H 214.34 2.96935 0.295372 0
M  V30 2173 C 213.089 2.79893 2.06289 0
M  V30 2174 H 212.412 3.60147 1.73592 0
M  V30 2175 H 213.852 3.25615 2.71572 0
M  V30 2176 C 212.311 1.77713 2.86216 0
M  V30 2177 O 212.841 1.23937 3.82103 0
M  V30 2178 N 211.047 1.47321 2.50489 0
M  V30 2179 H 210.594 1.91243 1.7258 0
M  V30 2180 H 210.552 0.79199 3.04261 0
M  V30 2181 N 214.325 -0.140222 1.56975 0
M  V30 2182 C 215.736 -0.699596 1.73097 0
M  V30 2183 C 216.087 -1.8134 0.749022 0
M  V30 2184 O 215.212 -2.16241 -0.0828503 0
M  V30 2185 C 215.807 -1.27582 3.1386 0
M  V30 2186 C 214.366 -1.78169 3.31561 0
M  V30 2187 C 213.513 -0.672855 2.69013 0
M  V30 2188 H 216.464 0.0855115 1.58469 0
M  V30 2189 H 216.485 -2.14561 3.14235 0
M  V30 2190 H 215.997 -0.464955 3.85305 0
M  V30 2191 H 214.098 -2.61801 2.65124 0
M  V30 2192 H 214.211 -1.90574 4.39566 0
M  V30 2193 H 212.575 -1.10118 2.29665 0
M  V30 2194 H 213.358 0.126679 3.43066 0
M  V30 2195 N 215.803 -1.52179 -0.40978 0
M  V30 2196 C 217.049 -1.66453 -1.15851 0
M  V30 2197 C 217.382 -0.392972 -1.90182 0
M  V30 2198 O 216.657 0.608579 -1.84734 0
M  V30 2199 C 216.94 -2.88612 -2.15349 0
M  V30 2200 C 216.793 -4.25815 -1.44918 0
M  V30 2201 C 218.112 -3.06294 -3.16026 0
M  V30 2202 H 215.231 -0.60575 -0.419805 0
M  V30 2203 H 217.873 -1.84732 -0.444314 0
M  V30 2204 H 216.023 -2.73158 -2.76255 0
M  V30 2205 H 217.695 -4.52995 -0.871365 0
M  V30 2206 H 215.938 -4.27247 -0.751159 0
M  V30 2207 H 216.609 -5.07337 -2.17516 0
M  V30 2208 H 219.085 -3.20641 -2.65195 0
M  V30 2209 H 217.961 -3.93283 -3.8291 0
M  V30 2210 H 218.222 -2.19579 -3.83715 0
M  V30 2211 N 217.281 0.66697 -1.42791 0
M  V30 2212 C 218.509 1.45505 -1.47091 0
M  V30 2213 C 218.924 1.8861 -0.0845873 0
M  V30 2214 O 218.281 1.58632 0.90234 0
M  V30 2215 C 218.332 2.69906 -2.40485 0
M  V30 2216 O 218.053 2.28608 -3.73725 0
M  V30 2217 C 219.554 3.63396 -2.53886 0
M  V30 2218 H 216.774 0.447459 -0.500022 0
M  V30 2219 H 219.318 0.818866 -1.8739 0
M  V30 2220 H 217.473 3.29696 -2.03419 0
M  V30 2221 H 217.887 3.08997 -4.23817 0
M  V30 2222 H 219.361 4.47387 -3.2334 0
M  V30 2223 H 219.838 4.09824 -1.57927 0
M  V30 2224 H 220.444 3.09495 -2.91706 0
M  V30 2225 N 218.759 1.29093 0.90403 0
M  V30 2226 C 220.006 1.16813 1.65411 0
M  V30 2227 C 220.334 -0.28128 1.92455 0
M  V30 2228 O 219.589 -1.22006 1.53013 0
M  V30 2229 C 219.888 1.92224 3.01305 0
M  V30 2230 C 219.554 3.41968 2.93885 0
M  V30 2231 C 218.216 3.82807 2.91569 0
M  V30 2232 C 220.568 4.37409 2.83413 0
M  V30 2233 C 217.896 5.1741 2.76594 0
M  V30 2234 C 220.248 5.72097 2.69977 0
M  V30 2235 C 218.912 6.12199 2.66024 0
M  V30 2236 H 218.182 0.42745 0.605283 0
M  V30 2237 H 220.829 1.59981 1.05254 0
M  V30 2238 H 219.134 1.41635 3.65304 0
M  V30 2239 H 220.831 1.80131 3.58265 0
M  V30 2240 H 217.421 3.09504 2.96488 0
M  V30 2241 H 221.605 4.06813 2.84283 0
M  V30 2242 H 216.861 5.47596 2.71935 0
M  V30 2243 H 221.035 6.45704 2.60844 0
M  V30 2244 H 218.662 7.16448 2.54178 0
M  V30 2245 N 220.237 -1.11381 1.11499 0
M  V30 2246 C 221.514 -1.7955 0.775965 0
M  V30 2247 C 221.894 -1.97859 -0.73588 0
M  V30 2248 O 221.242 -1.56376 -1.66609 0
M  V30 2249 C 221.452 -3.13196 1.53977 0
M  V30 2250 C 222.8 -3.88227 1.71944 0
M  V30 2251 O 223.824 -3.22887 1.50407 0
M  V30 2252 O 222.683 -5.05477 2.07738 0
M  V30 2253 H 219.777 -0.777728 0.28119 0
M  V30 2254 H 222.323 -1.18118 1.21845 0
M  V30 2255 H 221.095 -2.95229 2.56818 0
M  V30 2256 H 220.718 -3.82342 1.09088 0
M  V30 2257 N 221.715 -0.905404 -1.28997 0
M  V30 2258 C 222.663 -0.377431 -2.29517 0
M  V30 2259 C 223.657 0.526461 -1.61012 0
M  V30 2260 O 224.863 0.40863 -1.753 0
M  V30 2261 H 221.238 -0.103437 -0.744852 0
M  V30 2262 H 223.209 -1.23848 -2.71485 0
M  V30 2263 C 221.958 0.374833 -3.45674 0
M  V30 2264 H 221.281 -0.311474 -3.98585 0
M  V30 2265 H 222.721 0.70903 -4.1803 0
M  V30 2266 C 221.18 1.57963 -2.97572 0
M  V30 2267 O 221.71 2.67886 -2.99333 0
M  V30 2268 N 219.916 1.42375 -2.53333 0
M  V30 2269 H 219.463 0.529466 -2.521 0
M  V30 2270 H 219.421 2.23117 -2.21509 0
M  V30 2271 N 223.193 1.4272 -0.668489 0
M  V30 2272 C 224.126 2.28111 0.0637898 0
M  V30 2273 C 225.104 1.40705 0.814912 0
M  V30 2274 O 226.288 1.70146 0.81134 0
M  V30 2275 C 223.415 3.20429 1.0974 0
M  V30 2276 C 222.461 4.24197 0.442579 0
M  V30 2277 S 223.294 5.29563 -0.795173 0
M  V30 2278 C 224.45 6.25449 0.237516 0
M  V30 2279 H 224.683 2.8987 -0.660521 0
M  V30 2280 H 222.216 1.47456 -0.457821 0
M  V30 2281 H 224.174 3.74158 1.68868 0
M  V30 2282 H 222.835 2.57818 1.79411 0
M  V30 2283 H 222.028 4.88954 1.22227 0
M  V30 2284 H 221.63 3.73925 -0.0749554 0
M  V30 2285 H 223.922 6.68524 1.09915 0
M  V30 2286 H 224.865 7.07104 -0.375421 0
M  V30 2287 H 225.273 5.61511 0.580167 0
M  V30 2288 N 224.671 0.411399 1.52136 0
M  V30 2289 C 225.634 -0.401089 2.25663 0
M  V30 2290 C 226.634 -0.971732 1.28117 0
M  V30 2291 O 227.824 -0.850254 1.52041 0
M  V30 2292 C 224.956 -1.56483 3.02863 0
M  V30 2293 H 226.149 0.24295 2.98914 0
M  V30 2294 H 223.702 0.163968 1.55438 0
M  V30 2295 H 224.437 -2.24567 2.33967 0
M  V30 2296 H 224.222 -1.16211 3.74483 0
M  V30 2297 H 225.712 -2.13951 3.58629 0
M  V30 2298 N 226.149 -1.5696 0.141893 0
M  V30 2299 C 227.395 -1.9625 -0.511248 0
M  V30 2300 C 227.728 -1.02654 -1.64851 0
M  V30 2301 O 227.003 -0.0679676 -1.94381 0
M  V30 2302 C 227.286 -3.45285 -1.02227 0
M  V30 2303 C 227.139 -4.49658 0.113138 0
M  V30 2304 C 228.458 -3.96698 -1.90574 0
M  V30 2305 H 225.577 -0.713567 -0.184367 0
M  V30 2306 H 228.219 -1.88698 0.222087 0
M  V30 2307 H 226.369 -3.51852 -1.64719 0
M  V30 2308 H 228.041 -4.55174 0.749302 0
M  V30 2309 H 226.284 -4.26857 0.773026 0
M  V30 2310 H 226.955 -5.51258 -0.286053 0
M  V30 2311 H 229.431 -3.92578 -1.37918 0
M  V30 2312 H 228.307 -5.01453 -2.2324 0
M  V30 2313 H 228.568 -3.3875 -2.84079 0
M  V30 2314 N 227.627 0.131896 -1.57047 0
M  V30 2315 C 228.59 1.14638 -1.98471 0
M  V30 2316 C 229.59 1.35029 -0.873148 0
M  V30 2317 O 230.78 1.31764 -1.13946 0
M  V30 2318 C 227.912 2.50358 -2.31373 0
M  V30 2319 H 229.105 0.79064 -2.8929 0
M  V30 2320 H 226.658 0.375761 -1.51716 0
M  V30 2321 H 227.393 2.90876 -1.43393 0
M  V30 2322 H 227.178 2.36915 -3.12432 0
M  V30 2323 H 228.668 3.23395 -2.64207 0
M  V30 2324 N 229.106 1.52395 0.401703 0
M  V30 2325 C 230.355 1.66044 1.14509 0
M  V30 2326 C 230.668 0.400216 1.91462 0
M  V30 2327 O 231.874 0.416632 2.68284 0
M  V30 2328 C 230.33 2.93388 2.0845 0
M  V30 2329 C 229.938 4.26545 1.36978 0
M  V30 2330 C 231.682 3.16402 2.83001 0
M  V30 2331 C 229.589 5.45007 2.29611 0
M  V30 2332 H 228.519 0.618562 0.431158 0
M  V30 2333 H 231.17 1.78886 0.40892 0
M  V30 2334 H 229.552 2.74263 2.8565 0
M  V30 2335 H 230.726 4.56179 0.650916 0
M  V30 2336 H 229.041 4.09692 0.74438 0
M  V30 2337 H 231.638 4.02085 3.52465 0
M  V30 2338 H 231.981 2.30943 3.46368 0
M  V30 2339 H 232.514 3.36034 2.12898 0
M  V30 2340 H 229.253 6.32835 1.70879 0
M  V30 2341 H 228.773 5.19702 2.9945 0
M  V30 2342 H 230.452 5.7838 2.89974 0
M  V30 2343 N 230.584 -0.659388 1.43143 0
M  V30 2344 C 231.494 -1.80167 1.50256 0
M  V30 2345 C 232.51 -1.69571 0.390106 0
M  V30 2346 O 233.686 -1.90849 0.643319 0
M  V30 2347 C 230.751 -3.16409 1.41725 0
M  V30 2348 C 229.812 -3.38848 2.63591 0
M  V30 2349 C 229.045 -4.68591 2.55458 0
M  V30 2350 O 229.268 -5.47532 1.59891 0
M  V30 2351 O 228.202 -4.92614 3.45854 0
M  V30 2352 H 232.028 -1.77121 2.46702 0
M  V30 2353 H 229.613 -0.817092 1.25076 0
M  V30 2354 H 231.495 -3.9768 1.39387 0
M  V30 2355 H 230.17 -3.20059 0.484118 0
M  V30 2356 H 229.077 -2.57366 2.71502 0
M  V30 2357 H 230.41 -3.4004 3.55856 0
M  V30 2358 N 232.062 -1.29571 -0.897171 0
M  V30 2359 C 233.025 -1.14913 -1.98312 0
M  V30 2360 C 234.025 -0.0838629 -1.60581 0
M  V30 2361 O 235.215 -0.331006 -1.71026 0
M  V30 2362 C 232.347 -0.757835 -3.3237 0
M  V30 2363 H 233.54 -2.11377 -2.12743 0
M  V30 2364 H 231.093 -1.12793 -1.08201 0
M  V30 2365 H 231.828 0.206837 -3.2364 0
M  V30 2366 H 231.613 -1.52755 -3.61121 0
M  V30 2367 H 233.103 -0.678408 -4.12053 0
M  V30 2368 N 233.54 1.10788 -1.12088 0
M  V30 2369 C 234.77 1.86191 -0.895351 0
M  V30 2370 C 235.178 1.80763 0.558702 0
M  V30 2371 O 234.521 1.19188 1.39785 0
M  V30 2372 C 234.583 3.35659 -1.28737 0
M  V30 2373 C 234.247 3.64849 -2.75198 0
M  V30 2374 C 235.244 3.61757 -3.734 0
M  V30 2375 C 232.929 3.93641 -3.12013 0
M  V30 2376 C 234.923 3.87045 -5.06434 0
M  V30 2377 C 232.61 4.18585 -4.4523 0
M  V30 2378 C 233.608 4.15277 -5.42249 0
M  V30 2379 O 233.296 4.3959 -6.73065 0
M  V30 2380 H 233.028 0.595425 -0.32007 0
M  V30 2381 H 235.582 1.40992 -1.49367 0
M  V30 2382 H 233.812 3.81497 -0.63224 0
M  V30 2383 H 235.501 3.92441 -1.03656 0
M  V30 2384 H 236.267 3.39557 -3.46303 0
M  V30 2385 H 232.146 3.95348 -2.37109 0
M  V30 2386 H 235.69 3.84378 -5.82151 0
M  V30 2387 H 231.587 4.40264 -4.72057 0
M  V30 2388 H 232.355 4.57123 -6.78956 0
M  V30 2389 N 235.018 0.912232 1.28515 0
M  V30 2390 C 235.928 0.404506 2.31086 0
M  V30 2391 C 236.944 -0.50707 1.66448 0
M  V30 2392 O 238.12 -0.393624 1.97516 0
M  V30 2393 C 235.185 -0.348572 3.44943 0
M  V30 2394 C 234.246 0.59604 4.25142 0
M  V30 2395 C 233.479 -0.121194 5.33562 0
M  V30 2396 O 233.702 -1.34317 5.5436 0
M  V30 2397 O 232.636 0.542716 5.99448 0
M  V30 2398 H 236.462 1.25579 2.76521 0
M  V30 2399 H 234.047 0.676998 1.33181 0
M  V30 2400 H 235.929 -0.77395 4.14232 0
M  V30 2401 H 234.604 -1.17571 3.01594 0
M  V30 2402 H 233.511 1.07079 3.58448 0
M  V30 2403 H 234.844 1.38995 4.72167 0
M  V30 2404 N 236.496 -1.42363 0.676048 0
M  V30 2405 C 237.459 -2.29199 0.00766941 0
M  V30 2406 C 238.459 -1.43389 -0.727745 0
M  V30 2407 O 239.649 -1.64764 -0.56556 0
M  V30 2408 C 236.781 -3.2591 -0.999785 0
M  V30 2409 H 237.974 -2.89794 0.771988 0
M  V30 2410 H 235.527 -1.50024 0.438468 0
M  V30 2411 H 236.262 -2.70256 -1.79255 0
M  V30 2412 H 236.047 -3.89202 -0.475829 0
M  V30 2413 H 237.537 -3.91028 -1.46583 0
M  V30 2414 N 237.974 -0.419461 -1.51915 0
M  V30 2415 C 239.202 0.152136 -2.0634 0
M  V30 2416 C 239.617 1.37988 -1.28859 0
M  V30 2417 O 238.974 1.79243 -0.343232 0
M  V30 2418 C 239.025 0.492266 -3.58133 0
M  V30 2419 O 238.746 -0.686736 -4.32684 0
M  V30 2420 C 240.247 1.11648 -4.2901 0
M  V30 2421 H 237.467 0.0158325 -0.670813 0
M  V30 2422 H 240.011 -0.593394 -1.95702 0
M  V30 2423 H 238.166 1.18769 -3.68745 0
M  V30 2424 H 238.58 -0.400341 -5.2297 0
M  V30 2425 H 240.054 1.3046 -5.36362 0
M  V30 2426 H 240.531 2.09251 -3.86148 0
M  V30 2427 H 241.137 0.460958 -4.22795 0
M  V30 2428 N 239.452 1.56882 -0.150215 0
M  V30 2429 C 240.382 2.19935 0.784284 0
M  V30 2430 C 241.363 1.14854 1.25469 0
M  V30 2431 O 242.548 1.43209 1.31168 0
M  V30 2432 C 239.678 2.82349 2.02229 0
M  V30 2433 C 238.632 3.93285 1.68853 0
M  V30 2434 C 237.958 4.42649 2.99944 0
M  V30 2435 C 239.258 5.13904 0.932714 0
M  V30 2436 H 240.952 2.9828 0.258781 0
M  V30 2437 H 238.498 1.43473 0.123029 0
M  V30 2438 H 240.451 3.25126 2.68088 0
M  V30 2439 H 239.175 2.0134 2.57157 0
M  V30 2440 H 237.834 3.5113 1.05371 0
M  V30 2441 H 237.482 3.58458 3.52869 0
M  V30 2442 H 237.182 5.17476 2.78374 0
M  V30 2443 H 238.706 4.88099 3.66868 0
M  V30 2444 H 240.12 5.53506 1.49345 0
M  V30 2445 H 238.517 5.94515 0.81684 0
M  V30 2446 H 239.587 4.84842 -0.0749568 0
M  V30 2447 N 240.93 -0.123565 1.57115 0
M  V30 2448 C 242.179 -0.830704 1.83799 0
M  V30 2449 C 242.492 -1.81259 0.735158 0
M  V30 2450 O 243.698 -2.56558 0.888278 0
M  V30 2451 C 242.154 -1.52802 3.25852 0
M  V30 2452 C 241.762 -0.587356 4.44133 0
M  V30 2453 C 243.506 -2.22056 3.61789 0
M  V30 2454 C 241.413 -1.28764 5.77212 0
M  V30 2455 H 240.343 -0.313967 0.685522 0
M  V30 2456 H 242.994 -0.0834359 1.8331 0
M  V30 2457 H 241.376 -2.32175 3.20797 0
M  V30 2458 H 242.55 0.172829 4.60476 0
M  V30 2459 H 240.865 -0.00201892 4.164 0
M  V30 2460 H 243.462 -2.75131 4.58483 0
M  V30 2461 H 243.805 -2.99644 2.88997 0
M  V30 2462 H 244.338 -1.49576 3.68608 0
M  V30 2463 H 241.077 -0.55314 6.53162 0
M  V30 2464 H 240.597 -2.01995 5.64764 0
M  V30 2465 H 242.276 -1.8221 6.20813 0
M  V30 2466 N 242.408 -1.52605 -0.393616 0
M  V30 2467 C 243.636 -1.71294 -1.16043 0
M  V30 2468 C 244.051 -0.429259 -1.83855 0
M  V30 2469 O 243.408 0.595921 -1.72496 0
M  V30 2470 C 243.459 -2.8593 -2.21193 0
M  V30 2471 O 243.18 -4.09329 -1.56146 0
M  V30 2472 C 244.681 -3.16259 -3.10636 0
M  V30 2473 H 241.901 -0.573641 -0.348104 0
M  V30 2474 H 244.445 -1.99234 -0.461092 0
M  V30 2475 H 242.6 -2.60465 -2.86769 0
M  V30 2476 H 243.014 -4.73323 -2.25978 0
M  V30 2477 H 244.488 -3.99946 -3.80456 0
M  V30 2478 H 244.965 -2.3045 -3.73884 0
M  V30 2479 H 245.571 -3.43547 -2.50711 0
M  V30 2480 N 243.887 0.651787 -1.4349 0
M  V30 2481 C 245.298 1.233 -1.40193 0
M  V30 2482 C 245.649 1.9591 -0.106727 0
M  V30 2483 O 244.774 2.01316 0.793773 0
M  V30 2484 C 245.369 2.24257 -2.53957 0
M  V30 2485 C 243.928 2.77852 -2.5392 0
M  V30 2486 C 243.075 1.52517 -2.3159 0
M  V30 2487 H 246.026 0.443717 -1.52371 0
M  V30 2488 H 246.047 3.0646 -2.25528 0
M  V30 2489 H 245.559 1.71382 -3.4821 0
M  V30 2490 H 243.66 3.34786 -1.63551 0
M  V30 2491 H 243.773 3.25299 -3.51735 0
M  V30 2492 H 242.137 1.79915 -1.80285 0
M  V30 2493 H 242.92 1.01574 -3.27929 0
M  V30 2494 N 245.365 1.30045 0.890287 0
M  V30 2495 C 246.275 1.17885 2.02831 0
M  V30 2496 C 247.291 0.0999609 1.73713 0
M  V30 2497 O 248.467 0.313867 1.98939 0
M  V30 2498 C 245.532 0.866079 3.35708 0
M  V30 2499 C 244.593 2.02979 3.78283 0
M  V30 2500 C 243.826 1.73184 5.0482 0
M  V30 2501 O 244.049 0.657237 5.66601 0
M  V30 2502 O 242.983 2.58267 5.43674 0
M  V30 2503 H 246.809 2.13474 2.16015 0
M  V30 2504 H 244.394 1.09587 1.01543 0
M  V30 2505 H 246.276 0.706623 4.15433 0
M  V30 2506 H 244.951 -0.0599443 3.23644 0
M  V30 2507 H 243.858 2.24454 2.99285 0
M  V30 2508 H 245.191 2.93734 3.94944 0
M  V30 2509 N 246.843 -1.10192 1.12674 0
M  V30 2510 C 247.806 -2.14786 0.799979 0
M  V30 2511 C 248.806 -1.59711 -0.18685 0
M  V30 2512 O 249.996 -1.74156 0.0392558 0
M  V30 2513 C 247.128 -3.40374 0.189228 0
M  V30 2514 H 248.321 -2.45203 1.72671 0
M  V30 2515 H 245.874 -1.25597 0.930326 0
M  V30 2516 H 246.609 -3.15577 -0.747107 0
M  V30 2517 H 246.394 -3.81637 0.899766 0
M  V30 2518 H 247.884 -4.17594 -0.0228143 0
M  V30 2519 N 248.321 -0.919034 -1.28029 0
M  V30 2520 C 249.732 -0.600735 -1.76771 0
M  V30 2521 C 250.083 0.884024 -1.75156 0
M  V30 2522 O 249.208 1.69163 -1.34956 0
M  V30 2523 C 249.803 -1.08372 -3.21 0
M  V30 2524 C 248.362 -0.816248 -3.67443 0
M  V30 2525 C 247.509 -1.24742 -2.47658 0
M  V30 2526 H 250.46 -1.09974 -1.14418 0
M  V30 2527 H 250.481 -0.427512 -3.78091 0
M  V30 2528 H 249.993 -2.16437 -3.22144 0
M  V30 2529 H 248.094 0.250968 -3.71754 0
M  V30 2530 H 248.207 -1.4277 -4.57333 0
M  V30 2531 H 246.571 -0.666083 -2.45836 0
M  V30 2532 H 247.354 -2.33653 -2.51518 0
M  V30 2533 N 249.799 1.42003 -0.683588 0
M  V30 2534 C 251.046 2.01413 -0.209514 0
M  V30 2535 C 251.374 1.54088 1.1869 0
M  V30 2536 O 250.629 0.737591 1.81268 0
M  V30 2537 C 250.928 3.56827 -0.202357 0
M  V30 2538 C 250.594 4.23617 -1.54464 0
M  V30 2539 C 249.256 4.41577 -1.91215 0
M  V30 2540 C 251.608 4.61178 -2.42826 0
M  V30 2541 C 248.936 4.9437 -3.15935 0
M  V30 2542 C 251.288 5.15355 -3.66867 0
M  V30 2543 C 249.952 5.31528 -4.03776 0
M  V30 2544 H 249.222 0.737023 -0.0766668 0
M  V30 2545 H 251.869 1.70067 -0.880312 0
M  V30 2546 H 250.174 3.87892 0.551969 0
M  V30 2547 H 251.871 4.00588 0.181793 0
M  V30 2548 H 248.461 4.10004 -1.24877 0
M  V30 2549 H 252.645 4.46968 -2.15717 0
M  V30 2550 H 247.901 5.05076 -3.44541 0
M  V30 2551 H 252.075 5.43402 -4.35531 0
M  V30 2552 H 249.702 5.72199 -5.00492 0
M  V30 2553 N 251.277 0.427512 1.51691 0
M  V30 2554 C 252.554 -0.201684 1.94557 0
M  V30 2555 C 252.934 -1.60981 1.36559 0
M  V30 2556 O 252.282 -2.21814 0.548702 0
M  V30 2557 C 252.492 -0.189394 3.48486 0
M  V30 2558 C 253.84 -0.39978 4.22714 0
M  V30 2559 O 254.864 -0.267945 3.55191 0
M  V30 2560 O 253.723 -0.661249 5.42485 0
M  V30 2561 H 250.817 -0.135261 0.815864 0
M  V30 2562 H 253.363 0.484782 1.62628 0
M  V30 2563 H 252.135 0.795431 3.8313 0
M  V30 2564 H 251.758 -0.919187 3.86829 0
M  V30 2565 N 252.755 -1.56801 0.158532 0
M  V30 2566 C 253.702 -2.17337 -0.776729 0
M  V30 2567 C 254.672 -1.1096 -1.23601 0
M  V30 2568 O 255.857 -1.39054 -1.30647 0
M  V30 2569 C 252.997 -2.80822 -2.00582 0
M  V30 2570 C 252.11 -4.01624 -1.59129 0
M  V30 2571 C 251.245 -4.53072 -2.77306 0
M  V30 2572 C 250.284 -5.66314 -2.32282 0
M  V30 2573 N 249.421 -6.12329 -3.43508 0
M  V30 2574 H 254.261 -2.96918 -0.253701 0
M  V30 2575 H 251.798 -1.46661 -0.113504 0
M  V30 2576 H 253.756 -3.15779 -2.72652 0
M  V30 2577 H 252.386 -2.03866 -2.50277 0
M  V30 2578 H 251.438 -3.72571 -0.767806 0
M  V30 2579 H 252.75 -4.83633 -1.2207 0
M  V30 2580 H 251.904 -4.90145 -3.57551 0
M  V30 2581 H 250.643 -3.70095 -3.17617 0
M  V30 2582 H 249.648 -5.28806 -1.5048 0
M  V30 2583 H 250.873 -6.51085 -1.93043 0
M  V30 2584 H 248.819 -5.32284 -3.83418 0
M  V30 2585 H 248.736 -6.89293 -3.105 0
M  V30 2586 H 250.004 -6.5405 -4.24075 0
M  V30 2587 N 254.233 0.115231 -1.57178 0
M  V30 2588 C 255.463 0.835224 -1.88964 0
M  V30 2589 C 255.871 1.73774 -0.74829 0
M  V30 2590 O 255.214 1.81401 0.289739 0
M  V30 2591 C 255.276 1.7178 -3.15804 0
M  V30 2592 C 254.94 0.989198 -4.46166 0
M  V30 2593 C 255.937 0.328263 -5.18863 0
M  V30 2594 C 253.622 0.969256 -4.9286 0
M  V30 2595 C 255.616 -0.342873 -6.36477 0
M  V30 2596 C 253.303 0.294324 -6.10391 0
M  V30 2597 C 254.301 -0.360582 -6.82048 0
M  V30 2598 O 253.989 -1.02474 -7.97342 0
M  V30 2599 H 253.721 0.245197 -0.629964 0
M  V30 2600 H 256.275 0.10303 -2.05141 0
M  V30 2601 H 254.505 2.49173 -2.95719 0
M  V30 2602 H 256.194 2.31255 -3.33581 0
M  V30 2603 H 256.96 0.335263 -4.8384 0
M  V30 2604 H 252.839 1.46844 -4.36987 0
M  V30 2605 H 256.383 -0.854629 -6.92345 0
M  V30 2606 H 252.28 0.285099 -6.4487 0
M  V30 2607 H 253.048 -0.929594 -8.13204 0
M  V30 2608 N 255.711 1.52812 0.385517 0
M  V30 2609 C 256.641 1.80808 1.47752 0
M  V30 2610 C 257.622 0.660318 1.5676 0
M  V30 2611 O 258.807 0.908246 1.71652 0
M  V30 2612 C 255.937 1.98008 2.85324 0
M  V30 2613 C 254.891 3.13709 2.91154 0
M  V30 2614 C 254.217 3.16169 4.31209 0
M  V30 2615 C 255.517 4.52709 2.60483 0
M  V30 2616 H 257.211 2.72253 1.24573 0
M  V30 2617 H 254.757 1.31003 0.597839 0
M  V30 2618 H 256.71 2.16176 3.61726 0
M  V30 2619 H 255.434 1.03255 3.09848 0
M  V30 2620 H 254.093 2.95329 2.17201 0
M  V30 2621 H 253.741 2.19092 4.52778 0
M  V30 2622 H 253.441 3.93894 4.36029 0
M  V30 2623 H 254.965 3.36496 5.09512 0
M  V30 2624 H 256.379 4.71173 3.26602 0
M  V30 2625 H 254.776 5.32528 2.76648 0
M  V30 2626 H 255.846 4.59186 1.55809 0
M  V30 2627 N 257.189 -0.644168 1.43834 0
M  V30 2628 C 258.605 -0.960875 1.27434 0
M  V30 2629 C 258.805 -2.00499 0.200618 0
M  V30 2630 O 257.861 -2.49018 -0.417906 0
M  V30 2631 C 259.174 -1.43653 2.64167 0
M  V30 2632 C 260.722 -1.55271 2.71772 0
M  V30 2633 C 261.197 -2.06224 4.08944 0
M  V30 2634 N 262.688 -2.13513 4.11055 0
M  V30 2635 C 263.423 -2.54081 5.14033 0
M  V30 2636 N 262.919 -2.9388 6.27381 0
M  V30 2637 N 264.712 -2.54101 5.01387 0
M  V30 2638 H 256.863 0.0465779 2.12349 0
M  V30 2639 H 259.126 -0.0417638 0.94708 0
M  V30 2640 H 258.832 -0.743706 3.43747 0
M  V30 2641 H 258.706 -2.40993 2.90176 0
M  V30 2642 H 261.093 -2.23653 1.92519 0
M  V30 2643 H 261.174 -0.563395 2.49519 0
M  V30 2644 H 260.818 -1.38441 4.88668 0
M  V30 2645 H 260.748 -3.06003 4.28567 0
M  V30 2646 H 263.239 -1.85493 3.29242 0
M  V30 2647 H 263.552 -3.2361 7.01781 0
M  V30 2648 H 261.897 -2.91663 6.30839 0
M  V30 2649 H 265.088 -2.22391 4.11898 0
M  V30 2650 H 265.261 -2.85394 5.81768 0
M  V30 2651 N 258.668 -1.30515 -0.883378 0
M  V30 2652 C 259.916 -1.19194 -1.63209 0
M  V30 2653 C 260.237 0.253205 -1.93349 0
M  V30 2654 O 259.507 1.17025 -1.57105 0
M  V30 2655 H 258.087 -0.438148 -0.605009 0
M  V30 2656 H 260.749 -1.63663 -1.05832 0
M  V30 2657 H 259.845 -1.75396 -2.58153 0
M  V30 2658 N 260.146 1.09593 -1.13257 0
M  V30 2659 C 261.423 1.78293 -0.804432 0
M  V30 2660 C 261.803 1.99004 0.70431 0
M  V30 2661 O 261.151 1.59007 1.641 0
M  V30 2662 C 261.361 3.10707 -1.5894 0
M  V30 2663 C 262.709 3.85443 -1.78099 0
M  V30 2664 O 263.733 3.20454 -1.55525 0
M  V30 2665 O 262.592 5.02108 -2.15753 0
M  V30 2666 H 259.686 0.773156 -0.293528 0
M  V30 2667 H 262.232 1.16164 -1.23709 0
M  V30 2668 H 261.004 2.91106 -2.61482 0
M  V30 2669 H 260.627 3.80558 -1.15157 0
M  V30 2670 N 261.624 0.925811 1.2754 0
M  V30 2671 C 262.852 0.581509 1.9856 0
M  V30 2672 C 263.267 -0.840041 1.69082 0
M  V30 2673 O 262.624 -1.55805 0.950312 0
M  V30 2674 C 262.675 0.795589 3.52637 0
M  V30 2675 O 262.396 2.16121 3.81082 0
M  V30 2676 C 263.897 0.459744 4.4091 0
M  V30 2677 H 261.117 0.220538 0.633722 0
M  V30 2678 H 263.661 1.24232 1.6244 0
M  V30 2679 H 261.816 0.18161 3.86974 0
M  V30 2680 H 262.23 2.2098 4.75676 0
M  V30 2681 H 263.704 0.660244 5.48037 0
M  V30 2682 H 264.181 -0.604625 4.35018 0
M  V30 2683 H 264.787 1.05178 4.12089 0
M  V30 2684 N 263.102 -1.41638 0.69111 0
M  V30 2685 C 264.327 -2.06148 0.227583 0
M  V30 2686 C 264.752 -1.51652 -1.11281 0
M  V30 2687 O 264.11 -0.64164 -1.69566 0
M  V30 2688 C 264.158 -3.60095 0.190858 0
M  V30 2689 O 263.262 -4.03845 -0.835664 0
M  V30 2690 H 262.603 -0.654434 0.112306 0
M  V30 2691 H 265.133 -1.81484 0.944714 0
M  V30 2692 H 265.143 -4.07995 0.020207 0
M  V30 2693 H 263.818 -3.99129 1.16915 0
M  V30 2694 H 262.395 -3.67458 -0.63473 0
M  V30 2695 N 264.58 -0.43555 -1.51462 0
M  V30 2696 C 265.543 0.365137 -2.26273 0
M  V30 2697 C 266.543 0.951227 -1.29647 0
M  V30 2698 O 267.733 0.825958 -1.53374 0
M  V30 2699 C 264.865 1.51645 -3.05314 0
M  V30 2700 H 266.058 -0.290474 -2.9849 0
M  V30 2701 H 263.611 -0.188676 -1.55157 0
M  V30 2702 H 264.346 2.20816 -2.3751 0
M  V30 2703 H 264.131 1.10238 -3.76284 0
M  V30 2704 H 265.621 2.08218 -3.61987 0
M  V30 2705 N 266.058 1.56714 -0.166846 0
M  V30 2706 C 266.988 2.20754 0.760913 0
M  V30 2707 C 267.969 1.16178 1.24244 0
M  V30 2708 O 269.154 1.44592 1.29641 0
M  V30 2709 C 266.284 2.84478 1.99223 0
M  V30 2710 C 265.238 3.95053 1.64672 0
M  V30 2711 C 264.564 4.45805 2.95232 0
M  V30 2712 C 265.864 5.14865 0.878155 0
M  V30 2713 H 267.558 2.98537 0.22713 0
M  V30 2714 H 265.104 1.43596 0.107805 0
M  V30 2715 H 267.057 3.27951 2.64624 0
M  V30 2716 H 265.781 2.04056 2.55007 0
M  V30 2717 H 264.44 3.52228 1.01641 0
M  V30 2718 H 264.088 3.62181 3.49047 0
M  V30 2719 H 263.788 5.204 2.7287 0
M  V30 2720 H 265.312 4.91962 3.6167 0
M  V30 2721 H 266.726 5.55059 1.43466 0
M  V30 2722 H 265.123 5.95348 0.753738 0
M  V30 2723 H 266.193 4.84735 -0.126377 0
M  V30 2724 N 267.536 -0.106894 1.57237 0
M  V30 2725 C 268.484 -1.14944 2.02215 0
M  V30 2726 C 269.478 -1.42167 0.92114 0
M  V30 2727 O 270.684 -1.41987 1.10634 0
M  V30 2728 H 267.059 -0.387841 0.64427 0
M  V30 2729 H 269.03 -0.743683 2.88984 0
M  V30 2730 C 267.779 -2.4647 2.4525 0
M  V30 2731 H 267.102 -2.26363 3.29545 0
M  V30 2732 H 268.542 -3.17948 2.80508 0
M  V30 2733 C 267.001 -3.09921 1.321 0
M  V30 2734 O 267.531 -3.9651 0.643622 0
M  V30 2735 N 265.737 -2.69986 1.07497 0
M  V30 2736 H 265.284 -1.99667 1.62761 0
M  V30 2737 H 265.242 -3.12769 0.319876 0
M  V30 2738 N 269.014 -1.53014 -0.377408 0
M  V30 2739 C 269.924 -1.81557 -1.48574 0
M  V30 2740 C 270.94 -0.703102 -1.59162 0
M  V30 2741 O 272.116 -0.99192 -1.75279 0
M  V30 2742 C 269.181 -1.9889 -2.83978 0
M  V30 2743 C 268.242 -3.22801 -2.83016 0
M  V30 2744 C 267.475 -3.39298 -4.11962 0
M  V30 2745 O 267.698 -2.60345 -5.0752 0
M  V30 2746 O 266.632 -4.32604 -4.18494 0
M  V30 2747 H 270.458 -2.75695 -1.27382 0
M  V30 2748 H 268.043 -1.38248 -0.566373 0
M  V30 2749 H 269.925 -2.11931 -3.6423 0
M  V30 2750 H 268.6 -1.07942 -3.05172 0
M  V30 2751 H 267.507 -3.15193 -2.01505 0
M  V30 2752 H 268.84 -4.13632 -2.66775 0
M  V30 2753 N 270.492 0.636531 -1.44174 0
M  V30 2754 C 271.717 1.42847 -1.50364 0
M  V30 2755 C 272.142 1.87665 -0.127867 0
M  V30 2756 O 271.5 1.58408 0.88185 0
M  V30 2757 C 271.548 2.62854 -2.4686 0
M  V30 2758 O 270.652 3.62501 -1.9664 0
M  V30 2759 H 269.993 0.427642 -0.507955 0
M  V30 2760 H 272.523 0.777422 -1.89255 0
M  V30 2761 H 272.533 3.10465 -2.64718 0
M  V30 2762 H 271.208 2.29578 -3.46795 0
M  V30 2763 H 269.785 3.21735 -1.88523 0
M  V30 2764 N 271.97 1.30982 0.876444 0
M  V30 2765 C 272.88 1.2003 2.01569 0
M  V30 2766 C 273.896 0.11838 1.73597 0
M  V30 2767 O 275.072 0.33495 1.98595 0
M  V30 2768 C 272.137 0.901637 3.34771 0
M  V30 2769 C 271.198 2.06979 3.76109 0
M  V30 2770 C 270.431 1.78529 5.02954 0
M  V30 2771 O 270.654 0.717296 5.65872 0
M  V30 2772 O 269.588 2.64019 5.40905 0
M  V30 2773 H 273.414 2.15753 2.13739 0
M  V30 2774 H 270.999 1.10658 1.00375 0
M  V30 2775 H 272.881 0.750645 4.1466 0
M  V30 2776 H 271.556 -0.0256141 3.2369 0
M  V30 2777 H 270.463 2.27616 2.96887 0
M  V30 2778 H 271.796 2.97907 3.91807 0
M  V30 2779 N 273.449 -1.08991 1.13837 0
M  V30 2780 C 274.396 -2.15748 0.819835 0
M  V30 2781 C 275.366 -1.64636 -0.220026 0
M  V30 2782 O 276.551 -1.90582 -0.0912757 0
M  V30 2783 C 273.691 -3.4382 0.296913 0
M  V30 2784 C 272.804 -4.0881 1.39636 0
M  V30 2785 C 271.939 -5.24655 0.831314 0
M  V30 2786 C 270.978 -5.81575 1.90886 0
M  V30 2787 N 270.115 -6.88774 1.36142 0
M  V30 2788 H 274.955 -2.42338 1.73426 0
M  V30 2789 H 272.492 -1.18935 0.865613 0
M  V30 2790 H 274.45 -4.17193 -0.0244339 0
M  V30 2791 H 273.08 -3.17535 -0.580628 0
M  V30 2792 H 272.132 -3.33258 1.83422 0
M  V30 2793 H 273.444 -4.47141 2.21058 0
M  V30 2794 H 272.598 -6.04942 0.461515 0
M  V30 2795 H 271.337 -4.87698 -0.013932 0
M  V30 2796 H 270.342 -4.99946 2.28767 0
M  V30 2797 H 271.567 -6.20592 2.75758 0
M  V30 2798 H 269.513 -6.53788 0.538254 0
M  V30 2799 H 269.43 -7.25898 2.11208 0
M  V30 2800 H 270.698 -7.72806 1.01933 0
M  V30 2801 N 274.927 -0.932562 -1.27047 0
M  V30 2802 C 275.837 -0.441219 -2.30414 0
M  V30 2803 C 276.853 0.480525 -1.67233 0
M  V30 2804 O 278.029 0.362151 -1.98117 0
M  V30 2805 C 275.094 0.293651 -3.45454 0
M  V30 2806 C 274.155 -0.663601 -4.2414 0
M  V30 2807 C 273.388 0.0362932 -5.33688 0
M  V30 2808 O 273.611 1.2548 -5.56427 0
M  V30 2809 O 272.545 -0.638015 -5.98509 0
M  V30 2810 H 276.371 -1.29962 -2.74488 0
M  V30 2811 H 273.956 -0.6981 -1.32087 0
M  V30 2812 H 275.838 0.707951 -4.15411 0
M  V30 2813 H 274.513 1.12758 -3.03426 0
M  V30 2814 H 273.42 -1.12768 -3.56699 0
M  V30 2815 H 274.753 -1.46489 -4.69896 0
M  V30 2816 N 276.405 1.4127 -0.698611 0
M  V30 2817 C 277.653 2.00782 -0.230409 0
M  V30 2818 C 277.974 1.5562 1.17505 0
M  V30 2819 O 277.244 0.78815 1.79346 0
M  V30 2820 H 275.824 0.742464 -0.0821944 0
M  V30 2821 H 278.486 1.72852 -0.90045 0
M  V30 2822 H 277.582 3.11095 -0.25021 0
M  V30 2823 N 277.883 0.443576 1.51229 0
M  V30 2824 C 278.813 -0.355142 2.30783 0
M  V30 2825 C 279.794 -1.0154 1.36468 0
M  V30 2826 O 280.979 -1.01785 1.65389 0
M  V30 2827 C 278.109 -1.45312 3.15439 0
M  V30 2828 C 277.063 -0.916002 4.18083 0
M  V30 2829 C 276.389 -2.1102 4.91299 0
M  V30 2830 C 277.689 0.0538602 5.22272 0
M  V30 2831 H 279.383 0.308767 2.97804 0
M  V30 2832 H 276.929 0.149937 1.43217 0
M  V30 2833 H 278.882 -2.01914 3.69876 0
M  V30 2834 H 277.606 -2.14541 2.46252 0
M  V30 2835 H 276.265 -0.372145 3.64706 0
M  V30 2836 H 275.913 -2.78882 4.18609 0
M  V30 2837 H 275.613 -1.75717 5.60712 0
M  V30 2838 H 277.137 -2.68164 5.48562 0
M  V30 2839 H 278.551 -0.422069 5.71744 0
M  V30 2840 H 276.948 0.319776 5.99247 0
M  V30 2841 H 278.018 0.98858 4.74716 0
M  V30 2842 N 279.361 -1.56624 0.175154 0
M  V30 2843 C 280.324 -2.16934 -0.739738 0
M  V30 2844 C 281.324 -1.11842 -1.15533 0
M  V30 2845 O 282.514 -1.37335 -1.07167 0
M  V30 2846 C 279.646 -2.75531 -2.00738 0
M  V30 2847 H 280.839 -2.99131 -0.214639 0
M  V30 2848 H 278.392 -1.56123 -0.0744197 0
M  V30 2849 H 279.127 -1.97078 -2.57548 0
M  V30 2850 H 278.912 -3.52444 -1.71831 0
M  V30 2851 H 280.402 -3.21904 -2.66021 0
M  V30 2852 N 280.839 0.0985539 -1.57292 0
M  V30 2853 C 281.769 1.12064 -2.04851 0
M  V30 2854 C 282.75 1.41981 -0.936767 0
M  V30 2855 O 283.935 1.52071 -1.20781 0
M  V30 2856 C 281.065 2.44144 -2.47004 0
M  V30 2857 C 280.019 2.28643 -3.6181 0
M  V30 2858 C 279.345 3.65869 -3.89929 0
M  V30 2859 C 280.645 1.72986 -4.92822 0
M  V30 2860 H 282.339 0.724979 -2.9049 0
M  V30 2861 H 279.885 0.34729 -1.39749 0
M  V30 2862 H 281.838 3.15914 -2.78884 0
M  V30 2863 H 280.562 2.85639 -1.5836 0
M  V30 2864 H 279.221 1.59318 -3.30172 0
M  V30 2865 H 278.869 4.04885 -2.98458 0
M  V30 2866 H 278.569 3.56344 -4.67218 0
M  V30 2867 H 280.093 4.39112 -4.2428 0
M  V30 2868 H 281.507 2.34593 -5.23105 0
M  V30 2869 H 279.904 1.74229 -5.74251 0
M  V30 2870 H 280.974 0.689007 -4.7998 0
M  V30 2871 N 282.317 1.53212 0.369288 0
M  V30 2872 C 283.564 1.69215 1.11232 0
M  V30 2873 C 283.892 0.442048 1.8941 0
M  V30 2874 O 283.147 -0.575944 1.87033 0
M  V30 2875 C 283.446 2.89101 2.10132 0
M  V30 2876 C 283.112 4.25758 1.48463 0
M  V30 2877 C 281.774 4.6292 1.31372 0
M  V30 2878 C 284.126 5.10757 1.03811 0
M  V30 2879 C 281.454 5.82722 0.68207 0
M  V30 2880 C 283.806 6.31201 0.420487 0
M  V30 2881 C 282.47 6.67079 0.237038 0
M  V30 2882 H 281.74 0.619201 0.407027 0
M  V30 2883 H 284.387 1.87391 0.394552 0
M  V30 2884 H 282.692 2.65421 2.88199 0
M  V30 2885 H 284.389 2.98676 2.6757 0
M  V30 2886 H 280.979 3.96494 1.62758 0
M  V30 2887 H 285.163 4.82599 1.1581 0
M  V30 2888 H 280.419 6.09113 0.528316 0
M  V30 2889 H 284.593 6.96368 0.0662874 0
M  V30 2890 H 282.22 7.59774 -0.254477 0
M  V30 2891 N 283.795 -0.628877 1.44509 0
M  V30 2892 C 284.728 -1.75367 1.46019 0
M  V30 2893 C 285.706 -1.59444 0.318787 0
M  V30 2894 O 286.89 -1.81297 0.516099 0
M  V30 2895 C 284.017 -3.12965 1.29501 0
M  V30 2896 C 283.063 -3.47532 2.47233 0
M  V30 2897 S 283.896 -3.44758 4.09758 0
M  V30 2898 C 285.052 -4.84973 3.95667 0
M  V30 2899 H 285.285 -1.7382 2.41193 0
M  V30 2900 H 282.818 -0.803686 1.31834 0
M  V30 2901 H 284.776 -3.92367 1.20658 0
M  V30 2902 H 283.437 -3.12049 0.358341 0
M  V30 2903 H 282.63 -4.47664 2.31544 0
M  V30 2904 H 282.232 -2.75598 2.52828 0
M  V30 2905 H 284.524 -5.74255 3.59496 0
M  V30 2906 H 285.467 -5.05716 4.95638 0
M  V30 2907 H 285.875 -4.59653 3.27688 0
M  V30 2908 N 285.273 -1.31445 -0.869486 0
M  V30 2909 C 286.55 -1.11795 -1.60503 0
M  V30 2910 C 286.93 0.327168 -2.08549 0
M  V30 2911 O 286.278 1.32135 -1.8642 0
M  V30 2912 C 286.488 -2.13258 -2.76265 0
M  V30 2913 C 287.836 -2.45805 -3.46215 0
M  V30 2914 O 288.86 -2.11688 -2.86473 0
M  V30 2915 O 287.719 -3.04228 -4.5399 0
M  V30 2916 H 284.813 -0.430421 -0.706163 0
M  V30 2917 H 287.359 -1.42925 -0.914907 0
M  V30 2918 H 286.131 -3.10461 -2.3818 0
M  V30 2919 H 285.754 -1.83035 -3.52964 0
M  V30 2920 N 286.751 1.08385 -1.14413 0
M  V30 2921 C 288.167 1.32844 -0.884563 0
M  V30 2922 C 288.367 1.95841 0.474181 0
M  V30 2923 O 287.423 2.21158 1.21842 0
M  V30 2924 C 288.736 2.22978 -2.01745 0
M  V30 2925 C 290.284 2.36458 -2.05077 0
M  V30 2926 C 290.759 3.29934 -3.1766 0
M  V30 2927 N 292.25 3.37511 -3.17239 0
M  V30 2928 C 292.985 4.09871 -4.0099 0
M  V30 2929 N 292.481 4.84936 -4.94781 0
M  V30 2930 N 294.274 4.05704 -3.89051 0
M  V30 2931 H 286.425 0.658756 -2.01926 0
M  V30 2932 H 288.688 0.352821 -0.879899 0
M  V30 2933 H 288.394 1.83934 -2.99769 0
M  V30 2934 H 288.268 3.23441 -1.94077 0
M  V30 2935 H 290.655 2.7476 -1.0766 0
M  V30 2936 H 290.736 1.35736 -2.16816 0
M  V30 2937 H 290.38 2.92352 -4.15322 0
M  V30 2938 H 290.31 4.30584 -3.03158 0
M  V30 2939 H 292.801 2.83996 -2.49308 0
M  V30 2940 H 293.114 5.37612 -5.55151 0
M  V30 2941 H 291.459 4.83988 -4.98779 0
M  V30 2942 H 294.65 3.46167 -3.15097 0
M  V30 2943 H 294.823 4.61834 -4.54547 0
M  V30 2944 N 288.23 0.939286 1.26551 0
M  V30 2945 C 289.478 0.58469 1.93457 0
M  V30 2946 C 289.799 -0.878774 1.74076 0
M  V30 2947 O 289.069 -1.62421 1.09528 0
M  V30 2948 H 287.649 0.21325 0.715914 0
M  V30 2949 H 290.311 1.1942 1.54029 0
M  V30 2950 H 289.407 0.800849 3.0165 0
M  V30 2951 N 289.708 -1.40897 0.706093 0
M  V30 2952 C 290.948 -2.02916 0.245827 0
M  V30 2953 C 291.312 -1.54751 -1.13649 0
M  V30 2954 O 292.513 -2.08768 -1.69321 0
M  V30 2955 C 290.784 -3.56031 0.312537 0
M  V30 2956 S 292.343 -4.38741 -0.0721388 0
M  V30 2957 H 289.161 -0.704186 0.0982007 0
M  V30 2958 H 291.763 -1.72168 0.926207 0
M  V30 2959 H 290.467 -3.88579 1.32039 0
M  V30 2960 H 289.998 -3.91495 -0.386641 0
M  V30 2961 H 292.013 -4.78952 -1.29692 0
M  V30 2962 N 291.186 -0.45159 -1.50991 0
M  V30 2963 C 292.414 0.108334 -2.06616 0
M  V30 2964 C 292.829 1.35224 -1.31757 0
M  V30 2965 O 292.186 1.78475 -0.381174 0
M  V30 2966 C 292.237 0.41619 -3.59096 0
M  V30 2967 O 291.958 -0.778361 -4.3113 0
M  V30 2968 C 293.459 1.02523 -4.31282 0
M  V30 2969 H 290.679 0.00159995 -0.670998 0
M  V30 2970 H 293.223 -0.634771 -1.94399 0
M  V30 2971 H 291.378 1.10921 -3.71181 0
M  V30 2972 H 291.792 -0.511181 -5.22003 0
M  V30 2973 H 293.266 1.19053 -5.39009 0
M  V30 2974 H 293.743 2.01013 -3.905 0
M  V30 2975 H 294.349 0.371173 -4.23677 0
M  V30 2976 N 292.664 1.56529 -0.183458 0
M  V30 2977 C 293.627 2.17324 0.728223 0
M  V30 2978 C 294.627 1.12453 1.14939 0
M  V30 2979 O 295.817 1.37902 1.06437 0
M  V30 2980 C 292.949 2.76591 1.99274 0
M  V30 2981 H 294.142 2.99241 0.198772 0
M  V30 2982 H 291.695 1.5616 0.0661391 0
M  V30 2983 H 292.43 1.98441 2.56499 0
M  V30 2984 H 292.215 3.5335 1.69959 0
M  V30 2985 H 293.705 3.23311 2.6431 0
M  V30 2986 N 294.142 -0.090211 1.57342 0
M  V30 2987 C 295.382 -0.798365 1.88163 0
M  V30 2988 C 295.746 -1.75662 0.775046 0
M  V30 2989 O 296.947 -2.50849 0.965816 0
M  V30 2990 C 295.218 -1.50376 3.24225 0
M  V30 2991 S 296.777 -2.24952 3.76752 0
M  V30 2992 H 293.595 -0.265883 0.659414 0
M  V30 2993 H 296.197 -0.055264 1.95422 0
M  V30 2994 H 294.901 -0.792286 4.0268 0
M  V30 2995 H 294.432 -2.28666 3.20118 0
M  V30 2996 H 296.447 -3.51173 3.5056 0
M  V30 2997 N 295.62 -1.53406 -0.361157 0
M  V30 2998 C 296.57 -1.76536 -1.44287 0
M  V30 2999 C 297.554 -0.620019 -1.48474 0
M  V30 3000 O 298.746 -0.878834 -1.53641 0
M  V30 3001 C 295.875 -1.96266 -2.81664 0
M  V30 3002 C 294.961 -3.16815 -2.81938 0
M  V30 3003 N 295.352 -4.38637 -2.51855 0
M  V30 3004 C 293.65 -3.17627 -3.13096 0
M  V30 3005 C 294.351 -5.20401 -2.59919 0
M  V30 3006 N 293.327 -4.56712 -2.94814 0
M  V30 3007 H 297.129 -2.68331 -1.19899 0
M  V30 3008 H 294.643 -1.52091 -0.56938 0
M  V30 3009 H 296.64 -2.10966 -3.59582 0
M  V30 3010 H 295.3 -1.05702 -3.07013 0
M  V30 3011 H 296.311 -4.66293 -2.25369 0
M  V30 3012 H 292.988 -2.36971 -3.43731 0
M  V30 3013 H 294.378 -6.27586 -2.39969 0
M  V30 3014 N 297.098 0.621204 -1.44841 0
M  V30 3015 C 298.323 1.41244 -1.51871 0
M  V30 3016 C 298.748 1.87519 -0.147764 0
M  V30 3017 O 298.106 1.59334 0.865 0
M  V30 3018 C 298.154 2.60221 -2.49634 0
M  V30 3019 O 297.258 3.60395 -2.00473 0
M  V30 3020 H 296.599 0.42223 -0.512463 0
M  V30 3021 H 299.129 0.757305 -1.90069 0
M  V30 3022 H 299.139 3.0764 -2.67996 0
M  V30 3023 H 297.814 2.25887 -3.4921 0
M  V30 3024 H 296.391 3.19717 -1.91925 0
M  V30 3025 N 298.576 1.31904 0.862503 0
M  V30 3026 C 299.824 1.21776 1.61292 0
M  V30 3027 C 300.145 -0.222413 1.93727 0
M  V30 3028 O 299.415 -1.1451 1.58947 0
M  V30 3029 H 297.995 0.447717 0.597962 0
M  V30 3030 H 300.657 1.65326 1.03215 0
M  V30 3031 H 299.753 1.7948 2.5533 0
M  V30 3032 N 300.054 -1.07777 1.14986 0
M  V30 3033 C 301.3 -1.80557 0.923422 0
M  V30 3034 C 301.633 -1.86298 -0.548337 0
M  V30 3035 O 300.908 -1.34354 -1.40639 0
M  V30 3036 C 301.191 -3.25839 1.53299 0
M  V30 3037 C 301.044 -3.28269 3.07505 0
M  V30 3038 C 302.363 -4.22991 1.21518 0
M  V30 3039 H 299.482 -0.655493 0.336894 0
M  V30 3040 H 302.124 -1.26144 1.42083 0
M  V30 3041 H 300.274 -3.72306 1.10999 0
M  V30 3042 H 301.946 -2.90079 3.58681 0
M  V30 3043 H 300.189 -2.67355 3.4162 0
M  V30 3044 H 300.86 -4.30691 3.45266 0
M  V30 3045 H 303.336 -3.84894 1.581 0
M  V30 3046 H 302.212 -5.22945 1.66793 0
M  V30 3047 H 302.473 -4.41904 0.131505 0
M  V30 3048 N 301.532 -0.945985 -1.26051 0
M  V30 3049 C 302.48 -0.450259 -2.282 0
M  V30 3050 C 303.474 0.47497 -1.62605 0
M  V30 3051 O 304.68 0.352653 -1.76512 0
M  V30 3052 H 301.055 -0.127081 -0.741184 0
M  V30 3053 H 303.026 -1.32422 -2.67408 0
M  V30 3054 C 301.775 0.26467 -3.46691 0
M  V30 3055 H 301.098 -0.438123 -3.97392 0
M  V30 3056 H 302.538 0.575678 -4.20074 0
M  V30 3057 C 300.997 1.48416 -3.02447 0
M  V30 3058 O 301.527 2.58227 -3.07704 0
M  V30 3059 N 299.733 1.34243 -2.57735 0
M  V30 3060 H 299.28 0.448994 -2.53657 0
M  V30 3061 H 299.238 2.15957 -2.28495 0
M  V30 3062 N 303.011 1.40521 -0.713556 0
M  V30 3063 C 303.941 2.33381 -0.0743864 0
M  V30 3064 C 304.922 1.52784 0.747735 0
M  V30 3065 O 306.107 1.81258 0.697071 0
M  V30 3066 C 303.237 3.36748 0.849598 0
M  V30 3067 C 302.191 4.27793 0.133247 0
M  V30 3068 C 301.517 5.21679 1.17281 0
M  V30 3069 C 302.817 5.12415 -1.01134 0
M  V30 3070 H 304.511 2.87081 -0.850007 0
M  V30 3071 H 302.057 1.38034 -0.410201 0
M  V30 3072 H 304.01 4.00648 1.30612 0
M  V30 3073 H 302.734 2.81439 1.65709 0
M  V30 3074 H 301.393 3.65342 -0.303426 0
M  V30 3075 H 301.041 4.62677 1.9733 0
M  V30 3076 H 300.741 5.83435 0.698397 0
M  V30 3077 H 302.265 5.88456 1.62947 0
M  V30 3078 H 303.679 5.69781 -0.634274 0
M  V30 3079 H 302.076 5.83203 -1.41399 0
M  V30 3080 H 303.146 4.48514 -1.84292 0
M  V30 3081 N 304.489 0.459591 1.5075 0
M  V30 3082 C 305.737 -0.0991532 2.01857 0
M  V30 3083 C 306.058 -1.41247 1.34441 0
M  V30 3084 O 305.328 -1.89775 0.486022 0
M  V30 3085 H 303.908 -0.039633 0.745948 0
M  V30 3086 H 306.57 0.607387 1.85194 0
M  V30 3087 H 305.666 -0.258998 3.11023 0
M  V30 3088 N 305.967 -1.56429 0.191757 0
M  V30 3089 C 307.215 -1.97095 -0.447006 0
M  V30 3090 C 307.536 -1.07967 -1.62383 0
M  V30 3091 O 306.806 -0.150248 -1.95323 0
M  V30 3092 H 305.386 -0.727832 -0.168135 0
M  V30 3093 H 308.048 -1.92911 0.27771 0
M  V30 3094 H 307.144 -3.01848 -0.793371 0
M  V30 3095 N 307.445 0.0818655 -1.57387 0
M  V30 3096 C 308.377 1.12484 -1.997 0
M  V30 3097 C 309.39 1.35564 -0.90146 0
M  V30 3098 O 310.579 1.33982 -1.17945 0
M  V30 3099 C 307.679 2.47778 -2.31213 0
M  V30 3100 C 306.852 2.44793 -3.62485 0
M  V30 3101 C 305.911 3.62117 -3.81782 0
M  V30 3102 O 304.937 3.44005 -4.53486 0
M  V30 3103 N 306.139 4.82094 -3.23367 0
M  V30 3104 H 308.904 0.764585 -2.89783 0
M  V30 3105 H 306.465 0.270664 -1.59621 0
M  V30 3106 H 308.457 3.24891 -2.41304 0
M  V30 3107 H 307.027 2.75843 -1.4707 0
M  V30 3108 H 306.247 1.53134 -3.6324 0
M  V30 3109 H 307.535 2.39889 -4.48699 0
M  V30 3110 H 306.933 4.99713 -2.65148 0
M  V30 3111 H 305.49 5.56753 -3.38923 0
M  V30 3112 N 308.923 1.53595 0.353017 0
M  V30 3113 C 309.871 1.81605 1.45335 0
M  V30 3114 C 310.865 0.685923 1.54892 0
M  V30 3115 O 312.071 0.869095 1.57628 0
M  V30 3116 H 308.446 0.575204 0.484401 0
M  V30 3117 H 310.417 2.73679 1.18921 0
M  V30 3118 C 309.166 2.03406 2.81995 0
M  V30 3119 H 308.489 2.89814 2.75405 0
M  V30 3120 H 309.929 2.26975 3.58132 0
M  V30 3121 C 308.388 0.816794 3.26849 0
M  V30 3122 O 308.918 0.0115856 4.01698 0
M  V30 3123 N 307.124 0.636682 2.8354 0
M  V30 3124 H 306.671 1.2931 2.22793 0
M  V30 3125 H 306.629 -0.176336 3.13905 0
M  V30 3126 N 310.401 -0.613514 1.45168 0
M  V30 3127 C 311.631 -1.39743 1.52169 0
M  V30 3128 C 312.039 -1.88596 0.151086 0
M  V30 3129 O 311.382 -1.6251 -0.856521 0
M  V30 3130 C 311.444 -2.64035 2.43979 0
M  V30 3131 C 311.108 -2.36861 3.90827 0
M  V30 3132 C 312.105 -1.97591 4.80889 0
M  V30 3133 C 309.79 -2.49956 4.35692 0
M  V30 3134 C 311.784 -1.71768 6.1382 0
M  V30 3135 C 309.471 -2.23747 5.68665 0
M  V30 3136 C 310.469 -1.84714 6.57548 0
M  V30 3137 O 310.157 -1.58809 7.88058 0
M  V30 3138 H 309.889 -0.434382 0.517966 0
M  V30 3139 H 312.443 -0.75587 1.90986 0
M  V30 3140 H 310.673 -3.3089 2.00122 0
M  V30 3141 H 312.362 -3.26069 2.41731 0
M  V30 3142 H 313.128 -1.87015 4.47493 0
M  V30 3143 H 309.007 -2.79305 3.66756 0
M  V30 3144 H 312.551 -1.41227 6.83155 0
M  V30 3145 H 308.448 -2.33938 6.01617 0
M  V30 3146 H 309.216 -1.7291 8.00028 0
M  V30 3147 N 311.879 -1.3236 -0.855495 0
M  V30 3148 C 313.109 -1.25688 -1.6397 0
M  V30 3149 C 313.517 0.177592 -1.88365 0
M  V30 3150 O 312.86 1.12485 -1.45234 0
M  V30 3151 C 312.922 -1.94602 -3.02275 0
M  V30 3152 C 312.586 -3.43937 -3.00926 0
M  V30 3153 C 313.583 -4.39435 -2.77835 0
M  V30 3154 C 311.268 -3.85858 -3.21588 0
M  V30 3155 C 313.262 -5.74829 -2.75409 0
M  V30 3156 C 310.949 -5.21361 -3.18789 0
M  V30 3157 C 311.947 -6.15658 -2.95727 0
M  V30 3158 O 311.635 -7.48681 -2.928 0
M  V30 3159 H 311.367 -0.434972 -0.51747 0
M  V30 3160 H 313.921 -1.75023 -1.075 0
M  V30 3161 H 312.151 -1.39836 -3.60531 0
M  V30 3162 H 313.84 -1.81651 -3.62985 0
M  V30 3163 H 314.606 -4.08374 -2.6164 0
M  V30 3164 H 310.485 -3.12883 -3.38564 0
M  V30 3165 H 314.029 -6.48404 -2.57328 0
M  V30 3166 H 309.926 -5.52052 -3.34528 0
M  V30 3167 H 310.694 -7.5803 -3.0876 0
M  V30 3168 N 313.357 1.07166 -1.15556 0
M  V30 3169 C 314.768 1.6127 -0.940693 0
M  V30 3170 C 315.119 1.89251 0.517551 0
M  V30 3171 O 314.244 1.65937 1.38903 0
M  V30 3172 C 314.839 2.92993 -1.7012 0
M  V30 3173 C 313.398 3.43832 -1.53156 0
M  V30 3174 C 312.545 2.1786 -1.71558 0
M  V30 3175 H 315.496 0.90229 -1.30554 0
M  V30 3176 H 315.517 3.62007 -1.17181 0
M  V30 3177 H 315.029 2.72596 -2.76248 0
M  V30 3178 H 313.13 3.69307 -0.494294 0
M  V30 3179 H 313.243 4.19747 -2.30975 0
M  V30 3180 H 311.607 2.2765 -1.14225 0
M  V30 3181 H 312.39 1.99956 -2.79056 0
M  V30 3182 N 314.835 0.952656 1.25548 0
M  V30 3183 C 316.082 0.606373 1.93208 0
M  V30 3184 C 316.41 -0.85631 1.74636 0
M  V30 3185 O 315.665 -1.62951 1.08376 0
M  V30 3186 C 315.964 0.908818 3.45652 0
M  V30 3187 C 315.63 2.35722 3.84378 0
M  V30 3188 C 314.292 2.75312 3.9466 0
M  V30 3189 C 316.644 3.29793 4.03591 0
M  V30 3190 C 313.972 4.08047 4.21562 0
M  V30 3191 C 316.324 4.62138 4.31985 0
M  V30 3192 C 314.988 5.01528 4.40484 0
M  V30 3193 H 314.258 0.221888 0.706998 0
M  V30 3194 H 316.905 1.20132 1.49133 0
M  V30 3195 H 315.21 0.231456 3.91116 0
M  V30 3196 H 316.907 0.619498 3.96186 0
M  V30 3197 H 313.497 2.04017 3.76928 0
M  V30 3198 H 317.681 3.00397 3.95064 0
M  V30 3199 H 312.937 4.38212 4.26357 0
M  V30 3200 H 317.111 5.35012 4.45797 0
M  V30 3201 H 314.738 6.04406 4.61083 0
M  V30 3202 N 316.313 -1.40141 0.720998 0
M  V30 3203 C 317.561 -2.0039 0.262323 0
M  V30 3204 C 317.882 -1.57469 -1.15015 0
M  V30 3205 O 317.152 -0.816582 -1.78069 0
M  V30 3206 H 315.732 -0.741063 0.093996 0
M  V30 3207 H 318.394 -1.71398 0.927835 0
M  V30 3208 H 317.49 -3.10658 0.299671 0
M  V30 3209 N 317.792 -0.46758 -1.50504 0
M  V30 3210 C 318.722 0.318381 -2.31319 0
M  V30 3211 C 319.703 0.993564 -1.38066 0
M  V30 3212 O 320.888 0.991411 -1.66987 0
M  V30 3213 C 318.018 1.40275 -3.17711 0
M  V30 3214 C 316.972 0.849373 -4.19487 0
M  V30 3215 C 316.298 2.03177 -4.94594 0
M  V30 3216 C 317.598 -0.136942 -5.2212 0
M  V30 3217 H 319.292 -0.356106 -2.97275 0
M  V30 3218 H 316.838 -0.172703 -1.42961 0
M  V30 3219 H 318.791 1.96004 -3.73042 0
M  V30 3220 H 317.515 2.10596 -2.49634 0
M  V30 3221 H 316.174 0.314076 -3.65252 0
M  V30 3222 H 315.822 2.72187 -4.22993 0
M  V30 3223 H 315.522 1.66774 -5.63436 0
M  V30 3224 H 317.046 2.59403 -5.52759 0
M  V30 3225 H 318.46 0.331056 -5.72343 0
M  V30 3226 H 316.857 -0.41507 -5.98663 0
M  V30 3227 H 317.927 -1.06398 -4.73083 0
M  V30 3228 N 319.27 1.56325 -0.20005 0
M  V30 3229 C 320.516 1.98012 0.438059 0
M  V30 3230 C 320.849 1.08702 1.60927 0
M  V30 3231 O 320.124 0.140064 1.93995 0
M  V30 3232 C 320.407 3.48841 0.893419 0
M  V30 3233 C 320.26 4.48928 -0.279947 0
M  V30 3234 C 321.579 4.03498 1.75719 0
M  V30 3235 H 318.698 0.719918 0.157757 0
M  V30 3236 H 321.34 1.87743 -0.291968 0
M  V30 3237 H 319.49 3.57723 1.51547 0
M  V30 3238 H 321.162 4.52079 -0.91772 0
M  V30 3239 H 319.405 4.23694 -0.930919 0
M  V30 3240 H 320.076 5.5194 0.0812601 0
M  V30 3241 H 322.552 3.97427 1.23253 0
M  V30 3242 H 321.428 5.09393 2.04476 0
M  V30 3243 H 321.689 3.4906 2.71311 0
M  V30 3244 N 320.748 -0.0735177 1.57428 0
M  V30 3245 C 321.711 -1.07192 2.02589 0
M  V30 3246 C 322.711 -1.31695 0.922661 0
M  V30 3247 O 323.901 -1.27445 1.18758 0
M  V30 3248 C 321.033 -2.41599 2.40506 0
M  V30 3249 H 322.226 -0.682727 2.92025 0
M  V30 3250 H 319.779 -0.319193 1.53006 0
M  V30 3251 H 320.514 -2.85354 1.5409 0
M  V30 3252 H 320.299 -2.25156 3.21009 0
M  V30 3253 H 321.789 -3.13367 2.76027 0
M  V30 3254 N 322.226 -1.5378 -0.344866 0
M  V30 3255 C 323.173 -1.81676 -1.42346 0
M  V30 3256 C 324.143 -0.662376 -1.52321 0
M  V30 3257 O 325.328 -0.906675 -1.67881 0
M  V30 3258 C 322.468 -2.03087 -2.79015 0
M  V30 3259 C 321.581 -3.30799 -2.77842 0
M  V30 3260 C 320.716 -3.42285 -4.0622 0
M  V30 3261 C 319.755 -4.6395 -3.9927 0
M  V30 3262 N 318.892 -4.72477 -5.19336 0
M  V30 3263 H 323.732 -2.73703 -1.17858 0
M  V30 3264 H 321.269 -1.35568 -0.570949 0
M  V30 3265 H 323.227 -2.1349 -3.58438 0
M  V30 3266 H 321.857 -1.14375 -3.01858 0
M  V30 3267 H 320.909 -3.29244 -1.90533 0
M  V30 3268 H 322.221 -4.20314 -2.68584 0
M  V30 3269 H 321.375 -3.52113 -4.94066 0
M  V30 3270 H 320.114 -2.50823 -4.18258 0
M  V30 3271 H 319.119 -4.54201 -3.09809 0
M  V30 3272 H 320.344 -5.56775 -3.88817 0
M  V30 3273 H 318.29 -3.83924 -5.3192 0
M  V30 3274 H 318.207 -5.55927 -5.12329 0
M  V30 3275 H 319.475 -4.86613 -6.08957 0
M  V30 3276 N 323.704 0.605807 -1.45491 0
M  V30 3277 C 325.115 1.18777 -1.44045 0
M  V30 3278 C 325.466 1.95471 -0.169001 0
M  V30 3279 O 324.591 2.0374 0.729324 0
M  V30 3280 C 325.186 2.16064 -2.60963 0
M  V30 3281 C 323.745 2.69633 -2.62631 0
M  V30 3282 C 322.892 1.45072 -2.36325 0
M  V30 3283 H 325.843 0.395017 -1.53705 0
M  V30 3284 H 325.864 2.9913 -2.35163 0
M  V30 3285 H 325.376 1.60217 -3.53486 0
M  V30 3286 H 323.477 3.29414 -1.74119 0
M  V30 3287 H 323.59 3.13944 -3.61906 0
M  V30 3288 H 321.954 1.74089 -1.85917 0
M  V30 3289 H 322.737 0.910899 -3.30995 0
M  V30 3290 N 325.182 1.32811 0.848464 0
M  V30 3291 C 326.43 1.23479 1.59991 0
M  V30 3292 C 326.751 -0.201853 1.93952 0
M  V30 3293 O 326.021 -1.12818 1.60153 0
M  V30 3294 H 324.601 0.454034 0.593179 0
M  V30 3295 H 327.263 1.66412 1.01455 0
M  V30 3296 H 326.359 1.82178 2.53412 0
M  V30 3297 N 326.66 -1.06551 1.16123 0
M  V30 3298 C 327.623 -2.12132 0.867906 0
M  V30 3299 C 328.623 -1.60224 -0.135944 0
M  V30 3300 O 329.813 -1.73943 0.0946422 0
M  V30 3301 C 326.945 -3.396 0.297419 0
M  V30 3302 H 328.138 -2.39586 1.80385 0
M  V30 3303 H 325.691 -1.22574 0.969812 0
M  V30 3304 H 326.426 -3.17794 -0.64633 0
M  V30 3305 H 326.211 -3.78581 1.02073 0
M  V30 3306 H 327.701 -4.17455 0.110052 0
M  V30 3307 N 328.138 -0.959301 -1.25041 0
M  V30 3308 C 329.048 -0.489994 -2.29426 0
M  V30 3309 C 330.064 0.444944 -1.68215 0
M  V30 3310 O 331.24 0.320046 -1.98841 0
M  V30 3311 C 328.305 0.220309 -3.45999 0
M  V30 3312 C 327.366 -0.753418 -4.22637 0
M  V30 3313 C 326.599 -0.076918 -5.33645 0
M  V30 3314 O 326.822 1.13649 -5.58963 0
M  V30 3315 O 325.756 -0.764824 -5.97021 0
M  V30 3316 H 329.582 -1.35755 -2.71669 0
M  V30 3317 H 327.167 -0.725961 -1.30576 0
M  V30 3318 H 329.049 0.619677 -4.16819 0
M  V30 3319 H 327.724 1.06296 -3.0575 0
M  V30 3320 H 326.631 -1.20308 -3.54227 0
M  V30 3321 H 327.964 -1.56423 -4.66683 0
M  V30 3322 N 329.616 1.39756 -0.72842 0
M  V30 3323 C 330.865 1.99879 -0.270407 0
M  V30 3324 C 331.178 1.58449 1.14688 0
M  V30 3325 O 332.384 2.11362 1.70407 0
M  V30 3326 C 330.84 3.57292 -0.43252 0
M  V30 3327 C 330.448 4.07688 -1.85727 0
M  V30 3328 C 332.192 4.24485 -0.0359507 0
M  V30 3329 C 330.099 5.5765 -1.96928 0
M  V30 3330 H 329.029 0.747689 -0.0973472 0
M  V30 3331 H 331.68 1.59837 -0.901355 0
M  V30 3332 H 330.062 3.95097 0.267219 0
M  V30 3333 H 331.236 3.81231 -2.58843 0
M  V30 3334 H 329.551 3.53135 -2.20646 0
M  V30 3335 H 332.148 5.34609 -0.0987484 0
M  V30 3336 H 332.491 4.03915 1.00787 0
M  V30 3337 H 333.024 3.9183 -0.686604 0
M  V30 3338 H 329.763 5.8309 -2.99476 0
M  V30 3339 H 329.283 5.8593 -1.28241 0
M  V30 3340 H 330.962 6.22957 -1.74737 0
M  V30 3341 N 331.094 0.475555 1.50254 0
M  V30 3342 C 332.024 -0.30611 2.31485 0
M  V30 3343 C 333.005 -0.986228 1.38591 0
M  V30 3344 O 334.19 -0.982541 1.67511 0
M  V30 3345 C 331.32 -1.38588 3.1845 0
M  V30 3346 C 330.274 -0.827115 4.19932 0
M  V30 3347 C 329.6 -2.00551 4.95665 0
M  V30 3348 C 330.9 0.16463 5.2204 0
M  V30 3349 H 332.594 0.371866 2.97082 0
M  V30 3350 H 330.14 0.180282 1.42867 0
M  V30 3351 H 332.093 -1.94023 3.74076 0
M  V30 3352 H 330.817 -2.09269 2.50747 0
M  V30 3353 H 329.476 -0.294702 3.65414 0
M  V30 3354 H 329.124 -2.6994 4.2443 0
M  V30 3355 H 328.824 -1.63784 5.64313 0
M  V30 3356 H 330.348 -2.56468 5.54127 0
M  V30 3357 H 331.762 -0.300699 5.72511 0
M  V30 3358 H 330.159 0.446813 5.98434 0
M  V30 3359 H 331.229 1.08905 4.72512 0
M  V30 3360 N 332.573 -1.56217 0.208337 0
M  V30 3361 C 333.984 -1.84243 -0.301904 0
M  V30 3362 C 334.335 -1.12939 -1.60434 0
M  V30 3363 O 333.46 -0.39461 -2.12772 0
M  V30 3364 C 334.055 -3.34231 -0.554543 0
M  V30 3365 C 332.614 -3.62621 -1.00912 0
M  V30 3366 C 331.761 -2.77224 -0.064933 0
M  V30 3367 H 334.712 -1.52712 0.431833 0
M  V30 3368 H 334.733 -3.5372 -1.40223 0
M  V30 3369 H 334.245 -3.86099 0.393561 0
M  V30 3370 H 332.346 -3.16197 -1.97104 0
M  V30 3371 H 332.459 -4.7071 -0.892674 0
M  V30 3372 H 330.823 -2.48256 -0.56929 0
M  V30 3373 H 331.606 -3.31887 0.877851 0
M  V30 3374 N 334.051 0.0651679 -1.57465 0
M  V30 3375 C 334.961 1.09448 -2.07505 0
M  V30 3376 C 335.977 1.41974 -1.00595 0
M  V30 3377 O 337.153 1.52018 -1.32107 0
M  V30 3378 C 334.218 2.38689 -2.51453 0
M  V30 3379 C 333.279 2.13073 -3.72691 0
M  V30 3380 C 332.512 3.36152 -4.14533 0
M  V30 3381 O 332.735 4.45517 -3.56189 0
M  V30 3382 O 331.669 3.23974 -5.07272 0
M  V30 3383 H 335.495 0.69935 -2.95538 0
M  V30 3384 H 333.08 0.279752 -1.46757 0
M  V30 3385 H 334.962 3.14736 -2.80212 0
M  V30 3386 H 333.637 2.77568 -1.66546 0
M  V30 3387 H 332.544 1.34709 -3.49005 0
M  V30 3388 H 333.877 1.79071 -4.5847 0
M  V30 3389 N 335.529 1.53961 0.336706 0
M  V30 3390 C 336.777 1.71197 1.07405 0
M  V30 3391 C 337.098 0.481475 1.88962 0
M  V30 3392 O 336.368 -0.504585 1.8929 0
M  V30 3393 H 334.948 0.631185 0.399517 0
M  V30 3394 H 337.61 1.91232 0.376323 0
M  V30 3395 H 336.706 2.58587 1.74755 0
M  V30 3396 N 337.007 -0.598083 1.45811 0
M  V30 3397 C 338.284 -1.35777 1.40797 0
M  V30 3398 C 338.664 -2.10935 0.083462 0
M  V30 3399 O 338.012 -2.08505 -0.934763 0
M  V30 3400 C 338.222 -2.29666 2.62783 0
M  V30 3401 C 339.57 -2.91977 3.08277 0
M  V30 3402 O 340.594 -2.39984 2.63223 0
M  V30 3403 O 339.453 -3.86376 3.86491 0
M  V30 3404 H 336.547 -0.609291 0.55919 0
M  V30 3405 H 339.093 -0.620379 1.57954 0
M  V30 3406 H 337.865 -1.73454 3.50756 0
M  V30 3407 H 337.488 -3.1077 2.48008 0
M  V30 3408 N 338.485 -1.33259 -0.841409 0
M  V30 3409 C 339.432 -1.23302 -1.95103 0
M  V30 3410 C 340.402 -0.112204 -1.65721 0
M  V30 3411 O 341.587 -0.290038 -1.88583 0
M  V30 3412 C 338.727 -0.975583 -3.31023 0
M  V30 3413 C 337.84 -2.18243 -3.72819 0
M  V30 3414 C 336.975 -1.85936 -4.97595 0
M  V30 3415 C 336.014 -3.02866 -5.3192 0
M  V30 3416 N 335.151 -2.70565 -6.47873 0
M  V30 3417 H 339.991 -2.18207 -2.02952 0
M  V30 3418 H 337.528 -1.0851 -0.993173 0
M  V30 3419 H 339.486 -0.80677 -4.09325 0
M  V30 3420 H 338.116 -0.0632755 -3.22738 0
M  V30 3421 H 337.168 -2.46107 -2.90061 0
M  V30 3422 H 338.48 -3.05666 -3.94169 0
M  V30 3423 H 337.634 -1.65684 -5.83638 0
M  V30 3424 H 336.373 -0.957452 -4.78209 0
M  V30 3425 H 335.378 -3.23736 -4.44382 0
M  V30 3426 H 336.603 -3.93809 -5.53255 0
M  V30 3427 H 334.549 -1.8293 -6.29978 0
M  V30 3428 H 334.466 -3.51519 -6.69306 0
M  V30 3429 H 335.734 -2.53774 -7.37034 0
M  V30 3430 N 339.963 1.05934 -1.16686 0
M  V30 3431 C 341.211 1.78447 -0.948744 0
M  V30 3432 C 341.532 1.87813 0.524523 0
M  V30 3433 O 340.802 1.38945 1.38098 0
M  V30 3434 H 339.382 0.660971 -0.348033 0
M  V30 3435 H 342.044 1.27947 -1.47022 0
M  V30 3436 H 341.14 2.80394 -1.37061 0
M  V30 3437 N 341.441 0.965919 1.2453 0
M  V30 3438 C 342.857 0.67216 1.44756 0
M  V30 3439 C 343.057 -0.766609 1.86347 0
M  V30 3440 O 342.113 -1.5407 2.00047 0
M  V30 3441 C 343.426 1.65473 2.51076 0
M  V30 3442 C 344.974 1.66716 2.64905 0
M  V30 3443 C 345.449 2.63766 3.74421 0
M  V30 3444 N 346.94 2.62198 3.81846 0
M  V30 3445 C 347.675 3.33966 4.66106 0
M  V30 3446 N 347.171 4.15245 5.54566 0
M  V30 3447 N 348.964 3.22799 4.60171 0
M  V30 3448 H 341.115 1.89553 0.958293 0
M  V30 3449 H 343.378 0.815979 0.482579 0
M  V30 3450 H 343.084 2.68296 2.27399 0
M  V30 3451 H 342.958 1.4261 3.49202 0
M  V30 3452 H 345.345 0.646057 2.87941 0
M  V30 3453 H 345.426 1.93642 1.67142 0
M  V30 3454 H 345.07 3.6601 3.52135 0
M  V30 3455 H 345 2.34121 4.71694 0
M  V30 3456 H 347.491 2.032 3.18619 0
M  V30 3457 H 347.804 4.66898 6.15814 0
M  V30 3458 H 346.149 4.1934 5.54237 0
M  V30 3459 H 349.34 2.58764 3.90075 0
M  V30 3460 H 349.513 3.78994 5.25612 0
M  V30 3461 N 342.919 -1.39368 0.735821 0
M  V30 3462 C 344.166 -2.00497 0.284123 0
M  V30 3463 C 344.494 -1.58387 -1.12889 0
M  V30 3464 O 343.749 -0.804359 -1.78406 0
M  V30 3465 C 344.048 -3.5583 0.334651 0
M  V30 3466 C 343.714 -4.17593 1.7008 0
M  V30 3467 C 342.376 -4.34176 2.07472 0
M  V30 3468 C 344.728 -4.51848 2.59775 0
M  V30 3469 C 342.056 -4.82304 3.34065 0
M  V30 3470 C 344.408 -5.01384 3.85741 0
M  V30 3471 C 343.072 -5.16175 4.23225 0
M  V30 3472 H 342.342 -0.73367 0.103968 0
M  V30 3473 H 344.989 -1.66683 0.942825 0
M  V30 3474 H 343.294 -3.89674 -0.407625 0
M  V30 3475 H 344.991 -4.00986 -0.0329927 0
M  V30 3476 H 341.581 -4.05087 1.40008 0
M  V30 3477 H 345.765 -4.38653 2.32157 0
M  V30 3478 H 341.021 -4.91941 3.63049 0
M  V30 3479 H 345.195 -5.26863 4.55399 0
M  V30 3480 H 342.822 -5.5323 5.21384 0
M  V30 3481 N 344.397 -0.483516 -1.5 0
M  V30 3482 C 345.622 0.0667119 -2.07293 0
M  V30 3483 C 346.047 1.3164 -1.3436 0
M  V30 3484 O 345.405 1.76945 -0.394987 0
M  V30 3485 C 345.453 0.321126 -3.59167 0
M  V30 3486 O 344.557 1.39927 -3.87936 0
M  V30 3487 H 343.898 -0.0184758 -0.663743 0
M  V30 3488 H 346.428 -0.678125 -1.93035 0
M  V30 3489 H 346.438 0.557906 -4.04168 0
M  V30 3490 H 345.113 -0.592007 -4.11665 0
M  V30 3491 H 343.69 1.14882 -3.54763 0
M  V30 3492 N 345.875 1.56104 -0.216619 0
M  V30 3493 C 347.121 1.98466 0.417033 0
M  V30 3494 C 347.454 1.10403 1.59765 0
M  V30 3495 O 346.729 0.160632 1.93836 0
M  V30 3496 C 347.012 3.49769 0.85637 0
M  V30 3497 C 346.865 4.48606 -0.327546 0
M  V30 3498 C 348.184 4.05339 1.7143 0
M  V30 3499 H 345.303 0.721551 0.150112 0
M  V30 3500 H 347.945 1.87423 -0.311864 0
M  V30 3501 H 346.095 3.5931 1.47745 0
M  V30 3502 H 347.767 4.5108 -0.965618 0
M  V30 3503 H 346.01 4.22682 -0.975805 0
M  V30 3504 H 346.681 5.51995 0.0227149 0
M  V30 3505 H 349.157 3.98712 1.19031 0
M  V30 3506 H 348.033 5.11533 1.99061 0
M  V30 3507 H 348.294 3.51918 2.67593 0
M  V30 3508 N 347.353 -0.0568162 1.57498 0
M  V30 3509 C 348.581 -0.765626 1.92213 0
M  V30 3510 C 348.996 -1.70353 0.813961 0
M  V30 3511 O 348.353 -1.81268 -0.211701 0
M  V30 3512 C 348.404 -1.5465 3.2675 0
M  V30 3513 O 348.125 -0.646278 4.33307 0
M  V30 3514 C 349.626 -2.35497 3.75574 0
M  V30 3515 H 346.846 -0.216835 0.634999 0
M  V30 3516 H 349.39 -0.0226146 2.04487 0
M  V30 3517 H 347.545 -2.24165 3.15957 0
M  V30 3518 H 347.959 -1.19093 5.108 0
M  V30 3519 H 349.433 -2.85722 4.72299 0
M  V30 3520 H 349.91 -3.15692 3.05344 0
M  V30 3521 H 350.516 -1.7111 3.8936 0
M  V30 3522 N 348.832 -1.54138 -0.328536 0
M  V30 3523 C 349.742 -1.86192 -1.42723 0
M  V30 3524 C 350.758 -0.753382 -1.56844 0
M  V30 3525 O 351.934 -1.04718 -1.72035 0
M  V30 3526 C 348.999 -2.07824 -2.77507 0
M  V30 3527 C 348.06 -3.31641 -2.72603 0
M  V30 3528 C 347.293 -3.52232 -4.00959 0
M  V30 3529 O 347.516 -2.7636 -4.9898 0
M  V30 3530 O 346.45 -4.45699 -4.0452 0
M  V30 3531 H 350.276 -2.79608 -1.18547 0
M  V30 3532 H 347.861 -1.3998 -0.522104 0
M  V30 3533 H 349.743 -2.23411 -3.57303 0
M  V30 3534 H 348.418 -1.17596 -3.01584 0
M  V30 3535 H 347.325 -3.21444 -1.91376 0
M  V30 3536 H 348.658 -4.2191 -2.53481 0
M  V30 3537 N 350.31 0.590341 -1.46126 0
M  V30 3538 C 351.538 1.37504 -1.54597 0
M  V30 3539 C 351.953 1.87897 -0.184447 0
M  V30 3540 O 351.31 1.63192 0.816984 0
M  V30 3541 C 351.361 2.56779 -2.54454 0
M  V30 3542 O 351.082 2.08476 -3.85317 0
M  V30 3543 C 352.583 3.49427 -2.72792 0
M  V30 3544 H 349.803 0.420325 -0.523037 0
M  V30 3545 H 352.347 0.718383 -1.91467 0
M  V30 3546 H 350.502 3.1845 -2.20609 0
M  V30 3547 H 350.916 2.86097 -4.396 0
M  V30 3548 H 352.39 4.29619 -3.466 0
M  V30 3549 H 352.867 4.00876 -1.79429 0
M  V30 3550 H 353.473 2.93598 -3.07702 0
M  V30 3551 N 351.788 1.33704 0.83433 0
M  V30 3552 C 352.751 1.24244 1.92603 0
M  V30 3553 C 353.751 0.160383 1.59998 0
M  V30 3554 O 354.941 0.412228 1.69252 0
M  V30 3555 C 352.073 0.91555 3.28376 0
M  V30 3556 H 353.266 2.21287 2.02416 0
M  V30 3557 H 350.819 1.17827 1.02696 0
M  V30 3558 H 351.554 -0.0521886 3.24258 0
M  V30 3559 H 351.339 1.69811 3.53422 0
M  V30 3560 H 352.829 0.874231 4.08347 0
M  V30 3561 N 353.266 -1.05314 1.17247 0
M  V30 3562 C 354.491 -1.82509 0.985148 0
M  V30 3563 C 354.916 -1.82343 -0.461788 0
M  V30 3564 O 354.274 -1.23151 -1.33055 0
M  V30 3565 C 354.322 -3.26566 1.52929 0
M  V30 3566 O 353.426 -4.05666 0.742225 0
M  V30 3567 H 352.767 -0.564347 0.349869 0
M  V30 3568 H 355.297 -1.32718 1.55715 0
M  V30 3569 H 355.307 -3.77369 1.55103 0
M  V30 3570 H 353.982 -3.26001 2.58256 0
M  V30 3571 H 352.559 -3.64397 0.791794 0
M  V30 3572 N 354.744 -0.972509 -1.24016 0
M  V30 3573 C 356.021 -0.553733 -1.87598 0
M  V30 3574 C 356.401 0.969158 -1.87538 0
M  V30 3575 O 355.749 1.84255 -1.35139 0
M  V30 3576 C 355.959 -1.15076 -3.29482 0
M  V30 3577 C 357.307 -1.23862 -4.06132 0
M  V30 3578 O 358.331 -1.10363 -3.38672 0
M  V30 3579 O 357.19 -1.45252 -5.26844 0
M  V30 3580 H 354.284 -0.185331 -0.805966 0
M  V30 3581 H 356.83 -1.06709 -1.31952 0
M  V30 3582 H 355.602 -2.19333 -3.2405 0
M  V30 3583 H 355.225 -0.621746 -3.92709 0
M  V30 3584 N 356.222 1.38976 -0.743202 0
M  V30 3585 C 357.132 2.3434 -0.110399 0
M  V30 3586 C 358.148 1.58741 0.712559 0
M  V30 3587 O 359.324 1.9099 0.639125 0
M  V30 3588 C 356.389 3.37812 0.780012 0
M  V30 3589 C 355.45 4.29263 -0.0561319 0
M  V30 3590 C 354.683 5.27793 0.791875 0
M  V30 3591 O 354.906 5.33043 2.03031 0
M  V30 3592 O 353.84 6.01512 0.216183 0
M  V30 3593 H 357.666 2.90129 -0.897714 0
M  V30 3594 H 355.251 1.40643 -0.503966 0
M  V30 3595 H 357.133 4.01194 1.28923 0
M  V30 3596 H 355.808 2.84395 1.546 0
M  V30 3597 H 354.715 3.69076 -0.611056 0
M  V30 3598 H 356.048 4.85907 -0.784531 0
M  V30 3599 N 357.7 0.491464 1.49741 0
M  V30 3600 C 358.93 -0.0534375 2.06531 0
M  V30 3601 C 359.338 -1.32233 1.35318 0
M  V30 3602 O 358.681 -1.78781 0.422243 0
M  V30 3603 C 358.743 -0.387034 3.57411 0
M  V30 3604 C 358.407 0.782764 4.50246 0
M  V30 3605 C 359.404 1.67059 4.92329 0
M  V30 3606 C 357.089 0.978866 4.9267 0
M  V30 3607 C 359.083 2.73874 5.75562 0
M  V30 3608 C 356.77 2.05022 5.75682 0
M  V30 3609 C 357.768 2.92851 6.17031 0
M  V30 3610 O 357.456 3.98138 6.98385 0
M  V30 3611 H 357.188 0.0129324 0.675876 0
M  V30 3612 H 359.742 0.685238 1.93633 0
M  V30 3613 H 357.972 -1.17918 3.68283 0
M  V30 3614 H 359.661 -0.869419 3.96479 0
M  V30 3615 H 360.427 1.53086 4.60206 0
M  V30 3616 H 356.306 0.304646 4.59992 0
M  V30 3617 H 359.85 3.42458 6.07757 0
M  V30 3618 H 355.747 2.18993 6.07217 0
M  V30 3619 H 356.515 3.95374 7.16674 0
M  V30 3620 N 359.178 -1.55987 0.224894 0
M  V30 3621 C 360.424 -1.98684 -0.406502 0
M  V30 3622 C 360.757 -1.11248 -1.59177 0
M  V30 3623 O 360.032 -0.170909 -1.93748 0
M  V30 3624 C 360.315 -3.50218 -0.837808 0
M  V30 3625 C 360.168 -4.48426 0.351332 0
M  V30 3626 C 361.487 -4.06243 -1.69278 0
M  V30 3627 H 358.606 -0.722337 -0.146283 0
M  V30 3628 H 361.248 -1.87255 0.321799 0
M  V30 3629 H 359.398 -3.60089 -1.45837 0
M  V30 3630 H 361.07 -4.50562 0.989526 0
M  V30 3631 H 359.313 -4.22159 0.998207 0
M  V30 3632 H 359.984 -5.52 0.00655905 0
M  V30 3633 H 362.46 -3.99337 -1.16914 0
M  V30 3634 H 361.336 -5.12581 -1.96346 0
M  V30 3635 H 361.597 -3.53332 -2.65723 0
M  V30 3636 N 360.656 0.0484629 -1.57525 0
M  V30 3637 C 361.903 0.743125 -1.88372 0
M  V30 3638 C 362.231 1.76383 -0.819715 0
M  V30 3639 O 361.486 1.94855 0.181659 0
M  V30 3640 C 361.785 1.46632 -3.25935 0
M  V30 3641 C 361.451 0.583427 -4.4711 0
M  V30 3642 C 360.113 0.340191 -4.79996 0
M  V30 3643 C 362.465 -0.0273345 -5.21193 0
M  V30 3644 C 359.793 -0.522903 -5.84365 0
M  V30 3645 C 362.145 -0.878017 -6.26477 0
M  V30 3646 C 360.809 -1.1309 -6.5785 0
M  V30 3647 H 360.079 0.271929 -0.689301 0
M  V30 3648 H 362.726 0.00336166 -1.915 0
M  V30 3649 H 361.031 2.2789 -3.18706 0
M  V30 3650 H 362.728 2.00902 -3.47044 0
M  V30 3651 H 359.318 0.783151 -4.21384 0
M  V30 3652 H 363.502 0.147654 -4.9608 0
M  V30 3653 H 358.758 -0.727335 -6.07058 0
M  V30 3654 H 362.932 -1.35789 -6.83033 0
M  V30 3655 H 360.559 -1.80144 -7.38547 0
M  V30 3656 N 362.134 1.5431 0.320358 0
M  V30 3657 C 363.55 1.45091 0.664889 0
M  V30 3658 C 363.75 0.626382 1.91517 0
M  V30 3659 O 362.806 0.126443 2.52183 0
M  V30 3660 C 364.119 2.88848 0.83591 0
M  V30 3661 C 365.667 2.9877 0.933046 0
M  V30 3662 C 366.142 4.43683 1.13621 0
M  V30 3663 N 367.633 4.47309 1.20287 0
M  V30 3664 C 368.368 5.56595 1.37801 0
M  V30 3665 N 367.864 6.75844 1.52338 0
M  V30 3666 N 369.657 5.44248 1.40535 0
M  V30 3667 H 361.808 2.06398 -0.501374 0
M  V30 3668 H 364.071 0.933963 -0.162534 0
M  V30 3669 H 363.777 3.51698 -0.0116092 0
M  V30 3670 H 363.651 3.35148 1.73078 0
M  V30 3671 H 366.038 2.36045 1.77107 0
M  V30 3672 H 366.119 2.55796 0.0145782 0
M  V30 3673 H 365.763 5.06995 0.303032 0
M  V30 3674 H 365.693 4.84269 2.0686 0
M  V30 3675 H 368.184 3.61388 1.10485 0
M  V30 3676 H 368.497 7.54892 1.65403 0
M  V30 3677 H 366.842 6.78746 1.4943 0
M  V30 3678 H 370.033 4.50038 1.28777 0
M  V30 3679 H 370.206 6.29473 1.53842 0
M  V30 3680 N 363.613 -0.582584 1.46437 0
M  V30 3681 C 364.576 -1.67366 1.56592 0
M  V30 3682 C 365.576 -1.54575 0.443072 0
M  V30 3683 O 366.766 -1.59191 0.707381 0
M  V30 3684 C 363.898 -3.06791 1.48634 0
M  V30 3685 H 365.091 -1.5972 2.5383 0
M  V30 3686 H 362.644 -0.800432 1.34249 0
M  V30 3687 H 363.379 -3.19993 0.526763 0
M  V30 3688 H 363.164 -3.17484 2.30101 0
M  V30 3689 H 364.654 -3.86218 1.58826 0
M  V30 3690 N 365.091 -1.34144 -0.827227 0
M  V30 3691 C 366.316 -1.29476 -1.62021 0
M  V30 3692 C 366.741 0.129292 -1.87655 0
M  V30 3693 O 366.099 1.08967 -1.449 0
M  V30 3694 C 366.147 -2.08702 -2.94068 0
M  V30 3695 O 365.251 -1.45359 -3.85933 0
M  V30 3696 H 364.592 -0.444881 -0.492927 0
M  V30 3697 H 367.122 -1.76882 -1.02829 0
M  V30 3698 H 367.132 -2.19898 -3.43669 0
M  V30 3699 H 365.807 -3.12241 -2.74734 0
M  V30 3700 H 364.384 -1.42879 -3.44442 0
M  V30 3701 N 366.569 1.04691 -1.17803 0
M  V30 3702 C 367.98 1.59238 -0.974689 0
M  V30 3703 C 368.331 1.90306 0.477292 0
M  V30 3704 O 367.456 1.68846 1.35352 0
M  V30 3705 C 368.051 2.89318 -1.76296 0
M  V30 3706 C 366.61 3.40506 -1.60414 0
M  V30 3707 C 365.757 2.14172 -1.76141 0
M  V30 3708 H 368.708 0.874395 -1.32439 0
M  V30 3709 H 368.729 3.5944 -1.24833 0
M  V30 3710 H 368.241 2.66675 -2.81968 0
M  V30 3711 H 366.342 3.68175 -0.572519 0
M  V30 3712 H 366.455 4.14753 -2.39827 0
M  V30 3713 H 364.819 2.25176 -1.19028 0
M  V30 3714 H 365.602 1.93992 -2.83235 0
M  V30 3715 N 368.047 0.979072 1.23499 0
M  V30 3716 C 368.977 0.537606 2.27227 0
M  V30 3717 C 369.958 -0.428539 1.64613 0
M  V30 3718 O 371.143 -0.322191 1.91509 0
M  V30 3719 C 368.273 -0.162052 3.46922 0
M  V30 3720 C 367.227 0.721242 4.21879 0
M  V30 3721 C 366.553 -0.110555 5.34586 0
M  V30 3722 C 367.853 2.01141 4.82016 0
M  V30 3723 H 369.547 1.40462 2.64406 0
M  V30 3724 H 367.093 0.67684 1.27102 0
M  V30 3725 H 369.046 -0.482192 4.18632 0
M  V30 3726 H 367.77 -1.06351 3.08799 0
M  V30 3727 H 366.429 1.02482 3.51984 0
M  V30 3728 H 366.077 -1.0125 4.92704 0
M  V30 3729 H 365.777 0.477325 5.85658 0
M  V30 3730 H 367.301 -0.425107 6.09118 0
M  V30 3731 H 368.715 1.75612 5.45741 0
M  V30 3732 H 367.112 2.54695 5.43369 0
M  V30 3733 H 368.182 2.69909 4.02836 0
M  V30 3734 N 369.525 -1.3858 0.750561 0
M  V30 3735 C 370.941 -1.53759 0.427824 0
M  V30 3736 C 371.141 -1.71401 -1.05943 0
M  V30 3737 O 370.197 -1.72331 -1.84549 0
M  V30 3738 C 371.51 -2.74642 1.22443 0
M  V30 3739 C 373.058 -2.88489 1.2142 0
M  V30 3740 C 373.533 -4.12329 1.9937 0
M  V30 3741 N 375.024 -4.194 1.96616 0
M  V30 3742 C 375.759 -5.14209 2.53727 0
M  V30 3743 N 375.255 -6.14709 3.19539 0
M  V30 3744 N 377.048 -5.06537 2.43673 0
M  V30 3745 H 369.199 -1.25377 1.71447 0
M  V30 3746 H 371.462 -0.608844 0.726645 0
M  V30 3747 H 371.168 -2.68 2.27747 0
M  V30 3748 H 371.042 -3.67745 0.839273 0
M  V30 3749 H 373.429 -2.94614 0.169232 0
M  V30 3750 H 373.51 -1.96406 1.63885 0
M  V30 3751 H 373.154 -4.06966 3.03877 0
M  V30 3752 H 373.084 -5.03486 1.54302 0
M  V30 3753 H 375.575 -3.47421 1.48684 0
M  V30 3754 H 375.888 -6.8354 3.60545 0
M  V30 3755 H 374.233 -6.1505 3.23633 0
M  V30 3756 H 377.424 -4.26962 1.91889 0
M  V30 3757 H 377.597 -5.80245 2.88479 0
M  V30 3758 N 371.003 -0.499398 -1.49478 0
M  V30 3759 C 371.951 0.293604 -2.3074 0
M  V30 3760 C 372.945 0.96427 -1.39277 0
M  V30 3761 O 374.151 0.892141 -1.56336 0
M  V30 3762 H 370.526 0.113541 -0.743379 0
M  V30 3763 H 372.497 -0.411772 -2.95545 0
M  V30 3764 C 371.246 1.3462 -3.20582 0
M  V30 3765 H 370.569 0.83954 -3.90886 0
M  V30 3766 H 372.009 1.87308 -3.80384 0
M  V30 3767 C 370.468 2.36351 -2.40083 0
M  V30 3768 O 370.998 3.422 -2.10385 0
M  V30 3769 N 369.204 2.0878 -2.02137 0
M  V30 3770 H 368.751 1.22723 -2.26488 0
M  V30 3771 H 368.709 2.77075 -1.48583 0
M  V30 3772 N 372.481 1.55866 -0.233164 0
M  V30 3773 C 373.73 1.97779 0.39579 0
M  V30 3774 C 374.043 1.12419 1.60066 0
M  V30 3775 O 375.249 1.44283 2.29988 0
M  V30 3776 C 373.705 3.5188 0.755556 0
M  V30 3777 C 373.313 4.45959 -0.427152 0
M  V30 3778 C 375.057 4.02479 1.34946 0
M  V30 3779 C 372.964 5.91383 -0.0443043 0
M  V30 3780 H 371.894 0.738592 0.15165 0
M  V30 3781 H 374.545 1.80486 -0.331212 0
M  V30 3782 H 372.927 3.64816 1.5403 0
M  V30 3783 H 374.101 4.44776 -1.20462 0
M  V30 3784 H 372.416 4.05765 -0.935068 0
M  V30 3785 H 375.013 5.08637 1.649 0
M  V30 3786 H 375.356 3.49014 2.26925 0
M  V30 3787 H 375.889 3.92813 0.62791 0
M  V30 3788 H 372.628 6.48857 -0.930874 0
M  V30 3789 H 372.148 5.95734 0.697238 0
M  V30 3790 H 373.827 6.45893 0.378334 0
M  V30 3791 N 373.959 -0.0401083 1.57549 0
M  V30 3792 C 374.869 -1.06133 2.0922 0
M  V30 3793 C 375.885 -1.40356 1.0284 0
M  V30 3794 O 377.061 -1.49897 1.34509 0
M  V30 3795 C 374.126 -2.34658 2.55218 0
M  V30 3796 C 373.187 -2.07117 3.76033 0
M  V30 3797 C 372.42 -3.29514 4.19829 0
M  V30 3798 O 372.643 -4.39794 3.63232 0
M  V30 3799 O 371.577 -3.15863 5.12362 0
M  V30 3800 H 375.403 -0.652244 2.96613 0
M  V30 3801 H 372.988 -0.256368 1.47184 0
M  V30 3802 H 374.87 -3.10239 2.85184 0
M  V30 3803 H 373.545 -2.74883 1.70941 0
M  V30 3804 H 372.452 -1.29139 3.51104 0
M  V30 3805 H 373.785 -1.71754 4.61261 0
M  V30 3806 N 375.437 -1.54477 -0.31217 0
M  V30 3807 C 376.367 -1.87652 -1.38957 0
M  V30 3808 C 377.348 -0.734358 -1.53431 0
M  V30 3809 O 378.533 -0.98911 -1.67123 0
M  V30 3810 C 375.663 -2.11396 -2.75552 0
M  V30 3811 C 374.617 -3.27243 -2.75855 0
M  V30 3812 C 373.943 -3.36382 -4.15633 0
M  V30 3813 C 375.243 -4.64622 -2.38587 0
M  V30 3814 H 376.937 -2.77887 -1.11442 0
M  V30 3815 H 374.483 -1.33707 -0.534655 0
M  V30 3816 H 376.436 -2.33189 -3.51 0
M  V30 3817 H 375.16 -1.17921 -3.04569 0
M  V30 3818 H 373.819 -3.05356 -2.02863 0
M  V30 3819 H 373.467 -2.40445 -4.41809 0
M  V30 3820 H 373.167 -4.14249 -4.1674 0
M  V30 3821 H 374.691 -3.60422 -4.92877 0
M  V30 3822 H 376.105 -4.86219 -3.03749 0
M  V30 3823 H 374.502 -5.45121 -2.50925 0
M  V30 3824 H 375.572 -4.66097 -1.33723 0
M  V30 3825 N 376.915 0.57481 -1.46744 0
M  V30 3826 C 378.143 1.35856 -1.56047 0
M  V30 3827 C 378.558 1.87691 -0.204365 0
M  V30 3828 O 377.915 1.64049 0.79963 0
M  V30 3829 C 377.966 2.54066 -2.57163 0
M  V30 3830 O 377.687 2.04377 -3.87507 0
M  V30 3831 C 379.188 3.46514 -2.76483 0
M  V30 3832 H 376.408 0.414754 -0.527466 0
M  V30 3833 H 378.952 0.698035 -1.92218 0
M  V30 3834 H 377.107 3.16092 -2.23974 0
M  V30 3835 H 377.521 2.81419 -4.4261 0
M  V30 3836 H 378.995 4.25919 -3.51137 0
M  V30 3837 H 379.472 3.98951 -1.83671 0
M  V30 3838 H 380.078 2.90318 -3.10799 0
M  V30 3839 N 378.394 1.34581 0.820102 0
M  V30 3840 C 379.357 1.2628 1.91275 0
M  V30 3841 C 380.357 0.177344 1.59819 0
M  V30 3842 O 381.547 0.430156 1.68806 0
M  V30 3843 C 378.679 0.950327 3.27386 0
M  V30 3844 H 379.872 2.23421 2.00057 0
M  V30 3845 H 377.425 1.1891 1.0144 0
M  V30 3846 H 378.16 -0.0177938 3.24295 0
M  V30 3847 H 377.945 1.73549 3.51601 0
M  V30 3848 H 379.435 0.917492 4.07396 0
M  V30 3849 N 379.872 -1.04064 1.18357 0
M  V30 3850 C 381.283 -1.58719 0.98312 0
M  V30 3851 C 381.634 -1.90556 -0.467193 0
M  V30 3852 O 380.759 -1.69561 -1.34454 0
M  V30 3853 C 381.354 -2.88379 1.77828 0
M  V30 3854 C 379.913 -3.3965 1.62218 0
M  V30 3855 C 379.06 -2.13235 1.77274 0
M  V30 3856 H 382.011 -0.867359 1.32901 0
M  V30 3857 H 382.032 -3.58773 1.26737 0
M  V30 3858 H 381.544 -2.65176 2.83379 0
M  V30 3859 H 379.645 -3.67866 0.592036 0
M  V30 3860 H 379.758 -4.13475 2.42023 0
M  V30 3861 H 378.122 -2.24542 1.20221 0
M  V30 3862 H 378.905 -1.92487 2.8426 0
M  V30 3863 N 381.35 -0.985608 -1.22978 0
M  V30 3864 C 382.58 -0.674603 -1.95276 0
M  V30 3865 C 382.988 0.763483 -1.73111 0
M  V30 3866 O 382.331 1.52601 -1.02268 0
M  V30 3867 C 382.393 -0.891597 -3.48268 0
M  V30 3868 C 382.057 -2.31275 -3.94158 0
M  V30 3869 C 383.054 -3.29179 -4.02415 0
M  V30 3870 C 380.739 -2.64524 -4.27004 0
M  V30 3871 C 382.733 -4.58407 -4.42879 0
M  V30 3872 C 380.42 -3.93974 -4.67149 0
M  V30 3873 C 381.418 -4.90727 -4.75053 0
M  V30 3874 O 381.106 -6.17865 -5.14294 0
M  V30 3875 H 380.838 -0.249251 -0.628371 0
M  V30 3876 H 383.392 -1.32106 -1.5728 0
M  V30 3877 H 381.622 -0.187962 -3.86243 0
M  V30 3878 H 383.311 -0.576957 -4.01779 0
M  V30 3879 H 384.077 -3.04823 -3.77237 0
M  V30 3880 H 379.956 -1.89923 -4.2006 0
M  V30 3881 H 383.5 -5.33926 -4.48964 0
M  V30 3882 H 379.397 -4.18122 -4.91777 0
M  V30 3883 H 380.165 -6.21694 -5.32389 0
M  V30 3884 N 382.828 1.3818 -0.7579 0
M  V30 3885 C 384.075 2.00019 -0.315985 0
M  V30 3886 C 384.403 1.60163 1.10355 0
M  V30 3887 O 383.658 0.83264 1.77103 0
M  V30 3888 C 383.957 3.55252 -0.391218 0
M  V30 3889 C 383.623 4.14834 -1.76702 0
M  V30 3890 C 382.285 4.30821 -2.14353 0
M  V30 3891 C 384.637 4.47658 -2.66931 0
M  V30 3892 C 381.965 4.76928 -3.41696 0
M  V30 3893 C 384.317 4.95184 -3.93669 0
M  V30 3894 C 382.981 5.09377 -4.31383 0
M  V30 3895 H 382.251 0.731923 -0.115627 0
M  V30 3896 H 384.898 1.65161 -0.969223 0
M  V30 3897 H 383.203 3.90273 0.34558 0
M  V30 3898 H 384.9 4.00988 -0.030805 0
M  V30 3899 H 381.49 4.02808 -1.46435 0
M  V30 3900 H 385.674 4.34904 -2.39106 0
M  V30 3901 H 380.93 4.86103 -3.70829 0
M  V30 3902 H 385.104 5.19551 -4.63724 0
M  V30 3903 H 382.731 5.44865 -5.30119 0
M  V30 3904 N 384.306 0.507319 1.49211 0
M  V30 3905 C 385.256 -0.287112 2.26185 0
M  V30 3906 C 386.24 -0.929983 1.31302 0
M  V30 3907 O 387.432 -0.836538 1.55984 0
M  V30 3908 C 384.561 -1.34718 3.15763 0
M  V30 3909 C 383.647 -0.710235 4.18111 0
M  V30 3910 N 384.038 0.190836 5.0544 0
M  V30 3911 C 382.336 -0.97009 4.35322 0
M  V30 3912 C 383.037 0.55606 5.79036 0
M  V30 3913 N 382.013 -0.0775232 5.43545 0
M  V30 3914 H 385.815 0.406445 2.91076 0
M  V30 3915 H 383.329 0.323814 1.59139 0
M  V30 3916 H 385.326 -1.92982 3.69545 0
M  V30 3917 H 383.986 -2.04235 2.52424 0
M  V30 3918 H 384.997 0.562047 5.14841 0
M  V30 3919 H 381.674 -1.65753 3.83187 0
M  V30 3920 H 383.064 1.2936 6.5933 0
M  V30 3921 N 385.784 -1.5574 0.241426 0
M  V30 3922 C 387.009 -2.0366 -0.392111 0
M  V30 3923 C 387.434 -1.11969 -1.51144 0
M  V30 3924 O 386.792 -0.111594 -1.80956 0
M  V30 3925 C 386.84 -3.49638 -0.882371 0
M  V30 3926 O 385.944 -3.6108 -1.99235 0
M  V30 3927 H 385.285 -0.658379 -0.0862122 0
M  V30 3928 H 387.815 -2.01302 0.365881 0
M  V30 3929 H 387.825 -3.90351 -1.18702 0
M  V30 3930 H 386.5 -4.15852 -0.0632361 0
M  V30 3931 H 385.077 -3.32262 -1.69282 0
M  V30 3932 N 387.262 0.0317525 -1.57568 0
M  V30 3933 C 388.51 0.721676 -1.88776 0
M  V30 3934 C 388.831 1.76039 -0.838772 0
M  V30 3935 O 388.101 1.95482 0.127935 0
M  V30 3936 H 386.681 0.269534 -0.696678 0
M  V30 3937 H 389.343 -0.00165879 -1.949 0
M  V30 3938 H 388.439 1.21293 -2.87566 0
M  V30 3939 N 388.74 1.54641 0.303973 0
M  V30 3940 C 389.703 1.84646 1.35789 0
M  V30 3941 C 390.703 0.7192 1.4382 0
M  V30 3942 O 391.893 0.987491 1.43507 0
M  V30 3943 C 389.025 2.02407 2.74307 0
M  V30 3944 H 390.218 2.78829 1.10429 0
M  V30 3945 H 387.771 1.46658 0.540487 0
M  V30 3946 H 388.506 1.10502 3.04893 0
M  V30 3947 H 388.291 2.84453 2.69868 0
M  V30 3948 H 389.781 2.27002 3.50514 0
M  V30 3949 N 390.218 -0.567019 1.47046 0
M  V30 3950 C 391.464 -1.32658 1.53394 0
M  V30 3951 C 391.797 -1.93254 0.19148 0
M  V30 3952 O 391.072 -1.77338 -0.798844 0
M  V30 3953 C 391.355 -2.44412 2.64452 0
M  V30 3954 C 391.208 -1.88749 4.08282 0
M  V30 3955 C 392.527 -3.46387 2.71485 0
M  V30 3956 H 389.646 -0.48098 0.558415 0
M  V30 3957 H 392.288 -0.635481 1.79058 0
M  V30 3958 H 390.438 -3.03363 2.427 0
M  V30 3959 H 392.11 -1.34134 4.41368 0
M  V30 3960 H 390.353 -1.19481 4.17021 0
M  V30 3961 H 391.024 -2.69491 4.81745 0
M  V30 3962 H 393.5 -2.9734 2.91081 0
M  V30 3963 H 392.376 -4.2202 3.50985 0
M  V30 3964 H 392.637 -4.04616 1.78153 0
M  V30 3965 N 391.696 -1.35014 -0.812953 0
M  V30 3966 C 392.942 -1.29129 -1.57154 0
M  V30 3967 C 393.297 0.134922 -1.91926 0
M  V30 3968 O 392.59 1.08373 -1.58006 0
M  V30 3969 C 392.784 -2.12524 -2.87347 0
M  V30 3970 C 392.613 -3.6311 -2.65294 0
M  V30 3971 C 391.383 -4.32363 -2.61516 0
M  V30 3972 C 393.581 -4.56897 -2.36114 0
M  V30 3973 N 391.563 -5.68735 -2.31113 0
M  V30 3974 C 392.934 -5.81345 -2.15494 0
M  V30 3975 C 394.989 -4.45706 -2.21925 0
M  V30 3976 C 393.692 -6.95862 -1.82122 0
M  V30 3977 C 395.718 -5.60066 -1.89948 0
M  V30 3978 C 395.08 -6.83539 -1.7016 0
M  V30 3979 H 391.179 -0.527764 -0.577052 0
M  V30 3980 H 393.763 -1.6983 -0.952146 0
M  V30 3981 H 391.934 -1.74104 -3.47192 0
M  V30 3982 H 393.666 -1.98207 -3.5284 0
M  V30 3983 H 390.421 -3.84907 -2.75941 0
M  V30 3984 H 390.845 -6.40694 -2.18724 0
M  V30 3985 H 395.487 -3.50855 -2.35925 0
M  V30 3986 H 393.205 -7.90685 -1.6686 0
M  V30 3987 H 396.791 -5.53357 -1.79687 0
M  V30 3988 H 395.671 -7.70531 -1.45777 0
M  V30 3989 N 393.175 1.03435 -1.18907 0
M  V30 3990 C 394.4 1.80919 -1.01406 0
M  V30 3991 C 394.825 1.83055 0.432721 0
M  V30 3992 O 394.183 1.25252 1.31079 0
M  V30 3993 C 394.231 3.24091 -1.58105 0
M  V30 3994 O 393.335 4.04434 -0.806669 0
M  V30 3995 H 392.676 0.558709 -0.358803 0
M  V30 3996 H 395.206 1.30223 -1.57807 0
M  V30 3997 H 395.216 3.74853 -1.61087 0
M  V30 3998 H 393.891 3.21851 -2.6341 0
M  V30 3999 H 392.468 3.63091 -0.849666 0
M  V30 4000 N 394.653 0.992116 1.22453 0
M  V30 4001 C 395.583 0.561677 2.26644 0
M  V30 4002 C 396.564 -0.411055 1.65059 0
M  V30 4003 O 397.749 -0.301861 1.9184 0
M  V30 4004 C 394.879 -0.125247 3.47074 0
M  V30 4005 C 393.833 0.765948 4.21091 0
M  V30 4006 C 393.159 -0.0538484 5.34673 0
M  V30 4007 C 394.459 2.06242 4.79856 0
M  V30 4008 H 396.153 1.43259 2.62902 0
M  V30 4009 H 393.699 0.690283 1.26377 0
M  V30 4010 H 395.652 -0.437764 4.1912 0
M  V30 4011 H 394.376 -1.03069 3.0991 0
M  V30 4012 H 393.035 1.0621 3.50878 0
M  V30 4013 H 392.683 -0.960188 4.9375 0
M  V30 4014 H 392.383 0.539415 5.85119 0
M  V30 4015 H 393.907 -0.360477 6.09535 0
M  V30 4016 H 395.321 1.8139 5.43848 0
M  V30 4017 H 393.718 2.60444 5.40638 0
M  V30 4018 H 394.788 2.74167 3.99951 0
M  V30 4019 N 396.131 -1.37776 0.765217 0
M  V30 4020 C 397.041 -2.34135 0.147666 0
M  V30 4021 C 398.057 -1.59854 -0.687215 0
M  V30 4022 O 399.233 -1.91983 -0.608659 0
M  V30 4023 C 396.298 -3.3901 -0.72617 0
M  V30 4024 C 395.359 -4.2912 0.124417 0
M  V30 4025 C 394.592 -5.28986 -0.707807 0
M  V30 4026 O 394.815 -5.36205 -1.94525 0
M  V30 4027 O 393.749 -6.01779 -0.12046 0
M  V30 4028 H 397.575 -2.88664 0.943758 0
M  V30 4029 H 395.16 -1.39824 0.526277 0
M  V30 4030 H 397.042 -4.03195 -1.22524 0
M  V30 4031 H 395.717 -2.86819 -1.50056 0
M  V30 4032 H 394.624 -3.68057 0.669696 0
M  V30 4033 H 395.957 -4.84598 0.861736 0
M  V30 4034 N 397.609 -0.515225 -1.4894 0
M  V30 4035 C 398.519 0.259774 -2.33157 0
M  V30 4036 C 399.535 0.953501 -1.45548 0
M  V30 4037 O 400.711 0.931735 -1.78552 0
M  V30 4038 C 397.776 1.30193 -3.21326 0
M  V30 4039 C 396.837 0.620129 -4.24797 0
M  V30 4040 C 396.07 1.61263 -5.08753 0
M  V30 4041 O 396.293 2.84389 -4.94448 0
M  V30 4042 O 395.227 1.16013 -5.90614 0
M  V30 4043 H 399.053 -0.429932 -3.00641 0
M  V30 4044 H 396.638 -0.276346 -1.46822 0
M  V30 4045 H 398.52 1.90455 -3.75905 0
M  V30 4046 H 397.195 1.97431 -2.56521 0
M  V30 4047 H 396.102 -0.0226019 -3.74093 0
M  V30 4048 H 397.435 -0.0100493 -4.92199 0
M  V30 4049 N 399.087 1.5561 -0.249682 0
M  V30 4050 C 400.05 2.20217 0.635394 0
M  V30 4051 C 401.05 1.17227 1.10066 0
M  V30 4052 O 402.24 1.42292 1.00492 0
M  V30 4053 C 399.372 2.84794 1.87363 0
M  V30 4054 H 400.565 2.99814 0.0716752 0
M  V30 4055 H 398.118 1.563 -0.000153234 0
M  V30 4056 H 398.853 2.09142 2.47851 0
M  V30 4057 H 398.638 3.60241 1.5482 0
M  V30 4058 H 400.128 3.3423 2.5036 0
M  V30 4059 N 400.565 -0.0233959 1.57583 0
M  V30 4060 C 401.811 -0.714119 1.89811 0
M  V30 4061 C 402.144 -1.74702 0.848113 0
M  V30 4062 O 401.419 -1.94023 -0.136135 0
M  V30 4063 C 401.702 -1.37853 3.32669 0
M  V30 4064 C 401.555 -0.358764 4.48367 0
M  V30 4065 C 402.874 -2.31101 3.7454 0
M  V30 4066 H 399.993 -0.25814 0.690314 0
M  V30 4067 H 402.635 0.0230927 1.89986 0
M  V30 4068 H 400.785 -2.00689 3.3265 0
M  V30 4069 H 402.457 0.268115 4.6052 0
M  V30 4070 H 400.7 0.321387 4.32608 0
M  V30 4071 H 401.371 -0.862242 5.45224 0
M  V30 4072 H 403.847 -1.78304 3.75961 0
M  V30 4073 H 402.723 -2.74567 4.75294 0
M  V30 4074 H 402.984 -3.18018 3.0711 0
M  V30 4075 N 402.043 -1.548 -0.295768 0
M  V30 4076 C 403.006 -1.85363 -1.34808 0
M  V30 4077 C 404.006 -0.726817 -1.43436 0
M  V30 4078 O 405.196 -0.995088 -1.42981 0
M  V30 4079 C 402.328 -2.03859 -2.73229 0
M  V30 4080 H 403.521 -2.7941 -1.08949 0
M  V30 4081 H 401.074 -1.46942 -0.532702 0
M  V30 4082 H 401.809 -1.12117 -3.04303 0
M  V30 4083 H 401.594 -2.8588 -2.68356 0
M  V30 4084 H 403.084 -2.28857 -3.49305 0
M  V30 4085 N 403.521 0.559213 -1.47345 0
M  V30 4086 C 404.767 1.31843 -1.54095 0
M  V30 4087 C 405.1 1.93149 -0.201726 0
M  V30 4088 O 404.375 1.77759 0.789428 0
M  V30 4089 C 404.658 2.43006 -2.65744 0
M  V30 4090 C 404.511 1.86581 -4.09277 0
M  V30 4091 C 405.83 3.44943 -2.73318 0
M  V30 4092 H 402.949 0.478012 -0.560957 0
M  V30 4093 H 405.591 0.625977 -1.79392 0
M  V30 4094 H 403.741 3.02072 -2.44305 0
M  V30 4095 H 405.413 1.31792 -4.42073 0
M  V30 4096 H 403.656 1.17268 -4.17649 0
M  V30 4097 H 404.327 2.66933 -4.83168 0
M  V30 4098 H 406.803 2.95793 -2.92653 0
M  V30 4099 H 405.679 4.20153 -3.53218 0
M  V30 4100 H 405.94 4.03665 -1.80296 0
M  V30 4101 N 404.999 1.35443 0.805782 0
M  V30 4102 C 405.932 1.22783 1.92353 0
M  V30 4103 C 406.91 0.115543 1.62189 0
M  V30 4104 O 408.094 0.283778 1.86352 0
M  V30 4105 C 405.221 0.890746 3.26777 0
M  V30 4106 C 404.267 2.01519 3.75889 0
M  V30 4107 S 405.1 3.63101 3.93596 0
M  V30 4108 C 406.256 3.31472 5.30921 0
M  V30 4109 H 406.489 2.17394 2.02798 0
M  V30 4110 H 404.022 1.20669 0.963245 0
M  V30 4111 H 405.98 0.703068 4.04434 0
M  V30 4112 H 404.641 -0.0373152 3.14078 0
M  V30 4113 H 403.834 1.7335 4.7325 0
M  V30 4114 H 403.436 2.16124 3.05231 0
M  V30 4115 H 405.728 2.8435 6.1494 0
M  V30 4116 H 406.671 4.28036 5.64084 0
M  V30 4117 H 407.079 2.67221 4.97246 0
M  V30 4118 N 406.477 -1.02803 1.19454 0
M  V30 4119 C 407.725 -1.75869 0.995722 0
M  V30 4120 C 408.046 -1.89138 -0.474543 0
M  V30 4121 O 407.316 -1.42558 -1.34366 0
M  V30 4122 H 405.896 -0.651511 0.365435 0
M  V30 4123 H 408.558 -1.24004 1.50363 0
M  V30 4124 H 407.654 -2.76661 1.44447 0
M  V30 4125 N 407.956 -0.998596 -1.21925 0
M  V30 4126 C 409.184 -0.696286 -1.94832 0
M  V30 4127 C 409.599 0.740032 -1.73692 0
M  V30 4128 O 408.956 1.5 -1.03953 0
M  V30 4129 C 409.007 -0.999833 -3.47398 0
M  V30 4130 O 408.728 -2.37972 -3.67833 0
M  V30 4131 C 410.229 -0.716025 -4.37479 0
M  V30 4132 H 407.449 -0.257111 -0.619786 0
M  V30 4133 H 409.993 -1.33491 -1.54921 0
M  V30 4134 H 408.148 -0.406918 -3.85257 0
M  V30 4135 H 408.562 -2.48338 -4.61983 0
M  V30 4136 H 410.036 -0.978642 -5.43256 0
M  V30 4137 H 410.513 0.349968 -4.37803 0
M  V30 4138 H 411.119 -1.29025 -4.05256 0
M  V30 4139 N 409.434 1.37368 -0.772513 0
M  V30 4140 C 410.397 2.28601 -0.165541 0
M  V30 4141 C 411.397 1.48062 0.627238 0
M  V30 4142 O 412.587 1.68268 0.450715 0
M  V30 4143 C 409.719 3.32023 0.772897 0
M  V30 4144 H 410.912 2.83787 -0.969787 0
M  V30 4145 H 408.465 1.46647 -0.540775 0
M  V30 4146 H 409.2 2.81962 1.60212 0
M  V30 4147 H 408.985 3.91555 0.206585 0
M  V30 4148 H 410.475 4.00197 1.19298 0
M  V30 4149 N 410.912 0.523116 1.48665 0
M  V30 4150 C 411.844 -0.280421 2.27478 0
M  V30 4151 C 412.857 -0.910694 1.34945 0
M  V30 4152 O 414.046 -0.790295 1.60052 0
M  V30 4153 C 411.146 -1.41171 3.08097 0
M  V30 4154 C 410.319 -0.884642 4.28361 0
M  V30 4155 C 409.378 -1.89622 4.90846 0
M  V30 4156 O 408.404 -1.4559 5.50265 0
M  V30 4157 N 409.606 -3.22801 4.82472 0
M  V30 4158 H 412.371 0.395481 2.97079 0
M  V30 4159 H 409.932 0.357018 1.57915 0
M  V30 4160 H 411.924 -2.08645 3.4677 0
M  V30 4161 H 410.494 -1.99139 2.40961 0
M  V30 4162 H 409.714 -0.0341177 3.94185 0
M  V30 4163 H 411.002 -0.511268 5.06225 0
M  V30 4164 H 410.4 -3.61246 4.35336 0
M  V30 4165 H 408.957 -3.85927 5.25265 0
M  V30 4166 N 412.39 -1.55475 0.257931 0
M  V30 4167 C 413.32 -2.24815 -0.630912 0
M  V30 4168 C 414.301 -1.23224 -1.17259 0
M  V30 4169 O 415.486 -1.51904 -1.20991 0
M  V30 4170 C 412.616 -2.95609 -1.82298 0
M  V30 4171 C 411.57 -4.03982 -1.41359 0
M  V30 4172 C 410.896 -4.6226 -2.68738 0
M  V30 4173 C 412.196 -5.19109 -0.57648 0
M  V30 4174 H 413.89 -2.99354 -0.0526878 0
M  V30 4175 H 411.436 -1.4398 -0.023901 0
M  V30 4176 H 413.389 -3.42822 -2.45054 0
M  V30 4177 H 412.113 -2.18577 -2.42676 0
M  V30 4178 H 410.772 -3.57555 -0.809324 0
M  V30 4179 H 410.42 -3.81915 -3.27338 0
M  V30 4180 H 410.12 -5.35424 -2.42065 0
M  V30 4181 H 411.644 -5.12212 -3.32372 0
M  V30 4182 H 413.058 -5.62479 -1.10861 0
M  V30 4183 H 411.455 -5.98729 -0.405351 0
M  V30 4184 H 412.525 -4.83174 0.408776 0
M  V30 4185 N 413.868 0.0150385 -1.57593 0
M  V30 4186 C 415.116 0.701613 -1.8953 0
M  V30 4187 C 415.437 1.75139 -0.857396 0
M  V30 4188 O 414.707 1.95607 0.107194 0
M  V30 4189 H 413.287 0.26213 -0.699498 0
M  V30 4190 H 415.949 -0.0223304 -1.94887 0
M  V30 4191 H 415.045 1.18236 -2.88837 0
M  V30 4192 N 415.346 1.54954 0.287554 0
M  V30 4193 C 416.574 1.78881 1.03967 0
M  V30 4194 C 416.989 0.554894 1.80462 0
M  V30 4195 O 416.346 -0.475676 1.76192 0
M  V30 4196 C 416.397 3.00488 2.0097 0
M  V30 4197 O 416.118 4.19113 1.27577 0
M  V30 4198 C 417.619 3.36907 2.88112 0
M  V30 4199 H 414.839 0.596259 0.307761 0
M  V30 4200 H 417.383 2.01937 0.322749 0
M  V30 4201 H 415.538 2.79601 2.68145 0
M  V30 4202 H 415.952 4.87765 1.92835 0
M  V30 4203 H 417.426 4.25205 3.52001 0
M  V30 4204 H 417.903 2.55659 3.57121 0
M  V30 4205 H 418.509 3.60001 2.26449 0
M  V30 4206 N 416.824 -0.551391 1.4764 0
M  V30 4207 C 417.734 -1.68525 1.63207 0
M  V30 4208 C 418.75 -1.6621 0.514815 0
M  V30 4209 O 419.926 -1.85551 0.783113 0
M  V30 4210 C 416.991 -3.05025 1.64805 0
M  V30 4211 C 416.052 -3.18362 2.88 0
M  V30 4212 C 415.285 -4.4835 2.89513 0
M  V30 4213 O 415.508 -5.34163 2.00065 0
M  V30 4214 O 414.442 -4.65602 3.81443 0
M  V30 4215 H 418.268 -1.58333 2.59161 0
M  V30 4216 H 415.853 -0.722063 1.30792 0
M  V30 4217 H 417.735 -3.86245 1.68502 0
M  V30 4218 H 416.41 -3.15587 0.720197 0
M  V30 4219 H 415.317 -2.36518 2.89845 0
M  V30 4220 H 416.65 -3.12707 3.80099 0
M  V30 4221 N 418.302 -1.35869 -0.798587 0
M  V30 4222 C 419.232 -1.32118 -1.92528 0
M  V30 4223 C 420.213 -0.194209 -1.68988 0
M  V30 4224 O 421.398 -0.390426 -1.90235 0
M  V30 4225 C 418.528 -1.10047 -3.29404 0
M  V30 4226 C 417.482 -2.19471 -3.67446 0
M  V30 4227 C 416.808 -1.82555 -5.02571 0
M  V30 4228 C 418.108 -3.61495 -3.76987 0
M  V30 4229 H 419.802 -2.26394 -1.95924 0
M  V30 4230 H 417.348 -1.08981 -0.94123 0
M  V30 4231 H 419.301 -1.06061 -4.07835 0
M  V30 4232 H 418.025 -0.122195 -3.26371 0
M  V30 4233 H 416.684 -2.22568 -2.91306 0
M  V30 4234 H 416.332 -0.833249 -4.9605 0
M  V30 4235 H 416.032 -2.5581 -5.28995 0
M  V30 4236 H 417.556 -1.80108 -5.83432 0
M  V30 4237 H 418.97 -3.60676 -4.4563 0
M  V30 4238 H 417.367 -4.33577 -4.14887 0
M  V30 4239 H 418.437 -3.97065 -2.78329 0
M  V30 4240 N 419.78 1.02168 -1.19998 0
M  V30 4241 C 420.728 2.12717 -0.940967 0
M  V30 4242 C 421.722 1.69069 0.105841 0
M  V30 4243 O 422.928 1.79946 -0.0440583 0
M  V30 4244 H 419.303 0.695108 -0.28693 0
M  V30 4245 H 421.274 2.3175 -1.87975 0
M  V30 4246 C 420.023 3.44027 -0.504049 0
M  V30 4247 H 419.346 3.78036 -1.30112 0
M  V30 4248 H 420.786 4.22452 -0.361991 0
M  V30 4249 C 419.245 3.27678 0.782878 0
M  V30 4250 O 419.775 3.56949 1.84256 0
M  V30 4251 N 417.981 2.80943 0.742921 0
M  V30 4252 H 417.528 2.57322 -0.119687 0
M  V30 4253 H 417.486 2.70385 1.60435 0
M  V30 4254 N 421.258 1.00505 1.21394 0
M  V30 4255 C 422.206 0.558623 2.25792 0
M  V30 4256 C 423.2 -0.396848 1.64686 0
M  V30 4257 O 424.406 -0.268035 1.77993 0
M  V30 4258 H 420.781 0.1623 0.734277 0
M  V30 4259 H 422.752 1.4503 2.60785 0
M  V30 4260 C 421.501 -0.0989574 3.47559 0
M  V30 4261 H 420.824 0.627225 3.94849 0
M  V30 4262 H 422.264 -0.3746 4.22342 0
M  V30 4263 C 420.723 -1.33817 3.09184 0
M  V30 4264 O 421.253 -2.43252 3.19674 0
M  V30 4265 N 419.459 -1.21793 2.63846 0
M  V30 4266 H 419.006 -0.32746 2.5551 0
M  V30 4267 H 418.964 -2.04809 2.38539 0
M  V30 4268 N 422.737 -1.36956 0.779787 0
M  V30 4269 C 424.014 -1.93697 0.272156 0
M  V30 4270 C 424.394 -1.71267 -1.23413 0
M  V30 4271 O 423.742 -1.06607 -2.02107 0
M  V30 4272 C 423.952 -3.42812 0.654291 0
M  V30 4273 C 425.3 -4.19921 0.628602 0
M  V30 4274 O 426.324 -3.51209 0.594172 0
M  V30 4275 O 425.183 -5.42465 0.662864 0
M  V30 4276 H 422.277 -0.824447 0.0649286 0
M  V30 4277 H 424.823 -1.46196 0.861682 0
M  V30 4278 H 423.595 -3.52754 1.69353 0
M  V30 4279 H 423.218 -3.97582 0.0381369 0
M  V30 4280 N 424.215 -0.530993 -1.48385 0
M  V30 4281 C 425.125 0.23503 -2.3342 0
M  V30 4282 C 426.141 0.93801 -1.46552 0
M  V30 4283 O 427.317 0.912745 -1.7953 0
M  V30 4284 C 424.382 1.26778 -3.22689 0
M  V30 4285 C 423.443 0.575038 -4.25431 0
M  V30 4286 C 422.676 1.55858 -5.10435 0
M  V30 4287 O 422.899 2.79129 -4.97437 0
M  V30 4288 O 421.833 1.09742 -5.91811 0
M  V30 4289 H 425.659 -0.461794 -3.00169 0
M  V30 4290 H 423.244 -0.291903 -1.46521 0
M  V30 4291 H 425.126 1.86457 -3.77904 0
M  V30 4292 H 423.801 1.94699 -2.586 0
M  V30 4293 H 422.708 -0.0622782 -3.74048 0
M  V30 4294 H 424.041 -0.062253 -4.92161 0
M  V30 4295 N 425.693 1.55336 -0.266172 0
M  V30 4296 C 426.939 1.99692 0.353681 0
M  V30 4297 C 427.272 1.1543 1.56172 0
M  V30 4298 O 426.547 0.222218 1.93226 0
M  V30 4299 C 426.83 3.52316 0.74466 0
M  V30 4300 C 426.683 4.47337 -0.470101 0
M  V30 4301 C 428.002 4.10588 1.58447 0
M  V30 4302 H 425.121 0.725961 0.12708 0
M  V30 4303 H 427.763 1.86336 -0.371333 0
M  V30 4304 H 425.913 3.63829 1.36239 0
M  V30 4305 H 427.585 4.4778 -1.10864 0
M  V30 4306 H 425.828 4.19364 -1.10978 0
M  V30 4307 H 426.499 5.51788 -0.15291 0
M  V30 4308 H 428.975 4.02297 1.06286 0
M  V30 4309 H 427.851 5.17607 1.82686 0
M  V30 4310 H 428.112 3.60253 2.56262 0
M  V30 4311 N 427.171 -0.0066808 1.57599 0
M  V30 4312 C 428.118 -1.00024 2.08 0
M  V30 4313 C 429.088 -1.34549 0.973943 0
M  V30 4314 O 430.273 -1.44502 1.24595 0
M  V30 4315 C 427.413 -2.2891 2.58252 0
M  V30 4316 C 426.526 -2.00346 3.82734 0
M  V30 4317 C 425.661 -3.23265 4.21513 0
M  V30 4318 C 424.7 -2.90357 5.3885 0
M  V30 4319 N 423.837 -4.05793 5.72954 0
M  V30 4320 H 428.677 -0.563499 2.92624 0
M  V30 4321 H 426.214 -0.266592 1.44664 0
M  V30 4322 H 428.172 -3.04247 2.85464 0
M  V30 4323 H 426.802 -2.70265 1.76512 0
M  V30 4324 H 425.854 -1.15406 3.62471 0
M  V30 4325 H 427.166 -1.72086 4.68175 0
M  V30 4326 H 426.32 -4.06953 4.49971 0
M  V30 4327 H 425.059 -3.54657 3.34768 0
M  V30 4328 H 424.064 -2.05075 5.10122 0
M  V30 4329 H 425.289 -2.60219 6.27266 0
M  V30 4330 H 423.235 -4.37094 4.89167 0
M  V30 4331 H 423.152 -3.81034 6.52954 0
M  V30 4332 H 424.42 -4.90289 6.06001 0
M  V30 4333 N 428.649 -1.55105 -0.279332 0
M  V30 4334 C 429.874 -1.7976 -1.03446 0
M  V30 4335 C 430.299 -0.565952 -1.79384 0
M  V30 4336 O 429.657 0.484259 -1.74713 0
M  V30 4337 C 429.705 -3.0179 -1.97371 0
M  V30 4338 O 428.809 -2.76432 -3.06038 0
M  V30 4339 H 428.15 -0.594334 -0.29608 0
M  V30 4340 H 430.68 -2.02235 -0.310165 0
M  V30 4341 H 430.69 -3.30351 -2.39441 0
M  V30 4342 H 429.365 -3.91085 -1.4151 0
M  V30 4343 H 427.942 -2.58949 -2.68328 0
M  V30 4344 N 430.127 0.543554 -1.4793 0
M  V30 4345 C 431.376 1.29649 -1.54512 0
M  V30 4346 C 431.689 1.94382 -0.217973 0
M  V30 4347 O 432.895 2.71017 -0.161908 0
M  V30 4348 C 431.351 2.35175 -2.72435 0
M  V30 4349 C 430.959 1.76572 -4.11736 0
M  V30 4350 C 432.703 3.11564 -2.8832 0
M  V30 4351 C 430.61 2.79958 -5.20939 0
M  V30 4352 H 429.54 0.487541 -0.57517 0
M  V30 4353 H 432.191 0.575708 -1.74235 0
M  V30 4354 H 430.573 3.10229 -2.46118 0
M  V30 4355 H 431.747 1.07799 -4.48013 0
M  V30 4356 H 430.062 1.12722 -4.00852 0
M  V30 4357 H 432.659 3.88794 -3.67074 0
M  V30 4358 H 433.002 3.66594 -1.97268 0
M  V30 4359 H 433.535 2.43623 -3.14472 0
M  V30 4360 H 430.274 2.29766 -6.13912 0
M  V30 4361 H 429.794 3.47101 -4.89164 0
M  V30 4362 H 431.473 3.43198 -5.48474 0
M  V30 4363 N 431.605 1.3629 0.791371 0
M  V30 4364 C 432.851 1.30605 1.55146 0
M  V30 4365 C 433.184 -0.115042 1.93859 0
M  V30 4366 O 432.459 -1.06798 1.62556 0
M  V30 4367 C 432.742 2.22692 2.82985 0
M  V30 4368 C 432.595 3.73489 2.50651 0
M  V30 4369 C 433.914 2.13588 3.84796 0
M  V30 4370 H 431.033 0.475761 0.562868 0
M  V30 4371 H 433.675 1.66825 0.909358 0
M  V30 4372 H 431.825 1.91933 3.37778 0
M  V30 4373 H 433.497 4.14758 2.01924 0
M  V30 4374 H 431.74 3.93021 1.83622 0
M  V30 4375 H 432.411 4.3333 3.41949 0
M  V30 4376 H 434.887 2.40659 3.39445 0
M  V30 4377 H 433.763 2.80195 4.71998 0
M  V30 4378 H 434.024 1.12256 4.27611 0
M  V30 4379 N 433.083 -1.0153 1.20538 0
M  V30 4380 C 434.046 -2.0826 0.957098 0
M  V30 4381 C 435.046 -1.60657 -0.0678655 0
M  V30 4382 O 436.236 -1.73385 0.168332 0
M  V30 4383 C 433.368 -3.38033 0.441188 0
M  V30 4384 H 434.561 -2.31719 1.90384 0
M  V30 4385 H 432.114 -1.1835 1.02093 0
M  V30 4386 H 432.849 -3.20249 -0.510961 0
M  V30 4387 H 432.634 -3.73911 1.18038 0
M  V30 4388 H 434.124 -4.16613 0.287009 0
M  V30 4389 N 434.561 -1.01147 -1.20859 0
M  V30 4390 C 435.808 -0.697865 -1.90095 0
M  V30 4391 C 436.136 0.772014 -1.78522 0
M  V30 4392 O 435.391 1.57595 -1.16027 0
M  V30 4393 C 435.69 -1.0727 -3.40922 0
M  V30 4394 C 435.356 -2.53792 -3.72693 0
M  V30 4395 C 434.018 -2.93829 -3.81075 0
M  V30 4396 C 436.37 -3.48674 -3.87397 0
M  V30 4397 C 433.698 -4.27696 -4.01613 0
M  V30 4398 C 436.05 -4.82223 -4.09444 0
M  V30 4399 C 434.714 -5.21973 -4.16054 0
M  V30 4400 H 433.984 -0.255367 -0.695607 0
M  V30 4401 H 436.631 -1.27111 -1.43231 0
M  V30 4402 H 434.936 -0.417799 -3.89566 0
M  V30 4403 H 436.633 -0.807818 -3.92779 0
M  V30 4404 H 433.223 -2.21768 -3.66765 0
M  V30 4405 H 437.407 -3.18904 -3.80281 0
M  V30 4406 H 432.663 -4.58055 -4.04964 0
M  V30 4407 H 436.837 -5.55672 -4.19763 0
M  V30 4408 H 434.464 -6.25717 -4.31721 0
M  V30 4409 N 436.039 1.36541 -0.78704 0
M  V30 4410 C 436.969 2.32659 -0.197992 0
M  V30 4411 C 437.95 1.56533 0.665697 0
M  V30 4412 O 439.135 1.84698 0.60001 0
M  V30 4413 C 436.265 3.40778 0.669901 0
M  V30 4414 C 435.219 4.27897 -0.0937039 0
M  V30 4415 C 434.545 5.27163 0.894629 0
M  V30 4416 C 435.845 5.06334 -1.28154 0
M  V30 4417 H 437.539 2.82171 -1.00099 0
M  V30 4418 H 435.085 1.35665 -0.482793 0
M  V30 4419 H 437.038 4.07008 1.09191 0
M  V30 4420 H 435.762 2.89827 1.50558 0
M  V30 4421 H 434.421 3.6322 -0.49666 0
M  V30 4422 H 434.069 4.72486 1.72527 0
M  V30 4423 H 433.769 5.86317 0.388149 0
M  V30 4424 H 435.293 5.96266 1.31525 0
M  V30 4425 H 436.707 5.65617 -0.93541 0
M  V30 4426 H 435.104 5.74888 -1.72115 0
M  V30 4427 H 436.174 4.38114 -2.07807 0
M  V30 4428 N 437.518 0.538854 1.48102 0
M  V30 4429 C 438.465 -0.219042 2.29758 0
M  V30 4430 C 439.435 -0.925562 1.37922 0
M  V30 4431 O 440.62 -0.924855 1.66886 0
M  V30 4432 C 437.76 -1.25452 3.2149 0
M  V30 4433 C 436.873 -0.555943 4.28408 0
M  V30 4434 C 436.008 -1.57512 5.0731 0
M  V30 4435 C 435.047 -0.860498 6.06021 0
M  V30 4436 N 434.184 -1.82564 6.77949 0
M  V30 4437 H 439.024 0.483449 2.94052 0
M  V30 4438 H 436.561 0.250247 1.44956 0
M  V30 4439 H 438.519 -1.86727 3.7308 0
M  V30 4440 H 437.149 -1.92528 2.591 0
M  V30 4441 H 436.201 0.170938 3.80016 0
M  V30 4442 H 437.513 0.00474616 4.988 0
M  V30 4443 H 436.667 -2.26191 5.62959 0
M  V30 4444 H 435.406 -2.16972 4.36778 0
M  V30 4445 H 434.411 -0.159686 5.49568 0
M  V30 4446 H 435.636 -0.271897 6.78555 0
M  V30 4447 H 433.582 -2.40915 6.10161 0
M  V30 4448 H 433.499 -1.31662 7.44447 0
M  V30 4449 H 434.767 -2.50414 7.38182 0
M  V30 4450 N 438.996 -1.55193 0.274407 0
M  V30 4451 C 440.224 -2.03987 -0.345943 0
M  V30 4452 C 440.639 -1.15279 -1.4952 0
M  V30 4453 O 439.996 -0.172759 -1.8168 0
M  V30 4454 C 440.047 -3.51898 -0.827631 0
M  V30 4455 O 439.768 -4.37231 0.275855 0
M  V30 4456 C 441.269 -4.16577 -1.51587 0
M  V30 4457 H 438.489 -0.666335 -0.0789892 0
M  V30 4458 H 441.033 -2.00423 0.406294 0
M  V30 4459 H 439.188 -3.55909 -1.52996 0
M  V30 4460 H 439.602 -5.24415 -0.0943638 0
M  V30 4461 H 441.076 -5.21678 -1.80433 0
M  V30 4462 H 441.553 -3.64707 -2.44716 0
M  V30 4463 H 442.159 -4.16568 -0.857409 0
M  V30 4464 N 440.474 -0.00167713 -1.576 0
M  V30 4465 C 441.404 0.988091 -2.11563 0
M  V30 4466 C 442.385 1.35736 -1.02517 0
M  V30 4467 O 443.57 1.44082 -1.30208 0
M  V30 4468 C 440.7 2.27941 -2.62031 0
M  V30 4469 C 439.654 2.0517 -3.75619 0
M  V30 4470 C 438.98 3.4033 -4.12407 0
M  V30 4471 C 440.28 1.41294 -5.02825 0
M  V30 4472 H 441.974 0.538771 -2.94513 0
M  V30 4473 H 439.52 0.257712 -1.41675 0
M  V30 4474 H 441.473 2.97539 -2.9841 0
M  V30 4475 H 440.197 2.74989 -1.76205 0
M  V30 4476 H 438.856 1.37998 -3.39635 0
M  V30 4477 H 438.504 3.85085 -3.23603 0
M  V30 4478 H 438.204 3.25909 -4.88935 0
M  V30 4479 H 439.728 4.1124 -4.51347 0
M  V30 4480 H 441.142 2.00851 -5.36965 0
M  V30 4481 H 439.539 1.37356 -5.84169 0
M  V30 4482 H 440.609 0.382362 -4.8339 0
M  V30 4483 N 441.952 1.55251 0.271103 0
M  V30 4484 C 443.18 1.79974 1.02064 0
M  V30 4485 C 443.595 0.574003 1.79863 0
M  V30 4486 O 442.952 -0.456962 1.76686 0
M  V30 4487 C 443.003 3.02603 1.97772 0
M  V30 4488 O 442.724 4.20443 1.23124 0
M  V30 4489 C 444.225 3.39944 2.84522 0
M  V30 4490 H 441.445 0.599489 0.301419 0
M  V30 4491 H 443.989 2.02268 0.301313 0
M  V30 4492 H 442.144 2.8243 2.65165 0
M  V30 4493 H 442.558 4.89783 1.87651 0
M  V30 4494 H 444.032 4.28915 3.47471 0
M  V30 4495 H 444.509 2.59432 3.54389 0
M  V30 4496 H 445.115 3.62383 2.22618 0
M  V30 4497 N 443.43 -0.535701 1.48216 0
M  V30 4498 C 444.678 -1.28928 1.55634 0
M  V30 4499 C 444.999 -1.93645 0.229514 0
M  V30 4500 O 444.269 -1.81038 -0.74846 0
M  V30 4501 H 442.849 -0.47884 0.573342 0
M  V30 4502 H 445.511 -0.623853 1.84646 0
M  V30 4503 H 444.607 -2.07157 2.33436 0
M  V30 4504 N 444.908 -1.36708 -0.784132 0
M  V30 4505 C 445.856 -1.31533 -1.91838 0
M  V30 4506 C 446.85 -0.206205 -1.6814 0
M  V30 4507 O 448.056 -0.373519 -1.76082 0
M  V30 4508 H 444.431 -0.409613 -0.630651 0
M  V30 4509 H 446.402 -2.2731 -1.9332 0
M  V30 4510 C 445.151 -1.12679 -3.28936 0
M  V30 4511 H 444.474 -1.97274 -3.4774 0
M  V30 4512 H 445.914 -1.13106 -4.08636 0
M  V30 4513 C 444.373 0.168281 -3.36479 0
M  V30 4514 O 444.903 1.15625 -3.84699 0
M  V30 4515 N 443.109 0.214762 -2.89805 0
M  V30 4516 H 442.656 -0.589852 -2.50756 0
M  V30 4517 H 442.614 1.08094 -2.95234 0
M  V30 4518 N 446.386 1.0089 -1.21074 0
M  V30 4519 C 447.632 1.74866 -1.02712 0
M  V30 4520 C 447.965 1.89178 0.438787 0
M  V30 4521 O 447.24 1.42325 1.32567 0
M  V30 4522 C 447.523 3.16347 -1.72036 0
M  V30 4523 C 447.376 3.09782 -3.26121 0
M  V30 4524 C 448.695 4.15187 -1.45973 0
M  V30 4525 H 445.814 0.634736 -0.374539 0
M  V30 4526 H 448.456 1.17646 -1.49196 0
M  V30 4527 H 446.606 3.65201 -1.32517 0
M  V30 4528 H 448.278 2.68673 -3.74983 0
M  V30 4529 H 446.521 2.46982 -3.56626 0
M  V30 4530 H 447.192 4.09829 -3.6979 0
M  V30 4531 H 449.668 3.75022 -1.80272 0
M  V30 4532 H 448.544 5.12331 -1.96999 0
M  V30 4533 H 448.805 4.40386 -0.388924 0
M  V30 4534 N 447.864 1.01787 1.20321 0
M  V30 4535 C 449.275 0.739307 1.71438 0
M  V30 4536 C 449.626 -0.742041 1.81627 0
M  V30 4537 O 448.751 -1.57903 1.47971 0
M  V30 4538 C 449.346 1.33538 3.11373 0
M  V30 4539 C 447.905 1.10566 3.59795 0
M  V30 4540 C 447.052 1.44028 2.36962 0
M  V30 4541 H 450.003 1.18718 1.05317 0
M  V30 4542 H 450.024 0.726611 3.73498 0
M  V30 4543 H 449.536 2.41352 3.03926 0
M  V30 4544 H 447.637 0.0452405 3.72573 0
M  V30 4545 H 447.75 1.78661 4.44542 0
M  V30 4546 H 446.114 0.85933 2.39766 0
M  V30 4547 H 446.897 2.52901 2.32155 0
M  V30 4548 N 449.342 -1.36122 0.79427 0
M  V30 4549 C 450.252 -2.33769 0.197296 0
M  V30 4550 C 451.268 -1.61276 -0.653153 0
M  V30 4551 O 452.444 -1.9323 -0.5678 0
M  V30 4552 C 449.509 -3.40474 -0.654098 0
M  V30 4553 C 448.57 -4.28759 0.215411 0
M  V30 4554 C 447.803 -5.30368 -0.595443 0
M  V30 4555 O 448.026 -5.40211 -1.83107 0
M  V30 4556 O 446.96 -6.019 0.00721351 0
M  V30 4557 H 450.786 -2.86597 1.00478 0
M  V30 4558 H 448.371 -1.38676 0.555818 0
M  V30 4559 H 450.253 -4.05703 -1.13944 0
M  V30 4560 H 448.928 -2.89937 -1.43938 0
M  V30 4561 H 447.835 -3.66554 0.747615 0
M  V30 4562 H 449.168 -4.82661 0.964332 0
M  V30 4563 N 450.82 -0.546701 -1.47814 0
M  V30 4564 C 452.066 -0.0187684 -2.02791 0
M  V30 4565 C 452.399 1.32338 -1.42128 0
M  V30 4566 O 451.674 1.85867 -0.573023 0
M  V30 4567 C 451.957 0.0854985 -3.59998 0
M  V30 4568 C 451.81 -1.283 -4.31114 0
M  V30 4569 C 453.129 0.80412 -4.32691 0
M  V30 4570 H 450.248 -0.0082946 -0.736953 0
M  V30 4571 H 452.89 -0.706962 -1.76358 0
M  V30 4572 H 451.04 0.671609 -3.82651 0
M  V30 4573 H 452.712 -1.91151 -4.19832 0
M  V30 4574 H 450.955 -1.86049 -3.91878 0
M  V30 4575 H 451.626 -1.16287 -5.39612 0
M  V30 4576 H 454.102 0.306576 -4.14969 0
M  V30 4577 H 452.978 0.846011 -5.42341 0
M  V30 4578 H 453.239 1.85802 -4.01161 0
M  V30 4579 N 452.299 1.55045 -0.282633 0
M  V30 4580 C 453.527 2.04168 0.33512 0
M  V30 4581 C 453.942 1.16071 1.48906 0
M  V30 4582 O 453.299 0.182391 1.81586 0
M  V30 4583 C 453.35 3.52332 0.808957 0
M  V30 4584 O 453.071 4.37078 -0.299038 0
M  V30 4585 C 454.572 4.17375 1.49375 0
M  V30 4586 H 451.792 0.666744 0.0754543 0
M  V30 4587 H 454.336 2.00205 -0.416918 0
M  V30 4588 H 452.491 3.56715 1.51106 0
M  V30 4589 H 452.905 5.24458 0.0665514 0
M  V30 4590 H 454.379 5.22627 1.77664 0
M  V30 4591 H 454.856 3.65999 2.42778 0
M  V30 4592 H 455.462 4.17016 0.835305 0
M  V30 4593 N 453.777 0.010035 1.57597 0
M  V30 4594 C 455.007 -0.682422 1.95004 0
M  V30 4595 C 455.415 -1.67278 0.884014 0
M  V30 4596 O 454.758 -1.83129 -0.144672 0
M  V30 4597 C 454.82 -1.46141 3.28456 0
M  V30 4598 C 454.484 -0.631523 4.52615 0
M  V30 4599 C 455.481 0.0850905 5.1983 0
M  V30 4600 C 453.166 -0.574539 4.99003 0
M  V30 4601 C 455.16 0.847566 6.3174 0
M  V30 4602 C 452.847 0.191655 6.10799 0
M  V30 4603 C 453.845 0.901432 6.77025 0
M  V30 4604 O 453.533 1.65511 7.86677 0
M  V30 4605 H 453.265 -0.194361 0.647456 0
M  V30 4606 H 455.819 0.060312 2.05311 0
M  V30 4607 H 454.049 -2.24885 3.14585 0
M  V30 4608 H 455.738 -2.04016 3.50902 0
M  V30 4609 H 456.504 0.0502812 4.84974 0
M  V30 4610 H 452.383 -1.11654 4.47274 0
M  V30 4611 H 455.927 1.4021 6.83364 0
M  V30 4612 H 451.824 0.228249 6.45096 0
M  V30 4613 H 452.592 1.57287 8.03245 0
M  V30 4614 N 455.255 -1.55392 -0.262866 0
M  V30 4615 C 456.666 -1.67079 -0.833158 0
M  V30 4616 C 457.017 -0.604539 -1.86654 0
M  V30 4617 O 456.142 0.252138 -2.14926 0
M  V30 4618 C 456.737 -3.02891 -1.51797 0
M  V30 4619 C 455.296 -3.16571 -2.03617 0
M  V30 4620 C 454.443 -2.62909 -0.881701 0
M  V30 4621 H 457.394 -1.58652 -0.0389986 0
M  V30 4622 H 457.415 -2.96445 -2.38538 0
M  V30 4623 H 456.927 -3.80473 -0.765619 0
M  V30 4624 H 455.028 -2.43782 -2.81782 0
M  V30 4625 H 455.141 -4.23271 -2.24452 0
M  V30 4626 H 453.505 -2.20324 -1.27786 0
M  V30 4627 H 454.288 -3.43003 -0.14269 0
M  V30 4628 N 456.733 0.527833 -1.48498 0
M  V30 4629 C 457.979 1.28545 -1.56857 0
M  V30 4630 C 458.312 1.92678 -0.242651 0
M  V30 4631 O 457.587 1.79394 0.751545 0
M  V30 4632 C 457.87 2.37314 -2.70839 0
M  V30 4633 C 457.723 1.77858 -4.13142 0
M  V30 4634 C 459.042 3.39068 -2.80573 0
M  V30 4635 H 456.161 0.466006 -0.570971 0
M  V30 4636 H 458.803 0.587784 -1.8068 0
M  V30 4637 H 456.953 2.96821 -2.50658 0
M  V30 4638 H 458.625 1.22385 -4.44769 0
M  V30 4639 H 456.868 1.08383 -4.20042 0
M  V30 4640 H 457.539 2.56624 -4.88721 0
M  V30 4641 H 460.015 2.89518 -2.98862 0
M  V30 4642 H 458.891 4.12566 -3.6205 0
M  V30 4643 H 459.152 3.9975 -1.88818 0
M  V30 4644 N 458.211 1.37122 0.776871 0
M  V30 4645 C 459.141 1.35164 1.90402 0
M  V30 4646 C 460.122 0.221069 1.68657 0
M  V30 4647 O 461.307 0.420642 1.8959 0
M  V30 4648 C 458.437 1.15274 3.27611 0
M  V30 4649 C 457.391 2.25289 3.63908 0
M  V30 4650 C 456.717 1.90527 4.99603 0
M  V30 4651 C 458.017 3.67446 3.71188 0
M  V30 4652 H 459.711 2.29482 1.92297 0
M  V30 4653 H 457.257 1.10465 0.923773 0
M  V30 4654 H 459.21 1.12536 4.06096 0
M  V30 4655 H 457.934 0.174102 3.26136 0
M  V30 4656 H 456.593 2.27174 2.87728 0
M  V30 4657 H 456.241 0.91206 4.94662 0
M  V30 4658 H 455.941 2.64193 5.24858 0
M  V30 4659 H 457.465 1.89367 5.80493 0
M  V30 4660 H 458.879 3.67719 4.39836 0
M  V30 4661 H 457.276 4.40123 4.07936 0
M  V30 4662 H 458.346 4.01443 2.71977 0
M  V30 4663 N 459.689 -1.00246 1.21608 0
M  V30 4664 C 461.1 -1.55511 1.03312 0
M  V30 4665 C 461.451 -1.91946 -0.406332 0
M  V30 4666 O 460.576 -1.73753 -1.28992 0
M  V30 4667 C 461.171 -2.82576 1.86913 0
M  V30 4668 C 459.73 -3.34318 1.72941 0
M  V30 4669 C 458.877 -2.07487 1.83968 0
M  V30 4670 H 461.828 -0.824638 1.35593 0
M  V30 4671 H 461.849 -3.54559 1.38087 0
M  V30 4672 H 461.361 -2.56026 2.91672 0
M  V30 4673 H 459.462 -3.65797 0.70877 0
M  V30 4674 H 459.575 -4.05566 2.55055 0
M  V30 4675 H 457.939 -2.20603 1.27304 0
M  V30 4676 H 458.722 -1.83346 2.9024 0
M  V30 4677 N 461.167 -1.02423 -1.1978 0
M  V30 4678 C 462.578 -0.748389 -1.71044 0
M  V30 4679 C 462.929 0.732398 -1.82017 0
M  V30 4680 O 462.054 1.57116 -1.48807 0
M  V30 4681 C 462.649 -1.35187 -3.1066 0
M  V30 4682 C 461.208 -1.12472 -3.59203 0
M  V30 4683 C 460.355 -1.45283 -2.36195 0
M  V30 4684 H 463.306 -1.19275 -1.04686 0
M  V30 4685 H 463.327 -0.746408 -3.73107 0
M  V30 4686 H 462.839 -2.4296 -3.02642 0
M  V30 4687 H 460.94 -0.0649983 -3.72543 0
M  V30 4688 H 461.053 -1.81016 -4.43588 0
M  V30 4689 H 459.417 -0.872034 -2.39307 0
M  V30 4690 H 460.2 -2.54129 -2.30811 0
M  V30 4691 N 462.645 1.35699 -0.801477 0
M  V30 4692 C 463.87 2.03687 -0.390678 0
M  V30 4693 C 464.295 1.60015 0.988778 0
M  V30 4694 O 463.653 0.774357 1.63931 0
M  V30 4695 C 463.701 3.57439 -0.476404 0
M  V30 4696 O 462.805 4.09208 0.512106 0
M  V30 4697 H 462.146 0.64344 -0.163956 0
M  V30 4698 H 464.676 1.73403 -1.08594 0
M  V30 4699 H 464.686 4.06544 -0.344357 0
M  V30 4700 H 463.361 3.88576 -1.48262 0
M  V30 4701 H 461.938 3.7134 0.340721 0
M  V30 4702 N 464.123 0.554532 1.47522 0
M  V30 4703 C 465.351 0.034257 2.06872 0
M  V30 4704 C 465.766 -1.25826 1.40759 0
M  V30 4705 O 465.123 -1.75425 0.503217 0
M  V30 4706 C 465.174 -0.167827 3.6111 0
M  V30 4707 O 464.895 1.07351 4.24744 0
M  V30 4708 C 466.396 -0.72569 4.3732 0
M  V30 4709 H 463.616 0.0446275 0.669514 0
M  V30 4710 H 466.16 0.767181 1.89564 0
M  V30 4711 H 464.315 -0.850872 3.7794 0
M  V30 4712 H 464.729 0.869563 5.17242 0
M  V30 4713 H 466.203 -0.816394 5.45929 0
M  V30 4714 H 466.68 -1.73635 4.0342 0
M  V30 4715 H 467.286 -0.0784292 4.25228 0
M  V30 4716 N 465.601 -1.54893 0.290851 0
M  V30 4717 C 466.564 -2.21824 -0.576784 0
M  V30 4718 C 467.564 -1.20104 -1.06919 0
M  V30 4719 O 468.754 -1.44906 -0.966843 0
M  V30 4720 C 465.886 -2.89662 -1.79747 0
M  V30 4721 H 467.079 -2.99899 0.00784051 0
M  V30 4722 H 464.632 -1.56245 0.0415934 0
M  V30 4723 H 465.367 -2.15639 -2.42219 0
M  V30 4724 H 465.152 -3.64219 -1.45214 0
M  V30 4725 H 466.642 -3.4075 -2.4141 0
M  V30 4726 N 467.08 -0.0183926 -1.57589 0
M  V30 4727 C 468.028 0.985111 -2.10709 0
M  V30 4728 C 469.022 1.34397 -1.0312 0
M  V30 4729 O 470.228 1.32746 -1.21567 0
M  V30 4730 H 466.603 0.335418 -0.673052 0
M  V30 4731 H 468.574 0.511689 -2.9398 0
M  V30 4732 C 467.323 2.26202 -2.64061 0
M  V30 4733 H 466.646 1.9946 -3.4649 0
M  V30 4734 H 468.086 2.94652 -3.04887 0
M  V30 4735 C 466.545 2.98444 -1.5631 0
M  V30 4736 O 467.075 3.90142 -0.956674 0
M  V30 4737 N 465.281 2.6059 -1.28612 0
M  V30 4738 H 464.828 1.86101 -1.78112 0
M  V30 4739 H 464.786 3.09238 -0.567406 0
M  V30 4740 N 468.558 1.5553 0.254621 0
M  V30 4741 C 469.786 1.81046 1.00149 0
M  V30 4742 C 470.201 0.593047 1.79244 0
M  V30 4743 O 469.558 -0.438196 1.77161 0
M  V30 4744 C 469.609 3.04684 1.94551 0
M  V30 4745 O 469.33 4.21725 1.18658 0
M  V30 4746 C 470.831 3.42943 2.80901 0
M  V30 4747 H 468.051 0.602653 0.295044 0
M  V30 4748 H 470.595 2.02576 0.279842 0
M  V30 4749 H 468.75 2.85226 2.62154 0
M  V30 4750 H 469.164 4.91746 1.82445 0
M  V30 4751 H 470.638 4.32576 3.42902 0
M  V30 4752 H 471.115 2.63176 3.51617 0
M  V30 4753 H 471.721 3.64724 2.18762 0
M  V30 4754 N 470.036 -0.519951 1.48776 0
M  V30 4755 C 471.447 -1.10177 1.50725 0
M  V30 4756 C 471.798 -1.94153 0.282678 0
M  V30 4757 O 470.923 -2.07645 -0.609298 0
M  V30 4758 C 471.518 -2.00482 2.73116 0
M  V30 4759 C 470.077 -2.53862 2.77905 0
M  V30 4760 C 469.224 -1.31047 2.44381 0
M  V30 4761 H 472.175 -0.30473 1.55747 0
M  V30 4762 H 472.196 -2.8491 2.52203 0
M  V30 4763 H 471.708 -1.39335 3.62225 0
M  V30 4764 H 469.809 -3.18702 1.93029 0
M  V30 4765 H 469.922 -2.9231 3.79594 0
M  V30 4766 H 468.286 -1.62953 1.95751 0
M  V30 4767 H 469.069 -0.71637 3.35743 0
M  V30 4768 N 471.514 -1.37532 -0.769588 0
M  V30 4769 C 472.461 -1.3347 -1.88293 0
M  V30 4770 C 473.431 -0.199891 -1.64893 0
M  V30 4771 O 474.616 -0.389594 -1.8678 0
M  V30 4772 C 471.756 -1.14968 -3.25387 0
M  V30 4773 C 470.869 -2.37698 -3.60727 0
M  V30 4774 C 470.004 -2.12051 -4.8704 0
M  V30 4775 C 469.043 -3.30636 -5.15117 0
M  V30 4776 N 468.18 -3.04527 -6.3262 0
M  V30 4777 H 473.02 -2.28658 -1.911 0
M  V30 4778 H 470.557 -1.13622 -0.934257 0
M  V30 4779 H 472.515 -1.02261 -4.04473 0
M  V30 4780 H 471.145 -0.234263 -3.21949 0
M  V30 4781 H 470.197 -2.61137 -2.76608 0
M  V30 4782 H 471.509 -3.26131 -3.77413 0
M  V30 4783 H 470.663 -1.96388 -5.74035 0
M  V30 4784 H 469.402 -1.20959 -4.72462 0
M  V30 4785 H 468.407 -3.46836 -4.26597 0
M  V30 4786 H 469.632 -4.22582 -5.31603 0
M  V30 4787 H 467.578 -2.16067 -6.19396 0
M  V30 4788 H 467.495 -3.86503 -6.49732 0
M  V30 4789 H 468.763 -2.92485 -7.22546 0
M  V30 4790 N 472.992 0.995999 -1.22138 0
M  V30 4791 C 474.403 1.54961 -1.04135 0
M  V30 4792 C 474.754 1.92159 0.396147 0
M  V30 4793 O 473.879 1.74435 1.28069 0
M  V30 4794 C 474.474 2.81581 -1.88408 0
M  V30 4795 C 473.033 3.33396 -1.74712 0
M  V30 4796 C 472.18 2.06509 -1.85066 0
M  V30 4797 H 475.131 0.817436 -1.36028 0
M  V30 4798 H 475.152 3.53822 -1.39966 0
M  V30 4799 H 474.664 2.54476 -2.93025 0
M  V30 4800 H 472.765 3.65416 -0.728159 0
M  V30 4801 H 472.878 4.04208 -2.57202 0
M  V30 4802 H 471.242 2.19925 -1.28472 0
M  V30 4803 H 472.025 1.81804 -2.91208 0
M  V30 4804 N 474.47 1.03057 1.19235 0
M  V30 4805 C 475.716 0.729098 1.89241 0
M  V30 4806 C 476.049 -0.740573 1.79525 0
M  V30 4807 O 475.324 -1.53946 1.18874 0
M  V30 4808 C 475.607 1.18304 3.40112 0
M  V30 4809 C 475.46 2.71406 3.5869 0
M  V30 4810 C 476.779 0.765161 4.33397 0
M  V30 4811 H 473.898 0.266338 0.687192 0
M  V30 4812 H 476.54 1.28079 1.40341 0
M  V30 4813 H 474.69 0.713672 3.81889 0
M  V30 4814 H 476.362 3.26303 3.26074 0
M  V30 4815 H 474.605 3.11717 3.01687 0
M  V30 4816 H 475.276 2.98225 4.64506 0
M  V30 4817 H 477.752 1.16889 3.99345 0
M  V30 4818 H 476.628 1.11065 5.37546 0
M  V30 4819 H 476.889 -0.332372 4.40849 0
M  V30 4820 N 475.948 -1.35272 0.808662 0
M  V30 4821 C 477.225 -1.93077 0.313181 0
M  V30 4822 C 477.605 -1.73847 -1.19752 0
M  V30 4823 O 476.953 -1.1087 -1.998 0
M  V30 4824 C 477.163 -3.41347 0.726859 0
M  V30 4825 C 478.511 -4.18493 0.717532 0
M  V30 4826 O 479.535 -3.4987 0.668535 0
M  V30 4827 O 478.394 -5.40937 0.777779 0
M  V30 4828 H 475.488 -0.822885 0.0824018 0
M  V30 4829 H 478.034 -1.44335 0.892499 0
M  V30 4830 H 476.806 -3.49082 1.76797 0
M  V30 4831 H 476.429 -3.97411 0.122461 0
M  V30 4832 N 477.426 -0.562348 -1.47226 0
M  V30 4833 C 478.359 0.230405 -2.27034 0
M  V30 4834 C 479.337 0.915609 -1.3437 0
M  V30 4835 O 480.521 0.933573 -1.63758 0
M  V30 4836 C 477.648 1.32874 -3.11548 0
M  V30 4837 C 476.694 0.751552 -4.19826 0
M  V30 4838 S 477.527 -0.405848 -5.3396 0
M  V30 4839 C 478.683 0.694186 -6.22038 0
M  V30 4840 H 478.916 -0.446811 -2.93923 0
M  V30 4841 H 476.449 -0.348781 -1.50409 0
M  V30 4842 H 478.407 1.95773 -3.60809 0
M  V30 4843 H 477.068 1.97782 -2.44011 0
M  V30 4844 H 476.261 1.57651 -4.78709 0
M  V30 4845 H 475.863 0.198645 -3.73472 0
M  V30 4846 H 478.155 1.58501 -6.58698 0
M  V30 4847 H 479.098 0.142592 -7.07956 0
M  V30 4848 H 479.506 0.989169 -5.55766 0
M  V30 4849 N 478.904 1.54736 -0.299062 0
M  V30 4850 C 480.153 1.99279 0.311549 0
M  V30 4851 C 480.466 1.19107 1.55154 0
M  V30 4852 O 481.672 1.53908 2.23662 0
M  V30 4853 C 480.128 3.54768 0.605632 0
M  V30 4854 C 479.736 4.43746 -0.615914 0
M  V30 4855 C 481.48 4.07841 1.17754 0
M  V30 4856 C 479.387 5.90663 -0.29509 0
M  V30 4857 H 478.317 0.744359 0.120187 0
M  V30 4858 H 480.968 1.78919 -0.407464 0
M  V30 4859 H 479.35 3.71021 1.38419 0
M  V30 4860 H 480.524 4.39267 -1.39218 0
M  V30 4861 H 478.839 4.01434 -1.10633 0
M  V30 4862 H 481.436 5.15174 1.43179 0
M  V30 4863 H 481.779 3.58324 2.11918 0
M  V30 4864 H 482.312 3.95123 0.460739 0
M  V30 4865 H 479.051 6.44325 -1.20524 0
M  V30 4866 H 478.571 5.98155 0.44394 0
M  V30 4867 H 480.25 6.46916 0.104048 0
M  V30 4868 N 480.382 0.0267497 1.57577 0
M  V30 4869 C 481.793 -0.512413 1.79531 0
M  V30 4870 C 482.144 -1.72391 0.936791 0
M  V30 4871 O 481.269 -2.15903 0.146543 0
M  V30 4872 C 481.864 -0.936378 3.25603 0
M  V30 4873 C 480.423 -1.42067 3.4856 0
M  V30 4874 C 479.57 -0.384278 2.74624 0
M  V30 4875 H 482.521 0.252797 1.56674 0
M  V30 4876 H 482.542 -1.80088 3.35184 0
M  V30 4877 H 482.054 -0.0544332 3.88062 0
M  V30 4878 H 480.155 -2.32262 2.9135 0
M  V30 4879 H 480.268 -1.42968 4.57271 0
M  V30 4880 H 478.632 -0.851855 2.40032 0
M  V30 4881 H 479.415 0.489159 3.39797 0
M  V30 4882 O 481.899 -1.6109 -0.114939 0
M  V30 4883 H 482.59 -1.78767 -0.745784 0
M  V30 END ATOM
M  V30 BEGIN BOND
M  V30 END BOND
M  V30 END CTAB
M  END
$$$$
