drugbank_target|P83788 Kynureninase (DB02343)
 OpenBabel12092120243D

  0  0  0     0  0            999 V3000
M  V30 BEGIN CTAB
M  V30 COUNTS 6409 6480 0 0 0
M  V30 BEGIN ATOM
M  V30 1 H -0.908 1.98254 -0.117106 0
M  V30 2 N 0 1.576 0 0
M  V30 3 C 0.933 2.03868 1.02534 0
M  V30 4 C 1.911 0.928543 1.3348 0
M  V30 5 O 3.095 1.19667 1.45644 0
M  V30 6 C 0.222 2.43627 2.35294 0
M  V30 7 C -0.732 3.65373 2.2001 0
M  V30 8 S 0.101 5.13292 1.52614 0
M  V30 9 C 1.257 5.56322 2.86805 0
M  V30 10 H 1.49 2.90518 0.631377 0
M  V30 11 H -0.977 1.52953 0.210867 0
M  V30 12 H 0.981 2.67203 3.11629 0
M  V30 13 H -0.358 1.57376 2.7183 0
M  V30 14 H -1.165 3.90944 3.18086 0
M  V30 15 H -1.563 3.418 1.51819 0
M  V30 16 H 0.729 5.58782 3.83104 0
M  V30 17 H 1.672 6.56266 2.65933 0
M  V30 18 H 2.08 4.83886 2.90714 0
M  V30 19 N 1.4781 -0.272755 1.55222 0
M  V30 20 C 2.7061 -1.02255 1.79865 0
M  V30 21 C 3.1211 -1.79924 0.572088 0
M  V30 22 O 2.4781 -1.76638 -0.458842 0
M  V30 23 C 2.5291 -1.98094 3.02392 0
M  V30 24 O 2.2501 -1.23572 4.20311 0
M  V30 25 C 3.7511 -2.84884 3.39641 0
M  V30 26 H 0.9711 -0.302057 0.599168 0
M  V30 27 H 3.5151 -0.303465 2.02236 0
M  V30 28 H 1.6701 -2.65465 2.82147 0
M  V30 29 H 2.0841 -1.88172 4.89583 0
M  V30 30 H 3.5581 -3.47927 4.28545 0
M  V30 31 H 4.0351 -3.54665 2.59055 0
M  V30 32 H 4.6411 -2.23003 3.62146 0
M  V30 33 N 2.9562 -1.48159 -0.537278 0
M  V30 34 C 4.1842 -1.59454 -1.31841 0
M  V30 35 C 4.5992 -0.252065 -1.8711 0
M  V30 36 O 3.9562 0.757621 -1.66031 0
M  V30 37 C 4.0072 -2.63546 -2.47439 0
M  V30 38 O 3.7282 -3.92583 -1.94449 0
M  V30 39 C 5.2292 -2.85212 -3.39366 0
M  V30 40 H 2.4492 -0.53785 -0.401196 0
M  V30 41 H 4.9932 -1.93932 -0.648891 0
M  V30 42 H 3.1482 -2.31946 -3.1029 0
M  V30 43 H 3.5622 -4.49629 -2.70063 0
M  V30 44 H 5.0362 -3.61863 -4.16844 0
M  V30 45 H 5.5132 -1.93765 -3.94147 0
M  V30 46 H 6.1192 -3.18086 -2.82314 0
M  V30 47 N 4.4343 0.785586 -1.36625 0
M  V30 48 C 5.8503 1.08419 -1.17122 0
M  V30 49 C 6.0503 2.015 0.00208491 0
M  V30 50 O 5.1063 2.43551 0.666278 0
M  V30 51 C 6.4193 1.69498 -2.48377 0
M  V30 52 C 7.9673 1.81821 -2.54775 0
M  V30 53 C 8.4423 2.46315 -3.86126 0
M  V30 54 N 9.9333 2.53779 -3.87492 0
M  V30 55 C 10.6683 3.045 -4.85868 0
M  V30 56 N 10.1643 3.55499 -5.94637 0
M  V30 57 N 11.9573 3.03247 -4.73284 0
M  V30 58 H 4.1083 0.167264 -2.1174 0
M  V30 59 H 6.3713 0.13682 -0.938075 0
M  V30 60 H 6.0773 1.08571 -3.34522 0
M  V30 61 H 5.9513 2.6896 -2.64462 0
M  V30 62 H 8.3383 2.41884 -1.69045 0
M  V30 63 H 8.4193 0.811532 -2.42586 0
M  V30 64 H 8.0633 1.86895 -4.72263 0
M  V30 65 H 7.9933 3.47561 -3.95612 0
M  V30 66 H 10.4843 2.17672 -3.08913 0
M  V30 67 H 10.7973 3.92562 -6.65669 0
M  V30 68 H 9.1423 3.5364 -5.98301 0
M  V30 69 H 12.3333 2.62696 -3.87438 0
M  V30 70 H 12.5063 3.42467 -5.50109 0
M  V30 71 N 5.9124 1.20967 1.01018 0
M  V30 72 C 6.8604 0.961223 2.1181 0
M  V30 73 C 7.8544 -0.0897034 1.69162 0
M  V30 74 O 9.0604 0.0612271 1.79896 0
M  V30 75 H 5.4354 0.29355 0.692338 0
M  V30 76 H 7.4064 1.90178 2.29946 0
M  V30 77 C 6.1554 0.536854 3.4353 0
M  V30 78 H 5.4784 1.33713 3.76777 0
M  V30 79 H 6.9184 0.402286 4.22087 0
M  V30 80 C 5.3774 -0.751574 3.2841 0
M  V30 81 O 5.9074 -1.80841 3.58691 0
M  V30 82 N 4.1134 -0.716079 2.81639 0
M  V30 83 H 3.6604 0.144236 2.57196 0
M  V30 84 H 3.6184 -1.57847 2.71904 0
M  V30 85 N 7.3905 -1.2043 1.01659 0
M  V30 86 C 8.6675 -1.8548 0.621004 0
M  V30 87 C 9.0475 -1.9091 -0.900919 0
M  V30 88 O 8.3955 -1.41694 -1.79263 0
M  V30 89 C 8.6055 -3.25119 1.2688 0
M  V30 90 C 9.9535 -4.01403 1.38423 0
M  V30 91 O 10.9775 -3.34473 1.22501 0
M  V30 92 O 9.8365 -5.21265 1.64151 0
M  V30 93 H 6.9305 -0.798761 0.214266 0
M  V30 94 H 9.4765 -1.28019 1.11396 0
M  V30 95 H 8.2485 -3.15932 2.30873 0
M  V30 96 H 7.8715 -3.90212 0.762917 0
M  V30 97 N 8.8686 -0.792821 -1.36206 0
M  V30 98 C 10.1086 -0.372238 -2.00982 0
M  V30 99 C 10.4726 1.03749 -1.61555 0
M  V30 100 O 11.6736 1.55934 -2.18948 0
M  V30 101 C 9.9446 -0.534566 -3.5338 0
M  V30 102 S 11.5036 -0.202365 -4.38333 0
M  V30 103 H 8.3216 -0.142044 -0.696667 0
M  V30 104 H 10.9236 -1.03206 -1.66039 0
M  V30 105 H 9.6276 -1.5608 -3.79562 0
M  V30 106 H 9.1586 0.141065 -3.93147 0
M  V30 107 H 11.1736 0.994869 -4.86124 0
M  V30 108 N 10.3467 1.47872 -0.545128 0
M  V30 109 C 11.2767 2.32661 0.197793 0
M  V30 110 C 12.2577 1.43041 0.920504 0
M  V30 111 O 13.4427 1.71912 0.90333 0
M  V30 112 C 10.5727 3.24569 1.23582 0
M  V30 113 C 9.5267 4.23333 0.630323 0
M  V30 114 C 8.8527 5.0448 1.77211 0
M  V30 115 C 10.1527 5.20704 -0.407974 0
M  V30 116 H 11.8467 2.95024 -0.510045 0
M  V30 117 H 9.3927 1.4187 -0.246731 0
M  V30 118 H 11.3457 3.8272 1.76362 0
M  V30 119 H 10.0697 2.60236 1.97344 0
M  V30 120 H 8.7287 3.6639 0.123922 0
M  V30 121 H 8.3767 4.36561 2.49847 0
M  V30 122 H 8.0767 5.71339 1.37281 0
M  V30 123 H 9.6007 5.65487 2.3034 0
M  V30 124 H 11.0147 5.7329 0.033305 0
M  V30 125 H 9.4117 5.95699 -0.725486 0
M  V30 126 H 10.4817 4.66917 -1.30828 0
M  V30 127 N 11.8248 0.280983 1.55075 0
M  V30 128 C 12.7878 -0.590896 2.21452 0
M  V30 129 C 13.7878 -1.07682 1.19421 0
M  V30 130 O 14.9778 -0.97605 1.44288 0
M  V30 131 C 12.1098 -1.81587 2.88511 0
M  V30 132 H 13.3028 -0.0112554 2.99898 0
M  V30 133 H 10.8558 0.0316438 1.56268 0
M  V30 134 H 11.5908 -2.43587 2.14093 0
M  V30 135 H 11.3758 -1.4753 3.63287 0
M  V30 136 H 12.8658 -2.43575 3.39206 0
M  V30 137 N 13.3029 -1.57598 0.00835791 0
M  V30 138 C 14.2329 -2.1198 -0.979113 0
M  V30 139 C 15.2139 -1.03091 -1.35301 0
M  V30 140 O 16.3989 -1.30818 -1.43528 0
M  V30 141 C 13.5289 -2.62995 -2.26828 0
M  V30 142 C 12.4829 -3.76485 -2.03576 0
M  V30 143 C 11.8089 -4.13846 -3.38579 0
M  V30 144 C 13.1089 -5.0342 -1.39161 0
M  V30 145 H 14.8029 -2.94738 -0.526281 0
M  V30 146 H 12.3489 -1.41783 -0.251704 0
M  V30 147 H 14.3019 -2.99669 -2.96271 0
M  V30 148 H 13.0259 -1.7737 -2.7424 0
M  V30 149 H 11.6849 -3.40217 -1.36557 0
M  V30 150 H 11.3329 -3.25232 -3.83709 0
M  V30 151 H 11.0329 -4.90312 -3.23834 0
M  V30 152 H 12.5569 -4.53086 -4.09323 0
M  V30 153 H 13.9709 -5.37812 -1.98573 0
M  V30 154 H 12.3679 -5.84746 -1.34878 0
M  V30 155 H 13.4379 -4.83548 -0.361868 0
M  V30 156 N 14.781 0.264519 -1.55364 0
M  V30 157 C 16.058 1.01677 -1.67096 0
M  V30 158 C 16.438 2.03996 -0.543015 0
M  V30 159 O 15.786 2.23907 0.45585 0
M  V30 160 C 15.996 1.66596 -3.0667 0
M  V30 161 C 17.344 2.17442 -3.64697 0
M  V30 162 O 18.368 1.76568 -3.09358 0
M  V30 163 O 17.227 2.92439 -4.61673 0
M  V30 164 H 14.321 0.472161 -0.678965 0
M  V30 165 H 16.867 0.259703 -1.67701 0
M  V30 166 H 15.639 0.924962 -3.80211 0
M  V30 167 H 15.262 2.48968 -3.10001 0
M  V30 168 N 16.2591 1.48442 0.529413 0
M  V30 169 C 17.2221 1.62524 1.61612 0
M  V30 170 C 18.2221 0.498509 1.52877 0
M  V30 171 O 19.4121 0.76431 1.56537 0
M  V30 172 C 16.5441 1.59597 3.01233 0
M  V30 173 H 17.7371 2.59423 1.50465 0
M  V30 174 H 15.2901 1.37047 0.751514 0
M  V30 175 H 16.0251 0.641781 3.17886 0
M  V30 176 H 15.8101 2.41397 3.08982 0
M  V30 177 H 17.3001 1.72646 3.80241 0
M  V30 178 N 17.7372 -0.778329 1.37039 0
M  V30 179 C 18.6692 -1.90034 1.2814 0
M  V30 180 C 19.6822 -1.61585 0.198558 0
M  V30 181 O 20.8712 -1.72625 0.454175 0
M  V30 182 C 17.9712 -3.25108 0.956968 0
M  V30 183 C 17.1442 -3.81253 2.14394 0
M  V30 184 C 16.2032 -4.94789 1.79082 0
M  V30 185 O 15.2292 -5.10721 2.51301 0
M  V30 186 N 16.4312 -5.75878 0.731043 0
M  V30 187 H 19.1962 -1.98186 2.24816 0
M  V30 188 H 16.7572 -0.957129 1.30578 0
M  V30 189 H 18.7492 -3.9857 0.701701 0
M  V30 190 H 17.3192 -3.125 0.0789812 0
M  V30 191 H 16.5392 -2.99647 2.56135 0
M  V30 192 H 17.8272 -4.15495 2.93668 0
M  V30 193 H 17.2252 -5.65547 0.131618 0
M  V30 194 H 15.7822 -6.49596 0.535622 0
M  V30 195 N 19.2153 -1.21501 -1.00376 0
M  V30 196 C 20.4923 -0.941745 -1.71437 0
M  V30 197 C 20.8723 0.546114 -2.03914 0
M  V30 198 O 20.2203 1.51128 -1.71384 0
M  V30 199 C 20.4303 -1.82812 -2.97289 0
M  V30 200 C 21.7783 -2.07771 -3.70292 0
M  V30 201 O 22.8023 -1.80171 -3.07273 0
M  V30 202 O 21.6613 -2.54456 -4.83647 0
M  V30 203 H 18.7553 -0.353243 -0.747762 0
M  V30 204 H 21.3013 -1.32436 -1.06108 0
M  V30 205 H 20.0733 -2.83501 -2.69709 0
M  V30 206 H 19.6963 -1.4464 -3.70358 0
M  V30 207 N 20.6934 1.19889 -1.02296 0
M  V30 208 C 21.9184 1.9393 -0.735237 0
M  V30 209 C 22.3434 1.74639 0.698782 0
M  V30 210 O 21.7014 1.04481 1.48167 0
M  V30 211 C 21.7494 3.43916 -1.08417 0
M  V30 212 O 20.8534 4.11917 -0.199446 0
M  V30 213 H 20.1944 0.605645 -0.272196 0
M  V30 214 H 22.7244 1.52137 -1.36804 0
M  V30 215 H 22.7344 3.9456 -1.03856 0
M  V30 216 H 21.4094 3.5728 -2.12894 0
M  V30 217 H 19.9864 3.71666 -0.303136 0
M  V30 218 N 22.1715 0.800033 1.35784 0
M  V30 219 C 23.1015 0.220184 2.3246 0
M  V30 220 C 24.0825 -0.65073 1.57161 0
M  V30 221 O 25.2675 -0.582359 1.85263 0
M  V30 222 C 22.3975 -0.637353 3.41402 0
M  V30 223 C 21.3515 0.134531 4.27789 0
M  V30 224 C 20.6775 -0.844285 5.27992 0
M  V30 225 C 21.9775 1.32979 5.05088 0
M  V30 226 H 23.6715 1.02787 2.81203 0
M  V30 227 H 21.2175 0.495717 1.35199 0
M  V30 228 H 23.1705 -1.05302 4.08031 0
M  V30 229 H 21.8945 -1.47785 2.91251 0
M  V30 230 H 20.5535 0.531296 3.6273 0
M  V30 231 H 20.2015 -1.68011 4.74111 0
M  V30 232 H 19.9015 -0.332184 5.8666 0
M  V30 233 H 21.4255 -1.2583 5.97494 0
M  V30 234 H 22.8395 0.98934 5.64699 0
M  V30 235 H 21.2365 1.77593 5.7322 0
M  V30 236 H 22.3065 2.11978 4.36111 0
M  V30 237 N 23.6496 -1.47581 0.552962 0
M  V30 238 C 24.6126 -2.28439 -0.186605 0
M  V30 239 C 25.6126 -1.36706 -0.84665 0
M  V30 240 O 26.8026 -1.59378 -0.703164 0
M  V30 241 C 23.9346 -3.16264 -1.2724 0
M  V30 242 H 25.1276 -2.95294 0.523609 0
M  V30 243 H 22.6806 -1.532 0.309745 0
M  V30 244 H 23.4156 -2.54091 -2.01514 0
M  V30 245 H 23.2006 -3.83769 -0.803968 0
M  V30 246 H 24.6906 -3.77198 -1.79196 0
M  V30 247 N 25.1277 -0.289203 -1.54924 0
M  V30 248 C 26.5387 0.205791 -1.85562 0
M  V30 249 C 26.8897 1.54351 -1.2112 0
M  V30 250 O 26.0147 2.10435 -0.504601 0
M  V30 251 C 26.6097 0.380177 -3.3666 0
M  V30 252 C 25.1687 0.819395 -3.67373 0
M  V30 253 C 24.3157 -0.079159 -2.77187 0
M  V30 254 H 27.2667 -0.510577 -1.50262 0
M  V30 255 H 27.2877 1.21659 -3.60526 0
M  V30 256 H 26.7997 -0.593589 -3.83534 0
M  V30 257 H 24.9007 1.80413 -3.26009 0
M  V30 258 H 25.0137 0.646957 -4.74712 0
M  V30 259 H 23.3777 0.439565 -2.50878 0
M  V30 260 H 24.1607 -1.04906 -3.26878 0
M  V30 261 N 26.6058 1.57591 -0.0167156 0
M  V30 262 C 27.5358 2.12496 0.967858 0
M  V30 263 C 28.5168 1.03807 1.34752 0
M  V30 264 O 29.7018 1.31577 1.42833 0
M  V30 265 C 26.8318 2.64194 2.25431 0
M  V30 266 C 25.7858 3.77559 2.01576 0
M  V30 267 C 25.1118 4.15636 3.36379 0
M  V30 268 C 26.4118 5.04151 1.36489 0
M  V30 269 H 28.1058 2.95013 0.510643 0
M  V30 270 H 25.6518 1.41915 0.244181 0
M  V30 271 H 27.6048 3.01236 2.94678 0
M  V30 272 H 26.3288 1.78821 2.73296 0
M  V30 273 H 24.9878 3.40937 1.34751 0
M  V30 274 H 24.6358 3.27263 3.81979 0
M  V30 275 H 24.3358 4.92022 3.21229 0
M  V30 276 H 25.8598 4.5525 4.06915 0
M  V30 277 H 27.2738 5.38857 1.95718 0
M  V30 278 H 25.6708 5.85453 1.31776 0
M  V30 279 H 26.7408 4.83733 0.336219 0
M  V30 280 N 28.0839 -0.256276 1.55502 0
M  V30 281 C 29.4999 -0.604325 1.47716 0
M  V30 282 C 29.6999 -1.88763 0.705039 0
M  V30 283 O 28.7559 -2.51445 0.230613 0
M  V30 284 C 30.0689 -0.715756 2.92057 0
M  V30 285 C 31.6169 -0.808706 3.02372 0
M  V30 286 C 32.0919 -0.951777 4.48001 0
M  V30 287 N 33.5829 -1.01688 4.519 0
M  V30 288 C 34.3179 -1.14668 5.61817 0
M  V30 289 N 33.8139 -1.24261 6.81565 0
M  V30 290 N 35.6069 -1.1791 5.49594 0
M  V30 291 H 27.7579 0.586291 2.04148 0
M  V30 292 H 30.0209 0.201015 0.926443 0
M  V30 293 H 29.7269 0.157027 3.51349 0
M  V30 294 H 29.6009 -1.59071 3.42018 0
M  V30 295 H 31.9879 -1.67195 2.43166 0
M  V30 296 H 32.0689 0.0912063 2.55637 0
M  V30 297 H 31.7129 -0.0931291 5.07815 0
M  V30 298 H 31.6429 -1.86659 4.92408 0
M  V30 299 H 34.1339 -0.954468 3.65648 0
M  V30 300 H 34.4469 -1.34046 7.61086 0
M  V30 301 H 32.7919 -1.21236 6.84344 0
M  V30 302 H 35.9829 -1.10057 4.54978 0
M  V30 303 H 36.1559 -1.27681 6.35296 0
M  V30 304 N 29.562 -1.4872 -0.521534 0
M  V30 305 C 30.494 -1.59968 -1.64143 0
M  V30 306 C 31.507 -0.483463 -1.55456 0
M  V30 307 O 32.696 -0.75467 -1.61762 0
M  V30 308 C 29.796 -1.52127 -3.02838 0
M  V30 309 C 28.969 -2.78932 -3.36921 0
M  V30 310 C 28.028 -2.64428 -4.54933 0
M  V30 311 O 27.054 -3.38331 -4.57735 0
M  V30 312 N 28.256 -1.74606 -5.53618 0
M  V30 313 H 31.021 -2.56548 -1.54929 0
M  V30 314 H 28.582 -1.45551 -0.708988 0
M  V30 315 H 30.574 -1.40106 -3.79674 0
M  V30 316 H 29.144 -0.634868 -3.06085 0
M  V30 317 H 28.364 -3.05455 -2.4918 0
M  V30 318 H 29.652 -3.63041 -3.56481 0
M  V30 319 H 29.05 -1.13782 -5.54139 0
M  V30 320 H 27.607 -1.6852 -6.29638 0
M  V30 321 N 31.0401 0.771051 -1.3745 0
M  V30 322 C 31.9721 1.89352 -1.29146 0
M  V30 323 C 32.9851 1.61477 -0.207124 0
M  V30 324 O 34.1741 1.72382 -0.463324 0
M  V30 325 C 31.2741 3.24596 -0.974195 0
M  V30 326 C 30.4471 3.80111 -2.16413 0
M  V30 327 C 29.5061 4.93832 -1.81703 0
M  V30 328 O 28.5321 5.09382 -2.54006 0
M  V30 329 N 29.7341 5.75483 -0.761573 0
M  V30 330 H 32.4991 1.96991 -2.25864 0
M  V30 331 H 30.0601 0.950191 -1.31084 0
M  V30 332 H 32.0521 3.98193 -0.722828 0
M  V30 333 H 30.6221 3.12454 -0.0955527 0
M  V30 334 H 29.8421 2.98284 -2.57721 0
M  V30 335 H 31.1301 4.13932 -2.95867 0
M  V30 336 H 30.5281 5.65469 -0.161609 0
M  V30 337 H 29.0851 6.49302 -0.570064 0
M  V30 338 N 32.5182 1.22032 0.997298 0
M  V30 339 C 33.7652 1.04222 1.73621 0
M  V30 340 C 34.0932 -0.423264 1.89839 0
M  V30 341 O 33.3482 -1.3302 1.43542 0
M  V30 342 C 33.6472 1.69345 3.14733 0
M  V30 343 C 33.3132 3.19226 3.18442 0
M  V30 344 C 31.9752 3.60124 3.19161 0
M  V30 345 C 34.3272 4.15181 3.15078 0
M  V30 346 C 31.6552 4.95467 3.14212 0
M  V30 347 C 34.0072 5.50495 3.1167 0
M  V30 348 C 32.6712 5.90779 3.10703 0
M  V30 349 H 31.9412 0.381374 0.635323 0
M  V30 350 H 34.5882 1.51732 1.16831 0
M  V30 351 H 32.8932 1.14147 3.74803 0
M  V30 352 H 34.5902 1.53059 3.7064 0
M  V30 353 H 31.1802 2.86659 3.18629 0
M  V30 354 H 35.3642 3.84605 3.13676 0
M  V30 355 H 30.6202 5.25916 3.11805 0
M  V30 356 H 34.7942 6.24576 3.08022 0
M  V30 357 H 32.4212 6.9562 3.06622 0
M  V30 358 N 33.9963 -1.19345 1.0293 0
M  V30 359 C 34.9593 -2.20793 0.615069 0
M  V30 360 C 35.9593 -1.57553 -0.321533 0
M  V30 361 O 37.1493 -1.73862 -0.108483 0
M  V30 362 C 34.2813 -3.40754 -0.0999222 0
M  V30 363 H 35.4743 -2.58955 1.51269 0
M  V30 364 H 33.0273 -1.3303 0.820534 0
M  V30 365 H 33.7623 -3.0811 -1.01187 0
M  V30 366 H 33.5473 -3.87889 0.57309 0
M  V30 367 H 35.0373 -4.15898 -0.376645 0
M  V30 368 N 35.4744 -0.807222 -1.35358 0
M  V30 369 C 36.4044 -0.232509 -2.3234 0
M  V30 370 C 37.3854 0.642386 -1.57504 0
M  V30 371 O 38.5704 0.572526 -1.85569 0
M  V30 372 C 35.7004 0.619238 -3.41735 0
M  V30 373 C 34.6544 -0.157215 -4.27711 0
M  V30 374 C 33.9804 0.816273 -5.28433 0
M  V30 375 C 35.2804 -1.35656 -5.04376 0
M  V30 376 H 36.9744 -1.04276 -2.80654 0
M  V30 377 H 34.5204 -0.50288 -1.34934 0
M  V30 378 H 36.4734 1.03137 -4.08584 0
M  V30 379 H 35.1974 1.46239 -2.92031 0
M  V30 380 H 33.8564 -0.550525 -3.62443 0
M  V30 381 H 33.5044 1.65494 -4.74996 0
M  V30 382 H 33.2044 0.301067 -5.86828 0
M  V30 383 H 34.7284 1.22659 -5.98153 0
M  V30 384 H 36.1424 -1.01927 -5.64166 0
M  V30 385 H 34.5394 -1.8063 -5.7227 0
M  V30 386 H 35.6094 -2.14288 -4.34981 0
M  V30 387 N 36.9525 1.47285 -0.560781 0
M  V30 388 C 38.3635 1.86258 -0.128343 0
M  V30 389 C 38.7145 1.46699 1.30284 0
M  V30 390 O 37.8395 0.871698 1.98067 0
M  V30 391 C 38.4345 3.38044 -0.22614 0
M  V30 392 C 36.9935 3.76096 0.151283 0
M  V30 393 C 36.1405 2.71335 -0.572084 0
M  V30 394 H 39.0915 1.38752 -0.770297 0
M  V30 395 H 39.1125 3.76441 0.554322 0
M  V30 396 H 38.6245 3.66806 -1.26788 0
M  V30 397 H 36.7255 3.52951 1.19399 0
M  V30 398 H 36.8385 4.78641 -0.209765 0
M  V30 399 H 35.2025 2.54696 -0.0147653 0
M  V30 400 H 35.9855 3.02938 -1.61504 0
M  V30 401 N 38.4306 0.297415 1.54768 0
M  V30 402 C 39.3406 -0.58983 2.27064 0
M  V30 403 C 40.3566 -1.15144 1.30453 0
M  V30 404 O 41.5326 -1.17699 1.63428 0
M  V30 405 C 38.5976 -1.74714 2.9946 0
M  V30 406 C 37.6586 -1.21997 4.11601 0
M  V30 407 C 36.8916 -2.32212 4.80535 0
M  V30 408 O 37.1146 -3.52036 4.48806 0
M  V30 409 O 36.0486 -1.99106 5.68014 0
M  V30 410 H 39.8746 -0.00348199 3.037 0
M  V30 411 H 37.4596 0.0640035 1.49263 0
M  V30 412 H 39.3416 -2.42147 3.44881 0
M  V30 413 H 38.0166 -2.32016 2.25722 0
M  V30 414 H 36.9236 -0.511458 3.70587 0
M  V30 415 H 38.2566 -0.692419 4.87305 0
M  V30 416 N 39.9087 -1.5758 0.0250728 0
M  V30 417 C 41.1567 -1.91255 -0.653151 0
M  V30 418 C 41.4777 -0.901691 -1.729 0
M  V30 419 O 40.7477 0.0573785 -1.95816 0
M  V30 420 H 39.3277 -0.705942 -0.244243 0
M  V30 421 H 41.9897 -1.94767 0.0719209 0
M  V30 422 H 41.0857 -2.91752 -1.10847 0
M  V30 423 N 41.3868 0.248026 -1.55636 0
M  V30 424 C 42.6328 0.97767 -1.77678 0
M  V30 425 C 42.9658 1.85016 -0.590135 0
M  V30 426 O 42.2408 1.90095 0.411611 0
M  V30 427 C 42.5238 1.83914 -3.09593 0
M  V30 428 C 42.3768 0.99491 -4.38659 0
M  V30 429 C 43.6958 2.82183 -3.37729 0
M  V30 430 H 40.8148 0.354005 -0.646413 0
M  V30 431 H 43.4568 0.248253 -1.88371 0
M  V30 432 H 41.6068 2.46104 -3.00608 0
M  V30 433 H 43.2788 0.391789 -4.59633 0
M  V30 434 H 41.5218 0.299231 -4.32767 0
M  V30 435 H 42.1928 1.63145 -5.2734 0
M  V30 436 H 44.6688 2.30129 -3.4667 0
M  V30 437 H 43.5448 3.39582 -4.31249 0
M  V30 438 H 43.8058 3.58588 -2.58586 0
M  V30 439 N 42.8649 1.48995 0.513639 0
M  V30 440 C 44.1139 1.57093 1.2651 0
M  V30 441 C 44.4269 0.257091 1.93903 0
M  V30 442 O 45.6329 0.216478 2.70636 0
M  V30 443 C 44.0889 2.77118 2.29638 0
M  V30 444 C 43.6969 4.15209 1.68241 0
M  V30 445 C 45.4409 2.94538 3.05692 0
M  V30 446 C 43.3479 5.26474 2.69406 0
M  V30 447 H 42.2779 0.584876 0.475854 0
M  V30 448 H 44.9289 1.7536 0.540487 0
M  V30 449 H 43.3109 2.52319 3.05207 0
M  V30 450 H 44.4849 4.50094 0.987505 0
M  V30 451 H 42.7999 4.03042 1.04623 0
M  V30 452 H 45.3969 3.74832 3.8132 0
M  V30 453 H 45.7399 2.04614 3.62545 0
M  V30 454 H 46.2729 3.19316 2.37238 0
M  V30 455 H 43.0119 6.18417 2.17351 0
M  V30 456 H 42.5319 4.96058 3.37175 0
M  V30 457 H 44.2109 5.55277 3.32078 0
M  V30 458 N 44.343 -0.763751 1.37857 0
M  V30 459 C 45.573 -1.55067 1.3652 0
M  V30 460 C 45.981 -1.89135 -0.0494227 0
M  V30 461 O 45.324 -1.52529 -1.02375 0
M  V30 462 C 45.386 -2.8838 2.14656 0
M  V30 463 C 45.05 -2.76905 3.63555 0
M  V30 464 C 46.047 -2.4739 4.57268 0
M  V30 465 C 43.732 -2.94676 4.06781 0
M  V30 466 C 45.726 -2.35786 5.92186 0
M  V30 467 C 43.413 -2.82692 5.41782 0
M  V30 468 C 44.411 -2.53289 6.34298 0
M  V30 469 O 44.099 -2.41345 7.66817 0
M  V30 470 H 43.831 -0.486776 0.469069 0
M  V30 471 H 46.385 -0.953812 1.81911 0
M  V30 472 H 44.615 -3.50217 1.63967 0
M  V30 473 H 46.304 -3.49828 2.05852 0
M  V30 474 H 47.07 -2.33339 4.2518 0
M  V30 475 H 42.949 -3.16563 3.35126 0
M  V30 476 H 46.493 -2.12757 6.64365 0
M  V30 477 H 42.39 -2.96314 5.7347 0
M  V30 478 H 43.158 -2.56634 7.77226 0
M  V30 479 N 45.8211 -1.22559 -0.990812 0
M  V30 480 C 46.7511 -1.0218 -2.09956 0
M  V30 481 C 47.7321 0.0579394 -1.70001 0
M  V30 482 O 48.9171 -0.104684 -1.93918 0
M  V30 483 C 46.0471 -0.601023 -3.4206 0
M  V30 484 C 45.0011 -1.62694 -3.95872 0
M  V30 485 C 44.3271 -1.06193 -5.24049 0
M  V30 486 C 45.6271 -3.01743 -4.2632 0
M  V30 487 H 47.3211 -1.94916 -2.27262 0
M  V30 488 H 44.8671 -0.938566 -1.09211 0
M  V30 489 H 46.8201 -0.445561 -4.19038 0
M  V30 490 H 45.5441 0.362005 -3.24588 0
M  V30 491 H 44.2031 -1.77021 -3.21028 0
M  V30 492 H 43.8511 -0.0901903 -5.02919 0
M  V30 493 H 43.5511 -1.74732 -5.61019 0
M  V30 494 H 45.0751 -0.918092 -6.03658 0
M  V30 495 H 46.4891 -2.90777 -4.94087 0
M  V30 496 H 44.8861 -3.67425 -4.74467 0
M  V30 497 H 45.9561 -3.51518 -3.34011 0
M  V30 498 N 47.2992 1.18797 -1.03562 0
M  V30 499 C 48.5762 1.84469 -0.650434 0
M  V30 500 C 48.9562 1.92319 0.870433 0
M  V30 501 O 48.3042 1.44528 1.76986 0
M  V30 502 C 48.5142 3.2306 -1.32036 0
M  V30 503 C 49.8622 3.9915 -1.44792 0
M  V30 504 O 50.8862 3.32481 -1.27806 0
M  V30 505 O 49.7452 5.18587 -1.72423 0
M  V30 506 H 46.8392 0.795251 -0.226946 0
M  V30 507 H 49.3852 1.26231 -1.13419 0
M  V30 508 H 48.1572 3.1222 -2.3587 0
M  V30 509 H 47.7802 3.88949 -0.8249 0
M  V30 510 N 48.7773 0.814389 1.34928 0
M  V30 511 C 50.0253 0.397636 1.9815 0
M  V30 512 C 50.3463 -1.04069 1.64908 0
M  V30 513 O 49.6163 -1.72121 0.93548 0
M  V30 514 H 48.1963 0.144043 0.732981 0
M  V30 515 H 50.8583 1.04195 1.6471 0
M  V30 516 H 49.9543 0.509688 3.0791 0
M  V30 517 N 50.2554 -1.46986 0.568584 0
M  V30 518 C 51.2034 -2.31858 -0.185649 0
M  V30 519 C 52.1974 -1.43624 -0.898249 0
M  V30 520 O 53.4034 -1.60327 -0.818242 0
M  V30 521 H 49.7784 -0.747866 -0.0787399 0
M  V30 522 H 51.7494 -2.93303 0.549191 0
M  V30 523 C 50.4984 -3.26513 -1.19519 0
M  V30 524 H 49.8214 -3.94377 -0.656285 0
M  V30 525 H 51.2614 -3.88707 -1.6936 0
M  V30 526 C 49.7204 -2.50847 -2.24894 0
M  V30 527 O 50.2504 -2.26119 -3.32014 0
M  V30 528 N 48.4564 -2.11656 -1.99124 0
M  V30 529 H 48.0034 -2.31966 -1.12024 0
M  V30 530 H 47.9614 -1.61347 -2.69842 0
M  V30 531 N 51.7335 -0.305618 -1.54608 0
M  V30 532 C 52.9585 0.307562 -2.05107 0
M  V30 533 C 53.3835 1.46385 -1.18123 0
M  V30 534 O 52.7415 1.8034 -0.186324 0
M  V30 535 C 52.7895 0.73704 -3.52987 0
M  V30 536 O 51.8935 1.84134 -3.6901 0
M  V30 537 H 51.2345 0.0589143 -0.661381 0
M  V30 538 H 53.7645 -0.448807 -1.99617 0
M  V30 539 H 53.7745 1.02459 -3.94925 0
M  V30 540 H 52.4495 -0.108773 -4.15758 0
M  V30 541 H 51.0265 1.55398 -3.38978 0
M  V30 542 N 53.2116 1.57565 -0.0334293 0
M  V30 543 C 54.1416 2.13511 0.945265 0
M  V30 544 C 55.1226 1.05231 1.33643 0
M  V30 545 O 56.3076 1.33084 1.41429 0
M  V30 546 C 53.4376 2.6657 2.22616 0
M  V30 547 C 52.3916 3.79676 1.97561 0
M  V30 548 C 51.7176 4.1918 3.31952 0
M  V30 549 C 53.0176 5.0557 1.31135 0
M  V30 550 H 54.7116 2.95538 0.479325 0
M  V30 551 H 52.2576 1.42166 0.229115 0
M  V30 552 H 54.2106 3.04344 2.91466 0
M  V30 553 H 52.9346 1.8171 2.71384 0
M  V30 554 H 51.5936 3.42347 1.31127 0
M  V30 555 H 51.2416 3.31296 3.78487 0
M  V30 556 H 50.9416 4.95402 3.15992 0
M  V30 557 H 52.4656 4.59541 4.02063 0
M  V30 558 H 53.8796 5.40903 1.89992 0
M  V30 559 H 52.2766 5.86818 1.25559 0
M  V30 560 H 53.3466 4.84062 0.284894 0
M  V30 561 N 54.6897 -0.239769 1.55765 0
M  V30 562 C 55.9377 -0.964892 1.77579 0
M  V30 563 C 56.2587 -1.85582 0.598699 0
M  V30 564 O 55.5287 -1.92075 -0.385226 0
M  V30 565 H 54.1087 -0.359265 0.654933 0
M  V30 566 H 56.7707 -0.256001 1.93211 0
M  V30 567 H 55.8667 -1.58243 2.69009 0
M  V30 568 N 56.1678 -1.49265 -0.50573 0
M  V30 569 C 57.1308 -1.65075 -1.59006 0
M  V30 570 C 58.1308 -0.522768 -1.52065 0
M  V30 571 O 59.3208 -0.789117 -1.55302 0
M  V30 572 C 56.4528 -1.64369 -2.98656 0
M  V30 573 H 57.6458 -2.61784 -1.46319 0
M  V30 574 H 55.1988 -1.38226 -0.729616 0
M  V30 575 H 55.9338 -0.692272 -3.16825 0
M  V30 576 H 55.7188 -2.46282 -3.05103 0
M  V30 577 H 57.2088 -1.78674 -3.77446 0
M  V30 578 N 57.6459 0.756429 -1.3826 0
M  V30 579 C 59.0619 1.0591 -1.19395 0
M  V30 580 C 59.2619 2.01459 -0.0406567 0
M  V30 581 O 58.3179 2.44909 0.614467 0
M  V30 582 C 59.6309 1.64191 -2.51916 0
M  V30 583 C 61.1789 1.76376 -2.58574 0
M  V30 584 C 61.6539 2.38069 -3.91264 0
M  V30 585 N 63.1449 2.45503 -3.92788 0
M  V30 586 C 63.8799 2.94126 -4.92217 0
M  V30 587 N 63.3759 3.42805 -6.02043 0
M  V30 588 N 65.1689 2.9314 -4.7961 0
M  V30 589 H 57.3199 0.122313 -2.12048 0
M  V30 590 H 59.5829 0.116892 -0.940766 0
M  V30 591 H 59.2889 1.01451 -3.3675 0
M  V30 592 H 59.1629 2.6329 -2.70108 0
M  V30 593 H 61.5499 2.38244 -1.74137 0
M  V30 594 H 61.6309 0.759894 -2.44252 0
M  V30 595 H 61.2749 1.76835 -4.76121 0
M  V30 596 H 61.2049 3.39091 -4.02895 0
M  V30 597 H 63.6959 2.1107 -3.13461 0
M  V30 598 H 64.0089 3.78354 -6.73846 0
M  V30 599 H 62.3539 3.4087 -6.05667 0
M  V30 600 H 65.5449 2.54419 -3.92923 0
M  V30 601 H 65.7179 3.30721 -5.5725 0
M  V30 602 N 59.124 1.23083 0.984299 0
M  V30 603 C 60.535 1.05609 1.5396 0
M  V30 604 C 60.886 -0.377793 1.92528 0
M  V30 605 O 60.011 -1.26398 1.75649 0
M  V30 606 C 60.606 1.91087 2.7977 0
M  V30 607 C 59.165 1.77885 3.31713 0
M  V30 608 C 58.312 1.87028 2.04733 0
M  V30 609 H 61.263 1.36802 0.804419 0
M  V30 610 H 61.284 1.43336 3.5247 0
M  V30 611 H 60.796 2.9544 2.51668 0
M  V30 612 H 58.897 0.762995 3.64704 0
M  V30 613 H 59.01 2.61047 4.01735 0
M  V30 614 H 57.374 1.30565 2.18689 0
M  V30 615 H 58.157 2.92929 1.79017 0
M  V30 616 N 60.6021 -1.18246 1.0419 0
M  V30 617 C 61.8481 -1.88536 0.747122 0
M  V30 618 C 62.1811 -1.80223 -0.723409 0
M  V30 619 O 61.4561 -1.20337 -1.52804 0
M  V30 620 C 61.7391 -3.38968 1.21544 0
M  V30 621 C 61.5921 -3.56084 2.74816 0
M  V30 622 C 62.9111 -4.32648 0.806482 0
M  V30 623 H 60.0301 -0.684619 0.272883 0
M  V30 624 H 62.6721 -1.39113 1.29413 0
M  V30 625 H 60.8221 -3.8119 0.750081 0
M  V30 626 H 62.4941 -3.22946 3.29399 0
M  V30 627 H 60.7371 -2.98699 3.14582 0
M  V30 628 H 61.4081 -4.61639 3.02644 0
M  V30 629 H 63.8841 -3.98211 1.20695 0
M  V30 630 H 62.7601 -5.36462 1.1619 0
M  V30 631 H 63.0211 -4.41146 -0.29029 0
M  V30 632 N 62.0802 -0.821533 -1.34494 0
M  V30 633 C 63.0432 -0.247847 -2.27856 0
M  V30 634 C 64.0432 0.573453 -1.50227 0
M  V30 635 O 65.2332 0.389759 -1.69784 0
M  V30 636 C 62.3652 0.652698 -3.34593 0
M  V30 637 H 63.5582 -1.07146 -2.80107 0
M  V30 638 H 61.1112 -0.593291 -1.44602 0
M  V30 639 H 61.8462 1.49943 -2.87555 0
M  V30 640 H 61.6312 0.065292 -3.92046 0
M  V30 641 H 63.1212 1.04793 -4.04238 0
M  V30 642 N 63.5583 1.46682 -0.576371 0
M  V30 643 C 64.5213 2.28707 0.150239 0
M  V30 644 C 65.5213 1.38035 0.824794 0
M  V30 645 O 66.7113 1.60476 0.677719 0
M  V30 646 C 63.8433 3.18248 1.22192 0
M  V30 647 H 65.0363 2.94423 -0.570521 0
M  V30 648 H 62.5893 1.52688 -0.334078 0
M  V30 649 H 63.3243 2.57265 1.97447 0
M  V30 650 H 63.1093 3.85 0.742812 0
M  V30 651 H 64.5993 3.80001 1.73172 0
M  V30 652 N 65.0364 0.313813 1.54444 0
M  V30 653 C 65.9664 -0.549454 2.26943 0
M  V30 654 C 66.9474 -1.12741 1.27372 0
M  V30 655 O 68.1324 -1.15436 1.56167 0
M  V30 656 C 65.2624 -1.71523 3.01989 0
M  V30 657 C 64.2164 -1.26703 4.08816 0
M  V30 658 C 63.5424 -2.51898 4.71647 0
M  V30 659 C 64.8424 -0.388962 5.2085 0
M  V30 660 H 66.5364 0.0552661 2.99349 0
M  V30 661 H 64.0824 0.0280207 1.43973 0
M  V30 662 H 66.0354 -2.32535 3.51433 0
M  V30 663 H 64.7594 -2.34639 2.27183 0
M  V30 664 H 63.4184 -0.679896 3.6024 0
M  V30 665 H 63.0664 -3.13356 3.93468 0
M  V30 666 H 62.7664 -2.22605 5.43802 0
M  V30 667 H 64.2904 -3.1369 5.23861 0
M  V30 668 H 65.7044 -0.905107 5.6611 0
M  V30 669 H 64.1014 -0.18924 5.99802 0
M  V30 670 H 65.1714 0.582699 4.81386 0
M  V30 671 N 66.5145 -1.57545 0.0417849 0
M  V30 672 C 67.4775 -2.09885 -0.92093 0
M  V30 673 C 68.4775 -1.01648 -1.24596 0
M  V30 674 O 69.6675 -1.27759 -1.1842 0
M  V30 675 C 66.7995 -2.57527 -2.23367 0
M  V30 676 H 67.9925 -2.96236 -0.467382 0
M  V30 677 H 65.5455 -1.5493 -0.206467 0
M  V30 678 H 66.2805 -1.74542 -2.73323 0
M  V30 679 H 66.0655 -3.36613 -2.01083 0
M  V30 680 H 67.5555 -2.98201 -2.92346 0
M  V30 681 N 67.9926 0.231505 -1.5589 0
M  V30 682 C 69.4086 0.580748 -1.48659 0
M  V30 683 C 69.6086 1.87617 -0.73498 0
M  V30 684 O 68.6646 2.51046 -0.270586 0
M  V30 685 C 69.9776 0.669202 -2.93159 0
M  V30 686 C 71.5256 0.760499 -3.03621 0
M  V30 687 C 72.0006 0.880383 -4.49459 0
M  V30 688 N 73.4916 0.944861 -4.53461 0
M  V30 689 C 74.2266 1.05716 -5.63571 0
M  V30 690 N 73.7226 1.13403 -6.83456 0
M  V30 691 N 75.5156 1.09152 -5.514 0
M  V30 692 H 67.6666 -0.618695 -2.03189 0
M  V30 693 H 69.9296 -0.215728 -0.923128 0
M  V30 694 H 69.6356 -0.212904 -3.51055 0
M  V30 695 H 69.5096 1.5361 -3.44505 0
M  V30 696 H 71.8966 1.63305 -2.45796 0
M  V30 697 H 71.9776 -0.131864 -2.5546 0
M  V30 698 H 71.6216 0.0123284 -5.07899 0
M  V30 699 H 71.5516 1.78802 -4.95316 0
M  V30 700 H 74.0426 0.896176 -3.6712 0
M  V30 701 H 74.3556 1.21921 -7.63122 0
M  V30 702 H 72.7006 1.10333 -6.86186 0
M  V30 703 H 75.8916 1.02805 -4.56671 0
M  V30 704 H 76.0646 1.17558 -6.37247 0
M  V30 705 N 69.4707 1.49531 0.497807 0
M  V30 706 C 70.4337 1.65916 1.58128 0
M  V30 707 C 71.4337 0.530825 1.51786 0
M  V30 708 O 72.6237 0.797342 1.54881 0
M  V30 709 C 69.7557 1.65951 2.9778 0
M  V30 710 H 70.9487 2.62556 1.44929 0
M  V30 711 H 68.5017 1.38611 0.722275 0
M  V30 712 H 69.2367 0.709065 3.16453 0
M  V30 713 H 69.0217 2.47897 3.03792 0
M  V30 714 H 70.5117 1.80673 3.76493 0
M  V30 715 N 70.9488 -0.749086 1.3866 0
M  V30 716 C 71.8808 -1.87273 1.32142 0
M  V30 717 C 72.8938 -1.61127 0.232787 0
M  V30 718 O 74.0828 -1.71623 0.49069 0
M  V30 719 C 71.1828 -3.23005 1.02571 0
M  V30 720 C 70.3558 -3.7662 2.22433 0
M  V30 721 C 69.4148 -4.90879 1.89537 0
M  V30 722 O 68.4408 -5.05276 2.62078 0
M  V30 723 N 69.6428 -5.74198 0.853031 0
M  V30 724 H 72.4078 -1.93373 2.28969 0
M  V30 725 H 69.9688 -0.929216 1.32579 0
M  V30 726 H 71.9608 -3.96992 0.786085 0
M  V30 727 H 70.5308 -3.12262 0.145249 0
M  V30 728 H 69.7508 -2.94147 2.62434 0
M  V30 729 H 71.0388 -4.09173 3.02415 0
M  V30 730 H 70.4368 -5.6514 0.25155 0
M  V30 731 H 68.9938 -6.48313 0.67329 0
M  V30 732 N 72.4269 -1.23603 -0.977757 0
M  V30 733 C 73.3899 -1.02069 -2.05218 0
M  V30 734 C 74.3899 0.0184305 -1.60789 0
M  V30 735 O 75.5799 -0.221569 -1.72785 0
M  V30 736 C 72.7119 -0.544926 -3.36517 0
M  V30 737 H 73.9049 -1.9742 -2.25755 0
M  V30 738 H 71.4579 -1.05684 -1.15155 0
M  V30 739 H 72.1929 0.412241 -3.21669 0
M  V30 740 H 71.9779 -1.2948 -3.70105 0
M  V30 741 H 73.4679 -0.414985 -4.15533 0
M  V30 742 N 73.905 1.17692 -1.04816 0
M  V30 743 C 75.151 1.88137 -0.75711 0
M  V30 744 C 75.484 1.80604 0.713841 0
M  V30 745 O 74.759 1.21146 1.52164 0
M  V30 746 C 75.042 3.38318 -1.2334 0
M  V30 747 C 74.895 3.54622 -2.76701 0
M  V30 748 C 76.214 4.32214 -0.829415 0
M  V30 749 H 73.333 0.683163 -0.27651 0
M  V30 750 H 75.975 1.38424 -1.30149 0
M  V30 751 H 74.125 3.80787 -0.770286 0
M  V30 752 H 75.797 3.21194 -3.31107 0
M  V30 753 H 74.04 2.97026 -3.16161 0
M  V30 754 H 74.711 4.60028 -3.05088 0
M  V30 755 H 77.187 3.97565 -1.22805 0
M  V30 756 H 76.063 5.35838 -1.19033 0
M  V30 757 H 76.324 4.41294 0.266891 0
M  V30 758 N 75.3831 0.828654 1.34056 0
M  V30 759 C 76.6321 0.415828 1.97367 0
M  V30 760 C 76.9451 -1.02796 1.6641 0
M  V30 761 O 78.1511 -1.54497 2.23255 0
M  V30 762 C 76.6071 0.692601 3.53173 0
M  V30 763 C 76.2151 2.15038 3.93017 0
M  V30 764 C 77.9591 0.346222 4.23086 0
M  V30 765 C 75.8661 2.37174 5.41758 0
M  V30 766 H 74.7961 0.151755 0.738571 0
M  V30 767 H 77.4471 1.01581 1.52819 0
M  V30 768 H 75.8291 0.0223764 3.95994 0
M  V30 769 H 77.0031 2.86024 3.61285 0
M  V30 770 H 75.3181 2.45875 3.36057 0
M  V30 771 H 77.9151 0.48937 5.32456 0
M  V30 772 H 78.2581 -0.709842 4.10204 0
M  V30 773 H 78.7911 0.971258 3.85761 0
M  V30 774 H 75.5301 3.41308 5.59633 0
M  V30 775 H 75.0501 1.70738 5.74986 0
M  V30 776 H 76.7291 2.19818 6.08514 0
M  V30 777 N 76.8612 -1.46375 0.584142 0
M  V30 778 C 77.8242 -2.28784 -0.138108 0
M  V30 779 C 78.8242 -1.38471 -0.817462 0
M  V30 780 O 80.0142 -1.60833 -0.669199 0
M  V30 781 C 77.1462 -3.18892 -1.20503 0
M  V30 782 H 78.3392 -2.94117 0.586127 0
M  V30 783 H 75.8922 -1.52509 0.342171 0
M  V30 784 H 76.6272 -2.58309 -1.96079 0
M  V30 785 H 76.4122 -3.85388 -0.722384 0
M  V30 786 H 77.9022 -3.80914 -1.71155 0
M  V30 787 N 78.3393 -0.321999 -1.54275 0
M  V30 788 C 79.2493 0.553631 -2.27974 0
M  V30 789 C 80.2653 1.13054 -1.32268 0
M  V30 790 O 81.4413 1.15084 -1.6528 0
M  V30 791 C 78.5063 1.69927 -3.02201 0
M  V30 792 C 77.5673 1.15433 -4.1349 0
M  V30 793 C 76.8003 2.24537 -4.84168 0
M  V30 794 O 77.0233 3.44852 -4.5435 0
M  V30 795 O 75.9573 1.90044 -5.7111 0
M  V30 796 H 79.7833 -0.0448345 -3.03667 0
M  V30 797 H 77.3683 -0.0877418 -1.49142 0
M  V30 798 H 79.2503 2.3663 -3.48689 0
M  V30 799 H 77.9253 2.28395 -2.29385 0
M  V30 800 H 76.8323 0.452436 -3.71354 0
M  V30 801 H 78.1653 0.614805 -4.88345 0
M  V30 802 N 79.8174 1.5752 -0.0501392 0
M  V30 803 C 80.7274 2.14952 0.939827 0
M  V30 804 C 81.7434 1.10706 1.34239 0
M  V30 805 O 82.9194 1.42869 1.41952 0
M  V30 806 C 79.9844 2.68232 2.19665 0
M  V30 807 C 79.0454 3.87272 1.85253 0
M  V30 808 C 78.2784 4.38002 3.04943 0
M  V30 809 O 78.5014 3.87811 4.18281 0
M  V30 810 O 77.4354 5.29602 2.86017 0
M  V30 811 H 81.2614 2.9986 0.481392 0
M  V30 812 H 78.8464 1.4841 0.171699 0
M  V30 813 H 80.7284 3.02475 2.93406 0
M  V30 814 H 79.4034 1.86395 2.64648 0
M  V30 815 H 78.3104 3.5792 1.0883 0
M  V30 816 H 79.6434 4.70336 1.4507 0
M  V30 817 N 81.2955 -0.223234 1.56011 0
M  V30 818 C 82.5415 -0.944891 1.8012 0
M  V30 819 C 82.8965 -1.82039 0.622862 0
M  V30 820 O 82.1895 -1.8773 -0.383143 0
M  V30 821 C 82.3835 -1.81948 3.0762 0
M  V30 822 C 82.2125 -1.03014 4.37742 0
M  V30 823 C 80.9825 -0.72574 5.00061 0
M  V30 824 C 83.1805 -0.396256 5.12771 0
M  V30 825 N 81.1625 0.0851816 6.13841 0
M  V30 826 C 82.5335 0.278137 6.19376 0
M  V30 827 C 84.5885 -0.309117 4.9694 0
M  V30 828 C 83.2915 1.03133 7.11868 0
M  V30 829 C 85.3175 0.430607 5.8983 0
M  V30 830 C 84.6795 1.09355 6.9586 0
M  V30 831 H 80.7785 -0.326081 0.710771 0
M  V30 832 H 83.3625 -0.215914 1.93499 0
M  V30 833 H 81.5335 -2.52029 2.95527 0
M  V30 834 H 83.2655 -2.47848 3.19927 0
M  V30 835 H 80.0205 -1.04335 4.61964 0
M  V30 836 H 80.4445 0.479428 6.753 0
M  V30 837 H 85.0865 -0.807313 4.15021 0
M  V30 838 H 82.8045 1.54105 7.9327 0
M  V30 839 H 86.3905 0.499012 5.79656 0
M  V30 840 H 85.2705 1.65679 7.66499 0
M  V30 841 N 82.7736 -1.49793 -0.48987 0
M  V30 842 C 84.0216 -1.59525 -1.24081 0
M  V30 843 C 84.3426 -0.288953 -1.92847 0
M  V30 844 O 83.6126 0.692436 -1.83254 0
M  V30 845 H 82.1926 -0.587796 -0.460983 0
M  V30 846 H 84.8546 -1.86477 -0.566778 0
M  V30 847 H 83.9506 -2.39696 -1.99881 0
M  V30 848 N 84.2517 0.741722 -1.39055 0
M  V30 849 C 85.1997 1.87702 -1.3737 0
M  V30 850 C 86.1937 1.67427 -0.257812 0
M  V30 851 O 87.3997 1.7485 -0.427489 0
M  V30 852 H 83.7747 0.617757 -0.428812 0
M  V30 853 H 85.7457 1.86239 -2.33147 0
M  V30 854 C 84.4947 3.25315 -1.22741 0
M  V30 855 H 83.8177 3.41509 -2.07873 0
M  V30 856 H 85.2577 4.04964 -1.25618 0
M  V30 857 C 83.7167 3.36838 0.0647316 0
M  V30 858 O 84.2467 3.88073 1.03741 0
M  V30 859 N 82.4527 2.90329 0.125544 0
M  V30 860 H 81.9997 2.48823 -0.666682 0
M  V30 861 H 81.9577 2.98418 0.989639 0
M  V30 862 N 85.7298 1.2412 0.971189 0
M  V30 863 C 86.9778 1.07668 1.71032 0
M  V30 864 C 87.2988 -0.385797 1.91146 0
M  V30 865 O 86.5688 -1.27569 1.4867 0
M  V30 866 H 85.1488 0.395429 0.633755 0
M  V30 867 H 87.8108 1.55984 1.16855 0
M  V30 868 H 86.9068 1.57195 2.69622 0
M  V30 869 N 87.2079 -1.17134 1.05439 0
M  V30 870 C 88.1379 -2.2342 0.678649 0
M  V30 871 C 89.1189 -1.66971 -0.32476 0
M  V30 872 O 90.3039 -1.93149 -0.201802 0
M  V30 873 C 87.4339 -3.47256 0.0552099 0
M  V30 874 C 86.3879 -4.16543 0.98365 0
M  V30 875 C 85.7139 -5.34231 0.223961 0
M  V30 876 C 87.0139 -4.68495 2.3089 0
M  V30 877 H 88.7079 -2.55105 1.56722 0
M  V30 878 H 86.2539 -1.2262 0.754998 0
M  V30 879 H 88.2069 -4.20828 -0.21946 0
M  V30 880 H 86.9309 -3.14846 -0.868319 0
M  V30 881 H 85.5899 -3.44887 1.24293 0
M  V30 882 H 85.2379 -4.98071 -0.702412 0
M  V30 883 H 84.9379 -5.81527 0.842627 0
M  V30 884 H 86.4619 -6.10585 -0.0433671 0
M  V30 885 H 87.8759 -5.33691 2.09396 0
M  V30 886 H 86.2729 -5.26379 2.88176 0
M  V30 887 H 87.3429 -3.85169 2.94572 0
M  V30 888 N 88.686 -0.835752 -1.33615 0
M  V30 889 C 89.935 -0.426289 -1.97144 0
M  V30 890 C 90.248 1.01912 -1.66953 0
M  V30 891 O 91.454 1.53311 -2.24072 0
M  V30 892 C 89.91 -0.711321 -3.52801 0
M  V30 893 C 89.518 -2.1712 -3.91871 0
M  V30 894 C 91.262 -0.368654 -4.22896 0
M  V30 895 C 89.169 -2.40044 -5.40493 0
M  V30 896 H 88.099 -0.15567 -0.737755 0
M  V30 897 H 90.75 -1.0239 -1.52278 0
M  V30 898 H 89.132 -0.0433766 -3.95976 0
M  V30 899 H 90.306 -2.87936 -3.59763 0
M  V30 900 H 88.621 -2.47654 -3.34749 0
M  V30 901 H 91.218 -0.517601 -5.32189 0
M  V30 902 H 91.561 0.688078 -4.10574 0
M  V30 903 H 92.094 -0.991702 -3.8524 0
M  V30 904 H 88.833 -3.44271 -5.57815 0
M  V30 905 H 88.353 -1.73785 -5.74072 0
M  V30 906 H 90.032 -2.23042 -6.0734 0
M  V30 907 N 90.1641 1.46063 -0.591896 0
M  V30 908 C 91.5801 1.57561 -0.254288 0
M  V30 909 C 91.7801 1.58565 1.24336 0
M  V30 910 O 90.8361 1.50753 2.02558 0
M  V30 911 C 92.1491 2.86549 -0.911611 0
M  V30 912 C 93.6971 3.00197 -0.886059 0
M  V30 913 C 94.1721 4.31933 -1.5231 0
M  V30 914 N 95.6631 4.38654 -1.48786 0
M  V30 915 C 96.3981 5.39222 -1.95006 0
M  V30 916 N 95.8941 6.46414 -2.49241 0
M  V30 917 N 97.6871 5.3048 -1.85868 0
M  V30 918 H 89.8381 1.43655 -1.56451 0
M  V30 919 H 92.1011 0.68583 -0.654478 0
M  V30 920 H 91.8071 2.91651 -1.96551 0
M  V30 921 H 91.6811 3.74794 -0.425368 0
M  V30 922 H 94.0681 2.9467 0.159246 0
M  V30 923 H 94.1491 2.13403 -1.41041 0
M  V30 924 H 93.7931 4.38217 -2.56765 0
M  V30 925 H 93.7231 5.17516 -0.973891 0
M  V30 926 H 96.2141 3.61793 -1.09151 0
M  V30 927 H 96.5271 7.19376 -2.82344 0
M  V30 928 H 94.8721 6.47208 -2.53272 0
M  V30 929 H 98.0631 4.45643 -1.43248 0
M  V30 930 H 98.2361 6.08711 -2.22204 0
M  V30 931 N 91.6422 0.330177 1.54103 0
M  V30 932 C 92.8672 -0.274893 2.0557 0
M  V30 933 C 93.2922 -1.44487 1.20437 0
M  V30 934 O 92.6502 -1.80021 0.214991 0
M  V30 935 C 92.6982 -0.68079 3.54115 0
M  V30 936 O 91.8022 -1.7824 3.71893 0
M  V30 937 H 91.1432 -0.0483849 0.662235 0
M  V30 938 H 93.6732 0.480508 1.98878 0
M  V30 939 H 93.6832 -0.961635 3.96505 0
M  V30 940 H 92.3582 0.174903 4.15532 0
M  V30 941 H 90.9352 -1.49985 3.41407 0
M  V30 942 N 93.1203 -1.57491 0.0584922 0
M  V30 943 C 94.3663 -1.94081 -0.608617 0
M  V30 944 C 94.7213 -0.937438 -1.68017 0
M  V30 945 O 94.0143 0.0423034 -1.91553 0
M  V30 946 C 94.2083 -3.3513 -1.24188 0
M  V30 947 C 94.0373 -4.49095 -0.233187 0
M  V30 948 C 92.8073 -5.04988 0.177439 0
M  V30 949 C 95.0053 -5.1162 0.524306 0
M  V30 950 N 92.9873 -6.02487 1.17823 0
M  V30 951 C 94.3583 -6.04493 1.37796 0
M  V30 952 C 96.4133 -4.94489 0.581822 0
M  V30 953 C 95.1163 -6.82075 2.28399 0
M  V30 954 C 97.1423 -5.72703 1.47531 0
M  V30 955 C 96.5043 -6.65214 2.31667 0
M  V30 956 H 92.6033 -0.75752 -0.194134 0
M  V30 957 H 95.1873 -1.94248 0.132533 0
M  V30 958 H 93.3583 -3.35726 -1.95302 0
M  V30 959 H 95.0903 -3.5899 -1.86838 0
M  V30 960 H 91.8453 -4.73165 -0.203004 0
M  V30 961 H 92.2693 -6.55933 1.67573 0
M  V30 962 H 96.9113 -4.22765 -0.054443 0
M  V30 963 H 94.6293 -7.53085 2.93067 0
M  V30 964 H 98.2153 -5.61472 1.52448 0
M  V30 965 H 97.0953 -7.24679 2.99683 0
M  V30 966 N 94.5984 0.214957 -1.56127 0
M  V30 967 C 95.5464 1.28601 -1.93816 0
M  V30 968 C 96.5404 1.48175 -0.821016 0
M  V30 969 O 97.7464 1.49271 -1.0059 0
M  V30 970 H 94.1214 0.431302 -0.616022 0
M  V30 971 H 96.0924 0.940991 -2.83175 0
M  V30 972 C 94.8414 2.62779 -2.27689 0
M  V30 973 H 94.1644 2.48527 -3.13168 0
M  V30 974 H 95.6044 3.36517 -2.57939 0
M  V30 975 C 94.0634 3.18285 -1.10436 0
M  V30 976 O 94.5934 4.00002 -0.368945 0
M  V30 977 N 92.7994 2.7675 -0.886433 0
M  V30 978 H 92.3464 2.10404 -1.48619 0
M  V30 979 H 92.3044 3.14229 -0.103656 0
M  V30 980 N 96.0765 1.50051 0.48192 0
M  V30 981 C 97.3015 1.64508 1.26301 0
M  V30 982 C 97.7265 0.323851 1.85291 0
M  V30 983 O 97.0845 -0.710969 1.66778 0
M  V30 984 C 97.1325 2.7305 2.35533 0
M  V30 985 O 96.2365 2.3355 3.39895 0
M  V30 986 H 95.5775 0.549978 0.372048 0
M  V30 987 H 98.1075 1.9636 0.574786 0
M  V30 988 H 98.1175 2.95799 2.8101 0
M  V30 989 H 96.7925 3.68946 1.91967 0
M  V30 990 H 95.3695 2.21205 3.00204 0
M  V30 991 N 97.5546 -0.734337 1.39446 0
M  V30 992 C 98.5176 -1.83004 1.37994 0
M  V30 993 C 99.5176 -1.58397 0.276938 0
M  V30 994 O 100.708 -1.65785 0.534875 0
M  V30 995 C 97.8396 -3.20802 1.1532 0
M  V30 996 H 99.0326 -1.85694 2.35494 0
M  V30 997 H 96.5856 -0.938059 1.25021 0
M  V30 998 H 97.3206 -3.23772 0.185036 0
M  V30 999 H 97.1056 -3.4006 1.95197 0
M  V30 1000 H 98.5956 -4.00862 1.17046 0
M  V30 1001 N 99.0327 -1.24633 -0.964593 0
M  V30 1002 C 100.281 -1.08573 -1.70459 0
M  V30 1003 C 100.602 0.375655 -1.91347 0
M  V30 1004 O 99.8717 1.26779 -1.49345 0
M  V30 1005 H 98.4517 -0.398784 -0.631649 0
M  V30 1006 H 101.114 -1.56601 -1.16026 0
M  V30 1007 H 100.21 -1.58623 -2.68785 0
M  V30 1008 N 100.511 1.16574 -1.06058 0
M  V30 1009 C 101.757 1.87565 -0.78683 0
M  V30 1010 C 102.112 1.80012 0.679214 0
M  V30 1011 O 101.405 1.20327 1.49104 0
M  V30 1012 C 101.599 3.36195 -1.21275 0
M  V30 1013 C 101.428 3.58216 -2.71866 0
M  V30 1014 C 100.198 3.7444 -3.39298 0
M  V30 1015 C 102.396 3.57134 -3.70081 0
M  V30 1016 N 100.378 3.84389 -4.78663 0
M  V30 1017 C 101.749 3.73038 -4.9522 0
M  V30 1018 C 103.804 3.40332 -3.63426 0
M  V30 1019 C 102.507 3.73879 -6.14497 0
M  V30 1020 C 104.533 3.42466 -4.82153 0
M  V30 1021 C 103.895 3.58887 -6.06118 0
M  V30 1022 H 99.9938 0.704081 -0.340284 0
M  V30 1023 H 102.578 1.39885 -1.35426 0
M  V30 1024 H 100.749 3.82522 -0.673179 0
M  V30 1025 H 102.481 3.94839 -0.887917 0
M  V30 1026 H 99.2358 3.74662 -2.89699 0
M  V30 1027 H 99.6598 3.93138 -5.51155 0
M  V30 1028 H 104.302 3.26566 -2.68541 0
M  V30 1029 H 102.02 3.86427 -7.09718 0
M  V30 1030 H 105.606 3.30712 -4.78666 0
M  V30 1031 H 104.486 3.60454 -6.9645 0
M  V30 1032 N 101.989 0.842826 1.3317 0
M  V30 1033 C 103.405 0.531128 1.50503 0
M  V30 1034 C 103.605 -0.940734 1.78192 0
M  V30 1035 O 102.661 -1.72436 1.84451 0
M  V30 1036 C 103.974 1.40789 2.65705 0
M  V30 1037 C 105.522 1.40708 2.79589 0
M  V30 1038 C 105.997 2.26878 3.97857 0
M  V30 1039 N 107.488 2.24609 4.05099 0
M  V30 1040 C 108.223 2.88019 4.95815 0
M  V30 1041 N 107.719 3.60496 5.9162 0
M  V30 1042 N 109.512 2.77469 4.88843 0
M  V30 1043 H 101.663 1.79557 1.1346 0
M  V30 1044 H 103.926 0.766267 0.558156 0
M  V30 1045 H 103.632 2.454 2.51936 0
M  V30 1046 H 103.506 1.08677 3.61205 0
M  V30 1047 H 105.893 0.368668 2.92788 0
M  V30 1048 H 105.974 1.76829 1.84838 0
M  V30 1049 H 105.618 3.3078 3.85418 0
M  V30 1050 H 105.548 1.88096 4.91861 0
M  V30 1051 H 108.039 1.71906 3.36536 0
M  V30 1052 H 108.352 4.06076 6.57512 0
M  V30 1053 H 106.697 3.64604 5.91683 0
M  V30 1054 H 109.888 2.20406 4.12963 0
M  V30 1055 H 110.061 3.2717 5.59342 0
M  V30 1056 N 103.467 -1.45747 0.599634 0
M  V30 1057 C 104.744 -1.95585 0.0240846 0
M  V30 1058 C 105.124 -1.54217 -1.44154 0
M  V30 1059 O 104.472 -0.800903 -2.14004 0
M  V30 1060 C 104.682 -3.48344 0.21385 0
M  V30 1061 C 106.03 -4.24504 0.0904902 0
M  V30 1062 O 107.054 -3.55911 0.143558 0
M  V30 1063 O 105.913 -5.46491 -0.0310766 0
M  V30 1064 H 103.007 -0.82602 -0.0402478 0
M  V30 1065 H 105.553 -1.55951 0.669139 0
M  V30 1066 H 104.325 -3.71397 1.23206 0
M  V30 1067 H 103.948 -3.9485 -0.466842 0
M  V30 1068 N 104.945 -0.338344 -1.53925 0
M  V30 1069 C 105.875 0.51328 -2.27789 0
M  V30 1070 C 106.856 1.107 -1.29149 0
M  V30 1071 O 108.041 1.12937 -1.57984 0
M  V30 1072 C 105.171 1.66697 -3.04679 0
M  V30 1073 C 104.125 1.20183 -4.1078 0
M  V30 1074 C 103.451 2.44363 -4.75595 0
M  V30 1075 C 104.751 0.30605 -5.21403 0
M  V30 1076 H 106.445 -0.102883 -2.99223 0
M  V30 1077 H 103.991 -0.0509219 -1.4391 0
M  V30 1078 H 105.944 2.26915 -3.55088 0
M  V30 1079 H 104.668 2.30995 -2.30887 0
M  V30 1080 H 103.327 0.622499 -3.61276 0
M  V30 1081 H 102.975 3.07057 -3.98403 0
M  V30 1082 H 102.675 2.13925 -5.47275 0
M  V30 1083 H 104.199 3.05317 -5.28786 0
M  V30 1084 H 105.613 0.814929 -5.67478 0
M  V30 1085 H 104.01 0.0937929 -6.00027 0
M  V30 1086 H 105.08 -0.65921 -4.80398 0
M  V30 1087 N 106.423 1.57458 -0.0668435 0
M  V30 1088 C 107.648 1.9804 0.616027 0
M  V30 1089 C 108.073 0.944771 1.62652 0
M  V30 1090 O 107.431 -0.0902094 1.81075 0
M  V30 1091 C 107.479 3.37665 1.26549 0
M  V30 1092 O 106.583 3.36701 2.38131 0
M  V30 1093 H 105.924 0.644719 0.158849 0
M  V30 1094 H 108.454 2.04121 -0.139891 0
M  V30 1095 H 108.464 3.7474 1.6135 0
M  V30 1096 H 107.139 4.12573 0.525016 0
M  V30 1097 H 105.716 3.1139 2.0516 0
M  V30 1098 N 107.901 -0.206675 1.56239 0
M  V30 1099 C 108.811 -1.27686 1.96808 0
M  V30 1100 C 109.827 -1.50455 0.874035 0
M  V30 1101 O 111.003 -1.63295 1.17884 0
M  V30 1102 C 108.068 -2.60358 2.28942 0
M  V30 1103 C 107.129 -2.45762 3.51994 0
M  V30 1104 C 106.362 -3.72108 3.82585 0
M  V30 1105 O 106.585 -4.75776 3.14631 0
M  V30 1106 O 105.519 -3.6833 4.76043 0
M  V30 1107 H 109.345 -0.962593 2.88041 0
M  V30 1108 H 106.93 -0.410746 1.43643 0
M  V30 1109 H 108.812 -3.38687 2.50737 0
M  V30 1110 H 107.487 -2.91435 1.4088 0
M  V30 1111 H 106.394 -1.65584 3.35459 0
M  V30 1112 H 107.727 -2.19621 4.40486 0
M  V30 1113 N 109.379 -1.50304 -0.473955 0
M  V30 1114 C 110.795 -1.37667 -0.807466 0
M  V30 1115 C 110.995 -0.430555 -1.96846 0
M  V30 1116 O 110.051 0.127874 -2.52176 0
M  V30 1117 C 111.364 -2.78974 -1.12223 0
M  V30 1118 C 112.912 -2.87868 -1.22885 0
M  V30 1119 C 113.387 -4.30003 -1.57676 0
M  V30 1120 N 114.878 -4.3294 -1.64673 0
M  V30 1121 C 115.613 -5.3991 -1.93091 0
M  V30 1122 N 115.109 -6.57092 -2.1955 0
M  V30 1123 N 116.902 -5.27351 -1.94569 0
M  V30 1124 H 109.053 -2.10394 0.291212 0
M  V30 1125 H 111.316 -0.945575 0.0677609 0
M  V30 1126 H 111.022 -3.50031 -0.342229 0
M  V30 1127 H 110.896 -3.16038 -2.05913 0
M  V30 1128 H 113.283 -2.17032 -1.99953 0
M  V30 1129 H 113.364 -2.54352 -0.271814 0
M  V30 1130 H 113.008 -5.01375 -0.81149 0
M  V30 1131 H 112.938 -4.61004 -2.54525 0
M  V30 1132 H 115.429 -3.48441 -1.46277 0
M  V30 1133 H 115.742 -7.34425 -2.405 0
M  V30 1134 H 114.087 -6.60272 -2.16948 0
M  V30 1135 H 117.278 -4.34801 -1.73394 0
M  V30 1136 H 117.451 -6.10805 -2.16381 0
M  V30 1137 N 110.857 0.726932 -1.39834 0
M  V30 1138 C 111.787 1.85405 -1.41941 0
M  V30 1139 C 112.768 1.67751 -0.281728 0
M  V30 1140 O 113.953 1.8795 -0.488717 0
M  V30 1141 C 111.083 3.23243 -1.2701 0
M  V30 1142 C 110.037 3.55549 -2.38262 0
M  V30 1143 C 109.363 4.9241 -2.08415 0
M  V30 1144 C 110.663 3.577 -3.80589 0
M  V30 1145 H 112.357 1.83899 -2.36266 0
M  V30 1146 H 109.903 0.883349 -1.13723 0
M  V30 1147 H 111.856 4.01775 -1.27103 0
M  V30 1148 H 110.58 3.25296 -0.291564 0
M  V30 1149 H 109.239 2.79351 -2.37399 0
M  V30 1150 H 108.887 4.91052 -1.0898 0
M  V30 1151 H 108.587 5.14992 -2.82943 0
M  V30 1152 H 110.111 5.73289 -2.10171 0
M  V30 1153 H 111.525 4.26293 -3.83337 0
M  V30 1154 H 109.922 3.91804 -4.54543 0
M  V30 1155 H 110.992 2.57328 -4.10987 0
M  V30 1156 N 112.336 1.25143 0.95797 0
M  V30 1157 C 113.584 1.09476 1.69881 0
M  V30 1158 C 113.905 -0.365502 1.91544 0
M  V30 1159 O 113.175 -1.25985 1.50015 0
M  V30 1160 H 111.755 0.402128 0.629525 0
M  V30 1161 H 114.417 1.57214 1.15194 0
M  V30 1162 H 113.513 1.60046 2.6794 0
M  V30 1163 N 113.814 -1.1601 1.06675 0
M  V30 1164 C 114.762 -2.22586 0.675157 0
M  V30 1165 C 115.756 -1.66525 -0.310766 0
M  V30 1166 O 116.962 -1.79145 -0.175215 0
M  V30 1167 H 113.337 -0.724855 0.200223 0
M  V30 1168 H 115.308 -2.52899 1.58381 0
M  V30 1169 C 114.057 -3.47604 0.0817162 0
M  V30 1170 H 113.38 -3.91058 0.831484 0
M  V30 1171 H 114.82 -4.23718 -0.154708 0
M  V30 1172 C 113.279 -3.15718 -1.17576 0
M  V30 1173 O 113.809 -3.31878 -2.26318 0
M  V30 1174 N 112.015 -2.69816 -1.07923 0
M  V30 1175 H 111.562 -2.56866 -0.194293 0
M  V30 1176 H 111.52 -2.48855 -1.92141 0
M  V30 1177 N 115.292 -0.849877 -1.32721 0
M  V30 1178 C 116.708 -0.539102 -1.50219 0
M  V30 1179 C 116.908 0.931271 -1.78689 0
M  V30 1180 O 115.964 1.71455 -1.85363 0
M  V30 1181 C 117.277 -1.42196 -2.64954 0
M  V30 1182 C 118.825 -1.42189 -2.78839 0
M  V30 1183 C 119.3 -2.28985 -3.96648 0
M  V30 1184 N 120.791 -2.26754 -4.03902 0
M  V30 1185 C 121.526 -2.90644 -4.94281 0
M  V30 1186 N 121.022 -3.63629 -5.897 0
M  V30 1187 N 122.815 -2.80057 -4.87365 0
M  V30 1188 H 114.966 -1.80156 -1.12506 0
M  V30 1189 H 117.229 -0.769217 -0.554085 0
M  V30 1190 H 116.935 -2.46733 -2.50631 0
M  V30 1191 H 116.809 -1.10591 -3.60624 0
M  V30 1192 H 119.196 -0.38419 -2.92588 0
M  V30 1193 H 119.277 -1.77807 -1.83898 0
M  V30 1194 H 118.921 -3.32819 -3.83658 0
M  V30 1195 H 118.851 -1.90702 -4.90857 0
M  V30 1196 H 121.342 -1.73688 -3.3562 0
M  V30 1197 H 121.655 -4.09558 -6.55349 0
M  V30 1198 H 120 -3.67737 -5.89741 0
M  V30 1199 H 123.191 -2.22593 -4.11789 0
M  V30 1200 H 123.364 -3.30132 -5.57599 0
M  V30 1201 N 116.77 1.45427 -0.607355 0
M  V30 1202 C 117.7 2.3329 0.0989352 0
M  V30 1203 C 118.681 1.46816 0.859007 0
M  V30 1204 O 119.866 1.75588 0.829604 0
M  V30 1205 C 116.996 3.29518 1.09705 0
M  V30 1206 C 115.95 4.25626 0.450206 0
M  V30 1207 C 115.276 5.11542 1.55655 0
M  V30 1208 C 116.576 5.18505 -0.628455 0
M  V30 1209 H 118.27 2.92595 -0.634716 0
M  V30 1210 H 115.816 1.40696 -0.306681 0
M  V30 1211 H 117.769 3.89855 1.59971 0
M  V30 1212 H 116.493 2.68372 1.86129 0
M  V30 1213 H 115.152 3.66586 -0.0315886 0
M  V30 1214 H 114.8 4.46765 2.31107 0
M  V30 1215 H 114.5 5.76647 1.12925 0
M  V30 1216 H 116.024 5.74748 2.06148 0
M  V30 1217 H 117.438 5.72916 -0.209877 0
M  V30 1218 H 115.835 5.92085 -0.977489 0
M  V30 1219 H 116.905 4.60948 -1.50514 0
M  V30 1220 N 118.248 0.346503 1.53744 0
M  V30 1221 C 119.211 -0.496439 2.23759 0
M  V30 1222 C 120.211 -1.0252 1.2388 0
M  V30 1223 O 121.401 -0.913974 1.48297 0
M  V30 1224 C 118.533 -1.69187 2.95954 0
M  V30 1225 H 119.726 0.115952 2.99676 0
M  V30 1226 H 117.279 0.0978939 1.55993 0
M  V30 1227 H 118.014 -2.34288 2.24231 0
M  V30 1228 H 117.799 -1.31989 3.69217 0
M  V30 1229 H 119.289 -2.28969 3.49232 0
M  V30 1230 N 119.726 -1.57421 0.075193 0
M  V30 1231 C 120.954 -1.97946 -0.602076 0
M  V30 1232 C 121.369 -0.953674 -1.62943 0
M  V30 1233 O 120.726 0.0592551 -1.82404 0
M  V30 1234 C 120.777 -3.38546 -1.26762 0
M  V30 1235 O 120.498 -4.37195 -0.281376 0
M  V30 1236 C 121.999 -3.93966 -2.03239 0
M  V30 1237 H 119.219 -0.650918 -0.162931 0
M  V30 1238 H 121.763 -2.03959 0.148601 0
M  V30 1239 H 119.918 -3.33609 -1.96936 0
M  V30 1240 H 120.332 -5.18975 -0.759267 0
M  V30 1241 H 121.806 -4.94555 -2.45193 0
M  V30 1242 H 122.283 -3.30693 -2.8903 0
M  V30 1243 H 122.889 -4.02315 -1.37924 0
M  V30 1244 N 121.204 0.198386 -1.56346 0
M  V30 1245 C 122.134 1.24865 -1.9731 0
M  V30 1246 C 123.115 1.47651 -0.844576 0
M  V30 1247 O 124.3 1.59444 -1.10866 0
M  V30 1248 C 121.43 2.59358 -2.30977 0
M  V30 1249 C 120.384 2.5119 -3.46537 0
M  V30 1250 C 119.71 3.89926 -3.65871 0
M  V30 1251 C 121.01 2.03977 -4.80823 0
M  V30 1252 H 122.704 0.908252 -2.85291 0
M  V30 1253 H 120.25 0.435462 -1.37258 0
M  V30 1254 H 122.203 3.33011 -2.58228 0
M  V30 1255 H 120.927 2.95132 -1.39874 0
M  V30 1256 H 119.586 1.79993 -3.19371 0
M  V30 1257 H 119.234 4.23046 -2.72105 0
M  V30 1258 H 118.934 3.85336 -4.4361 0
M  V30 1259 H 120.458 4.65205 -3.95495 0
M  V30 1260 H 121.872 2.67386 -5.07127 0
M  V30 1261 H 120.269 2.10397 -5.62008 0
M  V30 1262 H 121.339 0.992861 -4.74626 0
M  V30 1263 N 122.682 1.50554 0.465978 0
M  V30 1264 C 123.931 1.61038 1.21448 0
M  V30 1265 C 124.244 0.31865 1.92987 0
M  V30 1266 O 125.45 0.302469 2.6981 0
M  V30 1267 C 123.906 2.84283 2.20706 0
M  V30 1268 C 123.514 4.20352 1.54946 0
M  V30 1269 C 125.258 3.04115 2.96166 0
M  V30 1270 C 123.165 5.34778 2.5252 0
M  V30 1271 H 122.095 0.599718 0.457005 0
M  V30 1272 H 124.746 1.7699 0.484424 0
M  V30 1273 H 123.128 2.61901 2.97025 0
M  V30 1274 H 124.302 4.53008 0.843811 0
M  V30 1275 H 122.617 4.06167 0.917475 0
M  V30 1276 H 125.214 3.86774 3.69202 0
M  V30 1277 H 125.557 2.16045 3.55852 0
M  V30 1278 H 126.09 3.26702 2.26959 0
M  V30 1279 H 122.829 6.25018 1.97566 0
M  V30 1280 H 122.349 5.06534 3.21222 0
M  V30 1281 H 124.028 5.65561 3.14245 0
M  V30 1282 N 124.16 -0.719506 1.40217 0
M  V30 1283 C 125.408 -1.47641 1.3801 0
M  V30 1284 C 125.729 -1.94992 -0.018145 0
M  V30 1285 O 124.999 -1.70073 -0.972207 0
M  V30 1286 H 123.579 -0.547744 0.507923 0
M  V30 1287 H 126.241 -0.853187 1.75233 0
M  V30 1288 H 125.337 -2.35112 2.05253 0
M  V30 1289 N 125.638 -1.25649 -0.95132 0
M  V30 1290 C 126.601 -1.06399 -2.03007 0
M  V30 1291 C 127.601 -0.0156794 -1.60792 0
M  V30 1292 O 128.791 -0.25817 -1.72276 0
M  V30 1293 C 125.923 -0.616184 -3.35285 0
M  V30 1294 H 127.116 -2.02164 -2.21517 0
M  V30 1295 H 124.669 -1.08103 -1.12887 0
M  V30 1296 H 125.404 0.343917 -3.22471 0
M  V30 1297 H 125.189 -1.37301 -3.67275 0
M  V30 1298 H 126.679 -0.503032 -4.14559 0
M  V30 1299 N 127.117 1.15442 -1.07289 0
M  V30 1300 C 128.533 1.38201 -0.798288 0
M  V30 1301 C 128.733 1.92429 0.597769 0
M  V30 1302 O 127.789 2.12962 1.3566 0
M  V30 1303 C 129.102 2.35357 -1.87156 0
M  V30 1304 C 130.65 2.49021 -1.89624 0
M  V30 1305 C 131.125 3.49468 -2.96034 0
M  V30 1306 N 132.616 3.57003 -2.95132 0
M  V30 1307 C 133.351 4.34543 -3.74112 0
M  V30 1308 N 132.847 5.15421 -4.6294 0
M  V30 1309 N 134.64 4.29625 -3.62462 0
M  V30 1310 H 126.791 0.78584 -1.97328 0
M  V30 1311 H 129.054 0.408065 -0.855679 0
M  V30 1312 H 128.76 2.02626 -2.87464 0
M  V30 1313 H 128.634 3.35129 -1.73114 0
M  V30 1314 H 131.021 2.81051 -0.899687 0
M  V30 1315 H 131.102 1.4925 -2.07745 0
M  V30 1316 H 130.746 3.18173 -3.95889 0
M  V30 1317 H 130.676 4.48992 -2.75161 0
M  V30 1318 H 133.167 2.99276 -2.30743 0
M  V30 1319 H 133.48 5.7183 -5.19837 0
M  V30 1320 H 131.825 5.14729 -4.66989 0
M  V30 1321 H 135.016 3.65505 -2.92444 0
M  V30 1322 H 135.189 4.89807 -4.24256 0
M  V30 1323 N 128.595 0.856903 1.32268 0
M  V30 1324 C 129.872 0.382583 1.91822 0
M  V30 1325 C 130.252 -1.13407 1.78051 0
M  V30 1326 O 129.6 -1.95673 1.18001 0
M  V30 1327 C 129.81 0.849446 3.38505 0
M  V30 1328 C 131.158 0.867936 4.15634 0
M  V30 1329 O 132.182 0.794232 3.47232 0
M  V30 1330 O 131.041 0.972286 5.37781 0
M  V30 1331 H 128.135 0.112014 0.819379 0
M  V30 1332 H 130.681 0.943952 1.41024 0
M  V30 1333 H 129.453 1.89267 3.42482 0
M  V30 1334 H 129.076 0.265652 3.96712 0
M  V30 1335 N 130.073 -1.45103 0.615059 0
M  V30 1336 C 131.321 -2.01784 0.112955 0
M  V30 1337 C 131.642 -1.48504 -1.26378 0
M  V30 1338 O 130.912 -0.682245 -1.83636 0
M  V30 1339 H 129.492 -0.745993 0.0387668 0
M  V30 1340 H 132.154 -1.77808 0.798141 0
M  V30 1341 H 131.25 -3.12025 0.0684069 0
M  V30 1342 N 131.551 -0.354651 -1.53558 0
M  V30 1343 C 132.461 0.50515 -2.29097 0
M  V30 1344 C 133.477 1.10223 -1.34636 0
M  V30 1345 O 134.653 1.11553 -1.67684 0
M  V30 1346 C 131.718 1.63479 -3.05738 0
M  V30 1347 C 130.779 1.06636 -4.15845 0
M  V30 1348 C 130.012 2.14217 -4.88822 0
M  V30 1349 O 130.235 3.35137 -4.61562 0
M  V30 1350 O 129.169 1.77887 -5.75013 0
M  V30 1351 H 132.995 -0.109237 -3.03503 0
M  V30 1352 H 130.58 -0.119357 -1.48922 0
M  V30 1353 H 132.462 2.2918 -3.5363 0
M  V30 1354 H 131.137 2.23478 -2.34178 0
M  V30 1355 H 130.044 0.373565 -3.7223 0
M  V30 1356 H 131.377 0.511081 -4.89539 0
M  V30 1357 N 133.029 1.57378 -0.0835403 0
M  V30 1358 C 134.275 1.94217 0.583733 0
M  V30 1359 C 134.608 0.964653 1.68547 0
M  V30 1360 O 133.883 -0.00422258 1.945 0
M  V30 1361 C 134.166 3.41253 1.14972 0
M  V30 1362 C 134.019 4.49768 0.0538277 0
M  V30 1363 C 135.338 3.89352 2.05166 0
M  V30 1364 H 132.457 0.706233 0.210724 0
M  V30 1365 H 135.099 1.89392 -0.1519 0
M  V30 1366 H 133.249 3.45496 1.77665 0
M  V30 1367 H 134.921 4.57641 -0.579851 0
M  V30 1368 H 133.164 4.29432 -0.614068 0
M  V30 1369 H 133.835 5.49817 0.490452 0
M  V30 1370 H 136.311 3.87189 1.52393 0
M  V30 1371 H 135.187 4.92822 2.41698 0
M  V30 1372 H 135.448 3.27973 2.96456 0
M  V30 1373 N 134.507 -0.190092 1.56449 0
M  V30 1374 C 135.753 -0.911052 1.81184 0
M  V30 1375 C 136.086 -1.82699 0.658396 0
M  V30 1376 O 135.361 -1.91491 -0.340775 0
M  V30 1377 C 135.644 -1.72297 3.16205 0
M  V30 1378 C 135.497 -0.831419 4.42049 0
M  V30 1379 C 136.816 -2.69454 3.47969 0
M  V30 1380 H 133.935 -0.32977 0.659106 0
M  V30 1381 H 136.577 -0.178169 1.89163 0
M  V30 1382 H 134.727 -2.34778 3.09534 0
M  V30 1383 H 136.399 -0.220929 4.60771 0
M  V30 1384 H 134.642 -0.138406 4.33579 0
M  V30 1385 H 135.313 -1.43461 5.33032 0
M  V30 1386 H 137.789 -2.17104 3.54972 0
M  V30 1387 H 136.665 -3.23342 4.43555 0
M  V30 1388 H 136.926 -3.48744 2.71717 0
M  V30 1389 N 135.985 -1.50799 -0.457987 0
M  V30 1390 C 137.231 -1.62683 -1.21088 0
M  V30 1391 C 137.564 -0.332268 -1.91336 0
M  V30 1392 O 136.839 0.667043 -1.82704 0
M  V30 1393 C 137.122 -2.81615 -2.24422 0
M  V30 1394 C 136.975 -4.20989 -1.58392 0
M  V30 1395 C 138.294 -2.96085 -3.2561 0
M  V30 1396 H 135.413 -0.592087 -0.438864 0
M  V30 1397 H 138.055 -1.83225 -0.50286 0
M  V30 1398 H 136.205 -2.64231 -2.84806 0
M  V30 1399 H 137.877 -4.49994 -1.01504 0
M  V30 1400 H 136.12 -4.24641 -0.886704 0
M  V30 1401 H 136.791 -5.0016 -2.33547 0
M  V30 1402 H 139.267 -3.12042 -2.75262 0
M  V30 1403 H 138.143 -3.80902 -3.95228 0
M  V30 1404 H 138.404 -2.0726 -3.90507 0
M  V30 1405 N 137.463 0.71206 -1.40597 0
M  V30 1406 C 138.691 1.50111 -1.42388 0
M  V30 1407 C 139.106 1.88784 -0.0245395 0
M  V30 1408 O 138.463 1.55681 0.952351 0
M  V30 1409 C 138.514 2.7742 -2.31776 0
M  V30 1410 O 138.235 2.40382 -3.66262 0
M  V30 1411 C 139.736 3.7129 -2.42196 0
M  V30 1412 H 136.956 0.46314 -0.485533 0
M  V30 1413 H 139.5 0.878068 -1.8469 0
M  V30 1414 H 137.655 3.36001 -1.92827 0
M  V30 1415 H 138.069 3.22324 -4.13772 0
M  V30 1416 H 139.543 4.57448 -3.08943 0
M  V30 1417 H 140.02 4.14641 -1.44809 0
M  V30 1418 H 140.626 3.18619 -2.81712 0
M  V30 1419 N 138.941 1.26152 0.944643 0
M  V30 1420 C 140.218 1.02247 1.66748 0
M  V30 1421 C 140.598 -0.448202 2.06287 0
M  V30 1422 O 139.946 -1.42779 1.78399 0
M  V30 1423 C 140.156 1.96788 2.88228 0
M  V30 1424 C 141.504 2.25201 3.59958 0
M  V30 1425 O 142.528 1.94626 2.98327 0
M  V30 1426 O 141.387 2.77242 4.70956 0
M  V30 1427 H 138.481 0.388517 0.730057 0
M  V30 1428 H 141.027 1.37348 0.99668 0
M  V30 1429 H 139.799 2.96047 2.55875 0
M  V30 1430 H 139.422 1.62145 3.63035 0
M  V30 1431 N 140.419 -1.14872 1.07899 0
M  V30 1432 C 141.647 -1.89661 0.82683 0
M  V30 1433 C 142.062 -1.78312 -0.620519 0
M  V30 1434 O 141.419 -1.13888 -1.42604 0
M  V30 1435 C 141.47 -3.39817 1.23316 0
M  V30 1436 O 141.191 -3.50845 2.62372 0
M  V30 1437 C 142.692 -4.31615 1.0111 0
M  V30 1438 H 139.912 -0.60092 0.298557 0
M  V30 1439 H 142.456 -1.4551 1.43691 0
M  V30 1440 H 140.611 -3.8161 0.667286 0
M  V30 1441 H 141.025 -4.44076 2.79101 0
M  V30 1442 H 142.499 -5.35367 1.34486 0
M  V30 1443 H 142.976 -4.39169 -0.0522168 0
M  V30 1444 H 143.582 -3.95572 1.56215 0
M  V30 1445 N 141.898 -0.863906 -1.31812 0
M  V30 1446 C 143.126 -0.486111 -2.01108 0
M  V30 1447 C 143.541 0.919755 -1.64882 0
M  V30 1448 O 142.898 1.60162 -0.874893 0
M  V30 1449 C 142.949 -0.626435 -3.56031 0
M  V30 1450 O 142.67 -1.97693 -3.90959 0
M  V30 1451 C 144.171 -0.248857 -4.42601 0
M  V30 1452 H 141.391 -0.190052 -0.643523 0
M  V30 1453 H 143.935 -1.1634 -1.68182 0
M  V30 1454 H 142.09 0.00322717 -3.874 0
M  V30 1455 H 142.504 -1.98034 -4.85678 0
M  V30 1456 H 143.978 -0.398016 -5.50563 0
M  V30 1457 H 144.455 0.811489 -4.31638 0
M  V30 1458 H 145.061 -0.853971 -4.16638 0
M  V30 1459 N 143.376 1.44774 -0.622745 0
M  V30 1460 C 144.601 2.06999 -0.128968 0
M  V30 1461 C 145.026 1.4617 1.1839 0
M  V30 1462 O 144.384 0.560007 1.72434 0
M  V30 1463 C 144.432 3.60595 -0.0188351 0
M  V30 1464 O 143.536 3.99398 1.02739 0
M  V30 1465 H 142.877 0.659047 -0.0809544 0
M  V30 1466 H 145.407 1.85784 -0.85705 0
M  V30 1467 H 145.417 4.07627 0.174476 0
M  V30 1468 H 144.092 4.04252 -0.977384 0
M  V30 1469 H 142.669 3.64011 0.809326 0
M  V30 1470 N 144.854 0.36279 1.53368 0
M  V30 1471 C 146.103 -0.22888 2.00397 0
M  V30 1472 C 146.416 -1.50096 1.25421 0
M  V30 1473 O 147.622 -2.17106 1.63025 0
M  V30 1474 C 146.078 -0.458417 3.56969 0
M  V30 1475 C 145.686 0.798877 4.4082 0
M  V30 1476 C 147.43 -1.00789 4.12361 0
M  V30 1477 C 145.337 0.539078 5.88938 0
M  V30 1478 H 144.267 -0.089305 0.748693 0
M  V30 1479 H 146.918 0.481099 1.77081 0
M  V30 1480 H 145.3 -1.22959 3.76427 0
M  V30 1481 H 146.474 1.57262 4.33134 0
M  V30 1482 H 144.789 1.27137 3.96516 0
M  V30 1483 H 147.386 -1.21754 5.20653 0
M  V30 1484 H 147.729 -1.9692 3.66781 0
M  V30 1485 H 148.262 -0.296961 3.9669 0
M  V30 1486 H 145.001 1.47064 6.3879 0
M  V30 1487 H 144.521 -0.196222 5.99479 0
M  V30 1488 H 146.2 0.163542 6.46793 0
M  V30 1489 N 146.332 -1.57332 0.0918853 0
M  V30 1490 C 147.28 -2.15075 -0.885747 0
M  V30 1491 C 148.274 -1.09277 -1.29441 0
M  V30 1492 O 149.48 -1.27627 -1.26931 0
M  V30 1493 H 145.855 -0.687966 -0.303656 0
M  V30 1494 H 147.826 -2.96047 -0.373995 0
M  V30 1495 C 146.575 -2.74325 -2.13638 0
M  V30 1496 H 145.898 -3.55418 -1.8308 0
M  V30 1497 H 147.338 -3.183 -2.80109 0
M  V30 1498 C 145.797 -1.70062 -2.90827 0
M  V30 1499 O 146.327 -1.13763 -3.85254 0
M  V30 1500 N 144.533 -1.40628 -2.54307 0
M  V30 1501 H 144.08 -1.866 -1.7759 0
M  V30 1502 H 144.038 -0.711043 -3.06254 0
M  V30 1503 N 147.81 0.181792 -1.56548 0
M  V30 1504 C 148.74 1.22765 -1.98623 0
M  V30 1505 C 149.721 1.46747 -0.860189 0
M  V30 1506 O 150.906 1.58259 -1.12551 0
M  V30 1507 C 148.036 2.56894 -2.33715 0
M  V30 1508 C 146.99 2.475 -3.49182 0
M  V30 1509 C 146.316 3.86023 -3.69986 0
M  V30 1510 C 147.616 1.98866 -4.82959 0
M  V30 1511 H 149.31 0.877942 -2.86239 0
M  V30 1512 H 146.856 0.42088 -1.37712 0
M  V30 1513 H 148.809 3.30253 -2.61746 0
M  V30 1514 H 147.533 2.93632 -1.42997 0
M  V30 1515 H 146.192 1.76596 -3.21262 0
M  V30 1516 H 145.84 4.20136 -2.76576 0
M  V30 1517 H 145.54 3.80609 -4.47672 0
M  V30 1518 H 147.064 4.60984 -4.00407 0
M  V30 1519 H 148.478 2.61992 -5.09934 0
M  V30 1520 H 146.875 2.04424 -5.64208 0
M  V30 1521 H 147.945 0.942465 -4.75653 0
M  V30 1522 N 149.288 1.51039 0.449983 0
M  V30 1523 C 150.535 1.63081 1.20045 0
M  V30 1524 C 150.863 0.341024 1.91487 0
M  V30 1525 O 150.118 -0.674276 1.83717 0
M  V30 1526 C 150.417 2.77556 2.25161 0
M  V30 1527 C 150.083 4.17289 1.70823 0
M  V30 1528 C 148.745 4.55305 1.55725 0
M  V30 1529 C 151.097 5.04536 1.3074 0
M  V30 1530 C 148.425 5.78287 0.989999 0
M  V30 1531 C 150.777 6.28085 0.754482 0
M  V30 1532 C 149.441 6.64885 0.590308 0
M  V30 1533 H 148.711 0.596755 0.439277 0
M  V30 1534 H 151.358 1.85037 0.49333 0
M  V30 1535 H 149.663 2.49771 3.01863 0
M  V30 1536 H 151.36 2.84073 2.83026 0
M  V30 1537 H 147.95 3.8731 1.83546 0
M  V30 1538 H 152.134 4.75782 1.41229 0
M  V30 1539 H 147.39 6.05456 0.850451 0
M  V30 1540 H 151.564 6.95038 0.435324 0
M  V30 1541 H 149.191 7.60055 0.14862 0
M  V30 1542 N 150.766 -0.704594 1.40972 0
M  V30 1543 C 151.713 -1.81862 1.42109 0
M  V30 1544 C 152.683 -1.63781 0.276593 0
M  V30 1545 O 153.868 -1.84759 0.4763 0
M  V30 1546 C 151.008 -3.19669 1.30022 0
M  V30 1547 C 150.121 -3.49246 2.54267 0
M  V30 1548 C 149.256 -4.76618 2.3454 0
M  V30 1549 C 148.295 -4.99133 3.54306 0
M  V30 1550 N 147.432 -6.17726 3.33706 0
M  V30 1551 H 152.272 -1.80226 2.37324 0
M  V30 1552 H 149.809 -0.880238 1.17857 0
M  V30 1553 H 151.767 -3.99263 1.21018 0
M  V30 1554 H 150.397 -3.20506 0.384192 0
M  V30 1555 H 149.449 -2.64125 2.73756 0
M  V30 1556 H 150.761 -3.61788 3.43381 0
M  V30 1557 H 149.915 -5.64249 2.22952 0
M  V30 1558 H 148.654 -4.66305 1.42867 0
M  V30 1559 H 147.659 -4.09953 3.66359 0
M  V30 1560 H 148.884 -5.11311 4.4692 0
M  V30 1561 H 146.83 -6.08642 2.44725 0
M  V30 1562 H 146.747 -6.30995 4.16391 0
M  V30 1563 H 148.015 -7.08115 3.25873 0
M  V30 1564 N 152.244 -1.26651 -0.937939 0
M  V30 1565 C 153.49 -1.12553 -1.687 0
M  V30 1566 C 153.823 0.329782 -1.91379 0
M  V30 1567 O 153.098 1.24202 -1.4968 0
M  V30 1568 C 153.381 -1.89862 -3.05981 0
M  V30 1569 C 153.234 -3.43318 -2.90607 0
M  V30 1570 C 154.553 -1.69499 -4.0615 0
M  V30 1571 H 151.672 -0.410257 -0.612257 0
M  V30 1572 H 154.314 -1.55685 -1.08913 0
M  V30 1573 H 152.464 -1.53204 -3.57017 0
M  V30 1574 H 154.136 -3.89747 -2.46769 0
M  V30 1575 H 152.379 -3.70179 -2.26164 0
M  V30 1576 H 153.05 -3.92642 -3.8799 0
M  V30 1577 H 155.526 -2.01442 -3.64088 0
M  V30 1578 H 154.402 -2.26002 -5.00214 0
M  V30 1579 H 154.663 -0.640365 -4.37438 0
M  V30 1580 N 153.722 1.14298 -1.08507 0
M  V30 1581 C 154.652 2.21542 -0.737646 0
M  V30 1582 C 155.633 1.67773 0.280377 0
M  V30 1583 O 156.818 1.93616 0.150521 0
M  V30 1584 C 153.948 3.46988 -0.147259 0
M  V30 1585 C 152.902 4.13789 -1.09374 0
M  V30 1586 C 152.228 5.33449 -0.365524 0
M  V30 1587 C 153.528 4.62208 -2.4323 0
M  V30 1588 H 155.222 2.5086 -1.6343 0
M  V30 1589 H 152.768 1.20576 -0.787243 0
M  V30 1590 H 154.721 4.21262 0.107808 0
M  V30 1591 H 153.445 3.17037 0.784538 0
M  V30 1592 H 152.104 3.4147 -1.33393 0
M  V30 1593 H 151.752 4.99759 0.57011 0
M  V30 1594 H 151.452 5.79088 -0.996512 0
M  V30 1595 H 152.976 6.10485 -0.118534 0
M  V30 1596 H 154.39 5.27952 -2.23472 0
M  V30 1597 H 152.787 5.18553 -3.02031 0
M  V30 1598 H 153.857 3.77224 -3.04681 0
M  V30 1599 N 155.201 0.870884 1.31352 0
M  V30 1600 C 156.426 0.495957 2.01383 0
M  V30 1601 C 156.851 -0.904324 1.64935 0
M  V30 1602 O 156.209 -1.59687 0.858466 0
M  V30 1603 C 156.257 0.661433 3.54482 0
M  V30 1604 O 155.361 -0.298851 4.11316 0
M  V30 1605 H 154.702 0.197158 0.634054 0
M  V30 1606 H 157.232 1.17455 1.67527 0
M  V30 1607 H 157.242 0.555072 4.04207 0
M  V30 1608 H 155.917 1.68246 3.8035 0
M  V30 1609 H 154.494 -0.147368 3.72609 0
M  V30 1610 N 156.679 -1.44442 0.630414 0
M  V30 1611 C 157.642 -2.29107 -0.0652523 0
M  V30 1612 C 158.642 -1.41002 -0.772995 0
M  V30 1613 O 159.832 -1.62881 -0.617692 0
M  V30 1614 C 156.964 -3.22564 -1.10296 0
M  V30 1615 H 158.157 -2.92103 0.679401 0
M  V30 1616 H 155.71 -1.51343 0.390517 0
M  V30 1617 H 156.445 -2.64416 -1.87762 0
M  V30 1618 H 156.23 -3.87491 -0.59941 0
M  V30 1619 H 157.72 -3.86167 -1.5895 0
M  V30 1620 N 158.157 -0.370918 -1.53173 0
M  V30 1621 C 159.12 0.460778 -2.24521 0
M  V30 1622 C 160.12 1.00536 -1.25496 0
M  V30 1623 O 161.31 0.890266 -1.49733 0
M  V30 1624 C 158.442 1.64457 -2.98608 0
M  V30 1625 H 159.635 -0.163613 -2.99453 0
M  V30 1626 H 157.188 -0.122699 -1.55818 0
M  V30 1627 H 157.923 2.30691 -2.2793 0
M  V30 1628 H 157.708 1.26099 -3.7127 0
M  V30 1629 H 159.198 2.23384 -3.5283 0
M  V30 1630 N 159.635 1.57281 -0.100228 0
M  V30 1631 C 160.565 2.17328 0.853857 0
M  V30 1632 C 161.546 1.10804 1.2906 0
M  V30 1633 O 162.731 1.38963 1.35657 0
M  V30 1634 C 159.861 2.75772 2.11109 0
M  V30 1635 C 158.815 3.87713 1.81279 0
M  V30 1636 C 158.141 4.32882 3.13874 0
M  V30 1637 C 159.441 5.10677 1.09574 0
M  V30 1638 H 161.135 2.97305 0.353545 0
M  V30 1639 H 158.681 1.43009 0.168612 0
M  V30 1640 H 160.634 3.16433 2.78296 0
M  V30 1641 H 159.358 1.93057 2.63432 0
M  V30 1642 H 158.017 3.476 1.16489 0
M  V30 1643 H 157.665 3.47051 3.64095 0
M  V30 1644 H 157.365 5.08358 2.94696 0
M  V30 1645 H 158.889 4.7618 3.82211 0
M  V30 1646 H 160.303 5.48474 1.66879 0
M  V30 1647 H 158.7 5.91615 1.00557 0
M  V30 1648 H 159.77 4.84835 0.0793299 0
M  V30 1649 N 161.113 -0.173488 1.56642 0
M  V30 1650 C 162.529 -0.525174 1.50712 0
M  V30 1651 C 162.729 -1.8476 0.804107 0
M  V30 1652 O 161.785 -2.49869 0.363574 0
M  V30 1653 C 163.098 -0.559937 2.95441 0
M  V30 1654 C 164.646 -0.647288 3.06234 0
M  V30 1655 C 165.121 -0.712963 4.52417 0
M  V30 1656 N 166.612 -0.775911 4.56655 0
M  V30 1657 C 167.347 -0.847264 5.67106 0
M  V30 1658 N 166.843 -0.879585 6.87194 0
M  V30 1659 N 168.636 -0.886117 5.55071 0
M  V30 1660 H 160.787 0.693681 2.00753 0
M  V30 1661 H 163.05 0.249841 0.914485 0
M  V30 1662 H 162.756 0.343049 3.50023 0
M  V30 1663 H 162.63 -1.40718 3.49969 0
M  V30 1664 H 165.017 -1.5407 2.51687 0
M  V30 1665 H 165.098 0.226586 2.54794 0
M  V30 1666 H 164.742 0.176183 5.07594 0
M  V30 1667 H 164.672 -1.60295 5.0161 0
M  V30 1668 H 167.163 -0.759304 3.70193 0
M  V30 1669 H 167.476 -0.935144 7.67121 0
M  V30 1670 H 165.821 -0.847898 6.89808 0
M  V30 1671 H 169.012 -0.857853 4.60172 0
M  V30 1672 H 169.185 -0.938263 6.41171 0
M  V30 1673 N 162.591 -1.51276 -0.441967 0
M  V30 1674 C 163.837 -1.63958 -1.19355 0
M  V30 1675 C 164.17 -0.352543 -1.90973 0
M  V30 1676 O 163.445 0.647627 -1.83401 0
M  V30 1677 C 163.728 -2.83979 -2.21422 0
M  V30 1678 C 163.581 -4.22646 -1.53918 0
M  V30 1679 C 164.9 -2.99521 -3.22451 0
M  V30 1680 H 162.019 -0.596709 -0.432559 0
M  V30 1681 H 164.661 -1.83748 -0.483398 0
M  V30 1682 H 162.811 -2.67237 -2.81987 0
M  V30 1683 H 164.483 -4.51045 -0.967256 0
M  V30 1684 H 162.726 -4.25558 -0.841615 0
M  V30 1685 H 163.397 -5.02609 -2.28229 0
M  V30 1686 H 165.873 -3.14944 -2.71937 0
M  V30 1687 H 164.749 -3.85072 -3.91166 0
M  V30 1688 H 165.01 -2.11391 -3.88287 0
M  V30 1689 N 164.069 0.697108 -1.41344 0
M  V30 1690 C 165.001 1.8224 -1.39001 0
M  V30 1691 C 166.014 1.60152 -0.292428 0
M  V30 1692 O 167.203 1.69684 -0.554048 0
M  V30 1693 C 164.303 3.18976 -1.14489 0
M  V30 1694 C 163.476 3.68105 -2.36258 0
M  V30 1695 C 162.535 4.83506 -2.07625 0
M  V30 1696 O 161.561 4.95201 -2.8065 0
M  V30 1697 N 162.763 5.70637 -1.06555 0
M  V30 1698 H 165.528 1.84742 -2.35988 0
M  V30 1699 H 163.089 0.87937 -1.35936 0
M  V30 1700 H 165.081 3.93801 -0.932885 0
M  V30 1701 H 163.651 3.11508 -0.261043 0
M  V30 1702 H 162.871 2.84204 -2.7317 0
M  V30 1703 H 164.159 3.97667 -3.17393 0
M  V30 1704 H 163.557 5.63817 -0.461125 0
M  V30 1705 H 162.114 6.45368 -0.913444 0
M  V30 1706 N 165.547 1.27147 0.931209 0
M  V30 1707 C 166.51 1.09615 2.01289 0
M  V30 1708 C 167.51 0.0412581 1.60747 0
M  V30 1709 O 168.7 0.285545 1.71844 0
M  V30 1710 C 165.832 0.669447 3.34262 0
M  V30 1711 H 167.025 2.05662 2.18273 0
M  V30 1712 H 164.578 1.09885 1.11153 0
M  V30 1713 H 165.313 -0.292572 3.22978 0
M  V30 1714 H 165.098 1.43127 3.65044 0
M  V30 1715 H 166.588 0.568921 4.13706 0
M  V30 1716 N 167.025 -1.13721 1.09112 0
M  V30 1717 C 168.253 -1.88773 0.846899 0
M  V30 1718 C 168.668 -1.7896 -0.601572 0
M  V30 1719 O 168.025 -1.15394 -1.41388 0
M  V30 1720 C 168.076 -3.3849 1.26913 0
M  V30 1721 O 167.797 -3.48043 2.66079 0
M  V30 1722 C 169.298 -4.30518 1.05682 0
M  V30 1723 H 166.518 -0.59772 0.304914 0
M  V30 1724 H 169.062 -1.43977 1.45227 0
M  V30 1725 H 167.217 -3.80881 0.707723 0
M  V30 1726 H 167.631 -4.4109 2.83795 0
M  V30 1727 H 169.105 -5.3391 1.40156 0
M  V30 1728 H 169.582 -4.392 -0.00563416 0
M  V30 1729 H 170.188 -3.93893 1.60402 0
M  V30 1730 N 168.503 -0.877838 -1.30888 0
M  V30 1731 C 169.919 -0.570844 -1.49042 0
M  V30 1732 C 170.119 0.893159 -1.80624 0
M  V30 1733 O 169.175 1.67485 -1.88958 0
M  V30 1734 C 170.488 -1.47784 -2.61878 0
M  V30 1735 C 172.036 -1.48071 -2.75761 0
M  V30 1736 C 172.511 -2.37347 -3.91702 0
M  V30 1737 N 174.002 -2.35271 -3.99001 0
M  V30 1738 C 174.737 -3.01063 -4.88004 0
M  V30 1739 N 174.233 -3.76055 -5.81854 0
M  V30 1740 N 176.026 -2.90332 -4.81315 0
M  V30 1741 H 168.177 -1.82502 -1.0866 0
M  V30 1742 H 170.44 -0.780797 -0.537644 0
M  V30 1743 H 170.146 -2.51993 -2.45341 0
M  V30 1744 H 170.02 -1.18215 -3.58197 0
M  V30 1745 H 172.407 -0.446166 -2.91708 0
M  V30 1746 H 172.488 -1.81668 -1.80085 0
M  V30 1747 H 172.132 -3.40883 -3.76512 0
M  V30 1748 H 172.062 -2.01071 -4.86701 0
M  V30 1749 H 174.553 -1.80768 -3.3186 0
M  V30 1750 H 174.866 -4.23366 -6.46514 0
M  V30 1751 H 173.211 -3.80163 -5.81808 0
M  V30 1752 H 176.402 -2.31278 -4.06974 0
M  V30 1753 H 176.575 -3.41885 -5.50471 0
M  V30 1754 N 169.982 1.44106 -0.638065 0
M  V30 1755 C 171.207 2.0685 -0.150916 0
M  V30 1756 C 171.632 1.47417 1.16833 0
M  V30 1757 O 170.99 0.578264 1.71831 0
M  V30 1758 C 171.038 3.60555 -0.05708 0
M  V30 1759 O 170.142 4.00465 0.984972 0
M  V30 1760 H 169.483 0.658151 -0.0879399 0
M  V30 1761 H 172.013 1.84865 -0.876707 0
M  V30 1762 H 172.023 4.07789 0.131232 0
M  V30 1763 H 170.698 4.03193 -1.02021 0
M  V30 1764 H 169.275 3.64849 0.770672 0
M  V30 1765 N 171.46 0.379036 1.52974 0
M  V30 1766 C 172.871 -0.0972525 1.86447 0
M  V30 1767 C 173.222 -1.47027 1.29914 0
M  V30 1768 O 172.347 -2.07135 0.626433 0
M  V30 1769 C 172.942 -0.183248 3.38304 0
M  V30 1770 C 171.501 -0.603812 3.71525 0
M  V30 1771 C 170.648 0.240632 2.76254 0
M  V30 1772 H 173.599 0.597316 1.4703 0
M  V30 1773 H 173.62 -1.00432 3.67006 0
M  V30 1774 H 173.132 0.816191 3.79421 0
M  V30 1775 H 171.233 -1.61099 3.35973 0
M  V30 1776 H 171.346 -0.369086 4.77676 0
M  V30 1777 H 169.71 -0.292548 2.53014 0
M  V30 1778 H 170.493 1.23786 3.20206 0
M  V30 1779 N 172.938 -1.57226 0.108567 0
M  V30 1780 C 173.848 -2.18292 -0.859401 0
M  V30 1781 C 174.864 -1.15612 -1.30038 0
M  V30 1782 O 176.04 -1.48039 -1.36552 0
M  V30 1783 C 173.105 -2.762 -2.09558 0
M  V30 1784 C 172.166 -3.93881 -1.70752 0
M  V30 1785 C 171.399 -4.49018 -2.88477 0
M  V30 1786 O 171.622 -4.03068 -4.036 0
M  V30 1787 O 170.556 -5.39852 -2.66164 0
M  V30 1788 H 174.382 -3.01441 -0.369769 0
M  V30 1789 H 171.967 -1.48945 -0.1165 0
M  V30 1790 H 173.849 -3.13156 -2.81978 0
M  V30 1791 H 172.524 -1.96089 -2.57548 0
M  V30 1792 H 171.431 -3.61713 -0.954714 0
M  V30 1793 H 172.764 -4.75396 -1.27513 0
M  V30 1794 N 174.416 0.165178 -1.56732 0
M  V30 1795 C 175.832 0.517174 -1.50988 0
M  V30 1796 C 176.032 1.84331 -0.813894 0
M  V30 1797 O 175.088 2.49672 -0.37682 0
M  V30 1798 C 176.401 0.544261 -2.95733 0
M  V30 1799 C 177.949 0.631039 -3.06573 0
M  V30 1800 C 178.424 0.68896 -4.52788 0
M  V30 1801 N 179.915 0.751683 -4.5706 0
M  V30 1802 C 180.65 0.817177 -5.67547 0
M  V30 1803 N 180.146 0.843129 -6.8765 0
M  V30 1804 N 181.939 0.856668 -5.55534 0
M  V30 1805 H 174.09 -0.704318 -2.00382 0
M  V30 1806 H 176.353 -0.254687 -0.913148 0
M  V30 1807 H 176.059 -0.361607 -3.49836 0
M  V30 1808 H 175.933 1.3886 -3.5071 0
M  V30 1809 H 178.32 1.52733 -2.52501 0
M  V30 1810 H 178.401 -0.240095 -2.54671 0
M  V30 1811 H 178.045 -0.2031 -5.07494 0
M  V30 1812 H 177.975 1.57633 -5.02454 0
M  V30 1813 H 180.466 0.739661 -3.70591 0
M  V30 1814 H 180.779 0.894448 -7.67606 0
M  V30 1815 H 179.124 0.811304 -6.90248 0
M  V30 1816 H 182.315 0.833437 -4.60621 0
M  V30 1817 H 182.488 0.904247 -6.4166 0
M  V30 1818 N 175.894 1.51508 0.433938 0
M  V30 1819 C 177.31 1.39759 0.770682 0
M  V30 1820 C 177.51 0.482594 1.95636 0
M  V30 1821 O 176.566 -0.0609691 2.52426 0
M  V30 1822 C 177.879 2.81851 1.04787 0
M  V30 1823 C 179.427 2.91025 1.1521 0
M  V30 1824 C 179.902 4.34032 1.46219 0
M  V30 1825 N 181.393 4.37154 1.53136 0
M  V30 1826 C 182.128 5.4484 1.78709 0
M  V30 1827 N 181.624 6.62682 2.02051 0
M  V30 1828 N 183.417 5.32324 1.80519 0
M  V30 1829 H 175.568 2.09548 -0.346892 0
M  V30 1830 H 177.831 0.943446 -0.0928074 0
M  V30 1831 H 177.537 3.50815 0.249304 0
M  V30 1832 H 177.411 3.21386 1.97461 0
M  V30 1833 H 179.798 2.22257 1.94128 0
M  V30 1834 H 179.879 2.54983 0.204281 0
M  V30 1835 H 179.523 5.03351 0.678274 0
M  V30 1836 H 179.453 4.6759 2.42212 0
M  V30 1837 H 181.944 3.52197 1.36987 0
M  V30 1838 H 182.257 7.40543 2.20943 0
M  V30 1839 H 180.602 6.65791 1.99366 0
M  V30 1840 H 183.793 4.39246 1.61805 0
M  V30 1841 H 183.966 6.16328 2.00111 0
M  V30 1842 N 177.372 -0.689602 1.41712 0
M  V30 1843 C 178.618 -1.45181 1.41599 0
M  V30 1844 C 178.951 -1.94181 0.0270081 0
M  V30 1845 O 178.226 -1.6993 -0.946265 0
M  V30 1846 C 178.509 -2.65945 2.42787 0
M  V30 1847 C 178.362 -2.22672 3.90816 0
M  V30 1848 C 179.681 -3.68149 2.41151 0
M  V30 1849 H 176.8 -0.526576 0.515642 0
M  V30 1850 H 179.442 -0.784947 1.73028 0
M  V30 1851 H 177.592 -3.2284 2.16116 0
M  V30 1852 H 179.264 -1.71058 4.28412 0
M  V30 1853 H 177.507 -1.54394 4.05395 0
M  V30 1854 H 178.178 -3.0935 4.57172 0
M  V30 1855 H 180.654 -3.2094 2.64834 0
M  V30 1856 H 179.53 -4.50248 3.13955 0
M  V30 1857 H 179.791 -4.18259 1.43221 0
M  V30 1858 N 178.85 -1.27639 -0.924453 0
M  V30 1859 C 180.099 -1.13549 -1.66702 0
M  V30 1860 C 180.412 0.317487 -1.93006 0
M  V30 1861 O 181.618 0.579333 -2.65247 0
M  V30 1862 C 180.074 -1.98426 -3.00259 0
M  V30 1863 C 179.682 -3.484 -2.81641 0
M  V30 1864 C 181.426 -1.92993 -3.78092 0
M  V30 1865 C 179.333 -4.25464 -4.10773 0
M  V30 1866 H 178.263 -0.421351 -0.625283 0
M  V30 1867 H 180.914 -1.52085 -1.02676 0
M  V30 1868 H 179.296 -1.52736 -3.6536 0
M  V30 1869 H 180.47 -4.01973 -2.25287 0
M  V30 1870 H 178.785 -3.55245 -2.17232 0
M  V30 1871 H 181.382 -2.47844 -4.7379 0
M  V30 1872 H 181.725 -0.904281 -4.0636 0
M  V30 1873 H 182.258 -2.36595 -3.19793 0
M  V30 1874 H 178.997 -5.28566 -3.87683 0
M  V30 1875 H 178.517 -3.76667 -4.66779 0
M  V30 1876 H 180.196 -4.34812 -4.79111 0
M  V30 1877 N 180.328 1.1314 -1.09713 0
M  V30 1878 C 181.574 1.84757 -0.836224 0
M  V30 1879 C 181.907 1.8347 0.636598 0
M  V30 1880 O 181.182 1.27491 1.46889 0
M  V30 1881 C 181.465 3.32782 -1.37578 0
M  V30 1882 C 181.318 3.42567 -2.91493 0
M  V30 1883 C 182.637 4.28307 -1.01198 0
M  V30 1884 H 179.756 0.67082 -0.305236 0
M  V30 1885 H 182.398 1.3278 -1.35903 0
M  V30 1886 H 180.548 3.77177 -0.931097 0
M  V30 1887 H 182.22 3.06862 -3.44432 0
M  V30 1888 H 180.463 2.83349 -3.28475 0
M  V30 1889 H 181.134 4.46674 -3.24324 0
M  V30 1890 H 183.61 3.91999 -1.39556 0
M  V30 1891 H 182.486 5.30307 -1.41653 0
M  V30 1892 H 182.747 4.42029 0.0794833 0
M  V30 1893 N 181.806 0.884767 1.30421 0
M  V30 1894 C 183.034 0.518044 2.0031 0
M  V30 1895 C 183.449 -0.893408 1.66324 0
M  V30 1896 O 182.806 -1.5875 0.900262 0
M  V30 1897 C 182.857 0.682997 3.54989 0
M  V30 1898 O 182.578 2.03888 3.87764 0
M  V30 1899 C 184.079 0.31924 4.42149 0
M  V30 1900 H 181.299 0.200265 0.640418 0
M  V30 1901 H 183.843 1.19001 1.6631 0
M  V30 1902 H 181.998 0.0584052 3.87356 0
M  V30 1903 H 182.412 2.05735 4.82466 0
M  V30 1904 H 183.886 0.485555 5.4986 0
M  V30 1905 H 184.363 -0.742717 4.32875 0
M  V30 1906 H 184.969 0.920147 4.15227 0
M  V30 1907 N 183.284 -1.43765 0.645699 0
M  V30 1908 C 184.194 -2.34544 -0.0512957 0
M  V30 1909 C 185.21 -1.53455 -0.82022 0
M  V30 1910 O 186.386 -1.86133 -0.769176 0
M  V30 1911 C 183.451 -3.31636 -1.01087 0
M  V30 1912 C 182.512 -4.2863 -0.239712 0
M  V30 1913 C 181.745 -5.21084 -1.15358 0
M  V30 1914 O 181.968 -5.1779 -2.39269 0
M  V30 1915 O 180.902 -5.98593 -0.630038 0
M  V30 1916 H 184.728 -2.95624 0.695718 0
M  V30 1917 H 182.313 -1.43781 0.405882 0
M  V30 1918 H 184.195 -3.9136 -1.56254 0
M  V30 1919 H 182.87 -2.73069 -1.73824 0
M  V30 1920 H 181.777 -3.72408 0.355356 0
M  V30 1921 H 183.11 -4.90157 0.447936 0
M  V30 1922 N 184.763 -0.387143 -1.52771 0
M  V30 1923 C 185.991 0.195869 -2.05971 0
M  V30 1924 C 186.406 1.40691 -1.25903 0
M  V30 1925 O 185.763 1.79931 -0.305134 0
M  V30 1926 C 185.814 0.56812 -3.57008 0
M  V30 1927 O 185.535 -0.594803 -4.34043 0
M  V30 1928 C 187.036 1.20723 -4.26545 0
M  V30 1929 H 184.256 0.0300578 -0.670326 0
M  V30 1930 H 186.8 -0.551749 -1.96916 0
M  V30 1931 H 184.955 1.26564 -3.66143 0
M  V30 1932 H 185.369 -0.289322 -5.23701 0
M  V30 1933 H 186.843 1.41807 -5.33474 0
M  V30 1934 H 187.32 2.17395 -3.81623 0
M  V30 1935 H 187.926 0.550535 -4.21722 0
M  V30 1936 N 186.241 1.57166 -0.116904 0
M  V30 1937 C 187.466 1.999 0.55271 0
M  V30 1938 C 187.891 0.996039 1.59564 0
M  V30 1939 O 187.249 -0.032556 1.81271 0
M  V30 1940 C 187.297 3.4152 1.15742 0
M  V30 1941 O 186.401 3.44106 2.27299 0
M  V30 1942 H 185.742 0.649447 0.138258 0
M  V30 1943 H 188.272 2.03573 -0.204759 0
M  V30 1944 H 188.282 3.79684 1.49346 0
M  V30 1945 H 186.957 4.14034 0.393493 0
M  V30 1946 H 185.534 3.17759 1.9515 0
M  V30 1947 N 187.719 -0.156864 1.56817 0
M  V30 1948 C 188.667 -1.21319 1.98455 0
M  V30 1949 C 189.661 -1.45025 0.875444 0
M  V30 1950 O 190.867 -1.45435 1.0606 0
M  V30 1951 H 187.242 -0.408142 0.631605 0
M  V30 1952 H 189.213 -0.835244 2.86472 0
M  V30 1953 C 187.962 -2.54148 2.37285 0
M  V30 1954 H 187.285 -2.36733 3.22176 0
M  V30 1955 H 188.725 -3.26712 2.70251 0
M  V30 1956 C 187.184 -3.13967 1.22173 0
M  V30 1957 O 187.714 -3.98357 0.517149 0
M  V30 1958 N 185.92 -2.7327 0.988536 0
M  V30 1959 H 185.467 -2.04744 1.56326 0
M  V30 1960 H 185.425 -3.13628 0.220209 0
M  V30 1961 N 189.197 -1.51736 -0.425897 0
M  V30 1962 C 190.444 -1.6497 -1.17436 0
M  V30 1963 C 190.772 -0.371445 -1.9092 0
M  V30 1964 O 190.027 0.644963 -1.84767 0
M  V30 1965 C 190.326 -2.81103 -2.20717 0
M  V30 1966 C 189.992 -4.19954 -1.64162 0
M  V30 1967 C 188.654 -4.57725 -1.48462 0
M  V30 1968 C 191.006 -5.06552 -1.22696 0
M  V30 1969 C 188.334 -5.79789 -0.897873 0
M  V30 1970 C 190.686 -6.29205 -0.654464 0
M  V30 1971 C 189.35 -6.6574 -0.484456 0
M  V30 1972 H 188.62 -0.603668 -0.429727 0
M  V30 1973 H 191.267 -1.85798 -0.463829 0
M  V30 1974 H 189.572 -2.54542 -2.97852 0
M  V30 1975 H 191.269 -2.8854 -2.78471 0
M  V30 1976 H 187.859 -3.90181 -1.77361 0
M  V30 1977 H 192.043 -4.77968 -1.33642 0
M  V30 1978 H 187.299 -6.06733 -0.75402 0
M  V30 1979 H 191.473 -6.95643 -0.324694 0
M  V30 1980 H 189.1 -7.60195 -0.0276833 0
M  V30 1981 N 190.675 0.682077 -1.42076 0
M  V30 1982 C 192.086 1.26246 -1.37546 0
M  V30 1983 C 192.437 1.96092 -0.0651481 0
M  V30 1984 O 191.562 1.99587 0.836297 0
M  V30 1985 C 192.157 2.29594 -2.49143 0
M  V30 1986 C 190.716 2.83175 -2.47969 0
M  V30 1987 C 189.863 1.57395 -2.28303 0
M  V30 1988 H 192.814 0.475937 -1.51395 0
M  V30 1989 H 192.835 3.11175 -2.18976 0
M  V30 1990 H 192.347 1.78729 -3.44496 0
M  V30 1991 H 190.448 3.3818 -1.56413 0
M  V30 1992 H 190.561 3.32687 -3.44755 0
M  V30 1993 H 188.925 1.83699 -1.76428 0
M  V30 1994 H 189.708 1.08507 -3.25701 0
M  V30 1995 N 192.153 1.28127 0.917671 0
M  V30 1996 C 193.381 1.17892 1.70026 0
M  V30 1997 C 193.796 -0.262958 1.8696 0
M  V30 1998 O 193.153 -1.17811 1.3938 0
M  V30 1999 C 193.204 1.86872 3.09453 0
M  V30 2000 O 192.925 3.25428 2.93306 0
M  V30 2001 C 194.426 1.8289 4.03815 0
M  V30 2002 H 191.646 0.40942 0.531617 0
M  V30 2003 H 194.19 1.69181 1.14883 0
M  V30 2004 H 192.345 1.39464 3.61426 0
M  V30 2005 H 192.759 3.59918 3.81523 0
M  V30 2006 H 194.233 2.35751 4.99125 0
M  V30 2007 H 194.71 0.800412 4.31845 0
M  V30 2008 H 195.316 2.29959 3.57769 0
M  V30 2009 N 193.631 -1.12557 1.10312 0
M  V30 2010 C 194.908 -1.80363 0.756878 0
M  V30 2011 C 195.288 -1.97067 -0.756824 0
M  V30 2012 O 194.636 -1.54601 -1.68259 0
M  V30 2013 C 194.846 -3.14812 1.50647 0
M  V30 2014 C 196.194 -3.90029 1.67817 0
M  V30 2015 O 197.218 -3.24464 1.46974 0
M  V30 2016 O 196.077 -5.07652 2.02365 0
M  V30 2017 H 193.171 -0.780667 0.272926 0
M  V30 2018 H 195.717 -1.19404 1.20586 0
M  V30 2019 H 194.489 -2.97936 2.53672 0
M  V30 2020 H 194.112 -3.83478 1.05026 0
M  V30 2021 N 195.109 -0.891671 -1.2995 0
M  V30 2022 C 196.039 -0.379797 -2.30391 0
M  V30 2023 C 197.02 0.540919 -1.6127 0
M  V30 2024 O 198.205 0.453352 -1.88834 0
M  V30 2025 C 195.335 0.400654 -3.44981 0
M  V30 2026 C 194.289 -0.428905 -4.25846 0
M  V30 2027 C 193.615 0.478557 -5.32554 0
M  V30 2028 C 194.915 -1.67458 -4.94727 0
M  V30 2029 H 196.609 -1.21914 -2.73454 0
M  V30 2030 H 194.155 -0.587675 -1.31462 0
M  V30 2031 H 196.108 0.769434 -4.14316 0
M  V30 2032 H 194.832 1.27371 -3.0074 0
M  V30 2033 H 193.491 -0.779911 -3.58208 0
M  V30 2034 H 193.139 1.34951 -4.84559 0
M  V30 2035 H 192.839 -0.0727433 -5.87555 0
M  V30 2036 H 194.363 0.843705 -6.04743 0
M  V30 2037 H 195.777 -1.376 -5.56542 0
M  V30 2038 H 194.174 -2.16659 -5.59624 0
M  V30 2039 H 195.244 -2.41518 -4.20473 0
M  V30 2040 N 196.587 1.43421 -0.653314 0
M  V30 2041 C 197.817 2.05864 -0.174238 0
M  V30 2042 C 198.225 1.49052 1.16534 0
M  V30 2043 O 197.568 0.616481 1.73047 0
M  V30 2044 C 197.63 3.59499 -0.00875873 0
M  V30 2045 C 197.294 4.38893 -1.27364 0
M  V30 2046 C 198.291 4.70947 -2.20239 0
M  V30 2047 C 195.976 4.789 -1.51525 0
M  V30 2048 C 197.97 5.41916 -3.35568 0
M  V30 2049 C 195.657 5.49614 -2.67147 0
M  V30 2050 C 196.655 5.81044 -3.58994 0
M  V30 2051 O 196.343 6.50313 -4.72597 0
M  V30 2052 H 196.075 0.670345 -0.0872549 0
M  V30 2053 H 198.629 1.84913 -0.894226 0
M  V30 2054 H 196.859 3.79025 0.7666 0
M  V30 2055 H 198.548 4.0364 0.427687 0
M  V30 2056 H 199.314 4.40558 -2.02815 0
M  V30 2057 H 195.193 4.53843 -0.809158 0
M  V30 2058 H 198.737 5.66365 -4.07279 0
M  V30 2059 H 194.634 5.79419 -2.84505 0
M  V30 2060 H 195.402 6.68795 -4.71864 0
M  V30 2061 N 198.065 0.39524 1.52563 0
M  V30 2062 C 199.314 -0.186321 2.00838 0
M  V30 2063 C 199.627 -1.47402 1.28577 0
M  V30 2064 O 200.833 -2.13599 1.67593 0
M  V30 2065 C 199.289 -0.382595 3.57861 0
M  V30 2066 C 198.897 0.892202 4.39026 0
M  V30 2067 C 200.641 -0.9202 4.14406 0
M  V30 2068 C 198.548 0.66388 5.87662 0
M  V30 2069 H 197.478 -0.0734041 0.750418 0
M  V30 2070 H 200.129 0.518552 1.76021 0
M  V30 2071 H 198.511 -1.14946 3.7895 0
M  V30 2072 H 199.685 1.66414 4.29701 0
M  V30 2073 H 198 1.35519 3.9373 0
M  V30 2074 H 200.597 -1.10683 5.23119 0
M  V30 2075 H 200.94 -1.89096 3.70875 0
M  V30 2076 H 201.473 -0.212751 3.97231 0
M  V30 2077 H 198.212 1.6058 6.35527 0
M  V30 2078 H 197.732 -0.0690193 5.9976 0
M  V30 2079 H 199.411 0.300699 6.46301 0
M  V30 2080 N 199.544 -1.57102 0.125237 0
M  V30 2081 C 200.507 -2.14471 -0.80838 0
M  V30 2082 C 201.507 -1.0811 -1.19033 0
M  V30 2083 O 202.697 -1.33856 -1.11482 0
M  V30 2084 C 199.829 -2.69005 -2.09402 0
M  V30 2085 H 201.022 -2.98297 -0.309696 0
M  V30 2086 H 198.575 -1.55807 -0.124051 0
M  V30 2087 H 199.31 -1.88785 -2.63687 0
M  V30 2088 H 199.095 -3.46799 -1.82957 0
M  V30 2089 H 200.585 -3.13278 -2.76128 0
M  V30 2090 N 201.022 0.148545 -1.56898 0
M  V30 2091 C 201.932 1.20293 -2.01412 0
M  V30 2092 C 202.948 1.47107 -0.929273 0
M  V30 2093 O 204.124 1.58807 -1.23863 0
M  V30 2094 C 201.189 2.51682 -2.38447 0
M  V30 2095 C 200.25 2.32529 -3.60872 0
M  V30 2096 C 199.483 3.57653 -3.96132 0
M  V30 2097 O 199.706 4.63771 -3.32073 0
M  V30 2098 O 198.64 3.50408 -4.89385 0
M  V30 2099 H 202.466 0.855025 -2.91416 0
M  V30 2100 H 200.051 0.357151 -1.45068 0
M  V30 2101 H 201.933 3.29147 -2.63135 0
M  V30 2102 H 200.608 2.86006 -1.51599 0
M  V30 2103 H 199.515 1.53019 -3.41373 0
M  V30 2104 H 200.848 2.03121 -4.48333 0
M  V30 2105 N 202.5 1.5196 0.417844 0
M  V30 2106 C 203.748 1.65263 1.16329 0
M  V30 2107 C 204.069 0.380634 1.91249 0
M  V30 2108 O 203.339 -0.604214 1.86349 0
M  V30 2109 H 201.919 0.60912 0.432414 0
M  V30 2110 H 204.581 1.88969 0.477162 0
M  V30 2111 H 203.677 2.4896 1.88217 0
M  V30 2112 N 203.978 -0.674533 1.42435 0
M  V30 2113 C 204.908 -1.80009 1.48724 0
M  V30 2114 C 205.889 -1.6659 0.343793 0
M  V30 2115 O 207.074 -1.86007 0.558137 0
M  V30 2116 C 204.204 -3.18306 1.38919 0
M  V30 2117 C 203.158 -3.46461 2.51294 0
M  V30 2118 C 202.484 -4.84335 2.26547 0
M  V30 2119 C 203.784 -3.43328 3.93603 0
M  V30 2120 H 205.478 -1.75004 2.42928 0
M  V30 2121 H 203.024 -0.840533 1.16923 0
M  V30 2122 H 204.977 -3.9678 1.41927 0
M  V30 2123 H 203.701 -3.2399 0.412094 0
M  V30 2124 H 202.36 -2.70348 2.47604 0
M  V30 2125 H 202.008 -4.86669 1.2713 0
M  V30 2126 H 201.708 -5.04136 3.01861 0
M  V30 2127 H 203.232 -5.65094 2.31304 0
M  V30 2128 H 204.646 -4.11772 3.98894 0
M  V30 2129 H 203.043 -3.74664 4.68771 0
M  V30 2130 H 204.113 -2.41897 4.20255 0
M  V30 2131 N 205.456 -1.28612 -0.910864 0
M  V30 2132 C 206.419 -1.12803 -1.9952 0
M  V30 2133 C 207.419 -0.0668264 -1.60661 0
M  V30 2134 O 208.609 -0.312847 -1.71368 0
M  V30 2135 C 205.741 -0.72254 -3.33155 0
M  V30 2136 H 206.934 -2.09109 -2.14973 0
M  V30 2137 H 204.487 -1.11639 -1.09391 0
M  V30 2138 H 205.222 0.241152 -3.23402 0
M  V30 2139 H 205.007 -1.48916 -3.62721 0
M  V30 2140 H 206.497 -0.634666 -4.12749 0
M  V30 2141 N 206.934 1.1197 -1.10907 0
M  V30 2142 C 208.211 1.79959 -0.766432 0
M  V30 2143 C 208.591 1.97466 0.746363 0
M  V30 2144 O 207.939 1.55491 1.67436 0
M  V30 2145 C 208.149 3.14009 -1.52314 0
M  V30 2146 C 209.497 3.89134 -1.69883 0
M  V30 2147 O 210.521 3.2368 -1.48692 0
M  V30 2148 O 209.38 5.06572 -2.05054 0
M  V30 2149 H 206.474 0.779208 -0.277062 0
M  V30 2150 H 209.02 1.18762 -1.21217 0
M  V30 2151 H 207.792 2.96587 -2.55249 0
M  V30 2152 H 207.415 3.82915 -1.07059 0
M  V30 2153 N 208.412 0.89855 1.29475 0
M  V30 2154 C 209.345 0.319981 2.25945 0
M  V30 2155 C 210.323 -0.567189 1.52387 0
M  V30 2156 O 211.507 -0.514254 1.8135 0
M  V30 2157 C 208.634 -0.544013 3.34303 0
M  V30 2158 C 207.68 0.275682 4.25608 0
M  V30 2159 S 208.513 1.67272 5.08704 0
M  V30 2160 C 209.669 0.815621 6.20563 0
M  V30 2161 H 209.902 1.13767 2.74671 0
M  V30 2162 H 207.435 0.69882 1.3768 0
M  V30 2163 H 209.393 -1.03673 3.97193 0
M  V30 2164 H 208.054 -1.33593 2.84274 0
M  V30 2165 H 207.247 -0.384263 5.02533 0
M  V30 2166 H 206.849 0.701496 3.67362 0
M  V30 2167 H 209.141 0.0385042 6.77489 0
M  V30 2168 H 210.084 1.55691 6.90772 0
M  V30 2169 H 210.492 0.370516 5.63283 0
M  V30 2170 N 209.89 -1.43072 0.660911 0
M  V30 2171 C 210.82 -2.33497 -0.0122829 0
M  V30 2172 C 211.801 -1.49903 -0.803925 0
M  V30 2173 O 212.986 -1.78546 -0.763864 0
M  V30 2174 C 210.116 -3.33363 -0.973994 0
M  V30 2175 C 209.07 -4.27003 -0.291928 0
M  V30 2176 C 208.396 -5.16967 -1.36562 0
M  V30 2177 C 209.696 -5.15816 0.820462 0
M  V30 2178 H 211.39 -2.90038 0.742873 0
M  V30 2179 H 208.936 -1.39461 0.358688 0
M  V30 2180 H 210.889 -3.95524 -1.45392 0
M  V30 2181 H 209.613 -2.75095 -1.7604 0
M  V30 2182 H 208.272 -3.66217 0.167623 0
M  V30 2183 H 207.92 -4.55034 -2.14366 0
M  V30 2184 H 207.62 -5.80441 -0.914454 0
M  V30 2185 H 209.144 -5.82003 -1.84675 0
M  V30 2186 H 210.558 -5.71742 0.422366 0
M  V30 2187 H 208.955 -5.8805 1.19656 0
M  V30 2188 H 210.025 -4.55045 1.67518 0
M  V30 2189 N 211.368 -0.403325 -1.52352 0
M  V30 2190 C 212.3 0.4603 -2.2453 0
M  V30 2191 C 213.313 1.01505 -1.27282 0
M  V30 2192 O 214.502 0.914982 -1.53266 0
M  V30 2193 C 211.602 1.65208 -2.95905 0
M  V30 2194 C 210.775 1.22224 -4.19976 0
M  V30 2195 C 209.834 2.28028 -4.74226 0
M  V30 2196 O 208.86 1.88857 -5.36956 0
M  V30 2197 N 210.062 3.6012 -4.55295 0
M  V30 2198 H 212.827 -0.158156 -2.99282 0
M  V30 2199 H 210.388 -0.230402 -1.60252 0
M  V30 2200 H 212.38 2.35541 -3.29093 0
M  V30 2201 H 210.95 2.17658 -2.24374 0
M  V30 2202 H 210.17 0.34725 -3.92668 0
M  V30 2203 H 211.458 0.911924 -5.00561 0
M  V30 2204 H 210.856 3.94698 -4.05253 0
M  V30 2205 H 209.413 4.26447 -4.92936 0
M  V30 2206 N 212.846 1.57033 -0.133567 0
M  V30 2207 C 213.778 2.13176 0.841944 0
M  V30 2208 C 214.791 1.07794 1.22001 0
M  V30 2209 O 215.98 1.35117 1.16643 0
M  V30 2210 C 213.08 2.62847 2.13926 0
M  V30 2211 C 212.253 3.92486 1.93064 0
M  V30 2212 C 211.312 4.27605 3.0666 0
M  V30 2213 O 210.338 4.96168 2.78937 0
M  V30 2214 N 211.54 3.861 4.33483 0
M  V30 2215 H 214.305 2.97503 0.362192 0
M  V30 2216 H 211.866 1.61821 0.05042 0
M  V30 2217 H 213.858 2.83363 2.88942 0
M  V30 2218 H 212.428 1.83319 2.53205 0
M  V30 2219 H 211.648 3.80732 1.02159 0
M  V30 2220 H 212.936 4.77225 1.76447 0
M  V30 2221 H 212.334 3.30828 4.58878 0
M  V30 2222 H 210.891 4.11694 5.05323 0
M  V30 2223 N 214.325 -0.140222 1.56975 0
M  V30 2224 C 215.573 -0.850005 1.83356 0
M  V30 2225 C 215.894 -1.81399 0.71551 0
M  V30 2226 O 215.164 -1.94136 -0.262294 0
M  V30 2227 H 213.744 -0.316886 0.676456 0
M  V30 2228 H 216.406 -0.132608 1.94448 0
M  V30 2229 H 215.502 -1.40814 2.78528 0
M  V30 2230 N 215.803 -1.52179 -0.40978 0
M  V30 2231 C 217.033 -1.69807 -1.17682 0
M  V30 2232 C 217.441 -0.406908 -1.84773 0
M  V30 2233 O 216.784 0.626863 -1.72673 0
M  V30 2234 C 216.846 -2.77712 -2.2829 0
M  V30 2235 C 216.51 -4.19481 -1.81341 0
M  V30 2236 C 217.507 -5.03345 -1.30154 0
M  V30 2237 C 215.192 -4.65713 -1.88194 0
M  V30 2238 C 217.186 -6.31511 -0.864416 0
M  V30 2239 C 214.873 -5.93869 -1.44093 0
M  V30 2240 C 215.871 -6.76597 -0.933023 0
M  V30 2241 O 215.559 -8.02354 -0.49838 0
M  V30 2242 H 215.291 -0.572372 -0.359675 0
M  V30 2243 H 217.845 -1.99511 -0.488311 0
M  V30 2244 H 216.075 -2.43383 -3.00502 0
M  V30 2245 H 217.764 -2.83946 -2.90051 0
M  V30 2246 H 218.53 -4.68819 -1.24232 0
M  V30 2247 H 214.409 -4.01424 -2.26671 0
M  V30 2248 H 217.953 -6.96033 -0.467286 0
M  V30 2249 H 213.85 -6.27903 -1.49694 0
M  V30 2250 H 214.618 -8.16135 -0.621747 0
M  V30 2251 N 217.281 0.66697 -1.42791 0
M  V30 2252 C 218.509 1.45505 -1.47091 0
M  V30 2253 C 218.924 1.8861 -0.0845873 0
M  V30 2254 O 218.281 1.58632 0.90234 0
M  V30 2255 C 218.332 2.69906 -2.40485 0
M  V30 2256 O 218.053 2.28608 -3.73725 0
M  V30 2257 C 219.554 3.63396 -2.53886 0
M  V30 2258 H 216.774 0.447459 -0.500022 0
M  V30 2259 H 219.318 0.818866 -1.8739 0
M  V30 2260 H 217.473 3.29696 -2.03419 0
M  V30 2261 H 217.887 3.08997 -4.23817 0
M  V30 2262 H 219.361 4.47387 -3.2334 0
M  V30 2263 H 219.838 4.09824 -1.57927 0
M  V30 2264 H 220.444 3.09495 -2.91706 0
M  V30 2265 N 218.759 1.29093 0.90403 0
M  V30 2266 C 219.689 1.16401 2.02418 0
M  V30 2267 C 220.67 0.0593085 1.69997 0
M  V30 2268 O 221.855 0.238021 1.92736 0
M  V30 2269 C 218.985 0.835233 3.37107 0
M  V30 2270 C 217.939 1.89578 3.83724 0
M  V30 2271 C 217.265 1.42041 5.15489 0
M  V30 2272 C 218.565 3.30394 4.04521 0
M  V30 2273 H 220.259 2.10109 2.13295 0
M  V30 2274 H 217.805 1.01157 1.02486 0
M  V30 2275 H 219.758 0.733169 4.14973 0
M  V30 2276 H 218.482 -0.137543 3.2631 0
M  V30 2277 H 217.141 1.98715 3.08071 0
M  V30 2278 H 216.789 0.436426 5.01103 0
M  V30 2279 H 216.489 2.12964 5.4765 0
M  V30 2280 H 218.013 1.33176 5.959 0
M  V30 2281 H 219.427 3.24123 4.72882 0
M  V30 2282 H 217.824 3.99237 4.48029 0
M  V30 2283 H 218.894 3.73692 3.09002 0
M  V30 2284 N 220.237 -1.11381 1.11499 0
M  V30 2285 C 221.653 -1.35143 0.849031 0
M  V30 2286 C 221.853 -1.94515 -0.525938 0
M  V30 2287 O 220.909 -2.1785 -1.27662 0
M  V30 2288 C 222.222 -2.28249 1.95762 0
M  V30 2289 C 223.77 -2.41812 1.98736 0
M  V30 2290 C 224.245 -3.3824 3.088 0
M  V30 2291 N 225.736 -3.45803 3.08179 0
M  V30 2292 C 226.471 -4.20358 3.89982 0
M  V30 2293 N 225.967 -4.97884 4.8175 0
M  V30 2294 N 227.76 -4.15877 3.78157 0
M  V30 2295 H 219.911 -0.712062 2.00109 0
M  V30 2296 H 222.174 -0.376025 0.870235 0
M  V30 2297 H 221.88 -1.91817 2.94787 0
M  V30 2298 H 221.754 -3.28473 1.85433 0
M  V30 2299 H 224.141 -2.77518 1.00338 0
M  V30 2300 H 224.222 -1.41437 2.13141 0
M  V30 2301 H 223.866 -3.03261 4.07425 0
M  V30 2302 H 223.796 -4.38471 2.91635 0
M  V30 2303 H 226.287 -2.90506 2.41691 0
M  V30 2304 H 226.6 -5.52142 5.40702 0
M  V30 2305 H 224.945 -4.97043 4.85771 0
M  V30 2306 H 228.136 -3.544 3.05808 0
M  V30 2307 H 228.309 -4.73723 4.42143 0
M  V30 2308 N 221.715 -0.905404 -1.28997 0
M  V30 2309 C 222.645 -0.404212 -2.29975 0
M  V30 2310 C 223.626 0.523784 -1.61835 0
M  V30 2311 O 224.811 0.433298 -1.89304 0
M  V30 2312 C 221.941 0.364042 -3.45387 0
M  V30 2313 C 220.895 -0.474048 -4.25367 0
M  V30 2314 C 220.221 0.422045 -5.33032 0
M  V30 2315 C 221.521 -1.72696 -4.92923 0
M  V30 2316 H 223.215 -1.24807 -2.72146 0
M  V30 2317 H 220.761 -0.601585 -1.30832 0
M  V30 2318 H 222.714 0.725447 -4.15109 0
M  V30 2319 H 221.438 1.24174 -3.02074 0
M  V30 2320 H 220.097 -0.81786 -3.57361 0
M  V30 2321 H 219.745 1.29804 -4.85963 0
M  V30 2322 H 219.445 -0.135057 -5.87445 0
M  V30 2323 H 220.969 0.779517 -6.05604 0
M  V30 2324 H 222.383 -1.43495 -5.55051 0
M  V30 2325 H 220.78 -2.22582 -5.57295 0
M  V30 2326 H 221.85 -2.45964 -4.17887 0
M  V30 2327 N 223.193 1.4272 -0.668489 0
M  V30 2328 C 224.439 2.01923 -0.188419 0
M  V30 2329 C 224.772 1.52704 1.19979 0
M  V30 2330 O 224.047 0.726566 1.8042 0
M  V30 2331 C 224.33 3.59451 -0.216085 0
M  V30 2332 C 224.183 4.18864 -1.6393 0
M  V30 2333 C 225.502 4.37903 0.439179 0
M  V30 2334 H 222.621 0.733674 -0.0699412 0
M  V30 2335 H 225.263 1.69822 -0.852076 0
M  V30 2336 H 223.413 3.86929 0.349012 0
M  V30 2337 H 225.085 4.02362 -2.25616 0
M  V30 2338 H 223.328 3.74933 -2.18193 0
M  V30 2339 H 223.999 5.27987 -1.61039 0
M  V30 2340 H 226.475 4.16079 -0.0417878 0
M  V30 2341 H 225.351 5.47519 0.389157 0
M  V30 2342 H 225.612 4.15303 1.51577 0
M  V30 2343 N 224.671 0.411399 1.52136 0
M  V30 2344 C 225.948 -0.222308 1.94333 0
M  V30 2345 C 226.328 -1.6242 1.34844 0
M  V30 2346 O 225.676 -2.22384 0.525145 0
M  V30 2347 C 225.886 -0.226345 3.48265 0
M  V30 2348 C 227.234 -0.444592 4.22266 0
M  V30 2349 O 228.258 -0.305602 3.54887 0
M  V30 2350 O 227.117 -0.718749 5.41753 0
M  V30 2351 H 224.211 -0.143907 0.814383 0
M  V30 2352 H 226.757 0.467506 1.63133 0
M  V30 2353 H 225.529 0.75475 3.83952 0
M  V30 2354 H 225.152 -0.960163 3.85832 0
M  V30 2355 N 226.149 -1.5696 0.141893 0
M  V30 2356 C 227.374 -2.00754 -0.520838 0
M  V30 2357 C 227.799 -1.0213 -1.57959 0
M  V30 2358 O 227.157 0.00371324 -1.813 0
M  V30 2359 C 227.205 -3.43318 -1.10294 0
M  V30 2360 O 226.309 -3.47679 -2.21795 0
M  V30 2361 H 225.65 -0.651564 -0.127908 0
M  V30 2362 H 228.18 -2.03221 0.23712 0
M  V30 2363 H 228.19 -3.82012 -1.43287 0
M  V30 2364 H 226.865 -4.14608 -0.327574 0
M  V30 2365 H 225.442 -3.20824 -1.9007 0
M  V30 2366 N 227.627 0.131896 -1.57047 0
M  V30 2367 C 229.038 0.690407 -1.73465 0
M  V30 2368 C 229.389 1.8094 -0.758629 0
M  V30 2369 O 228.514 2.16282 0.0713813 0
M  V30 2370 C 229.109 1.25916 -3.14532 0
M  V30 2371 C 227.668 1.76409 -3.32501 0
M  V30 2372 C 226.815 0.658579 -2.69366 0
M  V30 2373 H 229.766 -0.0939144 -1.58422 0
M  V30 2374 H 229.787 2.12892 -3.15369 0
M  V30 2375 H 229.299 0.444515 -3.85546 0
M  V30 2376 H 227.4 2.60391 -2.66509 0
M  V30 2377 H 227.513 1.88241 -4.4057 0
M  V30 2378 H 225.877 1.08899 -2.30246 0
M  V30 2379 H 226.66 -0.14487 -3.42994 0
M  V30 2380 N 229.106 1.52395 0.401703 0
M  V30 2381 C 230.016 1.7917 1.51444 0
M  V30 2382 C 231.032 0.677691 1.6026 0
M  V30 2383 O 232.208 0.963909 1.76835 0
M  V30 2384 C 229.273 1.94347 2.87107 0
M  V30 2385 C 228.334 3.18257 2.88116 0
M  V30 2386 C 227.567 3.32701 4.17308 0
M  V30 2387 O 227.79 2.52238 5.11598 0
M  V30 2388 O 226.724 4.25891 4.25324 0
M  V30 2389 H 230.55 2.73633 1.31752 0
M  V30 2390 H 228.135 1.3733 0.588296 0
M  V30 2391 H 230.017 2.06109 3.67555 0
M  V30 2392 H 228.692 1.03073 3.06851 0
M  V30 2393 H 227.599 3.11947 2.06494 0
M  V30 2394 H 228.932 4.09336 2.73322 0
M  V30 2395 N 230.584 -0.659388 1.43143 0
M  V30 2396 C 231.494 -1.80167 1.50256 0
M  V30 2397 C 232.51 -1.69571 0.390106 0
M  V30 2398 O 233.686 -1.90849 0.643319 0
M  V30 2399 C 230.751 -3.16409 1.41725 0
M  V30 2400 C 229.812 -3.38848 2.63591 0
M  V30 2401 C 229.045 -4.68591 2.55458 0
M  V30 2402 O 229.268 -5.47532 1.59891 0
M  V30 2403 O 228.202 -4.92614 3.45854 0
M  V30 2404 H 232.028 -1.77121 2.46702 0
M  V30 2405 H 229.613 -0.817092 1.25076 0
M  V30 2406 H 231.495 -3.9768 1.39387 0
M  V30 2407 H 230.17 -3.20059 0.484118 0
M  V30 2408 H 229.077 -2.57366 2.71502 0
M  V30 2409 H 230.41 -3.4004 3.55856 0
M  V30 2410 N 232.062 -1.29571 -0.897171 0
M  V30 2411 C 232.992 -1.17473 -2.01798 0
M  V30 2412 C 233.973 -0.068323 -1.69963 0
M  V30 2413 O 235.158 -0.248239 -1.92607 0
M  V30 2414 C 232.288 -0.853099 -3.36659 0
M  V30 2415 C 231.242 -1.9161 -3.82713 0
M  V30 2416 C 230.568 -1.44773 -5.14728 0
M  V30 2417 C 231.868 -3.32535 -4.02763 0
M  V30 2418 H 233.562 -2.11237 -2.12177 0
M  V30 2419 H 231.108 -1.01699 -1.01948 0
M  V30 2420 H 233.061 -0.755165 -4.14578 0
M  V30 2421 H 231.785 0.120236 -3.26379 0
M  V30 2422 H 230.444 -2.00346 -3.07013 0
M  V30 2423 H 230.092 -0.462995 -5.00865 0
M  V30 2424 H 229.792 -2.15865 -5.46513 0
M  V30 2425 H 231.316 -1.36334 -5.95185 0
M  V30 2426 H 232.73 -3.26626 -4.71156 0
M  V30 2427 H 231.127 -4.01607 -4.45905 0
M  V30 2428 H 232.197 -3.75326 -3.07016 0
M  V30 2429 N 233.54 1.10788 -1.12088 0
M  V30 2430 C 234.951 1.64181 -0.88891 0
M  V30 2431 C 235.302 1.87508 0.577498 0
M  V30 2432 O 234.427 1.61434 1.44112 0
M  V30 2433 C 235.022 2.98257 -1.60712 0
M  V30 2434 C 233.581 3.4853 -1.42139 0
M  V30 2435 C 232.728 2.23208 -1.6454 0
M  V30 2436 H 235.679 0.943368 -1.27618 0
M  V30 2437 H 235.7 3.65552 -1.05604 0
M  V30 2438 H 235.212 2.81246 -2.67436 0
M  V30 2439 H 233.313 3.70692 -0.376552 0
M  V30 2440 H 233.426 4.26882 -2.17505 0
M  V30 2441 H 231.79 2.31169 -1.06925 0
M  V30 2442 H 232.573 2.08733 -2.72554 0
M  V30 2443 N 235.018 0.912232 1.28515 0
M  V30 2444 C 235.95 0.35676 2.26406 0
M  V30 2445 C 236.963 -0.503933 1.54804 0
M  V30 2446 O 238.152 -0.319059 1.75625 0
M  V30 2447 C 235.252 -0.508825 3.35058 0
M  V30 2448 C 234.425 0.329007 4.36161 0
M  V30 2449 C 233.484 -0.471422 5.24084 0
M  V30 2450 O 232.51 0.115482 5.69083 0
M  V30 2451 N 233.712 -1.77479 5.52704 0
M  V30 2452 H 236.477 1.19818 2.74707 0
M  V30 2453 H 234.038 0.778022 1.4198 0
M  V30 2454 H 236.03 -1.051 3.90815 0
M  V30 2455 H 234.6 -1.25095 2.86478 0
M  V30 2456 H 233.82 1.05256 3.79888 0
M  V30 2457 H 235.108 0.90234 5.00735 0
M  V30 2458 H 234.506 -2.27417 5.17975 0
M  V30 2459 H 233.063 -2.26382 6.11224 0
M  V30 2460 N 236.496 -1.42363 0.676048 0
M  V30 2461 C 237.459 -2.29199 0.00766941 0
M  V30 2462 C 238.459 -1.43389 -0.727745 0
M  V30 2463 O 239.649 -1.64764 -0.56556 0
M  V30 2464 C 236.781 -3.2591 -0.999785 0
M  V30 2465 H 237.974 -2.89794 0.771988 0
M  V30 2466 H 235.527 -1.50024 0.438468 0
M  V30 2467 H 236.262 -2.70256 -1.79255 0
M  V30 2468 H 236.047 -3.89202 -0.475829 0
M  V30 2469 H 237.537 -3.91028 -1.46583 0
M  V30 2470 N 237.974 -0.419461 -1.51915 0
M  V30 2471 C 239.223 0.154346 -2.01109 0
M  V30 2472 C 239.536 1.45338 -1.30905 0
M  V30 2473 O 240.742 2.10906 -1.7097 0
M  V30 2474 C 239.198 0.325615 -3.58424 0
M  V30 2475 C 238.806 -0.961934 -4.37551 0
M  V30 2476 C 240.55 0.854155 -4.15818 0
M  V30 2477 C 238.457 -0.757287 -5.86531 0
M  V30 2478 H 237.387 0.0614563 -0.751491 0
M  V30 2479 H 240.038 -0.54649 -1.75173 0
M  V30 2480 H 238.42 1.08903 -3.80731 0
M  V30 2481 H 239.594 -1.7323 -4.26999 0
M  V30 2482 H 237.909 -1.41766 -3.91524 0
M  V30 2483 H 240.506 1.02346 -5.24814 0
M  V30 2484 H 240.849 1.83172 -3.73837 0
M  V30 2485 H 241.382 0.149528 -3.97519 0
M  V30 2486 H 238.121 -1.70671 -6.32892 0
M  V30 2487 H 237.641 -0.0264061 -5.99794 0
M  V30 2488 H 239.32 -0.403482 -6.45741 0
M  V30 2489 N 239.452 1.56882 -0.150215 0
M  V30 2490 C 240.729 1.87844 0.545327 0
M  V30 2491 C 241.109 1.0567 1.82749 0
M  V30 2492 O 240.457 0.144442 2.28043 0
M  V30 2493 C 240.667 3.39526 0.80767 0
M  V30 2494 C 242.015 4.08814 1.14703 0
M  V30 2495 O 243.039 3.44723 0.896917 0
M  V30 2496 O 241.898 5.22004 1.61784 0
M  V30 2497 H 238.992 0.778677 0.278553 0
M  V30 2498 H 241.538 1.68666 -0.187068 0
M  V30 2499 H 240.31 3.91173 -0.0996096 0
M  V30 2500 H 239.933 3.64243 1.59413 0
M  V30 2501 N 240.93 -0.123565 1.57115 0
M  V30 2502 C 241.862 -1.17739 1.96648 0
M  V30 2503 C 242.875 -1.37906 0.865201 0
M  V30 2504 O 244.064 -1.37062 1.14351 0
M  V30 2505 C 241.164 -2.53821 2.24562 0
M  V30 2506 C 240.337 -2.54317 3.55867 0
M  V30 2507 C 239.396 -3.72112 3.72047 0
M  V30 2508 O 238.422 -3.55907 4.44206 0
M  V30 2509 N 239.624 -4.90498 3.10471 0
M  V30 2510 H 242.389 -0.841147 2.87654 0
M  V30 2511 H 239.95 -0.31289 1.58848 0
M  V30 2512 H 241.942 -3.31175 2.32606 0
M  V30 2513 H 240.512 -2.79645 1.39705 0
M  V30 2514 H 239.732 -1.62711 3.59053 0
M  V30 2515 H 241.02 -2.51701 4.42181 0
M  V30 2516 H 240.418 -5.06567 2.51806 0
M  V30 2517 H 238.975 -5.65544 3.24043 0
M  V30 2518 N 242.408 -1.52605 -0.393616 0
M  V30 2519 C 243.685 -1.58001 -1.15304 0
M  V30 2520 C 244.065 -0.370385 -2.07825 0
M  V30 2521 O 243.413 0.641638 -2.19306 0
M  V30 2522 C 243.623 -2.91652 -1.91677 0
M  V30 2523 C 244.971 -3.4522 -2.47201 0
M  V30 2524 O 245.995 -2.93495 -2.01839 0
M  V30 2525 O 244.854 -4.35579 -3.3005 0
M  V30 2526 H 241.948 -0.637068 -0.527327 0
M  V30 2527 H 244.494 -1.64939 -0.399141 0
M  V30 2528 H 243.266 -3.71136 -1.23992 0
M  V30 2529 H 242.889 -2.88077 -2.74039 0
M  V30 2530 N 243.887 0.651787 -1.4349 0
M  V30 2531 C 245.115 1.43937 -1.48626 0
M  V30 2532 C 245.53 1.8851 -0.104587 0
M  V30 2533 O 244.887 1.5958 0.885464 0
M  V30 2534 C 244.938 2.6734 -2.43334 0
M  V30 2535 O 244.659 2.24631 -3.76128 0
M  V30 2536 C 246.16 3.60683 -2.57726 0
M  V30 2537 H 243.38 0.44213 -0.504739 0
M  V30 2538 H 245.924 0.798944 -1.88248 0
M  V30 2539 H 244.079 3.2752 -2.06904 0
M  V30 2540 H 244.493 3.04485 -4.2707 0
M  V30 2541 H 245.967 4.43933 -3.28067 0
M  V30 2542 H 246.444 4.08126 -1.62265 0
M  V30 2543 H 247.05 3.06384 -2.94973 0
M  V30 2544 N 245.365 1.30045 0.890287 0
M  V30 2545 C 246.328 1.15963 1.977 0
M  V30 2546 C 247.328 0.0923777 1.60534 0
M  V30 2547 O 248.518 0.340071 1.70848 0
M  V30 2548 C 245.65 0.775451 3.31963 0
M  V30 2549 H 246.843 2.12502 2.11619 0
M  V30 2550 H 244.396 1.13366 1.07601 0
M  V30 2551 H 245.131 -0.189671 3.23745 0
M  V30 2552 H 244.916 1.54668 3.60306 0
M  V30 2553 H 246.406 0.700251 4.11687 0
M  V30 2554 N 246.843 -1.10192 1.12674 0
M  V30 2555 C 248.089 -1.82475 0.884915 0
M  V30 2556 C 248.422 -1.85093 -0.58773 0
M  V30 2557 O 247.697 -1.3134 -1.43457 0
M  V30 2558 C 247.98 -3.29018 1.46353 0
M  V30 2559 C 247.833 -3.34718 3.00473 0
M  V30 2560 C 249.152 -4.25473 1.12519 0
M  V30 2561 H 246.271 -0.662492 0.322915 0
M  V30 2562 H 248.913 -1.2913 1.39375 0
M  V30 2563 H 247.063 -3.74576 1.03077 0
M  V30 2564 H 248.735 -2.97622 3.52447 0
M  V30 2565 H 246.978 -2.74541 3.35872 0
M  V30 2566 H 247.649 -4.37918 3.36053 0
M  V30 2567 H 250.125 -3.88161 1.499 0
M  V30 2568 H 249.001 -5.26365 1.55663 0
M  V30 2569 H 249.262 -4.42084 0.0377407 0
M  V30 2570 N 248.321 -0.919034 -1.28029 0
M  V30 2571 C 249.567 -0.555757 -1.95036 0
M  V30 2572 C 249.9 0.899198 -1.72128 0
M  V30 2573 O 249.175 1.64023 -1.04531 0
M  V30 2574 C 249.458 -0.872024 -3.49382 0
M  V30 2575 C 249.311 -2.3801 -3.81669 0
M  V30 2576 C 250.63 -0.37185 -4.38526 0
M  V30 2577 H 247.749 -0.203386 -0.708381 0
M  V30 2578 H 250.391 -1.14924 -1.51303 0
M  V30 2579 H 248.541 -0.366946 -3.86763 0
M  V30 2580 H 250.213 -2.9562 -3.54128 0
M  V30 2581 H 248.456 -2.83289 -3.28526 0
M  V30 2582 H 249.127 -2.55192 -4.8947 0
M  V30 2583 H 251.603 -0.804602 -4.08247 0
M  V30 2584 H 250.479 -0.622173 -5.45362 0
M  V30 2585 H 250.74 0.727934 -4.36066 0
M  V30 2586 N 249.799 1.42003 -0.683588 0
M  V30 2587 C 250.732 2.28166 0.039592 0
M  V30 2588 C 251.71 1.41562 0.799942 0
M  V30 2589 O 252.894 1.70997 0.793248 0
M  V30 2590 C 250.021 3.21575 1.06335 0
M  V30 2591 C 249.067 4.24643 0.397562 0
M  V30 2592 S 249.9 5.2869 -0.851296 0
M  V30 2593 C 251.056 6.25666 0.171166 0
M  V30 2594 H 251.289 2.89153 -0.691229 0
M  V30 2595 H 248.822 1.46962 -0.473435 0
M  V30 2596 H 250.78 3.75928 1.6489 0
M  V30 2597 H 249.441 2.59707 1.76667 0
M  V30 2598 H 248.634 4.90223 1.17035 0
M  V30 2599 H 248.236 3.73824 -0.114611 0
M  V30 2600 H 250.528 6.69653 1.02819 0
M  V30 2601 H 251.471 7.06666 -0.450397 0
M  V30 2602 H 251.879 5.62095 0.520578 0
M  V30 2603 N 251.277 0.427512 1.51691 0
M  V30 2604 C 252.207 -0.3796 2.30394 0
M  V30 2605 C 253.188 -1.02982 1.35384 0
M  V30 2606 O 254.373 -1.03534 1.643 0
M  V30 2607 C 251.503 -1.48649 3.1388 0
M  V30 2608 C 250.457 -0.960294 4.17088 0
M  V30 2609 C 249.783 -2.16219 4.89033 0
M  V30 2610 C 251.083 -0.00153679 5.223 0
M  V30 2611 H 252.777 0.277164 2.98114 0
M  V30 2612 H 250.323 0.134739 1.43368 0
M  V30 2613 H 252.276 -2.05826 3.67714 0
M  V30 2614 H 251 -2.1714 2.43962 0
M  V30 2615 H 249.659 -0.410806 3.64291 0
M  V30 2616 H 249.307 -2.83307 4.15628 0
M  V30 2617 H 249.007 -1.81654 5.58816 0
M  V30 2618 H 250.531 -2.73968 5.45687 0
M  V30 2619 H 251.945 -0.482687 5.71264 0
M  V30 2620 H 250.342 0.256199 5.99553 0
M  V30 2621 H 251.412 0.938174 4.75738 0
M  V30 2622 N 252.755 -1.56801 0.158532 0
M  V30 2623 C 253.983 -2.00859 -0.496303 0
M  V30 2624 C 254.398 -1.03871 -1.57659 0
M  V30 2625 O 253.755 -0.0375165 -1.82461 0
M  V30 2626 C 253.806 -3.4479 -1.08638 0
M  V30 2627 O 253.527 -4.38072 -0.0492322 0
M  V30 2628 C 255.028 -4.04185 -1.8207 0
M  V30 2629 H 252.248 -0.65864 -0.128199 0
M  V30 2630 H 254.792 -2.02885 0.256506 0
M  V30 2631 H 252.947 -3.43579 -1.78975 0
M  V30 2632 H 253.361 -5.2227 -0.483102 0
M  V30 2633 H 254.835 -5.06857 -2.18633 0
M  V30 2634 H 255.312 -3.45549 -2.71095 0
M  V30 2635 H 255.918 -4.0906 -1.16405 0
M  V30 2636 N 254.233 0.115231 -1.57178 0
M  V30 2637 C 255.183 1.14707 -1.97044 0
M  V30 2638 C 256.167 1.36866 -0.845957 0
M  V30 2639 O 257.359 1.37895 -1.10968 0
M  V30 2640 C 254.488 2.47266 -2.38148 0
M  V30 2641 C 253.574 2.28566 -3.57237 0
M  V30 2642 N 253.965 1.79685 -4.72807 0
M  V30 2643 C 252.263 2.59208 -3.62943 0
M  V30 2644 C 252.964 1.74781 -5.54821 0
M  V30 2645 N 251.94 2.19264 -4.97417 0
M  V30 2646 H 255.742 0.761754 -2.83857 0
M  V30 2647 H 253.256 0.322928 -1.59157 0
M  V30 2648 H 255.253 3.219 -2.64927 0
M  V30 2649 H 253.913 2.86552 -1.52702 0
M  V30 2650 H 254.924 1.49177 -4.9595 0
M  V30 2651 H 251.601 3.02154 -2.88113 0
M  V30 2652 H 252.991 1.38212 -6.57531 0
M  V30 2653 N 255.711 1.52812 0.385517 0
M  V30 2654 C 256.957 1.68275 1.13188 0
M  V30 2655 C 257.29 0.423179 1.89533 0
M  V30 2656 O 256.565 -0.579113 1.85679 0
M  V30 2657 C 256.848 2.92001 2.1073 0
M  V30 2658 C 256.701 4.28067 1.38125 0
M  V30 2659 C 258.02 3.11283 3.11113 0
M  V30 2660 H 255.139 0.612352 0.410115 0
M  V30 2661 H 257.781 1.85415 0.414869 0
M  V30 2662 H 255.931 2.77519 2.71874 0
M  V30 2663 H 257.603 4.54324 0.799187 0
M  V30 2664 H 255.846 4.28388 0.683092 0
M  V30 2665 H 256.517 5.10733 2.09417 0
M  V30 2666 H 258.993 3.2482 2.6006 0
M  V30 2667 H 257.869 3.99325 3.76605 0
M  V30 2668 H 258.13 2.25656 3.80173 0
M  V30 2669 N 257.189 -0.644168 1.43834 0
M  V30 2670 C 258.137 -1.77793 1.49974 0
M  V30 2671 C 259.131 -1.65253 0.372536 0
M  V30 2672 O 260.337 -1.7149 0.546924 0
M  V30 2673 H 256.712 -0.58675 0.47035 0
M  V30 2674 H 258.683 -1.69736 2.45423 0
M  V30 2675 C 257.432 -3.16087 1.4486 0
M  V30 2676 H 256.755 -3.26378 2.30905 0
M  V30 2677 H 258.195 -3.95349 1.53217 0
M  V30 2678 C 256.654 -3.36484 0.167463 0
M  V30 2679 O 257.184 -3.94298 -0.767609 0
M  V30 2680 N 255.39 -2.90504 0.0747556 0
M  V30 2681 H 254.937 -2.4364 0.836507 0
M  V30 2682 H 254.895 -3.04527 -0.781714 0
M  V30 2683 N 258.668 -1.30515 -0.883378 0
M  V30 2684 C 259.898 -1.22182 -1.66599 0
M  V30 2685 C 260.306 0.217507 -1.87946 0
M  V30 2686 O 259.649 1.1554 -1.42815 0
M  V30 2687 C 259.711 -1.88146 -3.06335 0
M  V30 2688 C 259.375 -3.37476 -3.08154 0
M  V30 2689 C 260.372 -4.33443 -2.87094 0
M  V30 2690 C 258.057 -3.7895 -3.29701 0
M  V30 2691 C 260.051 -5.68858 -2.8754 0
M  V30 2692 C 257.738 -5.14482 -3.29776 0
M  V30 2693 C 258.736 -6.09246 -3.0872 0
M  V30 2694 O 258.424 -7.42302 -3.08615 0
M  V30 2695 H 258.156 -0.423898 -0.52658 0
M  V30 2696 H 260.71 -1.72703 -1.11188 0
M  V30 2697 H 258.94 -1.32157 -3.63416 0
M  V30 2698 H 260.629 -1.7391 -3.66756 0
M  V30 2699 H 261.395 -4.02733 -2.70243 0
M  V30 2700 H 257.274 -3.05631 -3.45124 0
M  V30 2701 H 260.818 -6.428 -2.71024 0
M  V30 2702 H 256.715 -5.44832 -3.46163 0
M  V30 2703 H 257.483 -7.5131 -3.24769 0
M  V30 2704 N 260.146 1.09593 -1.13257 0
M  V30 2705 C 261.093 2.1618 -0.808381 0
M  V30 2706 C 262.063 1.64517 0.228754 0
M  V30 2707 O 263.248 1.9053 0.101381 0
M  V30 2708 C 260.388 3.43973 -0.278675 0
M  V30 2709 C 259.501 4.09545 -1.37466 0
M  V30 2710 C 258.636 5.25088 -0.803479 0
M  V30 2711 C 257.675 5.82579 -1.87799 0
M  V30 2712 N 256.812 6.89486 -1.32488 0
M  V30 2713 H 261.652 2.43254 -1.72138 0
M  V30 2714 H 259.189 1.19392 -0.859294 0
M  V30 2715 H 261.147 4.17174 0.0465583 0
M  V30 2716 H 259.777 3.17223 0.597459 0
M  V30 2717 H 258.829 3.34226 -1.81652 0
M  V30 2718 H 260.141 4.48307 -2.18684 0
M  V30 2719 H 259.295 6.05178 -0.429427 0
M  V30 2720 H 258.034 4.87684 0.0397956 0
M  V30 2721 H 257.039 5.01152 -2.26113 0
M  V30 2722 H 258.264 6.22045 -2.72463 0
M  V30 2723 H 256.21 6.54064 -0.503575 0
M  V30 2724 H 256.127 7.27007 -2.07355 0
M  V30 2725 H 257.395 7.73336 -0.978336 0
M  V30 2726 N 261.624 0.925811 1.2754 0
M  V30 2727 C 262.852 0.581509 1.9856 0
M  V30 2728 C 263.267 -0.840041 1.69082 0
M  V30 2729 O 262.624 -1.55805 0.950312 0
M  V30 2730 C 262.675 0.795589 3.52637 0
M  V30 2731 O 262.396 2.16121 3.81082 0
M  V30 2732 C 263.897 0.459744 4.4091 0
M  V30 2733 H 261.117 0.220538 0.633722 0
M  V30 2734 H 263.661 1.24232 1.6244 0
M  V30 2735 H 261.816 0.18161 3.86974 0
M  V30 2736 H 262.23 2.2098 4.75676 0
M  V30 2737 H 263.704 0.660244 5.48037 0
M  V30 2738 H 264.181 -0.604625 4.35018 0
M  V30 2739 H 264.787 1.05178 4.12089 0
M  V30 2740 N 263.102 -1.41638 0.69111 0
M  V30 2741 C 264.35 -2.00902 0.219758 0
M  V30 2742 C 264.671 -1.54994 -1.18329 0
M  V30 2743 O 263.941 -0.778628 -1.79762 0
M  V30 2744 H 262.521 -0.74289 0.0782558 0
M  V30 2745 H 265.183 -1.73327 0.891271 0
M  V30 2746 H 264.279 -3.11224 0.233708 0
M  V30 2747 N 264.58 -0.43555 -1.51462 0
M  V30 2748 C 265.81 0.130053 -2.0619 0
M  V30 2749 C 266.218 1.37164 -1.30317 0
M  V30 2750 O 265.561 1.80225 -0.355598 0
M  V30 2751 C 265.623 0.519418 -3.55728 0
M  V30 2752 C 265.287 -0.615119 -4.52841 0
M  V30 2753 C 266.284 -1.48671 -4.9819 0
M  V30 2754 C 263.969 -0.795341 -4.95963 0
M  V30 2755 C 265.963 -2.52324 -5.8533 0
M  V30 2756 C 263.65 -1.83514 -5.82894 0
M  V30 2757 C 264.648 -2.69748 -6.27475 0
M  V30 2758 O 264.336 -3.71944 -7.1268 0
M  V30 2759 H 264.068 0.0121612 -0.675891 0
M  V30 2760 H 266.622 -0.6129 -1.96043 0
M  V30 2761 H 264.852 1.31505 -3.63653 0
M  V30 2762 H 266.541 1.01597 -3.92979 0
M  V30 2763 H 267.307 -1.359 -4.65571 0
M  V30 2764 H 263.186 -0.133713 -4.60806 0
M  V30 2765 H 266.73 -3.19665 -6.20048 0
M  V30 2766 H 262.627 -1.96306 -6.14926 0
M  V30 2767 H 263.395 -3.68503 -7.30854 0
M  V30 2768 N 266.058 1.56714 -0.166846 0
M  V30 2769 C 266.991 2.13577 0.80375 0
M  V30 2770 C 267.969 1.06464 1.22899 0
M  V30 2771 O 269.153 1.34413 1.32157 0
M  V30 2772 C 266.28 2.67168 2.0818 0
M  V30 2773 C 265.326 3.86612 1.80093 0
M  V30 2774 S 266.159 5.26565 0.97416 0
M  V30 2775 C 267.315 5.83558 2.26297 0
M  V30 2776 H 267.548 2.9557 0.320267 0
M  V30 2777 H 265.081 1.54326 0.0477555 0
M  V30 2778 H 267.039 2.98692 2.8159 0
M  V30 2779 H 265.7 1.85269 2.53642 0
M  V30 2780 H 264.893 4.22422 2.7491 0
M  V30 2781 H 264.495 3.55951 1.14781 0
M  V30 2782 H 266.787 5.962 3.21795 0
M  V30 2783 H 267.73 6.80731 1.94962 0
M  V30 2784 H 268.138 5.11944 2.37853 0
M  V30 2785 N 267.536 -0.106894 1.57237 0
M  V30 2786 C 268.486 -1.1366 1.9765 0
M  V30 2787 C 269.47 -1.36416 0.853203 0
M  V30 2788 O 270.662 -1.37305 1.11697 0
M  V30 2789 C 267.791 -2.46 2.39455 0
M  V30 2790 C 266.877 -2.26668 3.58445 0
M  V30 2791 N 267.268 -1.77176 4.73754 0
M  V30 2792 C 265.566 -2.57279 3.64312 0
M  V30 2793 C 266.267 -1.71836 5.5574 0
M  V30 2794 N 265.243 -2.16623 4.98573 0
M  V30 2795 H 269.045 -0.74669 2.84256 0
M  V30 2796 H 266.559 -0.314483 1.59326 0
M  V30 2797 H 268.556 -3.2049 2.6663 0
M  V30 2798 H 267.216 -2.85738 1.54219 0
M  V30 2799 H 268.227 -1.46545 4.96734 0
M  V30 2800 H 264.904 -3.00622 2.89711 0
M  V30 2801 H 266.294 -1.34723 6.58255 0
M  V30 2802 N 269.014 -1.53014 -0.377408 0
M  V30 2803 C 270.291 -1.59215 -1.13622 0
M  V30 2804 C 270.671 -0.392407 -2.07421 0
M  V30 2805 O 270.019 0.618342 -2.19975 0
M  V30 2806 C 270.229 -2.93669 -1.88573 0
M  V30 2807 C 271.577 -3.47822 -2.43526 0
M  V30 2808 O 272.601 -2.9562 -1.98715 0
M  V30 2809 O 271.46 -4.39055 -3.25412 0
M  V30 2810 H 268.554 -0.642625 -0.52054 0
M  V30 2811 H 271.1 -1.65353 -0.381625 0
M  V30 2812 H 269.872 -3.7243 -1.20048 0
M  V30 2813 H 269.495 -2.90968 -2.70968 0
M  V30 2814 N 270.492 0.636531 -1.44174 0
M  V30 2815 C 271.425 1.76139 -1.45087 0
M  V30 2816 C 272.403 1.59611 -0.310326 0
M  V30 2817 O 273.587 1.81568 -0.506477 0
M  V30 2818 C 270.714 3.13648 -1.27839 0
M  V30 2819 C 269.76 3.48838 -2.45386 0
M  V30 2820 S 270.593 3.46927 -4.07924 0
M  V30 2821 C 271.749 4.87064 -3.9309 0
M  V30 2822 H 271.982 1.75096 -2.40268 0
M  V30 2823 H 269.515 0.810666 -1.31406 0
M  V30 2824 H 271.473 3.93002 -1.18575 0
M  V30 2825 H 270.134 3.12235 -0.341787 0
M  V30 2826 H 269.327 4.48886 -2.29167 0
M  V30 2827 H 268.929 2.76935 -2.51362 0
M  V30 2828 H 271.221 5.76153 -3.56446 0
M  V30 2829 H 272.164 5.08337 -4.92949 0
M  V30 2830 H 272.572 4.61384 -3.25246 0
M  V30 2831 N 271.97 1.30982 0.876444 0
M  V30 2832 C 272.902 1.13902 1.98894 0
M  V30 2833 C 273.915 0.0798815 1.62604 0
M  V30 2834 O 275.104 0.326743 1.75484 0
M  V30 2835 C 272.204 0.716699 3.31235 0
M  V30 2836 C 271.377 1.85945 3.95908 0
M  V30 2837 C 270.436 1.42426 5.06558 0
M  V30 2838 O 269.462 2.13287 5.27729 0
M  V30 2839 N 270.664 0.308025 5.79682 0
M  V30 2840 H 273.429 2.09724 2.14094 0
M  V30 2841 H 270.99 1.2323 1.05004 0
M  V30 2842 H 272.982 0.408403 4.02634 0
M  V30 2843 H 271.552 -0.149719 3.12241 0
M  V30 2844 H 270.772 2.33541 3.17573 0
M  V30 2845 H 272.06 2.62503 4.35855 0
M  V30 2846 H 271.458 -0.282241 5.64995 0
M  V30 2847 H 270.015 0.0592282 6.51773 0
M  V30 2848 N 273.449 -1.08991 1.13837 0
M  V30 2849 C 274.412 -2.13925 0.822715 0
M  V30 2850 C 275.412 -1.599 -0.1699 0
M  V30 2851 O 276.602 -1.74104 0.0577251 0
M  V30 2852 C 273.734 -3.40155 0.225318 0
M  V30 2853 H 274.927 -2.43358 1.75262 0
M  V30 2854 H 272.48 -1.24603 0.943594 0
M  V30 2855 H 273.215 -3.16352 -0.713594 0
M  V30 2856 H 273 -3.80661 0.940193 0
M  V30 2857 H 274.49 -4.17594 0.0214784 0
M  V30 2858 N 274.927 -0.932562 -1.27047 0
M  V30 2859 C 275.857 -0.452902 -2.29066 0
M  V30 2860 C 276.838 0.489338 -1.62909 0
M  V30 2861 O 278.023 0.393046 -1.90181 0
M  V30 2862 C 275.153 0.290698 -3.46081 0
M  V30 2863 C 274.107 -0.564168 -4.24265 0
M  V30 2864 C 273.433 0.308886 -5.33807 0
M  V30 2865 C 274.733 -1.83112 -4.89149 0
M  V30 2866 H 276.427 -1.30552 -2.69437 0
M  V30 2867 H 273.973 -0.629201 -1.29526 0
M  V30 2868 H 275.926 0.637233 -4.16554 0
M  V30 2869 H 274.65 1.17738 -3.0464 0
M  V30 2870 H 273.309 -0.893477 -3.55545 0
M  V30 2871 H 272.957 1.19467 -4.88607 0
M  V30 2872 H 272.657 -0.259633 -5.87026 0
M  V30 2873 H 274.181 0.650884 -6.07121 0
M  V30 2874 H 275.595 -1.55236 -5.51883 0
M  V30 2875 H 273.992 -2.34353 -5.52448 0
M  V30 2876 H 275.062 -2.54772 -4.12576 0
M  V30 2877 N 276.405 1.4127 -0.698611 0
M  V30 2878 C 277.633 2.05503 -0.239992 0
M  V30 2879 C 278.048 1.52584 1.11191 0
M  V30 2880 O 277.405 0.675323 1.69545 0
M  V30 2881 C 277.456 3.60987 -0.192429 0
M  V30 2882 O 277.177 4.1195 -1.49094 0
M  V30 2883 C 278.678 4.42371 0.28681 0
M  V30 2884 H 275.898 0.661748 -0.111045 0
M  V30 2885 H 278.442 1.80987 -0.95205 0
M  V30 2886 H 276.597 3.84533 0.470472 0
M  V30 2887 H 277.011 5.06018 -1.38007 0
M  V30 2888 H 278.485 5.51344 0.26896 0
M  V30 2889 H 278.962 4.18699 1.32619 0
M  V30 2890 H 279.568 4.23897 -0.345201 0
M  V30 2891 N 277.883 0.443576 1.51229 0
M  V30 2892 C 278.846 -0.353132 2.26463 0
M  V30 2893 C 279.846 -0.944338 1.3015 0
M  V30 2894 O 281.036 -0.817813 1.5381 0
M  V30 2895 C 278.168 -1.50023 3.06114 0
M  V30 2896 H 279.361 0.3063 2.98332 0
M  V30 2897 H 276.914 0.196902 1.55055 0
M  V30 2898 H 277.649 -2.19553 2.38677 0
M  V30 2899 H 277.434 -1.08241 3.76864 0
M  V30 2900 H 278.924 -2.06296 3.63087 0
M  V30 2901 N 279.361 -1.56624 0.175154 0
M  V30 2902 C 280.291 -2.21155 -0.749195 0
M  V30 2903 C 281.272 -1.16836 -1.23626 0
M  V30 2904 O 282.457 -1.45277 -1.28873 0
M  V30 2905 C 279.587 -2.8553 -1.97711 0
M  V30 2906 C 278.541 -3.95921 -1.62575 0
M  V30 2907 C 277.867 -4.47365 -2.92864 0
M  V30 2908 C 279.167 -5.15323 -0.850838 0
M  V30 2909 H 280.861 -2.98653 -0.211295 0
M  V30 2910 H 278.407 -1.43651 -0.100188 0
M  V30 2911 H 280.36 -3.2935 -2.62881 0
M  V30 2912 H 279.084 -2.05406 -2.53921 0
M  V30 2913 H 277.743 -3.52762 -0.997719 0
M  V30 2914 H 277.391 -3.64027 -3.47122 0
M  V30 2915 H 277.091 -5.21839 -2.70106 0
M  V30 2916 H 278.615 -4.93873 -3.59056 0
M  V30 2917 H 280.029 -5.55812 -1.40521 0
M  V30 2918 H 278.426 -5.95739 -0.722154 0
M  V30 2919 H 279.496 -4.84661 0.152082 0
M  V30 2920 N 280.839 0.0985539 -1.57292 0
M  V30 2921 C 282.064 0.820196 -1.90493 0
M  V30 2922 C 282.489 1.71658 -0.769094 0
M  V30 2923 O 281.847 1.79133 0.279495 0
M  V30 2924 C 281.895 1.61242 -3.22542 0
M  V30 2925 O 280.999 2.72108 -3.09888 0
M  V30 2926 H 280.34 0.225547 -0.62452 0
M  V30 2927 H 282.87 0.0748159 -2.04463 0
M  V30 2928 H 282.88 1.99737 -3.55766 0
M  V30 2929 H 281.555 0.954535 -4.04798 0
M  V30 2930 H 280.132 2.36667 -2.88172 0
M  V30 2931 N 282.317 1.53212 0.369288 0
M  V30 2932 C 283.267 1.75769 1.45222 0
M  V30 2933 C 284.251 0.612136 1.48801 0
M  V30 2934 O 285.443 0.870674 1.54105 0
M  V30 2935 C 282.572 1.94769 2.82701 0
M  V30 2936 C 281.658 3.15315 2.83615 0
M  V30 2937 N 282.049 4.37295 2.54178 0
M  V30 2938 C 280.347 3.15962 3.14776 0
M  V30 2939 C 281.048 5.19015 2.62675 0
M  V30 2940 N 280.024 4.55142 2.97232 0
M  V30 2941 H 283.826 2.67691 1.2132 0
M  V30 2942 H 281.34 1.51787 0.577438 0
M  V30 2943 H 283.337 2.09056 3.60696 0
M  V30 2944 H 281.997 1.04073 3.07569 0
M  V30 2945 H 283.008 4.65091 2.27839 0
M  V30 2946 H 279.685 2.35144 3.44983 0
M  V30 2947 H 281.075 6.26305 2.43294 0
M  V30 2948 N 283.795 -0.628877 1.44509 0
M  V30 2949 C 284.705 -1.7694 1.54044 0
M  V30 2950 C 285.721 -1.68705 0.425987 0
M  V30 2951 O 286.897 -1.89442 0.683656 0
M  V30 2952 C 283.962 -3.13332 1.48405 0
M  V30 2953 C 283.023 -3.33181 2.70719 0
M  V30 2954 C 282.256 -4.63067 2.6534 0
M  V30 2955 O 282.479 -5.44017 1.71469 0
M  V30 2956 O 281.413 -4.85167 3.56226 0
M  V30 2957 H 285.239 -1.71848 2.50403 0
M  V30 2958 H 282.824 -0.790378 1.26781 0
M  V30 2959 H 284.706 -3.94634 1.47791 0
M  V30 2960 H 283.381 -3.1896 0.551898 0
M  V30 2961 H 282.288 -2.51549 2.769 0
M  V30 2962 H 283.621 -3.32416 3.62988 0
M  V30 2963 N 285.273 -1.31445 -0.869486 0
M  V30 2964 C 286.513 -1.22458 -1.63656 0
M  V30 2965 C 286.877 0.213846 -1.90805 0
M  V30 2966 O 288.078 0.427212 -2.65383 0
M  V30 2967 C 286.349 -2.04564 -2.93067 0
M  V30 2968 S 287.908 -2.12445 -3.83944 0
M  V30 2969 H 284.726 -0.436145 -0.561514 0
M  V30 2970 H 287.328 -1.66114 -1.03085 0
M  V30 2971 H 286.032 -3.0816 -2.71045 0
M  V30 2972 H 285.563 -1.6163 -3.58663 0
M  V30 2973 H 287.578 -1.26312 -4.79854 0
M  V30 2974 N 286.751 1.08385 -1.14413 0
M  V30 2975 C 287.999 1.80419 -0.910679 0
M  V30 2976 C 288.32 1.86658 0.564243 0
M  V30 2977 O 287.59 1.35985 1.41014 0
M  V30 2978 H 286.17 0.668204 -0.333934 0
M  V30 2979 H 288.832 1.31037 -1.44275 0
M  V30 2980 H 287.928 2.83238 -1.31082 0
M  V30 2981 N 288.23 0.939286 1.26551 0
M  V30 2982 C 289.193 0.451987 2.24699 0
M  V30 2983 C 290.193 -0.435869 1.5478 0
M  V30 2984 O 291.383 -0.235314 1.72603 0
M  V30 2985 C 288.515 -0.348801 3.39111 0
M  V30 2986 H 289.708 1.3193 2.69322 0
M  V30 2987 H 287.261 0.721072 1.38673 0
M  V30 2988 H 287.996 -1.23444 2.99887 0
M  V30 2989 H 287.781 0.287945 3.91041 0
M  V30 2990 H 289.271 -0.679726 4.12031 0
M  V30 2991 N 289.708 -1.40897 0.706093 0
M  V30 2992 C 290.638 -2.33418 0.0620085 0
M  V30 2993 C 291.619 -1.52385 -0.755827 0
M  V30 2994 O 292.804 -1.80886 -0.706674 0
M  V30 2995 C 289.934 -3.36293 -0.867445 0
M  V30 2996 C 288.888 -4.27716 -0.155932 0
M  V30 2997 C 288.214 -5.2105 -1.20046 0
M  V30 2998 C 289.514 -5.12944 0.984149 0
M  V30 2999 H 291.208 -2.87527 0.83477 0
M  V30 3000 H 288.754 -1.38249 0.402875 0
M  V30 3001 H 290.707 -3.99949 -1.32735 0
M  V30 3002 H 289.431 -2.80556 -1.67199 0
M  V30 3003 H 288.09 -3.65498 0.284047 0
M  V30 3004 H 287.738 -4.61624 -1.99781 0
M  V30 3005 H 287.438 -5.83056 -0.729328 0
M  V30 3006 H 288.962 -5.87584 -1.66066 0
M  V30 3007 H 290.376 -5.70109 0.604048 0
M  V30 3008 H 288.773 -5.83945 1.38304 0
M  V30 3009 H 289.843 -4.49485 1.81911 0
M  V30 3010 N 291.186 -0.45159 -1.50991 0
M  V30 3011 C 292.149 0.341117 -2.26647 0
M  V30 3012 C 293.149 0.937422 -1.30649 0
M  V30 3013 O 294.339 0.809644 -1.54241 0
M  V30 3014 C 291.471 1.48398 -3.06905 0
M  V30 3015 H 292.664 -0.322117 -2.98165 0
M  V30 3016 H 290.217 -0.205122 -1.54948 0
M  V30 3017 H 290.952 2.18284 -2.39838 0
M  V30 3018 H 290.737 1.06241 -3.77432 0
M  V30 3019 H 292.227 2.04367 -3.64176 0
M  V30 3020 N 292.664 1.56529 -0.183458 0
M  V30 3021 C 293.913 1.96419 0.458511 0
M  V30 3022 C 294.226 1.0727 1.63562 0
M  V30 3023 O 295.432 1.36893 2.34462 0
M  V30 3024 C 293.888 3.49298 0.867122 0
M  V30 3025 C 293.496 4.47092 -0.285057 0
M  V30 3026 C 295.24 3.97983 1.47683 0
M  V30 3027 C 293.147 5.91225 0.143862 0
M  V30 3028 H 292.077 0.733394 0.175071 0
M  V30 3029 H 294.728 1.81448 -0.273624 0
M  V30 3030 H 293.11 3.59731 1.65559 0
M  V30 3031 H 294.284 4.48383 -1.0625 0
M  V30 3032 H 292.599 4.08535 -0.805503 0
M  V30 3033 H 295.196 5.03134 1.80999 0
M  V30 3034 H 295.539 3.41618 2.37914 0
M  V30 3035 H 296.072 3.90617 0.752562 0
M  V30 3036 H 292.811 6.5149 -0.723974 0
M  V30 3037 H 292.331 5.93214 0.886413 0
M  V30 3038 H 294.01 6.44362 0.583628 0
M  V30 3039 N 294.142 -0.090211 1.57342 0
M  V30 3040 C 295.388 -0.788838 1.8748 0
M  V30 3041 C 295.743 -1.76105 0.7749 0
M  V30 3042 O 295.036 -1.90302 -0.222663 0
M  V30 3043 C 295.23 -1.55222 3.21933 0
M  V30 3044 C 295.059 -0.655441 4.44898 0
M  V30 3045 C 293.829 -0.299325 5.04413 0
M  V30 3046 C 296.027 0.0397458 5.14285 0
M  V30 3047 N 294.009 0.605108 6.10911 0
M  V30 3048 C 295.38 0.802061 6.1479 0
M  V30 3049 C 297.435 0.113154 4.97771 0
M  V30 3050 C 296.138 1.63093 7.00566 0
M  V30 3051 C 298.164 0.928942 5.84059 0
M  V30 3052 C 297.526 1.67936 6.84088 0
M  V30 3053 H 293.625 -0.26467 0.735849 0
M  V30 3054 H 296.209 -0.0511453 1.94633 0
M  V30 3055 H 294.38 -2.26076 3.15823 0
M  V30 3056 H 296.112 -2.19843 3.39781 0
M  V30 3057 H 292.867 -0.648079 4.69145 0
M  V30 3058 H 293.291 1.05002 6.68808 0
M  V30 3059 H 297.933 -0.452676 4.2037 0
M  V30 3060 H 295.651 2.20781 7.77355 0
M  V30 3061 H 299.237 0.988478 5.73341 0
M  V30 3062 H 298.117 2.30044 7.49699 0
M  V30 3063 N 295.62 -1.53406 -0.361157 0
M  V30 3064 C 296.897 -1.60411 -1.11927 0
M  V30 3065 C 297.277 -0.414385 -2.06993 0
M  V30 3066 O 296.625 0.594976 -2.20618 0
M  V30 3067 C 296.835 -2.95652 -1.85448 0
M  V30 3068 C 298.183 -3.50386 -2.39823 0
M  V30 3069 O 299.207 -2.97711 -1.95568 0
M  V30 3070 O 298.066 -4.42482 -3.20737 0
M  V30 3071 H 295.16 -0.64811 -0.513695 0
M  V30 3072 H 297.706 -1.65749 -0.364065 0
M  V30 3073 H 296.478 -3.73682 -1.16091 0
M  V30 3074 H 296.101 -2.93825 -2.67866 0
M  V30 3075 N 297.098 0.621204 -1.44841 0
M  V30 3076 C 298.028 1.74366 -1.55303 0
M  V30 3077 C 299.009 1.65199 -0.405385 0
M  V30 3078 O 300.194 1.83807 -0.626787 0
M  V30 3079 C 297.324 3.12931 -1.50637 0
M  V30 3080 C 296.278 3.36896 -2.63979 0
M  V30 3081 C 295.604 4.75594 -2.44366 0
M  V30 3082 C 296.904 3.28483 -4.06074 0
M  V30 3083 H 298.598 1.65867 -2.49256 0
M  V30 3084 H 296.144 0.796558 -1.19962 0
M  V30 3085 H 298.097 3.9124 -1.56555 0
M  V30 3086 H 296.821 3.22237 -0.532057 0
M  V30 3087 H 295.48 2.60972 -2.57467 0
M  V30 3088 H 295.128 4.81616 -1.45105 0
M  V30 3089 H 294.828 4.92586 -3.20364 0
M  V30 3090 H 296.352 5.5612 -2.52117 0
M  V30 3091 H 297.766 3.96684 -4.13902 0
M  V30 3092 H 296.163 3.57008 -4.82354 0
M  V30 3093 H 297.233 2.26133 -4.28943 0
M  V30 3094 N 298.576 1.31904 0.862503 0
M  V30 3095 C 299.539 1.20131 1.95195 0
M  V30 3096 C 300.539 0.126409 1.60302 0
M  V30 3097 O 301.729 0.376234 1.70089 0
M  V30 3098 C 298.861 0.845691 3.30244 0
M  V30 3099 H 300.054 2.16943 2.07064 0
M  V30 3100 H 297.607 1.15622 1.05172 0
M  V30 3101 H 298.342 -0.120957 3.24074 0
M  V30 3102 H 298.127 1.62276 3.56944 0
M  V30 3103 H 299.617 0.787418 4.10109 0
M  V30 3104 N 300.054 -1.07777 1.14986 0
M  V30 3105 C 301.004 -2.13082 0.811181 0
M  V30 3106 C 301.988 -1.59619 -0.202597 0
M  V30 3107 O 303.18 -1.77 -0.00398275 0
M  V30 3108 C 300.309 -3.42009 0.297439 0
M  V30 3109 C 299.395 -4.02337 1.34112 0
M  V30 3110 N 299.786 -4.36982 2.54716 0
M  V30 3111 C 298.084 -4.29752 1.19285 0
M  V30 3112 C 298.785 -4.84729 3.21578 0
M  V30 3113 N 297.761 -4.83233 2.48972 0
M  V30 3114 H 301.563 -2.37696 1.72853 0
M  V30 3115 H 299.077 -1.25173 1.03468 0
M  V30 3116 H 301.074 -4.16884 0.0364777 0
M  V30 3117 H 299.734 -3.18841 -0.614022 0
M  V30 3118 H 300.745 -4.27807 2.91894 0
M  V30 3119 H 297.422 -4.16106 0.340926 0
M  V30 3120 H 298.812 -5.20863 4.24442 0
M  V30 3121 N 301.532 -0.945985 -1.26051 0
M  V30 3122 C 302.757 -0.612525 -1.98149 0
M  V30 3123 C 303.182 0.806623 -1.69927 0
M  V30 3124 O 302.54 1.54411 -0.950108 0
M  V30 3125 C 302.588 -0.866981 -3.50023 0
M  V30 3126 O 301.692 0.0585333 -4.12358 0
M  V30 3127 H 301.033 -0.23379 -0.621481 0
M  V30 3128 H 303.563 -1.27023 -1.60395 0
M  V30 3129 H 303.573 -0.789792 -4.00283 0
M  V30 3130 H 302.248 -1.90135 -3.69894 0
M  V30 3131 H 300.825 -0.0701241 -3.72834 0
M  V30 3132 N 303.011 1.40521 -0.713556 0
M  V30 3133 C 303.974 2.29098 -0.0684347 0
M  V30 3134 C 304.974 1.45268 0.689472 0
M  V30 3135 O 306.164 1.66205 0.521677 0
M  V30 3136 C 303.296 3.28446 0.913024 0
M  V30 3137 H 304.489 2.87645 -0.84855 0
M  V30 3138 H 302.042 1.48809 -0.47809 0
M  V30 3139 H 302.777 2.74913 1.72027 0
M  V30 3140 H 302.562 3.90327 0.372472 0
M  V30 3141 H 304.052 3.94777 1.36165 0
M  V30 3142 N 304.489 0.459591 1.5075 0
M  V30 3143 C 305.737 -0.0991532 2.01857 0
M  V30 3144 C 306.058 -1.41247 1.34441 0
M  V30 3145 O 305.328 -1.89775 0.486022 0
M  V30 3146 H 303.908 -0.039633 0.745948 0
M  V30 3147 H 306.57 0.607387 1.85194 0
M  V30 3148 H 305.666 -0.258998 3.11023 0
M  V30 3149 N 305.967 -1.56429 0.191757 0
M  V30 3150 C 306.93 -2.17707 -0.716688 0
M  V30 3151 C 307.93 -1.13061 -1.14341 0
M  V30 3152 O 309.12 -1.38464 -1.05704 0
M  V30 3153 C 306.252 -2.77644 -1.97804 0
M  V30 3154 H 307.445 -2.99342 -0.1829 0
M  V30 3155 H 304.998 -1.56193 -0.0578566 0
M  V30 3156 H 305.733 -1.99799 -2.55443 0
M  V30 3157 H 305.518 -3.54246 -1.68083 0
M  V30 3158 H 307.008 -3.24708 -2.62592 0
M  V30 3159 N 307.445 0.0818655 -1.57387 0
M  V30 3160 C 308.691 0.784074 -1.8703 0
M  V30 3161 C 309.024 1.77729 -0.782689 0
M  V30 3162 O 308.299 1.93384 0.208051 0
M  V30 3163 C 308.582 1.50105 -3.27323 0
M  V30 3164 C 308.435 0.524925 -4.46727 0
M  V30 3165 C 309.754 2.44843 -3.65705 0
M  V30 3166 H 306.873 0.283582 -0.680257 0
M  V30 3167 H 309.515 0.0474352 -1.89941 0
M  V30 3168 H 307.665 2.12897 -3.24972 0
M  V30 3169 H 309.337 -0.0970111 -4.61198 0
M  V30 3170 H 307.58 -0.160606 -4.33503 0
M  V30 3171 H 308.251 1.064 -5.41648 0
M  V30 3172 H 310.727 1.92135 -3.69085 0
M  V30 3173 H 309.603 2.92018 -4.64776 0
M  V30 3174 H 309.864 3.29197 -2.95096 0
M  V30 3175 N 308.923 1.53595 0.353017 0
M  V30 3176 C 310.334 1.61937 0.929153 0
M  V30 3177 C 310.685 0.494686 1.89861 0
M  V30 3178 O 309.81 -0.377017 2.1309 0
M  V30 3179 C 310.405 2.93526 1.69199 0
M  V30 3180 C 308.964 3.04161 2.21727 0
M  V30 3181 C 308.111 2.57322 1.03348 0
M  V30 3182 H 311.062 1.58155 0.131431 0
M  V30 3183 H 311.083 2.82034 2.55416 0
M  V30 3184 H 310.595 3.75362 0.986144 0
M  V30 3185 H 308.696 2.26938 2.95516 0
M  V30 3186 H 308.809 4.09465 2.48748 0
M  V30 3187 H 307.173 2.12499 1.40414 0
M  V30 3188 H 307.956 3.41588 0.342428 0
M  V30 3189 N 310.401 -0.613514 1.45168 0
M  V30 3190 C 311.647 -1.37471 1.49096 0
M  V30 3191 C 311.98 -1.93765 0.129901 0
M  V30 3192 O 311.255 -1.74707 -0.854858 0
M  V30 3193 C 311.538 -2.52701 2.56542 0
M  V30 3194 C 311.391 -2.01643 4.0207 0
M  V30 3195 C 312.71 -3.54849 2.60327 0
M  V30 3196 H 309.829 -0.498502 0.54283 0
M  V30 3197 H 312.471 -0.692125 1.76945 0
M  V30 3198 H 310.621 -3.10931 2.32926 0
M  V30 3199 H 312.293 -1.48108 4.36877 0
M  V30 3200 H 310.536 -1.32688 4.13009 0
M  V30 3201 H 311.207 -2.84681 4.72928 0
M  V30 3202 H 313.683 -3.0645 2.81474 0
M  V30 3203 H 312.559 -4.32973 3.37381 0
M  V30 3204 H 312.82 -4.10079 1.6519 0
M  V30 3205 N 311.879 -1.3236 -0.855495 0
M  V30 3206 C 313.156 -1.13491 -1.59309 0
M  V30 3207 C 313.536 0.30503 -2.08885 0
M  V30 3208 O 312.884 1.30151 -1.87811 0
M  V30 3209 C 313.094 -2.16176 -2.73987 0
M  V30 3210 C 314.442 -2.49463 -3.43589 0
M  V30 3211 O 315.466 -2.14715 -2.84211 0
M  V30 3212 O 314.325 -3.09027 -4.50738 0
M  V30 3213 H 311.419 -0.437887 -0.701559 0
M  V30 3214 H 313.965 -1.43887 -0.899696 0
M  V30 3215 H 312.737 -3.1297 -2.34873 0
M  V30 3216 H 312.36 -1.86769 -3.51003 0
M  V30 3217 N 313.357 1.07166 -1.15556 0
M  V30 3218 C 314.287 2.16403 -0.877046 0
M  V30 3219 C 315.268 1.69217 0.173111 0
M  V30 3220 O 316.453 1.94181 0.027084 0
M  V30 3221 C 313.583 3.45349 -0.367632 0
M  V30 3222 C 312.537 4.05995 -1.35468 0
M  V30 3223 C 311.863 5.30045 -0.704038 0
M  V30 3224 C 313.163 4.45804 -2.72132 0
M  V30 3225 H 314.857 2.39959 -1.79053 0
M  V30 3226 H 312.403 1.15325 -0.862331 0
M  V30 3227 H 314.356 4.21095 -0.160317 0
M  V30 3228 H 313.08 3.21385 0.581326 0
M  V30 3229 H 311.739 3.32296 -1.54839 0
M  V30 3230 H 311.387 5.02373 0.251128 0
M  V30 3231 H 311.087 5.71579 -1.36277 0
M  V30 3232 H 312.611 6.08495 -0.50654 0
M  V30 3233 H 314.025 5.12671 -2.56595 0
M  V30 3234 H 312.422 4.98296 -3.34397 0
M  V30 3235 H 313.492 3.57083 -3.28054 0
M  V30 3236 N 314.835 0.952656 1.25548 0
M  V30 3237 C 315.785 0.442033 2.23674 0
M  V30 3238 C 316.769 -0.467632 1.53955 0
M  V30 3239 O 317.961 -0.301006 1.74422 0
M  V30 3240 C 315.09 -0.280816 3.4215 0
M  V30 3241 C 314.176 0.646803 4.19139 0
M  V30 3242 N 314.567 1.77759 4.73535 0
M  V30 3243 C 312.865 0.454617 4.43677 0
M  V30 3244 C 313.566 2.35658 5.31827 0
M  V30 3245 N 312.542 1.64333 5.18166 0
M  V30 3246 H 316.344 1.30505 2.63336 0
M  V30 3247 H 313.858 0.809904 1.40763 0
M  V30 3248 H 315.855 -0.663747 4.11582 0
M  V30 3249 H 314.515 -1.14046 3.04012 0
M  V30 3250 H 315.526 2.15949 4.7073 0
M  V30 3251 H 312.203 -0.362312 4.15925 0
M  V30 3252 H 313.593 3.30998 5.84713 0
M  V30 3253 N 316.313 -1.40141 0.720998 0
M  V30 3254 C 317.245 -2.29177 0.0324669 0
M  V30 3255 C 318.258 -1.46105 -0.718126 0
M  V30 3256 O 319.447 -1.69335 -0.564608 0
M  V30 3257 C 316.547 -3.24473 -0.978292 0
M  V30 3258 C 315.72 -4.36423 -0.292115 0
M  V30 3259 C 314.779 -5.12122 -1.20901 0
M  V30 3260 O 313.805 -5.64981 -0.691766 0
M  V30 3261 N 315.007 -5.21992 -2.53978 0
M  V30 3262 H 317.772 -2.88909 0.796984 0
M  V30 3263 H 315.333 -1.51569 0.569068 0
M  V30 3264 H 317.325 -3.71987 -1.59398 0
M  V30 3265 H 315.895 -2.65871 -1.64413 0
M  V30 3266 H 315.115 -3.90967 0.503847 0
M  V30 3267 H 316.403 -5.08467 0.183971 0
M  V30 3268 H 315.801 -4.8054 -2.98493 0
M  V30 3269 H 314.358 -5.72995 -3.10677 0
M  V30 3270 N 317.792 -0.46758 -1.50504 0
M  V30 3271 C 318.755 0.317059 -2.26996 0
M  V30 3272 C 319.755 0.923513 -1.31635 0
M  V30 3273 O 320.945 0.793239 -1.55091 0
M  V30 3274 C 318.077 1.45134 -3.08462 0
M  V30 3275 H 319.27 -0.353723 -2.97807 0
M  V30 3276 H 316.823 -0.221545 -1.54722 0
M  V30 3277 H 317.558 2.15728 -2.4214 0
M  V30 3278 H 317.343 1.02232 -3.78538 0
M  V30 3279 H 318.833 2.00493 -3.66323 0
M  V30 3280 N 319.27 1.56325 -0.20005 0
M  V30 3281 C 320.518 1.97329 0.436547 0
M  V30 3282 C 320.839 1.08826 1.61808 0
M  V30 3283 O 320.109 0.160604 1.95241 0
M  V30 3284 H 318.689 0.728714 0.164272 0
M  V30 3285 H 321.351 1.92761 -0.287937 0
M  V30 3286 H 320.447 3.02264 0.777353 0
M  V30 3287 N 320.748 -0.0735177 1.57428 0
M  V30 3288 C 321.711 -1.07192 2.02589 0
M  V30 3289 C 322.711 -1.31695 0.922661 0
M  V30 3290 O 323.901 -1.27445 1.18758 0
M  V30 3291 C 321.033 -2.41599 2.40506 0
M  V30 3292 H 322.226 -0.682727 2.92025 0
M  V30 3293 H 319.779 -0.319193 1.53006 0
M  V30 3294 H 320.514 -2.85354 1.5409 0
M  V30 3295 H 320.299 -2.25156 3.21009 0
M  V30 3296 H 321.789 -3.13367 2.76027 0
M  V30 3297 N 322.226 -1.5378 -0.344866 0
M  V30 3298 C 323.503 -1.61589 -1.10219 0
M  V30 3299 C 323.883 -0.436316 -2.06542 0
M  V30 3300 O 323.231 0.571543 -2.21237 0
M  V30 3301 C 323.441 -2.97602 -1.82301 0
M  V30 3302 C 324.789 -3.5291 -2.36093 0
M  V30 3303 O 325.813 -2.99768 -1.924 0
M  V30 3304 O 324.672 -4.45859 -3.16026 0
M  V30 3305 H 321.766 -0.653522 -0.506792 0
M  V30 3306 H 324.312 -1.66126 -0.346465 0
M  V30 3307 H 323.084 -3.74893 -1.12121 0
M  V30 3308 H 322.707 -2.9665 -2.64735 0
M  V30 3309 N 323.704 0.605807 -1.45491 0
M  V30 3310 C 324.934 1.38934 -1.52908 0
M  V30 3311 C 325.342 1.88513 -0.161086 0
M  V30 3312 O 324.685 1.62962 0.847891 0
M  V30 3313 C 324.747 2.62737 -2.45376 0
M  V30 3314 C 324.411 2.34785 -3.92078 0
M  V30 3315 C 325.408 1.95038 -4.8193 0
M  V30 3316 C 323.093 2.47642 -4.37011 0
M  V30 3317 C 325.087 1.68511 -6.14722 0
M  V30 3318 C 322.774 2.20728 -5.69844 0
M  V30 3319 C 323.772 1.81225 -6.58519 0
M  V30 3320 O 323.46 1.54627 -7.88889 0
M  V30 3321 H 323.192 0.431629 -0.520262 0
M  V30 3322 H 325.746 0.74573 -1.91384 0
M  V30 3323 H 323.976 3.29824 -2.01874 0
M  V30 3324 H 325.665 3.24783 -2.43456 0
M  V30 3325 H 326.431 1.84639 -4.48479 0
M  V30 3326 H 322.31 2.77356 -3.68232 0
M  V30 3327 H 325.854 1.37602 -6.83894 0
M  V30 3328 H 321.751 2.30744 -6.02849 0
M  V30 3329 H 322.519 1.68665 -8.00933 0
M  V30 3330 N 325.182 1.32811 0.848464 0
M  V30 3331 C 326.145 1.22194 1.9391 0
M  V30 3332 C 327.145 0.143404 1.60159 0
M  V30 3333 O 328.335 0.394253 1.6968 0
M  V30 3334 C 325.467 0.88067 3.29328 0
M  V30 3335 H 326.66 2.19127 2.04752 0
M  V30 3336 H 324.213 1.16731 1.0394 0
M  V30 3337 H 324.948 -0.0865776 3.24184 0
M  V30 3338 H 324.733 1.66052 3.55203 0
M  V30 3339 H 326.223 0.830871 4.09251 0
M  V30 3340 N 326.66 -1.06551 1.16123 0
M  V30 3341 C 327.909 -1.78687 0.935622 0
M  V30 3342 C 328.222 -1.88056 -0.538001 0
M  V30 3343 O 329.428 -2.56794 -0.88143 0
M  V30 3344 C 327.884 -3.21143 1.62466 0
M  V30 3345 C 327.492 -3.19949 3.13587 0
M  V30 3346 C 329.236 -3.9783 1.48092 0
M  V30 3347 C 327.143 -4.57108 3.75241 0
M  V30 3348 H 326.073 -0.669712 0.346412 0
M  V30 3349 H 328.724 -1.19534 1.39226 0
M  V30 3350 H 327.106 -3.80539 1.09572 0
M  V30 3351 H 328.28 -2.70151 3.73303 0
M  V30 3352 H 326.595 -2.5676 3.27816 0
M  V30 3353 H 329.192 -4.99217 1.91538 0
M  V30 3354 H 329.535 -4.14078 0.429507 0
M  V30 3355 H 330.068 -3.4495 1.98127 0
M  V30 3356 H 326.807 -4.46065 4.80319 0
M  V30 3357 H 326.327 -5.07111 3.20309 0
M  V30 3358 H 328.006 -5.26069 3.76644 0
M  V30 3359 N 328.138 -0.959301 -1.25041 0
M  V30 3360 C 329.386 -0.615393 -1.92503 0
M  V30 3361 C 329.707 0.850969 -1.75452 0
M  V30 3362 O 328.977 1.60658 -1.12098 0
M  V30 3363 H 327.557 -0.224613 -0.712431 0
M  V30 3364 H 330.219 -1.21855 -1.5211 0
M  V30 3365 H 329.315 -0.848738 -3.00338 0
M  V30 3366 N 329.616 1.39756 -0.72842 0
M  V30 3367 C 330.856 2.025 -0.278078 0
M  V30 3368 C 331.22 1.5654 1.11173 0
M  V30 3369 O 332.421 2.11435 1.65978 0
M  V30 3370 C 330.692 3.55489 -0.369139 0
M  V30 3371 S 332.251 4.388 0.00232983 0
M  V30 3372 H 329.069 0.702534 -0.109391 0
M  V30 3373 H 331.671 1.70672 -0.95348 0
M  V30 3374 H 330.375 3.86429 -1.38204 0
M  V30 3375 H 329.906 3.92061 0.324308 0
M  V30 3376 H 331.921 4.80954 1.22055 0
M  V30 3377 N 331.094 0.475555 1.50254 0
M  V30 3378 C 332.322 -0.0754493 2.06762 0
M  V30 3379 C 332.737 -1.33111 1.33891 0
M  V30 3380 O 332.094 -1.77846 0.40952 0
M  V30 3381 C 332.145 -0.359008 3.59713 0
M  V30 3382 O 331.866 0.846851 4.29837 0
M  V30 3383 C 333.367 -0.956484 4.32858 0
M  V30 3384 H 330.587 0.00907525 0.670939 0
M  V30 3385 H 333.131 0.665618 1.93364 0
M  V30 3386 H 331.286 -1.05001 3.72899 0
M  V30 3387 H 331.7 0.594162 5.21124 0
M  V30 3388 H 333.174 -1.10463 5.40834 0
M  V30 3389 H 333.651 -1.94775 3.93649 0
M  V30 3390 H 334.257 -0.303723 4.24214 0
M  V30 3391 N 332.573 -1.56217 0.208337 0
M  V30 3392 C 333.803 -2.02043 -0.431523 0
M  V30 3393 C 334.211 -1.08755 -1.54819 0
M  V30 3394 O 333.554 -0.0870009 -1.83494 0
M  V30 3395 C 333.616 -3.44239 -1.03633 0
M  V30 3396 C 333.28 -4.56965 -0.0567502 0
M  V30 3397 C 334.277 -5.14624 0.738773 0
M  V30 3398 C 331.962 -5.02266 0.0581736 0
M  V30 3399 C 333.956 -6.16045 1.63605 0
M  V30 3400 C 331.643 -6.03528 0.959001 0
M  V30 3401 C 332.641 -6.60293 1.7465 0
M  V30 3402 O 332.329 -7.59586 2.6322 0
M  V30 3403 H 332.061 -0.666772 -0.111313 0
M  V30 3404 H 334.615 -2.02919 0.318277 0
M  V30 3405 H 332.845 -3.40391 -1.83497 0
M  V30 3406 H 334.534 -3.73793 -1.58221 0
M  V30 3407 H 335.3 -4.80483 0.660364 0
M  V30 3408 H 331.179 -4.57771 -0.544633 0
M  V30 3409 H 334.723 -6.60279 2.25116 0
M  V30 3410 H 330.62 -6.37092 1.03848 0
M  V30 3411 H 331.388 -7.77057 2.57148 0
M  V30 3412 N 334.051 0.0651679 -1.57465 0
M  V30 3413 C 334.998 1.07675 -2.04144 0
M  V30 3414 C 335.968 1.38071 -0.923335 0
M  V30 3415 O 337.153 1.49026 -1.19146 0
M  V30 3416 C 334.293 2.38337 -2.49579 0
M  V30 3417 C 333.406 2.14413 -3.75035 0
M  V30 3418 C 332.541 3.38686 -4.09225 0
M  V30 3419 C 331.58 3.10156 -5.27702 0
M  V30 3420 N 330.717 4.26778 -5.57499 0
M  V30 3421 H 335.557 0.671716 -2.90331 0
M  V30 3422 H 333.094 0.3201 -1.43575 0
M  V30 3423 H 335.052 3.14632 -2.73975 0
M  V30 3424 H 333.682 2.7663 -1.6636 0
M  V30 3425 H 332.734 1.2878 -3.57939 0
M  V30 3426 H 334.046 1.89344 -4.61466 0
M  V30 3427 H 333.2 4.23373 -4.34558 0
M  V30 3428 H 331.939 3.66837 -3.21374 0
M  V30 3429 H 330.944 2.23866 -5.02159 0
M  V30 3430 H 332.169 2.8332 -6.17176 0
M  V30 3431 H 330.115 4.54948 -4.72608 0
M  V30 3432 H 330.032 4.05005 -6.38362 0
M  V30 3433 H 331.3 5.12443 -5.87386 0
M  V30 3434 N 335.529 1.53961 0.336706 0
M  V30 3435 C 336.759 1.75229 1.09446 0
M  V30 3436 C 337.167 0.494602 1.82621 0
M  V30 3437 O 336.51 -0.543764 1.75468 0
M  V30 3438 C 336.572 2.88288 2.1478 0
M  V30 3439 C 336.236 4.27656 1.6112 0
M  V30 3440 C 337.233 5.08981 1.0599 0
M  V30 3441 C 334.918 4.74161 1.6576 0
M  V30 3442 C 336.912 6.34916 0.562129 0
M  V30 3443 C 334.599 6.00067 1.15595 0
M  V30 3444 C 335.597 6.80278 0.609147 0
M  V30 3445 O 335.285 8.03818 0.114999 0
M  V30 3446 H 335.017 0.588881 0.331956 0
M  V30 3447 H 337.571 2.01614 0.392566 0
M  V30 3448 H 335.801 2.57443 2.88548 0
M  V30 3449 H 337.49 2.97461 2.76174 0
M  V30 3450 H 338.256 4.74213 1.01722 0
M  V30 3451 H 334.135 4.11781 2.07261 0
M  V30 3452 H 337.679 6.9747 0.134668 0
M  V30 3453 H 333.576 6.3433 1.19566 0
M  V30 3454 H 334.344 8.18172 0.231651 0
M  V30 3455 N 337.007 -0.598083 1.45811 0
M  V30 3456 C 337.937 -1.71873 1.58057 0
M  V30 3457 C 338.918 -1.64533 0.431615 0
M  V30 3458 O 340.103 -1.82787 0.65595 0
M  V30 3459 C 337.233 -3.10495 1.55597 0
M  V30 3460 C 336.187 -3.32654 2.69305 0
M  V30 3461 C 335.513 -4.71646 2.51902 0
M  V30 3462 C 336.813 -3.21981 4.11248 0
M  V30 3463 H 338.507 -1.61881 2.51863 0
M  V30 3464 H 336.053 -0.777372 1.21214 0
M  V30 3465 H 338.006 -3.88699 1.6276 0
M  V30 3466 H 336.73 -3.2135 0.583255 0
M  V30 3467 H 335.389 -2.56843 2.61586 0
M  V30 3468 H 335.037 -4.79246 1.52748 0
M  V30 3469 H 334.737 -4.87426 3.2816 0
M  V30 3470 H 336.261 -5.52038 2.60933 0
M  V30 3471 H 337.675 -3.90049 4.20161 0
M  V30 3472 H 336.072 -3.49289 4.87972 0
M  V30 3473 H 337.142 -2.1928 4.32486 0
M  V30 3474 N 338.485 -1.33259 -0.841409 0
M  V30 3475 C 339.433 -1.23279 -1.97244 0
M  V30 3476 C 340.427 -0.134706 -1.68864 0
M  V30 3477 O 341.633 -0.298501 -1.77508 0
M  V30 3478 H 338.008 -0.382497 -0.647457 0
M  V30 3479 H 339.979 -2.18906 -2.02787 0
M  V30 3480 C 338.728 -0.986268 -3.33419 0
M  V30 3481 H 338.051 -1.82347 -3.55794 0
M  V30 3482 H 339.491 -0.956728 -4.13065 0
M  V30 3483 C 337.95 0.310842 -3.35463 0
M  V30 3484 O 338.48 1.31838 -3.79449 0
M  V30 3485 N 336.686 0.337485 -2.88634 0
M  V30 3486 H 336.233 -0.482967 -2.53032 0
M  V30 3487 H 336.191 1.20518 -2.90384 0
M  V30 3488 N 339.963 1.05934 -1.16686 0
M  V30 3489 C 341.211 1.78447 -0.948744 0
M  V30 3490 C 341.532 1.87813 0.524523 0
M  V30 3491 O 340.802 1.38945 1.38098 0
M  V30 3492 H 339.382 0.660971 -0.348033 0
M  V30 3493 H 342.044 1.27947 -1.47022 0
M  V30 3494 H 341.14 2.80394 -1.37061 0
M  V30 3495 N 341.441 0.965919 1.2453 0
M  V30 3496 C 342.689 0.625593 1.92174 0
M  V30 3497 C 343.01 -0.841652 1.75901 0
M  V30 3498 O 342.28 -1.60061 1.12948 0
M  V30 3499 H 340.86 0.228388 0.71123 0
M  V30 3500 H 343.522 1.2266 1.51461 0
M  V30 3501 H 342.618 0.864653 2.99884 0
M  V30 3502 N 342.919 -1.39368 0.735821 0
M  V30 3503 C 344.33 -1.83313 0.354015 0
M  V30 3504 C 344.681 -1.61461 -1.11466 0
M  V30 3505 O 343.806 -1.10621 -1.85989 0
M  V30 3506 C 344.401 -3.32781 0.635769 0
M  V30 3507 C 342.96 -3.75142 0.307448 0
M  V30 3508 C 342.107 -2.62358 0.897974 0
M  V30 3509 H 345.058 -1.28349 0.933398 0
M  V30 3510 H 345.079 -3.80388 -0.0921773 0
M  V30 3511 H 344.591 -3.48654 1.70476 0
M  V30 3512 H 342.692 -3.64857 -0.755674 0
M  V30 3513 H 342.805 -4.72532 0.790583 0
M  V30 3514 H 341.169 -2.52624 0.324551 0
M  V30 3515 H 341.952 -2.81036 1.97164 0
M  V30 3516 N 344.397 -0.483516 -1.5 0
M  V30 3517 C 345.645 0.067027 -2.01989 0
M  V30 3518 C 345.966 1.3909 -1.36671 0
M  V30 3519 O 345.236 1.88978 -0.516152 0
M  V30 3520 H 343.816 0.0277606 -0.746484 0
M  V30 3521 H 346.478 -0.636773 -1.84204 0
M  V30 3522 H 345.574 0.209484 -3.11396 0
M  V30 3523 N 345.875 1.56104 -0.216619 0
M  V30 3524 C 347.1 2.0301 0.424462 0
M  V30 3525 C 347.525 1.0955 1.52907 0
M  V30 3526 O 346.883 0.0827914 1.81111 0
M  V30 3527 C 346.931 3.4819 0.937883 0
M  V30 3528 O 346.035 3.57865 2.04955 0
M  V30 3529 H 345.376 0.656925 0.0966755 0
M  V30 3530 H 347.906 2.01859 -0.33381 0
M  V30 3531 H 347.916 3.88413 1.24897 0
M  V30 3532 H 346.591 4.15699 0.129387 0
M  V30 3533 H 345.168 3.29527 1.74546 0
M  V30 3534 N 347.353 -0.0568162 1.57498 0
M  V30 3535 C 348.285 -1.09292 2.01464 0
M  V30 3536 C 349.298 -1.34112 0.922913 0
M  V30 3537 O 350.487 -1.32089 1.20062 0
M  V30 3538 C 347.587 -2.44068 2.35125 0
M  V30 3539 C 346.76 -2.38995 3.66333 0
M  V30 3540 C 345.819 -3.55997 3.87495 0
M  V30 3541 O 344.845 -3.36746 4.58901 0
M  V30 3542 N 346.047 -4.76888 3.30996 0
M  V30 3543 H 348.812 -0.718386 2.90963 0
M  V30 3544 H 346.373 -0.245235 1.60032 0
M  V30 3545 H 348.365 -3.21011 2.46443 0
M  V30 3546 H 346.935 -2.73468 1.5144 0
M  V30 3547 H 346.155 -1.47336 3.65631 0
M  V30 3548 H 347.443 -2.3272 4.52458 0
M  V30 3549 H 346.841 -4.95431 2.73065 0
M  V30 3550 H 345.398 -5.51291 3.47738 0
M  V30 3551 N 348.832 -1.54138 -0.328536 0
M  V30 3552 C 349.795 -1.82462 -1.38709 0
M  V30 3553 C 350.795 -0.696229 -1.44946 0
M  V30 3554 O 351.985 -0.964535 -1.4506 0
M  V30 3555 C 349.117 -1.98018 -2.77492 0
M  V30 3556 H 350.31 -2.77037 -1.14851 0
M  V30 3557 H 347.863 -1.45779 -0.563751 0
M  V30 3558 H 348.598 -1.05637 -3.06613 0
M  V30 3559 H 348.383 -2.80124 -2.74359 0
M  V30 3560 H 349.873 -2.21396 -3.54081 0
M  V30 3561 N 350.31 0.590341 -1.46126 0
M  V30 3562 C 351.557 1.34882 -1.5104 0
M  V30 3563 C 351.885 1.93849 -0.159021 0
M  V30 3564 O 351.14 1.76544 0.844436 0
M  V30 3565 C 351.439 2.5032 -2.55097 0
M  V30 3566 C 351.105 2.09394 -3.99331 0
M  V30 3567 C 349.767 1.97947 -4.38601 0
M  V30 3568 C 352.119 1.77712 -4.89967 0
M  V30 3569 C 349.447 1.53065 -5.66381 0
M  V30 3570 C 351.799 1.34312 -6.18177 0
M  V30 3571 C 350.463 1.21436 -6.56361 0
M  V30 3572 H 349.733 0.493568 -0.552695 0
M  V30 3573 H 352.38 0.665539 -1.79563 0
M  V30 3574 H 350.685 3.24062 -2.20207 0
M  V30 3575 H 352.382 3.08541 -2.56132 0
M  V30 3576 H 348.972 2.19235 -3.68285 0
M  V30 3577 H 353.156 1.85445 -4.60352 0
M  V30 3578 H 348.412 1.41733 -5.94745 0
M  V30 3579 H 352.586 1.08849 -6.87841 0
M  V30 3580 H 350.213 0.864345 -7.5527 0
M  V30 3581 N 351.788 1.33704 0.83433 0
M  V30 3582 C 353.034 1.25603 1.59222 0
M  V30 3583 C 353.367 -0.176659 1.93395 0
M  V30 3584 O 352.642 -1.11915 1.59076 0
M  V30 3585 C 352.925 2.13576 2.89926 0
M  V30 3586 C 352.778 3.65326 2.62406 0
M  V30 3587 C 354.097 2.01238 3.91397 0
M  V30 3588 H 351.216 0.457613 0.577719 0
M  V30 3589 H 353.858 1.63848 0.961972 0
M  V30 3590 H 352.008 1.8109 3.43713 0
M  V30 3591 H 353.68 4.08124 2.15017 0
M  V30 3592 H 351.923 3.8698 1.96033 0
M  V30 3593 H 352.594 4.22232 3.55562 0
M  V30 3594 H 355.07 2.29738 3.46929 0
M  V30 3595 H 353.946 2.65036 4.80673 0
M  V30 3596 H 354.207 0.985951 4.30966 0
M  V30 3597 N 353.266 -1.05314 1.17247 0
M  V30 3598 C 354.512 -1.78699 0.971513 0
M  V30 3599 C 354.867 -1.85932 -0.494692 0
M  V30 3600 O 354.16 -1.34716 -1.36243 0
M  V30 3601 C 354.354 -3.2229 1.54479 0
M  V30 3602 C 354.183 -3.29052 3.06521 0
M  V30 3603 C 352.953 -3.3841 3.75242 0
M  V30 3604 C 355.151 -3.18095 4.04129 0
M  V30 3605 N 353.133 -3.34289 5.14902 0
M  V30 3606 C 354.504 -3.21331 5.30232 0
M  V30 3607 C 356.559 -3.02049 3.95817 0
M  V30 3608 C 355.262 -3.10169 6.4899 0
M  V30 3609 C 357.288 -2.92228 5.14156 0
M  V30 3610 C 356.65 -2.96096 6.39145 0
M  V30 3611 H 352.749 -0.66628 0.409383 0
M  V30 3612 H 355.333 -1.25553 1.4881 0
M  V30 3613 H 353.504 -3.7381 1.05455 0
M  V30 3614 H 355.236 -3.83905 1.28059 0
M  V30 3615 H 351.991 -3.43621 3.25917 0
M  V30 3616 H 352.415 -3.35702 5.87906 0
M  V30 3617 H 357.057 -2.97897 3.00029 0
M  V30 3618 H 354.775 -3.13076 7.44989 0
M  V30 3619 H 358.361 -2.80885 5.09505 0
M  V30 3620 H 357.241 -2.88568 7.29176 0
M  V30 3621 N 354.744 -0.972509 -1.24016 0
M  V30 3622 C 355.99 -0.637978 -1.92504 0
M  V30 3623 C 356.323 0.825383 -1.75787 0
M  V30 3624 O 355.598 1.59442 -1.11393 0
M  V30 3625 C 355.881 -1.01942 -3.45369 0
M  V30 3626 C 355.734 -2.53983 -3.71231 0
M  V30 3627 C 357.053 -0.55751 -4.36555 0
M  V30 3628 H 354.172 -0.233248 -0.699117 0
M  V30 3629 H 356.814 -1.21238 -1.46292 0
M  V30 3630 H 354.964 -0.530656 -3.84859 0
M  V30 3631 H 356.636 -3.10374 -3.41271 0
M  V30 3632 H 354.879 -2.96968 -3.16216 0
M  V30 3633 H 355.55 -2.75723 -4.78206 0
M  V30 3634 H 358.026 -0.977029 -4.04467 0
M  V30 3635 H 356.902 -0.85292 -5.42233 0
M  V30 3636 H 357.163 0.542328 -4.38761 0
M  V30 3637 N 356.222 1.38976 -0.743202 0
M  V30 3638 C 357.447 2.05161 -0.303936 0
M  V30 3639 C 357.872 1.55677 1.05576 0
M  V30 3640 O 357.23 0.704131 1.67068 0
M  V30 3641 C 357.278 3.59138 -0.324373 0
M  V30 3642 O 356.382 4.06668 0.685204 0
M  V30 3643 H 355.723 0.649815 -0.136518 0
M  V30 3644 H 358.253 1.77852 -1.01142 0
M  V30 3645 H 358.263 4.07639 -0.171618 0
M  V30 3646 H 356.938 3.94515 -1.31647 0
M  V30 3647 H 355.515 3.69561 0.497913 0
M  V30 3648 N 357.7 0.491464 1.49741 0
M  V30 3649 C 359.111 0.0413169 1.86654 0
M  V30 3650 C 359.462 -1.36985 1.40462 0
M  V30 3651 O 358.587 -2.01917 0.778354 0
M  V30 3652 C 359.182 0.0682023 3.38731 0
M  V30 3653 C 357.741 -0.32656 3.74981 0
M  V30 3654 C 356.888 0.444888 2.73708 0
M  V30 3655 H 359.839 0.704733 1.42194 0
M  V30 3656 H 359.86 -0.729322 3.73445 0
M  V30 3657 H 359.372 1.09539 3.72321 0
M  V30 3658 H 357.473 -1.35734 3.46997 0
M  V30 3659 H 357.586 -0.013741 4.79098 0
M  V30 3660 H 355.95 -0.104062 2.54487 0
M  V30 3661 H 356.733 1.47197 3.10142 0
M  V30 3662 N 359.178 -1.55987 0.224894 0
M  V30 3663 C 360.11 -2.17722 -0.716224 0
M  V30 3664 C 361.123 -1.14723 -1.15509 0
M  V30 3665 O 362.312 -1.41688 -1.08567 0
M  V30 3666 C 359.412 -2.74873 -1.98238 0
M  V30 3667 C 358.585 -4.03074 -1.69853 0
M  V30 3668 C 357.644 -4.44757 -2.81208 0
M  V30 3669 O 356.67 -5.11587 -2.49534 0
M  V30 3670 N 357.872 -4.10716 -4.10235 0
M  V30 3671 H 360.637 -2.99109 -0.188123 0
M  V30 3672 H 358.198 -1.6184 0.0440123 0
M  V30 3673 H 360.19 -2.99727 -2.7193 0
M  V30 3674 H 358.76 -1.9777 -2.42086 0
M  V30 3675 H 357.98 -3.86041 -0.797875 0
M  V30 3676 H 359.268 -4.86701 -1.48324 0
M  V30 3677 H 358.666 -3.57019 -4.38809 0
M  V30 3678 H 357.223 -4.40455 -4.80461 0
M  V30 3679 N 360.656 0.0484629 -1.57525 0
M  V30 3680 C 361.586 1.0549 -2.08313 0
M  V30 3681 C 362.567 1.38929 -0.981463 0
M  V30 3682 O 363.752 1.48151 -1.25558 0
M  V30 3683 C 360.882 2.36162 -2.54646 0
M  V30 3684 C 359.836 2.17016 -3.68901 0
M  V30 3685 C 359.162 3.53278 -4.01371 0
M  V30 3686 C 360.462 1.57219 -4.98076 0
M  V30 3687 H 362.156 0.632195 -2.92649 0
M  V30 3688 H 359.702 0.302654 -1.40784 0
M  V30 3689 H 361.655 3.06882 -2.88793 0
M  V30 3690 H 360.379 2.80456 -1.67368 0
M  V30 3691 H 359.038 1.48733 -3.35073 0
M  V30 3692 H 358.686 3.95185 -3.11188 0
M  V30 3693 H 358.386 3.41299 -4.78318 0
M  V30 3694 H 359.91 4.25391 -4.38035 0
M  V30 3695 H 361.324 2.17832 -5.30304 0
M  V30 3696 H 359.721 1.55871 -5.79503 0
M  V30 3697 H 360.791 0.535956 -4.81929 0
M  V30 3698 N 362.134 1.5431 0.320358 0
M  V30 3699 C 363.374 1.74395 1.0661 0
M  V30 3700 C 363.738 0.508602 1.85141 0
M  V30 3701 O 364.939 0.586856 2.62316 0
M  V30 3702 C 363.21 2.98619 1.96371 0
M  V30 3703 S 364.769 3.39621 2.77854 0
M  V30 3704 H 361.587 0.613204 0.359863 0
M  V30 3705 H 364.189 1.9249 0.341727 0
M  V30 3706 H 362.893 3.86673 1.3752 0
M  V30 3707 H 362.424 2.83055 2.73209 0
M  V30 3708 H 364.439 2.95172 3.98858 0
M  V30 3709 N 363.613 -0.582584 1.46437 0
M  V30 3710 C 364.89 -1.34276 1.4223 0
M  V30 3711 C 365.27 -2.10835 0.10583 0
M  V30 3712 O 364.618 -2.09485 -0.912596 0
M  V30 3713 C 364.828 -2.26865 2.65204 0
M  V30 3714 C 366.176 -2.88691 3.11356 0
M  V30 3715 O 367.2 -2.37178 2.65753 0
M  V30 3716 O 366.059 -3.82255 3.90568 0
M  V30 3717 H 363.153 -0.603326 0.565621 0
M  V30 3718 H 365.699 -0.603591 1.58603 0
M  V30 3719 H 364.471 -1.69724 3.52576 0
M  V30 3720 H 364.094 -3.08122 2.5129 0
M  V30 3721 N 365.091 -1.34144 -0.827227 0
M  V30 3722 C 366.021 -1.28005 -1.95287 0
M  V30 3723 C 367.002 -0.158321 -1.69362 0
M  V30 3724 O 368.187 -0.349987 -1.9102 0
M  V30 3725 C 365.317 -1.03036 -3.31664 0
M  V30 3726 C 364.271 -2.11628 -3.72019 0
M  V30 3727 C 363.597 -1.71854 -5.0633 0
M  V30 3728 C 364.897 -3.53417 -3.8457 0
M  V30 3729 H 366.591 -2.22187 -2.00682 0
M  V30 3730 H 364.137 -1.0696 -0.964135 0
M  V30 3731 H 366.09 -0.973863 -4.09993 0
M  V30 3732 H 364.814 -0.0529391 -3.26557 0
M  V30 3733 H 363.473 -2.16339 -2.95961 0
M  V30 3734 H 363.121 -0.727841 -4.97706 0
M  V30 3735 H 362.821 -2.44531 -5.34302 0
M  V30 3736 H 364.345 -1.67692 -5.87122 0
M  V30 3737 H 365.759 -3.51142 -4.5318 0
M  V30 3738 H 364.156 -4.24679 -4.2399 0
M  V30 3739 H 365.226 -3.91072 -2.86689 0
M  V30 3740 N 366.569 1.04691 -1.17803 0
M  V30 3741 C 367.815 1.78045 -0.970969 0
M  V30 3742 C 368.148 1.87686 0.498751 0
M  V30 3743 O 367.423 1.38035 1.37027 0
M  V30 3744 C 367.706 3.2166 -1.61884 0
M  V30 3745 C 367.559 3.20001 -3.161 0
M  V30 3746 C 368.878 4.1962 -1.3269 0
M  V30 3747 H 365.997 0.64633 -0.354155 0
M  V30 3748 H 368.639 1.22333 -1.45378 0
M  V30 3749 H 366.789 3.69232 -1.20831 0
M  V30 3750 H 368.461 2.80467 -3.66246 0
M  V30 3751 H 366.704 2.58203 -3.48588 0
M  V30 3752 H 367.375 4.21386 -3.56564 0
M  V30 3753 H 369.851 3.80567 -1.68249 0
M  V30 3754 H 368.727 5.18339 -1.80599 0
M  V30 3755 H 368.988 4.414 -0.248622 0
M  V30 3756 N 368.047 0.979072 1.23499 0
M  V30 3757 C 369.458 0.684391 1.73704 0
M  V30 3758 C 369.809 -0.799448 1.79174 0
M  V30 3759 O 368.934 -1.62531 1.42873 0
M  V30 3760 C 369.529 1.23564 3.15464 0
M  V30 3761 C 368.088 0.99063 3.6313 0
M  V30 3762 C 367.235 1.36416 2.41425 0
M  V30 3763 H 370.186 1.15307 1.09041 0
M  V30 3764 H 370.207 0.607417 3.7562 0
M  V30 3765 H 369.719 2.31561 3.1145 0
M  V30 3766 H 367.82 -0.0733136 3.72528 0
M  V30 3767 H 367.933 1.64427 4.5 0
M  V30 3768 H 366.297 0.782616 2.42378 0
M  V30 3769 H 367.08 2.45387 2.40083 0
M  V30 3770 N 369.525 -1.3858 0.750561 0
M  V30 3771 C 370.457 -2.29057 0.0810714 0
M  V30 3772 C 371.47 -1.47596 -0.686973 0
M  V30 3773 O 372.659 -1.70495 -0.528563 0
M  V30 3774 C 369.759 -3.26475 -0.909247 0
M  V30 3775 C 368.932 -4.36945 -0.199478 0
M  V30 3776 C 367.991 -5.14572 -1.10011 0
M  V30 3777 O 367.017 -5.66321 -0.57177 0
M  V30 3778 N 368.219 -5.27262 -2.42849 0
M  V30 3779 H 370.984 -2.87153 0.858087 0
M  V30 3780 H 368.545 -1.50328 0.60109 0
M  V30 3781 H 370.537 -3.75285 -1.51471 0
M  V30 3782 H 369.107 -2.69298 -1.58736 0
M  V30 3783 H 368.327 -3.8981 0.586664 0
M  V30 3784 H 369.615 -5.07963 0.291783 0
M  V30 3785 H 369.013 -4.86763 -2.88233 0
M  V30 3786 H 367.57 -5.79456 -2.98453 0
M  V30 3787 N 371.003 -0.499398 -1.49478 0
M  V30 3788 C 372.414 -0.051215 -1.8663 0
M  V30 3789 C 372.765 1.36238 -1.41186 0
M  V30 3790 O 371.89 2.01502 -0.789051 0
M  V30 3791 C 372.485 -0.0861651 -3.3869 0
M  V30 3792 C 371.044 0.30667 -3.75149 0
M  V30 3793 C 370.191 -0.459397 -2.73468 0
M  V30 3794 H 373.142 -0.712264 -1.41818 0
M  V30 3795 H 373.163 0.709507 -3.73826 0
M  V30 3796 H 372.675 -1.11512 -3.71735 0
M  V30 3797 H 370.776 1.33892 -3.47712 0
M  V30 3798 H 370.889 -0.0116669 -4.79099 0
M  V30 3799 H 369.253 0.0905645 -2.54539 0
M  V30 3800 H 370.036 -1.4884 -3.09357 0
M  V30 3801 N 372.481 1.55866 -0.233164 0
M  V30 3802 C 373.411 2.23783 0.666599 0
M  V30 3803 C 374.392 1.21343 1.19205 0
M  V30 3804 O 375.577 1.4996 1.23392 0
M  V30 3805 C 372.707 2.92671 1.86978 0
M  V30 3806 C 371.661 4.01682 1.47768 0
M  V30 3807 C 370.987 4.57926 2.76058 0
M  V30 3808 C 372.287 5.18126 0.658993 0
M  V30 3809 H 373.981 2.99232 0.100306 0
M  V30 3810 H 371.527 1.43924 0.046804 0
M  V30 3811 H 373.48 3.3888 2.50476 0
M  V30 3812 H 372.204 2.14688 2.46123 0
M  V30 3813 H 370.863 3.56222 0.866106 0
M  V30 3814 H 370.511 3.76659 3.33372 0
M  V30 3815 H 370.211 5.31505 2.50552 0
M  V30 3816 H 371.735 5.06859 3.40479 0
M  V30 3817 H 373.149 5.60644 1.19795 0
M  V30 3818 H 371.546 5.98009 0.500552 0
M  V30 3819 H 372.616 4.83763 -0.331856 0
M  V30 3820 N 373.959 -0.0401083 1.57549 0
M  V30 3821 C 375.184 -0.748931 1.93406 0
M  V30 3822 C 375.609 -1.68686 0.832274 0
M  V30 3823 O 374.967 -1.80047 -0.212818 0
M  V30 3824 C 375.015 -1.4916 3.28304 0
M  V30 3825 O 374.119 -2.6042 3.19774 0
M  V30 3826 H 373.46 -0.202212 0.63246 0
M  V30 3827 H 375.99 0.00112086 2.046 0
M  V30 3828 H 376 -1.86395 3.62934 0
M  V30 3829 H 374.675 -0.80364 4.08062 0
M  V30 3830 H 373.252 -2.25808 2.96758 0
M  V30 3831 N 375.437 -1.54477 -0.31217 0
M  V30 3832 C 376.685 -1.72884 -1.04668 0
M  V30 3833 C 377.006 -0.511477 -1.88173 0
M  V30 3834 O 376.276 0.474407 -1.90069 0
M  V30 3835 H 374.856 -0.637461 -0.389425 0
M  V30 3836 H 377.518 -1.91807 -0.345852 0
M  V30 3837 H 376.614 -2.61334 -1.70619 0
M  V30 3838 N 376.915 0.57481 -1.46744 0
M  V30 3839 C 378.161 1.33251 -1.53674 0
M  V30 3840 C 378.516 1.91468 -0.189125 0
M  V30 3841 O 377.809 1.73954 0.803151 0
M  V30 3842 C 378.003 2.476 -2.57738 0
M  V30 3843 C 377.832 2.00586 -4.02487 0
M  V30 3844 C 376.602 1.85237 -4.70123 0
M  V30 3845 C 378.8 1.56078 -4.90045 0
M  V30 3846 N 376.782 1.32377 -5.99458 0
M  V30 3847 C 378.153 1.14863 -6.09267 0
M  V30 3848 C 380.208 1.43968 -4.76632 0
M  V30 3849 C 378.911 0.627435 -7.16558 0
M  V30 3850 C 380.937 0.932512 -5.84002 0
M  V30 3851 C 380.299 0.53019 -7.02402 0
M  V30 3852 H 376.398 0.480284 -0.617131 0
M  V30 3853 H 378.982 0.653592 -1.83402 0
M  V30 3854 H 377.153 3.13045 -2.29907 0
M  V30 3855 H 378.885 3.14567 -2.54616 0
M  V30 3856 H 375.64 2.07423 -4.25761 0
M  V30 3857 H 376.064 1.08085 -6.68316 0
M  V30 3858 H 380.706 1.73689 -3.85476 0
M  V30 3859 H 378.424 0.317821 -8.07475 0
M  V30 3860 H 382.01 0.842611 -5.75666 0
M  V30 3861 H 380.89 0.14381 -7.84068 0
M  V30 3862 N 378.394 1.34581 0.820102 0
M  V30 3863 C 379.641 1.27096 1.57648 0
M  V30 3864 C 379.969 -0.158317 1.93855 0
M  V30 3865 O 379.224 -1.12028 1.60463 0
M  V30 3866 C 379.523 2.10997 2.8847 0
M  V30 3867 C 379.189 3.59966 2.71543 0
M  V30 3868 C 377.851 4.00575 2.66634 0
M  V30 3869 C 380.203 4.54548 2.55021 0
M  V30 3870 C 377.531 5.33953 2.43128 0
M  V30 3871 C 379.883 5.88109 2.33047 0
M  V30 3872 C 378.547 6.27878 2.26552 0
M  V30 3873 H 377.817 0.465078 0.576874 0
M  V30 3874 H 380.464 1.6635 0.948671 0
M  V30 3875 H 378.769 1.6458 3.55557 0
M  V30 3876 H 380.466 2.0255 3.46084 0
M  V30 3877 H 377.056 3.27733 2.76205 0
M  V30 3878 H 381.24 4.24069 2.57835 0
M  V30 3879 H 376.496 5.63781 2.3656 0
M  V30 3880 H 380.67 6.60985 2.19251 0
M  V30 3881 H 378.297 7.31162 2.081 0
M  V30 3882 N 379.872 -1.04064 1.18357 0
M  V30 3883 C 381.12 -1.76915 0.977013 0
M  V30 3884 C 381.441 -1.88624 -0.494577 0
M  V30 3885 O 380.711 -1.41125 -1.3587 0
M  V30 3886 H 379.291 -0.65535 0.358504 0
M  V30 3887 H 381.953 -1.25592 1.49039 0
M  V30 3888 H 381.049 -2.78178 1.41504 0
M  V30 3889 N 381.35 -0.985608 -1.22978 0
M  V30 3890 C 382.3 -0.50118 -2.22423 0
M  V30 3891 C 383.284 0.426649 -1.5514 0
M  V30 3892 O 384.476 0.254656 -1.75159 0
M  V30 3893 C 381.605 0.190003 -3.42774 0
M  V30 3894 C 380.691 -0.757703 -4.17276 0
M  V30 3895 N 381.082 -1.90251 -4.68656 0
M  V30 3896 C 379.38 -0.57209 -4.42316 0
M  V30 3897 C 380.081 -2.49676 -5.25392 0
M  V30 3898 N 379.057 -1.78013 -5.13627 0
M  V30 3899 H 382.859 -1.37441 -2.59783 0
M  V30 3900 H 380.373 -0.846941 -1.38567 0
M  V30 3901 H 382.37 0.55439 -4.13197 0
M  V30 3902 H 381.03 1.05946 -3.06929 0
M  V30 3903 H 382.041 -2.28354 -4.64839 0
M  V30 3904 H 378.718 0.251909 -4.16739 0
M  V30 3905 H 380.108 -3.46384 -5.75732 0
M  V30 3906 N 382.828 1.3818 -0.7579 0
M  V30 3907 C 384.053 2.04827 -0.325679 0
M  V30 3908 C 384.478 1.56788 1.03919 0
M  V30 3909 O 383.836 0.721811 1.66312 0
M  V30 3910 C 383.884 3.58774 -0.362447 0
M  V30 3911 O 382.988 4.07372 0.642033 0
M  V30 3912 H 382.329 0.64833 -0.143402 0
M  V30 3913 H 384.859 1.7677 -1.03023 0
M  V30 3914 H 384.869 4.07434 -0.214844 0
M  V30 3915 H 383.544 3.93096 -1.35824 0
M  V30 3916 H 382.121 3.70068 0.458688 0
M  V30 3917 N 384.306 0.507319 1.49211 0
M  V30 3918 C 385.722 0.163682 1.58758 0
M  V30 3919 C 385.922 -1.33208 1.51188 0
M  V30 3920 O 384.978 -2.10855 1.38911 0
M  V30 3921 C 386.291 0.746095 2.91297 0
M  V30 3922 C 387.839 0.712773 3.04776 0
M  V30 3923 C 388.314 1.27336 4.39943 0
M  V30 3924 N 389.805 1.23433 4.46451 0
M  V30 3925 C 390.54 1.63821 5.495 0
M  V30 3926 N 390.036 2.11832 6.5962 0
M  V30 3927 N 391.829 1.55198 5.4025 0
M  V30 3928 H 383.98 1.47972 1.52375 0
M  V30 3929 H 386.243 0.614147 0.722168 0
M  V30 3930 H 385.949 1.79534 3.02424 0
M  V30 3931 H 385.823 0.210137 3.76614 0
M  V30 3932 H 388.21 -0.327656 2.93275 0
M  V30 3933 H 388.291 1.28595 2.21127 0
M  V30 3934 H 387.935 2.3126 4.52196 0
M  V30 3935 H 387.865 0.676066 5.22242 0
M  V30 3936 H 390.356 0.882627 3.67448 0
M  V30 3937 H 390.669 2.40703 7.34358 0
M  V30 3938 H 389.014 2.1581 6.60644 0
M  V30 3939 H 392.205 1.17505 4.53112 0
M  V30 3940 H 392.378 1.86997 6.20432 0
M  V30 3941 N 385.784 -1.5574 0.241426 0
M  V30 3942 C 386.716 -2.18469 -0.693091 0
M  V30 3943 C 387.729 -1.15942 -1.14286 0
M  V30 3944 O 388.918 -1.42832 -1.07058 0
M  V30 3945 C 386.018 -2.7696 -1.95311 0
M  V30 3946 C 385.191 -4.04853 -1.65568 0
M  V30 3947 C 384.25 -4.47715 -2.76474 0
M  V30 3948 O 383.276 -5.14205 -2.44094 0
M  V30 3949 N 384.478 -4.15044 -4.05855 0
M  V30 3950 H 387.243 -2.99292 -0.156388 0
M  V30 3951 H 384.804 -1.61784 0.0611752 0
M  V30 3952 H 386.796 -3.02594 -2.68736 0
M  V30 3953 H 385.366 -2.00326 -2.39975 0
M  V30 3954 H 384.586 -3.86865 -0.756886 0
M  V30 3955 H 385.874 -4.88246 -1.43153 0
M  V30 3956 H 385.272 -3.61654 -4.34998 0
M  V30 3957 H 383.829 -4.45526 -4.75762 0
M  V30 3958 N 387.262 0.0317525 -1.57568 0
M  V30 3959 C 388.509 0.723104 -1.89149 0
M  V30 3960 C 388.837 1.75504 -0.838377 0
M  V30 3961 O 388.092 1.95037 0.160982 0
M  V30 3962 C 388.391 1.43167 -3.27472 0
M  V30 3963 C 388.057 0.535972 -4.47703 0
M  V30 3964 C 386.719 0.289262 -4.8033 0
M  V30 3965 C 389.071 -0.0826125 -5.21135 0
M  V30 3966 C 386.399 -0.584853 -5.83778 0
M  V30 3967 C 388.751 -0.944414 -6.25511 0
M  V30 3968 C 387.415 -1.20061 -6.56614 0
M  V30 3969 H 386.685 0.264602 -0.692146 0
M  V30 3970 H 389.332 -0.0169496 -1.91492 0
M  V30 3971 H 387.637 2.24497 -3.21105 0
M  V30 3972 H 389.334 1.97209 -3.49155 0
M  V30 3973 H 385.924 0.738414 -4.22191 0
M  V30 3974 H 390.108 0.0950302 -4.96209 0
M  V30 3975 H 385.364 -0.79168 -6.06253 0
M  V30 3976 H 389.538 -1.43026 -6.81554 0
M  V30 3977 H 387.165 -1.87967 -7.36595 0
M  V30 3978 N 388.74 1.54641 0.303973 0
M  V30 3979 C 389.703 1.84646 1.35789 0
M  V30 3980 C 390.703 0.7192 1.4382 0
M  V30 3981 O 391.893 0.987491 1.43507 0
M  V30 3982 C 389.025 2.02407 2.74307 0
M  V30 3983 H 390.218 2.78829 1.10429 0
M  V30 3984 H 387.771 1.46658 0.540487 0
M  V30 3985 H 388.506 1.10502 3.04893 0
M  V30 3986 H 388.291 2.84453 2.69868 0
M  V30 3987 H 389.781 2.27002 3.50514 0
M  V30 3988 N 390.218 -0.567019 1.47046 0
M  V30 3989 C 391.151 -1.69016 1.53326 0
M  V30 3990 C 392.129 -1.57949 0.386126 0
M  V30 3991 O 393.313 -1.78945 0.592529 0
M  V30 3992 C 390.44 -3.07191 1.42658 0
M  V30 3993 C 389.486 -3.36733 2.6175 0
M  V30 3994 S 390.319 -3.27069 4.24012 0
M  V30 3995 C 391.475 -4.67755 4.1588 0
M  V30 3996 H 391.708 -1.63434 2.48348 0
M  V30 3997 H 389.241 -0.747048 1.35124 0
M  V30 3998 H 391.199 -3.86897 1.37191 0
M  V30 3999 H 389.86 -3.10249 0.490369 0
M  V30 4000 H 389.053 -4.37441 2.50323 0
M  V30 4001 H 388.655 -2.64627 2.64289 0
M  V30 4002 H 390.947 -5.58491 3.83529 0
M  V30 4003 H 391.89 -4.84239 5.16641 0
M  V30 4004 H 392.298 -4.45341 3.46889 0
M  V30 4005 N 391.696 -1.35014 -0.812953 0
M  V30 4006 C 392.606 -1.2951 -1.95613 0
M  V30 4007 C 393.622 -0.20107 -1.72834 0
M  V30 4008 O 394.798 -0.42932 -1.96771 0
M  V30 4009 C 391.863 -1.06033 -3.30088 0
M  V30 4010 C 390.924 -2.24688 -3.65805 0
M  V30 4011 C 390.157 -2.02322 -4.93864 0
M  V30 4012 O 390.38 -0.986464 -5.61805 0
M  V30 4013 O 389.314 -2.89525 -5.27692 0
M  V30 4014 H 393.14 -2.25705 -2.03202 0
M  V30 4015 H 390.725 -1.15321 -0.949811 0
M  V30 4016 H 392.607 -0.94763 -4.10607 0
M  V30 4017 H 391.282 -0.128852 -3.23443 0
M  V30 4018 H 390.189 -2.41521 -2.85689 0
M  V30 4019 H 391.522 -3.16261 -3.77147 0
M  V30 4020 N 393.175 1.03435 -1.18907 0
M  V30 4021 C 394.586 1.58195 -0.991523 0
M  V30 4022 C 394.937 1.90801 0.457081 0
M  V30 4023 O 394.062 1.70272 1.33553 0
M  V30 4024 C 394.657 2.87432 -1.79355 0
M  V30 4025 C 393.216 3.38785 -1.64017 0
M  V30 4026 C 392.363 2.12292 -1.78402 0
M  V30 4027 H 395.314 0.860299 -1.33359 0
M  V30 4028 H 395.335 3.58096 -1.28638 0
M  V30 4029 H 394.847 2.63669 -2.84781 0
M  V30 4030 H 392.948 3.67547 -0.611536 0
M  V30 4031 H 393.061 4.12186 -2.44212 0
M  V30 4032 H 391.425 2.23901 -1.2141 0
M  V30 4033 H 392.208 1.90977 -2.85277 0
M  V30 4034 N 394.653 0.992116 1.22453 0
M  V30 4035 C 396.069 0.702713 1.43297 0
M  V30 4036 C 396.269 -0.726909 1.87932 0
M  V30 4037 O 395.325 -1.49792 2.0327 0
M  V30 4038 C 396.638 1.70762 2.47509 0
M  V30 4039 C 398.186 1.72298 2.61309 0
M  V30 4040 C 398.661 2.71649 3.68742 0
M  V30 4041 N 400.152 2.70239 3.76199 0
M  V30 4042 C 400.887 3.43778 4.58917 0
M  V30 4043 N 400.383 4.26914 5.45633 0
M  V30 4044 N 402.176 3.32487 4.5322 0
M  V30 4045 H 394.327 1.91543 0.917871 0
M  V30 4046 H 396.59 0.826031 0.465162 0
M  V30 4047 H 396.296 2.73059 2.21657 0
M  V30 4048 H 396.17 1.49985 3.46099 0
M  V30 4049 H 398.557 0.706989 2.86506 0
M  V30 4050 H 398.638 1.97143 1.62997 0
M  V30 4051 H 398.282 3.73397 3.44292 0
M  V30 4052 H 398.212 2.44074 4.66622 0
M  V30 4053 H 400.703 2.09912 3.14237 0
M  V30 4054 H 401.016 4.79855 6.05771 0
M  V30 4055 H 399.361 4.31002 5.45218 0
M  V30 4056 H 402.552 2.6698 3.84499 0
M  V30 4057 H 402.725 3.90058 5.17454 0
M  V30 4058 N 396.131 -1.37776 0.765217 0
M  V30 4059 C 397.361 -2.03828 0.337277 0
M  V30 4060 C 397.769 -1.57841 -1.04321 0
M  V30 4061 O 397.112 -0.752043 -1.67601 0
M  V30 4062 C 397.174 -3.58292 0.294407 0
M  V30 4063 C 396.838 -4.27384 1.61838 0
M  V30 4064 C 397.835 -4.51956 2.56967 0
M  V30 4065 C 395.52 -4.65345 1.89102 0
M  V30 4066 C 397.514 -5.13536 3.77571 0
M  V30 4067 C 395.201 -5.26647 3.09978 0
M  V30 4068 C 396.199 -5.50679 4.04032 0
M  V30 4069 O 395.887 -6.10702 5.2278 0
M  V30 4070 H 395.619 -0.661292 0.140248 0
M  V30 4071 H 398.173 -1.77222 1.03834 0
M  V30 4072 H 396.403 -3.83918 -0.462983 0
M  V30 4073 H 398.092 -4.05763 -0.105581 0
M  V30 4074 H 398.858 -4.23048 2.37183 0
M  V30 4075 H 394.737 -4.45978 1.16725 0
M  V30 4076 H 398.281 -5.3221 4.50997 0
M  V30 4077 H 394.178 -5.54979 3.29649 0
M  V30 4078 H 394.946 -6.29183 5.23517 0
M  V30 4079 N 397.609 -0.515225 -1.4894 0
M  V30 4080 C 398.519 0.259774 -2.33157 0
M  V30 4081 C 399.535 0.953501 -1.45548 0
M  V30 4082 O 400.711 0.931735 -1.78552 0
M  V30 4083 C 397.776 1.30193 -3.21326 0
M  V30 4084 C 396.837 0.620129 -4.24797 0
M  V30 4085 C 396.07 1.61263 -5.08753 0
M  V30 4086 O 396.293 2.84389 -4.94448 0
M  V30 4087 O 395.227 1.16013 -5.90614 0
M  V30 4088 H 399.053 -0.429932 -3.00641 0
M  V30 4089 H 396.638 -0.276346 -1.46822 0
M  V30 4090 H 398.52 1.90455 -3.75905 0
M  V30 4091 H 397.195 1.97431 -2.56521 0
M  V30 4092 H 396.102 -0.0226019 -3.74093 0
M  V30 4093 H 397.435 -0.0100493 -4.92199 0
M  V30 4094 N 399.087 1.5561 -0.249682 0
M  V30 4095 C 400.498 1.84979 0.252949 0
M  V30 4096 C 400.849 1.17153 1.57384 0
M  V30 4097 O 399.974 0.450884 2.11651 0
M  V30 4098 C 400.569 3.35584 0.465732 0
M  V30 4099 C 399.128 3.65169 0.912624 0
M  V30 4100 C 398.275 2.77299 -0.00859085 0
M  V30 4101 H 401.226 1.51513 -0.47217 0
M  V30 4102 H 401.247 3.57313 1.30795 0
M  V30 4103 H 400.759 3.8492 -0.49579 0
M  V30 4104 H 398.86 3.21312 1.88652 0
M  V30 4105 H 398.973 4.72912 0.767559 0
M  V30 4106 H 397.337 2.49678 0.50327 0
M  V30 4107 H 398.12 3.29442 -0.965537 0
M  V30 4108 N 400.565 -0.0233959 1.57583 0
M  V30 4109 C 401.79 -0.728376 1.94189 0
M  V30 4110 C 402.215 -1.67793 0.850119 0
M  V30 4111 O 401.573 -1.80262 -0.19371 0
M  V30 4112 C 401.621 -1.45669 3.29868 0
M  V30 4113 O 400.725 -2.57013 3.22518 0
M  V30 4114 H 400.066 -0.195493 0.63457 0
M  V30 4115 H 402.596 0.0228214 2.04587 0
M  V30 4116 H 402.606 -1.82535 3.6489 0
M  V30 4117 H 401.281 -0.760314 4.08891 0
M  V30 4118 H 399.858 -2.22648 2.99136 0
M  V30 4119 N 402.043 -1.548 -0.295768 0
M  V30 4120 C 402.991 -1.86874 -1.38495 0
M  V30 4121 C 403.985 -0.742938 -1.52239 0
M  V30 4122 O 405.191 -0.926999 -1.54294 0
M  V30 4123 H 401.566 -0.592786 -0.462719 0
M  V30 4124 H 403.537 -2.77904 -1.08682 0
M  V30 4125 C 402.286 -2.13732 -2.74252 0
M  V30 4126 H 401.609 -2.99835 -2.64459 0
M  V30 4127 H 403.049 -2.4011 -3.49461 0
M  V30 4128 C 401.508 -0.937539 -3.23592 0
M  V30 4129 O 402.038 -0.160665 -4.01379 0
M  V30 4130 N 400.244 -0.741478 -2.80981 0
M  V30 4131 H 399.791 -1.37489 -2.1784 0
M  V30 4132 H 399.749 0.0597103 -3.14343 0
M  V30 4133 N 403.521 0.559213 -1.47345 0
M  V30 4134 C 404.769 1.31388 -1.53563 0
M  V30 4135 C 405.09 1.93985 -0.198678 0
M  V30 4136 O 404.36 1.79825 0.777167 0
M  V30 4137 H 402.94 0.487901 -0.565652 0
M  V30 4138 H 405.602 0.65315 -1.8363 0
M  V30 4139 H 404.698 2.10844 -2.30111 0
M  V30 4140 N 404.999 1.35443 0.805782 0
M  V30 4141 C 406.248 1.28097 1.55801 0
M  V30 4142 C 406.561 -0.142428 1.95081 0
M  V30 4143 O 407.767 -0.33817 2.69386 0
M  V30 4144 C 406.223 2.24653 2.81174 0
M  V30 4145 C 405.831 3.72342 2.49129 0
M  V30 4146 C 407.575 2.2625 3.59181 0
M  V30 4147 C 405.482 4.60719 3.70799 0
M  V30 4148 H 404.412 0.475937 0.584808 0
M  V30 4149 H 407.063 1.60712 0.885661 0
M  V30 4150 H 405.445 1.85011 3.50124 0
M  V30 4151 H 406.619 4.20624 1.88181 0
M  V30 4152 H 404.934 3.73361 1.84366 0
M  V30 4153 H 407.531 2.89495 4.49552 0
M  V30 4154 H 407.874 1.26647 3.96568 0
M  V30 4155 H 408.407 2.64426 2.97193 0
M  V30 4156 H 405.146 5.61324 3.3852 0
M  V30 4157 H 404.666 4.17163 4.3097 0
M  V30 4158 H 406.345 4.76182 4.38018 0
M  V30 4159 N 406.477 -1.02803 1.19454 0
M  V30 4160 C 407.44 -2.09264 0.934955 0
M  V30 4161 C 408.44 -1.60576 -0.0849015 0
M  V30 4162 O 409.63 -1.73554 0.149933 0
M  V30 4163 C 406.762 -3.38482 0.40531 0
M  V30 4164 H 407.955 -2.33726 1.87916 0
M  V30 4165 H 405.508 -1.19426 1.00832 0
M  V30 4166 H 406.243 -3.19689 -0.544899 0
M  V30 4167 H 406.028 -3.75142 1.14065 0
M  V30 4168 H 407.518 -4.16894 0.242806 0
M  V30 4169 N 407.956 -0.998596 -1.21925 0
M  V30 4170 C 409.372 -0.710303 -1.42923 0
M  V30 4171 C 409.572 0.716933 -1.88314 0
M  V30 4172 O 408.628 1.48712 -2.04062 0
M  V30 4173 C 409.941 -1.72072 -2.466 0
M  V30 4174 C 411.489 -1.73681 -2.60392 0
M  V30 4175 C 411.964 -2.73601 -3.67296 0
M  V30 4176 N 413.455 -2.7223 -3.7476 0
M  V30 4177 C 414.19 -3.46206 -4.57087 0
M  V30 4178 N 413.686 -4.29802 -5.43362 0
M  V30 4179 N 415.479 -3.34886 -4.51451 0
M  V30 4180 H 407.63 -1.92028 -0.9077 0
M  V30 4181 H 409.893 -0.828487 -0.460775 0
M  V30 4182 H 409.599 -2.74231 -2.20206 0
M  V30 4183 H 409.473 -1.51818 -3.45299 0
M  V30 4184 H 411.86 -0.722173 -2.86127 0
M  V30 4185 H 411.941 -1.98005 -1.61949 0
M  V30 4186 H 411.585 -3.75217 -3.42307 0
M  V30 4187 H 411.515 -2.46545 -4.65321 0
M  V30 4188 H 414.006 -2.11576 -3.1312 0
M  V30 4189 H 414.319 -4.83061 -6.03218 0
M  V30 4190 H 412.664 -4.33887 -5.42925 0
M  V30 4191 H 415.855 -2.69015 -3.83078 0
M  V30 4192 H 416.028 -3.92796 -5.15379 0
M  V30 4193 N 409.434 1.37368 -0.772513 0
M  V30 4194 C 410.664 2.03647 -0.348082 0
M  V30 4195 C 411.072 1.58392 1.03482 0
M  V30 4196 O 410.415 0.760921 1.672 0
M  V30 4197 C 410.477 3.58131 -0.313404 0
M  V30 4198 C 410.141 4.2652 -1.64102 0
M  V30 4199 C 411.138 4.50587 -2.5936 0
M  V30 4200 C 408.823 4.64335 -1.91567 0
M  V30 4201 C 410.817 5.11526 -3.80289 0
M  V30 4202 C 408.504 5.24996 -3.12766 0
M  V30 4203 C 409.502 5.48529 -4.06946 0
M  V30 4204 O 409.19 6.07921 -5.26011 0
M  V30 4205 H 408.922 0.660538 -0.143753 0
M  V30 4206 H 411.476 1.76669 -1.04772 0
M  V30 4207 H 409.706 3.84159 0.442617 0
M  V30 4208 H 411.395 4.05813 0.0840613 0
M  V30 4209 H 412.161 4.21784 -2.39423 0
M  V30 4210 H 408.04 4.45353 -1.19088 0
M  V30 4211 H 411.584 5.29811 -4.53813 0
M  V30 4212 H 407.481 5.53223 -3.32588 0
M  V30 4213 H 408.249 6.26398 -5.26847 0
M  V30 4214 N 410.912 0.523116 1.48665 0
M  V30 4215 C 411.842 -0.23231 2.32342 0
M  V30 4216 C 412.823 -0.941637 1.41659 0
M  V30 4217 O 414.008 -0.928751 1.70552 0
M  V30 4218 C 411.138 -1.28387 3.22698 0
M  V30 4219 C 410.092 -0.693098 4.22351 0
M  V30 4220 C 409.418 -1.8468 5.01794 0
M  V30 4221 C 410.718 0.33063 5.21252 0
M  V30 4222 H 412.412 0.466192 2.95748 0
M  V30 4223 H 409.958 0.225643 1.42221 0
M  V30 4224 H 411.911 -1.82024 3.80059 0
M  V30 4225 H 410.635 -2.01186 2.57278 0
M  V30 4226 H 409.294 -0.178299 3.66166 0
M  V30 4227 H 408.942 -2.56301 4.32804 0
M  V30 4228 H 408.642 -1.45747 5.69238 0
M  V30 4229 H 410.166 -2.38709 5.62006 0
M  V30 4230 H 411.58 -0.118407 5.73178 0
M  V30 4231 H 409.977 0.636974 5.9671 0
M  V30 4232 H 411.047 1.23883 4.68808 0
M  V30 4233 N 412.39 -1.55475 0.257931 0
M  V30 4234 C 413.63 -2.01112 -0.365129 0
M  V30 4235 C 413.994 -1.1423 -1.54323 0
M  V30 4236 O 415.195 -1.49371 -2.23477 0
M  V30 4237 C 413.466 -3.49353 -0.754117 0
M  V30 4238 S 415.025 -4.16992 -1.36614 0
M  V30 4239 H 411.843 -0.701737 -0.114397 0
M  V30 4240 H 414.445 -1.91855 0.375747 0
M  V30 4241 H 413.149 -4.10246 0.112441 0
M  V30 4242 H 412.68 -3.6256 -1.52689 0
M  V30 4243 H 414.695 -4.19191 -2.65505 0
M  V30 4244 N 413.868 0.0150385 -1.57593 0
M  V30 4245 C 415.116 0.701613 -1.8953 0
M  V30 4246 C 415.437 1.75139 -0.857396 0
M  V30 4247 O 414.707 1.95607 0.107194 0
M  V30 4248 H 413.287 0.26213 -0.699498 0
M  V30 4249 H 415.949 -0.0223304 -1.94887 0
M  V30 4250 H 415.045 1.18236 -2.88837 0
M  V30 4251 N 415.346 1.54954 0.287554 0
M  V30 4252 C 416.574 1.78881 1.03967 0
M  V30 4253 C 416.989 0.554894 1.80462 0
M  V30 4254 O 416.346 -0.475676 1.76192 0
M  V30 4255 C 416.397 3.00488 2.0097 0
M  V30 4256 O 416.118 4.19113 1.27577 0
M  V30 4257 C 417.619 3.36907 2.88112 0
M  V30 4258 H 414.839 0.596259 0.307761 0
M  V30 4259 H 417.383 2.01937 0.322749 0
M  V30 4260 H 415.538 2.79601 2.68145 0
M  V30 4261 H 415.952 4.87765 1.92835 0
M  V30 4262 H 417.426 4.25205 3.52001 0
M  V30 4263 H 417.903 2.55659 3.57121 0
M  V30 4264 H 418.509 3.60001 2.26449 0
M  V30 4265 N 416.824 -0.551391 1.4764 0
M  V30 4266 C 417.756 -1.67333 1.56628 0
M  V30 4267 C 418.769 -1.56398 0.452045 0
M  V30 4268 O 419.958 -1.6325 0.721926 0
M  V30 4269 C 417.058 -3.05841 1.45994 0
M  V30 4270 C 416.231 -3.42472 2.72088 0
M  V30 4271 C 415.29 -4.60168 2.55209 0
M  V30 4272 O 414.316 -4.64458 3.2904 0
M  V30 4273 N 415.518 -5.57024 1.63416 0
M  V30 4274 H 418.283 -1.60066 2.53375 0
M  V30 4275 H 415.844 -0.738169 1.44093 0
M  V30 4276 H 417.836 -3.8242 1.32428 0
M  V30 4277 H 416.406 -3.07302 0.573071 0
M  V30 4278 H 415.626 -2.55284 3.00373 0
M  V30 4279 H 416.914 -3.63723 3.55785 0
M  V30 4280 H 416.312 -5.56319 1.02594 0
M  V30 4281 H 414.869 -6.32906 1.558 0
M  V30 4282 N 418.302 -1.35869 -0.798587 0
M  V30 4283 C 419.713 -1.26498 -1.37314 0
M  V30 4284 C 420.064 0.0991899 -1.95949 0
M  V30 4285 O 419.189 1.0004 -1.91888 0
M  V30 4286 C 419.784 -2.29054 -2.49639 0
M  V30 4287 C 418.343 -2.234 -3.02935 0
M  V30 4288 C 417.49 -2.14329 -1.75949 0
M  V30 4289 H 420.441 -1.46881 -0.600971 0
M  V30 4290 H 420.462 -1.92166 -3.28409 0
M  V30 4291 H 419.974 -3.2833 -2.06933 0
M  V30 4292 H 418.075 -1.27562 -3.50084 0
M  V30 4293 H 418.188 -3.15703 -3.60372 0
M  V30 4294 H 416.552 -1.60435 -1.9782 0
M  V30 4295 H 417.335 -3.15477 -1.35384 0
M  V30 4296 N 419.78 1.02168 -1.19998 0
M  V30 4297 C 421.029 1.75091 -1.0013 0
M  V30 4298 C 421.342 1.89923 0.467835 0
M  V30 4299 O 422.548 2.59888 0.785515 0
M  V30 4300 C 421.004 3.14892 -1.74273 0
M  V30 4301 C 420.612 3.0809 -3.25245 0
M  V30 4302 C 422.356 3.9206 -1.62755 0
M  V30 4303 C 420.263 4.42867 -3.91948 0
M  V30 4304 H 419.193 0.656394 -0.37103 0
M  V30 4305 H 421.844 1.14284 -1.43567 0
M  V30 4306 H 420.226 3.7621 -1.2362 0
M  V30 4307 H 421.4 2.5611 -3.83072 0
M  V30 4308 H 419.715 2.44416 -3.3712 0
M  V30 4309 H 422.312 4.91764 -2.09934 0
M  V30 4310 H 422.655 4.12199 -0.582894 0
M  V30 4311 H 423.188 3.37359 -2.10793 0
M  V30 4312 H 419.927 4.27931 -4.96543 0
M  V30 4313 H 419.447 4.94874 -3.3891 0
M  V30 4314 H 421.126 5.11728 -3.95909 0
M  V30 4315 N 421.258 1.00505 1.21394 0
M  V30 4316 C 422.486 0.706609 1.9446 0
M  V30 4317 C 422.901 -0.73081 1.74082 0
M  V30 4318 O 422.258 -1.49446 1.04747 0
M  V30 4319 C 422.309 1.01824 3.46863 0
M  V30 4320 O 422.03 2.39919 3.66566 0
M  V30 4321 C 423.531 0.739216 4.37093 0
M  V30 4322 H 420.751 0.260394 0.618414 0
M  V30 4323 H 423.295 1.34311 1.54211 0
M  V30 4324 H 421.45 0.427343 3.85036 0
M  V30 4325 H 421.864 2.50784 4.6066 0
M  V30 4326 H 423.338 1.00744 5.42729 0
M  V30 4327 H 423.815 -0.326746 4.37983 0
M  V30 4328 H 424.421 1.31173 4.04566 0
M  V30 4329 N 422.737 -1.36956 0.779787 0
M  V30 4330 C 423.962 -2.04283 0.358224 0
M  V30 4331 C 424.387 -1.58422 -1.01411 0
M  V30 4332 O 423.745 -0.748179 -1.65142 0
M  V30 4333 C 423.793 -3.58152 0.419479 0
M  V30 4334 O 422.897 -4.08342 -0.577142 0
M  V30 4335 H 422.238 -0.645967 0.153698 0
M  V30 4336 H 424.768 -1.75108 1.05822 0
M  V30 4337 H 424.778 -4.07041 0.279636 0
M  V30 4338 H 423.453 -3.90886 1.42061 0
M  V30 4339 H 422.03 -3.70751 -0.399755 0
M  V30 4340 N 424.215 -0.530993 -1.48385 0
M  V30 4341 C 425.145 0.219985 -2.32461 0
M  V30 4342 C 426.126 0.934111 -1.42156 0
M  V30 4343 O 427.311 0.919694 -1.71042 0
M  V30 4344 C 424.441 1.26674 -3.23375 0
M  V30 4345 C 423.395 0.67069 -4.22712 0
M  V30 4346 C 422.721 1.82017 -5.02766 0
M  V30 4347 C 424.021 -0.358268 -5.2107 0
M  V30 4348 H 425.715 -0.48187 -2.95497 0
M  V30 4349 H 423.261 -0.233182 -1.42099 0
M  V30 4350 H 425.214 1.80006 -3.81019 0
M  V30 4351 H 423.938 1.99818 -2.58341 0
M  V30 4352 H 422.597 0.158878 -3.66256 0
M  V30 4353 H 422.245 2.54002 -4.34157 0
M  V30 4354 H 421.945 1.42727 -5.70003 0
M  V30 4355 H 423.469 2.35725 -5.63264 0
M  V30 4356 H 424.883 0.0880081 -5.73232 0
M  V30 4357 H 423.28 -0.66861 -5.96364 0
M  V30 4358 H 424.35 -1.26367 -4.68145 0
M  V30 4359 N 425.693 1.55336 -0.266172 0
M  V30 4360 C 426.656 2.20878 0.612001 0
M  V30 4361 C 427.656 1.18388 1.08816 0
M  V30 4362 O 428.846 1.4335 0.989774 0
M  V30 4363 C 425.978 2.86765 1.84332 0
M  V30 4364 H 427.171 2.99873 0.0398718 0
M  V30 4365 H 424.724 1.56291 -0.0167309 0
M  V30 4366 H 425.459 2.11759 2.45619 0
M  V30 4367 H 425.244 3.61862 1.5099 0
M  V30 4368 H 426.734 3.36867 2.46801 0
M  V30 4369 N 427.171 -0.0066808 1.57599 0
M  V30 4370 C 428.104 -1.03397 2.03431 0
M  V30 4371 C 429.082 -1.33872 0.922877 0
M  V30 4372 O 430.266 -1.4615 1.19048 0
M  V30 4373 C 427.393 -2.36325 2.42628 0
M  V30 4374 C 426.439 -2.21557 3.64438 0
M  V30 4375 S 427.272 -1.54789 5.12641 0
M  V30 4376 C 428.428 -2.8916 5.55101 0
M  V30 4377 H 428.661 -0.643687 2.90248 0
M  V30 4378 H 426.194 -0.217349 1.52863 0
M  V30 4379 H 428.152 -3.12759 2.65879 0
M  V30 4380 H 426.813 -2.72495 1.56222 0
M  V30 4381 H 426.006 -3.1974 3.89592 0
M  V30 4382 H 425.608 -1.53267 3.41153 0
M  V30 4383 H 427.9 -3.8547 5.57153 0
M  V30 4384 H 428.843 -2.68713 6.55133 0
M  V30 4385 H 429.251 -2.92762 4.82649 0
M  V30 4386 N 428.649 -1.55105 -0.279332 0
M  V30 4387 C 429.895 -1.75672 -1.01327 0
M  V30 4388 C 430.228 -0.552739 -1.86168 0
M  V30 4389 O 429.503 0.449827 -1.89227 0
M  V30 4390 C 429.786 -3.05825 -1.90114 0
M  V30 4391 C 429.639 -4.36565 -1.08309 0
M  V30 4392 C 430.958 -3.31975 -2.8893 0
M  V30 4393 H 428.077 -0.639149 -0.366957 0
M  V30 4394 H 430.719 -1.87833 -0.286154 0
M  V30 4395 H 428.869 -2.95588 -2.52111 0
M  V30 4396 H 430.541 -4.58751 -0.484314 0
M  V30 4397 H 428.784 -4.32076 -0.386362 0
M  V30 4398 H 429.455 -5.23946 -1.73737 0
M  V30 4399 H 431.931 -3.41963 -2.37067 0
M  V30 4400 H 430.807 -4.2432 -3.48201 0
M  V30 4401 H 431.068 -2.51309 -3.63725 0
M  V30 4402 N 430.127 0.543554 -1.4793 0
M  V30 4403 C 431.037 1.67657 -1.64098 0
M  V30 4404 C 432.053 1.65934 -0.523622 0
M  V30 4405 O 433.229 1.85133 -0.792943 0
M  V30 4406 C 430.294 3.04146 -1.66421 0
M  V30 4407 C 429.355 3.16831 -2.89684 0
M  V30 4408 C 428.588 4.46809 -2.91886 0
M  V30 4409 O 428.811 5.33095 -2.02895 0
M  V30 4410 O 427.745 4.63573 -3.83906 0
M  V30 4411 H 431.571 1.56957 -2.59997 0
M  V30 4412 H 429.156 0.715116 -1.31173 0
M  V30 4413 H 431.038 3.85346 -1.70548 0
M  V30 4414 H 429.713 3.152 -0.736923 0
M  V30 4415 H 428.62 2.34977 -2.91095 0
M  V30 4416 H 429.953 3.10687 -3.81752 0
M  V30 4417 N 431.605 1.3629 0.791371 0
M  V30 4418 C 432.845 1.31792 1.56238 0
M  V30 4419 C 433.209 -0.102237 1.91728 0
M  V30 4420 O 434.41 -0.271759 2.67423 0
M  V30 4421 C 432.681 2.21303 2.80642 0
M  V30 4422 S 434.24 2.34468 3.70904 0
M  V30 4423 H 431.058 0.468141 0.535131 0
M  V30 4424 H 433.66 1.71841 0.932246 0
M  V30 4425 H 432.364 3.23439 2.52617 0
M  V30 4426 H 431.895 1.82266 3.4863 0
M  V30 4427 H 433.91 1.54074 4.71673 0
M  V30 4428 N 433.083 -1.0153 1.20538 0
M  V30 4429 C 434.331 -1.74803 1.01432 0
M  V30 4430 C 434.652 -1.8963 -0.454456 0
M  V30 4431 O 433.922 -1.43975 -1.32846 0
M  V30 4432 H 432.502 -0.647598 0.372324 0
M  V30 4433 H 435.164 -1.22402 1.5167 0
M  V30 4434 H 434.26 -2.75114 1.47373 0
M  V30 4435 N 434.561 -1.01147 -1.20859 0
M  V30 4436 C 435.491 -0.597663 -2.25722 0
M  V30 4437 C 436.472 0.384744 -1.65692 0
M  V30 4438 O 437.657 0.271303 -1.92296 0
M  V30 4439 C 434.787 0.0700149 -3.47229 0
M  V30 4440 C 433.741 -0.832843 -4.19819 0
M  V30 4441 C 433.067 -0.0312202 -5.34691 0
M  V30 4442 C 434.367 -2.1385 -4.76514 0
M  V30 4443 H 436.061 -1.47423 -2.60589 0
M  V30 4444 H 433.607 -0.710301 -1.25263 0
M  V30 4445 H 435.56 0.37103 -4.19763 0
M  V30 4446 H 434.284 0.981259 -3.11511 0
M  V30 4447 H 432.943 -1.11778 -3.49144 0
M  V30 4448 H 432.591 0.881515 -4.95215 0
M  V30 4449 H 432.291 -0.632434 -5.84187 0
M  V30 4450 H 433.815 0.26346 -6.10031 0
M  V30 4451 H 435.229 -1.9002 -5.40893 0
M  V30 4452 H 433.626 -2.69012 -5.36426 0
M  V30 4453 H 434.696 -2.80495 -3.95538 0
M  V30 4454 N 436.039 1.36541 -0.78704 0
M  V30 4455 C 437.316 1.9355 -0.282424 0
M  V30 4456 C 437.696 1.71919 1.22503 0
M  V30 4457 O 437.044 1.07677 2.01539 0
M  V30 4458 C 437.254 3.4246 -0.672462 0
M  V30 4459 C 438.602 4.19582 -0.650863 0
M  V30 4460 O 439.626 3.50889 -0.612789 0
M  V30 4461 O 438.485 5.42106 -0.691623 0
M  V30 4462 H 435.579 0.824091 -0.0693 0
M  V30 4463 H 438.125 1.45736 -0.869423 0
M  V30 4464 H 436.897 3.51851 -1.71221 0
M  V30 4465 H 436.52 3.97556 -0.0592211 0
M  V30 4466 N 437.518 0.538854 1.48102 0
M  V30 4467 C 438.764 0.00801365 2.02798 0
M  V30 4468 C 439.097 -1.3309 1.41424 0
M  V30 4469 O 438.372 -1.86169 0.563158 0
M  V30 4470 C 438.655 -0.104589 3.59948 0
M  V30 4471 C 438.508 1.26012 4.31788 0
M  V30 4472 C 439.827 -0.827055 4.32259 0
M  V30 4473 H 436.946 0.00438624 0.736987 0
M  V30 4474 H 439.588 0.6976 1.7673 0
M  V30 4475 H 437.738 -0.691893 3.82289 0
M  V30 4476 H 439.41 1.88922 4.2084 0
M  V30 4477 H 437.653 1.83968 3.92859 0
M  V30 4478 H 438.324 1.13424 5.40221 0
M  V30 4479 H 440.8 -0.328578 4.14801 0
M  V30 4480 H 439.676 -0.87476 5.41885 0
M  V30 4481 H 439.937 -1.87927 4.0017 0
M  V30 4482 N 438.996 -1.55193 0.274407 0
M  V30 4483 C 440.243 -1.99581 -0.342579 0
M  V30 4484 C 440.571 -1.1628 -1.55914 0
M  V30 4485 O 439.826 -0.22029 -1.94456 0
M  V30 4486 C 440.125 -3.49019 -0.769458 0
M  V30 4487 C 439.791 -4.49598 0.342389 0
M  V30 4488 C 438.453 -4.76821 0.647686 0
M  V30 4489 C 440.805 -5.0964 1.09163 0
M  V30 4490 C 438.133 -5.61354 1.70581 0
M  V30 4491 C 440.485 -5.95323 2.13948 0
M  V30 4492 C 439.149 -6.20867 2.45113 0
M  V30 4493 H 438.419 -0.730319 -0.125358 0
M  V30 4494 H 441.066 -1.87529 0.387971 0
M  V30 4495 H 439.371 -3.58544 -1.57967 0
M  V30 4496 H 441.068 -3.8077 -1.25757 0
M  V30 4497 H 437.658 -4.28496 0.094318 0
M  V30 4498 H 441.842 -4.88632 0.869024 0
M  V30 4499 H 437.098 -5.79392 1.9523 0
M  V30 4500 H 441.272 -6.40881 2.72478 0
M  V30 4501 H 438.899 -6.86162 3.27239 0
M  V30 4502 N 440.474 -0.00167713 -1.576 0
M  V30 4503 C 441.437 0.974046 -2.07473 0
M  V30 4504 C 442.437 1.27143 -0.984444 0
M  V30 4505 O 443.627 1.21633 -1.24703 0
M  V30 4506 C 440.759 2.29849 -2.51759 0
M  V30 4507 H 441.952 0.54262 -2.9495 0
M  V30 4508 H 439.505 0.245829 -1.54355 0
M  V30 4509 H 440.24 2.77677 -1.67529 0
M  V30 4510 H 440.025 2.09584 -3.31386 0
M  V30 4511 H 441.515 2.9984 -2.90664 0
M  V30 4512 N 441.952 1.55251 0.271103 0
M  V30 4513 C 442.884 1.84675 1.35749 0
M  V30 4514 C 443.897 0.731366 1.45447 0
M  V30 4515 O 445.086 1.00924 1.4723 0
M  V30 4516 C 442.186 1.99638 2.73857 0
M  V30 4517 C 441.359 3.30312 2.86727 0
M  V30 4518 C 440.418 3.35318 4.05522 0
M  V30 4519 O 439.444 4.08682 3.96191 0
M  V30 4520 N 440.646 2.62857 5.17577 0
M  V30 4521 H 443.411 2.78445 1.10853 0
M  V30 4522 H 440.972 1.55191 0.461218 0
M  V30 4523 H 442.964 2.00355 3.51625 0
M  V30 4524 H 441.534 1.12725 2.91568 0
M  V30 4525 H 440.754 3.42118 1.95829 0
M  V30 4526 H 442.042 4.16488 2.92258 0
M  V30 4527 H 441.44 2.02939 5.28046 0
M  V30 4528 H 439.997 2.69295 5.93568 0
M  V30 4529 N 443.43 -0.535701 1.48216 0
M  V30 4530 C 444.658 -1.31671 1.59594 0
M  V30 4531 C 445.073 -1.87083 0.254056 0
M  V30 4532 O 444.43 -1.66112 -0.755854 0
M  V30 4533 C 444.481 -2.47158 2.63809 0
M  V30 4534 O 444.202 -1.94032 3.92789 0
M  V30 4535 C 445.703 -3.39062 2.85573 0
M  V30 4536 H 442.923 -0.400623 0.538277 0
M  V30 4537 H 445.467 -0.646827 1.94001 0
M  V30 4538 H 443.622 -3.10043 2.32276 0
M  V30 4539 H 444.036 -2.69585 4.49916 0
M  V30 4540 H 445.51 -4.16459 3.62306 0
M  V30 4541 H 445.987 -3.93941 1.94184 0
M  V30 4542 H 446.593 -2.81975 3.18387 0
M  V30 4543 N 444.908 -1.36708 -0.784132 0
M  V30 4544 C 446.185 -1.21776 -1.53069 0
M  V30 4545 C 446.565 0.193876 -2.10208 0
M  V30 4546 O 445.913 1.20012 -1.94446 0
M  V30 4547 C 446.123 -2.30395 -2.62143 0
M  V30 4548 C 447.471 -2.67325 -3.29882 0
M  V30 4549 O 448.495 -2.29478 -2.7243 0
M  V30 4550 O 447.354 -3.32485 -4.33724 0
M  V30 4551 H 444.448 -0.474459 -0.677361 0
M  V30 4552 H 446.994 -1.48454 -0.82216 0
M  V30 4553 H 445.766 -3.2498 -2.17953 0
M  V30 4554 H 445.389 -2.05112 -3.40609 0
M  V30 4555 N 446.386 1.0089 -1.21074 0
M  V30 4556 C 447.319 2.09279 -0.909806 0
M  V30 4557 C 448.297 1.61986 0.141145 0
M  V30 4558 O 449.481 1.88495 0.0130332 0
M  V30 4559 C 446.608 3.36723 -0.365374 0
M  V30 4560 C 445.654 4.02919 -1.39852 0
M  V30 4561 S 446.487 4.45835 -2.96633 0
M  V30 4562 C 447.643 5.76471 -2.43786 0
M  V30 4563 H 447.876 2.34484 -1.82769 0
M  V30 4564 H 445.409 1.14115 -1.04006 0
M  V30 4565 H 447.367 4.10459 -0.0578203 0
M  V30 4566 H 446.028 3.09577 0.531136 0
M  V30 4567 H 445.221 4.94634 -0.967117 0
M  V30 4568 H 444.823 3.35441 -1.65395 0
M  V30 4569 H 447.115 6.52027 -1.84029 0
M  V30 4570 H 448.058 6.24418 -3.33928 0
M  V30 4571 H 448.466 5.33104 -1.85636 0
M  V30 4572 N 447.864 1.01787 1.20321 0
M  V30 4573 C 448.827 0.593972 2.2137 0
M  V30 4574 C 449.827 -0.336553 1.57239 0
M  V30 4575 O 451.017 -0.125069 1.7375 0
M  V30 4576 C 448.149 -0.132433 3.40643 0
M  V30 4577 H 449.342 1.48791 2.60387 0
M  V30 4578 H 446.895 0.807803 1.33807 0
M  V30 4579 H 447.63 -1.04123 3.0713 0
M  V30 4580 H 447.415 0.53605 3.88418 0
M  V30 4581 H 448.905 -0.416314 4.1552 0
M  V30 4582 N 449.342 -1.36122 0.79427 0
M  V30 4583 C 450.567 -2.03891 0.379871 0
M  V30 4584 C 450.992 -1.59488 -0.997251 0
M  V30 4585 O 450.35 -0.765652 -1.64339 0
M  V30 4586 C 450.398 -3.57687 0.457442 0
M  V30 4587 O 449.502 -4.08931 -0.5338 0
M  V30 4588 H 448.843 -0.6443 0.160541 0
M  V30 4589 H 451.373 -1.73976 1.07673 0
M  V30 4590 H 451.383 -4.06721 0.322792 0
M  V30 4591 H 450.058 -3.89357 1.46199 0
M  V30 4592 H 448.635 -3.71154 -0.360409 0
M  V30 4593 N 450.82 -0.546701 -1.47814 0
M  V30 4594 C 451.75 0.195317 -2.32682 0
M  V30 4595 C 452.731 0.918981 -1.43139 0
M  V30 4596 O 453.916 0.901501 -1.72008 0
M  V30 4597 C 451.046 1.23237 -3.247 0
M  V30 4598 C 450 0.625818 -4.234 0
M  V30 4599 C 449.326 1.76674 -5.04669 0
M  V30 4600 C 450.626 -0.413515 -5.2066 0
M  V30 4601 H 452.32 -0.513184 -2.94969 0
M  V30 4602 H 449.866 -0.248241 -1.41844 0
M  V30 4603 H 451.819 1.75955 -3.82907 0
M  V30 4604 H 450.543 1.97067 -2.60446 0
M  V30 4605 H 449.202 0.120023 -3.66403 0
M  V30 4606 H 448.85 2.49383 -4.36826 0
M  V30 4607 H 448.55 1.36673 -5.71484 0
M  V30 4608 H 450.074 2.29738 -5.65732 0
M  V30 4609 H 451.488 0.0272042 -5.73294 0
M  V30 4610 H 449.885 -0.731825 -5.95621 0
M  V30 4611 H 450.955 -1.31325 -4.66778 0
M  V30 4612 N 452.299 1.55045 -0.282633 0
M  V30 4613 C 453.715 1.59441 0.0712997 0
M  V30 4614 C 453.915 1.2998 1.53972 0
M  V30 4615 O 452.971 1.06431 2.28973 0
M  V30 4616 C 454.284 2.99097 -0.310104 0
M  V30 4617 C 455.832 3.1194 -0.257343 0
M  V30 4618 C 456.307 4.53875 -0.613297 0
M  V30 4619 N 457.798 4.5974 -0.565134 0
M  V30 4620 C 458.533 5.67603 -0.81326 0
M  V30 4621 N 458.029 6.83582 -1.1264 0
M  V30 4622 N 459.822 5.57187 -0.741553 0
M  V30 4623 H 451.973 1.72458 -1.23984 0
M  V30 4624 H 454.236 0.804549 -0.501403 0
M  V30 4625 H 453.942 3.25516 -1.33163 0
M  V30 4626 H 453.816 3.75616 0.345366 0
M  V30 4627 H 456.203 2.85281 0.754905 0
M  V30 4628 H 456.284 2.37618 -0.947178 0
M  V30 4629 H 455.928 4.81261 -1.62327 0
M  V30 4630 H 455.858 5.26508 0.09841 0
M  V30 4631 H 458.349 3.76427 -0.333294 0
M  V30 4632 H 458.662 7.6175 -1.30219 0
M  V30 4633 H 457.007 6.85179 -1.16425 0
M  V30 4634 H 460.198 4.65457 -0.496705 0
M  V30 4635 H 460.371 6.41171 -0.938306 0
M  V30 4636 N 453.777 0.010035 1.57597 0
M  V30 4637 C 455.193 -0.346164 1.55801 0
M  V30 4638 C 455.393 -1.74144 1.01371 0
M  V30 4639 O 454.449 -2.43938 0.651968 0
M  V30 4640 C 455.762 -0.212216 2.9995 0
M  V30 4641 C 457.31 -0.286409 3.11687 0
M  V30 4642 C 457.785 -0.18147 4.5764 0
M  V30 4643 N 459.276 -0.239056 4.62583 0
M  V30 4644 C 460.011 -0.181351 5.73113 0
M  V30 4645 N 459.507 -0.073661 6.92761 0
M  V30 4646 N 461.3 -0.233949 5.61613 0
M  V30 4647 H 453.451 0.922657 1.91313 0
M  V30 4648 H 455.714 0.354595 0.879185 0
M  V30 4649 H 455.42 0.748169 3.4365 0
M  V30 4650 H 455.294 -0.990224 3.6397 0
M  V30 4651 H 457.681 -1.23724 2.67911 0
M  V30 4652 H 457.762 0.521645 2.50425 0
M  V30 4653 H 457.406 0.765863 5.02093 0
M  V30 4654 H 457.336 -1.00814 5.1686 0
M  V30 4655 H 459.827 -0.32321 3.76515 0
M  V30 4656 H 460.14 -0.0358003 7.72792 0
M  V30 4657 H 458.485 -0.0391461 6.94989 0
M  V30 4658 H 461.676 -0.316347 4.6703 0
M  V30 4659 H 461.849 -0.185514 6.47734 0
M  V30 4660 N 455.255 -1.55392 -0.262866 0
M  V30 4661 C 456.202 -1.88966 -1.32516 0
M  V30 4662 C 457.172 -0.742187 -1.48596 0
M  V30 4663 O 458.357 -0.99439 -1.62839 0
M  V30 4664 C 455.497 -2.17592 -2.67858 0
M  V30 4665 C 454.61 -3.45061 -2.59917 0
M  V30 4666 C 453.745 -3.63336 -3.87505 0
M  V30 4667 C 452.784 -4.84462 -3.74116 0
M  V30 4668 N 451.921 -4.99342 -4.93561 0
M  V30 4669 H 456.761 -2.79566 -1.03184 0
M  V30 4670 H 454.298 -1.38404 -0.498285 0
M  V30 4671 H 456.256 -2.3219 -3.46617 0
M  V30 4672 H 454.886 -1.30215 -2.95371 0
M  V30 4673 H 453.938 -3.38881 -1.72812 0
M  V30 4674 H 455.25 -4.3396 -2.45926 0
M  V30 4675 H 454.404 -3.77807 -4.74707 0
M  V30 4676 H 453.143 -2.72641 -4.04374 0
M  V30 4677 H 452.148 -4.69985 -2.85297 0
M  V30 4678 H 453.373 -5.76603 -3.58757 0
M  V30 4679 H 451.319 -4.1158 -5.10821 0
M  V30 4680 H 451.236 -5.82303 -4.82141 0
M  V30 4681 H 452.504 -5.18208 -5.82306 0
M  V30 4682 N 456.733 0.527833 -1.48498 0
M  V30 4683 C 457.958 1.313 -1.60546 0
M  V30 4684 C 458.383 1.86199 -0.26672 0
M  V30 4685 O 457.741 1.64513 0.761918 0
M  V30 4686 C 457.789 2.43818 -2.65678 0
M  V30 4687 O 456.893 3.46916 -2.22987 0
M  V30 4688 H 456.234 0.388784 -0.538277 0
M  V30 4689 H 458.764 0.634896 -1.945 0
M  V30 4690 H 458.774 2.89973 -2.87018 0
M  V30 4691 H 457.449 2.03222 -3.62869 0
M  V30 4692 H 456.026 3.06864 -2.11869 0
M  V30 4693 N 458.211 1.37122 0.776871 0
M  V30 4694 C 459.141 1.35164 1.90402 0
M  V30 4695 C 460.122 0.221069 1.68657 0
M  V30 4696 O 461.307 0.420642 1.8959 0
M  V30 4697 C 458.437 1.15274 3.27611 0
M  V30 4698 C 457.391 2.25289 3.63908 0
M  V30 4699 C 456.717 1.90527 4.99603 0
M  V30 4700 C 458.017 3.67446 3.71188 0
M  V30 4701 H 459.711 2.29482 1.92297 0
M  V30 4702 H 457.257 1.10465 0.923773 0
M  V30 4703 H 459.21 1.12536 4.06096 0
M  V30 4704 H 457.934 0.174102 3.26136 0
M  V30 4705 H 456.593 2.27174 2.87728 0
M  V30 4706 H 456.241 0.91206 4.94662 0
M  V30 4707 H 455.941 2.64193 5.24858 0
M  V30 4708 H 457.465 1.89367 5.80493 0
M  V30 4709 H 458.879 3.67719 4.39836 0
M  V30 4710 H 457.276 4.40123 4.07936 0
M  V30 4711 H 458.346 4.01443 2.71977 0
M  V30 4712 N 459.689 -1.00246 1.21608 0
M  V30 4713 C 460.652 -2.07233 0.979133 0
M  V30 4714 C 461.652 -1.6072 -0.0508219 0
M  V30 4715 O 462.842 -1.73196 0.186712 0
M  V30 4716 C 459.974 -3.37546 0.477016 0
M  V30 4717 H 461.167 -2.29687 1.92831 0
M  V30 4718 H 458.72 -1.17261 1.03342 0
M  V30 4719 H 459.455 -3.20773 -0.476966 0
M  V30 4720 H 459.24 -3.72638 1.21997 0
M  V30 4721 H 460.73 -4.16285 0.331181 0
M  V30 4722 N 461.167 -1.02423 -1.1978 0
M  V30 4723 C 462.097 -0.62157 -2.25075 0
M  V30 4724 C 463.078 0.367148 -1.6609 0
M  V30 4725 O 464.263 0.250892 -1.92573 0
M  V30 4726 C 461.393 0.0331826 -3.47284 0
M  V30 4727 C 460.347 -0.877323 -4.18912 0
M  V30 4728 C 459.673 -0.0879296 -5.34628 0
M  V30 4729 C 460.973 -2.18892 -4.74219 0
M  V30 4730 H 462.667 -1.50179 -2.59011 0
M  V30 4731 H 460.213 -0.723547 -1.24502 0
M  V30 4732 H 462.166 0.326488 -4.20133 0
M  V30 4733 H 460.89 0.948164 -3.12534 0
M  V30 4734 H 459.549 -1.15475 -3.47938 0
M  V30 4735 H 459.197 0.828941 -4.96123 0
M  V30 4736 H 458.897 -0.694359 -5.83483 0
M  V30 4737 H 460.421 0.198743 -6.10276 0
M  V30 4738 H 461.835 -1.95746 -5.38847 0
M  V30 4739 H 460.232 -2.74686 -5.33542 0
M  V30 4740 H 461.302 -2.84674 -3.92541 0
M  V30 4741 N 462.645 1.35699 -0.801477 0
M  V30 4742 C 463.873 2.03157 -0.391768 0
M  V30 4743 C 464.288 1.60412 0.995668 0
M  V30 4744 O 463.645 0.799228 1.64069 0
M  V30 4745 C 463.696 3.58566 -0.459671 0
M  V30 4746 O 463.417 3.99756 -1.7924 0
M  V30 4747 C 464.918 4.4328 -0.0421205 0
M  V30 4748 H 462.138 0.651688 -0.159825 0
M  V30 4749 H 464.682 1.73426 -1.08368 0
M  V30 4750 H 462.837 3.86963 0.183939 0
M  V30 4751 H 463.251 4.94387 -1.75162 0
M  V30 4752 H 464.725 5.51821 -0.140754 0
M  V30 4753 H 465.202 4.27383 1.01196 0
M  V30 4754 H 465.808 4.20168 -0.658687 0
M  V30 4755 N 464.123 0.554532 1.47522 0
M  V30 4756 C 465.4 -0.0360704 1.95567 0
M  V30 4757 C 465.78 -1.48828 1.49711 0
M  V30 4758 O 465.128 -2.16366 0.734717 0
M  V30 4759 C 465.338 0.106631 3.48837 0
M  V30 4760 C 466.686 -0.0400899 4.24581 0
M  V30 4761 O 467.71 0.0340453 3.56184 0
M  V30 4762 O 466.569 -0.199111 5.46137 0
M  V30 4763 H 463.663 -0.0656294 0.824392 0
M  V30 4764 H 466.209 0.620867 1.57935 0
M  V30 4765 H 464.981 1.11727 3.7501 0
M  V30 4766 H 464.604 -0.58804 3.93227 0
M  V30 4767 N 465.601 -1.54893 0.290851 0
M  V30 4768 C 466.531 -2.26103 -0.583084 0
M  V30 4769 C 467.512 -1.25684 -1.14619 0
M  V30 4770 O 468.697 -1.54436 -1.17741 0
M  V30 4771 C 465.827 -2.99409 -1.75987 0
M  V30 4772 C 464.781 -4.0689 -1.32758 0
M  V30 4773 C 464.107 -4.67856 -2.58872 0
M  V30 4774 C 465.407 -5.20215 -0.46624 0
M  V30 4775 H 467.101 -2.99398 0.0108214 0
M  V30 4776 H 464.647 -1.43998 0.00664468 0
M  V30 4777 H 466.6 -3.47943 -2.37727 0
M  V30 4778 H 465.324 -2.23675 -2.37985 0
M  V30 4779 H 463.983 -3.59191 -0.733299 0
M  V30 4780 H 463.631 -3.88772 -3.19163 0
M  V30 4781 H 463.331 -5.40438 -2.30653 0
M  V30 4782 H 464.855 -5.19147 -3.21433 0
M  V30 4783 H 466.269 -5.64704 -0.989047 0
M  V30 4784 H 464.666 -5.99455 -0.27826 0
M  V30 4785 H 465.736 -4.82198 0.511173 0
M  V30 4786 N 467.08 -0.0183926 -1.57589 0
M  V30 4787 C 468.327 0.662562 -1.91354 0
M  V30 4788 C 468.655 1.72747 -0.893788 0
M  V30 4789 O 467.91 1.9545 0.0988509 0
M  V30 4790 C 468.209 1.32676 -3.31861 0
M  V30 4791 C 467.875 0.393267 -4.49182 0
M  V30 4792 C 466.537 0.136302 -4.81007 0
M  V30 4793 C 468.889 -0.248366 -5.20608 0
M  V30 4794 C 466.217 -0.770282 -5.81621 0
M  V30 4795 C 468.569 -1.14294 -6.22189 0
M  V30 4796 C 467.233 -1.4089 -6.52462 0
M  V30 4797 H 466.503 0.242448 -0.700214 0
M  V30 4798 H 469.15 -0.0778629 -1.91342 0
M  V30 4799 H 467.455 2.14168 -3.28084 0
M  V30 4800 H 469.152 1.86001 -3.55253 0
M  V30 4801 H 465.742 0.603723 -4.24327 0
M  V30 4802 H 469.926 -0.062883 -4.9626 0
M  V30 4803 H 465.182 -0.984154 -6.03427 0
M  V30 4804 H 469.356 -1.64637 -6.76659 0
M  V30 4805 H 466.983 -2.11306 -7.30242 0
M  V30 4806 N 468.558 1.5553 0.254621 0
M  V30 4807 C 469.807 1.76202 0.981612 0
M  V30 4808 C 470.12 0.580883 1.86776 0
M  V30 4809 O 471.326 0.670448 2.63092 0
M  V30 4810 C 469.782 3.11921 1.79537 0
M  V30 4811 C 469.39 4.37659 0.956991 0
M  V30 4812 C 471.134 3.41936 2.51555 0
M  V30 4813 C 469.041 5.64411 1.76619 0
M  V30 4814 H 467.971 0.656841 0.370237 0
M  V30 4815 H 470.622 1.81969 0.236556 0
M  V30 4816 H 469.004 3.00241 2.58208 0
M  V30 4817 H 470.178 4.60307 0.21315 0
M  V30 4818 H 468.493 4.14922 0.350497 0
M  V30 4819 H 471.09 4.33849 3.12536 0
M  V30 4820 H 471.433 2.62905 3.22779 0
M  V30 4821 H 471.966 3.54797 1.799 0
M  V30 4822 H 468.705 6.46241 1.09783 0
M  V30 4823 H 468.225 5.45877 2.48551 0
M  V30 4824 H 469.904 6.03386 2.33527 0
M  V30 4825 N 470.036 -0.519951 1.48776 0
M  V30 4826 C 470.946 -1.65025 1.66745 0
M  V30 4827 C 471.962 -1.6508 0.549954 0
M  V30 4828 O 473.138 -1.83848 0.822295 0
M  V30 4829 C 470.203 -3.0146 1.71238 0
M  V30 4830 C 469.264 -3.12182 2.94688 0
M  V30 4831 C 468.497 -4.42109 2.98958 0
M  V30 4832 O 468.72 -5.29799 2.1135 0
M  V30 4833 O 467.654 -4.57406 3.91233 0
M  V30 4834 H 471.48 -1.52801 2.62461 0
M  V30 4835 H 469.065 -0.694157 1.32294 0
M  V30 4836 H 470.947 -3.82584 1.76657 0
M  V30 4837 H 469.622 -3.13988 0.786975 0
M  V30 4838 H 468.529 -2.30316 2.94797 0
M  V30 4839 H 469.862 -3.04574 3.86646 0
M  V30 4840 N 471.514 -1.37532 -0.769588 0
M  V30 4841 C 472.444 -1.36172 -1.89682 0
M  V30 4842 C 473.425 -0.23001 -1.68538 0
M  V30 4843 O 474.61 -0.43069 -1.89364 0
M  V30 4844 C 471.74 -1.1701 -3.26995 0
M  V30 4845 C 470.694 -2.27216 -3.62708 0
M  V30 4846 C 470.02 -1.93174 -4.98586 0
M  V30 4847 C 471.32 -3.6941 -3.69234 0
M  V30 4848 H 473.014 -2.30499 -1.91078 0
M  V30 4849 H 470.56 -1.10953 -0.917902 0
M  V30 4850 H 472.513 -1.14688 -4.05493 0
M  V30 4851 H 471.237 -0.191395 -3.26039 0
M  V30 4852 H 469.896 -2.28697 -2.86519 0
M  V30 4853 H 469.544 -0.938281 -4.94171 0
M  V30 4854 H 469.244 -2.66973 -5.23449 0
M  V30 4855 H 470.768 -1.92443 -5.79481 0
M  V30 4856 H 472.182 -3.70047 -4.37879 0
M  V30 4857 H 470.579 -4.4228 -4.05597 0
M  V30 4858 H 471.649 -4.0288 -2.69844 0
M  V30 4859 N 472.992 0.995999 -1.22138 0
M  V30 4860 C 474.238 1.73767 -1.04561 0
M  V30 4861 C 474.571 1.89633 0.418698 0
M  V30 4862 O 473.846 1.43723 1.3105 0
M  V30 4863 C 474.129 3.14505 -1.75382 0
M  V30 4864 C 473.982 3.06306 -3.29388 0
M  V30 4865 C 475.301 4.13615 -1.50369 0
M  V30 4866 H 472.42 0.630728 -0.38125 0
M  V30 4867 H 475.062 1.16057 -1.50435 0
M  V30 4868 H 473.212 3.63775 -1.36383 0
M  V30 4869 H 474.884 2.64681 -3.77812 0
M  V30 4870 H 473.127 2.43186 -3.59226 0
M  V30 4871 H 473.798 4.05884 -3.74116 0
M  V30 4872 H 476.274 3.73089 -1.84239 0
M  V30 4873 H 475.15 5.10212 -2.02421 0
M  V30 4874 H 475.411 4.39949 -0.435611 0
M  V30 4875 N 474.47 1.03057 1.19235 0
M  V30 4876 C 475.38 0.622922 2.26179 0
M  V30 4877 C 476.396 -0.346113 1.70523 0
M  V30 4878 O 477.572 -0.203572 2.00369 0
M  V30 4879 C 474.637 -0.0182063 3.46695 0
M  V30 4880 C 473.698 0.998546 4.17526 0
M  V30 4881 C 472.931 0.387917 5.32288 0
M  V30 4882 O 473.154 -0.808668 5.64639 0
M  V30 4883 O 472.088 1.1116 5.91546 0
M  V30 4884 H 475.914 1.51363 2.63292 0
M  V30 4885 H 473.499 0.800856 1.26122 0
M  V30 4886 H 475.381 -0.375606 4.19723 0
M  V30 4887 H 474.056 -0.882895 3.11427 0
M  V30 4888 H 472.963 1.40756 3.4661 0
M  V30 4889 H 474.296 1.83366 4.56769 0
M  V30 4890 N 475.948 -1.35272 0.808662 0
M  V30 4891 C 476.88 -2.28507 0.178149 0
M  V30 4892 C 477.893 -1.50377 -0.623754 0
M  V30 4893 O 479.082 -1.72583 -0.455774 0
M  V30 4894 C 476.182 -3.30038 -0.769959 0
M  V30 4895 C 475.355 -4.37398 -0.0139749 0
M  V30 4896 C 474.414 -5.18775 -0.880875 0
M  V30 4897 O 473.44 -5.68236 -0.331059 0
M  V30 4898 N 474.642 -5.37087 -2.20267 0
M  V30 4899 H 477.407 -2.83255 0.979106 0
M  V30 4900 H 474.968 -1.47643 0.664308 0
M  V30 4901 H 476.96 -3.81371 -1.35418 0
M  V30 4902 H 475.53 -2.75789 -1.47171 0
M  V30 4903 H 474.75 -3.86971 0.751468 0
M  V30 4904 H 476.038 -5.06268 0.506965 0
M  V30 4905 H 475.436 -4.9855 -2.67328 0
M  V30 4906 H 473.993 -5.91593 -2.73608 0
M  V30 4907 N 477.426 -0.562348 -1.47226 0
M  V30 4908 C 478.842 -0.222492 -1.58042 0
M  V30 4909 C 479.042 1.27505 -1.56028 0
M  V30 4910 O 478.098 2.05555 -1.46641 0
M  V30 4911 C 479.411 -0.853694 -2.88327 0
M  V30 4912 C 480.959 -0.825397 -3.01921 0
M  V30 4913 C 481.434 -1.43576 -4.34914 0
M  V30 4914 N 482.925 -1.39918 -4.41562 0
M  V30 4915 C 483.66 -1.84103 -5.43041 0
M  V30 4916 N 483.156 -2.36167 -6.51304 0
M  V30 4917 N 484.949 -1.75142 -5.34118 0
M  V30 4918 H 477.1 -1.53525 -1.46778 0
M  V30 4919 H 479.363 -0.640527 -0.698877 0
M  V30 4920 H 479.069 -1.90635 -2.95552 0
M  V30 4921 H 478.943 -0.34977 -3.75575 0
M  V30 4922 H 481.33 0.218583 -2.94289 0
M  V30 4923 H 481.411 -1.36713 -2.16202 0
M  V30 4924 H 481.055 -2.47884 -4.43301 0
M  V30 4925 H 480.985 -0.869427 -5.19373 0
M  V30 4926 H 483.476 -1.0184 -3.63919 0
M  V30 4927 H 483.789 -2.67793 -7.24919 0
M  V30 4928 H 482.134 -2.40181 -6.52179 0
M  V30 4929 H 485.325 -1.34241 -4.48439 0
M  V30 4930 H 485.498 -2.09895 -6.13065 0
M  V30 4931 N 478.904 1.54736 -0.299062 0
M  V30 4932 C 480.144 2.0201 0.31168 0
M  V30 4933 C 480.508 1.18281 1.5124 0
M  V30 4934 O 481.709 1.55243 2.19438 0
M  V30 4935 C 479.98 3.5123 0.661227 0
M  V30 4936 S 481.539 4.20467 1.2551 0
M  V30 4937 H 478.357 0.704523 0.0957517 0
M  V30 4938 H 480.959 1.90791 -0.426482 0
M  V30 4939 H 479.663 4.09804 -0.221171 0
M  V30 4940 H 479.194 3.66481 1.43023 0
M  V30 4941 H 481.209 4.26083 2.54298 0
M  V30 4942 N 480.382 0.0267497 1.57577 0
M  V30 4943 C 481.345 -0.940916 2.08996 0
M  V30 4944 C 482.345 -1.25561 1.00455 0
M  V30 4945 O 483.535 -1.19634 1.26623 0
M  V30 4946 C 480.667 -2.25814 2.55384 0
M  V30 4947 H 481.86 -0.495628 2.95776 0
M  V30 4948 H 479.413 -0.221241 1.54726 0
M  V30 4949 H 480.148 -2.74976 1.71926 0
M  V30 4950 H 479.933 -2.04285 3.34679 0
M  V30 4951 H 481.423 -2.95178 2.95398 0
M  V30 4952 N 481.861 -1.55662 -0.24637 0
M  V30 4953 C 482.824 -1.89558 -1.28842 0
M  V30 4954 C 483.824 -0.772082 -1.41052 0
M  V30 4955 O 485.014 -1.04007 -1.39743 0
M  V30 4956 C 482.146 -2.12449 -2.66605 0
M  V30 4957 H 483.339 -2.82735 -1.00004 0
M  V30 4958 H 480.892 -1.48562 -0.485684 0
M  V30 4959 H 481.627 -1.21742 -3.00582 0
M  V30 4960 H 481.412 -2.94273 -2.59125 0
M  V30 4961 H 482.902 -2.39854 -3.41847 0
M  V30 4962 N 483.339 0.512053 -1.4905 0
M  V30 4963 C 484.289 1.61142 -1.61298 0
M  V30 4964 C 485.273 1.53908 -0.46916 0
M  V30 4965 O 486.465 1.61625 -0.721547 0
M  V30 4966 C 483.594 2.998 -1.67256 0
M  V30 4967 C 482.68 3.12072 -2.87179 0
M  V30 4968 N 483.071 2.94263 -4.11391 0
M  V30 4969 C 481.369 3.43156 -2.84886 0
M  V30 4970 C 482.07 3.10426 -4.91946 0
M  V30 4971 N 481.046 3.38808 -4.251 0
M  V30 4972 H 484.848 1.46011 -2.55065 0
M  V30 4973 H 482.362 0.717934 -1.45669 0
M  V30 4974 H 484.359 3.78794 -1.74128 0
M  V30 4975 H 483.019 3.1601 -0.746195 0
M  V30 4976 H 484.03 2.70661 -4.41546 0
M  V30 4977 H 480.707 3.65611 -2.01581 0
M  V30 4978 H 482.097 3.01243 -6.00585 0
M  V30 4979 N 484.817 1.37938 0.762283 0
M  V30 4980 C 485.727 1.36681 1.90671 0
M  V30 4981 C 486.743 0.265078 1.71969 0
M  V30 4982 O 487.919 0.502055 1.95042 0
M  V30 4983 C 484.984 1.18211 3.25925 0
M  V30 4984 C 484.045 2.3811 3.57214 0
M  V30 4985 C 483.278 2.20512 4.86014 0
M  V30 4986 O 483.501 1.19429 5.57757 0
M  V30 4987 O 482.435 3.08911 5.16583 0
M  V30 4988 H 486.261 2.33091 1.94685 0
M  V30 4989 H 483.846 1.18767 0.906356 0
M  V30 4990 H 485.728 1.09937 4.06807 0
M  V30 4991 H 484.403 0.248807 3.22742 0
M  V30 4992 H 483.31 2.51958 2.76529 0
M  V30 4993 H 484.643 3.30041 3.65149 0
M  V30 4994 N 486.295 -0.989507 1.22664 0
M  V30 4995 C 487.225 -2.09847 1.02404 0
M  V30 4996 C 488.206 -1.70007 -0.0561303 0
M  V30 4997 O 489.391 -1.93906 0.106748 0
M  V30 4998 C 486.521 -3.41996 0.604663 0
M  V30 4999 C 485.475 -3.95699 1.63115 0
M  V30 5000 C 484.801 -5.23936 1.0675 0
M  V30 5001 C 486.101 -4.25999 3.02196 0
M  V30 5002 H 487.795 -2.27054 1.95158 0
M  V30 5003 H 485.341 -1.09111 0.939727 0
M  V30 5004 H 487.294 -4.1899 0.45002 0
M  V30 5005 H 486.018 -3.24626 -0.35855 0
M  V30 5006 H 484.677 -3.2084 1.77362 0
M  V30 5007 H 484.325 -5.02909 0.0955422 0
M  V30 5008 H 484.025 -5.60833 1.75328 0
M  V30 5009 H 485.549 -6.0356 0.924516 0
M  V30 5010 H 486.963 -4.93777 2.91303 0
M  V30 5011 H 485.36 -4.74076 3.67929 0
M  V30 5012 H 486.43 -3.33636 3.51873 0
M  V30 5013 N 487.773 -1.03688 -1.18687 0
M  V30 5014 C 489.001 -0.757918 -1.92518 0
M  V30 5015 C 489.416 0.684398 -1.75959 0
M  V30 5016 O 488.773 1.46617 -1.08673 0
M  V30 5017 C 488.824 -1.10985 -3.44042 0
M  V30 5018 O 488.545 -2.49554 -3.60076 0
M  V30 5019 C 490.046 -0.854844 -4.3498 0
M  V30 5020 H 487.266 -0.276699 -0.611293 0
M  V30 5021 H 489.81 -1.38352 -1.50595 0
M  V30 5022 H 487.965 -0.529279 -3.83767 0
M  V30 5023 H 488.379 -2.6291 -4.53849 0
M  V30 5024 H 489.853 -1.15098 -5.39867 0
M  V30 5025 H 490.33 0.210507 -4.38695 0
M  V30 5026 H 490.936 -1.41853 -4.00946 0
M  V30 5027 N 489.251 1.34841 -0.815825 0
M  V30 5028 C 490.181 2.32187 -0.247298 0
M  V30 5029 C 491.162 1.5791 0.632344 0
M  V30 5030 O 492.347 1.8593 0.560698 0
M  V30 5031 C 489.477 3.42122 0.597466 0
M  V30 5032 C 488.431 4.27602 -0.184446 0
M  V30 5033 C 487.757 5.28942 0.782609 0
M  V30 5034 C 489.057 5.03502 -1.38865 0
M  V30 5035 H 490.751 2.79985 -1.06061 0
M  V30 5036 H 488.297 1.34611 -0.511461 0
M  V30 5037 H 490.25 4.09232 1.00533 0
M  V30 5038 H 488.974 2.92956 1.44376 0
M  V30 5039 H 487.633 3.62085 -0.573592 0
M  V30 5040 H 487.281 4.7604 1.62466 0
M  V30 5041 H 486.981 5.87008 0.263695 0
M  V30 5042 H 488.505 5.98922 1.18848 0
M  V30 5043 H 489.919 5.63506 -1.05518 0
M  V30 5044 H 488.316 5.71108 -1.8427 0
M  V30 5045 H 489.386 4.33608 -2.17054 0
M  V30 5046 N 490.729 0.570148 1.46925 0
M  V30 5047 C 491.975 0.0510284 2.02736 0
M  V30 5048 C 492.308 -1.3006 1.44215 0
M  V30 5049 O 491.583 -1.84932 0.602521 0
M  V30 5050 C 491.866 -0.028215 3.60089 0
M  V30 5051 C 491.719 1.35142 4.29018 0
M  V30 5052 C 493.038 -0.735181 4.33916 0
M  V30 5053 H 490.157 0.0200178 0.736728 0
M  V30 5054 H 492.799 0.73493 1.75211 0
M  V30 5055 H 490.949 -0.610648 3.83671 0
M  V30 5056 H 492.621 1.97806 4.16738 0
M  V30 5057 H 490.864 1.9226 3.88868 0
M  V30 5058 H 491.535 1.24857 5.37694 0
M  V30 5059 H 494.011 -0.240519 4.15404 0
M  V30 5060 H 492.887 -0.759622 5.43618 0
M  V30 5061 H 493.148 -1.79397 4.04066 0
M  V30 5062 N 492.207 -1.54576 0.307264 0
M  V30 5063 C 493.435 -2.04675 -0.302597 0
M  V30 5064 C 493.85 -1.18425 -1.47041 0
M  V30 5065 O 493.207 -0.211257 -1.81273 0
M  V30 5066 C 493.258 -3.53575 -0.752801 0
M  V30 5067 O 492.979 -4.36547 0.368536 0
M  V30 5068 C 494.48 -4.19699 -1.42717 0
M  V30 5069 H 491.7 -0.66786 -0.0648374 0
M  V30 5070 H 494.244 -1.99516 0.448716 0
M  V30 5071 H 492.399 -3.59074 -1.45412 0
M  V30 5072 H 492.813 -5.24497 0.0168937 0
M  V30 5073 H 494.287 -5.25388 -1.69327 0
M  V30 5074 H 494.764 -3.69815 -2.36925 0
M  V30 5075 H 495.37 -4.18293 -0.768856 0
M  V30 5076 N 493.685 -0.035106 -1.57561 0
M  V30 5077 C 495.096 0.502885 -1.798 0
M  V30 5078 C 495.447 1.71892 -0.945921 0
M  V30 5079 O 494.572 2.15822 -0.157991 0
M  V30 5080 C 495.167 0.919097 -3.26095 0
M  V30 5081 C 493.726 1.40216 -3.49308 0
M  V30 5082 C 492.873 0.369709 -2.74824 0
M  V30 5083 H 495.824 -0.261102 -1.56537 0
M  V30 5084 H 495.845 1.78308 -3.36135 0
M  V30 5085 H 495.357 0.0338526 -3.88085 0
M  V30 5086 H 493.458 2.30714 -2.92578 0
M  V30 5087 H 493.571 1.40541 -4.58023 0
M  V30 5088 H 491.935 0.839113 -2.40481 0
M  V30 5089 H 492.718 -0.507173 -3.39533 0
M  V30 5090 N 495.163 1.55791 0.238111 0
M  V30 5091 C 496.579 1.48411 0.587045 0
M  V30 5092 C 496.779 0.72702 1.87927 0
M  V30 5093 O 495.835 0.259942 2.51158 0
M  V30 5094 C 497.148 2.92873 0.681623 0
M  V30 5095 C 498.696 3.03295 0.773363 0
M  V30 5096 C 499.171 4.49082 0.899428 0
M  V30 5097 N 500.662 4.53056 0.964075 0
M  V30 5098 C 501.397 5.63117 1.08104 0
M  V30 5099 N 500.893 6.82969 1.16299 0
M  V30 5100 N 502.686 5.50933 1.11488 0
M  V30 5101 H 494.837 2.0345 -0.610076 0
M  V30 5102 H 497.1 0.924034 -0.211813 0
M  V30 5103 H 496.806 3.51142 -0.19802 0
M  V30 5104 H 496.68 3.43851 1.55069 0
M  V30 5105 H 499.067 2.45101 1.64346 0
M  V30 5106 H 499.148 2.55513 -0.121034 0
M  V30 5107 H 498.792 5.07889 0.0338586 0
M  V30 5108 H 498.722 4.94553 1.809 0
M  V30 5109 H 501.213 3.66737 0.91173 0
M  V30 5110 H 501.526 7.62598 1.25155 0
M  V30 5111 H 499.871 6.85712 1.13241 0
M  V30 5112 H 503.062 4.56231 1.0474 0
M  V30 5113 H 503.235 6.36743 1.20259 0
M  V30 5114 N 496.642 -0.504142 1.49319 0
M  V30 5115 C 497.552 -1.63248 1.68486 0
M  V30 5116 C 498.568 -1.64488 0.567432 0
M  V30 5117 O 499.744 -1.82966 0.841749 0
M  V30 5118 C 496.809 -2.99627 1.74426 0
M  V30 5119 C 495.87 -3.09039 2.97982 0
M  V30 5120 C 495.103 -4.38913 3.0363 0
M  V30 5121 O 495.326 -5.27528 2.16958 0
M  V30 5122 O 494.26 -4.53231 3.96062 0
M  V30 5123 H 498.086 -1.50008 2.64067 0
M  V30 5124 H 495.671 -0.680086 1.33023 0
M  V30 5125 H 497.553 -3.80689 1.80705 0
M  V30 5126 H 496.228 -3.13136 0.820233 0
M  V30 5127 H 495.135 -2.27177 2.97223 0
M  V30 5128 H 496.468 -3.00456 3.89855 0
M  V30 5129 N 498.12 -1.38341 -0.754957 0
M  V30 5130 C 499.07 -1.31964 -1.85929 0
M  V30 5131 C 500.054 -0.204181 -1.59599 0
M  V30 5132 O 501.246 -0.440036 -1.71443 0
M  V30 5133 C 498.375 -1.14565 -3.2362 0
M  V30 5134 C 497.461 -2.30727 -3.55846 0
M  V30 5135 N 497.852 -3.56165 -3.59138 0
M  V30 5136 C 496.15 -2.23249 -3.86104 0
M  V30 5137 C 496.851 -4.32865 -3.88591 0
M  V30 5138 N 495.827 -3.62203 -4.05351 0
M  V30 5139 H 499.629 -2.2694 -1.8675 0
M  V30 5140 H 497.143 -1.31553 -0.952243 0
M  V30 5141 H 499.14 -1.0808 -4.02647 0
M  V30 5142 H 497.8 -0.205212 -3.24051 0
M  V30 5143 H 498.811 -3.89854 -3.40932 0
M  V30 5144 H 495.488 -1.37357 -3.94258 0
M  V30 5145 H 496.878 -5.41504 -3.97773 0
M  V30 5146 N 499.598 0.982988 -1.23187 0
M  V30 5147 C 500.561 2.05649 -1.01198 0
M  V30 5148 C 501.561 1.6078 0.0252464 0
M  V30 5149 O 502.751 1.72878 -0.214243 0
M  V30 5150 C 499.883 3.36744 -0.530656 0
M  V30 5151 H 501.076 2.2659 -1.96461 0
M  V30 5152 H 498.629 1.15602 -1.05195 0
M  V30 5153 H 499.364 3.21492 0.425873 0
M  V30 5154 H 499.149 3.7065 -1.2791 0
M  V30 5155 H 500.639 4.15705 -0.397366 0
M  V30 5156 N 501.076 1.04316 1.18135 0
M  V30 5157 C 502.023 0.636398 2.21853 0
M  V30 5158 C 502.993 -0.357039 1.62217 0
M  V30 5159 O 504.178 -0.250453 1.89149 0
M  V30 5160 C 501.318 0.00812779 3.45099 0
M  V30 5161 C 500.431 1.04933 4.19062 0
M  V30 5162 C 499.566 0.389313 5.29771 0
M  V30 5163 C 498.605 1.41544 5.9551 0
M  V30 5164 N 497.742 0.78021 6.97751 0
M  V30 5165 H 502.582 1.52536 2.56002 0
M  V30 5166 H 500.119 0.76304 1.25762 0
M  V30 5167 H 502.077 -0.373497 4.15525 0
M  V30 5168 H 500.707 -0.844336 3.11562 0
M  V30 5169 H 499.759 1.54888 3.47439 0
M  V30 5170 H 501.071 1.82862 4.64072 0
M  V30 5171 H 500.225 -0.0463805 6.06682 0
M  V30 5172 H 498.964 -0.422038 4.8587 0
M  V30 5173 H 497.969 1.86124 5.17337 0
M  V30 5174 H 499.194 2.22854 6.41493 0
M  V30 5175 H 497.14 -0.0107899 6.55999 0
M  V30 5176 H 497.057 1.49716 7.41027 0
M  V30 5177 H 498.325 0.368996 7.78626 0
M  V30 5178 N 502.554 -1.34406 0.822964 0
M  V30 5179 C 503.97 -1.51275 0.508727 0
M  V30 5180 C 504.17 -1.76776 -0.967083 0
M  V30 5181 O 503.226 -1.81871 -1.75155 0
M  V30 5182 C 504.539 -2.67765 1.36829 0
M  V30 5183 C 506.087 -2.81647 1.36542 0
M  V30 5184 C 506.562 -4.01181 2.20947 0
M  V30 5185 N 508.053 -4.08388 2.18571 0
M  V30 5186 C 508.788 -5.00036 2.80627 0
M  V30 5187 N 508.284 -5.96906 3.51674 0
M  V30 5188 N 510.077 -4.92908 2.70181 0
M  V30 5189 H 502.228 -1.16113 1.77852 0
M  V30 5190 H 504.491 -0.56947 0.757897 0
M  V30 5191 H 504.197 -2.55551 2.41633 0
M  V30 5192 H 504.071 -3.62779 1.03303 0
M  V30 5193 H 506.458 -2.93303 0.325163 0
M  V30 5194 H 506.539 -1.87443 1.74066 0
M  V30 5195 H 506.183 -3.90286 3.25022 0
M  V30 5196 H 506.113 -4.94599 1.80774 0
M  V30 5197 H 508.604 -3.39051 1.66891 0
M  V30 5198 H 508.917 -6.63468 3.96271 0
M  V30 5199 H 507.262 -5.9703 3.5578 0
M  V30 5200 H 510.453 -4.1619 2.14251 0
M  V30 5201 H 510.626 -5.64137 3.18831 0
M  V30 5202 N 504.032 -0.577932 -1.46621 0
M  V30 5203 C 505.28 -0.061566 -2.02006 0
M  V30 5204 C 505.601 1.30117 -1.4524 0
M  V30 5205 O 504.871 1.85313 -0.63529 0
M  V30 5206 H 503.451 -0.0197692 -0.746738 0
M  V30 5207 H 506.113 -0.752631 -1.79782 0
M  V30 5208 H 505.209 0.0110238 -3.12098 0
M  V30 5209 N 505.51 1.54411 -0.315457 0
M  V30 5210 C 506.735 2.05299 0.294496 0
M  V30 5211 C 507.16 1.19052 1.4563 0
M  V30 5212 O 506.518 0.197804 1.80218 0
M  V30 5213 C 506.566 3.5345 0.714549 0
M  V30 5214 O 505.67 3.70175 1.81781 0
M  V30 5215 H 505.011 0.661743 0.0547019 0
M  V30 5216 H 507.541 1.99327 -0.461508 0
M  V30 5217 H 507.551 3.9557 0.999426 0
M  V30 5218 H 506.226 4.1568 -0.135244 0
M  V30 5219 H 504.803 3.3996 1.53236 0
M  V30 5220 N 506.988 0.0434614 1.5754 0
M  V30 5221 C 507.938 -0.943039 2.07583 0
M  V30 5222 C 508.922 -1.27662 0.979342 0
M  V30 5223 O 510.114 -1.26034 1.24276 0
M  V30 5224 C 507.243 -2.22056 2.61813 0
M  V30 5225 C 506.329 -1.91471 3.78417 0
M  V30 5226 N 506.72 -1.31214 4.88484 0
M  V30 5227 C 505.018 -2.21384 3.87176 0
M  V30 5228 C 505.719 -1.18084 5.69588 0
M  V30 5229 N 504.695 -1.68116 5.16951 0
M  V30 5230 H 508.497 -0.472354 2.90079 0
M  V30 5231 H 506.011 -0.161191 1.61598 0
M  V30 5232 H 508.008 -2.93618 2.95963 0
M  V30 5233 H 506.668 -2.69738 1.80752 0
M  V30 5234 H 507.679 -0.985318 5.08441 0
M  V30 5235 H 504.356 -2.7164 3.17046 0
M  V30 5236 H 505.746 -0.713684 6.68099 0
M  V30 5237 N 508.466 -1.55915 -0.229846 0
M  V30 5238 C 509.712 -1.78807 -0.956868 0
M  V30 5239 C 510.045 -0.611687 -1.84315 0
M  V30 5240 O 509.32 0.389398 -1.90562 0
M  V30 5241 C 509.603 -3.11718 -1.80288 0
M  V30 5242 C 509.456 -4.3979 -0.943649 0
M  V30 5243 C 510.775 -3.40999 -2.78222 0
M  V30 5244 H 507.894 -0.6505 -0.346437 0
M  V30 5245 H 510.536 -1.88648 -0.226252 0
M  V30 5246 H 508.686 -3.03459 -2.42579 0
M  V30 5247 H 510.358 -4.60059 -0.338121 0
M  V30 5248 H 508.601 -4.33086 -0.248705 0
M  V30 5249 H 509.272 -5.29208 -1.5698 0
M  V30 5250 H 511.748 -3.49332 -2.26067 0
M  V30 5251 H 510.624 -4.35183 -3.34526 0
M  V30 5252 H 510.885 -2.62754 -3.55546 0
M  V30 5253 N 509.944 0.496216 -1.49584 0
M  V30 5254 C 511.169 1.27865 -1.63295 0
M  V30 5255 C 511.594 1.85592 -0.306156 0
M  V30 5256 O 510.952 1.66092 0.726851 0
M  V30 5257 C 511 2.38128 -2.7079 0
M  V30 5258 O 510.104 3.42108 -2.30296 0
M  V30 5259 H 509.445 0.377279 -0.546403 0
M  V30 5260 H 511.975 0.593497 -1.95803 0
M  V30 5261 H 511.985 2.8382 -2.93104 0
M  V30 5262 H 510.66 1.95479 -3.67098 0
M  V30 5263 H 509.237 3.02301 -2.18331 0
M  V30 5264 N 511.423 1.38739 0.74761 0
M  V30 5265 C 512.67 1.35274 1.50689 0
M  V30 5266 C 512.998 -0.0553359 1.94421 0
M  V30 5267 O 512.253 -1.03365 1.66175 0
M  V30 5268 C 512.552 2.25992 2.7688 0
M  V30 5269 C 512.218 3.73854 2.5208 0
M  V30 5270 C 510.88 4.14145 2.45025 0
M  V30 5271 C 513.232 4.67427 2.30568 0
M  V30 5272 C 510.56 5.4609 2.14483 0
M  V30 5273 C 512.912 5.99635 2.01545 0
M  V30 5274 C 511.576 6.39004 1.92951 0
M  V30 5275 H 510.846 0.495003 0.55141 0
M  V30 5276 H 513.493 1.71145 0.859158 0
M  V30 5277 H 511.798 1.83196 3.46333 0
M  V30 5278 H 513.495 2.20611 3.34861 0
M  V30 5279 H 510.085 3.41913 2.58444 0
M  V30 5280 H 514.269 4.3714 2.34994 0
M  V30 5281 H 509.525 5.75528 2.06342 0
M  V30 5282 H 513.699 6.71678 1.83906 0
M  V30 5283 H 511.326 7.41165 1.6905 0
M  V30 5284 N 512.901 -0.976442 1.23707 0
M  V30 5285 C 513.811 -2.10359 1.03856 0
M  V30 5286 C 514.827 -1.73991 -0.0180919 0
M  V30 5287 O 516.003 -2.0061 0.178211 0
M  V30 5288 C 513.068 -3.40809 0.636387 0
M  V30 5289 C 512.129 -3.91179 1.76854 0
M  V30 5290 C 511.362 -5.15404 1.38546 0
M  V30 5291 O 511.585 -5.69754 0.27142 0
M  V30 5292 O 510.519 -5.5994 2.20797 0
M  V30 5293 H 514.345 -2.29997 1.98331 0
M  V30 5294 H 511.93 -1.08742 1.02448 0
M  V30 5295 H 513.812 -4.19269 0.423223 0
M  V30 5296 H 512.487 -3.22493 -0.279322 0
M  V30 5297 H 511.394 -3.13819 2.03638 0
M  V30 5298 H 512.727 -4.13958 2.6627 0
M  V30 5299 N 514.379 -1.04941 -1.1758 0
M  V30 5300 C 515.329 -0.618378 -2.19454 0
M  V30 5301 C 516.313 0.343813 -1.57184 0
M  V30 5302 O 517.505 0.16145 -1.76262 0
M  V30 5303 C 514.634 0.00803847 -3.43299 0
M  V30 5304 C 513.72 -0.977827 -4.12673 0
M  V30 5305 N 514.111 -2.14826 -4.57912 0
M  V30 5306 C 512.409 -0.805748 -4.38661 0
M  V30 5307 C 513.11 -2.77174 -5.11419 0
M  V30 5308 N 512.086 -2.04989 -5.03468 0
M  V30 5309 H 515.888 -1.51018 -2.52132 0
M  V30 5310 H 513.402 -0.919201 -1.33882 0
M  V30 5311 H 515.399 0.334584 -4.15555 0
M  V30 5312 H 514.059 0.895272 -3.12114 0
M  V30 5313 H 515.07 -2.52673 -4.52081 0
M  V30 5314 H 511.747 0.0306506 -4.17489 0
M  V30 5315 H 513.137 -3.76416 -5.56562 0
M  V30 5316 N 515.857 1.33968 -0.830081 0
M  V30 5317 C 517.268 1.80439 -0.479455 0
M  V30 5318 C 517.619 1.68756 1.00079 0
M  V30 5319 O 516.744 1.23171 1.77927 0
M  V30 5320 C 517.339 3.27611 -0.863505 0
M  V30 5321 C 515.898 3.72133 -0.565145 0
M  V30 5322 C 515.045 2.55549 -1.07657 0
M  V30 5323 H 517.996 1.21614 -1.0196 0
M  V30 5324 H 518.017 3.8012 -0.170083 0
M  V30 5325 H 517.529 3.36082 -1.94089 0
M  V30 5326 H 515.63 3.69196 0.502536 0
M  V30 5327 H 515.743 4.65963 -1.11422 0
M  V30 5328 H 514.107 2.49788 -0.497807 0
M  V30 5329 H 514.89 2.66786 -2.16055 0
M  V30 5330 N 517.335 0.585699 1.46312 0
M  V30 5331 C 518.245 -0.148236 2.34131 0
M  V30 5332 C 519.261 -0.882972 1.49932 0
M  V30 5333 O 520.437 -0.845484 1.82794 0
M  V30 5334 C 517.502 -1.14714 3.27172 0
M  V30 5335 C 516.563 -0.416746 4.27272 0
M  V30 5336 C 515.796 -1.36806 5.15868 0
M  V30 5337 O 516.019 -2.60475 5.07454 0
M  V30 5338 O 514.953 -0.877018 5.95476 0
M  V30 5339 H 518.779 0.572882 2.98248 0
M  V30 5340 H 516.364 0.346082 1.45336 0
M  V30 5341 H 518.246 -1.72303 3.84564 0
M  V30 5342 H 516.921 -1.84967 2.65648 0
M  V30 5343 H 515.828 0.201061 3.73559 0
M  V30 5344 H 517.161 0.244872 4.9159 0
M  V30 5345 N 518.813 -1.54241 0.323641 0
M  V30 5346 C 520.061 -2.00174 -0.278359 0
M  V30 5347 C 520.382 -1.2134 -1.52648 0
M  V30 5348 O 519.652 -0.315244 -1.93347 0
M  V30 5349 H 518.232 -0.739463 -0.105845 0
M  V30 5350 H 520.894 -1.89864 0.440204 0
M  V30 5351 H 519.99 -3.07486 -0.5347 0
M  V30 5352 N 520.291 -0.0518155 -1.57515 0
M  V30 5353 C 521.521 0.63048 -1.96745 0
M  V30 5354 C 521.929 1.64875 -0.928054 0
M  V30 5355 O 521.272 1.83449 0.0960678 0
M  V30 5356 C 521.334 1.37381 -3.32215 0
M  V30 5357 C 520.998 0.511298 -4.54131 0
M  V30 5358 C 521.995 -0.222884 -5.19422 0
M  V30 5359 C 519.68 0.442035 -5.00351 0
M  V30 5360 C 521.674 -1.01476 -6.2927 0
M  V30 5361 C 519.361 -0.35353 -6.10077 0
M  V30 5362 C 520.359 -1.08062 -6.74397 0
M  V30 5363 O 520.047 -1.8631 -7.82013 0
M  V30 5364 H 519.779 0.177126 -0.652382 0
M  V30 5365 H 522.333 -0.114726 -2.05079 0
M  V30 5366 H 520.563 2.16466 -3.20436 0
M  V30 5367 H 522.252 1.9464 -3.56188 0
M  V30 5368 H 523.018 -0.178846 -4.8467 0
M  V30 5369 H 518.897 0.997562 -4.50077 0
M  V30 5370 H 522.441 -1.58279 -6.79407 0
M  V30 5371 H 518.338 -0.399205 -6.44264 0
M  V30 5372 H 519.106 -1.78528 -7.98793 0
M  V30 5373 N 521.769 1.56035 0.221574 0
M  V30 5374 C 522.732 1.91584 1.2581 0
M  V30 5375 C 523.732 0.794425 1.39805 0
M  V30 5376 O 524.922 1.06217 1.38071 0
M  V30 5377 C 522.054 2.16663 2.63192 0
M  V30 5378 H 523.247 2.8429 0.954935 0
M  V30 5379 H 520.8 1.49316 0.461988 0
M  V30 5380 H 521.535 1.26508 2.98607 0
M  V30 5381 H 521.32 2.98358 2.5441 0
M  V30 5382 H 522.81 2.45262 3.37988 0
M  V30 5383 N 523.247 -0.488276 1.49845 0
M  V30 5384 C 524.493 -1.24341 1.6021 0
M  V30 5385 C 524.826 -1.91967 0.293651 0
M  V30 5386 O 524.101 -1.81323 -0.703718 0
M  V30 5387 C 524.384 -2.3005 2.77036 0
M  V30 5388 C 524.237 -1.66842 4.17713 0
M  V30 5389 C 525.556 -3.31509 2.89464 0
M  V30 5390 H 522.675 -0.450704 0.583125 0
M  V30 5391 H 525.317 -0.539673 1.82174 0
M  V30 5392 H 523.467 -2.90071 2.58439 0
M  V30 5393 H 525.139 -1.1055 4.47858 0
M  V30 5394 H 523.382 -0.972079 4.22768 0
M  V30 5395 H 524.053 -2.43576 4.95353 0
M  V30 5396 H 526.529 -2.81493 3.06433 0
M  V30 5397 H 525.405 -4.02822 3.72861 0
M  V30 5398 H 525.666 -3.94603 1.99351 0
M  V30 5399 N 524.725 -1.39134 -0.740242 0
M  V30 5400 C 525.974 -1.35384 -1.49512 0
M  V30 5401 C 526.287 0.04919 -1.95538 0
M  V30 5402 O 527.493 0.209257 -2.70692 0
M  V30 5403 C 525.949 -2.37812 -2.70136 0
M  V30 5404 C 525.557 -3.83804 -2.31081 0
M  V30 5405 C 527.301 -2.4313 -3.47977 0
M  V30 5406 C 525.208 -4.77886 -3.48395 0
M  V30 5407 H 524.138 -0.503297 -0.561434 0
M  V30 5408 H 526.789 -1.64754 -0.807974 0
M  V30 5409 H 525.171 -2.01505 -3.40899 0
M  V30 5410 H 526.345 -4.29123 -1.67898 0
M  V30 5411 H 524.66 -3.81732 -1.66343 0
M  V30 5412 H 527.257 -3.10614 -4.35228 0
M  V30 5413 H 527.6 -1.45423 -3.90074 0
M  V30 5414 H 528.133 -2.78304 -2.84239 0
M  V30 5415 H 524.872 -5.76836 -3.11353 0
M  V30 5416 H 524.392 -4.3725 -4.10576 0
M  V30 5417 H 526.071 -4.96538 -4.148 0
M  V30 5418 N 526.204 0.969867 -1.24223 0
M  V30 5419 C 527.136 2.0669 -0.99055 0
M  V30 5420 C 528.149 1.62753 0.0392222 0
M  V30 5421 O 529.338 1.77403 -0.197561 0
M  V30 5422 C 526.438 3.35589 -0.472594 0
M  V30 5423 C 525.611 4.08444 -1.56499 0
M  V30 5424 C 524.67 5.15616 -1.05007 0
M  V30 5425 O 523.696 5.41911 -1.7413 0
M  V30 5426 N 524.898 5.80383 0.116641 0
M  V30 5427 H 527.663 2.28855 -1.93508 0
M  V30 5428 H 525.224 1.13733 -1.15223 0
M  V30 5429 H 527.216 4.04542 -0.112919 0
M  V30 5430 H 525.786 3.10311 0.377617 0
M  V30 5431 H 525.006 3.33798 -2.09696 0
M  V30 5432 H 526.294 4.53882 -2.29932 0
M  V30 5433 H 525.692 5.6142 0.694589 0
M  V30 5434 H 524.249 6.50462 0.417483 0
M  V30 5435 N 527.682 1.05563 1.17022 0
M  V30 5436 C 528.645 0.664098 2.19368 0
M  V30 5437 C 529.645 -0.286358 1.5823 0
M  V30 5438 O 530.835 -0.069728 1.7406 0
M  V30 5439 C 527.967 -0.0239932 3.40892 0
M  V30 5440 H 529.16 1.57 2.55521 0
M  V30 5441 H 526.713 0.849964 1.31169 0
M  V30 5442 H 527.448 -0.942988 3.10287 0
M  V30 5443 H 527.233 0.659351 3.86516 0
M  V30 5444 H 528.723 -0.283909 4.16634 0
M  V30 5445 N 529.16 -1.33526 0.837174 0
M  V30 5446 C 530.09 -2.31764 0.284206 0
M  V30 5447 C 531.071 -1.58896 -0.607142 0
M  V30 5448 O 532.256 -1.86798 -0.531047 0
M  V30 5449 C 529.386 -3.43029 -0.542962 0
M  V30 5450 C 528.34 -4.27255 0.252451 0
M  V30 5451 C 527.666 -5.3012 -0.69836 0
M  V30 5452 C 528.966 -5.01229 1.46858 0
M  V30 5453 H 530.66 -2.78262 1.10502 0
M  V30 5454 H 528.206 -1.3378 0.532812 0
M  V30 5455 H 530.159 -4.1078 -0.940096 0
M  V30 5456 H 528.883 -2.95216 -1.39697 0
M  V30 5457 H 527.542 -3.61127 0.631124 0
M  V30 5458 H 527.19 -4.78564 -1.54872 0
M  V30 5459 H 526.89 -5.87353 -0.170274 0
M  V30 5460 H 528.414 -6.00737 -1.09305 0
M  V30 5461 H 529.828 -5.61756 1.14469 0
M  V30 5462 H 528.225 -5.68104 1.93333 0
M  V30 5463 H 529.295 -4.301 2.23924 0
M  V30 5464 N 530.638 -0.59345 -1.46 0
M  V30 5465 C 531.887 -0.0808084 -2.01538 0
M  V30 5466 C 532.2 1.29112 -1.46934 0
M  V30 5467 O 533.406 1.8957 -1.94359 0
M  V30 5468 C 531.862 -0.0938311 -3.59778 0
M  V30 5469 C 531.47 -1.46474 -4.23379 0
M  V30 5470 C 533.214 0.364306 -4.22934 0
M  V30 5471 C 531.121 -1.4349 -5.73729 0
M  V30 5472 H 530.051 -0.0264407 -0.753536 0
M  V30 5473 H 532.702 -0.746689 -1.67621 0
M  V30 5474 H 531.084 0.638427 -3.9082 0
M  V30 5475 H 532.258 -2.21758 -4.03931 0
M  V30 5476 H 530.573 -1.86379 -3.7236 0
M  V30 5477 H 533.17 0.405584 -5.3316 0
M  V30 5478 H 533.513 1.38409 -3.92618 0
M  V30 5479 H 534.046 -0.31423 -3.96557 0
M  V30 5480 H 530.785 -2.43184 -6.08722 0
M  V30 5481 H 530.305 -0.724431 -5.95409 0
M  V30 5482 H 531.984 -1.15243 -6.36654 0
M  V30 5483 N 532.116 1.54067 -0.331816 0
M  V30 5484 C 533.393 1.92915 0.322955 0
M  V30 5485 C 533.773 1.26225 1.69205 0
M  V30 5486 O 533.121 0.408919 2.24811 0
M  V30 5487 C 533.331 3.46619 0.406946 0
M  V30 5488 C 534.679 4.19386 0.663339 0
M  V30 5489 O 535.703 3.5282 0.489536 0
M  V30 5490 O 534.562 5.37288 0.999193 0
M  V30 5491 H 531.656 0.805808 0.186016 0
M  V30 5492 H 534.202 1.65342 -0.382135 0
M  V30 5493 H 532.974 3.87354 -0.554287 0
M  V30 5494 H 532.597 3.80324 1.15929 0
M  V30 5495 N 533.594 0.0601682 1.57485 0
M  V30 5496 C 535.01 -0.296422 1.56823 0
M  V30 5497 C 535.21 -1.70831 1.0686 0
M  V30 5498 O 534.266 -2.4174 0.729245 0
M  V30 5499 C 535.579 -0.116681 3.00474 0
M  V30 5500 C 537.127 -0.187103 3.1244 0
M  V30 5501 C 537.602 -0.035783 4.57986 0
M  V30 5502 N 539.093 -0.0917676 4.63109 0
M  V30 5503 C 539.828 0.00107251 5.734 0
M  V30 5504 N 539.324 0.146773 6.92645 0
M  V30 5505 N 541.117 -0.0551577 5.62073 0
M  V30 5506 H 533.268 0.983055 1.88281 0
M  V30 5507 H 535.531 0.382386 0.867459 0
M  V30 5508 H 535.237 0.85712 3.41096 0
M  V30 5509 H 535.111 -0.873929 3.66936 0
M  V30 5510 H 537.498 -1.15138 2.71712 0
M  V30 5511 H 537.579 0.601052 2.48638 0
M  V30 5512 H 537.223 0.925212 4.99402 0
M  V30 5513 H 537.153 -0.843196 5.19806 0
M  V30 5514 H 539.644 -0.203261 3.77353 0
M  V30 5515 H 539.957 0.210076 7.72514 0
M  V30 5516 H 538.302 0.181979 6.94762 0
M  V30 5517 H 541.493 -0.167605 4.678 0
M  V30 5518 H 541.666 0.020652 6.47997 0
M  V30 5519 N 535.072 -1.5615 -0.213296 0
M  V30 5520 C 536.32 -1.79191 -0.934612 0
M  V30 5521 C 536.641 -0.630112 -1.84539 0
M  V30 5522 O 535.911 0.35257 -1.92701 0
M  V30 5523 H 534.491 -0.660937 -0.348097 0
M  V30 5524 H 537.153 -1.93618 -0.22317 0
M  V30 5525 H 536.249 -2.71656 -1.53654 0
M  V30 5526 N 536.55 0.480323 -1.50102 0
M  V30 5527 C 537.796 1.23489 -1.60867 0
M  V30 5528 C 538.129 1.91809 -0.303827 0
M  V30 5529 O 537.404 1.81694 0.694092 0
M  V30 5530 C 537.687 2.28578 -2.78252 0
M  V30 5531 C 537.54 1.64624 -4.18592 0
M  V30 5532 C 538.859 3.2997 -2.91218 0
M  V30 5533 H 535.978 0.447605 -0.585507 0
M  V30 5534 H 538.62 0.530005 -1.82458 0
M  V30 5535 H 536.77 2.88697 -2.59974 0
M  V30 5536 H 538.442 1.08173 -4.48438 0
M  V30 5537 H 536.685 0.949645 -4.23278 0
M  V30 5538 H 537.356 2.40946 -4.96638 0
M  V30 5539 H 539.832 2.79864 -3.07921 0
M  V30 5540 H 538.708 4.00839 -3.74993 0
M  V30 5541 H 538.969 3.93541 -2.0144 0
M  V30 5542 N 538.028 1.39524 0.732853 0
M  V30 5543 C 539.277 1.36175 1.48792 0
M  V30 5544 C 539.59 -0.0388195 1.95561 0
M  V30 5545 O 540.796 -0.194899 2.708 0
M  V30 5546 C 539.252 2.39242 2.68871 0
M  V30 5547 C 538.86 3.85024 2.29042 0
M  V30 5548 C 540.604 2.44972 3.46683 0
M  V30 5549 C 538.511 4.79727 3.45856 0
M  V30 5550 H 537.441 0.506267 0.558757 0
M  V30 5551 H 540.092 1.65181 0.799226 0
M  V30 5552 H 538.474 2.0331 3.39825 0
M  V30 5553 H 539.648 4.30008 1.6562 0
M  V30 5554 H 537.963 3.82609 1.64316 0
M  V30 5555 H 540.56 3.12918 4.33574 0
M  V30 5556 H 540.903 1.4749 3.89297 0
M  V30 5557 H 541.436 2.79808 2.82759 0
M  V30 5558 H 538.175 5.78479 3.08289 0
M  V30 5559 H 537.695 4.39421 4.08251 0
M  V30 5560 H 539.374 4.98731 4.12161 0
M  V30 5561 N 539.506 -0.963266 1.24736 0
M  V30 5562 C 540.754 -1.70343 1.08755 0
M  V30 5563 C 541.075 -1.91387 -0.373619 0
M  V30 5564 O 540.345 -1.4948 -1.2662 0
M  V30 5565 H 538.925 -0.631224 0.399456 0
M  V30 5566 H 541.587 -1.15859 1.56725 0
M  V30 5567 H 540.683 -2.68616 1.58909 0
M  V30 5568 N 540.985 -1.06182 -1.16461 0
M  V30 5569 C 542.262 -0.691364 -1.82974 0
M  V30 5570 C 542.642 0.827377 -1.9421 0
M  V30 5571 O 541.99 1.73723 -1.48434 0
M  V30 5572 C 542.2 -1.39199 -3.20038 0
M  V30 5573 C 543.548 -1.53647 -3.95825 0
M  V30 5574 O 544.572 -1.35181 -3.29552 0
M  V30 5575 O 543.431 -1.83932 -5.14618 0
M  V30 5576 H 540.525 -0.244605 -0.789998 0
M  V30 5577 H 543.071 -1.16203 -1.23673 0
M  V30 5578 H 541.843 -2.42766 -3.06888 0
M  V30 5579 H 541.466 -0.911335 -3.87015 0
M  V30 5580 N 542.463 1.3308 -0.844243 0
M  V30 5581 C 543.693 2.01515 -0.455541 0
M  V30 5582 C 544.101 1.63655 0.949406 0
M  V30 5583 O 543.444 0.84848 1.62931 0
M  V30 5584 C 543.506 3.55967 -0.502801 0
M  V30 5585 C 543.17 4.17222 -1.86481 0
M  V30 5586 C 544.167 4.36205 -2.8288 0
M  V30 5587 C 541.852 4.53528 -2.15911 0
M  V30 5588 C 543.846 4.90649 -4.06869 0
M  V30 5589 C 541.533 5.07679 -3.40155 0
M  V30 5590 C 542.531 5.26186 -4.35451 0
M  V30 5591 O 542.219 5.79183 -5.57496 0
M  V30 5592 H 541.951 0.65199 -0.178565 0
M  V30 5593 H 544.505 1.70867 -1.1399 0
M  V30 5594 H 542.735 3.85965 0.23836 0
M  V30 5595 H 544.424 4.05688 -0.131169 0
M  V30 5596 H 545.19 4.085 -2.61444 0
M  V30 5597 H 541.069 4.38414 -1.42528 0
M  V30 5598 H 544.613 5.0501 -4.81259 0
M  V30 5599 H 540.51 5.34815 -3.61446 0
M  V30 5600 H 541.278 5.97591 -5.5931 0
M  V30 5601 N 543.941 0.601185 1.45683 0
M  V30 5602 C 545.357 0.264315 1.57396 0
M  V30 5603 C 545.557 -1.23324 1.59353 0
M  V30 5604 O 544.613 -2.01594 1.52039 0
M  V30 5605 C 545.926 0.929839 2.85962 0
M  V30 5606 C 547.474 0.905156 2.99626 0
M  V30 5607 C 547.949 1.55057 4.30954 0
M  V30 5608 N 549.44 1.51576 4.37697 0
M  V30 5609 C 550.175 1.98436 5.37969 0
M  V30 5610 N 549.671 2.53352 6.44813 0
M  V30 5611 N 551.464 1.89242 5.29286 0
M  V30 5612 H 543.615 1.57363 1.42656 0
M  V30 5613 H 545.878 0.658831 0.681649 0
M  V30 5614 H 545.584 1.98404 2.90394 0
M  V30 5615 H 545.458 0.449224 3.74515 0
M  V30 5616 H 547.845 -0.14048 2.94765 0
M  V30 5617 H 547.926 1.42397 2.12501 0
M  V30 5618 H 547.57 2.5955 4.36573 0
M  V30 5619 H 547.5 1.00682 5.16886 0
M  V30 5620 H 549.991 1.11452 3.61091 0
M  V30 5621 H 550.304 2.86918 7.17564 0
M  V30 5622 H 548.649 2.57388 6.45582 0
M  V30 5623 H 551.84 1.46083 4.44722 0
M  V30 5624 H 552.013 2.26075 6.07284 0
M  V30 5625 N 545.419 -1.53889 0.339982 0
M  V30 5626 C 546.329 -2.28604 -0.526988 0
M  V30 5627 C 547.345 -1.33578 -1.11503 0
M  V30 5628 O 548.521 -1.66612 -1.13148 0
M  V30 5629 C 545.586 -3.04164 -1.66389 0
M  V30 5630 C 544.647 -4.14809 -1.10599 0
M  V30 5631 C 543.88 -4.86756 -2.18871 0
M  V30 5632 O 544.103 -4.58343 -3.39526 0
M  V30 5633 O 543.037 -5.73289 -1.83366 0
M  V30 5634 H 546.863 -3.03594 0.0802707 0
M  V30 5635 H 544.448 -1.4903 0.105141 0
M  V30 5636 H 546.33 -3.51427 -2.32544 0
M  V30 5637 H 545.005 -2.32035 -2.25703 0
M  V30 5638 H 543.912 -3.71857 -0.409067 0
M  V30 5639 H 545.245 -4.89029 -0.557771 0
M  V30 5640 N 546.897 -0.0685191 -1.57451 0
M  V30 5641 C 548.308 0.464634 -1.80826 0
M  V30 5642 C 548.659 1.69847 -0.982169 0
M  V30 5643 O 547.784 2.15439 -0.203734 0
M  V30 5644 C 548.379 0.849721 -3.27971 0
M  V30 5645 C 546.938 1.32776 -3.52204 0
M  V30 5646 C 546.085 0.311332 -2.75547 0
M  V30 5647 H 549.036 -0.294248 -1.55948 0
M  V30 5648 H 549.057 1.71138 -3.39841 0
M  V30 5649 H 548.569 -0.0484736 -3.8807 0
M  V30 5650 H 546.67 2.24456 -2.97406 0
M  V30 5651 H 546.783 1.30794 -4.60901 0
M  V30 5652 H 545.147 0.787915 -2.42206 0
M  V30 5653 H 545.93 -0.579078 -3.38381 0
M  V30 5654 N 548.375 1.56261 0.205012 0
M  V30 5655 C 549.791 1.49623 0.555433 0
M  V30 5656 C 549.991 0.766719 1.86343 0
M  V30 5657 O 549.047 0.313158 2.50551 0
M  V30 5658 C 550.36 2.94253 0.619347 0
M  V30 5659 C 551.908 3.04868 0.708855 0
M  V30 5660 C 552.383 4.50888 0.803969 0
M  V30 5661 N 553.874 4.54999 0.867758 0
M  V30 5662 C 554.609 5.65284 0.96135 0
M  V30 5663 N 554.105 6.85282 1.01786 0
M  V30 5664 N 555.898 5.53174 0.997771 0
M  V30 5665 H 548.049 2.0211 -0.653094 0
M  V30 5666 H 550.312 0.919333 -0.231366 0
M  V30 5667 H 550.018 3.50643 -0.272458 0
M  V30 5668 H 549.892 3.47063 1.47741 0
M  V30 5669 H 552.279 2.48532 1.5911 0
M  V30 5670 H 552.36 2.55199 -0.175205 0
M  V30 5671 H 552.004 5.07846 -0.0738798 0
M  V30 5672 H 551.934 4.98279 1.70369 0
M  V30 5673 H 554.425 3.68588 0.833735 0
M  V30 5674 H 554.738 7.65081 1.08951 0
M  V30 5675 H 553.083 6.8796 0.986706 0
M  V30 5676 H 556.274 4.5835 0.950392 0
M  V30 5677 H 556.447 6.39151 1.06725 0
M  V30 5678 N 549.853 -0.472356 1.50355 0
M  V30 5679 C 551.102 -1.2213 1.60522 0
M  V30 5680 C 551.415 -1.9312 0.310466 0
M  V30 5681 O 552.621 -2.69936 0.291029 0
M  V30 5682 C 551.077 -2.21909 2.83345 0
M  V30 5683 C 550.685 -1.56727 4.19691 0
M  V30 5684 C 552.429 -2.97453 3.02856 0
M  V30 5685 C 550.336 -2.54785 5.33703 0
M  V30 5686 H 549.266 -0.459543 0.597776 0
M  V30 5687 H 551.917 -0.491922 1.76783 0
M  V30 5688 H 550.299 -2.98133 2.60639 0
M  V30 5689 H 551.473 -0.863007 4.52646 0
M  V30 5690 H 549.788 -0.934685 4.05774 0
M  V30 5691 H 552.385 -3.70838 3.85205 0
M  V30 5692 H 552.728 -3.56764 2.14534 0
M  V30 5693 H 553.261 -2.28342 3.25737 0
M  V30 5694 H 550 -2.00214 6.24175 0
M  V30 5695 H 549.52 -3.23367 5.05167 0
M  V30 5696 H 551.199 -3.16639 5.64224 0
M  V30 5697 N 551.331 -1.39911 -0.725443 0
M  V30 5698 C 552.264 -1.33788 -1.84867 0
M  V30 5699 C 553.242 -0.209907 -1.61239 0
M  V30 5700 O 554.426 -0.391943 -1.8438 0
M  V30 5701 C 551.553 -1.07975 -3.21028 0
M  V30 5702 C 550.599 -2.23092 -3.635 0
M  V30 5703 S 551.432 -3.85431 -3.71757 0
M  V30 5704 C 552.588 -3.61862 -5.10692 0
M  V30 5705 H 552.821 -2.28848 -1.89779 0
M  V30 5706 H 550.354 -1.26079 -0.891254 0
M  V30 5707 H 552.312 -0.937669 -3.99647 0
M  V30 5708 H 550.973 -0.145865 -3.13761 0
M  V30 5709 H 550.166 -2.00647 -4.62338 0
M  V30 5710 H 549.768 -2.33553 -2.92112 0
M  V30 5711 H 552.06 -3.19719 -5.97316 0
M  V30 5712 H 553.003 -4.60196 -5.38169 0
M  V30 5713 H 553.411 -2.95757 -4.8082 0
M  V30 5714 N 552.809 0.956637 -1.25245 0
M  V30 5715 C 554.225 1.22733 -1.02023 0
M  V30 5716 C 554.425 1.99761 0.264186 0
M  V30 5717 O 553.481 2.32814 0.977436 0
M  V30 5718 C 554.794 2.00367 -2.24217 0
M  V30 5719 C 556.342 2.13418 -2.28958 0
M  V30 5720 C 556.817 2.9445 -3.50803 0
M  V30 5721 N 558.308 3.02029 -3.51187 0
M  V30 5722 C 559.043 3.65116 -4.42129 0
M  V30 5723 N 558.539 4.2983 -5.43339 0
M  V30 5724 N 560.332 3.62237 -4.29815 0
M  V30 5725 H 552.483 0.441282 -2.07765 0
M  V30 5726 H 554.746 0.257686 -0.912306 0
M  V30 5727 H 554.452 1.51165 -3.17556 0
M  V30 5728 H 554.326 3.01077 -2.27228 0
M  V30 5729 H 556.713 2.61819 -1.36143 0
M  V30 5730 H 556.794 1.1202 -2.29968 0
M  V30 5731 H 556.438 2.46741 -4.43939 0
M  V30 5732 H 556.368 3.9607 -3.47039 0
M  V30 5733 H 558.859 2.56007 -2.77973 0
M  V30 5734 H 559.172 4.75819 -6.08947 0
M  V30 5735 H 557.517 4.28465 -5.47214 0
M  V30 5736 H 560.708 3.10863 -3.49974 0
M  V30 5737 H 560.881 4.11117 -5.00886 0
M  V30 5738 N 554.287 1.06798 1.15896 0
M  V30 5739 C 555.534 0.787767 1.86549 0
M  V30 5740 C 555.862 -0.685959 1.82002 0
M  V30 5741 O 555.117 -1.5188 1.23414 0
M  V30 5742 C 555.416 1.23414 3.35416 0
M  V30 5743 C 555.082 2.71285 3.6016 0
M  V30 5744 C 553.744 3.11676 3.66622 0
M  V30 5745 C 556.096 3.6676 3.7032 0
M  V30 5746 C 553.424 4.4637 3.8075 0
M  V30 5747 C 555.776 5.01209 3.8597 0
M  V30 5748 C 554.44 5.41229 3.90676 0
M  V30 5749 H 553.71 0.288264 0.682631 0
M  V30 5750 H 556.357 1.338 1.37003 0
M  V30 5751 H 554.662 0.60319 3.87129 0
M  V30 5752 H 556.359 0.994298 3.88477 0
M  V30 5753 H 552.949 2.39015 3.55767 0
M  V30 5754 H 557.133 3.36685 3.64633 0
M  V30 5755 H 552.389 4.76855 3.82648 0
M  V30 5756 H 556.563 5.75067 3.92773 0
M  V30 5757 H 554.19 6.45602 4.01375 0
M  V30 5758 N 555.766 -1.3263 0.851289 0
M  V30 5759 C 557.014 -1.96978 0.452128 0
M  V30 5760 C 557.335 -1.67715 -0.99482 0
M  V30 5761 O 556.605 -0.98259 -1.69476 0
M  V30 5762 H 555.185 -0.72873 0.164202 0
M  V30 5763 H 557.847 -1.61774 1.08698 0
M  V30 5764 H 556.943 -3.06387 0.594407 0
M  V30 5765 N 557.244 -0.608902 -1.45362 0
M  V30 5766 C 558.491 -0.104607 -2.0223 0
M  V30 5767 C 558.819 1.26534 -1.47714 0
M  V30 5768 O 558.074 1.84855 -0.642435 0
M  V30 5769 C 558.373 -0.0167296 -3.57396 0
M  V30 5770 C 558.039 -1.32251 -4.31069 0
M  V30 5771 C 556.701 -1.68019 -4.50914 0
M  V30 5772 C 559.053 -2.18542 -4.73169 0
M  V30 5773 C 556.381 -2.89828 -5.10114 0
M  V30 5774 C 558.733 -3.39602 -5.33717 0
M  V30 5775 C 557.397 -3.7562 -5.51784 0
M  V30 5776 H 556.667 -0.0382785 -0.740011 0
M  V30 5777 H 559.314 -0.790782 -1.7441 0
M  V30 5778 H 557.619 0.752715 -3.84502 0
M  V30 5779 H 559.316 0.389634 -3.99103 0
M  V30 5780 H 555.906 -1.03411 -4.15938 0
M  V30 5781 H 560.09 -1.92208 -4.5757 0
M  V30 5782 H 555.346 -3.17839 -5.22291 0
M  V30 5783 H 559.52 -4.06716 -5.65292 0
M  V30 5784 H 557.147 -4.70093 -5.97425 0
M  V30 5785 N 558.722 1.53707 -0.348139 0
M  V30 5786 C 559.95 2.05406 0.248224 0
M  V30 5787 C 560.365 1.22282 1.43849 0
M  V30 5788 O 559.722 0.259244 1.80649 0
M  V30 5789 C 559.773 3.55446 0.658793 0
M  V30 5790 O 559.494 4.35417 -0.484149 0
M  V30 5791 C 560.995 4.23335 1.31539 0
M  V30 5792 H 558.215 0.669344 0.0471075 0
M  V30 5793 H 560.759 1.98257 -0.501456 0
M  V30 5794 H 558.914 3.62803 1.35841 0
M  V30 5795 H 559.328 5.24268 -0.155949 0
M  V30 5796 H 560.802 5.29692 1.55338 0
M  V30 5797 H 561.279 3.75967 2.27036 0
M  V30 5798 H 561.885 4.20184 0.657683 0
M  V30 5799 N 560.2 0.0768682 1.57412 0
M  V30 5800 C 561.611 -0.455037 1.8107 0
M  V30 5801 C 561.962 -1.69323 0.991162 0
M  V30 5802 O 561.087 -2.15328 0.215156 0
M  V30 5803 C 561.682 -0.832316 3.28417 0
M  V30 5804 C 560.241 -1.30906 3.52903 0
M  V30 5805 C 559.388 -0.296714 2.75708 0
M  V30 5806 H 562.339 0.302514 1.5579 0
M  V30 5807 H 562.36 -1.69333 3.40744 0
M  V30 5808 H 561.872 0.0690532 3.88039 0
M  V30 5809 H 559.973 -2.22875 2.98592 0
M  V30 5810 H 560.086 -1.28348 4.61588 0
M  V30 5811 H 558.45 -0.775059 2.42621 0
M  V30 5812 H 559.233 0.597015 3.38069 0
M  V30 5813 N 561.678 -1.56367 -0.196722 0
M  V30 5814 C 562.608 -1.97442 -1.24655 0
M  V30 5815 C 563.589 -0.846147 -1.47561 0
M  V30 5816 O 564.774 -1.11035 -1.59326 0
M  V30 5817 C 561.904 -2.31253 -2.59112 0
M  V30 5818 C 560.858 -3.46804 -2.50821 0
M  V30 5819 C 560.184 -3.66286 -3.89536 0
M  V30 5820 C 561.484 -4.8104 -2.03465 0
M  V30 5821 H 563.178 -2.85388 -0.905216 0
M  V30 5822 H 560.724 -1.37304 -0.434002 0
M  V30 5823 H 562.677 -2.58583 -3.32736 0
M  V30 5824 H 561.401 -1.40188 -2.94983 0
M  V30 5825 H 560.06 -3.19563 -1.79653 0
M  V30 5826 H 559.708 -2.72555 -4.22756 0
M  V30 5827 H 559.408 -4.4402 -3.84864 0
M  V30 5828 H 560.932 -3.9599 -4.64784 0
M  V30 5829 H 562.346 -5.07411 -2.66846 0
M  V30 5830 H 560.743 -5.62232 -2.09798 0
M  V30 5831 H 561.813 -4.74732 -0.98781 0
M  V30 5832 N 563.156 0.464375 -1.50603 0
M  V30 5833 C 564.386 1.23727 -1.65454 0
M  V30 5834 C 564.794 1.86119 -0.340032 0
M  V30 5835 O 564.137 1.70301 0.688706 0
M  V30 5836 C 564.199 2.38153 -2.69301 0
M  V30 5837 C 563.863 1.96345 -4.12671 0
M  V30 5838 C 564.86 1.48215 -4.98326 0
M  V30 5839 C 562.545 2.04861 -4.58625 0
M  V30 5840 C 564.539 1.09152 -6.27985 0
M  V30 5841 C 562.226 1.65409 -5.88288 0
M  V30 5842 C 563.224 1.17634 -6.72794 0
M  V30 5843 O 562.912 0.787312 -8.00035 0
M  V30 5844 H 562.644 0.380075 -0.559034 0
M  V30 5845 H 565.198 0.559919 -1.97621 0
M  V30 5846 H 563.428 3.09081 -2.32392 0
M  V30 5847 H 565.117 3.00099 -2.73304 0
M  V30 5848 H 565.883 1.41052 -4.64036 0
M  V30 5849 H 561.762 2.40996 -3.92991 0
M  V30 5850 H 565.306 0.717909 -6.93896 0
M  V30 5851 H 561.203 1.72233 -6.22098 0
M  V30 5852 H 561.971 0.915567 -8.13363 0
M  V30 5853 N 564.634 1.40294 0.718013 0
M  V30 5854 C 565.862 1.4175 1.50714 0
M  V30 5855 C 566.277 0.0165366 1.88793 0
M  V30 5856 O 565.634 -0.958942 1.55276 0
M  V30 5857 C 565.685 2.30598 2.784 0
M  V30 5858 O 565.406 3.6524 2.41932 0
M  V30 5859 C 566.907 2.4062 3.72313 0
M  V30 5860 H 564.127 0.483565 0.465194 0
M  V30 5861 H 566.671 1.84316 0.885889 0
M  V30 5862 H 564.826 1.91401 3.36815 0
M  V30 5863 H 565.24 4.12402 3.24076 0
M  V30 5864 H 566.714 3.07001 4.58753 0
M  V30 5865 H 567.191 1.4305 4.15251 0
M  V30 5866 H 567.797 2.80359 3.19811 0
M  V30 5867 N 566.112 -0.949982 1.2575 0
M  V30 5868 C 567.34 -1.72972 1.13527 0
M  V30 5869 C 567.755 -1.8623 -0.310453 0
M  V30 5870 O 567.112 -1.36336 -1.2132 0
M  V30 5871 C 567.163 -3.14108 1.78936 0
M  V30 5872 O 566.884 -3.01493 3.17858 0
M  V30 5873 C 568.385 -4.08338 1.72554 0
M  V30 5874 H 565.605 -0.541864 0.395758 0
M  V30 5875 H 568.149 -1.19151 1.66202 0
M  V30 5876 H 566.304 -3.64858 1.30221 0
M  V30 5877 H 566.718 -3.90559 3.50092 0
M  V30 5878 H 568.192 -5.04963 2.22973 0
M  V30 5879 H 568.669 -4.33742 0.690251 0
M  V30 5880 H 569.275 -3.63506 2.2078 0
M  V30 5881 N 567.59 -1.07411 -1.15328 0
M  V30 5882 C 568.837 -0.797649 -1.86128 0
M  V30 5883 C 569.165 0.676298 -1.82364 0
M  V30 5884 O 568.42 1.51223 -1.24218 0
M  V30 5885 C 568.719 -1.25191 -3.34757 0
M  V30 5886 C 568.385 -2.73191 -3.58716 0
M  V30 5887 C 567.047 -3.13616 -3.64964 0
M  V30 5888 C 569.399 -3.68718 -3.6837 0
M  V30 5889 C 566.727 -4.48383 -3.78377 0
M  V30 5890 C 569.079 -5.03248 -3.83306 0
M  V30 5891 C 567.743 -5.43293 -3.878 0
M  V30 5892 H 567.013 -0.29188 -0.681092 0
M  V30 5893 H 569.66 -1.34524 -1.36292 0
M  V30 5894 H 567.965 -0.623712 -3.86804 0
M  V30 5895 H 569.662 -1.01489 -3.87945 0
M  V30 5896 H 566.252 -2.40898 -3.54494 0
M  V30 5897 H 570.436 -3.38614 -3.62842 0
M  V30 5898 H 565.692 -4.78877 -3.80114 0
M  V30 5899 H 569.866 -5.77142 -3.89718 0
M  V30 5900 H 567.493 -6.47721 -3.97946 0
M  V30 5901 N 569.068 1.32177 -0.85831 0
M  V30 5902 C 570.296 2.01313 -0.477582 0
M  V30 5903 C 570.711 1.6449 0.926736 0
M  V30 5904 O 570.068 0.868096 1.60531 0
M  V30 5905 C 570.119 3.56293 -0.611337 0
M  V30 5906 O 569.84 3.91794 -1.96034 0
M  V30 5907 C 571.341 4.42702 -0.230093 0
M  V30 5908 H 568.561 0.644323 -0.187322 0
M  V30 5909 H 571.105 1.68674 -1.15626 0
M  V30 5910 H 569.26 3.87395 0.0196494 0
M  V30 5911 H 569.674 4.86513 -1.95973 0
M  V30 5912 H 571.148 5.50727 -0.374674 0
M  V30 5913 H 571.625 4.3129 0.829779 0
M  V30 5914 H 572.231 4.16997 -0.836302 0
M  V30 5915 N 570.547 0.616602 1.45037 0
M  V30 5916 C 571.457 -0.0985401 2.34393 0
M  V30 5917 C 572.473 -0.850971 1.51771 0
M  V30 5918 O 573.649 -0.806521 1.84546 0
M  V30 5919 C 570.714 -1.07748 3.29532 0
M  V30 5920 C 569.775 -0.326022 4.2806 0
M  V30 5921 C 569.008 -1.25833 5.18654 0
M  V30 5922 O 569.231 -2.49652 5.12864 0
M  V30 5923 O 568.165 -0.750512 5.97203 0
M  V30 5924 H 571.991 0.636016 2.96966 0
M  V30 5925 H 569.576 0.376832 1.44569 0
M  V30 5926 H 571.458 -1.64107 3.88133 0
M  V30 5927 H 570.133 -1.79291 2.69512 0
M  V30 5928 H 569.04 0.280253 3.73049 0
M  V30 5929 H 570.373 0.349091 4.9096 0
M  V30 5930 N 572.025 -1.5352 0.356285 0
M  V30 5931 C 573.271 -2.01414 -0.236653 0
M  V30 5932 C 573.604 -1.24339 -1.49176 0
M  V30 5933 O 572.879 -0.334496 -1.91602 0
M  V30 5934 C 573.162 -3.56059 -0.537982 0
M  V30 5935 C 573.015 -4.43835 0.730112 0
M  V30 5936 C 574.334 -4.19127 -1.34239 0
M  V30 5937 H 571.453 -0.732135 -0.0845386 0
M  V30 5938 H 574.095 -1.83854 0.479341 0
M  V30 5939 H 572.245 -3.71153 -1.14795 0
M  V30 5940 H 573.917 -4.40555 1.36782 0
M  V30 5941 H 572.16 -4.1218 1.3524 0
M  V30 5942 H 572.831 -5.49958 0.474358 0
M  V30 5943 H 575.307 -4.07809 -0.826498 0
M  V30 5944 H 574.183 -5.27378 -1.52198 0
M  V30 5945 H 574.444 -3.74581 -2.34822 0
M  V30 5946 N 573.503 -0.0852151 -1.57369 0
M  V30 5947 C 574.749 0.575588 -1.95086 0
M  V30 5948 C 575.104 1.66402 -0.96582 0
M  V30 5949 O 574.397 1.91598 0.00978463 0
M  V30 5950 C 574.591 1.18482 -3.3719 0
M  V30 5951 C 574.42 0.156928 -4.49426 0
M  V30 5952 C 573.19 -0.263126 -5.04614 0
M  V30 5953 C 575.388 -0.611068 -5.10657 0
M  V30 5954 N 573.37 -1.28032 -6.00401 0
M  V30 5955 C 574.741 -1.48036 -6.02068 0
M  V30 5956 C 576.796 -0.665669 -4.9343 0
M  V30 5957 C 575.499 -2.39943 -6.781 0
M  V30 5958 C 577.525 -1.5723 -5.70116 0
M  V30 5959 C 576.887 -2.42924 -6.61186 0
M  V30 5960 H 572.986 0.181249 -0.760705 0
M  V30 5961 H 575.57 -0.165484 -1.93995 0
M  V30 5962 H 573.741 1.89575 -3.38992 0
M  V30 5963 H 575.473 1.80718 -3.62109 0
M  V30 5964 H 572.228 0.122664 -4.73441 0
M  V30 5965 H 572.652 -1.78682 -6.52994 0
M  V30 5966 H 577.294 -0.0173214 -4.22796 0
M  V30 5967 H 575.012 -3.05807 -7.48002 0
M  V30 5968 H 578.598 -1.61956 -5.58804 0
M  V30 5969 H 577.478 -3.1194 -7.19488 0
M  V30 5970 N 574.981 1.5647 0.188427 0
M  V30 5971 C 576.258 1.71857 0.934058 0
M  V30 5972 C 576.638 0.641867 2.01105 0
M  V30 5973 O 575.986 -0.346098 2.25864 0
M  V30 5974 C 576.196 3.14431 1.5144 0
M  V30 5975 C 577.544 3.74869 1.99396 0
M  V30 5976 O 578.568 3.17601 1.61269 0
M  V30 5977 O 577.427 4.75387 2.69573 0
M  V30 5978 H 574.521 0.701186 0.438483 0
M  V30 5979 H 577.067 1.68768 0.177599 0
M  V30 5980 H 575.839 3.8427 0.738416 0
M  V30 5981 H 575.462 3.21775 2.33552 0
M  V30 5982 N 576.459 -0.456382 1.50847 0
M  V30 5983 C 577.422 -1.53493 1.70213 0
M  V30 5984 C 578.422 -1.50264 0.572481 0
M  V30 5985 O 579.612 -1.52623 0.839751 0
M  V30 5986 C 576.744 -2.93091 1.741 0
M  V30 5987 H 577.937 -1.37633 2.66453 0
M  V30 5988 H 575.49 -0.683776 1.4055 0
M  V30 5989 H 576.225 -3.14378 0.796063 0
M  V30 5990 H 576.01 -2.9684 2.5618 0
M  V30 5991 H 577.5 -3.71368 1.90987 0
M  V30 5992 N 577.937 -1.40673 -0.710563 0
M  V30 5993 C 579.183 -1.39428 -1.47267 0
M  V30 5994 C 579.516 0.00182129 -1.942 0
M  V30 5995 O 578.791 0.971387 -1.68506 0
M  V30 5996 C 579.074 -2.38812 -2.6952 0
M  V30 5997 C 578.927 -3.87467 -2.28449 0
M  V30 5998 C 580.246 -2.3566 -3.71689 0
M  V30 5999 H 577.365 -0.507768 -0.534173 0
M  V30 6000 H 580.007 -1.71843 -0.810547 0
M  V30 6001 H 578.157 -2.113 -3.26013 0
M  V30 6002 H 579.829 -4.25825 -1.77399 0
M  V30 6003 H 578.072 -4.03058 -1.60395 0
M  V30 6004 H 578.743 -4.5253 -3.16103 0
M  V30 6005 H 581.219 -2.6004 -3.24836 0
M  V30 6006 H 580.095 -3.07237 -4.54859 0
M  V30 6007 H 580.356 -1.36996 -4.20339 0
M  V30 6008 N 579.415 0.9433 -1.26252 0
M  V30 6009 C 580.347 2.04542 -1.03417 0
M  V30 6010 C 581.36 1.62799 0.0046911 0
M  V30 6011 O 582.549 1.76944 -0.235146 0
M  V30 6012 C 579.649 3.34511 -0.543671 0
M  V30 6013 C 578.822 4.05033 -1.65128 0
M  V30 6014 C 577.881 5.13273 -1.1592 0
M  V30 6015 O 576.907 5.38095 -1.85586 0
M  V30 6016 N 578.109 5.805 -0.00649279 0
M  V30 6017 H 580.874 2.24699 -1.98319 0
M  V30 6018 H 578.435 1.11264 -1.1761 0
M  V30 6019 H 580.427 4.04212 -0.198703 0
M  V30 6020 H 578.997 3.11042 0.311711 0
M  V30 6021 H 578.217 3.29275 -2.16729 0
M  V30 6022 H 579.505 4.48903 -2.39508 0
M  V30 6023 H 578.903 5.62767 0.575347 0
M  V30 6024 H 577.46 6.51201 0.279416 0
M  V30 6025 N 580.893 1.08022 1.14757 0
M  V30 6026 C 582.142 0.802468 1.8505 0
M  V30 6027 C 582.455 -0.674061 1.83619 0
M  V30 6028 O 583.661 -1.06683 2.49662 0
M  V30 6029 C 582.117 1.38551 3.32162 0
M  V30 6030 C 581.725 2.89354 3.42021 0
M  V30 6031 C 583.469 1.18608 4.07594 0
M  V30 6032 C 581.376 3.40815 4.83321 0
M  V30 6033 H 580.306 0.296518 0.693248 0
M  V30 6034 H 582.957 1.30114 1.29393 0
M  V30 6035 H 581.339 0.814556 3.87532 0
M  V30 6036 H 582.513 3.52552 2.96722 0
M  V30 6037 H 580.828 3.08165 2.80041 0
M  V30 6038 H 583.425 1.54525 5.11885 0
M  V30 6039 H 583.768 0.125599 4.1611 0
M  V30 6040 H 584.301 1.72375 3.58513 0
M  V30 6041 H 581.04 4.46418 4.79991 0
M  V30 6042 H 580.56 2.82374 5.29174 0
M  V30 6043 H 582.239 3.37171 5.522 0
M  V30 6044 N 582.371 -1.3172 0.865308 0
M  V30 6045 C 583.301 -2.31109 0.333302 0
M  V30 6046 C 584.282 -1.60148 -0.573301 0
M  V30 6047 O 585.467 -1.87882 -0.491305 0
M  V30 6048 C 582.597 -3.44104 -0.470078 0
M  V30 6049 C 581.551 -4.26623 0.343021 0
M  V30 6050 C 580.877 -5.31482 -0.585756 0
M  V30 6051 C 582.177 -4.98001 1.57456 0
M  V30 6052 H 583.871 -2.75855 1.1638 0
M  V30 6053 H 581.417 -1.3262 0.561069 0
M  V30 6054 H 583.37 -4.12682 -0.852752 0
M  V30 6055 H 582.094 -2.98112 -1.33404 0
M  V30 6056 H 580.753 -3.59707 0.707583 0
M  V30 6057 H 580.401 -4.81741 -1.44686 0
M  V30 6058 H 580.101 -5.87582 -0.0456494 0
M  V30 6059 H 581.625 -6.0292 -0.965375 0
M  V30 6060 H 583.039 -5.59201 1.26359 0
M  V30 6061 H 581.436 -5.63876 2.05339 0
M  V30 6062 H 582.506 -4.25253 2.32997 0
M  V30 6063 N 583.85 -0.624285 -1.44708 0
M  V30 6064 C 585.098 -0.125802 -2.01708 0
M  V30 6065 C 585.418 1.2543 -1.49306 0
M  V30 6066 O 584.689 1.83198 -0.693924 0
M  V30 6067 H 583.269 -0.0435161 -0.745731 0
M  V30 6068 H 585.931 -0.809446 -1.77296 0
M  V30 6069 H 585.027 -0.0882734 -3.11975 0
M  V30 6070 N 585.328 1.53329 -0.364422 0
M  V30 6071 C 586.238 2.29414 0.490552 0
M  V30 6072 C 587.254 1.35335 1.09363 0
M  V30 6073 O 588.43 1.68391 1.10483 0
M  V30 6074 C 585.495 3.06772 1.61529 0
M  V30 6075 C 584.556 4.16516 1.03986 0
M  V30 6076 C 583.789 4.90176 2.111 0
M  V30 6077 O 584.012 4.63687 3.32191 0
M  V30 6078 O 582.946 5.76134 1.74222 0
M  V30 6079 H 586.772 3.03428 -0.12856 0
M  V30 6080 H 584.357 1.48843 -0.128837 0
M  V30 6081 H 586.239 3.55082 2.26924 0
M  V30 6082 H 584.914 2.35596 2.21983 0
M  V30 6083 H 583.821 3.7246 0.349856 0
M  V30 6084 H 585.154 4.89855 0.4799 0
M  V30 6085 N 586.806 0.0935595 1.57322 0
M  V30 6086 C 588.055 -0.570191 1.93473 0
M  V30 6087 C 588.368 -1.69434 0.977318 0
M  V30 6088 O 589.574 -2.41914 1.23248 0
M  V30 6089 C 588.03 -1.06564 3.43762 0
M  V30 6090 C 587.638 0.0286723 4.47991 0
M  V30 6091 C 589.382 -1.70221 3.88877 0
M  V30 6092 C 587.289 -0.482046 5.89432 0
M  V30 6093 H 586.219 -0.216764 0.72217 0
M  V30 6094 H 588.87 0.169313 1.82717 0
M  V30 6095 H 587.252 -1.85878 3.49664 0
M  V30 6096 H 588.426 0.804106 4.5373 0
M  V30 6097 H 586.741 0.570336 4.12476 0
M  V30 6098 H 589.338 -2.09502 4.91948 0
M  V30 6099 H 589.681 -2.57078 3.27439 0
M  V30 6100 H 590.214 -0.974919 3.85668 0
M  V30 6101 H 586.953 0.349871 6.54566 0
M  V30 6102 H 586.473 -1.22452 5.87167 0
M  V30 6103 H 588.152 -0.951508 6.39965 0
M  V30 6104 N 588.284 -1.56567 -0.180126 0
M  V30 6105 C 589.214 -1.98753 -1.22553 0
M  V30 6106 C 590.195 -0.86175 -1.46656 0
M  V30 6107 O 591.38 -1.12719 -1.58139 0
M  V30 6108 C 588.51 -2.33988 -2.56645 0
M  V30 6109 C 587.464 -3.49445 -2.47128 0
M  V30 6110 C 586.79 -3.70397 -3.8563 0
M  V30 6111 C 588.09 -4.83171 -1.98352 0
M  V30 6112 H 589.784 -2.86332 -0.874896 0
M  V30 6113 H 587.33 -1.37757 -0.419414 0
M  V30 6114 H 589.283 -2.62097 -3.29974 0
M  V30 6115 H 588.007 -1.43309 -2.93479 0
M  V30 6116 H 586.666 -3.2145 -1.76254 0
M  V30 6117 H 586.314 -2.77023 -4.19842 0
M  V30 6118 H 586.014 -4.48077 -3.80132 0
M  V30 6119 H 587.538 -4.00897 -4.60558 0
M  V30 6120 H 588.952 -5.10213 -2.61449 0
M  V30 6121 H 587.349 -5.64425 -2.03823 0
M  V30 6122 H 588.419 -4.75753 -0.937402 0
M  V30 6123 N 589.762 0.448376 -1.51087 0
M  V30 6124 C 591.039 1.20926 -1.53741 0
M  V30 6125 C 591.419 2.09025 -0.295222 0
M  V30 6126 O 590.767 2.16851 0.720283 0
M  V30 6127 C 590.977 2.02067 -2.84552 0
M  V30 6128 C 592.325 2.59486 -3.36084 0
M  V30 6129 O 593.349 2.12289 -2.86028 0
M  V30 6130 O 592.208 3.45539 -4.23397 0
M  V30 6131 H 589.302 0.549951 -0.617643 0
M  V30 6132 H 591.848 0.458344 -1.63393 0
M  V30 6133 H 590.62 1.37291 -3.66425 0
M  V30 6134 H 590.243 2.84246 -2.78011 0
M  V30 6135 N 591.24 1.41047 0.703093 0
M  V30 6136 C 592.656 1.23351 1.01275 0
M  V30 6137 C 592.856 0.11754 2.01157 0
M  V30 6138 O 591.912 -0.520518 2.47077 0
M  V30 6139 C 593.225 2.58001 1.54454 0
M  V30 6140 C 594.773 2.65119 1.66376 0
M  V30 6141 C 595.248 4.00067 2.22958 0
M  V30 6142 N 596.739 4.01875 2.30328 0
M  V30 6143 C 597.474 5.03087 2.75119 0
M  V30 6144 N 596.97 6.14692 3.19571 0
M  V30 6145 N 598.763 4.90451 2.74616 0
M  V30 6146 H 590.914 2.1236 0.0412686 0
M  V30 6147 H 593.177 0.944543 0.08089 0
M  V30 6148 H 592.883 3.40378 0.88521 0
M  V30 6149 H 592.757 2.79962 2.52786 0
M  V30 6150 H 595.144 1.83106 2.31422 0
M  V30 6151 H 595.225 2.46975 0.666089 0
M  V30 6152 H 594.869 4.82526 1.58529 0
M  V30 6153 H 594.799 4.15547 3.23462 0
M  V30 6154 H 597.29 3.21291 1.98949 0
M  V30 6155 H 597.603 6.87799 3.52352 0
M  V30 6156 H 595.948 6.18239 3.17498 0
M  V30 6157 H 599.139 4.0235 2.39233 0
M  V30 6158 H 599.312 5.6947 3.09206 0
M  V30 6159 N 592.718 -0.936591 1.26751 0
M  V30 6160 C 593.665 -2.03597 1.08706 0
M  V30 6161 C 594.635 -1.66097 -0.00926542 0
M  V30 6162 O 595.82 -1.90199 0.151377 0
M  V30 6163 C 592.96 -3.3727 0.73094 0
M  V30 6164 C 592.073 -3.87778 1.90399 0
M  V30 6165 C 591.208 -5.09859 1.49056 0
M  V30 6166 C 590.247 -5.5264 2.63164 0
M  V30 6167 N 589.384 -6.65921 2.22471 0
M  V30 6168 H 594.224 -2.18364 2.02784 0
M  V30 6169 H 591.761 -1.06985 1.00958 0
M  V30 6170 H 593.719 -4.14128 0.505328 0
M  V30 6171 H 592.349 -3.22337 -0.172868 0
M  V30 6172 H 591.401 -3.07279 2.2424 0
M  V30 6173 H 592.713 -4.15464 2.76028 0
M  V30 6174 H 591.867 -5.9419 1.22567 0
M  V30 6175 H 590.606 -4.8393 0.60524 0
M  V30 6176 H 589.611 -4.66863 2.90377 0
M  V30 6177 H 590.836 -5.80568 3.52303 0
M  V30 6178 H 588.782 -6.41667 1.36379 0
M  V30 6179 H 588.699 -6.93216 3.01641 0
M  V30 6180 H 589.967 -7.53616 1.99205 0
M  V30 6181 N 594.196 -1.08629 -1.14182 0
M  V30 6182 C 595.424 -0.838889 -1.8913 0
M  V30 6183 C 595.839 0.609153 -1.78703 0
M  V30 6184 O 595.196 1.41876 -1.14794 0
M  V30 6185 C 595.247 -1.25477 -3.39025 0
M  V30 6186 O 594.968 -2.64601 -3.49167 0
M  V30 6187 C 596.469 -1.03856 -4.30963 0
M  V30 6188 H 593.689 -0.302377 -0.599007 0
M  V30 6189 H 596.233 -1.44615 -1.44592 0
M  V30 6190 H 594.388 -0.691571 -3.81177 0
M  V30 6191 H 594.802 -2.81922 -4.42289 0
M  V30 6192 H 596.276 -1.37892 -5.345 0
M  V30 6193 H 596.753 0.0242522 -4.39193 0
M  V30 6194 H 597.359 -1.58731 -3.94569 0
M  V30 6195 N 595.674 1.31259 -0.872281 0
M  V30 6196 C 596.92 1.973 -0.494414 0
M  V30 6197 C 597.275 1.67684 0.94339 0
M  V30 6198 O 596.568 0.964186 1.65572 0
M  V30 6199 C 596.762 3.50659 -0.690889 0
M  V30 6200 C 596.591 3.95179 -2.14624 0
M  V30 6201 C 595.361 4.21405 -2.7883 0
M  V30 6202 C 597.559 4.08948 -3.11875 0
M  V30 6203 N 595.541 4.52295 -4.15093 0
M  V30 6204 C 596.912 4.43576 -4.33174 0
M  V30 6205 C 598.967 3.91334 -3.07835 0
M  V30 6206 C 597.67 4.62429 -5.50956 0
M  V30 6207 C 599.696 4.11381 -4.24876 0
M  V30 6208 C 599.058 4.46343 -5.44938 0
M  V30 6209 H 595.157 0.747411 -0.230002 0
M  V30 6210 H 597.741 1.58741 -1.12736 0
M  V30 6211 H 595.912 3.88301 -0.0875162 0
M  V30 6212 H 597.644 4.03722 -0.281179 0
M  V30 6213 H 594.399 4.14131 -2.29767 0
M  V30 6214 H 594.823 4.71897 -4.8543 0
M  V30 6215 H 599.465 3.6339 -2.16119 0
M  V30 6216 H 597.183 4.8922 -6.43187 0
M  V30 6217 H 600.769 3.99235 -4.23205 0
M  V30 6218 H 599.649 4.6154 -6.33996 0
M  V30 6219 N 597.152 0.631951 1.44375 0
M  V30 6220 C 598.115 -0.0628142 2.29114 0
M  V30 6221 C 599.115 -0.771494 1.41084 0
M  V30 6222 O 600.305 -0.615959 1.62947 0
M  V30 6223 C 597.437 -1.09953 3.22681 0
M  V30 6224 H 598.63 0.682509 2.92031 0
M  V30 6225 H 596.183 0.392128 1.51301 0
M  V30 6226 H 596.918 -1.87481 2.64616 0
M  V30 6227 H 596.703 -0.595286 3.87555 0
M  V30 6228 H 598.193 -1.58538 3.86336 0
M  V30 6229 N 598.631 -1.53133 0.372548 0
M  V30 6230 C 599.563 -2.23557 -0.505444 0
M  V30 6231 C 600.576 -1.25211 -1.04049 0
M  V30 6232 O 601.765 -1.51391 -0.945675 0
M  V30 6233 C 598.865 -2.92516 -1.71136 0
M  V30 6234 C 598.038 -4.17428 -1.30661 0
M  V30 6235 C 597.097 -4.69535 -2.37536 0
M  V30 6236 O 596.123 -5.33042 -1.99637 0
M  V30 6237 N 597.325 -4.47947 -3.6922 0
M  V30 6238 H 600.09 -2.9954 0.0978259 0
M  V30 6239 H 597.651 -1.60684 0.198068 0
M  V30 6240 H 599.643 -3.24281 -2.42124 0
M  V30 6241 H 598.213 -2.19944 -2.22134 0
M  V30 6242 H 597.433 -3.91888 -0.426292 0
M  V30 6243 H 598.721 -4.98622 -1.01259 0
M  V30 6244 H 598.119 -3.97219 -4.02783 0
M  V30 6245 H 596.676 -4.84245 -4.36292 0
M  V30 6246 N 600.109 -0.101901 -1.5727 0
M  V30 6247 C 601.072 0.840129 -2.13247 0
M  V30 6248 C 602.072 1.20625 -1.06331 0
M  V30 6249 O 603.262 1.13456 -1.32186 0
M  V30 6250 C 600.394 2.13372 -2.65867 0
M  V30 6251 H 601.587 0.353945 -2.97804 0
M  V30 6252 H 599.14 0.147167 -1.55606 0
M  V30 6253 H 599.875 2.66461 -1.84849 0
M  V30 6254 H 599.66 1.88085 -3.44044 0
M  V30 6255 H 601.15 2.80748 -3.09145 0
M  V30 6256 N 601.587 1.56661 0.17182 0
M  V30 6257 C 602.519 1.92934 1.2373 0
M  V30 6258 C 603.532 0.822385 1.40502 0
M  V30 6259 O 604.721 1.10083 1.40514 0
M  V30 6260 C 601.821 2.16651 2.60607 0
M  V30 6261 C 600.994 3.47878 2.6514 0
M  V30 6262 C 600.053 3.60429 3.83377 0
M  V30 6263 O 599.079 4.33051 3.69398 0
M  V30 6264 N 600.281 2.95241 4.99813 0
M  V30 6265 H 603.046 2.84931 0.929205 0
M  V30 6266 H 600.607 1.5781 0.361588 0
M  V30 6267 H 602.599 2.22312 3.38171 0
M  V30 6268 H 601.169 1.3104 2.83809 0
M  V30 6269 H 600.389 3.53879 1.73675 0
M  V30 6270 H 601.677 4.34232 2.6518 0
M  V30 6271 H 601.075 2.3611 5.14071 0
M  V30 6272 H 599.632 3.06499 5.75241 0
M  V30 6273 N 603.065 -0.440357 1.51323 0
M  V30 6274 C 604.312 -1.19004 1.63842 0
M  V30 6275 C 604.64 -1.91266 0.35321 0
M  V30 6276 O 603.895 -1.84143 -0.662565 0
M  V30 6277 C 604.194 -2.2339 2.78984 0
M  V30 6278 C 603.86 -1.68162 4.18369 0
M  V30 6279 C 602.522 -1.52823 4.56288 0
M  V30 6280 C 604.874 -1.27524 5.05358 0
M  V30 6281 C 602.202 -0.953157 5.78906 0
M  V30 6282 C 604.554 -0.714474 6.28552 0
M  V30 6283 C 603.218 -0.547961 6.65247 0
M  V30 6284 H 602.488 -0.435468 0.59954 0
M  V30 6285 H 605.135 -0.481538 1.85347 0
M  V30 6286 H 603.44 -3.00267 2.51688 0
M  V30 6287 H 605.137 -2.81211 2.85869 0
M  V30 6288 H 601.727 -1.81077 3.8847 0
M  V30 6289 H 605.911 -1.38197 4.76671 0
M  V30 6290 H 601.167 -0.811882 6.05986 0
M  V30 6291 H 605.341 -0.391059 6.95301 0
M  V30 6292 H 602.968 -0.100222 7.60134 0
M  V30 6293 N 604.543 -1.41418 -0.695603 0
M  V30 6294 C 605.475 -1.39195 -1.82092 0
M  V30 6295 C 606.488 -0.294132 -1.60121 0
M  V30 6296 O 607.677 -0.555854 -1.69625 0
M  V30 6297 C 604.777 -1.14828 -3.18854 0
M  V30 6298 C 603.95 -2.36649 -3.67853 0
M  V30 6299 C 603.009 -2.08139 -4.83285 0
M  V30 6300 O 602.035 -2.81177 -4.94902 0
M  V30 6301 N 603.237 -1.07162 -5.70523 0
M  V30 6302 H 606.002 -2.36185 -1.84491 0
M  V30 6303 H 603.563 -1.3603 -0.877923 0
M  V30 6304 H 605.555 -0.937075 -3.93702 0
M  V30 6305 H 604.125 -0.264358 -3.1148 0
M  V30 6306 H 603.345 -2.73472 -2.83913 0
M  V30 6307 H 604.633 -3.17816 -3.97329 0
M  V30 6308 H 604.031 -0.467124 -5.63768 0
M  V30 6309 H 602.588 -0.920311 -6.4527 0
M  V30 6310 N 606.021 0.929856 -1.27246 0
M  V30 6311 C 607.267 1.6798 -1.13625 0
M  V30 6312 C 607.6 1.91586 0.317589 0
M  V30 6313 O 606.875 1.50467 1.23247 0
M  V30 6314 C 607.158 3.04766 -1.91806 0
M  V30 6315 C 607.011 2.88415 -3.45162 0
M  V30 6316 C 608.33 4.05063 -1.72082 0
M  V30 6317 H 605.449 0.609632 -0.414147 0
M  V30 6318 H 608.091 1.0792 -1.56376 0
M  V30 6319 H 606.241 3.56034 -1.55474 0
M  V30 6320 H 607.913 2.44282 -3.91311 0
M  V30 6321 H 606.156 2.23802 -3.71611 0
M  V30 6322 H 606.827 3.85482 -3.95105 0
M  V30 6323 H 609.303 3.62798 -2.03757 0
M  V30 6324 H 608.179 4.98765 -2.29182 0
M  V30 6325 H 608.44 4.37021 -0.668206 0
M  V30 6326 N 607.499 1.09233 1.13605 0
M  V30 6327 C 608.915 0.82163 1.36826 0
M  V30 6328 C 609.115 -0.565021 1.93416 0
M  V30 6329 O 608.171 -1.32026 2.15234 0
M  V30 6330 C 609.484 1.91124 2.32147 0
M  V30 6331 C 611.032 1.93824 2.45767 0
M  V30 6332 C 611.507 3.01923 3.44393 0
M  V30 6333 N 612.998 3.01149 3.51942 0
M  V30 6334 C 613.733 3.81434 4.2813 0
M  V30 6335 N 613.229 4.71621 5.07489 0
M  V30 6336 N 615.022 3.69702 4.23411 0
M  V30 6337 H 607.173 1.98633 0.752234 0
M  V30 6338 H 609.436 0.862482 0.393482 0
M  V30 6339 H 609.142 2.90862 1.97717 0
M  V30 6340 H 609.016 1.78777 3.32142 0
M  V30 6341 H 611.403 0.94726 2.79483 0
M  V30 6342 H 611.484 2.10248 1.45703 0
M  V30 6343 H 611.128 4.01232 3.11408 0
M  V30 6344 H 611.058 2.82742 4.44257 0
M  V30 6345 H 613.549 2.35789 2.95317 0
M  V30 6346 H 613.862 5.29468 5.62924 0
M  V30 6347 H 612.207 4.75658 5.06729 0
M  V30 6348 H 615.398 2.98606 3.60489 0
M  V30 6349 H 615.571 4.32509 4.82535 0
M  V30 6350 N 608.977 -1.30795 0.87923 0
M  V30 6351 C 609.927 -2.25838 0.313276 0
M  V30 6352 C 610.911 -1.51025 -0.55499 0
M  V30 6353 O 612.103 -1.72413 -0.400353 0
M  V30 6354 C 609.232 -3.39981 -0.476204 0
M  V30 6355 C 608.318 -4.22154 0.405826 0
M  V30 6356 N 608.709 -4.82934 1.50362 0
M  V30 6357 C 607.007 -4.45552 0.199909 0
M  V30 6358 C 607.708 -5.44444 2.0483 0
M  V30 6359 N 606.684 -5.26723 1.34403 0
M  V30 6360 H 610.486 -2.70374 1.15218 0
M  V30 6361 H 608 -1.45168 0.728003 0
M  V30 6362 H 609.997 -4.07108 -0.898251 0
M  V30 6363 H 608.657 -2.96986 -1.31261 0
M  V30 6364 H 609.668 -4.82319 1.8865 0
M  V30 6365 H 606.345 -4.13169 -0.599795 0
M  V30 6366 H 607.735 -6.02701 2.96986 0
M  V30 6367 N 610.455 -0.639598 -1.44038 0
M  V30 6368 C 611.68 -0.153117 -2.06834 0
M  V30 6369 C 612.105 1.16676 -1.47541 0
M  V30 6370 O 611.463 1.71769 -0.580093 0
M  V30 6371 C 611.511 -0.0609169 -3.60549 0
M  V30 6372 O 610.615 0.98071 -4.00569 0
M  V30 6373 H 609.956 -0.0886402 -0.658057 0
M  V30 6374 H 612.486 -0.878674 -1.84771 0
M  V30 6375 H 612.496 0.126892 -4.07803 0
M  V30 6376 H 611.171 -1.0245 -4.03084 0
M  V30 6377 H 609.748 0.766789 -3.64931 0
M  V30 6378 N 611.933 1.52934 -0.380664 0
M  V30 6379 C 613.179 2.01765 0.20458 0
M  V30 6380 C 613.512 1.26696 1.47179 0
M  V30 6381 O 612.787 0.364936 1.91046 0
M  V30 6382 C 613.07 3.56869 0.481269 0
M  V30 6383 C 612.923 4.42617 -0.800629 0
M  V30 6384 C 614.242 4.2121 1.27554 0
M  V30 6385 H 611.361 0.733388 0.0728803 0
M  V30 6386 H 614.003 1.83068 -0.50853 0
M  V30 6387 H 612.153 3.72932 1.08875 0
M  V30 6388 H 613.825 4.38323 -1.43773 0
M  V30 6389 H 612.068 4.09977 -1.4178 0
M  V30 6390 H 612.739 5.49134 -0.561791 0
M  V30 6391 H 615.215 4.09072 0.761514 0
M  V30 6392 H 614.091 5.29732 1.43788 0
M  V30 6393 H 614.352 3.78269 2.28833 0
M  V30 6394 N 613.412 0.11024 1.57214 0
M  V30 6395 C 614.64 -0.557834 1.99238 0
M  V30 6396 C 615.055 -1.60778 0.989734 0
M  V30 6397 O 614.412 -1.82491 -0.0186092 0
M  V30 6398 C 614.463 -1.19189 3.41286 0
M  V30 6399 O 614.184 -0.183919 4.37714 0
M  V30 6400 C 615.685 -1.94413 3.98395 0
M  V30 6401 H 612.905 -0.148392 0.654386 0
M  V30 6402 H 615.449 0.193996 2.03578 0
M  V30 6403 H 613.604 -1.89456 3.37913 0
M  V30 6404 H 614.018 -0.643475 5.20538 0
M  V30 6405 H 615.492 -2.34116 4.99894 0
M  V30 6406 H 615.969 -2.81592 3.3705 0
M  V30 6407 H 616.575 -1.28928 4.05287 0
M  V30 6408 O 614.929 -1.61473 -0.0293866 0
M  V30 6409 H 615.62 -1.82469 -0.649975 0
M  V30 END ATOM
M  V30 BEGIN BOND
M  V30 END BOND
M  V30 END CTAB
M  END
$$$$
