drugbank_target|P83798 Cytochrome b6-f complex subunit 8 (DB04646; DB08453)
 OpenBabel12092120433D

470476  0  0  0  0  0  0  0  0999 V2000
   -0.9080    1.9825   -0.1171 H   0  0  0  0  0 15  0  0  0  0  0  0
    0.0000    1.5760    0.0000 N   0  0  0  0  0 15  0  0  0  0  0  0
    0.9330    2.0387    1.0253 C   0  0  0  0  0 15  0  0  0  0  0  0
    1.9110    0.9285    1.3348 C   0  0  0  0  0 15  0  0  0  0  0  0
    3.0950    1.1967    1.4564 O   0  0  0  0  0 15  0  0  0  0  0  0
    0.2220    2.4363    2.3529 C   0  0  0  0  0 15  0  0  0  0  0  0
   -0.7320    3.6537    2.2001 C   0  0  0  0  0 15  0  0  0  0  0  0
    0.1010    5.1329    1.5261 S   0  0  0  0  0 15  0  0  0  0  0  0
    1.2570    5.5632    2.8680 C   0  0  0  0  0 15  0  0  0  0  0  0
    1.4900    2.9052    0.6314 H   0  0  0  0  0 15  0  0  0  0  0  0
   -0.9770    1.5295    0.2109 H   0  0  0  0  0 15  0  0  0  0  0  0
    0.9810    2.6720    3.1163 H   0  0  0  0  0 15  0  0  0  0  0  0
   -0.3580    1.5738    2.7183 H   0  0  0  0  0 15  0  0  0  0  0  0
   -1.1650    3.9094    3.1809 H   0  0  0  0  0 15  0  0  0  0  0  0
   -1.5630    3.4180    1.5182 H   0  0  0  0  0 15  0  0  0  0  0  0
    0.7290    5.5878    3.8310 H   0  0  0  0  0 15  0  0  0  0  0  0
    1.6720    6.5627    2.6593 H   0  0  0  0  0 15  0  0  0  0  0  0
    2.0800    4.8389    2.9071 H   0  0  0  0  0 15  0  0  0  0  0  0
    1.4781   -0.2728    1.5522 N   0  0  0  0  0 15  0  0  0  0  0  0
    2.3881   -1.3592    1.9122 C   0  0  0  0  0 15  0  0  0  0  0  0
    3.4041   -1.5403    0.8094 C   0  0  0  0  0 15  0  0  0  0  0  0
    4.5801   -1.6815    1.1085 O   0  0  0  0  0 15  0  0  0  0  0  0
    1.6451   -2.6983    2.1769 C   0  0  0  0  0 15  0  0  0  0  0  0
    0.7061   -2.6047    3.4125 C   0  0  0  0  0 15  0  0  0  0  0  0
   -0.0609   -3.8800    3.6646 C   0  0  0  0  0 15  0  0  0  0  0  0
    0.1621   -4.8869    2.9417 O   0  0  0  0  0 15  0  0  0  0  0  0
   -0.9039   -3.8819    4.5999 O   0  0  0  0  0 15  0  0  0  0  0  0
    2.9221   -1.0839    2.8370 H   0  0  0  0  0 15  0  0  0  0  0  0
    0.5071   -0.4713    1.4177 H   0  0  0  0  0 15  0  0  0  0  0  0
    2.3891   -3.4902    2.3615 H   0  0  0  0  0 15  0  0  0  0  0  0
    1.0641   -2.9715    1.2839 H   0  0  0  0  0 15  0  0  0  0  0  0
   -0.0289   -1.7966    3.2813 H   0  0  0  0  0 15  0  0  0  0  0  0
    1.3041   -2.3811    4.3077 H   0  0  0  0  0 15  0  0  0  0  0  0
    2.9562   -1.4816   -0.5373 N   0  0  0  0  0 15  0  0  0  0  0  0
    4.2052   -1.5506   -1.2899 C   0  0  0  0  0 15  0  0  0  0  0  0
    4.5182   -0.2262   -1.9429 C   0  0  0  0  0 15  0  0  0  0  0  0
    5.7242   -0.1734   -2.7095 O   0  0  0  0  0 15  0  0  0  0  0  0
    4.1802   -2.7343   -2.3402 C   0  0  0  0  0 15  0  0  0  0  0  0
    3.7882   -4.1248   -1.7483 C   0  0  0  0  0 15  0  0  0  0  0  0
    5.5322   -2.8964   -3.1034 C   0  0  0  0  0 15  0  0  0  0  0  0
    3.4392   -5.2212   -2.7775 C   0  0  0  0  0 15  0  0  0  0  0  0
    2.3692   -0.5772   -0.4851 H   0  0  0  0  0 15  0  0  0  0  0  0
    5.0202   -1.7448   -0.5683 H   0  0  0  0  0 15  0  0  0  0  0  0
    3.4022   -2.4743   -3.0918 H   0  0  0  0  0 15  0  0  0  0  0  0
    4.5762   -4.4847   -1.0590 H   0  0  0  0  0 15  0  0  0  0  0  0
    2.8912   -4.0133   -1.1102 H   0  0  0  0  0 15  0  0  0  0  0  0
    5.4882   -3.6872   -3.8723 H   0  0  0  0  0 15  0  0  0  0  0  0
    5.8312   -1.9882   -3.6575 H   0  0  0  0  0 15  0  0  0  0  0  0
    6.3642   -3.1550   -2.4229 H   0  0  0  0  0 15  0  0  0  0  0  0
    3.1032   -6.1488   -2.2716 H   0  0  0  0  0 15  0  0  0  0  0  0
    2.6232   -4.9063   -3.4502 H   0  0  0  0  0 15  0  0  0  0  0  0
    4.3022   -5.4992   -3.4087 H   0  0  0  0  0 15  0  0  0  0  0  0
    4.4343    0.7856   -1.3662 N   0  0  0  0  0 15  0  0  0  0  0  0
    5.7113    1.5320   -1.2161 C   0  0  0  0  0 15  0  0  0  0  0  0
    6.0913    2.1019    0.1961 C   0  0  0  0  0 15  0  0  0  0  0  0
    5.4393    1.9432    1.2022 O   0  0  0  0  0 15  0  0  0  0  0  0
    5.6493    2.6239   -2.3012 C   0  0  0  0  0 15  0  0  0  0  0  0
    6.9973    3.3017   -2.6697 C   0  0  0  0  0 15  0  0  0  0  0  0
    8.0213    2.7267   -2.2919 O   0  0  0  0  0 15  0  0  0  0  0  0
    6.8803    4.3408   -3.3202 O   0  0  0  0  0 15  0  0  0  0  0  0
    3.9743    0.6779   -0.4737 H   0  0  0  0  0 15  0  0  0  0  0  0
    6.5203    0.8237   -1.4837 H   0  0  0  0  0 15  0  0  0  0  0  0
    5.2923    2.1830   -3.2475 H   0  0  0  0  0 15  0  0  0  0  0  0
    4.9153    3.4083   -2.0475 H   0  0  0  0  0 15  0  0  0  0  0  0
    5.9124    1.2097    1.0102 N   0  0  0  0  0 15  0  0  0  0  0  0
    7.1584    1.0253    1.7498 C   0  0  0  0  0 15  0  0  0  0  0  0
    7.4914   -0.4408    1.8913 C   0  0  0  0  0 15  0  0  0  0  0  0
    6.7664   -1.3272    1.4218 O   0  0  0  0  0 15  0  0  0  0  0  0
    7.0494    1.7170    3.1653 C   0  0  0  0  0 15  0  0  0  0  0  0
    6.9024    3.2579    3.1013 C   0  0  0  0  0 15  0  0  0  0  0  0
    8.2214    1.4553    4.1534 C   0  0  0  0  0 15  0  0  0  0  0  0
    5.3404    0.3739    0.6351 H   0  0  0  0  0 15  0  0  0  0  0  0
    7.9824    1.4907    1.1780 H   0  0  0  0  0 15  0  0  0  0  0  0
    6.1324    1.3213    3.6534 H   0  0  0  0  0 15  0  0  0  0  0  0
    7.8044    3.7470    2.6907 H   0  0  0  0  0 15  0  0  0  0  0  0
    6.0474    3.5636    2.4736 H   0  0  0  0  0 15  0  0  0  0  0  0
    6.7184    3.6935    4.1022 H   0  0  0  0  0 15  0  0  0  0  0  0
    9.1944    1.7987    3.7521 H   0  0  0  0  0 15  0  0  0  0  0  0
    8.0704    1.9645    5.1254 H   0  0  0  0  0 15  0  0  0  0  0  0
    8.3314    0.3842    4.4043 H   0  0  0  0  0 15  0  0  0  0  0  0
    7.3905   -1.2043    1.0166 N   0  0  0  0  0 15  0  0  0  0  0  0
    8.3205   -2.2547    0.6072 C   0  0  0  0  0 15  0  0  0  0  0  0
    9.3015   -1.6585   -0.3777 C   0  0  0  0  0 15  0  0  0  0  0  0
   10.4865   -1.9241   -0.2631 O   0  0  0  0  0 15  0  0  0  0  0  0
    7.6165   -3.4726   -0.0553 C   0  0  0  0  0 15  0  0  0  0  0  0
    6.5705   -4.1946    0.8506 C   0  0  0  0  0 15  0  0  0  0  0  0
    5.8965   -5.3467    0.0539 C   0  0  0  0  0 15  0  0  0  0  0  0
    7.1965   -4.7560    2.1587 C   0  0  0  0  0 15  0  0  0  0  0  0
    8.8905   -2.5996    1.4853 H   0  0  0  0  0 15  0  0  0  0  0  0
    6.4365   -1.2496    0.7156 H   0  0  0  0  0 15  0  0  0  0  0  0
    8.3895   -4.1992   -0.3532 H   0  0  0  0  0 15  0  0  0  0  0  0
    7.1135   -3.1192   -0.9680 H   0  0  0  0  0 15  0  0  0  0  0  0
    5.7725   -3.4867    1.1326 H   0  0  0  0  0 15  0  0  0  0  0  0
    5.4205   -4.9558   -0.8605 H   0  0  0  0  0 15  0  0  0  0  0  0
    5.1205   -5.8391    0.6572 H   0  0  0  0  0 15  0  0  0  0  0  0
    6.6445   -6.1014   -0.2376 H   0  0  0  0  0 15  0  0  0  0  0  0
    8.0585   -5.4008    1.9231 H   0  0  0  0  0 15  0  0  0  0  0  0
    6.4555   -5.3528    2.7128 H   0  0  0  0  0 15  0  0  0  0  0  0
    7.5255   -3.9435    2.8217 H   0  0  0  0  0 15  0  0  0  0  0  0
    8.8686   -0.7928   -1.3621 N   0  0  0  0  0 15  0  0  0  0  0  0
   10.1166   -0.3661   -1.9876 C   0  0  0  0  0 15  0  0  0  0  0  0
   10.4376    1.0668   -1.6323 C   0  0  0  0  0 15  0  0  0  0  0  0
    9.7076    1.7359   -0.9080 O   0  0  0  0  0 15  0  0  0  0  0  0
    8.2876   -0.1324   -0.7352 H   0  0  0  0  0 15  0  0  0  0  0  0
   10.9496   -1.0156   -1.6635 H   0  0  0  0  0 15  0  0  0  0  0  0
   10.0456   -0.4606   -3.0868 H   0  0  0  0  0 15  0  0  0  0  0  0
   10.3467    1.4787   -0.5451 N   0  0  0  0  0 15  0  0  0  0  0  0
   11.5927    2.0338   -0.0248 C   0  0  0  0  0 15  0  0  0  0  0  0
   11.9477    1.4133    1.3056 C   0  0  0  0  0 15  0  0  0  0  0  0
   11.2407    0.5552    1.8338 O   0  0  0  0  0 15  0  0  0  0  0  0
   11.4347    3.5713    0.1387 C   0  0  0  0  0 15  0  0  0  0  0  0
   11.2637    4.3410   -1.1743 C   0  0  0  0  0 15  0  0  0  0  0  0
   10.0337    4.7446   -1.7383 C   0  0  0  0  0 15  0  0  0  0  0  0
   12.2317    4.6998   -2.0886 C   0  0  0  0  0 15  0  0  0  0  0  0
   10.2137    5.3602   -2.9926 N   0  0  0  0  0 15  0  0  0  0  0  0
   11.5847    5.3172   -3.1887 C   0  0  0  0  0 15  0  0  0  0  0  0
   13.6397    4.5191   -2.0900 C   0  0  0  0  0 15  0  0  0  0  0  0
   12.3427    5.7729   -4.2910 C   0  0  0  0  0 15  0  0  0  0  0  0
   14.3687    4.9848   -3.1824 C   0  0  0  0  0 15  0  0  0  0  0  0
   13.7307    5.6025   -4.2696 C   0  0  0  0  0 15  0  0  0  0  0  0
    9.8297    0.7803   -0.0509 H   0  0  0  0  0 15  0  0  0  0  0  0
   12.4137    1.8051   -0.7298 H   0  0  0  0  0 15  0  0  0  0  0  0
   10.5847    3.7980    0.8127 H   0  0  0  0  0 15  0  0  0  0  0  0
   12.3167    3.9928    0.6600 H   0  0  0  0  0 15  0  0  0  0  0  0
    9.0717    4.5604   -1.2778 H   0  0  0  0  0 15  0  0  0  0  0  0
    9.4957    5.7135   -3.6316 H   0  0  0  0  0 15  0  0  0  0  0  0
   14.1377    4.0352   -1.2623 H   0  0  0  0  0 15  0  0  0  0  0  0
   11.8557    6.2469   -5.1263 H   0  0  0  0  0 15  0  0  0  0  0  0
   15.4417    4.8627   -3.1942 H   0  0  0  0  0 15  0  0  0  0  0  0
   14.3217    5.9563   -5.1009 H   0  0  0  0  0 15  0  0  0  0  0  0
   11.8248    0.2810    1.5507 N   0  0  0  0  0 15  0  0  0  0  0  0
   13.0708   -0.3346    2.0002 C   0  0  0  0  0 15  0  0  0  0  0  0
   13.4038   -1.5506    1.1691 C   0  0  0  0  0 15  0  0  0  0  0  0
   12.6788   -1.9301    0.2406 O   0  0  0  0  0 15  0  0  0  0  0  0
   12.9618   -0.7110    3.5301 C   0  0  0  0  0 15  0  0  0  0  0  0
   12.8148    0.5128    4.4687 C   0  0  0  0  0 15  0  0  0  0  0  0
   14.1338   -1.5452    4.1208 C   0  0  0  0  0 15  0  0  0  0  0  0
   11.2528   -0.1201    0.7271 H   0  0  0  0  0 15  0  0  0  0  0  0
   13.8948    0.3891    1.8597 H   0  0  0  0  0 15  0  0  0  0  0  0
   12.0448   -1.3276    3.6511 H   0  0  0  0  0 15  0  0  0  0  0  0
   13.7168    1.1513    4.4670 H   0  0  0  0  0 15  0  0  0  0  0  0
   11.9598    1.1497    4.1829 H   0  0  0  0  0 15  0  0  0  0  0  0
   12.6308    0.2056    5.5162 H   0  0  0  0  0 15  0  0  0  0  0  0
   15.1068   -1.0244    4.0329 H   0  0  0  0  0 15  0  0  0  0  0  0
   13.9828   -1.7774    5.1933 H   0  0  0  0  0 15  0  0  0  0  0  0
   14.2438   -2.5281    3.6268 H   0  0  0  0  0 15  0  0  0  0  0  0
   13.3029   -1.5760    0.0084 N   0  0  0  0  0 15  0  0  0  0  0  0
   14.2659   -2.0788   -0.9652 C   0  0  0  0  0 15  0  0  0  0  0  0
   15.2659   -0.9898   -1.2672 C   0  0  0  0  0 15  0  0  0  0  0  0
   16.4559   -1.2522   -1.2110 O   0  0  0  0  0 15  0  0  0  0  0  0
   13.5879   -2.5273   -2.2878 C   0  0  0  0  0 15  0  0  0  0  0  0
   14.7809   -2.9518   -0.5301 H   0  0  0  0  0 15  0  0  0  0  0  0
   12.3339   -1.5446   -0.2393 H   0  0  0  0  0 15  0  0  0  0  0  0
   13.0689   -1.6870   -2.7696 H   0  0  0  0  0 15  0  0  0  0  0  0
   12.8539   -3.3227   -2.0818 H   0  0  0  0  0 15  0  0  0  0  0  0
   14.3439   -2.9193   -2.9861 H   0  0  0  0  0 15  0  0  0  0  0  0
   14.7810    0.2645   -1.5536 N   0  0  0  0  0 15  0  0  0  0  0  0
   15.7110    1.3312   -1.9184 C   0  0  0  0  0 15  0  0  0  0  0  0
   16.6920    1.5110   -0.7812 C   0  0  0  0  0 15  0  0  0  0  0  0
   17.8770    1.6400   -1.0400 O   0  0  0  0  0 15  0  0  0  0  0  0
   15.0070    2.6892   -2.1977 C   0  0  0  0  0 15  0  0  0  0  0  0
   13.9610    2.6566   -3.3557 C   0  0  0  0  0 15  0  0  0  0  0  0
   13.2870    4.0509   -3.4900 C   0  0  0  0  0 15  0  0  0  0  0  0
   14.5870    2.2419   -4.7174 C   0  0  0  0  0 15  0  0  0  0  0  0
   16.2810    1.0284   -2.8118 H   0  0  0  0  0 15  0  0  0  0  0  0
   13.8270    0.4933   -1.3529 H   0  0  0  0  0 15  0  0  0  0  0  0
   15.7800    3.4366   -2.4387 H   0  0  0  0  0 15  0  0  0  0  0  0
   14.5040    3.0080   -1.2723 H   0  0  0  0  0 15  0  0  0  0  0  0
   13.1630    1.9338   -3.1145 H   0  0  0  0  0 15  0  0  0  0  0  0
   12.8110    4.3421   -2.5392 H   0  0  0  0  0 15  0  0  0  0  0  0
   12.5110    4.0380   -4.2687 H   0  0  0  0  0 15  0  0  0  0  0  0
   14.0350    4.8156   -3.7541 H   0  0  0  0  0 15  0  0  0  0  0  0
   15.4490    2.8865   -4.9533 H   0  0  0  0  0 15  0  0  0  0  0  0
   13.8460    2.3404   -5.5258 H   0  0  0  0  0 15  0  0  0  0  0  0
   14.9160    1.1933   -4.6999 H   0  0  0  0  0 15  0  0  0  0  0  0
   16.2591    1.4844    0.5294 N   0  0  0  0  0 15  0  0  0  0  0  0
   17.1891    1.6590    1.6431 C   0  0  0  0  0 15  0  0  0  0  0  0
   18.1701    0.5079    1.6234 C   0  0  0  0  0 15  0  0  0  0  0  0
   19.3551    0.7405    1.7953 O   0  0  0  0  0 15  0  0  0  0  0  0
   16.4851    1.6991    3.0290 C   0  0  0  0  0 15  0  0  0  0  0  0
   15.4391    2.8453    3.1973 C   0  0  0  0  0 15  0  0  0  0  0  0
   14.7651    2.7363    4.5938 C   0  0  0  0  0 15  0  0  0  0  0  0
   16.0651    4.2582    3.0245 C   0  0  0  0  0 15  0  0  0  0  0  0
   17.7591    2.5914    1.4996 H   0  0  0  0  0 15  0  0  0  0  0  0
   15.3051    1.2471    0.7200 H   0  0  0  0  0 15  0  0  0  0  0  0
   17.2581    1.8071    3.8068 H   0  0  0  0  0 15  0  0  0  0  0  0
   15.9821    0.7325    3.1828 H   0  0  0  0  0 15  0  0  0  0  0  0
   14.6411    2.7328    2.4436 H   0  0  0  0  0 15  0  0  0  0  0  0
   14.2891    1.7494    4.7160 H   0  0  0  0  0 15  0  0  0  0  0  0
   13.9891    3.5054    4.7159 H   0  0  0  0  0 15  0  0  0  0  0  0
   15.5131    2.8640    5.3927 H   0  0  0  0  0 15  0  0  0  0  0  0
   16.9271    4.3790    3.7002 H   0  0  0  0  0 15  0  0  0  0  0  0
   15.3241    5.0373    3.2615 H   0  0  0  0  0 15  0  0  0  0  0  0
   16.3941    4.4224    1.9887 H   0  0  0  0  0 15  0  0  0  0  0  0
   17.7372   -0.7783    1.3704 N   0  0  0  0  0 15  0  0  0  0  0  0
   18.9832   -1.5389    1.3208 C   0  0  0  0  0 15  0  0  0  0  0  0
   19.3162   -1.9396   -0.0965 C   0  0  0  0  0 15  0  0  0  0  0  0
   18.5912   -1.6357   -1.0524 O   0  0  0  0  0 15  0  0  0  0  0  0
   18.8742   -2.8085    2.2538 C   0  0  0  0  0 15  0  0  0  0  0  0
   18.7272   -2.4708    3.7586 C   0  0  0  0  0 15  0  0  0  0  0  0
   20.0462   -3.8274    2.1725 C   0  0  0  0  0 15  0  0  0  0  0  0
   17.1652   -0.5583    0.4811 H   0  0  0  0  0 15  0  0  0  0  0  0
   19.8072   -0.8934    1.6769 H   0  0  0  0  0 15  0  0  0  0  0  0
   17.9572   -3.3593    1.9515 H   0  0  0  0  0 15  0  0  0  0  0  0
   19.6292   -1.9796    4.1667 H   0  0  0  0  0 15  0  0  0  0  0  0
   17.8722   -1.7986    3.9476 H   0  0  0  0  0 15  0  0  0  0  0  0
   18.5432   -3.3780    4.3657 H   0  0  0  0  0 15  0  0  0  0  0  0
   21.0192   -3.3713    2.4389 H   0  0  0  0  0 15  0  0  0  0  0  0
   19.8952   -4.6930    2.8469 H   0  0  0  0  0 15  0  0  0  0  0  0
   20.1562   -4.2652    1.1633 H   0  0  0  0  0 15  0  0  0  0  0  0
   19.2153   -1.2150   -1.0038 N   0  0  0  0  0 15  0  0  0  0  0  0
   20.4613   -1.0345   -1.7443 C   0  0  0  0  0 15  0  0  0  0  0  0
   20.7943    0.4308   -1.8936 C   0  0  0  0  0 15  0  0  0  0  0  0
   20.0693    1.3196   -1.4289 O   0  0  0  0  0 15  0  0  0  0  0  0
   20.3523   -1.7338   -3.1562 C   0  0  0  0  0 15  0  0  0  0  0  0
   20.2053   -3.2743   -3.0840 C   0  0  0  0  0 15  0  0  0  0  0  0
   21.5243   -1.4773   -4.1456 C   0  0  0  0  0 15  0  0  0  0  0  0
   18.6433   -0.3772   -0.6331 H   0  0  0  0  0 15  0  0  0  0  0  0
   21.2853   -1.4969   -1.1701 H   0  0  0  0  0 15  0  0  0  0  0  0
   19.4353   -1.3406   -3.6464 H   0  0  0  0  0 15  0  0  0  0  0  0
   21.1073   -3.7612   -2.6708 H   0  0  0  0  0 15  0  0  0  0  0  0
   19.3503   -3.5767   -2.4547 H   0  0  0  0  0 15  0  0  0  0  0  0
   20.0213   -3.7152   -4.0826 H   0  0  0  0  0 15  0  0  0  0  0  0
   22.4973   -1.8186   -3.7425 H   0  0  0  0  0 15  0  0  0  0  0  0
   21.3733   -1.9917   -5.1149 H   0  0  0  0  0 15  0  0  0  0  0  0
   21.6343   -0.4076   -4.4022 H   0  0  0  0  0 15  0  0  0  0  0  0
   20.6934    1.1989   -1.0230 N   0  0  0  0  0 15  0  0  0  0  0  0
   21.9404    1.8942   -0.7160 C   0  0  0  0  0 15  0  0  0  0  0  0
   22.2684    1.7925    0.7549 C   0  0  0  0  0 15  0  0  0  0  0  0
   21.5234    1.1753    1.5648 O   0  0  0  0  0 15  0  0  0  0  0  0
   21.8224    3.3988   -1.1052 C   0  0  0  0  0 15  0  0  0  0  0  0
   21.4884    3.7025   -2.5734 C   0  0  0  0  0 15  0  0  0  0  0  0
   20.1504    3.7825   -2.9745 C   0  0  0  0  0 15  0  0  0  0  0  0
   22.5024    3.8405   -3.5235 C   0  0  0  0  0 15  0  0  0  0  0  0
   19.8304    3.9751   -4.3151 C   0  0  0  0  0 15  0  0  0  0  0  0
   22.1824    4.0482   -4.8611 C   0  0  0  0  0 15  0  0  0  0  0  0
   20.8464    4.1105   -5.2592 C   0  0  0  0  0 15  0  0  0  0  0  0
   20.1164    0.6931   -0.2620 H   0  0  0  0  0 15  0  0  0  0  0  0
   22.7634    1.4201   -1.2847 H   0  0  0  0  0 15  0  0  0  0  0  0
   21.0684    3.8915   -0.4550 H   0  0  0  0  0 15  0  0  0  0  0  0
   22.7654    3.9199   -0.8453 H   0  0  0  0  0 15  0  0  0  0  0  0
   19.3554    3.6463   -2.2526 H   0  0  0  0  0 15  0  0  0  0  0  0
   23.5394    3.7722   -3.2252 H   0  0  0  0  0 15  0  0  0  0  0  0
   18.7954    4.0057   -4.6190 H   0  0  0  0  0 15  0  0  0  0  0  0
   22.9694    4.1444   -5.5965 H   0  0  0  0  0 15  0  0  0  0  0  0
   20.5964    4.2573   -6.2981 H   0  0  0  0  0 15  0  0  0  0  0  0
   22.1715    0.8000    1.3578 N   0  0  0  0  0 15  0  0  0  0  0  0
   23.3995    0.3896    2.0320 C   0  0  0  0  0 15  0  0  0  0  0  0
   23.8145   -0.9974    1.6031 C   0  0  0  0  0 15  0  0  0  0  0  0
   23.1715   -1.6415    0.7975 O   0  0  0  0  0 15  0  0  0  0  0  0
   23.2225    0.4559    3.5861 C   0  0  0  0  0 15  0  0  0  0  0  0
   22.9435    1.7881    3.9995 O   0  0  0  0  0 15  0  0  0  0  0  0
   24.4445    0.0374    4.4328 C   0  0  0  0  0 15  0  0  0  0  0  0
   21.6645    0.1591    0.6519 H   0  0  0  0  0 15  0  0  0  0  0  0
   24.2085    1.0818    1.7354 H   0  0  0  0  0 15  0  0  0  0  0  0
   22.3635   -0.1881    3.8694 H   0  0  0  0  0 15  0  0  0  0  0  0
   22.7775    1.7464    4.9457 H   0  0  0  0  0 15  0  0  0  0  0  0
   24.2515    0.1349    5.5184 H   0  0  0  0  0 15  0  0  0  0  0  0
   24.7285   -1.0165    4.2727 H   0  0  0  0  0 15  0  0  0  0  0  0
   25.3345    0.6542    4.2024 H   0  0  0  0  0 15  0  0  0  0  0  0
   23.6496   -1.4758    0.5530 N   0  0  0  0  0 15  0  0  0  0  0  0
   24.8956   -2.0337    0.0356 C   0  0  0  0  0 15  0  0  0  0  0  0
   25.2506   -1.4202   -1.2980 C   0  0  0  0  0 15  0  0  0  0  0  0
   24.5436   -0.5649   -1.8308 O   0  0  0  0  0 15  0  0  0  0  0  0
   24.7376   -3.5720   -0.1197 C   0  0  0  0  0 15  0  0  0  0  0  0
   24.5666   -4.3347    1.1973 C   0  0  0  0  0 15  0  0  0  0  0  0
   23.3366   -4.7353    1.7635 C   0  0  0  0  0 15  0  0  0  0  0  0
   25.5346   -4.6887    2.1135 C   0  0  0  0  0 15  0  0  0  0  0  0
   23.5166   -5.3443    3.0210 N   0  0  0  0  0 15  0  0  0  0  0  0
   24.8876   -5.3002    3.2168 C   0  0  0  0  0 15  0  0  0  0  0  0
   26.9426   -4.5079    2.1140 C   0  0  0  0  0 15  0  0  0  0  0  0
   25.6456   -5.7501    4.3215 C   0  0  0  0  0 15  0  0  0  0  0  0
   27.6716   -4.9678    3.2088 C   0  0  0  0  0 15  0  0  0  0  0  0
   27.0336   -5.5798    4.2993 C   0  0  0  0  0 15  0  0  0  0  0  0
   23.1326   -0.7801    0.0551 H   0  0  0  0  0 15  0  0  0  0  0  0
   25.7166   -1.8012    0.7393 H   0  0  0  0  0 15  0  0  0  0  0  0
   23.8876   -3.8023   -0.7926 H   0  0  0  0  0 15  0  0  0  0  0  0
   25.6196   -3.9963   -0.6388 H   0  0  0  0  0 15  0  0  0  0  0  0
   22.3746   -4.5535    1.3020 H   0  0  0  0  0 15  0  0  0  0  0  0
   22.7986   -5.6942    3.6618 H   0  0  0  0  0 15  0  0  0  0  0  0
   27.4406   -4.0284    1.2837 H   0  0  0  0  0 15  0  0  0  0  0  0
   25.1586   -6.2196    5.1594 H   0  0  0  0  0 15  0  0  0  0  0  0
   28.7446   -4.8457    3.2199 H   0  0  0  0  0 15  0  0  0  0  0  0
   27.6246   -5.9292    5.1324 H   0  0  0  0  0 15  0  0  0  0  0  0
   25.1277   -0.2892   -1.5492 N   0  0  0  0  0 15  0  0  0  0  0  0
   26.3527    0.3293   -2.0477 C   0  0  0  0  0 15  0  0  0  0  0  0
   26.7777    1.4763   -1.1656 C   0  0  0  0  0 15  0  0  0  0  0  0
   26.1357    1.8053   -0.1672 O   0  0  0  0  0 15  0  0  0  0  0  0
   26.1837    0.7744   -3.5219 C   0  0  0  0  0 15  0  0  0  0  0  0
   25.2877    1.8804   -3.6704 O   0  0  0  0  0 15  0  0  0  0  0  0
   24.6287    0.0659   -0.6607 H   0  0  0  0  0 15  0  0  0  0  0  0
   27.1587   -0.4276   -2.0008 H   0  0  0  0  0 15  0  0  0  0  0  0
   27.1687    1.0664   -3.9382 H   0  0  0  0  0 15  0  0  0  0  0  0
   25.8437   -0.0647   -4.1585 H   0  0  0  0  0 15  0  0  0  0  0  0
   24.4207    1.5898   -3.3731 H   0  0  0  0  0 15  0  0  0  0  0  0
   26.6058    1.5759   -0.0167 N   0  0  0  0  0 15  0  0  0  0  0  0
   27.8548    1.9046    0.6639 C   0  0  0  0  0 15  0  0  0  0  0  0
   28.1678    0.8935    1.7400 C   0  0  0  0  0 15  0  0  0  0  0  0
   29.3738    1.1130    2.4764 O   0  0  0  0  0 15  0  0  0  0  0  0
   27.8298    3.3816    1.2320 C   0  0  0  0  0 15  0  0  0  0  0  0
   27.4378    4.4760    0.1899 C   0  0  0  0  0 15  0  0  0  0  0  0
   29.1818    3.8011    1.8899 C   0  0  0  0  0 15  0  0  0  0  0  0
   27.0888    5.8638    0.7690 C   0  0  0  0  0 15  0  0  0  0  0  0
   26.0188    0.7107    0.2517 H   0  0  0  0  0 15  0  0  0  0  0  0
   28.6698    1.8333   -0.0800 H   0  0  0  0  0 15  0  0  0  0  0  0
   27.0518    3.4018    2.0271 H   0  0  0  0  0 15  0  0  0  0  0  0
   28.2258    4.5711   -0.5818 H   0  0  0  0  0 15  0  0  0  0  0  0
   26.5408    4.1477   -0.3685 H   0  0  0  0  0 15  0  0  0  0  0  0
   29.1378    4.8114    2.3325 H   0  0  0  0  0 15  0  0  0  0  0  0
   29.4808    3.1451    2.7274 H   0  0  0  0  0 15  0  0  0  0  0  0
   30.0138    3.8045    1.1619 H   0  0  0  0  0 15  0  0  0  0  0  0
   26.7528    6.5549   -0.0302 H   0  0  0  0  0 15  0  0  0  0  0  0
   26.2728    5.8050    1.5094 H   0  0  0  0  0 15  0  0  0  0  0  0
   27.9518    6.3456    1.2625 H   0  0  0  0  0 15  0  0  0  0  0  0
   28.0839   -0.2563    1.5550 N   0  0  0  0  0 15  0  0  0  0  0  0
   29.0469   -1.3005    1.8873 C   0  0  0  0  0 15  0  0  0  0  0  0
   30.0469   -1.4154    0.7631 C   0  0  0  0  0 15  0  0  0  0  0  0
   31.2369   -1.4040    1.0312 O   0  0  0  0  0 15  0  0  0  0  0  0
   28.3689   -2.6795    2.1075 C   0  0  0  0  0 15  0  0  0  0  0  0
   29.5619   -1.0180    2.8209 H   0  0  0  0  0 15  0  0  0  0  0  0
   27.1149   -0.4951    1.4825 H   0  0  0  0  0 15  0  0  0  0  0  0
   27.8499   -3.0135    1.1983 H   0  0  0  0  0 15  0  0  0  0  0  0
   27.6349   -2.6099    2.9262 H   0  0  0  0  0 15  0  0  0  0  0  0
   29.1249   -3.4337    2.3767 H   0  0  0  0  0 15  0  0  0  0  0  0
   29.5620   -1.4872   -0.5215 N   0  0  0  0  0 15  0  0  0  0  0  0
   30.4950   -1.5845   -1.6422 C   0  0  0  0  0 15  0  0  0  0  0  0
   31.4730   -0.4345   -1.5669 C   0  0  0  0  0 15  0  0  0  0  0  0
   32.6570   -0.6473   -1.7704 O   0  0  0  0  0 15  0  0  0  0  0  0
   29.7840   -1.5204   -3.0266 C   0  0  0  0  0 15  0  0  0  0  0  0
   28.8300   -2.7198   -3.2852 C   0  0  0  0  0 15  0  0  0  0  0  0
   29.6630   -4.3387   -3.1388 S   0  0  0  0  0 15  0  0  0  0  0  0
   30.8190   -4.3007   -4.5474 C   0  0  0  0  0 15  0  0  0  0  0  0
   31.0520   -2.5326   -1.5572 H   0  0  0  0  0 15  0  0  0  0  0  0
   28.5850   -1.3736   -0.7051 H   0  0  0  0  0 15  0  0  0  0  0  0
   30.5430   -1.4902   -3.8249 H   0  0  0  0  0 15  0  0  0  0  0  0
   29.2040   -0.5855   -3.0859 H   0  0  0  0  0 15  0  0  0  0  0  0
   28.3970   -2.6366   -4.2954 H   0  0  0  0  0 15  0  0  0  0  0  0
   27.9990   -2.7230   -2.5637 H   0  0  0  0  0 15  0  0  0  0  0  0
   30.2910   -4.0052   -5.4643 H   0  0  0  0  0 15  0  0  0  0  0  0
   31.2340   -5.3129   -4.6812 H   0  0  0  0  0 15  0  0  0  0  0  0
   31.6420   -3.6042   -4.3446 H   0  0  0  0  0 15  0  0  0  0  0  0
   31.0401    0.7711   -1.3745 N   0  0  0  0  0 15  0  0  0  0  0  0
   32.2861    1.5319   -1.3289 C   0  0  0  0  0 15  0  0  0  0  0  0
   32.6191    1.9401    0.0863 C   0  0  0  0  0 15  0  0  0  0  0  0
   31.8941    1.6412    1.0437 O   0  0  0  0  0 15  0  0  0  0  0  0
   32.1771    2.7965   -2.2687 C   0  0  0  0  0 15  0  0  0  0  0  0
   32.0301    2.4508   -3.7717 C   0  0  0  0  0 15  0  0  0  0  0  0
   33.3491    3.8158   -2.1928 C   0  0  0  0  0 15  0  0  0  0  0  0
   30.4681    0.5557   -0.4841 H   0  0  0  0  0 15  0  0  0  0  0  0
   33.1101    0.8845   -1.6816 H   0  0  0  0  0 15  0  0  0  0  0  0
   31.2601    3.3489   -1.9693 H   0  0  0  0  0 15  0  0  0  0  0  0
   32.9321    1.9574   -4.1771 H   0  0  0  0  0 15  0  0  0  0  0  0
   31.1751    1.7777   -3.9570 H   0  0  0  0  0 15  0  0  0  0  0  0
   31.8461    3.3548   -4.3836 H   0  0  0  0  0 15  0  0  0  0  0  0
   34.3221    3.3583   -2.4567 H   0  0  0  0  0 15  0  0  0  0  0  0
   33.1981    4.6779   -2.8717 H   0  0  0  0  0 15  0  0  0  0  0  0
   33.4591    4.2590   -1.1859 H   0  0  0  0  0 15  0  0  0  0  0  0
   32.5182    1.2203    0.9973 N   0  0  0  0  0 15  0  0  0  0  0  0
   33.7642    1.0438    1.7388 C   0  0  0  0  0 15  0  0  0  0  0  0
   34.0972   -0.4207    1.8959 C   0  0  0  0  0 15  0  0  0  0  0  0
   33.3722   -1.3120    1.4358 O   0  0  0  0  0 15  0  0  0  0  0  0
   33.6552    1.7505    3.1469 C   0  0  0  0  0 15  0  0  0  0  0  0
   33.5082    3.2906    3.0666 C   0  0  0  0  0 15  0  0  0  0  0  0
   34.8272    1.4993    4.1377 C   0  0  0  0  0 15  0  0  0  0  0  0
   31.9462    0.3806    0.6311 H   0  0  0  0  0 15  0  0  0  0  0  0
   34.5882    1.5031    1.1622 H   0  0  0  0  0 15  0  0  0  0  0  0
   32.7382    1.3600    3.6392 H   0  0  0  0  0 15  0  0  0  0  0  0
   34.4102    3.7753    2.6508 H   0  0  0  0  0 15  0  0  0  0  0  0
   32.6532    3.5897    2.4357 H   0  0  0  0  0 15  0  0  0  0  0  0
   33.3242    3.7368    4.0628 H   0  0  0  0  0 15  0  0  0  0  0  0
   35.8002    1.8384    3.7328 H   0  0  0  0  0 15  0  0  0  0  0  0
   34.6762    2.0188    5.1043 H   0  0  0  0  0 15  0  0  0  0  0  0
   34.9372    0.4309    4.3999 H   0  0  0  0  0 15  0  0  0  0  0  0
   33.9963   -1.1934    1.0293 N   0  0  0  0  0 15  0  0  0  0  0  0
   35.2423   -1.8958    0.7368 C   0  0  0  0  0 15  0  0  0  0  0  0
   35.5973   -1.7815   -0.7267 C   0  0  0  0  0 15  0  0  0  0  0  0
   34.8903   -1.1633   -1.5224 O   0  0  0  0  0 15  0  0  0  0  0  0
   35.0843   -3.3929    1.1232 C   0  0  0  0  0 15  0  0  0  0  0  0
   34.9133   -3.6530    2.6227 C   0  0  0  0  0 15  0  0  0  0  0  0
   33.6833   -3.8330    3.2925 C   0  0  0  0  0 15  0  0  0  0  0  0
   35.8813   -3.6682    3.6048 C   0  0  0  0  0 15  0  0  0  0  0  0
   33.8633   -3.9694    4.6830 N   0  0  0  0  0 15  0  0  0  0  0  0
   35.2343   -3.8604    4.8516 C   0  0  0  0  0 15  0  0  0  0  0  0
   37.2893   -3.4985    3.5427 C   0  0  0  0  0 15  0  0  0  0  0  0
   35.9923   -3.9004    6.0437 C   0  0  0  0  0 15  0  0  0  0  0  0
   38.0183   -3.5513    4.7290 C   0  0  0  0  0 15  0  0  0  0  0  0
   37.3803   -3.7483    5.9639 C   0  0  0  0  0 15  0  0  0  0  0  0
   33.4793   -0.7129    0.3215 H   0  0  0  0  0 15  0  0  0  0  0  0
   36.0633   -1.4343    1.3167 H   0  0  0  0  0 15  0  0  0  0  0  0
   34.2343   -3.8417    0.5715 H   0  0  0  0  0 15  0  0  0  0  0  0
   35.9663   -3.9705    0.7829 H   0  0  0  0  0 15  0  0  0  0  0  0
   32.7213   -3.8221    2.7966 H   0  0  0  0  0 15  0  0  0  0  0  0
   33.1453   -4.0761    5.4054 H   0  0  0  0  0 15  0  0  0  0  0  0
   37.7873   -3.3357    2.5979 H   0  0  0  0  0 15  0  0  0  0  0  0
   35.5053   -4.0511    6.9922 H   0  0  0  0  0 15  0  0  0  0  0  0
   39.0913   -3.4329    4.6973 H   0  0  0  0  0 15  0  0  0  0  0  0
   37.9713   -3.7879    6.8665 H   0  0  0  0  0 15  0  0  0  0  0  0
   35.4744   -0.8072   -1.3536 N   0  0  0  0  0 15  0  0  0  0  0  0
   36.7224   -0.3871   -1.9836 C   0  0  0  0  0 15  0  0  0  0  0  0
   37.0434    1.0494   -1.6435 C   0  0  0  0  0 15  0  0  0  0  0  0
   36.3134    1.7261   -0.9263 O   0  0  0  0  0 15  0  0  0  0  0  0
   34.8934   -0.1402   -0.7337 H   0  0  0  0  0 15  0  0  0  0  0  0
   37.5554   -1.0332   -1.6526 H   0  0  0  0  0 15  0  0  0  0  0  0
   36.6514   -0.4934   -3.0818 H   0  0  0  0  0 15  0  0  0  0  0  0
   36.9525    1.4729   -0.5608 N   0  0  0  0  0 15  0  0  0  0  0  0
   38.3685    1.5807   -0.2208 C   0  0  0  0  0 15  0  0  0  0  0  0
   38.5685    1.5589    1.2767 C   0  0  0  0  0 15  0  0  0  0  0  0
   37.6245    1.4642    2.0571 O   0  0  0  0  0 15  0  0  0  0  0  0
   38.9375    2.8842   -0.8506 C   0  0  0  0  0 15  0  0  0  0  0  0
   40.4855    3.0201   -0.8222 C   0  0  0  0  0 15  0  0  0  0  0  0
   40.9605    4.3507   -1.4311 C   0  0  0  0  0 15  0  0  0  0  0  0
   42.4515    4.4171   -1.3945 N   0  0  0  0  0 15  0  0  0  0  0  0
   43.1865    5.4324   -1.8352 C   0  0  0  0  0 15  0  0  0  0  0  0
   42.6825    6.5155   -2.3547 N   0  0  0  0  0 15  0  0  0  0  0  0
   44.4755    5.3430   -1.7457 N   0  0  0  0  0 15  0  0  0  0  0  0
   36.6265    1.4694   -1.5337 H   0  0  0  0  0 15  0  0  0  0  0  0
   38.8895    0.6996   -0.6398 H   0  0  0  0  0 15  0  0  0  0  0  0
   38.5955    2.9576   -1.9032 H   0  0  0  0  0 15  0  0  0  0  0  0
   38.4695    3.7561   -0.3458 H   0  0  0  0  0 15  0  0  0  0  0  0
   40.8565    2.9427    0.2217 H   0  0  0  0  0 15  0  0  0  0  0  0
   40.9375    2.1635   -1.3648 H   0  0  0  0  0 15  0  0  0  0  0  0
   40.5815    4.4356   -2.4741 H   0  0  0  0  0 15  0  0  0  0  0  0
   40.5115    5.1947   -0.8639 H   0  0  0  0  0 15  0  0  0  0  0  0
   43.0025    3.6403   -1.0145 H   0  0  0  0  0 15  0  0  0  0  0  0
   43.3155    7.2520   -2.6702 H   0  0  0  0  0 15  0  0  0  0  0  0
   41.6605    6.5243   -2.3949 H   0  0  0  0  0 15  0  0  0  0  0  0
   44.8515    4.4858   -1.3376 H   0  0  0  0  0 15  0  0  0  0  0  0
   45.0245    6.1329   -2.0924 H   0  0  0  0  0 15  0  0  0  0  0  0
   38.4306    0.2974    1.5477 N   0  0  0  0  0 15  0  0  0  0  0  0
   39.3786   -0.5961    2.2483 C   0  0  0  0  0 15  0  0  0  0  0  0
   40.3726   -1.1399    1.2531 C   0  0  0  0  0 15  0  0  0  0  0  0
   41.5786   -1.0910    1.4317 O   0  0  0  0  0 15  0  0  0  0  0  0
   37.9536   -0.2108    0.7218 H   0  0  0  0  0 15  0  0  0  0  0  0
   39.9246    0.0175    2.9839 H   0  0  0  0  0 15  0  0  0  0  0  0
   38.6736   -1.7582    2.9997 C   0  0  0  0  0 15  0  0  0  0  0  0
   37.9966   -1.3489    3.7636 H   0  0  0  0  0 15  0  0  0  0  0  0
   39.4366   -2.3595    3.5228 H   0  0  0  0  0 15  0  0  0  0  0  0
   37.8956   -2.6601    2.0673 C   0  0  0  0  0 15  0  0  0  0  0  0
   38.4256   -3.6701    1.6330 O   0  0  0  0  0 15  0  0  0  0  0  0
   36.6316   -2.3367    1.7276 N   0  0  0  0  0 15  0  0  0  0  0  0
   36.1786   -1.5159    2.0828 H   0  0  0  0  0 15  0  0  0  0  0  0
   36.1366   -2.9428    1.1065 H   0  0  0  0  0 15  0  0  0  0  0  0
   39.9087   -1.5758    0.0251 N   0  0  0  0  0 15  0  0  0  0  0  0
   41.1567   -1.9125   -0.6532 C   0  0  0  0  0 15  0  0  0  0  0  0
   41.4777   -0.9017   -1.7290 C   0  0  0  0  0 15  0  0  0  0  0  0
   40.7477    0.0574   -1.9582 O   0  0  0  0  0 15  0  0  0  0  0  0
   39.3277   -0.7059   -0.2442 H   0  0  0  0  0 15  0  0  0  0  0  0
   41.9897   -1.9477    0.0719 H   0  0  0  0  0 15  0  0  0  0  0  0
   41.0857   -2.9175   -1.1085 H   0  0  0  0  0 15  0  0  0  0  0  0
   41.3868    0.2480   -1.5564 N   0  0  0  0  0 15  0  0  0  0  0  0
   42.3168    1.3108   -1.9324 C   0  0  0  0  0 15  0  0  0  0  0  0
   43.2978    1.5026   -0.7972 C   0  0  0  0  0 15  0  0  0  0  0  0
   44.4828    1.6289   -1.0574 O   0  0  0  0  0 15  0  0  0  0  0  0
   41.6128    2.6658   -2.2261 C   0  0  0  0  0 15  0  0  0  0  0  0
   40.5668    2.6209   -3.3837 C   0  0  0  0  0 15  0  0  0  0  0  0
   39.8928    4.0137   -3.5328 C   0  0  0  0  0 15  0  0  0  0  0  0
   41.1928    2.1917   -4.7409 C   0  0  0  0  0 15  0  0  0  0  0  0
   42.8868    0.9986   -2.8226 H   0  0  0  0  0 15  0  0  0  0  0  0
   40.4328    0.4789   -1.3580 H   0  0  0  0  0 15  0  0  0  0  0  0
   42.3858    3.4106   -2.4750 H   0  0  0  0  0 15  0  0  0  0  0  0
   41.1098    2.9943   -1.3041 H   0  0  0  0  0 15  0  0  0  0  0  0
   39.7688    1.9006   -3.1348 H   0  0  0  0  0 15  0  0  0  0  0  0
   39.4168    4.3149   -2.5851 H   0  0  0  0  0 15  0  0  0  0  0  0
   39.1168    3.9925   -4.3113 H   0  0  0  0  0 15  0  0  0  0  0  0
   40.6408    4.7755   -3.8049 H   0  0  0  0  0 15  0  0  0  0  0  0
   42.0548    2.8338   -4.9836 H   0  0  0  0  0 15  0  0  0  0  0  0
   40.4518    2.2817   -5.5503 H   0  0  0  0  0 15  0  0  0  0  0  0
   41.5218    1.1434   -4.7123 H   0  0  0  0  0 15  0  0  0  0  0  0
   42.9038    1.5663    0.3937 O   0  0  0  0  0 15  0  0  0  0  0  0
   43.5948    1.6305    1.0457 H   0  0  0  0  0 15  0  0  0  0  0  0
M  END
$$$$
