drugbank_target|P83797 Cytochrome b6-f complex subunit 5 (DB04646; DB08453)
 OpenBabel12092120433D

573579  0  0  0  0  0  0  0  0999 V2000
   -0.9080    1.9825   -0.1171 H   0  0  0  0  0 15  0  0  0  0  0  0
    0.0000    1.5760    0.0000 N   0  0  0  0  0 15  0  0  0  0  0  0
    0.9330    2.0387    1.0253 C   0  0  0  0  0 15  0  0  0  0  0  0
    1.9110    0.9285    1.3348 C   0  0  0  0  0 15  0  0  0  0  0  0
    3.0950    1.1967    1.4564 O   0  0  0  0  0 15  0  0  0  0  0  0
    0.2220    2.4363    2.3529 C   0  0  0  0  0 15  0  0  0  0  0  0
   -0.7320    3.6537    2.2001 C   0  0  0  0  0 15  0  0  0  0  0  0
    0.1010    5.1329    1.5261 S   0  0  0  0  0 15  0  0  0  0  0  0
    1.2570    5.5632    2.8680 C   0  0  0  0  0 15  0  0  0  0  0  0
    1.4900    2.9052    0.6314 H   0  0  0  0  0 15  0  0  0  0  0  0
   -0.9770    1.5295    0.2109 H   0  0  0  0  0 15  0  0  0  0  0  0
    0.9810    2.6720    3.1163 H   0  0  0  0  0 15  0  0  0  0  0  0
   -0.3580    1.5738    2.7183 H   0  0  0  0  0 15  0  0  0  0  0  0
   -1.1650    3.9094    3.1809 H   0  0  0  0  0 15  0  0  0  0  0  0
   -1.5630    3.4180    1.5182 H   0  0  0  0  0 15  0  0  0  0  0  0
    0.7290    5.5878    3.8310 H   0  0  0  0  0 15  0  0  0  0  0  0
    1.6720    6.5627    2.6593 H   0  0  0  0  0 15  0  0  0  0  0  0
    2.0800    4.8389    2.9071 H   0  0  0  0  0 15  0  0  0  0  0  0
    1.4781   -0.2728    1.5522 N   0  0  0  0  0 15  0  0  0  0  0  0
    2.7241   -1.0058    1.7610 C   0  0  0  0  0 15  0  0  0  0  0  0
    3.0571   -1.8593    0.5606 C   0  0  0  0  0 15  0  0  0  0  0  0
    2.3321   -1.8942   -0.4418 O   0  0  0  0  0 15  0  0  0  0  0  0
    2.6151   -1.8882    3.0663 C   0  0  0  0  0 15  0  0  0  0  0  0
    2.4681   -1.0646    4.3702 C   0  0  0  0  0 15  0  0  0  0  0  0
    3.7871   -2.8752    3.3320 C   0  0  0  0  0 15  0  0  0  0  0  0
    0.9061   -0.3642    0.6407 H   0  0  0  0  0 15  0  0  0  0  0  0
    3.5481   -0.2782    1.8795 H   0  0  0  0  0 15  0  0  0  0  0  0
    1.6981   -2.5086    2.9665 H   0  0  0  0  0 15  0  0  0  0  0  0
    3.3701   -0.4649    4.5895 H   0  0  0  0  0 15  0  0  0  0  0  0
    1.6131   -0.3680    4.3224 H   0  0  0  0  0 15  0  0  0  0  0  0
    2.2841   -1.7151    5.2468 H   0  0  0  0  0 15  0  0  0  0  0  0
    4.7601   -2.3561    3.4296 H   0  0  0  0  0 15  0  0  0  0  0  0
    3.6361   -3.4640    4.2579 H   0  0  0  0  0 15  0  0  0  0  0  0
    3.8971   -3.6266    2.5285 H   0  0  0  0  0 15  0  0  0  0  0  0
    2.9562   -1.4816   -0.5373 N   0  0  0  0  0 15  0  0  0  0  0  0
    3.8662   -1.6481   -1.6696 C   0  0  0  0  0 15  0  0  0  0  0  0
    4.8822   -0.5307   -1.6571 C   0  0  0  0  0 15  0  0  0  0  0  0
    6.0582   -0.8008   -1.8480 O   0  0  0  0  0 15  0  0  0  0  0  0
    3.1232   -1.6771   -3.0344 C   0  0  0  0  0 15  0  0  0  0  0  0
    2.1842   -2.9102   -3.1560 C   0  0  0  0  0 15  0  0  0  0  0  0
    1.4172   -2.9378   -4.4557 C   0  0  0  0  0 15  0  0  0  0  0  0
    1.6402   -2.0515   -5.3223 O   0  0  0  0  0 15  0  0  0  0  0  0
    0.5742   -3.8587   -4.6194 O   0  0  0  0  0 15  0  0  0  0  0  0
    4.4002   -2.6066   -1.5585 H   0  0  0  0  0 15  0  0  0  0  0  0
    1.9852   -1.3148   -0.7095 H   0  0  0  0  0 15  0  0  0  0  0  0
    3.8672   -1.7218   -3.8462 H   0  0  0  0  0 15  0  0  0  0  0  0
    2.5422   -0.7503   -3.1488 H   0  0  0  0  0 15  0  0  0  0  0  0
    1.4492   -2.9209   -2.3374 H   0  0  0  0  0 15  0  0  0  0  0  0
    2.7822   -3.8307   -3.0907 H   0  0  0  0  0 15  0  0  0  0  0  0
    4.4343    0.7856   -1.3662 N   0  0  0  0  0 15  0  0  0  0  0  0
    5.8453    1.3610   -1.2780 C   0  0  0  0  0 15  0  0  0  0  0  0
    6.1963    1.9603    0.0805 C   0  0  0  0  0 15  0  0  0  0  0  0
    5.3213    1.9283    0.9820 O   0  0  0  0  0 15  0  0  0  0  0  0
    5.9163    2.4744   -2.3143 C   0  0  0  0  0 15  0  0  0  0  0  0
    4.4753    3.0079   -2.2628 C   0  0  0  0  0 15  0  0  0  0  0  0
    3.6223    1.7390   -2.1600 C   0  0  0  0  0 15  0  0  0  0  0  0
    6.5733    0.5869   -1.4745 H   0  0  0  0  0 15  0  0  0  0  0  0
    6.5943    3.2656   -1.9529 H   0  0  0  0  0 15  0  0  0  0  0  0
    6.1063    2.0379   -3.3029 H   0  0  0  0  0 15  0  0  0  0  0  0
    4.2073    3.4885   -1.3090 H   0  0  0  0  0 15  0  0  0  0  0  0
    4.3203    3.5734   -3.1913 H   0  0  0  0  0 15  0  0  0  0  0  0
    2.6843    1.9628   -1.6232 H   0  0  0  0  0 15  0  0  0  0  0  0
    3.4673    1.3237   -3.1675 H   0  0  0  0  0 15  0  0  0  0  0  0
    5.9124    1.2097    1.0102 N   0  0  0  0  0 15  0  0  0  0  0  0
    6.8424    0.9883    2.1155 C   0  0  0  0  0 15  0  0  0  0  0  0
    7.8234   -0.0850    1.6989 C   0  0  0  0  0 15  0  0  0  0  0  0
    9.0084    0.0738    1.9406 O   0  0  0  0  0 15  0  0  0  0  0  0
    6.1384    0.5465    3.4297 C   0  0  0  0  0 15  0  0  0  0  0  0
    5.0924    1.5637    3.9841 C   0  0  0  0  0 15  0  0  0  0  0  0
    4.4184    0.9784    5.2567 C   0  0  0  0  0 15  0  0  0  0  0  0
    5.7184    2.9492    4.3107 C   0  0  0  0  0 15  0  0  0  0  0  0
    7.4124    1.9128    2.3033 H   0  0  0  0  0 15  0  0  0  0  0  0
    4.9584    0.9211    1.1069 H   0  0  0  0  0 15  0  0  0  0  0  0
    6.9114    0.3788    4.1969 H   0  0  0  0  0 15  0  0  0  0  0  0
    5.6354   -0.4136    3.2397 H   0  0  0  0  0 15  0  0  0  0  0  0
    4.2944    1.7189    3.2380 H   0  0  0  0  0 15  0  0  0  0  0  0
    3.9424    0.0102    5.0300 H   0  0  0  0  0 15  0  0  0  0  0  0
    3.6424    1.6578    5.6373 H   0  0  0  0  0 15  0  0  0  0  0  0
    5.1664    0.8219    6.0504 H   0  0  0  0  0 15  0  0  0  0  0  0
    6.5804    2.8288    4.9865 H   0  0  0  0  0 15  0  0  0  0  0  0
    4.9774    3.5983    4.8025 H   0  0  0  0  0 15  0  0  0  0  0  0
    6.0474    3.4616    3.3956 H   0  0  0  0  0 15  0  0  0  0  0  0
    7.3905   -1.2043    1.0166 N   0  0  0  0  0 15  0  0  0  0  0  0
    8.3205   -2.2547    0.6072 C   0  0  0  0  0 15  0  0  0  0  0  0
    9.3015   -1.6585   -0.3777 C   0  0  0  0  0 15  0  0  0  0  0  0
   10.4865   -1.9241   -0.2631 O   0  0  0  0  0 15  0  0  0  0  0  0
    7.6165   -3.4726   -0.0553 C   0  0  0  0  0 15  0  0  0  0  0  0
    6.5705   -4.1946    0.8506 C   0  0  0  0  0 15  0  0  0  0  0  0
    5.8965   -5.3467    0.0539 C   0  0  0  0  0 15  0  0  0  0  0  0
    7.1965   -4.7560    2.1587 C   0  0  0  0  0 15  0  0  0  0  0  0
    8.8905   -2.5996    1.4853 H   0  0  0  0  0 15  0  0  0  0  0  0
    6.4365   -1.2496    0.7156 H   0  0  0  0  0 15  0  0  0  0  0  0
    8.3895   -4.1992   -0.3532 H   0  0  0  0  0 15  0  0  0  0  0  0
    7.1135   -3.1192   -0.9680 H   0  0  0  0  0 15  0  0  0  0  0  0
    5.7725   -3.4867    1.1326 H   0  0  0  0  0 15  0  0  0  0  0  0
    5.4205   -4.9558   -0.8605 H   0  0  0  0  0 15  0  0  0  0  0  0
    5.1205   -5.8391    0.6572 H   0  0  0  0  0 15  0  0  0  0  0  0
    6.6445   -6.1014   -0.2376 H   0  0  0  0  0 15  0  0  0  0  0  0
    8.0585   -5.4008    1.9231 H   0  0  0  0  0 15  0  0  0  0  0  0
    6.4555   -5.3528    2.7128 H   0  0  0  0  0 15  0  0  0  0  0  0
    7.5255   -3.9435    2.8217 H   0  0  0  0  0 15  0  0  0  0  0  0
    8.8686   -0.7928   -1.3621 N   0  0  0  0  0 15  0  0  0  0  0  0
   10.1456   -0.2906   -1.9343 C   0  0  0  0  0 15  0  0  0  0  0  0
   10.5256    1.2177   -1.7244 C   0  0  0  0  0 15  0  0  0  0  0  0
    9.8736    2.0108   -1.0853 O   0  0  0  0  0 15  0  0  0  0  0  0
   10.0836   -0.6870   -3.4217 C   0  0  0  0  0 15  0  0  0  0  0  0
   11.4316   -0.6686   -4.1930 C   0  0  0  0  0 15  0  0  0  0  0  0
   12.4556   -0.6277   -3.5063 O   0  0  0  0  0 15  0  0  0  0  0  0
   11.3146   -0.7146   -5.4181 O   0  0  0  0  0 15  0  0  0  0  0  0
    8.4086   -0.0728   -0.8238 H   0  0  0  0  0 15  0  0  0  0  0  0
   10.9546   -0.8756   -1.4537 H   0  0  0  0  0 15  0  0  0  0  0  0
    9.7266   -1.7271   -3.5112 H   0  0  0  0  0 15  0  0  0  0  0  0
    9.3496   -0.0761   -3.9753 H   0  0  0  0  0 15  0  0  0  0  0  0
   10.3467    1.4787   -0.5451 N   0  0  0  0  0 15  0  0  0  0  0  0
   11.5947    2.0209   -0.0166 C   0  0  0  0  0 15  0  0  0  0  0  0
   11.9157    1.4231    1.3332 C   0  0  0  0  0 15  0  0  0  0  0  0
   11.1857    0.5939    1.8668 O   0  0  0  0  0 15  0  0  0  0  0  0
    9.7657    0.7470   -0.0031 H   0  0  0  0  0 15  0  0  0  0  0  0
   12.4277    1.8141   -0.7124 H   0  0  0  0  0 15  0  0  0  0  0  0
   11.5237    3.1200    0.0805 H   0  0  0  0  0 15  0  0  0  0  0  0
   11.8248    0.2810    1.5507 N   0  0  0  0  0 15  0  0  0  0  0  0
   12.7548   -0.5975    2.2573 C   0  0  0  0  0 15  0  0  0  0  0  0
   13.7358   -1.1542    1.2495 C   0  0  0  0  0 15  0  0  0  0  0  0
   14.9208   -1.1872    1.5368 O   0  0  0  0  0 15  0  0  0  0  0  0
   12.0508   -1.7789    2.9828 C   0  0  0  0  0 15  0  0  0  0  0  0
   11.0048   -1.3535    4.0604 C   0  0  0  0  0 15  0  0  0  0  0  0
   10.3308   -2.6185    4.6620 C   0  0  0  0  0 15  0  0  0  0  0  0
   11.6308   -0.4994    5.1991 C   0  0  0  0  0 15  0  0  0  0  0  0
   13.3248   -0.0082    2.9940 H   0  0  0  0  0 15  0  0  0  0  0  0
   10.8708   -0.0025    1.4400 H   0  0  0  0  0 15  0  0  0  0  0  0
   12.8238   -2.3994    3.4642 H   0  0  0  0  0 15  0  0  0  0  0  0
   11.5478   -2.3940    2.2216 H   0  0  0  0  0 15  0  0  0  0  0  0
   10.2068   -0.7562    3.5872 H   0  0  0  0  0 15  0  0  0  0  0  0
    9.8548   -3.2163    3.8673 H   0  0  0  0  0 15  0  0  0  0  0  0
    9.5548   -2.3409    5.3896 H   0  0  0  0  0 15  0  0  0  0  0  0
   11.0788   -3.2473    5.1709 H   0  0  0  0  0 15  0  0  0  0  0  0
   12.4928   -1.0250    5.6406 H   0  0  0  0  0 15  0  0  0  0  0  0
   10.8898   -0.3164    5.9927 H   0  0  0  0  0 15  0  0  0  0  0  0
   11.9598    0.4805    4.8251 H   0  0  0  0  0 15  0  0  0  0  0  0
   13.3029   -1.5760    0.0084 N   0  0  0  0  0 15  0  0  0  0  0  0
   14.5489   -1.9121   -0.6757 C   0  0  0  0  0 15  0  0  0  0  0  0
   14.8819   -0.8831   -1.7296 C   0  0  0  0  0 15  0  0  0  0  0  0
   14.1569    0.0970   -1.9426 O   0  0  0  0  0 15  0  0  0  0  0  0
   14.4399   -3.3538   -1.3112 C   0  0  0  0  0 15  0  0  0  0  0  0
   14.2929   -4.4900   -0.2684 C   0  0  0  0  0 15  0  0  0  0  0  0
   15.6119   -3.7912   -2.2351 C   0  0  0  0  0 15  0  0  0  0  0  0
   12.7309   -0.6954   -0.2442 H   0  0  0  0  0 15  0  0  0  0  0  0
   15.3729   -1.8990    0.0614 H   0  0  0  0  0 15  0  0  0  0  0  0
   13.5229   -3.3663   -1.9395 H   0  0  0  0  0 15  0  0  0  0  0  0
   15.1949   -4.5989    0.3608 H   0  0  0  0  0 15  0  0  0  0  0  0
   13.4379   -4.3187    0.4085 H   0  0  0  0  0 15  0  0  0  0  0  0
   14.1089   -5.4685   -0.7522 H   0  0  0  0  0 15  0  0  0  0  0  0
   16.5849   -3.7948   -1.7069 H   0  0  0  0  0 15  0  0  0  0  0  0
   15.4609   -4.8073   -2.6494 H   0  0  0  0  0 15  0  0  0  0  0  0
   15.7219   -3.1346   -3.1177 H   0  0  0  0  0 15  0  0  0  0  0  0
   14.7810    0.2645   -1.5536 N   0  0  0  0  0 15  0  0  0  0  0  0
   15.7110    1.3312   -1.9184 C   0  0  0  0  0 15  0  0  0  0  0  0
   16.6920    1.5110   -0.7812 C   0  0  0  0  0 15  0  0  0  0  0  0
   17.8770    1.6400   -1.0400 O   0  0  0  0  0 15  0  0  0  0  0  0
   15.0070    2.6892   -2.1977 C   0  0  0  0  0 15  0  0  0  0  0  0
   13.9610    2.6566   -3.3557 C   0  0  0  0  0 15  0  0  0  0  0  0
   13.2870    4.0509   -3.4900 C   0  0  0  0  0 15  0  0  0  0  0  0
   14.5870    2.2419   -4.7174 C   0  0  0  0  0 15  0  0  0  0  0  0
   16.2810    1.0284   -2.8118 H   0  0  0  0  0 15  0  0  0  0  0  0
   13.8270    0.4933   -1.3529 H   0  0  0  0  0 15  0  0  0  0  0  0
   15.7800    3.4366   -2.4387 H   0  0  0  0  0 15  0  0  0  0  0  0
   14.5040    3.0080   -1.2723 H   0  0  0  0  0 15  0  0  0  0  0  0
   13.1630    1.9338   -3.1145 H   0  0  0  0  0 15  0  0  0  0  0  0
   12.8110    4.3421   -2.5392 H   0  0  0  0  0 15  0  0  0  0  0  0
   12.5110    4.0380   -4.2687 H   0  0  0  0  0 15  0  0  0  0  0  0
   14.0350    4.8156   -3.7541 H   0  0  0  0  0 15  0  0  0  0  0  0
   15.4490    2.8865   -4.9533 H   0  0  0  0  0 15  0  0  0  0  0  0
   13.8460    2.3404   -5.5258 H   0  0  0  0  0 15  0  0  0  0  0  0
   14.9160    1.1933   -4.6999 H   0  0  0  0  0 15  0  0  0  0  0  0
   16.2591    1.4844    0.5294 N   0  0  0  0  0 15  0  0  0  0  0  0
   17.5071    1.5618    1.2827 C   0  0  0  0  0 15  0  0  0  0  0  0
   17.8281    0.2377    1.9355 C   0  0  0  0  0 15  0  0  0  0  0  0
   17.0981   -0.7408    1.8135 O   0  0  0  0  0 15  0  0  0  0  0  0
   15.6781    0.5754    0.4764 H   0  0  0  0  0 15  0  0  0  0  0  0
   18.3401    1.8491    0.6160 H   0  0  0  0  0 15  0  0  0  0  0  0
   17.4361    2.3431    2.0617 H   0  0  0  0  0 15  0  0  0  0  0  0
   17.7372   -0.7783    1.3704 N   0  0  0  0  0 15  0  0  0  0  0  0
   18.6672   -1.9055    1.3496 C   0  0  0  0  0 15  0  0  0  0  0  0
   19.6482   -1.6868    0.2193 C   0  0  0  0  0 15  0  0  0  0  0  0
   20.8332   -1.8963    0.4186 O   0  0  0  0  0 15  0  0  0  0  0  0
   17.9632   -3.2773    1.1493 C   0  0  0  0  0 15  0  0  0  0  0  0
   16.9172   -3.6415    2.2490 C   0  0  0  0  0 15  0  0  0  0  0  0
   16.2432   -4.9981    1.9000 C   0  0  0  0  0 15  0  0  0  0  0  0
   17.5432   -3.7158    3.6705 C   0  0  0  0  0 15  0  0  0  0  0  0
   19.2372   -1.9254    2.2928 H   0  0  0  0  0 15  0  0  0  0  0  0
   16.7832   -0.9249    1.1037 H   0  0  0  0  0 15  0  0  0  0  0  0
   18.7362   -4.0622    1.1210 H   0  0  0  0  0 15  0  0  0  0  0  0
   17.4602   -3.2615    0.1706 H   0  0  0  0  0 15  0  0  0  0  0  0
   16.1192   -2.8797    2.2687 H   0  0  0  0  0 15  0  0  0  0  0  0
   15.7672   -4.9476    0.9068 H   0  0  0  0  0 15  0  0  0  0  0  0
   15.4672   -5.2514    2.6363 H   0  0  0  0  0 15  0  0  0  0  0  0
   16.9912   -5.8069    1.8875 H   0  0  0  0  0 15  0  0  0  0  0  0
   18.4052   -4.4023    3.6725 H   0  0  0  0  0 15  0  0  0  0  0  0
   16.8022   -4.0840    4.3969 H   0  0  0  0  0 15  0  0  0  0  0  0
   17.8722   -2.7240    4.0115 H   0  0  0  0  0 15  0  0  0  0  0  0
   19.2153   -1.2150   -1.0038 N   0  0  0  0  0 15  0  0  0  0  0  0
   20.4613   -1.0345   -1.7443 C   0  0  0  0  0 15  0  0  0  0  0  0
   20.7943    0.4308   -1.8936 C   0  0  0  0  0 15  0  0  0  0  0  0
   20.0693    1.3196   -1.4289 O   0  0  0  0  0 15  0  0  0  0  0  0
   20.3523   -1.7338   -3.1562 C   0  0  0  0  0 15  0  0  0  0  0  0
   20.2053   -3.2743   -3.0840 C   0  0  0  0  0 15  0  0  0  0  0  0
   21.5243   -1.4773   -4.1456 C   0  0  0  0  0 15  0  0  0  0  0  0
   18.6433   -0.3772   -0.6331 H   0  0  0  0  0 15  0  0  0  0  0  0
   21.2853   -1.4969   -1.1701 H   0  0  0  0  0 15  0  0  0  0  0  0
   19.4353   -1.3406   -3.6464 H   0  0  0  0  0 15  0  0  0  0  0  0
   21.1073   -3.7612   -2.6708 H   0  0  0  0  0 15  0  0  0  0  0  0
   19.3503   -3.5767   -2.4547 H   0  0  0  0  0 15  0  0  0  0  0  0
   20.0213   -3.7152   -4.0826 H   0  0  0  0  0 15  0  0  0  0  0  0
   22.4973   -1.8186   -3.7425 H   0  0  0  0  0 15  0  0  0  0  0  0
   21.3733   -1.9917   -5.1149 H   0  0  0  0  0 15  0  0  0  0  0  0
   21.6343   -0.4076   -4.4022 H   0  0  0  0  0 15  0  0  0  0  0  0
   20.6934    1.1989   -1.0230 N   0  0  0  0  0 15  0  0  0  0  0  0
   21.9404    1.8942   -0.7160 C   0  0  0  0  0 15  0  0  0  0  0  0
   22.2684    1.7925    0.7549 C   0  0  0  0  0 15  0  0  0  0  0  0
   21.5234    1.1753    1.5648 O   0  0  0  0  0 15  0  0  0  0  0  0
   21.8224    3.3988   -1.1052 C   0  0  0  0  0 15  0  0  0  0  0  0
   21.4884    3.7025   -2.5734 C   0  0  0  0  0 15  0  0  0  0  0  0
   20.1504    3.7825   -2.9745 C   0  0  0  0  0 15  0  0  0  0  0  0
   22.5024    3.8405   -3.5235 C   0  0  0  0  0 15  0  0  0  0  0  0
   19.8304    3.9751   -4.3151 C   0  0  0  0  0 15  0  0  0  0  0  0
   22.1824    4.0482   -4.8611 C   0  0  0  0  0 15  0  0  0  0  0  0
   20.8464    4.1105   -5.2592 C   0  0  0  0  0 15  0  0  0  0  0  0
   20.1164    0.6931   -0.2620 H   0  0  0  0  0 15  0  0  0  0  0  0
   22.7634    1.4201   -1.2847 H   0  0  0  0  0 15  0  0  0  0  0  0
   21.0684    3.8915   -0.4550 H   0  0  0  0  0 15  0  0  0  0  0  0
   22.7654    3.9199   -0.8453 H   0  0  0  0  0 15  0  0  0  0  0  0
   19.3554    3.6463   -2.2526 H   0  0  0  0  0 15  0  0  0  0  0  0
   23.5394    3.7722   -3.2252 H   0  0  0  0  0 15  0  0  0  0  0  0
   18.7954    4.0057   -4.6190 H   0  0  0  0  0 15  0  0  0  0  0  0
   22.9694    4.1444   -5.5965 H   0  0  0  0  0 15  0  0  0  0  0  0
   20.5964    4.2573   -6.2981 H   0  0  0  0  0 15  0  0  0  0  0  0
   22.1715    0.8000    1.3578 N   0  0  0  0  0 15  0  0  0  0  0  0
   23.1345    0.2116    2.2822 C   0  0  0  0  0 15  0  0  0  0  0  0
   24.1345   -0.5973    1.4930 C   0  0  0  0  0 15  0  0  0  0  0  0
   25.3245   -0.4167    1.6914 O   0  0  0  0  0 15  0  0  0  0  0  0
   22.4565   -0.7058    3.3351 C   0  0  0  0  0 15  0  0  0  0  0  0
   23.6495    1.0268    2.8178 H   0  0  0  0  0 15  0  0  0  0  0  0
   21.2025    0.5702    1.4553 H   0  0  0  0  0 15  0  0  0  0  0  0
   21.9375   -1.5450    2.8513 H   0  0  0  0  0 15  0  0  0  0  0  0
   21.7225   -0.1277    3.9189 H   0  0  0  0  0 15  0  0  0  0  0  0
   23.2125   -1.1121    4.0252 H   0  0  0  0  0 15  0  0  0  0  0  0
   23.6496   -1.4758    0.5530 N   0  0  0  0  0 15  0  0  0  0  0  0
   24.8776   -2.0688    0.0321 C   0  0  0  0  0 15  0  0  0  0  0  0
   25.2926   -1.4063   -1.2598 C   0  0  0  0  0 15  0  0  0  0  0  0
   24.6496   -0.5013   -1.7548 O   0  0  0  0  0 15  0  0  0  0  0  0
   24.7006   -3.6109   -0.1717 C   0  0  0  0  0 15  0  0  0  0  0  0
   24.4216   -4.2486    1.0690 O   0  0  0  0  0 15  0  0  0  0  0  0
   25.9226   -4.3724   -0.7303 C   0  0  0  0  0 15  0  0  0  0  0  0
   23.1426   -0.6696    0.0439 H   0  0  0  0  0 15  0  0  0  0  0  0
   25.6866   -1.8965    0.7652 H   0  0  0  0  0 15  0  0  0  0  0  0
   23.8416   -3.7785   -0.8549 H   0  0  0  0  0 15  0  0  0  0  0  0
   24.2556   -5.1733    0.8641 H   0  0  0  0  0 15  0  0  0  0  0  0
   25.7296   -5.4584   -0.8222 H   0  0  0  0  0 15  0  0  0  0  0  0
   26.2066   -4.0323   -1.7406 H   0  0  0  0  0 15  0  0  0  0  0  0
   26.8126   -4.2522   -0.0830 H   0  0  0  0  0 15  0  0  0  0  0  0
   25.1277   -0.2892   -1.5492 N   0  0  0  0  0 15  0  0  0  0  0  0
   26.0577    0.5855   -2.2604 C   0  0  0  0  0 15  0  0  0  0  0  0
   27.0387    1.1475   -1.2556 C   0  0  0  0  0 15  0  0  0  0  0  0
   28.2237    1.1791   -1.5431 O   0  0  0  0  0 15  0  0  0  0  0  0
   25.3537    1.7631   -2.9922 C   0  0  0  0  0 15  0  0  0  0  0  0
   24.3077    1.3319   -4.0675 C   0  0  0  0  0 15  0  0  0  0  0  0
   23.6337    2.5937   -4.6758 C   0  0  0  0  0 15  0  0  0  0  0  0
   24.9337    0.4718   -5.2016 C   0  0  0  0  0 15  0  0  0  0  0  0
   26.6277   -0.0076   -2.9940 H   0  0  0  0  0 15  0  0  0  0  0  0
   24.1737   -0.0051   -1.4400 H   0  0  0  0  0 15  0  0  0  0  0  0
   26.1267    2.3810   -3.4769 H   0  0  0  0  0 15  0  0  0  0  0  0
   24.8507    2.3822   -2.2342 H   0  0  0  0  0 15  0  0  0  0  0  0
   23.5097    0.7371   -3.5911 H   0  0  0  0  0 15  0  0  0  0  0  0
   23.1577    3.1958   -3.8843 H   0  0  0  0  0 15  0  0  0  0  0  0
   22.8577    2.3123   -5.4019 H   0  0  0  0  0 15  0  0  0  0  0  0
   24.3817    3.2198   -5.1880 H   0  0  0  0  0 15  0  0  0  0  0  0
   25.7957    0.9951   -5.6460 H   0  0  0  0  0 15  0  0  0  0  0  0
   24.1927    0.2846   -5.9942 H   0  0  0  0  0 15  0  0  0  0  0  0
   25.2627   -0.5060   -4.8225 H   0  0  0  0  0 15  0  0  0  0  0  0
   26.6058    1.5759   -0.0167 N   0  0  0  0  0 15  0  0  0  0  0  0
   27.8538    1.9091    0.6633 C   0  0  0  0  0 15  0  0  0  0  0  0
   28.1748    0.8925    1.7338 C   0  0  0  0  0 15  0  0  0  0  0  0
   27.4448   -0.0678    1.9578 O   0  0  0  0  0 15  0  0  0  0  0  0
   26.0248    0.7046    0.2480 H   0  0  0  0  0 15  0  0  0  0  0  0
   28.6868    1.9480   -0.0616 H   0  0  0  0  0 15  0  0  0  0  0  0
   27.7828    2.9116    1.1239 H   0  0  0  0  0 15  0  0  0  0  0  0
   28.0839   -0.2563    1.5550 N   0  0  0  0  0 15  0  0  0  0  0  0
   29.3319   -0.9837    1.7655 C   0  0  0  0  0 15  0  0  0  0  0  0
   29.6529   -1.8621    0.5790 C   0  0  0  0  0 15  0  0  0  0  0  0
   28.9229   -1.9166   -0.4056 O   0  0  0  0  0 15  0  0  0  0  0  0
   27.5029   -0.3662    0.6511 H   0  0  0  0  0 15  0  0  0  0  0  0
   30.1649   -0.2765    1.9293 H   0  0  0  0  0 15  0  0  0  0  0  0
   29.2609   -1.6109    2.6732 H   0  0  0  0  0 15  0  0  0  0  0  0
   29.5620   -1.4872   -0.5215 N   0  0  0  0  0 15  0  0  0  0  0  0
   30.4920   -1.6677   -1.6343 C   0  0  0  0  0 15  0  0  0  0  0  0
   31.4730   -0.5165   -1.6207 C   0  0  0  0  0 15  0  0  0  0  0  0
   32.6580   -0.7500   -1.7913 O   0  0  0  0  0 15  0  0  0  0  0  0
   29.7880   -1.7152   -3.0199 C   0  0  0  0  0 15  0  0  0  0  0  0
   28.7420   -2.8622   -3.1822 C   0  0  0  0  0 15  0  0  0  0  0  0
   28.0680   -2.7606   -4.5792 C   0  0  0  0  0 15  0  0  0  0  0  0
   29.3680   -4.2742   -3.0018 C   0  0  0  0  0 15  0  0  0  0  0  0
   31.0620   -2.5993   -1.4858 H   0  0  0  0  0 15  0  0  0  0  0  0
   28.6080   -1.2509   -0.7134 H   0  0  0  0  0 15  0  0  0  0  0  0
   30.5610   -1.8273   -3.7972 H   0  0  0  0  0 15  0  0  0  0  0  0
   29.2850   -0.7494   -3.1789 H   0  0  0  0  0 15  0  0  0  0  0  0
   27.9440   -2.7457   -2.4291 H   0  0  0  0  0 15  0  0  0  0  0  0
   27.5920   -1.7744   -4.7066 H   0  0  0  0  0 15  0  0  0  0  0  0
   27.2920   -3.5304   -4.6972 H   0  0  0  0  0 15  0  0  0  0  0  0
   28.8160   -2.8926   -5.3774 H   0  0  0  0  0 15  0  0  0  0  0  0
   30.2300   -4.3985   -3.6770 H   0  0  0  0  0 15  0  0  0  0  0  0
   28.6270   -5.0546   -3.2347 H   0  0  0  0  0 15  0  0  0  0  0  0
   29.6970   -4.4329   -1.9652 H   0  0  0  0  0 15  0  0  0  0  0  0
   31.0401    0.7711   -1.3745 N   0  0  0  0  0 15  0  0  0  0  0  0
   32.2871    1.5296   -1.3270 C   0  0  0  0  0 15  0  0  0  0  0  0
   32.6151    1.9430    0.0883 C   0  0  0  0  0 15  0  0  0  0  0  0
   31.8701    1.6440    1.0617 O   0  0  0  0  0 15  0  0  0  0  0  0
   32.1691    2.8068   -2.2126 C   0  0  0  0  0 15  0  0  0  0  0  0
   31.8351    2.5839   -3.6952 C   0  0  0  0  0 15  0  0  0  0  0  0
   30.4971    2.5202   -4.0993 C   0  0  0  0  0 15  0  0  0  0  0  0
   32.8491    2.3847   -4.6345 C   0  0  0  0  0 15  0  0  0  0  0  0
   30.1771    2.2372   -5.4237 C   0  0  0  0  0 15  0  0  0  0  0  0
   32.5291    2.1169   -5.9613 C   0  0  0  0  0 15  0  0  0  0  0  0
   31.1931    2.0377   -6.3564 C   0  0  0  0  0 15  0  0  0  0  0  0
   30.4631    0.5597   -0.4856 H   0  0  0  0  0 15  0  0  0  0  0  0
   33.1101    0.8881   -1.6966 H   0  0  0  0  0 15  0  0  0  0  0  0
   31.4151    3.4939   -1.7729 H   0  0  0  0  0 15  0  0  0  0  0  0
   33.1121    3.3856   -2.1490 H   0  0  0  0  0 15  0  0  0  0  0  0
   29.7021    2.6421   -3.3748 H   0  0  0  0  0 15  0  0  0  0  0  0
   33.8861    2.4238   -4.3309 H   0  0  0  0  0 15  0  0  0  0  0  0
   29.1421    2.1608   -5.7194 H   0  0  0  0  0 15  0  0  0  0  0  0
   33.3161    1.9528   -6.6846 H   0  0  0  0  0 15  0  0  0  0  0  0
   30.9431    1.8161   -7.3819 H   0  0  0  0  0 15  0  0  0  0  0  0
   32.5182    1.2203    0.9973 N   0  0  0  0  0 15  0  0  0  0  0  0
   33.7482    1.0669    1.7692 C   0  0  0  0  0 15  0  0  0  0  0  0
   34.1562   -0.3858    1.8522 C   0  0  0  0  0 15  0  0  0  0  0  0
   33.4992   -1.2793    1.3183 O   0  0  0  0  0 15  0  0  0  0  0  0
   33.5612    1.5980    3.2203 C   0  0  0  0  0 15  0  0  0  0  0  0
   33.2252    3.0836    3.3729 C   0  0  0  0  0 15  0  0  0  0  0  0
   34.2222    4.0583    3.2495 C   0  0  0  0  0 15  0  0  0  0  0  0
   31.9072    3.4773    3.6248 C   0  0  0  0  0 15  0  0  0  0  0  0
   33.9012    5.4066    3.3759 C   0  0  0  0  0 15  0  0  0  0  0  0
   31.5882    4.8270    3.7476 C   0  0  0  0  0 15  0  0  0  0  0  0
   32.5862    5.7898    3.6232 C   0  0  0  0  0 15  0  0  0  0  0  0
   32.2742    7.1150    3.7419 O   0  0  0  0  0 15  0  0  0  0  0  0
   32.0062    0.3748    0.5626 H   0  0  0  0  0 15  0  0  0  0  0  0
   34.5602    1.6199    1.2629 H   0  0  0  0  0 15  0  0  0  0  0  0
   32.7902    0.9890    3.7384 H   0  0  0  0  0 15  0  0  0  0  0  0
   34.4792    1.4018    3.8092 H   0  0  0  0  0 15  0  0  0  0  0  0
   35.2452    3.7677    3.0540 H   0  0  0  0  0 15  0  0  0  0  0  0
   31.1242    2.7332    3.7124 H   0  0  0  0  0 15  0  0  0  0  0  0
   34.6682    6.1579    3.2780 H   0  0  0  0  0 15  0  0  0  0  0  0
   30.5652    5.1145    3.9381 H   0  0  0  0  0 15  0  0  0  0  0  0
   31.3332    7.1902    3.9109 H   0  0  0  0  0 15  0  0  0  0  0  0
   33.9963   -1.1934    1.0293 N   0  0  0  0  0 15  0  0  0  0  0  0
   34.9593   -2.2079    0.6151 C   0  0  0  0  0 15  0  0  0  0  0  0
   35.9593   -1.5755   -0.3215 C   0  0  0  0  0 15  0  0  0  0  0  0
   37.1493   -1.7386   -0.1085 O   0  0  0  0  0 15  0  0  0  0  0  0
   34.2813   -3.4075   -0.0999 C   0  0  0  0  0 15  0  0  0  0  0  0
   35.4743   -2.5896    1.5127 H   0  0  0  0  0 15  0  0  0  0  0  0
   33.0273   -1.3303    0.8205 H   0  0  0  0  0 15  0  0  0  0  0  0
   33.7623   -3.0811   -1.0119 H   0  0  0  0  0 15  0  0  0  0  0  0
   33.5473   -3.8789    0.5731 H   0  0  0  0  0 15  0  0  0  0  0  0
   35.0373   -4.1590   -0.3766 H   0  0  0  0  0 15  0  0  0  0  0  0
   35.4744   -0.8072   -1.3536 N   0  0  0  0  0 15  0  0  0  0  0  0
   36.4374   -0.2237   -2.2811 C   0  0  0  0  0 15  0  0  0  0  0  0
   37.4374    0.5894   -1.4961 C   0  0  0  0  0 15  0  0  0  0  0  0
   38.6274    0.4077   -1.6936 O   0  0  0  0  0 15  0  0  0  0  0  0
   35.7594    0.6881   -3.3388 C   0  0  0  0  0 15  0  0  0  0  0  0
   36.9524   -1.0417   -2.8123 H   0  0  0  0  0 15  0  0  0  0  0  0
   34.5054   -0.5779   -1.4522 H   0  0  0  0  0 15  0  0  0  0  0  0
   35.2404    1.5298   -2.8595 H   0  0  0  0  0 15  0  0  0  0  0  0
   35.0254    0.1069   -3.9195 H   0  0  0  0  0 15  0  0  0  0  0  0
   36.5154    1.0907   -4.0310 H   0  0  0  0  0 15  0  0  0  0  0  0
   36.9525    1.4729   -0.5608 N   0  0  0  0  0 15  0  0  0  0  0  0
   38.1825    2.0656   -0.0430 C   0  0  0  0  0 15  0  0  0  0  0  0
   38.5905    1.4134    1.2578 C   0  0  0  0  0 15  0  0  0  0  0  0
   37.9335    0.5052    1.7662 O   0  0  0  0  0 15  0  0  0  0  0  0
   37.9955    3.5883    0.2199 C   0  0  0  0  0 15  0  0  0  0  0  0
   37.6595    4.4610   -0.9919 C   0  0  0  0  0 15  0  0  0  0  0  0
   38.6565    4.8400   -1.8984 C   0  0  0  0  0 15  0  0  0  0  0  0
   36.3415    4.8757   -1.2076 C   0  0  0  0  0 15  0  0  0  0  0  0
   38.3355    5.6216   -3.0043 C   0  0  0  0  0 15  0  0  0  0  0  0
   36.0225    5.6549   -2.3165 C   0  0  0  0  0 15  0  0  0  0  0  0
   37.0205    6.0270   -3.2132 C   0  0  0  0  0 15  0  0  0  0  0  0
   36.7085    6.7905   -4.3028 O   0  0  0  0  0 15  0  0  0  0  0  0
   36.4405    0.6745   -0.0444 H   0  0  0  0  0 15  0  0  0  0  0  0
   38.9945    1.9023   -0.7748 H   0  0  0  0  0 15  0  0  0  0  0  0
   37.2245    3.7338    1.0061 H   0  0  0  0  0 15  0  0  0  0  0  0
   38.9135    4.0010    0.6835 H   0  0  0  0  0 15  0  0  0  0  0  0
   39.6795    4.5256   -1.7439 H   0  0  0  0  0 15  0  0  0  0  0  0
   35.5585    4.5807   -0.5189 H   0  0  0  0  0 15  0  0  0  0  0  0
   39.1025    5.9112   -3.7044 H   0  0  0  0  0 15  0  0  0  0  0  0
   34.9995    5.9634   -2.4708 H   0  0  0  0  0 15  0  0  0  0  0  0
   35.7675    6.9745   -4.2838 H   0  0  0  0  0 15  0  0  0  0  0  0
   38.4306    0.2974    1.5477 N   0  0  0  0  0 15  0  0  0  0  0  0
   39.3626   -0.6139    2.2083 C   0  0  0  0  0 15  0  0  0  0  0  0
   40.3756   -1.1003    1.1999 C   0  0  0  0  0 15  0  0  0  0  0  0
   41.5646   -1.0184    1.4660 O   0  0  0  0  0 15  0  0  0  0  0  0
   38.6646   -1.8520    2.8382 C   0  0  0  0  0 15  0  0  0  0  0  0
   37.8376   -1.5087    4.1056 C   0  0  0  0  0 15  0  0  0  0  0  0
   36.8966   -2.6015    4.5739 C   0  0  0  0  0 15  0  0  0  0  0  0
   35.9226   -2.2540    5.2267 O   0  0  0  0  0 15  0  0  0  0  0  0
   37.1246   -3.9063    4.2941 N   0  0  0  0  0 15  0  0  0  0  0  0
   39.8896   -0.0484    2.9966 H   0  0  0  0  0 15  0  0  0  0  0  0
   37.4506    0.1195    1.6146 H   0  0  0  0  0 15  0  0  0  0  0  0
   39.4426   -2.5765    3.1209 H   0  0  0  0  0 15  0  0  0  0  0  0
   38.0126   -2.3260    2.0885 H   0  0  0  0  0 15  0  0  0  0  0  0
   37.2326   -0.6169    3.8934 H   0  0  0  0  0 15  0  0  0  0  0  0
   38.5206   -1.2546    4.9309 H   0  0  0  0  0 15  0  0  0  0  0  0
   37.9186   -4.2168    3.7710 H   0  0  0  0  0 15  0  0  0  0  0  0
   36.4756   -4.5939    4.6239 H   0  0  0  0  0 15  0  0  0  0  0  0
   39.9087   -1.5758    0.0251 N   0  0  0  0  0 15  0  0  0  0  0  0
   40.8407   -2.0687   -0.9868 C   0  0  0  0  0 15  0  0  0  0  0  0
   41.8537   -0.9913   -1.2914 C   0  0  0  0  0 15  0  0  0  0  0  0
   43.0427   -1.2676   -1.2567 O   0  0  0  0  0 15  0  0  0  0  0  0
   40.1427   -2.4749   -2.3153 C   0  0  0  0  0 15  0  0  0  0  0  0
   39.3157   -3.7825   -2.1964 C   0  0  0  0  0 15  0  0  0  0  0  0
   38.3747   -4.0546   -3.3539 C   0  0  0  0  0 15  0  0  0  0  0  0
   37.4007   -4.7577   -3.1245 O   0  0  0  0  0 15  0  0  0  0  0  0
   38.6027   -3.5532   -4.5905 N   0  0  0  0  0 15  0  0  0  0  0  0
   41.3677   -2.9430   -0.5663 H   0  0  0  0  0 15  0  0  0  0  0  0
   38.9287   -1.6109   -0.1618 H   0  0  0  0  0 15  0  0  0  0  0  0
   40.9207   -2.6278   -3.0778 H   0  0  0  0  0 15  0  0  0  0  0  0
   39.4907   -1.6544   -2.6523 H   0  0  0  0  0 15  0  0  0  0  0  0
   38.7107   -3.7279   -1.2814 H   0  0  0  0  0 15  0  0  0  0  0  0
   39.9987   -4.6394   -2.0890 H   0  0  0  0  0 15  0  0  0  0  0  0
   39.3967   -2.9843   -4.8058 H   0  0  0  0  0 15  0  0  0  0  0  0
   37.9537   -3.7591   -5.3248 H   0  0  0  0  0 15  0  0  0  0  0  0
   41.3868    0.2480   -1.5564 N   0  0  0  0  0 15  0  0  0  0  0  0
   42.6168    0.9924   -1.8121 C   0  0  0  0  0 15  0  0  0  0  0  0
   43.0248    1.7949   -0.5983 C   0  0  0  0  0 15  0  0  0  0  0  0
   42.3678    1.7829    0.4424 O   0  0  0  0  0 15  0  0  0  0  0  0
   42.4298    1.9793   -3.0011 C   0  0  0  0  0 15  0  0  0  0  0  0
   42.0938    1.3638   -4.3618 C   0  0  0  0  0 15  0  0  0  0  0  0
   43.0908    0.7668   -5.1421 C   0  0  0  0  0 15  0  0  0  0  0  0
   40.7758    1.3835   -4.8287 C   0  0  0  0  0 15  0  0  0  0  0  0
   42.7698    0.1978   -6.3709 C   0  0  0  0  0 15  0  0  0  0  0  0
   40.4568    0.8106   -6.0570 C   0  0  0  0  0 15  0  0  0  0  0  0
   41.4548    0.2188   -6.8265 C   0  0  0  0  0 15  0  0  0  0  0  0
   41.1428   -0.3453   -8.0316 O   0  0  0  0  0 15  0  0  0  0  0  0
   40.8748    0.2977   -0.6069 H   0  0  0  0  0 15  0  0  0  0  0  0
   43.4288    0.2765   -2.0353 H   0  0  0  0  0 15  0  0  0  0  0  0
   41.6588    2.7334   -2.7354 H   0  0  0  0  0 15  0  0  0  0  0  0
   43.3478    2.5869   -3.1278 H   0  0  0  0  0 15  0  0  0  0  0  0
   44.1138    0.7441   -4.7926 H   0  0  0  0  0 15  0  0  0  0  0  0
   39.9928    1.8335   -4.2297 H   0  0  0  0  0 15  0  0  0  0  0  0
   43.5368   -0.2648   -6.9710 H   0  0  0  0  0 15  0  0  0  0  0  0
   39.4338    0.8306   -6.4013 H   0  0  0  0  0 15  0  0  0  0  0  0
   40.2018   -0.2371   -8.1816 H   0  0  0  0  0 15  0  0  0  0  0  0
   42.8649    1.4899    0.5136 N   0  0  0  0  0 15  0  0  0  0  0  0
   43.8119    1.6473    1.6166 C   0  0  0  0  0 15  0  0  0  0  0  0
   44.7819    0.4890    1.5874 C   0  0  0  0  0 15  0  0  0  0  0  0
   45.9669    0.7145    1.7692 O   0  0  0  0  0 15  0  0  0  0  0  0
   43.1069    1.7082    2.9986 C   0  0  0  0  0 15  0  0  0  0  0  0
   42.2199    2.9787    3.1289 C   0  0  0  0  0 15  0  0  0  0  0  0
   41.3549    2.9502    4.4174 C   0  0  0  0  0 15  0  0  0  0  0  0
   40.3939    4.1670    4.4836 C   0  0  0  0  0 15  0  0  0  0  0  0
   39.5309    4.1183    5.6863 N   0  0  0  0  0 15  0  0  0  0  0  0
   44.3709    2.5891    1.4755 H   0  0  0  0  0 15  0  0  0  0  0  0
   41.9079    1.2838    0.7181 H   0  0  0  0  0 15  0  0  0  0  0  0
   43.8659    1.7233    3.7994 H   0  0  0  0  0 15  0  0  0  0  0  0
   42.4959    0.8012    3.1270 H   0  0  0  0  0 15  0  0  0  0  0  0
   41.5479    3.0603    2.2594 H   0  0  0  0  0 15  0  0  0  0  0  0
   42.8599    3.8786    3.1363 H   0  0  0  0  0 15  0  0  0  0  0  0
   42.0139    2.9502    5.3014 H   0  0  0  0  0 15  0  0  0  0  0  0
   40.7529    2.0278    4.4354 H   0  0  0  0  0 15  0  0  0  0  0  0
   39.7579    4.1696    3.5837 H   0  0  0  0  0 15  0  0  0  0  0  0
   40.9829    5.1011    4.4829 H   0  0  0  0  0 15  0  0  0  0  0  0
   38.9289    3.2243    5.7129 H   0  0  0  0  0 15  0  0  0  0  0  0
   38.8459    4.9554    5.7094 H   0  0  0  0  0 15  0  0  0  0  0  0
   40.1139    4.1592    6.5927 H   0  0  0  0  0 15  0  0  0  0  0  0
   44.3430   -0.7638    1.3786 N   0  0  0  0  0 15  0  0  0  0  0  0
   45.7590   -1.0654    1.1883 C   0  0  0  0  0 15  0  0  0  0  0  0
   45.9590   -2.0148    0.0300 C   0  0  0  0  0 15  0  0  0  0  0  0
   45.0150   -2.4458   -0.6274 O   0  0  0  0  0 15  0  0  0  0  0  0
   46.3280   -1.6552    2.5104 C   0  0  0  0  0 15  0  0  0  0  0  0
   47.8760   -1.7774    2.5764 C   0  0  0  0  0 15  0  0  0  0  0  0
   48.3510   -2.4014    3.9000 C   0  0  0  0  0 15  0  0  0  0  0  0
   49.8420   -2.4758    3.9148 N   0  0  0  0  0 15  0  0  0  0  0  0
   50.5770   -2.9673    4.9065 C   0  0  0  0  0 15  0  0  0  0  0  0
   50.0730   -3.4599    6.0022 N   0  0  0  0  0 15  0  0  0  0  0  0
   51.8660   -2.9568    4.7805 N   0  0  0  0  0 15  0  0  0  0  0  0
   44.0170   -0.1336    2.1198 H   0  0  0  0  0 15  0  0  0  0  0  0
   46.2800   -0.1219    0.9401 H   0  0  0  0  0 15  0  0  0  0  0  0
   45.9860   -1.0324    3.3621 H   0  0  0  0  0 15  0  0  0  0  0  0
   45.8600   -2.6472    2.6871 H   0  0  0  0  0 15  0  0  0  0  0  0
   48.2470   -2.3916    1.7287 H   0  0  0  0  0 15  0  0  0  0  0  0
   48.3280   -0.7728    2.4385 H   0  0  0  0  0 15  0  0  0  0  0  0
   47.9720   -1.7936    4.7518 H   0  0  0  0  0 15  0  0  0  0  0  0
   47.9020   -3.4122    4.0109 H   0  0  0  0  0 15  0  0  0  0  0  0
   50.3930   -2.1273    3.1234 H   0  0  0  0  0 15  0  0  0  0  0  0
   50.7060   -3.8192    6.7183 H   0  0  0  0  0 15  0  0  0  0  0  0
   49.0510   -3.4408    6.0385 H   0  0  0  0  0 15  0  0  0  0  0  0
   52.2420   -2.5650    3.9157 H   0  0  0  0  0 15  0  0  0  0  0  0
   52.4150   -3.3367    5.5549 H   0  0  0  0  0 15  0  0  0  0  0  0
   45.8211   -1.2256   -0.9908 N   0  0  0  0  0 15  0  0  0  0  0  0
   47.2321   -1.0479   -1.5452 C   0  0  0  0  0 15  0  0  0  0  0  0
   47.5831    0.3880   -1.9233 C   0  0  0  0  0 15  0  0  0  0  0  0
   46.7081    1.2733   -1.7498 O   0  0  0  0  0 15  0  0  0  0  0  0
   47.3031   -1.8960   -2.8078 C   0  0  0  0  0 15  0  0  0  0  0  0
   45.8621   -1.7612   -3.3265 C   0  0  0  0  0 15  0  0  0  0  0  0
   45.0091   -1.8594   -2.0572 C   0  0  0  0  0 15  0  0  0  0  0  0
   47.9601   -1.3637   -0.8117 H   0  0  0  0  0 15  0  0  0  0  0  0
   47.9811   -1.4146   -3.5323 H   0  0  0  0  0 15  0  0  0  0  0  0
   47.4931   -2.9410   -2.5323 H   0  0  0  0  0 15  0  0  0  0  0  0
   45.5941   -0.7436   -3.6510 H   0  0  0  0  0 15  0  0  0  0  0  0
   45.7071   -2.5891   -4.0311 H   0  0  0  0  0 15  0  0  0  0  0  0
   44.0711   -1.2940   -2.1938 H   0  0  0  0  0 15  0  0  0  0  0  0
   44.8541   -2.9198   -1.8057 H   0  0  0  0  0 15  0  0  0  0  0  0
   47.2992    1.1880   -1.0356 N   0  0  0  0  0 15  0  0  0  0  0  0
   48.2472    2.2430   -0.6159 C   0  0  0  0  0 15  0  0  0  0  0  0
   49.2412    1.6564    0.3548 C   0  0  0  0  0 15  0  0  0  0  0  0
   50.4472    1.7862    0.2227 O   0  0  0  0  0 15  0  0  0  0  0  0
   46.8222    0.7299   -0.1809 H   0  0  0  0  0 15  0  0  0  0  0  0
   48.7932    2.5701   -1.5162 H   0  0  0  0  0 15  0  0  0  0  0  0
   47.5422    3.4770    0.0105 C   0  0  0  0  0 15  0  0  0  0  0  0
   46.8652    3.9313   -0.7275 H   0  0  0  0  0 15  0  0  0  0  0  0
   48.3052    4.2316    0.2670 H   0  0  0  0  0 15  0  0  0  0  0  0
   46.7642    3.1249    1.2590 C   0  0  0  0  0 15  0  0  0  0  0  0
   47.2942    3.2576    2.3504 O   0  0  0  0  0 15  0  0  0  0  0  0
   45.5002    2.6686    1.1504 N   0  0  0  0  0 15  0  0  0  0  0  0
   45.0472    2.5626    0.2623 H   0  0  0  0  0 15  0  0  0  0  0  0
   45.0052    2.4367    1.9867 H   0  0  0  0  0 15  0  0  0  0  0  0
   48.7773    0.8144    1.3493 N   0  0  0  0  0 15  0  0  0  0  0  0
   49.6873    0.2320    2.3345 C   0  0  0  0  0 15  0  0  0  0  0  0
   50.7033   -0.6291    1.6223 C   0  0  0  0  0 15  0  0  0  0  0  0
   51.8793   -0.5391    1.9405 O   0  0  0  0  0 15  0  0  0  0  0  0
   48.9443   -0.6035    3.4141 C   0  0  0  0  0 15  0  0  0  0  0  0
   48.0053    0.2790    4.2839 C   0  0  0  0  0 15  0  0  0  0  0  0
   47.2383   -0.5166    5.3119 C   0  0  0  0  0 15  0  0  0  0  0  0
   47.4613   -1.7507    5.4287 O   0  0  0  0  0 15  0  0  0  0  0  0
   46.3953    0.0966    6.0182 O   0  0  0  0  0 15  0  0  0  0  0  0
   50.2213    1.0472    2.8507 H   0  0  0  0  0 15  0  0  0  0  0  0
   47.8063    0.5763    1.3784 H   0  0  0  0  0 15  0  0  0  0  0  0
   49.6883   -1.0791    4.0735 H   0  0  0  0  0 15  0  0  0  0  0  0
   48.3633   -1.3962    2.9204 H   0  0  0  0  0 15  0  0  0  0  0  0
   47.2703    0.8019    3.6540 H   0  0  0  0  0 15  0  0  0  0  0  0
   48.6033    1.0359    4.8118 H   0  0  0  0  0 15  0  0  0  0  0  0
   50.2554   -1.4699    0.5686 N   0  0  0  0  0 15  0  0  0  0  0  0
   51.1854   -2.3295   -0.1608 C   0  0  0  0  0 15  0  0  0  0  0  0
   52.1664   -1.4449   -0.8976 C   0  0  0  0  0 15  0  0  0  0  0  0
   53.3514   -1.7333   -0.8759 O   0  0  0  0  0 15  0  0  0  0  0  0
   50.4814   -3.2649   -1.1840 C   0  0  0  0  0 15  0  0  0  0  0  0
   49.4354   -4.2428   -0.5629 C   0  0  0  0  0 15  0  0  0  0  0  0
   48.7614   -5.0724   -1.6916 C   0  0  0  0  0 15  0  0  0  0  0  0
   50.0614   -5.1999    0.4908 C   0  0  0  0  0 15  0  0  0  0  0  0
   51.7554   -2.9417    0.5569 H   0  0  0  0  0 15  0  0  0  0  0  0
   49.3014   -1.4146    0.2693 H   0  0  0  0  0 15  0  0  0  0  0  0
   51.2544   -3.8548   -1.7025 H   0  0  0  0  0 15  0  0  0  0  0  0
   49.9784   -2.6334   -1.9318 H   0  0  0  0  0 15  0  0  0  0  0  0
   48.6374   -3.6654   -0.0656 H   0  0  0  0  0 15  0  0  0  0  0  0
   48.2854   -4.4048   -2.4287 H   0  0  0  0  0 15  0  0  0  0  0  0
   47.9854   -5.7345   -1.2817 H   0  0  0  0  0 15  0  0  0  0  0  0
   49.5094   -5.6908   -2.2131 H   0  0  0  0  0 15  0  0  0  0  0  0
   50.9234   -5.7327    0.0579 H   0  0  0  0  0 15  0  0  0  0  0  0
   49.3204   -5.9447    0.8202 H   0  0  0  0  0 15  0  0  0  0  0  0
   50.3904   -4.6478    1.3824 H   0  0  0  0  0 15  0  0  0  0  0  0
   51.7335   -0.3056   -1.5461 N   0  0  0  0  0 15  0  0  0  0  0  0
   52.9815    0.3017   -1.9984 C   0  0  0  0  0 15  0  0  0  0  0  0
   53.3025    1.5405   -1.1955 C   0  0  0  0  0 15  0  0  0  0  0  0
   52.5725    1.9370   -0.2927 O   0  0  0  0  0 15  0  0  0  0  0  0
   51.1525    0.1145   -0.7382 H   0  0  0  0  0 15  0  0  0  0  0  0
   53.8145   -0.4180   -1.9036 H   0  0  0  0  0 15  0  0  0  0  0  0
   52.9105    0.5705   -3.0684 H   0  0  0  0  0 15  0  0  0  0  0  0
   53.2116    1.5756   -0.0334 N   0  0  0  0  0 15  0  0  0  0  0  0
   54.4596    1.9160    0.6430 C   0  0  0  0  0 15  0  0  0  0  0  0
   54.7806    0.9108    1.7242 C   0  0  0  0  0 15  0  0  0  0  0  0
   54.0506   -0.0470    1.9584 O   0  0  0  0  0 15  0  0  0  0  0  0
   52.6306    0.7072    0.2405 H   0  0  0  0  0 15  0  0  0  0  0  0
   55.2926    1.9473   -0.0822 H   0  0  0  0  0 15  0  0  0  0  0  0
   54.3886    2.9234    1.0930 H   0  0  0  0  0 15  0  0  0  0  0  0
   54.7286   -0.1081    1.6114 O   0  0  0  0  0 15  0  0  0  0  0  0
   55.4196   -0.7382    1.7908 H   0  0  0  0  0 15  0  0  0  0  0  0
M  END
$$$$
