drugbank_target|P83812 Lipid binding protein (DB03796)
 OpenBabel12092120283D

  0  0  0     0  0            999 V3000
M  V30 BEGIN CTAB
M  V30 COUNTS 4538 4584 0 0 0
M  V30 BEGIN ATOM
M  V30 1 H -0.908 1.98254 -0.117106 0
M  V30 2 N 0 1.576 0 0
M  V30 3 C 0.933 2.03868 1.02534 0
M  V30 4 C 1.911 0.928543 1.3348 0
M  V30 5 O 3.095 1.19667 1.45644 0
M  V30 6 C 0.222 2.43627 2.35294 0
M  V30 7 C -0.732 3.65373 2.2001 0
M  V30 8 S 0.101 5.13292 1.52614 0
M  V30 9 C 1.257 5.56322 2.86805 0
M  V30 10 H 1.49 2.90518 0.631377 0
M  V30 11 H -0.977 1.52953 0.210867 0
M  V30 12 H 0.981 2.67203 3.11629 0
M  V30 13 H -0.358 1.57376 2.7183 0
M  V30 14 H -1.165 3.90944 3.18086 0
M  V30 15 H -1.563 3.418 1.51819 0
M  V30 16 H 0.729 5.58782 3.83104 0
M  V30 17 H 1.672 6.56266 2.65933 0
M  V30 18 H 2.08 4.83886 2.90714 0
M  V30 19 N 1.4781 -0.272755 1.55222 0
M  V30 20 C 2.8891 -0.84378 1.66545 0
M  V30 21 C 3.2401 -1.87035 0.592641 0
M  V30 22 O 2.3651 -2.14761 -0.265818 0
M  V30 23 C 2.9601 -1.53723 3.01918 0
M  V30 24 C 1.5191 -2.05628 3.15268 0
M  V30 25 C 0.6661 -0.898424 2.62343 0
M  V30 26 H 3.6171 -0.0490998 1.58624 0
M  V30 27 H 3.6381 -2.40421 2.94921 0
M  V30 28 H 3.1501 -0.78983 3.79978 0
M  V30 29 H 1.2511 -2.83329 2.41983 0
M  V30 30 H 1.3641 -2.27142 4.21833 0
M  V30 31 H -0.2719 -1.29186 2.19506 0
M  V30 32 H 0.5111 -0.164528 3.42906 0
M  V30 33 N 2.9562 -1.48159 -0.537278 0
M  V30 34 C 4.2052 -1.5506 -1.28993 0
M  V30 35 C 4.5182 -0.226211 -1.94288 0
M  V30 36 O 5.7242 -0.173395 -2.70946 0
M  V30 37 C 4.1802 -2.73429 -2.34018 0
M  V30 38 C 3.7882 -4.1248 -1.74825 0
M  V30 39 C 5.5322 -2.89638 -3.10339 0
M  V30 40 C 3.4392 -5.22121 -2.77747 0
M  V30 41 H 2.3692 -0.577231 -0.485098 0
M  V30 42 H 5.0202 -1.74478 -0.568317 0
M  V30 43 H 3.4022 -2.47431 -3.09182 0
M  V30 44 H 4.5762 -4.48466 -1.05899 0
M  V30 45 H 2.8912 -4.01327 -1.11022 0
M  V30 46 H 5.4882 -3.68718 -3.87235 0
M  V30 47 H 5.8312 -1.9882 -3.65754 0
M  V30 48 H 6.3642 -3.15502 -2.42288 0
M  V30 49 H 3.1032 -6.1488 -2.27161 0
M  V30 50 H 2.6232 -4.90631 -3.45024 0
M  V30 51 H 4.3022 -5.49924 -3.4087 0
M  V30 52 N 4.4343 0.785586 -1.36625 0
M  V30 53 C 5.3443 1.92964 -1.33425 0
M  V30 54 C 6.3603 1.72394 -0.235851 0
M  V30 55 O 7.5363 1.95866 -0.468878 0
M  V30 56 C 4.6013 3.27884 -1.12662 0
M  V30 57 C 3.6623 3.61204 -2.32013 0
M  V30 58 C 2.8953 4.89687 -2.12231 0
M  V30 59 O 3.1183 5.59704 -1.09945 0
M  V30 60 O 2.0523 5.21752 -3.00098 0
M  V30 61 H 5.8783 1.98613 -2.29753 0
M  V30 62 H 3.4633 0.926384 -1.17211 0
M  V30 63 H 5.3453 4.08614 -1.03016 0
M  V30 64 H 4.0203 3.23118 -0.193991 0
M  V30 65 H 2.9273 2.80765 -2.47228 0
M  V30 66 H 4.2603 3.70698 -3.23796 0
M  V30 67 N 5.9124 1.20967 1.01018 0
M  V30 68 C 7.1614 1.01796 1.74128 0
M  V30 69 C 7.4744 -0.449691 1.90361 0
M  V30 70 O 8.6804 -0.76068 2.60626 0
M  V30 71 C 7.1364 1.7727 3.13215 0
M  V30 72 C 6.7444 3.28171 3.04972 0
M  V30 73 C 8.4884 1.66489 3.90489 0
M  V30 74 C 6.3954 3.96156 4.39107 0
M  V30 75 H 5.3254 0.377276 0.652824 0
M  V30 76 H 7.9764 1.44651 1.12909 0
M  V30 77 H 6.3584 1.27205 3.75013 0
M  V30 78 H 7.5324 3.85499 2.52443 0
M  V30 79 H 5.8474 3.39437 2.41188 0
M  V30 80 H 8.4444 2.14617 4.89738 0
M  V30 81 H 8.7874 0.6222 4.11624 0
M  V30 82 H 9.3204 2.14003 3.35332 0
M  V30 83 H 6.0594 5.00604 4.23174 0
M  V30 84 H 5.5794 3.43617 4.91617 0
M  V30 85 H 7.2584 4.00774 5.07926 0
M  V30 86 N 7.3905 -1.2043 1.01659 0
M  V30 87 C 8.6395 -1.89118 0.701237 0
M  V30 88 C 8.9525 -1.79705 -0.772358 0
M  V30 89 O 10.1585 -2.43528 -1.20026 0
M  V30 90 C 8.6145 -3.39168 1.20388 0
M  V30 91 C 8.2225 -3.57166 2.70438 0
M  V30 92 C 9.9665 -4.1341 0.963953 0
M  V30 93 C 7.8735 -5.01042 3.14183 0
M  V30 94 H 6.8035 -0.708267 0.2586 0
M  V30 95 H 9.4545 -1.36239 1.22927 0
M  V30 96 H 7.8365 -3.91369 0.603824 0
M  V30 97 H 9.0105 -3.15351 3.35992 0
M  V30 98 H 7.3255 -2.96294 2.92572 0
M  V30 99 H 9.9225 -5.19491 1.26621 0
M  V30 100 H 10.2655 -4.16181 -0.099578 0
M  V30 101 H 10.7985 -3.67309 1.52738 0
M  V30 102 H 7.5375 -5.03426 4.19812 0
M  V30 103 H 7.0575 -5.43668 2.53348 0
M  V30 104 H 8.7365 -5.69623 3.0682 0
M  V30 105 N 8.8686 -0.792821 -1.36206 0
M  V30 106 C 10.0966 -0.378825 -2.03402 0
M  V30 107 C 10.5116 1.00586 -1.59774 0
M  V30 108 O 9.8686 1.64574 -0.788764 0
M  V30 109 C 9.9196 -0.43683 -3.58851 0
M  V30 110 O 9.6406 -1.76691 -4.00889 0
M  V30 111 C 11.1416 -0.0138943 -4.43298 0
M  V30 112 H 8.3616 -0.155673 -0.652692 0
M  V30 113 H 10.9056 -1.07261 -1.74113 0
M  V30 114 H 9.0606 0.208575 -3.86838 0
M  V30 115 H 9.4746 -1.72011 -4.95492 0
M  V30 116 H 10.9486 -0.105615 -5.51899 0
M  V30 117 H 11.4256 1.03915 -4.2673 0
M  V30 118 H 12.0316 -0.63192 -4.20579 0
M  V30 119 N 10.3467 1.47872 -0.545128 0
M  V30 120 C 11.6237 1.9554 0.0485222 0
M  V30 121 C 12.0037 1.4876 1.49779 0
M  V30 122 O 11.3517 0.720925 2.16829 0
M  V30 123 C 11.5617 3.48898 -0.084417 0
M  V30 124 C 12.9097 4.24547 0.0671239 0
M  V30 125 O 13.9337 3.56198 -0.0113649 0
M  V30 126 O 12.7927 5.45999 0.233882 0
M  V30 127 H 9.8867 0.823957 0.0708773 0
M  V30 128 H 12.4327 1.58327 -0.610798 0
M  V30 129 H 11.2047 3.75714 -1.09337 0
M  V30 130 H 10.8277 3.92845 0.613066 0
M  V30 131 N 11.8248 0.280983 1.55075 0
M  V30 132 C 13.0498 -0.340154 2.04592 0
M  V30 133 C 13.4748 -1.48246 1.15779 0
M  V30 134 O 12.8328 -1.80614 0.15761 0
M  V30 135 C 12.8808 -0.793104 3.5177 0
M  V30 136 O 11.9848 -1.89981 3.66034 0
M  V30 137 H 11.3258 -0.0694289 0.66036 0
M  V30 138 H 13.8558 0.416993 2.00306 0
M  V30 139 H 13.8658 -1.08729 3.93245 0
M  V30 140 H 12.5408 0.0426163 4.15878 0
M  V30 141 H 11.1178 -1.60771 3.36463 0
M  V30 142 N 13.3029 -1.57598 0.00835791 0
M  V30 143 C 14.5509 -1.90551 -0.6734 0
M  V30 144 C 14.8719 -0.883301 -1.73847 0
M  V30 145 O 14.1419 0.0781442 -1.95744 0
M  V30 146 H 12.7219 -0.703312 -0.251717 0
M  V30 147 H 15.3839 -1.94833 0.0512592 0
M  V30 148 H 14.4799 -2.9056 -1.13935 0
M  V30 149 N 14.781 0.264519 -1.55364 0
M  V30 150 C 15.744 1.31046 -1.88042 0
M  V30 151 C 16.744 1.41943 -0.755569 0
M  V30 152 O 17.934 1.40947 -1.02369 0
M  V30 153 C 15.066 2.69067 -2.09323 0
M  V30 154 H 16.259 1.03297 -2.81549 0
M  V30 155 H 13.812 0.502989 -1.47986 0
M  V30 156 H 14.547 3.01982 -1.18226 0
M  V30 157 H 14.332 2.62542 -2.91229 0
M  V30 158 H 15.822 3.44623 -2.35848 0
M  V30 159 N 16.2591 1.48442 0.529413 0
M  V30 160 C 17.5361 1.46978 1.29062 0
M  V30 161 C 17.9161 0.181769 2.10316 0
M  V30 162 O 17.2641 -0.836481 2.12639 0
M  V30 163 C 17.4741 2.7321 2.17157 0
M  V30 164 C 18.8221 3.21562 2.77278 0
M  V30 165 O 19.8461 2.74131 2.27444 0
M  V30 166 O 18.7051 4.04094 3.67927 0
M  V30 167 H 15.7991 0.587003 0.582543 0
M  V30 168 H 18.3451 1.60676 0.546021 0
M  V30 169 H 17.1171 3.58465 1.56903 0
M  V30 170 H 16.7401 2.62235 2.98862 0
M  V30 171 N 17.7372 -0.778329 1.37039 0
M  V30 172 C 18.6672 -1.90546 1.34962 0
M  V30 173 C 19.6482 -1.68681 0.219274 0
M  V30 174 O 20.8332 -1.89634 0.418624 0
M  V30 175 C 17.9632 -3.27734 1.14925 0
M  V30 176 C 16.9172 -3.64147 2.24902 0
M  V30 177 C 16.2432 -4.99806 1.89996 0
M  V30 178 C 17.5432 -3.71579 3.67051 0
M  V30 179 H 19.2372 -1.92541 2.29277 0
M  V30 180 H 16.7832 -0.924948 1.10366 0
M  V30 181 H 18.7362 -4.06215 1.12104 0
M  V30 182 H 17.4602 -3.26154 0.170631 0
M  V30 183 H 16.1192 -2.8797 2.26868 0
M  V30 184 H 15.7672 -4.94759 0.906796 0
M  V30 185 H 15.4672 -5.25139 2.63634 0
M  V30 186 H 16.9912 -5.80694 1.88749 0
M  V30 187 H 18.4052 -4.40227 3.67251 0
M  V30 188 H 16.8022 -4.08405 4.39688 0
M  V30 189 H 17.8722 -2.72404 4.01154 0
M  V30 190 N 19.2153 -1.21501 -1.00376 0
M  V30 191 C 20.6263 -1.03146 -1.55621 0
M  V30 192 C 20.9773 0.408375 -1.91903 0
M  V30 193 O 20.1023 1.29177 -1.73616 0
M  V30 194 C 20.6973 -1.86612 -2.82775 0
M  V30 195 C 19.2563 -1.72586 -3.34501 0
M  V30 196 C 18.4033 -1.83747 -2.07683 0
M  V30 197 H 21.3543 -1.35505 -0.826081 0
M  V30 198 H 21.3753 -1.3771 -3.54706 0
M  V30 199 H 20.8873 -2.91399 -2.56336 0
M  V30 200 H 18.9883 -0.704877 -3.65872 0
M  V30 201 H 19.1013 -2.54623 -4.05837 0
M  V30 202 H 17.4653 -1.27069 -2.20739 0
M  V30 203 H 18.2483 -2.90044 -1.83655 0
M  V30 204 N 20.6934 1.19889 -1.02296 0
M  V30 205 C 21.6254 2.22334 -0.556787 0
M  V30 206 C 22.6384 1.58674 0.364199 0
M  V30 207 O 23.8274 1.77768 0.161533 0
M  V30 208 C 20.9274 3.38257 0.208694 0
M  V30 209 C 20.1004 4.31504 -0.71577 0
M  V30 210 C 19.1594 5.262 0.00325597 0
M  V30 211 O 18.1854 5.65798 -0.621357 0
M  V30 212 N 19.3874 5.66303 1.27599 0
M  V30 213 H 22.1524 2.62957 -1.43784 0
M  V30 214 H 19.7134 1.34495 -0.901261 0
M  V30 215 H 21.7054 3.98616 0.699111 0
M  V30 216 H 20.2754 2.96472 0.991102 0
M  V30 217 H 19.4954 3.69016 -1.38638 0
M  V30 218 H 20.7834 4.9072 -1.34428 0
M  V30 219 H 20.1814 5.36155 1.80429 0
M  V30 220 H 18.7384 6.28942 1.71102 0
M  V30 221 N 22.1715 0.800033 1.35784 0
M  V30 222 C 23.3965 0.388511 2.03729 0
M  V30 223 C 23.8215 -0.990481 1.5991 0
M  V30 224 O 23.1795 -1.64013 0.772612 0
M  V30 225 C 23.2275 0.4726 3.5749 0
M  V30 226 O 22.3315 -0.51646 4.09153 0
M  V30 227 H 21.6725 0.163271 0.643614 0
M  V30 228 H 24.2025 1.0841 1.73518 0
M  V30 229 H 24.2125 0.34003 4.06581 0
M  V30 230 H 22.8875 1.47848 3.88734 0
M  V30 231 H 21.4645 -0.344673 3.71304 0
M  V30 232 N 23.6496 -1.47581 0.552962 0
M  V30 233 C 24.8796 -2.06575 0.0320091 0
M  V30 234 C 25.2876 -1.4067 -1.26525 0
M  V30 235 O 24.6306 -0.495808 -1.76883 0
M  V30 236 C 24.6926 -3.58705 -0.238913 0
M  V30 237 C 24.3566 -4.46625 0.968272 0
M  V30 238 C 25.3536 -4.85 1.87274 0
M  V30 239 C 23.0386 -4.88201 1.18175 0
M  V30 240 C 25.0326 -5.63745 2.9744 0
M  V30 241 C 22.7196 -5.66712 2.28651 0
M  V30 242 C 23.7176 -6.04394 3.18114 0
M  V30 243 O 23.4056 -6.81324 4.26676 0
M  V30 244 H 23.1376 -0.674763 0.0408689 0
M  V30 245 H 25.6916 -1.90634 0.764719 0
M  V30 246 H 23.9216 -3.72844 -1.02588 0
M  V30 247 H 25.6106 -3.99735 -0.704731 0
M  V30 248 H 26.3766 -4.53482 1.71984 0
M  V30 249 H 22.2556 -4.58339 0.494593 0
M  V30 250 H 25.7996 -5.93077 3.67296 0
M  V30 251 H 21.6966 -5.97642 2.43915 0
M  V30 252 H 22.4646 -6.99712 4.24671 0
M  V30 253 N 25.1277 -0.289203 -1.54924 0
M  V30 254 C 26.3767 0.324231 -1.99077 0
M  V30 255 C 26.6897 1.5591 -1.18117 0
M  V30 256 O 27.8957 2.24637 -1.52481 0
M  V30 257 C 26.3517 0.628209 -3.54375 0
M  V30 258 C 25.9597 -0.587647 -4.44129 0
M  V30 259 C 27.7037 1.20349 -4.07083 0
M  V30 260 C 25.6107 -0.257475 -5.90839 0
M  V30 261 H 24.5407 0.124924 -0.743579 0
M  V30 262 H 27.1917 -0.396063 -1.79175 0
M  V30 263 H 25.5737 1.40778 -3.70132 0
M  V30 264 H 26.7477 -1.36418 -4.40144 0
M  V30 265 H 25.0627 -1.08074 -4.0213 0
M  V30 266 H 27.6597 1.46456 -5.14252 0
M  V30 267 H 28.0027 2.14195 -3.56968 0
M  V30 268 H 28.5357 0.485889 -3.94821 0
M  V30 269 H 25.2747 -1.16419 -6.45079 0
M  V30 270 H 24.7947 0.482018 -5.9786 0
M  V30 271 H 26.4737 0.145238 -6.46837 0
M  V30 272 N 26.6058 1.57591 -0.0167156 0
M  V30 273 C 28.0218 1.55946 0.339557 0
M  V30 274 C 28.2218 1.02109 1.73713 0
M  V30 275 O 27.2778 0.662303 2.43659 0
M  V30 276 C 28.5908 3.00037 0.199499 0
M  V30 277 C 30.1388 3.11805 0.273193 0
M  V30 278 C 30.6138 4.57713 0.162068 0
M  V30 279 N 32.1048 4.6268 0.219444 0
M  V30 280 C 32.8398 5.73185 0.157054 0
M  V30 281 N 32.3358 6.92786 0.0442936 0
M  V30 282 N 34.1288 5.61707 0.21014 0
M  V30 283 H 26.2798 1.90921 -0.930758 0
M  V30 284 H 28.5428 0.877674 -0.358319 0
M  V30 285 H 28.2488 3.4333 -0.76273 0
M  V30 286 H 28.1228 3.64387 0.974786 0
M  V30 287 H 30.5098 2.68433 1.22587 0
M  V30 288 H 30.5908 2.50201 -0.532256 0
M  V30 289 H 30.2348 5.01763 -0.78714 0
M  V30 290 H 30.1648 5.17283 0.986222 0
M  V30 291 H 32.6558 3.76649 0.307246 0
M  V30 292 H 32.9688 7.728 0.00304069 0
M  V30 293 H 31.3138 6.94999 0.00968457 0
M  V30 294 H 34.5048 4.6716 0.296546 0
M  V30 295 H 34.6778 6.47807 0.158054 0
M  V30 296 N 28.0839 -0.256276 1.55502 0
M  V30 297 C 28.9939 -1.33882 1.92647 0
M  V30 298 C 30.0099 -1.53159 0.825727 0
M  V30 299 O 31.1859 -1.66963 1.12629 0
M  V30 300 C 28.2509 -2.6751 2.20543 0
M  V30 301 C 27.3119 -2.56836 3.43997 0
M  V30 302 C 26.5449 -3.84092 3.70553 0
M  V30 303 O 26.7679 -4.85545 2.99336 0
M  V30 304 O 25.7019 -3.83288 4.64084 0
M  V30 305 H 29.5279 -1.05374 2.84833 0
M  V30 306 H 27.1129 -0.456237 1.42263 0
M  V30 307 H 28.9949 -3.46492 2.39835 0
M  V30 308 H 27.6699 -2.9577 1.31536 0
M  V30 309 H 26.5769 -1.76172 3.30021 0
M  V30 310 H 27.9099 -2.33523 4.33275 0
M  V30 311 N 29.562 -1.4872 -0.521534 0
M  V30 312 C 30.512 -1.60269 -1.62166 0
M  V30 313 C 31.496 -0.45935 -1.54204 0
M  V30 314 O 32.688 -0.711241 -1.62081 0
M  V30 315 C 29.817 -1.65344 -3.00859 0
M  V30 316 C 28.903 -2.85187 -3.13894 0
M  V30 317 N 29.294 -4.09509 -2.96877 0
M  V30 318 C 27.592 -2.82695 -3.44963 0
M  V30 319 C 28.293 -4.89959 -3.13552 0
M  V30 320 N 27.269 -4.22934 -3.41508 0
M  V30 321 H 31.071 -2.5413 -1.47632 0
M  V30 322 H 28.585 -1.45209 -0.727194 0
M  V30 323 H 30.582 -1.71713 -3.79895 0
M  V30 324 H 29.242 -0.726058 -3.16478 0
M  V30 325 H 30.253 -4.39814 -2.73467 0
M  V30 326 H 26.93 -1.99249 -3.66887 0
M  V30 327 H 28.32 -5.98654 -3.05061 0
M  V30 328 N 31.0401 0.771051 -1.3745 0
M  V30 329 C 32.4561 1.07171 -1.18265 0
M  V30 330 C 32.6561 2.01491 -0.019287 0
M  V30 331 O 31.7121 2.44244 0.640408 0
M  V30 332 C 33.0251 1.66854 -2.50161 0
M  V30 333 C 34.5731 1.79109 -2.56689 0
M  V30 334 C 35.0481 2.42205 -3.88717 0
M  V30 335 N 36.5391 2.49655 -3.90162 0
M  V30 336 C 37.2741 2.9933 -4.8907 0
M  V30 337 N 36.7701 3.49172 -5.98374 0
M  V30 338 N 38.5631 2.9821 -4.76474 0
M  V30 339 H 30.7141 0.144796 -2.11906 0
M  V30 340 H 32.9771 0.126863 -0.939473 0
M  V30 341 H 32.6831 1.05017 -3.35655 0
M  V30 342 H 32.5571 2.6614 -2.673 0
M  V30 343 H 34.9441 2.40077 -1.71601 0
M  V30 344 H 35.0251 0.785757 -2.43433 0
M  V30 345 H 34.6691 1.81875 -4.74219 0
M  V30 346 H 34.5991 3.43345 -3.99276 0
M  V30 347 H 37.0901 2.14383 -3.11205 0
M  V30 348 H 37.4031 3.8548 -6.69795 0
M  V30 349 H 35.7481 3.47275 -6.02018 0
M  V30 350 H 38.9391 2.58572 -3.90203 0
M  V30 351 H 39.1121 3.36613 -5.53711 0
M  V30 352 N 32.5182 1.22032 0.997298 0
M  V30 353 C 33.7672 1.03637 1.73038 0
M  V30 354 C 34.0802 -0.429475 1.90827 0
M  V30 355 O 35.2862 -0.732995 2.61418 0
M  V30 356 C 33.7422 1.80582 3.11317 0
M  V30 357 C 33.3502 3.31387 3.01474 0
M  V30 358 C 35.0942 1.70621 3.88701 0
M  V30 359 C 33.0012 4.00791 4.3488 0
M  V30 360 H 31.9312 0.384179 0.648785 0
M  V30 361 H 34.5822 1.4584 1.11368 0
M  V30 362 H 32.9642 1.31175 3.73643 0
M  V30 363 H 34.1382 3.88155 2.4834 0
M  V30 364 H 32.4532 3.41976 2.37575 0
M  V30 365 H 35.0502 2.19799 4.87434 0
M  V30 366 H 35.3932 0.665823 4.10941 0
M  V30 367 H 35.9262 2.17547 3.33044 0
M  V30 368 H 32.6652 5.05064 4.1784 0
M  V30 369 H 32.1852 3.48811 4.87945 0
M  V30 370 H 33.8642 4.06139 5.03647 0
M  V30 371 N 33.9963 -1.19345 1.0293 0
M  V30 372 C 34.9593 -2.20793 0.615069 0
M  V30 373 C 35.9593 -1.57553 -0.321533 0
M  V30 374 O 37.1493 -1.73862 -0.108483 0
M  V30 375 C 34.2813 -3.40754 -0.0999222 0
M  V30 376 H 35.4743 -2.58955 1.51269 0
M  V30 377 H 33.0273 -1.3303 0.820534 0
M  V30 378 H 33.7623 -3.0811 -1.01187 0
M  V30 379 H 33.5473 -3.87889 0.57309 0
M  V30 380 H 35.0373 -4.15898 -0.376645 0
M  V30 381 N 35.4744 -0.807222 -1.35358 0
M  V30 382 C 36.7214 -0.387888 -1.9875 0
M  V30 383 C 37.0494 1.04509 -1.64037 0
M  V30 384 O 36.3044 1.73986 -0.895946 0
M  V30 385 C 36.6034 -0.519036 -3.53611 0
M  V30 386 C 36.2694 -1.91542 -4.08194 0
M  V30 387 C 34.9314 -2.29745 -4.22813 0
M  V30 388 C 37.2834 -2.82896 -4.37744 0
M  V30 389 C 34.6114 -3.58668 -4.643 0
M  V30 390 C 36.9634 -4.11265 -4.8067 0
M  V30 391 C 35.6274 -4.49466 -4.93494 0
M  V30 392 H 34.8974 -0.141938 -0.727279 0
M  V30 393 H 37.5444 -1.02814 -1.6156 0
M  V30 394 H 35.8494 0.204658 -3.91265 0
M  V30 395 H 37.5464 -0.175345 -4.00616 0
M  V30 396 H 34.1364 -1.60862 -3.97268 0
M  V30 397 H 38.3204 -2.54629 -4.26002 0
M  V30 398 H 33.5764 -3.88113 -4.72418 0
M  V30 399 H 37.7504 -4.82153 -5.02496 0
M  V30 400 H 35.3774 -5.49418 -5.25399 0
M  V30 401 N 36.9525 1.47285 -0.560781 0
M  V30 402 C 37.8825 2.32857 0.173105 0
M  V30 403 C 38.8635 1.44009 0.905281 0
M  V30 404 O 40.0485 1.7286 0.885046 0
M  V30 405 C 37.1785 3.25861 1.20133 0
M  V30 406 C 36.1325 4.23978 0.585388 0
M  V30 407 C 35.4585 5.06332 1.7185 0
M  V30 408 C 36.7585 5.20242 -0.463178 0
M  V30 409 H 38.4525 2.94466 -0.541307 0
M  V30 410 H 35.9985 1.41601 -0.261764 0
M  V30 411 H 37.9515 3.84569 1.72293 0
M  V30 412 H 36.6755 2.62315 1.94573 0
M  V30 413 H 35.3345 3.66501 0.085054 0
M  V30 414 H 34.9825 4.39186 2.45203 0
M  V30 415 H 34.6825 5.72762 1.31213 0
M  V30 416 H 36.2065 5.67899 2.24329 0
M  V30 417 H 37.6205 5.73293 -0.027502 0
M  V30 418 H 36.0175 5.94896 -0.788627 0
M  V30 419 H 37.0875 4.65504 -1.35773 0
M  V30 420 N 38.4306 0.297415 1.54768 0
M  V30 421 C 39.8416 -0.195947 1.85669 0
M  V30 422 C 40.1926 -1.53707 1.21937 0
M  V30 423 O 39.3176 -2.10164 0.515754 0
M  V30 424 C 39.9126 -0.362318 3.36857 0
M  V30 425 C 38.4716 -0.799901 3.67802 0
M  V30 426 C 37.6186 0.0938578 2.77141 0
M  V30 427 H 40.5696 0.518538 1.4999 0
M  V30 428 H 40.5906 -1.19745 3.61167 0
M  V30 429 H 40.1026 0.613921 3.83214 0
M  V30 430 H 38.2036 -1.78682 3.26961 0
M  V30 431 H 38.3166 -0.621773 4.75048 0
M  V30 432 H 36.6806 -0.426254 2.51108 0
M  V30 433 H 37.4636 1.06639 3.26318 0
M  V30 434 N 39.9087 -1.5758 0.0250728 0
M  V30 435 C 40.8387 -2.13007 -0.956575 0
M  V30 436 C 41.8197 -1.0452 -1.342 0
M  V30 437 O 43.0047 -1.32332 -1.42133 0
M  V30 438 C 40.1347 -2.65386 -2.24026 0
M  V30 439 C 39.0887 -3.78623 -1.99571 0
M  V30 440 C 38.4147 -4.17414 -3.3417 0
M  V30 441 C 39.7147 -5.04867 -1.33814 0
M  V30 442 H 41.4087 -2.9528 -0.494991 0
M  V30 443 H 38.9547 -1.42042 -0.236651 0
M  V30 444 H 40.9077 -3.02794 -2.93076 0
M  V30 445 H 39.6317 -1.80268 -2.72343 0
M  V30 446 H 38.2907 -3.41646 -1.32941 0
M  V30 447 H 37.9387 -3.29284 -3.80238 0
M  V30 448 H 37.6387 -4.93719 -3.18615 0
M  V30 449 H 39.1627 -4.57402 -4.04495 0
M  V30 450 H 40.5767 -5.39888 -1.92857 0
M  V30 451 H 38.9737 -5.86144 -1.28669 0
M  V30 452 H 40.0437 -4.83904 -0.310561 0
M  V30 453 N 41.3868 0.248026 -1.55636 0
M  V30 454 C 42.6328 0.97767 -1.77678 0
M  V30 455 C 42.9658 1.85016 -0.590135 0
M  V30 456 O 42.2408 1.90095 0.411611 0
M  V30 457 C 42.5238 1.83914 -3.09593 0
M  V30 458 C 42.3768 0.99491 -4.38659 0
M  V30 459 C 43.6958 2.82183 -3.37729 0
M  V30 460 H 40.8148 0.354005 -0.646413 0
M  V30 461 H 43.4568 0.248253 -1.88371 0
M  V30 462 H 41.6068 2.46104 -3.00608 0
M  V30 463 H 43.2788 0.391789 -4.59633 0
M  V30 464 H 41.5218 0.299231 -4.32767 0
M  V30 465 H 42.1928 1.63145 -5.2734 0
M  V30 466 H 44.6688 2.30129 -3.4667 0
M  V30 467 H 43.5448 3.39582 -4.31249 0
M  V30 468 H 43.8058 3.58588 -2.58586 0
M  V30 469 N 42.8649 1.48995 0.513639 0
M  V30 470 C 44.1109 1.58076 1.27042 0
M  V30 471 C 44.4439 0.261026 1.92438 0
M  V30 472 O 43.7189 -0.734393 1.80103 0
M  V30 473 C 44.0019 2.73091 2.34719 0
M  V30 474 C 43.8549 4.14821 1.73907 0
M  V30 475 C 45.1739 2.83796 3.36375 0
M  V30 476 H 42.2929 0.575391 0.460536 0
M  V30 477 H 44.9349 1.81232 0.570516 0
M  V30 478 H 43.0849 2.53479 2.94416 0
M  V30 479 H 44.7569 4.45917 1.18135 0
M  V30 480 H 42.9999 4.21058 1.0437 0
M  V30 481 H 43.6709 4.91147 2.51949 0
M  V30 482 H 46.1469 3.01611 2.86653 0
M  V30 483 H 45.0229 3.65971 4.09093 0
M  V30 484 H 45.2839 1.92624 3.9793 0
M  V30 485 N 44.343 -0.763751 1.37857 0
M  V30 486 C 45.293 -1.86765 1.30777 0
M  V30 487 C 46.277 -1.59726 0.194015 0
M  V30 488 O 47.469 -1.7172 0.42911 0
M  V30 489 C 44.598 -3.24343 1.12502 0
M  V30 490 C 43.684 -3.57307 2.28456 0
M  V30 491 N 44.075 -3.61398 3.53871 0
M  V30 492 C 42.373 -3.87517 2.20786 0
M  V30 493 C 43.074 -3.91339 4.30382 0
M  V30 494 N 42.05 -4.07649 3.59615 0
M  V30 495 H 45.852 -1.88191 2.25746 0
M  V30 496 H 43.366 -0.9606 1.30944 0
M  V30 497 H 45.363 -4.03327 1.05514 0
M  V30 498 H 44.023 -3.24175 0.184574 0
M  V30 499 H 45.034 -3.43407 3.87675 0
M  V30 500 H 41.711 -3.95125 1.34844 0
M  V30 501 H 43.101 -4.01213 5.3896 0
M  V30 502 N 45.8211 -1.22559 -0.990812 0
M  V30 503 C 47.0671 -1.06303 -1.73411 0
M  V30 504 C 47.4221 0.397442 -1.8825 0
M  V30 505 O 46.7151 1.29062 -1.41611 0
M  V30 506 C 46.9091 -1.71011 -3.13831 0
M  V30 507 C 46.7381 -3.232 -3.12685 0
M  V30 508 C 45.5081 -3.92314 -3.18461 0
M  V30 509 C 47.7061 -4.20107 -2.96673 0
M  V30 510 N 45.6881 -5.31571 -3.07091 0
M  V30 511 C 47.0591 -5.46208 -2.93354 0
M  V30 512 C 49.1141 -4.10973 -2.8108 0
M  V30 513 C 47.8171 -6.64225 -2.76039 0
M  V30 514 C 49.8431 -5.28642 -2.65126 0
M  V30 515 C 49.2051 -6.53663 -2.62496 0
M  V30 516 H 45.3041 -0.443441 -0.644115 0
M  V30 517 H 47.8881 -1.55131 -1.17654 0
M  V30 518 H 46.0591 -1.2473 -3.67827 0
M  V30 519 H 47.7911 -1.47828 -3.76735 0
M  V30 520 H 44.5461 -3.43326 -3.26227 0
M  V30 521 H 44.9701 -6.0455 -3.0471 0
M  V30 522 H 49.6121 -3.15098 -2.8191 0
M  V30 523 H 47.3301 -7.60246 -2.73954 0
M  V30 524 H 50.9161 -5.23407 -2.54039 0
M  V30 525 H 49.7961 -7.43182 -2.50302 0
M  V30 526 N 47.2992 1.18797 -1.03562 0
M  V30 527 C 48.2472 2.24297 -0.615905 0
M  V30 528 C 49.2412 1.65643 0.354808 0
M  V30 529 O 50.4472 1.78618 0.22265 0
M  V30 530 H 46.8222 0.729909 -0.180934 0
M  V30 531 H 48.7932 2.5701 -1.5162 0
M  V30 532 C 47.5422 3.47698 0.0104735 0
M  V30 533 H 46.8652 3.93125 -0.727509 0
M  V30 534 H 48.3052 4.23159 0.266995 0
M  V30 535 C 46.7642 3.12489 1.25905 0
M  V30 536 O 47.2942 3.25761 2.35038 0
M  V30 537 N 45.5002 2.6686 1.15039 0
M  V30 538 H 45.0472 2.56261 0.262328 0
M  V30 539 H 45.0052 2.43674 1.98672 0
M  V30 540 N 48.7773 0.814389 1.34928 0
M  V30 541 C 50.0253 0.397636 1.9815 0
M  V30 542 C 50.3463 -1.04069 1.64908 0
M  V30 543 O 49.6163 -1.72121 0.93548 0
M  V30 544 H 48.1963 0.144043 0.732981 0
M  V30 545 H 50.8583 1.04195 1.6471 0
M  V30 546 H 49.9543 0.509688 3.0791 0
M  V30 547 N 50.2554 -1.46986 0.568584 0
M  V30 548 C 51.1874 -2.28233 -0.210337 0
M  V30 549 C 52.2004 -1.37682 -0.868767 0
M  V30 550 O 53.3894 -1.62406 -0.740705 0
M  V30 551 C 50.4894 -3.12293 -1.3163 0
M  V30 552 C 49.6624 -4.30878 -0.7525 0
M  V30 553 C 48.7214 -4.96445 -1.74439 0
M  V30 554 O 47.7474 -5.54482 -1.286 0
M  V30 555 N 48.9494 -4.92171 -3.07812 0
M  V30 556 H 51.7144 -2.95723 0.486648 0
M  V30 557 H 49.2754 -1.56742 0.405409 0
M  V30 558 H 51.2674 -3.53022 -1.97883 0
M  V30 559 H 49.8374 -2.46971 -1.91636 0
M  V30 560 H 49.0574 -3.94104 0.0871128 0
M  V30 561 H 50.3454 -5.07558 -0.35536 0
M  V30 562 H 49.7434 -4.46239 -3.47688 0
M  V30 563 H 48.3004 -5.36884 -3.69592 0
M  V30 564 N 51.7335 -0.305618 -1.54608 0
M  V30 565 C 53.0105 0.355652 -1.92339 0
M  V30 566 C 53.3905 1.71324 -1.23335 0
M  V30 567 O 52.7385 2.25473 -0.370702 0
M  V30 568 C 52.9485 0.46572 -3.45879 0
M  V30 569 C 54.2965 0.734426 -4.182 0
M  V30 570 O 55.3205 0.54935 -3.51938 0
M  V30 571 O 54.1795 1.09024 -5.35515 0
M  V30 572 H 51.2735 0.199666 -0.802535 0
M  V30 573 H 53.8195 -0.354017 -1.65966 0
M  V30 574 H 52.5915 -0.488461 -3.88239 0
M  V30 575 H 52.2145 1.22367 -3.78301 0
M  V30 576 N 53.2116 1.57565 -0.0334293 0
M  V30 577 C 54.4416 1.95996 0.653398 0
M  V30 578 C 54.8496 0.908749 1.65947 0
M  V30 579 O 54.1926 -0.117471 1.83324 0
M  V30 580 C 54.2546 3.30589 1.41249 0
M  V30 581 C 53.9186 4.53503 0.564263 0
M  V30 582 C 54.9156 5.19647 -0.16225 0
M  V30 583 C 52.6006 4.99801 0.500398 0
M  V30 584 C 54.5946 6.30412 -0.941255 0
M  V30 585 C 52.2816 6.10448 -0.282308 0
M  V30 586 C 53.2796 6.75612 -1.00184 0
M  V30 587 O 52.9676 7.84134 -1.77171 0
M  V30 588 H 52.6996 0.65027 0.184728 0
M  V30 589 H 55.2536 2.05199 -0.0907841 0
M  V30 590 H 53.4836 3.17888 2.20191 0
M  V30 591 H 55.1726 3.53892 1.98784 0
M  V30 592 H 55.9386 4.84846 -0.12227 0
M  V30 593 H 51.8176 4.48883 1.05002 0
M  V30 594 H 55.3616 6.81208 -1.50339 0
M  V30 595 H 51.2586 6.44686 -0.323989 0
M  V30 596 H 52.0266 8.00822 -1.69194 0
M  V30 597 N 54.6897 -0.239769 1.55765 0
M  V30 598 C 55.6367 -1.29696 1.90913 0
M  V30 599 C 56.6067 -1.47478 0.764164 0
M  V30 600 O 57.7917 -1.61345 1.01845 0
M  V30 601 C 54.9317 -2.64598 2.21544 0
M  V30 602 C 54.0447 -2.54765 3.48882 0
M  V30 603 C 53.1797 -3.82069 3.69049 0
M  V30 604 C 52.2187 -3.66883 4.89963 0
M  V30 605 N 51.3557 -4.86094 5.06614 0
M  V30 606 H 56.1957 -0.990224 2.81067 0
M  V30 607 H 53.7327 -0.477684 1.39128 0
M  V30 608 H 55.6907 -3.43132 2.3731 0
M  V30 609 H 54.3207 -2.93405 1.34585 0
M  V30 610 H 53.3727 -1.67763 3.41409 0
M  V30 611 H 54.6847 -2.39457 4.37563 0
M  V30 612 H 53.8387 -4.69046 3.84812 0
M  V30 613 H 52.5777 -4.00282 2.78614 0
M  V30 614 H 51.5827 -2.78289 4.74168 0
M  V30 615 H 52.8077 -3.50157 5.81865 0
M  V30 616 H 50.7537 -5.04655 4.19117 0
M  V30 617 H 50.6707 -4.73443 5.89396 0
M  V30 618 H 51.9387 -5.74549 5.26795 0
M  V30 619 N 56.1678 -1.49265 -0.50573 0
M  V30 620 C 57.4448 -1.49012 -1.26707 0
M  V30 621 C 57.8248 -0.215205 -2.1 0
M  V30 622 O 57.1728 0.802547 -2.13943 0
M  V30 623 C 57.3828 -2.7663 -2.12783 0
M  V30 624 C 58.7308 -3.25932 -2.72127 0
M  V30 625 O 59.7548 -2.77715 -2.23054 0
M  V30 626 O 58.6138 -4.09897 -3.61451 0
M  V30 627 H 55.7078 -0.596197 -0.57313 0
M  V30 628 H 58.2538 -1.61524 -0.52039 0
M  V30 629 H 57.0258 -3.60916 -1.5118 0
M  V30 630 H 56.6488 -2.66956 -2.94653 0
M  V30 631 N 57.6459 0.756429 -1.3826 0
M  V30 632 C 58.8939 1.51248 -1.34047 0
M  V30 633 C 59.2149 1.94875 0.0698372 0
M  V30 634 O 58.4849 1.67436 1.01696 0
M  V30 635 H 57.0649 0.561018 -0.493222 0
M  V30 636 H 59.7269 0.899347 -1.7291 0
M  V30 637 H 58.8229 2.40472 -1.98947 0
M  V30 638 N 59.124 1.23083 0.984299 0
M  V30 639 C 60.373 1.05466 1.71929 0
M  V30 640 C 60.686 -0.409211 1.91272 0
M  V30 641 O 61.892 -0.705226 2.62181 0
M  V30 642 C 60.348 1.83874 3.09384 0
M  V30 643 C 59.956 3.34566 2.97943 0
M  V30 644 C 61.7 1.74734 3.8687 0
M  V30 645 C 59.607 4.05381 4.30605 0
M  V30 646 H 58.537 0.391039 0.644674 0
M  V30 647 H 61.188 1.47013 1.09815 0
M  V30 648 H 59.57 1.35131 3.72231 0
M  V30 649 H 60.744 3.90767 2.44209 0
M  V30 650 H 59.059 3.44476 2.33934 0
M  V30 651 H 61.656 2.24957 4.85076 0
M  V30 652 H 61.999 0.709372 4.10212 0
M  V30 653 H 62.532 2.21067 3.30717 0
M  V30 654 H 59.271 5.09467 4.1246 0
M  V30 655 H 58.791 3.53967 4.84218 0
M  V30 656 H 60.47 4.11458 4.99311 0
M  V30 657 N 60.6021 -1.18246 1.0419 0
M  V30 658 C 61.8301 -1.92195 0.766072 0
M  V30 659 C 62.2451 -1.76247 -0.676933 0
M  V30 660 O 61.6021 -1.09293 -1.46155 0
M  V30 661 C 61.6531 -3.43568 1.12442 0
M  V30 662 O 61.3741 -3.59015 2.51078 0
M  V30 663 C 62.8751 -4.34613 0.873275 0
M  V30 664 H 60.0951 -0.610114 0.279288 0
M  V30 665 H 62.6391 -1.50007 1.38989 0
M  V30 666 H 60.7941 -3.8354 0.545542 0
M  V30 667 H 61.2081 -4.5273 2.64831 0
M  V30 668 H 62.6821 -5.39374 1.17385 0
M  V30 669 H 63.1591 -4.38781 -0.191909 0
M  V30 670 H 63.7651 -4.00341 1.43551 0
M  V30 671 N 62.0802 -0.821533 -1.34494 0
M  V30 672 C 63.3292 -0.405355 -1.97585 0
M  V30 673 C 63.6422 1.03677 -1.65863 0
M  V30 674 O 64.8482 1.55679 -2.22433 0
M  V30 675 C 63.3042 -0.673861 -3.53535 0
M  V30 676 C 62.9122 -2.12951 -3.94152 0
M  V30 677 C 64.6562 -0.32378 -4.23263 0
M  V30 678 C 62.5632 -2.34298 -5.43009 0
M  V30 679 H 61.4932 -0.147836 -0.739365 0
M  V30 680 H 64.1442 -1.00769 -1.53355 0
M  V30 681 H 62.5262 -0.00137554 -3.96 0
M  V30 682 H 63.7002 -2.84104 -3.62797 0
M  V30 683 H 62.0152 -2.44089 -3.37356 0
M  V30 684 H 64.6122 -0.461126 -5.32708 0
M  V30 685 H 64.9552 0.731586 -4.09821 0
M  V30 686 H 65.4882 -0.950786 -3.8627 0
M  V30 687 H 62.2272 -3.38335 -5.61435 0
M  V30 688 H 61.7472 -1.67687 -5.75883 0
M  V30 689 H 63.4262 -2.16588 -6.09671 0
M  V30 690 N 63.5583 1.46682 -0.576371 0
M  V30 691 C 64.4683 2.34032 0.163141 0
M  V30 692 C 65.4843 1.49367 0.892501 0
M  V30 693 O 66.6603 1.82252 0.857106 0
M  V30 694 C 63.7253 3.26435 1.16795 0
M  V30 695 C 62.7863 4.26998 0.443944 0
M  V30 696 C 62.0193 5.14986 1.40088 0
M  V30 697 O 62.2423 5.05785 2.637 0
M  V30 698 O 61.1763 5.94906 0.914917 0
M  V30 699 H 65.0023 2.98607 -0.55388 0
M  V30 700 H 62.5873 1.45554 -0.336821 0
M  V30 701 H 64.4693 3.83459 1.74748 0
M  V30 702 H 63.1443 2.64465 1.86655 0
M  V30 703 H 62.0513 3.7368 -0.177271 0
M  V30 704 H 63.3843 4.91736 -0.213566 0
M  V30 705 N 65.0364 0.313813 1.54444 0
M  V30 706 C 66.4474 -0.176243 1.85866 0
M  V30 707 C 66.7984 -1.52405 1.23561 0
M  V30 708 O 65.9234 -2.09605 0.538016 0
M  V30 709 C 66.5184 -0.32657 3.37222 0
M  V30 710 C 65.0774 -0.760846 3.6863 0
M  V30 711 C 64.2244 0.123247 2.77026 0
M  V30 712 H 67.1754 0.534418 1.49431 0
M  V30 713 H 67.1964 -1.15908 3.62416 0
M  V30 714 H 66.7084 0.654531 3.82541 0
M  V30 715 H 64.8094 -1.75204 3.28838 0
M  V30 716 H 64.9224 -0.571353 4.75681 0
M  V30 717 H 63.2864 -0.399597 2.51546 0
M  V30 718 H 64.0694 1.10094 3.25168 0
M  V30 719 N 66.5145 -1.57545 0.0417849 0
M  V30 720 C 67.4615 -2.10977 -0.935805 0
M  V30 721 C 68.4315 -1.01486 -1.31491 0
M  V30 722 O 69.6165 -1.2898 -1.40602 0
M  V30 723 C 66.7565 -2.65169 -2.2086 0
M  V30 724 C 65.8695 -3.88714 -1.88482 0
M  V30 725 C 65.0045 -4.31254 -3.1015 0
M  V30 726 C 64.0435 -5.47524 -2.7365 0
M  V30 727 N 63.1805 -5.85162 -3.87982 0
M  V30 728 H 68.0205 -2.94218 -0.473249 0
M  V30 729 H 65.5575 -1.45415 -0.221981 0
M  V30 730 H 67.5155 -2.94685 -2.95325 0
M  V30 731 H 66.1455 -1.8474 -2.64709 0
M  V30 732 H 65.1975 -3.65849 -1.04205 0
M  V30 733 H 66.5095 -4.73245 -1.57608 0
M  V30 734 H 65.6635 -4.62273 -3.92923 0
M  V30 735 H 64.4025 -3.45516 -3.44195 0
M  V30 736 H 63.4075 -5.16187 -1.89291 0
M  V30 737 H 64.6325 -6.34971 -2.40807 0
M  V30 738 H 62.5785 -5.02377 -4.21846 0
M  V30 739 H 62.4955 -6.64362 -3.60775 0
M  V30 740 H 63.7635 -6.20791 -4.71422 0
M  V30 741 N 67.9926 0.231505 -1.5589 0
M  V30 742 C 68.9246 1.31006 -1.8807 0
M  V30 743 C 69.9376 1.43539 -0.768145 0
M  V30 744 O 71.1266 1.44614 -1.04638 0
M  V30 745 C 68.2266 2.68688 -2.06543 0
M  V30 746 C 67.3996 2.78228 -3.37502 0
M  V30 747 C 66.4586 3.96857 -3.4553 0
M  V30 748 O 65.4846 3.85662 -4.18633 0
M  V30 749 N 66.6866 5.1072 -2.75944 0
M  V30 750 H 69.4516 1.03731 -2.81176 0
M  V30 751 H 67.0126 0.421573 -1.56315 0
M  V30 752 H 69.0046 3.46412 -2.09239 0
M  V30 753 H 67.5746 2.88605 -1.20109 0
M  V30 754 H 66.7946 1.87059 -3.46991 0
M  V30 755 H 68.0826 2.81564 -4.23791 0
M  V30 756 H 67.4806 5.2271 -2.16311 0
M  V30 757 H 66.0376 5.86523 -2.84314 0
M  V30 758 N 69.4707 1.49531 0.497807 0
M  V30 759 C 70.7167 1.59415 1.25358 0
M  V30 760 C 71.0497 0.281422 1.9215 0
M  V30 761 O 70.3247 -0.715249 1.80871 0
M  V30 762 C 70.6077 2.75566 2.3181 0
M  V30 763 C 70.4607 4.16642 1.69498 0
M  V30 764 C 71.7797 2.87347 3.33346 0
M  V30 765 H 68.8987 0.580244 0.454408 0
M  V30 766 H 71.5407 1.81827 0.551262 0
M  V30 767 H 69.6907 2.56587 2.91711 0
M  V30 768 H 71.3627 4.47145 1.13399 0
M  V30 769 H 69.6057 4.22141 0.998978 0
M  V30 770 H 70.2767 4.93792 2.46725 0
M  V30 771 H 72.7527 3.04634 2.83438 0
M  V30 772 H 71.6287 3.70289 4.05188 0
M  V30 773 H 71.8897 1.96834 3.95865 0
M  V30 774 N 70.9488 -0.749086 1.3866 0
M  V30 775 C 72.1788 -1.53611 1.38157 0
M  V30 776 C 72.5868 -1.89177 -0.0293595 0
M  V30 777 O 71.9298 -1.53606 -1.00752 0
M  V30 778 C 71.9918 -2.86087 2.17702 0
M  V30 779 C 71.6558 -2.73034 3.66472 0
M  V30 780 C 72.6528 -2.42526 4.59866 0
M  V30 781 C 70.3378 -2.90345 4.09884 0
M  V30 782 C 72.3318 -2.29492 5.94653 0
M  V30 783 C 70.0188 -2.7693 5.4475 0
M  V30 784 C 71.0168 -2.46547 6.36949 0
M  V30 785 O 70.7048 -2.33199 7.69333 0
M  V30 786 H 70.4368 -0.481773 0.474205 0
M  V30 787 H 72.9908 -0.934465 1.82912 0
M  V30 788 H 71.2208 -3.48458 1.67672 0
M  V30 789 H 72.9098 -3.47625 2.09551 0
M  V30 790 H 73.6758 -2.28816 4.27631 0
M  V30 791 H 69.5548 -3.1299 3.38464 0
M  V30 792 H 73.0988 -2.05698 6.66584 0
M  V30 793 H 68.9958 -2.90215 5.76581 0
M  V30 794 H 69.7638 -2.48376 7.79905 0
M  V30 795 N 72.4269 -1.23603 -0.977757 0
M  V30 796 C 73.7039 -0.977897 -1.69401 0
M  V30 797 C 74.0839 0.502738 -2.05026 0
M  V30 798 O 73.4319 1.47459 -1.74551 0
M  V30 799 C 73.6419 -1.89077 -2.93345 0
M  V30 800 C 74.9899 -2.15579 -3.65802 0
M  V30 801 O 76.0139 -1.86648 -3.03383 0
M  V30 802 O 74.8729 -2.64658 -4.78141 0
M  V30 803 H 71.9669 -0.369025 -0.740101 0
M  V30 804 H 74.5129 -1.34657 -1.03274 0
M  V30 805 H 73.2849 -2.89158 -2.63634 0
M  V30 806 H 72.9079 -1.52463 -3.67207 0
M  V30 807 N 73.905 1.17692 -1.04816 0
M  V30 808 C 74.868 2.19787 -0.650117 0
M  V30 809 C 75.868 1.58044 0.296427 0
M  V30 810 O 77.058 1.74012 0.0808097 0
M  V30 811 C 74.19 3.40869 0.0456987 0
M  V30 812 H 75.383 2.56516 -1.5537 0
M  V30 813 H 72.936 1.31708 -0.841594 0
M  V30 814 H 73.671 3.09681 0.962726 0
M  V30 815 H 73.456 3.86928 -0.634727 0
M  V30 816 H 74.946 4.16445 0.310432 0
M  V30 817 N 75.3831 0.828654 1.34056 0
M  V30 818 C 76.3161 0.199763 2.27324 0
M  V30 819 C 77.2941 -0.647168 1.49166 0
M  V30 820 O 78.4781 -0.609661 1.78369 0
M  V30 821 C 75.6051 -0.720455 3.30949 0
M  V30 822 C 74.6511 0.0496888 4.26471 0
M  V30 823 S 75.4841 1.40072 5.16856 0
M  V30 824 C 76.6401 0.485527 6.24014 0
M  V30 825 H 76.8731 0.990478 2.80316 0
M  V30 826 H 74.4061 0.624857 1.41191 0
M  V30 827 H 76.3641 -1.24581 3.91139 0
M  V30 828 H 75.0251 -1.48474 2.76793 0
M  V30 829 H 74.2181 -0.650104 4.9979 0
M  V30 830 H 73.8201 0.505779 3.70564 0
M  V30 831 H 76.1121 -0.320672 6.76741 0
M  V30 832 H 77.0551 1.18856 6.98054 0
M  V30 833 H 77.4631 0.0714109 5.64455 0
M  V30 834 N 76.8612 -1.46375 0.584142 0
M  V30 835 C 78.2772 -1.57694 0.245929 0
M  V30 836 C 78.4772 -1.57903 -1.25175 0
M  V30 837 O 77.5332 -1.49676 -2.03355 0
M  V30 838 C 78.8462 -2.87028 0.896402 0
M  V30 839 C 80.3942 -3.00662 0.870127 0
M  V30 840 C 80.8692 -4.32734 1.50017 0
M  V30 841 N 82.3602 -4.39436 1.46458 0
M  V30 842 C 83.0952 -5.40248 1.92144 0
M  V30 843 N 82.5912 -6.47726 2.4581 0
M  V30 844 N 84.3842 -5.31459 1.83052 0
M  V30 845 H 76.5352 -1.44483 1.55687 0
M  V30 846 H 78.7982 -0.689291 0.650831 0
M  V30 847 H 78.5042 -2.9269 1.95002 0
M  V30 848 H 78.3782 -3.75014 0.405486 0
M  V30 849 H 80.7652 -2.94581 -0.174871 0
M  V30 850 H 80.8462 -2.14148 1.39908 0
M  V30 851 H 80.4902 -4.39573 2.54437 0
M  V30 852 H 80.4202 -5.18025 0.946432 0
M  V30 853 H 82.9112 -3.62367 1.07231 0
M  V30 854 H 83.2242 -7.20863 2.78525 0
M  V30 855 H 81.5692 -6.48542 2.49836 0
M  V30 856 H 84.7602 -4.46396 1.40883 0
M  V30 857 H 84.9332 -6.09881 2.18973 0
M  V30 858 N 78.3393 -0.321999 -1.54275 0
M  V30 859 C 79.2713 0.578671 -2.21775 0
M  V30 860 C 80.2843 1.08109 -1.21722 0
M  V30 861 O 81.4733 0.994938 -1.482 0
M  V30 862 C 78.5733 1.80661 -2.86731 0
M  V30 863 C 77.7463 1.44314 -4.12907 0
M  V30 864 C 76.8053 2.52845 -4.61472 0
M  V30 865 O 75.8313 2.17054 -5.2619 0
M  V30 866 N 77.0333 3.83748 -4.35566 0
M  V30 867 H 79.7983 0.000709447 -2.997 0
M  V30 868 H 77.3593 -0.145132 -1.61248 0
M  V30 869 H 79.3513 2.52655 -3.16145 0
M  V30 870 H 77.9213 2.29245 -2.12521 0
M  V30 871 H 77.1413 0.554906 -3.90275 0
M  V30 872 H 78.4293 1.17598 -4.95023 0
M  V30 873 H 77.8273 4.15625 -3.83761 0
M  V30 874 H 76.3843 4.51977 -4.69638 0
M  V30 875 N 79.8174 1.5752 -0.0501392 0
M  V30 876 C 81.0654 1.9227 0.622642 0
M  V30 877 C 81.3864 0.929083 1.71444 0
M  V30 878 O 80.6564 -0.0262186 1.95882 0
M  V30 879 H 79.2364 0.709739 0.232981 0
M  V30 880 H 81.8984 1.94628 -0.102898 0
M  V30 881 H 80.9944 2.93479 1.06191 0
M  V30 882 N 81.2955 -0.223234 1.56011 0
M  V30 883 C 82.2455 -1.28008 1.88674 0
M  V30 884 C 83.2295 -1.42369 0.749663 0
M  V30 885 O 84.4215 -1.45212 1.01205 0
M  V30 886 C 81.5505 -2.63084 2.20548 0
M  V30 887 C 80.6365 -2.52632 3.40643 0
M  V30 888 N 81.0275 -2.11829 4.59306 0
M  V30 889 C 79.3255 -2.83594 3.44224 0
M  V30 890 C 80.0265 -2.12587 5.41463 0
M  V30 891 N 79.0025 -2.5301 4.81131 0
M  V30 892 H 82.8045 -0.955487 2.77935 0
M  V30 893 H 80.3185 -0.431801 1.56554 0
M  V30 894 H 82.3155 -3.39385 2.42122 0
M  V30 895 H 80.9755 -2.96391 1.32599 0
M  V30 896 H 81.9865 -1.82988 4.84496 0
M  V30 897 H 78.6635 -3.21284 2.66614 0
M  V30 898 H 80.0535 -1.83179 6.46448 0
M  V30 899 N 82.7736 -1.49793 -0.48987 0
M  V30 900 C 84.0016 -1.63568 -1.26701 0
M  V30 901 C 84.4166 -0.311465 -1.86213 0
M  V30 902 O 83.7736 0.704416 -1.68357 0
M  V30 903 C 83.8246 -2.71284 -2.38929 0
M  V30 904 O 83.5456 -3.9857 -1.81861 0
M  V30 905 C 85.0466 -2.95864 -3.3012 0
M  V30 906 H 82.2666 -0.550342 -0.383881 0
M  V30 907 H 84.8106 -1.95898 -0.586864 0
M  V30 908 H 82.9656 -2.417 -3.02753 0
M  V30 909 H 83.3796 -4.57993 -2.55622 0
M  V30 910 H 84.8536 -3.74941 -4.05121 0
M  V30 911 H 85.3306 -2.06206 -3.87783 0
M  V30 912 H 85.9366 -3.26907 -2.72051 0
M  V30 913 N 84.2517 0.741722 -1.39055 0
M  V30 914 C 85.4977 1.50336 -1.36113 0
M  V30 915 C 85.8307 1.94148 0.0450796 0
M  V30 916 O 85.1057 1.66301 1.00868 0
M  V30 917 C 85.3887 2.74773 -2.32749 0
M  V30 918 C 85.2417 2.37023 -3.82283 0
M  V30 919 C 86.5607 3.76846 -2.27322 0
M  V30 920 H 83.6797 0.545351 -0.495743 0
M  V30 921 H 86.3217 0.848624 -1.69995 0
M  V30 922 H 84.4717 3.30639 -2.03986 0
M  V30 923 H 86.1437 1.8684 -4.21768 0
M  V30 924 H 84.3867 1.69334 -3.99385 0
M  V30 925 H 85.0577 3.26104 -4.45376 0
M  V30 926 H 87.5337 3.30548 -2.5274 0
M  V30 927 H 86.4097 4.6159 -2.97028 0
M  V30 928 H 86.6707 4.23286 -1.27599 0
M  V30 929 N 85.7298 1.2412 0.971189 0
M  V30 930 C 86.6768 1.0305 2.06517 0
M  V30 931 C 87.6468 -0.0550666 1.66009 0
M  V30 932 O 88.8318 0.0988688 1.90544 0
M  V30 933 C 85.9718 0.637653 3.39158 0
M  V30 934 C 85.0848 1.79633 3.92882 0
M  V30 935 C 84.2198 1.34939 5.13775 0
M  V30 936 C 83.2588 2.47823 5.59687 0
M  V30 937 N 82.3958 2.04022 6.71803 0
M  V30 938 H 87.2358 1.96685 2.23873 0
M  V30 939 H 84.7728 0.979694 1.09729 0
M  V30 940 H 86.7308 0.390931 4.15364 0
M  V30 941 H 85.3608 -0.261693 3.21737 0
M  V30 942 H 84.4128 2.15681 3.13346 0
M  V30 943 H 85.7248 2.64466 4.22918 0
M  V30 944 H 84.8788 1.06134 5.97345 0
M  V30 945 H 83.6178 0.471557 4.85415 0
M  V30 946 H 82.6228 2.77392 4.74693 0
M  V30 947 H 83.8478 3.36158 5.90063 0
M  V30 948 H 81.7938 1.18632 6.45184 0
M  V30 949 H 81.7108 2.82409 7.01271 0
M  V30 950 H 82.9788 1.78347 7.58823 0
M  V30 951 N 87.2079 -1.17134 1.05439 0
M  V30 952 C 88.4359 -1.91372 0.786414 0
M  V30 953 C 88.8509 -1.76955 -0.658202 0
M  V30 954 O 88.2079 -1.10838 -1.44987 0
M  V30 955 C 88.2589 -3.42356 1.1608 0
M  V30 956 O 87.9799 -3.56332 2.54871 0
M  V30 957 C 89.4809 -4.33663 0.919322 0
M  V30 958 H 86.7009 -0.607118 0.285743 0
M  V30 959 H 89.2449 -1.48525 1.40572 0
M  V30 960 H 87.3999 -3.82939 0.586191 0
M  V30 961 H 87.8139 -4.49896 2.69618 0
M  V30 962 H 89.2879 -5.38099 1.231 0
M  V30 963 H 89.7649 -4.38959 -0.145359 0
M  V30 964 H 90.3709 -3.98796 1.47789 0
M  V30 965 N 88.686 -0.835752 -1.33615 0
M  V30 966 C 89.649 -0.272 -2.2758 0
M  V30 967 C 90.649 0.557487 -1.50827 0
M  V30 968 O 91.839 0.37173 -1.70188 0
M  V30 969 C 88.971 0.617173 -3.35267 0
M  V30 970 H 90.164 -1.10111 -2.78954 0
M  V30 971 H 87.717 -0.608594 -1.43965 0
M  V30 972 H 88.452 1.46884 -2.89129 0
M  V30 973 H 88.237 0.0237066 -3.92093 0
M  V30 974 H 89.727 1.005 -4.05326 0
M  V30 975 N 90.1641 1.46063 -0.591896 0
M  V30 976 C 91.0961 2.28539 0.174001 0
M  V30 977 C 92.1091 1.39047 0.846753 0
M  V30 978 O 93.2981 1.63564 0.714774 0
M  V30 979 C 90.3981 3.14347 1.26645 0
M  V30 980 C 89.5711 4.32021 0.683856 0
M  V30 981 C 88.6301 4.99157 1.66518 0
M  V30 982 O 87.6561 5.56458 1.19763 0
M  V30 983 N 88.8581 4.97005 2.99943 0
M  V30 984 H 91.6231 2.94911 -0.533633 0
M  V30 985 H 89.1841 1.56077 -0.430294 0
M  V30 986 H 91.1761 3.56125 1.92242 0
M  V30 987 H 89.7461 2.49988 1.87682 0
M  V30 988 H 88.9661 3.93915 -0.1498 0
M  V30 989 H 90.2541 5.08059 0.274567 0
M  V30 990 H 89.6521 4.51714 3.40545 0
M  V30 991 H 88.2091 5.42696 3.61004 0
M  V30 992 N 91.6422 0.330177 1.54103 0
M  V30 993 C 93.0532 -0.15652 1.86043 0
M  V30 994 C 93.4042 -1.51086 1.2517 0
M  V30 995 O 92.5292 -2.09023 0.560217 0
M  V30 996 C 93.1242 -0.290784 3.3755 0
M  V30 997 C 91.6832 -0.721705 3.69416 0
M  V30 998 C 90.8302 0.152622 2.7688 0
M  V30 999 H 93.7812 0.550237 1.48856 0
M  V30 1000 H 93.8022 -1.12058 3.63625 0
M  V30 1001 H 93.3142 0.695068 3.81825 0
M  V30 1002 H 91.4152 -1.71706 3.30678 0
M  V30 1003 H 91.5282 -0.520869 4.7626 0
M  V30 1004 H 89.8922 -0.372894 2.51956 0
M  V30 1005 H 90.6752 1.13536 3.23982 0
M  V30 1006 N 93.1203 -1.57491 0.0584922 0
M  V30 1007 C 94.3453 -1.97711 -0.62652 0
M  V30 1008 C 94.7703 -0.936132 -1.63151 0
M  V30 1009 O 94.1283 0.099811 -1.81025 0
M  V30 1010 C 94.1763 -3.36989 -1.28338 0
M  V30 1011 O 93.2803 -3.35433 -2.39913 0
M  V30 1012 H 92.6213 -0.643868 -0.162266 0
M  V30 1013 H 95.1513 -2.04193 0.129064 0
M  V30 1014 H 95.1613 -3.73879 -1.63335 0
M  V30 1015 H 93.8363 -4.12289 -0.546889 0
M  V30 1016 H 92.4133 -3.10298 -2.06809 0
M  V30 1017 N 94.5984 0.214957 -1.56127 0
M  V30 1018 C 96.0094 0.781386 -1.69562 0
M  V30 1019 C 96.3604 1.84707 -0.66165 0
M  V30 1020 O 95.4854 2.156 0.185927 0
M  V30 1021 C 96.0804 1.42411 -3.07416 0
M  V30 1022 C 94.6394 1.93786 -3.22683 0
M  V30 1023 C 93.7864 0.800438 -2.65496 0
M  V30 1024 H 96.7374 -0.00980633 -1.58697 0
M  V30 1025 H 96.7584 2.29309 -3.0364 0
M  V30 1026 H 96.2704 0.64826 -3.82648 0
M  V30 1027 H 94.3714 2.74152 -2.52332 0
M  V30 1028 H 94.4844 2.1133 -4.29973 0
M  V30 1029 H 92.8484 1.2095 -2.2415 0
M  V30 1030 H 93.6314 0.0371471 -3.4328 0
M  V30 1031 N 96.0765 1.50051 0.48192 0
M  V30 1032 C 97.0065 1.71046 1.58951 0
M  V30 1033 C 97.9875 0.559288 1.60642 0
M  V30 1034 O 99.1725 0.797243 1.77081 0
M  V30 1035 C 96.3025 1.79462 2.97339 0
M  V30 1036 C 95.2565 2.94558 3.10515 0
M  V30 1037 C 94.5825 2.88105 4.50444 0
M  V30 1038 C 95.8825 4.35227 2.88747 0
M  V30 1039 H 97.5765 2.6378 1.41635 0
M  V30 1040 H 95.1225 1.26936 0.679942 0
M  V30 1041 H 97.0755 1.92734 3.74742 0
M  V30 1042 H 95.7995 0.833412 3.15788 0
M  V30 1043 H 94.4585 2.80918 2.35543 0
M  V30 1044 H 94.1065 1.89853 4.65795 0
M  V30 1045 H 93.8065 3.65366 4.60197 0
M  V30 1046 H 95.3305 3.03412 5.29881 0
M  V30 1047 H 96.7445 4.49449 3.55905 0
M  V30 1048 H 95.1415 5.13856 3.09955 0
M  V30 1049 H 96.2115 4.48347 1.84696 0
M  V30 1050 N 97.5546 -0.734337 1.39446 0
M  V30 1051 C 98.5176 -1.83004 1.37994 0
M  V30 1052 C 99.5176 -1.58397 0.276938 0
M  V30 1053 O 100.708 -1.65785 0.534875 0
M  V30 1054 C 97.8396 -3.20802 1.1532 0
M  V30 1055 H 99.0326 -1.85694 2.35494 0
M  V30 1056 H 96.5856 -0.938059 1.25021 0
M  V30 1057 H 97.3206 -3.23772 0.185036 0
M  V30 1058 H 97.1056 -3.4006 1.95197 0
M  V30 1059 H 98.5956 -4.00862 1.17046 0
M  V30 1060 N 99.0327 -1.24633 -0.964593 0
M  V30 1061 C 99.9657 -0.984662 -2.05863 0
M  V30 1062 C 100.944 0.0826554 -1.6239 0
M  V30 1063 O 102.128 -0.0549296 -1.8842 0
M  V30 1064 C 99.2547 -0.486529 -3.35187 0
M  V30 1065 C 98.3007 -1.54286 -3.97615 0
M  V30 1066 S 99.1337 -3.12513 -4.34851 0
M  V30 1067 C 100.29 -2.6441 -5.67308 0
M  V30 1068 H 100.523 -1.91104 -2.27743 0
M  V30 1069 H 98.0557 -1.08052 -1.10291 0
M  V30 1070 H 100.014 -0.205757 -4.09984 0
M  V30 1071 H 98.6747 0.419186 -3.1129 0
M  V30 1072 H 97.8677 -1.14481 -4.90826 0
M  V30 1073 H 97.4697 -1.7738 -3.2926 0
M  V30 1074 H 99.7617 -2.07416 -6.44969 0
M  V30 1075 H 100.705 -3.56222 -6.11973 0
M  V30 1076 H 101.113 -2.04734 -5.26065 0
M  V30 1077 N 100.511 1.16574 -1.06058 0
M  V30 1078 C 101.458 2.20883 -0.669263 0
M  V30 1079 C 102.428 1.62729 0.332918 0
M  V30 1080 O 103.613 1.895 0.222346 0
M  V30 1081 C 100.753 3.45049 -0.0593572 0
M  V30 1082 C 99.8658 4.17458 -1.11143 0
M  V30 1083 C 99.0008 5.29135 -0.467916 0
M  V30 1084 C 98.0398 5.93343 -1.50369 0
M  V30 1085 N 97.1768 6.96516 -0.883706 0
M  V30 1086 H 102.017 2.53709 -1.5632 0
M  V30 1087 H 99.5538 1.24616 -0.781625 0
M  V30 1088 H 101.512 4.16033 0.311771 0
M  V30 1089 H 100.142 3.12781 0.797992 0
M  V30 1090 H 99.1938 3.45101 -1.60029 0
M  V30 1091 H 100.506 4.61307 -1.89731 0
M  V30 1092 H 99.6598 6.06684 -0.0436871 0
M  V30 1093 H 98.3988 4.86443 0.349864 0
M  V30 1094 H 97.4038 5.14517 -1.93784 0
M  V30 1095 H 98.6288 6.38114 -2.32352 0
M  V30 1096 H 96.5748 6.55943 -0.086595 0
M  V30 1097 H 96.4918 7.38723 -1.607 0
M  V30 1098 H 97.7598 7.77993 -0.484543 0
M  V30 1099 N 101.989 0.842826 1.3317 0
M  V30 1100 C 102.899 0.281444 2.32906 0
M  V30 1101 C 103.915 -0.594587 1.63526 0
M  V30 1102 O 105.091 -0.49777 1.95152 0
M  V30 1103 C 102.156 -0.530929 3.42611 0
M  V30 1104 C 101.217 0.369843 4.27704 0
M  V30 1105 C 100.45 -0.403853 5.3217 0
M  V30 1106 O 100.673 -1.63513 5.46461 0
M  V30 1107 O 99.6069 0.224199 6.01482 0
M  V30 1108 H 103.433 1.10744 2.82789 0
M  V30 1109 H 101.018 0.60545 1.36582 0
M  V30 1110 H 102.9 -0.992437 4.09547 0
M  V30 1111 H 101.575 -1.33392 2.94938 0
M  V30 1112 H 100.482 0.879275 3.6362 0
M  V30 1113 H 101.815 1.13771 4.78871 0
M  V30 1114 N 103.467 -1.45747 0.599634 0
M  V30 1115 C 104.397 -2.33235 -0.111306 0
M  V30 1116 C 105.378 -1.46359 -0.866781 0
M  V30 1117 O 106.563 -1.75146 -0.838904 0
M  V30 1118 C 103.693 -3.28932 -1.11451 0
M  V30 1119 C 102.647 -4.25381 -0.472772 0
M  V30 1120 C 101.973 -5.1071 -1.58365 0
M  V30 1121 C 103.273 -5.18831 0.600948 0
M  V30 1122 H 104.967 -2.92927 0.61919 0
M  V30 1123 H 102.513 -1.40857 0.299215 0
M  V30 1124 H 104.466 -3.89002 -1.62036 0
M  V30 1125 H 103.19 -2.67381 -1.8755 0
M  V30 1126 H 101.849 -3.66598 0.0121472 0
M  V30 1127 H 101.497 -4.45533 -2.33473 0
M  V30 1128 H 101.197 -5.7604 -1.15982 0
M  V30 1129 H 102.721 -5.73647 -2.09194 0
M  V30 1130 H 104.135 -5.73019 0.179491 0
M  V30 1131 H 102.532 -5.92595 0.946076 0
M  V30 1132 H 103.602 -4.6174 1.48068 0
M  V30 1133 N 104.945 -0.338344 -1.53925 0
M  V30 1134 C 106.192 0.259758 -2.00827 0
M  V30 1135 C 106.52 1.50973 -1.22628 0
M  V30 1136 O 105.775 1.93379 -0.300509 0
M  V30 1137 C 106.074 0.62448 -3.51902 0
M  V30 1138 C 105.74 -0.528006 -4.47798 0
M  V30 1139 C 104.402 -0.844298 -4.73735 0
M  V30 1140 C 106.754 -1.30143 -5.0469 0
M  V30 1141 C 104.082 -1.93648 -5.53821 0
M  V30 1142 C 106.434 -2.38382 -5.85967 0
M  V30 1143 C 105.098 -2.70576 -6.10201 0
M  V30 1144 H 104.368 0.0950523 -0.734878 0
M  V30 1145 H 107.015 -0.465182 -1.85764 0
M  V30 1146 H 105.32 1.43006 -3.64769 0
M  V30 1147 H 107.017 1.09905 -3.85645 0
M  V30 1148 H 103.607 -0.271421 -4.2774 0
M  V30 1149 H 107.791 -1.07033 -4.84621 0
M  V30 1150 H 103.047 -2.19021 -5.70824 0
M  V30 1151 H 107.221 -2.98746 -6.29066 0
M  V30 1152 H 104.848 -3.55333 -6.72044 0
M  V30 1153 N 106.423 1.57458 -0.0668435 0
M  V30 1154 C 107.353 2.15468 0.899764 0
M  V30 1155 C 108.334 1.08042 1.31381 0
M  V30 1156 O 109.519 1.36054 1.38574 0
M  V30 1157 C 106.649 2.71232 2.16911 0
M  V30 1158 C 105.603 3.83781 1.89463 0
M  V30 1159 C 104.929 4.26127 3.22986 0
M  V30 1160 C 106.229 5.08238 1.20381 0
M  V30 1161 H 107.923 2.96488 0.416529 0
M  V30 1162 H 105.469 1.4262 0.198908 0
M  V30 1163 H 107.422 3.10458 2.84945 0
M  V30 1164 H 106.146 1.87426 2.67468 0
M  V30 1165 H 104.805 3.45051 1.23836 0
M  V30 1166 H 104.453 3.39249 3.71374 0
M  V30 1167 H 104.153 5.01993 3.05413 0
M  V30 1168 H 105.677 4.67966 3.92225 0
M  V30 1169 H 107.091 5.44811 1.78475 0
M  V30 1170 H 105.488 5.89349 1.13083 0
M  V30 1171 H 106.558 4.84558 0.182153 0
M  V30 1172 N 107.901 -0.206675 1.56239 0
M  V30 1173 C 109.312 -0.772383 1.69974 0
M  V30 1174 C 109.663 -1.84353 0.671436 0
M  V30 1175 O 108.788 -2.15695 -0.174491 0
M  V30 1176 C 109.383 -1.40779 3.08167 0
M  V30 1177 C 107.942 -1.92072 3.23706 0
M  V30 1178 C 107.089 -0.786347 2.65917 0
M  V30 1179 H 110.04 0.0182223 1.5869 0
M  V30 1180 H 110.061 -2.27696 3.04852 0
M  V30 1181 H 109.573 -0.627958 3.82986 0
M  V30 1182 H 107.674 -2.7281 2.53782 0
M  V30 1183 H 107.787 -2.09046 4.31087 0
M  V30 1184 H 106.151 -1.1976 2.24788 0
M  V30 1185 H 106.934 -0.0189416 3.43295 0
M  V30 1186 N 109.379 -1.50304 -0.473955 0
M  V30 1187 C 110.609 -1.64663 -1.24778 0
M  V30 1188 C 111.017 -0.328174 -1.86332 0
M  V30 1189 O 110.36 0.699536 -1.69859 0
M  V30 1190 C 110.422 -2.6778 -2.39863 0
M  V30 1191 C 110.086 -4.11413 -1.98969 0
M  V30 1192 C 111.083 -4.97372 -1.51385 0
M  V30 1193 C 108.768 -4.57312 -2.07777 0
M  V30 1194 C 110.762 -6.27277 -1.13148 0
M  V30 1195 C 108.449 -5.87223 -1.69152 0
M  V30 1196 C 109.447 -6.72031 -1.21915 0
M  V30 1197 O 109.135 -7.99518 -0.838237 0
M  V30 1198 H 108.867 -0.556602 -0.383627 0
M  V30 1199 H 111.421 -1.9726 -0.572491 0
M  V30 1200 H 109.651 -2.30419 -3.10554 0
M  V30 1201 H 111.34 -2.71388 -3.01833 0
M  V30 1202 H 112.106 -4.63128 -1.44004 0
M  V30 1203 H 107.985 -3.91449 -2.43493 0
M  V30 1204 H 111.529 -6.93425 -0.762077 0
M  V30 1205 H 107.426 -6.20989 -1.76191 0
M  V30 1206 H 108.194 -8.12764 -0.967339 0
M  V30 1207 N 110.857 0.726932 -1.39834 0
M  V30 1208 C 111.82 1.82269 -1.38962 0
M  V30 1209 C 112.82 1.58248 -0.285334 0
M  V30 1210 O 114.01 1.65499 -0.54366 0
M  V30 1211 C 111.142 3.20186 -1.17019 0
M  V30 1212 H 112.335 1.84443 -2.36476 0
M  V30 1213 H 109.888 0.931416 -1.25516 0
M  V30 1214 H 110.623 3.23669 -0.202204 0
M  V30 1215 H 110.408 3.3902 -1.96998 0
M  V30 1216 H 111.898 4.00235 -1.1917 0
M  V30 1217 N 112.336 1.25143 0.95797 0
M  V30 1218 C 113.283 1.05235 2.05412 0
M  V30 1219 C 114.253 -0.0374561 1.66058 0
M  V30 1220 O 115.438 0.119073 1.90428 0
M  V30 1221 C 112.578 0.673589 3.38462 0
M  V30 1222 C 111.691 1.8379 3.90954 0
M  V30 1223 C 110.826 1.40381 5.12315 0
M  V30 1224 C 109.865 2.53746 5.57027 0
M  V30 1225 N 109.002 2.11136 6.69601 0
M  V30 1226 H 113.842 1.99048 2.21774 0
M  V30 1227 H 111.379 0.991277 1.08683 0
M  V30 1228 H 113.337 0.434964 4.14926 0
M  V30 1229 H 111.967 -0.227554 3.21997 0
M  V30 1230 H 111.019 2.18992 3.11041 0
M  V30 1231 H 112.331 2.68937 4.20089 0
M  V30 1232 H 111.485 1.12464 5.96185 0
M  V30 1233 H 110.224 0.523015 4.84887 0
M  V30 1234 H 109.229 2.82412 4.71724 0
M  V30 1235 H 110.454 3.42398 5.86464 0
M  V30 1236 H 108.4 1.25468 6.4389 0
M  V30 1237 H 108.317 2.89832 6.98236 0
M  V30 1238 H 109.585 1.86385 7.56889 0
M  V30 1239 N 113.814 -1.1601 1.06675 0
M  V30 1240 C 114.724 -2.24156 0.692179 0
M  V30 1241 C 115.74 -1.71507 -0.293513 0
M  V30 1242 O 116.916 -2.009 -0.141861 0
M  V30 1243 C 113.981 -3.46587 0.0884131 0
M  V30 1244 C 113.042 -4.14257 1.12646 0
M  V30 1245 C 112.275 -5.30844 0.551416 0
M  V30 1246 O 112.498 -5.66858 -0.634656 0
M  V30 1247 O 111.432 -5.87848 1.29298 0
M  V30 1248 H 115.258 -2.58513 1.59388 0
M  V30 1249 H 112.843 -1.23599 0.83926 0
M  V30 1250 H 114.725 -4.20679 -0.246361 0
M  V30 1251 H 113.4 -3.13994 -0.786712 0
M  V30 1252 H 112.307 -3.42118 1.51348 0
M  V30 1253 H 113.64 -4.50914 1.97325 0
M  V30 1254 N 115.292 -0.849877 -1.32721 0
M  V30 1255 C 116.24 -0.279745 -2.30912 0
M  V30 1256 C 117.234 0.594278 -1.58634 0
M  V30 1257 O 118.44 0.482613 -1.73409 0
M  V30 1258 H 114.815 -0.0717521 -0.748569 0
M  V30 1259 H 116.786 -1.12222 -2.76494 0
M  V30 1260 C 115.535 0.521108 -3.43773 0
M  V30 1261 H 114.858 -0.142141 -3.99547 0
M  V30 1262 H 116.298 0.885693 -4.14646 0
M  V30 1263 C 114.757 1.70442 -2.90605 0
M  V30 1264 O 115.287 2.8034 -2.87702 0
M  V30 1265 N 113.493 1.52991 -2.47067 0
M  V30 1266 H 113.04 0.635914 -2.49628 0
M  V30 1267 H 112.998 2.32311 -2.11847 0
M  V30 1268 N 116.77 1.45427 -0.607355 0
M  V30 1269 C 118.186 1.57283 -0.270985 0
M  V30 1270 C 118.386 1.59875 1.22647 0
M  V30 1271 O 117.442 1.52893 2.00948 0
M  V30 1272 C 118.755 2.85566 -0.941952 0
M  V30 1273 C 120.303 2.9924 -0.917849 0
M  V30 1274 C 120.778 4.30293 -1.56882 0
M  V30 1275 N 122.269 4.37051 -1.5343 0
M  V30 1276 C 123.004 5.37123 -2.00715 0
M  V30 1277 N 122.5 6.43734 -2.56084 0
M  V30 1278 N 124.293 5.28479 -1.91484 0
M  V30 1279 H 116.444 1.41988 -1.57966 0
M  V30 1280 H 118.707 0.67885 -0.661715 0
M  V30 1281 H 118.413 2.8955 -1.99633 0
M  V30 1282 H 118.287 3.74322 -0.465096 0
M  V30 1283 H 120.674 2.94822 0.127984 0
M  V30 1284 H 120.755 2.11895 -1.43297 0
M  V30 1285 H 120.399 4.35469 -2.61398 0
M  V30 1286 H 120.329 5.16454 -1.02873 0
M  V30 1287 H 122.82 3.60615 -1.12982 0
M  V30 1288 H 123.133 7.16341 -2.89958 0
M  V30 1289 H 121.478 6.44485 -2.60122 0
M  V30 1290 H 124.669 4.44098 -1.47967 0
M  V30 1291 H 124.842 6.0632 -2.28648 0
M  V30 1292 N 118.248 0.346503 1.53744 0
M  V30 1293 C 119.659 -0.136779 1.86198 0
M  V30 1294 C 120.01 -1.49749 1.26766 0
M  V30 1295 O 119.135 -2.08417 0.582355 0
M  V30 1296 C 119.73 -0.254966 3.37839 0
M  V30 1297 C 118.289 -0.682482 3.70161 0
M  V30 1298 C 117.436 0.181981 2.76702 0
M  V30 1299 H 120.387 0.565994 1.48264 0
M  V30 1300 H 120.408 -1.08195 3.64793 0
M  V30 1301 H 119.92 0.735526 3.81066 0
M  V30 1302 H 118.021 -1.68189 3.3248 0
M  V30 1303 H 118.134 -0.470326 4.76786 0
M  V30 1304 H 116.498 -0.34615 2.52337 0
M  V30 1305 H 117.281 1.16966 3.2276 0
M  V30 1306 N 119.726 -1.57421 0.075193 0
M  V30 1307 C 120.966 -1.95495 -0.596757 0
M  V30 1308 C 121.33 -0.954886 -1.66571 0
M  V30 1309 O 122.531 -1.22341 -2.39345 0
M  V30 1310 C 120.802 -3.382 -1.15566 0
M  V30 1311 S 122.361 -3.98254 -1.84226 0
M  V30 1312 H 119.179 -0.683649 -0.195307 0
M  V30 1313 H 121.781 -1.94925 0.149859 0
M  V30 1314 H 120.485 -4.08766 -0.36588 0
M  V30 1315 H 120.016 -3.42321 -1.93856 0
M  V30 1316 H 122.031 -3.85435 -3.12497 0
M  V30 1317 N 121.204 0.198386 -1.56346 0
M  V30 1318 C 122.134 1.24865 -1.9731 0
M  V30 1319 C 123.115 1.47651 -0.844576 0
M  V30 1320 O 124.3 1.59444 -1.10866 0
M  V30 1321 C 121.43 2.59358 -2.30977 0
M  V30 1322 C 120.384 2.5119 -3.46537 0
M  V30 1323 C 119.71 3.89926 -3.65871 0
M  V30 1324 C 121.01 2.03977 -4.80823 0
M  V30 1325 H 122.704 0.908252 -2.85291 0
M  V30 1326 H 120.25 0.435462 -1.37258 0
M  V30 1327 H 122.203 3.33011 -2.58228 0
M  V30 1328 H 120.927 2.95132 -1.39874 0
M  V30 1329 H 119.586 1.79993 -3.19371 0
M  V30 1330 H 119.234 4.23046 -2.72105 0
M  V30 1331 H 118.934 3.85336 -4.4361 0
M  V30 1332 H 120.458 4.65205 -3.95495 0
M  V30 1333 H 121.872 2.67386 -5.07127 0
M  V30 1334 H 120.269 2.10397 -5.62008 0
M  V30 1335 H 121.339 0.992861 -4.74626 0
M  V30 1336 N 122.682 1.50554 0.465978 0
M  V30 1337 C 123.912 1.65323 1.23903 0
M  V30 1338 C 124.32 0.338051 1.86155 0
M  V30 1339 O 123.663 -0.690518 1.70228 0
M  V30 1340 C 123.725 2.69048 2.3844 0
M  V30 1341 C 123.389 4.12462 1.96784 0
M  V30 1342 C 124.386 4.98168 1.48745 0
M  V30 1343 C 122.071 4.58407 2.05349 0
M  V30 1344 C 124.065 6.27868 1.0982 0
M  V30 1345 C 121.752 5.88112 1.66035 0
M  V30 1346 C 122.75 6.72668 1.18349 0
M  V30 1347 O 122.438 7.99951 0.795825 0
M  V30 1348 H 122.17 0.558629 0.38067 0
M  V30 1349 H 124.724 1.97561 0.562022 0
M  V30 1350 H 122.954 2.32062 3.09328 0
M  V30 1351 H 124.643 2.72985 3.0039 0
M  V30 1352 H 125.409 4.63885 1.41546 0
M  V30 1353 H 121.288 3.92735 2.41414 0
M  V30 1354 H 124.832 6.93819 0.725293 0
M  V30 1355 H 120.729 6.21914 1.72895 0
M  V30 1356 H 121.497 8.13265 0.924222 0
M  V30 1357 N 124.16 -0.719506 1.40217 0
M  V30 1358 C 125.409 -1.47486 1.37589 0
M  V30 1359 C 125.722 -1.9559 -0.0201568 0
M  V30 1360 O 126.928 -2.70973 -0.169049 0
M  V30 1361 C 125.384 -2.66575 2.41796 0
M  V30 1362 C 124.992 -2.25358 3.87192 0
M  V30 1363 C 126.736 -3.4433 2.48269 0
M  V30 1364 C 124.643 -3.41262 4.83005 0
M  V30 1365 H 123.573 -0.553901 0.511576 0
M  V30 1366 H 126.224 -0.783427 1.65936 0
M  V30 1367 H 124.606 -3.3787 2.06543 0
M  V30 1368 H 125.78 -1.61509 4.31569 0
M  V30 1369 H 124.095 -1.60657 3.84159 0
M  V30 1370 H 126.692 -4.30569 3.17041 0
M  V30 1371 H 127.035 -3.87872 1.51198 0
M  V30 1372 H 127.568 -2.80076 2.82493 0
M  V30 1373 H 124.307 -3.02755 5.81394 0
M  V30 1374 H 123.827 -4.0404 4.43297 0
M  V30 1375 H 125.506 -4.07383 5.02641 0
M  V30 1376 N 125.638 -1.25649 -0.95132 0
M  V30 1377 C 126.601 -1.06399 -2.03007 0
M  V30 1378 C 127.601 -0.0156794 -1.60792 0
M  V30 1379 O 128.791 -0.25817 -1.72276 0
M  V30 1380 C 125.923 -0.616184 -3.35285 0
M  V30 1381 H 127.116 -2.02164 -2.21517 0
M  V30 1382 H 124.669 -1.08103 -1.12887 0
M  V30 1383 H 125.404 0.343917 -3.22471 0
M  V30 1384 H 125.189 -1.37301 -3.67275 0
M  V30 1385 H 126.679 -0.503032 -4.14559 0
M  V30 1386 N 127.117 1.15442 -1.07289 0
M  V30 1387 C 128.364 1.86213 -0.795668 0
M  V30 1388 C 128.692 1.82291 0.678238 0
M  V30 1389 O 127.947 1.24057 1.51355 0
M  V30 1390 C 128.246 3.3489 -1.24834 0
M  V30 1391 C 127.912 3.59007 -2.72809 0
M  V30 1392 C 126.574 3.65298 -3.13227 0
M  V30 1393 C 128.926 3.68762 -3.68326 0
M  V30 1394 C 126.254 3.78854 -4.4798 0
M  V30 1395 C 128.606 3.83842 -5.0284 0
M  V30 1396 C 127.27 3.88378 -5.4288 0
M  V30 1397 H 126.54 0.681403 -0.291155 0
M  V30 1398 H 129.187 1.36435 -1.34379 0
M  V30 1399 H 127.492 3.8687 -0.619595 0
M  V30 1400 H 129.189 3.88052 -1.01076 0
M  V30 1401 H 125.779 3.5475 -2.40521 0
M  V30 1402 H 129.963 3.63202 -3.38227 0
M  V30 1403 H 125.219 3.80623 -4.78472 0
M  V30 1404 H 129.393 3.90332 -5.76727 0
M  V30 1405 H 127.02 3.98635 -6.47298 0
M  V30 1406 N 128.595 0.856903 1.32268 0
M  V30 1407 C 129.82 0.474569 2.01897 0
M  V30 1408 C 130.245 -0.921766 1.63967 0
M  V30 1409 O 129.603 -1.60589 0.84148 0
M  V30 1410 C 129.651 0.623799 3.55164 0
M  V30 1411 O 128.755 -0.342459 4.10976 0
M  V30 1412 H 128.096 0.190422 0.63611 0
M  V30 1413 H 130.626 1.15672 1.68764 0
M  V30 1414 H 130.636 0.512169 4.04773 0
M  V30 1415 H 129.311 1.64202 3.82113 0
M  V30 1416 H 127.888 -0.18688 3.72431 0
M  V30 1417 N 130.073 -1.45103 0.615059 0
M  V30 1418 C 131.298 -2.07064 0.117988 0
M  V30 1419 C 131.723 -1.4554 -1.19163 0
M  V30 1420 O 131.081 -0.550855 -1.72729 0
M  V30 1421 C 131.129 -3.606 -0.000288387 0
M  V30 1422 O 130.233 -3.98847 -1.04856 0
M  V30 1423 H 129.574 -0.659467 0.0774581 0
M  V30 1424 H 132.104 -1.86236 0.847186 0
M  V30 1425 H 132.114 -4.07529 -0.196091 0
M  V30 1426 H 130.789 -4.04765 0.955932 0
M  V30 1427 H 129.366 -3.63577 -0.828619 0
M  V30 1428 N 131.551 -0.354651 -1.53558 0
M  V30 1429 C 132.498 0.496968 -2.25386 0
M  V30 1430 C 133.468 1.0865 -1.25636 0
M  V30 1431 O 134.653 1.12104 -1.54394 0
M  V30 1432 C 131.793 1.63637 -3.03837 0
M  V30 1433 C 130.906 1.07307 -4.18461 0
M  V30 1434 C 130.041 2.18068 -4.84376 0
M  V30 1435 C 129.08 1.59147 -5.91049 0
M  V30 1436 N 128.217 2.63695 -6.50699 0
M  V30 1437 H 133.057 -0.122075 -2.9775 0
M  V30 1438 H 130.594 -0.0720154 -1.46924 0
M  V30 1439 H 132.552 2.30734 -3.47589 0
M  V30 1440 H 131.182 2.22623 -2.33749 0
M  V30 1441 H 130.234 0.292708 -3.79272 0
M  V30 1442 H 131.546 0.602193 -4.95152 0
M  V30 1443 H 130.7 2.93007 -5.31255 0
M  V30 1444 H 129.439 2.68504 -4.07133 0
M  V30 1445 H 128.444 0.827175 -5.43542 0
M  V30 1446 H 129.669 1.09549 -6.70206 0
M  V30 1447 H 127.615 3.13365 -5.76315 0
M  V30 1448 H 127.532 2.21263 -7.22896 0
M  V30 1449 H 128.8 3.3837 -7.02229 0
M  V30 1450 N 133.029 1.57378 -0.0835403 0
M  V30 1451 C 133.959 2.1641 0.87686 0
M  V30 1452 C 134.94 1.09429 1.30228 0
M  V30 1453 O 136.125 1.37516 1.37124 0
M  V30 1454 C 133.255 2.73517 2.14022 0
M  V30 1455 C 132.209 3.85769 1.85381 0
M  V30 1456 C 131.535 4.29529 3.18448 0
M  V30 1457 C 132.835 5.09486 1.14984 0
M  V30 1458 H 134.529 2.96914 0.385059 0
M  V30 1459 H 132.075 1.42823 0.18377 0
M  V30 1460 H 134.028 3.13463 2.81636 0
M  V30 1461 H 132.752 1.90252 2.65465 0
M  V30 1462 H 131.411 3.46345 1.20169 0
M  V30 1463 H 131.059 3.43169 3.67755 0
M  V30 1464 H 130.759 5.05204 3.00071 0
M  V30 1465 H 132.283 4.72099 3.8724 0
M  V30 1466 H 133.697 5.46674 1.72687 0
M  V30 1467 H 132.094 5.90515 1.06826 0
M  V30 1468 H 133.164 4.84724 0.130749 0
M  V30 1469 N 134.507 -0.190092 1.56449 0
M  V30 1470 C 135.732 -0.929864 1.85387 0
M  V30 1471 C 136.157 -1.7585 0.667704 0
M  V30 1472 O 135.515 -1.77198 -0.383459 0
M  V30 1473 C 135.563 -1.79773 3.12593 0
M  V30 1474 O 134.667 -2.89713 2.93496 0
M  V30 1475 H 134.008 -0.261574 0.610307 0
M  V30 1476 H 136.538 -0.193896 2.03679 0
M  V30 1477 H 136.548 -2.20139 3.43515 0
M  V30 1478 H 135.223 -1.18892 3.98544 0
M  V30 1479 H 133.8 -2.53065 2.73884 0
M  V30 1480 N 135.985 -1.50799 -0.457987 0
M  V30 1481 C 137.233 -1.62121 -1.2067 0
M  V30 1482 C 137.554 -0.329793 -1.92191 0
M  V30 1483 O 136.824 0.653409 -1.84682 0
M  V30 1484 H 135.404 -0.597441 -0.448411 0
M  V30 1485 H 138.066 -1.87637 -0.527096 0
M  V30 1486 H 137.162 -2.43882 -1.94751 0
M  V30 1487 N 137.463 0.71206 -1.40597 0
M  V30 1488 C 138.691 1.50111 -1.42388 0
M  V30 1489 C 139.106 1.88784 -0.0245395 0
M  V30 1490 O 138.463 1.55681 0.952351 0
M  V30 1491 C 138.514 2.7742 -2.31776 0
M  V30 1492 O 138.235 2.40382 -3.66262 0
M  V30 1493 C 139.736 3.7129 -2.42196 0
M  V30 1494 H 136.956 0.46314 -0.485533 0
M  V30 1495 H 139.5 0.878068 -1.8469 0
M  V30 1496 H 137.655 3.36001 -1.92827 0
M  V30 1497 H 138.069 3.22324 -4.13772 0
M  V30 1498 H 139.543 4.57448 -3.08943 0
M  V30 1499 H 140.02 4.14641 -1.44809 0
M  V30 1500 H 140.626 3.18619 -2.81712 0
M  V30 1501 N 138.941 1.26152 0.944643 0
M  V30 1502 C 140.171 1.14094 1.72239 0
M  V30 1503 C 140.579 -0.306931 1.86694 0
M  V30 1504 O 139.922 -1.22222 1.3714 0
M  V30 1505 C 139.984 1.73316 3.14963 0
M  V30 1506 C 139.648 3.2239 3.23904 0
M  V30 1507 C 140.645 4.19252 3.07447 0
M  V30 1508 C 138.33 3.62788 3.47405 0
M  V30 1509 C 140.324 5.54491 3.14353 0
M  V30 1510 C 138.011 4.98162 3.53947 0
M  V30 1511 C 139.009 5.93823 3.37436 0
M  V30 1512 O 138.697 7.26732 3.43679 0
M  V30 1513 H 138.429 0.398292 0.546205 0
M  V30 1514 H 140.983 1.67201 1.19301 0
M  V30 1515 H 139.213 1.14667 3.69308 0
M  V30 1516 H 140.902 1.56214 3.74636 0
M  V30 1517 H 141.668 3.8938 2.8915 0
M  V30 1518 H 137.547 2.88816 3.59313 0
M  V30 1519 H 141.091 6.29137 3.01384 0
M  V30 1520 H 136.988 5.27695 3.71763 0
M  V30 1521 H 137.756 7.3496 3.60245 0
M  V30 1522 N 140.419 -1.14872 1.07899 0
M  V30 1523 C 141.351 -2.19425 0.662231 0
M  V30 1524 C 142.364 -1.60231 -0.288079 0
M  V30 1525 O 143.553 -1.78336 -0.076534 0
M  V30 1526 C 140.653 -3.38867 -0.0470695 0
M  V30 1527 C 139.826 -4.27597 0.920831 0
M  V30 1528 C 138.885 -5.25616 0.247805 0
M  V30 1529 O 137.911 -5.62189 0.890599 0
M  V30 1530 N 139.113 -5.71746 -1.00435 0
M  V30 1531 H 141.878 -2.55797 1.56166 0
M  V30 1532 H 139.439 -1.30042 0.964404 0
M  V30 1533 H 141.431 -4.01497 -0.50813 0
M  V30 1534 H 140.001 -3.00864 -0.848523 0
M  V30 1535 H 139.221 -3.61982 1.56087 0
M  V30 1536 H 140.509 -4.83748 1.57688 0
M  V30 1537 H 139.907 -5.44153 -1.54642 0
M  V30 1538 H 138.464 -6.36389 -1.40899 0
M  V30 1539 N 141.898 -0.863906 -1.31812 0
M  V30 1540 C 143.126 -0.486111 -2.01108 0
M  V30 1541 C 143.541 0.919755 -1.64882 0
M  V30 1542 O 142.898 1.60162 -0.874893 0
M  V30 1543 C 142.949 -0.626435 -3.56031 0
M  V30 1544 O 142.67 -1.97693 -3.90959 0
M  V30 1545 C 144.171 -0.248857 -4.42601 0
M  V30 1546 H 141.391 -0.190052 -0.643523 0
M  V30 1547 H 143.935 -1.1634 -1.68182 0
M  V30 1548 H 142.09 0.00322717 -3.874 0
M  V30 1549 H 142.504 -1.98034 -4.85678 0
M  V30 1550 H 143.978 -0.398016 -5.50563 0
M  V30 1551 H 144.455 0.811489 -4.31638 0
M  V30 1552 H 145.061 -0.853971 -4.16638 0
M  V30 1553 N 143.376 1.44774 -0.622745 0
M  V30 1554 C 144.339 2.29069 0.0774015 0
M  V30 1555 C 145.339 1.4059 0.780461 0
M  V30 1556 O 146.529 1.62551 0.626322 0
M  V30 1557 C 143.661 3.21974 1.12006 0
M  V30 1558 H 144.854 2.92459 -0.663901 0
M  V30 1559 H 142.407 1.51548 -0.382486 0
M  V30 1560 H 143.142 2.63417 1.89162 0
M  V30 1561 H 142.927 3.87168 0.619951 0
M  V30 1562 H 144.417 3.85318 1.60995 0
M  V30 1563 N 144.854 0.36279 1.53368 0
M  V30 1564 C 145.787 -0.528507 2.21996 0
M  V30 1565 C 146.765 -1.0852 1.21087 0
M  V30 1566 O 147.949 -1.14186 1.4998 0
M  V30 1567 C 145.076 -1.72893 2.91249 0
M  V30 1568 C 144.122 -1.29994 4.06207 0
M  V30 1569 S 144.955 -0.303575 5.34639 0
M  V30 1570 C 146.111 -1.51039 6.07403 0
M  V30 1571 H 146.344 0.0543423 2.9725 0
M  V30 1572 H 143.877 0.146889 1.537 0
M  V30 1573 H 145.835 -2.41751 3.31763 0
M  V30 1574 H 144.496 -2.28303 2.15724 0
M  V30 1575 H 143.689 -2.19549 4.53667 0
M  V30 1576 H 143.291 -0.690608 3.67569 0
M  V30 1577 H 145.583 -2.44186 6.31965 0
M  V30 1578 H 146.526 -1.07721 6.99858 0
M  V30 1579 H 146.934 -1.71518 5.37812 0
M  V30 1580 N 146.332 -1.57332 0.0918853 0
M  V30 1581 C 147.295 -2.12708 -0.85369 0
M  V30 1582 C 148.295 -1.05561 -1.213 0
M  V30 1583 O 149.485 -1.31461 -1.14296 0
M  V30 1584 C 146.617 -2.64503 -2.15061 0
M  V30 1585 H 147.81 -2.97573 -0.3729 0
M  V30 1586 H 145.363 -1.55509 -0.157072 0
M  V30 1587 H 146.098 -1.83149 -2.67632 0
M  V30 1588 H 145.883 -3.4284 -1.90272 0
M  V30 1589 H 147.373 -3.07351 -2.82711 0
M  V30 1590 N 147.81 0.181792 -1.56548 0
M  V30 1591 C 149.056 0.901431 -1.81665 0
M  V30 1592 C 149.389 1.82347 -0.668075 0
M  V30 1593 O 148.664 1.91669 0.330615 0
M  V30 1594 C 148.947 1.70618 -3.17115 0
M  V30 1595 C 148.8 0.807964 -4.42484 0
M  V30 1596 C 150.119 2.67605 -3.49393 0
M  V30 1597 H 147.238 0.32627 -0.660846 0
M  V30 1598 H 149.88 0.168134 -1.89255 0
M  V30 1599 H 148.03 2.33133 -3.10775 0
M  V30 1600 H 149.702 0.19649 -4.60881 0
M  V30 1601 H 147.945 0.115411 -4.33646 0
M  V30 1602 H 148.616 1.40632 -5.33785 0
M  V30 1603 H 151.092 2.15218 -3.56118 0
M  V30 1604 H 149.968 3.20985 -4.45264 0
M  V30 1605 H 150.229 3.47298 -2.73563 0
M  V30 1606 N 149.288 1.51039 0.449983 0
M  V30 1607 C 150.704 1.38934 0.785462 0
M  V30 1608 C 150.904 0.461817 1.96136 0
M  V30 1609 O 149.96 -0.0877389 2.52348 0
M  V30 1610 C 151.273 2.80724 1.0777 0
M  V30 1611 C 152.821 2.89787 1.1829 0
M  V30 1612 C 153.296 4.32457 1.50815 0
M  V30 1613 N 154.787 4.35505 1.57764 0
M  V30 1614 C 155.522 5.42914 1.84477 0
M  V30 1615 N 155.018 6.60502 2.09068 0
M  V30 1616 N 156.811 5.3038 1.86155 0
M  V30 1617 H 148.962 2.09904 -0.324647 0
M  V30 1618 H 151.225 0.944378 -0.0827957 0
M  V30 1619 H 150.931 3.50531 0.286498 0
M  V30 1620 H 150.805 3.19273 2.00859 0
M  V30 1621 H 153.192 2.20186 1.96474 0
M  V30 1622 H 153.273 2.54752 0.231314 0
M  V30 1623 H 152.917 5.02603 0.731622 0
M  V30 1624 H 152.847 4.64995 2.47158 0
M  V30 1625 H 155.338 3.50724 1.40715 0
M  V30 1626 H 155.651 7.38158 2.28785 0
M  V30 1627 H 153.996 6.63639 2.06416 0
M  V30 1628 H 157.187 4.37505 1.66454 0
M  V30 1629 H 157.36 6.1417 2.06637 0
M  V30 1630 N 150.766 -0.704594 1.40972 0
M  V30 1631 C 151.991 -1.49858 1.43378 0
M  V30 1632 C 152.416 -1.88061 0.038184 0
M  V30 1633 O 151.774 -1.5402 -0.956425 0
M  V30 1634 C 151.822 -2.74333 2.34038 0
M  V30 1635 O 150.926 -3.7147 1.7912 0
M  V30 1636 H 150.267 -0.45139 0.486974 0
M  V30 1637 H 152.797 -0.866832 1.8533 0
M  V30 1638 H 152.807 -3.22741 2.49604 0
M  V30 1639 H 151.482 -2.45863 3.35446 0
M  V30 1640 H 150.059 -3.30363 1.72958 0
M  V30 1641 N 152.244 -1.26651 -0.937939 0
M  V30 1642 C 153.154 -1.10276 -2.07066 0
M  V30 1643 C 154.17 -0.0354197 -1.73964 0
M  V30 1644 O 155.346 -0.239816 -1.99967 0
M  V30 1645 C 152.411 -0.740887 -3.38691 0
M  V30 1646 C 151.472 -1.88799 -3.85556 0
M  V30 1647 C 150.705 -1.54329 -5.10899 0
M  V30 1648 O 150.928 -0.446494 -5.6865 0
M  V30 1649 O 149.862 -2.37911 -5.52885 0
M  V30 1650 H 153.688 -2.05309 -2.23789 0
M  V30 1651 H 151.273 -1.05743 -1.0554 0
M  V30 1652 H 153.155 -0.55195 -4.1777 0
M  V30 1653 H 151.83 0.180022 -3.23199 0
M  V30 1654 H 150.737 -2.13191 -3.07409 0
M  V30 1655 H 152.07 -2.78874 -4.05574 0
M  V30 1656 N 153.722 1.14298 -1.08507 0
M  V30 1657 C 154.652 2.21542 -0.737646 0
M  V30 1658 C 155.633 1.67773 0.280377 0
M  V30 1659 O 156.818 1.93616 0.150521 0
M  V30 1660 C 153.948 3.46988 -0.147259 0
M  V30 1661 C 152.902 4.13789 -1.09374 0
M  V30 1662 C 152.228 5.33449 -0.365524 0
M  V30 1663 C 153.528 4.62208 -2.4323 0
M  V30 1664 H 155.222 2.5086 -1.6343 0
M  V30 1665 H 152.768 1.20576 -0.787243 0
M  V30 1666 H 154.721 4.21262 0.107808 0
M  V30 1667 H 153.445 3.17037 0.784538 0
M  V30 1668 H 152.104 3.4147 -1.33393 0
M  V30 1669 H 151.752 4.99759 0.57011 0
M  V30 1670 H 151.452 5.79088 -0.996512 0
M  V30 1671 H 152.976 6.10485 -0.118534 0
M  V30 1672 H 154.39 5.27952 -2.23472 0
M  V30 1673 H 152.787 5.18553 -3.02031 0
M  V30 1674 H 153.857 3.77224 -3.04681 0
M  V30 1675 N 155.201 0.870884 1.31352 0
M  V30 1676 C 156.131 0.343096 2.30966 0
M  V30 1677 C 157.112 -0.566507 1.60389 0
M  V30 1678 O 158.297 -0.483336 1.88089 0
M  V30 1679 C 155.427 -0.455487 3.443 0
M  V30 1680 C 154.381 0.361103 4.26474 0
M  V30 1681 C 153.707 -0.563221 5.31725 0
M  V30 1682 C 155.007 1.59566 4.97329 0
M  V30 1683 H 156.701 1.17548 2.75359 0
M  V30 1684 H 154.247 0.566686 1.32381 0
M  V30 1685 H 156.2 -0.83525 4.13039 0
M  V30 1686 H 154.924 -1.32139 2.98675 0
M  V30 1687 H 153.583 0.722825 3.59403 0
M  V30 1688 H 153.231 -1.42643 4.82351 0
M  V30 1689 H 152.931 -0.0207409 5.87596 0
M  V30 1690 H 154.455 -0.939808 6.03324 0
M  V30 1691 H 155.869 1.28728 5.58661 0
M  V30 1692 H 154.266 2.07728 5.63 0
M  V30 1693 H 155.336 2.34798 4.24262 0
M  V30 1694 N 156.679 -1.44442 0.630414 0
M  V30 1695 C 157.956 -1.9549 0.0655657 0
M  V30 1696 C 158.336 -1.5724 -1.40851 0
M  V30 1697 O 157.684 -0.846116 -2.12257 0
M  V30 1698 C 157.894 -3.47812 0.287691 0
M  V30 1699 C 159.242 -4.24216 0.180513 0
M  V30 1700 O 160.266 -3.55526 0.219019 0
M  V30 1701 O 159.125 -5.46434 0.0848493 0
M  V30 1702 H 156.219 -0.826688 -0.0227177 0
M  V30 1703 H 158.765 -1.54496 0.702068 0
M  V30 1704 H 157.537 -3.687 1.31056 0
M  V30 1705 H 157.16 -3.95751 -0.382984 0
M  V30 1706 N 158.157 -0.370918 -1.53173 0
M  V30 1707 C 159.067 0.480823 -2.2962 0
M  V30 1708 C 160.083 1.08789 -1.35798 0
M  V30 1709 O 161.259 1.09768 -1.68858 0
M  V30 1710 C 158.324 1.60227 -3.07454 0
M  V30 1711 C 157.385 1.0222 -4.16953 0
M  V30 1712 C 156.618 2.0902 -4.91066 0
M  V30 1713 O 156.841 3.30222 -4.65091 0
M  V30 1714 O 155.775 1.71778 -5.76867 0
M  V30 1715 H 159.601 -0.141421 -3.03371 0
M  V30 1716 H 157.186 -0.135146 -1.48787 0
M  V30 1717 H 159.068 2.25417 -3.56041 0
M  V30 1718 H 157.743 2.20982 -2.36535 0
M  V30 1719 H 156.65 0.334064 -3.72605 0
M  V30 1720 H 157.983 0.459131 -4.90054 0
M  V30 1721 N 159.635 1.57281 -0.100228 0
M  V30 1722 C 160.865 1.98591 0.569681 0
M  V30 1723 C 161.273 0.978315 1.61943 0
M  V30 1724 O 160.616 -0.0396108 1.83657 0
M  V30 1725 C 160.678 3.36282 1.271 0
M  V30 1726 C 160.342 4.55488 0.371409 0
M  V30 1727 C 161.339 5.18491 -0.382504 0
M  V30 1728 C 159.024 5.01474 0.287965 0
M  V30 1729 C 161.018 6.25852 -1.20779 0
M  V30 1730 C 158.705 6.08701 -0.540965 0
M  V30 1731 C 159.703 6.70755 -1.28749 0
M  V30 1732 O 159.391 7.75914 -2.10269 0
M  V30 1733 H 159.123 0.65752 0.156982 0
M  V30 1734 H 161.677 2.0463 -0.177734 0
M  V30 1735 H 159.907 3.26941 2.0651 0
M  V30 1736 H 161.596 3.62005 1.83595 0
M  V30 1737 H 162.362 4.83891 -0.3278 0
M  V30 1738 H 158.241 4.52932 0.858689 0
M  V30 1739 H 161.785 6.74218 -1.79096 0
M  V30 1740 H 157.682 6.42732 -0.597131 0
M  V30 1741 H 158.45 7.92925 -2.03007 0
M  V30 1742 N 161.113 -0.173488 1.56642 0
M  V30 1743 C 162.524 -0.736155 1.71574 0
M  V30 1744 C 162.875 -1.82888 0.710389 0
M  V30 1745 O 162 -2.16017 -0.1287 0
M  V30 1746 C 162.595 -1.34211 3.11083 0
M  V30 1747 C 161.154 -1.85162 3.27707 0
M  V30 1748 C 160.301 -0.729765 2.67525 0
M  V30 1749 H 163.252 0.0518786 1.58615 0
M  V30 1750 H 163.273 -2.21178 3.09613 0
M  V30 1751 H 162.785 -0.546579 3.84232 0
M  V30 1752 H 160.886 -2.67366 2.59512 0
M  V30 1753 H 160.999 -1.99855 4.35425 0
M  V30 1754 H 159.363 -1.14965 2.27278 0
M  V30 1755 H 160.146 0.0538806 3.43258 0
M  V30 1756 N 162.591 -1.51276 -0.441967 0
M  V30 1757 C 163.501 -1.75092 -1.56141 0
M  V30 1758 C 164.517 -0.634963 -1.62001 0
M  V30 1759 O 165.693 -0.916686 -1.79329 0
M  V30 1760 C 162.758 -1.86666 -2.92158 0
M  V30 1761 C 161.819 -3.10506 -2.96453 0
M  V30 1762 C 161.052 -3.21519 -4.25982 0
M  V30 1763 O 161.275 -2.38586 -5.18105 0
M  V30 1764 O 160.209 -4.14465 -4.36466 0
M  V30 1765 H 164.035 -2.70044 -1.38961 0
M  V30 1766 H 161.62 -1.35722 -0.624499 0
M  V30 1767 H 163.502 -1.96292 -3.72891 0
M  V30 1768 H 162.177 -0.949014 -3.09476 0
M  V30 1769 H 161.084 -3.06363 -2.14692 0
M  V30 1770 H 162.417 -4.01945 -2.84079 0
M  V30 1771 N 164.069 0.697108 -1.41344 0
M  V30 1772 C 165.316 1.45714 -1.40619 0
M  V30 1773 C 165.644 1.94494 -0.0147907 0
M  V30 1774 O 164.899 1.69794 0.973066 0
M  V30 1775 C 165.198 2.68553 -2.35826 0
M  V30 1776 C 164.864 2.38438 -3.82698 0
M  V30 1777 C 163.526 2.29936 -4.22709 0
M  V30 1778 C 165.878 2.13567 -4.75435 0
M  V30 1779 C 163.206 1.94656 -5.53467 0
M  V30 1780 C 165.558 1.79797 -6.06511 0
M  V30 1781 C 164.222 1.69789 -6.45545 0
M  V30 1782 H 163.492 0.533206 -0.51456 0
M  V30 1783 H 166.139 0.796901 -1.74131 0
M  V30 1784 H 164.444 3.39503 -1.95563 0
M  V30 1785 H 166.141 3.2669 -2.32539 0
M  V30 1786 H 162.731 2.4595 -3.51008 0
M  V30 1787 H 166.915 2.19082 -4.45328 0
M  V30 1788 H 162.171 1.8546 -5.82593 0
M  V30 1789 H 166.345 1.59572 -6.77872 0
M  V30 1790 H 163.972 1.4222 -7.46778 0
M  V30 1791 N 165.547 1.27147 0.931209 0
M  V30 1792 C 166.963 1.04475 1.20653 0
M  V30 1793 C 167.163 -0.223885 2.00252 0
M  V30 1794 O 166.219 -0.930332 2.34736 0
M  V30 1795 C 167.532 2.28209 1.95809 0
M  V30 1796 C 169.08 2.33211 2.08762 0
M  V30 1797 C 169.555 3.56665 2.87323 0
M  V30 1798 N 171.046 3.57201 2.94892 0
M  V30 1799 C 171.781 4.49395 3.56134 0
M  V30 1800 N 171.277 5.51889 4.18796 0
M  V30 1801 N 173.07 4.37026 3.53504 0
M  V30 1802 H 165.221 2.08612 0.399333 0
M  V30 1803 H 167.484 0.917312 0.239253 0
M  V30 1804 H 167.19 3.20538 1.44736 0
M  V30 1805 H 167.064 2.33247 2.96438 0
M  V30 1806 H 169.451 1.41391 2.59023 0
M  V30 1807 H 169.532 2.32178 1.07364 0
M  V30 1808 H 169.176 4.4882 2.37746 0
M  V30 1809 H 169.106 3.54948 3.88998 0
M  V30 1810 H 171.597 2.83074 2.50354 0
M  V30 1811 H 171.91 6.18409 4.63454 0
M  V30 1812 H 170.255 5.55735 4.17353 0
M  V30 1813 H 173.446 3.56166 3.03749 0
M  V30 1814 H 173.619 5.09067 4.00942 0
M  V30 1815 N 167.025 -1.13721 1.09112 0
M  V30 1816 C 167.955 -2.21148 0.749385 0
M  V30 1817 C 168.936 -1.6792 -0.271475 0
M  V30 1818 O 170.121 -1.93693 -0.140251 0
M  V30 1819 C 167.251 -3.46905 0.165659 0
M  V30 1820 C 166.205 -4.13203 1.11567 0
M  V30 1821 C 165.531 -5.33248 0.393809 0
M  V30 1822 C 166.831 -4.60912 2.45678 0
M  V30 1823 H 168.525 -2.4999 1.64758 0
M  V30 1824 H 166.071 -1.20156 0.793626 0
M  V30 1825 H 168.024 -4.21313 -0.085466 0
M  V30 1826 H 166.748 -3.17449 -0.767714 0
M  V30 1827 H 165.407 -3.40758 1.35202 0
M  V30 1828 H 165.055 -5.00054 -0.543599 0
M  V30 1829 H 164.755 -5.78552 1.02721 0
M  V30 1830 H 166.279 -6.10413 0.150908 0
M  V30 1831 H 167.693 -5.26759 2.26269 0
M  V30 1832 H 166.09 -5.16944 3.04776 0
M  V30 1833 H 167.16 -3.75603 3.06677 0
M  V30 1834 N 168.503 -0.877838 -1.30888 0
M  V30 1835 C 169.731 -0.507414 -2.00581 0
M  V30 1836 C 170.146 0.902216 -1.65848 0
M  V30 1837 O 169.503 1.59225 -0.891831 0
M  V30 1838 C 169.554 -0.664162 -3.55347 0
M  V30 1839 O 169.275 -2.01829 -3.8884 0
M  V30 1840 C 170.776 -0.295787 -4.42312 0
M  V30 1841 H 167.996 -0.196866 -0.641471 0
M  V30 1842 H 170.54 -1.18117 -1.66939 0
M  V30 1843 H 168.695 -0.0378619 -3.87381 0
M  V30 1844 H 169.109 -2.03174 -4.8355 0
M  V30 1845 H 170.583 -0.456388 -5.5011 0
M  V30 1846 H 171.06 0.765663 -4.32475 0
M  V30 1847 H 171.666 -0.898113 -4.15709 0
M  V30 1848 N 169.982 1.44106 -0.638065 0
M  V30 1849 C 171.231 2.01194 -0.142744 0
M  V30 1850 C 171.544 1.50835 1.24532 0
M  V30 1851 O 172.75 2.00096 1.83504 0
M  V30 1852 C 171.206 3.59319 -0.20442 0
M  V30 1853 C 170.814 4.18674 -1.59423 0
M  V30 1854 C 172.558 4.23854 0.234079 0
M  V30 1855 C 170.465 5.69045 -1.61065 0
M  V30 1856 H 169.395 0.752367 -0.0495998 0
M  V30 1857 H 172.046 1.65246 -0.797881 0
M  V30 1858 H 170.428 3.92598 0.517946 0
M  V30 1859 H 171.602 3.96921 -2.34074 0
M  V30 1860 H 169.917 3.66453 -1.97741 0
M  V30 1861 H 172.514 5.34155 0.241443 0
M  V30 1862 H 172.857 3.96688 1.2627 0
M  V30 1863 H 173.39 3.95403 -0.436025 0
M  V30 1864 H 170.129 6.00956 -2.61787 0
M  V30 1865 H 169.649 5.929 -0.90718 0
M  V30 1866 H 171.328 6.32809 -1.34766 0
M  V30 1867 N 171.46 0.379036 1.52974 0
M  V30 1868 C 172.709 -0.207612 2.00629 0
M  V30 1869 C 173.022 -1.48758 1.27006 0
M  V30 1870 O 174.228 -2.15365 1.65318 0
M  V30 1871 C 172.684 -0.42053 3.57435 0
M  V30 1872 C 172.292 0.845587 4.39948 0
M  V30 1873 C 174.036 -0.964102 4.13407 0
M  V30 1874 C 171.943 0.601513 5.88333 0
M  V30 1875 H 170.873 -0.0813591 0.749598 0
M  V30 1876 H 173.524 0.499853 1.76561 0
M  V30 1877 H 171.906 -1.18959 3.7771 0
M  V30 1878 H 173.08 1.61848 4.31442 0
M  V30 1879 H 171.395 1.31336 3.95145 0
M  V30 1880 H 173.992 -1.16225 5.21916 0
M  V30 1881 H 174.335 -1.93019 3.68849 0
M  V30 1882 H 174.868 -0.25487 3.96983 0
M  V30 1883 H 171.607 1.53831 6.37194 0
M  V30 1884 H 171.127 -0.132628 5.99653 0
M  V30 1885 H 172.806 0.232134 6.46583 0
M  V30 1886 N 172.938 -1.57226 0.108567 0
M  V30 1887 C 174.215 -1.86333 -0.594939 0
M  V30 1888 C 174.595 -1.00788 -1.85486 0
M  V30 1889 O 173.943 -0.0839293 -2.28346 0
M  V30 1890 C 174.153 -3.37265 -0.897405 0
M  V30 1891 C 175.501 -4.05629 -1.25501 0
M  V30 1892 O 176.525 -3.42224 -0.987998 0
M  V30 1893 O 175.384 -5.17531 -1.75567 0
M  V30 1894 H 172.478 -0.771018 -0.2991 0
M  V30 1895 H 175.024 -1.69102 0.142283 0
M  V30 1896 H 173.796 -3.913 -0.00413806 0
M  V30 1897 H 173.419 -3.59889 -1.69014 0
M  V30 1898 N 174.416 0.165178 -1.56732 0
M  V30 1899 C 175.641 0.900253 -1.86843 0
M  V30 1900 C 176.066 1.74766 -0.695596 0
M  V30 1901 O 175.424 1.77786 0.35522 0
M  V30 1902 C 175.472 1.74777 -3.15413 0
M  V30 1903 O 174.576 2.85007 -2.98068 0
M  V30 1904 H 173.917 0.251832 -0.614391 0
M  V30 1905 H 176.447 0.161468 -2.03962 0
M  V30 1906 H 176.457 2.14646 -3.46974 0
M  V30 1907 H 175.132 1.12537 -4.00385 0
M  V30 1908 H 173.709 2.48676 -2.77875 0
M  V30 1909 N 175.894 1.51508 0.433938 0
M  V30 1910 C 176.841 1.73068 1.52696 0
M  V30 1911 C 177.811 0.572441 1.55924 0
M  V30 1912 O 178.996 0.807253 1.72882 0
M  V30 1913 C 176.136 1.86474 2.90381 0
M  V30 1914 C 175.249 3.14037 2.96656 0
M  V30 1915 C 174.384 3.18019 4.25485 0
M  V30 1916 C 173.423 4.39882 4.2564 0
M  V30 1917 N 172.56 4.41394 5.45999 0
M  V30 1918 H 177.4 2.66366 1.33615 0
M  V30 1919 H 174.937 1.32008 0.649018 0
M  V30 1920 H 176.895 1.92229 3.70275 0
M  V30 1921 H 175.525 0.965809 3.08013 0
M  V30 1922 H 174.577 3.17575 2.09404 0
M  V30 1923 H 175.889 4.0394 2.92633 0
M  V30 1924 H 175.043 3.22708 5.13755 0
M  V30 1925 H 173.782 2.2601 4.3217 0
M  V30 1926 H 172.787 4.35366 3.35763 0
M  V30 1927 H 174.012 5.33159 4.20617 0
M  V30 1928 H 171.958 3.52258 5.53399 0
M  V30 1929 H 171.875 5.25111 5.4387 0
M  V30 1930 H 173.143 4.50281 6.36292 0
M  V30 1931 N 177.372 -0.689602 1.41712 0
M  V30 1932 C 178.612 -1.46184 1.42862 0
M  V30 1933 C 178.976 -1.91962 0.0382204 0
M  V30 1934 O 180.177 -2.68694 -0.0755019 0
M  V30 1935 C 178.448 -2.6371 2.4123 0
M  V30 1936 S 180.007 -3.52768 2.6096 0
M  V30 1937 H 176.825 -0.49947 0.506015 0
M  V30 1938 H 179.427 -0.804107 1.78198 0
M  V30 1939 H 178.131 -2.28293 3.41044 0
M  V30 1940 H 177.662 -3.3437 2.07269 0
M  V30 1941 H 179.677 -4.59146 1.88148 0
M  V30 1942 N 178.85 -1.27639 -0.924453 0
M  V30 1943 C 179.813 -1.10681 -2.00705 0
M  V30 1944 C 180.813 -0.0497823 -1.60723 0
M  V30 1945 O 182.003 -0.294654 -1.7169 0
M  V30 1946 C 179.135 -0.687164 -3.33902 0
M  V30 1947 H 180.328 -2.06817 -2.17179 0
M  V30 1948 H 177.881 -1.10473 -1.10569 0
M  V30 1949 H 178.616 0.275439 -3.23128 0
M  V30 1950 H 178.401 -1.45061 -3.6428 0
M  V30 1951 H 179.891 -0.590853 -4.13399 0
M  V30 1952 N 180.328 1.1314 -1.09713 0
M  V30 1953 C 181.553 1.88862 -0.857081 0
M  V30 1954 C 181.978 1.78729 0.586304 0
M  V30 1955 O 181.336 1.13692 1.41222 0
M  V30 1956 C 181.384 3.36325 -1.30069 0
M  V30 1957 O 180.488 4.09815 -0.461007 0
M  V30 1958 H 179.829 0.587108 -0.310162 0
M  V30 1959 H 182.359 1.43129 -1.46203 0
M  V30 1960 H 182.369 3.87157 -1.28738 0
M  V30 1961 H 181.044 3.43017 -2.35185 0
M  V30 1962 H 179.621 3.68986 -0.538888 0
M  V30 1963 N 181.806 0.884767 1.30421 0
M  V30 1964 C 182.736 0.367574 2.30589 0
M  V30 1965 C 183.717 -0.549464 1.60981 0
M  V30 1966 O 184.902 -0.46336 1.88591 0
M  V30 1967 C 182.032 -0.418944 3.44764 0
M  V30 1968 C 180.986 0.406316 4.26067 0
M  V30 1969 C 180.312 -0.506793 5.32293 0
M  V30 1970 C 181.612 1.64832 4.95608 0
M  V30 1971 H 183.306 1.20462 2.74097 0
M  V30 1972 H 180.852 0.580695 1.31772 0
M  V30 1973 H 182.805 -0.791395 4.13902 0
M  V30 1974 H 181.529 -1.28964 3.0006 0
M  V30 1975 H 180.188 0.760903 3.58617 0
M  V30 1976 H 179.836 -1.37519 4.83836 0
M  V30 1977 H 179.536 0.0415828 5.87585 0
M  V30 1978 H 181.06 -0.875764 6.04287 0
M  V30 1979 H 182.474 1.34646 5.57264 0
M  V30 1980 H 180.871 2.13688 5.60765 0
M  V30 1981 H 181.941 2.39284 4.21748 0
M  V30 1982 N 183.284 -1.43765 0.645699 0
M  V30 1983 C 184.532 -2.01499 0.155731 0
M  V30 1984 C 184.853 -1.51151 -1.232 0
M  V30 1985 O 184.123 -0.721044 -1.82148 0
M  V30 1986 H 182.703 -0.745003 0.0545817 0
M  V30 1987 H 185.365 -1.76075 0.835677 0
M  V30 1988 H 184.461 -3.1181 0.134577 0
M  V30 1989 N 184.763 -0.387143 -1.52771 0
M  V30 1990 C 185.695 0.484089 -2.2403 0
M  V30 1991 C 186.708 1.02849 -1.26198 0
M  V30 1992 O 187.897 0.931186 -1.52286 0
M  V30 1993 C 184.997 1.68337 -2.94136 0
M  V30 1994 C 184.17 1.26672 -4.18656 0
M  V30 1995 C 183.229 2.33045 -4.7178 0
M  V30 1996 O 182.255 1.94541 -5.34923 0
M  V30 1997 N 183.457 3.64929 -4.5145 0
M  V30 1998 H 186.222 -0.126404 -2.99433 0
M  V30 1999 H 183.783 -0.213392 -1.60488 0
M  V30 2000 H 185.775 2.39019 -3.26577 0
M  V30 2001 H 184.345 2.20025 -2.22053 0
M  V30 2002 H 183.565 0.388878 -3.92277 0
M  V30 2003 H 184.853 0.964964 -4.99566 0
M  V30 2004 H 184.251 3.98974 -4.01044 0
M  V30 2005 H 182.808 4.31651 -4.88386 0
M  V30 2006 N 186.241 1.57166 -0.116904 0
M  V30 2007 C 187.489 1.94737 0.540533 0
M  V30 2008 C 187.81 1.00096 1.67349 0
M  V30 2009 O 187.08 0.0568854 1.95817 0
M  V30 2010 H 185.66 0.718981 0.202669 0
M  V30 2011 H 188.322 1.94017 -0.185353 0
M  V30 2012 H 187.418 2.97719 0.936483 0
M  V30 2013 N 187.719 -0.156864 1.56817 0
M  V30 2014 C 188.649 -1.19589 2.00551 0
M  V30 2015 C 189.63 -1.4536 0.883426 0
M  V30 2016 O 190.815 -1.56449 1.15054 0
M  V30 2017 C 187.945 -2.53143 2.37773 0
M  V30 2018 C 186.899 -2.41913 3.53075 0
M  V30 2019 C 186.225 -3.80088 3.76081 0
M  V30 2020 C 187.525 -1.91157 4.86062 0
M  V30 2021 H 189.219 -0.832293 2.87599 0
M  V30 2022 H 186.765 -0.398918 1.38364 0
M  V30 2023 H 188.718 -3.26047 2.66967 0
M  V30 2024 H 187.442 -2.91319 1.4765 0
M  V30 2025 H 186.101 -1.71462 3.24031 0
M  V30 2026 H 185.749 -4.15683 2.83225 0
M  V30 2027 H 185.449 -3.73439 4.53671 0
M  V30 2028 H 186.973 -4.54556 4.0769 0
M  V30 2029 H 188.387 -2.53846 5.14038 0
M  V30 2030 H 186.784 -1.95422 5.67389 0
M  V30 2031 H 187.854 -0.866673 4.77092 0
M  V30 2032 N 189.197 -1.51736 -0.425897 0
M  V30 2033 C 190.16 -1.73271 -1.50032 0
M  V30 2034 C 191.16 -0.602639 -1.4908 0
M  V30 2035 O 192.35 -0.87033 -1.509 0
M  V30 2036 C 189.482 -1.79969 -2.89523 0
M  V30 2037 H 190.675 -2.69172 -1.32237 0
M  V30 2038 H 188.228 -1.41899 -0.65532 0
M  V30 2039 H 188.963 -0.859241 -3.1271 0
M  V30 2040 H 188.748 -2.62109 -2.91619 0
M  V30 2041 H 190.238 -1.9843 -3.67444 0
M  V30 2042 N 190.675 0.682077 -1.42076 0
M  V30 2043 C 191.921 1.44428 -1.42367 0
M  V30 2044 C 192.254 1.94164 -0.0373056 0
M  V30 2045 O 191.529 1.70429 0.937239 0
M  V30 2046 C 191.812 2.64654 -2.44194 0
M  V30 2047 C 191.665 2.20596 -3.91991 0
M  V30 2048 C 192.984 3.66865 -2.431 0
M  V30 2049 H 190.103 0.523834 -0.518428 0
M  V30 2050 H 192.745 0.77576 -1.73442 0
M  V30 2051 H 190.895 3.2169 -2.17826 0
M  V30 2052 H 192.567 1.68783 -4.29313 0
M  V30 2053 H 190.81 1.52242 -4.06208 0
M  V30 2054 H 191.481 3.06921 -4.58807 0
M  V30 2055 H 193.957 3.19531 -2.66532 0
M  V30 2056 H 192.833 4.48577 -3.16339 0
M  V30 2057 H 193.094 4.17493 -1.45437 0
M  V30 2058 N 192.153 1.28127 0.917671 0
M  V30 2059 C 193.086 1.06039 2.02067 0
M  V30 2060 C 194.064 -0.0223285 1.62585 0
M  V30 2061 O 195.248 0.124823 1.88086 0
M  V30 2062 C 192.375 0.610596 3.33151 0
M  V30 2063 C 191.421 1.68937 3.91615 0
M  V30 2064 S 192.254 3.28437 4.22953 0
M  V30 2065 C 193.41 2.85283 5.57103 0
M  V30 2066 H 193.643 1.99425 2.20493 0
M  V30 2067 H 191.176 1.12071 1.06205 0
M  V30 2068 H 193.134 0.357778 4.08938 0
M  V30 2069 H 191.795 -0.303364 3.12632 0
M  V30 2070 H 190.988 1.32619 4.86239 0
M  V30 2071 H 190.59 1.89478 3.2245 0
M  V30 2072 H 192.882 2.3121 6.36827 0
M  V30 2073 H 193.825 3.7869 5.98331 0
M  V30 2074 H 194.233 2.24118 5.18104 0
M  V30 2075 N 193.631 -1.12557 1.10312 0
M  V30 2076 C 194.578 -2.18247 0.750781 0
M  V30 2077 C 195.548 -1.63853 -0.272293 0
M  V30 2078 O 196.733 -1.90195 -0.151862 0
M  V30 2079 C 193.873 -3.44591 0.187379 0
M  V30 2080 C 192.986 -4.13046 1.2656 0
M  V30 2081 C 192.121 -5.27034 0.663978 0
M  V30 2082 C 191.16 -5.87353 1.72287 0
M  V30 2083 N 190.297 -6.92757 1.1416 0
M  V30 2084 H 195.137 -2.47732 1.65628 0
M  V30 2085 H 192.674 -1.21629 0.827337 0
M  V30 2086 H 194.632 -4.16904 -0.157148 0
M  V30 2087 H 193.262 -3.15527 -0.681355 0
M  V30 2088 H 192.314 -3.38924 1.72727 0
M  V30 2089 H 193.626 -4.53947 2.06721 0
M  V30 2090 H 192.78 -6.06104 0.268824 0
M  V30 2091 H 191.519 -4.87407 -0.169082 0
M  V30 2092 H 190.524 -5.06971 2.12746 0
M  V30 2093 H 191.749 -6.29051 2.55875 0
M  V30 2094 H 189.695 -6.5517 0.329984 0
M  V30 2095 H 189.612 -7.3225 1.88007 0
M  V30 2096 H 190.88 -7.75658 0.772956 0
M  V30 2097 N 195.109 -0.891671 -1.2995 0
M  V30 2098 C 196.072 -0.36828 -2.26222 0
M  V30 2099 C 197.072 0.493014 -1.53056 0
M  V30 2100 O 198.262 0.299213 -1.71611 0
M  V30 2101 C 195.394 0.47442 -3.37583 0
M  V30 2102 H 196.587 -1.21844 -2.74033 0
M  V30 2103 H 194.14 -0.669107 -1.41254 0
M  V30 2104 H 194.875 1.34489 -2.95099 0
M  V30 2105 H 194.66 -0.142615 -3.91841 0
M  V30 2106 H 196.15 0.83218 -4.09224 0
M  V30 2107 N 196.587 1.43421 -0.653314 0
M  V30 2108 C 197.833 2.02111 -0.166992 0
M  V30 2109 C 198.166 1.51423 1.21592 0
M  V30 2110 O 197.441 0.707389 1.8118 0
M  V30 2111 C 197.724 3.5966 -0.177948 0
M  V30 2112 C 197.577 4.20579 -1.59478 0
M  V30 2113 C 198.896 4.37413 0.4856 0
M  V30 2114 H 196.015 0.734374 -0.0621557 0
M  V30 2115 H 198.657 1.70717 -0.834016 0
M  V30 2116 H 196.807 3.86537 0.390032 0
M  V30 2117 H 198.479 4.04732 -2.21336 0
M  V30 2118 H 196.722 3.77226 -2.14204 0
M  V30 2119 H 197.393 5.29665 -1.5543 0
M  V30 2120 H 199.869 4.161 0.00234528 0
M  V30 2121 H 198.745 5.47075 0.447207 0
M  V30 2122 H 199.006 4.13672 1.55974 0
M  V30 2123 N 198.065 0.39524 1.52563 0
M  V30 2124 C 198.975 -0.444232 2.30356 0
M  V30 2125 C 199.991 -1.06615 1.37511 0
M  V30 2126 O 201.167 -1.07067 1.70583 0
M  V30 2127 C 198.232 -1.55315 3.09964 0
M  V30 2128 C 197.293 -0.955734 4.18526 0
M  V30 2129 C 196.526 -2.01181 4.9433 0
M  V30 2130 O 196.749 -3.22781 4.70285 0
M  V30 2131 O 195.683 -1.62579 5.79527 0
M  V30 2132 H 199.509 0.189667 3.03107 0
M  V30 2133 H 197.094 0.1588 1.48554 0
M  V30 2134 H 198.976 -2.19724 3.59582 0
M  V30 2135 H 197.651 -2.17191 2.4002 0
M  V30 2136 H 196.558 -0.274743 3.7309 0
M  V30 2137 H 197.891 -0.381109 4.90722 0
M  V30 2138 N 199.544 -1.57102 0.125237 0
M  V30 2139 C 200.474 -2.18659 -0.819174 0
M  V30 2140 C 201.455 -1.12843 -1.27281 0
M  V30 2141 O 202.64 -1.41104 -1.33429 0
M  V30 2142 C 199.77 -2.79096 -2.06695 0
M  V30 2143 C 198.724 -3.90548 -1.75088 0
M  V30 2144 C 198.05 -4.37821 -3.06948 0
M  V30 2145 C 199.35 -5.12356 -1.01435 0
M  V30 2146 H 201.044 -2.9783 -0.306202 0
M  V30 2147 H 198.59 -1.4326 -0.145839 0
M  V30 2148 H 200.543 -3.2082 -2.73226 0
M  V30 2149 H 199.267 -1.97223 -2.60328 0
M  V30 2150 H 197.926 -3.49409 -1.10944 0
M  V30 2151 H 197.574 -3.52799 -3.58527 0
M  V30 2152 H 197.274 -5.12982 -2.86571 0
M  V30 2153 H 198.798 -4.822 -3.74587 0
M  V30 2154 H 200.212 -5.5106 -1.58132 0
M  V30 2155 H 198.609 -5.9314 -0.911319 0
M  V30 2156 H 199.679 -4.849 -0.00218681 0
M  V30 2157 N 201.022 0.148545 -1.56898 0
M  V30 2158 C 201.985 1.16736 -1.97244 0
M  V30 2159 C 202.985 1.35947 -0.858777 0
M  V30 2160 O 204.175 1.32966 -1.12542 0
M  V30 2161 C 201.307 2.52798 -2.28705 0
M  V30 2162 H 202.5 0.821279 -2.88435 0
M  V30 2163 H 200.053 0.391831 -1.51309 0
M  V30 2164 H 200.788 2.92381 -1.403 0
M  V30 2165 H 200.573 2.40216 -3.09901 0
M  V30 2166 H 202.063 3.26179 -2.60762 0
M  V30 2167 N 202.5 1.5196 0.417844 0
M  V30 2168 C 203.447 1.74678 1.50852 0
M  V30 2169 C 204.417 0.588947 1.55308 0
M  V30 2170 O 205.602 0.825544 1.72016 0
M  V30 2171 C 202.742 1.89544 2.88387 0
M  V30 2172 C 201.855 3.17166 2.93309 0
M  V30 2173 C 200.99 3.22513 4.22088 0
M  V30 2174 C 200.029 4.44372 4.20951 0
M  V30 2175 N 199.166 4.47161 5.41287 0
M  V30 2176 H 204.006 2.67768 1.30783 0
M  V30 2177 H 201.543 1.32689 0.63498 0
M  V30 2178 H 203.501 1.96146 3.68216 0
M  V30 2179 H 202.131 0.998424 3.06971 0
M  V30 2180 H 201.183 3.19778 2.06024 0
M  V30 2181 H 202.495 4.07021 2.88332 0
M  V30 2182 H 201.649 3.28139 5.10303 0
M  V30 2183 H 200.388 2.30581 4.29748 0
M  V30 2184 H 199.393 4.38902 3.31127 0
M  V30 2185 H 200.618 5.3759 4.14938 0
M  V30 2186 H 198.564 3.58108 5.49632 0
M  V30 2187 H 198.481 5.3085 5.3827 0
M  V30 2188 H 199.749 4.57005 6.3148 0
M  V30 2189 N 203.978 -0.674533 1.42435 0
M  V30 2190 C 204.91 -1.80005 1.41883 0
M  V30 2191 C 205.923 -1.59667 0.31787 0
M  V30 2192 O 207.112 -1.68781 0.580973 0
M  V30 2193 C 204.212 -3.17114 1.19549 0
M  V30 2194 C 203.385 -3.64299 2.42084 0
M  V30 2195 C 202.444 -4.80142 2.15291 0
M  V30 2196 O 201.47 -4.90673 2.88493 0
M  V30 2197 N 202.672 -5.68869 1.1562 0
M  V30 2198 H 205.437 -1.80964 2.38898 0
M  V30 2199 H 202.998 -0.857633 1.37318 0
M  V30 2200 H 204.99 -3.92267 0.995417 0
M  V30 2201 H 203.56 -3.11053 0.310569 0
M  V30 2202 H 202.78 -2.79822 2.77657 0
M  V30 2203 H 204.068 -3.92567 3.23679 0
M  V30 2204 H 203.466 -5.63012 0.550765 0
M  V30 2205 H 202.023 -6.43833 1.016 0
M  V30 2206 N 205.456 -1.28612 -0.910864 0
M  V30 2207 C 206.404 -1.1265 -2.03501 0
M  V30 2208 C 207.398 -0.0450054 -1.6934 0
M  V30 2209 O 208.604 -0.203988 -1.7884 0
M  V30 2210 H 204.979 -0.347639 -0.666822 0
M  V30 2211 H 206.95 -2.07849 -2.14106 0
M  V30 2212 C 205.699 -0.808143 -3.38178 0
M  V30 2213 H 205.022 -1.63231 -3.6496 0
M  V30 2214 H 206.462 -0.736426 -4.17556 0
M  V30 2215 C 204.921 0.488226 -3.33344 0
M  V30 2216 O 205.451 1.51766 -3.71927 0
M  V30 2217 N 203.657 0.490009 -2.86439 0
M  V30 2218 H 203.204 -0.348161 -2.55236 0
M  V30 2219 H 203.162 1.35741 -2.83587 0
M  V30 2220 N 206.934 1.1197 -1.10907 0
M  V30 2221 C 208.162 1.87402 -0.876824 0
M  V30 2222 C 208.577 1.79894 0.573025 0
M  V30 2223 O 207.934 1.17629 1.39534 0
M  V30 2224 C 207.985 3.36428 -1.32282 0
M  V30 2225 O 207.706 3.43765 -2.71582 0
M  V30 2226 C 209.207 4.28783 -1.12518 0
M  V30 2227 H 206.427 0.592793 -0.314384 0
M  V30 2228 H 208.971 1.41649 -1.47499 0
M  V30 2229 H 207.126 3.79706 -0.768229 0
M  V30 2230 H 207.54 4.3652 -2.90776 0
M  V30 2231 H 209.014 5.31613 -1.48633 0
M  V30 2232 H 209.491 4.39153 -0.0642394 0
M  V30 2233 H 210.097 3.91291 -1.66648 0
M  V30 2234 N 208.412 0.89855 1.29475 0
M  V30 2235 C 209.823 0.572537 1.77705 0
M  V30 2236 C 210.174 -0.911778 1.73727 0
M  V30 2237 O 209.299 -1.71288 1.32247 0
M  V30 2238 C 209.894 1.03252 3.22683 0
M  V30 2239 C 208.453 0.757687 3.68695 0
M  V30 2240 C 207.6 1.20787 2.49612 0
M  V30 2241 H 210.551 1.08139 1.16153 0
M  V30 2242 H 210.572 0.367307 3.78723 0
M  V30 2243 H 210.084 2.11285 3.25546 0
M  V30 2244 H 208.185 -0.310079 3.71308 0
M  V30 2245 H 208.298 1.35476 4.59547 0
M  V30 2246 H 206.662 0.626888 2.46865 0
M  V30 2247 H 207.445 2.29622 2.55203 0
M  V30 2248 N 209.89 -1.43072 0.660911 0
M  V30 2249 C 211.12 -2.05769 0.185153 0
M  V30 2250 C 211.528 -1.49668 -1.15742 0
M  V30 2251 O 210.871 -0.625649 -1.72717 0
M  V30 2252 C 210.933 -3.59489 0.0278237 0
M  V30 2253 C 210.597 -4.38212 1.2969 0
M  V30 2254 C 211.594 -4.69772 2.22734 0
M  V30 2255 C 209.279 -4.7809 1.54063 0
M  V30 2256 C 211.273 -5.40129 3.38437 0
M  V30 2257 C 208.96 -5.4819 2.70058 0
M  V30 2258 C 209.958 -5.79132 3.62071 0
M  V30 2259 O 209.646 -6.47798 4.76039 0
M  V30 2260 H 209.378 -0.669873 0.0908086 0
M  V30 2261 H 211.932 -1.84436 0.90402 0
M  V30 2262 H 210.162 -3.79426 -0.746489 0
M  V30 2263 H 211.851 -4.03862 -0.406275 0
M  V30 2264 H 212.617 -4.39476 2.05149 0
M  V30 2265 H 208.496 -4.53408 0.833215 0
M  V30 2266 H 212.04 -5.64198 4.10277 0
M  V30 2267 H 207.937 -5.77902 2.87574 0
M  V30 2268 H 208.705 -6.66283 4.75404 0
M  V30 2269 N 211.368 -0.403325 -1.52352 0
M  V30 2270 C 212.316 0.439752 -2.28405 0
M  V30 2271 C 213.31 1.05089 -1.32863 0
M  V30 2272 O 214.516 0.989759 -1.50345 0
M  V30 2273 H 210.891 0.160587 -0.734653 0
M  V30 2274 H 212.862 -0.222983 -2.97566 0
M  V30 2275 C 211.611 1.54736 -3.11371 0
M  V30 2276 H 210.934 1.08643 -3.84755 0
M  V30 2277 H 212.374 2.1112 -3.67701 0
M  V30 2278 C 210.833 2.51141 -2.24566 0
M  V30 2279 O 211.363 3.54887 -1.88196 0
M  V30 2280 N 209.569 2.21213 -1.8845 0
M  V30 2281 H 209.116 1.36878 -2.18225 0
M  V30 2282 H 209.074 2.85963 -1.30662 0
M  V30 2283 N 212.846 1.57033 -0.133567 0
M  V30 2284 C 213.776 2.1909 0.807567 0
M  V30 2285 C 214.757 1.13517 1.26681 0
M  V30 2286 O 215.942 1.41809 1.32679 0
M  V30 2287 C 213.072 2.80188 2.05212 0
M  V30 2288 C 212.026 3.91471 1.73015 0
M  V30 2289 C 211.352 4.39443 3.04622 0
M  V30 2290 C 212.652 5.12886 0.987168 0
M  V30 2291 H 214.346 2.97988 0.290403 0
M  V30 2292 H 211.892 1.43335 0.138239 0
M  V30 2293 H 213.845 3.22264 2.71521 0
M  V30 2294 H 212.569 1.98601 2.59278 0
M  V30 2295 H 211.228 3.49993 1.0909 0
M  V30 2296 H 210.876 3.54695 3.56651 0
M  V30 2297 H 210.576 5.14495 2.83847 0
M  V30 2298 H 212.1 4.8418 3.72024 0
M  V30 2299 H 213.514 5.51891 1.55208 0
M  V30 2300 H 211.911 5.93615 0.87985 0
M  V30 2301 H 212.981 4.84894 -0.0235286 0
M  V30 2302 N 214.325 -0.140222 1.56975 0
M  V30 2303 C 215.255 -1.17456 2.01808 0
M  V30 2304 C 216.236 -1.44415 0.898794 0
M  V30 2305 O 217.421 -1.5522 1.16707 0
M  V30 2306 C 214.551 -2.50607 2.40444 0
M  V30 2307 C 213.505 -2.38155 3.55621 0
M  V30 2308 C 212.831 -3.76078 3.80091 0
M  V30 2309 C 214.131 -1.85991 4.88062 0
M  V30 2310 H 215.825 -0.801743 2.88466 0
M  V30 2311 H 213.371 -0.38422 1.38779 0
M  V30 2312 H 215.324 -3.23197 2.7041 0
M  V30 2313 H 214.048 -2.89737 1.50732 0
M  V30 2314 H 212.707 -1.68016 3.25832 0
M  V30 2315 H 212.355 -4.12656 2.87618 0
M  V30 2316 H 212.055 -3.68606 4.57606 0
M  V30 2317 H 213.579 -4.50206 4.12488 0
M  V30 2318 H 214.993 -2.4838 5.16701 0
M  V30 2319 H 213.39 -1.89393 5.6943 0
M  V30 2320 H 214.46 -0.816023 4.77984 0
M  V30 2321 N 215.803 -1.52179 -0.40978 0
M  V30 2322 C 217.043 -1.67882 -1.16597 0
M  V30 2323 C 217.407 -0.399795 -1.87791 0
M  V30 2324 O 218.608 -0.43292 -2.65291 0
M  V30 2325 C 216.879 -2.86662 -2.13448 0
M  V30 2326 S 218.438 -3.22843 -2.97183 0
M  V30 2327 H 215.256 -0.59118 -0.395002 0
M  V30 2328 H 217.858 -1.9017 -0.453373 0
M  V30 2329 H 216.562 -3.77998 -1.59831 0
M  V30 2330 H 216.093 -2.66645 -2.89247 0
M  V30 2331 H 218.108 -2.71415 -4.15389 0
M  V30 2332 N 217.281 0.66697 -1.42791 0
M  V30 2333 C 218.191 1.80962 -1.49299 0
M  V30 2334 C 219.207 1.69775 -0.381108 0
M  V30 2335 O 220.383 1.91188 -0.633188 0
M  V30 2336 C 217.448 3.17156 -1.40045 0
M  V30 2337 C 216.509 3.40242 -2.6179 0
M  V30 2338 C 215.742 4.69939 -2.52969 0
M  V30 2339 O 215.965 5.48372 -1.56985 0
M  V30 2340 O 214.899 4.94441 -3.43237 0
M  V30 2341 H 218.725 1.78427 -2.45759 0
M  V30 2342 H 216.31 0.823713 -1.24641 0
M  V30 2343 H 218.192 3.98413 -1.37276 0
M  V30 2344 H 216.867 3.20312 -0.467138 0
M  V30 2345 H 215.774 2.58802 -2.70134 0
M  V30 2346 H 217.107 3.41923 -3.54047 0
M  V30 2347 N 218.759 1.29093 0.90403 0
M  V30 2348 C 219.987 1.19689 1.68766 0
M  V30 2349 C 220.402 -0.243113 1.87228 0
M  V30 2350 O 219.759 -1.16326 1.40621 0
M  V30 2351 C 219.81 1.90144 3.07453 0
M  V30 2352 O 219.531 3.2852 2.89838 0
M  V30 2353 C 221.032 1.87162 4.01852 0
M  V30 2354 H 218.252 0.415035 0.527244 0
M  V30 2355 H 220.796 1.7039 1.13082 0
M  V30 2356 H 218.951 1.43289 3.59926 0
M  V30 2357 H 219.365 3.63944 3.77684 0
M  V30 2358 H 220.839 2.41032 4.96596 0
M  V30 2359 H 221.316 0.84617 4.30972 0
M  V30 2360 H 221.922 2.33741 3.5531 0
M  V30 2361 N 220.237 -1.11381 1.11499 0
M  V30 2362 C 221.486 -1.82494 0.858993 0
M  V30 2363 C 221.799 -1.85605 -0.617278 0
M  V30 2364 O 223.005 -2.52824 -0.989552 0
M  V30 2365 C 221.461 -3.27745 1.48699 0
M  V30 2366 C 221.069 -3.32961 2.99735 0
M  V30 2367 C 222.813 -4.03754 1.31085 0
M  V30 2368 C 220.72 -4.72612 3.55516 0
M  V30 2369 H 219.65 -0.683802 0.317696 0
M  V30 2370 H 222.301 -1.25331 1.34031 0
M  V30 2371 H 220.683 -3.84844 0.933339 0
M  V30 2372 H 221.857 -2.85741 3.61509 0
M  V30 2373 H 220.172 -2.70433 3.16631 0
M  V30 2374 H 222.769 -5.06891 1.70192 0
M  V30 2375 H 223.112 -4.15527 0.253496 0
M  V30 2376 H 223.645 -3.53043 1.83318 0
M  V30 2377 H 220.384 -4.66036 4.60967 0
M  V30 2378 H 219.904 -5.2024 2.98513 0
M  V30 2379 H 221.583 -5.4157 3.53992 0
M  V30 2380 N 221.715 -0.905404 -1.28997 0
M  V30 2381 C 222.625 -0.392246 -2.31298 0
M  V30 2382 C 223.641 0.515889 -1.66176 0
M  V30 2383 O 224.817 0.404093 -1.97304 0
M  V30 2384 C 221.882 0.36686 -3.44754 0
M  V30 2385 C 220.943 -0.573485 -4.25452 0
M  V30 2386 C 220.176 0.149488 -5.33491 0
M  V30 2387 O 220.399 1.37255 -5.5364 0
M  V30 2388 O 219.333 -0.510919 -5.99728 0
M  V30 2389 H 223.159 -1.2411 -2.77183 0
M  V30 2390 H 220.744 -0.669926 -1.33538 0
M  V30 2391 H 222.626 0.795907 -4.13816 0
M  V30 2392 H 221.301 1.19169 -3.00966 0
M  V30 2393 H 220.208 -1.05176 -3.59011 0
M  V30 2394 H 221.541 -1.36489 -4.72897 0
M  V30 2395 N 223.193 1.4272 -0.668489 0
M  V30 2396 C 224.418 2.06484 -0.194758 0
M  V30 2397 C 224.843 1.49862 1.13679 0
M  V30 2398 O 224.201 0.614582 1.70565 0
M  V30 2399 C 224.249 3.60353 -0.133546 0
M  V30 2400 O 223.353 4.02464 0.899806 0
M  V30 2401 H 222.694 0.656137 -0.10188 0
M  V30 2402 H 225.224 1.82964 -0.915722 0
M  V30 2403 H 225.234 4.07976 0.0447041 0
M  V30 2404 H 223.909 4.00938 -1.1055 0
M  V30 2405 H 222.486 3.66402 0.693109 0
M  V30 2406 N 224.671 0.411399 1.52136 0
M  V30 2407 C 225.901 -0.16284 2.05957 0
M  V30 2408 C 226.309 -1.3922 1.28119 0
M  V30 2409 O 225.652 -1.80768 0.326881 0
M  V30 2410 C 225.714 -0.575946 3.54856 0
M  V30 2411 C 225.378 0.542998 4.53763 0
M  V30 2412 C 226.375 1.40726 5.00492 0
M  V30 2413 C 224.06 0.716337 4.97166 0
M  V30 2414 C 226.054 2.4298 5.8927 0
M  V30 2415 C 223.741 1.74218 5.8574 0
M  V30 2416 C 224.739 2.59731 6.31687 0
M  V30 2417 O 224.427 3.60558 7.18507 0
M  V30 2418 H 224.159 -0.0229125 0.675612 0
M  V30 2419 H 226.713 0.581634 1.96993 0
M  V30 2420 H 224.943 -1.37274 3.61515 0
M  V30 2421 H 226.632 -1.07836 3.91313 0
M  V30 2422 H 227.398 1.28476 4.67674 0
M  V30 2423 H 223.277 0.0603857 4.6096 0
M  V30 2424 H 226.821 3.0976 6.25055 0
M  V30 2425 H 222.718 1.86498 6.17971 0
M  V30 2426 H 223.486 3.56829 7.36624 0
M  V30 2427 N 226.149 -1.5696 0.141893 0
M  V30 2428 C 227.389 -1.9785 -0.513304 0
M  V30 2429 C 227.753 -1.02467 -1.62371 0
M  V30 2430 O 228.954 -1.32382 -2.33941 0
M  V30 2431 C 227.225 -3.42797 -1.01118 0
M  V30 2432 S 228.784 -4.05709 -1.67169 0
M  V30 2433 H 225.602 -0.691318 -0.166135 0
M  V30 2434 H 228.204 -1.94114 0.232398 0
M  V30 2435 H 226.908 -4.0995 -0.192179 0
M  V30 2436 H 226.439 -3.50235 -1.79162 0
M  V30 2437 H 228.454 -3.98342 -2.95868 0
M  V30 2438 N 227.627 0.131896 -1.57047 0
M  V30 2439 C 229.043 0.485031 -1.52051 0
M  V30 2440 C 229.243 1.82563 -0.85281 0
M  V30 2441 O 228.299 2.48817 -0.429694 0
M  V30 2442 C 229.612 0.481409 -2.96821 0
M  V30 2443 C 231.16 0.565868 -3.07842 0
M  V30 2444 C 231.635 0.592762 -4.54148 0
M  V30 2445 N 233.126 0.654564 -4.58552 0
M  V30 2446 C 233.861 0.696608 -5.69153 0
M  V30 2447 N 233.357 0.697078 -6.89284 0
M  V30 2448 N 235.15 0.738639 -5.57226 0
M  V30 2449 H 227.301 -0.746664 -1.98843 0
M  V30 2450 H 229.564 -0.273999 -0.90754 0
M  V30 2451 H 229.27 -0.435731 -3.4899 0
M  V30 2452 H 229.144 1.3139 -3.53577 0
M  V30 2453 H 231.531 1.47343 -2.55684 0
M  V30 2454 H 231.612 -0.29406 -2.54104 0
M  V30 2455 H 231.256 -0.310701 -5.06949 0
M  V30 2456 H 231.186 1.46939 -5.05684 0
M  V30 2457 H 233.677 0.660887 -3.72076 0
M  V30 2458 H 233.99 0.731426 -7.69331 0
M  V30 2459 H 232.335 0.66471 -6.91814 0
M  V30 2460 H 235.526 0.735545 -4.62285 0
M  V30 2461 H 235.699 0.767938 -6.43434 0
M  V30 2462 N 229.106 1.52395 0.401703 0
M  V30 2463 C 230.056 1.72649 1.48917 0
M  V30 2464 C 231.04 0.580436 1.50066 0
M  V30 2465 O 232.232 0.83779 1.55917 0
M  V30 2466 C 229.361 1.88729 2.86769 0
M  V30 2467 C 228.447 3.09228 2.90239 0
M  V30 2468 N 228.838 4.31805 2.63396 0
M  V30 2469 C 227.136 3.09214 3.21408 0
M  V30 2470 C 227.837 5.13326 2.73625 0
M  V30 2471 N 226.813 4.48735 3.06819 0
M  V30 2472 H 230.615 2.65058 1.26971 0
M  V30 2473 H 228.129 1.50528 0.609504 0
M  V30 2474 H 230.126 2.01358 3.65049 0
M  V30 2475 H 228.786 0.975252 3.09708 0
M  V30 2476 H 229.797 4.60154 2.37653 0
M  V30 2477 H 226.474 2.27774 3.49893 0
M  V30 2478 H 227.864 6.21003 2.56524 0
M  V30 2479 N 230.584 -0.659388 1.43143 0
M  V30 2480 C 231.517 -1.78425 1.42267 0
M  V30 2481 C 232.495 -1.60085 0.284894 0
M  V30 2482 O 233.679 -1.82351 0.477527 0
M  V30 2483 C 230.806 -3.15642 1.22833 0
M  V30 2484 C 229.852 -3.52698 2.39806 0
M  V30 2485 S 230.685 -3.53372 4.02353 0
M  V30 2486 C 231.841 -4.93256 3.85291 0
M  V30 2487 H 232.074 -1.78897 2.37452 0
M  V30 2488 H 229.607 -0.831469 1.301 0
M  V30 2489 H 231.565 -3.94838 1.12308 0
M  V30 2490 H 230.226 -3.12739 0.29207 0
M  V30 2491 H 229.419 -4.52475 2.21996 0
M  V30 2492 H 229.021 -2.80899 2.46925 0
M  V30 2493 H 231.313 -5.81751 3.47235 0
M  V30 2494 H 232.256 -5.16115 4.84799 0
M  V30 2495 H 232.664 -4.665 3.17865 0
M  V30 2496 N 232.062 -1.29571 -0.897171 0
M  V30 2497 C 232.972 -1.16808 -2.03453 0
M  V30 2498 C 233.988 -0.0907471 -1.73763 0
M  V30 2499 O 235.164 -0.303312 -1.99103 0
M  V30 2500 C 232.229 -0.848264 -3.36163 0
M  V30 2501 C 231.29 -2.0097 -3.79354 0
M  V30 2502 C 230.523 -1.70505 -5.05731 0
M  V30 2503 O 230.746 -0.62718 -5.66941 0
M  V30 2504 O 229.68 -2.5538 -5.45036 0
M  V30 2505 H 233.506 -2.12325 -2.17144 0
M  V30 2506 H 231.091 -1.09047 -1.02123 0
M  V30 2507 H 232.973 -0.684581 -4.15802 0
M  V30 2508 H 231.648 0.0771071 -3.23608 0
M  V30 2509 H 230.555 -2.22863 -3.00471 0
M  V30 2510 H 231.888 -2.91636 -3.96496 0
M  V30 2511 N 233.54 1.10788 -1.12088 0
M  V30 2512 C 234.49 2.15158 -0.754401 0
M  V30 2513 C 235.474 1.59026 0.244846 0
M  V30 2514 O 236.666 1.76927 0.0509097 0
M  V30 2515 C 233.795 3.42677 -0.206657 0
M  V30 2516 C 232.881 4.05751 -1.23398 0
M  V30 2517 N 233.272 4.43582 -2.43041 0
M  V30 2518 C 231.57 4.32764 -1.07848 0
M  V30 2519 C 232.271 4.93085 -3.08613 0
M  V30 2520 N 231.247 4.89664 -2.36072 0
M  V30 2521 H 235.049 2.42195 -1.6649 0
M  V30 2522 H 232.563 1.27872 -1.00112 0
M  V30 2523 H 234.56 4.16834 0.0740646 0
M  V30 2524 H 233.22 3.17101 0.698342 0
M  V30 2525 H 234.231 4.35395 -2.80449 0
M  V30 2526 H 230.908 4.16863 -0.230483 0
M  V30 2527 H 232.298 5.31933 -4.10483 0
M  V30 2528 N 235.018 0.912232 1.28515 0
M  V30 2529 C 236.267 0.540504 1.94323 0
M  V30 2530 C 236.58 -0.920044 1.72611 0
M  V30 2531 O 237.786 -1.39986 2.32629 0
M  V30 2532 C 236.242 0.915803 3.48053 0
M  V30 2533 C 235.85 2.39598 3.78546 0
M  V30 2534 C 237.594 0.614588 4.20027 0
M  V30 2535 C 235.501 2.71148 5.25578 0
M  V30 2536 H 234.431 0.198418 0.727424 0
M  V30 2537 H 237.082 1.11094 1.46049 0
M  V30 2538 H 235.464 0.274168 3.9505 0
M  V30 2539 H 236.638 3.08422 3.42364 0
M  V30 2540 H 234.953 2.66749 3.1974 0
M  V30 2541 H 237.55 0.827002 5.28266 0
M  V30 2542 H 237.893 -0.447531 4.13887 0
M  V30 2543 H 238.426 1.21462 3.78803 0
M  V30 2544 H 235.165 3.76207 5.36794 0
M  V30 2545 H 234.685 2.0696 5.62963 0
M  V30 2546 H 236.364 2.58072 5.93302 0
M  V30 2547 N 236.496 -1.42363 0.676048 0
M  V30 2548 C 237.743 -2.01522 0.19883 0
M  V30 2549 C 238.071 -1.53456 -1.19505 0
M  V30 2550 O 237.326 -0.727967 -1.81657 0
M  V30 2551 C 237.625 -3.56929 0.183431 0
M  V30 2552 C 237.291 -4.24431 1.52215 0
M  V30 2553 C 235.953 -4.42585 1.8887 0
M  V30 2554 C 238.305 -4.62459 2.40377 0
M  V30 2555 C 235.633 -4.96039 3.13309 0
M  V30 2556 C 237.985 -5.17294 3.64129 0
M  V30 2557 C 236.649 -5.33661 4.00951 0
M  V30 2558 H 235.919 -0.737419 0.0727571 0
M  V30 2559 H 238.566 -1.70531 0.871281 0
M  V30 2560 H 236.871 -3.87594 -0.572532 0
M  V30 2561 H 238.568 -4.00486 -0.203035 0
M  V30 2562 H 235.158 -4.10661 1.22701 0
M  V30 2563 H 239.342 -4.48105 2.13343 0
M  V30 2564 H 234.598 -5.06896 3.41857 0
M  V30 2565 H 238.772 -5.45704 4.32644 0
M  V30 2566 H 236.399 -5.74845 4.9745 0
M  V30 2567 N 237.974 -0.419461 -1.51915 0
M  V30 2568 C 239.202 0.152136 -2.0634 0
M  V30 2569 C 239.617 1.37988 -1.28859 0
M  V30 2570 O 238.974 1.79243 -0.343232 0
M  V30 2571 C 239.025 0.492266 -3.58133 0
M  V30 2572 O 238.746 -0.686736 -4.32684 0
M  V30 2573 C 240.247 1.11648 -4.2901 0
M  V30 2574 H 237.467 0.0158325 -0.670813 0
M  V30 2575 H 240.011 -0.593394 -1.95702 0
M  V30 2576 H 238.166 1.18769 -3.68745 0
M  V30 2577 H 238.58 -0.400341 -5.2297 0
M  V30 2578 H 240.054 1.3046 -5.36362 0
M  V30 2579 H 240.531 2.09251 -3.86148 0
M  V30 2580 H 241.137 0.460958 -4.22795 0
M  V30 2581 N 239.452 1.56882 -0.150215 0
M  V30 2582 C 240.698 1.96518 0.500834 0
M  V30 2583 C 241.031 1.03527 1.64304 0
M  V30 2584 O 240.306 0.0782751 1.94342 0
M  V30 2585 C 240.589 3.45822 1.00395 0
M  V30 2586 C 240.442 4.49591 -0.136983 0
M  V30 2587 C 241.761 3.97704 1.88467 0
M  V30 2588 H 238.88 0.714535 0.18058 0
M  V30 2589 H 241.522 1.88577 -0.232091 0
M  V30 2590 H 239.672 3.5272 1.62851 0
M  V30 2591 H 241.344 4.5477 -0.77343 0
M  V30 2592 H 239.587 4.26441 -0.795652 0
M  V30 2593 H 240.258 5.51402 0.256815 0
M  V30 2594 H 242.734 3.93304 1.35834 0
M  V30 2595 H 241.61 5.0263 2.20578 0
M  V30 2596 H 241.871 3.40252 2.82279 0
M  V30 2597 N 240.93 -0.123565 1.57115 0
M  V30 2598 C 242.207 -0.862196 1.75572 0
M  V30 2599 C 242.587 -1.98279 0.724475 0
M  V30 2600 O 241.935 -2.27102 -0.252407 0
M  V30 2601 C 242.145 -1.38309 3.20424 0
M  V30 2602 C 243.493 -1.83724 3.82793 0
M  V30 2603 O 244.517 -1.47999 3.23998 0
M  V30 2604 O 243.376 -2.49685 4.86127 0
M  V30 2605 H 240.47 -0.409113 0.718718 0
M  V30 2606 H 243.016 -0.107661 1.69358 0
M  V30 2607 H 241.788 -0.578889 3.86994 0
M  V30 2608 H 241.411 -2.20046 3.31158 0
M  V30 2609 N 242.408 -1.52605 -0.393616 0
M  V30 2610 C 243.356 -1.77688 -1.50099 0
M  V30 2611 C 244.35 -0.644615 -1.56656 0
M  V30 2612 O 245.556 -0.826997 -1.59877 0
M  V30 2613 H 241.931 -0.562159 -0.499481 0
M  V30 2614 H 243.902 -2.7043 -1.26135 0
M  V30 2615 C 242.651 -1.95858 -2.87289 0
M  V30 2616 H 241.974 -2.8241 -2.82992 0
M  V30 2617 H 243.414 -2.174 -3.64024 0
M  V30 2618 C 241.873 -0.729848 -3.28899 0
M  V30 2619 O 242.403 0.0949217 -4.01588 0
M  V30 2620 N 240.609 -0.561283 -2.85128 0
M  V30 2621 H 240.156 -1.23357 -2.26143 0
M  V30 2622 H 240.114 0.2595 -3.13327 0
M  V30 2623 N 243.887 0.651787 -1.4349 0
M  V30 2624 C 244.817 1.77621 -1.51569 0
M  V30 2625 C 245.798 1.66022 -0.370253 0
M  V30 2626 O 246.983 1.85095 -0.587658 0
M  V30 2627 C 244.113 3.16056 -1.43966 0
M  V30 2628 C 243.067 3.4242 -2.56774 0
M  V30 2629 C 242.393 4.8067 -2.34223 0
M  V30 2630 C 243.693 3.37023 -3.99015 0
M  V30 2631 H 245.387 1.71117 -2.45681 0
M  V30 2632 H 242.933 0.821825 -1.18246 0
M  V30 2633 H 244.886 3.94472 -1.48221 0
M  V30 2634 H 243.61 3.23293 -0.463586 0
M  V30 2635 H 242.269 2.66375 -2.51873 0
M  V30 2636 H 241.917 4.84585 -1.34856 0
M  V30 2637 H 241.617 4.9927 -3.09844 0
M  V30 2638 H 243.141 5.61342 -2.40265 0
M  V30 2639 H 244.555 4.05374 -4.05395 0
M  V30 2640 H 242.952 3.67159 -4.74673 0
M  V30 2641 H 244.022 2.3518 -4.2405 0
M  V30 2642 N 245.365 1.30045 0.890287 0
M  V30 2643 C 246.642 1.09227 1.62262 0
M  V30 2644 C 247.022 -0.360305 2.08002 0
M  V30 2645 O 246.37 -1.35084 1.84295 0
M  V30 2646 C 246.58 2.08835 2.79623 0
M  V30 2647 C 247.928 2.40266 3.50082 0
M  V30 2648 O 248.952 2.07104 2.89804 0
M  V30 2649 O 247.811 2.96967 4.58773 0
M  V30 2650 H 244.905 0.419132 0.712922 0
M  V30 2651 H 247.451 1.41451 0.937529 0
M  V30 2652 H 246.223 3.06633 2.43089 0
M  V30 2653 H 245.846 1.77397 3.55832 0
M  V30 2654 N 246.843 -1.10192 1.12674 0
M  V30 2655 C 248.073 -1.85713 0.905213 0
M  V30 2656 C 248.481 -1.81056 -0.549108 0
M  V30 2657 O 247.824 -1.19927 -1.39151 0
M  V30 2658 C 247.886 -3.34972 1.30516 0
M  V30 2659 C 247.55 -3.63385 2.77129 0
M  V30 2660 C 248.547 -3.59772 3.75313 0
M  V30 2661 C 246.232 -3.91981 3.14096 0
M  V30 2662 C 248.226 -3.84354 5.08479 0
M  V30 2663 C 245.913 -4.16218 4.47443 0
M  V30 2664 C 246.911 -4.12395 5.44444 0
M  V30 2665 O 246.599 -4.36014 6.75387 0
M  V30 2666 H 246.331 -0.593719 0.323223 0
M  V30 2667 H 248.885 -1.40198 1.50112 0
M  V30 2668 H 247.115 -3.81156 0.652463 0
M  V30 2669 H 248.804 -3.91886 1.05736 0
M  V30 2670 H 249.57 -3.37716 3.48099 0
M  V30 2671 H 245.449 -3.94085 2.39202 0
M  V30 2672 H 248.993 -3.81285 5.84181 0
M  V30 2673 H 244.89 -4.37754 4.74386 0
M  V30 2674 H 245.658 -4.53516 6.8137 0
M  V30 2675 N 248.321 -0.919034 -1.28029 0
M  V30 2676 C 249.251 -0.428581 -2.29533 0
M  V30 2677 C 250.232 0.50659 -1.62381 0
M  V30 2678 O 251.417 0.413195 -1.89753 0
M  V30 2679 C 248.547 0.327388 -3.45753 0
M  V30 2680 C 247.501 -0.519137 -4.2484 0
M  V30 2681 C 246.827 0.365486 -5.33449 0
M  V30 2682 C 248.127 -1.77914 -4.91064 0
M  V30 2683 H 249.821 -1.27687 -2.70807 0
M  V30 2684 H 247.367 -0.615428 -1.30186 0
M  V30 2685 H 249.32 0.681378 -4.15855 0
M  V30 2686 H 248.044 1.20963 -3.03374 0
M  V30 2687 H 246.703 -0.855717 -3.56473 0
M  V30 2688 H 246.351 1.24642 -4.87312 0
M  V30 2689 H 246.051 -0.197356 -5.87268 0
M  V30 2690 H 247.575 0.715241 -6.06396 0
M  V30 2691 H 248.989 -1.49374 -5.53498 0
M  V30 2692 H 247.386 -2.2848 -5.54903 0
M  V30 2693 H 248.456 -2.50382 -4.15255 0
M  V30 2694 N 249.799 1.42003 -0.683588 0
M  V30 2695 C 250.762 2.29191 -0.0198243 0
M  V30 2696 C 251.762 1.43773 0.72013 0
M  V30 2697 O 252.952 1.65061 0.556815 0
M  V30 2698 C 250.084 3.26435 0.982487 0
M  V30 2699 H 251.277 2.8938 -0.787345 0
M  V30 2700 H 248.83 1.49789 -0.446418 0
M  V30 2701 H 249.565 2.71203 1.77819 0
M  V30 2702 H 249.35 3.89449 0.455182 0
M  V30 2703 H 250.84 3.918 1.44508 0
M  V30 2704 N 251.277 0.427512 1.51691 0
M  V30 2705 C 252.693 0.0792977 1.59403 0
M  V30 2706 C 252.893 -1.41035 1.43914 0
M  V30 2707 O 251.949 -2.17922 1.27539 0
M  V30 2708 C 253.262 0.590636 2.94842 0
M  V30 2709 C 254.81 0.550215 3.08126 0
M  V30 2710 C 255.285 1.03836 4.46074 0
M  V30 2711 N 256.776 0.995943 4.52366 0
M  V30 2712 C 257.511 1.34463 5.57411 0
M  V30 2713 N 257.007 1.76569 6.69922 0
M  V30 2714 N 258.8 1.26343 5.47717 0
M  V30 2715 H 250.951 1.39687 1.60004 0
M  V30 2716 H 253.214 0.575003 0.753708 0
M  V30 2717 H 252.92 1.63251 3.11516 0
M  V30 2718 H 252.794 0.0102061 3.77199 0
M  V30 2719 H 255.181 -0.482654 2.91126 0
M  V30 2720 H 255.262 1.16693 2.27632 0
M  V30 2721 H 254.906 2.06965 4.63819 0
M  V30 2722 H 254.836 0.398286 5.25092 0
M  V30 2723 H 257.327 0.68661 3.7161 0
M  V30 2724 H 257.64 2.01438 7.46085 0
M  V30 2725 H 255.985 1.80488 6.71155 0
M  V30 2726 H 259.176 0.933209 4.58703 0
M  V30 2727 H 259.349 1.53846 6.29472 0
M  V30 2728 N 252.755 -1.56801 0.158532 0
M  V30 2729 C 254.003 -1.96102 -0.488712 0
M  V30 2730 C 254.324 -1.04498 -1.64636 0
M  V30 2731 O 253.594 -0.108783 -1.95598 0
M  V30 2732 H 252.174 -0.724102 -0.183535 0
M  V30 2733 H 254.836 -1.93457 0.236728 0
M  V30 2734 H 253.932 -3.00097 -0.857219 0
M  V30 2735 N 254.233 0.115231 -1.57178 0
M  V30 2736 C 255.481 0.820727 -1.84685 0
M  V30 2737 C 255.802 1.80237 -0.744279 0
M  V30 2738 O 255.072 1.94529 0.231375 0
M  V30 2739 H 253.652 0.306084 -0.681411 0
M  V30 2740 H 256.314 0.101656 -1.94635 0
M  V30 2741 H 255.41 1.36366 -2.80733 0
M  V30 2742 N 255.711 1.52812 0.385517 0
M  V30 2743 C 257.127 1.4214 0.725829 0
M  V30 2744 C 257.327 0.544589 1.94001 0
M  V30 2745 O 256.383 0.0193693 2.52493 0
M  V30 2746 C 257.696 2.85042 0.957668 0
M  V30 2747 C 259.244 2.94543 1.05892 0
M  V30 2748 C 259.719 4.38464 1.32337 0
M  V30 2749 N 261.21 4.41804 1.39151 0
M  V30 2750 C 261.945 5.5025 1.61285 0
M  V30 2751 N 261.441 6.68775 1.80866 0
M  V30 2752 N 263.234 5.37798 1.63492 0
M  V30 2753 H 255.385 2.08338 -0.413383 0
M  V30 2754 H 257.648 0.940016 -0.122775 0
M  V30 2755 H 257.354 3.51431 0.137568 0
M  V30 2756 H 257.228 3.27505 1.87137 0
M  V30 2757 H 259.615 2.28321 1.86959 0
M  V30 2758 H 259.696 2.55504 0.123057 0
M  V30 2759 H 259.34 5.05254 0.517793 0
M  V30 2760 H 259.27 4.75059 2.27214 0
M  V30 2761 H 261.761 3.56377 1.25713 0
M  V30 2762 H 262.074 7.47197 1.97271 0
M  V30 2763 H 260.419 6.71797 1.78083 0
M  V30 2764 H 263.61 4.44171 1.47749 0
M  V30 2765 H 263.783 6.22382 1.80402 0
M  V30 2766 N 257.189 -0.644168 1.43834 0
M  V30 2767 C 258.438 -1.39985 1.45214 0
M  V30 2768 C 258.751 -1.95421 0.0835494 0
M  V30 2769 O 259.957 -2.71488 -0.0251748 0
M  V30 2770 C 258.413 -2.53384 2.55587 0
M  V30 2771 C 258.021 -2.04517 3.98594 0
M  V30 2772 C 259.765 -3.30685 2.66172 0
M  V30 2773 C 257.672 -3.1518 5.00416 0
M  V30 2774 H 256.602 -0.526005 0.540218 0
M  V30 2775 H 259.253 -0.694367 1.69855 0
M  V30 2776 H 257.635 -3.26446 2.24163 0
M  V30 2777 H 258.809 -1.38405 4.39523 0
M  V30 2778 H 257.124 -1.40068 3.92135 0
M  V30 2779 H 259.721 -4.13158 3.39418 0
M  V30 2780 H 260.064 -3.79312 1.71546 0
M  V30 2781 H 260.597 -2.64708 2.96942 0
M  V30 2782 H 257.336 -2.71511 5.96625 0
M  V30 2783 H 256.856 -3.79974 4.64091 0
M  V30 2784 H 258.535 -3.80166 5.23529 0
M  V30 2785 N 258.668 -1.30515 -0.883378 0
M  V30 2786 C 259.893 -1.22487 -1.67367 0
M  V30 2787 C 260.318 0.208767 -1.86938 0
M  V30 2788 O 259.676 1.15015 -1.40148 0
M  V30 2789 C 259.724 -1.96041 -3.02655 0
M  V30 2790 O 258.828 -1.28859 -3.91751 0
M  V30 2791 H 258.169 -0.423573 -0.511353 0
M  V30 2792 H 260.699 -1.72362 -1.10239 0
M  V30 2793 H 260.709 -2.05124 -3.52687 0
M  V30 2794 H 259.384 -3.00307 -2.8773 0
M  V30 2795 H 257.961 -1.28141 -3.50192 0
M  V30 2796 N 260.146 1.09593 -1.13257 0
M  V30 2797 C 261.093 2.1618 -0.808381 0
M  V30 2798 C 262.063 1.64517 0.228754 0
M  V30 2799 O 263.248 1.9053 0.101381 0
M  V30 2800 C 260.388 3.43973 -0.278675 0
M  V30 2801 C 259.501 4.09545 -1.37466 0
M  V30 2802 C 258.636 5.25088 -0.803479 0
M  V30 2803 C 257.675 5.82579 -1.87799 0
M  V30 2804 N 256.812 6.89486 -1.32488 0
M  V30 2805 H 261.652 2.43254 -1.72138 0
M  V30 2806 H 259.189 1.19392 -0.859294 0
M  V30 2807 H 261.147 4.17174 0.0465583 0
M  V30 2808 H 259.777 3.17223 0.597459 0
M  V30 2809 H 258.829 3.34226 -1.81652 0
M  V30 2810 H 260.141 4.48307 -2.18684 0
M  V30 2811 H 259.295 6.05178 -0.429427 0
M  V30 2812 H 258.034 4.87684 0.0397956 0
M  V30 2813 H 257.039 5.01152 -2.26113 0
M  V30 2814 H 258.264 6.22045 -2.72463 0
M  V30 2815 H 256.21 6.54064 -0.503575 0
M  V30 2816 H 256.127 7.27007 -2.07355 0
M  V30 2817 H 257.395 7.73336 -0.978336 0
M  V30 2818 N 261.624 0.925811 1.2754 0
M  V30 2819 C 262.852 0.581509 1.9856 0
M  V30 2820 C 263.267 -0.840041 1.69082 0
M  V30 2821 O 262.624 -1.55805 0.950312 0
M  V30 2822 C 262.675 0.795589 3.52637 0
M  V30 2823 O 262.396 2.16121 3.81082 0
M  V30 2824 C 263.897 0.459744 4.4091 0
M  V30 2825 H 261.117 0.220538 0.633722 0
M  V30 2826 H 263.661 1.24232 1.6244 0
M  V30 2827 H 261.816 0.18161 3.86974 0
M  V30 2828 H 262.23 2.2098 4.75676 0
M  V30 2829 H 263.704 0.660244 5.48037 0
M  V30 2830 H 264.181 -0.604625 4.35018 0
M  V30 2831 H 264.787 1.05178 4.12089 0
M  V30 2832 N 263.102 -1.41638 0.69111 0
M  V30 2833 C 264.065 -2.29178 0.0319786 0
M  V30 2834 C 265.065 -1.44153 -0.712496 0
M  V30 2835 O 266.255 -1.65354 -0.548053 0
M  V30 2836 C 263.387 -3.26952 -0.965161 0
M  V30 2837 H 264.58 -2.88959 0.802681 0
M  V30 2838 H 262.133 -1.4955 0.454356 0
M  V30 2839 H 262.868 -2.72142 -1.76378 0
M  V30 2840 H 262.653 -3.89685 -0.434522 0
M  V30 2841 H 264.143 -3.92561 -1.42428 0
M  V30 2842 N 264.58 -0.43555 -1.51462 0
M  V30 2843 C 265.543 0.365137 -2.26273 0
M  V30 2844 C 266.543 0.951227 -1.29647 0
M  V30 2845 O 267.733 0.825958 -1.53374 0
M  V30 2846 C 264.865 1.51645 -3.05314 0
M  V30 2847 H 266.058 -0.290474 -2.9849 0
M  V30 2848 H 263.611 -0.188676 -1.55157 0
M  V30 2849 H 264.346 2.20816 -2.3751 0
M  V30 2850 H 264.131 1.10238 -3.76284 0
M  V30 2851 H 265.621 2.08218 -3.61987 0
M  V30 2852 N 266.058 1.56714 -0.166846 0
M  V30 2853 C 267.021 2.16539 0.751232 0
M  V30 2854 C 268.021 1.11228 1.16125 0
M  V30 2855 O 269.211 1.36765 1.07894 0
M  V30 2856 C 266.343 2.74462 2.02196 0
M  V30 2857 H 267.536 2.99013 0.230499 0
M  V30 2858 H 265.089 1.56081 0.0826982 0
M  V30 2859 H 265.824 1.95709 2.58589 0
M  V30 2860 H 265.609 3.51527 1.73698 0
M  V30 2861 H 267.099 3.20489 2.67725 0
M  V30 2862 N 267.536 -0.106894 1.57237 0
M  V30 2863 C 268.783 -0.812526 1.85484 0
M  V30 2864 C 269.111 -1.79304 0.753687 0
M  V30 2865 O 268.366 -1.94047 -0.253853 0
M  V30 2866 C 268.665 -1.58628 3.20268 0
M  V30 2867 C 268.331 -0.748967 4.44636 0
M  V30 2868 C 266.993 -0.518104 4.78403 0
M  V30 2869 C 269.345 -0.166122 5.20935 0
M  V30 2870 C 266.673 0.305659 5.85903 0
M  V30 2871 C 269.025 0.644899 6.29304 0
M  V30 2872 C 267.689 0.885965 6.61594 0
M  V30 2873 H 266.959 -0.297324 0.678734 0
M  V30 2874 H 269.606 -0.0744332 1.91355 0
M  V30 2875 H 267.911 -2.39562 3.10028 0
M  V30 2876 H 269.608 -2.13643 3.39349 0
M  V30 2877 H 266.198 -0.939006 4.18187 0
M  V30 2878 H 270.382 -0.33167 4.95191 0
M  V30 2879 H 265.638 0.501528 6.0934 0
M  V30 2880 H 269.812 1.10345 6.87602 0
M  V30 2881 H 267.439 1.52609 7.44725 0
M  V30 2882 N 269.014 -1.53014 -0.377408 0
M  V30 2883 C 270.262 -1.6829 -1.11906 0
M  V30 2884 C 270.583 -0.431206 -1.90173 0
M  V30 2885 O 269.853 0.554595 -1.87886 0
M  V30 2886 H 268.433 -0.620371 -0.416112 0
M  V30 2887 H 271.095 -1.90167 -0.426893 0
M  V30 2888 H 270.191 -2.53862 -1.8155 0
M  V30 2889 N 270.492 0.636531 -1.44174 0
M  V30 2890 C 271.74 1.39343 -1.46383 0
M  V30 2891 C 272.061 1.94766 -0.0955715 0
M  V30 2892 O 271.331 1.75452 0.871395 0
M  V30 2893 H 269.911 0.517199 -0.538994 0
M  V30 2894 H 272.573 0.74957 -1.7991 0
M  V30 2895 H 271.669 2.22746 -2.18611 0
M  V30 2896 N 271.97 1.30982 0.876444 0
M  V30 2897 C 272.9 1.20668 1.99903 0
M  V30 2898 C 273.881 0.095354 1.69833 0
M  V30 2899 O 275.066 0.27885 1.92188 0
M  V30 2900 C 272.196 0.90655 3.3526 0
M  V30 2901 C 271.15 1.97675 3.79617 0
M  V30 2902 C 270.476 1.52943 5.1236 0
M  V30 2903 C 271.776 3.389 3.97422 0
M  V30 2904 H 273.47 2.14586 2.0879 0
M  V30 2905 H 271.016 1.03308 1.00317 0
M  V30 2906 H 272.969 0.821025 4.13324 0
M  V30 2907 H 271.693 -0.0682969 3.26529 0
M  V30 2908 H 270.352 2.05205 3.03787 0
M  V30 2909 H 270 0.54262 5.00065 0
M  V30 2910 H 269.7 2.24532 5.43009 0
M  V30 2911 H 271.224 1.45786 5.92941 0
M  V30 2912 H 272.638 3.34081 4.659 0
M  V30 2913 H 271.035 4.0865 4.3946 0
M  V30 2914 H 272.105 3.80163 3.01006 0
M  V30 2915 N 273.449 -1.08991 1.13837 0
M  V30 2916 C 274.379 -2.17771 0.842507 0
M  V30 2917 C 275.36 -1.6892 -0.20001 0
M  V30 2918 O 276.545 -1.94113 -0.0579731 0
M  V30 2919 C 273.675 -3.4589 0.312644 0
M  V30 2920 C 272.629 -4.08099 1.28992 0
M  V30 2921 C 271.955 -5.31098 0.619623 0
M  V30 2922 C 273.255 -4.50077 2.65005 0
M  V30 2923 H 274.949 -2.42777 1.75213 0
M  V30 2924 H 272.495 -1.16682 0.843875 0
M  V30 2925 H 274.448 -4.21297 0.0933043 0
M  V30 2926 H 273.172 -3.20419 -0.632382 0
M  V30 2927 H 271.831 -3.34717 1.49533 0
M  V30 2928 H 271.479 -5.0191 -0.33102 0
M  V30 2929 H 271.179 -5.73674 1.27167 0
M  V30 2930 H 272.703 -6.09224 0.409669 0
M  V30 2931 H 274.117 -5.16688 2.48407 0
M  V30 2932 H 272.514 -5.03553 3.26427 0
M  V30 2933 H 273.584 -3.62257 3.22332 0
M  V30 2934 N 274.927 -0.932562 -1.27047 0
M  V30 2935 C 275.875 -0.42603 -2.28665 0
M  V30 2936 C 276.869 0.49219 -1.62092 0
M  V30 2937 O 278.075 0.371355 -1.76128 0
M  V30 2938 H 274.45 -0.119213 -0.742491 0
M  V30 2939 H 276.421 -1.29579 -2.68797 0
M  V30 2940 C 275.17 0.301426 -3.46391 0
M  V30 2941 H 274.493 -0.39595 -3.97834 0
M  V30 2942 H 275.933 0.6202 -4.1944 0
M  V30 2943 C 274.392 1.51616 -3.00856 0
M  V30 2944 O 274.922 2.61476 -3.04948 0
M  V30 2945 N 273.128 1.36969 -2.56296 0
M  V30 2946 H 272.675 0.475873 -2.53166 0
M  V30 2947 H 272.633 2.18368 -2.26192 0
M  V30 2948 N 276.405 1.4127 -0.698611 0
M  V30 2949 C 277.654 2.00408 -0.227949 0
M  V30 2950 C 277.967 1.55981 1.18023 0
M  V30 2951 O 279.173 2.07699 1.74852 0
M  V30 2952 C 277.629 3.58129 -0.356636 0
M  V30 2953 C 277.237 4.11536 -1.77037 0
M  V30 2954 C 278.981 4.24466 0.0540969 0
M  V30 2955 C 276.888 5.61701 -1.85055 0
M  V30 2956 H 275.818 0.749586 -0.0814657 0
M  V30 2957 H 278.469 1.61713 -0.867249 0
M  V30 2958 H 276.851 3.94442 0.350965 0
M  V30 2959 H 278.025 3.86636 -2.50698 0
M  V30 2960 H 276.34 3.57736 -2.13105 0
M  V30 2961 H 278.937 5.34698 0.0146723 0
M  V30 2962 H 279.28 4.01687 1.09332 0
M  V30 2963 H 279.813 3.93198 -0.603337 0
M  V30 2964 H 276.552 5.89312 -2.8704 0
M  V30 2965 H 276.072 5.88519 -1.15783 0
M  V30 2966 H 277.751 6.26524 -1.61484 0
M  V30 2967 N 277.883 0.443576 1.51229 0
M  V30 2968 C 278.83 -0.364716 2.279 0
M  V30 2969 C 279.8 -1.0114 1.31757 0
M  V30 2970 O 280.985 -1.02912 1.60667 0
M  V30 2971 C 278.125 -1.45644 3.12861 0
M  V30 2972 C 277.238 -0.827269 4.24005 0
M  V30 2973 C 276.373 -1.89456 4.96266 0
M  V30 2974 C 275.412 -1.24416 5.99322 0
M  V30 2975 N 274.549 -2.25309 6.64966 0
M  V30 2976 H 279.389 0.295464 2.96532 0
M  V30 2977 H 276.926 0.157554 1.46254 0
M  V30 2978 H 278.884 -2.10076 3.6045 0
M  V30 2979 H 277.514 -2.08616 2.46331 0
M  V30 2980 H 276.566 -0.0710839 3.80334 0
M  V30 2981 H 277.878 -0.312481 4.9782 0
M  V30 2982 H 277.032 -2.61535 5.47434 0
M  V30 2983 H 275.771 -2.4431 4.22095 0
M  V30 2984 H 274.776 -0.508868 5.4744 0
M  V30 2985 H 276.001 -0.702882 6.75453 0
M  V30 2986 H 273.947 -2.79231 5.93604 0
M  V30 2987 H 273.864 -1.78739 7.34567 0
M  V30 2988 H 275.132 -2.96853 7.20763 0
M  V30 2989 N 279.361 -1.56624 0.175154 0
M  V30 2990 C 280.772 -1.83561 -0.340916 0
M  V30 2991 C 281.123 -1.09511 -1.62794 0
M  V30 2992 O 280.248 -0.349389 -2.13561 0
M  V30 2993 C 280.843 -3.32979 -0.625313 0
M  V30 2994 C 279.402 -3.60399 -1.08581 0
M  V30 2995 C 278.549 -2.77024 -0.123722 0
M  V30 2996 H 281.5 -1.53593 0.399344 0
M  V30 2997 H 281.521 -3.50666 -1.47694 0
M  V30 2998 H 281.033 -3.86847 0.311575 0
M  V30 2999 H 279.134 -3.11945 -2.03767 0
M  V30 3000 H 279.247 -4.68711 -0.992317 0
M  V30 3001 H 277.611 -2.46993 -0.621821 0
M  V30 3002 H 278.394 -3.33674 0.807256 0
M  V30 3003 N 280.839 0.0985539 -1.57292 0
M  V30 3004 C 281.769 1.12064 -2.04851 0
M  V30 3005 C 282.75 1.41981 -0.936767 0
M  V30 3006 O 283.935 1.52071 -1.20781 0
M  V30 3007 C 281.065 2.44144 -2.47004 0
M  V30 3008 C 280.019 2.28643 -3.6181 0
M  V30 3009 C 279.345 3.65869 -3.89929 0
M  V30 3010 C 280.645 1.72986 -4.92822 0
M  V30 3011 H 282.339 0.724979 -2.9049 0
M  V30 3012 H 279.885 0.34729 -1.39749 0
M  V30 3013 H 281.838 3.15914 -2.78884 0
M  V30 3014 H 280.562 2.85639 -1.5836 0
M  V30 3015 H 279.221 1.59318 -3.30172 0
M  V30 3016 H 278.869 4.04885 -2.98458 0
M  V30 3017 H 278.569 3.56344 -4.67218 0
M  V30 3018 H 280.093 4.39112 -4.2428 0
M  V30 3019 H 281.507 2.34593 -5.23105 0
M  V30 3020 H 279.904 1.74229 -5.74251 0
M  V30 3021 H 280.974 0.689007 -4.7998 0
M  V30 3022 N 282.317 1.53212 0.369288 0
M  V30 3023 C 283.247 1.82365 1.45826 0
M  V30 3024 C 284.228 0.676907 1.56051 0
M  V30 3025 O 285.413 0.926401 1.70679 0
M  V30 3026 C 282.543 2.01023 2.83208 0
M  V30 3027 C 281.497 3.1678 2.8781 0
M  V30 3028 C 280.823 3.20724 4.27832 0
M  V30 3029 C 282.123 4.55447 2.55667 0
M  V30 3030 H 283.817 2.73559 1.21678 0
M  V30 3031 H 281.363 1.3163 0.583911 0
M  V30 3032 H 283.316 2.20001 3.59413 0
M  V30 3033 H 282.04 1.06536 3.08736 0
M  V30 3034 H 280.699 2.97616 2.14056 0
M  V30 3035 H 280.347 2.23882 4.50429 0
M  V30 3036 H 280.047 3.98496 4.31827 0
M  V30 3037 H 281.571 3.41881 5.05915 0
M  V30 3038 H 282.985 4.74611 3.21586 0
M  V30 3039 H 281.382 5.35432 2.70984 0
M  V30 3040 H 282.452 4.60812 1.5093 0
M  V30 3041 N 283.795 -0.628877 1.44509 0
M  V30 3042 C 284.745 -1.7345 1.47983 0
M  V30 3043 C 285.729 -1.5715 0.345373 0
M  V30 3044 O 286.921 -1.66848 0.590829 0
M  V30 3045 C 284.05 -3.12143 1.42904 0
M  V30 3046 C 283.136 -3.33906 2.61472 0
M  V30 3047 N 283.527 -3.26024 3.86706 0
M  V30 3048 C 281.825 -3.64709 2.56716 0
M  V30 3049 C 282.526 -3.48536 4.65722 0
M  V30 3050 N 281.502 -3.71517 3.96832 0
M  V30 3051 H 285.304 -1.65818 2.42655 0
M  V30 3052 H 282.818 -0.831419 1.39503 0
M  V30 3053 H 284.815 -3.91433 1.43476 0
M  V30 3054 H 283.475 -3.2094 0.492717 0
M  V30 3055 H 284.486 -3.04893 4.18641 0
M  V30 3056 H 281.163 -3.80473 1.71891 0
M  V30 3057 H 282.553 -3.48016 5.74747 0
M  V30 3058 N 285.273 -1.31445 -0.869486 0
M  V30 3059 C 286.519 -1.21337 -1.62496 0
M  V30 3060 C 286.852 0.227872 -1.92858 0
M  V30 3061 O 286.127 1.16094 -1.56053 0
M  V30 3062 C 286.41 -2.05814 -2.95487 0
M  V30 3063 C 286.263 -3.5824 -2.72 0
M  V30 3064 C 287.582 -1.9079 -3.96594 0
M  V30 3065 H 284.701 -0.442135 -0.589649 0
M  V30 3066 H 287.343 -1.6124 -1.00507 0
M  V30 3067 H 285.493 -1.71913 -3.48394 0
M  V30 3068 H 287.165 -4.0228 -2.25762 0
M  V30 3069 H 285.408 -3.81647 -2.06224 0
M  V30 3070 H 286.079 -4.12657 -3.66631 0
M  V30 3071 H 288.555 -2.20459 -3.52898 0
M  V30 3072 H 287.431 -2.52199 -4.87531 0
M  V30 3073 H 287.692 -0.871341 -4.33428 0
M  V30 3074 N 286.751 1.08385 -1.14413 0
M  V30 3075 C 287.661 2.18856 -0.844951 0
M  V30 3076 C 288.677 1.73121 0.174668 0
M  V30 3077 O 289.853 2.014 0.00312857 0
M  V30 3078 C 286.918 3.45155 -0.32696 0
M  V30 3079 C 285.979 4.05513 -1.40916 0
M  V30 3080 C 285.212 5.25784 -0.915793 0
M  V30 3081 O 285.435 5.69884 0.242651 0
M  V30 3082 O 284.369 5.77545 -1.69487 0
M  V30 3083 H 288.195 2.46919 -1.76818 0
M  V30 3084 H 285.78 1.17524 -0.922411 0
M  V30 3085 H 287.662 4.21377 -0.0440211 0
M  V30 3086 H 286.337 3.18668 0.568539 0
M  V30 3087 H 285.244 3.30879 -1.74556 0
M  V30 3088 H 286.577 4.3625 -2.27919 0
M  V30 3089 N 288.23 0.939286 1.26551 0
M  V30 3090 C 289.507 0.5038 1.89001 0
M  V30 3091 C 289.887 -1.01854 1.84903 0
M  V30 3092 O 289.235 -1.87773 1.30206 0
M  V30 3093 C 289.445 1.063 3.32417 0
M  V30 3094 C 290.793 1.13051 4.09273 0
M  V30 3095 O 291.817 1.01345 3.41479 0
M  V30 3096 O 290.676 1.31233 5.30509 0
M  V30 3097 H 287.77 0.163897 0.810597 0
M  V30 3098 H 290.316 1.03173 1.34735 0
M  V30 3099 H 289.088 2.10665 3.29752 0
M  V30 3100 H 288.711 0.517408 3.94219 0
M  V30 3101 N 289.708 -1.40897 0.706093 0
M  V30 3102 C 290.956 -2.00657 0.241054 0
M  V30 3103 C 291.277 -1.56241 -1.16678 0
M  V30 3104 O 290.547 -0.79765 -1.78926 0
M  V30 3105 H 289.127 -0.742018 0.0861308 0
M  V30 3106 H 291.789 -1.72372 0.909604 0
M  V30 3107 H 290.885 -3.10958 0.266705 0
M  V30 3108 N 291.186 -0.45159 -1.50991 0
M  V30 3109 C 292.149 0.341117 -2.26647 0
M  V30 3110 C 293.149 0.937422 -1.30649 0
M  V30 3111 O 294.339 0.809644 -1.54241 0
M  V30 3112 C 291.471 1.48398 -3.06905 0
M  V30 3113 H 292.664 -0.322117 -2.98165 0
M  V30 3114 H 290.217 -0.205122 -1.54948 0
M  V30 3115 H 290.952 2.18284 -2.39838 0
M  V30 3116 H 290.737 1.06241 -3.77432 0
M  V30 3117 H 292.227 2.04367 -3.64176 0
M  V30 3118 N 292.664 1.56529 -0.183458 0
M  V30 3119 C 293.594 2.21549 0.737456 0
M  V30 3120 C 294.575 1.17489 1.23005 0
M  V30 3121 O 295.76 1.45959 1.281 0
M  V30 3122 C 292.89 2.86575 1.96194 0
M  V30 3123 C 291.844 3.96778 1.60473 0
M  V30 3124 C 291.17 4.48911 2.90487 0
M  V30 3125 C 292.47 5.15767 0.823497 0
M  V30 3126 H 294.164 2.98761 0.195453 0
M  V30 3127 H 291.71 1.43702 0.0925686 0
M  V30 3128 H 293.663 3.30739 2.61131 0
M  V30 3129 H 292.387 2.06749 2.52828 0
M  V30 3130 H 291.046 3.53286 0.978997 0
M  V30 3131 H 290.694 3.65862 3.45186 0
M  V30 3132 H 290.394 5.23265 2.67335 0
M  V30 3133 H 291.918 4.95771 3.56432 0
M  V30 3134 H 293.332 5.56549 1.37571 0
M  V30 3135 H 291.729 5.96114 0.690551 0
M  V30 3136 H 292.799 4.84574 -0.177782 0
M  V30 3137 N 294.142 -0.090211 1.57342 0
M  V30 3138 C 295.391 -0.791531 1.8552 0
M  V30 3139 C 295.704 -1.79659 0.773441 0
M  V30 3140 O 296.91 -2.54616 0.942497 0
M  V30 3141 C 295.366 -1.45856 3.2902 0
M  V30 3142 C 294.974 -0.493017 4.45279 0
M  V30 3143 C 296.718 -2.14332 3.66418 0
M  V30 3144 C 294.625 -1.16491 5.79814 0
M  V30 3145 H 293.555 -0.299356 0.692027 0
M  V30 3146 H 296.206 -0.0445343 1.83446 0
M  V30 3147 H 294.588 -2.25318 3.2565 0
M  V30 3148 H 295.762 0.270464 4.60006 0
M  V30 3149 H 294.077 0.0863061 4.16311 0
M  V30 3150 H 296.674 -2.65344 4.64216 0
M  V30 3151 H 297.017 -2.93447 2.95287 0
M  V30 3152 H 297.55 -1.41724 3.71698 0
M  V30 3153 H 294.289 -0.41447 6.54188 0
M  V30 3154 H 293.809 -1.8997 5.68921 0
M  V30 3155 H 295.488 -1.69001 6.24538 0
M  V30 3156 N 295.62 -1.53406 -0.361157 0
M  V30 3157 C 297.031 -1.61442 -0.937728 0
M  V30 3158 C 297.382 -0.48461 -1.90121 0
M  V30 3159 O 296.507 0.388312 -2.12888 0
M  V30 3160 C 297.102 -2.92624 -1.70753 0
M  V30 3161 C 295.661 -3.02981 -2.23337 0
M  V30 3162 C 294.808 -2.5677 -1.04712 0
M  V30 3163 H 297.759 -1.58083 -0.139816 0
M  V30 3164 H 297.78 -2.80675 -2.56908 0
M  V30 3165 H 297.292 -3.74834 -1.00604 0
M  V30 3166 H 295.393 -2.25368 -2.96715 0
M  V30 3167 H 295.506 -4.0814 -2.50916 0
M  V30 3168 H 293.87 -2.11752 -1.41539 0
M  V30 3169 H 294.653 -3.41402 -0.360539 0
M  V30 3170 N 297.098 0.621204 -1.44841 0
M  V30 3171 C 298.028 1.74366 -1.55303 0
M  V30 3172 C 299.009 1.65199 -0.405385 0
M  V30 3173 O 300.194 1.83807 -0.626787 0
M  V30 3174 C 297.324 3.12931 -1.50637 0
M  V30 3175 C 296.278 3.36896 -2.63979 0
M  V30 3176 C 295.604 4.75594 -2.44366 0
M  V30 3177 C 296.904 3.28483 -4.06074 0
M  V30 3178 H 298.598 1.65867 -2.49256 0
M  V30 3179 H 296.144 0.796558 -1.19962 0
M  V30 3180 H 298.097 3.9124 -1.56555 0
M  V30 3181 H 296.821 3.22237 -0.532057 0
M  V30 3182 H 295.48 2.60972 -2.57467 0
M  V30 3183 H 295.128 4.81616 -1.45105 0
M  V30 3184 H 294.828 4.92586 -3.20364 0
M  V30 3185 H 296.352 5.5612 -2.52117 0
M  V30 3186 H 297.766 3.96684 -4.13902 0
M  V30 3187 H 296.163 3.57008 -4.82354 0
M  V30 3188 H 297.233 2.26133 -4.28943 0
M  V30 3189 N 298.576 1.31904 0.862503 0
M  V30 3190 C 299.486 1.22161 2.00285 0
M  V30 3191 C 300.502 0.136785 1.73462 0
M  V30 3192 O 301.678 0.355994 1.98229 0
M  V30 3193 C 298.743 0.937093 3.33796 0
M  V30 3194 C 297.804 2.10957 3.73893 0
M  V30 3195 C 297.037 1.83853 5.01033 0
M  V30 3196 O 297.26 0.777274 5.65079 0
M  V30 3197 O 296.194 2.69741 5.38074 0
M  V30 3198 H 300.02 2.18008 2.11439 0
M  V30 3199 H 297.605 1.11716 0.991957 0
M  V30 3200 H 299.487 0.794583 4.13841 0
M  V30 3201 H 298.162 0.00871894 3.23699 0
M  V30 3202 H 297.069 2.30752 2.94456 0
M  V30 3203 H 298.402 3.02046 3.88625 0
M  V30 3204 N 300.054 -1.07777 1.14986 0
M  V30 3205 C 301.001 -2.14867 0.842672 0
M  V30 3206 C 301.971 -1.6486 -0.202552 0
M  V30 3207 O 303.156 -1.90668 -0.0710568 0
M  V30 3208 C 300.296 -3.43486 0.333363 0
M  V30 3209 C 299.409 -4.07306 1.43965 0
M  V30 3210 C 298.544 -5.23744 0.886914 0
M  V30 3211 C 297.583 -5.79517 1.97043 0
M  V30 3212 N 296.72 -6.87291 1.4344 0
M  V30 3213 H 301.56 -2.40485 1.75986 0
M  V30 3214 H 299.097 -1.1801 0.878179 0
M  V30 3215 H 301.055 -4.17195 0.0198163 0
M  V30 3216 H 299.685 -3.18133 -0.546916 0
M  V30 3217 H 298.737 -3.31293 1.86946 0
M  V30 3218 H 300.049 -4.44771 2.25788 0
M  V30 3219 H 299.203 -6.04419 0.525651 0
M  V30 3220 H 297.942 -4.87685 0.0377957 0
M  V30 3221 H 296.947 -4.97491 2.34057 0
M  V30 3222 H 298.172 -6.17632 2.82325 0
M  V30 3223 H 296.118 -6.5318 0.607567 0
M  V30 3224 H 296.035 -7.23617 2.18895 0
M  V30 3225 H 297.303 -7.71682 1.10124 0
M  V30 3226 N 301.532 -0.945985 -1.26051 0
M  V30 3227 C 302.778 -0.606539 -1.94146 0
M  V30 3228 C 303.133 0.84586 -1.72809 0
M  V30 3229 O 302.426 1.59781 -1.05738 0
M  V30 3230 C 302.62 -0.890475 -3.46129 0
M  V30 3231 C 302.449 -2.36892 -3.82246 0
M  V30 3232 C 301.219 -3.02494 -4.04753 0
M  V30 3233 C 303.417 -3.34772 -3.90425 0
M  V30 3234 N 301.399 -4.40302 -4.27794 0
M  V30 3235 C 302.77 -4.57855 -4.18054 0
M  V30 3236 C 304.825 -3.2973 -3.73072 0
M  V30 3237 C 303.528 -5.76522 -4.30134 0
M  V30 3238 C 305.554 -4.47727 -3.86386 0
M  V30 3239 C 304.916 -5.69593 -4.14419 0
M  V30 3240 H 301.015 -0.272407 -0.73302 0
M  V30 3241 H 303.599 -1.21638 -1.52027 0
M  V30 3242 H 301.77 -0.309638 -3.87164 0
M  V30 3243 H 303.502 -0.51181 -4.01451 0
M  V30 3244 H 300.257 -2.53095 -4.003 0
M  V30 3245 H 300.681 -5.11646 -4.43337 0
M  V30 3246 H 305.323 -2.36565 -3.50424 0
M  V30 3247 H 303.041 -6.70136 -4.51601 0
M  V30 3248 H 306.627 -4.45363 -3.74356 0
M  V30 3249 H 305.507 -6.59375 -4.24493 0
M  V30 3250 N 303.011 1.40521 -0.713556 0
M  V30 3251 C 304.427 1.54839 -0.386907 0
M  V30 3252 C 304.627 1.68532 1.1045 0
M  V30 3253 O 303.683 1.67377 1.89053 0
M  V30 3254 C 304.996 2.77792 -1.15118 0
M  V30 3255 C 306.544 2.91607 -1.13729 0
M  V30 3256 C 307.019 4.1747 -1.88368 0
M  V30 3257 N 308.51 4.24466 -1.85427 0
M  V30 3258 C 309.245 5.20755 -2.40004 0
M  V30 3259 N 308.741 6.22965 -3.03129 0
M  V30 3260 N 310.534 5.1282 -2.30158 0
M  V30 3261 H 302.685 1.29879 -1.68063 0
M  V30 3262 H 304.948 0.627896 -0.710247 0
M  V30 3263 H 304.654 2.73944 -2.20561 0
M  V30 3264 H 304.528 3.6984 -0.741477 0
M  V30 3265 H 306.915 2.94959 -0.0910608 0
M  V30 3266 H 306.996 2.00682 -1.5862 0
M  V30 3267 H 306.64 4.1488 -2.9298 0
M  V30 3268 H 306.57 5.074 -1.40898 0
M  V30 3269 H 309.061 3.51241 -1.3942 0
M  V30 3270 H 309.374 6.92859 -3.42295 0
M  V30 3271 H 307.719 6.23415 -3.07212 0
M  V30 3272 H 310.91 4.31899 -1.80501 0
M  V30 3273 H 311.083 5.87689 -2.72993 0
M  V30 3274 N 304.489 0.459591 1.5075 0
M  V30 3275 C 305.737 -0.0991532 2.01857 0
M  V30 3276 C 306.058 -1.41247 1.34441 0
M  V30 3277 O 305.328 -1.89775 0.486022 0
M  V30 3278 H 303.908 -0.039633 0.745948 0
M  V30 3279 H 306.57 0.607387 1.85194 0
M  V30 3280 H 305.666 -0.258998 3.11023 0
M  V30 3281 N 305.967 -1.56429 0.191757 0
M  V30 3282 C 307.383 -1.58754 -0.164137 0
M  V30 3283 C 307.583 -1.20782 -1.61288 0
M  V30 3284 O 306.639 -0.928999 -2.34789 0
M  V30 3285 C 307.952 -3.00396 0.135195 0
M  V30 3286 C 309.5 -3.1291 0.0750351 0
M  V30 3287 C 309.975 -4.56679 0.347632 0
M  V30 3288 N 311.466 -4.62252 0.296131 0
M  V30 3289 C 312.201 -5.71379 0.480948 0
M  V30 3290 N 311.697 -6.88986 0.725933 0
M  V30 3291 N 313.49 -5.60563 0.415435 0
M  V30 3292 H 305.641 -1.79393 1.13718 0
M  V30 3293 H 307.904 -0.832414 0.453643 0
M  V30 3294 H 307.61 -3.32726 1.13958 0
M  V30 3295 H 307.484 -3.72963 -0.563773 0
M  V30 3296 H 309.871 -2.80394 -0.919948 0
M  V30 3297 H 309.952 -2.42736 0.807029 0
M  V30 3298 H 309.596 -4.89907 1.33992 0
M  V30 3299 H 309.526 -5.25039 -0.405212 0
M  V30 3300 H 312.017 -3.7773 0.113259 0
M  V30 3301 H 312.33 -7.68046 0.855857 0
M  V30 3302 H 310.675 -6.90801 0.762788 0
M  V30 3303 H 313.866 -4.67561 0.224486 0
M  V30 3304 H 314.039 -6.45551 0.562889 0
M  V30 3305 N 307.445 0.0818655 -1.57387 0
M  V30 3306 C 308.392 1.09834 -2.0299 0
M  V30 3307 C 309.362 1.39043 -0.908639 0
M  V30 3308 O 310.547 1.50282 -1.17559 0
M  V30 3309 C 307.687 2.40971 -2.47037 0
M  V30 3310 C 306.8 2.18379 -3.7274 0
M  V30 3311 C 305.935 3.43008 -4.0561 0
M  V30 3312 C 304.974 3.15736 -5.24383 0
M  V30 3313 N 304.111 4.32667 -5.52941 0
M  V30 3314 H 308.951 0.702472 -2.89602 0
M  V30 3315 H 306.488 0.33531 -1.43227 0
M  V30 3316 H 308.446 3.1752 -2.70623 0
M  V30 3317 H 307.076 2.78379 -1.63417 0
M  V30 3318 H 306.128 1.32569 -3.56552 0
M  V30 3319 H 307.44 1.94227 -4.59431 0
M  V30 3320 H 306.594 4.27958 -4.30043 0
M  V30 3321 H 305.333 3.70225 -3.17466 0
M  V30 3322 H 304.338 2.2918 -4.99757 0
M  V30 3323 H 305.563 2.8985 -6.14136 0
M  V30 3324 H 303.509 4.59935 -4.67756 0
M  V30 3325 H 303.426 4.11753 -6.34031 0
M  V30 3326 H 304.694 5.18644 -5.81918 0
M  V30 3327 N 308.923 1.53595 0.353017 0
M  V30 3328 C 309.87 1.80919 1.43308 0
M  V30 3329 C 310.84 0.654288 1.5267 0
M  V30 3330 O 312.025 0.897759 1.6836 0
M  V30 3331 C 309.165 2.01605 2.80089 0
M  V30 3332 C 308.278 3.29321 2.79593 0
M  V30 3333 C 307.413 3.40125 4.0803 0
M  V30 3334 C 306.452 4.61826 4.01725 0
M  V30 3335 N 305.589 4.69716 5.21834 0
M  V30 3336 H 310.429 2.73074 1.19308 0
M  V30 3337 H 307.966 1.35263 0.578131 0
M  V30 3338 H 309.924 2.11586 3.59565 0
M  V30 3339 H 308.554 1.12772 3.0246 0
M  V30 3340 H 307.606 3.28229 1.92276 0
M  V30 3341 H 308.918 4.18884 2.70809 0
M  V30 3342 H 308.072 3.49488 4.95927 0
M  V30 3343 H 306.811 2.48601 4.19582 0
M  V30 3344 H 305.816 4.52552 3.12213 0
M  V30 3345 H 307.041 5.54705 3.91764 0
M  V30 3346 H 304.987 3.81097 5.33948 0
M  V30 3347 H 304.904 5.53202 5.1527 0
M  V30 3348 H 306.172 4.83376 6.11529 0
M  V30 3349 N 310.401 -0.613514 1.45168 0
M  V30 3350 C 311.647 -1.37471 1.49096 0
M  V30 3351 C 311.98 -1.93765 0.129901 0
M  V30 3352 O 311.255 -1.74707 -0.854858 0
M  V30 3353 C 311.538 -2.52701 2.56542 0
M  V30 3354 C 311.391 -2.01643 4.0207 0
M  V30 3355 C 312.71 -3.54849 2.60327 0
M  V30 3356 H 309.829 -0.498502 0.54283 0
M  V30 3357 H 312.471 -0.692125 1.76945 0
M  V30 3358 H 310.621 -3.10931 2.32926 0
M  V30 3359 H 312.293 -1.48108 4.36877 0
M  V30 3360 H 310.536 -1.32688 4.13009 0
M  V30 3361 H 311.207 -2.84681 4.72928 0
M  V30 3362 H 313.683 -3.0645 2.81474 0
M  V30 3363 H 312.559 -4.32973 3.37381 0
M  V30 3364 H 312.82 -4.10079 1.6519 0
M  V30 3365 N 311.879 -1.3236 -0.855495 0
M  V30 3366 C 312.809 -1.23833 -1.97958 0
M  V30 3367 C 313.79 -0.122361 -1.69659 0
M  V30 3368 O 314.975 -0.30939 -1.9172 0
M  V30 3369 C 312.105 -0.959772 -3.33775 0
M  V30 3370 C 311.059 -2.03689 -3.76424 0
M  V30 3371 C 310.385 -1.61075 -5.09862 0
M  V30 3372 C 311.685 -3.4518 -3.9198 0
M  V30 3373 H 313.379 -2.1788 -2.0535 0
M  V30 3374 H 310.925 -1.04891 -0.986605 0
M  V30 3375 H 312.878 -0.886678 -4.11966 0
M  V30 3376 H 311.602 0.0163404 -3.26596 0
M  V30 3377 H 310.261 -2.10012 -3.00484 0
M  V30 3378 H 309.909 -0.622107 -4.99138 0
M  V30 3379 H 309.609 -2.33143 -5.39368 0
M  V30 3380 H 311.133 -1.55201 -5.90546 0
M  V30 3381 H 312.547 -3.4145 -4.60526 0
M  V30 3382 H 310.944 -4.1559 -4.32903 0
M  V30 3383 H 312.014 -3.84903 -2.94919 0
M  V30 3384 N 313.357 1.07166 -1.15556 0
M  V30 3385 C 314.304 2.14417 -0.854055 0
M  V30 3386 C 315.274 1.64965 0.193806 0
M  V30 3387 O 316.459 1.90703 0.0609443 0
M  V30 3388 C 313.599 3.43304 -0.351574 0
M  V30 3389 C 312.712 4.06537 -1.46123 0
M  V30 3390 C 311.847 5.23266 -0.914677 0
M  V30 3391 C 310.886 5.78464 -2.00114 0
M  V30 3392 N 310.023 6.86521 -1.47083 0
M  V30 3393 H 314.863 2.39548 -1.77259 0
M  V30 3394 H 312.4 1.17543 -0.884425 0
M  V30 3395 H 314.358 4.17179 -0.0419409 0
M  V30 3396 H 312.988 3.18419 0.530037 0
M  V30 3397 H 312.04 3.30297 -1.88701 0
M  V30 3398 H 313.352 4.43567 -2.28144 0
M  V30 3399 H 312.506 6.04131 -0.557698 0
M  V30 3400 H 311.245 4.87658 -0.0636583 0
M  V30 3401 H 310.25 4.96243 -2.36692 0
M  V30 3402 H 311.475 6.16126 -2.85597 0
M  V30 3403 H 309.421 6.52849 -0.642198 0
M  V30 3404 H 309.338 7.22446 -2.22729 0
M  V30 3405 H 310.606 7.71087 -1.14215 0
M  V30 3406 N 314.835 0.952656 1.25548 0
M  V30 3407 C 316.251 0.656769 1.4546 0
M  V30 3408 C 316.451 -0.78633 1.85524 0
M  V30 3409 O 315.507 -1.56183 1.98402 0
M  V30 3410 C 316.82 1.62801 2.52817 0
M  V30 3411 C 318.368 1.63897 2.66659 0
M  V30 3412 C 318.843 2.5978 3.77198 0
M  V30 3413 N 320.334 2.58133 3.84606 0
M  V30 3414 C 321.069 3.29003 4.69621 0
M  V30 3415 N 320.565 4.09339 5.58939 0
M  V30 3416 N 322.358 3.179 4.63569 0
M  V30 3417 H 314.509 1.88526 0.978344 0
M  V30 3418 H 316.772 0.810815 0.491206 0
M  V30 3419 H 316.478 2.65869 2.30232 0
M  V30 3420 H 316.352 1.38898 3.50695 0
M  V30 3421 H 318.739 0.615481 2.8861 0
M  V30 3422 H 318.82 1.91858 1.69187 0
M  V30 3423 H 318.464 3.62254 3.55997 0
M  V30 3424 H 318.394 2.29105 4.7415 0
M  V30 3425 H 320.885 1.99809 3.20757 0
M  V30 3426 H 321.198 4.6034 6.20731 0
M  V30 3427 H 319.543 4.13438 5.58654 0
M  V30 3428 H 322.734 2.54612 3.92798 0
M  V30 3429 H 322.907 3.73398 5.29602 0
M  V30 3430 N 316.313 -1.40141 0.720998 0
M  V30 3431 C 317.246 -2.2819 0.020916 0
M  V30 3432 C 318.224 -1.43633 -0.762129 0
M  V30 3433 O 319.408 -1.7304 -0.747633 0
M  V30 3434 C 316.535 -3.24281 -0.977715 0
M  V30 3435 C 315.581 -4.25548 -0.284836 0
M  V30 3436 S 316.414 -5.26247 0.991169 0
M  V30 3437 C 317.57 -6.259 -0.0052214 0
M  V30 3438 H 317.803 -2.87218 0.767649 0
M  V30 3439 H 315.336 -1.45656 0.512233 0
M  V30 3440 H 317.294 -3.80167 -1.54865 0
M  V30 3441 H 315.955 -2.643 -1.69719 0
M  V30 3442 H 315.148 -4.93154 -1.03996 0
M  V30 3443 H 314.75 -3.73389 0.213684 0
M  V30 3444 H 317.042 -6.72143 -0.850279 0
M  V30 3445 H 317.985 -7.05224 0.637599 0
M  V30 3446 H 318.393 -5.63277 -0.371366 0
M  V30 3447 N 317.792 -0.46758 -1.50504 0
M  V30 3448 C 319.038 0.0887532 -2.02606 0
M  V30 3449 C 319.371 1.39686 -1.34913 0
M  V30 3450 O 318.646 1.88644 -0.473694 0
M  V30 3451 C 318.929 0.276206 -3.59039 0
M  V30 3452 C 318.782 -1.05267 -4.37309 0
M  V30 3453 C 320.101 1.03235 -4.27821 0
M  V30 3454 H 317.22 0.0307814 -0.736357 0
M  V30 3455 H 319.862 -0.612485 -1.79857 0
M  V30 3456 H 318.012 0.8735 -3.78553 0
M  V30 3457 H 319.684 -1.68628 -4.29374 0
M  V30 3458 H 317.927 -1.65015 -4.01189 0
M  V30 3459 H 318.598 -0.875197 -5.45018 0
M  V30 3460 H 321.074 0.526111 -4.12761 0
M  V30 3461 H 319.95 1.1323 -5.37094 0
M  V30 3462 H 320.211 2.06806 -3.90748 0
M  V30 3463 N 319.27 1.56325 -0.20005 0
M  V30 3464 C 320.18 2.22931 0.730668 0
M  V30 3465 C 321.196 1.22997 1.23076 0
M  V30 3466 O 322.372 1.55748 1.27689 0
M  V30 3467 C 319.437 2.87948 1.93098 0
M  V30 3468 C 318.498 4.03166 1.47497 0
M  V30 3469 C 317.731 4.65073 2.61807 0
M  V30 3470 O 317.954 4.25913 3.79413 0
M  V30 3471 O 316.888 5.54452 2.34237 0
M  V30 3472 H 320.714 3.03084 0.193391 0
M  V30 3473 H 318.299 1.49371 0.0294621 0
M  V30 3474 H 320.181 3.29063 2.6324 0
M  V30 3475 H 318.856 2.10771 2.45677 0
M  V30 3476 H 317.763 3.66664 0.742201 0
M  V30 3477 H 319.096 4.82022 0.995796 0
M  V30 3478 N 320.748 -0.0735177 1.57428 0
M  V30 3479 C 321.678 -1.0879 2.06608 0
M  V30 3480 C 322.659 -1.40473 0.959237 0
M  V30 3481 O 323.844 -1.5013 1.23185 0
M  V30 3482 C 320.974 -2.40183 2.50857 0
M  V30 3483 C 319.928 -2.22858 3.65402 0
M  V30 3484 C 319.254 -3.59619 3.957 0
M  V30 3485 C 320.554 -1.65123 4.95511 0
M  V30 3486 H 322.248 -0.678673 2.91607 0
M  V30 3487 H 319.794 -0.325013 1.40284 0
M  V30 3488 H 321.747 -3.11437 2.83874 0
M  V30 3489 H 320.471 -2.83083 1.62885 0
M  V30 3490 H 319.13 -1.54045 3.32664 0
M  V30 3491 H 318.778 -4.00086 3.04861 0
M  V30 3492 H 318.478 -3.48866 4.72828 0
M  V30 3493 H 320.002 -4.32306 4.31212 0
M  V30 3494 H 321.416 -2.26241 5.26771 0
M  V30 3495 H 319.813 -1.65071 5.7695 0
M  V30 3496 H 320.883 -0.612559 4.81015 0
M  V30 3497 N 322.226 -1.5378 -0.344866 0
M  V30 3498 C 323.159 -1.7649 -1.4466 0
M  V30 3499 C 324.137 -0.613954 -1.50563 0
M  V30 3500 O 325.321 -0.84896 -1.683 0
M  V30 3501 C 322.448 -1.86235 -2.82903 0
M  V30 3502 C 321.494 -3.08375 -2.94631 0
M  V30 3503 S 322.327 -4.67457 -2.61236 0
M  V30 3504 C 323.483 -4.80079 -4.0159 0
M  V30 3505 H 323.716 -2.69661 -1.2518 0
M  V30 3506 H 321.249 -1.44632 -0.540455 0
M  V30 3507 H 323.207 -1.92535 -3.62547 0
M  V30 3508 H 321.868 -0.940786 -2.9968 0
M  V30 3509 H 321.061 -3.11865 -3.95925 0
M  V30 3510 H 320.663 -3.00294 -2.22934 0
M  V30 3511 H 322.955 -4.61407 -4.96094 0
M  V30 3512 H 323.898 -5.82168 -4.03095 0
M  V30 3513 H 324.306 -4.08544 -3.89554 0
M  V30 3514 N 323.704 0.605807 -1.45491 0
M  V30 3515 C 324.952 1.36207 -1.49305 0
M  V30 3516 C 325.273 1.94519 -0.136863 0
M  V30 3517 O 324.543 1.77261 0.833983 0
M  V30 3518 H 323.123 0.50565 -0.549843 0
M  V30 3519 H 325.785 0.711239 -1.81459 0
M  V30 3520 H 324.881 2.18058 -2.23287 0
M  V30 3521 N 325.182 1.32811 0.848464 0
M  V30 3522 C 326.092 1.24278 1.98978 0
M  V30 3523 C 327.108 0.155176 1.73307 0
M  V30 3524 O 328.284 0.376999 1.9784 0
M  V30 3525 C 325.349 0.972444 3.32783 0
M  V30 3526 C 324.41 2.14911 3.71634 0
M  V30 3527 C 323.643 1.89157 4.99054 0
M  V30 3528 O 323.866 0.837165 5.64223 0
M  V30 3529 O 322.8 2.75433 5.35183 0
M  V30 3530 H 326.626 2.20238 2.09115 0
M  V30 3531 H 324.211 1.12762 0.980052 0
M  V30 3532 H 326.093 0.838432 4.12975 0
M  V30 3533 H 324.768 0.043051 3.23671 0
M  V30 3534 H 323.675 2.33862 2.91992 0
M  V30 3535 H 325.008 3.06151 3.85399 0
M  V30 3536 N 326.66 -1.06551 1.16123 0
M  V30 3537 C 328.076 -1.3142 0.905585 0
M  V30 3538 C 328.276 -1.96571 -0.442964 0
M  V30 3539 O 327.332 -2.23068 -1.18308 0
M  V30 3540 C 328.645 -2.19741 2.05267 0
M  V30 3541 C 330.193 -2.33165 2.08813 0
M  V30 3542 C 330.668 -3.24838 3.22868 0
M  V30 3543 N 332.159 -3.32421 3.22568 0
M  V30 3544 C 332.894 -4.0344 4.0746 0
M  V30 3545 N 332.39 -4.77003 5.02434 0
M  V30 3546 N 334.183 -3.99464 3.95456 0
M  V30 3547 H 326.334 -0.626548 2.02949 0
M  V30 3548 H 328.597 -0.338777 0.8854 0
M  V30 3549 H 328.303 -1.79142 3.02657 0
M  V30 3550 H 328.177 -3.20313 1.99198 0
M  V30 3551 H 330.564 -2.73013 1.12018 0
M  V30 3552 H 330.645 -1.3227 2.18948 0
M  V30 3553 H 330.289 -2.85708 4.19921 0
M  V30 3554 H 330.219 -4.25707 3.0997 0
M  V30 3555 H 332.71 -2.79994 2.53795 0
M  V30 3556 H 333.023 -5.28712 5.63634 0
M  V30 3557 H 331.368 -4.75992 5.06415 0
M  V30 3558 H 334.559 -3.4111 3.20564 0
M  V30 3559 H 334.732 -4.54544 4.61837 0
M  V30 3560 N 328.138 -0.959301 -1.25041 0
M  V30 3561 C 329.386 -0.615393 -1.92503 0
M  V30 3562 C 329.707 0.850969 -1.75452 0
M  V30 3563 O 328.977 1.60658 -1.12098 0
M  V30 3564 H 327.557 -0.224613 -0.712431 0
M  V30 3565 H 330.219 -1.21855 -1.5211 0
M  V30 3566 H 329.315 -0.848738 -3.00338 0
M  V30 3567 N 329.616 1.39756 -0.72842 0
M  V30 3568 C 330.893 1.94574 -0.200079 0
M  V30 3569 C 331.273 1.66569 1.29684 0
M  V30 3570 O 330.621 0.990326 2.05924 0
M  V30 3571 C 330.831 3.45004 -0.526608 0
M  V30 3572 C 332.179 4.21965 -0.472318 0
M  V30 3573 O 333.203 3.53173 -0.463413 0
M  V30 3574 O 332.062 5.44552 -0.461075 0
M  V30 3575 H 329.156 0.826289 -0.0342851 0
M  V30 3576 H 331.702 1.49293 -0.806829 0
M  V30 3577 H 330.474 3.58796 -1.56144 0
M  V30 3578 H 330.097 3.97449 0.109449 0
M  V30 3579 N 331.094 0.475555 1.50254 0
M  V30 3580 C 332.371 -0.139685 1.95101 0
M  V30 3581 C 332.751 -1.56555 1.41611 0
M  V30 3582 O 332.099 -2.19956 0.618993 0
M  V30 3583 C 332.309 -0.0784298 3.48912 0
M  V30 3584 C 333.657 -0.265095 4.23772 0
M  V30 3585 O 334.681 -0.154808 3.55863 0
M  V30 3586 O 333.54 -0.488327 5.44314 0
M  V30 3587 H 330.634 -0.109236 0.819754 0
M  V30 3588 H 333.18 0.536276 1.61004 0
M  V30 3589 H 331.952 0.916918 3.80405 0
M  V30 3590 H 331.575 -0.795655 3.89558 0
M  V30 3591 N 332.573 -1.56217 0.208337 0
M  V30 3592 C 333.503 -2.22694 -0.702116 0
M  V30 3593 C 334.484 -1.19432 -1.2112 0
M  V30 3594 O 335.669 -1.47978 -1.25762 0
M  V30 3595 C 332.799 -2.8966 -1.9161 0
M  V30 3596 C 331.753 -3.9928 -1.5414 0
M  V30 3597 C 331.079 -4.53476 -2.83308 0
M  V30 3598 C 332.379 -5.17012 -0.741339 0
M  V30 3599 H 334.073 -2.99034 -0.147898 0
M  V30 3600 H 331.619 -1.43831 -0.0696951 0
M  V30 3601 H 333.572 -3.34852 -2.55836 0
M  V30 3602 H 332.296 -2.10746 -2.49507 0
M  V30 3603 H 330.955 -3.54799 -0.922668 0
M  V30 3604 H 330.603 -3.71308 -3.39322 0
M  V30 3605 H 330.303 -5.27451 -2.58976 0
M  V30 3606 H 331.827 -5.01378 -3.485 0
M  V30 3607 H 333.241 -5.58667 -1.28699 0
M  V30 3608 H 331.638 -5.97137 -0.595627 0
M  V30 3609 H 332.708 -4.8423 0.254851 0
M  V30 3610 N 334.051 0.0651679 -1.57465 0
M  V30 3611 C 334.983 1.10359 -2.00882 0
M  V30 3612 C 335.996 1.346 -0.915788 0
M  V30 3613 O 337.185 1.32723 -1.1936 0
M  V30 3614 C 334.285 2.45312 -2.33828 0
M  V30 3615 C 333.458 2.40934 -3.65061 0
M  V30 3616 C 332.517 3.58047 -3.85602 0
M  V30 3617 O 331.543 3.39175 -4.57109 0
M  V30 3618 N 332.745 4.78637 -3.28462 0
M  V30 3619 H 335.51 0.733807 -2.90578 0
M  V30 3620 H 333.071 0.253719 -1.599 0
M  V30 3621 H 335.063 3.22314 -2.44737 0
M  V30 3622 H 333.633 2.74267 -1.49988 0
M  V30 3623 H 332.853 1.49273 -3.64844 0
M  V30 3624 H 334.141 2.35117 -4.51218 0
M  V30 3625 H 333.539 4.96872 -2.70433 0
M  V30 3626 H 332.096 5.53127 -3.44809 0
M  V30 3627 N 335.529 1.53961 0.336706 0
M  V30 3628 C 336.476 1.82428 1.41381 0
M  V30 3629 C 337.446 0.670444 1.51968 0
M  V30 3630 O 338.631 0.915565 1.67398 0
M  V30 3631 C 335.771 2.04564 2.77934 0
M  V30 3632 C 334.884 3.32267 2.76084 0
M  V30 3633 C 334.019 3.44434 4.04399 0
M  V30 3634 C 333.058 4.66061 3.96804 0
M  V30 3635 N 332.195 4.75224 5.16823 0
M  V30 3636 H 337.035 2.74324 1.16405 0
M  V30 3637 H 334.572 1.35869 0.563752 0
M  V30 3638 H 336.53 2.15388 3.57301 0
M  V30 3639 H 335.16 1.15974 3.01247 0
M  V30 3640 H 334.212 3.3025 1.88784 0
M  V30 3641 H 335.524 4.21733 2.66351 0
M  V30 3642 H 334.678 3.54728 4.92192 0
M  V30 3643 H 333.417 2.53037 4.16921 0
M  V30 3644 H 332.422 4.55838 3.07396 0
M  V30 3645 H 333.647 5.58829 3.85858 0
M  V30 3646 H 331.593 3.86739 5.29876 0
M  V30 3647 H 331.51 5.58636 5.09374 0
M  V30 3648 H 332.778 4.89835 6.06367 0
M  V30 3649 N 337.007 -0.598083 1.45811 0
M  V30 3650 C 337.939 -1.72231 1.51225 0
M  V30 3651 C 338.952 -1.57757 0.402059 0
M  V30 3652 O 340.141 -1.65464 0.669624 0
M  V30 3653 C 337.241 -3.10331 1.3619 0
M  V30 3654 C 336.414 -3.50955 2.61054 0
M  V30 3655 C 335.473 -4.68055 2.40439 0
M  V30 3656 O 334.499 -4.74691 3.14097 0
M  V30 3657 N 335.701 -5.61941 1.45612 0
M  V30 3658 H 338.466 -1.68046 2.48154 0
M  V30 3659 H 336.027 -0.783637 1.41671 0
M  V30 3660 H 338.019 -3.86439 1.20195 0
M  V30 3661 H 336.589 -3.0897 0.475015 0
M  V30 3662 H 335.809 -2.64711 2.92099 0
M  V30 3663 H 337.097 -3.74858 3.44034 0
M  V30 3664 H 336.495 -5.59301 0.848431 0
M  V30 3665 H 335.052 -6.37542 1.35585 0
M  V30 3666 N 338.485 -1.33259 -0.841409 0
M  V30 3667 C 339.713 -1.27605 -1.62864 0
M  V30 3668 C 340.128 0.153507 -1.88175 0
M  V30 3669 O 339.485 1.09485 -1.46011 0
M  V30 3670 C 339.536 -2.04596 -2.98031 0
M  V30 3671 O 339.257 -3.41975 -2.73834 0
M  V30 3672 C 340.758 -2.06122 -3.92465 0
M  V30 3673 H 337.978 -0.439718 -0.506842 0
M  V30 3674 H 340.522 -1.75591 -1.04824 0
M  V30 3675 H 338.677 -1.60299 -3.5268 0
M  V30 3676 H 339.091 -3.81549 -3.59889 0
M  V30 3677 H 340.565 -2.64451 -4.84531 0
M  V30 3678 H 341.042 -1.05083 -4.26444 0
M  V30 3679 H 341.648 -2.50427 -3.43753 0
M  V30 3680 N 339.963 1.05934 -1.16686 0
M  V30 3681 C 341.212 1.78188 -0.945085 0
M  V30 3682 C 341.525 1.88338 0.528021 0
M  V30 3683 O 342.731 2.57258 0.867799 0
M  V30 3684 C 341.187 3.20277 -1.64167 0
M  V30 3685 C 340.795 3.18281 -3.15279 0
M  V30 3686 C 342.539 3.97039 -1.502 0
M  V30 3687 C 340.446 4.55112 -3.7766 0
M  V30 3688 H 339.376 0.667866 -0.349959 0
M  V30 3689 H 342.027 1.18794 -1.39858 0
M  V30 3690 H 340.409 3.79952 -1.11589 0
M  V30 3691 H 341.583 2.68167 -3.74731 0
M  V30 3692 H 339.898 2.55018 -3.29173 0
M  V30 3693 H 342.495 4.98194 -1.94183 0
M  V30 3694 H 342.838 4.13845 -0.451461 0
M  V30 3695 H 343.371 3.43894 -1.99954 0
M  V30 3696 H 340.11 4.43512 -4.82677 0
M  V30 3697 H 339.63 5.05406 -3.22994 0
M  V30 3698 H 341.309 5.24064 -3.79428 0
M  V30 3699 N 341.441 0.965919 1.2453 0
M  V30 3700 C 342.689 0.625593 1.92174 0
M  V30 3701 C 343.01 -0.841652 1.75901 0
M  V30 3702 O 342.28 -1.60061 1.12948 0
M  V30 3703 H 340.86 0.228388 0.71123 0
M  V30 3704 H 343.522 1.2266 1.51461 0
M  V30 3705 H 342.618 0.864653 2.99884 0
M  V30 3706 N 342.919 -1.39368 0.735821 0
M  V30 3707 C 344.168 -1.99733 0.281004 0
M  V30 3708 C 344.481 -1.59055 -1.13846 0
M  V30 3709 O 345.687 -2.12262 -1.69284 0
M  V30 3710 C 344.143 -3.57057 0.451462 0
M  V30 3711 C 343.751 -4.06697 1.87886 0
M  V30 3712 C 345.495 -4.2446 0.0584616 0
M  V30 3713 C 343.402 -5.56598 1.99883 0
M  V30 3714 H 342.332 -0.747163 0.101311 0
M  V30 3715 H 344.983 -1.59357 0.909819 0
M  V30 3716 H 343.365 -3.95234 -0.246263 0
M  V30 3717 H 344.539 -3.79853 2.60861 0
M  V30 3718 H 342.854 -3.5196 2.22515 0
M  V30 3719 H 345.451 -5.34549 0.127099 0
M  V30 3720 H 345.794 -4.04444 -0.986433 0
M  V30 3721 H 346.327 -3.9146 0.707374 0
M  V30 3722 H 343.066 -5.81494 3.02564 0
M  V30 3723 H 342.586 -5.85242 1.31346 0
M  V30 3724 H 344.265 -6.22022 1.78039 0
M  V30 3725 N 344.397 -0.483516 -1.5 0
M  V30 3726 C 345.622 0.0667119 -2.07293 0
M  V30 3727 C 346.047 1.3164 -1.3436 0
M  V30 3728 O 345.405 1.76945 -0.394987 0
M  V30 3729 C 345.453 0.321126 -3.59167 0
M  V30 3730 O 344.557 1.39927 -3.87936 0
M  V30 3731 H 343.898 -0.0184758 -0.663743 0
M  V30 3732 H 346.428 -0.678125 -1.93035 0
M  V30 3733 H 346.438 0.557906 -4.04168 0
M  V30 3734 H 345.113 -0.592007 -4.11665 0
M  V30 3735 H 343.69 1.14882 -3.54763 0
M  V30 3736 N 345.875 1.56104 -0.216619 0
M  V30 3737 C 346.825 2.16703 0.708798 0
M  V30 3738 C 347.809 1.11392 1.16106 0
M  V30 3739 O 349.001 1.37395 1.11587 0
M  V30 3740 C 346.13 2.84666 1.91886 0
M  V30 3741 C 345.216 3.97195 1.48651 0
M  V30 3742 N 345.607 4.99959 0.766434 0
M  V30 3743 C 343.905 4.09193 1.77418 0
M  V30 3744 C 344.606 5.79126 0.546659 0
M  V30 3745 N 343.582 5.32315 1.10188 0
M  V30 3746 H 347.384 2.93516 0.150162 0
M  V30 3747 H 344.898 1.6239 -0.0176768 0
M  V30 3748 H 346.895 3.26486 2.59253 0
M  V30 3749 H 345.555 2.09347 2.48202 0
M  V30 3750 H 346.566 5.16197 0.419634 0
M  V30 3751 H 343.243 3.45021 2.35088 0
M  V30 3752 H 344.633 6.71895 -0.026103 0
M  V30 3753 N 347.353 -0.0568162 1.57498 0
M  V30 3754 C 348.316 -1.05038 2.03715 0
M  V30 3755 C 349.316 -1.30709 0.936577 0
M  V30 3756 O 350.506 -1.26178 1.20103 0
M  V30 3757 C 347.638 -2.39034 2.43055 0
M  V30 3758 H 348.831 -0.651715 2.92733 0
M  V30 3759 H 346.384 -0.302947 1.53336 0
M  V30 3760 H 347.119 -2.83703 1.57108 0
M  V30 3761 H 346.904 -2.21739 3.2338 0
M  V30 3762 H 348.394 -3.10421 2.79336 0
M  V30 3763 N 348.832 -1.54138 -0.328536 0
M  V30 3764 C 350.109 -1.62749 -1.08499 0
M  V30 3765 C 350.489 -0.458198 -2.06067 0
M  V30 3766 O 349.837 0.548046 -2.2183 0
M  V30 3767 C 350.047 -2.99519 -1.79135 0
M  V30 3768 C 351.395 -3.55394 -2.32337 0
M  V30 3769 O 352.419 -3.01792 -1.89209 0
M  V30 3770 O 351.278 -4.49186 -3.11279 0
M  V30 3771 H 348.372 -0.65886 -0.499832 0
M  V30 3772 H 350.918 -1.66484 -0.328826 0
M  V30 3773 H 349.69 -3.76061 -1.08139 0
M  V30 3774 H 349.313 -2.99441 -2.61574 0
M  V30 3775 N 350.31 0.590341 -1.46126 0
M  V30 3776 C 351.587 1.35029 -1.41515 0
M  V30 3777 C 351.967 2.10888 -0.0946472 0
M  V30 3778 O 351.315 2.08998 0.923693 0
M  V30 3779 C 351.525 2.28269 -2.63997 0
M  V30 3780 C 352.873 2.90338 -3.09821 0
M  V30 3781 O 353.897 2.38585 -2.64492 0
M  V30 3782 O 352.756 3.84321 -3.88535 0
M  V30 3783 H 349.85 0.606317 -0.562413 0
M  V30 3784 H 352.396 0.611994 -1.58281 0
M  V30 3785 H 351.168 1.71591 -3.51671 0
M  V30 3786 H 350.791 3.0945 -2.49652 0
M  V30 3787 N 351.788 1.33704 0.83433 0
M  V30 3788 C 352.698 1.26382 1.97648 0
M  V30 3789 C 353.714 0.173548 1.73132 0
M  V30 3790 O 354.89 0.397962 1.97429 0
M  V30 3791 C 351.955 1.00769 3.31733 0
M  V30 3792 C 351.016 2.1884 3.69334 0
M  V30 3793 C 350.249 1.9444 4.9702 0
M  V30 3794 O 350.472 0.896961 5.63303 0
M  V30 3795 O 349.406 2.81093 5.32231 0
M  V30 3796 H 353.232 2.22444 2.06767 0
M  V30 3797 H 350.817 1.13795 0.968037 0
M  V30 3798 H 352.699 0.882186 4.12062 0
M  V30 3799 H 351.374 0.0773783 3.23608 0
M  V30 3800 H 350.281 2.36946 2.89495 0
M  V30 3801 H 351.614 3.10221 3.82131 0
M  V30 3802 N 353.266 -1.05314 1.17247 0
M  V30 3803 C 354.176 -2.16538 0.90268 0
M  V30 3804 C 355.192 -1.73523 -0.128707 0
M  V30 3805 O 356.368 -2.01337 0.0502701 0
M  V30 3806 C 353.433 -3.44167 0.418356 0
M  V30 3807 C 352.494 -4.01635 1.51618 0
M  V30 3808 C 351.727 -5.23171 1.05487 0
M  V30 3809 O 351.95 -5.70327 -0.0914715 0
M  V30 3810 O 350.884 -5.72848 1.8474 0
M  V30 3811 H 354.71 -2.42145 1.83302 0
M  V30 3812 H 352.295 -1.15037 0.953246 0
M  V30 3813 H 354.177 -4.21112 0.155726 0
M  V30 3814 H 352.852 -3.20063 -0.48385 0
M  V30 3815 H 351.759 -3.26135 1.83268 0
M  V30 3816 H 353.092 -4.30053 2.39405 0
M  V30 3817 N 354.744 -0.972509 -1.24016 0
M  V30 3818 C 355.972 -0.654803 -1.96265 0
M  V30 3819 C 356.387 0.776708 -1.72083 0
M  V30 3820 O 355.744 1.52171 -1.00748 0
M  V30 3821 C 355.795 -0.92592 -3.49441 0
M  V30 3822 O 355.516 -2.30116 -3.72798 0
M  V30 3823 C 357.017 -0.623068 -4.38899 0
M  V30 3824 H 354.237 -0.243907 -0.6251 0
M  V30 3825 H 356.781 -1.30175 -1.57717 0
M  V30 3826 H 354.936 -0.325108 -3.86033 0
M  V30 3827 H 355.35 -2.38483 -4.67147 0
M  V30 3828 H 356.824 -0.863189 -5.45209 0
M  V30 3829 H 357.301 0.442754 -4.36963 0
M  V30 3830 H 357.907 -1.204 -4.07902 0
M  V30 3831 N 356.222 1.38976 -0.743202 0
M  V30 3832 C 357.185 2.28901 -0.117014 0
M  V30 3833 C 358.185 1.46698 0.658503 0
M  V30 3834 O 359.375 1.67274 0.486305 0
M  V30 3835 C 356.507 3.30309 0.84315 0
M  V30 3836 H 357.7 2.8578 -0.909373 0
M  V30 3837 H 355.253 1.47761 -0.509547 0
M  V30 3838 H 355.988 2.785 1.66157 0
M  V30 3839 H 355.773 3.91029 0.289594 0
M  V30 3840 H 357.263 3.97577 1.2776 0
M  V30 3841 N 357.7 0.491464 1.49741 0
M  V30 3842 C 358.63 -0.28154 2.31796 0
M  V30 3843 C 359.611 -0.971473 1.3963 0
M  V30 3844 O 360.796 -0.964719 1.68543 0
M  V30 3845 C 357.926 -1.35203 3.19902 0
M  V30 3846 C 356.88 -0.782529 4.20786 0
M  V30 3847 C 356.206 -1.95283 4.97764 0
M  V30 3848 C 357.506 0.21999 5.21837 0
M  V30 3849 H 359.2 0.403355 2.96671 0
M  V30 3850 H 356.746 0.195425 1.42668 0
M  V30 3851 H 358.699 -1.90045 3.76113 0
M  V30 3852 H 357.423 -2.06598 2.52953 0
M  V30 3853 H 356.082 -0.255928 3.65706 0
M  V30 3854 H 355.73 -2.65423 4.2727 0
M  V30 3855 H 355.43 -1.57789 5.66018 0
M  V30 3856 H 356.954 -2.50577 5.56816 0
M  V30 3857 H 358.368 -0.23996 5.72798 0
M  V30 3858 H 356.765 0.51026 5.97927 0
M  V30 3859 H 357.835 1.13911 4.7133 0
M  V30 3860 N 359.178 -1.55987 0.224894 0
M  V30 3861 C 360.088 -2.24066 -0.69511 0
M  V30 3862 C 361.104 -1.24939 -1.21104 0
M  V30 3863 O 362.28 -1.5776 -1.25195 0
M  V30 3864 C 359.345 -2.90983 -1.88493 0
M  V30 3865 C 358.406 -4.05462 -1.41064 0
M  V30 3866 C 357.639 -4.69179 -2.54375 0
M  V30 3867 O 357.862 -4.31895 -3.72589 0
M  V30 3868 O 356.796 -5.58108 -2.25386 0
M  V30 3869 H 360.622 -3.03353 -0.145149 0
M  V30 3870 H 358.207 -1.49399 -0.00569476 0
M  V30 3871 H 360.089 -3.33209 -2.57972 0
M  V30 3872 H 358.764 -2.14653 -2.42293 0
M  V30 3873 H 357.671 -3.67798 -0.683774 0
M  V30 3874 H 359.004 -4.83545 -0.918985 0
M  V30 3875 N 360.656 0.0484629 -1.57525 0
M  V30 3876 C 361.586 1.0549 -2.08313 0
M  V30 3877 C 362.567 1.38929 -0.981463 0
M  V30 3878 O 363.752 1.48151 -1.25558 0
M  V30 3879 C 360.882 2.36162 -2.54646 0
M  V30 3880 C 359.836 2.17016 -3.68901 0
M  V30 3881 C 359.162 3.53278 -4.01371 0
M  V30 3882 C 360.462 1.57219 -4.98076 0
M  V30 3883 H 362.156 0.632195 -2.92649 0
M  V30 3884 H 359.702 0.302654 -1.40784 0
M  V30 3885 H 361.655 3.06882 -2.88793 0
M  V30 3886 H 360.379 2.80456 -1.67368 0
M  V30 3887 H 359.038 1.48733 -3.35073 0
M  V30 3888 H 358.686 3.95185 -3.11188 0
M  V30 3889 H 358.386 3.41299 -4.78318 0
M  V30 3890 H 359.91 4.25391 -4.38035 0
M  V30 3891 H 361.324 2.17832 -5.30304 0
M  V30 3892 H 359.721 1.55871 -5.79503 0
M  V30 3893 H 360.791 0.535956 -4.81929 0
M  V30 3894 N 362.134 1.5431 0.320358 0
M  V30 3895 C 363.081 1.83918 1.39438 0
M  V30 3896 C 364.051 0.686525 1.51248 0
M  V30 3897 O 365.236 0.933269 1.66417 0
M  V30 3898 C 362.376 2.075 2.75749 0
M  V30 3899 C 361.489 3.35177 2.72544 0
M  V30 3900 C 360.624 3.48704 4.00723 0
M  V30 3901 C 359.663 4.70244 3.91838 0
M  V30 3902 N 358.8 4.80679 5.11754 0
M  V30 3903 H 363.64 2.75544 1.13489 0
M  V30 3904 H 361.177 1.36459 0.549309 0
M  V30 3905 H 363.135 2.19166 3.54996 0
M  V30 3906 H 361.765 1.19163 3 0
M  V30 3907 H 360.817 3.32233 1.85271 0
M  V30 3908 H 362.129 4.24534 2.61863 0
M  V30 3909 H 361.283 3.59928 4.88402 0
M  V30 3910 H 360.022 2.57445 4.14214 0
M  V30 3911 H 359.027 4.59072 3.02544 0
M  V30 3912 H 360.252 5.6289 3.7991 0
M  V30 3913 H 358.198 3.92337 5.25745 0
M  V30 3914 H 358.115 5.64007 5.0342 0
M  V30 3915 H 359.383 4.96239 6.01138 0
M  V30 3916 N 363.613 -0.582584 1.46437 0
M  V30 3917 C 364.545 -1.70618 1.53043 0
M  V30 3918 C 365.558 -1.57322 0.418769 0
M  V30 3919 O 366.747 -1.64744 0.687136 0
M  V30 3920 C 363.847 -3.08869 1.39474 0
M  V30 3921 C 363.02 -3.48166 2.64762 0
M  V30 3922 C 362.079 -4.65478 2.4539 0
M  V30 3923 O 361.105 -4.71333 3.19114 0
M  V30 3924 N 362.307 -5.60365 1.51564 0
M  V30 3925 H 365.072 -1.65405 2.49923 0
M  V30 3926 H 362.633 -0.768567 1.42494 0
M  V30 3927 H 364.625 -3.85143 1.24287 0
M  V30 3928 H 363.195 -3.08449 0.507758 0
M  V30 3929 H 362.415 -2.61598 2.9489 0
M  V30 3930 H 363.703 -3.71188 3.4799 0
M  V30 3931 H 363.101 -5.5837 0.907705 0
M  V30 3932 H 361.658 -6.36068 1.4234 0
M  V30 3933 N 365.091 -1.34144 -0.827227 0
M  V30 3934 C 366.024 -1.19707 -1.94282 0
M  V30 3935 C 367.002 -0.0897256 -1.62352 0
M  V30 3936 O 368.186 -0.254095 -1.8678 0
M  V30 3937 C 365.313 -0.838646 -3.28153 0
M  V30 3938 C 364.359 -1.95514 -3.79047 0
M  V30 3939 S 365.192 -3.56793 -3.99323 0
M  V30 3940 C 366.348 -3.22983 -5.36127 0
M  V30 3941 H 366.581 -2.1414 -2.06231 0
M  V30 3942 H 364.114 -1.19121 -0.982321 0
M  V30 3943 H 366.072 -0.638637 -4.05502 0
M  V30 3944 H 364.733 0.0872776 -3.13979 0
M  V30 3945 H 363.926 -1.658 -4.75948 0
M  V30 3946 H 363.528 -2.11241 -3.08631 0
M  V30 3947 H 365.82 -2.74531 -6.19386 0
M  V30 3948 H 366.763 -4.19008 -5.70822 0
M  V30 3949 H 367.171 -2.59276 -5.01434 0
M  V30 3950 N 366.569 1.04691 -1.17803 0
M  V30 3951 C 367.818 1.77176 -0.963931 0
M  V30 3952 C 368.131 1.88888 0.508015 0
M  V30 3953 O 369.337 2.58164 0.840465 0
M  V30 3954 C 367.793 3.18518 -1.67555 0
M  V30 3955 C 367.401 3.14919 -3.18637 0
M  V30 3956 C 369.145 3.95424 -1.54402 0
M  V30 3957 C 367.052 4.51081 -3.82466 0
M  V30 3958 H 365.982 0.664116 -0.357023 0
M  V30 3959 H 368.633 1.17303 -1.4111 0
M  V30 3960 H 367.015 3.78748 -1.15613 0
M  V30 3961 H 368.189 2.64178 -3.77554 0
M  V30 3962 H 366.504 2.51512 -3.31859 0
M  V30 3963 H 369.101 4.96106 -1.99456 0
M  V30 3964 H 369.444 4.13343 -0.495329 0
M  V30 3965 H 369.977 3.41754 -2.0359 0
M  V30 3966 H 366.716 4.38368 -4.87354 0
M  V30 3967 H 366.236 5.01951 -3.28337 0
M  V30 3968 H 367.915 5.2001 -3.84965 0
M  V30 3969 N 368.047 0.979072 1.23499 0
M  V30 3970 C 368.957 0.526431 2.28617 0
M  V30 3971 C 369.973 -0.418126 1.68901 0
M  V30 3972 O 371.149 -0.288372 1.99325 0
M  V30 3973 C 368.214 -0.165235 3.46306 0
M  V30 3974 C 367.275 0.82056 4.21385 0
M  V30 3975 C 366.508 0.161807 5.33455 0
M  V30 3976 O 366.731 -1.04742 5.60701 0
M  V30 3977 O 365.665 0.859708 5.95729 0
M  V30 3978 H 369.491 1.4006 2.69475 0
M  V30 3979 H 367.076 0.746643 1.29405 0
M  V30 3980 H 368.958 -0.553287 4.17752 0
M  V30 3981 H 367.633 -1.01419 3.07402 0
M  V30 3982 H 366.54 1.25929 3.52268 0
M  V30 3983 H 367.873 1.63828 4.64135 0
M  V30 3984 N 369.525 -1.3858 0.750561 0
M  V30 3985 C 370.435 -2.34278 0.122825 0
M  V30 3986 C 371.451 -1.59116 -0.704131 0
M  V30 3987 O 372.627 -1.91326 -0.628987 0
M  V30 3988 C 369.692 -3.38221 -0.762086 0
M  V30 3989 C 368.753 -4.29227 0.078896 0
M  V30 3990 C 367.986 -5.28205 -0.763874 0
M  V30 3991 O 368.209 -5.34112 -2.00201 0
M  V30 3992 O 367.143 -6.01618 -0.18428 0
M  V30 3993 H 370.969 -2.89649 0.913088 0
M  V30 3994 H 368.554 -1.40374 0.511417 0
M  V30 3995 H 370.436 -4.01872 -1.26793 0
M  V30 3996 H 369.111 -2.85211 -1.5309 0
M  V30 3997 H 368.018 -3.68747 0.630621 0
M  V30 3998 H 369.351 -4.85484 0.810289 0
M  V30 3999 N 371.003 -0.499398 -1.49478 0
M  V30 4000 C 372.231 0.0425456 -2.06856 0
M  V30 4001 C 372.646 1.30964 -1.35992 0
M  V30 4002 O 372.003 1.77172 -0.437762 0
M  V30 4003 C 372.054 0.301735 -3.60239 0
M  V30 4004 O 371.775 -0.915127 -4.28436 0
M  V30 4005 C 373.276 0.887499 -4.34325 0
M  V30 4006 H 370.496 -0.0197482 -0.670709 0
M  V30 4007 H 373.04 -0.696297 -1.92281 0
M  V30 4008 H 371.195 0.990556 -3.74522 0
M  V30 4009 H 371.609 -0.676993 -5.20113 0
M  V30 4010 H 373.083 1.01845 -5.42523 0
M  V30 4011 H 373.56 1.88488 -3.96698 0
M  V30 4012 H 374.166 0.236196 -4.24644 0
M  V30 4013 N 372.481 1.55866 -0.233164 0
M  V30 4014 C 373.431 2.17442 0.685774 0
M  V30 4015 C 374.415 1.12617 1.14918 0
M  V30 4016 O 375.607 1.3857 1.10124 0
M  V30 4017 C 372.736 2.86685 1.88856 0
M  V30 4018 C 371.822 3.98749 1.4443 0
M  V30 4019 N 372.213 5.00744 0.713364 0
M  V30 4020 C 370.511 4.11052 1.73068 0
M  V30 4021 C 371.212 5.79673 0.485205 0
M  V30 4022 N 370.188 5.33454 1.04536 0
M  V30 4023 H 373.99 2.93659 0.119022 0
M  V30 4024 H 371.504 1.62362 -0.0348995 0
M  V30 4025 H 373.501 3.29218 2.55776 0
M  V30 4026 H 372.161 2.11967 2.45967 0
M  V30 4027 H 373.172 5.16613 0.364861 0
M  V30 4028 H 369.849 3.47495 2.31416 0
M  V30 4029 H 371.239 6.71829 -0.097365 0
M  V30 4030 N 373.959 -0.0401083 1.57549 0
M  V30 4031 C 375.207 -0.731677 1.8839 0
M  V30 4032 C 375.528 -1.76481 0.829425 0
M  V30 4033 O 374.798 -1.95411 -0.1383 0
M  V30 4034 H 373.378 -0.273225 0.695239 0
M  V30 4035 H 376.04 -0.00867725 1.94898 0
M  V30 4036 H 375.136 -1.22816 2.86919 0
M  V30 4037 N 375.437 -1.54477 -0.31217 0
M  V30 4038 C 376.677 -1.74958 -1.05684 0
M  V30 4039 C 377.041 -0.518414 -1.84869 0
M  V30 4040 O 378.242 -0.600759 -2.62001 0
M  V30 4041 C 376.513 -2.99656 -1.94785 0
M  V30 4042 S 378.072 -3.4109 -2.76049 0
M  V30 4043 H 374.89 -0.615104 -0.356606 0
M  V30 4044 H 377.492 -1.92669 -0.331514 0
M  V30 4045 H 376.196 -3.87397 -1.35468 0
M  V30 4046 H 375.727 -2.845 -2.71704 0
M  V30 4047 H 377.742 -2.97283 -3.97287 0
M  V30 4048 N 376.915 0.57481 -1.46744 0
M  V30 4049 C 378.143 1.35856 -1.56047 0
M  V30 4050 C 378.558 1.87691 -0.204365 0
M  V30 4051 O 377.915 1.64049 0.79963 0
M  V30 4052 C 377.966 2.54066 -2.57163 0
M  V30 4053 O 377.687 2.04377 -3.87507 0
M  V30 4054 C 379.188 3.46514 -2.76483 0
M  V30 4055 H 376.408 0.414754 -0.527466 0
M  V30 4056 H 378.952 0.698035 -1.92218 0
M  V30 4057 H 377.107 3.16092 -2.23974 0
M  V30 4058 H 377.521 2.81419 -4.4261 0
M  V30 4059 H 378.995 4.25919 -3.51137 0
M  V30 4060 H 379.472 3.98951 -1.83671 0
M  V30 4061 H 380.078 2.90318 -3.10799 0
M  V30 4062 N 378.394 1.34581 0.820102 0
M  V30 4063 C 379.81 1.14325 1.11364 0
M  V30 4064 C 380.01 -0.0533648 2.01429 0
M  V30 4065 O 379.066 -0.728044 2.41776 0
M  V30 4066 C 380.379 2.43983 1.75764 0
M  V30 4067 C 381.927 2.50065 1.88246 0
M  V30 4068 C 382.402 3.79732 2.56061 0
M  V30 4069 N 383.893 3.80908 2.63558 0
M  V30 4070 C 384.628 4.77961 3.16766 0
M  V30 4071 N 384.124 5.85397 3.70517 0
M  V30 4072 N 385.917 4.65413 3.15194 0
M  V30 4073 H 378.068 2.11246 0.221096 0
M  V30 4074 H 380.331 0.934289 0.160649 0
M  V30 4075 H 380.037 3.31651 1.1705 0
M  V30 4076 H 379.911 2.57531 2.75604 0
M  V30 4077 H 382.298 1.62834 2.46108 0
M  V30 4078 H 382.379 2.40442 0.873006 0
M  V30 4079 H 382.023 4.67354 1.98853 0
M  V30 4080 H 381.953 3.86639 3.57516 0
M  V30 4081 H 384.444 3.03274 2.25463 0
M  V30 4082 H 384.757 6.55463 4.09376 0
M  V30 4083 H 383.102 5.89107 3.68752 0
M  V30 4084 H 386.293 3.80627 2.72471 0
M  V30 4085 H 386.466 5.41216 3.56356 0
M  V30 4086 N 379.872 -1.04064 1.18357 0
M  V30 4087 C 381.119 -1.77265 0.978947 0
M  V30 4088 C 381.447 -1.88189 -0.491428 0
M  V30 4089 O 380.702 -1.38653 -1.38108 0
M  V30 4090 C 381.001 -3.20634 1.57888 0
M  V30 4091 C 380.667 -3.29743 3.07539 0
M  V30 4092 C 379.329 -3.31937 3.48384 0
M  V30 4093 C 381.681 -3.29841 4.03552 0
M  V30 4094 C 379.009 -3.3187 4.83818 0
M  V30 4095 C 381.361 -3.31313 5.38901 0
M  V30 4096 C 380.025 -3.31799 5.79194 0
M  V30 4097 H 379.295 -0.648659 0.358222 0
M  V30 4098 H 381.942 -1.22225 1.47422 0
M  V30 4099 H 380.247 -3.78675 1.00561 0
M  V30 4100 H 381.944 -3.75917 1.39598 0
M  V30 4101 H 378.534 -3.28757 2.74986 0
M  V30 4102 H 382.718 -3.27337 3.73047 0
M  V30 4103 H 377.974 -3.30562 5.14333 0
M  V30 4104 H 382.148 -3.30338 6.13066 0
M  V30 4105 H 379.775 -3.315 6.84114 0
M  V30 4106 N 381.35 -0.985608 -1.22978 0
M  V30 4107 C 382.597 -0.657386 -1.91532 0
M  V30 4108 C 382.925 0.809707 -1.76845 0
M  V30 4109 O 382.18 1.60021 -1.12658 0
M  V30 4110 C 382.479 -1.00014 -3.43121 0
M  V30 4111 C 382.145 -2.4583 -3.77993 0
M  V30 4112 C 380.807 -2.85679 -3.87222 0
M  V30 4113 C 383.159 -3.40378 -3.94705 0
M  V30 4114 C 380.487 -4.19081 -4.10595 0
M  V30 4115 C 382.839 -4.73429 -4.1958 0
M  V30 4116 C 381.503 -5.1303 -4.27032 0
M  V30 4117 H 380.773 -0.240555 -0.700867 0
M  V30 4118 H 383.42 -1.24044 -1.45895 0
M  V30 4119 H 381.725 -0.335072 -3.90365 0
M  V30 4120 H 383.422 -0.724322 -3.94404 0
M  V30 4121 H 380.012 -2.13939 -3.71387 0
M  V30 4122 H 384.196 -3.10766 -3.8696 0
M  V30 4123 H 379.452 -4.49362 -4.14589 0
M  V30 4124 H 383.626 -5.46644 -4.31455 0
M  V30 4125 H 381.253 -6.16418 -4.44896 0
M  V30 4126 N 382.828 1.3818 -0.7579 0
M  V30 4127 C 383.758 2.33027 -0.148597 0
M  V30 4128 C 384.739 1.55085 0.69875 0
M  V30 4129 O 385.924 1.83384 0.639053 0
M  V30 4130 C 383.054 3.3928 0.742034 0
M  V30 4131 C 382.008 4.28 -0.00291946 0
M  V30 4132 C 381.334 5.25146 1.00625 0
M  V30 4133 C 382.634 5.08938 -1.17385 0
M  V30 4134 H 384.328 2.84231 -0.940909 0
M  V30 4135 H 381.874 1.36659 -0.453908 0
M  V30 4136 H 383.827 4.046 1.17799 0
M  V30 4137 H 382.551 2.86569 1.56671 0
M  V30 4138 H 381.21 3.64192 -0.419504 0
M  V30 4139 H 380.858 4.68721 1.8251 0
M  V30 4140 H 380.558 5.85361 0.512428 0
M  V30 4141 H 382.082 5.93342 1.44143 0
M  V30 4142 H 383.496 5.67474 -0.815224 0
M  V30 4143 H 381.893 5.7841 -1.59882 0
M  V30 4144 H 382.963 4.42424 -1.98468 0
M  V30 4145 N 384.306 0.507319 1.49211 0
M  V30 4146 C 385.531 -0.033725 2.07373 0
M  V30 4147 C 385.956 -1.29485 1.36437 0
M  V30 4148 O 385.314 -1.76294 0.423087 0
M  V30 4149 C 385.362 -0.263945 3.59633 0
M  V30 4150 O 384.466 -1.33737 3.90113 0
M  V30 4151 H 383.807 0.0290331 0.663365 0
M  V30 4152 H 386.337 0.708749 1.91932 0
M  V30 4153 H 386.347 -0.493536 4.05004 0
M  V30 4154 H 385.022 0.657424 4.10671 0
M  V30 4155 H 383.599 -1.09224 3.56545 0
M  V30 4156 N 385.784 -1.5574 0.241426 0
M  V30 4157 C 387.061 -1.90704 -0.434881 0
M  V30 4158 C 387.441 -1.16145 -1.76277 0
M  V30 4159 O 386.789 -0.277152 -2.26813 0
M  V30 4160 C 386.999 -3.43657 -0.608343 0
M  V30 4161 C 388.347 -4.14806 -0.906725 0
M  V30 4162 O 389.371 -3.49366 -0.694408 0
M  V30 4163 O 388.23 -5.30548 -1.31075 0
M  V30 4164 H 385.324 -0.793592 -0.23268 0
M  V30 4165 H 387.87 -1.67288 0.285086 0
M  V30 4166 H 386.642 -3.89927 0.327505 0
M  V30 4167 H 386.265 -3.72918 -1.37906 0
M  V30 4168 N 387.262 0.0317525 -1.57568 0
M  V30 4169 C 388.511 0.722131 -1.8833 0
M  V30 4170 C 388.824 1.76664 -0.839587 0
M  V30 4171 O 390.03 2.50942 -1.03635 0
M  V30 4172 C 388.486 1.33544 -3.34207 0
M  V30 4173 C 388.094 0.327415 -4.46802 0
M  V30 4174 C 389.838 2.00585 -3.7412 0
M  V30 4175 C 387.745 0.948915 -5.83738 0
M  V30 4176 H 386.675 0.273466 -0.702661 0
M  V30 4177 H 389.326 -0.0235811 -1.83485 0
M  V30 4178 H 387.708 2.13077 -3.33788 0
M  V30 4179 H 388.882 -0.441006 -4.58685 0
M  V30 4180 H 387.197 -0.240758 -4.15703 0
M  V30 4181 H 389.794 2.47932 -4.73744 0
M  V30 4182 H 390.137 2.82285 -3.05975 0
M  V30 4183 H 390.67 1.27831 -3.76702 0
M  V30 4184 H 387.409 0.171387 -6.55276 0
M  V30 4185 H 386.929 1.68724 -5.7558 0
M  V30 4186 H 388.608 1.45705 -6.3038 0
M  V30 4187 N 388.74 1.54641 0.303973 0
M  V30 4188 C 389.988 1.73437 1.0375 0
M  V30 4189 C 390.309 0.521449 1.87899 0
M  V30 4190 O 389.579 -0.46432 1.90318 0
M  V30 4191 H 388.159 0.639518 0.386039 0
M  V30 4192 H 390.821 1.91988 0.335675 0
M  V30 4193 H 389.917 2.62235 1.69231 0
M  V30 4194 N 390.218 -0.567019 1.47046 0
M  V30 4195 C 391.443 -1.3551 1.57009 0
M  V30 4196 C 391.868 -1.86841 0.217259 0
M  V30 4197 O 391.226 -1.62435 -0.805268 0
M  V30 4198 C 391.274 -2.50777 2.5912 0
M  V30 4199 O 390.378 -3.52706 2.13711 0
M  V30 4200 H 389.719 -0.402919 0.52778 0
M  V30 4201 H 392.249 -0.686241 1.92748 0
M  V30 4202 H 392.259 -2.97481 2.79229 0
M  V30 4203 H 390.934 -2.12771 3.57353 0
M  V30 4204 H 389.511 -3.12374 2.03659 0
M  V30 4205 N 391.696 -1.35014 -0.812953 0
M  V30 4206 C 392.659 -1.27292 -1.90602 0
M  V30 4207 C 393.659 -0.185817 -1.59723 0
M  V30 4208 O 394.849 -0.439102 -1.68575 0
M  V30 4209 C 391.981 -0.967676 -3.26877 0
M  V30 4210 H 393.174 -2.24479 -1.9887 0
M  V30 4211 H 390.727 -1.19446 -1.00808 0
M  V30 4212 H 391.462 0.0005954 -3.243 0
M  V30 4213 H 391.247 -1.75412 -3.50675 0
M  V30 4214 H 392.737 -0.939085 -4.06904 0
M  V30 4215 N 393.175 1.03435 -1.18907 0
M  V30 4216 C 394.424 1.76143 -0.982669 0
M  V30 4217 C 394.737 1.89416 0.487953 0
M  V30 4218 O 395.943 2.59041 0.813036 0
M  V30 4219 C 394.399 3.16722 -1.70924 0
M  V30 4220 C 394.007 3.11522 -3.21959 0
M  V30 4221 C 395.751 3.93764 -1.58588 0
M  V30 4222 C 393.658 4.46999 -3.87228 0
M  V30 4223 H 392.588 0.660292 -0.364047 0
M  V30 4224 H 395.239 1.158 -1.42347 0
M  V30 4225 H 393.621 3.775 -1.19623 0
M  V30 4226 H 394.795 2.60158 -3.80335 0
M  V30 4227 H 393.11 2.47978 -3.34508 0
M  V30 4228 H 395.707 4.93963 -2.04707 0
M  V30 4229 H 396.05 4.12794 -0.539142 0
M  V30 4230 H 396.583 3.39576 -2.07203 0
M  V30 4231 H 393.322 4.33174 -4.91976 0
M  V30 4232 H 392.842 4.98441 -3.33642 0
M  V30 4233 H 394.521 5.15898 -3.90459 0
M  V30 4234 N 394.653 0.992116 1.22453 0
M  V30 4235 C 395.901 0.666215 1.90804 0
M  V30 4236 C 396.222 -0.804152 1.77647 0
M  V30 4237 O 395.492 -1.57629 1.16318 0
M  V30 4238 H 394.072 0.243423 0.706225 0
M  V30 4239 H 396.734 1.25845 1.48825 0
M  V30 4240 H 395.83 0.928069 2.97982 0
M  V30 4241 N 396.131 -1.37776 0.765217 0
M  V30 4242 C 397.094 -2.28686 0.153416 0
M  V30 4243 C 398.094 -1.47727 -0.635081 0
M  V30 4244 O 399.284 -1.68027 -0.459632 0
M  V30 4245 C 396.416 -3.31608 -0.790495 0
M  V30 4246 H 397.609 -2.84297 0.954723 0
M  V30 4247 H 395.162 -1.46932 0.53299 0
M  V30 4248 H 395.897 -2.81109 -1.61705 0
M  V30 4249 H 395.682 -3.9144 -0.227348 0
M  V30 4250 H 397.172 -3.99559 -1.21419 0
M  V30 4251 N 397.609 -0.515225 -1.4894 0
M  V30 4252 C 398.559 0.275113 -2.26334 0
M  V30 4253 C 399.543 0.923007 -1.31793 0
M  V30 4254 O 400.735 0.828254 -1.56426 0
M  V30 4255 C 397.864 1.33041 -3.16473 0
M  V30 4256 C 396.95 0.688051 -4.18481 0
M  V30 4257 N 397.341 -0.217638 -5.05332 0
M  V30 4258 C 395.639 0.94699 -4.3583 0
M  V30 4259 C 396.34 -0.58676 -5.78733 0
M  V30 4260 N 395.316 0.0486966 -5.43578 0
M  V30 4261 H 399.118 -0.421876 -2.90856 0
M  V30 4262 H 396.632 -0.332249 -1.58965 0
M  V30 4263 H 398.629 1.9102 -3.70563 0
M  V30 4264 H 397.289 2.02894 -2.53504 0
M  V30 4265 H 398.3 -0.589343 -5.14536 0
M  V30 4266 H 394.977 1.63719 -3.8406 0
M  V30 4267 H 396.367 -1.32855 -6.58634 0
M  V30 4268 N 399.087 1.5561 -0.249682 0
M  V30 4269 C 400.05 2.20217 0.635394 0
M  V30 4270 C 401.05 1.17227 1.10066 0
M  V30 4271 O 402.24 1.42292 1.00492 0
M  V30 4272 C 399.372 2.84794 1.87363 0
M  V30 4273 H 400.565 2.99814 0.0716752 0
M  V30 4274 H 398.118 1.563 -0.000153234 0
M  V30 4275 H 398.853 2.09142 2.47851 0
M  V30 4276 H 398.638 3.60241 1.5482 0
M  V30 4277 H 400.128 3.3423 2.5036 0
M  V30 4278 N 400.565 -0.0233959 1.57583 0
M  V30 4279 C 401.813 -0.711654 1.89156 0
M  V30 4280 C 402.134 -1.75591 0.848096 0
M  V30 4281 O 401.404 -1.95547 -0.117566 0
M  V30 4282 H 399.984 -0.265835 0.698098 0
M  V30 4283 H 402.646 0.0119948 1.94896 0
M  V30 4284 H 401.742 -1.19766 2.88206 0
M  V30 4285 N 402.043 -1.548 -0.295768 0
M  V30 4286 C 403.454 -1.65274 -0.868411 0
M  V30 4287 C 403.805 -0.56481 -1.87894 0
M  V30 4288 O 402.93 0.29767 -2.14343 0
M  V30 4289 C 403.525 -2.99603 -1.58188 0
M  V30 4290 C 402.084 -3.12181 -2.10286 0
M  V30 4291 C 401.231 -2.6098 -0.93727 0
M  V30 4292 H 404.182 -1.58534 -0.0726422 0
M  V30 4293 H 404.203 -2.91319 -2.44772 0
M  V30 4294 H 403.715 -3.78764 -0.846151 0
M  V30 4295 H 401.816 -2.3775 -2.8689 0
M  V30 4296 H 401.929 -4.18415 -2.33379 0
M  V30 4297 H 400.293 -2.17564 -1.32431 0
M  V30 4298 H 401.076 -3.42623 -0.215414 0
M  V30 4299 N 403.521 0.559213 -1.47345 0
M  V30 4300 C 404.769 1.31388 -1.53563 0
M  V30 4301 C 405.09 1.93985 -0.198678 0
M  V30 4302 O 404.36 1.79825 0.777167 0
M  V30 4303 H 402.94 0.487901 -0.565652 0
M  V30 4304 H 405.602 0.65315 -1.8363 0
M  V30 4305 H 404.698 2.10844 -2.30111 0
M  V30 4306 N 404.999 1.35443 0.805782 0
M  V30 4307 C 406.227 1.31878 1.59423 0
M  V30 4308 C 406.642 -0.103562 1.88516 0
M  V30 4309 O 405.999 -1.05575 1.48863 0
M  V30 4310 C 406.05 2.12426 2.92502 0
M  V30 4311 O 405.771 3.49115 2.6467 0
M  V30 4312 C 407.272 2.16455 3.86862 0
M  V30 4313 H 404.492 0.453002 0.495005 0
M  V30 4314 H 407.036 1.78309 1.00131 0
M  V30 4315 H 405.191 1.69593 3.48306 0
M  V30 4316 H 405.605 3.90957 3.49647 0
M  V30 4317 H 407.079 2.77204 4.77349 0
M  V30 4318 H 407.556 1.16352 4.23508 0
M  V30 4319 H 408.162 2.59453 3.36993 0
M  V30 4320 N 406.477 -1.02803 1.19454 0
M  V30 4321 C 407.726 -1.7562 0.991996 0
M  V30 4322 C 408.039 -1.89672 -0.477901 0
M  V30 4323 O 409.245 -2.59468 -0.799287 0
M  V30 4324 C 407.701 -3.15812 1.72601 0
M  V30 4325 C 407.309 -3.0981 3.23607 0
M  V30 4326 C 409.053 -3.92918 1.60674 0
M  V30 4327 C 406.96 -4.44939 3.89594 0
M  V30 4328 H 405.89 -0.658352 0.367543 0
M  V30 4329 H 408.541 -1.15044 1.42959 0
M  V30 4330 H 406.923 -3.7686 1.21624 0
M  V30 4331 H 408.097 -2.58138 3.81709 0
M  V30 4332 H 406.412 -2.46201 3.35819 0
M  V30 4333 H 409.009 -4.9287 2.07323 0
M  V30 4334 H 409.352 -4.12502 0.561025 0
M  V30 4335 H 409.885 -3.38472 2.09001 0
M  V30 4336 H 406.624 -4.30559 4.94267 0
M  V30 4337 H 406.144 -4.96664 3.36281 0
M  V30 4338 H 407.823 -5.1382 3.93189 0
M  V30 4339 N 407.956 -0.998596 -1.21925 0
M  V30 4340 C 408.919 -0.558679 -2.22287 0
M  V30 4341 C 409.919 0.361525 -1.56683 0
M  V30 4342 O 411.109 0.152695 -1.73529 0
M  V30 4343 C 408.241 0.18661 -3.40389 0
M  V30 4344 H 409.434 -1.4463 -2.62721 0
M  V30 4345 H 406.987 -0.786413 -1.35075 0
M  V30 4346 H 407.722 1.08996 -3.05435 0
M  V30 4347 H 407.507 -0.474188 -3.89222 0
M  V30 4348 H 408.997 0.482367 -4.14805 0
M  V30 4349 N 409.434 1.37368 -0.772513 0
M  V30 4350 C 410.364 2.32856 -0.173304 0
M  V30 4351 C 411.345 1.55818 0.682262 0
M  V30 4352 O 412.53 1.84052 0.619566 0
M  V30 4353 C 409.66 3.40048 0.706007 0
M  V30 4354 C 408.614 4.27973 -0.0483144 0
M  V30 4355 C 407.94 5.26184 0.950491 0
M  V30 4356 C 409.24 5.07665 -1.22776 0
M  V30 4357 H 410.934 2.83217 -0.971002 0
M  V30 4358 H 408.48 1.3617 -0.468377 0
M  V30 4359 H 410.433 4.05827 1.13501 0
M  V30 4360 H 409.157 2.88214 1.53623 0
M  V30 4361 H 407.816 3.63726 -0.458107 0
M  V30 4362 H 407.464 4.7063 1.77529 0
M  V30 4363 H 407.164 5.85872 0.450314 0
M  V30 4364 H 408.688 5.94838 1.37842 0
M  V30 4365 H 410.102 5.66578 -0.875366 0
M  V30 4366 H 408.499 5.76681 -1.66007 0
M  V30 4367 H 409.569 4.40294 -2.03149 0
M  V30 4368 N 410.912 0.523116 1.48665 0
M  V30 4369 C 412.159 -0.0134763 2.02496 0
M  V30 4370 C 412.487 -1.3493 1.40086 0
M  V30 4371 O 411.742 -1.88286 0.533567 0
M  V30 4372 C 412.041 -0.191671 3.56886 0
M  V30 4373 C 411.707 1.06893 4.38046 0
M  V30 4374 C 410.369 1.41443 4.59943 0
M  V30 4375 C 412.721 1.90584 4.85106 0
M  V30 4376 C 410.049 2.59594 5.26144 0
M  V30 4377 C 412.401 3.07907 5.52609 0
M  V30 4378 C 411.065 3.42811 5.72745 0
M  V30 4379 H 410.335 -0.00493133 0.740984 0
M  V30 4380 H 412.982 0.687751 1.78724 0
M  V30 4381 H 411.287 -0.97561 3.79459 0
M  V30 4382 H 412.984 -0.621659 3.96152 0
M  V30 4383 H 409.574 0.789848 4.21259 0
M  V30 4384 H 413.758 1.65203 4.67997 0
M  V30 4385 H 409.014 2.86847 5.39934 0
M  V30 4386 H 413.188 3.73066 5.88043 0
M  V30 4387 H 410.815 4.34462 6.23816 0
M  V30 4388 N 412.39 -1.55475 0.257931 0
M  V30 4389 C 413.637 -1.99207 -0.363728 0
M  V30 4390 C 413.965 -1.1462 -1.57139 0
M  V30 4391 O 413.22 -0.199653 -1.94679 0
M  V30 4392 C 413.519 -3.48183 -0.806433 0
M  V30 4393 C 413.185 -4.49936 0.294684 0
M  V30 4394 C 411.847 -4.77481 0.597076 0
M  V30 4395 C 414.199 -5.10769 1.03751 0
M  V30 4396 C 411.527 -5.63132 1.64618 0
M  V30 4397 C 413.879 -5.97558 2.07622 0
M  V30 4398 C 412.543 -6.23432 2.38514 0
M  V30 4399 H 411.813 -0.728949 -0.133097 0
M  V30 4400 H 414.46 -1.8793 0.368059 0
M  V30 4401 H 412.765 -3.56848 -1.61761 0
M  V30 4402 H 414.462 -3.79415 -1.29789 0
M  V30 4403 H 411.052 -4.28572 0.0488649 0
M  V30 4404 H 415.236 -4.89527 0.817149 0
M  V30 4405 H 410.492 -5.8143 1.89074 0
M  V30 4406 H 414.666 -6.43735 2.65666 0
M  V30 4407 H 412.293 -6.89594 3.19943 0
M  V30 4408 N 413.868 0.0150385 -1.57593 0
M  V30 4409 C 414.798 1.01047 -2.10503 0
M  V30 4410 C 415.779 1.36816 -1.01071 0
M  V30 4411 O 416.964 1.45455 -1.28672 0
M  V30 4412 C 414.094 2.30708 -2.59598 0
M  V30 4413 C 413.048 2.09142 -3.73421 0
M  V30 4414 C 412.374 3.44685 -4.08774 0
M  V30 4415 C 413.674 1.46619 -5.01298 0
M  V30 4416 H 415.368 0.569978 -2.93925 0
M  V30 4417 H 412.914 0.272724 -1.41394 0
M  V30 4418 H 414.867 3.00687 -2.95238 0
M  V30 4419 H 413.591 2.76843 -1.73279 0
M  V30 4420 H 412.25 1.41592 -3.38153 0
M  V30 4421 H 411.898 3.88495 -3.195 0
M  V30 4422 H 411.598 3.31077 -4.8545 0
M  V30 4423 H 413.122 4.16004 -4.4696 0
M  V30 4424 H 414.536 2.06535 -5.34805 0
M  V30 4425 H 412.933 1.43544 -5.82679 0
M  V30 4426 H 414.003 0.433611 -4.82957 0
M  V30 4427 N 415.346 1.54954 0.287554 0
M  V30 4428 C 416.294 1.87606 1.37502 0
M  V30 4429 C 417.288 0.751001 1.51843 0
M  V30 4430 O 418.494 0.935169 1.53801 0
M  V30 4431 H 414.869 0.595231 0.459569 0
M  V30 4432 H 416.84 2.78477 1.07206 0
M  V30 4433 C 415.589 2.15183 2.73115 0
M  V30 4434 H 414.912 3.01234 2.62866 0
M  V30 4435 H 416.352 2.4196 3.48183 0
M  V30 4436 C 414.811 0.954686 3.2309 0
M  V30 4437 O 415.341 0.181949 4.01288 0
M  V30 4438 N 413.547 0.756368 2.80584 0
M  V30 4439 H 413.094 1.38643 2.17108 0
M  V30 4440 H 413.052 -0.0430391 3.14371 0
M  V30 4441 N 416.824 -0.551391 1.4764 0
M  V30 4442 C 417.771 -1.65796 1.60563 0
M  V30 4443 C 418.741 -1.59932 0.448428 0
M  V30 4444 O 419.926 -1.78679 0.669222 0
M  V30 4445 C 417.066 -3.04108 1.63133 0
M  V30 4446 C 416.179 -3.20365 2.89811 0
M  V30 4447 C 415.314 -4.49109 2.8368 0
M  V30 4448 C 414.353 -4.58819 4.05156 0
M  V30 4449 N 413.49 -5.78926 3.97227 0
M  V30 4450 H 418.33 -1.54088 2.5507 0
M  V30 4451 H 415.867 -0.75052 1.26513 0
M  V30 4452 H 417.825 -3.84207 1.62606 0
M  V30 4453 H 416.455 -3.14637 0.721341 0
M  V30 4454 H 415.507 -2.33659 3.00179 0
M  V30 4455 H 416.819 -3.23402 3.79753 0
M  V30 4456 H 415.973 -5.37475 2.81434 0
M  V30 4457 H 414.712 -4.4856 1.91431 0
M  V30 4458 H 413.717 -3.68864 4.077 0
M  V30 4459 H 414.942 -4.61124 4.98539 0
M  V30 4460 H 412.888 -5.79314 3.07785 0
M  V30 4461 H 412.805 -5.83367 4.80853 0
M  V30 4462 H 414.073 -6.69637 3.99007 0
M  V30 4463 N 418.302 -1.35869 -0.798587 0
M  V30 4464 C 419.532 -1.32529 -1.58491 0
M  V30 4465 C 419.94 0.0975405 -1.88948 0
M  V30 4466 O 419.283 1.06224 -1.49874 0
M  V30 4467 C 419.345 -2.07247 -2.9375 0
M  V30 4468 C 419.009 -3.56391 -2.86068 0
M  V30 4469 C 420.006 -4.50824 -2.58947 0
M  V30 4470 C 417.691 -3.9915 -3.04933 0
M  V30 4471 C 419.685 -5.85993 -2.5078 0
M  V30 4472 C 417.372 -5.34413 -2.96389 0
M  V30 4473 C 418.37 -6.27646 -2.69349 0
M  V30 4474 O 418.058 -7.60426 -2.60782 0
M  V30 4475 H 417.79 -0.456529 -0.498556 0
M  V30 4476 H 420.344 -1.79425 -0.999799 0
M  V30 4477 H 418.574 -1.55001 -3.54276 0
M  V30 4478 H 420.263 -1.96883 -3.54954 0
M  V30 4479 H 421.029 -4.19104 -2.44084 0
M  V30 4480 H 416.908 -3.26961 -3.24989 0
M  V30 4481 H 420.452 -6.58735 -2.29595 0
M  V30 4482 H 416.349 -5.65743 -3.10813 0
M  V30 4483 H 417.117 -7.70444 -2.76331 0
M  V30 4484 N 419.78 1.02168 -1.19998 0
M  V30 4485 C 421.029 1.75091 -1.0013 0
M  V30 4486 C 421.342 1.89923 0.467835 0
M  V30 4487 O 422.548 2.59888 0.785515 0
M  V30 4488 C 421.004 3.14892 -1.74273 0
M  V30 4489 C 420.612 3.0809 -3.25245 0
M  V30 4490 C 422.356 3.9206 -1.62755 0
M  V30 4491 C 420.263 4.42867 -3.91948 0
M  V30 4492 H 419.193 0.656394 -0.37103 0
M  V30 4493 H 421.844 1.14284 -1.43567 0
M  V30 4494 H 420.226 3.7621 -1.2362 0
M  V30 4495 H 421.4 2.5611 -3.83072 0
M  V30 4496 H 419.715 2.44416 -3.3712 0
M  V30 4497 H 422.312 4.91764 -2.09934 0
M  V30 4498 H 422.655 4.12199 -0.582894 0
M  V30 4499 H 423.188 3.37359 -2.10793 0
M  V30 4500 H 419.927 4.27931 -4.96543 0
M  V30 4501 H 419.447 4.94874 -3.3891 0
M  V30 4502 H 421.126 5.11728 -3.95909 0
M  V30 4503 N 421.258 1.00505 1.21394 0
M  V30 4504 C 422.168 0.574806 2.27449 0
M  V30 4505 C 423.184 -0.382206 1.6975 0
M  V30 4506 O 424.36 -0.246027 1.99892 0
M  V30 4507 C 421.425 -0.0917414 3.46579 0
M  V30 4508 C 420.486 0.909758 4.1955 0
M  V30 4509 C 419.719 0.274924 5.32991 0
M  V30 4510 O 419.942 -0.928254 5.62796 0
M  V30 4511 O 418.876 0.985877 5.93771 0
M  V30 4512 H 422.702 1.45744 2.66444 0
M  V30 4513 H 420.287 0.773923 1.27792 0
M  V30 4514 H 422.169 -0.464551 4.18832 0
M  V30 4515 H 420.844 -0.948755 3.09484 0
M  V30 4516 H 419.751 1.33372 3.49518 0
M  V30 4517 H 421.084 1.73636 4.60555 0
M  V30 4518 N 422.737 -1.36956 0.779787 0
M  V30 4519 C 423.986 -1.98738 0.344405 0
M  V30 4520 C 424.299 -1.62596 -1.08728 0
M  V30 4521 O 425.505 -2.1754 -1.62445 0
M  V30 4522 C 423.961 -3.5544 0.564829 0
M  V30 4523 C 423.569 -4.00514 2.0073 0
M  V30 4524 C 425.313 -4.24059 0.193471 0
M  V30 4525 C 423.22 -5.49957 2.17489 0
M  V30 4526 H 422.15 -0.743561 0.12503 0
M  V30 4527 H 424.801 -1.56381 0.960057 0
M  V30 4528 H 423.183 -3.95817 -0.120397 0
M  V30 4529 H 424.357 -3.71362 2.72814 0
M  V30 4530 H 422.672 -3.44703 2.336 0
M  V30 4531 H 425.269 -5.33874 0.297097 0
M  V30 4532 H 425.612 -4.07378 -0.857263 0
M  V30 4533 H 426.145 -3.89012 0.831556 0
M  V30 4534 H 422.884 -5.71574 3.2091 0
M  V30 4535 H 422.404 -5.80767 1.49899 0
M  V30 4536 H 424.083 -6.16043 1.97738 0
M  V30 4537 O 424.254 -0.672348 -1.46839 0
M  V30 4538 H 424.945 -0.203759 -1.92625 0
M  V30 END ATOM
M  V30 BEGIN BOND
M  V30 END BOND
M  V30 END CTAB
M  END
$$$$
