drugbank_target|P84139 Adenylate kinase (DB01717)
 OpenBabel12092119503D

  0  0  0     0  0            999 V3000
M  V30 BEGIN CTAB
M  V30 COUNTS 3352 3374 0 0 0
M  V30 BEGIN ATOM
M  V30 1 H -0.908 1.98254 -0.117106 0
M  V30 2 N 0 1.576 0 0
M  V30 3 C 0.933 2.03868 1.02534 0
M  V30 4 C 1.911 0.928543 1.3348 0
M  V30 5 O 3.095 1.19667 1.45644 0
M  V30 6 C 0.222 2.43627 2.35294 0
M  V30 7 C -0.732 3.65373 2.2001 0
M  V30 8 S 0.101 5.13292 1.52614 0
M  V30 9 C 1.257 5.56322 2.86805 0
M  V30 10 H 1.49 2.90518 0.631377 0
M  V30 11 H -0.977 1.52953 0.210867 0
M  V30 12 H 0.981 2.67203 3.11629 0
M  V30 13 H -0.358 1.57376 2.7183 0
M  V30 14 H -1.165 3.90944 3.18086 0
M  V30 15 H -1.563 3.418 1.51819 0
M  V30 16 H 0.729 5.58782 3.83104 0
M  V30 17 H 1.672 6.56266 2.65933 0
M  V30 18 H 2.08 4.83886 2.90714 0
M  V30 19 N 1.4781 -0.272755 1.55222 0
M  V30 20 C 2.4261 -1.35705 1.88909 0
M  V30 21 C 3.4201 -1.5112 0.765456 0
M  V30 22 O 4.6261 -1.52901 0.949802 0
M  V30 23 H 1.0011 -0.453868 0.59959 0
M  V30 24 H 2.9721 -1.04544 2.79487 0
M  V30 25 C 1.7211 -2.71049 2.17779 0
M  V30 26 H 1.0441 -2.59979 3.03728 0
M  V30 27 H 2.4841 -3.45858 2.45272 0
M  V30 28 C 0.9431 -3.22165 0.985473 0
M  V30 29 O 1.4731 -4.01096 0.220233 0
M  V30 30 N -0.3209 -2.7985 0.783108 0
M  V30 31 H -0.7739 -2.15775 1.40708 0
M  V30 32 H -0.8159 -3.14397 -0.0130392 0
M  V30 33 N 2.9562 -1.48159 -0.537278 0
M  V30 34 C 4.2052 -1.5506 -1.28993 0
M  V30 35 C 4.5182 -0.226211 -1.94288 0
M  V30 36 O 5.7242 -0.173395 -2.70946 0
M  V30 37 C 4.1802 -2.73429 -2.34018 0
M  V30 38 C 3.7882 -4.1248 -1.74825 0
M  V30 39 C 5.5322 -2.89638 -3.10339 0
M  V30 40 C 3.4392 -5.22121 -2.77747 0
M  V30 41 H 2.3692 -0.577231 -0.485098 0
M  V30 42 H 5.0202 -1.74478 -0.568317 0
M  V30 43 H 3.4022 -2.47431 -3.09182 0
M  V30 44 H 4.5762 -4.48466 -1.05899 0
M  V30 45 H 2.8912 -4.01327 -1.11022 0
M  V30 46 H 5.4882 -3.68718 -3.87235 0
M  V30 47 H 5.8312 -1.9882 -3.65754 0
M  V30 48 H 6.3642 -3.15502 -2.42288 0
M  V30 49 H 3.1032 -6.1488 -2.27161 0
M  V30 50 H 2.6232 -4.90631 -3.45024 0
M  V30 51 H 4.3022 -5.49924 -3.4087 0
M  V30 52 N 4.4343 0.785586 -1.36625 0
M  V30 53 C 5.6803 1.54591 -1.31261 0
M  V30 54 C 6.0133 1.93906 0.106823 0
M  V30 55 O 5.2883 1.63007 1.06108 0
M  V30 56 C 5.5713 2.82038 -2.23889 0
M  V30 57 C 5.4243 2.49066 -3.74548 0
M  V30 58 C 6.7433 3.83887 -2.15217 0
M  V30 59 H 3.8623 0.560846 -0.478143 0
M  V30 60 H 6.5043 0.902278 -1.67209 0
M  V30 61 H 4.6543 3.36961 -1.93363 0
M  V30 62 H 6.3263 2.00164 -4.15611 0
M  V30 63 H 4.5693 1.81954 -3.93796 0
M  V30 64 H 5.2403 3.40109 -4.34776 0
M  V30 65 H 7.7163 3.38421 -2.42096 0
M  V30 66 H 6.5923 4.70806 -2.82193 0
M  V30 67 H 6.8533 4.27131 -1.14068 0
M  V30 68 N 5.9124 1.20967 1.01018 0
M  V30 69 C 6.8424 0.988272 2.11555 0
M  V30 70 C 7.8234 -0.0849778 1.69888 0
M  V30 71 O 9.0084 0.0738202 1.9406 0
M  V30 72 C 6.1384 0.546528 3.42973 0
M  V30 73 C 5.0924 1.56375 3.9841 0
M  V30 74 C 4.4184 0.97842 5.25672 0
M  V30 75 C 5.7184 2.94922 4.31066 0
M  V30 76 H 7.4124 1.91276 2.30334 0
M  V30 77 H 4.9584 0.921073 1.1069 0
M  V30 78 H 6.9114 0.378839 4.19694 0
M  V30 79 H 5.6354 -0.413598 3.23971 0
M  V30 80 H 4.2944 1.71891 3.23804 0
M  V30 81 H 3.9424 0.0101688 5.02999 0
M  V30 82 H 3.6424 1.65784 5.63728 0
M  V30 83 H 5.1664 0.821939 6.05043 0
M  V30 84 H 6.5804 2.8288 4.9865 0
M  V30 85 H 4.9774 3.5983 4.80253 0
M  V30 86 H 6.0474 3.4616 3.39561 0
M  V30 87 N 7.3905 -1.2043 1.01659 0
M  V30 88 C 8.3235 -2.21924 0.531521 0
M  V30 89 C 9.3015 -1.57054 -0.421032 0
M  V30 90 O 10.4855 -1.85389 -0.341035 0
M  V30 91 C 7.6125 -3.37942 -0.226496 0
M  V30 92 C 6.6585 -4.21115 0.67561 0
M  V30 93 S 7.4915 -4.90674 2.14475 0
M  V30 94 C 8.6475 -6.10113 1.3969 0
M  V30 95 H 8.8805 -2.62725 1.3915 0
M  V30 96 H 6.4135 -1.30481 0.825479 0
M  V30 97 H 8.3715 -4.05196 -0.657738 0
M  V30 98 H 7.0325 -2.956 -1.06205 0
M  V30 99 H 6.2255 -5.03918 0.091108 0
M  V30 100 H 5.8275 -3.59115 1.04463 0
M  V30 101 H 8.1195 -6.7411 0.676897 0
M  V30 102 H 9.0625 -6.73022 2.20107 0
M  V30 103 H 9.4705 -5.57283 0.899786 0
M  V30 104 N 8.8686 -0.792821 -1.36206 0
M  V30 105 C 10.1166 -0.366062 -1.98757 0
M  V30 106 C 10.4376 1.0668 -1.63231 0
M  V30 107 O 9.7076 1.73587 -0.907978 0
M  V30 108 H 8.2876 -0.132364 -0.735179 0
M  V30 109 H 10.9496 -1.01562 -1.66347 0
M  V30 110 H 10.0456 -0.460638 -3.08682 0
M  V30 111 N 10.3467 1.47872 -0.545128 0
M  V30 112 C 11.2767 2.32661 0.197793 0
M  V30 113 C 12.2577 1.43041 0.920504 0
M  V30 114 O 13.4427 1.71912 0.90333 0
M  V30 115 C 10.5727 3.24569 1.23582 0
M  V30 116 C 9.5267 4.23333 0.630323 0
M  V30 117 C 8.8527 5.0448 1.77211 0
M  V30 118 C 10.1527 5.20704 -0.407974 0
M  V30 119 H 11.8467 2.95024 -0.510045 0
M  V30 120 H 9.3927 1.4187 -0.246731 0
M  V30 121 H 11.3457 3.8272 1.76362 0
M  V30 122 H 10.0697 2.60236 1.97344 0
M  V30 123 H 8.7287 3.6639 0.123922 0
M  V30 124 H 8.3767 4.36561 2.49847 0
M  V30 125 H 8.0767 5.71339 1.37281 0
M  V30 126 H 9.6007 5.65487 2.3034 0
M  V30 127 H 11.0147 5.7329 0.033305 0
M  V30 128 H 9.4117 5.95699 -0.725486 0
M  V30 129 H 10.4817 4.66917 -1.30828 0
M  V30 130 N 11.8248 0.280983 1.55075 0
M  V30 131 C 13.2358 -0.215629 1.85451 0
M  V30 132 C 13.5868 -1.54991 1.203 0
M  V30 133 O 12.7118 -2.10699 0.493435 0
M  V30 134 C 13.3068 -0.398026 3.36454 0
M  V30 135 C 11.8658 -0.838866 3.66933 0
M  V30 136 C 11.0128 0.064458 2.77225 0
M  V30 137 H 13.9638 0.502601 1.50531 0
M  V30 138 H 13.9848 -1.23569 3.59876 0
M  V30 139 H 13.4968 0.573241 3.83843 0
M  V30 140 H 11.5978 -1.8214 3.25048 0
M  V30 141 H 11.7108 -0.672123 4.74362 0
M  V30 142 H 10.0748 -0.452863 2.50642 0
M  V30 143 H 10.8578 1.03172 3.2743 0
M  V30 144 N 13.3029 -1.57598 0.00835791 0
M  V30 145 C 14.5509 -1.90551 -0.6734 0
M  V30 146 C 14.8719 -0.883301 -1.73847 0
M  V30 147 O 14.1419 0.0781442 -1.95744 0
M  V30 148 H 12.7219 -0.703312 -0.251717 0
M  V30 149 H 15.3839 -1.94833 0.0512592 0
M  V30 150 H 14.4799 -2.9056 -1.13935 0
M  V30 151 N 14.781 0.264519 -1.55364 0
M  V30 152 C 15.744 1.31046 -1.88042 0
M  V30 153 C 16.744 1.41943 -0.755569 0
M  V30 154 O 17.934 1.40947 -1.02369 0
M  V30 155 C 15.066 2.69067 -2.09323 0
M  V30 156 H 16.259 1.03297 -2.81549 0
M  V30 157 H 13.812 0.502989 -1.47986 0
M  V30 158 H 14.547 3.01982 -1.18226 0
M  V30 159 H 14.332 2.62542 -2.91229 0
M  V30 160 H 15.822 3.44623 -2.35848 0
M  V30 161 N 16.2591 1.48442 0.529413 0
M  V30 162 C 17.5071 1.56179 1.28267 0
M  V30 163 C 17.8281 0.237721 1.93546 0
M  V30 164 O 17.0981 -0.740779 1.81354 0
M  V30 165 H 15.6781 0.575367 0.476405 0
M  V30 166 H 18.3401 1.84909 0.61602 0
M  V30 167 H 17.4361 2.34312 2.06165 0
M  V30 168 N 17.7372 -0.778329 1.37039 0
M  V30 169 C 18.6842 -1.89139 1.32269 0
M  V30 170 C 19.6542 -1.65017 0.189387 0
M  V30 171 O 20.8392 -1.87024 0.377693 0
M  V30 172 C 17.9792 -3.26112 1.12894 0
M  V30 173 C 17.0922 -3.62233 2.35396 0
M  V30 174 C 16.2272 -4.8838 2.08946 0
M  V30 175 C 15.2662 -5.17212 3.2735 0
M  V30 176 N 14.4032 -6.34546 3.00492 0
M  V30 177 H 19.2432 -1.92552 2.27437 0
M  V30 178 H 16.7802 -0.941473 1.13025 0
M  V30 179 H 18.7382 -4.05116 0.996835 0
M  V30 180 H 17.3682 -3.22091 0.213758 0
M  V30 181 H 16.4202 -2.78265 2.5937 0
M  V30 182 H 17.7322 -3.79481 3.23721 0
M  V30 183 H 16.8862 -5.75274 1.92729 0
M  V30 184 H 15.6252 -4.73222 1.17949 0
M  V30 185 H 14.6302 -4.28796 3.44113 0
M  V30 186 H 15.8552 -5.34283 4.19188 0
M  V30 187 H 13.8012 -6.20759 2.12118 0
M  V30 188 H 13.7182 -6.52179 3.82358 0
M  V30 189 H 14.9862 -7.24394 2.87879 0
M  V30 190 N 19.2153 -1.21501 -1.00376 0
M  V30 191 C 20.4633 -1.03095 -1.73827 0
M  V30 192 C 20.7843 0.436341 -1.90055 0
M  V30 193 O 20.0543 1.31466 -1.45236 0
M  V30 194 H 18.6343 -0.378487 -0.644016 0
M  V30 195 H 21.2963 -1.52831 -1.20949 0
M  V30 196 H 20.3923 -1.49991 -2.73695 0
M  V30 197 N 20.6934 1.19889 -1.02296 0
M  V30 198 C 21.9214 1.9339 -0.735399 0
M  V30 199 C 22.3364 1.75148 0.704887 0
M  V30 200 O 21.6934 1.06954 1.47875 0
M  V30 201 C 21.7444 3.45313 -1.06962 0
M  V30 202 O 21.4654 3.62964 -2.45334 0
M  V30 203 C 22.9664 4.35948 -0.804021 0
M  V30 204 H 20.1864 0.61448 -0.269546 0
M  V30 205 H 22.7304 1.522 -1.36585 0
M  V30 206 H 20.8854 3.84359 -0.484455 0
M  V30 207 H 21.2994 4.56886 -2.57595 0
M  V30 208 H 22.7734 5.41174 -1.0879 0
M  V30 209 H 23.2504 4.3842 0.261691 0
M  V30 210 H 23.8564 4.02574 -1.37164 0
M  V30 211 N 22.1715 0.800033 1.35784 0
M  V30 212 C 23.1035 0.163596 2.28615 0
M  V30 213 C 24.1165 -0.633317 1.49976 0
M  V30 214 O 25.3055 -0.466754 1.72289 0
M  V30 215 C 22.4055 -0.790958 3.29541 0
M  V30 216 C 21.5785 -0.0418255 4.3738 0
M  V30 217 C 20.6375 -0.91389 5.18203 0
M  V30 218 O 19.6635 -0.367234 5.68014 0
M  V30 219 N 20.8655 -2.23682 5.35674 0
M  V30 220 H 23.6305 0.96105 2.83873 0
M  V30 221 H 21.1915 0.654894 1.48063 0
M  V30 222 H 23.1835 -1.37844 3.80501 0
M  V30 223 H 21.7535 -1.48925 2.74846 0
M  V30 224 H 20.9735 0.726813 3.87442 0
M  V30 225 H 22.2615 0.474719 5.06581 0
M  V30 226 H 21.6595 -2.70497 4.96838 0
M  V30 227 H 20.2165 -2.77369 5.89839 0
M  V30 228 N 23.6496 -1.47581 0.552962 0
M  V30 229 C 24.6126 -2.28439 -0.186605 0
M  V30 230 C 25.6126 -1.36706 -0.84665 0
M  V30 231 O 26.8026 -1.59378 -0.703164 0
M  V30 232 C 23.9346 -3.16264 -1.2724 0
M  V30 233 H 25.1276 -2.95294 0.523609 0
M  V30 234 H 22.6806 -1.532 0.309745 0
M  V30 235 H 23.4156 -2.54091 -2.01514 0
M  V30 236 H 23.2006 -3.83769 -0.803968 0
M  V30 237 H 24.6906 -3.77198 -1.79196 0
M  V30 238 N 25.1277 -0.289203 -1.54924 0
M  V30 239 C 26.4047 0.376032 -1.91951 0
M  V30 240 C 26.7847 1.72622 -1.21511 0
M  V30 241 O 26.1327 2.25853 -0.346767 0
M  V30 242 C 26.3427 0.502378 -3.45365 0
M  V30 243 C 27.6907 0.778741 -4.17398 0
M  V30 244 O 28.7147 0.586647 -3.51336 0
M  V30 245 O 27.5737 1.14698 -5.34328 0
M  V30 246 H 24.6677 0.208167 -0.800372 0
M  V30 247 H 27.2137 -0.336394 -1.66332 0
M  V30 248 H 25.9857 -0.447255 -3.88736 0
M  V30 249 H 25.6087 1.26373 -3.76982 0
M  V30 250 N 26.6058 1.57591 -0.0167156 0
M  V30 251 C 28.0218 1.55946 0.339557 0
M  V30 252 C 28.2218 1.02109 1.73713 0
M  V30 253 O 27.2778 0.662303 2.43659 0
M  V30 254 C 28.5908 3.00037 0.199499 0
M  V30 255 C 30.1388 3.11805 0.273193 0
M  V30 256 C 30.6138 4.57713 0.162068 0
M  V30 257 N 32.1048 4.6268 0.219444 0
M  V30 258 C 32.8398 5.73185 0.157054 0
M  V30 259 N 32.3358 6.92786 0.0442936 0
M  V30 260 N 34.1288 5.61707 0.21014 0
M  V30 261 H 26.2798 1.90921 -0.930758 0
M  V30 262 H 28.5428 0.877674 -0.358319 0
M  V30 263 H 28.2488 3.4333 -0.76273 0
M  V30 264 H 28.1228 3.64387 0.974786 0
M  V30 265 H 30.5098 2.68433 1.22587 0
M  V30 266 H 30.5908 2.50201 -0.532256 0
M  V30 267 H 30.2348 5.01763 -0.78714 0
M  V30 268 H 30.1648 5.17283 0.986222 0
M  V30 269 H 32.6558 3.76649 0.307246 0
M  V30 270 H 32.9688 7.728 0.00304069 0
M  V30 271 H 31.3138 6.94999 0.00968457 0
M  V30 272 H 34.5048 4.6716 0.296546 0
M  V30 273 H 34.6778 6.47807 0.158054 0
M  V30 274 N 28.0839 -0.256276 1.55502 0
M  V30 275 C 29.3329 -0.983486 1.76098 0
M  V30 276 C 29.6459 -1.86837 0.578896 0
M  V30 277 O 30.8519 -2.63163 0.667648 0
M  V30 278 C 29.3079 -1.79868 3.1173 0
M  V30 279 C 28.9159 -0.961648 4.37557 0
M  V30 280 C 30.6599 -2.51919 3.41668 0
M  V30 281 C 28.5669 -1.77219 5.64223 0
M  V30 282 H 27.4969 -0.370936 0.656447 0
M  V30 283 H 30.1479 -0.238492 1.81944 0
M  V30 284 H 28.5299 -2.58527 2.99966 0
M  V30 285 H 29.7039 -0.218048 4.60284 0
M  V30 286 H 28.0189 -0.354913 4.14885 0
M  V30 287 H 30.6159 -3.12998 4.33516 0
M  V30 288 H 30.9589 -3.23059 2.62562 0
M  V30 289 H 31.4919 -1.80278 3.54605 0
M  V30 290 H 28.2309 -1.10471 6.46124 0
M  V30 291 H 27.7509 -2.49132 5.45613 0
M  V30 292 H 29.4299 -2.34169 6.03137 0
M  V30 293 N 29.562 -1.4872 -0.521534 0
M  V30 294 C 30.808 -1.574 -1.27879 0
M  V30 295 C 31.141 -0.250817 -1.92573 0
M  V30 296 O 30.416 0.743934 -1.79711 0
M  V30 297 C 30.699 -2.71843 -2.36164 0
M  V30 298 C 30.552 -4.13893 -1.76105 0
M  V30 299 C 31.871 -2.82008 -3.37875 0
M  V30 300 H 28.99 -0.572941 -0.463581 0
M  V30 301 H 31.632 -1.80927 -0.580119 0
M  V30 302 H 29.782 -2.51914 -2.95756 0
M  V30 303 H 31.454 -4.45284 -1.20499 0
M  V30 304 H 29.697 -4.20498 -1.06601 0
M  V30 305 H 30.368 -4.89804 -2.5455 0
M  V30 306 H 32.844 -3.00086 -2.88249 0
M  V30 307 H 31.72 -3.63796 -4.11028 0
M  V30 308 H 31.981 -1.90511 -3.98946 0
M  V30 309 N 31.0401 0.771051 -1.3745 0
M  V30 310 C 31.9501 1.91538 -1.35464 0
M  V30 311 C 32.9661 1.72134 -0.254123 0
M  V30 312 O 34.1421 1.95358 -0.489626 0
M  V30 313 C 31.2071 3.26671 -1.16134 0
M  V30 314 C 30.2681 3.58723 -2.35831 0
M  V30 315 C 29.5011 4.87409 -2.17413 0
M  V30 316 O 29.7241 5.58506 -1.15876 0
M  V30 317 O 28.6581 5.18539 -3.05615 0
M  V30 318 H 32.4841 1.96165 -2.31847 0
M  V30 319 H 30.0691 0.9139 -1.18187 0
M  V30 320 H 31.9511 4.07499 -1.07345 0
M  V30 321 H 30.6261 3.22894 -0.228251 0
M  V30 322 H 29.5331 2.78127 -2.50192 0
M  V30 323 H 30.8661 3.67243 -3.27709 0
M  V30 324 N 32.5182 1.22032 0.997298 0
M  V30 325 C 33.4652 0.986467 2.08656 0
M  V30 326 C 34.4352 -0.0902671 1.65855 0
M  V30 327 O 35.6202 0.0584294 1.90711 0
M  V30 328 C 32.7602 0.565569 3.40434 0
M  V30 329 C 31.8732 1.71259 3.96604 0
M  V30 330 C 31.0082 1.24011 5.16522 0
M  V30 331 C 30.0472 2.35896 5.64818 0
M  V30 332 N 29.1842 1.89726 6.7598 0
M  V30 333 H 34.0242 1.91892 2.27994 0
M  V30 334 H 31.5612 0.956199 1.11782 0
M  V30 335 H 33.5192 0.302738 4.161 0
M  V30 336 H 32.1492 -0.329879 3.2111 0
M  V30 337 H 31.2012 2.08986 3.17851 0
M  V30 338 H 32.5132 2.55436 4.28432 0
M  V30 339 H 31.6672 0.934395 5.99461 0
M  V30 340 H 30.4062 0.368487 4.86306 0
M  V30 341 H 29.4112 2.67261 4.8047 0
M  V30 342 H 30.6362 3.23567 5.97061 0
M  V30 343 H 28.5822 1.0492 6.47555 0
M  V30 344 H 28.4992 2.67471 7.07103 0
M  V30 345 H 29.7672 1.62211 7.62435 0
M  V30 346 N 33.9963 -1.19345 1.0293 0
M  V30 347 C 35.2263 -1.92717 0.744563 0
M  V30 348 C 35.6343 -1.75751 -0.700579 0
M  V30 349 O 34.9773 -1.07703 -1.48815 0
M  V30 350 C 35.0393 -3.44828 1.01657 0
M  V30 351 C 34.7033 -3.85564 2.45335 0
M  V30 352 C 35.7003 -3.90286 3.43472 0
M  V30 353 C 33.3853 -4.1719 2.79746 0
M  V30 354 C 35.3793 -4.26065 4.74075 0
M  V30 355 C 33.0663 -4.52642 4.10559 0
M  V30 356 C 34.0643 -4.57054 5.07534 0
M  V30 357 O 33.7523 -4.91685 6.36004 0
M  V30 358 H 33.4843 -0.618977 0.271742 0
M  V30 359 H 36.0383 -1.52415 1.37691 0
M  V30 360 H 34.2683 -3.85314 0.327084 0
M  V30 361 H 35.9573 -3.99437 0.721427 0
M  V30 362 H 36.7233 -3.66002 3.18225 0
M  V30 363 H 32.6023 -4.1294 2.04943 0
M  V30 364 H 36.1463 -4.29423 5.49765 0
M  V30 365 H 32.0433 -4.76383 4.35579 0
M  V30 366 H 32.8113 -5.09631 6.40483 0
M  V30 367 N 35.4744 -0.807222 -1.35358 0
M  V30 368 C 36.7224 -0.387122 -1.98358 0
M  V30 369 C 37.0434 1.04942 -1.64354 0
M  V30 370 O 36.3134 1.72615 -0.926339 0
M  V30 371 H 34.8934 -0.140154 -0.733734 0
M  V30 372 H 37.5554 -1.0332 -1.6526 0
M  V30 373 H 36.6514 -0.493352 -3.08176 0
M  V30 374 N 36.9525 1.47285 -0.560781 0
M  V30 375 C 38.1805 2.06855 -0.0430262 0
M  V30 376 C 38.5955 1.41291 1.25229 0
M  V30 377 O 37.9525 0.510648 1.7521 0
M  V30 378 C 38.0035 3.61178 0.152518 0
M  V30 379 O 37.7245 4.24285 -1.0915 0
M  V30 380 C 39.2255 4.37624 0.707145 0
M  V30 381 H 36.4455 0.669319 -0.0474652 0
M  V30 382 H 38.9895 1.89237 -0.77521 0
M  V30 383 H 37.1445 3.78298 0.834843 0
M  V30 384 H 37.5585 5.16868 -0.891482 0
M  V30 385 H 39.0325 5.46271 0.793244 0
M  V30 386 H 39.5095 4.04152 1.71923 0
M  V30 387 H 40.1155 4.25257 0.0604027 0
M  V30 388 N 38.4306 0.297415 1.54768 0
M  V30 389 C 39.8416 -0.195947 1.85669 0
M  V30 390 C 40.1926 -1.53707 1.21937 0
M  V30 391 O 39.3176 -2.10164 0.515754 0
M  V30 392 C 39.9126 -0.362318 3.36857 0
M  V30 393 C 38.4716 -0.799901 3.67802 0
M  V30 394 C 37.6186 0.0938578 2.77141 0
M  V30 395 H 40.5696 0.518538 1.4999 0
M  V30 396 H 40.5906 -1.19745 3.61167 0
M  V30 397 H 40.1026 0.613921 3.83214 0
M  V30 398 H 38.2036 -1.78682 3.26961 0
M  V30 399 H 38.3166 -0.621773 4.75048 0
M  V30 400 H 36.6806 -0.426254 2.51108 0
M  V30 401 H 37.4636 1.06639 3.26318 0
M  V30 402 N 39.9087 -1.5758 0.0250728 0
M  V30 403 C 40.8587 -2.06468 -0.967201 0
M  V30 404 C 41.8427 -0.964376 -1.28797 0
M  V30 405 O 43.0347 -1.22797 -1.27475 0
M  V30 406 C 40.1637 -2.59203 -2.25097 0
M  V30 407 C 39.2497 -3.76157 -1.95874 0
M  V30 408 N 39.6407 -4.86919 -1.36905 0
M  V30 409 C 37.9387 -3.84566 -2.25887 0
M  V30 410 C 38.6397 -5.68172 -1.24724 0
M  V30 411 N 37.6157 -5.14953 -1.74138 0
M  V30 412 H 41.4177 -2.89508 -0.506176 0
M  V30 413 H 38.9317 -1.61399 -0.18004 0
M  V30 414 H 40.9287 -2.92517 -2.97052 0
M  V30 415 H 39.5887 -1.77592 -2.71829 0
M  V30 416 H 40.5997 -5.07256 -1.04459 0
M  V30 417 H 37.2767 -3.13854 -2.75321 0
M  V30 418 H 38.6667 -6.67221 -0.791605 0
M  V30 419 N 41.3868 0.248026 -1.55636 0
M  V30 420 C 42.6358 0.974134 -1.76617 0
M  V30 421 C 42.9488 1.86528 -0.588796 0
M  V30 422 O 44.1548 2.62805 -0.681594 0
M  V30 423 C 42.6108 1.78213 -3.12679 0
M  V30 424 C 42.2188 0.93843 -4.38061 0
M  V30 425 C 43.9628 2.50104 -3.42999 0
M  V30 426 C 41.8698 1.74225 -5.65155 0
M  V30 427 H 40.7998 0.36745 -0.658405 0
M  V30 428 H 43.4508 0.22884 -1.82067 0
M  V30 429 H 41.8328 2.56933 -3.01333 0
M  V30 430 H 43.0068 0.193635 -4.60393 0
M  V30 431 H 41.3218 0.332905 -4.15067 0
M  V30 432 H 43.9188 3.10694 -4.3517 0
M  V30 433 H 44.2618 3.21662 -2.64271 0
M  V30 434 H 44.7948 1.78395 -3.55556 0
M  V30 435 H 41.5338 1.07043 -6.46701 0
M  V30 436 H 41.0538 2.46235 -5.46926 0
M  V30 437 H 42.7328 2.30967 -6.0437 0
M  V30 438 N 42.8649 1.48995 0.513639 0
M  V30 439 C 44.0899 1.61792 1.29762 0
M  V30 440 C 44.5149 0.284475 1.85936 0
M  V30 441 O 43.8729 -0.746185 1.65232 0
M  V30 442 C 43.9209 2.67993 2.41272 0
M  V30 443 O 43.0249 2.26287 3.44772 0
M  V30 444 H 42.3659 0.541963 0.38363 0
M  V30 445 H 44.8959 1.95097 0.616307 0
M  V30 446 H 44.9059 2.89772 2.87221 0
M  V30 447 H 43.5809 3.64791 1.9975 0
M  V30 448 H 42.1579 2.14788 3.04829 0
M  V30 449 N 44.343 -0.763751 1.37857 0
M  V30 450 C 45.571 -1.55293 1.36718 0
M  V30 451 C 45.986 -1.88745 -0.0455434 0
M  V30 452 O 45.343 -1.52039 -1.00947 0
M  V30 453 C 45.394 -2.85831 2.2132 0
M  V30 454 O 45.115 -2.5381 3.57089 0
M  V30 455 C 46.616 -3.80023 2.28249 0
M  V30 456 H 43.836 -0.480841 0.468009 0
M  V30 457 H 46.38 -0.946009 1.81303 0
M  V30 458 H 44.535 -3.42926 1.80223 0
M  V30 459 H 44.949 -3.37459 4.01524 0
M  V30 460 H 46.423 -4.68599 2.91752 0
M  V30 461 H 46.9 -4.1973 1.2932 0
M  V30 462 H 47.506 -3.28855 2.69693 0
M  V30 463 N 45.8211 -1.22559 -0.990812 0
M  V30 464 C 47.0691 -1.04933 -1.72724 0
M  V30 465 C 47.3901 0.416158 -1.90508 0
M  V30 466 O 46.6601 1.29918 -1.46622 0
M  V30 467 H 45.2401 -0.385296 -0.639965 0
M  V30 468 H 47.9021 -1.54105 -1.19322 0
M  V30 469 H 46.9981 -1.52886 -2.72089 0
M  V30 470 N 47.2992 1.18797 -1.03562 0
M  V30 471 C 48.5762 1.84469 -0.650434 0
M  V30 472 C 48.9562 1.92319 0.870433 0
M  V30 473 O 48.3042 1.44528 1.76986 0
M  V30 474 C 48.5142 3.2306 -1.32036 0
M  V30 475 C 49.8622 3.9915 -1.44792 0
M  V30 476 O 50.8862 3.32481 -1.27806 0
M  V30 477 O 49.7452 5.18587 -1.72423 0
M  V30 478 H 46.8392 0.795251 -0.226946 0
M  V30 479 H 49.3852 1.26231 -1.13419 0
M  V30 480 H 48.1572 3.1222 -2.3587 0
M  V30 481 H 47.7802 3.88949 -0.8249 0
M  V30 482 N 48.7773 0.814389 1.34928 0
M  V30 483 C 49.7103 0.175641 2.27523 0
M  V30 484 C 50.6883 -0.662953 1.48471 0
M  V30 485 O 51.8723 -0.628545 1.77712 0
M  V30 486 C 48.9993 -0.755516 3.30166 0
M  V30 487 C 48.0453 0.00445305 4.265 0
M  V30 488 S 48.8783 1.34582 5.18313 0
M  V30 489 C 50.0343 0.419315 6.24494 0
M  V30 490 H 50.2673 0.960691 2.8135 0
M  V30 491 H 47.8003 0.609846 1.41846 0
M  V30 492 H 49.7583 -1.28723 3.89796 0
M  V30 493 H 48.4193 -1.51402 2.75202 0
M  V30 494 H 47.6123 -0.703077 4.99072 0
M  V30 495 H 47.2143 0.466447 3.7108 0
M  V30 496 H 49.5063 -0.392432 6.76362 0
M  V30 497 H 50.4493 1.11446 6.99275 0
M  V30 498 H 50.8573 0.0115389 5.64499 0
M  V30 499 N 50.2554 -1.46986 0.568584 0
M  V30 500 C 51.5024 -2.02441 0.0487986 0
M  V30 501 C 51.8304 -1.44169 -1.30559 0
M  V30 502 O 51.0854 -0.591213 -1.86556 0
M  V30 503 C 51.3844 -3.57306 -0.081836 0
M  V30 504 C 51.0504 -4.34552 1.20313 0
M  V30 505 C 49.7124 -4.55376 1.5552 0
M  V30 506 C 52.0644 -4.79016 2.05411 0
M  V30 507 C 49.3924 -5.17913 2.7565 0
M  V30 508 C 51.7444 -5.42879 3.24754 0
M  V30 509 C 50.4084 -5.61933 3.60261 0
M  V30 510 H 49.6784 -0.740785 0.0178567 0
M  V30 511 H 52.3254 -1.76525 0.742384 0
M  V30 512 H 50.6304 -3.8228 -0.858463 0
M  V30 513 H 52.3274 -3.97876 -0.499546 0
M  V30 514 H 48.9174 -4.18631 0.919014 0
M  V30 515 H 53.1014 -4.62696 1.79516 0
M  V30 516 H 48.3574 -5.30858 3.03315 0
M  V30 517 H 52.5314 -5.76293 3.90973 0
M  V30 518 H 50.1584 -6.10161 4.53439 0
M  V30 519 N 51.7335 -0.305618 -1.54608 0
M  V30 520 C 53.1495 0.0476228 -1.59529 0
M  V30 521 C 53.3495 1.52025 -1.32252 0
M  V30 522 O 52.4055 2.27368 -1.09818 0
M  V30 523 C 53.7185 -0.354471 -2.98603 0
M  V30 524 C 55.2665 -0.303622 -3.11524 0
M  V30 525 C 55.7415 -0.680608 -4.52915 0
M  V30 526 N 57.2325 -0.63332 -4.5885 0
M  V30 527 C 57.9675 -0.897432 -5.66334 0
M  V30 528 N 57.4635 -1.22775 -6.81834 0
M  V30 529 N 59.2565 -0.824186 -5.56025 0
M  V30 530 H 51.4075 -1.2653 -1.70599 0
M  V30 531 H 53.6705 -0.513291 -0.797017 0
M  V30 532 H 53.3765 -1.3798 -3.23503 0
M  V30 533 H 53.2505 0.289568 -3.76087 0
M  V30 534 H 55.6375 0.712472 -2.8637 0
M  V30 535 H 55.7185 -0.982348 -2.36185 0
M  V30 536 H 55.3625 -1.69453 -4.78799 0
M  V30 537 H 55.2925 0.0202385 -5.26596 0
M  V30 538 H 57.7835 -0.389138 -3.75891 0
M  V30 539 H 58.0965 -1.41513 -7.59733 0
M  V30 540 H 56.4415 -1.26583 -6.83375 0
M  V30 541 H 59.6325 -0.565748 -4.64669 0
M  V30 542 H 59.8055 -1.03338 -6.39707 0
M  V30 543 N 53.2116 1.57565 -0.0334293 0
M  V30 544 C 54.1746 2.09393 0.932048 0
M  V30 545 C 55.1746 1.00986 1.25134 0
M  V30 546 O 56.3646 1.27129 1.19096 0
M  V30 547 C 53.4966 2.56338 2.2473 0
M  V30 548 H 54.6896 2.95984 0.483085 0
M  V30 549 H 52.2426 1.54819 0.21468 0
M  V30 550 H 52.9776 1.7309 2.74245 0
M  V30 551 H 52.7626 3.35542 2.02865 0
M  V30 552 H 54.2526 2.96646 2.93923 0
M  V30 553 N 54.6897 -0.239769 1.55765 0
M  V30 554 C 55.6527 -1.28038 1.90103 0
M  V30 555 C 56.6527 -1.40723 0.778055 0
M  V30 556 O 57.8427 -1.39301 1.04599 0
M  V30 557 C 54.9747 -2.65702 2.13577 0
M  V30 558 H 56.1677 -0.988048 2.83157 0
M  V30 559 H 53.7207 -0.479382 1.48767 0
M  V30 560 H 54.4557 -3.00063 1.23015 0
M  V30 561 H 54.2407 -2.57875 2.95369 0
M  V30 562 H 55.7307 -3.40828 2.41301 0
M  V30 563 N 56.1678 -1.49265 -0.50573 0
M  V30 564 C 57.4168 -1.57761 -1.25675 0
M  V30 565 C 57.7298 -0.267371 -1.93764 0
M  V30 566 O 58.9358 -0.230827 -2.70517 0
M  V30 567 C 57.3918 -2.78332 -2.28165 0
M  V30 568 C 56.9998 -4.16096 -1.66037 0
M  V30 569 C 58.7438 -2.96155 -3.04125 0
M  V30 570 C 56.6508 -5.27895 -2.6661 0
M  V30 571 H 55.5808 -0.587391 -0.472745 0
M  V30 572 H 58.2318 -1.75644 -0.53118 0
M  V30 573 H 56.6138 -2.53934 -3.03865 0
M  V30 574 H 57.7878 -4.50612 -0.963622 0
M  V30 575 H 56.1028 -4.03591 -1.02484 0
M  V30 576 H 58.6998 -3.76849 -3.79327 0
M  V30 577 H 59.0428 -2.06534 -3.61455 0
M  V30 578 H 59.5758 -3.2057 -2.35541 0
M  V30 579 H 56.3148 -6.1956 -2.14068 0
M  V30 580 H 55.8348 -4.97839 -3.34539 0
M  V30 581 H 57.5138 -5.57031 -3.29129 0
M  V30 582 N 57.6459 0.756429 -1.3826 0
M  V30 583 C 58.5779 1.87971 -1.31147 0
M  V30 584 C 59.5909 1.61248 -0.224239 0
M  V30 585 O 60.7799 1.71881 -0.481581 0
M  V30 586 C 57.8799 3.23545 -1.00857 0
M  V30 587 C 57.0529 3.77794 -2.20432 0
M  V30 588 C 56.1119 4.91877 -1.86931 0
M  V30 589 O 55.1379 5.06659 -2.59395 0
M  V30 590 N 56.3399 5.74643 -0.822568 0
M  V30 591 H 59.1049 1.94585 -2.2794 0
M  V30 592 H 56.6659 0.936234 -1.32084 0
M  V30 593 H 58.6579 3.97403 -0.765021 0
M  V30 594 H 57.2279 3.12335 -0.128687 0
M  V30 595 H 56.4479 2.95534 -2.6087 0
M  V30 596 H 57.7359 4.10771 -3.00241 0
M  V30 597 H 57.1339 5.65266 -0.221575 0
M  V30 598 H 55.6909 6.48661 -0.638899 0
M  V30 599 N 59.124 1.23083 0.984299 0
M  V30 600 C 60.034 1.02515 2.11016 0
M  V30 601 C 61.05 -0.0291702 1.73976 0
M  V30 602 O 62.226 0.165434 2.00719 0
M  V30 603 C 59.291 0.614673 3.41208 0
M  V30 604 C 58.352 1.74359 3.92297 0
M  V30 605 C 57.585 1.35261 5.16275 0
M  V30 606 O 57.808 0.235136 5.69915 0
M  V30 607 O 56.742 2.17227 5.61334 0
M  V30 608 H 60.568 1.96862 2.31255 0
M  V30 609 H 58.153 1.01753 1.09392 0
M  V30 610 H 60.035 0.396518 4.1953 0
M  V30 611 H 58.71 -0.299851 3.22308 0
M  V30 612 H 57.617 2.01635 3.1511 0
M  V30 613 H 58.95 2.63629 4.15645 0
M  V30 614 N 60.6021 -1.18246 1.0419 0
M  V30 615 C 61.8501 -1.87886 0.744543 0
M  V30 616 C 62.1711 -1.8082 -0.730006 0
M  V30 617 O 61.4411 -1.22736 -1.52685 0
M  V30 618 H 60.0211 -0.695556 0.272417 0
M  V30 619 H 62.6831 -1.43494 1.31892 0
M  V30 620 H 61.7791 -2.9389 1.05049 0
M  V30 621 N 62.0802 -0.821533 -1.34494 0
M  V30 622 C 63.3082 -0.421884 -2.02553 0
M  V30 623 C 63.7232 0.971745 -1.61872 0
M  V30 624 O 63.0802 1.62864 -0.823496 0
M  V30 625 C 63.1312 -0.51285 -3.57844 0
M  V30 626 O 62.8522 -1.85155 -3.97051 0
M  V30 627 C 64.3532 -0.107921 -4.43169 0
M  V30 628 H 61.5732 -0.169482 -0.649243 0
M  V30 629 H 64.1172 -1.1093 -1.71798 0
M  V30 630 H 62.2722 0.126474 -3.87193 0
M  V30 631 H 62.6862 -1.82482 -4.91732 0
M  V30 632 H 64.1602 -0.222657 -5.51551 0
M  V30 633 H 64.6372 0.948401 -4.28838 0
M  V30 634 H 65.2432 -0.720989 -4.19144 0
M  V30 635 N 63.5583 1.46682 -0.576371 0
M  V30 636 C 64.4683 2.34032 0.163141 0
M  V30 637 C 65.4843 1.49367 0.892501 0
M  V30 638 O 66.6603 1.82252 0.857106 0
M  V30 639 C 63.7253 3.26435 1.16795 0
M  V30 640 C 62.7863 4.26998 0.443944 0
M  V30 641 C 62.0193 5.14986 1.40088 0
M  V30 642 O 62.2423 5.05785 2.637 0
M  V30 643 O 61.1763 5.94906 0.914917 0
M  V30 644 H 65.0023 2.98607 -0.55388 0
M  V30 645 H 62.5873 1.45554 -0.336821 0
M  V30 646 H 64.4693 3.83459 1.74748 0
M  V30 647 H 63.1443 2.64465 1.86655 0
M  V30 648 H 62.0513 3.7368 -0.177271 0
M  V30 649 H 63.3843 4.91736 -0.213566 0
M  V30 650 N 65.0364 0.313813 1.54444 0
M  V30 651 C 65.9664 -0.549454 2.26943 0
M  V30 652 C 66.9474 -1.12741 1.27372 0
M  V30 653 O 68.1324 -1.15436 1.56167 0
M  V30 654 C 65.2624 -1.71523 3.01989 0
M  V30 655 C 64.2164 -1.26703 4.08816 0
M  V30 656 C 63.5424 -2.51898 4.71647 0
M  V30 657 C 64.8424 -0.388962 5.2085 0
M  V30 658 H 66.5364 0.0552661 2.99349 0
M  V30 659 H 64.0824 0.0280207 1.43973 0
M  V30 660 H 66.0354 -2.32535 3.51433 0
M  V30 661 H 64.7594 -2.34639 2.27183 0
M  V30 662 H 63.4184 -0.679896 3.6024 0
M  V30 663 H 63.0664 -3.13356 3.93468 0
M  V30 664 H 62.7664 -2.22605 5.43802 0
M  V30 665 H 64.2904 -3.1369 5.23861 0
M  V30 666 H 65.7044 -0.905107 5.6611 0
M  V30 667 H 64.1014 -0.18924 5.99802 0
M  V30 668 H 65.1714 0.582699 4.81386 0
M  V30 669 N 66.5145 -1.57545 0.0417849 0
M  V30 670 C 67.7625 -1.91937 -0.632829 0
M  V30 671 C 68.0835 -0.919978 -1.71934 0
M  V30 672 O 67.3535 0.0366064 -1.95866 0
M  V30 673 H 65.9335 -0.708493 -0.236742 0
M  V30 674 H 68.5955 -1.9468 0.0925745 0
M  V30 675 H 67.6915 -2.92912 -1.07746 0
M  V30 676 N 67.9926 0.231505 -1.5589 0
M  V30 677 C 69.2386 0.95877 -1.78705 0
M  V30 678 C 69.5716 1.8438 -0.609725 0
M  V30 679 O 68.8466 1.90521 0.391426 0
M  V30 680 C 69.1296 1.8062 -3.11526 0
M  V30 681 C 68.9826 0.948328 -4.39689 0
M  V30 682 C 70.3016 2.78585 -3.40703 0
M  V30 683 H 67.4206 0.347129 -0.650131 0
M  V30 684 H 70.0626 0.228259 -1.88624 0
M  V30 685 H 68.2126 2.42902 -3.03201 0
M  V30 686 H 69.8846 0.343016 -4.60023 0
M  V30 687 H 68.1276 0.253314 -4.3306 0
M  V30 688 H 68.7986 1.57543 -5.29041 0
M  V30 689 H 71.2746 2.26439 -3.49091 0
M  V30 690 H 70.1506 3.34988 -4.34826 0
M  V30 691 H 70.4116 3.55825 -2.62375 0
M  V30 692 N 69.4707 1.49531 0.497807 0
M  V30 693 C 70.4177 1.66436 1.59899 0
M  V30 694 C 71.3877 0.505793 1.58212 0
M  V30 695 O 72.5727 0.733202 1.7615 0
M  V30 696 C 69.7127 1.7399 2.98029 0
M  V30 697 C 68.8257 3.01172 3.09708 0
M  V30 698 C 67.9607 2.99686 4.38591 0
M  V30 699 C 66.9997 4.21434 4.43914 0
M  V30 700 N 66.1367 4.1784 5.64229 0
M  V30 701 H 70.9767 2.60459 1.44793 0
M  V30 702 H 68.5137 1.29137 0.704423 0
M  V30 703 H 70.4717 1.76352 3.78095 0
M  V30 704 H 69.1017 0.834301 3.11832 0
M  V30 705 H 68.1537 3.08408 2.22685 0
M  V30 706 H 69.4657 3.91165 3.09502 0
M  V30 707 H 68.6197 3.00628 5.2698 0
M  V30 708 H 67.3587 2.07477 4.41367 0
M  V30 709 H 66.3637 4.20733 3.53926 0
M  V30 710 H 67.5887 5.14839 4.42851 0
M  V30 711 H 65.5347 3.28469 5.67841 0
M  V30 712 H 65.4517 5.01571 5.65652 0
M  V30 713 H 66.7197 4.22889 6.54817 0
M  V30 714 N 70.9488 -0.749086 1.3866 0
M  V30 715 C 71.9118 -1.84457 1.36045 0
M  V30 716 C 72.9118 -1.58682 0.260122 0
M  V30 717 O 74.1018 -1.66343 0.517261 0
M  V30 718 C 71.2338 -3.22008 1.11911 0
M  V30 719 H 72.4268 -1.88182 2.33512 0
M  V30 720 H 69.9798 -0.951266 1.24019 0
M  V30 721 H 70.7148 -3.2395 0.150686 0
M  V30 722 H 70.4998 -3.42111 1.91579 0
M  V30 723 H 71.9898 -4.0208 1.12788 0
M  V30 724 N 72.4269 -1.23603 -0.977757 0
M  V30 725 C 73.3739 -1.01954 -2.07061 0
M  V30 726 C 74.3439 0.0638697 -1.65977 0
M  V30 727 O 75.5289 -0.0887624 -1.90593 0
M  V30 728 C 72.6689 -0.619658 -3.39491 0
M  V30 729 C 71.7819 -1.77547 -3.93829 0
M  V30 730 C 70.9169 -1.32212 -5.14484 0
M  V30 731 C 69.9559 -2.44852 -5.60994 0
M  V30 732 N 69.0929 -2.00456 -6.72876 0
M  V30 733 H 73.9329 -1.95495 -2.24913 0
M  V30 734 H 71.4699 -0.973861 -1.10247 0
M  V30 735 H 73.4279 -0.368898 -4.15566 0
M  V30 736 H 72.0579 0.278752 -3.21594 0
M  V30 737 H 71.1099 -2.14016 -3.14486 0
M  V30 738 H 72.4219 -2.62219 -4.24314 0
M  V30 739 H 71.5759 -1.02965 -5.97899 0
M  V30 740 H 70.3149 -0.445808 -4.85658 0
M  V30 741 H 69.3199 -2.74871 -4.76157 0
M  V30 742 H 70.5449 -3.33024 -5.91837 0
M  V30 743 H 68.4909 -1.15208 -6.45804 0
M  V30 744 H 68.4079 -2.78687 -7.02759 0
M  V30 745 H 69.6759 -1.7432 -7.59758 0
M  V30 746 N 73.905 1.17692 -1.04816 0
M  V30 747 C 75.13 1.92327 -0.776207 0
M  V30 748 C 75.555 1.76082 0.661581 0
M  V30 749 O 74.913 1.076 1.45917 0
M  V30 750 C 74.961 3.41539 -1.15687 0
M  V30 751 O 74.065 4.11402 -0.286775 0
M  V30 752 H 73.406 0.599735 -0.284981 0
M  V30 753 H 75.936 1.49201 -1.4 0
M  V30 754 H 75.946 3.92269 -1.12202 0
M  V30 755 H 74.621 3.52684 -2.20425 0
M  V30 756 H 73.198 3.70939 -0.381903 0
M  V30 757 N 75.3831 0.828654 1.34056 0
M  V30 758 C 76.6301 0.419458 1.98108 0
M  V30 759 C 76.9581 -1.01886 1.65679 0
M  V30 760 O 76.2131 -1.72539 0.923512 0
M  V30 761 C 76.5121 0.575226 3.52741 0
M  V30 762 C 76.1781 1.98012 4.05095 0
M  V30 763 C 74.8401 2.36442 4.19104 0
M  V30 764 C 77.1921 2.89824 4.33188 0
M  V30 765 C 74.5201 3.66009 4.58535 0
M  V30 766 C 76.8721 4.1886 4.74066 0
M  V30 767 C 75.5361 4.5726 4.86281 0
M  V30 768 H 74.8061 0.153491 0.724929 0
M  V30 769 H 77.4531 1.05371 1.59904 0
M  V30 770 H 75.7581 -0.142385 3.91541 0
M  V30 771 H 77.4551 0.239057 4.00287 0
M  V30 772 H 74.0451 1.67162 3.94658 0
M  V30 773 H 78.2291 2.61375 4.21897 0
M  V30 774 H 73.4851 3.95579 4.66184 0
M  V30 775 H 77.6591 4.90086 4.94761 0
M  V30 776 H 75.2861 5.57707 5.16592 0
M  V30 777 N 76.8612 -1.46375 0.584142 0
M  V30 778 C 77.7942 -2.27351 -0.196676 0
M  V30 779 C 78.7722 -1.35715 -0.895561 0
M  V30 780 O 79.9562 -1.65126 -0.90916 0
M  V30 781 C 77.0832 -3.13486 -1.28235 0
M  V30 782 C 76.1292 -4.20896 -0.689145 0
M  V30 783 S 76.9622 -5.33299 0.48507 0
M  V30 784 C 78.1182 -6.23 -0.601767 0
M  V30 785 H 78.3512 -2.93228 0.490395 0
M  V30 786 H 75.8842 -1.49875 0.371071 0
M  V30 787 H 77.8422 -3.63676 -1.90395 0
M  V30 788 H 76.5032 -2.4692 -1.94138 0
M  V30 789 H 75.6962 -4.80997 -1.50527 0
M  V30 790 H 75.2982 -3.73726 -0.143181 0
M  V30 791 H 77.5902 -6.60979 -1.48705 0
M  V30 792 H 78.5332 -7.0809 -0.0374799 0
M  V30 793 H 78.9412 -5.57173 -0.906557 0
M  V30 794 N 78.3393 -0.321999 -1.54275 0
M  V30 795 C 79.6163 0.335232 -1.92706 0
M  V30 796 C 79.9963 1.70006 -1.25145 0
M  V30 797 O 79.3443 2.25067 -0.394596 0
M  V30 798 C 79.5543 0.429008 -3.46353 0
M  V30 799 C 80.9023 0.690029 -4.18956 0
M  V30 800 O 81.9263 0.511992 -3.52501 0
M  V30 801 O 80.7853 1.03338 -5.36641 0
M  V30 802 H 77.8793 0.191143 -0.804608 0
M  V30 803 H 80.4253 -0.3716 -1.65581 0
M  V30 804 H 79.1973 -0.529611 -3.87699 0
M  V30 805 H 78.8203 1.18348 -3.79578 0
M  V30 806 N 79.8174 1.5752 -0.0501392 0
M  V30 807 C 80.7494 2.08413 0.95376 0
M  V30 808 C 81.7624 1.01175 1.27544 0
M  V30 809 O 82.9514 1.28744 1.23641 0
M  V30 810 C 80.0514 2.51138 2.27559 0
M  V30 811 C 79.2244 3.817 2.13598 0
M  V30 812 C 78.2834 4.10749 3.28895 0
M  V30 813 O 77.3094 4.80685 3.04845 0
M  V30 814 N 78.5114 3.62579 4.5334 0
M  V30 815 H 81.2764 2.95165 0.519383 0
M  V30 816 H 78.8374 1.61327 0.136127 0
M  V30 817 H 80.8294 2.67648 3.03557 0
M  V30 818 H 79.3994 1.6964 2.62567 0
M  V30 819 H 78.6194 3.74782 1.22197 0
M  V30 820 H 79.9074 4.67201 2.01496 0
M  V30 821 H 79.3054 3.06039 4.75769 0
M  V30 822 H 77.8624 3.84329 5.26436 0
M  V30 823 N 81.2955 -0.223234 1.56011 0
M  V30 824 C 82.5435 -0.946003 1.78592 0
M  V30 825 C 82.8645 -1.84936 0.618349 0
M  V30 826 O 82.1345 -1.92473 -0.364833 0
M  V30 827 H 80.7145 -0.352298 0.658707 0
M  V30 828 H 83.3765 -0.235494 1.93472 0
M  V30 829 H 82.4725 -1.55381 2.70672 0
M  V30 830 N 82.7736 -1.49793 -0.48987 0
M  V30 831 C 83.7366 -1.66752 -1.57246 0
M  V30 832 C 84.7366 -0.538867 -1.51502 0
M  V30 833 O 85.9266 -0.805545 -1.54456 0
M  V30 834 C 83.0586 -1.67528 -2.96896 0
M  V30 835 H 84.2516 -2.63321 -1.43534 0
M  V30 836 H 81.8046 -1.38992 -0.714914 0
M  V30 837 H 82.5396 -0.725837 -3.16073 0
M  V30 838 H 82.3246 -2.49504 -3.02473 0
M  V30 839 H 83.8146 -1.82667 -3.7553 0
M  V30 840 N 84.2517 0.741722 -1.39055 0
M  V30 841 C 85.1817 1.869 -1.39966 0
M  V30 842 C 86.1627 1.6804 -0.26392 0
M  V30 843 O 87.3477 1.88458 -0.468755 0
M  V30 844 C 84.4777 3.24572 -1.23574 0
M  V30 845 C 83.4317 3.58056 -2.34477 0
M  V30 846 C 82.7577 4.94593 -2.0318 0
M  V30 847 C 84.0577 3.61716 -3.76774 0
M  V30 848 H 85.7517 1.86395 -2.34302 0
M  V30 849 H 83.2977 0.895361 -1.1278 0
M  V30 850 H 85.2507 4.031 -1.22834 0
M  V30 851 H 83.9747 3.25587 -0.257045 0
M  V30 852 H 82.6337 2.81854 -2.34423 0
M  V30 853 H 82.2817 4.92181 -1.03765 0
M  V30 854 H 81.9817 5.17964 -2.77465 0
M  V30 855 H 83.5057 5.75486 -2.04079 0
M  V30 856 H 84.9197 4.30335 -3.78794 0
M  V30 857 H 83.3167 3.96603 -4.50362 0
M  V30 858 H 84.3867 2.61672 -4.08235 0
M  V30 859 N 85.7298 1.2412 0.971189 0
M  V30 860 C 86.9758 1.08041 1.71625 0
M  V30 861 C 87.3088 -0.380407 1.90438 0
M  V30 862 O 86.5838 -1.28127 1.46334 0
M  V30 863 C 86.8668 1.81682 3.10908 0
M  V30 864 C 86.7198 3.35493 2.99608 0
M  V30 865 C 88.0388 1.58671 4.10501 0
M  V30 866 H 85.1578 0.39388 0.622919 0
M  V30 867 H 87.7998 1.52743 1.13003 0
M  V30 868 H 85.9498 1.43684 3.60953 0
M  V30 869 H 87.6218 3.83068 2.57015 0
M  V30 870 H 85.8648 3.64052 2.35899 0
M  V30 871 H 86.5358 3.82217 3.98264 0
M  V30 872 H 89.0118 1.91719 3.69301 0
M  V30 873 H 87.8878 2.1266 5.06031 0
M  V30 874 H 88.1488 0.524161 4.38982 0
M  V30 875 N 87.2079 -1.17134 1.05439 0
M  V30 876 C 88.6189 -1.69084 0.791676 0
M  V30 877 C 88.9699 -1.83822 -0.685839 0
M  V30 878 O 88.0949 -1.52757 -1.53278 0
M  V30 879 C 88.6899 -3.07119 1.4305 0
M  V30 880 C 87.2489 -3.56225 1.21577 0
M  V30 881 C 86.3959 -2.32421 1.51247 0
M  V30 882 H 89.3469 -1.01617 1.219 0
M  V30 883 H 89.3679 -3.71087 0.84112 0
M  V30 884 H 88.8799 -2.9636 2.50584 0
M  V30 885 H 86.9809 -3.72257 0.159787 0
M  V30 886 H 87.0939 -4.38837 1.92246 0
M  V30 887 H 85.4579 -2.3701 0.932653 0
M  V30 888 H 86.2409 -2.24268 2.5992 0
M  V30 889 N 88.686 -0.835752 -1.33615 0
M  V30 890 C 89.963 -0.352017 -1.92406 0
M  V30 891 C 90.343 1.16225 -1.76224 0
M  V30 892 O 89.691 1.97526 -1.14873 0
M  V30 893 C 89.901 -0.795485 -3.39813 0
M  V30 894 C 91.249 -0.801703 -4.16963 0
M  V30 895 O 92.273 -0.738889 -3.48452 0
M  V30 896 O 91.132 -0.886607 -5.3926 0
M  V30 897 H 88.226 -0.0989641 -0.821057 0
M  V30 898 H 90.772 -0.921397 -1.42507 0
M  V30 899 H 89.544 -1.83795 -3.45449 0
M  V30 900 H 89.167 -0.202505 -3.97084 0
M  V30 901 N 90.1641 1.46063 -0.591896 0
M  V30 902 C 91.0741 2.34192 0.13831 0
M  V30 903 C 92.0901 1.50305 0.876608 0
M  V30 904 O 93.2661 1.8315 0.837728 0
M  V30 905 C 90.3311 3.27656 1.13326 0
M  V30 906 C 89.3921 4.27445 0.39863 0
M  V30 907 C 88.6251 5.16443 1.34618 0
M  V30 908 O 88.8481 5.08553 2.58321 0
M  V30 909 O 87.7821 5.95843 0.851768 0
M  V30 910 H 91.6081 2.98002 -0.58552 0
M  V30 911 H 89.1931 1.45188 -0.352239 0
M  V30 912 H 91.0751 3.85291 1.70671 0
M  V30 913 H 89.7501 2.6643 1.83839 0
M  V30 914 H 88.6571 3.73471 -0.216895 0
M  V30 915 H 89.9901 4.91482 -0.265709 0
M  V30 916 N 91.6422 0.330177 1.54103 0
M  V30 917 C 92.8882 -0.270806 2.00984 0
M  V30 918 C 93.2212 -1.51265 1.21789 0
M  V30 919 O 92.4962 -1.92142 0.301927 0
M  V30 920 C 92.7792 -0.598339 3.55094 0
M  V30 921 C 92.6322 0.654674 4.4501 0
M  V30 922 C 93.9512 -1.41334 4.16789 0
M  V30 923 H 91.0702 -0.0969531 0.730595 0
M  V30 924 H 93.7122 0.448066 1.84641 0
M  V30 925 H 91.8622 -1.21078 3.69151 0
M  V30 926 H 93.5342 1.29285 4.42813 0
M  V30 927 H 91.7772 1.28224 4.14416 0
M  V30 928 H 92.4482 0.380944 5.50684 0
M  V30 929 H 94.9242 -0.895597 4.06347 0
M  V30 930 H 93.8002 -1.61127 5.24718 0
M  V30 931 H 94.0612 -2.41146 3.70541 0
M  V30 932 N 93.1203 -1.57491 0.0584922 0
M  V30 933 C 94.3483 -1.97296 -0.623037 0
M  V30 934 C 94.7633 -0.936338 -1.63946 0
M  V30 935 O 94.1203 0.0785981 -1.82331 0
M  V30 936 C 94.1713 -3.37183 -1.30345 0
M  V30 937 O 93.8923 -4.36872 -0.32773 0
M  V30 938 C 95.3933 -3.91788 -2.07406 0
M  V30 939 H 92.6133 -0.649153 -0.169826 0
M  V30 940 H 95.1573 -2.04106 0.12696 0
M  V30 941 H 93.3123 -3.31502 -2.00463 0
M  V30 942 H 93.7263 -5.18141 -0.814269 0
M  V30 943 H 95.2003 -4.91926 -2.50425 0
M  V30 944 H 95.6773 -3.27609 -2.92521 0
M  V30 945 H 96.2833 -4.00829 -1.42184 0
M  V30 946 N 94.5984 0.214957 -1.56127 0
M  V30 947 C 95.8474 0.936451 -1.78643 0
M  V30 948 C 96.1604 1.85237 -0.628229 0
M  V30 949 O 97.3664 2.613 -0.737186 0
M  V30 950 C 95.8224 1.7154 -3.16389 0
M  V30 951 C 95.4304 0.845299 -4.39953 0
M  V30 952 C 97.1744 2.42772 -3.48227 0
M  V30 953 C 95.0814 1.62198 -5.68723 0
M  V30 954 H 94.0114 0.353401 -0.666051 0
M  V30 955 H 96.6624 0.190169 -1.82512 0
M  V30 956 H 95.0444 2.50484 -3.06715 0
M  V30 957 H 96.2184 0.0959353 -4.607 0
M  V30 958 H 94.5334 0.244789 -4.1568 0
M  V30 959 H 97.1304 3.01394 -4.41663 0
M  V30 960 H 97.4734 3.15984 -2.71035 0
M  V30 961 H 98.0064 1.70813 -3.5926 0
M  V30 962 H 94.7454 0.933011 -6.48826 0
M  V30 963 H 94.2654 2.34579 -5.52026 0
M  V30 964 H 95.9444 2.18095 -6.09133 0
M  V30 965 N 96.0765 1.50051 0.48192 0
M  V30 966 C 97.3245 1.60181 1.23234 0
M  V30 967 C 97.6455 0.299176 1.92691 0
M  V30 968 O 96.9155 -0.682708 1.83619 0
M  V30 969 H 95.4955 0.590232 0.457859 0
M  V30 970 H 98.1575 1.86775 0.556881 0
M  V30 971 H 97.2535 2.40753 1.98607 0
M  V30 972 N 97.5546 -0.734337 1.39446 0
M  V30 973 C 98.8036 -1.48937 1.36017 0
M  V30 974 C 99.1166 -1.95557 -0.0409005 0
M  V30 975 O 100.323 -2.70779 -0.19778 0
M  V30 976 C 98.7786 -2.69125 2.38955 0
M  V30 977 C 98.3866 -2.29452 3.8478 0
M  V30 978 C 100.131 -3.46944 2.44603 0
M  V30 979 C 98.0376 -3.46366 4.79358 0
M  V30 980 H 96.9676 -0.559296 0.505672 0
M  V30 981 H 99.6186 -0.800983 1.65095 0
M  V30 982 H 98.0006 -3.40041 2.02948 0
M  V30 983 H 99.1746 -1.66077 4.29831 0
M  V30 984 H 97.4896 -1.64723 3.82433 0
M  V30 985 H 100.087 -4.33907 3.12456 0
M  V30 986 H 100.43 -3.89454 1.47076 0
M  V30 987 H 100.963 -2.83056 2.79507 0
M  V30 988 H 97.7016 -3.08905 5.78151 0
M  V30 989 H 97.2216 -4.08719 4.38986 0
M  V30 990 H 98.9006 -4.12691 4.98292 0
M  V30 991 N 99.0327 -1.24633 -0.964593 0
M  V30 992 C 100.279 -1.08949 -1.71049 0
M  V30 993 C 100.612 0.370302 -1.90637 0
M  V30 994 O 99.8867 1.27349 -1.47011 0
M  V30 995 C 100.17 -1.83329 -3.0994 0
M  V30 996 C 100.023 -3.37077 -2.97824 0
M  V30 997 C 101.342 -1.60846 -4.09654 0
M  V30 998 H 98.4607 -0.397178 -0.620821 0
M  V30 999 H 101.103 -1.5334 -1.12191 0
M  V30 1000 H 99.2527 -1.45597 -3.60186 0
M  V30 1001 H 100.925 -3.84425 -2.5498 0
M  V30 1002 H 99.1677 -3.65298 -2.33965 0
M  V30 1003 H 99.8387 -3.84324 -3.96231 0
M  V30 1004 H 102.315 -1.93674 -3.68279 0
M  V30 1005 H 101.191 -2.1534 -5.04896 0
M  V30 1006 H 101.452 -0.547434 -4.38698 0
M  V30 1007 N 100.511 1.16574 -1.06058 0
M  V30 1008 C 101.927 1.3904 -0.783585 0
M  V30 1009 C 102.127 1.91784 0.618145 0
M  V30 1010 O 101.183 2.11511 1.37911 0
M  V30 1011 C 102.496 2.37329 -1.84649 0
M  V30 1012 C 104.044 2.51018 -1.86973 0
M  V30 1013 C 104.519 3.52588 -2.92311 0
M  V30 1014 N 106.01 3.60113 -2.91329 0
M  V30 1015 C 106.745 4.38486 -3.69482 0
M  V30 1016 N 106.241 5.20302 -4.57447 0
M  V30 1017 N 108.034 4.33446 -3.57885 0
M  V30 1018 H 100.185 0.806725 -1.96483 0
M  V30 1019 H 102.448 0.417117 -0.851303 0
M  V30 1020 H 102.154 2.05663 -2.85299 0
M  V30 1021 H 102.028 3.36946 -1.6955 0
M  V30 1022 H 104.415 2.81989 -0.869827 0
M  V30 1023 H 104.496 1.51445 -2.0615 0
M  V30 1024 H 104.14 3.22354 -3.92492 0
M  V30 1025 H 104.07 4.51886 -2.70383 0
M  V30 1026 H 106.561 3.01707 -2.27555 0
M  V30 1027 H 106.874 5.77311 -5.13743 0
M  V30 1028 H 105.219 5.19653 -4.61503 0
M  V30 1029 H 108.41 3.68586 -2.88551 0
M  V30 1030 H 108.583 4.94279 -4.19037 0
M  V30 1031 N 101.989 0.842826 1.3317 0
M  V30 1032 C 102.899 0.281444 2.32906 0
M  V30 1033 C 103.915 -0.594587 1.63526 0
M  V30 1034 O 105.091 -0.49777 1.95152 0
M  V30 1035 C 102.156 -0.530929 3.42611 0
M  V30 1036 C 101.217 0.369843 4.27704 0
M  V30 1037 C 100.45 -0.403853 5.3217 0
M  V30 1038 O 100.673 -1.63513 5.46461 0
M  V30 1039 O 99.6069 0.224199 6.01482 0
M  V30 1040 H 103.433 1.10744 2.82789 0
M  V30 1041 H 101.018 0.60545 1.36582 0
M  V30 1042 H 102.9 -0.992437 4.09547 0
M  V30 1043 H 101.575 -1.33392 2.94938 0
M  V30 1044 H 100.482 0.879275 3.6362 0
M  V30 1045 H 101.815 1.13771 4.78871 0
M  V30 1046 N 103.467 -1.45747 0.599634 0
M  V30 1047 C 104.883 -1.57424 0.26264 0
M  V30 1048 C 105.083 -1.59222 -1.23493 0
M  V30 1049 O 104.139 -1.51825 -2.01756 0
M  V30 1050 C 105.452 -2.86061 0.926795 0
M  V30 1051 C 107 -2.99722 0.901967 0
M  V30 1052 C 107.475 -4.31119 1.54598 0
M  V30 1053 N 108.966 -4.37858 1.5111 0
M  V30 1054 C 109.701 -5.3818 1.97863 0
M  V30 1055 N 109.197 -6.45083 2.52666 0
M  V30 1056 N 110.99 -5.29487 1.88679 0
M  V30 1057 H 103.141 -1.42823 1.57211 0
M  V30 1058 H 105.404 -0.68235 0.658105 0
M  V30 1059 H 105.11 -2.90605 1.98095 0
M  V30 1060 H 104.984 -3.74563 0.445238 0
M  V30 1061 H 107.371 -2.9475 -0.143617 0
M  V30 1062 H 107.452 -2.12652 1.42171 0
M  V30 1063 H 107.096 -4.36849 2.59085 0
M  V30 1064 H 107.026 -5.16992 1.00132 0
M  V30 1065 H 109.517 -3.61209 1.11068 0
M  V30 1066 H 109.83 -7.17869 2.86155 0
M  V30 1067 H 108.175 -6.45856 2.56701 0
M  V30 1068 H 111.366 -4.44877 1.4561 0
M  V30 1069 H 111.539 -6.07524 2.25429 0
M  V30 1070 N 104.945 -0.338344 -1.53925 0
M  V30 1071 C 105.875 0.51328 -2.27789 0
M  V30 1072 C 106.856 1.107 -1.29149 0
M  V30 1073 O 108.041 1.12937 -1.57984 0
M  V30 1074 C 105.171 1.66697 -3.04679 0
M  V30 1075 C 104.125 1.20183 -4.1078 0
M  V30 1076 C 103.451 2.44363 -4.75595 0
M  V30 1077 C 104.751 0.30605 -5.21403 0
M  V30 1078 H 106.445 -0.102883 -2.99223 0
M  V30 1079 H 103.991 -0.0509219 -1.4391 0
M  V30 1080 H 105.944 2.26915 -3.55088 0
M  V30 1081 H 104.668 2.30995 -2.30887 0
M  V30 1082 H 103.327 0.622499 -3.61276 0
M  V30 1083 H 102.975 3.07057 -3.98403 0
M  V30 1084 H 102.675 2.13925 -5.47275 0
M  V30 1085 H 104.199 3.05317 -5.28786 0
M  V30 1086 H 105.613 0.814929 -5.67478 0
M  V30 1087 H 104.01 0.0937929 -6.00027 0
M  V30 1088 H 105.08 -0.65921 -4.80398 0
M  V30 1089 N 106.423 1.57458 -0.0668435 0
M  V30 1090 C 107.648 1.9804 0.616027 0
M  V30 1091 C 108.073 0.944771 1.62652 0
M  V30 1092 O 107.431 -0.0902094 1.81075 0
M  V30 1093 C 107.479 3.37665 1.26549 0
M  V30 1094 O 106.583 3.36701 2.38131 0
M  V30 1095 H 105.924 0.644719 0.158849 0
M  V30 1096 H 108.454 2.04121 -0.139891 0
M  V30 1097 H 108.464 3.7474 1.6135 0
M  V30 1098 H 107.139 4.12573 0.525016 0
M  V30 1099 H 105.716 3.1139 2.0516 0
M  V30 1100 N 107.901 -0.206675 1.56239 0
M  V30 1101 C 108.848 -1.25617 1.93621 0
M  V30 1102 C 109.818 -1.45824 0.795274 0
M  V30 1103 O 111.003 -1.59148 1.05245 0
M  V30 1104 C 108.143 -2.59839 2.27107 0
M  V30 1105 C 107.256 -2.47308 3.54207 0
M  V30 1106 C 106.391 -3.74155 3.7707 0
M  V30 1107 C 105.43 -3.56407 4.97635 0
M  V30 1108 N 104.567 -4.75238 5.1681 0
M  V30 1109 H 109.407 -0.930383 2.83104 0
M  V30 1110 H 106.944 -0.448065 1.4011 0
M  V30 1111 H 108.902 -3.38021 2.44535 0
M  V30 1112 H 107.532 -2.90485 1.40778 0
M  V30 1113 H 106.584 -1.60483 3.4489 0
M  V30 1114 H 107.896 -2.30122 4.42544 0
M  V30 1115 H 107.05 -4.60778 3.94675 0
M  V30 1116 H 105.789 -3.94282 2.87042 0
M  V30 1117 H 104.794 -2.68168 4.79964 0
M  V30 1118 H 106.019 -3.37736 5.89161 0
M  V30 1119 H 103.965 -4.95651 4.29728 0
M  V30 1120 H 103.882 -4.60835 5.99306 0
M  V30 1121 H 105.15 -5.63246 5.38864 0
M  V30 1122 N 109.379 -1.50304 -0.473955 0
M  V30 1123 C 110.604 -1.65175 -1.25427 0
M  V30 1124 C 111.029 -0.333673 -1.85117 0
M  V30 1125 O 110.387 0.702114 -1.67153 0
M  V30 1126 C 110.435 -2.74295 -2.34082 0
M  V30 1127 O 109.539 -2.35349 -3.38651 0
M  V30 1128 H 108.88 -0.551944 -0.369126 0
M  V30 1129 H 111.41 -1.96662 -0.564364 0
M  V30 1130 H 111.42 -2.97285 -2.79438 0
M  V30 1131 H 110.095 -3.69959 -1.90008 0
M  V30 1132 H 108.672 -2.22794 -2.99027 0
M  V30 1133 N 110.857 0.726932 -1.39834 0
M  V30 1134 C 112.134 1.47902 -1.28001 0
M  V30 1135 C 112.514 2.1083 0.106789 0
M  V30 1136 O 111.862 1.99242 1.11869 0
M  V30 1137 C 112.072 2.52392 -2.41038 0
M  V30 1138 C 113.42 3.18546 -2.80737 0
M  V30 1139 O 114.444 2.62708 -2.40547 0
M  V30 1140 O 113.303 4.19604 -3.50135 0
M  V30 1141 H 110.397 0.657163 -0.502062 0
M  V30 1142 H 112.943 0.760071 -1.51727 0
M  V30 1143 H 111.715 2.04329 -3.33715 0
M  V30 1144 H 111.338 3.31837 -2.19021 0
M  V30 1145 N 112.336 1.25143 0.95797 0
M  V30 1146 C 113.576 1.10893 1.71703 0
M  V30 1147 C 113.94 -0.34478 1.88879 0
M  V30 1148 O 115.141 -0.609014 2.6181 0
M  V30 1149 C 113.412 1.83889 3.06463 0
M  V30 1150 S 114.971 1.85491 3.97666 0
M  V30 1151 H 111.789 0.396428 0.590226 0
M  V30 1152 H 114.391 1.58618 1.14283 0
M  V30 1153 H 113.095 2.88756 2.9163 0
M  V30 1154 H 112.626 1.36538 3.68946 0
M  V30 1155 H 114.641 0.929553 4.87415 0
M  V30 1156 N 113.814 -1.1601 1.06675 0
M  V30 1157 C 115.091 -1.82679 0.699114 0
M  V30 1158 C 115.471 -1.94559 -0.819137 0
M  V30 1159 O 114.819 -1.49169 -1.73092 0
M  V30 1160 C 115.029 -3.19445 1.40555 0
M  V30 1161 C 116.377 -3.95171 1.55323 0
M  V30 1162 O 117.401 -3.28976 1.36577 0
M  V30 1163 O 116.26 -5.13833 1.86112 0
M  V30 1164 H 113.354 -0.788954 0.247951 0
M  V30 1165 H 115.9 -1.23179 1.16726 0
M  V30 1166 H 114.672 -3.05856 2.44065 0
M  V30 1167 H 114.295 -3.86625 0.927733 0
M  V30 1168 N 115.292 -0.849877 -1.32721 0
M  V30 1169 C 116.24 -0.279745 -2.30912 0
M  V30 1170 C 117.234 0.594278 -1.58634 0
M  V30 1171 O 118.44 0.482613 -1.73409 0
M  V30 1172 H 114.815 -0.0717521 -0.748569 0
M  V30 1173 H 116.786 -1.12222 -2.76494 0
M  V30 1174 C 115.535 0.521108 -3.43773 0
M  V30 1175 H 114.858 -0.142141 -3.99547 0
M  V30 1176 H 116.298 0.885693 -4.14646 0
M  V30 1177 C 114.757 1.70442 -2.90605 0
M  V30 1178 O 115.287 2.8034 -2.87702 0
M  V30 1179 N 113.493 1.52991 -2.47067 0
M  V30 1180 H 113.04 0.635914 -2.49628 0
M  V30 1181 H 112.998 2.32311 -2.11847 0
M  V30 1182 N 116.77 1.45427 -0.607355 0
M  V30 1183 C 118.018 2.01841 -0.102253 0
M  V30 1184 C 118.339 1.47832 1.27164 0
M  V30 1185 O 117.609 0.672497 1.83995 0
M  V30 1186 H 116.189 0.746188 -0.0348101 0
M  V30 1187 H 118.851 1.78229 -0.7887 0
M  V30 1188 H 117.947 3.12057 -0.0518585 0
M  V30 1189 N 118.248 0.346503 1.53744 0
M  V30 1190 C 119.495 -0.249104 2.00962 0
M  V30 1191 C 119.823 -1.5032 1.23426 0
M  V30 1192 O 119.078 -1.93217 0.310761 0
M  V30 1193 C 119.377 -0.605809 3.52228 0
M  V30 1194 C 119.043 0.551747 4.47512 0
M  V30 1195 C 117.705 0.86941 4.73281 0
M  V30 1196 C 120.057 1.32818 5.03993 0
M  V30 1197 C 117.385 1.96582 5.52786 0
M  V30 1198 C 119.737 2.41486 5.84694 0
M  V30 1199 C 118.401 2.73808 6.08757 0
M  V30 1200 H 117.671 -0.0911538 0.735372 0
M  V30 1201 H 120.318 0.475027 1.85515 0
M  V30 1202 H 118.623 -1.4107 3.65522 0
M  V30 1203 H 120.32 -1.07858 3.86222 0
M  V30 1204 H 116.91 0.294102 4.2759 0
M  V30 1205 H 121.094 1.09602 4.84047 0
M  V30 1206 H 116.35 2.22045 5.69654 0
M  V30 1207 H 120.524 3.02078 6.27473 0
M  V30 1208 H 118.151 3.58892 6.7015 0
M  V30 1209 N 119.726 -1.57421 0.075193 0
M  V30 1210 C 120.656 -2.15942 -0.888324 0
M  V30 1211 C 121.637 -1.08737 -1.30806 0
M  V30 1212 O 122.822 -1.36787 -1.37851 0
M  V30 1213 C 119.952 -2.72379 -2.1547 0
M  V30 1214 C 118.906 -3.8478 -1.87425 0
M  V30 1215 C 118.232 -4.27834 -3.20721 0
M  V30 1216 C 119.532 -5.08869 -1.17684 0
M  V30 1217 H 121.226 -2.96705 -0.400799 0
M  V30 1218 H 118.772 -1.42723 -0.191342 0
M  V30 1219 H 120.725 -3.11965 -2.83295 0
M  V30 1220 H 119.449 -1.88841 -2.6647 0
M  V30 1221 H 118.108 -3.45703 -1.22004 0
M  V30 1222 H 117.756 -3.41214 -3.6957 0
M  V30 1223 H 117.456 -5.03605 -3.02746 0
M  V30 1224 H 118.98 -4.70039 -3.89738 0
M  V30 1225 H 120.394 -5.4575 -1.75584 0
M  V30 1226 H 118.791 -5.8994 -1.09956 0
M  V30 1227 H 119.861 -4.84648 -0.156453 0
M  V30 1228 N 121.204 0.198386 -1.56346 0
M  V30 1229 C 122.134 1.24865 -1.9731 0
M  V30 1230 C 123.115 1.47651 -0.844576 0
M  V30 1231 O 124.3 1.59444 -1.10866 0
M  V30 1232 C 121.43 2.59358 -2.30977 0
M  V30 1233 C 120.384 2.5119 -3.46537 0
M  V30 1234 C 119.71 3.89926 -3.65871 0
M  V30 1235 C 121.01 2.03977 -4.80823 0
M  V30 1236 H 122.704 0.908252 -2.85291 0
M  V30 1237 H 120.25 0.435462 -1.37258 0
M  V30 1238 H 122.203 3.33011 -2.58228 0
M  V30 1239 H 120.927 2.95132 -1.39874 0
M  V30 1240 H 119.586 1.79993 -3.19371 0
M  V30 1241 H 119.234 4.23046 -2.72105 0
M  V30 1242 H 118.934 3.85336 -4.4361 0
M  V30 1243 H 120.458 4.65205 -3.95495 0
M  V30 1244 H 121.872 2.67386 -5.07127 0
M  V30 1245 H 120.269 2.10397 -5.62008 0
M  V30 1246 H 121.339 0.992861 -4.74626 0
M  V30 1247 N 122.682 1.50554 0.465978 0
M  V30 1248 C 123.959 1.5232 1.22712 0
M  V30 1249 C 124.339 0.270807 2.09356 0
M  V30 1250 O 123.687 -0.745541 2.15995 0
M  V30 1251 C 123.897 2.82175 2.05374 0
M  V30 1252 C 125.245 3.33033 2.6339 0
M  V30 1253 O 126.269 2.83531 2.15612 0
M  V30 1254 O 125.128 4.19336 3.50456 0
M  V30 1255 H 122.222 0.611183 0.557122 0
M  V30 1256 H 124.768 1.62847 0.477381 0
M  V30 1257 H 123.54 3.64797 1.41558 0
M  V30 1258 H 123.163 2.74675 2.87471 0
M  V30 1259 N 124.16 -0.719506 1.40217 0
M  V30 1260 C 125.408 -1.47641 1.3801 0
M  V30 1261 C 125.729 -1.94992 -0.018145 0
M  V30 1262 O 124.999 -1.70073 -0.972207 0
M  V30 1263 H 123.579 -0.547744 0.507923 0
M  V30 1264 H 126.241 -0.853187 1.75233 0
M  V30 1265 H 125.337 -2.35112 2.05253 0
M  V30 1266 N 125.638 -1.25649 -0.95132 0
M  V30 1267 C 126.885 -1.10594 -1.69633 0
M  V30 1268 C 127.213 0.352515 -1.91279 0
M  V30 1269 O 126.468 1.27601 -1.4838 0
M  V30 1270 C 126.767 -1.80909 -3.08231 0
M  V30 1271 C 126.433 -3.30825 -3.06375 0
M  V30 1272 C 125.095 -3.71722 -3.05576 0
M  V30 1273 C 127.447 -4.26589 -2.99452 0
M  V30 1274 C 124.775 -5.06788 -2.95606 0
M  V30 1275 C 127.127 -5.61683 -2.91024 0
M  V30 1276 C 125.791 -6.01904 -2.88562 0
M  V30 1277 H 125.061 -0.404691 -0.620731 0
M  V30 1278 H 127.708 -1.55964 -1.11119 0
M  V30 1279 H 126.013 -1.27979 -3.70309 0
M  V30 1280 H 127.71 -1.6671 -3.64704 0
M  V30 1281 H 124.3 -2.98287 -3.07771 0
M  V30 1282 H 128.484 -3.95982 -2.99185 0
M  V30 1283 H 123.74 -5.37126 -2.92071 0
M  V30 1284 H 127.914 -6.35578 -2.84629 0
M  V30 1285 H 125.541 -7.06521 -2.80593 0
M  V30 1286 N 127.117 1.15442 -1.07289 0
M  V30 1287 C 128.528 1.67803 -0.818475 0
M  V30 1288 C 128.879 1.8489 0.656507 0
M  V30 1289 O 128.004 1.55176 1.50829 0
M  V30 1290 C 128.599 3.04805 -1.47917 0
M  V30 1291 C 127.158 3.54245 -1.27229 0
M  V30 1292 C 126.305 2.29986 -1.54925 0
M  V30 1293 H 129.256 0.996646 -1.23502 0
M  V30 1294 H 129.277 3.69702 -0.90005 0
M  V30 1295 H 128.789 2.92336 -2.55267 0
M  V30 1296 H 126.89 3.71956 -0.21899 0
M  V30 1297 H 127.003 4.35723 -1.99203 0
M  V30 1298 H 125.367 2.35496 -0.970242 0
M  V30 1299 H 126.15 2.20105 -2.63455 0
M  V30 1300 N 128.595 0.856903 1.32268 0
M  V30 1301 C 130.011 0.547061 1.49931 0
M  V30 1302 C 130.211 -0.921781 1.7918 0
M  V30 1303 O 129.267 -1.70469 1.8627 0
M  V30 1304 C 130.58 1.43599 2.64196 0
M  V30 1305 C 132.128 1.43665 2.78081 0
M  V30 1306 C 132.603 2.31085 3.95428 0
M  V30 1307 N 134.094 2.28893 4.02694 0
M  V30 1308 C 134.829 2.93262 4.92732 0
M  V30 1309 N 134.325 3.66751 5.87763 0
M  V30 1310 N 136.118 2.82638 4.85873 0
M  V30 1311 H 128.269 1.8075 1.11549 0
M  V30 1312 H 130.532 0.772144 0.549997 0
M  V30 1313 H 130.238 2.48058 2.49319 0
M  V30 1314 H 130.112 1.12502 3.60032 0
M  V30 1315 H 132.499 0.399701 2.92381 0
M  V30 1316 H 132.58 1.7878 1.82952 0
M  V30 1317 H 132.224 3.34849 3.81888 0
M  V30 1318 H 132.154 1.93302 4.89839 0
M  V30 1319 H 134.645 1.75466 3.34694 0
M  V30 1320 H 134.958 4.13027 6.53168 0
M  V30 1321 H 133.303 3.70859 5.87783 0
M  V30 1322 H 136.494 2.24774 4.10602 0
M  V30 1323 H 136.667 3.33084 5.55841 0
M  V30 1324 N 130.073 -1.45103 0.615059 0
M  V30 1325 C 131.301 -2.06553 0.11977 0
M  V30 1326 C 131.716 -1.45842 -1.19898 0
M  V30 1327 O 131.073 -0.575325 -1.73194 0
M  V30 1328 C 131.124 -3.61495 -0.018364 0
M  V30 1329 O 130.845 -4.19942 1.24822 0
M  V30 1330 C 132.346 -4.39947 -0.544237 0
M  V30 1331 H 129.566 -0.667096 0.0722739 0
M  V30 1332 H 132.11 -1.8623 0.84491 0
M  V30 1333 H 130.265 -3.81135 -0.693865 0
M  V30 1334 H 130.679 -5.13204 1.0827 0
M  V30 1335 H 132.153 -5.48838 -0.589953 0
M  V30 1336 H 132.63 -4.10255 -1.56805 0
M  V30 1337 H 133.236 -4.25188 0.0974703 0
M  V30 1338 N 131.551 -0.354651 -1.53558 0
M  V30 1339 C 132.797 0.238797 -2.01389 0
M  V30 1340 C 133.13 1.49309 -1.2418 0
M  V30 1341 O 132.405 1.91638 -0.332457 0
M  V30 1342 C 132.688 0.541771 -3.56001 0
M  V30 1343 C 132.541 -0.725388 -4.43912 0
M  V30 1344 C 133.86 1.34685 -4.18984 0
M  V30 1345 H 130.979 0.0853177 -0.732045 0
M  V30 1346 H 133.621 -0.477384 -1.83905 0
M  V30 1347 H 131.771 1.15189 -3.71031 0
M  V30 1348 H 133.443 -1.36313 -4.407 0
M  V30 1349 H 131.686 -1.34801 -4.12324 0
M  V30 1350 H 132.357 -0.468505 -5.50008 0
M  V30 1351 H 134.833 0.830837 -4.07721 0
M  V30 1352 H 133.709 1.52759 -5.27215 0
M  V30 1353 H 133.97 2.35221 -3.74331 0
M  V30 1354 N 133.029 1.57378 -0.0835403 0
M  V30 1355 C 134.44 1.81261 0.447358 0
M  V30 1356 C 134.791 0.998331 1.68902 0
M  V30 1357 O 133.916 0.224282 2.15235 0
M  V30 1358 C 134.511 3.28767 0.818386 0
M  V30 1359 C 133.07 3.53455 1.29409 0
M  V30 1360 C 132.217 2.75831 0.285024 0
M  V30 1361 H 135.168 1.5566 -0.309115 0
M  V30 1362 H 135.189 3.41459 1.67887 0
M  V30 1363 H 134.701 3.88006 -0.0855019 0
M  V30 1364 H 132.802 2.99534 2.21608 0
M  V30 1365 H 132.915 4.62128 1.2639 0
M  V30 1366 H 131.279 2.42947 0.764767 0
M  V30 1367 H 132.062 3.37813 -0.611341 0
M  V30 1368 N 134.507 -0.190092 1.56449 0
M  V30 1369 C 135.439 -1.25973 1.91477 0
M  V30 1370 C 136.452 -1.41452 0.805931 0
M  V30 1371 O 137.641 -1.41789 1.08435 0
M  V30 1372 C 134.741 -2.63117 2.13594 0
M  V30 1373 C 133.914 -2.69182 3.4476 0
M  V30 1374 C 132.973 -3.87557 3.5593 0
M  V30 1375 O 131.999 -3.74427 4.28711 0
M  V30 1376 N 133.201 -5.03224 2.89388 0
M  V30 1377 H 135.966 -0.962394 2.83828 0
M  V30 1378 H 133.527 -0.379981 1.57378 0
M  V30 1379 H 135.519 -3.40742 2.1835 0
M  V30 1380 H 134.089 -2.85319 1.27719 0
M  V30 1381 H 133.309 -1.77793 3.51828 0
M  V30 1382 H 134.597 -2.70229 4.31107 0
M  V30 1383 H 133.995 -5.16791 2.30094 0
M  V30 1384 H 132.552 -5.78778 2.99764 0
M  V30 1385 N 135.985 -1.50799 -0.457987 0
M  V30 1386 C 136.948 -1.7005 -1.53674 0
M  V30 1387 C 137.948 -0.570881 -1.50325 0
M  V30 1388 O 139.138 -0.838126 -1.52712 0
M  V30 1389 C 136.27 -1.73788 -2.93276 0
M  V30 1390 H 137.463 -2.66306 -1.37917 0
M  V30 1391 H 135.016 -1.40477 -0.685271 0
M  V30 1392 H 135.751 -0.792717 -3.14462 0
M  V30 1393 H 135.536 -2.55864 -2.97113 0
M  V30 1394 H 137.026 -1.90591 -3.71571 0
M  V30 1395 N 137.463 0.71206 -1.40597 0
M  V30 1396 C 138.373 1.8562 -1.43466 0
M  V30 1397 C 139.389 1.70902 -0.326902 0
M  V30 1398 O 140.565 1.93105 -0.572043 0
M  V30 1399 C 137.63 3.21451 -1.29884 0
M  V30 1400 C 136.691 3.48398 -2.50833 0
M  V30 1401 C 135.924 4.77749 -2.3789 0
M  V30 1402 O 136.147 5.53089 -1.39459 0
M  V30 1403 O 135.081 5.05111 -3.27333 0
M  V30 1404 H 138.907 1.86155 -2.39958 0
M  V30 1405 H 136.492 0.86295 -1.21957 0
M  V30 1406 H 138.374 4.02579 -1.24531 0
M  V30 1407 H 137.049 3.21636 -0.364997 0
M  V30 1408 H 135.956 2.67265 -2.61763 0
M  V30 1409 H 137.289 3.53014 -3.4299 0
M  V30 1410 N 138.941 1.26152 0.944643 0
M  V30 1411 C 139.904 1.07474 2.0244 0
M  V30 1412 C 140.904 0.0242064 1.60782 0
M  V30 1413 O 142.094 0.267302 1.72137 0
M  V30 1414 C 139.226 0.633956 3.34953 0
M  V30 1415 H 140.419 2.03336 2.20442 0
M  V30 1416 H 137.972 1.087 1.12312 0
M  V30 1417 H 138.707 -0.326811 3.22649 0
M  V30 1418 H 138.492 1.39247 3.66542 0
M  V30 1419 H 139.982 0.52501 4.14287 0
M  V30 1420 N 140.419 -1.14872 1.07899 0
M  V30 1421 C 141.349 -2.2193 0.725887 0
M  V30 1422 C 142.33 -1.67622 -0.28927 0
M  V30 1423 O 143.515 -1.93533 -0.160787 0
M  V30 1424 C 140.645 -3.47061 0.128856 0
M  V30 1425 C 139.599 -4.14363 1.07178 0
M  V30 1426 C 138.925 -5.33636 0.337229 0
M  V30 1427 C 140.225 -4.63492 2.40775 0
M  V30 1428 H 141.919 -2.51724 1.62097 0
M  V30 1429 H 139.465 -1.20991 0.780838 0
M  V30 1430 H 141.418 -4.21199 -0.130147 0
M  V30 1431 H 140.142 -3.16617 -0.80134 0
M  V30 1432 H 138.801 -3.42173 1.3158 0
M  V30 1433 H 138.449 -4.99449 -0.596606 0
M  V30 1434 H 138.149 -5.79609 0.965788 0
M  V30 1435 H 139.673 -6.10539 0.0861567 0
M  V30 1436 H 141.087 -5.2913 2.20669 0
M  V30 1437 H 139.484 -5.20148 2.99276 0
M  V30 1438 H 140.554 -3.78834 3.02676 0
M  V30 1439 N 141.898 -0.863906 -1.31812 0
M  V30 1440 C 143.175 -0.39275 -1.91616 0
M  V30 1441 C 143.555 1.12461 -1.7865 0
M  V30 1442 O 142.903 1.95045 -1.19037 0
M  V30 1443 C 143.113 -0.867385 -3.38049 0
M  V30 1444 C 144.461 -0.889966 -4.15168 0
M  V30 1445 O 145.485 -0.812635 -3.46806 0
M  V30 1446 O 144.344 -1.00079 -5.37258 0
M  V30 1447 H 141.438 -0.116358 -0.818773 0
M  V30 1448 H 143.984 -0.951418 -1.40521 0
M  V30 1449 H 142.756 -1.91081 -3.41473 0
M  V30 1450 H 142.379 -0.286687 -3.96565 0
M  V30 1451 N 143.376 1.44774 -0.622745 0
M  V30 1452 C 144.308 2.28856 0.125485 0
M  V30 1453 C 145.321 1.40811 0.817069 0
M  V30 1454 O 146.51 1.65044 0.679918 0
M  V30 1455 C 143.61 3.16963 1.19949 0
M  V30 1456 C 142.783 4.33374 0.592064 0
M  V30 1457 C 141.842 5.02577 1.55893 0
M  V30 1458 O 140.868 5.58873 1.07933 0
M  V30 1459 N 142.07 5.03256 2.89334 0
M  V30 1460 H 144.835 2.93713 -0.596068 0
M  V30 1461 H 142.396 1.55129 -0.463303 0
M  V30 1462 H 144.388 3.60123 1.84644 0
M  V30 1463 H 142.958 2.53913 1.82337 0
M  V30 1464 H 142.178 3.93509 -0.233322 0
M  V30 1465 H 143.466 5.08527 0.166738 0
M  V30 1466 H 142.864 4.58836 3.30887 0
M  V30 1467 H 141.421 5.50232 3.49412 0
M  V30 1468 N 144.854 0.36279 1.53368 0
M  V30 1469 C 145.784 -0.476976 2.28576 0
M  V30 1470 C 146.765 -1.08631 1.30894 0
M  V30 1471 O 147.95 -1.10409 1.59761 0
M  V30 1472 C 145.08 -1.61828 3.07293 0
M  V30 1473 C 144.034 -1.13633 4.1264 0
M  V30 1474 C 143.36 -2.36766 4.79423 0
M  V30 1475 C 144.66 -0.223061 5.21823 0
M  V30 1476 H 146.354 0.150474 2.99022 0
M  V30 1477 H 143.9 0.0738103 1.43811 0
M  V30 1478 H 145.853 -2.21237 3.58653 0
M  V30 1479 H 144.577 -2.27292 2.34533 0
M  V30 1480 H 143.236 -0.564945 3.62221 0
M  V30 1481 H 142.884 -3.0068 4.03238 0
M  V30 1482 H 142.584 -2.05192 5.50609 0
M  V30 1483 H 144.108 -2.96865 5.33576 0
M  V30 1484 H 145.522 -0.724545 5.68703 0
M  V30 1485 H 143.919 0.001678 6.001 0
M  V30 1486 H 144.989 0.735553 4.79289 0
M  V30 1487 N 146.332 -1.57332 0.0918853 0
M  V30 1488 C 147.262 -2.16872 -0.865371 0
M  V30 1489 C 148.243 -1.10118 -1.29646 0
M  V30 1490 O 149.428 -1.38242 -1.36392 0
M  V30 1491 C 146.558 -2.74649 -2.12569 0
M  V30 1492 C 145.512 -3.86747 -1.83333 0
M  V30 1493 C 144.838 -4.31212 -3.16166 0
M  V30 1494 C 146.138 -5.10089 -1.1228 0
M  V30 1495 H 147.832 -2.97114 -0.369307 0
M  V30 1496 H 145.378 -1.42918 -0.176194 0
M  V30 1497 H 147.331 -3.14952 -2.7997 0
M  V30 1498 H 146.055 -1.91657 -2.64452 0
M  V30 1499 H 144.714 -3.46978 -1.18331 0
M  V30 1500 H 144.362 -3.45115 -3.6593 0
M  V30 1501 H 144.062 -5.06788 -2.97388 0
M  V30 1502 H 145.586 -4.74146 -3.84731 0
M  V30 1503 H 147 -5.47582 -1.69785 0
M  V30 1504 H 145.397 -5.91073 -1.03693 0
M  V30 1505 H 146.467 -4.84786 -0.105041 0
M  V30 1506 N 147.81 0.181792 -1.56548 0
M  V30 1507 C 148.773 1.20894 -1.94724 0
M  V30 1508 C 149.773 1.37738 -0.829747 0
M  V30 1509 O 150.963 1.35323 -1.09697 0
M  V30 1510 C 148.095 2.57593 -2.23291 0
M  V30 1511 H 149.288 0.882275 -2.86629 0
M  V30 1512 H 146.841 0.423838 -1.50444 0
M  V30 1513 H 147.576 2.95291 -1.34067 0
M  V30 1514 H 147.361 2.46735 -3.04736 0
M  V30 1515 H 148.851 3.31637 -2.53785 0
M  V30 1516 N 149.288 1.51039 0.449983 0
M  V30 1517 C 150.565 1.53612 1.21089 0
M  V30 1518 C 150.945 0.292997 2.09057 0
M  V30 1519 O 150.293 -0.72259 2.16774 0
M  V30 1520 C 150.503 2.84337 2.0237 0
M  V30 1521 C 151.851 3.35807 2.59843 0
M  V30 1522 O 152.875 2.85802 2.12593 0
M  V30 1523 O 151.734 4.23029 3.45989 0
M  V30 1524 H 148.828 0.617057 0.550608 0
M  V30 1525 H 151.374 1.63344 0.460082 0
M  V30 1526 H 150.146 3.66278 1.37681 0
M  V30 1527 H 149.769 2.77708 2.84542 0
M  V30 1528 N 150.766 -0.704594 1.40972 0
M  V30 1529 C 151.699 -1.82861 1.36518 0
M  V30 1530 C 152.677 -1.6091 0.23382 0
M  V30 1531 O 153.861 -1.83778 0.419271 0
M  V30 1532 C 150.988 -3.1939 1.12729 0
M  V30 1533 C 150.034 -3.60148 2.28463 0
M  V30 1534 S 150.867 -3.65994 3.90907 0
M  V30 1535 C 152.023 -5.05264 3.69403 0
M  V30 1536 H 152.256 -1.86361 2.3164 0
M  V30 1537 H 149.789 -0.872439 1.27389 0
M  V30 1538 H 151.747 -3.98211 0.996893 0
M  V30 1539 H 150.408 -3.1351 0.192427 0
M  V30 1540 H 149.601 -4.59309 2.07489 0
M  V30 1541 H 149.203 -2.88612 2.37863 0
M  V30 1542 H 151.495 -5.92504 3.28551 0
M  V30 1543 H 152.438 -5.31278 4.68134 0
M  V30 1544 H 152.846 -4.76377 3.02862 0
M  V30 1545 N 152.244 -1.26651 -0.937939 0
M  V30 1546 C 153.492 -1.12165 -1.68118 0
M  V30 1547 C 153.813 0.334983 -1.92101 0
M  V30 1548 O 153.083 1.23583 -1.52 0
M  V30 1549 H 151.663 -0.412093 -0.623048 0
M  V30 1550 H 154.325 -1.59027 -1.12678 0
M  V30 1551 H 153.421 -1.64289 -2.6536 0
M  V30 1552 N 153.722 1.14298 -1.08507 0
M  V30 1553 C 155.138 1.37347 -0.812901 0
M  V30 1554 C 155.338 1.93052 0.577325 0
M  V30 1555 O 154.394 2.14389 1.33393 0
M  V30 1556 C 155.707 2.33359 -1.89642 0
M  V30 1557 C 157.255 2.46996 -1.92255 0
M  V30 1558 C 157.73 3.46309 -2.99724 0
M  V30 1559 N 159.221 3.53853 -2.98902 0
M  V30 1560 C 159.956 4.3055 -3.787 0
M  V30 1561 N 159.452 5.10482 -4.6838 0
M  V30 1562 N 161.245 4.25757 -3.66998 0
M  V30 1563 H 153.396 0.764867 -1.9815 0
M  V30 1564 H 155.659 0.398966 -0.859959 0
M  V30 1565 H 155.365 1.99565 -2.89597 0
M  V30 1566 H 155.239 3.33274 -1.76659 0
M  V30 1567 H 157.626 2.80081 -0.929445 0
M  V30 1568 H 157.707 1.47039 -2.09316 0
M  V30 1569 H 157.351 3.13957 -3.99241 0
M  V30 1570 H 157.281 4.46049 -2.79907 0
M  V30 1571 H 159.772 2.96812 -2.33904 0
M  V30 1572 H 160.085 5.66284 -5.25873 0
M  V30 1573 H 158.43 5.09747 -4.72422 0
M  V30 1574 H 161.621 3.62383 -2.96304 0
M  V30 1575 H 161.794 4.85279 -4.29427 0
M  V30 1576 N 155.201 0.870884 1.31352 0
M  V30 1577 C 156.148 0.325425 2.28494 0
M  V30 1578 C 157.118 -0.576615 1.5577 0
M  V30 1579 O 158.303 -0.508059 1.83911 0
M  V30 1580 C 155.443 -0.466283 3.41935 0
M  V30 1581 C 154.556 0.463378 4.29508 0
M  V30 1582 C 153.691 -0.342544 5.30094 0
M  V30 1583 C 152.73 0.583486 6.09313 0
M  V30 1584 N 151.867 -0.186244 7.01853 0
M  V30 1585 H 156.707 1.15901 2.74538 0
M  V30 1586 H 154.244 0.58294 1.35056 0
M  V30 1587 H 156.202 -0.941085 4.06447 0
M  V30 1588 H 154.832 -1.26456 2.97 0
M  V30 1589 H 153.884 1.05663 3.65431 0
M  V30 1590 H 155.196 1.1734 4.84802 0
M  V30 1591 H 154.35 -0.879816 6.00287 0
M  V30 1592 H 153.089 -1.08585 4.75458 0
M  V30 1593 H 152.094 1.13251 5.3801 0
M  V30 1594 H 153.319 1.32566 6.66035 0
M  V30 1595 H 151.265 -0.912348 6.49625 0
M  V30 1596 H 151.182 0.464422 7.54572 0
M  V30 1597 H 152.45 -0.704716 7.76308 0
M  V30 1598 N 156.679 -1.44442 0.630414 0
M  V30 1599 C 157.928 -2.01267 0.132073 0
M  V30 1600 C 158.241 -1.50172 -1.25331 0
M  V30 1601 O 159.447 -1.9912 -1.84562 0
M  V30 1602 C 157.903 -3.59422 0.185362 0
M  V30 1603 C 157.511 -4.19514 1.57201 0
M  V30 1604 C 159.255 -4.23724 -0.256553 0
M  V30 1605 C 157.162 -5.69891 1.58045 0
M  V30 1606 H 156.092 -0.752619 0.0456092 0
M  V30 1607 H 158.743 -1.65666 0.789106 0
M  V30 1608 H 157.125 -3.92318 -0.538759 0
M  V30 1609 H 158.299 -3.98156 2.31966 0
M  V30 1610 H 156.614 -3.67496 1.95795 0
M  V30 1611 H 159.211 -5.34019 -0.269767 0
M  V30 1612 H 159.554 -3.96013 -1.28372 0
M  V30 1613 H 160.087 -3.95629 0.41505 0
M  V30 1614 H 156.826 -6.02336 2.58597 0
M  V30 1615 H 156.346 -5.93373 0.875725 0
M  V30 1616 H 158.025 -6.33515 1.31408 0
M  V30 1617 N 158.157 -0.370918 -1.53173 0
M  V30 1618 C 159.067 0.480823 -2.2962 0
M  V30 1619 C 160.083 1.08789 -1.35798 0
M  V30 1620 O 161.259 1.09768 -1.68858 0
M  V30 1621 C 158.324 1.60227 -3.07454 0
M  V30 1622 C 157.385 1.0222 -4.16953 0
M  V30 1623 C 156.618 2.0902 -4.91066 0
M  V30 1624 O 156.841 3.30222 -4.65091 0
M  V30 1625 O 155.775 1.71778 -5.76867 0
M  V30 1626 H 159.601 -0.141421 -3.03371 0
M  V30 1627 H 157.186 -0.135146 -1.48787 0
M  V30 1628 H 159.068 2.25417 -3.56041 0
M  V30 1629 H 157.743 2.20982 -2.36535 0
M  V30 1630 H 156.65 0.334064 -3.72605 0
M  V30 1631 H 157.983 0.459131 -4.90054 0
M  V30 1632 N 159.635 1.57281 -0.100228 0
M  V30 1633 C 160.585 2.10848 0.86759 0
M  V30 1634 C 161.569 1.02473 1.24049 0
M  V30 1635 O 162.761 1.28739 1.21471 0
M  V30 1636 C 159.89 2.69648 2.12474 0
M  V30 1637 C 158.976 3.85074 1.77704 0
M  V30 1638 N 159.367 4.92897 1.13518 0
M  V30 1639 C 157.665 3.94905 2.07282 0
M  V30 1640 C 158.366 5.73475 0.974735 0
M  V30 1641 N 157.342 5.22675 1.4937 0
M  V30 1642 H 161.144 2.91594 0.367471 0
M  V30 1643 H 158.658 1.62074 0.102829 0
M  V30 1644 H 160.655 3.06356 2.82757 0
M  V30 1645 H 159.315 1.90359 2.63047 0
M  V30 1646 H 160.326 5.11662 0.801381 0
M  V30 1647 H 157.003 3.26633 2.60033 0
M  V30 1648 H 158.393 6.70238 0.472364 0
M  V30 1649 N 161.113 -0.173488 1.56642 0
M  V30 1650 C 162.359 -0.891784 1.8214 0
M  V30 1651 C 162.692 -1.8199 0.677736 0
M  V30 1652 O 161.967 -1.91842 -0.320446 0
M  V30 1653 C 162.25 -1.68933 3.18015 0
M  V30 1654 C 162.103 -0.784487 4.42906 0
M  V30 1655 C 163.422 -2.65748 3.50808 0
M  V30 1656 H 160.541 -0.322761 0.662567 0
M  V30 1657 H 163.183 -0.158095 1.89341 0
M  V30 1658 H 161.333 -2.31482 3.12007 0
M  V30 1659 H 163.005 -0.172046 4.60979 0
M  V30 1660 H 161.248 -0.0924117 4.33702 0
M  V30 1661 H 161.919 -1.37799 5.34524 0
M  V30 1662 H 164.395 -2.13327 3.57255 0
M  V30 1663 H 163.271 -3.18619 4.4696 0
M  V30 1664 H 163.532 -3.45842 2.75401 0
M  V30 1665 N 162.591 -1.51276 -0.441967 0
M  V30 1666 C 163.521 -1.752 -1.54361 0
M  V30 1667 C 164.502 -0.601682 -1.59103 0
M  V30 1668 O 165.687 -0.843913 -1.74905 0
M  V30 1669 C 162.817 -1.87282 -2.92477 0
M  V30 1670 C 161.771 -3.02687 -3.02596 0
M  V30 1671 C 161.097 -2.99947 -4.42647 0
M  V30 1672 C 162.397 -4.4273 -2.77106 0
M  V30 1673 H 164.091 -2.67442 -1.34592 0
M  V30 1674 H 161.637 -1.28694 -0.646048 0
M  V30 1675 H 163.59 -2.02602 -3.695 0
M  V30 1676 H 162.314 -0.916844 -3.13467 0
M  V30 1677 H 160.973 -2.87065 -2.28012 0
M  V30 1678 H 160.621 -2.02136 -4.60597 0
M  V30 1679 H 160.321 -3.77439 -4.50348 0
M  V30 1680 H 161.845 -3.17354 -5.2165 0
M  V30 1681 H 163.259 -4.58727 -3.43864 0
M  V30 1682 H 161.656 -5.21893 -2.96222 0
M  V30 1683 H 162.726 -4.53087 -1.72744 0
M  V30 1684 N 164.069 0.697108 -1.41344 0
M  V30 1685 C 165.017 1.83237 -1.43272 0
M  V30 1686 C 166.011 1.66522 -0.310947 0
M  V30 1687 O 167.217 1.73402 -0.482899 0
M  V30 1688 H 163.592 0.603802 -0.448249 0
M  V30 1689 H 165.563 1.78727 -2.38954 0
M  V30 1690 C 164.312 3.21245 -1.33029 0
M  V30 1691 H 163.635 3.34723 -2.18633 0
M  V30 1692 H 165.075 4.00763 -1.38439 0
M  V30 1693 C 163.534 3.36873 -0.0424635 0
M  V30 1694 O 164.064 3.91177 0.913421 0
M  V30 1695 N 162.27 2.90581 0.0331145 0
M  V30 1696 H 161.817 2.46577 -0.745506 0
M  V30 1697 H 161.775 3.01416 0.894199 0
M  V30 1698 N 165.547 1.27147 0.931209 0
M  V30 1699 C 166.796 1.12664 1.67302 0
M  V30 1700 C 167.109 -0.327718 1.92835 0
M  V30 1701 O 168.315 -0.593392 2.64936 0
M  V30 1702 C 166.771 1.9683 3.01307 0
M  V30 1703 C 166.379 3.46901 2.83485 0
M  V30 1704 C 168.123 1.90985 3.79111 0
M  V30 1705 C 166.03 4.23279 4.13024 0
M  V30 1706 H 164.96 0.41803 0.627509 0
M  V30 1707 H 167.611 1.51539 1.03481 0
M  V30 1708 H 165.993 1.50797 3.66164 0
M  V30 1709 H 167.167 4.00773 2.27415 0
M  V30 1710 H 165.482 3.54088 2.19113 0
M  V30 1711 H 168.079 2.45328 4.75098 0
M  V30 1712 H 168.422 0.882718 4.06834 0
M  V30 1713 H 168.955 2.34895 3.21044 0
M  V30 1714 H 165.694 5.26503 3.90481 0
M  V30 1715 H 165.214 3.74186 4.6877 0
M  V30 1716 H 166.893 4.32265 4.81411 0
M  V30 1717 N 167.025 -1.13721 1.09112 0
M  V30 1718 C 167.957 -2.1871 0.685467 0
M  V30 1719 C 168.97 -1.60527 -0.271068 0
M  V30 1720 O 170.159 -1.78407 -0.0576148 0
M  V30 1721 C 167.259 -3.38898 -0.0111255 0
M  V30 1722 C 166.432 -4.26597 0.966131 0
M  V30 1723 C 165.491 -5.25324 0.303539 0
M  V30 1724 O 164.517 -5.61213 0.950177 0
M  V30 1725 N 165.719 -5.72779 -0.943651 0
M  V30 1726 H 168.484 -2.54126 1.58871 0
M  V30 1727 H 166.045 -1.29012 0.978143 0
M  V30 1728 H 168.037 -4.02014 -0.465517 0
M  V30 1729 H 166.607 -3.01747 -0.816565 0
M  V30 1730 H 165.827 -3.60306 1.59917 0
M  V30 1731 H 167.115 -4.82048 1.6281 0
M  V30 1732 H 166.513 -5.45762 -1.48862 0
M  V30 1733 H 165.07 -6.37847 -1.34142 0
M  V30 1734 N 168.503 -0.877838 -1.30888 0
M  V30 1735 C 169.749 -0.493426 -1.96706 0
M  V30 1736 C 170.082 0.953504 -1.6918 0
M  V30 1737 O 169.357 1.67266 -0.992594 0
M  V30 1738 C 169.64 -0.760429 -3.51979 0
M  V30 1739 C 169.493 -2.25747 -3.89048 0
M  V30 1740 C 170.812 -0.232148 -4.39487 0
M  V30 1741 H 167.931 -0.180746 -0.714493 0
M  V30 1742 H 170.573 -1.10052 -1.54882 0
M  V30 1743 H 168.723 -0.243715 -3.87735 0
M  V30 1744 H 170.395 -2.84204 -3.63354 0
M  V30 1745 H 168.638 -2.72694 -3.37373 0
M  V30 1746 H 169.309 -2.39491 -4.97341 0
M  V30 1747 H 171.785 -0.674314 -4.106 0
M  V30 1748 H 170.661 -0.448355 -5.47066 0
M  V30 1749 H 170.922 0.866297 -4.33529 0
M  V30 1750 N 169.982 1.44106 -0.638065 0
M  V30 1751 C 170.892 2.34513 0.0637334 0
M  V30 1752 C 171.908 1.53018 0.828346 0
M  V30 1753 O 173.084 1.85723 0.779036 0
M  V30 1754 C 170.149 3.31095 1.02844 0
M  V30 1755 C 169.21 4.28497 0.26244 0
M  V30 1756 C 168.443 5.20465 1.1812 0
M  V30 1757 O 168.666 5.16514 2.42011 0
M  V30 1758 O 167.6 5.98251 0.661774 0
M  V30 1759 H 171.426 2.95989 -0.68003 0
M  V30 1760 H 169.011 1.43994 -0.398252 0
M  V30 1761 H 170.893 3.90526 1.58327 0
M  V30 1762 H 169.568 2.72144 1.7527 0
M  V30 1763 H 168.475 3.72592 -0.335602 0
M  V30 1764 H 169.808 4.90388 -0.421936 0
M  V30 1765 N 171.46 0.379036 1.52974 0
M  V30 1766 C 172.407 -0.461048 2.26148 0
M  V30 1767 C 173.377 -1.06637 1.27349 0
M  V30 1768 O 174.562 -1.09633 1.56157 0
M  V30 1769 C 171.702 -1.58782 3.06402 0
M  V30 1770 C 170.815 -1.00636 4.20115 0
M  V30 1771 C 169.95 -2.10334 4.87784 0
M  V30 1772 C 168.989 -1.49724 5.93506 0
M  V30 1773 N 168.126 -2.5331 6.54812 0
M  V30 1774 H 172.966 0.169429 2.97518 0
M  V30 1775 H 170.503 0.0953806 1.4679 0
M  V30 1776 H 172.461 -2.25174 3.51215 0
M  V30 1777 H 171.091 -2.18876 2.37261 0
M  V30 1778 H 170.143 -0.232332 3.7969 0
M  V30 1779 H 171.455 -0.523343 4.96047 0
M  V30 1780 H 170.609 -2.84519 5.35849 0
M  V30 1781 H 169.348 -2.61992 4.11353 0
M  V30 1782 H 168.353 -0.740598 5.44789 0
M  V30 1783 H 169.578 -0.988732 6.71864 0
M  V30 1784 H 167.524 -3.04156 5.81227 0
M  V30 1785 H 167.441 -2.09734 7.26325 0
M  V30 1786 H 168.709 -3.27155 7.07524 0
M  V30 1787 N 172.938 -1.57226 0.108567 0
M  V30 1788 C 173.848 -2.18292 -0.859401 0
M  V30 1789 C 174.864 -1.15612 -1.30038 0
M  V30 1790 O 176.04 -1.48039 -1.36552 0
M  V30 1791 C 173.105 -2.762 -2.09558 0
M  V30 1792 C 172.166 -3.93881 -1.70752 0
M  V30 1793 C 171.399 -4.49018 -2.88477 0
M  V30 1794 O 171.622 -4.03068 -4.036 0
M  V30 1795 O 170.556 -5.39852 -2.66164 0
M  V30 1796 H 174.382 -3.01441 -0.369769 0
M  V30 1797 H 171.967 -1.48945 -0.1165 0
M  V30 1798 H 173.849 -3.13156 -2.81978 0
M  V30 1799 H 172.524 -1.96089 -2.57548 0
M  V30 1800 H 171.431 -3.61713 -0.954714 0
M  V30 1801 H 172.764 -4.75396 -1.27513 0
M  V30 1802 N 174.416 0.165178 -1.56732 0
M  V30 1803 C 175.326 1.22423 -2.00125 0
M  V30 1804 C 176.342 1.48084 -0.913619 0
M  V30 1805 O 177.518 1.60112 -1.22172 0
M  V30 1806 C 174.583 2.54197 -2.35764 0
M  V30 1807 C 173.644 2.36343 -3.58386 0
M  V30 1808 C 172.877 3.61834 -3.92316 0
M  V30 1809 O 173.1 4.67267 -3.27135 0
M  V30 1810 O 172.034 3.55579 -4.85641 0
M  V30 1811 H 175.86 0.885886 -2.90492 0
M  V30 1812 H 173.445 0.372518 -1.44681 0
M  V30 1813 H 175.327 3.3192 -2.59629 0
M  V30 1814 H 174.002 2.87598 -1.48557 0
M  V30 1815 H 172.909 1.56632 -3.39731 0
M  V30 1816 H 174.242 2.07865 -4.46154 0
M  V30 1817 N 175.894 1.51508 0.433938 0
M  V30 1818 C 176.824 1.76016 1.53429 0
M  V30 1819 C 177.805 0.610112 1.58782 0
M  V30 1820 O 178.99 0.853177 1.74455 0
M  V30 1821 C 176.12 1.88831 2.9148 0
M  V30 1822 C 175.074 3.04288 3.00987 0
M  V30 1823 C 174.4 3.0229 4.4105 0
M  V30 1824 C 175.7 4.44193 2.74754 0
M  V30 1825 H 177.394 2.68152 1.33171 0
M  V30 1826 H 174.94 1.29035 0.639214 0
M  V30 1827 H 176.893 2.04559 3.6842 0
M  V30 1828 H 175.617 0.933455 3.12976 0
M  V30 1829 H 174.276 2.8827 2.26486 0
M  V30 1830 H 173.924 2.04576 4.59519 0
M  V30 1831 H 173.624 3.79822 4.4834 0
M  V30 1832 H 175.148 3.20116 5.1996 0
M  V30 1833 H 176.562 4.60544 3.41426 0
M  V30 1834 H 174.959 5.23457 2.9345 0
M  V30 1835 H 176.029 4.53996 1.70339 0
M  V30 1836 N 177.372 -0.689602 1.41712 0
M  V30 1837 C 178.621 -1.44534 1.40686 0
M  V30 1838 C 178.934 -1.95588 0.0213352 0
M  V30 1839 O 180.14 -2.71271 -0.111534 0
M  V30 1840 C 178.596 -2.61387 2.47396 0
M  V30 1841 C 178.204 -2.17094 3.91885 0
M  V30 1842 C 179.948 -3.38986 2.55517 0
M  V30 1843 C 177.855 -3.3094 4.90135 0
M  V30 1844 H 176.785 -0.542925 0.52321 0
M  V30 1845 H 179.436 -0.748054 1.6756 0
M  V30 1846 H 177.818 -3.33412 2.13664 0
M  V30 1847 H 178.992 -1.52318 4.34897 0
M  V30 1848 H 177.307 -1.52473 3.8748 0
M  V30 1849 H 179.904 -4.23747 3.26102 0
M  V30 1850 H 180.247 -3.84578 1.59391 0
M  V30 1851 H 180.78 -2.74021 2.8837 0
M  V30 1852 H 177.519 -2.90355 5.87685 0
M  V30 1853 H 177.039 -3.94546 4.51767 0
M  V30 1854 H 178.718 -3.9663 5.11169 0
M  V30 1855 N 178.85 -1.27639 -0.924453 0
M  V30 1856 C 179.813 -1.10681 -2.00705 0
M  V30 1857 C 180.813 -0.0497823 -1.60723 0
M  V30 1858 O 182.003 -0.294654 -1.7169 0
M  V30 1859 C 179.135 -0.687164 -3.33902 0
M  V30 1860 H 180.328 -2.06817 -2.17179 0
M  V30 1861 H 177.881 -1.10473 -1.10569 0
M  V30 1862 H 178.616 0.275439 -3.23128 0
M  V30 1863 H 178.401 -1.45061 -3.6428 0
M  V30 1864 H 179.891 -0.590853 -4.13399 0
M  V30 1865 N 180.328 1.1314 -1.09713 0
M  V30 1866 C 181.744 1.36477 -0.827423 0
M  V30 1867 C 181.944 1.93654 0.556817 0
M  V30 1868 O 181 2.15791 1.31112 0
M  V30 1869 C 182.313 2.31334 -1.92106 0
M  V30 1870 C 183.861 2.44943 -1.94864 0
M  V30 1871 C 184.336 3.4311 -3.0338 0
M  V30 1872 N 185.827 3.50662 -3.02639 0
M  V30 1873 C 186.562 4.2651 -3.83246 0
M  V30 1874 N 186.058 5.05485 -4.73768 0
M  V30 1875 N 187.851 4.2184 -3.71493 0
M  V30 1876 H 180.002 0.743807 -1.9895 0
M  V30 1877 H 182.265 0.389823 -0.864143 0
M  V30 1878 H 181.971 1.96483 -2.91698 0
M  V30 1879 H 181.845 3.31381 -1.80184 0
M  V30 1880 H 184.232 2.79079 -0.959099 0
M  V30 1881 H 184.313 1.4481 -2.10864 0
M  V30 1882 H 183.957 3.09704 -4.02549 0
M  V30 1883 H 183.887 4.43055 -2.84622 0
M  V30 1884 H 186.378 2.94315 -2.37039 0
M  V30 1885 H 186.691 5.60675 -5.3185 0
M  V30 1886 H 185.036 5.04708 -4.77802 0
M  V30 1887 H 188.227 3.5922 -3.00131 0
M  V30 1888 H 188.4 4.80697 -4.3455 0
M  V30 1889 N 181.806 0.884767 1.30421 0
M  V30 1890 C 182.736 0.367574 2.30589 0
M  V30 1891 C 183.717 -0.549464 1.60981 0
M  V30 1892 O 184.902 -0.46336 1.88591 0
M  V30 1893 C 182.032 -0.418944 3.44764 0
M  V30 1894 C 180.986 0.406316 4.26067 0
M  V30 1895 C 180.312 -0.506793 5.32293 0
M  V30 1896 C 181.612 1.64832 4.95608 0
M  V30 1897 H 183.306 1.20462 2.74097 0
M  V30 1898 H 180.852 0.580695 1.31772 0
M  V30 1899 H 182.805 -0.791395 4.13902 0
M  V30 1900 H 181.529 -1.28964 3.0006 0
M  V30 1901 H 180.188 0.760903 3.58617 0
M  V30 1902 H 179.836 -1.37519 4.83836 0
M  V30 1903 H 179.536 0.0415828 5.87585 0
M  V30 1904 H 181.06 -0.875764 6.04287 0
M  V30 1905 H 182.474 1.34646 5.57264 0
M  V30 1906 H 180.871 2.13688 5.60765 0
M  V30 1907 H 181.941 2.39284 4.21748 0
M  V30 1908 N 183.284 -1.43765 0.645699 0
M  V30 1909 C 184.512 -2.06253 0.163556 0
M  V30 1910 C 184.927 -1.48352 -1.16778 0
M  V30 1911 O 184.284 -0.611932 -1.71935 0
M  V30 1912 C 184.335 -3.61453 0.0583186 0
M  V30 1913 O 184.056 -4.172 1.33702 0
M  V30 1914 C 185.557 -4.41002 -0.450795 0
M  V30 1915 H 182.777 -0.665413 0.0864077 0
M  V30 1916 H 185.321 -1.84396 0.884222 0
M  V30 1917 H 183.476 -3.82522 -0.612865 0
M  V30 1918 H 183.89 -5.10791 1.19131 0
M  V30 1919 H 185.364 -5.49966 -0.473403 0
M  V30 1920 H 185.841 -4.13488 -1.48068 0
M  V30 1921 H 186.447 -4.24886 0.187637 0
M  V30 1922 N 184.763 -0.387143 -1.52771 0
M  V30 1923 C 186.011 0.195349 -2.01154 0
M  V30 1924 C 186.332 1.475 -1.27549 0
M  V30 1925 O 185.602 1.91878 -0.394924 0
M  V30 1926 H 184.182 0.075178 -0.743207 0
M  V30 1927 H 186.844 -0.518337 -1.87881 0
M  V30 1928 H 185.94 0.407096 -3.09434 0
M  V30 1929 N 186.241 1.57166 -0.116904 0
M  V30 1930 C 187.657 1.5779 0.239693 0
M  V30 1931 C 187.857 1.1295 1.66867 0
M  V30 1932 O 186.913 0.81592 2.38954 0
M  V30 1933 C 188.226 3.00699 0.00828202 0
M  V30 1934 C 189.774 3.12912 0.0743438 0
M  V30 1935 C 190.249 4.57817 -0.129348 0
M  V30 1936 N 191.74 4.63139 -0.075247 0
M  V30 1937 C 192.475 5.73023 -0.207788 0
M  V30 1938 N 191.971 6.91665 -0.396382 0
M  V30 1939 N 193.764 5.61906 -0.14751 0
M  V30 1940 H 185.915 1.84615 -1.05029 0
M  V30 1941 H 188.178 0.85311 -0.41341 0
M  V30 1942 H 187.884 3.37784 -0.979531 0
M  V30 1943 H 187.758 3.69848 0.741077 0
M  V30 1944 H 190.145 2.75686 1.05268 0
M  V30 1945 H 190.226 2.4631 -0.690297 0
M  V30 1946 H 189.87 4.95742 -1.10465 0
M  V30 1947 H 189.8 5.22507 0.655253 0
M  V30 1948 H 192.291 3.7784 0.0670898 0
M  V30 1949 H 192.604 7.71255 -0.488437 0
M  V30 1950 H 190.949 6.93654 -0.432329 0
M  V30 1951 H 194.14 4.681 -0.00115036 0
M  V30 1952 H 194.313 6.47501 -0.254247 0
M  V30 1953 N 187.719 -0.156864 1.56817 0
M  V30 1954 C 189.135 -0.50916 1.5126 0
M  V30 1955 C 189.335 -1.83897 0.823658 0
M  V30 1956 O 188.391 -2.49469 0.390055 0
M  V30 1957 C 189.704 -0.52857 2.96018 0
M  V30 1958 C 191.252 -0.614771 3.06903 0
M  V30 1959 C 191.727 -0.664938 4.53147 0
M  V30 1960 N 193.218 -0.727433 4.57452 0
M  V30 1961 C 193.953 -0.787067 5.67973 0
M  V30 1962 N 193.449 -0.806649 6.88088 0
M  V30 1963 N 195.242 -0.827195 5.5598 0
M  V30 1964 H 187.393 0.714935 2.00006 0
M  V30 1965 H 189.656 0.259526 0.911784 0
M  V30 1966 H 189.362 0.380154 3.49639 0
M  V30 1967 H 189.236 -1.36998 3.51442 0
M  V30 1968 H 191.623 -1.51392 2.53307 0
M  V30 1969 H 191.704 0.253597 2.5454 0
M  V30 1970 H 191.348 0.230011 5.07379 0
M  V30 1971 H 191.278 -1.54966 5.03282 0
M  V30 1972 H 193.769 -0.719998 3.70978 0
M  V30 1973 H 194.082 -0.853727 7.6807 0
M  V30 1974 H 192.427 -0.774687 6.90669 0
M  V30 1975 H 195.618 -0.808998 4.61056 0
M  V30 1976 H 195.791 -0.870206 6.4213 0
M  V30 1977 N 189.197 -1.51736 -0.425897 0
M  V30 1978 C 190.446 -1.64201 -1.17136 0
M  V30 1979 C 190.759 -0.369705 -1.92074 0
M  V30 1980 O 191.965 -0.373898 -2.68913 0
M  V30 1981 C 190.421 -2.90035 -2.13091 0
M  V30 1982 C 190.029 -4.24312 -1.43747 0
M  V30 1983 C 191.773 -3.1186 -2.87999 0
M  V30 1984 C 189.68 -5.41285 -2.38253 0
M  V30 1985 H 188.61 -0.611624 -0.440944 0
M  V30 1986 H 191.261 -1.78212 -0.437328 0
M  V30 1987 H 189.643 -2.69684 -2.89977 0
M  V30 1988 H 190.817 -4.55086 -0.723408 0
M  V30 1989 H 189.132 -4.08456 -0.809465 0
M  V30 1990 H 191.729 -3.96427 -3.58817 0
M  V30 1991 H 192.072 -2.25403 -3.49999 0
M  V30 1992 H 192.605 -3.32605 -2.18217 0
M  V30 1993 H 189.344 -6.30037 -1.80925 0
M  V30 1994 H 188.864 -5.14872 -3.0768 0
M  V30 1995 H 190.543 -5.73694 -2.99139 0
M  V30 1996 N 190.675 0.682077 -1.42076 0
M  V30 1997 C 191.915 1.45424 -1.43636 0
M  V30 1998 C 192.279 1.91939 -0.0484001 0
M  V30 1999 O 193.48 2.6873 0.0612514 0
M  V30 2000 C 191.751 2.62427 -2.42625 0
M  V30 2001 S 193.31 3.51379 -2.62827 0
M  V30 2002 H 190.128 0.496779 -0.508657 0
M  V30 2003 H 192.73 0.794645 -1.78621 0
M  V30 2004 H 191.434 2.26481 -3.42249 0
M  V30 2005 H 190.965 3.33266 -2.09039 0
M  V30 2006 H 192.98 4.58141 -1.9058 0
M  V30 2007 N 192.153 1.28127 0.917671 0
M  V30 2008 C 193.1 1.11717 2.0196 0
M  V30 2009 C 194.07 0.0153929 1.66093 0
M  V30 2010 O 195.255 0.179596 1.89953 0
M  V30 2011 C 192.395 0.780927 3.36148 0
M  V30 2012 C 191.508 1.96135 3.84909 0
M  V30 2013 C 190.643 1.56609 5.0759 0
M  V30 2014 C 189.682 2.71339 5.48673 0
M  V30 2015 N 188.819 2.32332 6.62545 0
M  V30 2016 H 193.659 2.06003 2.15329 0
M  V30 2017 H 191.196 1.02535 1.05475 0
M  V30 2018 H 193.154 0.56675 4.13333 0
M  V30 2019 H 191.784 -0.124998 3.22558 0
M  V30 2020 H 190.836 2.28777 3.03916 0
M  V30 2021 H 192.148 2.82165 4.1132 0
M  V30 2022 H 191.302 1.31374 5.92305 0
M  V30 2023 H 190.041 0.677014 4.82978 0
M  V30 2024 H 189.046 2.97276 4.62501 0
M  V30 2025 H 190.271 3.60882 5.75274 0
M  V30 2026 H 188.217 1.45889 6.39572 0
M  V30 2027 H 188.134 3.11899 6.88662 0
M  V30 2028 H 189.402 2.10371 7.50576 0
M  V30 2029 N 193.631 -1.12557 1.10312 0
M  V30 2030 C 194.877 -1.84311 0.846011 0
M  V30 2031 C 195.21 -1.83805 -0.626859 0
M  V30 2032 O 194.485 -1.28268 -1.46211 0
M  V30 2033 C 194.768 -3.32048 1.39341 0
M  V30 2034 C 194.621 -3.41016 2.93305 0
M  V30 2035 C 195.94 -4.27764 1.03468 0
M  V30 2036 H 193.059 -0.669192 0.30879 0
M  V30 2037 H 195.701 -1.32057 1.36605 0
M  V30 2038 H 193.851 -3.76678 0.951087 0
M  V30 2039 H 195.523 -3.05031 3.46055 0
M  V30 2040 H 193.766 -2.81603 3.29973 0
M  V30 2041 H 194.437 -4.44948 3.26689 0
M  V30 2042 H 196.913 -3.91253 1.41633 0
M  V30 2043 H 195.789 -5.29549 1.44463 0
M  V30 2044 H 196.05 -4.42064 -0.0560404 0
M  V30 2045 N 195.109 -0.891671 -1.2995 0
M  V30 2046 C 196.349 -0.520296 -1.97667 0
M  V30 2047 C 196.713 0.914797 -1.68806 0
M  V30 2048 O 197.914 1.39263 -2.29911 0
M  V30 2049 C 196.185 -0.795222 -3.48441 0
M  V30 2050 S 197.744 -0.526953 -4.35624 0
M  V30 2051 H 194.562 -0.19333 -0.684211 0
M  V30 2052 H 197.164 -1.15238 -1.57926 0
M  V30 2053 H 195.868 -1.83805 -3.66938 0
M  V30 2054 H 195.399 -0.15095 -3.9311 0
M  V30 2055 H 197.414 0.631533 -4.92165 0
M  V30 2056 N 196.587 1.43421 -0.653314 0
M  V30 2057 C 197.835 2.01414 -0.166415 0
M  V30 2058 C 198.156 1.51803 1.22397 0
M  V30 2059 O 197.426 0.730693 1.81763 0
M  V30 2060 H 196.006 0.744703 -0.0585319 0
M  V30 2061 H 198.668 1.75629 -0.845003 0
M  V30 2062 H 197.764 3.11734 -0.151111 0
M  V30 2063 N 198.065 0.39524 1.52563 0
M  V30 2064 C 199.293 -0.184943 2.06072 0
M  V30 2065 C 199.708 -1.40021 1.26647 0
M  V30 2066 O 199.065 -1.79767 0.314672 0
M  V30 2067 C 199.116 -0.549179 3.57304 0
M  V30 2068 O 198.837 0.617813 4.33722 0
M  V30 2069 C 200.338 -1.18459 4.2718 0
M  V30 2070 H 197.558 -0.0265025 0.670476 0
M  V30 2071 H 200.102 0.562184 1.96621 0
M  V30 2072 H 198.257 -1.2462 3.66809 0
M  V30 2073 H 198.671 0.317091 5.23541 0
M  V30 2074 H 200.145 -1.38976 5.34219 0
M  V30 2075 H 200.622 -2.15368 3.82771 0
M  V30 2076 H 201.228 -0.528163 4.22008 0
M  V30 2077 N 199.544 -1.57102 0.125237 0
M  V30 2078 C 200.769 -2.0019 -0.542101 0
M  V30 2079 C 201.194 -1.00449 -1.59034 0
M  V30 2080 O 200.552 0.0229423 -1.81285 0
M  V30 2081 C 200.6 -3.42129 -1.13929 0
M  V30 2082 O 199.704 -3.45307 -2.2547 0
M  V30 2083 H 199.045 -0.650171 -0.134812 0
M  V30 2084 H 201.575 -2.03461 0.215553 0
M  V30 2085 H 201.585 -3.80471 -1.4733 0
M  V30 2086 H 200.26 -4.14237 -0.371531 0
M  V30 2087 H 198.837 -3.1879 -1.93462 0
M  V30 2088 N 201.022 0.148545 -1.56898 0
M  V30 2089 C 202.252 0.875118 -1.8715 0
M  V30 2090 C 202.66 1.75322 -0.711262 0
M  V30 2091 O 202.003 1.80745 0.328151 0
M  V30 2092 C 202.065 1.7844 -3.12089 0
M  V30 2093 C 201.729 1.08361 -4.43967 0
M  V30 2094 C 202.726 0.438247 -5.1805 0
M  V30 2095 C 200.411 1.07358 -4.90693 0
M  V30 2096 C 202.405 -0.20779 -6.37061 0
M  V30 2097 C 200.092 0.42373 -6.09629 0
M  V30 2098 C 201.09 -0.215829 -6.82659 0
M  V30 2099 O 200.778 -0.855378 -7.99336 0
M  V30 2100 H 200.51 0.258504 -0.624621 0
M  V30 2101 H 203.064 0.14652 -2.04877 0
M  V30 2102 H 201.294 2.55389 -2.90367 0
M  V30 2103 H 202.983 2.38279 -3.286 0
M  V30 2104 H 203.749 0.437817 -4.8302 0
M  V30 2105 H 199.628 1.5608 -4.33774 0
M  V30 2106 H 203.172 -0.70758 -6.94002 0
M  V30 2107 H 199.069 0.421822 -6.4412 0
M  V30 2108 H 199.837 -0.756892 -8.14993 0
M  V30 2109 N 202.5 1.5196 0.417844 0
M  V30 2110 C 203.45 1.7106 1.5074 0
M  V30 2111 C 204.434 0.564487 1.50673 0
M  V30 2112 O 205.626 0.821206 1.56797 0
M  V30 2113 C 202.755 1.85677 2.88754 0
M  V30 2114 C 201.841 3.06133 2.93502 0
M  V30 2115 N 202.232 4.28987 2.67962 0
M  V30 2116 C 200.53 3.05787 3.24669 0
M  V30 2117 C 201.231 5.10395 2.79055 0
M  V30 2118 N 200.207 4.45455 3.11561 0
M  V30 2119 H 204.009 2.63696 1.29775 0
M  V30 2120 H 201.523 1.49873 0.625436 0
M  V30 2121 H 203.52 1.97475 3.67164 0
M  V30 2122 H 202.18 0.942348 3.10725 0
M  V30 2123 H 203.191 4.57607 2.4252 0
M  V30 2124 H 199.868 2.2405 3.52289 0
M  V30 2125 H 201.258 6.18247 2.63097 0
M  V30 2126 N 203.978 -0.674533 1.42435 0
M  V30 2127 C 204.908 -1.80009 1.48724 0
M  V30 2128 C 205.889 -1.6659 0.343793 0
M  V30 2129 O 207.074 -1.86007 0.558137 0
M  V30 2130 C 204.204 -3.18306 1.38919 0
M  V30 2131 C 203.158 -3.46461 2.51294 0
M  V30 2132 C 202.484 -4.84335 2.26547 0
M  V30 2133 C 203.784 -3.43328 3.93603 0
M  V30 2134 H 205.478 -1.75004 2.42928 0
M  V30 2135 H 203.024 -0.840533 1.16923 0
M  V30 2136 H 204.977 -3.9678 1.41927 0
M  V30 2137 H 203.701 -3.2399 0.412094 0
M  V30 2138 H 202.36 -2.70348 2.47604 0
M  V30 2139 H 202.008 -4.86669 1.2713 0
M  V30 2140 H 201.708 -5.04136 3.01861 0
M  V30 2141 H 203.232 -5.65094 2.31304 0
M  V30 2142 H 204.646 -4.11772 3.98894 0
M  V30 2143 H 203.043 -3.74664 4.68771 0
M  V30 2144 H 204.113 -2.41897 4.20255 0
M  V30 2145 N 205.456 -1.28612 -0.910864 0
M  V30 2146 C 206.386 -1.15326 -2.03032 0
M  V30 2147 C 207.367 -0.0502924 -1.70026 0
M  V30 2148 O 208.552 -0.227797 -1.92859 0
M  V30 2149 C 205.682 -0.817343 -3.37545 0
M  V30 2150 C 204.636 -1.8754 -3.84724 0
M  V30 2151 C 203.962 -1.39305 -5.16235 0
M  V30 2152 C 205.262 -3.28244 -4.06267 0
M  V30 2153 H 206.956 -2.08975 -2.14406 0
M  V30 2154 H 204.502 -1.00612 -1.03021 0
M  V30 2155 H 206.455 -0.711151 -4.15356 0
M  V30 2156 H 205.179 0.154846 -3.26233 0
M  V30 2157 H 203.838 -1.97079 -3.09121 0
M  V30 2158 H 203.486 -0.409846 -5.01328 0
M  V30 2159 H 203.186 -2.10057 -5.48771 0
M  V30 2160 H 204.71 -1.30014 -5.96598 0
M  V30 2161 H 206.124 -3.21611 -4.74594 0
M  V30 2162 H 204.521 -3.96855 -4.5014 0
M  V30 2163 H 205.591 -3.72048 -3.10979 0
M  V30 2164 N 206.934 1.1197 -1.10907 0
M  V30 2165 C 208.181 1.83588 -0.854507 0
M  V30 2166 C 208.509 1.84357 0.6199 0
M  V30 2167 O 207.764 1.28809 1.47332 0
M  V30 2168 C 208.063 3.30749 -1.35425 0
M  V30 2169 C 207.729 3.50146 -2.84093 0
M  V30 2170 C 206.391 3.55148 -3.2469 0
M  V30 2171 C 208.743 3.56857 -3.79872 0
M  V30 2172 C 206.071 3.6441 -4.59806 0
M  V30 2173 C 208.423 3.6765 -5.14797 0
M  V30 2174 C 207.087 3.7091 -5.54961 0
M  V30 2175 H 206.357 0.671795 -0.312686 0
M  V30 2176 H 209.004 1.32091 -1.38652 0
M  V30 2177 H 207.309 3.84703 -0.742361 0
M  V30 2178 H 209.006 3.8464 -1.1337 0
M  V30 2179 H 205.596 3.46919 -2.51685 0
M  V30 2180 H 209.78 3.52258 -3.49611 0
M  V30 2181 H 205.036 3.65208 -4.9034 0
M  V30 2182 H 209.21 3.71786 -5.88853 0
M  V30 2183 H 206.837 3.7784 -6.59652 0
M  V30 2184 N 208.412 0.89855 1.29475 0
M  V30 2185 C 209.36 0.365253 2.29714 0
M  V30 2186 C 210.354 -0.534993 1.6073 0
M  V30 2187 O 211.56 -0.417921 1.75081 0
M  V30 2188 H 207.935 0.0994853 0.74539 0
M  V30 2189 H 209.906 1.22406 2.72138 0
M  V30 2190 C 208.655 -0.393159 3.4547 0
M  V30 2191 H 207.978 0.290332 3.98744 0
M  V30 2192 H 209.418 -0.731189 4.17648 0
M  V30 2193 C 207.877 -1.59539 2.9673 0
M  V30 2194 O 208.407 -2.69469 2.97908 0
M  V30 2195 N 206.613 -1.43716 2.52575 0
M  V30 2196 H 206.16 -0.542828 2.51816 0
M  V30 2197 H 206.118 -2.24288 2.20323 0
M  V30 2198 N 209.89 -1.43072 0.660911 0
M  V30 2199 C 211.301 -1.84932 0.256348 0
M  V30 2200 C 211.652 -1.55325 -1.19868 0
M  V30 2201 O 210.777 -1.00607 -1.91591 0
M  V30 2202 C 211.372 -3.35684 0.458475 0
M  V30 2203 C 209.931 -3.76245 0.108161 0
M  V30 2204 C 209.078 -2.66749 0.757641 0
M  V30 2205 H 212.029 -1.33116 0.864051 0
M  V30 2206 H 212.05 -3.79365 -0.293683 0
M  V30 2207 H 211.562 -3.572 1.51755 0
M  V30 2208 H 209.663 -3.60338 -0.948014 0
M  V30 2209 H 209.776 -4.76058 0.538992 0
M  V30 2210 H 208.14 -2.53989 0.190185 0
M  V30 2211 H 208.923 -2.91092 1.81989 0
M  V30 2212 N 211.368 -0.403325 -1.52352 0
M  V30 2213 C 212.779 0.0675782 -1.86578 0
M  V30 2214 C 213.13 1.44941 -1.32236 0
M  V30 2215 O 212.255 2.06112 -0.659307 0
M  V30 2216 C 212.85 0.129404 -3.38553 0
M  V30 2217 C 211.409 0.544629 -3.72439 0
M  V30 2218 C 210.556 -0.284551 -2.75836 0
M  V30 2219 H 213.507 -0.620631 -1.46061 0
M  V30 2220 H 213.528 0.94581 -3.68558 0
M  V30 2221 H 213.04 -0.87645 -3.78074 0
M  V30 2222 H 211.141 1.55734 -3.38493 0
M  V30 2223 H 211.254 0.293046 -4.78203 0
M  V30 2224 H 209.618 0.252258 -2.53448 0
M  V30 2225 H 210.401 -1.28865 -3.18196 0
M  V30 2226 N 212.846 1.57033 -0.133567 0
M  V30 2227 C 213.778 2.13176 0.841944 0
M  V30 2228 C 214.791 1.07794 1.22001 0
M  V30 2229 O 215.98 1.35117 1.16643 0
M  V30 2230 C 213.08 2.62847 2.13926 0
M  V30 2231 C 212.253 3.92486 1.93064 0
M  V30 2232 C 211.312 4.27605 3.0666 0
M  V30 2233 O 210.338 4.96168 2.78937 0
M  V30 2234 N 211.54 3.861 4.33483 0
M  V30 2235 H 214.305 2.97503 0.362192 0
M  V30 2236 H 211.866 1.61821 0.05042 0
M  V30 2237 H 213.858 2.83363 2.88942 0
M  V30 2238 H 212.428 1.83319 2.53205 0
M  V30 2239 H 211.648 3.80732 1.02159 0
M  V30 2240 H 212.936 4.77225 1.76447 0
M  V30 2241 H 212.334 3.30828 4.58878 0
M  V30 2242 H 210.891 4.11694 5.05323 0
M  V30 2243 N 214.325 -0.140222 1.56975 0
M  V30 2244 C 215.571 -0.852949 1.83991 0
M  V30 2245 C 215.904 -1.80512 0.716187 0
M  V30 2246 O 215.179 -1.92479 -0.279681 0
M  V30 2247 C 215.462 -1.6215 3.21527 0
M  V30 2248 C 215.315 -0.690363 4.4447 0
M  V30 2249 C 216.634 -2.58247 3.56366 0
M  V30 2250 H 213.753 -0.308634 0.669264 0
M  V30 2251 H 216.395 -0.117898 1.89634 0
M  V30 2252 H 214.545 -2.24812 3.16847 0
M  V30 2253 H 216.217 -0.0742264 4.6124 0
M  V30 2254 H 214.46 -0.000396433 4.338 0
M  V30 2255 H 215.131 -1.2643 5.37326 0
M  V30 2256 H 217.607 -2.05701 3.61699 0
M  V30 2257 H 216.483 -3.09067 4.53617 0
M  V30 2258 H 216.744 -3.39923 2.82674 0
M  V30 2259 N 215.803 -1.52179 -0.40978 0
M  V30 2260 C 216.713 -1.78364 -1.52392 0
M  V30 2261 C 217.729 -0.669183 -1.60617 0
M  V30 2262 O 218.905 -0.954518 -1.77344 0
M  V30 2263 C 215.97 -1.92822 -2.88133 0
M  V30 2264 C 215.031 -3.16725 -2.898 0
M  V30 2265 C 214.264 -3.30483 -4.19067 0
M  V30 2266 O 214.487 -2.49522 -5.12928 0
M  V30 2267 O 213.421 -4.2363 -4.27576 0
M  V30 2268 H 217.247 -2.72931 -1.33201 0
M  V30 2269 H 214.832 -1.37016 -0.59557 0
M  V30 2270 H 216.714 -2.04157 -3.68643 0
M  V30 2271 H 215.389 -1.01444 -3.07393 0
M  V30 2272 H 214.296 -3.10848 -2.08146 0
M  V30 2273 H 215.629 -4.07881 -2.75489 0
M  V30 2274 N 217.281 0.66697 -1.42791 0
M  V30 2275 C 218.529 1.42417 -1.43394 0
M  V30 2276 C 218.85 1.94925 -0.0542373 0
M  V30 2277 O 218.12 1.73564 0.908415 0
M  V30 2278 H 216.7 0.528515 -0.527902 0
M  V30 2279 H 219.362 0.787562 -1.78279 0
M  V30 2280 H 218.458 2.27333 -2.13837 0
M  V30 2281 N 218.759 1.29093 0.90403 0
M  V30 2282 C 219.706 1.13853 2.00764 0
M  V30 2283 C 220.676 0.0330084 1.66067 0
M  V30 2284 O 221.861 0.199733 1.89752 0
M  V30 2285 C 219.001 0.816537 3.35301 0
M  V30 2286 C 218.114 2.00206 3.82807 0
M  V30 2287 C 217.249 1.61983 5.059 0
M  V30 2288 C 216.288 2.77143 5.45764 0
M  V30 2289 N 215.425 2.39346 6.60044 0
M  V30 2290 H 220.265 2.08276 2.13132 0
M  V30 2291 H 217.802 1.03648 1.04381 0
M  V30 2292 H 219.76 0.610557 4.12708 0
M  V30 2293 H 218.39 -0.090779 3.22672 0
M  V30 2294 H 217.442 2.31988 3.01473 0
M  V30 2295 H 218.754 2.86512 4.08304 0
M  V30 2296 H 217.908 1.37649 5.90879 0
M  V30 2297 H 216.647 0.728202 4.82233 0
M  V30 2298 H 215.652 3.02165 4.59322 0
M  V30 2299 H 216.877 3.66964 5.71414 0
M  V30 2300 H 214.823 1.52665 6.37989 0
M  V30 2301 H 214.74 3.19185 6.85315 0
M  V30 2302 H 216.008 2.1832 7.48303 0
M  V30 2303 N 220.237 -1.11381 1.11499 0
M  V30 2304 C 221.477 -1.84763 0.874188 0
M  V30 2305 C 221.841 -1.82726 -0.589496 0
M  V30 2306 O 223.042 -2.51562 -0.947089 0
M  V30 2307 C 221.313 -3.27931 1.42112 0
M  V30 2308 S 222.872 -4.18557 1.31739 0
M  V30 2309 H 219.69 -0.637115 0.315603 0
M  V30 2310 H 222.292 -1.34097 1.42261 0
M  V30 2311 H 220.996 -3.26978 2.48019 0
M  V30 2312 H 220.527 -3.83665 0.869761 0
M  V30 2313 H 222.542 -4.95396 0.282335 0
M  V30 2314 N 221.715 -0.905404 -1.28997 0
M  V30 2315 C 222.992 -0.453513 -1.9027 0
M  V30 2316 C 223.372 1.06721 -1.82137 0
M  V30 2317 O 222.72 1.91159 -1.25182 0
M  V30 2318 C 222.93 -0.974494 -3.35119 0
M  V30 2319 C 224.278 -1.0216 -4.12127 0
M  V30 2320 O 225.302 -0.922557 -3.44046 0
M  V30 2321 O 224.161 -1.17121 -5.33802 0
M  V30 2322 H 221.255 -0.142347 -0.814657 0
M  V30 2323 H 223.801 -0.995642 -1.37423 0
M  V30 2324 H 222.573 -2.01848 -3.35221 0
M  V30 2325 H 222.196 -0.412706 -3.95452 0
M  V30 2326 N 223.193 1.4272 -0.668489 0
M  V30 2327 C 224.14 2.30796 0.0137489 0
M  V30 2328 C 225.11 1.4561 0.799177 0
M  V30 2329 O 226.295 1.74453 0.772702 0
M  V30 2330 C 223.435 3.31377 0.963507 0
M  V30 2331 C 222.548 4.31655 0.172569 0
M  V30 2332 C 221.683 5.19312 1.1175 0
M  V30 2333 C 220.722 6.11274 0.317886 0
M  V30 2334 N 219.859 6.91504 1.2152 0
M  V30 2335 H 224.699 2.88585 -0.743161 0
M  V30 2336 H 222.236 1.42154 -0.378226 0
M  V30 2337 H 224.194 3.88214 1.52792 0
M  V30 2338 H 222.824 2.75202 1.68712 0
M  V30 2339 H 221.876 3.76988 -0.508374 0
M  V30 2340 H 223.188 4.96779 -0.448527 0
M  V30 2341 H 222.342 5.80851 1.75206 0
M  V30 2342 H 221.081 4.5435 1.77249 0
M  V30 2343 H 220.086 5.48809 -0.329918 0
M  V30 2344 H 221.311 6.78283 -0.332917 0
M  V30 2345 H 219.257 6.29176 1.85671 0
M  V30 2346 H 219.174 7.53209 0.649036 0
M  V30 2347 H 220.442 7.57535 1.83742 0
M  V30 2348 N 224.671 0.411399 1.52136 0
M  V30 2349 C 225.948 -0.222308 1.94333 0
M  V30 2350 C 226.328 -1.6242 1.34844 0
M  V30 2351 O 225.676 -2.22384 0.525145 0
M  V30 2352 C 225.886 -0.226345 3.48265 0
M  V30 2353 C 227.234 -0.444592 4.22266 0
M  V30 2354 O 228.258 -0.305602 3.54887 0
M  V30 2355 O 227.117 -0.718749 5.41753 0
M  V30 2356 H 224.211 -0.143907 0.814383 0
M  V30 2357 H 226.757 0.467506 1.63133 0
M  V30 2358 H 225.529 0.75475 3.83952 0
M  V30 2359 H 225.152 -0.960163 3.85832 0
M  V30 2360 N 226.149 -1.5696 0.141893 0
M  V30 2361 C 227.397 -1.95573 -0.509484 0
M  V30 2362 C 227.718 -1.02746 -1.65736 0
M  V30 2363 O 226.988 -0.0880311 -1.95702 0
M  V30 2364 H 225.568 -0.722115 -0.191205 0
M  V30 2365 H 228.23 -1.93697 0.216196 0
M  V30 2366 H 227.326 -2.99171 -0.889 0
M  V30 2367 N 227.627 0.131896 -1.57047 0
M  V30 2368 C 228.875 0.840269 -1.83804 0
M  V30 2369 C 229.196 1.81017 -0.72512 0
M  V30 2370 O 228.466 1.94272 0.251995 0
M  V30 2371 H 227.046 0.313294 -0.678127 0
M  V30 2372 H 229.708 0.122294 -1.94516 0
M  V30 2373 H 228.804 1.39335 -2.79271 0
M  V30 2374 N 229.106 1.52395 0.401703 0
M  V30 2375 C 230.016 1.7917 1.51444 0
M  V30 2376 C 231.032 0.677691 1.6026 0
M  V30 2377 O 232.208 0.963909 1.76835 0
M  V30 2378 C 229.273 1.94347 2.87107 0
M  V30 2379 C 228.334 3.18257 2.88116 0
M  V30 2380 C 227.567 3.32701 4.17308 0
M  V30 2381 O 227.79 2.52238 5.11598 0
M  V30 2382 O 226.724 4.25891 4.25324 0
M  V30 2383 H 230.55 2.73633 1.31752 0
M  V30 2384 H 228.135 1.3733 0.588296 0
M  V30 2385 H 230.017 2.06109 3.67555 0
M  V30 2386 H 228.692 1.03073 3.06851 0
M  V30 2387 H 227.599 3.11947 2.06494 0
M  V30 2388 H 228.932 4.09336 2.73322 0
M  V30 2389 N 230.584 -0.659388 1.43143 0
M  V30 2390 C 231.514 -1.78422 1.50625 0
M  V30 2391 C 232.495 -1.66216 0.361443 0
M  V30 2392 O 233.68 -1.85404 0.577834 0
M  V30 2393 C 230.81 -3.16815 1.42287 0
M  V30 2394 C 229.764 -3.43777 2.54954 0
M  V30 2395 C 229.09 -4.81905 2.31671 0
M  V30 2396 C 230.39 -3.39134 3.97222 0
M  V30 2397 H 232.084 -1.72417 2.44771 0
M  V30 2398 H 229.63 -0.828084 1.17808 0
M  V30 2399 H 231.583 -3.95253 1.46127 0
M  V30 2400 H 230.307 -3.23534 0.446435 0
M  V30 2401 H 228.966 -2.67707 2.50457 0
M  V30 2402 H 228.614 -4.85294 1.32284 0
M  V30 2403 H 228.314 -5.00906 3.07192 0
M  V30 2404 H 229.838 -5.62609 2.37284 0
M  V30 2405 H 231.252 -4.07518 4.03239 0
M  V30 2406 H 229.649 -3.69671 4.72719 0
M  V30 2407 H 230.719 -2.37426 4.22797 0
M  V30 2408 N 232.062 -1.29571 -0.897171 0
M  V30 2409 C 233.292 -1.20408 -1.67886 0
M  V30 2410 C 233.7 0.237429 -1.87704 0
M  V30 2411 O 233.043 1.17048 -1.41582 0
M  V30 2412 C 233.105 -1.84887 -3.08314 0
M  V30 2413 C 232.769 -3.34189 -3.11716 0
M  V30 2414 C 233.766 -4.30374 -2.91675 0
M  V30 2415 C 231.451 -3.75431 -3.33701 0
M  V30 2416 C 233.445 -5.65776 -2.93557 0
M  V30 2417 C 231.132 -5.10955 -3.35214 0
M  V30 2418 C 232.13 -6.05938 -3.15164 0
M  V30 2419 O 231.818 -7.38987 -3.1647 0
M  V30 2420 H 231.55 -0.418289 -0.531046 0
M  V30 2421 H 234.104 -1.71514 -1.13014 0
M  V30 2422 H 232.334 -1.28295 -3.64798 0
M  V30 2423 H 234.023 -1.70011 -3.6858 0
M  V30 2424 H 234.789 -3.99844 -2.74499 0
M  V30 2425 H 230.668 -3.01953 -3.48347 0
M  V30 2426 H 234.212 -6.39889 -2.77826 0
M  V30 2427 H 230.109 -5.4113 -3.51922 0
M  V30 2428 H 230.877 -7.47823 -3.3272 0
M  V30 2429 N 233.54 1.10788 -1.12088 0
M  V30 2430 C 234.472 2.16816 -0.743213 0
M  V30 2431 C 235.485 1.6119 0.228412 0
M  V30 2432 O 236.674 1.78497 0.0102931 0
M  V30 2433 C 233.774 3.38809 -0.0787313 0
M  V30 2434 C 232.947 4.23885 -1.0789 0
M  V30 2435 C 232.006 5.24334 -0.442713 0
M  V30 2436 O 231.032 5.58497 -1.09864 0
M  V30 2437 N 232.234 5.75079 0.791457 0
M  V30 2438 H 234.999 2.49825 -1.65552 0
M  V30 2439 H 232.56 1.26373 -1.012 0
M  V30 2440 H 234.552 4.03107 0.358766 0
M  V30 2441 H 233.122 3.03805 0.736275 0
M  V30 2442 H 232.342 3.55939 -1.69414 0
M  V30 2443 H 233.63 4.77562 -1.75533 0
M  V30 2444 H 233.028 5.49517 1.3434 0
M  V30 2445 H 231.585 6.4118 1.17183 0
M  V30 2446 N 235.018 0.912232 1.28515 0
M  V30 2447 C 236.434 0.610159 1.47476 0
M  V30 2448 C 236.634 -0.844955 1.82928 0
M  V30 2449 O 235.69 -1.62416 1.93332 0
M  V30 2450 C 237.003 1.54675 2.57868 0
M  V30 2451 C 238.551 1.55331 2.71738 0
M  V30 2452 C 239.026 2.47649 3.85272 0
M  V30 2453 N 240.517 2.45767 3.92623 0
M  V30 2454 C 241.252 3.13896 4.79851 0
M  V30 2455 N 240.748 3.9135 5.71679 0
M  V30 2456 N 242.541 3.02991 4.73448 0
M  V30 2457 H 234.692 1.85318 1.03783 0
M  V30 2458 H 236.955 0.794777 0.516753 0
M  V30 2459 H 236.661 2.5841 2.38574 0
M  V30 2460 H 236.535 1.27671 3.54937 0
M  V30 2461 H 238.922 0.52335 2.90422 0
M  V30 2462 H 239.003 1.86378 1.75205 0
M  V30 2463 H 238.647 3.50745 3.67342 0
M  V30 2464 H 238.577 2.13904 4.81199 0
M  V30 2465 H 241.068 1.89503 3.26951 0
M  V30 2466 H 241.381 4.40359 6.35062 0
M  V30 2467 H 239.726 3.95455 5.71524 0
M  V30 2468 H 242.917 2.41987 4.007 0
M  V30 2469 H 243.09 3.5636 5.41213 0
M  V30 2470 N 236.496 -1.42363 0.676048 0
M  V30 2471 C 237.459 -2.29199 0.00766941 0
M  V30 2472 C 238.459 -1.43389 -0.727745 0
M  V30 2473 O 239.649 -1.64764 -0.56556 0
M  V30 2474 C 236.781 -3.2591 -0.999785 0
M  V30 2475 H 237.974 -2.89794 0.771988 0
M  V30 2476 H 235.527 -1.50024 0.438468 0
M  V30 2477 H 236.262 -2.70256 -1.79255 0
M  V30 2478 H 236.047 -3.89202 -0.475829 0
M  V30 2479 H 237.537 -3.91028 -1.46583 0
M  V30 2480 N 237.974 -0.419461 -1.51915 0
M  V30 2481 C 239.251 0.211999 -1.94448 0
M  V30 2482 C 239.631 1.61703 -1.35703 0
M  V30 2483 O 238.979 2.22102 -0.536931 0
M  V30 2484 C 239.189 0.207872 -3.4838 0
M  V30 2485 C 240.537 0.422192 -4.22496 0
M  V30 2486 O 241.561 0.286778 -3.55044 0
M  V30 2487 O 240.42 0.690009 -5.42126 0
M  V30 2488 H 237.514 0.139586 -0.815135 0
M  V30 2489 H 240.06 -0.476151 -1.62883 0
M  V30 2490 H 238.832 -0.775102 -3.83546 0
M  V30 2491 H 238.455 0.939688 -3.86336 0
M  V30 2492 N 239.452 1.56882 -0.150215 0
M  V30 2493 C 240.729 1.87844 0.545327 0
M  V30 2494 C 241.109 1.0567 1.82749 0
M  V30 2495 O 240.457 0.144442 2.28043 0
M  V30 2496 C 240.667 3.39526 0.80767 0
M  V30 2497 C 242.015 4.08814 1.14703 0
M  V30 2498 O 243.039 3.44723 0.896917 0
M  V30 2499 O 241.898 5.22004 1.61784 0
M  V30 2500 H 238.992 0.778677 0.278553 0
M  V30 2501 H 241.538 1.68666 -0.187068 0
M  V30 2502 H 240.31 3.91173 -0.0996096 0
M  V30 2503 H 239.933 3.64243 1.59413 0
M  V30 2504 N 240.93 -0.123565 1.57115 0
M  V30 2505 C 241.878 -1.17082 2.00984 0
M  V30 2506 C 242.872 -1.43136 0.906009 0
M  V30 2507 O 244.078 -1.43152 1.09121 0
M  V30 2508 H 240.453 -0.394653 0.64012 0
M  V30 2509 H 242.424 -0.774292 2.88179 0
M  V30 2510 C 241.173 -2.49057 2.42623 0
M  V30 2511 H 240.496 -2.29846 3.27125 0
M  V30 2512 H 241.936 -3.20906 2.7712 0
M  V30 2513 C 240.395 -3.11305 1.28805 0
M  V30 2514 O 240.925 -3.97171 0.60153 0
M  V30 2515 N 239.131 -2.71111 1.04628 0
M  V30 2516 H 238.678 -2.01382 1.60634 0
M  V30 2517 H 238.636 -3.1309 0.286685 0
M  V30 2518 N 242.408 -1.52605 -0.393616 0
M  V30 2519 C 243.819 -1.59417 -0.971761 0
M  V30 2520 C 244.17 -0.444173 -1.91106 0
M  V30 2521 O 243.295 0.433382 -2.12016 0
M  V30 2522 C 243.89 -2.88936 -1.76921 0
M  V30 2523 C 242.449 -2.98175 -2.29714 0
M  V30 2524 C 241.596 -2.54491 -1.10135 0
M  V30 2525 H 244.547 -1.57751 -0.173317 0
M  V30 2526 H 244.568 -2.75163 -2.62804 0
M  V30 2527 H 244.08 -3.72616 -1.08532 0
M  V30 2528 H 242.181 -2.19024 -3.01429 0
M  V30 2529 H 242.294 -4.02726 -2.59517 0
M  V30 2530 H 240.658 -2.08702 -1.45999 0
M  V30 2531 H 241.441 -3.4056 -0.432874 0
M  V30 2532 N 243.887 0.651787 -1.4349 0
M  V30 2533 C 245.164 1.40909 -1.35661 0
M  V30 2534 C 245.544 2.11099 -0.00511733 0
M  V30 2535 O 244.892 2.04892 1.0115 0
M  V30 2536 C 245.102 2.3926 -2.54078 0
M  V30 2537 C 246.45 3.03217 -2.97228 0
M  V30 2538 O 247.474 2.49588 -2.54135 0
M  V30 2539 O 246.333 4.00455 -3.71885 0
M  V30 2540 H 243.427 0.629625 -0.536191 0
M  V30 2541 H 245.973 0.678575 -1.55542 0
M  V30 2542 H 244.745 1.86352 -3.44076 0
M  V30 2543 H 244.368 3.1976 -2.36303 0
M  V30 2544 N 245.365 1.30045 0.890287 0
M  V30 2545 C 246.593 1.21472 1.67487 0
M  V30 2546 C 247.008 -0.223241 1.87476 0
M  V30 2547 O 246.365 -1.14828 1.41847 0
M  V30 2548 C 246.416 1.93394 3.05419 0
M  V30 2549 O 246.137 3.31576 2.86337 0
M  V30 2550 C 247.638 1.91414 3.99844 0
M  V30 2551 H 244.858 0.420604 0.522813 0
M  V30 2552 H 247.402 1.7158 1.11268 0
M  V30 2553 H 245.557 1.47099 3.58386 0
M  V30 2554 H 245.971 3.67929 3.73802 0
M  V30 2555 H 247.445 2.46285 4.94012 0
M  V30 2556 H 247.922 0.891833 4.3005 0
M  V30 2557 H 248.528 2.37496 3.52811 0
M  V30 2558 N 246.843 -1.10192 1.12674 0
M  V30 2559 C 248.089 -1.82475 0.884915 0
M  V30 2560 C 248.422 -1.85093 -0.58773 0
M  V30 2561 O 247.697 -1.3134 -1.43457 0
M  V30 2562 C 247.98 -3.29018 1.46353 0
M  V30 2563 C 247.833 -3.34718 3.00473 0
M  V30 2564 C 249.152 -4.25473 1.12519 0
M  V30 2565 H 246.271 -0.662492 0.322915 0
M  V30 2566 H 248.913 -1.2913 1.39375 0
M  V30 2567 H 247.063 -3.74576 1.03077 0
M  V30 2568 H 248.735 -2.97622 3.52447 0
M  V30 2569 H 246.978 -2.74541 3.35872 0
M  V30 2570 H 247.649 -4.37918 3.36053 0
M  V30 2571 H 250.125 -3.88161 1.499 0
M  V30 2572 H 249.001 -5.26365 1.55663 0
M  V30 2573 H 249.262 -4.42084 0.0377407 0
M  V30 2574 N 248.321 -0.919034 -1.28029 0
M  V30 2575 C 249.549 -0.570971 -1.98866 0
M  V30 2576 C 249.964 0.848996 -1.68634 0
M  V30 2577 O 249.321 1.56307 -0.942036 0
M  V30 2578 C 249.372 -0.776876 -3.53054 0
M  V30 2579 O 249.093 -2.14097 -3.82222 0
M  V30 2580 C 250.594 -0.436356 -4.41147 0
M  V30 2581 H 247.814 -0.217175 -0.634883 0
M  V30 2582 H 250.358 -1.23368 -1.63097 0
M  V30 2583 H 248.513 -0.161085 -3.87065 0
M  V30 2584 H 248.927 -2.18455 -4.76841 0
M  V30 2585 H 250.401 -0.63117 -5.4838 0
M  V30 2586 H 250.878 0.627686 -4.34692 0
M  V30 2587 H 251.484 -1.02991 -4.12641 0
M  V30 2588 N 249.799 1.42003 -0.683588 0
M  V30 2589 C 250.747 2.326 0.000815408 0
M  V30 2590 C 251.741 1.50308 0.781278 0
M  V30 2591 O 252.947 1.66322 0.688251 0
M  V30 2592 H 249.322 0.751758 0.0190616 0
M  V30 2593 H 251.293 2.88011 -0.780528 0
M  V30 2594 C 250.042 3.34978 0.93195 0
M  V30 2595 H 249.365 3.98345 0.340817 0
M  V30 2596 H 250.805 4.00936 1.37936 0
M  V30 2597 C 249.264 2.67925 2.04249 0
M  V30 2598 O 249.794 2.51788 3.12995 0
M  V30 2599 N 248 2.2681 1.81675 0
M  V30 2600 H 247.547 2.40135 0.932363 0
M  V30 2601 H 247.505 1.8228 2.56167 0
M  V30 2602 N 251.277 0.427512 1.51691 0
M  V30 2603 C 252.693 0.0792977 1.59403 0
M  V30 2604 C 252.893 -1.41035 1.43914 0
M  V30 2605 O 251.949 -2.17922 1.27539 0
M  V30 2606 C 253.262 0.590636 2.94842 0
M  V30 2607 C 254.81 0.550215 3.08126 0
M  V30 2608 C 255.285 1.03836 4.46074 0
M  V30 2609 N 256.776 0.995943 4.52366 0
M  V30 2610 C 257.511 1.34463 5.57411 0
M  V30 2611 N 257.007 1.76569 6.69922 0
M  V30 2612 N 258.8 1.26343 5.47717 0
M  V30 2613 H 250.951 1.39687 1.60004 0
M  V30 2614 H 253.214 0.575003 0.753708 0
M  V30 2615 H 252.92 1.63251 3.11516 0
M  V30 2616 H 252.794 0.0102061 3.77199 0
M  V30 2617 H 255.181 -0.482654 2.91126 0
M  V30 2618 H 255.262 1.16693 2.27632 0
M  V30 2619 H 254.906 2.06965 4.63819 0
M  V30 2620 H 254.836 0.398286 5.25092 0
M  V30 2621 H 257.327 0.68661 3.7161 0
M  V30 2622 H 257.64 2.01438 7.46085 0
M  V30 2623 H 255.985 1.80488 6.71155 0
M  V30 2624 H 259.176 0.933209 4.58703 0
M  V30 2625 H 259.349 1.53846 6.29472 0
M  V30 2626 N 252.755 -1.56801 0.158532 0
M  V30 2627 C 253.685 -2.20347 -0.772609 0
M  V30 2628 C 254.666 -1.15518 -1.24859 0
M  V30 2629 O 255.851 -1.43902 -1.30406 0
M  V30 2630 C 252.981 -2.83417 -2.00729 0
M  V30 2631 C 251.935 -3.94174 -1.66765 0
M  V30 2632 C 251.261 -4.44233 -2.97592 0
M  V30 2633 C 252.561 -5.14392 -0.905447 0
M  V30 2634 H 254.255 -2.98413 -0.242959 0
M  V30 2635 H 251.801 -1.43537 -0.115419 0
M  V30 2636 H 253.754 -3.26543 -2.6636 0
M  V30 2637 H 252.478 -2.02701 -2.56086 0
M  V30 2638 H 251.137 -3.51684 -1.03508 0
M  V30 2639 H 250.785 -3.60325 -3.50963 0
M  V30 2640 H 250.485 -5.18945 -2.75626 0
M  V30 2641 H 252.009 -4.90037 -3.64274 0
M  V30 2642 H 253.423 -5.5429 -1.46408 0
M  V30 2643 H 251.82 -5.9494 -0.7853 0
M  V30 2644 H 252.89 -4.84795 0.100668 0
M  V30 2645 N 254.233 0.115231 -1.57178 0
M  V30 2646 C 255.143 1.15994 -2.03918 0
M  V30 2647 C 256.159 1.45103 -0.960268 0
M  V30 2648 O 257.335 1.56144 -1.27204 0
M  V30 2649 C 254.4 2.46568 -2.43732 0
M  V30 2650 C 253.461 2.24822 -3.65723 0
M  V30 2651 C 252.694 3.4917 -4.03629 0
M  V30 2652 O 252.917 4.56623 -3.41835 0
M  V30 2653 O 251.851 3.39949 -4.96708 0
M  V30 2654 H 255.677 0.793019 -2.93164 0
M  V30 2655 H 253.262 0.3263 -1.45793 0
M  V30 2656 H 255.144 3.23492 -2.70057 0
M  V30 2657 H 253.819 2.82726 -1.57631 0
M  V30 2658 H 252.726 1.45744 -3.44542 0
M  V30 2659 H 254.059 1.93566 -4.52541 0
M  V30 2660 N 255.711 1.52812 0.385517 0
M  V30 2661 C 256.957 1.68275 1.13188 0
M  V30 2662 C 257.29 0.423179 1.89533 0
M  V30 2663 O 256.565 -0.579113 1.85679 0
M  V30 2664 C 256.848 2.92001 2.1073 0
M  V30 2665 C 256.701 4.28067 1.38125 0
M  V30 2666 C 258.02 3.11283 3.11113 0
M  V30 2667 H 255.139 0.612352 0.410115 0
M  V30 2668 H 257.781 1.85415 0.414869 0
M  V30 2669 H 255.931 2.77519 2.71874 0
M  V30 2670 H 257.603 4.54324 0.799187 0
M  V30 2671 H 255.846 4.28388 0.683092 0
M  V30 2672 H 256.517 5.10733 2.09417 0
M  V30 2673 H 258.993 3.2482 2.6006 0
M  V30 2674 H 257.869 3.99325 3.76605 0
M  V30 2675 H 258.13 2.25656 3.80173 0
M  V30 2676 N 257.189 -0.644168 1.43834 0
M  V30 2677 C 258.137 -1.77793 1.49974 0
M  V30 2678 C 259.131 -1.65253 0.372536 0
M  V30 2679 O 260.337 -1.7149 0.546924 0
M  V30 2680 H 256.712 -0.58675 0.47035 0
M  V30 2681 H 258.683 -1.69736 2.45423 0
M  V30 2682 C 257.432 -3.16087 1.4486 0
M  V30 2683 H 256.755 -3.26378 2.30905 0
M  V30 2684 H 258.195 -3.95349 1.53217 0
M  V30 2685 C 256.654 -3.36484 0.167463 0
M  V30 2686 O 257.184 -3.94298 -0.767609 0
M  V30 2687 N 255.39 -2.90504 0.0747556 0
M  V30 2688 H 254.937 -2.4364 0.836507 0
M  V30 2689 H 254.895 -3.04527 -0.781714 0
M  V30 2690 N 258.668 -1.30515 -0.883378 0
M  V30 2691 C 259.601 -1.11359 -1.99184 0
M  V30 2692 C 260.579 -0.0207858 -1.62587 0
M  V30 2693 O 261.763 -0.174646 -1.87689 0
M  V30 2694 C 258.89 -0.69871 -3.31415 0
M  V30 2695 C 257.936 -1.79261 -3.86998 0
M  V30 2696 S 258.769 -3.39536 -4.14096 0
M  V30 2697 C 259.925 -2.99954 -5.49344 0
M  V30 2698 H 260.158 -2.052 -2.15128 0
M  V30 2699 H 257.691 -1.14847 -1.03196 0
M  V30 2700 H 259.649 -0.466075 -4.07846 0
M  V30 2701 H 258.31 0.220368 -3.13326 0
M  V30 2702 H 257.503 -1.45464 -4.82552 0
M  V30 2703 H 257.105 -1.97961 -3.17313 0
M  V30 2704 H 259.397 -2.48013 -6.30473 0
M  V30 2705 H 260.34 -3.9442 -5.8808 0
M  V30 2706 H 260.748 -2.37775 -5.1198 0
M  V30 2707 N 260.146 1.09593 -1.13257 0
M  V30 2708 C 261.094 2.18271 -0.803783 0
M  V30 2709 C 262.088 1.68054 0.213148 0
M  V30 2710 O 263.294 1.79862 0.0704699 0
M  V30 2711 H 259.669 0.711949 -0.242143 0
M  V30 2712 H 261.64 2.43235 -1.72856 0
M  V30 2713 C 260.389 3.46536 -0.28424 0
M  V30 2714 H 259.712 3.85545 -1.05807 0
M  V30 2715 H 261.152 4.23899 -0.0925945 0
M  V30 2716 C 259.611 3.22036 0.989684 0
M  V30 2717 O 260.141 3.44509 2.06584 0
M  V30 2718 N 258.347 2.7565 0.920086 0
M  V30 2719 H 257.894 2.57562 0.0442019 0
M  V30 2720 H 257.852 2.59635 1.77306 0
M  V30 2721 N 261.624 0.925811 1.2754 0
M  V30 2722 C 262.556 0.380753 2.26015 0
M  V30 2723 C 263.569 -0.487485 1.5533 0
M  V30 2724 O 264.758 -0.300413 1.75954 0
M  V30 2725 C 261.858 -0.473259 3.35579 0
M  V30 2726 C 261.031 0.375249 4.35787 0
M  V30 2727 C 260.09 -0.415809 5.24555 0
M  V30 2728 O 259.116 0.175834 5.68928 0
M  V30 2729 N 260.318 -1.71607 5.54555 0
M  V30 2730 H 263.083 1.22725 2.73421 0
M  V30 2731 H 260.644 0.793037 1.41147 0
M  V30 2732 H 262.636 -1.00949 3.91907 0
M  V30 2733 H 261.206 -1.2205 2.87789 0
M  V30 2734 H 260.426 1.09279 3.7875 0
M  V30 2735 H 261.714 0.955399 4.99749 0
M  V30 2736 H 261.112 -2.2191 5.20358 0
M  V30 2737 H 259.669 -2.19887 6.1359 0
M  V30 2738 N 263.102 -1.41638 0.69111 0
M  V30 2739 C 264.33 -2.05628 0.22909 0
M  V30 2740 C 264.745 -1.51992 -1.11999 0
M  V30 2741 O 264.102 -0.666322 -1.69901 0
M  V30 2742 C 264.153 -3.61084 0.173283 0
M  V30 2743 O 263.874 -4.12735 1.46907 0
M  V30 2744 C 265.375 -4.42213 -0.310266 0
M  V30 2745 H 262.595 -0.662327 0.107534 0
M  V30 2746 H 265.139 -1.81489 0.942438 0
M  V30 2747 H 263.294 -3.84278 -0.490858 0
M  V30 2748 H 263.708 -5.06743 1.35322 0
M  V30 2749 H 265.182 -5.51194 -0.298196 0
M  V30 2750 H 265.659 -4.1799 -1.34838 0
M  V30 2751 H 266.265 -4.24074 0.322716 0
M  V30 2752 N 264.58 -0.43555 -1.51462 0
M  V30 2753 C 265.543 0.365137 -2.26273 0
M  V30 2754 C 266.543 0.951227 -1.29647 0
M  V30 2755 O 267.733 0.825958 -1.53374 0
M  V30 2756 C 264.865 1.51645 -3.05314 0
M  V30 2757 H 266.058 -0.290474 -2.9849 0
M  V30 2758 H 263.611 -0.188676 -1.55157 0
M  V30 2759 H 264.346 2.20816 -2.3751 0
M  V30 2760 H 264.131 1.10238 -3.76284 0
M  V30 2761 H 265.621 2.08218 -3.61987 0
M  V30 2762 N 266.058 1.56714 -0.166846 0
M  V30 2763 C 267.469 1.83378 0.350646 0
M  V30 2764 C 267.82 1.08646 1.63372 0
M  V30 2765 O 266.945 0.338058 2.13743 0
M  V30 2766 C 267.54 3.32643 0.642963 0
M  V30 2767 C 266.099 3.59818 1.10491 0
M  V30 2768 C 265.246 2.76954 0.138411 0
M  V30 2769 H 268.197 1.53803 -0.391193 0
M  V30 2770 H 268.218 3.49878 1.49551 0
M  V30 2771 H 267.73 3.87007 -0.291055 0
M  V30 2772 H 265.831 3.1086 2.05418 0
M  V30 2773 H 265.944 4.68178 1.01716 0
M  V30 2774 H 264.308 2.4666 0.634911 0
M  V30 2775 H 265.091 3.34097 -0.789549 0
M  V30 2776 N 267.536 -0.106894 1.57237 0
M  V30 2777 C 268.466 -1.13148 2.04254 0
M  V30 2778 C 269.447 -1.42476 0.929224 0
M  V30 2779 O 270.632 -1.52709 1.19973 0
M  V30 2780 C 267.762 -2.4545 2.45706 0
M  V30 2781 C 266.716 -2.30558 3.60592 0
M  V30 2782 C 266.042 -3.67931 3.87983 0
M  V30 2783 C 267.342 -1.75597 4.91897 0
M  V30 2784 H 269.036 -0.740374 2.90101 0
M  V30 2785 H 266.582 -0.354696 1.39563 0
M  V30 2786 H 268.535 -3.17389 2.77205 0
M  V30 2787 H 267.259 -2.86475 1.56843 0
M  V30 2788 H 265.918 -1.61067 3.29322 0
M  V30 2789 H 265.566 -4.06462 2.96306 0
M  V30 2790 H 265.266 -3.58817 4.65322 0
M  V30 2791 H 266.79 -4.41356 4.21945 0
M  V30 2792 H 268.204 -2.37364 5.21854 0
M  V30 2793 H 266.601 -1.77272 5.73319 0
M  V30 2794 H 267.671 -0.714451 4.79608 0
M  V30 2795 N 269.014 -1.53014 -0.377408 0
M  V30 2796 C 269.944 -1.81589 -1.46791 0
M  V30 2797 C 270.925 -0.668622 -1.56408 0
M  V30 2798 O 272.11 -0.917337 -1.71168 0
M  V30 2799 C 269.24 -1.99519 -2.8427 0
M  V30 2800 C 268.194 -3.15249 -2.89486 0
M  V30 2801 C 267.52 -3.18451 -4.29527 0
M  V30 2802 C 268.82 -4.54084 -2.58079 0
M  V30 2803 H 270.514 -2.7291 -1.23127 0
M  V30 2804 H 268.06 -1.31319 -0.590883 0
M  V30 2805 H 270.013 -2.18092 -3.60575 0
M  V30 2806 H 268.737 -1.04897 -3.09296 0
M  V30 2807 H 267.396 -2.96477 -2.15631 0
M  V30 2808 H 267.044 -2.2149 -4.5161 0
M  V30 2809 H 266.744 -3.962 -4.33934 0
M  V30 2810 H 268.268 -3.39193 -5.07721 0
M  V30 2811 H 269.682 -4.72899 -3.24098 0
M  V30 2812 H 268.079 -5.33987 -2.7382 0
M  V30 2813 H 269.149 -4.60006 -1.53372 0
M  V30 2814 N 270.492 0.636531 -1.44174 0
M  V30 2815 C 271.455 1.73063 -1.50273 0
M  V30 2816 C 272.455 1.56113 -0.385397 0
M  V30 2817 O 273.645 1.61707 -0.64781 0
M  V30 2818 C 270.777 3.12096 -1.37145 0
M  V30 2819 H 271.97 1.69031 -2.47727 0
M  V30 2820 H 269.523 0.849706 -1.31186 0
M  V30 2821 H 270.258 3.21728 -0.407636 0
M  V30 2822 H 270.043 3.25805 -2.18159 0
M  V30 2823 H 271.533 3.91846 -1.44382 0
M  V30 2824 N 271.97 1.30982 0.876444 0
M  V30 2825 C 273.217 1.20296 1.62896 0
M  V30 2826 C 273.545 -0.240395 1.93009 0
M  V30 2827 O 272.8 -1.18733 1.55567 0
M  V30 2828 C 273.099 1.98572 2.9716 0
M  V30 2829 C 272.765 3.48125 2.86566 0
M  V30 2830 C 271.427 3.88905 2.83383 0
M  V30 2831 C 273.779 4.43322 2.74071 0
M  V30 2832 C 271.107 5.2316 2.65556 0
M  V30 2833 C 273.459 5.77695 2.57781 0
M  V30 2834 C 272.123 6.17704 2.52979 0
M  V30 2835 H 271.393 0.440193 0.59608 0
M  V30 2836 H 274.04 1.62177 1.01837 0
M  V30 2837 H 272.345 1.49352 3.62217 0
M  V30 2838 H 274.042 1.8769 3.54364 0
M  V30 2839 H 270.632 3.15723 2.89856 0
M  V30 2840 H 274.816 4.12752 2.75589 0
M  V30 2841 H 270.072 5.53241 2.60259 0
M  V30 2842 H 274.246 6.51091 2.47089 0
M  V30 2843 H 271.873 7.21678 2.38924 0
M  V30 2844 N 273.449 -1.08991 1.13837 0
M  V30 2845 C 274.679 -1.84743 0.924859 0
M  V30 2846 C 275.087 -1.81629 -0.529874 0
M  V30 2847 O 274.43 -1.21397 -1.37872 0
M  V30 2848 C 274.492 -3.33568 1.34061 0
M  V30 2849 C 274.156 -3.60425 2.80968 0
M  V30 2850 C 275.153 -3.55771 3.79108 0
M  V30 2851 C 272.838 -3.88627 3.18236 0
M  V30 2852 C 274.832 -3.78939 5.12527 0
M  V30 2853 C 272.519 -4.11449 4.51833 0
M  V30 2854 C 273.517 -4.06598 5.48787 0
M  V30 2855 O 273.205 -4.28826 6.79973 0
M  V30 2856 H 272.937 -0.590258 0.329502 0
M  V30 2857 H 275.491 -1.38598 1.51591 0
M  V30 2858 H 273.721 -3.80442 0.692853 0
M  V30 2859 H 275.41 -3.90743 1.09886 0
M  V30 2860 H 276.176 -3.34005 3.51661 0
M  V30 2861 H 272.055 -3.91526 2.43369 0
M  V30 2862 H 275.599 -3.75068 5.88192 0
M  V30 2863 H 271.496 -4.32698 4.79002 0
M  V30 2864 H 272.264 -4.46264 6.86142 0
M  V30 2865 N 274.927 -0.932562 -1.27047 0
M  V30 2866 C 276.204 -0.49377 -1.89265 0
M  V30 2867 C 276.584 1.02833 -1.8436 0
M  V30 2868 O 275.932 1.88461 -1.29209 0
M  V30 2869 C 276.142 -1.04536 -3.32976 0
M  V30 2870 C 277.49 -1.10879 -4.09867 0
M  V30 2871 O 278.514 -0.995327 -3.42011 0
M  V30 2872 O 277.373 -1.28417 -5.31198 0
M  V30 2873 H 274.467 -0.159596 -0.811454 0
M  V30 2874 H 277.013 -1.02457 -1.3528 0
M  V30 2875 H 275.785 -2.08913 -3.30864 0
M  V30 2876 H 275.408 -0.496494 -3.94488 0
M  V30 2877 N 276.405 1.4127 -0.698611 0
M  V30 2878 C 277.63 2.06024 -0.238512 0
M  V30 2879 C 278.055 1.5224 1.10475 0
M  V30 2880 O 277.413 0.650623 1.69223 0
M  V30 2881 C 277.461 3.59988 -0.209952 0
M  V30 2882 O 276.565 4.04282 0.814235 0
M  V30 2883 H 275.906 0.653829 -0.115775 0
M  V30 2884 H 278.436 1.8098 -0.954326 0
M  V30 2885 H 278.446 4.07979 -0.0418436 0
M  V30 2886 H 277.121 3.98503 -1.1903 0
M  V30 2887 H 275.698 3.6779 0.615234 0
M  V30 2888 N 277.883 0.443576 1.51229 0
M  V30 2889 C 278.83 -0.364716 2.279 0
M  V30 2890 C 279.8 -1.0114 1.31757 0
M  V30 2891 O 280.985 -1.02912 1.60667 0
M  V30 2892 C 278.125 -1.45644 3.12861 0
M  V30 2893 C 277.238 -0.827269 4.24005 0
M  V30 2894 C 276.373 -1.89456 4.96266 0
M  V30 2895 C 275.412 -1.24416 5.99322 0
M  V30 2896 N 274.549 -2.25309 6.64966 0
M  V30 2897 H 279.389 0.295464 2.96532 0
M  V30 2898 H 276.926 0.157554 1.46254 0
M  V30 2899 H 278.884 -2.10076 3.6045 0
M  V30 2900 H 277.514 -2.08616 2.46331 0
M  V30 2901 H 276.566 -0.0710839 3.80334 0
M  V30 2902 H 277.878 -0.312481 4.9782 0
M  V30 2903 H 277.032 -2.61535 5.47434 0
M  V30 2904 H 275.771 -2.4431 4.22095 0
M  V30 2905 H 274.776 -0.508868 5.4744 0
M  V30 2906 H 276.001 -0.702882 6.75453 0
M  V30 2907 H 273.947 -2.79231 5.93604 0
M  V30 2908 H 273.864 -1.78739 7.34567 0
M  V30 2909 H 275.132 -2.96853 7.20763 0
M  V30 2910 N 279.361 -1.56624 0.175154 0
M  V30 2911 C 280.271 -2.21741 -0.766042 0
M  V30 2912 C 281.287 -1.21023 -1.25018 0
M  V30 2913 O 282.463 -1.53697 -1.3015 0
M  V30 2914 C 279.528 -2.84839 -1.97655 0
M  V30 2915 C 278.589 -4.00769 -1.53892 0
M  V30 2916 C 277.822 -4.60849 -2.69173 0
M  V30 2917 O 278.045 -4.19823 -3.86141 0
M  V30 2918 O 276.979 -5.50655 -2.43028 0
M  V30 2919 H 280.805 -3.02738 -0.241585 0
M  V30 2920 H 278.39 -1.49305 -0.053222 0
M  V30 2921 H 280.272 -3.24834 -2.68442 0
M  V30 2922 H 278.947 -2.06836 -2.48999 0
M  V30 2923 H 277.854 -3.65436 -0.80044 0
M  V30 2924 H 279.187 -4.80376 -1.07236 0
M  V30 2925 N 280.839 0.0985539 -1.57292 0
M  V30 2926 C 282.085 0.803867 -1.86188 0
M  V30 2927 C 282.418 1.78549 -0.763794 0
M  V30 2928 O 281.693 1.93153 0.22855 0
M  V30 2929 C 281.976 1.53568 -3.25713 0
M  V30 2930 C 281.829 0.572277 -4.46145 0
M  V30 2931 C 283.148 2.48708 -3.63087 0
M  V30 2932 H 280.267 0.290781 -0.677211 0
M  V30 2933 H 282.909 0.0675783 -1.8988 0
M  V30 2934 H 281.059 2.16332 -3.22696 0
M  V30 2935 H 282.731 -0.0480894 -4.61275 0
M  V30 2936 H 280.974 -0.114618 -4.33649 0
M  V30 2937 H 281.645 1.12139 -5.40489 0
M  V30 2938 H 284.121 1.96039 -3.67026 0
M  V30 2939 H 282.997 2.96932 -4.61652 0
M  V30 2940 H 283.258 3.32309 -2.91588 0
M  V30 2941 N 282.317 1.53212 0.369288 0
M  V30 2942 C 283.247 1.82365 1.45826 0
M  V30 2943 C 284.228 0.676907 1.56051 0
M  V30 2944 O 285.413 0.926401 1.70679 0
M  V30 2945 C 282.543 2.01023 2.83208 0
M  V30 2946 C 281.497 3.1678 2.8781 0
M  V30 2947 C 280.823 3.20724 4.27832 0
M  V30 2948 C 282.123 4.55447 2.55667 0
M  V30 2949 H 283.817 2.73559 1.21678 0
M  V30 2950 H 281.363 1.3163 0.583911 0
M  V30 2951 H 283.316 2.20001 3.59413 0
M  V30 2952 H 282.04 1.06536 3.08736 0
M  V30 2953 H 280.699 2.97616 2.14056 0
M  V30 2954 H 280.347 2.23882 4.50429 0
M  V30 2955 H 280.047 3.98496 4.31827 0
M  V30 2956 H 281.571 3.41881 5.05915 0
M  V30 2957 H 282.985 4.74611 3.21586 0
M  V30 2958 H 281.382 5.35432 2.70984 0
M  V30 2959 H 282.452 4.60812 1.5093 0
M  V30 2960 N 283.795 -0.628877 1.44509 0
M  V30 2961 C 285.041 -1.39045 1.47629 0
M  V30 2962 C 285.374 -1.93892 0.109343 0
M  V30 2963 O 284.649 -1.7379 -0.87334 0
M  V30 2964 C 284.932 -2.55408 2.53848 0
M  V30 2965 C 284.785 -2.05896 3.99909 0
M  V30 2966 C 286.104 -3.5759 2.56549 0
M  V30 2967 H 283.223 -0.504232 0.537512 0
M  V30 2968 H 285.865 -0.710854 1.76201 0
M  V30 2969 H 284.015 -3.13384 2.29615 0
M  V30 2970 H 285.687 -1.52734 4.35282 0
M  V30 2971 H 283.93 -1.37061 4.11578 0
M  V30 2972 H 284.601 -2.89681 4.69882 0
M  V30 2973 H 287.077 -3.09419 2.78207 0
M  V30 2974 H 285.953 -4.36527 3.32769 0
M  V30 2975 H 286.214 -4.11808 1.60832 0
M  V30 2976 N 285.273 -1.31445 -0.869486 0
M  V30 2977 C 286.221 -1.19067 -1.99814 0
M  V30 2978 C 287.215 -0.0988569 -1.69111 0
M  V30 2979 O 288.421 -0.260781 -1.78101 0
M  V30 2980 H 284.796 -0.368677 -0.655425 0
M  V30 2981 H 286.767 -2.14555 -2.07385 0
M  V30 2982 C 285.516 -0.915323 -3.35436 0
M  V30 2983 H 284.839 -1.74759 -3.59582 0
M  V30 2984 H 286.279 -0.868895 -4.15001 0
M  V30 2985 C 284.738 0.381928 -3.34728 0
M  V30 2986 O 285.268 1.39857 -3.76567 0
M  V30 2987 N 283.474 0.398633 -2.87853 0
M  V30 2988 H 283.021 -0.429186 -2.54 0
M  V30 2989 H 282.979 1.26651 -2.87762 0
M  V30 2990 N 286.751 1.08385 -1.14413 0
M  V30 2991 C 288 1.80153 -0.907076 0
M  V30 2992 C 288.313 1.87176 0.567851 0
M  V30 2993 O 289.519 2.55359 0.922172 0
M  V30 2994 C 287.975 3.23687 -1.57336 0
M  V30 2995 C 287.583 3.24897 -3.08457 0
M  V30 2996 C 289.327 4.00136 -1.41744 0
M  V30 2997 C 287.234 4.6302 -3.67921 0
M  V30 2998 H 286.164 0.675139 -0.335714 0
M  V30 2999 H 288.815 1.21733 -1.37307 0
M  V30 3000 H 287.197 3.82234 -1.03505 0
M  V30 3001 H 288.371 2.76055 -3.68958 0
M  V30 3002 H 286.686 2.61943 -3.2369 0
M  V30 3003 H 289.283 5.02201 -1.83572 0
M  V30 3004 H 289.626 4.14709 -0.363576 0
M  V30 3005 H 290.159 3.48058 -1.92614 0
M  V30 3006 H 286.898 4.5365 -4.73161 0
M  V30 3007 H 286.418 5.12143 -3.12201 0
M  V30 3008 H 288.097 5.31994 -3.68227 0
M  V30 3009 N 288.23 0.939286 1.26551 0
M  V30 3010 C 289.178 0.43815 2.28436 0
M  V30 3011 C 290.172 -0.483587 1.62351 0
M  V30 3012 O 291.378 -0.362009 1.76322 0
M  V30 3013 H 287.753 0.123149 0.741848 0
M  V30 3014 H 289.724 1.31002 2.68106 0
M  V30 3015 C 288.473 -0.283052 3.46546 0
M  V30 3016 H 287.796 0.417043 3.97619 0
M  V30 3017 H 289.236 -0.597948 4.19763 0
M  V30 3018 C 287.695 -1.50018 3.01656 0
M  V30 3019 O 288.225 -2.59855 3.0633 0
M  V30 3020 N 286.431 -1.35608 2.57019 0
M  V30 3021 H 285.978 -0.46244 2.53415 0
M  V30 3022 H 285.936 -2.17165 2.27347 0
M  V30 3023 N 289.708 -1.40897 0.706093 0
M  V30 3024 C 290.956 -2.00657 0.241054 0
M  V30 3025 C 291.277 -1.56241 -1.16678 0
M  V30 3026 O 290.547 -0.79765 -1.78926 0
M  V30 3027 H 289.127 -0.742018 0.0861308 0
M  V30 3028 H 291.789 -1.72372 0.909604 0
M  V30 3029 H 290.885 -3.10958 0.266705 0
M  V30 3030 N 291.186 -0.45159 -1.50991 0
M  V30 3031 C 292.118 0.388634 -2.25881 0
M  V30 3032 C 293.131 0.974041 -1.30446 0
M  V30 3033 O 294.32 0.865758 -1.56099 0
M  V30 3034 C 291.42 1.5571 -3.01011 0
M  V30 3035 C 290.593 1.08801 -4.23652 0
M  V30 3036 C 289.652 2.12825 -4.8124 0
M  V30 3037 O 288.678 1.71678 -5.42693 0
M  V30 3038 N 289.88 3.45453 -4.66522 0
M  V30 3039 H 292.645 -0.25329 -2.98628 0
M  V30 3040 H 290.206 -0.281268 -1.59438 0
M  V30 3041 H 292.198 2.24952 -3.3642 0
M  V30 3042 H 290.768 2.10409 -2.31186 0
M  V30 3043 H 289.988 0.22215 -3.93574 0
M  V30 3044 H 291.276 0.752213 -5.03209 0
M  V30 3045 H 290.674 3.81605 -4.17605 0
M  V30 3046 H 289.231 4.10549 -5.06254 0
M  V30 3047 N 292.664 1.56529 -0.183458 0
M  V30 3048 C 293.611 2.18546 0.742055 0
M  V30 3049 C 294.581 1.12912 1.2182 0
M  V30 3050 O 295.766 1.41115 1.28418 0
M  V30 3051 C 292.906 2.83977 1.96089 0
M  V30 3052 C 292.019 4.04105 1.52719 0
M  V30 3053 C 291.154 4.57427 2.70063 0
M  V30 3054 C 290.193 5.69938 2.23243 0
M  V30 3055 N 289.33 6.17717 3.33722 0
M  V30 3056 H 294.17 2.97284 0.206432 0
M  V30 3057 H 291.707 1.46823 0.0901571 0
M  V30 3058 H 293.665 3.20077 2.67594 0
M  V30 3059 H 292.295 2.07822 2.47002 0
M  V30 3060 H 291.347 3.73745 0.708436 0
M  V30 3061 H 292.659 4.85513 1.1436 0
M  V30 3062 H 291.813 4.95772 3.49708 0
M  V30 3063 H 290.552 3.75101 3.11689 0
M  V30 3064 H 289.557 5.31133 1.42048 0
M  V30 3065 H 290.782 6.54073 1.82661 0
M  V30 3066 H 288.728 5.38317 3.74902 0
M  V30 3067 H 288.645 6.94146 2.99495 0
M  V30 3068 H 289.913 6.60713 4.13616 0
M  V30 3069 N 294.142 -0.090211 1.57342 0
M  V30 3070 C 295.419 -0.824761 1.77361 0
M  V30 3071 C 295.799 -1.96698 0.76637 0
M  V30 3072 O 295.147 -2.27586 -0.204179 0
M  V30 3073 C 295.357 -1.31481 3.23286 0
M  V30 3074 C 296.705 -1.75563 3.86604 0
M  V30 3075 O 297.729 -1.41093 3.27065 0
M  V30 3076 O 296.588 -2.39317 4.91314 0
M  V30 3077 H 293.682 -0.393776 0.727234 0
M  V30 3078 H 296.228 -0.0717138 1.69548 0
M  V30 3079 H 295 -0.496671 3.88135 0
M  V30 3080 H 294.623 -2.12973 3.35751 0
M  V30 3081 N 295.62 -1.53406 -0.361157 0
M  V30 3082 C 296.869 -1.69022 -1.10066 0
M  V30 3083 C 297.182 -0.450838 -1.90333 0
M  V30 3084 O 298.388 -0.487617 -2.67085 0
M  V30 3085 C 296.844 -2.98812 -2.00598 0
M  V30 3086 C 296.452 -4.30027 -1.25621 0
M  V30 3087 C 298.196 -3.23795 -2.74513 0
M  V30 3088 C 296.103 -5.50903 -2.1508 0
M  V30 3089 H 295.033 -0.629776 -0.414606 0
M  V30 3090 H 297.684 -1.79907 -0.361348 0
M  V30 3091 H 296.066 -2.8174 -2.78278 0
M  V30 3092 H 297.24 -4.57745 -0.529739 0
M  V30 3093 H 295.555 -4.11522 -0.635496 0
M  V30 3094 H 298.152 -4.11289 -3.41681 0
M  V30 3095 H 298.495 -2.40045 -3.40123 0
M  V30 3096 H 299.028 -3.41561 -2.03914 0
M  V30 3097 H 295.767 -6.37143 -1.54041 0
M  V30 3098 H 295.287 -5.27459 -2.85565 0
M  V30 3099 H 296.966 -5.85865 -2.74538 0
M  V30 3100 N 297.098 0.621204 -1.44841 0
M  V30 3101 C 298.045 1.73267 -1.5247 0
M  V30 3102 C 299.015 1.6189 -0.371611 0
M  V30 3103 O 300.2 1.81668 -0.58321 0
M  V30 3104 C 297.34 3.11545 -1.48438 0
M  V30 3105 C 296.453 3.33827 -2.74196 0
M  V30 3106 C 295.588 4.62133 -2.61929 0
M  V30 3107 C 294.627 4.77627 -3.82804 0
M  V30 3108 N 293.764 5.97219 -3.69153 0
M  V30 3109 H 298.604 1.66082 -2.47428 0
M  V30 3110 H 296.141 0.810026 -1.22788 0
M  V30 3111 H 298.099 3.91528 -1.4409 0
M  V30 3112 H 296.729 3.1772 -0.570402 0
M  V30 3113 H 295.781 2.47715 -2.88689 0
M  V30 3114 H 297.093 3.41153 -3.6389 0
M  V30 3115 H 296.247 5.50291 -2.5547 0
M  V30 3116 H 294.986 4.57182 -1.69811 0
M  V30 3117 H 293.991 3.87896 -3.89637 0
M  V30 3118 H 295.216 4.84385 -4.75971 0
M  V30 3119 H 293.162 5.93339 -2.79794 0
M  V30 3120 H 293.079 6.05644 -4.52472 0
M  V30 3121 H 294.347 6.87912 -3.66603 0
M  V30 3122 N 298.576 1.31904 0.862503 0
M  V30 3123 C 299.853 1.12644 1.59908 0
M  V30 3124 C 300.233 -0.316104 2.0872 0
M  V30 3125 O 299.581 -1.31145 1.87118 0
M  V30 3126 C 299.791 2.1472 2.7513 0
M  V30 3127 C 301.139 2.47637 3.44907 0
M  V30 3128 O 302.163 2.13205 2.85346 0
M  V30 3129 O 301.022 3.06632 4.52371 0
M  V30 3130 H 298.116 0.43416 0.703871 0
M  V30 3131 H 300.662 1.43408 0.907314 0
M  V30 3132 H 299.434 3.1172 2.3653 0
M  V30 3133 H 299.057 1.84905 3.51989 0
M  V30 3134 N 300.054 -1.07777 1.14986 0
M  V30 3135 C 301.3 -1.80557 0.923422 0
M  V30 3136 C 301.633 -1.86298 -0.548337 0
M  V30 3137 O 300.908 -1.34354 -1.40639 0
M  V30 3138 C 301.191 -3.25839 1.53299 0
M  V30 3139 C 301.044 -3.28269 3.07505 0
M  V30 3140 C 302.363 -4.22991 1.21518 0
M  V30 3141 H 299.482 -0.655493 0.336894 0
M  V30 3142 H 302.124 -1.26144 1.42083 0
M  V30 3143 H 300.274 -3.72306 1.10999 0
M  V30 3144 H 301.946 -2.90079 3.58681 0
M  V30 3145 H 300.189 -2.67355 3.4162 0
M  V30 3146 H 300.86 -4.30691 3.45266 0
M  V30 3147 H 303.336 -3.84894 1.581 0
M  V30 3148 H 302.212 -5.22945 1.66793 0
M  V30 3149 H 302.473 -4.41904 0.131505 0
M  V30 3150 N 301.532 -0.945985 -1.26051 0
M  V30 3151 C 302.779 -0.596118 -1.93527 0
M  V30 3152 C 303.107 0.865559 -1.74179 0
M  V30 3153 O 302.362 1.63524 -1.0751 0
M  V30 3154 C 302.661 -0.890475 -3.46129 0
M  V30 3155 C 302.327 -2.3368 -3.85622 0
M  V30 3156 C 300.989 -2.73216 -3.96114 0
M  V30 3157 C 303.341 -3.27648 -4.05334 0
M  V30 3158 C 300.669 -4.05806 -4.2372 0
M  V30 3159 C 303.021 -4.59841 -4.3443 0
M  V30 3160 C 301.685 -4.99185 -4.43137 0
M  V30 3161 H 300.955 -0.218135 -0.708165 0
M  V30 3162 H 303.602 -1.1934 -1.49768 0
M  V30 3163 H 301.907 -0.210711 -3.91233 0
M  V30 3164 H 303.604 -0.598478 -3.96509 0
M  V30 3165 H 300.194 -2.02015 -3.78005 0
M  V30 3166 H 304.378 -2.98298 -3.96651 0
M  V30 3167 H 299.634 -4.35945 -4.28675 0
M  V30 3168 H 303.808 -5.32641 -4.48628 0
M  V30 3169 H 301.435 -6.01952 -4.64282 0
M  V30 3170 N 303.011 1.40521 -0.713556 0
M  V30 3171 C 303.958 2.30723 -0.059684 0
M  V30 3172 C 304.928 1.48079 0.752448 0
M  V30 3173 O 306.113 1.76823 0.71681 0
M  V30 3174 C 303.253 3.34274 0.857594 0
M  V30 3175 C 302.366 4.31986 0.0351536 0
M  V30 3176 C 301.501 5.22605 0.951724 0
M  V30 3177 C 300.54 6.11976 0.123253 0
M  V30 3178 N 299.677 6.9502 0.99459 0
M  V30 3179 H 304.517 2.86074 -0.834596 0
M  V30 3180 H 302.054 1.40879 -0.42326 0
M  V30 3181 H 304.012 3.92879 1.40364 0
M  V30 3182 H 302.642 2.8043 1.59871 0
M  V30 3183 H 301.694 3.7518 -0.628052 0
M  V30 3184 H 303.006 4.95101 -0.606347 0
M  V30 3185 H 302.16 5.86131 1.56638 0
M  V30 3186 H 300.899 4.59759 1.62705 0
M  V30 3187 H 299.904 5.47482 -0.50435 0
M  V30 3188 H 301.129 6.76881 -0.548539 0
M  V30 3189 H 299.075 6.34764 1.6556 0
M  V30 3190 H 298.992 7.54892 0.40908 0
M  V30 3191 H 300.26 7.62997 1.59549 0
M  V30 3192 N 304.489 0.459591 1.5075 0
M  V30 3193 C 305.766 -0.160371 1.94941 0
M  V30 3194 C 306.146 -1.58048 1.39943 0
M  V30 3195 O 305.494 -2.206 0.595629 0
M  V30 3196 C 305.704 -0.115432 3.48809 0
M  V30 3197 C 307.052 -0.310026 4.23467 0
M  V30 3198 O 308.076 -0.192543 3.55679 0
M  V30 3199 O 306.935 -0.546031 5.43765 0
M  V30 3200 H 304.029 -0.117925 0.818549 0
M  V30 3201 H 306.575 0.519169 1.61563 0
M  V30 3202 H 305.347 0.87652 3.81357 0
M  V30 3203 H 304.97 -0.836928 3.88692 0
M  V30 3204 N 305.967 -1.56429 0.191757 0
M  V30 3205 C 306.897 -2.21937 -0.725696 0
M  V30 3206 C 307.878 -1.1814 -1.2238 0
M  V30 3207 O 309.063 -1.46636 -1.27325 0
M  V30 3208 C 306.193 -2.87611 -1.94672 0
M  V30 3209 C 305.147 -3.97623 -1.58366 0
M  V30 3210 C 304.473 -4.50446 -2.88102 0
M  V30 3211 C 305.773 -5.16197 -0.796133 0
M  V30 3212 H 307.467 -2.98861 -0.179606 0
M  V30 3213 H 305.013 -1.43749 -0.0849464 0
M  V30 3214 H 306.966 -3.3212 -2.59373 0
M  V30 3215 H 305.69 -2.08087 -2.51728 0
M  V30 3216 H 304.349 -3.53801 -0.960247 0
M  V30 3217 H 303.997 -3.67688 -3.43241 0
M  V30 3218 H 303.697 -5.24675 -2.64556 0
M  V30 3219 H 305.221 -4.97654 -3.53798 0
M  V30 3220 H 306.635 -5.57271 -1.34618 0
M  V30 3221 H 305.032 -5.96471 -0.658928 0
M  V30 3222 H 306.102 -4.84473 0.203478 0
M  V30 3223 N 307.445 0.0818655 -1.57387 0
M  V30 3224 C 308.722 0.815343 -1.77796 0
M  V30 3225 C 309.102 1.96289 -0.77679 0
M  V30 3226 O 308.45 2.27691 0.192106 0
M  V30 3227 C 308.66 1.29765 -3.23978 0
M  V30 3228 C 310.008 1.7351 -3.8753 0
M  V30 3229 O 311.032 1.39356 -3.27808 0
M  V30 3230 O 309.891 2.36708 -4.92576 0
M  V30 3231 H 306.985 0.389914 -0.729312 0
M  V30 3232 H 309.531 0.0627213 -1.69584 0
M  V30 3233 H 308.303 0.47608 -3.88393 0
M  V30 3234 H 307.926 2.11189 -3.36875 0
M  V30 3235 N 308.923 1.53595 0.353017 0
M  V30 3236 C 310.169 1.70638 1.09593 0
M  V30 3237 C 310.502 0.463286 1.88593 0
M  V30 3238 O 309.777 -0.539597 1.86865 0
M  V30 3239 C 310.06 2.96406 2.04489 0
M  V30 3240 C 309.913 4.30901 1.29014 0
M  V30 3241 C 311.232 3.17812 3.0444 0
M  V30 3242 H 308.351 0.620913 0.397034 0
M  V30 3243 H 310.993 1.86254 0.375446 0
M  V30 3244 H 309.143 2.83223 2.65927 0
M  V30 3245 H 310.815 4.55917 0.702638 0
M  V30 3246 H 309.058 4.29741 0.592071 0
M  V30 3247 H 309.729 5.1506 1.98537 0
M  V30 3248 H 312.205 3.30263 2.53112 0
M  V30 3249 H 311.081 4.07223 3.6805 0
M  V30 3250 H 311.342 2.33669 3.75301 0
M  V30 3251 N 310.401 -0.613514 1.45168 0
M  V30 3252 C 311.65 -1.36874 1.4815 0
M  V30 3253 C 311.963 -1.952 0.124982 0
M  V30 3254 O 313.169 -2.71481 0.0324176 0
M  V30 3255 C 311.625 -2.47905 2.60904 0
M  V30 3256 C 311.233 -1.96016 4.02842 0
M  V30 3257 C 312.977 -3.24965 2.73126 0
M  V30 3258 C 310.884 -3.04494 5.06988 0
M  V30 3259 H 309.814 -0.514428 0.551253 0
M  V30 3260 H 312.465 -0.658182 1.7129 0
M  V30 3261 H 310.847 -3.21618 2.31037 0
M  V30 3262 H 312.021 -1.29051 4.4236 0
M  V30 3263 H 310.336 -1.31719 3.95018 0
M  V30 3264 H 312.933 -4.05865 3.48106 0
M  V30 3265 H 313.276 -3.75588 1.79553 0
M  V30 3266 H 313.809 -2.5835 3.0249 0
M  V30 3267 H 310.548 -2.58795 6.0225 0
M  V30 3268 H 310.068 -3.70044 4.72046 0
M  V30 3269 H 311.747 -3.68976 5.31475 0
M  V30 3270 N 311.879 -1.3236 -0.855495 0
M  V30 3271 C 312.809 -1.23833 -1.97958 0
M  V30 3272 C 313.79 -0.122361 -1.69659 0
M  V30 3273 O 314.975 -0.30939 -1.9172 0
M  V30 3274 C 312.105 -0.959772 -3.33775 0
M  V30 3275 C 311.059 -2.03689 -3.76424 0
M  V30 3276 C 310.385 -1.61075 -5.09862 0
M  V30 3277 C 311.685 -3.4518 -3.9198 0
M  V30 3278 H 313.379 -2.1788 -2.0535 0
M  V30 3279 H 310.925 -1.04891 -0.986605 0
M  V30 3280 H 312.878 -0.886678 -4.11966 0
M  V30 3281 H 311.602 0.0163404 -3.26596 0
M  V30 3282 H 310.261 -2.10012 -3.00484 0
M  V30 3283 H 309.909 -0.622107 -4.99138 0
M  V30 3284 H 309.609 -2.33143 -5.39368 0
M  V30 3285 H 311.133 -1.55201 -5.90546 0
M  V30 3286 H 312.547 -3.4145 -4.60526 0
M  V30 3287 H 310.944 -4.1559 -4.32903 0
M  V30 3288 H 312.014 -3.84903 -2.94919 0
M  V30 3289 N 313.357 1.07166 -1.15556 0
M  V30 3290 C 314.289 2.14341 -0.811815 0
M  V30 3291 C 315.302 1.61835 0.177015 0
M  V30 3292 O 316.491 1.78439 -0.0464996 0
M  V30 3293 C 313.591 3.38387 -0.186481 0
M  V30 3294 C 312.764 4.20238 -1.21321 0
M  V30 3295 C 311.823 5.2266 -0.609302 0
M  V30 3296 O 310.849 5.54719 -1.27576 0
M  V30 3297 N 312.051 5.77306 0.608099 0
M  V30 3298 H 314.816 2.44431 -1.73417 0
M  V30 3299 H 312.377 1.23089 -1.0517 0
M  V30 3300 H 314.369 4.04044 0.230339 0
M  V30 3301 H 312.939 3.05994 0.639249 0
M  V30 3302 H 312.159 3.50369 -1.80652 0
M  V30 3303 H 313.447 4.71736 -1.90638 0
M  V30 3304 H 312.845 5.53513 1.1679 0
M  V30 3305 H 311.402 6.44583 0.96725 0
M  V30 3306 N 314.835 0.952656 1.25548 0
M  V30 3307 C 316.083 0.605176 1.92826 0
M  V30 3308 C 316.404 -0.860261 1.74999 0
M  V30 3309 O 315.674 -1.6125 1.11244 0
M  V30 3310 H 314.254 0.220832 0.713612 0
M  V30 3311 H 316.916 1.21047 1.52754 0
M  V30 3312 H 316.012 0.832798 3.00784 0
M  V30 3313 N 316.313 -1.40141 0.720998 0
M  V30 3314 C 317.261 -2.3252 0.0608547 0
M  V30 3315 C 318.255 -1.52326 -0.741152 0
M  V30 3316 O 319.461 -1.68089 -0.643911 0
M  V30 3317 H 315.836 -0.751999 0.000876664 0
M  V30 3318 H 317.807 -2.8584 0.856614 0
M  V30 3319 C 316.556 -3.37331 -0.842809 0
M  V30 3320 H 315.879 -3.99108 -0.235084 0
M  V30 3321 H 317.319 -4.04452 -1.27257 0
M  V30 3322 C 315.778 -2.73246 -1.97074 0
M  V30 3323 O 316.308 -2.59998 -3.06209 0
M  V30 3324 N 314.514 -2.31547 -1.75597 0
M  V30 3325 H 314.061 -2.42522 -0.868368 0
M  V30 3326 H 314.019 -1.89007 -2.51244 0
M  V30 3327 N 317.792 -0.46758 -1.50504 0
M  V30 3328 C 319.04 0.0884469 -2.01906 0
M  V30 3329 C 319.361 1.40532 -1.35188 0
M  V30 3330 O 318.631 1.89515 -0.496079 0
M  V30 3331 H 317.211 0.0356765 -0.746148 0
M  V30 3332 H 319.873 -0.6172 -1.84869 0
M  V30 3333 H 318.969 0.2425 -3.11156 0
M  V30 3334 N 319.27 1.56325 -0.20005 0
M  V30 3335 C 320.202 2.16555 0.750771 0
M  V30 3336 C 321.215 1.12871 1.1732 0
M  V30 3337 O 322.404 1.39943 1.10807 0
M  V30 3338 C 319.504 2.71684 2.02586 0
M  V30 3339 C 318.677 4.00321 1.76244 0
M  V30 3340 C 317.736 4.40227 2.88248 0
M  V30 3341 O 316.762 5.07552 2.57642 0
M  V30 3342 N 317.964 4.04138 4.16717 0
M  V30 3343 H 320.729 2.98772 0.235685 0
M  V30 3344 H 318.29 1.6189 -0.0182594 0
M  V30 3345 H 320.282 2.95363 2.76664 0
M  V30 3346 H 318.852 1.93893 2.45202 0
M  V30 3347 H 318.072 3.84723 0.85919 0
M  V30 3348 H 319.36 4.84279 1.56048 0
M  V30 3349 H 318.758 3.49993 4.44434 0
M  V30 3350 H 317.315 4.32756 4.87407 0
M  V30 3351 O 320.787 0.0630897 1.61377 0
M  V30 3352 H 321.478 -0.544463 1.85891 0
M  V30 END ATOM
M  V30 BEGIN BOND
M  V30 END BOND
M  V30 END CTAB
M  END
$$$$
