drugbank_target|P84147 Phospholipase D (DB07898)
 OpenBabel12092120473D

  0  0  0     0  0            999 V3000
M  V30 BEGIN CTAB
M  V30 COUNTS 7535 7615 0 0 0
M  V30 BEGIN ATOM
M  V30 1 H -0.908 1.98254 -0.117106 0
M  V30 2 N 0 1.576 0 0
M  V30 3 C 0.963 2.07369 0.976253 0
M  V30 4 C 1.963 0.98309 1.27248 0
M  V30 5 O 3.153 1.24574 1.21766 0
M  V30 6 C 0.285 2.51514 2.30116 0
M  V30 7 H 1.478 2.94892 0.545759 0
M  V30 8 H -0.969 1.54328 0.247471 0
M  V30 9 H -0.234 1.67234 2.77855 0
M  V30 10 H -0.449 3.31163 2.09937 0
M  V30 11 H 1.041 2.90345 3.00149 0
M  V30 12 N 1.4781 -0.272755 1.55222 0
M  V30 13 C 2.7551 -1.02562 1.66555 0
M  V30 14 C 3.1351 -2.04282 0.532189 0
M  V30 15 O 2.4831 -2.23662 -0.467717 0
M  V30 16 C 2.6931 -1.6822 3.05782 0
M  V30 17 C 4.0411 -2.19373 3.63539 0
M  V30 18 O 5.0651 -1.78206 3.08417 0
M  V30 19 O 3.9241 -2.94883 4.60115 0
M  V30 20 H 1.0181 -0.475755 0.676451 0
M  V30 21 H 3.5641 -0.268593 1.67561 0
M  V30 22 H 2.3361 -0.945112 3.79715 0
M  V30 23 H 1.9591 -2.50609 3.08676 0
M  V30 24 N 2.9562 -1.48159 -0.537278 0
M  V30 25 C 4.1812 -1.59707 -1.32319 0
M  V30 26 C 4.6062 -0.254859 -1.86365 0
M  V30 27 O 3.9642 0.772378 -1.64024 0
M  V30 28 C 4.0122 -2.6412 -2.45505 0
M  V30 29 O 3.1162 -2.20774 -3.48328 0
M  V30 30 H 2.4572 -0.535791 -0.392204 0
M  V30 31 H 4.9872 -1.94092 -0.647268 0
M  V30 32 H 4.9972 -2.85166 -2.91795 0
M  V30 33 H 3.6722 -3.61567 -2.05528 0
M  V30 34 H 2.2492 -2.09911 -3.08207 0
M  V30 35 N 4.4343 0.785586 -1.36625 0
M  V30 36 C 5.3973 1.87999 -1.31107 0
M  V30 37 C 6.3973 1.59316 -0.217959 0
M  V30 38 O 7.5873 1.67656 -0.472977 0
M  V30 39 C 4.7193 3.24861 -1.03334 0
M  V30 40 H 5.9123 1.94307 -2.2844 0
M  V30 41 H 3.4653 0.983813 -1.21453 0
M  V30 42 H 4.2003 3.24235 -0.0647432 0
M  V30 43 H 3.9853 3.4707 -1.82441 0
M  V30 44 H 5.4753 4.04929 -1.02088 0
M  V30 45 N 5.9124 1.20967 1.01018 0
M  V30 46 C 7.1404 1.04956 1.78303 0
M  V30 47 C 7.5554 -0.400915 1.84494 0
M  V30 48 O 6.9124 -1.27826 1.30257 0
M  V30 49 C 6.9634 1.63403 3.22462 0
M  V30 50 O 6.6844 3.02775 3.16637 0
M  V30 51 C 8.1854 1.52432 4.16268 0
M  V30 52 H 5.4054 0.368858 0.560522 0
M  V30 53 H 7.9494 1.60193 1.27116 0
M  V30 54 H 6.1044 1.1227 3.70775 0
M  V30 55 H 6.5184 3.30626 4.07169 0
M  V30 56 H 7.9924 1.98078 5.15237 0
M  V30 57 H 8.4694 0.477875 4.36592 0
M  V30 58 H 9.0754 2.02787 3.73841 0
M  V30 59 N 7.3905 -1.2043 1.01659 0
M  V30 60 C 8.8015 -1.71517 0.737482 0
M  V30 61 C 9.1525 -1.81547 -0.743973 0
M  V30 62 O 8.2775 -1.47803 -1.58061 0
M  V30 63 C 8.8725 -3.11515 1.33206 0
M  V30 64 C 7.4315 -3.59912 1.10183 0
M  V30 65 C 6.5785 -2.37116 1.43776 0
M  V30 66 H 9.5295 -1.05444 1.18606 0
M  V30 67 H 9.5505 -3.73575 0.722636 0
M  V30 68 H 9.0625 -3.04182 2.41028 0
M  V30 69 H 7.1635 -3.72577 0.0412756 0
M  V30 70 H 7.2765 -4.44731 1.78188 0
M  V30 71 H 5.6405 -2.39857 0.856778 0
M  V30 72 H 6.4235 -2.32424 2.52654 0
M  V30 73 N 8.8686 -0.792821 -1.36206 0
M  V30 74 C 9.8186 -0.166598 -2.27391 0
M  V30 75 C 10.8026 0.651479 -1.47121 0
M  V30 76 O 11.9946 0.510994 -1.69463 0
M  V30 77 C 9.1236 0.695033 -3.36191 0
M  V30 78 C 8.2096 -0.132019 -4.23894 0
M  V30 79 N 8.6006 -1.18822 -4.91645 0
M  V30 80 C 6.8986 0.0885952 -4.45912 0
M  V30 81 C 7.5996 -1.69198 -5.56549 0
M  V30 82 N 6.5756 -1.00065 -5.34311 0
M  V30 83 H 10.3776 -0.974947 -2.77258 0
M  V30 84 H 7.8916 -0.632616 -1.49572 0
M  V30 85 H 9.8886 1.1596 -4.00448 0
M  V30 86 H 8.5486 1.50189 -2.87877 0
M  V30 87 H 9.5596 -1.57069 -4.93507 0
M  V30 88 H 6.2366 0.865688 -4.08426 0
M  V30 89 H 7.6266 -2.57395 -6.20643 0
M  V30 90 N 10.3467 1.47872 -0.545128 0
M  V30 91 C 11.2767 2.32661 0.197793 0
M  V30 92 C 12.2577 1.43041 0.920504 0
M  V30 93 O 13.4427 1.71912 0.90333 0
M  V30 94 C 10.5727 3.24569 1.23582 0
M  V30 95 C 9.5267 4.23333 0.630323 0
M  V30 96 C 8.8527 5.0448 1.77211 0
M  V30 97 C 10.1527 5.20704 -0.407974 0
M  V30 98 H 11.8467 2.95024 -0.510045 0
M  V30 99 H 9.3927 1.4187 -0.246731 0
M  V30 100 H 11.3457 3.8272 1.76362 0
M  V30 101 H 10.0697 2.60236 1.97344 0
M  V30 102 H 8.7287 3.6639 0.123922 0
M  V30 103 H 8.3767 4.36561 2.49847 0
M  V30 104 H 8.0767 5.71339 1.37281 0
M  V30 105 H 9.6007 5.65487 2.3034 0
M  V30 106 H 11.0147 5.7329 0.033305 0
M  V30 107 H 9.4117 5.95699 -0.725486 0
M  V30 108 H 10.4817 4.66917 -1.30828 0
M  V30 109 N 11.8248 0.280983 1.55075 0
M  V30 110 C 13.1018 -0.386207 1.91749 0
M  V30 111 C 13.4818 -1.73264 1.20594 0
M  V30 112 O 12.8298 -2.26034 0.334784 0
M  V30 113 C 13.0398 -0.520687 3.45094 0
M  V30 114 C 14.3878 -0.800865 4.16979 0
M  V30 115 O 15.4118 -0.605271 3.5102 0
M  V30 116 O 14.2708 -1.1753 5.33712 0
M  V30 117 H 11.3648 -0.212408 0.799257 0
M  V30 118 H 13.9108 0.327568 1.66509 0
M  V30 119 H 12.6828 0.426633 3.88967 0
M  V30 120 H 12.3058 -1.2837 3.76307 0
M  V30 121 N 13.3029 -1.57598 0.00835791 0
M  V30 122 C 14.2659 -2.07884 -0.965242 0
M  V30 123 C 15.2659 -0.989825 -1.26725 0
M  V30 124 O 16.4559 -1.25218 -1.21104 0
M  V30 125 C 13.5879 -2.52731 -2.28779 0
M  V30 126 H 14.7809 -2.95178 -0.530112 0
M  V30 127 H 12.3339 -1.54458 -0.239283 0
M  V30 128 H 13.0689 -1.68705 -2.76964 0
M  V30 129 H 12.8539 -3.32272 -2.08177 0
M  V30 130 H 14.3439 -2.91933 -2.98605 0
M  V30 131 N 14.781 0.264519 -1.55364 0
M  V30 132 C 16.027 0.99646 -1.76631 0
M  V30 133 C 16.36 1.85632 -0.570478 0
M  V30 134 O 15.635 1.89647 0.43175 0
M  V30 135 C 15.918 1.87187 -3.07625 0
M  V30 136 C 15.771 1.04138 -4.37579 0
M  V30 137 C 17.09 2.85749 -3.34717 0
M  V30 138 H 14.209 0.360841 -0.642622 0
M  V30 139 H 16.851 0.268218 -1.88097 0
M  V30 140 H 15.001 2.49279 -2.9798 0
M  V30 141 H 16.673 0.440517 -4.59192 0
M  V30 142 H 14.916 0.345115 -4.32425 0
M  V30 143 H 15.587 1.68729 -5.2558 0
M  V30 144 H 18.063 2.33793 -3.4421 0
M  V30 145 H 16.939 3.44136 -4.27623 0
M  V30 146 H 17.2 3.61311 -2.54768 0
M  V30 147 N 16.2591 1.48442 0.529413 0
M  V30 148 C 17.1691 1.6569 1.66084 0
M  V30 149 C 18.1851 0.539432 1.65427 0
M  V30 150 O 19.3611 0.810572 1.84368 0
M  V30 151 C 16.4261 1.69315 3.02545 0
M  V30 152 C 15.4871 2.92694 3.14052 0
M  V30 153 C 14.7201 2.96137 4.44003 0
M  V30 154 O 14.9431 2.07973 5.31134 0
M  V30 155 O 13.8771 3.88312 4.59888 0
M  V30 156 H 17.7031 2.61483 1.54469 0
M  V30 157 H 15.2881 1.3185 0.702567 0
M  V30 158 H 17.1701 1.74217 3.83701 0
M  V30 159 H 15.8451 0.766966 3.14483 0
M  V30 160 H 14.7521 2.93324 2.32189 0
M  V30 161 H 16.0851 3.84699 3.0703 0
M  V30 162 N 17.7372 -0.778329 1.37039 0
M  V30 163 C 18.6692 -1.90034 1.2814 0
M  V30 164 C 19.6822 -1.61585 0.198558 0
M  V30 165 O 20.8712 -1.72625 0.454175 0
M  V30 166 C 17.9712 -3.25108 0.956968 0
M  V30 167 C 17.1442 -3.81253 2.14394 0
M  V30 168 C 16.2032 -4.94789 1.79082 0
M  V30 169 O 15.2292 -5.10721 2.51301 0
M  V30 170 N 16.4312 -5.75878 0.731043 0
M  V30 171 H 19.1962 -1.98186 2.24816 0
M  V30 172 H 16.7572 -0.957129 1.30578 0
M  V30 173 H 18.7492 -3.9857 0.701701 0
M  V30 174 H 17.3192 -3.125 0.0789812 0
M  V30 175 H 16.5392 -2.99647 2.56135 0
M  V30 176 H 17.8272 -4.15495 2.93668 0
M  V30 177 H 17.2252 -5.65547 0.131618 0
M  V30 178 H 15.7822 -6.49596 0.535622 0
M  V30 179 N 19.2153 -1.21501 -1.00376 0
M  V30 180 C 20.4433 -1.059 -1.77744 0
M  V30 181 C 20.8583 0.391125 -1.84704 0
M  V30 182 O 20.2153 1.27133 -1.30933 0
M  V30 183 C 20.2663 -1.65111 -3.21591 0
M  V30 184 O 19.9873 -3.0445 -3.15027 0
M  V30 185 C 21.4883 -1.54637 -4.15454 0
M  V30 186 H 18.7083 -0.371825 -0.558558 0
M  V30 187 H 21.2523 -1.60865 -1.26264 0
M  V30 188 H 19.4073 -1.14235 -3.70175 0
M  V30 189 H 19.8213 -3.3278 -4.0541 0
M  V30 190 H 21.2953 -2.00808 -5.14179 0
M  V30 191 H 21.7723 -0.501022 -4.36333 0
M  V30 192 H 22.3783 -2.04767 -3.72761 0
M  V30 193 N 20.6934 1.19889 -1.02296 0
M  V30 194 C 21.6234 2.25141 -0.619174 0
M  V30 195 C 22.6044 1.66051 0.368915 0
M  V30 196 O 23.7894 1.92546 0.252941 0
M  V30 197 C 20.9194 3.4728 0.0368783 0
M  V30 198 C 19.8734 4.19005 -0.872865 0
M  V30 199 C 19.1994 5.34637 -0.0822402 0
M  V30 200 C 20.4994 4.74452 -2.18387 0
M  V30 201 H 22.1934 2.59171 -1.49903 0
M  V30 202 H 19.7394 1.24579 -0.722222 0
M  V30 203 H 21.6924 4.20098 0.330958 0
M  V30 204 H 20.4164 3.12433 0.95149 0
M  V30 205 H 19.0754 3.48061 -1.15105 0
M  V30 206 H 18.7234 4.96034 0.83422 0
M  V30 207 H 18.4234 5.83557 -0.688149 0
M  V30 208 H 19.9474 6.10255 0.205238 0
M  V30 209 H 21.3614 5.39055 -1.95172 0
M  V30 210 H 19.7584 5.33834 -2.74119 0
M  V30 211 H 20.8284 3.92844 -2.84257 0
M  V30 212 N 22.1715 0.800033 1.35784 0
M  V30 213 C 23.5875 0.482977 1.52117 0
M  V30 214 C 23.7875 -0.996948 1.75109 0
M  V30 215 O 22.8435 -1.78216 1.78872 0
M  V30 216 C 24.1565 1.32264 2.70049 0
M  V30 217 C 25.7045 1.31742 2.83924 0
M  V30 218 C 26.1795 2.14106 4.04874 0
M  V30 219 N 27.6705 2.11607 4.12039 0
M  V30 220 C 28.4055 2.72099 5.04727 0
M  V30 221 N 27.9015 3.41492 6.02789 0
M  V30 222 N 29.6945 2.61776 4.97423 0
M  V30 223 H 21.8455 1.75856 1.19115 0
M  V30 224 H 24.1085 0.748122 0.582252 0
M  V30 225 H 23.8145 2.37261 2.59616 0
M  V30 226 H 23.6885 0.971303 3.6448 0
M  V30 227 H 26.0755 0.275333 2.93813 0
M  V30 228 H 26.1565 1.70859 1.9037 0
M  V30 229 H 25.8005 3.18351 3.95746 0
M  V30 230 H 25.7305 1.72353 4.97596 0
M  V30 231 H 28.2215 1.61112 3.41835 0
M  V30 232 H 28.5345 3.84953 6.70098 0
M  V30 233 H 26.8795 3.45596 6.02983 0
M  V30 234 H 30.0705 2.07157 4.19766 0
M  V30 235 H 30.2435 3.0921 5.69468 0
M  V30 236 N 23.6496 -1.47581 0.552962 0
M  V30 237 C 24.5816 -2.27997 -0.234533 0
M  V30 238 C 25.5946 -1.36753 -0.883321 0
M  V30 239 O 26.7836 -1.61612 -0.757889 0
M  V30 240 C 23.8836 -3.10879 -1.34935 0
M  V30 241 C 23.0566 -4.30056 -0.798158 0
M  V30 242 C 22.1156 -4.94567 -1.79694 0
M  V30 243 O 21.1416 -5.53087 -1.34474 0
M  V30 244 N 22.3436 -4.88878 -3.13015 0
M  V30 245 H 25.1086 -2.96222 0.455255 0
M  V30 246 H 22.6696 -1.57163 0.388761 0
M  V30 247 H 24.6616 -3.50903 -2.01616 0
M  V30 248 H 23.2316 -2.44924 -1.94244 0
M  V30 249 H 22.4516 -3.94174 0.0453079 0
M  V30 250 H 23.7396 -5.07152 -0.409173 0
M  V30 251 H 23.1376 -4.42526 -3.52402 0
M  V30 252 H 21.6946 -5.32934 -3.75266 0
M  V30 253 N 25.1277 -0.289203 -1.54924 0
M  V30 254 C 26.3737 0.323998 -2.00195 0
M  V30 255 C 26.7067 1.54441 -1.17735 0
M  V30 256 O 25.9817 1.92875 -0.250878 0
M  V30 257 C 26.2647 0.692276 -3.53383 0
M  V30 258 C 26.1177 -0.536457 -4.46589 0
M  V30 259 C 27.4367 1.52335 -4.12895 0
M  V30 260 H 24.5557 0.116289 -0.727768 0
M  V30 261 H 27.1977 -0.398954 -1.85764 0
M  V30 262 H 25.3477 1.30822 -3.65811 0
M  V30 263 H 27.0197 -1.17499 -4.46085 0
M  V30 264 H 25.2627 -1.17192 -4.1767 0
M  V30 265 H 25.9337 -0.234806 -5.515 0
M  V30 266 H 28.4097 1.00302 -4.0383 0
M  V30 267 H 27.2857 1.74982 -5.20262 0
M  V30 268 H 27.5467 2.50886 -3.64018 0
M  V30 269 N 26.6058 1.57591 -0.0167156 0
M  V30 270 C 27.8308 1.9598 0.67872 0
M  V30 271 C 28.2558 0.892546 1.65575 0
M  V30 272 O 27.6138 -0.147772 1.80697 0
M  V30 273 C 27.6618 3.33468 1.37227 0
M  V30 274 O 26.7658 3.28954 2.48722 0
M  V30 275 H 26.1068 0.639339 0.17928 0
M  V30 276 H 28.6368 2.04463 -0.0748802 0
M  V30 277 H 28.6468 3.69417 1.7319 0
M  V30 278 H 27.3218 4.10694 0.656007 0
M  V30 279 H 25.8988 3.04705 2.14963 0
M  V30 280 N 28.0839 -0.256276 1.55502 0
M  V30 281 C 29.4949 -0.826068 1.67431 0
M  V30 282 C 29.8459 -1.86396 0.612446 0
M  V30 283 O 28.9709 -2.15031 -0.243025 0
M  V30 284 C 29.5659 -1.50512 3.03532 0
M  V30 285 C 28.1249 -2.02273 3.17431 0
M  V30 286 C 27.2719 -0.870548 2.63281 0
M  V30 287 H 30.2229 -0.0322728 1.58667 0
M  V30 288 H 30.2439 -2.37279 2.97454 0
M  V30 289 H 29.7559 -0.749484 3.80794 0
M  V30 290 H 27.8569 -2.80746 2.44974 0
M  V30 291 H 27.9699 -2.22655 4.24219 0
M  V30 292 H 26.3339 -1.26851 2.20864 0
M  V30 293 H 27.1169 -0.128149 3.43061 0
M  V30 294 N 29.562 -1.4872 -0.521534 0
M  V30 295 C 30.81 -1.56857 -1.27437 0
M  V30 296 C 31.131 -0.247982 -1.93417 0
M  V30 297 O 30.401 0.731151 -1.81744 0
M  V30 298 H 28.981 -0.577885 -0.473347 0
M  V30 299 H 31.643 -1.85233 -0.606205 0
M  V30 300 H 30.739 -2.35402 -2.0492 0
M  V30 301 N 31.0401 0.771051 -1.3745 0
M  V30 302 C 31.9701 1.89827 -1.3597 0
M  V30 303 C 32.9511 1.68562 -0.228216 0
M  V30 304 O 34.1361 1.8941 -0.428675 0
M  V30 305 C 31.2661 3.2712 -1.16662 0
M  V30 306 C 30.2201 3.6295 -2.2683 0
M  V30 307 C 29.5461 4.98791 -1.92644 0
M  V30 308 C 30.8461 3.69627 -3.69017 0
M  V30 309 H 32.5401 1.91323 -2.30295 0
M  V30 310 H 30.0861 0.919082 -1.10855 0
M  V30 311 H 32.0391 4.05615 -1.14256 0
M  V30 312 H 30.7631 3.26059 -0.187926 0
M  V30 313 H 29.4221 2.86763 -2.28392 0
M  V30 314 H 29.0701 4.94271 -0.933021 0
M  V30 315 H 28.7701 5.23733 -2.66416 0
M  V30 316 H 30.2941 5.79685 -1.91826 0
M  V30 317 H 31.7081 4.38273 -3.69581 0
M  V30 318 H 30.1051 4.06067 -4.41848 0
M  V30 319 H 31.1751 2.70273 -4.02592 0
M  V30 320 N 32.5182 1.22032 0.997298 0
M  V30 321 C 33.4282 1.00271 2.12092 0
M  V30 322 C 34.4442 -0.047621 1.73935 0
M  V30 323 O 35.6202 0.144136 2.00884 0
M  V30 324 C 32.6852 0.578449 3.4184 0
M  V30 325 C 31.7462 1.70189 3.94125 0
M  V30 326 C 30.9792 1.29778 5.17681 0
M  V30 327 O 31.2022 0.174676 5.70132 0
M  V30 328 O 30.1362 2.11261 5.63607 0
M  V30 329 H 33.9622 1.94398 2.3333 0
M  V30 330 H 31.5472 1.00587 1.10465 0
M  V30 331 H 33.4292 0.351998 4.19927 0
M  V30 332 H 32.1042 -0.334019 3.21972 0
M  V30 333 H 31.0112 1.98282 3.1723 0
M  V30 334 H 32.3442 2.59206 4.18417 0
M  V30 335 N 33.9963 -1.19345 1.0293 0
M  V30 336 C 35.2443 -1.88665 0.724574 0
M  V30 337 C 35.5653 -1.80036 -0.749144 0
M  V30 338 O 34.8353 -1.2111 -1.53978 0
M  V30 339 H 33.4153 -0.698406 0.265025 0
M  V30 340 H 36.0773 -1.44885 1.30362 0
M  V30 341 H 35.1733 -2.94987 1.01926 0
M  V30 342 N 35.4744 -0.807222 -1.35358 0
M  V30 343 C 36.7514 -0.311126 -1.9311 0
M  V30 344 C 37.1314 1.19937 -1.73719 0
M  V30 345 O 36.4794 1.99918 -1.10657 0
M  V30 346 C 36.6894 -0.723226 -3.41424 0
M  V30 347 C 38.0374 -0.713078 -4.18569 0
M  V30 348 O 39.0614 -0.664811 -3.49941 0
M  V30 349 O 37.9204 -0.772022 -5.41019 0
M  V30 350 H 35.0144 -0.081526 -0.822972 0
M  V30 351 H 37.5604 -0.890962 -1.4443 0
M  V30 352 H 36.3324 -1.76426 -3.4927 0
M  V30 353 H 35.9554 -0.118232 -3.97424 0
M  V30 354 N 36.9525 1.47285 -0.560781 0
M  V30 355 C 38.1985 2.02764 -0.0381184 0
M  V30 356 C 38.5315 1.43384 1.30976 0
M  V30 357 O 37.8065 0.590733 1.85312 0
M  V30 358 C 38.0895 3.60064 0.0511427 0
M  V30 359 C 37.9425 4.2987 -1.32408 0
M  V30 360 C 39.2615 4.33439 0.762795 0
M  V30 361 H 36.3805 0.736841 -0.0153264 0
M  V30 362 H 39.0225 1.75675 -0.723759 0
M  V30 363 H 37.1725 3.83274 0.635065 0
M  V30 364 H 38.8445 4.17989 -1.95148 0
M  V30 365 H 37.0875 3.90085 -1.8978 0
M  V30 366 H 37.7585 5.38478 -1.21431 0
M  V30 367 H 40.2345 4.15243 0.266965 0
M  V30 368 H 39.1105 5.43124 0.794221 0
M  V30 369 H 39.3715 4.02915 1.81966 0
M  V30 370 N 38.4306 0.297415 1.54768 0
M  V30 371 C 39.6766 -0.306263 2.01081 0
M  V30 372 C 40.0316 -1.518 1.18214 0
M  V30 373 O 39.3246 -1.89967 0.249613 0
M  V30 374 C 39.5186 -0.717561 3.50123 0
M  V30 375 C 39.3476 0.45277 4.47415 0
M  V30 376 C 38.1176 0.943651 4.9641 0
M  V30 377 C 40.3156 1.29657 4.97688 0
M  V30 378 N 38.2976 2.08112 5.77549 0
M  V30 379 C 39.6686 2.28158 5.76493 0
M  V30 380 C 41.7236 1.32735 4.79881 0
M  V30 381 C 40.4266 3.29509 6.39387 0
M  V30 382 C 42.4526 2.32943 5.43591 0
M  V30 383 C 41.8146 3.30174 6.22225 0
M  V30 384 H 37.9136 -0.0766274 0.778237 0
M  V30 385 H 40.4976 0.426515 1.89971 0
M  V30 386 H 38.6686 -1.41952 3.6153 0
M  V30 387 H 40.4006 -1.30047 3.83236 0
M  V30 388 H 37.1556 0.51922 4.70745 0
M  V30 389 H 37.5796 2.65414 6.22803 0
M  V30 390 H 42.2216 0.589375 4.18672 0
M  V30 391 H 39.9396 4.04228 6.99732 0
M  V30 392 H 43.5256 2.36094 5.31743 0
M  V30 393 H 42.4056 4.06445 6.7065 0
M  V30 394 N 39.9087 -1.5758 0.0250728 0
M  V30 395 C 40.8187 -2.1343 -0.973905 0
M  V30 396 C 41.8347 -1.08556 -1.35984 0
M  V30 397 O 43.0107 -1.40592 -1.44207 0
M  V30 398 C 40.0757 -2.64703 -2.23904 0
M  V30 399 C 39.1367 -3.84276 -1.91391 0
M  V30 400 C 38.3697 -4.33095 -3.11873 0
M  V30 401 O 38.5927 -3.81107 -4.24398 0
M  V30 402 O 37.5267 -5.24984 -2.94406 0
M  V30 403 H 41.3527 -2.99057 -0.529036 0
M  V30 404 H 38.9377 -1.48118 -0.195288 0
M  V30 405 H 40.8197 -2.97769 -2.98181 0
M  V30 406 H 39.4947 -1.82161 -2.6758 0
M  V30 407 H 38.4017 -3.56143 -1.14511 0
M  V30 408 H 39.7347 -4.67968 -1.52534 0
M  V30 409 N 41.3868 0.248026 -1.55636 0
M  V30 410 C 42.8028 0.596483 -1.48035 0
M  V30 411 C 43.0028 1.88386 -0.715039 0
M  V30 412 O 42.0588 2.51319 -0.243944 0
M  V30 413 C 43.3718 0.700258 -2.92433 0
M  V30 414 C 44.9198 0.792659 -3.02797 0
M  V30 415 C 45.3948 0.928005 -4.485 0
M  V30 416 N 46.8858 0.992903 -4.52433 0
M  V30 417 C 47.6208 1.11687 -5.62418 0
M  V30 418 N 47.1168 1.20645 -6.82214 0
M  V30 419 N 48.9098 1.14994 -5.50212 0
M  V30 420 H 41.0608 -0.597109 -2.03834 0
M  V30 421 H 43.3238 -0.205925 -0.925364 0
M  V30 422 H 43.0298 -0.175658 -3.51261 0
M  V30 423 H 42.9038 1.57255 -3.42857 0
M  V30 424 H 45.2908 1.65903 -2.4405 0
M  V30 425 H 45.3718 -0.104762 -2.55585 0
M  V30 426 H 45.0158 0.0661971 -5.07857 0
M  V30 427 H 44.9458 1.84045 -4.93391 0
M  V30 428 H 47.4368 0.935064 -3.66149 0
M  V30 429 H 47.7498 1.30008 -7.61786 0
M  V30 430 H 46.0948 1.17605 -6.84977 0
M  V30 431 H 49.2858 1.07643 -4.55555 0
M  V30 432 H 49.4588 1.24311 -6.35965 0
M  V30 433 N 42.8649 1.48995 0.513639 0
M  V30 434 C 44.0929 1.61531 1.29288 0
M  V30 435 C 44.5079 0.281801 1.86685 0
M  V30 436 O 43.8649 -0.731111 1.67215 0
M  V30 437 C 43.9159 2.67449 2.43215 0
M  V30 438 O 43.6369 3.95626 1.88179 0
M  V30 439 C 45.1379 2.90575 3.34785 0
M  V30 440 H 42.3579 0.544165 0.392588 0
M  V30 441 H 44.9019 1.9494 0.617956 0
M  V30 442 H 43.0569 2.36853 3.0656 0
M  V30 443 H 43.4709 4.53868 2.62876 0
M  V30 444 H 44.9449 3.68449 4.11035 0
M  V30 445 H 45.4219 2.00011 3.91015 0
M  V30 446 H 46.0279 3.22538 2.77218 0
M  V30 447 N 44.343 -0.763751 1.37857 0
M  V30 448 C 45.568 -1.55805 1.36893 0
M  V30 449 C 45.993 -1.88054 -0.0416135 0
M  V30 450 O 45.351 -1.49825 -1.02089 0
M  V30 451 C 45.399 -2.84012 2.22192 0
M  V30 452 O 44.503 -3.78732 1.63204 0
M  V30 453 H 43.844 -0.471638 0.46739 0
M  V30 454 H 46.374 -0.944657 1.81487 0
M  V30 455 H 46.384 -3.33037 2.35691 0
M  V30 456 H 45.059 -2.59869 3.24716 0
M  V30 457 H 43.636 -3.37402 1.58791 0
M  V30 458 N 45.8211 -1.22559 -0.990812 0
M  V30 459 C 47.0691 -1.04933 -1.72724 0
M  V30 460 C 47.3901 0.416158 -1.90508 0
M  V30 461 O 46.6601 1.29918 -1.46622 0
M  V30 462 H 45.2401 -0.385296 -0.639965 0
M  V30 463 H 47.9021 -1.54105 -1.19322 0
M  V30 464 H 46.9981 -1.52886 -2.72089 0
M  V30 465 N 47.2992 1.18797 -1.03562 0
M  V30 466 C 48.2472 2.24297 -0.615905 0
M  V30 467 C 49.2412 1.65643 0.354808 0
M  V30 468 O 50.4472 1.78618 0.22265 0
M  V30 469 H 46.8222 0.729909 -0.180934 0
M  V30 470 H 48.7932 2.5701 -1.5162 0
M  V30 471 C 47.5422 3.47698 0.0104735 0
M  V30 472 H 46.8652 3.93125 -0.727509 0
M  V30 473 H 48.3052 4.23159 0.266995 0
M  V30 474 C 46.7642 3.12489 1.25905 0
M  V30 475 O 47.2942 3.25761 2.35038 0
M  V30 476 N 45.5002 2.6686 1.15039 0
M  V30 477 H 45.0472 2.56261 0.262328 0
M  V30 478 H 45.0052 2.43674 1.98672 0
M  V30 479 N 48.7773 0.814389 1.34928 0
M  V30 480 C 49.7243 0.22822 2.29669 0
M  V30 481 C 50.6943 -0.642164 1.53184 0
M  V30 482 O 51.8793 -0.585605 1.81591 0
M  V30 483 C 49.0193 -0.61089 3.3965 0
M  V30 484 C 48.1323 0.280792 4.31086 0
M  V30 485 C 47.2673 -0.567067 5.28165 0
M  V30 486 C 46.3063 0.324531 6.11239 0
M  V30 487 N 45.4433 -0.483756 7.00431 0
M  V30 488 H 50.2833 1.04153 2.79206 0
M  V30 489 H 47.8203 0.525133 1.37407 0
M  V30 490 H 49.7783 -1.11263 4.0209 0
M  V30 491 H 48.4083 -1.38939 2.91369 0
M  V30 492 H 47.4603 0.900688 3.69583 0
M  V30 493 H 48.7723 0.966723 4.89342 0
M  V30 494 H 47.9263 -1.13363 5.96015 0
M  V30 495 H 46.6653 -1.28654 4.70425 0
M  V30 496 H 45.6703 0.903298 5.42329 0
M  V30 497 H 46.8953 1.04198 6.71059 0
M  V30 498 H 44.8413 -1.18706 6.45171 0
M  V30 499 H 44.7583 0.143965 7.55863 0
M  V30 500 H 46.0263 -1.03334 7.7262 0
M  V30 501 N 50.2554 -1.46986 0.568584 0
M  V30 502 C 51.1854 -2.32946 -0.160753 0
M  V30 503 C 52.1664 -1.44487 -0.897631 0
M  V30 504 O 53.3514 -1.73327 -0.875867 0
M  V30 505 C 50.4814 -3.26494 -1.18403 0
M  V30 506 C 49.4354 -4.24282 -0.562895 0
M  V30 507 C 48.7614 -5.07236 -1.69163 0
M  V30 508 C 50.0614 -5.19989 0.490761 0
M  V30 509 H 51.7554 -2.94175 0.556916 0
M  V30 510 H 49.3014 -1.4146 0.26927 0
M  V30 511 H 51.2544 -3.85477 -1.70251 0
M  V30 512 H 49.9784 -2.63343 -1.93179 0
M  V30 513 H 48.6374 -3.66541 -0.0656164 0
M  V30 514 H 48.2854 -4.4048 -2.42871 0
M  V30 515 H 47.9854 -5.7345 -1.28174 0
M  V30 516 H 49.5094 -5.6908 -2.21314 0
M  V30 517 H 50.9234 -5.73271 0.0579047 0
M  V30 518 H 49.3204 -5.94469 0.820165 0
M  V30 519 H 50.3904 -4.64777 1.3824 0
M  V30 520 N 51.7335 -0.305618 -1.54608 0
M  V30 521 C 53.0105 0.355652 -1.92339 0
M  V30 522 C 53.3905 1.71324 -1.23335 0
M  V30 523 O 52.7385 2.25473 -0.370702 0
M  V30 524 C 52.9485 0.46572 -3.45879 0
M  V30 525 C 54.2965 0.734426 -4.182 0
M  V30 526 O 55.3205 0.54935 -3.51938 0
M  V30 527 O 54.1795 1.09024 -5.35515 0
M  V30 528 H 51.2735 0.199666 -0.802535 0
M  V30 529 H 53.8195 -0.354017 -1.65966 0
M  V30 530 H 52.5915 -0.488461 -3.88239 0
M  V30 531 H 52.2145 1.22367 -3.78301 0
M  V30 532 N 53.2116 1.57565 -0.0334293 0
M  V30 533 C 54.4596 1.91598 0.642999 0
M  V30 534 C 54.7806 0.910847 1.7242 0
M  V30 535 O 54.0506 -0.0469931 1.95844 0
M  V30 536 H 52.6306 0.707228 0.240496 0
M  V30 537 H 55.2926 1.94726 -0.0822488 0
M  V30 538 H 54.3886 2.92336 1.09298 0
M  V30 539 N 54.6897 -0.239769 1.55765 0
M  V30 540 C 55.9147 -0.988373 1.82335 0
M  V30 541 C 56.3397 -1.77886 0.611421 0
M  V30 542 O 55.6977 -1.75889 -0.439639 0
M  V30 543 C 55.7457 -1.89627 3.06715 0
M  V30 544 O 54.8497 -2.98904 2.84131 0
M  V30 545 H 54.1907 -0.280858 0.601677 0
M  V30 546 H 56.7207 -0.258597 2.02959 0
M  V30 547 H 56.7307 -2.30957 3.36338 0
M  V30 548 H 55.4057 -1.31511 3.9456 0
M  V30 549 H 53.9827 -2.61651 2.65694 0
M  V30 550 N 56.1678 -1.49265 -0.50573 0
M  V30 551 C 57.1308 -1.65075 -1.59006 0
M  V30 552 C 58.1308 -0.522768 -1.52065 0
M  V30 553 O 59.3208 -0.789117 -1.55302 0
M  V30 554 C 56.4528 -1.64369 -2.98656 0
M  V30 555 H 57.6458 -2.61784 -1.46319 0
M  V30 556 H 55.1988 -1.38226 -0.729616 0
M  V30 557 H 55.9338 -0.692272 -3.16825 0
M  V30 558 H 55.7188 -2.46282 -3.05103 0
M  V30 559 H 57.2088 -1.78674 -3.77446 0
M  V30 560 N 57.6459 0.756429 -1.3826 0
M  V30 561 C 58.6089 1.85176 -1.35065 0
M  V30 562 C 59.6089 1.58818 -0.251703 0
M  V30 563 O 60.7989 1.66615 -0.508433 0
M  V30 564 C 57.9309 3.22596 -1.10201 0
M  V30 565 H 59.1239 1.89417 -2.3251 0
M  V30 566 H 56.6769 0.95783 -1.23512 0
M  V30 567 H 57.4119 3.24025 -0.133504 0
M  V30 568 H 57.1969 3.43122 -1.89762 0
M  V30 569 H 58.6869 4.02673 -1.10654 0
M  V30 570 N 59.124 1.23083 0.984299 0
M  V30 571 C 60.401 0.9689 1.69917 0
M  V30 572 C 60.781 -0.513604 2.04757 0
M  V30 573 O 60.129 -1.48383 1.73767 0
M  V30 574 C 60.339 1.87518 2.94343 0
M  V30 575 C 61.687 2.13636 3.6694 0
M  V30 576 O 62.711 1.85036 3.04368 0
M  V30 577 O 61.57 2.62119 4.79537 0
M  V30 578 H 58.664 0.365095 0.742048 0
M  V30 579 H 61.21 1.34107 1.03987 0
M  V30 580 H 59.982 2.87756 2.65164 0
M  V30 581 H 59.605 1.50514 3.6801 0
M  V30 582 N 60.6021 -1.18246 1.0419 0
M  V30 583 C 62.0131 -1.69914 0.773698 0
M  V30 584 C 62.3641 -1.83085 -0.705297 0
M  V30 585 O 61.4891 -1.51123 -1.5489 0
M  V30 586 C 62.0841 -3.08619 1.39784 0
M  V30 587 C 60.6431 -3.57494 1.17792 0
M  V30 588 C 59.7901 -2.34013 1.48773 0
M  V30 589 H 62.7411 -1.02904 1.20816 0
M  V30 590 H 62.7621 -3.71958 0.801714 0
M  V30 591 H 62.2741 -2.99001 2.47426 0
M  V30 592 H 60.3751 -3.72406 0.120295 0
M  V30 593 H 60.4881 -4.40852 1.87581 0
M  V30 594 H 58.8521 -2.37986 0.907463 0
M  V30 595 H 59.6351 -2.27013 2.57527 0
M  V30 596 N 62.0802 -0.821533 -1.34494 0
M  V30 597 C 63.3052 -0.420873 -2.03085 0
M  V30 598 C 63.7302 0.964915 -1.61465 0
M  V30 599 O 63.0882 1.62763 -0.798607 0
M  V30 600 C 63.1362 -0.529414 -3.56693 0
M  V30 601 O 62.2402 0.451302 -4.09923 0
M  V30 602 H 61.5812 -0.173489 -0.640935 0
M  V30 603 H 64.1112 -1.11157 -1.71771 0
M  V30 604 H 64.1212 -0.404671 -4.05988 0
M  V30 605 H 62.7962 -1.54014 -3.86332 0
M  V30 606 H 61.3732 0.285558 -3.71805 0
M  V30 607 N 63.5583 1.46682 -0.576371 0
M  V30 608 C 64.8353 1.95599 0.00703437 0
M  V30 609 C 65.2153 1.51904 1.46589 0
M  V30 610 O 64.5633 0.766755 2.15251 0
M  V30 611 C 64.7733 3.4864 -0.158404 0
M  V30 612 C 66.1213 4.24594 -0.0229439 0
M  V30 613 O 67.1453 3.56094 -0.0869173 0
M  V30 614 O 66.0043 5.46373 0.118015 0
M  V30 615 H 63.0983 0.825275 0.053384 0
M  V30 616 H 65.6443 1.56996 -0.644244 0
M  V30 617 H 64.4163 3.7331 -1.17282 0
M  V30 618 H 64.0393 3.94057 0.5296 0
M  V30 619 N 65.0364 0.313813 1.54444 0
M  V30 620 C 66.2824 -0.284918 2.01395 0
M  V30 621 C 66.6374 -1.50537 1.19818 0
M  V30 622 O 65.9304 -1.89692 0.269748 0
M  V30 623 C 66.1244 -0.680386 3.50864 0
M  V30 624 C 65.9534 0.500198 4.4691 0
M  V30 625 C 64.7234 0.996248 4.95382 0
M  V30 626 C 66.9214 1.34928 4.96285 0
M  V30 627 N 64.9034 2.14226 5.75309 0
M  V30 628 C 66.2744 2.3426 5.7404 0
M  V30 629 C 68.3294 1.37818 4.78446 0
M  V30 630 C 67.0324 3.36272 6.35856 0
M  V30 631 C 69.0584 2.38695 5.4109 0
M  V30 632 C 68.4204 3.36755 6.18688 0
M  V30 633 H 64.5194 -0.0683689 0.779006 0
M  V30 634 H 67.1034 0.44664 1.89508 0
M  V30 635 H 65.2744 -1.38109 3.63016 0
M  V30 636 H 67.0064 -1.25975 3.84594 0
M  V30 637 H 63.7614 0.56912 4.70168 0
M  V30 638 H 64.1854 2.72005 6.19953 0
M  V30 639 H 68.8274 0.633747 4.18023 0
M  V30 640 H 66.5454 4.11627 6.95405 0
M  V30 641 H 70.1314 2.41721 5.29209 0
M  V30 642 H 69.0114 4.13535 6.66302 0
M  V30 643 N 66.5145 -1.57545 0.0417849 0
M  V30 644 C 67.4445 -2.14009 -0.933929 0
M  V30 645 C 68.4255 -1.05938 -1.33083 0
M  V30 646 O 69.6105 -1.33833 -1.40721 0
M  V30 647 C 66.7405 -2.67747 -2.21199 0
M  V30 648 C 65.6945 -3.80718 -1.95544 0
M  V30 649 C 65.0205 -4.20935 -3.29724 0
M  V30 650 C 66.3205 -5.06258 -1.28452 0
M  V30 651 H 68.0145 -2.95788 -0.463645 0
M  V30 652 H 65.5605 -1.42285 -0.221573 0
M  V30 653 H 67.5135 -3.05886 -2.89848 0
M  V30 654 H 66.2375 -1.83147 -2.70416 0
M  V30 655 H 64.8965 -3.43037 -1.2931 0
M  V30 656 H 64.5445 -3.33298 -3.76724 0
M  V30 657 H 64.2445 -4.9707 -3.13361 0
M  V30 658 H 65.7685 -4.61666 -3.9962 0
M  V30 659 H 67.1825 -5.41903 -1.8712 0
M  V30 660 H 65.5795 -5.87475 -1.22445 0
M  V30 661 H 66.6495 -4.84207 -0.259219 0
M  V30 662 N 67.9926 0.231505 -1.5589 0
M  V30 663 C 68.9226 1.29022 -1.94617 0
M  V30 664 C 69.9036 1.4941 -0.813067 0
M  V30 665 O 71.0886 1.6176 -1.07459 0
M  V30 666 C 68.2186 2.64199 -2.25424 0
M  V30 667 C 67.1726 2.58484 -3.41131 0
M  V30 668 C 66.4986 3.97599 -3.57518 0
M  V30 669 C 67.7986 2.1413 -4.76388 0
M  V30 670 H 69.4926 0.968563 -2.83301 0
M  V30 671 H 67.0386 0.464479 -1.36303 0
M  V30 672 H 68.9916 3.38413 -2.51107 0
M  V30 673 H 67.7156 2.98032 -1.33583 0
M  V30 674 H 66.3746 1.86727 -3.15481 0
M  V30 675 H 66.0226 4.28723 -2.6307 0
M  V30 676 H 65.7226 3.94659 -4.35337 0
M  V30 677 H 67.2466 4.7349 -3.85538 0
M  V30 678 H 68.6606 2.78083 -5.01341 0
M  V30 679 H 67.0576 2.2227 -5.57419 0
M  V30 680 H 68.1276 1.09331 -4.72414 0
M  V30 681 N 69.4707 1.49531 0.497807 0
M  V30 682 C 70.4027 1.62559 1.61578 0
M  V30 683 C 71.4157 0.508134 1.54667 0
M  V30 684 O 72.6047 0.780309 1.60541 0
M  V30 685 C 69.7047 1.56925 3.00379 0
M  V30 686 C 68.8777 2.84257 3.3244 0
M  V30 687 C 67.9367 2.71632 4.50669 0
M  V30 688 O 66.9627 3.4557 4.52294 0
M  V30 689 N 68.1647 1.83391 5.5077 0
M  V30 690 H 70.9297 2.58981 1.50828 0
M  V30 691 H 68.4907 1.4666 0.685743 0
M  V30 692 H 70.4827 1.46129 3.77397 0
M  V30 693 H 69.0527 0.683483 3.05037 0
M  V30 694 H 68.2727 3.09381 2.44289 0
M  V30 695 H 69.5607 3.68666 3.5066 0
M  V30 696 H 68.9587 1.22583 5.52259 0
M  V30 697 H 67.5157 1.78515 6.26878 0
M  V30 698 N 70.9488 -0.749086 1.3866 0
M  V30 699 C 72.1768 -1.53834 1.38358 0
M  V30 700 C 72.5918 -1.88783 -0.0255219 0
M  V30 701 O 71.9488 -1.53101 -0.993292 0
M  V30 702 C 71.9998 -2.83468 2.2434 0
M  V30 703 O 71.7208 -2.50008 3.5976 0
M  V30 704 C 73.2218 -3.7758 2.32267 0
M  V30 705 H 70.4418 -0.47585 0.473083 0
M  V30 706 H 72.9858 -0.926726 1.82297 0
M  V30 707 H 71.1408 -3.40995 1.83851 0
M  V30 708 H 71.5548 -3.33182 4.05081 0
M  V30 709 H 73.0288 -4.65478 2.96706 0
M  V30 710 H 73.5058 -4.18334 1.33765 0
M  V30 711 H 74.1118 -3.25976 2.73166 0
M  V30 712 N 72.4269 -1.23603 -0.977757 0
M  V30 713 C 73.8379 -1.06424 -1.53398 0
M  V30 714 C 74.1889 0.367578 -1.92726 0
M  V30 715 O 73.3139 1.25465 -1.76316 0
M  V30 716 C 73.9089 -1.92568 -2.78753 0
M  V30 717 C 72.4679 -1.79642 -3.30765 0
M  V30 718 C 71.6149 -1.88111 -2.03739 0
M  V30 719 H 74.5659 -1.37227 -0.797152 0
M  V30 720 H 74.5869 -1.45203 -3.51705 0
M  V30 721 H 74.0989 -2.96771 -2.50098 0
M  V30 722 H 72.1999 -0.782325 -3.64294 0
M  V30 723 H 72.3129 -2.63174 -4.00345 0
M  V30 724 H 70.6769 -1.31723 -2.17994 0
M  V30 725 H 71.4599 -2.93875 -1.77461 0
M  V30 726 N 73.905 1.17692 -1.04816 0
M  V30 727 C 75.153 1.87488 -0.754497 0
M  V30 728 C 75.474 1.81205 0.720407 0
M  V30 729 O 74.744 1.23544 1.52032 0
M  V30 730 H 73.324 0.694101 -0.276102 0
M  V30 731 H 75.986 1.42793 -1.32651 0
M  V30 732 H 75.082 2.93328 -1.06606 0
M  V30 733 N 75.3831 0.828654 1.34056 0
M  V30 734 C 76.6231 0.425394 1.99924 0
M  V30 735 C 76.9871 -0.994294 1.64249 0
M  V30 736 O 78.1881 -1.50074 2.23005 0
M  V30 737 C 76.4591 0.628071 3.51838 0
M  V30 738 S 78.0181 0.318511 4.37642 0
M  V30 739 H 74.8361 0.160465 0.692656 0
M  V30 740 H 77.4381 1.07572 1.63244 0
M  V30 741 H 76.1421 1.66089 3.7529 0
M  V30 742 H 75.6731 -0.0367799 3.93383 0
M  V30 743 H 77.6881 -0.865632 4.88591 0
M  V30 744 N 76.8612 -1.46375 0.584142 0
M  V30 745 C 78.1072 -2.03248 0.0787103 0
M  V30 746 C 78.4622 -1.44737 -1.26763 0
M  V30 747 O 77.7552 -0.603625 -1.81843 0
M  V30 748 C 77.9492 -3.57373 -0.0439342 0
M  V30 749 C 77.7782 -4.30831 1.28897 0
M  V30 750 C 76.5482 -4.69683 1.8635 0
M  V30 751 C 78.7462 -4.64278 2.21248 0
M  V30 752 N 76.7282 -5.27898 3.13365 0
M  V30 753 C 78.0992 -5.23078 3.32851 0
M  V30 754 C 80.1542 -4.46209 2.20911 0
M  V30 755 C 78.8572 -5.65715 4.44251 0
M  V30 756 C 80.8832 -4.89864 3.31341 0
M  V30 757 C 80.2452 -5.48736 4.41665 0
M  V30 758 H 76.3442 -0.778714 0.0716144 0
M  V30 759 H 78.9282 -1.78509 0.777355 0
M  V30 760 H 77.0992 -3.81823 -0.711749 0
M  V30 761 H 78.8312 -4.00892 -0.553881 0
M  V30 762 H 75.5862 -4.52488 1.39826 0
M  V30 763 H 76.0102 -5.61525 3.78178 0
M  V30 764 H 80.6522 -4.00027 1.36888 0
M  V30 765 H 78.3702 -6.10875 5.29015 0
M  V30 766 H 81.9562 -4.77634 3.322 0
M  V30 767 H 80.8362 -5.81898 5.25704 0
M  V30 768 N 78.3393 -0.321999 -1.54275 0
M  V30 769 C 79.5873 0.280489 -2.00144 0
M  V30 770 C 79.9083 1.52777 -1.21178 0
M  V30 771 O 79.1783 1.9338 -0.313187 0
M  V30 772 H 77.7583 0.106632 -0.73935 0
M  V30 773 H 80.4203 -0.438184 -1.8991 0
M  V30 774 H 79.5163 0.537972 -3.07428 0
M  V30 775 N 79.8174 1.5752 -0.0501392 0
M  V30 776 C 81.0944 1.83996 0.663685 0
M  V30 777 C 81.4744 0.938339 1.89099 0
M  V30 778 O 80.8224 -0.00087759 2.285 0
M  V30 779 C 81.0324 3.33702 1.02196 0
M  V30 780 C 82.3804 4.00691 1.40469 0
M  V30 781 O 83.4044 3.38321 1.11433 0
M  V30 782 O 82.2634 5.10658 1.94654 0
M  V30 783 H 79.3574 0.759385 0.32751 0
M  V30 784 H 81.9034 1.69514 -0.0794238 0
M  V30 785 H 80.6754 3.91015 0.149364 0
M  V30 786 H 80.2984 3.53368 1.82255 0
M  V30 787 N 81.2955 -0.223234 1.56011 0
M  V30 788 C 82.5725 -0.972108 1.69733 0
M  V30 789 C 82.9525 -2.02485 0.59691 0
M  V30 790 O 82.3005 -2.25037 -0.396324 0
M  V30 791 C 82.5105 -1.58407 3.10979 0
M  V30 792 C 83.8585 -2.07696 3.70334 0
M  V30 793 O 84.8825 -1.68304 3.1393 0
M  V30 794 O 83.7415 -2.80096 4.69264 0
M  V30 795 H 80.8355 -0.453993 0.691245 0
M  V30 796 H 83.3815 -0.215149 1.68331 0
M  V30 797 H 82.1535 -0.823831 3.82529 0
M  V30 798 H 81.7765 -2.40661 3.16493 0
M  V30 799 N 82.7736 -1.49793 -0.48987 0
M  V30 800 C 83.7206 -1.67281 -1.59014 0
M  V30 801 C 84.6906 -0.514177 -1.57941 0
M  V30 802 O 85.8756 -0.742533 -1.75759 0
M  V30 803 C 83.0156 -1.75569 -2.97102 0
M  V30 804 C 82.1286 -3.0281 -3.08107 0
M  V30 805 C 81.2636 -3.02008 -4.36995 0
M  V30 806 C 80.3026 -4.23782 -4.41673 0
M  V30 807 N 79.4396 -4.20826 -5.62005 0
M  V30 808 H 84.2796 -2.61224 -1.43409 0
M  V30 809 H 81.8166 -1.29508 -0.697565 0
M  V30 810 H 83.7746 -1.78354 -3.77155 0
M  V30 811 H 82.4046 -0.850827 -3.11385 0
M  V30 812 H 81.4566 -3.09584 -2.21047 0
M  V30 813 H 82.7686 -3.92801 -3.07423 0
M  V30 814 H 81.9226 -3.03418 -5.25378 0
M  V30 815 H 80.6616 -2.09815 -4.4026 0
M  V30 816 H 79.6666 -4.22604 -3.5169 0
M  V30 817 H 80.8916 -5.17181 -4.40115 0
M  V30 818 H 78.8376 -3.31476 -5.66091 0
M  V30 819 H 78.7546 -5.04564 -5.62984 0
M  V30 820 H 80.0226 -4.26355 -6.52565 0
M  V30 821 N 84.2517 0.741722 -1.39055 0
M  V30 822 C 85.4917 1.51385 -1.37338 0
M  V30 823 C 85.8557 1.91972 0.0330513 0
M  V30 824 O 87.0567 2.68229 0.175174 0
M  V30 825 C 85.3277 2.72481 -2.31276 0
M  V30 826 S 86.8867 3.62211 -2.47687 0
M  V30 827 H 83.7047 0.517906 -0.487129 0
M  V30 828 H 86.3067 0.86969 -1.7509 0
M  V30 829 H 85.0107 2.40793 -3.32336 0
M  V30 830 H 84.5417 3.41832 -1.94716 0
M  V30 831 H 86.5567 4.65812 -1.70978 0
M  V30 832 N 85.7298 1.2412 0.971189 0
M  V30 833 C 86.6928 1.03156 2.04674 0
M  V30 834 C 87.6928 -0.00990322 1.60797 0
M  V30 835 O 88.8828 0.230729 1.72665 0
M  V30 836 C 86.0148 0.562765 3.36223 0
M  V30 837 H 87.2078 1.98614 2.24705 0
M  V30 838 H 84.7608 1.06293 1.14593 0
M  V30 839 H 85.4958 -0.395176 3.21883 0
M  V30 840 H 85.2808 1.31441 3.69413 0
M  V30 841 H 86.7708 0.437015 4.15307 0
M  V30 842 N 87.2079 -1.17134 1.05439 0
M  V30 843 C 88.4849 -1.83411 0.679699 0
M  V30 844 C 88.8649 -1.9368 -0.839726 0
M  V30 845 O 88.2129 -1.47325 -1.74664 0
M  V30 846 C 88.4229 -3.20918 1.37159 0
M  V30 847 C 89.7709 -3.96796 1.51123 0
M  V30 848 O 90.7949 -3.30406 1.3308 0
M  V30 849 O 89.6539 -5.15778 1.80651 0
M  V30 850 H 86.7479 -0.79154 0.239569 0
M  V30 851 H 89.2939 -1.24411 1.15413 0
M  V30 852 H 88.0659 -3.08428 2.40807 0
M  V30 853 H 87.6889 -3.87587 0.886674 0
M  V30 854 N 88.686 -0.835752 -1.33615 0
M  V30 855 C 90.102 -0.523139 -1.50783 0
M  V30 856 C 90.302 0.950171 -1.77691 0
M  V30 857 O 89.358 1.73411 -1.83534 0
M  V30 858 C 90.671 -1.39378 -2.66448 0
M  V30 859 C 92.219 -1.39223 -2.80332 0
M  V30 860 C 92.694 -2.24765 -3.99055 0
M  V30 861 N 94.185 -2.22458 -4.06284 0
M  V30 862 C 94.92 -2.85386 -4.97336 0
M  V30 863 N 94.416 -3.57354 -5.93523 0
M  V30 864 N 96.209 -2.74872 -4.90308 0
M  V30 865 H 88.36 -1.78952 -1.14411 0
M  V30 866 H 90.623 -0.763297 -0.562212 0
M  V30 867 H 90.329 -2.44061 -2.53234 0
M  V30 868 H 90.203 -1.0676 -3.61776 0
M  V30 869 H 92.59 -0.353136 -2.92979 0
M  V30 870 H 92.671 -1.75846 -1.85773 0
M  V30 871 H 92.315 -3.28732 -3.87167 0
M  V30 872 H 92.245 -1.85485 -4.92852 0
M  V30 873 H 94.736 -1.70119 -3.37443 0
M  V30 874 H 95.049 -4.02584 -6.59656 0
M  V30 875 H 93.394 -3.61461 -5.93608 0
M  V30 876 H 96.585 -2.18213 -4.14126 0
M  V30 877 H 96.758 -3.24199 -5.61069 0
M  V30 878 N 90.1641 1.46063 -0.591896 0
M  V30 879 C 91.4101 2.02638 -0.0811191 0
M  V30 880 C 91.7431 1.4613 1.27905 0
M  V30 881 O 91.0181 0.629908 1.84017 0
M  V30 882 C 91.3011 3.60091 -0.0252436 0
M  V30 883 C 91.1541 4.26965 -1.41496 0
M  V30 884 C 92.4731 4.3496 0.670685 0
M  V30 885 H 89.5921 0.73635 -0.0309524 0
M  V30 886 H 92.2341 1.741 -0.760859 0
M  V30 887 H 90.3841 3.84535 0.553624 0
M  V30 888 H 92.0561 4.13756 -2.0397 0
M  V30 889 H 90.2991 3.85971 -1.98011 0
M  V30 890 H 90.9701 5.35781 -1.32825 0
M  V30 891 H 93.4461 4.15716 0.178825 0
M  V30 892 H 92.3221 5.44686 0.678837 0
M  V30 893 H 92.5831 4.06685 1.73379 0
M  V30 894 N 91.6422 0.330177 1.54103 0
M  V30 895 C 92.8902 -0.269871 2.0029 0
M  V30 896 C 93.2112 -1.52133 1.21986 0
M  V30 897 O 92.4812 -1.93212 0.323438 0
M  V30 898 H 91.0612 -0.10271 0.739905 0
M  V30 899 H 93.7232 0.448249 1.89675 0
M  V30 900 H 92.8192 -0.52166 3.07709 0
M  V30 901 N 93.1203 -1.57491 0.0584922 0
M  V30 902 C 94.3483 -1.97296 -0.623037 0
M  V30 903 C 94.7633 -0.936338 -1.63946 0
M  V30 904 O 94.1203 0.0785981 -1.82331 0
M  V30 905 C 94.1713 -3.37183 -1.30345 0
M  V30 906 O 93.8923 -4.36872 -0.32773 0
M  V30 907 C 95.3933 -3.91788 -2.07406 0
M  V30 908 H 92.6133 -0.649153 -0.169826 0
M  V30 909 H 95.1573 -2.04106 0.12696 0
M  V30 910 H 93.3123 -3.31502 -2.00463 0
M  V30 911 H 93.7263 -5.18141 -0.814269 0
M  V30 912 H 95.2003 -4.91926 -2.50425 0
M  V30 913 H 95.6773 -3.27609 -2.92521 0
M  V30 914 H 96.2833 -4.00829 -1.42184 0
M  V30 915 N 94.5984 0.214957 -1.56127 0
M  V30 916 C 95.5454 1.26642 -1.92952 0
M  V30 917 C 96.5154 1.46244 -0.78753 0
M  V30 918 O 97.7004 1.59704 -1.04399 0
M  V30 919 C 94.8404 2.6104 -2.25726 0
M  V30 920 C 93.9534 2.49183 -3.52891 0
M  V30 921 C 93.0884 3.76149 -3.7508 0
M  V30 922 C 92.1274 3.59041 -4.95738 0
M  V30 923 N 91.2644 4.77972 -5.14283 0
M  V30 924 H 96.1044 0.945384 -2.82607 0
M  V30 925 H 93.6414 0.455489 -1.3987 0
M  V30 926 H 95.5994 3.39313 -2.42739 0
M  V30 927 H 94.2294 2.91227 -1.39236 0
M  V30 928 H 93.2814 1.6231 -3.44034 0
M  V30 929 H 94.5934 2.32466 -4.41318 0
M  V30 930 H 93.7474 4.62865 -3.92226 0
M  V30 931 H 92.4864 3.95799 -2.84947 0
M  V30 932 H 91.4914 2.7071 -4.78535 0
M  V30 933 H 92.7164 3.40856 -5.87362 0
M  V30 934 H 90.6624 4.97923 -4.27093 0
M  V30 935 H 90.5794 4.64006 -5.96853 0
M  V30 936 H 91.8474 5.66096 -5.35869 0
M  V30 937 N 96.0765 1.50051 0.48192 0
M  V30 938 C 97.4925 1.37237 0.814756 0
M  V30 939 C 97.6925 0.420109 1.97072 0
M  V30 940 O 96.7485 -0.141246 2.52105 0
M  V30 941 C 98.0615 2.78375 1.13701 0
M  V30 942 C 99.6095 2.87213 1.2441 0
M  V30 943 C 100.084 4.29161 1.59954 0
M  V30 944 N 101.575 4.32061 1.66967 0
M  V30 945 C 102.31 5.38879 1.95952 0
M  V30 946 N 101.806 6.55918 2.23031 0
M  V30 947 N 103.599 5.26312 1.97363 0
M  V30 948 H 95.7505 2.10546 -0.28005 0
M  V30 949 H 98.0135 0.945921 -0.0627454 0
M  V30 950 H 97.7195 3.49845 0.360787 0
M  V30 951 H 97.5935 3.14941 2.07586 0
M  V30 952 H 99.9805 2.15969 2.01101 0
M  V30 953 H 100.061 2.54204 0.285299 0
M  V30 954 H 99.7055 5.00938 0.838067 0
M  V30 955 H 99.6355 4.59648 2.56966 0
M  V30 956 H 102.126 3.47661 1.48123 0
M  V30 957 H 102.439 7.33139 2.44391 0
M  V30 958 H 100.784 6.59112 2.20447 0
M  V30 959 H 103.975 4.33876 1.75697 0
M  V30 960 H 104.148 6.09649 2.19618 0
M  V30 961 N 97.5546 -0.734337 1.39446 0
M  V30 962 C 98.4846 -1.86155 1.40955 0
M  V30 963 C 99.4656 -1.67898 0.272827 0
M  V30 964 O 100.651 -1.88207 0.478743 0
M  V30 965 C 97.7806 -3.23912 1.25294 0
M  V30 966 C 96.7346 -3.56808 2.36373 0
M  V30 967 C 96.0606 -4.93508 2.058 0
M  V30 968 C 97.3606 -3.59713 3.78687 0
M  V30 969 H 99.0546 -1.8515 2.35287 0
M  V30 970 H 96.6006 -0.889367 1.13253 0
M  V30 971 H 98.5536 -4.02443 1.2497 0
M  V30 972 H 97.2776 -3.25446 0.274308 0
M  V30 973 H 95.9366 -2.80606 2.35914 0
M  V30 974 H 95.5846 -4.91623 1.06374 0
M  V30 975 H 95.2846 -5.16486 2.80208 0
M  V30 976 H 96.8086 -5.74396 2.07128 0
M  V30 977 H 98.2226 -4.2832 3.81071 0
M  V30 978 H 96.6196 -3.94209 4.52459 0
M  V30 979 H 97.6896 -2.59504 4.09617 0
M  V30 980 N 99.0327 -1.24633 -0.964593 0
M  V30 981 C 99.9627 -1.06611 -2.07741 0
M  V30 982 C 100.944 0.0218666 -1.70086 0
M  V30 983 O 102.129 -0.145793 -1.93652 0
M  V30 984 C 99.2587 -0.673444 -3.40708 0
M  V30 985 C 98.2127 -1.71054 -3.92332 0
M  V30 986 C 97.5387 -1.17285 -5.21678 0
M  V30 987 C 98.8387 -3.10718 -4.19824 0
M  V30 988 H 100.533 -1.99693 -2.23076 0
M  V30 989 H 98.0787 -0.96152 -1.07195 0
M  V30 990 H 100.032 -0.534345 -4.17998 0
M  V30 991 H 98.7557 0.293073 -3.25282 0
M  V30 992 H 97.4147 -1.83791 -3.17201 0
M  V30 993 H 97.0627 -0.196847 -5.02615 0
M  V30 994 H 96.7627 -1.86592 -5.57187 0
M  V30 995 H 98.2867 -1.04593 -6.01575 0
M  V30 996 H 99.7007 -3.01192 -4.87808 0
M  V30 997 H 98.0977 -3.77406 -4.66567 0
M  V30 998 H 99.1677 -3.58524 -3.26479 0
M  V30 999 N 100.511 1.16574 -1.06058 0
M  V30 1000 C 101.474 2.19085 -0.673392 0
M  V30 1001 C 102.474 1.5835 0.279648 0
M  V30 1002 O 103.664 1.74088 0.0623488 0
M  V30 1003 C 100.796 3.40899 0.00954234 0
M  V30 1004 H 101.989 2.54853 -1.58081 0
M  V30 1005 H 99.5418 1.30808 -0.855516 0
M  V30 1006 H 100.277 3.10684 0.929826 0
M  V30 1007 H 100.062 3.86233 -0.67573 0
M  V30 1008 H 101.552 4.1675 0.266245 0
M  V30 1009 N 101.989 0.842826 1.3317 0
M  V30 1010 C 102.936 0.276885 2.29133 0
M  V30 1011 C 103.906 -0.609527 1.54512 0
M  V30 1012 O 105.091 -0.546955 1.82792 0
M  V30 1013 C 102.231 -0.538707 3.40869 0
M  V30 1014 C 101.344 0.372169 4.30394 0
M  V30 1015 C 100.479 -0.454908 5.29249 0
M  V30 1016 C 99.5179 0.45411 6.10413 0
M  V30 1017 N 98.6549 -0.335075 7.013 0
M  V30 1018 H 103.495 1.10052 2.76934 0
M  V30 1019 H 101.032 0.554161 1.36262 0
M  V30 1020 H 102.99 -1.02709 4.0436 0
M  V30 1021 H 101.62 -1.32727 2.9425 0
M  V30 1022 H 100.672 0.97888 3.6759 0
M  V30 1023 H 101.984 1.0703 4.87182 0
M  V30 1024 H 101.138 -1.00695 5.98285 0
M  V30 1025 H 99.8769 -1.18646 4.73048 0
M  V30 1026 H 98.8819 1.01813 5.40291 0
M  V30 1027 H 100.107 1.18409 6.68697 0
M  V30 1028 H 98.0529 -1.04994 6.47543 0
M  V30 1029 H 97.9699 0.304262 7.55387 0
M  V30 1030 H 99.2379 -0.869224 7.74638 0
M  V30 1031 N 103.467 -1.45747 0.599634 0
M  V30 1032 C 104.4 -2.27547 -0.172552 0
M  V30 1033 C 105.378 -1.36657 -0.881116 0
M  V30 1034 O 106.562 -1.66081 -0.891595 0
M  V30 1035 C 103.689 -3.14829 -1.24903 0
M  V30 1036 C 102.735 -4.21603 -0.644465 0
M  V30 1037 S 103.568 -5.32754 0.541606 0
M  V30 1038 C 104.724 -6.23604 -0.535656 0
M  V30 1039 H 104.957 -2.92691 0.521468 0
M  V30 1040 H 102.49 -1.49473 0.386947 0
M  V30 1041 H 104.448 -3.65675 -1.86527 0
M  V30 1042 H 103.109 -2.48965 -1.91508 0
M  V30 1043 H 102.302 -4.82566 -1.45417 0
M  V30 1044 H 101.904 -3.73857 -0.103534 0
M  V30 1045 H 104.196 -6.62519 -1.41686 0
M  V30 1046 H 105.139 -7.0809 0.0376246 0
M  V30 1047 H 105.547 -5.58103 -0.84741 0
M  V30 1048 N 104.945 -0.338344 -1.53925 0
M  V30 1049 C 106.173 0.261298 -2.05243 0
M  V30 1050 C 106.588 1.44625 -1.21363 0
M  V30 1051 O 105.945 1.80811 -0.247736 0
M  V30 1052 C 105.996 0.681412 -3.5502 0
M  V30 1053 O 105.717 -0.456414 -4.35716 0
M  V30 1054 C 107.218 1.34232 -4.22489 0
M  V30 1055 H 104.438 0.0513685 -0.669031 0
M  V30 1056 H 106.982 -0.488822 -1.98572 0
M  V30 1057 H 105.137 1.38148 -3.61931 0
M  V30 1058 H 105.551 -0.122564 -5.24357 0
M  V30 1059 H 107.025 1.58708 -5.28693 0
M  V30 1060 H 107.502 2.29426 -3.74514 0
M  V30 1061 H 108.108 0.684424 -4.19757 0
M  V30 1062 N 106.423 1.57458 -0.0668435 0
M  V30 1063 C 107.333 2.15937 0.916975 0
M  V30 1064 C 108.349 1.12123 1.33058 0
M  V30 1065 O 109.525 1.44366 1.40429 0
M  V30 1066 C 106.59 2.70547 2.16807 0
M  V30 1067 C 105.651 3.89215 1.81135 0
M  V30 1068 C 104.884 4.41211 3.0028 0
M  V30 1069 O 105.107 3.92225 4.14144 0
M  V30 1070 O 104.041 5.32605 2.80384 0
M  V30 1071 H 107.867 3.00354 0.449561 0
M  V30 1072 H 105.452 1.48584 0.155949 0
M  V30 1073 H 107.334 3.0557 2.90181 0
M  V30 1074 H 106.009 1.89192 2.62656 0
M  V30 1075 H 104.916 3.59054 1.05028 0
M  V30 1076 H 106.249 4.71848 1.40073 0
M  V30 1077 N 107.901 -0.206675 1.56239 0
M  V30 1078 C 108.849 -1.27571 1.94495 0
M  V30 1079 C 109.843 -1.47737 0.828862 0
M  V30 1080 O 111.049 -1.48735 1.0138 0
M  V30 1081 H 107.424 -0.428029 0.6183 0
M  V30 1082 H 109.395 -0.925961 2.8367 0
M  V30 1083 C 108.144 -2.61568 2.29079 0
M  V30 1084 H 107.467 -2.46863 3.14482 0
M  V30 1085 H 108.907 -3.35144 2.5972 0
M  V30 1086 C 107.366 -3.17695 1.12123 0
M  V30 1087 O 107.896 -3.99801 0.390153 0
M  V30 1088 N 106.102 -2.76276 0.901097 0
M  V30 1089 H 105.649 -2.09613 1.49733 0
M  V30 1090 H 105.607 -3.1417 0.120319 0
M  V30 1091 N 109.379 -1.50304 -0.473955 0
M  V30 1092 C 110.628 -1.60392 -1.22301 0
M  V30 1093 C 110.941 -0.308411 -1.93153 0
M  V30 1094 O 112.147 -0.288156 -2.69966 0
M  V30 1095 C 110.603 -2.83109 -2.2221 0
M  V30 1096 C 110.211 -4.19524 -1.57173 0
M  V30 1097 C 111.955 -3.0254 -2.97775 0
M  V30 1098 C 109.862 -5.33431 -2.55353 0
M  V30 1099 H 108.792 -0.597286 -0.460179 0
M  V30 1100 H 111.443 -1.76731 -0.493803 0
M  V30 1101 H 109.825 -2.60322 -2.9841 0
M  V30 1102 H 110.999 -4.52554 -0.867824 0
M  V30 1103 H 109.314 -4.05674 -0.939002 0
M  V30 1104 H 111.911 -3.84811 -3.71248 0
M  V30 1105 H 112.254 -2.14154 -3.56992 0
M  V30 1106 H 112.787 -3.25494 -2.28688 0
M  V30 1107 H 109.526 -6.23962 -2.00878 0
M  V30 1108 H 109.046 -5.04823 -3.23904 0
M  V30 1109 H 110.725 -5.63887 -3.17239 0
M  V30 1110 N 110.857 0.726932 -1.39834 0
M  V30 1111 C 112.105 1.4837 -1.37225 0
M  V30 1112 C 112.426 1.94979 0.0284857 0
M  V30 1113 O 111.696 1.69555 0.981213 0
M  V30 1114 H 110.276 0.55043 -0.505011 0
M  V30 1115 H 112.938 0.862468 -1.74778 0
M  V30 1116 H 112.034 2.36198 -2.04003 0
M  V30 1117 N 112.336 1.25143 0.95797 0
M  V30 1118 C 113.284 1.05019 2.07542 0
M  V30 1119 C 114.278 -0.0178751 1.69391 0
M  V30 1120 O 115.484 0.137472 1.79474 0
M  V30 1121 H 111.859 0.32265 0.679265 0
M  V30 1122 H 113.83 1.99759 2.21673 0
M  V30 1123 C 112.579 0.682074 3.40944 0
M  V30 1124 H 111.902 1.49573 3.70767 0
M  V30 1125 H 113.342 0.580945 4.20001 0
M  V30 1126 C 111.801 -0.611608 3.31302 0
M  V30 1127 O 112.331 -1.65465 3.66038 0
M  V30 1128 N 110.537 -0.595982 2.84423 0
M  V30 1129 H 110.084 0.253192 2.56353 0
M  V30 1130 H 110.042 -1.46173 2.78354 0
M  V30 1131 N 113.814 -1.1601 1.06675 0
M  V30 1132 C 114.777 -2.18724 0.685001 0
M  V30 1133 C 115.777 -1.58496 -0.271246 0
M  V30 1134 O 116.967 -1.74119 -0.0531156 0
M  V30 1135 C 114.099 -3.40899 0.00853648 0
M  V30 1136 H 115.292 -2.54011 1.59431 0
M  V30 1137 H 112.845 -1.30352 0.862441 0
M  V30 1138 H 113.58 -3.11173 -0.913337 0
M  V30 1139 H 113.365 -3.8587 0.696204 0
M  V30 1140 H 114.855 -4.16886 -0.24414 0
M  V30 1141 N 115.292 -0.849877 -1.32721 0
M  V30 1142 C 116.52 -0.464754 -2.01613 0
M  V30 1143 C 116.935 0.937191 -1.63897 0
M  V30 1144 O 116.292 1.61081 -0.857856 0
M  V30 1145 C 116.343 -0.588638 -3.56675 0
M  V30 1146 O 116.064 -1.93535 -3.93034 0
M  V30 1147 C 117.565 -0.2019 -4.4284 0
M  V30 1148 H 114.785 -0.183215 -0.645502 0
M  V30 1149 H 117.329 -1.1455 -1.69407 0
M  V30 1150 H 115.484 0.0443159 -3.87375 0
M  V30 1151 H 115.898 -1.92871 -4.87751 0
M  V30 1152 H 117.372 -0.339599 -5.50954 0
M  V30 1153 H 117.849 0.857224 -4.30753 0
M  V30 1154 H 118.455 -0.809733 -4.17521 0
M  V30 1155 N 116.77 1.45427 -0.607355 0
M  V30 1156 C 118.186 1.57283 -0.270985 0
M  V30 1157 C 118.386 1.59875 1.22647 0
M  V30 1158 O 117.442 1.52893 2.00948 0
M  V30 1159 C 118.755 2.85566 -0.941952 0
M  V30 1160 C 120.303 2.9924 -0.917849 0
M  V30 1161 C 120.778 4.30293 -1.56882 0
M  V30 1162 N 122.269 4.37051 -1.5343 0
M  V30 1163 C 123.004 5.37123 -2.00715 0
M  V30 1164 N 122.5 6.43734 -2.56084 0
M  V30 1165 N 124.293 5.28479 -1.91484 0
M  V30 1166 H 116.444 1.41988 -1.57966 0
M  V30 1167 H 118.707 0.67885 -0.661715 0
M  V30 1168 H 118.413 2.8955 -1.99633 0
M  V30 1169 H 118.287 3.74322 -0.465096 0
M  V30 1170 H 120.674 2.94822 0.127984 0
M  V30 1171 H 120.755 2.11895 -1.43297 0
M  V30 1172 H 120.399 4.35469 -2.61398 0
M  V30 1173 H 120.329 5.16454 -1.02873 0
M  V30 1174 H 122.82 3.60615 -1.12982 0
M  V30 1175 H 123.133 7.16341 -2.89958 0
M  V30 1176 H 121.478 6.44485 -2.60122 0
M  V30 1177 H 124.669 4.44098 -1.47967 0
M  V30 1178 H 124.842 6.0632 -2.28648 0
M  V30 1179 N 118.248 0.346503 1.53744 0
M  V30 1180 C 119.476 -0.25041 2.05379 0
M  V30 1181 C 119.891 -1.43979 1.22129 0
M  V30 1182 O 119.248 -1.80677 0.257321 0
M  V30 1183 C 119.299 -0.662575 3.55376 0
M  V30 1184 O 119.02 0.479515 4.35468 0
M  V30 1185 C 120.521 -1.31989 4.23195 0
M  V30 1186 H 117.741 -0.0478198 0.669294 0
M  V30 1187 H 120.285 0.499346 1.9831 0
M  V30 1188 H 118.44 -1.36227 3.62658 0
M  V30 1189 H 118.854 0.15037 5.24284 0
M  V30 1190 H 120.328 -1.55902 5.29527 0
M  V30 1191 H 120.805 -2.27436 3.75725 0
M  V30 1192 H 121.411 -0.662154 4.20114 0
M  V30 1193 N 119.726 -1.57421 0.075193 0
M  V30 1194 C 120.972 -1.93905 -0.594025 0
M  V30 1195 C 121.305 -0.955701 -1.69056 0
M  V30 1196 O 120.58 0.0145373 -1.94495 0
M  V30 1197 C 120.863 -3.40638 -1.1678 0
M  V30 1198 C 120.716 -4.49733 -0.0776792 0
M  V30 1199 C 122.035 -3.88259 -2.07228 0
M  V30 1200 H 119.154 -0.705105 -0.214466 0
M  V30 1201 H 121.796 -1.8947 0.141854 0
M  V30 1202 H 119.946 -3.44549 -1.79494 0
M  V30 1203 H 121.618 -4.57942 0.555573 0
M  V30 1204 H 119.861 -4.29751 0.591286 0
M  V30 1205 H 120.532 -5.49549 -0.519603 0
M  V30 1206 H 123.008 -3.86376 -1.54445 0
M  V30 1207 H 121.884 -4.91533 -2.44308 0
M  V30 1208 H 122.145 -3.26396 -2.98191 0
M  V30 1209 N 121.204 0.198386 -1.56346 0
M  V30 1210 C 122.481 0.944982 -1.71258 0
M  V30 1211 C 122.861 2.0151 -0.629048 0
M  V30 1212 O 122.209 2.25639 0.360473 0
M  V30 1213 C 122.419 1.5344 -3.1346 0
M  V30 1214 C 123.767 2.01778 -3.73591 0
M  V30 1215 O 124.791 1.63288 -3.16568 0
M  V30 1216 O 123.65 2.72594 -4.73661 0
M  V30 1217 H 120.744 0.442939 -0.69838 0
M  V30 1218 H 123.29 0.188342 -1.68652 0
M  V30 1219 H 122.062 0.762869 -3.83792 0
M  V30 1220 H 121.685 2.35596 -3.20282 0
M  V30 1221 N 122.682 1.50554 0.465978 0
M  V30 1222 C 123.931 1.61038 1.21448 0
M  V30 1223 C 124.244 0.31865 1.92987 0
M  V30 1224 O 125.45 0.302469 2.6981 0
M  V30 1225 C 123.906 2.84283 2.20706 0
M  V30 1226 C 123.514 4.20352 1.54946 0
M  V30 1227 C 125.258 3.04115 2.96166 0
M  V30 1228 C 123.165 5.34778 2.5252 0
M  V30 1229 H 122.095 0.599718 0.457005 0
M  V30 1230 H 124.746 1.7699 0.484424 0
M  V30 1231 H 123.128 2.61901 2.97025 0
M  V30 1232 H 124.302 4.53008 0.843811 0
M  V30 1233 H 122.617 4.06167 0.917475 0
M  V30 1234 H 125.214 3.86774 3.69202 0
M  V30 1235 H 125.557 2.16045 3.55852 0
M  V30 1236 H 126.09 3.26702 2.26959 0
M  V30 1237 H 122.829 6.25018 1.97566 0
M  V30 1238 H 122.349 5.06534 3.21222 0
M  V30 1239 H 124.028 5.65561 3.14245 0
M  V30 1240 N 124.16 -0.719506 1.40217 0
M  V30 1241 C 125.385 -1.51371 1.4178 0
M  V30 1242 C 125.81 -1.88091 0.0182355 0
M  V30 1243 O 125.168 -1.52997 -0.972707 0
M  V30 1244 C 125.216 -2.768 2.31115 0
M  V30 1245 O 124.32 -3.73349 1.7517 0
M  V30 1246 H 123.661 -0.456529 0.482159 0
M  V30 1247 H 126.191 -0.88644 1.844 0
M  V30 1248 H 126.201 -3.25371 2.46167 0
M  V30 1249 H 124.876 -2.49407 3.3282 0
M  V30 1250 H 123.453 -3.32179 1.69444 0
M  V30 1251 N 125.638 -1.25649 -0.95132 0
M  V30 1252 C 126.866 -1.13343 -1.73092 0
M  V30 1253 C 127.281 0.312434 -1.86197 0
M  V30 1254 O 126.638 1.21465 -1.36207 0
M  V30 1255 C 126.689 -1.78602 -3.14299 0
M  V30 1256 O 126.41 -3.17537 -3.01831 0
M  V30 1257 C 127.911 -1.72119 -4.08522 0
M  V30 1258 H 125.131 -0.395181 -0.542285 0
M  V30 1259 H 127.675 -1.66076 -1.19328 0
M  V30 1260 H 125.83 -1.29832 -3.64996 0
M  V30 1261 H 126.244 -3.49676 -3.90931 0
M  V30 1262 H 127.718 -2.22435 -5.052 0
M  V30 1263 H 128.195 -0.685635 -4.33815 0
M  V30 1264 H 128.801 -2.20393 -3.63741 0
M  V30 1265 N 127.117 1.15442 -1.07289 0
M  V30 1266 C 128.047 2.22312 -0.714107 0
M  V30 1267 C 129.028 1.67467 0.298155 0
M  V30 1268 O 130.213 1.93445 0.171048 0
M  V30 1269 C 127.343 3.47124 -0.110448 0
M  V30 1270 C 126.297 4.14926 -1.04979 0
M  V30 1271 C 125.623 5.33807 -0.308924 0
M  V30 1272 C 126.923 4.64762 -2.38314 0
M  V30 1273 H 128.617 2.5258 -1.6076 0
M  V30 1274 H 126.163 1.21404 -0.77441 0
M  V30 1275 H 128.116 4.21124 0.152482 0
M  V30 1276 H 126.84 3.16187 0.81812 0
M  V30 1277 H 125.499 3.42866 -1.29764 0
M  V30 1278 H 125.147 4.99126 0.623084 0
M  V30 1279 H 124.847 5.80113 -0.935036 0
M  V30 1280 H 126.371 6.10576 -0.0537771 0
M  V30 1281 H 127.785 5.30292 -2.1786 0
M  V30 1282 H 126.182 5.21728 -2.96514 0
M  V30 1283 H 127.252 3.80434 -3.00663 0
M  V30 1284 N 128.595 0.856903 1.32268 0
M  V30 1285 C 129.558 0.308171 2.27119 0
M  V30 1286 C 130.558 -0.533421 1.51695 0
M  V30 1287 O 131.748 -0.344607 1.70757 0
M  V30 1288 C 128.88 -0.563757 3.36206 0
M  V30 1289 H 130.073 1.14535 2.77167 0
M  V30 1290 H 127.626 0.631421 1.42978 0
M  V30 1291 H 128.361 -1.42266 2.91429 0
M  V30 1292 H 128.146 0.0386749 3.92081 0
M  V30 1293 H 129.636 -0.940386 4.06874 0
M  V30 1294 N 130.073 -1.45103 0.615059 0
M  V30 1295 C 131.484 -1.85654 0.197383 0
M  V30 1296 C 131.835 -1.51433 -1.24749 0
M  V30 1297 O 130.96 -0.944608 -1.94695 0
M  V30 1298 C 131.555 -3.36972 0.351448 0
M  V30 1299 C 130.114 -3.76398 -0.011593 0
M  V30 1300 C 129.261 -2.69024 0.672394 0
M  V30 1301 H 132.212 -1.35797 0.821263 0
M  V30 1302 H 132.233 -3.78239 -0.414227 0
M  V30 1303 H 131.745 -3.61847 1.40314 0
M  V30 1304 H 129.846 -3.5714 -1.06217 0
M  V30 1305 H 129.959 -4.77532 0.387265 0
M  V30 1306 H 128.323 -2.54465 0.109284 0
M  V30 1307 H 129.106 -2.96735 1.72636 0
M  V30 1308 N 131.551 -0.354651 -1.53558 0
M  V30 1309 C 132.798 0.238443 -2.01091 0
M  V30 1310 C 133.126 1.49663 -1.24222 0
M  V30 1311 O 132.381 1.93049 -0.321003 0
M  V30 1312 C 132.68 0.587121 -3.52545 0
M  V30 1313 C 132.346 -0.575472 -4.47213 0
M  V30 1314 C 131.008 -0.894497 -4.72813 0
M  V30 1315 C 133.36 -1.35489 -5.03281 0
M  V30 1316 C 130.688 -1.99511 -5.51736 0
M  V30 1317 C 133.04 -2.44583 -5.83405 0
M  V30 1318 C 131.704 -2.77033 -6.07296 0
M  V30 1319 H 130.974 0.0872526 -0.735845 0
M  V30 1320 H 133.621 -0.484859 -1.8526 0
M  V30 1321 H 131.926 1.39129 -3.66265 0
M  V30 1322 H 133.623 1.05809 -3.86789 0
M  V30 1323 H 130.213 -0.316774 -4.27428 0
M  V30 1324 H 134.397 -1.12167 -4.83459 0
M  V30 1325 H 129.653 -2.25063 -5.68469 0
M  V30 1326 H 133.827 -3.05401 -6.25862 0
M  V30 1327 H 131.454 -3.6244 -6.68237 0
M  V30 1328 N 133.029 1.57378 -0.0835403 0
M  V30 1329 C 134.44 1.81261 0.447358 0
M  V30 1330 C 134.791 0.998331 1.68902 0
M  V30 1331 O 133.916 0.224282 2.15235 0
M  V30 1332 C 134.511 3.28767 0.818386 0
M  V30 1333 C 133.07 3.53455 1.29409 0
M  V30 1334 C 132.217 2.75831 0.285024 0
M  V30 1335 H 135.168 1.5566 -0.309115 0
M  V30 1336 H 135.189 3.41459 1.67887 0
M  V30 1337 H 134.701 3.88006 -0.0855019 0
M  V30 1338 H 132.802 2.99534 2.21608 0
M  V30 1339 H 132.915 4.62128 1.2639 0
M  V30 1340 H 131.279 2.42947 0.764767 0
M  V30 1341 H 132.062 3.37813 -0.611341 0
M  V30 1342 N 134.507 -0.190092 1.56449 0
M  V30 1343 C 135.455 -1.25501 1.95837 0
M  V30 1344 C 136.449 -1.4685 0.844485 0
M  V30 1345 O 137.655 -1.47651 1.02952 0
M  V30 1346 H 134.03 -0.421447 0.622805 0
M  V30 1347 H 136.001 -0.895821 2.84636 0
M  V30 1348 C 134.75 -2.59124 2.31841 0
M  V30 1349 H 134.073 -2.43514 3.17082 0
M  V30 1350 H 135.513 -3.32371 2.6326 0
M  V30 1351 C 133.972 -3.16488 1.15486 0
M  V30 1352 O 134.502 -3.99365 0.432535 0
M  V30 1353 N 132.708 -2.75305 0.930349 0
M  V30 1354 H 132.255 -2.08013 1.51948 0
M  V30 1355 H 132.213 -3.14024 0.153634 0
M  V30 1356 N 135.985 -1.50799 -0.457987 0
M  V30 1357 C 137.233 -1.62121 -1.2067 0
M  V30 1358 C 137.554 -0.329793 -1.92191 0
M  V30 1359 O 136.824 0.653409 -1.84682 0
M  V30 1360 H 135.404 -0.597441 -0.448411 0
M  V30 1361 H 138.066 -1.87637 -0.527096 0
M  V30 1362 H 137.162 -2.43882 -1.94751 0
M  V30 1363 N 137.463 0.71206 -1.40597 0
M  V30 1364 C 138.426 1.80785 -1.40888 0
M  V30 1365 C 139.426 1.57937 -0.302103 0
M  V30 1366 O 140.616 1.64913 -0.561182 0
M  V30 1367 C 137.748 3.18927 -1.20409 0
M  V30 1368 H 138.941 1.81924 -2.38419 0
M  V30 1369 H 136.494 0.91805 -1.26497 0
M  V30 1370 H 137.229 3.23436 -0.236522 0
M  V30 1371 H 137.014 3.36911 -2.00582 0
M  V30 1372 H 138.504 3.98949 -1.23408 0
M  V30 1373 N 138.941 1.26152 0.944643 0
M  V30 1374 C 140.188 1.11492 1.69044 0
M  V30 1375 C 140.516 -0.342366 1.91463 0
M  V30 1376 O 139.771 -1.26812 1.49054 0
M  V30 1377 C 140.07 1.82541 3.07268 0
M  V30 1378 C 139.736 3.32445 3.04616 0
M  V30 1379 C 138.398 3.73337 3.036 0
M  V30 1380 C 140.75 4.28171 2.97185 0
M  V30 1381 C 138.078 5.08348 2.92915 0
M  V30 1382 C 140.43 5.63218 2.88041 0
M  V30 1383 C 139.094 6.03426 2.85366 0
M  V30 1384 H 138.364 0.407977 0.618576 0
M  V30 1385 H 141.011 1.56551 1.10291 0
M  V30 1386 H 139.316 1.29941 3.69625 0
M  V30 1387 H 141.013 1.68642 3.63815 0
M  V30 1388 H 137.603 2.99915 3.06185 0
M  V30 1389 H 141.787 3.97563 2.97081 0
M  V30 1390 H 137.043 5.38667 2.89219 0
M  V30 1391 H 141.217 6.37078 2.81254 0
M  V30 1392 H 138.844 7.07999 2.76842 0
M  V30 1393 N 140.419 -1.14872 1.07899 0
M  V30 1394 C 141.351 -2.19425 0.662231 0
M  V30 1395 C 142.364 -1.60231 -0.288079 0
M  V30 1396 O 143.553 -1.78336 -0.076534 0
M  V30 1397 C 140.653 -3.38867 -0.0470695 0
M  V30 1398 C 139.826 -4.27597 0.920831 0
M  V30 1399 C 138.885 -5.25616 0.247805 0
M  V30 1400 O 137.911 -5.62189 0.890599 0
M  V30 1401 N 139.113 -5.71746 -1.00435 0
M  V30 1402 H 141.878 -2.55797 1.56166 0
M  V30 1403 H 139.439 -1.30042 0.964404 0
M  V30 1404 H 141.431 -4.01497 -0.50813 0
M  V30 1405 H 140.001 -3.00864 -0.848523 0
M  V30 1406 H 139.221 -3.61982 1.56087 0
M  V30 1407 H 140.509 -4.83748 1.57688 0
M  V30 1408 H 139.907 -5.44153 -1.54642 0
M  V30 1409 H 138.464 -6.36389 -1.40899 0
M  V30 1410 N 141.898 -0.863906 -1.31812 0
M  V30 1411 C 143.175 -0.39275 -1.91616 0
M  V30 1412 C 143.555 1.12461 -1.7865 0
M  V30 1413 O 142.903 1.95045 -1.19037 0
M  V30 1414 C 143.113 -0.867385 -3.38049 0
M  V30 1415 C 144.461 -0.889966 -4.15168 0
M  V30 1416 O 145.485 -0.812635 -3.46806 0
M  V30 1417 O 144.344 -1.00079 -5.37258 0
M  V30 1418 H 141.438 -0.116358 -0.818773 0
M  V30 1419 H 143.984 -0.951418 -1.40521 0
M  V30 1420 H 142.756 -1.91081 -3.41473 0
M  V30 1421 H 142.379 -0.286687 -3.96565 0
M  V30 1422 N 143.376 1.44774 -0.622745 0
M  V30 1423 C 144.339 2.29069 0.0774015 0
M  V30 1424 C 145.339 1.4059 0.780461 0
M  V30 1425 O 146.529 1.62551 0.626322 0
M  V30 1426 C 143.661 3.21974 1.12006 0
M  V30 1427 H 144.854 2.92459 -0.663901 0
M  V30 1428 H 142.407 1.51548 -0.382486 0
M  V30 1429 H 143.142 2.63417 1.89162 0
M  V30 1430 H 142.927 3.87168 0.619951 0
M  V30 1431 H 144.417 3.85318 1.60995 0
M  V30 1432 N 144.854 0.36279 1.53368 0
M  V30 1433 C 146.103 -0.22888 2.00397 0
M  V30 1434 C 146.416 -1.50096 1.25421 0
M  V30 1435 O 147.622 -2.17106 1.63025 0
M  V30 1436 C 146.078 -0.458417 3.56969 0
M  V30 1437 C 145.686 0.798877 4.4082 0
M  V30 1438 C 147.43 -1.00789 4.12361 0
M  V30 1439 C 145.337 0.539078 5.88938 0
M  V30 1440 H 144.267 -0.089305 0.748693 0
M  V30 1441 H 146.918 0.481099 1.77081 0
M  V30 1442 H 145.3 -1.22959 3.76427 0
M  V30 1443 H 146.474 1.57262 4.33134 0
M  V30 1444 H 144.789 1.27137 3.96516 0
M  V30 1445 H 147.386 -1.21754 5.20653 0
M  V30 1446 H 147.729 -1.9692 3.66781 0
M  V30 1447 H 148.262 -0.296961 3.9669 0
M  V30 1448 H 145.001 1.47064 6.3879 0
M  V30 1449 H 144.521 -0.196222 5.99479 0
M  V30 1450 H 146.2 0.163542 6.46793 0
M  V30 1451 N 146.332 -1.57332 0.0918853 0
M  V30 1452 C 147.578 -1.94524 -0.573425 0
M  V30 1453 C 147.911 -0.973578 -1.68033 0
M  V30 1454 O 147.186 -0.00609226 -1.94499 0
M  V30 1455 C 147.469 -3.41858 -1.13161 0
M  V30 1456 C 147.322 -4.4979 -0.0299747 0
M  V30 1457 C 148.641 -3.90435 -2.03098 0
M  V30 1458 H 145.76 -0.70734 -0.206975 0
M  V30 1459 H 148.402 -1.89309 0.161942 0
M  V30 1460 H 146.552 -3.46433 -1.7583 0
M  V30 1461 H 148.224 -4.57327 0.604112 0
M  V30 1462 H 146.467 -4.291 0.636833 0
M  V30 1463 H 147.138 -5.50069 -0.461287 0
M  V30 1464 H 149.614 -3.87992 -1.50338 0
M  V30 1465 H 148.49 -4.94097 -2.39081 0
M  V30 1466 H 148.751 -3.29541 -2.94712 0
M  V30 1467 N 147.81 0.181792 -1.56548 0
M  V30 1468 C 148.773 1.20894 -1.94724 0
M  V30 1469 C 149.773 1.37738 -0.829747 0
M  V30 1470 O 150.963 1.35323 -1.09697 0
M  V30 1471 C 148.095 2.57593 -2.23291 0
M  V30 1472 H 149.288 0.882275 -2.86629 0
M  V30 1473 H 146.841 0.423838 -1.50444 0
M  V30 1474 H 147.576 2.95291 -1.34067 0
M  V30 1475 H 147.361 2.46735 -3.04736 0
M  V30 1476 H 148.851 3.31637 -2.53785 0
M  V30 1477 N 149.288 1.51039 0.449983 0
M  V30 1478 C 150.536 1.62759 1.19808 0
M  V30 1479 C 150.857 0.339981 1.92013 0
M  V30 1480 O 150.127 -0.643606 1.85026 0
M  V30 1481 H 148.707 0.599811 0.445237 0
M  V30 1482 H 151.369 1.87914 0.517138 0
M  V30 1483 H 150.465 2.44911 1.93455 0
M  V30 1484 N 150.766 -0.704594 1.40972 0
M  V30 1485 C 151.696 -1.83124 1.44872 0
M  V30 1486 C 152.677 -1.67281 0.30838 0
M  V30 1487 O 153.862 -1.87149 0.518556 0
M  V30 1488 C 150.992 -3.21181 1.32136 0
M  V30 1489 C 149.946 -3.51714 2.43888 0
M  V30 1490 C 149.272 -4.89032 2.16222 0
M  V30 1491 C 150.572 -3.516 3.86232 0
M  V30 1492 H 152.266 -1.80117 2.39161 0
M  V30 1493 H 149.812 -0.865145 1.15114 0
M  V30 1494 H 151.765 -3.99702 1.33479 0
M  V30 1495 H 150.489 -3.24791 0.343279 0
M  V30 1496 H 149.148 -2.75539 2.41813 0
M  V30 1497 H 148.796 -4.89256 1.16778 0
M  V30 1498 H 148.496 -5.10426 2.911 0
M  V30 1499 H 150.02 -5.69873 2.19265 0
M  V30 1500 H 151.434 -4.2014 3.9007 0
M  V30 1501 H 149.831 -3.84523 4.60719 0
M  V30 1502 H 150.901 -2.50757 4.15029 0
M  V30 1503 N 152.244 -1.26651 -0.937939 0
M  V30 1504 C 153.191 -1.0849 -2.03712 0
M  V30 1505 C 154.161 0.011033 -1.66096 0
M  V30 1506 O 155.346 -0.149353 -1.90215 0
M  V30 1507 C 152.486 -0.72735 -3.37348 0
M  V30 1508 C 151.599 -1.89986 -3.87981 0
M  V30 1509 C 150.734 -1.48513 -5.10017 0
M  V30 1510 C 149.773 -2.62575 -5.5292 0
M  V30 1511 N 148.91 -2.21762 -6.66158 0
M  V30 1512 H 153.75 -2.02551 -2.18579 0
M  V30 1513 H 151.287 -1.00844 -1.07093 0
M  V30 1514 H 153.245 -0.50092 -4.14182 0
M  V30 1515 H 151.875 0.176298 -3.22318 0
M  V30 1516 H 150.927 -2.23913 -3.07518 0
M  V30 1517 H 152.239 -2.75586 -4.15757 0
M  V30 1518 H 151.393 -1.21934 -5.94321 0
M  V30 1519 H 150.132 -0.60009 -4.83994 0
M  V30 1520 H 149.137 -2.8988 -4.67172 0
M  V30 1521 H 150.362 -3.51685 -5.80943 0
M  V30 1522 H 148.308 -1.35696 -6.41812 0
M  V30 1523 H 148.225 -3.00903 -6.93537 0
M  V30 1524 H 149.493 -1.98403 -7.53828 0
M  V30 1525 N 153.722 1.14298 -1.08507 0
M  V30 1526 C 154.632 2.23027 -0.727753 0
M  V30 1527 C 155.648 1.71952 0.26619 0
M  V30 1528 O 156.824 2.011 0.109882 0
M  V30 1529 C 153.889 3.46403 -0.143541 0
M  V30 1530 C 152.95 4.12413 -1.19223 0
M  V30 1531 C 152.183 5.29899 -0.635798 0
M  V30 1532 O 152.406 5.67796 0.544393 0
M  V30 1533 O 151.34 5.85717 -1.38634 0
M  V30 1534 H 155.166 2.55945 -1.63481 0
M  V30 1535 H 152.751 1.22248 -0.858817 0
M  V30 1536 H 154.633 4.21018 0.179404 0
M  V30 1537 H 153.308 3.15206 0.736659 0
M  V30 1538 H 152.215 3.39667 -1.56772 0
M  V30 1539 H 153.548 4.47718 -2.04474 0
M  V30 1540 N 155.201 0.870884 1.31352 0
M  V30 1541 C 156.426 0.495957 2.01383 0
M  V30 1542 C 156.851 -0.904324 1.64935 0
M  V30 1543 O 156.209 -1.59687 0.858466 0
M  V30 1544 C 156.257 0.661433 3.54482 0
M  V30 1545 O 155.361 -0.298851 4.11316 0
M  V30 1546 H 154.702 0.197158 0.634054 0
M  V30 1547 H 157.232 1.17455 1.67527 0
M  V30 1548 H 157.242 0.555072 4.04207 0
M  V30 1549 H 155.917 1.68246 3.8035 0
M  V30 1550 H 154.494 -0.147368 3.72609 0
M  V30 1551 N 156.679 -1.44442 0.630414 0
M  V30 1552 C 157.642 -2.29107 -0.0652523 0
M  V30 1553 C 158.642 -1.41002 -0.772995 0
M  V30 1554 O 159.832 -1.62881 -0.617692 0
M  V30 1555 C 156.964 -3.22564 -1.10296 0
M  V30 1556 H 158.157 -2.92103 0.679401 0
M  V30 1557 H 155.71 -1.51343 0.390517 0
M  V30 1558 H 156.445 -2.64416 -1.87762 0
M  V30 1559 H 156.23 -3.87491 -0.59941 0
M  V30 1560 H 157.72 -3.86167 -1.5895 0
M  V30 1561 N 158.157 -0.370918 -1.53173 0
M  V30 1562 C 159.12 0.460778 -2.24521 0
M  V30 1563 C 160.12 1.00536 -1.25496 0
M  V30 1564 O 161.31 0.890266 -1.49733 0
M  V30 1565 C 158.442 1.64457 -2.98608 0
M  V30 1566 H 159.635 -0.163613 -2.99453 0
M  V30 1567 H 157.188 -0.122699 -1.55818 0
M  V30 1568 H 157.923 2.30691 -2.2793 0
M  V30 1569 H 157.708 1.26099 -3.7127 0
M  V30 1570 H 159.198 2.23384 -3.5283 0
M  V30 1571 N 159.635 1.57281 -0.100228 0
M  V30 1572 C 160.582 2.14305 0.856858 0
M  V30 1573 C 161.552 1.06296 1.27634 0
M  V30 1574 O 162.737 1.34109 1.35718 0
M  V30 1575 C 159.877 2.73184 2.10866 0
M  V30 1576 C 158.99 3.95442 1.73925 0
M  V30 1577 C 158.125 4.42468 2.93931 0
M  V30 1578 C 157.164 5.57303 2.5314 0
M  V30 1579 N 156.301 5.99158 3.65997 0
M  V30 1580 H 161.141 2.95772 0.363726 0
M  V30 1581 H 158.678 1.46139 0.167858 0
M  V30 1582 H 160.636 3.05442 2.84185 0
M  V30 1583 H 159.266 1.94437 2.57671 0
M  V30 1584 H 158.318 3.69464 0.905554 0
M  V30 1585 H 159.63 4.78769 1.39935 0
M  V30 1586 H 158.784 4.76537 3.75496 0
M  V30 1587 H 157.523 3.58052 3.31134 0
M  V30 1588 H 156.528 5.22857 1.70003 0
M  V30 1589 H 157.753 6.43471 2.17075 0
M  V30 1590 H 155.699 5.17687 4.02909 0
M  V30 1591 H 155.616 6.77295 3.35869 0
M  V30 1592 H 156.884 6.3786 4.48057 0
M  V30 1593 N 161.113 -0.173488 1.56642 0
M  V30 1594 C 162.361 -0.888706 1.81512 0
M  V30 1595 C 162.682 -1.82875 0.676872 0
M  V30 1596 O 161.952 -1.93536 -0.303414 0
M  V30 1597 H 160.532 -0.331164 0.669582 0
M  V30 1598 H 163.194 -0.173823 1.94123 0
M  V30 1599 H 162.29 -1.46691 2.75478 0
M  V30 1600 N 162.591 -1.51276 -0.441967 0
M  V30 1601 C 163.539 -1.72823 -1.55676 0
M  V30 1602 C 164.533 -0.59445 -1.58627 0
M  V30 1603 O 165.739 -0.775715 -1.62427 0
M  V30 1604 H 162.114 -0.545983 -0.517113 0
M  V30 1605 H 164.085 -2.6628 -1.34675 0
M  V30 1606 C 162.834 -1.86619 -2.93375 0
M  V30 1607 H 162.157 -2.73264 -2.91834 0
M  V30 1608 H 163.597 -2.05709 -3.70756 0
M  V30 1609 C 162.056 -0.624842 -3.31055 0
M  V30 1610 O 162.586 0.222636 -4.01083 0
M  V30 1611 N 160.792 -0.470288 -2.86769 0
M  V30 1612 H 160.339 -1.161 -2.29953 0
M  V30 1613 H 160.297 0.359051 -3.12343 0
M  V30 1614 N 164.069 0.697108 -1.41344 0
M  V30 1615 C 165.016 1.81106 -1.43071 0
M  V30 1616 C 165.986 1.63632 -0.285275 0
M  V30 1617 O 167.171 1.84504 -0.486091 0
M  V30 1618 C 164.311 3.18975 -1.31715 0
M  V30 1619 C 163.424 3.47892 -2.56115 0
M  V30 1620 C 162.559 4.75367 -2.37064 0
M  V30 1621 C 161.598 4.97247 -3.56948 0
M  V30 1622 N 160.735 6.15947 -3.36977 0
M  V30 1623 H 165.575 1.78965 -2.38276 0
M  V30 1624 H 163.112 0.873975 -1.18322 0
M  V30 1625 H 165.07 3.98615 -1.23133 0
M  V30 1626 H 163.7 3.20297 -0.401183 0
M  V30 1627 H 162.752 2.62669 -2.75153 0
M  V30 1628 H 164.064 3.59962 -3.45295 0
M  V30 1629 H 163.218 5.63059 -2.25941 0
M  V30 1630 H 161.957 4.65541 -1.45338 0
M  V30 1631 H 160.962 4.08004 -3.68527 0
M  V30 1632 H 162.187 5.08934 -4.49626 0
M  V30 1633 H 160.133 6.07336 -2.47949 0
M  V30 1634 H 160.05 6.28777 -4.19732 0
M  V30 1635 H 161.318 7.06377 -3.29623 0
M  V30 1636 N 165.547 1.27147 0.931209 0
M  V30 1637 C 166.477 1.12081 2.04842 0
M  V30 1638 C 167.458 0.0232364 1.70084 0
M  V30 1639 O 168.643 0.197085 1.93197 0
M  V30 1640 C 165.773 0.76354 3.38803 0
M  V30 1641 C 164.727 1.81396 3.87659 0
M  V30 1642 C 164.053 1.31075 5.18385 0
M  V30 1643 C 165.353 3.21739 4.11438 0
M  V30 1644 H 167.047 2.05537 2.17703 0
M  V30 1645 H 164.593 0.989603 1.04608 0
M  V30 1646 H 166.546 0.644982 4.16435 0
M  V30 1647 H 165.27 -0.206727 3.25945 0
M  V30 1648 H 163.929 1.92136 3.12217 0
M  V30 1649 H 163.577 0.330037 5.01916 0
M  V30 1650 H 163.277 2.013 5.52044 0
M  V30 1651 H 164.801 1.20506 5.98591 0
M  V30 1652 H 166.215 3.14019 4.79651 0
M  V30 1653 H 164.612 3.89644 4.56397 0
M  V30 1654 H 165.682 3.67054 3.16859 0
M  V30 1655 N 167.025 -1.13721 1.09112 0
M  V30 1656 C 167.972 -2.19031 0.727591 0
M  V30 1657 C 168.942 -1.63555 -0.289656 0
M  V30 1658 O 170.127 -1.90023 -0.172026 0
M  V30 1659 C 167.267 -3.4477 0.15082 0
M  V30 1660 C 166.38 -4.14365 1.22172 0
M  V30 1661 C 165.515 -5.27709 0.608042 0
M  V30 1662 C 164.554 -5.89147 1.66047 0
M  V30 1663 N 163.691 -6.93929 1.06806 0
M  V30 1664 H 168.531 -2.49475 1.62991 0
M  V30 1665 H 166.068 -1.22499 0.81439 0
M  V30 1666 H 168.026 -4.16714 -0.201358 0
M  V30 1667 H 166.656 -3.14787 -0.714783 0
M  V30 1668 H 165.708 -3.40737 1.69122 0
M  V30 1669 H 167.02 -4.56114 2.01895 0
M  V30 1670 H 166.174 -6.06355 0.204523 0
M  V30 1671 H 164.913 -4.872 -0.220769 0
M  V30 1672 H 163.918 -5.09198 2.07357 0
M  V30 1673 H 165.143 -6.31729 2.49189 0
M  V30 1674 H 163.089 -6.55483 0.260476 0
M  V30 1675 H 163.006 -7.34202 1.8023 0
M  V30 1676 H 164.274 -7.76434 0.690644 0
M  V30 1677 N 168.503 -0.877838 -1.30888 0
M  V30 1678 C 169.749 -0.493426 -1.96706 0
M  V30 1679 C 170.082 0.953504 -1.6918 0
M  V30 1680 O 169.357 1.67266 -0.992594 0
M  V30 1681 C 169.64 -0.760429 -3.51979 0
M  V30 1682 C 169.493 -2.25747 -3.89048 0
M  V30 1683 C 170.812 -0.232148 -4.39487 0
M  V30 1684 H 167.931 -0.180746 -0.714493 0
M  V30 1685 H 170.573 -1.10052 -1.54882 0
M  V30 1686 H 168.723 -0.243715 -3.87735 0
M  V30 1687 H 170.395 -2.84204 -3.63354 0
M  V30 1688 H 168.638 -2.72694 -3.37373 0
M  V30 1689 H 169.309 -2.39491 -4.97341 0
M  V30 1690 H 171.785 -0.674314 -4.106 0
M  V30 1691 H 170.661 -0.448355 -5.47066 0
M  V30 1692 H 170.922 0.866297 -4.33529 0
M  V30 1693 N 169.982 1.44106 -0.638065 0
M  V30 1694 C 171.398 1.56672 -0.304286 0
M  V30 1695 C 171.598 1.6244 1.19228 0
M  V30 1696 O 170.654 1.57121 1.9766 0
M  V30 1697 C 171.967 2.83503 -1.00231 0
M  V30 1698 C 173.515 2.97226 -0.981116 0
M  V30 1699 C 173.99 4.26868 -1.65974 0
M  V30 1700 N 175.481 4.33698 -1.62666 0
M  V30 1701 C 176.216 5.32745 -2.12063 0
M  V30 1702 N 175.712 6.38157 -2.6968 0
M  V30 1703 N 177.505 5.24299 -2.02651 0
M  V30 1704 H 169.656 1.38605 -1.60942 0
M  V30 1705 H 171.919 0.664661 -0.675965 0
M  V30 1706 H 171.625 2.85251 -2.0573 0
M  V30 1707 H 171.499 3.73251 -0.54439 0
M  V30 1708 H 173.886 2.95027 0.0654188 0
M  V30 1709 H 173.967 2.08808 -1.47759 0
M  V30 1710 H 173.611 4.29826 -2.70576 0
M  V30 1711 H 173.541 5.14156 -1.13804 0
M  V30 1712 H 176.032 3.58138 -1.20606 0
M  V30 1713 H 176.345 7.10029 -3.05087 0
M  V30 1714 H 174.69 6.38823 -2.73734 0
M  V30 1715 H 177.881 4.4086 -1.57353 0
M  V30 1716 H 178.054 6.01334 -2.41457 0
M  V30 1717 N 171.46 0.379036 1.52974 0
M  V30 1718 C 172.709 -0.207612 2.00629 0
M  V30 1719 C 173.022 -1.48758 1.27006 0
M  V30 1720 O 174.228 -2.15365 1.65318 0
M  V30 1721 C 172.684 -0.42053 3.57435 0
M  V30 1722 C 172.292 0.845587 4.39948 0
M  V30 1723 C 174.036 -0.964102 4.13407 0
M  V30 1724 C 171.943 0.601513 5.88333 0
M  V30 1725 H 170.873 -0.0813591 0.749598 0
M  V30 1726 H 173.524 0.499853 1.76561 0
M  V30 1727 H 171.906 -1.18959 3.7771 0
M  V30 1728 H 173.08 1.61848 4.31442 0
M  V30 1729 H 171.395 1.31336 3.95145 0
M  V30 1730 H 173.992 -1.16225 5.21916 0
M  V30 1731 H 174.335 -1.93019 3.68849 0
M  V30 1732 H 174.868 -0.25487 3.96983 0
M  V30 1733 H 171.607 1.53831 6.37194 0
M  V30 1734 H 171.127 -0.132628 5.99653 0
M  V30 1735 H 172.806 0.232134 6.46583 0
M  V30 1736 N 172.938 -1.57226 0.108567 0
M  V30 1737 C 173.868 -2.17778 -0.84232 0
M  V30 1738 C 174.849 -1.11487 -1.2847 0
M  V30 1739 O 176.034 -1.39681 -1.34918 0
M  V30 1740 C 173.164 -2.76888 -2.09644 0
M  V30 1741 C 172.118 -3.88669 -1.79221 0
M  V30 1742 C 171.444 -4.34541 -3.11574 0
M  V30 1743 C 172.744 -5.11251 -1.06864 0
M  V30 1744 H 174.438 -2.97489 -0.337774 0
M  V30 1745 H 171.984 -1.43097 -0.161025 0
M  V30 1746 H 173.937 -3.17904 -2.76614 0
M  V30 1747 H 172.661 -1.94451 -2.62405 0
M  V30 1748 H 171.32 -3.48213 -1.14644 0
M  V30 1749 H 170.968 -3.48977 -3.62249 0
M  V30 1750 H 170.668 -5.09914 -2.91996 0
M  V30 1751 H 172.192 -4.782 -3.7968 0
M  V30 1752 H 173.606 -5.49352 -1.63968 0
M  V30 1753 H 172.003 -5.9214 -0.974178 0
M  V30 1754 H 173.073 -4.8487 -0.0536168 0
M  V30 1755 N 174.416 0.165178 -1.56732 0
M  V30 1756 C 175.662 0.882112 -1.82611 0
M  V30 1757 C 175.995 1.81628 -0.687378 0
M  V30 1758 O 175.27 1.92009 0.310267 0
M  V30 1759 C 175.553 1.67245 -3.18906 0
M  V30 1760 C 175.406 0.760987 -4.43316 0
M  V30 1761 C 176.725 2.63884 -3.52212 0
M  V30 1762 H 173.844 0.319242 -0.664269 0
M  V30 1763 H 176.486 0.148052 -1.89422 0
M  V30 1764 H 174.636 2.29824 -3.1323 0
M  V30 1765 H 176.308 0.147596 -4.61064 0
M  V30 1766 H 174.551 0.0694102 -4.33744 0
M  V30 1767 H 175.222 1.34962 -5.35247 0
M  V30 1768 H 177.698 2.11429 -3.58381 0
M  V30 1769 H 176.574 3.16245 -4.48643 0
M  V30 1770 H 176.835 3.44377 -2.77231 0
M  V30 1771 N 175.894 1.51508 0.433938 0
M  V30 1772 C 177.142 1.6402 1.18075 0
M  V30 1773 C 177.463 0.360328 1.91642 0
M  V30 1774 O 176.733 -0.623945 1.85698 0
M  V30 1775 H 175.313 0.6045 0.43885 0
M  V30 1776 H 177.975 1.88452 0.497178 0
M  V30 1777 H 177.071 2.46949 1.90847 0
M  V30 1778 N 177.372 -0.689602 1.41712 0
M  V30 1779 C 178.335 -1.78521 1.43746 0
M  V30 1780 C 179.335 -1.57436 0.327191 0
M  V30 1781 O 180.525 -1.64 0.587348 0
M  V30 1782 C 177.657 -3.16971 1.25467 0
M  V30 1783 H 178.85 -1.78108 2.41283 0
M  V30 1784 H 176.403 -0.89781 1.27942 0
M  V30 1785 H 177.138 -3.23019 0.287948 0
M  V30 1786 H 176.923 -3.33678 2.05917 0
M  V30 1787 H 178.413 -3.96935 1.2974 0
M  V30 1788 N 178.85 -1.27639 -0.924453 0
M  V30 1789 C 179.813 -1.10681 -2.00705 0
M  V30 1790 C 180.813 -0.0497823 -1.60723 0
M  V30 1791 O 182.003 -0.294654 -1.7169 0
M  V30 1792 C 179.135 -0.687164 -3.33902 0
M  V30 1793 H 180.328 -2.06817 -2.17179 0
M  V30 1794 H 177.881 -1.10473 -1.10569 0
M  V30 1795 H 178.616 0.275439 -3.23128 0
M  V30 1796 H 178.401 -1.45061 -3.6428 0
M  V30 1797 H 179.891 -0.590853 -4.13399 0
M  V30 1798 N 180.328 1.1314 -1.09713 0
M  V30 1799 C 181.739 1.66029 -0.853885 0
M  V30 1800 C 182.09 1.86241 0.617142 0
M  V30 1801 O 181.215 1.5834 1.47503 0
M  V30 1802 C 181.81 3.01599 -1.5435 0
M  V30 1803 C 180.369 3.51467 -1.34714 0
M  V30 1804 C 179.516 2.26648 -1.59769 0
M  V30 1805 H 182.467 0.970226 -1.25588 0
M  V30 1806 H 182.488 3.67709 -0.978267 0
M  V30 1807 H 182 2.86856 -2.6141 0
M  V30 1808 H 180.101 3.71408 -0.297838 0
M  V30 1809 H 180.214 4.314 -2.08401 0
M  V30 1810 H 178.578 2.33385 -1.01998 0
M  V30 1811 H 179.361 2.14467 -2.68065 0
M  V30 1812 N 181.806 0.884767 1.30421 0
M  V30 1813 C 183.052 0.503851 1.96441 0
M  V30 1814 C 183.385 -0.944518 1.69684 0
M  V30 1815 O 182.66 -1.66737 1.00145 0
M  V30 1816 C 182.943 0.779085 3.51571 0
M  V30 1817 C 182.796 2.27807 3.87846 0
M  V30 1818 C 184.115 0.255452 4.39358 0
M  V30 1819 H 181.234 0.184533 0.713524 0
M  V30 1820 H 183.876 1.10872 1.54297 0
M  V30 1821 H 182.026 0.264274 3.876 0
M  V30 1822 H 183.698 2.86127 3.61841 0
M  V30 1823 H 181.941 2.74479 3.35922 0
M  V30 1824 H 182.612 2.42125 4.96064 0
M  V30 1825 H 185.088 0.696079 4.10236 0
M  V30 1826 H 183.964 0.477361 5.4682 0
M  V30 1827 H 184.225 -0.843293 4.33983 0
M  V30 1828 N 183.284 -1.43765 0.645699 0
M  V30 1829 C 184.514 -2.05953 0.163318 0
M  V30 1830 C 184.922 -1.48432 -1.17322 0
M  V30 1831 O 184.265 -0.607295 -1.73371 0
M  V30 1832 C 184.327 -3.59499 -0.0103065 0
M  V30 1833 C 183.991 -4.39563 1.25035 0
M  V30 1834 C 184.988 -4.72108 2.17739 0
M  V30 1835 C 182.673 -4.79697 1.48983 0
M  V30 1836 C 184.667 -5.43688 3.3269 0
M  V30 1837 C 182.354 -5.51023 2.64229 0
M  V30 1838 C 183.352 -5.8294 3.55908 0
M  V30 1839 O 183.04 -6.5281 4.69142 0
M  V30 1840 H 182.772 -0.670798 0.0836986 0
M  V30 1841 H 185.326 -1.85384 0.884407 0
M  V30 1842 H 183.556 -3.78613 -0.78669 0
M  V30 1843 H 185.245 -4.03408 -0.449087 0
M  V30 1844 H 186.011 -4.41627 2.00476 0
M  V30 1845 H 181.89 -4.54266 0.785078 0
M  V30 1846 H 185.434 -5.68517 4.04269 0
M  V30 1847 H 181.331 -5.8092 2.81429 0
M  V30 1848 H 182.099 -6.71288 4.6831 0
M  V30 1849 N 184.763 -0.387143 -1.52771 0
M  V30 1850 C 185.713 0.465942 -2.23188 0
M  V30 1851 C 186.697 1.03138 -1.23496 0
M  V30 1852 O 187.889 0.957845 -1.48843 0
M  V30 1853 C 185.018 1.59384 -3.04059 0
M  V30 1854 C 184.104 1.04024 -4.11144 0
M  V30 1855 N 184.495 0.211416 -5.05358 0
M  V30 1856 C 182.793 1.31295 -4.26237 0
M  V30 1857 C 183.494 -0.0941698 -5.81624 0
M  V30 1858 N 182.47 0.509207 -5.4121 0
M  V30 1859 H 186.272 -0.173856 -2.93385 0
M  V30 1860 H 183.786 -0.19633 -1.61209 0
M  V30 1861 H 185.783 2.21738 -3.53041 0
M  V30 1862 H 184.443 2.23648 -2.35397 0
M  V30 1863 H 185.454 -0.151151 -5.17679 0
M  V30 1864 H 182.131 1.95679 -3.68803 0
M  V30 1865 H 183.521 -0.765572 -6.67524 0
M  V30 1866 N 186.241 1.57166 -0.116904 0
M  V30 1867 C 187.174 2.10912 0.871291 0
M  V30 1868 C 188.152 1.025 1.26224 0
M  V30 1869 O 189.336 1.3014 1.36366 0
M  V30 1870 C 186.463 2.6041 2.16574 0
M  V30 1871 C 185.509 3.80687 1.92302 0
M  V30 1872 S 186.342 5.23199 1.14119 0
M  V30 1873 C 187.498 5.76064 2.44748 0
M  V30 1874 H 187.731 2.94401 0.414138 0
M  V30 1875 H 185.264 1.54096 0.096829 0
M  V30 1876 H 187.222 2.89583 2.9095 0
M  V30 1877 H 185.883 1.77106 2.59408 0
M  V30 1878 H 185.076 4.13462 2.8821 0
M  V30 1879 H 184.678 3.5212 1.26047 0
M  V30 1880 H 186.97 5.8566 3.406 0
M  V30 1881 H 187.913 6.74184 2.16521 0
M  V30 1882 H 188.321 5.04117 2.54019 0
M  V30 1883 N 187.719 -0.156864 1.56817 0
M  V30 1884 C 188.667 -1.21319 1.98455 0
M  V30 1885 C 189.661 -1.45025 0.875444 0
M  V30 1886 O 190.867 -1.45435 1.0606 0
M  V30 1887 H 187.242 -0.408142 0.631605 0
M  V30 1888 H 189.213 -0.835244 2.86472 0
M  V30 1889 C 187.962 -2.54148 2.37285 0
M  V30 1890 H 187.285 -2.36733 3.22176 0
M  V30 1891 H 188.725 -3.26712 2.70251 0
M  V30 1892 C 187.184 -3.13967 1.22173 0
M  V30 1893 O 187.714 -3.98357 0.517149 0
M  V30 1894 N 185.92 -2.7327 0.988536 0
M  V30 1895 H 185.467 -2.04744 1.56326 0
M  V30 1896 H 185.425 -3.13628 0.220209 0
M  V30 1897 N 189.197 -1.51736 -0.425897 0
M  V30 1898 C 190.443 -1.65214 -1.1761 0
M  V30 1899 C 190.776 -0.372778 -1.90589 0
M  V30 1900 O 190.051 0.628139 -1.84078 0
M  V30 1901 C 190.334 -2.86312 -2.18398 0
M  V30 1902 C 190.187 -4.24254 -1.49426 0
M  V30 1903 C 191.506 -3.02925 -3.19256 0
M  V30 1904 H 188.625 -0.601263 -0.426206 0
M  V30 1905 H 191.267 -1.8425 -0.463882 0
M  V30 1906 H 189.417 -2.70213 -2.79137 0
M  V30 1907 H 191.089 -4.52046 -0.919362 0
M  V30 1908 H 189.332 -4.26426 -0.796432 0
M  V30 1909 H 190.003 -5.05001 -2.22885 0
M  V30 1910 H 192.479 -3.1781 -2.68581 0
M  V30 1911 H 191.355 -3.89199 -3.8706 0
M  V30 1912 H 191.616 -2.15497 -3.86023 0
M  V30 1913 N 190.675 0.682077 -1.42076 0
M  V30 1914 C 191.924 1.43786 -1.41451 0
M  V30 1915 C 192.237 1.95574 -0.0317074 0
M  V30 1916 O 193.443 2.71326 0.0971462 0
M  V30 1917 C 191.899 2.60071 -2.48779 0
M  V30 1918 C 191.507 2.15013 -3.93031 0
M  V30 1919 C 193.251 3.37626 -2.57311 0
M  V30 1920 C 191.158 3.28336 -4.91883 0
M  V30 1921 H 190.088 0.540143 -0.526082 0
M  V30 1922 H 192.739 0.739157 -1.67955 0
M  V30 1923 H 191.121 3.32275 -2.15429 0
M  V30 1924 H 192.295 1.5001 -4.35699 0
M  V30 1925 H 190.61 1.50416 -3.88284 0
M  V30 1926 H 193.207 4.22012 -3.28345 0
M  V30 1927 H 193.55 3.83727 -1.61429 0
M  V30 1928 H 194.083 2.72488 -2.89819 0
M  V30 1929 H 190.822 2.87234 -5.89217 0
M  V30 1930 H 190.342 3.92145 -4.53853 0
M  V30 1931 H 192.021 3.93913 -5.13265 0
M  V30 1932 N 192.153 1.28127 0.917671 0
M  V30 1933 C 193.564 1.13622 1.48145 0
M  V30 1934 C 193.915 -0.275207 1.9426 0
M  V30 1935 O 193.04 -1.1691 1.82102 0
M  V30 1936 C 193.635 2.05648 2.69248 0
M  V30 1937 C 192.194 1.95219 3.21818 0
M  V30 1938 C 191.341 1.97618 1.94532 0
M  V30 1939 H 194.292 1.40874 0.730772 0
M  V30 1940 H 194.313 1.61818 3.44377 0
M  V30 1941 H 193.825 3.08365 2.35653 0
M  V30 1942 H 191.926 0.955244 3.60147 0
M  V30 1943 H 192.039 2.81976 3.87333 0
M  V30 1944 H 190.403 1.41973 2.11461 0
M  V30 1945 H 191.186 3.02007 1.63238 0
M  V30 1946 N 193.631 -1.12557 1.10312 0
M  V30 1947 C 194.856 -1.88405 0.867085 0
M  V30 1948 C 195.281 -1.79038 -0.576817 0
M  V30 1949 O 194.639 -1.14439 -1.40618 0
M  V30 1950 C 194.687 -3.3563 1.31851 0
M  V30 1951 O 193.791 -4.09565 0.482734 0
M  V30 1952 H 193.132 -0.585455 0.313271 0
M  V30 1953 H 195.662 -1.42352 1.4696 0
M  V30 1954 H 195.672 -3.86469 1.3079 0
M  V30 1955 H 194.347 -3.41765 2.37001 0
M  V30 1956 H 192.924 -3.68695 0.558448 0
M  V30 1957 N 195.109 -0.891671 -1.2995 0
M  V30 1958 C 196.056 -0.361736 -2.27948 0
M  V30 1959 C 197.026 0.551761 -1.56668 0
M  V30 1960 O 198.211 0.478736 -1.84696 0
M  V30 1961 C 195.351 0.411825 -3.42634 0
M  V30 1962 C 194.464 -0.531651 -4.28716 0
M  V30 1963 C 193.599 0.258167 -5.30572 0
M  V30 1964 C 192.638 -0.680349 -6.08307 0
M  V30 1965 N 191.775 0.0745613 -7.0206 0
M  V30 1966 H 196.615 -1.20254 -2.72659 0
M  V30 1967 H 194.152 -0.604352 -1.34112 0
M  V30 1968 H 196.11 0.876304 -4.07893 0
M  V30 1969 H 194.74 1.21715 -2.98974 0
M  V30 1970 H 193.792 -1.11463 -3.63703 0
M  V30 1971 H 195.104 -1.25038 -4.82874 0
M  V30 1972 H 194.258 0.784204 -6.0161 0
M  V30 1973 H 192.997 1.01008 -4.77126 0
M  V30 1974 H 192.002 -1.21796 -5.3614 0
M  V30 1975 H 193.227 -1.43145 -6.63842 0
M  V30 1976 H 191.173 0.808883 -6.50994 0
M  V30 1977 H 191.09 -0.584409 -7.53738 0
M  V30 1978 H 192.358 0.581123 -7.77331 0
M  V30 1979 N 196.587 1.43421 -0.653314 0
M  V30 1980 C 197.817 2.05864 -0.174238 0
M  V30 1981 C 198.225 1.49052 1.16534 0
M  V30 1982 O 197.568 0.616481 1.73047 0
M  V30 1983 C 197.63 3.59499 -0.00875873 0
M  V30 1984 C 197.294 4.38893 -1.27364 0
M  V30 1985 C 198.291 4.70947 -2.20239 0
M  V30 1986 C 195.976 4.789 -1.51525 0
M  V30 1987 C 197.97 5.41916 -3.35568 0
M  V30 1988 C 195.657 5.49614 -2.67147 0
M  V30 1989 C 196.655 5.81044 -3.58994 0
M  V30 1990 O 196.343 6.50313 -4.72597 0
M  V30 1991 H 196.075 0.670345 -0.0872549 0
M  V30 1992 H 198.629 1.84913 -0.894226 0
M  V30 1993 H 196.859 3.79025 0.7666 0
M  V30 1994 H 198.548 4.0364 0.427687 0
M  V30 1995 H 199.314 4.40558 -2.02815 0
M  V30 1996 H 195.193 4.53843 -0.809158 0
M  V30 1997 H 198.737 5.66365 -4.07279 0
M  V30 1998 H 194.634 5.79419 -2.84505 0
M  V30 1999 H 195.402 6.68795 -4.71864 0
M  V30 2000 N 198.065 0.39524 1.52563 0
M  V30 2001 C 199.481 0.0454682 1.59535 0
M  V30 2002 C 199.681 -1.44056 1.4089 0
M  V30 2003 O 198.737 -2.20579 1.22888 0
M  V30 2004 C 200.05 0.527963 2.96029 0
M  V30 2005 C 201.598 0.484733 3.09224 0
M  V30 2006 C 202.073 0.943512 4.48176 0
M  V30 2007 N 203.564 0.899765 4.54377 0
M  V30 2008 C 204.299 1.22609 5.60138 0
M  V30 2009 N 203.795 1.62319 6.73516 0
M  V30 2010 N 205.588 1.14696 5.50274 0
M  V30 2011 H 197.739 1.36261 1.62931 0
M  V30 2012 H 200.002 0.558887 0.765735 0
M  V30 2013 H 199.708 1.56607 3.14908 0
M  V30 2014 H 199.582 -0.0698056 3.77135 0
M  V30 2015 H 201.969 -0.544298 2.90037 0
M  V30 2016 H 202.05 1.11838 2.30056 0
M  V30 2017 H 201.694 1.9708 4.68104 0
M  V30 2018 H 201.624 0.286817 5.25818 0
M  V30 2019 H 204.115 0.607632 3.72983 0
M  V30 2020 H 204.428 1.85567 7.5019 0
M  V30 2021 H 202.773 1.66211 6.74833 0
M  V30 2022 H 205.964 0.835701 4.6058 0
M  V30 2023 H 206.137 1.40459 6.32594 0
M  V30 2024 N 199.544 -1.57102 0.125237 0
M  V30 2025 C 200.821 -1.86953 -0.575142 0
M  V30 2026 C 201.201 -1.02749 -1.84407 0
M  V30 2027 O 200.549 -0.108144 -2.28244 0
M  V30 2028 C 200.759 -3.38198 -0.861583 0
M  V30 2029 C 202.107 -4.06937 -1.21192 0
M  V30 2030 O 203.131 -3.43252 -0.951645 0
M  V30 2031 O 201.99 -5.19364 -1.70068 0
M  V30 2032 H 199.084 -0.774147 -0.290906 0
M  V30 2033 H 201.63 -1.68942 0.160211 0
M  V30 2034 H 200.402 -3.91282 0.0373647 0
M  V30 2035 H 200.025 -3.61661 -1.65188 0
M  V30 2036 N 201.022 0.148545 -1.56898 0
M  V30 2037 C 201.932 1.20293 -2.01412 0
M  V30 2038 C 202.948 1.47107 -0.929273 0
M  V30 2039 O 204.124 1.58807 -1.23863 0
M  V30 2040 C 201.189 2.51682 -2.38447 0
M  V30 2041 C 200.25 2.32529 -3.60872 0
M  V30 2042 C 199.483 3.57653 -3.96132 0
M  V30 2043 O 199.706 4.63771 -3.32073 0
M  V30 2044 O 198.64 3.50408 -4.89385 0
M  V30 2045 H 202.466 0.855025 -2.91416 0
M  V30 2046 H 200.051 0.357151 -1.45068 0
M  V30 2047 H 201.933 3.29147 -2.63135 0
M  V30 2048 H 200.608 2.86006 -1.51599 0
M  V30 2049 H 199.515 1.53019 -3.41373 0
M  V30 2050 H 200.848 2.03121 -4.48333 0
M  V30 2051 N 202.5 1.5196 0.417844 0
M  V30 2052 C 203.43 1.77634 1.51554 0
M  V30 2053 C 204.411 0.626918 1.58126 0
M  V30 2054 O 205.596 0.871632 1.7354 0
M  V30 2055 C 202.726 1.91911 2.8946 0
M  V30 2056 C 201.68 3.07463 2.97743 0
M  V30 2057 C 201.006 3.06951 4.37819 0
M  V30 2058 C 202.306 4.47082 2.70027 0
M  V30 2059 H 204 2.6955 1.3032 0
M  V30 2060 H 201.546 1.29706 0.625492 0
M  V30 2061 H 203.499 2.08455 3.6623 0
M  V30 2062 H 202.223 0.966598 3.11969 0
M  V30 2063 H 200.882 2.90656 2.23416 0
M  V30 2064 H 200.53 2.09438 4.57323 0
M  V30 2065 H 200.23 3.84556 4.44286 0
M  V30 2066 H 201.754 3.25613 5.16535 0
M  V30 2067 H 203.168 4.6414 3.36522 0
M  V30 2068 H 201.565 5.2654 2.87881 0
M  V30 2069 H 202.635 4.55777 1.65514 0
M  V30 2070 N 203.978 -0.674533 1.42435 0
M  V30 2071 C 205.206 -1.46283 1.46317 0
M  V30 2072 C 205.621 -1.88653 0.0745836 0
M  V30 2073 O 204.978 -1.58151 -0.91074 0
M  V30 2074 C 205.029 -2.71178 2.3905 0
M  V30 2075 O 204.75 -2.30586 3.72507 0
M  V30 2076 C 206.251 -3.64738 2.51955 0
M  V30 2077 H 203.471 -0.450104 0.497642 0
M  V30 2078 H 206.015 -0.828792 1.86953 0
M  V30 2079 H 204.17 -3.3077 2.01667 0
M  V30 2080 H 204.584 -3.11241 4.22172 0
M  V30 2081 H 206.058 -4.49096 3.20962 0
M  V30 2082 H 206.535 -4.10656 1.55752 0
M  V30 2083 H 207.141 -3.11038 2.90061 0
M  V30 2084 N 205.456 -1.28612 -0.910864 0
M  V30 2085 C 206.419 -1.12803 -1.9952 0
M  V30 2086 C 207.419 -0.0668264 -1.60661 0
M  V30 2087 O 208.609 -0.312847 -1.71368 0
M  V30 2088 C 205.741 -0.72254 -3.33155 0
M  V30 2089 H 206.934 -2.09109 -2.14973 0
M  V30 2090 H 204.487 -1.11639 -1.09391 0
M  V30 2091 H 205.222 0.241152 -3.23402 0
M  V30 2092 H 205.007 -1.48916 -3.62721 0
M  V30 2093 H 206.497 -0.634666 -4.12749 0
M  V30 2094 N 206.934 1.1197 -1.10907 0
M  V30 2095 C 207.881 2.17846 -0.762345 0
M  V30 2096 C 208.851 1.63995 0.263599 0
M  V30 2097 O 210.036 1.90273 0.141773 0
M  V30 2098 C 207.176 3.44487 -0.205651 0
M  V30 2099 C 206.289 4.12369 -1.28748 0
M  V30 2100 C 205.424 5.26674 -0.691919 0
M  V30 2101 C 204.463 5.86431 -1.75399 0
M  V30 2102 N 203.6 6.92142 -1.17833 0
M  V30 2103 H 208.44 2.46851 -1.6694 0
M  V30 2104 H 205.977 1.21188 -0.833776 0
M  V30 2105 H 207.935 4.16981 0.135037 0
M  V30 2106 H 206.565 3.15884 0.664613 0
M  V30 2107 H 205.617 3.38003 -1.74522 0
M  V30 2108 H 206.929 4.52844 -2.09125 0
M  V30 2109 H 206.083 6.05953 -0.300963 0
M  V30 2110 H 204.822 4.8749 0.143232 0
M  V30 2111 H 203.827 5.05835 -2.15432 0
M  V30 2112 H 205.052 6.27685 -2.59208 0
M  V30 2113 H 202.998 6.54985 -0.364725 0
M  V30 2114 H 202.915 7.31242 -1.91887 0
M  V30 2115 H 204.183 7.75237 -0.81408 0
M  V30 2116 N 208.412 0.89855 1.29475 0
M  V30 2117 C 209.342 0.39201 2.30186 0
M  V30 2118 C 210.323 -0.532359 1.61555 0
M  V30 2119 O 211.508 -0.443331 1.89072 0
M  V30 2120 C 208.638 -0.382353 3.45189 0
M  V30 2121 C 207.592 0.451483 4.25612 0
M  V30 2122 C 206.918 -0.450307 5.328 0
M  V30 2123 C 208.218 1.70079 4.93832 0
M  V30 2124 H 209.912 1.23362 2.72804 0
M  V30 2125 H 207.458 0.594638 1.31149 0
M  V30 2126 H 209.411 -0.747451 4.14718 0
M  V30 2127 H 208.135 -1.25774 3.01411 0
M  V30 2128 H 206.794 0.798897 3.57789 0
M  V30 2129 H 206.442 -1.32379 4.85268 0
M  V30 2130 H 206.142 0.103902 5.87508 0
M  V30 2131 H 207.666 -0.811623 6.05182 0
M  V30 2132 H 209.08 1.40549 5.55805 0
M  V30 2133 H 207.477 2.19623 5.58467 0
M  V30 2134 H 208.547 2.43744 4.19186 0
M  V30 2135 N 209.89 -1.43072 0.660911 0
M  V30 2136 C 211.138 -2.01323 0.177094 0
M  V30 2137 C 211.459 -1.5245 -1.2159 0
M  V30 2138 O 210.729 -0.740322 -1.81373 0
M  V30 2139 H 209.309 -0.744382 0.0624804 0
M  V30 2140 H 211.971 -1.75179 0.854305 0
M  V30 2141 H 211.067 -3.11649 0.167641 0
M  V30 2142 N 211.368 -0.403325 -1.52352 0
M  V30 2143 C 212.315 0.425011 -2.26853 0
M  V30 2144 C 213.285 1.04598 -1.29029 0
M  V30 2145 O 214.47 1.07135 -1.57882 0
M  V30 2146 C 211.61 1.53888 -3.08889 0
M  V30 2147 C 210.723 0.939396 -4.21663 0
M  V30 2148 C 209.858 2.02547 -4.91068 0
M  V30 2149 C 208.897 1.40263 -5.95813 0
M  V30 2150 N 208.034 2.4286 -6.58759 0
M  V30 2151 H 212.874 -0.21674 -2.97211 0
M  V30 2152 H 210.411 -0.118722 -1.4662 0
M  V30 2153 H 212.369 2.19558 -3.54753 0
M  V30 2154 H 210.999 2.15074 -2.40714 0
M  V30 2155 H 210.051 0.171898 -3.80011 0
M  V30 2156 H 211.363 0.44436 -4.96817 0
M  V30 2157 H 210.517 2.75958 -5.40308 0
M  V30 2158 H 209.256 2.55415 -4.15469 0
M  V30 2159 H 208.261 0.653833 -5.45898 0
M  V30 2160 H 209.486 0.881719 -6.73352 0
M  V30 2161 H 207.432 2.94871 -5.85992 0
M  V30 2162 H 207.349 1.98152 -7.2957 0
M  V30 2163 H 208.617 3.15858 -7.12639 0
M  V30 2164 N 212.846 1.57033 -0.133567 0
M  V30 2165 C 213.809 2.14897 0.796995 0
M  V30 2166 C 214.809 1.0874 1.18458 0
M  V30 2167 O 215.999 1.34446 1.1077 0
M  V30 2168 C 213.131 2.70112 2.07973 0
M  V30 2169 H 214.324 2.98457 0.293873 0
M  V30 2170 H 211.877 1.55871 0.115787 0
M  V30 2171 H 212.612 1.9018 2.62682 0
M  V30 2172 H 212.397 3.47764 1.81115 0
M  V30 2173 H 213.887 3.14738 2.74462 0
M  V30 2174 N 214.325 -0.140222 1.56975 0
M  V30 2175 C 215.288 -1.15689 1.97861 0
M  V30 2176 C 216.288 -1.3549 0.865974 0
M  V30 2177 O 217.478 -1.32367 1.13246 0
M  V30 2178 C 214.61 -2.51582 2.30042 0
M  V30 2179 H 215.803 -0.805971 2.88867 0
M  V30 2180 H 213.356 -0.383801 1.51515 0
M  V30 2181 H 214.091 -2.91632 1.41849 0
M  V30 2182 H 213.876 -2.38569 3.11171 0
M  V30 2183 H 215.366 -3.24792 2.62488 0
M  V30 2184 N 215.803 -1.52179 -0.40978 0
M  V30 2185 C 216.713 -1.78364 -1.52392 0
M  V30 2186 C 217.729 -0.669183 -1.60617 0
M  V30 2187 O 218.905 -0.954518 -1.77344 0
M  V30 2188 C 215.97 -1.92822 -2.88133 0
M  V30 2189 C 215.031 -3.16725 -2.898 0
M  V30 2190 C 214.264 -3.30483 -4.19067 0
M  V30 2191 O 214.487 -2.49522 -5.12928 0
M  V30 2192 O 213.421 -4.2363 -4.27576 0
M  V30 2193 H 217.247 -2.72931 -1.33201 0
M  V30 2194 H 214.832 -1.37016 -0.59557 0
M  V30 2195 H 216.714 -2.04157 -3.68643 0
M  V30 2196 H 215.389 -1.01444 -3.07393 0
M  V30 2197 H 214.296 -3.10848 -2.08146 0
M  V30 2198 H 215.629 -4.07881 -2.75489 0
M  V30 2199 N 217.281 0.66697 -1.42791 0
M  V30 2200 C 218.229 1.80157 -1.47127 0
M  V30 2201 C 219.223 1.65825 -0.346199 0
M  V30 2202 O 220.429 1.72338 -0.519572 0
M  V30 2203 H 216.804 0.594158 -0.460956 0
M  V30 2204 H 218.775 1.73619 -2.42692 0
M  V30 2205 C 217.524 3.18351 -1.39813 0
M  V30 2206 H 216.847 3.3001 -2.25684 0
M  V30 2207 H 218.287 3.97736 -1.46908 0
M  V30 2208 C 216.746 3.36707 -0.11391 0
M  V30 2209 O 217.276 3.93027 0.830241 0
M  V30 2210 N 215.482 2.90586 -0.0285295 0
M  V30 2211 H 215.029 2.4494 -0.79764 0
M  V30 2212 H 214.987 3.03245 0.830063 0
M  V30 2213 N 218.759 1.29093 0.90403 0
M  V30 2214 C 220.008 1.16187 1.64874 0
M  V30 2215 C 220.321 -0.286742 1.93487 0
M  V30 2216 O 221.527 -0.537062 2.66135 0
M  V30 2217 C 219.983 2.03177 2.97064 0
M  V30 2218 C 219.591 3.52836 2.76062 0
M  V30 2219 C 221.335 1.98984 3.74974 0
M  V30 2220 C 219.242 4.31945 4.03952 0
M  V30 2221 H 218.172 0.431246 0.618501 0
M  V30 2222 H 220.823 1.53699 1.00243 0
M  V30 2223 H 219.205 1.5853 3.62883 0
M  V30 2224 H 220.379 4.05507 2.18863 0
M  V30 2225 H 218.694 3.58656 2.11553 0
M  V30 2226 H 221.291 2.55351 4.69787 0
M  V30 2227 H 221.634 0.968815 4.0487 0
M  V30 2228 H 222.167 2.41652 3.15989 0
M  V30 2229 H 218.906 5.34667 3.79225 0
M  V30 2230 H 218.426 3.84045 4.60727 0
M  V30 2231 H 220.105 4.42379 4.72133 0
M  V30 2232 N 220.237 -1.11381 1.11499 0
M  V30 2233 C 221.465 -1.86934 0.88675 0
M  V30 2234 C 221.88 -1.80195 -0.563476 0
M  V30 2235 O 221.237 -1.18367 -1.38908 0
M  V30 2236 C 221.288 -3.35722 1.34064 0
M  V30 2237 O 221.009 -3.4232 2.73401 0
M  V30 2238 C 222.51 -4.2818 1.14791 0
M  V30 2239 H 219.73 -0.591117 0.317523 0
M  V30 2240 H 222.274 -1.40865 1.48248 0
M  V30 2241 H 220.429 -3.79294 0.788355 0
M  V30 2242 H 220.843 -4.34971 2.93087 0
M  V30 2243 H 222.317 -5.30817 1.5145 0
M  V30 2244 H 222.794 -4.39113 0.0875279 0
M  V30 2245 H 223.4 -3.90402 1.68721 0
M  V30 2246 N 221.715 -0.905404 -1.28997 0
M  V30 2247 C 222.645 -0.404212 -2.29975 0
M  V30 2248 C 223.626 0.523784 -1.61835 0
M  V30 2249 O 224.811 0.433298 -1.89304 0
M  V30 2250 C 221.941 0.364042 -3.45387 0
M  V30 2251 C 220.895 -0.474048 -4.25367 0
M  V30 2252 C 220.221 0.422045 -5.33032 0
M  V30 2253 C 221.521 -1.72696 -4.92923 0
M  V30 2254 H 223.215 -1.24807 -2.72146 0
M  V30 2255 H 220.761 -0.601585 -1.30832 0
M  V30 2256 H 222.714 0.725447 -4.15109 0
M  V30 2257 H 221.438 1.24174 -3.02074 0
M  V30 2258 H 220.097 -0.81786 -3.57361 0
M  V30 2259 H 219.745 1.29804 -4.85963 0
M  V30 2260 H 219.445 -0.135057 -5.87445 0
M  V30 2261 H 220.969 0.779517 -6.05604 0
M  V30 2262 H 222.383 -1.43495 -5.55051 0
M  V30 2263 H 220.78 -2.22582 -5.57295 0
M  V30 2264 H 221.85 -2.45964 -4.17887 0
M  V30 2265 N 223.193 1.4272 -0.668489 0
M  V30 2266 C 224.141 2.32586 0.0254857 0
M  V30 2267 C 225.135 1.49471 0.797176 0
M  V30 2268 O 226.341 1.65583 0.705853 0
M  V30 2269 H 222.716 0.751514 0.0270339 0
M  V30 2270 H 224.687 2.88823 -0.749936 0
M  V30 2271 C 223.436 3.3397 0.967427 0
M  V30 2272 H 222.759 3.97961 0.383048 0
M  V30 2273 H 224.199 3.9945 1.42181 0
M  V30 2274 C 222.658 2.65744 2.0708 0
M  V30 2275 O 223.188 2.48454 3.15648 0
M  V30 2276 N 221.394 2.2487 1.8407 0
M  V30 2277 H 220.941 2.39132 0.95778 0
M  V30 2278 H 220.899 1.79552 2.58086 0
M  V30 2279 N 224.671 0.411399 1.52136 0
M  V30 2280 C 225.917 -0.163888 2.02137 0
M  V30 2281 C 226.25 -1.44597 1.29636 0
M  V30 2282 O 225.525 -1.90272 0.403353 0
M  V30 2283 C 225.808 -0.40927 3.57767 0
M  V30 2284 C 225.661 0.889643 4.40914 0
M  V30 2285 C 226.98 -1.19042 4.23694 0
M  V30 2286 H 224.099 -0.0580896 0.734707 0
M  V30 2287 H 226.741 0.54531 1.82007 0
M  V30 2288 H 224.891 -1.0134 3.7505 0
M  V30 2289 H 226.563 1.52575 4.35337 0
M  V30 2290 H 224.806 1.50011 4.07037 0
M  V30 2291 H 225.477 0.672314 5.4789 0
M  V30 2292 H 227.953 -0.678942 4.10524 0
M  V30 2293 H 226.829 -1.33086 5.32522 0
M  V30 2294 H 227.09 -2.21166 3.82803 0
M  V30 2295 N 226.149 -1.5696 0.141893 0
M  V30 2296 C 227.112 -2.15316 -0.785587 0
M  V30 2297 C 228.112 -1.09366 -1.1788 0
M  V30 2298 O 229.302 -1.35031 -1.10056 0
M  V30 2299 C 226.434 -2.71211 -2.06537 0
M  V30 2300 H 227.627 -2.98608 -0.278041 0
M  V30 2301 H 225.18 -1.5593 -0.107519 0
M  V30 2302 H 225.915 -1.91571 -2.6167 0
M  V30 2303 H 225.7 -3.4872 -1.79268 0
M  V30 2304 H 227.19 -3.16189 -2.72789 0
M  V30 2305 N 227.627 0.131896 -1.57047 0
M  V30 2306 C 228.852 0.860418 -1.8871 0
M  V30 2307 C 229.277 1.73251 -0.73251 0
M  V30 2308 O 228.635 1.785 0.317429 0
M  V30 2309 C 228.683 1.68047 -3.19049 0
M  V30 2310 O 227.787 2.7862 -3.04047 0
M  V30 2311 H 227.128 0.238743 -0.619595 0
M  V30 2312 H 229.658 0.118169 -2.04258 0
M  V30 2313 H 229.668 2.07238 -3.51449 0
M  V30 2314 H 228.343 1.04018 -4.02682 0
M  V30 2315 H 226.92 2.42726 -2.83088 0
M  V30 2316 N 229.106 1.52395 0.401703 0
M  V30 2317 C 230.039 1.70999 1.51111 0
M  V30 2318 C 231.017 0.55765 1.52738 0
M  V30 2319 O 232.201 0.785912 1.71335 0
M  V30 2320 C 229.328 1.75607 2.8962 0
M  V30 2321 C 228.374 2.97227 3.05873 0
M  V30 2322 S 229.207 4.57439 2.78405 0
M  V30 2323 C 230.363 4.64844 4.19131 0
M  V30 2324 H 230.596 2.6483 1.35102 0
M  V30 2325 H 228.129 1.42527 0.593762 0
M  V30 2326 H 230.087 1.78947 3.69443 0
M  V30 2327 H 228.748 0.828914 3.02965 0
M  V30 2328 H 227.941 2.96955 4.07227 0
M  V30 2329 H 227.543 2.91813 2.33925 0
M  V30 2330 H 229.835 4.42677 5.12877 0
M  V30 2331 H 230.778 5.66807 4.24424 0
M  V30 2332 H 231.186 3.93804 4.04448 0
M  V30 2333 N 230.584 -0.659388 1.43143 0
M  V30 2334 C 231.812 -1.44723 1.47861 0
M  V30 2335 C 232.227 -1.88563 0.0945886 0
M  V30 2336 O 231.584 -1.59108 -0.893915 0
M  V30 2337 C 231.635 -2.68627 2.41913 0
M  V30 2338 O 231.356 -2.26623 3.74932 0
M  V30 2339 C 232.857 -3.62045 2.55809 0
M  V30 2340 H 230.077 -0.444801 0.502387 0
M  V30 2341 H 232.621 -0.808916 1.87821 0
M  V30 2342 H 230.776 -3.28613 2.05164 0
M  V30 2343 H 231.19 -3.06745 4.2545 0
M  V30 2344 H 232.664 -4.45666 3.25708 0
M  V30 2345 H 233.141 -4.08981 1.60099 0
M  V30 2346 H 233.747 -3.07944 2.93344 0
M  V30 2347 N 232.062 -1.29571 -0.897171 0
M  V30 2348 C 233.29 -1.20583 -1.68129 0
M  V30 2349 C 233.705 0.233181 -1.87354 0
M  V30 2350 O 233.062 1.15579 -1.41236 0
M  V30 2351 C 233.113 -1.91772 -3.06441 0
M  V30 2352 O 232.834 -3.30053 -2.88091 0
M  V30 2353 C 234.335 -1.89291 -4.00854 0
M  V30 2354 H 231.555 -0.417826 -0.525036 0
M  V30 2355 H 234.099 -1.70987 -1.12177 0
M  V30 2356 H 232.254 -1.45196 -3.59161 0
M  V30 2357 H 232.668 -3.65942 -3.75748 0
M  V30 2358 H 234.142 -2.43662 -4.95311 0
M  V30 2359 H 234.619 -0.869014 -4.30517 0
M  V30 2360 H 235.225 -2.35622 -3.54066 0
M  V30 2361 N 233.54 1.10788 -1.12088 0
M  V30 2362 C 234.765 1.87002 -0.896949 0
M  V30 2363 C 235.19 1.79933 0.548261 0
M  V30 2364 O 234.548 1.16662 1.38779 0
M  V30 2365 C 234.596 3.3349 -1.37174 0
M  V30 2366 O 233.7 4.08745 -0.547831 0
M  V30 2367 H 233.041 0.580397 -0.322545 0
M  V30 2368 H 235.571 1.39996 -1.49206 0
M  V30 2369 H 235.581 3.84339 -1.36922 0
M  V30 2370 H 234.256 3.37951 -2.42408 0
M  V30 2371 H 232.833 3.6776 -0.617034 0
M  V30 2372 N 235.018 0.912232 1.28515 0
M  V30 2373 C 235.965 0.397954 2.27343 0
M  V30 2374 C 236.935 -0.526766 1.57526 0
M  V30 2375 O 238.12 -0.449292 1.85435 0
M  V30 2376 C 235.26 -0.357263 3.43246 0
M  V30 2377 C 234.373 0.599788 4.27816 0
M  V30 2378 C 233.508 -0.173725 5.30916 0
M  V30 2379 C 232.547 0.777039 6.07148 0
M  V30 2380 N 231.684 0.0371398 7.0209 0
M  V30 2381 H 236.524 1.24577 2.70711 0
M  V30 2382 H 234.061 0.625612 1.33133 0
M  V30 2383 H 236.019 -0.8113 4.09236 0
M  V30 2384 H 234.649 -1.16943 3.00872 0
M  V30 2385 H 233.701 1.17235 3.61884 0
M  V30 2386 H 235.013 1.32704 4.80823 0
M  V30 2387 H 234.167 -0.688394 6.02782 0
M  V30 2388 H 232.906 -0.934041 4.78672 0
M  V30 2389 H 231.911 1.3031 5.34134 0
M  V30 2390 H 233.136 1.53689 6.61481 0
M  V30 2391 H 231.082 -0.705213 6.52198 0
M  V30 2392 H 230.999 0.704249 7.52713 0
M  V30 2393 H 232.267 -0.457383 7.78157 0
M  V30 2394 N 236.496 -1.42363 0.676048 0
M  V30 2395 C 237.724 -2.05859 0.207268 0
M  V30 2396 C 238.139 -1.50796 -1.13605 0
M  V30 2397 O 237.496 -0.648265 -1.70598 0
M  V30 2398 C 237.547 -3.61248 0.134975 0
M  V30 2399 O 237.268 -4.1427 1.42521 0
M  V30 2400 C 238.769 -4.41859 -0.357151 0
M  V30 2401 H 235.989 -0.663431 0.100503 0
M  V30 2402 H 238.533 -1.82479 0.923136 0
M  V30 2403 H 236.688 -3.83735 -0.531588 0
M  V30 2404 H 237.102 -5.0815 1.29939 0
M  V30 2405 H 238.576 -5.50847 -0.356641 0
M  V30 2406 H 239.053 -4.16536 -1.39264 0
M  V30 2407 H 239.659 -4.24392 0.27772 0
M  V30 2408 N 237.974 -0.419461 -1.51915 0
M  V30 2409 C 238.937 0.389116 -2.25873 0
M  V30 2410 C 239.937 0.964924 -1.28631 0
M  V30 2411 O 241.127 0.842179 -1.52489 0
M  V30 2412 C 238.259 1.54874 -3.03689 0
M  V30 2413 H 239.452 -0.258799 -2.98781 0
M  V30 2414 H 237.005 -0.172209 -1.55348 0
M  V30 2415 H 237.74 2.23323 -2.35154 0
M  V30 2416 H 237.525 1.14223 -3.75094 0
M  V30 2417 H 239.015 2.12046 -3.59759 0
M  V30 2418 N 239.452 1.56882 -0.150215 0
M  V30 2419 C 240.699 1.96228 0.500093 0
M  V30 2420 C 241.027 1.03522 1.64661 0
M  V30 2421 O 240.282 0.0650683 1.95592 0
M  V30 2422 C 240.581 3.41801 1.04437 0
M  V30 2423 C 240.247 4.50897 0.0159671 0
M  V30 2424 C 238.909 4.8046 -0.266731 0
M  V30 2425 C 241.261 5.16703 -0.683192 0
M  V30 2426 C 238.589 5.73135 -1.25434 0
M  V30 2427 C 240.941 6.10441 -1.65964 0
M  V30 2428 C 239.605 6.38382 -1.95 0
M  V30 2429 H 238.875 0.718048 0.182997 0
M  V30 2430 H 241.522 1.90019 -0.237724 0
M  V30 2431 H 239.827 3.44857 1.85959 0
M  V30 2432 H 241.524 3.69573 1.55618 0
M  V30 2433 H 238.114 4.27891 0.246485 0
M  V30 2434 H 242.298 4.93993 -0.477983 0
M  V30 2435 H 237.554 5.93074 -1.48571 0
M  V30 2436 H 241.728 6.60507 -2.20689 0
M  V30 2437 H 239.355 7.09996 -2.71679 0
M  V30 2438 N 240.93 -0.123565 1.57115 0
M  V30 2439 C 242.155 -0.850398 1.89164 0
M  V30 2440 C 242.58 -1.7286 0.741688 0
M  V30 2441 O 241.938 -1.78665 -0.307958 0
M  V30 2442 C 241.986 -1.66353 3.19936 0
M  V30 2443 O 241.09 -2.77004 3.0552 0
M  V30 2444 H 240.431 -0.235454 0.620852 0
M  V30 2445 H 242.961 -0.107335 2.04318 0
M  V30 2446 H 242.971 -2.05372 3.52543 0
M  V30 2447 H 241.646 -1.01881 4.03228 0
M  V30 2448 H 240.223 -2.41221 2.84371 0
M  V30 2449 N 242.408 -1.52605 -0.393616 0
M  V30 2450 C 243.654 -1.68624 -1.13743 0
M  V30 2451 C 244.009 -0.418687 -1.87789 0
M  V30 2452 O 243.302 0.58747 -1.82371 0
M  V30 2453 C 243.496 -2.85721 -2.14705 0
M  V30 2454 C 243.325 -4.23742 -1.50575 0
M  V30 2455 C 242.095 -4.89033 -1.2718 0
M  V30 2456 C 244.293 -5.05293 -0.958311 0
M  V30 2457 N 242.275 -6.11048 -0.591058 0
M  V30 2458 C 243.646 -6.18673 -0.405367 0
M  V30 2459 C 245.701 -4.90517 -0.854274 0
M  V30 2460 C 244.404 -7.18895 0.241434 0
M  V30 2461 C 246.43 -5.90986 -0.221301 0
M  V30 2462 C 245.792 -7.03669 0.320894 0
M  V30 2463 H 241.891 -0.670556 -0.402342 0
M  V30 2464 H 244.475 -1.89946 -0.427607 0
M  V30 2465 H 242.646 -2.65987 -2.83029 0
M  V30 2466 H 244.378 -2.90699 -2.8156 0
M  V30 2467 H 241.133 -4.47672 -1.54554 0
M  V30 2468 H 241.557 -6.76474 -0.266862 0
M  V30 2469 H 246.199 -4.03612 -1.25926 0
M  V30 2470 H 243.917 -8.05413 0.658448 0
M  V30 2471 H 247.503 -5.81626 -0.142111 0
M  V30 2472 H 246.383 -7.80078 0.802956 0
M  V30 2473 N 243.887 0.651787 -1.4349 0
M  V30 2474 C 244.835 1.78586 -1.49029 0
M  V30 2475 C 245.829 1.65448 -0.363767 0
M  V30 2476 O 247.035 1.71777 -0.537821 0
M  V30 2477 H 243.41 0.589236 -0.467231 0
M  V30 2478 H 245.381 1.71035 -2.44519 0
M  V30 2479 C 244.13 3.16851 -1.43181 0
M  V30 2480 H 243.453 3.27598 -2.29171 0
M  V30 2481 H 244.893 3.96156 -1.51118 0
M  V30 2482 C 243.352 3.36568 -0.149616 0
M  V30 2483 O 243.882 3.93885 0.788509 0
M  V30 2484 N 242.088 2.90539 -0.0593484 0
M  V30 2485 H 241.635 2.4408 -0.823575 0
M  V30 2486 H 241.593 3.04108 0.797853 0
M  V30 2487 N 245.365 1.30045 0.890287 0
M  V30 2488 C 246.315 1.12592 1.9826 0
M  V30 2489 C 247.299 0.0426021 1.60844 0
M  V30 2490 O 248.491 0.265346 1.75 0
M  V30 2491 C 245.62 0.814301 3.33503 0
M  V30 2492 C 244.706 1.93761 3.7725 0
M  V30 2493 N 245.097 3.18232 3.93143 0
M  V30 2494 C 243.395 1.83277 4.06602 0
M  V30 2495 C 244.096 3.9158 4.30163 0
M  V30 2496 N 243.072 3.19591 4.3973 0
M  V30 2497 H 246.874 2.07003 2.08631 0
M  V30 2498 H 244.388 1.21307 1.07974 0
M  V30 2499 H 246.385 0.67029 4.11476 0
M  V30 2500 H 245.045 -0.121797 3.24471 0
M  V30 2501 H 246.056 3.53581 3.78419 0
M  V30 2502 H 242.733 0.97001 4.06075 0
M  V30 2503 H 244.123 4.98744 4.50226 0
M  V30 2504 N 246.843 -1.10192 1.12674 0
M  V30 2505 C 248.068 -1.86523 0.906853 0
M  V30 2506 C 248.493 -1.80221 -0.538711 0
M  V30 2507 O 247.851 -1.17396 -1.38158 0
M  V30 2508 C 247.899 -3.32758 1.3894 0
M  V30 2509 O 247.003 -4.08449 0.5695 0
M  V30 2510 H 246.344 -0.578678 0.325619 0
M  V30 2511 H 248.874 -1.39203 1.49946 0
M  V30 2512 H 248.884 -3.83608 1.38958 0
M  V30 2513 H 247.559 -3.36661 2.44197 0
M  V30 2514 H 246.136 -3.67427 0.636528 0
M  V30 2515 N 248.321 -0.919034 -1.28029 0
M  V30 2516 C 249.268 -0.410005 -2.27129 0
M  V30 2517 C 250.238 0.518405 -1.57803 0
M  V30 2518 O 251.423 0.439451 -1.8567 0
M  V30 2519 C 248.563 0.339054 -3.4343 0
M  V30 2520 C 247.676 -0.622468 -4.27492 0
M  V30 2521 C 246.811 0.145567 -5.31001 0
M  V30 2522 C 245.85 -0.809226 -6.06727 0
M  V30 2523 N 244.987 -0.0743728 -7.02061 0
M  V30 2524 H 249.827 -1.26011 -2.70047 0
M  V30 2525 H 247.364 -0.632663 -1.328 0
M  V30 2526 H 249.322 0.789586 -4.0966 0
M  V30 2527 H 247.952 1.15346 -3.01488 0
M  V30 2528 H 247.004 -1.19153 -3.61257 0
M  V30 2529 H 248.316 -1.35252 -4.80113 0
M  V30 2530 H 247.47 0.656417 -6.03139 0
M  V30 2531 H 246.209 0.908643 -4.79161 0
M  V30 2532 H 245.214 -1.3314 -5.33436 0
M  V30 2533 H 246.439 -1.57194 -6.60656 0
M  V30 2534 H 244.385 0.670616 -6.52563 0
M  V30 2535 H 244.302 -0.744157 -7.52329 0
M  V30 2536 H 245.57 0.416109 -7.78389 0
M  V30 2537 N 249.799 1.42003 -0.683588 0
M  V30 2538 C 251.048 2.00638 -0.206681 0
M  V30 2539 C 251.361 1.5472 1.19671 0
M  V30 2540 O 252.567 2.05833 1.77045 0
M  V30 2541 C 251.023 3.58487 -0.318632 0
M  V30 2542 C 250.631 4.1339 -1.72663 0
M  V30 2543 C 252.375 4.24384 0.0991141 0
M  V30 2544 C 250.282 5.63633 -1.79087 0
M  V30 2545 H 249.212 0.750408 -0.0735107 0
M  V30 2546 H 251.863 1.62624 -0.850048 0
M  V30 2547 H 250.245 3.94047 0.392781 0
M  V30 2548 H 251.419 3.89273 -2.46583 0
M  V30 2549 H 249.734 3.59976 -2.09299 0
M  V30 2550 H 252.331 5.34652 0.0713833 0
M  V30 2551 H 252.674 4.00505 1.13586 0
M  V30 2552 H 253.207 3.93816 -0.561599 0
M  V30 2553 H 249.946 5.92323 -2.80774 0
M  V30 2554 H 249.466 5.89714 -1.09535 0
M  V30 2555 H 251.145 6.28201 -1.5483 0
M  V30 2556 N 251.277 0.427512 1.51691 0
M  V30 2557 C 252.207 -0.3796 2.30394 0
M  V30 2558 C 253.188 -1.02982 1.35384 0
M  V30 2559 O 254.373 -1.03534 1.643 0
M  V30 2560 C 251.503 -1.48649 3.1388 0
M  V30 2561 C 250.457 -0.960294 4.17088 0
M  V30 2562 C 249.783 -2.16219 4.89033 0
M  V30 2563 C 251.083 -0.00153679 5.223 0
M  V30 2564 H 252.777 0.277164 2.98114 0
M  V30 2565 H 250.323 0.134739 1.43368 0
M  V30 2566 H 252.276 -2.05826 3.67714 0
M  V30 2567 H 251 -2.1714 2.43962 0
M  V30 2568 H 249.659 -0.410806 3.64291 0
M  V30 2569 H 249.307 -2.83307 4.15628 0
M  V30 2570 H 249.007 -1.81654 5.58816 0
M  V30 2571 H 250.531 -2.73968 5.45687 0
M  V30 2572 H 251.945 -0.482687 5.71264 0
M  V30 2573 H 250.342 0.256199 5.99553 0
M  V30 2574 H 251.412 0.938174 4.75738 0
M  V30 2575 N 252.755 -1.56801 0.158532 0
M  V30 2576 C 254.001 -1.96781 -0.490405 0
M  V30 2577 C 254.334 -1.04397 -1.63753 0
M  V30 2578 O 253.609 -0.0885805 -1.94298 0
M  V30 2579 C 253.892 -3.4635 -0.985594 0
M  V30 2580 C 253.745 -4.49512 0.160824 0
M  V30 2581 C 255.064 -3.98697 -1.86355 0
M  V30 2582 H 252.183 -0.715482 -0.176788 0
M  V30 2583 H 254.825 -1.88451 0.242088 0
M  V30 2584 H 252.975 -3.53579 -1.60978 0
M  V30 2585 H 254.647 -4.54353 0.797537 0
M  V30 2586 H 252.89 -4.26013 0.818256 0
M  V30 2587 H 253.561 -5.51531 -0.227569 0
M  V30 2588 H 256.037 -3.94019 -1.33746 0
M  V30 2589 H 254.913 -5.03792 -2.17909 0
M  V30 2590 H 255.174 -3.41744 -2.8047 0
M  V30 2591 N 254.233 0.115231 -1.57178 0
M  V30 2592 C 255.479 0.82357 -1.85325 0
M  V30 2593 C 255.812 1.79349 -0.744814 0
M  V30 2594 O 255.087 1.92899 0.249024 0
M  V30 2595 C 255.37 1.57014 -3.24066 0
M  V30 2596 C 255.223 0.619565 -4.45513 0
M  V30 2597 C 256.542 2.52545 -3.60429 0
M  V30 2598 H 253.661 0.297948 -0.674089 0
M  V30 2599 H 256.303 0.0877138 -1.89797 0
M  V30 2600 H 254.453 2.19742 -3.20383 0
M  V30 2601 H 256.125 0.000837639 -4.613 0
M  V30 2602 H 254.368 -0.0686174 -4.33746 0
M  V30 2603 H 255.039 1.17866 -5.3927 0
M  V30 2604 H 257.515 1.9992 -3.64926 0
M  V30 2605 H 256.391 3.01811 -4.58477 0
M  V30 2606 H 256.652 3.35383 -2.88047 0
M  V30 2607 N 255.711 1.52812 0.385517 0
M  V30 2608 C 256.988 1.5861 1.14465 0
M  V30 2609 C 257.368 0.381402 2.07626 0
M  V30 2610 O 256.716 -0.629999 2.19643 0
M  V30 2611 C 256.926 2.92664 1.90128 0
M  V30 2612 C 258.274 3.46526 2.45367 0
M  V30 2613 O 259.298 2.94562 2.0028 0
M  V30 2614 O 258.157 4.37323 3.27736 0
M  V30 2615 H 255.251 0.639855 0.523941 0
M  V30 2616 H 257.797 1.65149 0.390389 0
M  V30 2617 H 256.569 3.71788 1.22022 0
M  V30 2618 H 256.192 2.89527 2.72507 0
M  V30 2619 N 257.189 -0.644168 1.43834 0
M  V30 2620 C 258.437 -1.40117 1.45642 0
M  V30 2621 C 258.758 -1.94814 0.0852413 0
M  V30 2622 O 258.028 -1.74988 -0.880688 0
M  V30 2623 H 256.608 -0.52005 0.536243 0
M  V30 2624 H 259.27 -0.7591 1.7951 0
M  V30 2625 H 258.366 -2.23902 2.17427 0
M  V30 2626 N 258.668 -1.30515 -0.883378 0
M  V30 2627 C 259.6 -1.12846 -1.99496 0
M  V30 2628 C 260.613 -0.0712571 -1.62644 0
M  V30 2629 O 261.802 -0.317432 -1.75655 0
M  V30 2630 C 258.902 -0.699123 -3.3161 0
M  V30 2631 C 258.075 -1.83842 -3.96889 0
M  V30 2632 C 257.134 -1.39737 -5.07307 0
M  V30 2633 O 256.16 -2.10485 -5.28852 0
M  V30 2634 N 257.362 -0.277279 -5.79837 0
M  V30 2635 H 260.127 -2.08585 -2.15203 0
M  V30 2636 H 257.688 -1.22672 -1.05656 0
M  V30 2637 H 259.68 -0.387044 -4.02845 0
M  V30 2638 H 258.25 0.166276 -3.12157 0
M  V30 2639 H 257.47 -2.31853 -3.18807 0
M  V30 2640 H 258.758 -2.60187 -4.37241 0
M  V30 2641 H 258.156 0.3122 -5.64838 0
M  V30 2642 H 256.713 -0.0246623 -6.51795 0
M  V30 2643 N 260.146 1.09593 -1.13257 0
M  V30 2644 C 261.371 1.8604 -0.916732 0
M  V30 2645 C 261.796 1.80504 0.529146 0
M  V30 2646 O 261.154 1.18127 1.37534 0
M  V30 2647 C 261.202 3.32017 -1.40703 0
M  V30 2648 O 260.306 4.08141 -0.591153 0
M  V30 2649 H 259.647 0.576943 -0.328683 0
M  V30 2650 H 262.177 1.38405 -1.50682 0
M  V30 2651 H 262.187 3.82865 -1.4099 0
M  V30 2652 H 260.862 3.35361 -2.45979 0
M  V30 2653 H 259.439 3.67084 -0.656005 0
M  V30 2654 N 261.624 0.925811 1.2754 0
M  V30 2655 C 262.587 0.428129 2.25166 0
M  V30 2656 C 263.587 -0.452261 1.54309 0
M  V30 2657 O 264.777 -0.253608 1.72344 0
M  V30 2658 C 261.909 -0.384749 3.38722 0
M  V30 2659 H 263.102 1.29066 2.70706 0
M  V30 2660 H 260.655 0.706323 1.3943 0
M  V30 2661 H 261.39 -1.26618 2.98561 0
M  V30 2662 H 261.175 0.246454 3.91325 0
M  V30 2663 H 262.665 -0.723389 4.11287 0
M  V30 2664 N 263.102 -1.41638 0.69111 0
M  V30 2665 C 264.032 -2.3347 0.037248 0
M  V30 2666 C 265.013 -1.51575 -0.771947 0
M  V30 2667 O 266.198 -1.80126 -0.72582 0
M  V30 2668 C 263.328 -3.35354 -0.903064 0
M  V30 2669 C 262.282 -4.27526 -0.201288 0
M  V30 2670 C 261.608 -5.19747 -1.25565 0
M  V30 2671 C 262.908 -5.13959 0.929689 0
M  V30 2672 H 264.602 -2.88397 0.804227 0
M  V30 2673 H 262.148 -1.38669 0.388189 0
M  V30 2674 H 264.101 -3.98519 -1.36969 0
M  V30 2675 H 262.825 -2.78767 -1.70166 0
M  V30 2676 H 261.484 -3.65779 0.245265 0
M  V30 2677 H 261.132 -4.59479 -2.04666 0
M  V30 2678 H 260.832 -5.8225 -0.791128 0
M  V30 2679 H 262.356 -5.85789 -1.72288 0
M  V30 2680 H 263.77 -5.70718 0.543546 0
M  V30 2681 H 262.167 -5.85379 1.32103 0
M  V30 2682 H 263.237 -4.51389 1.77133 0
M  V30 2683 N 264.58 -0.43555 -1.51462 0
M  V30 2684 C 265.808 0.130242 -2.0649 0
M  V30 2685 C 266.223 1.36614 -1.30315 0
M  V30 2686 O 265.58 1.78869 -0.362223 0
M  V30 2687 C 265.631 0.454253 -3.58635 0
M  V30 2688 O 265.352 -0.73259 -4.31931 0
M  V30 2689 C 266.853 1.07091 -4.3017 0
M  V30 2690 H 264.073 0.00871669 -0.670943 0
M  V30 2691 H 266.617 -0.614117 -1.95061 0
M  V30 2692 H 264.772 1.14851 -3.69984 0
M  V30 2693 H 265.186 -0.455787 -5.22516 0
M  V30 2694 H 266.66 1.24764 -5.37716 0
M  V30 2695 H 267.137 2.05144 -3.88346 0
M  V30 2696 H 267.743 0.416089 -4.2326 0
M  V30 2697 N 266.058 1.56714 -0.166846 0
M  V30 2698 C 267.306 1.96358 0.478305 0
M  V30 2699 C 267.627 1.0537 1.6408 0
M  V30 2700 O 266.897 0.119154 1.95537 0
M  V30 2701 H 265.477 0.725065 0.179692 0
M  V30 2702 H 268.139 1.93329 -0.246985 0
M  V30 2703 H 267.235 3.00547 0.841292 0
M  V30 2704 N 267.536 -0.106894 1.57237 0
M  V30 2705 C 268.784 -0.810921 1.85117 0
M  V30 2706 C 269.105 -1.7984 0.753827 0
M  V30 2707 O 268.375 -1.94649 -0.221056 0
M  V30 2708 H 266.955 -0.302466 0.683025 0
M  V30 2709 H 269.617 -0.0913324 1.94686 0
M  V30 2710 H 268.713 -1.34875 2.81452 0
M  V30 2711 N 269.014 -1.53014 -0.377408 0
M  V30 2712 C 270.263 -1.67845 -1.11853 0
M  V30 2713 C 270.576 -0.430625 -1.90801 0
M  V30 2714 O 271.782 -0.459261 -2.67587 0
M  V30 2715 C 270.238 -2.96668 -2.03756 0
M  V30 2716 C 269.846 -4.28671 -1.30175 0
M  V30 2717 C 271.59 -3.20865 -2.77932 0
M  V30 2718 C 269.497 -5.48591 -2.20911 0
M  V30 2719 H 268.427 -0.625343 -0.421263 0
M  V30 2720 H 271.078 -1.79514 -0.380409 0
M  V30 2721 H 269.46 -2.78773 -2.8125 0
M  V30 2722 H 270.634 -4.57157 -0.578259 0
M  V30 2723 H 268.949 -4.10825 -0.679108 0
M  V30 2724 H 271.546 -4.07642 -3.46024 0
M  V30 2725 H 271.889 -2.36424 -3.4265 0
M  V30 2726 H 272.422 -3.39379 -2.07525 0
M  V30 2727 H 269.161 -6.35474 -1.6079 0
M  V30 2728 H 268.681 -5.244 -2.91144 0
M  V30 2729 H 270.36 -5.8292 -2.80736 0
M  V30 2730 N 270.492 0.636531 -1.44174 0
M  V30 2731 C 271.44 1.76995 -1.50915 0
M  V30 2732 C 272.434 1.65053 -0.381295 0
M  V30 2733 O 273.64 1.71197 -0.55601 0
M  V30 2734 H 270.015 0.584247 -0.473455 0
M  V30 2735 H 271.986 1.68432 -2.4632 0
M  V30 2736 C 270.735 3.15314 -1.46534 0
M  V30 2737 H 270.058 3.25149 -2.32633 0
M  V30 2738 H 271.498 3.9453 -1.55312 0
M  V30 2739 C 269.957 3.3639 -0.185305 0
M  V30 2740 O 270.487 3.94699 0.746688 0
M  V30 2741 N 268.693 2.9046 -0.0901606 0
M  V30 2742 H 268.24 2.43193 -0.849416 0
M  V30 2743 H 268.198 3.04937 0.765553 0
M  V30 2744 N 271.97 1.30982 0.876444 0
M  V30 2745 C 273.195 1.23373 1.66715 0
M  V30 2746 C 273.62 -0.19885 1.87046 0
M  V30 2747 O 272.978 -1.1427 1.40756 0
M  V30 2748 C 273.026 1.97644 3.01611 0
M  V30 2749 O 272.13 1.30935 3.91062 0
M  V30 2750 H 271.471 0.426279 0.509099 0
M  V30 2751 H 274.001 1.72944 1.09323 0
M  V30 2752 H 274.011 2.06992 3.51594 0
M  V30 2753 H 272.686 3.01829 2.86133 0
M  V30 2754 H 271.263 1.29996 3.49507 0
M  V30 2755 N 273.449 -1.08991 1.13837 0
M  V30 2756 C 274.695 -1.81699 0.91417 0
M  V30 2757 C 275.05 -1.84264 -0.553594 0
M  V30 2758 O 274.343 -1.30313 -1.4046 0
M  V30 2759 C 274.537 -3.27042 1.44147 0
M  V30 2760 C 274.366 -3.38637 2.95897 0
M  V30 2761 C 273.136 -3.50177 3.64286 0
M  V30 2762 C 275.334 -3.30791 3.93804 0
M  V30 2763 N 273.316 -3.50501 5.04006 0
M  V30 2764 C 274.687 -3.38037 5.19741 0
M  V30 2765 C 276.742 -3.14488 3.86007 0
M  V30 2766 C 275.445 -3.30659 6.38793 0
M  V30 2767 C 277.471 -3.08438 5.04599 0
M  V30 2768 C 276.833 -3.1628 6.29402 0
M  V30 2769 H 272.932 -0.678967 0.387979 0
M  V30 2770 H 275.516 -1.30224 1.4474 0
M  V30 2771 H 273.687 -3.76976 0.935091 0
M  V30 2772 H 275.419 -3.87785 1.1578 0
M  V30 2773 H 272.174 -3.53815 3.1482 0
M  V30 2774 H 272.598 -3.54236 5.76928 0
M  V30 2775 H 277.24 -3.07291 2.90399 0
M  V30 2776 H 274.958 -3.36618 7.34652 0
M  V30 2777 H 278.544 -2.96952 5.0031 0
M  V30 2778 H 277.424 -3.1162 7.19627 0
M  V30 2779 N 274.927 -0.932562 -1.27047 0
M  V30 2780 C 275.874 -0.434072 -2.26681 0
M  V30 2781 C 276.844 0.501639 -1.58344 0
M  V30 2782 O 278.029 0.419734 -1.86126 0
M  V30 2783 C 275.169 0.30261 -3.43771 0
M  V30 2784 C 274.282 -0.667774 -4.26808 0
M  V30 2785 C 273.417 0.0892393 -5.31125 0
M  V30 2786 C 272.456 -0.873532 -6.05835 0
M  V30 2787 N 271.593 -0.148832 -7.01942 0
M  V30 2788 H 276.433 -1.28868 -2.68695 0
M  V30 2789 H 273.97 -0.646713 -1.32121 0
M  V30 2790 H 275.928 0.746092 -4.10474 0
M  V30 2791 H 274.558 1.12142 -3.02695 0
M  V30 2792 H 273.61 -1.22978 -3.59973 0
M  V30 2793 H 274.922 -1.40337 -4.78651 0
M  V30 2794 H 274.076 0.592409 -6.03801 0
M  V30 2795 H 272.815 0.85777 -4.80097 0
M  V30 2796 H 271.82 -1.38791 -5.31994 0
M  V30 2797 H 273.045 -1.64193 -6.58952 0
M  V30 2798 H 270.991 0.601365 -6.53238 0
M  V30 2799 H 270.908 -0.82391 -7.51497 0
M  V30 2800 H 272.176 0.333527 -7.78786 0
M  V30 2801 N 276.405 1.4127 -0.698611 0
M  V30 2802 C 277.682 1.94955 -0.158762 0
M  V30 2803 C 278.062 1.63781 1.33188 0
M  V30 2804 O 277.41 0.946423 2.07979 0
M  V30 2805 C 277.62 3.46044 -0.453309 0
M  V30 2806 C 278.968 4.22872 -0.382707 0
M  V30 2807 O 279.992 3.54076 -0.388396 0
M  V30 2808 O 278.851 5.45407 -0.345463 0
M  V30 2809 H 275.945 0.82683 -0.0167505 0
M  V30 2810 H 278.491 1.50971 -0.77498 0
M  V30 2811 H 277.263 3.62028 -1.48498 0
M  V30 2812 H 276.886 3.97128 0.19373 0
M  V30 2813 N 277.883 0.443576 1.51229 0
M  V30 2814 C 279.16 -0.181038 1.9476 0
M  V30 2815 C 279.54 -1.59523 1.38259 0
M  V30 2816 O 278.888 -2.2122 0.572198 0
M  V30 2817 C 279.098 -0.152422 3.48667 0
M  V30 2818 C 280.446 -0.354923 4.23114 0
M  V30 2819 O 281.47 -0.230257 3.55455 0
M  V30 2820 O 280.329 -0.603674 5.43156 0
M  V30 2821 H 277.423 -0.1266 0.817252 0
M  V30 2822 H 279.969 0.502004 1.62105 0
M  V30 2823 H 278.741 0.836022 3.82265 0
M  V30 2824 H 278.364 -0.878107 3.87782 0
M  V30 2825 N 279.361 -1.56624 0.175154 0
M  V30 2826 C 280.591 -2.01082 -0.474283 0
M  V30 2827 C 280.999 -1.05447 -1.57091 0
M  V30 2828 O 280.342 -0.0480595 -1.83637 0
M  V30 2829 C 280.404 -3.41963 -1.10911 0
M  V30 2830 C 280.068 -4.56742 -0.153666 0
M  V30 2831 C 281.065 -5.16076 0.629448 0
M  V30 2832 C 278.75 -5.02277 -0.0483776 0
M  V30 2833 C 280.744 -6.19377 1.50501 0
M  V30 2834 C 278.431 -6.05427 0.830768 0
M  V30 2835 C 279.429 -6.63849 1.60605 0
M  V30 2836 O 279.117 -7.64998 2.47049 0
M  V30 2837 H 278.849 -0.664261 -0.125432 0
M  V30 2838 H 281.403 -2.03549 0.275163 0
M  V30 2839 H 279.633 -3.36422 -1.90676 0
M  V30 2840 H 281.322 -3.70352 -1.66114 0
M  V30 2841 H 282.088 -4.81776 0.558297 0
M  V30 2842 H 277.967 -4.56513 -0.641611 0
M  V30 2843 H 281.511 -6.64906 2.1106 0
M  V30 2844 H 277.408 -6.39151 0.903107 0
M  V30 2845 H 278.176 -7.82336 2.40607 0
M  V30 2846 N 280.839 0.0985539 -1.57292 0
M  V30 2847 C 281.769 1.12064 -2.04851 0
M  V30 2848 C 282.75 1.41981 -0.936767 0
M  V30 2849 O 283.935 1.52071 -1.20781 0
M  V30 2850 C 281.065 2.44144 -2.47004 0
M  V30 2851 C 280.019 2.28643 -3.6181 0
M  V30 2852 C 279.345 3.65869 -3.89929 0
M  V30 2853 C 280.645 1.72986 -4.92822 0
M  V30 2854 H 282.339 0.724979 -2.9049 0
M  V30 2855 H 279.885 0.34729 -1.39749 0
M  V30 2856 H 281.838 3.15914 -2.78884 0
M  V30 2857 H 280.562 2.85639 -1.5836 0
M  V30 2858 H 279.221 1.59318 -3.30172 0
M  V30 2859 H 278.869 4.04885 -2.98458 0
M  V30 2860 H 278.569 3.56344 -4.67218 0
M  V30 2861 H 280.093 4.39112 -4.2428 0
M  V30 2862 H 281.507 2.34593 -5.23105 0
M  V30 2863 H 279.904 1.74229 -5.74251 0
M  V30 2864 H 280.974 0.689007 -4.7998 0
M  V30 2865 N 282.317 1.53212 0.369288 0
M  V30 2866 C 283.594 1.59815 1.12776 0
M  V30 2867 C 283.974 0.403402 2.0721 0
M  V30 2868 O 283.322 -0.606667 2.20299 0
M  V30 2869 C 283.532 2.94664 1.87013 0
M  V30 2870 C 284.88 3.49109 2.41677 0
M  V30 2871 O 285.904 2.96669 1.97144 0
M  V30 2872 O 284.763 4.40775 3.23079 0
M  V30 2873 H 281.857 0.645376 0.517125 0
M  V30 2874 H 284.403 1.65553 0.37285 0
M  V30 2875 H 283.175 3.73061 1.18071 0
M  V30 2876 H 282.798 2.92401 2.69421 0
M  V30 2877 N 283.795 -0.628877 1.44509 0
M  V30 2878 C 285.023 -1.41554 1.50897 0
M  V30 2879 C 285.438 -1.8832 0.134564 0
M  V30 2880 O 284.795 -1.60969 -0.859965 0
M  V30 2881 C 284.846 -2.63435 2.47556 0
M  V30 2882 O 284.567 -2.18619 3.79654 0
M  V30 2883 C 286.068 -3.56537 2.63431 0
M  V30 2884 H 283.288 -0.434044 0.511709 0
M  V30 2885 H 285.832 -0.768895 1.89495 0
M  V30 2886 H 283.987 -3.24187 2.12089 0
M  V30 2887 H 284.401 -2.97652 4.31861 0
M  V30 2888 H 285.875 -4.38657 3.35088 0
M  V30 2889 H 286.352 -4.05493 1.68738 0
M  V30 2890 H 286.958 -3.01653 2.9981 0
M  V30 2891 N 285.273 -1.31445 -0.869486 0
M  V30 2892 C 286.501 -1.24122 -1.65534 0
M  V30 2893 C 286.916 0.193387 -1.87807 0
M  V30 2894 O 286.273 1.12557 -1.43656 0
M  V30 2895 C 286.324 -1.98229 -3.02304 0
M  V30 2896 O 286.045 -3.3609 -2.81026 0
M  V30 2897 C 287.546 -1.97751 -3.96749 0
M  V30 2898 H 284.766 -0.428868 -0.516055 0
M  V30 2899 H 287.31 -1.73328 -1.08525 0
M  V30 2900 H 285.465 -1.52782 -3.56001 0
M  V30 2901 H 285.879 -3.7383 -3.67902 0
M  V30 2902 H 287.353 -2.54114 -4.90031 0
M  V30 2903 H 287.83 -0.960137 -4.28577 0
M  V30 2904 H 288.436 -2.43079 -3.48988 0
M  V30 2905 N 286.751 1.08385 -1.14413 0
M  V30 2906 C 287.701 2.13509 -0.79987 0
M  V30 2907 C 288.685 1.5951 0.211059 0
M  V30 2908 O 289.877 1.76995 0.0133694 0
M  V30 2909 C 287.006 3.42162 -0.279297 0
M  V30 2910 C 286.092 4.03042 -1.31976 0
M  V30 2911 N 286.483 4.38327 -2.52395 0
M  V30 2912 C 284.781 4.30379 -1.17004 0
M  V30 2913 C 285.482 4.86428 -3.19003 0
M  V30 2914 N 284.458 4.84547 -2.46405 0
M  V30 2915 H 288.26 2.38609 -1.7159 0
M  V30 2916 H 285.774 1.2572 -1.02802 0
M  V30 2917 H 287.771 4.16898 -0.0143688 0
M  V30 2918 H 286.431 3.18511 0.630923 0
M  V30 2919 H 287.442 4.29349 -2.89621 0
M  V30 2920 H 284.119 4.16281 -0.318854 0
M  V30 2921 H 285.509 5.23107 -4.21674 0
M  V30 2922 N 288.23 0.939286 1.26551 0
M  V30 2923 C 289.641 0.628782 1.75793 0
M  V30 2924 C 289.992 -0.856046 1.7654 0
M  V30 2925 O 289.117 -1.66994 1.3763 0
M  V30 2926 C 289.712 1.13465 3.19235 0
M  V30 2927 C 288.271 0.874601 3.66098 0
M  V30 2928 C 287.418 1.28667 2.45642 0
M  V30 2929 H 290.369 1.1178 1.12654 0
M  V30 2930 H 290.39 0.487609 3.77363 0
M  V30 2931 H 289.902 2.21535 3.1866 0
M  V30 2932 H 288.003 -0.191793 3.72106 0
M  V30 2933 H 288.116 1.50028 4.55004 0
M  V30 2934 H 286.48 0.705109 2.44745 0
M  V30 2935 H 287.263 2.37625 2.47769 0
M  V30 2936 N 289.708 -1.40897 0.706093 0
M  V30 2937 C 290.954 -2.01352 0.241889 0
M  V30 2938 C 291.287 -1.55832 -1.15888 0
M  V30 2939 O 290.562 -0.774145 -1.7843 0
M  V30 2940 C 290.845 -3.58752 0.311311 0
M  V30 2941 C 290.698 -4.1437 1.74978 0
M  V30 2942 C 292.017 -4.38914 -0.322922 0
M  V30 2943 H 289.136 -0.731562 0.0893687 0
M  V30 2944 H 291.778 -1.67504 0.896802 0
M  V30 2945 H 289.928 -3.87718 -0.246302 0
M  V30 2946 H 291.6 -3.96239 2.36205 0
M  V30 2947 H 289.843 -3.69016 2.28057 0
M  V30 2948 H 290.514 -5.23532 1.74981 0
M  V30 2949 H 292.99 -4.15822 0.152089 0
M  V30 2950 H 291.866 -5.48358 -0.243855 0
M  V30 2951 H 292.127 -4.19176 -1.40513 0
M  V30 2952 N 291.186 -0.45159 -1.50991 0
M  V30 2953 C 292.411 0.110667 -2.07105 0
M  V30 2954 C 292.836 1.3446 -1.31538 0
M  V30 2955 O 292.194 1.77743 -0.357365 0
M  V30 2956 C 292.242 0.397238 -3.58405 0
M  V30 2957 O 291.346 1.48124 -3.84881 0
M  V30 2958 H 290.687 -0.00439271 -0.663985 0
M  V30 2959 H 293.217 -0.637026 -1.9443 0
M  V30 2960 H 293.227 0.64351 -4.02893 0
M  V30 2961 H 291.902 -0.504553 -4.12828 0
M  V30 2962 H 290.479 1.22381 -3.52246 0
M  V30 2963 N 292.664 1.56529 -0.183458 0
M  V30 2964 C 293.941 1.88959 0.50536 0
M  V30 2965 C 294.321 1.09523 1.80466 0
M  V30 2966 O 293.669 0.19278 2.27685 0
M  V30 2967 C 293.879 3.41162 0.73547 0
M  V30 2968 C 295.227 4.11155 1.06005 0
M  V30 2969 O 296.251 3.46548 0.823594 0
M  V30 2970 O 295.11 5.25318 1.50675 0
M  V30 2971 H 292.204 0.78441 0.261973 0
M  V30 2972 H 294.75 1.68231 -0.222802 0
M  V30 2973 H 293.522 3.90874 -0.182561 0
M  V30 2974 H 293.145 3.67543 1.51651 0
M  V30 2975 N 294.142 -0.090211 1.57342 0
M  V30 2976 C 295.388 -0.793982 1.86611 0
M  V30 2977 C 295.721 -1.78142 0.773252 0
M  V30 2978 O 294.996 -1.93271 -0.218304 0
M  V30 2979 C 295.279 -1.51839 3.26523 0
M  V30 2980 C 295.132 -0.548609 4.46442 0
M  V30 2981 C 296.451 -2.46779 3.64401 0
M  V30 2982 H 293.57 -0.287186 0.678744 0
M  V30 2983 H 296.212 -0.0575076 1.89913 0
M  V30 2984 H 294.362 -2.14617 3.23839 0
M  V30 2985 H 296.034 0.0725513 4.61243 0
M  V30 2986 H 294.277 0.137614 4.33582 0
M  V30 2987 H 294.948 -1.09271 5.41076 0
M  V30 2988 H 297.424 -1.94089 3.68061 0
M  V30 2989 H 296.3 -2.94479 4.63221 0
M  V30 2990 H 296.561 -3.30758 2.93346 0
M  V30 2991 N 295.62 -1.53406 -0.361157 0
M  V30 2992 C 296.897 -1.60411 -1.11927 0
M  V30 2993 C 297.277 -0.414385 -2.06993 0
M  V30 2994 O 296.625 0.594976 -2.20618 0
M  V30 2995 C 296.835 -2.95652 -1.85448 0
M  V30 2996 C 298.183 -3.50386 -2.39823 0
M  V30 2997 O 299.207 -2.97711 -1.95568 0
M  V30 2998 O 298.066 -4.42482 -3.20737 0
M  V30 2999 H 295.16 -0.64811 -0.513695 0
M  V30 3000 H 297.706 -1.65749 -0.364065 0
M  V30 3001 H 296.478 -3.73682 -1.16091 0
M  V30 3002 H 296.101 -2.93825 -2.67866 0
M  V30 3003 N 297.098 0.621204 -1.44841 0
M  V30 3004 C 298.028 1.74366 -1.55303 0
M  V30 3005 C 299.009 1.65199 -0.405385 0
M  V30 3006 O 300.194 1.83807 -0.626787 0
M  V30 3007 C 297.324 3.12931 -1.50637 0
M  V30 3008 C 296.278 3.36896 -2.63979 0
M  V30 3009 C 295.604 4.75594 -2.44366 0
M  V30 3010 C 296.904 3.28483 -4.06074 0
M  V30 3011 H 298.598 1.65867 -2.49256 0
M  V30 3012 H 296.144 0.796558 -1.19962 0
M  V30 3013 H 298.097 3.9124 -1.56555 0
M  V30 3014 H 296.821 3.22237 -0.532057 0
M  V30 3015 H 295.48 2.60972 -2.57467 0
M  V30 3016 H 295.128 4.81616 -1.45105 0
M  V30 3017 H 294.828 4.92586 -3.20364 0
M  V30 3018 H 296.352 5.5612 -2.52117 0
M  V30 3019 H 297.766 3.96684 -4.13902 0
M  V30 3020 H 296.163 3.57008 -4.82354 0
M  V30 3021 H 297.233 2.26133 -4.28943 0
M  V30 3022 N 298.576 1.31904 0.862503 0
M  V30 3023 C 299.539 1.20131 1.95195 0
M  V30 3024 C 300.539 0.126409 1.60302 0
M  V30 3025 O 301.729 0.376234 1.70089 0
M  V30 3026 C 298.861 0.845691 3.30244 0
M  V30 3027 H 300.054 2.16943 2.07064 0
M  V30 3028 H 297.607 1.15622 1.05172 0
M  V30 3029 H 298.342 -0.120957 3.24074 0
M  V30 3030 H 298.127 1.62276 3.56944 0
M  V30 3031 H 299.617 0.787418 4.10109 0
M  V30 3032 N 300.054 -1.07777 1.14986 0
M  V30 3033 C 300.984 -2.16865 0.865557 0
M  V30 3034 C 301.965 -1.69123 -0.182083 0
M  V30 3035 O 303.15 -1.94164 -0.0373815 0
M  V30 3036 C 300.28 -3.45539 0.349313 0
M  V30 3037 C 299.234 -4.06708 1.33313 0
M  V30 3038 C 298.56 -5.30411 0.675918 0
M  V30 3039 C 299.86 -4.47241 2.69764 0
M  V30 3040 H 301.554 -2.40905 1.77778 0
M  V30 3041 H 299.1 -1.15781 0.856203 0
M  V30 3042 H 301.053 -4.21174 0.137983 0
M  V30 3043 H 299.777 -3.21072 -0.598362 0
M  V30 3044 H 298.436 -3.33112 1.53075 0
M  V30 3045 H 298.084 -5.02232 -0.277767 0
M  V30 3046 H 297.784 -5.72293 1.33244 0
M  V30 3047 H 299.308 -6.08755 0.474262 0
M  V30 3048 H 300.722 -5.14025 2.53873 0
M  V30 3049 H 299.119 -5.00062 3.3175 0
M  V30 3050 H 300.189 -3.58818 3.26156 0
M  V30 3051 N 301.532 -0.945985 -1.26051 0
M  V30 3052 C 302.76 -0.613025 -1.9761 0
M  V30 3053 C 303.175 0.813035 -1.70397 0
M  V30 3054 O 302.532 1.54274 -0.974979 0
M  V30 3055 C 302.583 -0.85159 -3.51326 0
M  V30 3056 O 302.304 -2.22157 -3.77595 0
M  V30 3057 C 303.805 -0.529831 -4.40122 0
M  V30 3058 H 301.025 -0.230593 -0.630133 0
M  V30 3059 H 303.569 -1.268 -1.60443 0
M  V30 3060 H 301.724 -0.243151 -3.86636 0
M  V30 3061 H 302.138 -2.2852 -4.721 0
M  V30 3062 H 303.612 -0.747348 -5.46917 0
M  V30 3063 H 304.089 0.535341 -4.35925 0
M  V30 3064 H 304.695 -1.11721 -4.10364 0
M  V30 3065 N 303.011 1.40521 -0.713556 0
M  V30 3066 C 304.259 2.00527 -0.251692 0
M  V30 3067 C 304.58 1.56857 1.15848 0
M  V30 3068 O 303.85 0.807127 1.785 0
M  V30 3069 H 302.43 0.741551 -0.0900646 0
M  V30 3070 H 305.092 1.71887 -0.918733 0
M  V30 3071 H 304.188 3.10813 -0.283192 0
M  V30 3072 N 304.489 0.459591 1.5075 0
M  V30 3073 C 305.9 0.00171547 1.867 0
M  V30 3074 C 306.251 -1.39934 1.37525 0
M  V30 3075 O 305.376 -2.03523 0.735349 0
M  V30 3076 C 305.971 -0.00366298 3.388 0
M  V30 3077 C 304.53 -0.406026 3.74204 0
M  V30 3078 C 303.677 0.38673 2.7459 0
M  V30 3079 H 306.628 0.674413 1.43657 0
M  V30 3080 H 306.649 -0.808371 3.71814 0
M  V30 3081 H 306.161 1.01617 3.74561 0
M  V30 3082 H 304.262 -1.43063 3.4404 0
M  V30 3083 H 304.375 -0.115362 4.78961 0
M  V30 3084 H 302.739 -0.158019 2.54209 0
M  V30 3085 H 303.522 1.40585 3.13194 0
M  V30 3086 N 305.967 -1.56429 0.191757 0
M  V30 3087 C 306.93 -2.17707 -0.716688 0
M  V30 3088 C 307.93 -1.13061 -1.14341 0
M  V30 3089 O 309.12 -1.38464 -1.05704 0
M  V30 3090 C 306.252 -2.77644 -1.97804 0
M  V30 3091 H 307.445 -2.99342 -0.1829 0
M  V30 3092 H 304.998 -1.56193 -0.0578566 0
M  V30 3093 H 305.733 -1.99799 -2.55443 0
M  V30 3094 H 305.518 -3.54246 -1.68083 0
M  V30 3095 H 307.008 -3.24708 -2.62592 0
M  V30 3096 N 307.445 0.0818655 -1.57387 0
M  V30 3097 C 308.408 1.08265 -2.02018 0
M  V30 3098 C 309.408 1.32183 -0.915664 0
M  V30 3099 O 310.598 1.28073 -1.18081 0
M  V30 3100 C 307.73 2.42871 -2.39221 0
M  V30 3101 H 308.923 0.698204 -2.91659 0
M  V30 3102 H 306.476 0.327303 -1.52835 0
M  V30 3103 H 307.211 2.86167 -1.52575 0
M  V30 3104 H 306.996 2.26855 -3.19811 0
M  V30 3105 H 308.486 3.14826 -2.74362 0
M  V30 3106 N 308.923 1.53595 0.353017 0
M  V30 3107 C 310.171 1.70049 1.09215 0
M  V30 3108 C 310.492 0.461406 1.89463 0
M  V30 3109 O 309.762 -0.524633 1.88744 0
M  V30 3110 H 308.342 0.626912 0.40619 0
M  V30 3111 H 311.004 1.90822 0.396585 0
M  V30 3112 H 310.1 2.56718 1.77488 0
M  V30 3113 N 310.401 -0.613514 1.45168 0
M  V30 3114 C 311.626 -1.40437 1.52618 0
M  V30 3115 C 312.051 -1.87438 0.157707 0
M  V30 3116 O 311.409 -1.59791 -0.856537 0
M  V30 3117 C 311.457 -2.58894 2.51011 0
M  V30 3118 O 310.561 -3.59326 2.02382 0
M  V30 3119 H 309.902 -0.419506 0.514695 0
M  V30 3120 H 312.432 -0.747215 1.90467 0
M  V30 3121 H 312.442 -3.06214 2.69624 0
M  V30 3122 H 311.117 -2.24032 3.50403 0
M  V30 3123 H 309.694 -3.18695 1.93618 0
M  V30 3124 N 311.879 -1.3236 -0.855495 0
M  V30 3125 C 312.842 -1.21164 -1.94556 0
M  V30 3126 C 313.842 -0.134908 -1.60233 0
M  V30 3127 O 315.032 -0.385249 -1.69887 0
M  V30 3128 C 312.164 -0.863192 -3.29791 0
M  V30 3129 H 313.357 -2.18038 -2.05911 0
M  V30 3130 H 310.91 -1.16179 -1.04557 0
M  V30 3131 H 311.645 0.103769 -3.24134 0
M  V30 3132 H 311.43 -1.64166 -3.56078 0
M  V30 3133 H 312.92 -0.809156 -4.09686 0
M  V30 3134 N 313.357 1.07166 -1.15556 0
M  V30 3135 C 314.605 1.79443 -0.929764 0
M  V30 3136 C 314.926 1.87246 0.544414 0
M  V30 3137 O 314.196 1.37473 1.39564 0
M  V30 3138 H 312.776 0.664625 -0.341003 0
M  V30 3139 H 315.438 1.29499 -1.45657 0
M  V30 3140 H 314.534 2.81832 -1.34079 0
M  V30 3141 N 314.835 0.952656 1.25548 0
M  V30 3142 C 316.251 0.656769 1.4546 0
M  V30 3143 C 316.451 -0.78633 1.85524 0
M  V30 3144 O 315.507 -1.56183 1.98402 0
M  V30 3145 C 316.82 1.62801 2.52817 0
M  V30 3146 C 318.368 1.63897 2.66659 0
M  V30 3147 C 318.843 2.5978 3.77198 0
M  V30 3148 N 320.334 2.58133 3.84606 0
M  V30 3149 C 321.069 3.29003 4.69621 0
M  V30 3150 N 320.565 4.09339 5.58939 0
M  V30 3151 N 322.358 3.179 4.63569 0
M  V30 3152 H 314.509 1.88526 0.978344 0
M  V30 3153 H 316.772 0.810815 0.491206 0
M  V30 3154 H 316.478 2.65869 2.30232 0
M  V30 3155 H 316.352 1.38898 3.50695 0
M  V30 3156 H 318.739 0.615481 2.8861 0
M  V30 3157 H 318.82 1.91858 1.69187 0
M  V30 3158 H 318.464 3.62254 3.55997 0
M  V30 3159 H 318.394 2.29105 4.7415 0
M  V30 3160 H 320.885 1.99809 3.20757 0
M  V30 3161 H 321.198 4.6034 6.20731 0
M  V30 3162 H 319.543 4.13438 5.58654 0
M  V30 3163 H 322.734 2.54612 3.92798 0
M  V30 3164 H 322.907 3.73398 5.29602 0
M  V30 3165 N 316.313 -1.40141 0.720998 0
M  V30 3166 C 317.543 -2.04798 0.27226 0
M  V30 3167 C 317.951 -1.54442 -1.09289 0
M  V30 3168 O 317.294 -0.698342 -1.69908 0
M  V30 3169 C 317.356 -3.59048 0.18027 0
M  V30 3170 C 317.02 -4.32317 1.48159 0
M  V30 3171 C 318.017 -4.59902 2.42458 0
M  V30 3172 C 315.702 -4.71125 1.74202 0
M  V30 3173 C 317.696 -5.25288 3.61042 0
M  V30 3174 C 315.383 -5.36242 2.93066 0
M  V30 3175 C 316.381 -5.63254 3.86308 0
M  V30 3176 O 316.069 -6.27024 5.03086 0
M  V30 3177 H 315.801 -0.665419 0.119139 0
M  V30 3178 H 318.355 -1.80436 0.981432 0
M  V30 3179 H 316.585 -3.82251 -0.58489 0
M  V30 3180 H 318.274 -4.05221 -0.234618 0
M  V30 3181 H 319.04 -4.30379 2.23604 0
M  V30 3182 H 314.919 -4.49466 1.02477 0
M  V30 3183 H 318.463 -5.46289 4.33837 0
M  V30 3184 H 314.36 -5.65185 3.11826 0
M  V30 3185 H 315.128 -6.4552 5.03235 0
M  V30 3186 N 317.792 -0.46758 -1.50504 0
M  V30 3187 C 318.722 0.318381 -2.31319 0
M  V30 3188 C 319.703 0.993564 -1.38066 0
M  V30 3189 O 320.888 0.991411 -1.66987 0
M  V30 3190 C 318.018 1.40275 -3.17711 0
M  V30 3191 C 316.972 0.849373 -4.19487 0
M  V30 3192 C 316.298 2.03177 -4.94594 0
M  V30 3193 C 317.598 -0.136942 -5.2212 0
M  V30 3194 H 319.292 -0.356106 -2.97275 0
M  V30 3195 H 316.838 -0.172703 -1.42961 0
M  V30 3196 H 318.791 1.96004 -3.73042 0
M  V30 3197 H 317.515 2.10596 -2.49634 0
M  V30 3198 H 316.174 0.314076 -3.65252 0
M  V30 3199 H 315.822 2.72187 -4.22993 0
M  V30 3200 H 315.522 1.66774 -5.63436 0
M  V30 3201 H 317.046 2.59403 -5.52759 0
M  V30 3202 H 318.46 0.331056 -5.72343 0
M  V30 3203 H 316.857 -0.41507 -5.98663 0
M  V30 3204 H 317.927 -1.06398 -4.73083 0
M  V30 3205 N 319.27 1.56325 -0.20005 0
M  V30 3206 C 320.547 1.89484 0.48529 0
M  V30 3207 C 320.927 1.1143 1.79294 0
M  V30 3208 O 320.275 0.216919 2.27468 0
M  V30 3209 C 320.485 3.41923 0.699243 0
M  V30 3210 C 321.833 4.12256 1.01638 0
M  V30 3211 O 322.857 3.47402 0.786792 0
M  V30 3212 O 321.716 5.26887 1.45095 0
M  V30 3213 H 318.81 0.787144 0.253639 0
M  V30 3214 H 321.356 1.67985 -0.240633 0
M  V30 3215 H 320.128 3.90658 -0.224008 0
M  V30 3216 H 319.751 3.69131 1.47744 0
M  V30 3217 N 320.748 -0.0735177 1.57428 0
M  V30 3218 C 321.976 -0.785969 1.9139 0
M  V30 3219 C 322.391 -1.71207 0.795847 0
M  V30 3220 O 321.748 -1.81033 -0.230915 0
M  V30 3221 C 321.799 -1.58107 3.25091 0
M  V30 3222 O 321.52 -0.6922 4.32597 0
M  V30 3223 C 323.021 -2.39467 3.73055 0
M  V30 3224 H 320.241 -0.223558 0.632663 0
M  V30 3225 H 322.785 -0.044302 2.04452 0
M  V30 3226 H 320.94 -2.27503 3.13562 0
M  V30 3227 H 321.354 -1.24504 5.09508 0
M  V30 3228 H 322.828 -2.90716 4.69242 0
M  V30 3229 H 323.305 -3.18913 3.01979 0
M  V30 3230 H 323.911 -1.7523 3.87523 0
M  V30 3231 N 322.226 -1.5378 -0.344866 0
M  V30 3232 C 323.156 -1.84662 -1.42906 0
M  V30 3233 C 324.137 -0.701648 -1.54955 0
M  V30 3234 O 325.322 -0.953438 -1.69184 0
M  V30 3235 C 322.452 -2.05503 -2.79974 0
M  V30 3236 C 321.406 -3.21318 -2.82734 0
M  V30 3237 C 320.732 -3.2749 -4.22675 0
M  V30 3238 C 322.032 -4.59456 -2.48389 0
M  V30 3239 H 323.726 -2.75461 -1.17311 0
M  V30 3240 H 321.272 -1.32542 -0.562896 0
M  V30 3241 H 323.225 -2.25691 -3.55867 0
M  V30 3242 H 321.949 -1.11434 -3.07002 0
M  V30 3243 H 320.608 -3.00984 -2.09294 0
M  V30 3244 H 320.256 -2.31019 -4.4681 0
M  V30 3245 H 319.956 -4.05316 -4.25433 0
M  V30 3246 H 321.48 -3.49887 -5.00412 0
M  V30 3247 H 322.894 -4.79667 -3.13995 0
M  V30 3248 H 321.291 -5.39675 -2.62432 0
M  V30 3249 H 322.361 -4.63155 -1.4358 0
M  V30 3250 N 323.704 0.605807 -1.45491 0
M  V30 3251 C 324.95 1.36481 -1.50813 0
M  V30 3252 C 325.305 1.91826 -0.148469 0
M  V30 3253 O 324.598 1.72211 0.839869 0
M  V30 3254 C 324.792 2.53012 -2.52428 0
M  V30 3255 C 324.621 2.09078 -3.98141 0
M  V30 3256 C 323.391 1.95167 -4.66088 0
M  V30 3257 C 325.589 1.66438 -4.86624 0
M  V30 3258 N 323.571 1.45062 -5.96515 0
M  V30 3259 C 324.942 1.27761 -6.06694 0
M  V30 3260 C 326.997 1.54046 -4.7347 0
M  V30 3261 C 325.7 0.779286 -7.15066 0
M  V30 3262 C 327.726 1.05618 -5.81892 0
M  V30 3263 C 327.088 0.67906 -7.01119 0
M  V30 3264 H 323.187 0.493267 -0.606805 0
M  V30 3265 H 325.771 0.692347 -1.81974 0
M  V30 3266 H 323.942 3.17851 -2.23215 0
M  V30 3267 H 325.674 3.19897 -2.47887 0
M  V30 3268 H 322.429 2.16407 -4.21266 0
M  V30 3269 H 322.853 1.22237 -6.65873 0
M  V30 3270 H 327.495 1.81827 -3.81705 0
M  V30 3271 H 325.213 0.489026 -8.06619 0
M  V30 3272 H 328.799 0.964529 -5.73749 0
M  V30 3273 H 327.679 0.310091 -7.83587 0
M  V30 3274 N 325.182 1.32811 0.848464 0
M  V30 3275 C 326.41 1.26739 1.63538 0
M  V30 3276 C 326.825 -0.163484 1.88091 0
M  V30 3277 O 326.182 -1.10258 1.45429 0
M  V30 3278 C 326.233 2.03013 2.99112 0
M  V30 3279 O 325.954 3.40518 2.75643 0
M  V30 3280 C 327.455 2.04038 3.93552 0
M  V30 3281 H 324.675 0.437024 0.509167 0
M  V30 3282 H 327.219 1.75033 1.05753 0
M  V30 3283 H 325.374 1.58426 3.53525 0
M  V30 3284 H 325.788 3.79635 3.61908 0
M  V30 3285 H 327.262 2.61877 4.85926 0
M  V30 3286 H 327.739 1.0282 4.26995 0
M  V30 3287 H 328.345 2.486 3.45077 0
M  V30 3288 N 326.66 -1.06551 1.16123 0
M  V30 3289 C 327.906 -1.79719 0.952505 0
M  V30 3290 C 328.261 -1.85396 -0.514385 0
M  V30 3291 O 327.554 -1.33263 -1.37665 0
M  V30 3292 C 327.748 -3.23911 1.51052 0
M  V30 3293 C 327.577 -3.32284 3.03013 0
M  V30 3294 C 326.347 -3.42371 3.71632 0
M  V30 3295 C 328.545 -3.22363 4.00732 0
M  V30 3296 N 326.527 -3.39732 5.11327 0
M  V30 3297 C 327.898 -3.26937 5.26794 0
M  V30 3298 C 329.953 -3.0623 3.92591 0
M  V30 3299 C 328.656 -3.17035 6.45663 0
M  V30 3300 C 330.682 -2.97665 5.11028 0
M  V30 3301 C 330.044 -3.02858 6.35969 0
M  V30 3302 H 326.143 -0.670585 0.402293 0
M  V30 3303 H 328.727 -1.27125 1.4747 0
M  V30 3304 H 326.898 -3.74907 1.01484 0
M  V30 3305 H 328.63 -3.85242 1.2398 0
M  V30 3306 H 325.385 -3.47058 3.22254 0
M  V30 3307 H 325.809 -3.41919 5.84312 0
M  V30 3308 H 330.451 -3.01063 2.96852 0
M  V30 3309 H 328.169 -3.2096 7.41627 0
M  V30 3310 H 331.755 -2.86273 5.06497 0
M  V30 3311 H 330.635 -2.96286 7.26075 0
M  V30 3312 N 328.138 -0.959301 -1.25041 0
M  V30 3313 C 329.366 -0.633949 -1.96948 0
M  V30 3314 C 329.781 0.794916 -1.7125 0
M  V30 3315 O 329.138 1.53231 -0.991287 0
M  V30 3316 C 329.189 -0.888805 -3.50403 0
M  V30 3317 O 328.91 -2.26149 -3.75218 0
M  V30 3318 C 330.411 -0.576482 -4.39536 0
M  V30 3319 H 327.631 -0.237263 -0.627652 0
M  V30 3320 H 330.175 -1.28495 -1.59089 0
M  V30 3321 H 328.33 -0.284145 -3.86357 0
M  V30 3322 H 328.744 -2.33514 -4.6965 0
M  V30 3323 H 330.218 -0.805314 -5.46094 0
M  V30 3324 H 330.695 0.489075 -4.36468 0
M  V30 3325 H 331.301 -1.16067 -4.09156 0
M  V30 3326 N 329.616 1.39756 -0.72842 0
M  V30 3327 C 330.856 2.025 -0.278078 0
M  V30 3328 C 331.22 1.5654 1.11173 0
M  V30 3329 O 332.421 2.11435 1.65978 0
M  V30 3330 C 330.692 3.55489 -0.369139 0
M  V30 3331 S 332.251 4.388 0.00232983 0
M  V30 3332 H 329.069 0.702534 -0.109391 0
M  V30 3333 H 331.671 1.70672 -0.95348 0
M  V30 3334 H 330.375 3.86429 -1.38204 0
M  V30 3335 H 329.906 3.92061 0.324308 0
M  V30 3336 H 331.921 4.80954 1.22055 0
M  V30 3337 N 331.094 0.475555 1.50254 0
M  V30 3338 C 332.026 -0.352649 2.26471 0
M  V30 3339 C 333.039 -0.953165 1.3198 0
M  V30 3340 O 334.228 -0.840815 1.57457 0
M  V30 3341 C 331.328 -1.50902 3.0345 0
M  V30 3342 C 330.501 -1.02047 4.25329 0
M  V30 3343 C 329.56 -2.05142 4.84565 0
M  V30 3344 O 328.586 -1.63023 5.45355 0
M  V30 3345 N 329.788 -3.37987 4.71959 0
M  V30 3346 H 332.553 0.300767 2.98187 0
M  V30 3347 H 330.114 0.306598 1.5897 0
M  V30 3348 H 332.106 -2.19572 3.39956 0
M  V30 3349 H 330.676 -2.06705 2.34504 0
M  V30 3350 H 329.896 -0.159507 3.93877 0
M  V30 3351 H 331.184 -0.672061 5.04342 0
M  V30 3352 H 330.582 -3.74913 4.23623 0
M  V30 3353 H 329.139 -4.02443 5.12721 0
M  V30 3354 N 332.573 -1.56217 0.208337 0
M  V30 3355 C 333.521 -2.21053 -0.723769 0
M  V30 3356 C 334.515 -1.18578 -1.20978 0
M  V30 3357 O 335.721 -1.36691 -1.17114 0
M  V30 3358 H 332.096 -0.708595 -0.251788 0
M  V30 3359 H 334.067 -2.98006 -0.153365 0
M  V30 3360 C 332.816 -2.89417 -1.927 0
M  V30 3361 H 332.139 -3.68019 -1.56212 0
M  V30 3362 H 333.579 -3.38201 -2.55727 0
M  V30 3363 C 332.038 -1.91166 -2.77411 0
M  V30 3364 O 332.568 -1.42026 -3.75754 0
M  V30 3365 N 330.774 -1.59105 -2.43175 0
M  V30 3366 H 330.321 -1.99259 -1.63259 0
M  V30 3367 H 330.279 -0.936255 -3.00136 0
M  V30 3368 N 334.051 0.0651679 -1.57465 0
M  V30 3369 C 334.998 1.07675 -2.04144 0
M  V30 3370 C 335.968 1.38071 -0.923335 0
M  V30 3371 O 337.153 1.49026 -1.19146 0
M  V30 3372 C 334.293 2.38337 -2.49579 0
M  V30 3373 C 333.406 2.14413 -3.75035 0
M  V30 3374 C 332.541 3.38686 -4.09225 0
M  V30 3375 C 331.58 3.10156 -5.27702 0
M  V30 3376 N 330.717 4.26778 -5.57499 0
M  V30 3377 H 335.557 0.671716 -2.90331 0
M  V30 3378 H 333.094 0.3201 -1.43575 0
M  V30 3379 H 335.052 3.14632 -2.73975 0
M  V30 3380 H 333.682 2.7663 -1.6636 0
M  V30 3381 H 332.734 1.2878 -3.57939 0
M  V30 3382 H 334.046 1.89344 -4.61466 0
M  V30 3383 H 333.2 4.23373 -4.34558 0
M  V30 3384 H 331.939 3.66837 -3.21374 0
M  V30 3385 H 330.944 2.23866 -5.02159 0
M  V30 3386 H 332.169 2.8332 -6.17176 0
M  V30 3387 H 330.115 4.54948 -4.72608 0
M  V30 3388 H 330.032 4.05005 -6.38362 0
M  V30 3389 H 331.3 5.12443 -5.87386 0
M  V30 3390 N 335.529 1.53961 0.336706 0
M  V30 3391 C 336.754 1.75797 1.10046 0
M  V30 3392 C 337.179 0.498985 1.81361 0
M  V30 3393 O 336.537 -0.548769 1.72795 0
M  V30 3394 C 336.585 2.94257 2.08436 0
M  V30 3395 O 335.689 2.64883 3.16087 0
M  V30 3396 H 335.03 0.582936 0.317934 0
M  V30 3397 H 337.56 2.00945 0.38501 0
M  V30 3398 H 337.57 3.21237 2.51537 0
M  V30 3399 H 336.245 3.85564 1.55927 0
M  V30 3400 H 334.822 2.48812 2.77753 0
M  V30 3401 N 337.007 -0.598083 1.45811 0
M  V30 3402 C 337.955 -1.72932 1.55555 0
M  V30 3403 C 338.949 -1.63984 0.424921 0
M  V30 3404 O 340.155 -1.69663 0.601205 0
M  V30 3405 H 336.53 -0.571489 0.488779 0
M  V30 3406 H 338.501 -1.61842 2.50699 0
M  V30 3407 C 337.25 -3.11318 1.54843 0
M  V30 3408 H 336.573 -3.18867 2.41172 0
M  V30 3409 H 338.013 -3.90274 1.65717 0
M  V30 3410 C 336.472 -3.3578 0.274427 0
M  V30 3411 O 337.002 -3.9654 -0.641778 0
M  V30 3412 N 335.208 -2.90119 0.167139 0
M  V30 3413 H 334.755 -2.40855 0.913596 0
M  V30 3414 H 334.713 -3.0686 -0.684435 0
M  V30 3415 N 338.485 -1.33259 -0.841409 0
M  V30 3416 C 339.734 -1.23921 -1.59143 0
M  V30 3417 C 340.047 0.1941 -1.94635 0
M  V30 3418 O 341.253 0.409474 -2.68394 0
M  V30 3419 C 339.709 -2.17119 -2.87032 0
M  V30 3420 C 339.317 -3.65606 -2.58914 0
M  V30 3421 C 341.061 -2.16648 -3.65053 0
M  V30 3422 C 338.968 -4.50726 -3.82884 0
M  V30 3423 H 337.898 -0.460264 -0.597221 0
M  V30 3424 H 340.549 -1.58307 -0.927959 0
M  V30 3425 H 338.931 -1.75663 -3.54906 0
M  V30 3426 H 340.105 -4.15487 -1.99267 0
M  V30 3427 H 338.42 -3.68341 -1.942 0
M  V30 3428 H 341.017 -2.77474 -4.57069 0
M  V30 3429 H 341.36 -1.16088 -3.99787 0
M  V30 3430 H 341.893 -2.56453 -3.041 0
M  V30 3431 H 338.632 -5.52151 -3.53283 0
M  V30 3432 H 338.152 -4.0559 -4.41879 0
M  V30 3433 H 339.831 -4.64401 -4.50489 0
M  V30 3434 N 339.963 1.05934 -1.16686 0
M  V30 3435 C 340.926 2.11669 -0.879144 0
M  V30 3436 C 341.926 1.60294 0.127445 0
M  V30 3437 O 343.116 1.7389 -0.103865 0
M  V30 3438 C 340.248 3.39438 -0.315425 0
M  V30 3439 H 341.441 2.38626 -1.81653 0
M  V30 3440 H 338.994 1.22058 -0.976299 0
M  V30 3441 H 339.729 3.18132 0.629468 0
M  V30 3442 H 339.514 3.78034 -1.04079 0
M  V30 3443 H 341.004 4.17391 -0.132189 0
M  V30 3444 N 341.441 0.965919 1.2453 0
M  V30 3445 C 342.666 0.643971 1.97149 0
M  V30 3446 C 343.091 -0.779487 1.71189 0
M  V30 3447 O 342.449 -1.5288 0.974553 0
M  V30 3448 C 342.497 0.922557 3.48599 0
M  V30 3449 O 341.601 0.00707672 4.12399 0
M  V30 3450 H 340.942 0.243647 0.617683 0
M  V30 3451 H 343.472 1.29558 1.58353 0
M  V30 3452 H 343.482 0.853373 3.98976 0
M  V30 3453 H 342.157 1.95996 3.66822 0
M  V30 3454 H 340.734 0.12943 3.72675 0
M  V30 3455 N 342.919 -1.39368 0.735821 0
M  V30 3456 C 344.165 -2.00794 0.284544 0
M  V30 3457 C 344.498 -1.58255 -1.12557 0
M  V30 3458 O 343.773 -0.811819 -1.76748 0
M  V30 3459 C 344.056 -3.58011 0.387337 0
M  V30 3460 C 343.909 -4.10566 1.83728 0
M  V30 3461 C 345.228 -4.395 -0.22975 0
M  V30 3462 H 342.347 -0.729501 0.104866 0
M  V30 3463 H 344.989 -1.65564 0.93213 0
M  V30 3464 H 343.139 -3.88154 -0.164006 0
M  V30 3465 H 344.811 -3.91139 2.44556 0
M  V30 3466 H 343.054 -3.64095 2.35833 0
M  V30 3467 H 343.725 -5.19702 1.86047 0
M  V30 3468 H 346.201 -4.15406 0.240257 0
M  V30 3469 H 345.077 -5.48752 -0.127485 0
M  V30 3470 H 345.338 -4.22062 -1.3159 0
M  V30 3471 N 344.397 -0.483516 -1.5 0
M  V30 3472 C 345.643 0.0593261 -2.03313 0
M  V30 3473 C 345.998 1.36288 -1.35806 0
M  V30 3474 O 345.291 1.85519 -0.478897 0
M  V30 3475 C 345.485 0.286226 -3.56252 0
M  V30 3476 C 345.314 -0.993788 -4.38582 0
M  V30 3477 C 344.084 -1.54064 -4.81241 0
M  V30 3478 C 346.282 -1.89249 -4.78215 0
M  V30 3479 N 344.264 -2.76838 -5.47936 0
M  V30 3480 C 345.635 -2.96606 -5.44449 0
M  V30 3481 C 347.69 -1.90138 -4.60165 0
M  V30 3482 C 346.393 -4.04857 -5.94544 0
M  V30 3483 C 348.419 -2.97353 -5.1121 0
M  V30 3484 C 347.781 -4.03429 -5.77429 0
M  V30 3485 H 343.88 -0.0186322 -0.781778 0
M  V30 3486 H 346.464 -0.654489 -1.8337 0
M  V30 3487 H 344.635 0.969086 -3.76116 0
M  V30 3488 H 346.367 0.824515 -3.96212 0
M  V30 3489 H 343.122 -1.08813 -4.6093 0
M  V30 3490 H 343.546 -3.39221 -5.85882 0
M  V30 3491 H 348.188 -1.09441 -4.0839 0
M  V30 3492 H 345.906 -4.86363 -6.4535 0
M  V30 3493 H 349.492 -2.99039 -4.99066 0
M  V30 3494 H 348.372 -4.85025 -6.16214 0
M  V30 3495 N 345.875 1.56104 -0.216619 0
M  V30 3496 C 347.122 1.98172 0.416416 0
M  V30 3497 C 347.45 1.10413 1.60122 0
M  V30 3498 O 346.705 0.147967 1.9514 0
M  V30 3499 C 347.004 3.45923 0.898464 0
M  V30 3500 C 346.67 4.50559 -0.175288 0
M  V30 3501 C 345.332 4.78897 -0.470271 0
M  V30 3502 C 347.684 5.1334 -0.901728 0
M  V30 3503 C 345.012 5.67299 -1.4963 0
M  V30 3504 C 347.364 6.02853 -1.91705 0
M  V30 3505 C 346.028 6.29537 -2.21901 0
M  V30 3506 H 345.298 0.725164 0.152377 0
M  V30 3507 H 347.945 1.88839 -0.318103 0
M  V30 3508 H 346.25 3.52434 1.71165 0
M  V30 3509 H 347.947 3.75841 1.39803 0
M  V30 3510 H 344.537 4.28551 0.0647806 0
M  V30 3511 H 348.721 4.91521 -0.687072 0
M  V30 3512 H 343.977 5.86239 -1.73592 0
M  V30 3513 H 348.151 6.50552 -2.48505 0
M  V30 3514 H 345.778 6.97835 -3.01548 0
M  V30 3515 N 347.353 -0.0568162 1.57498 0
M  V30 3516 C 348.316 -1.05038 2.03715 0
M  V30 3517 C 349.316 -1.30709 0.936577 0
M  V30 3518 O 350.506 -1.26178 1.20103 0
M  V30 3519 C 347.638 -2.39034 2.43055 0
M  V30 3520 H 348.831 -0.651715 2.92733 0
M  V30 3521 H 346.384 -0.302947 1.53336 0
M  V30 3522 H 347.119 -2.83703 1.57108 0
M  V30 3523 H 346.904 -2.21739 3.2338 0
M  V30 3524 H 348.394 -3.10421 2.79336 0
M  V30 3525 N 348.832 -1.54138 -0.328536 0
M  V30 3526 C 349.795 -1.82462 -1.38709 0
M  V30 3527 C 350.795 -0.696229 -1.44946 0
M  V30 3528 O 351.985 -0.964535 -1.4506 0
M  V30 3529 C 349.117 -1.98018 -2.77492 0
M  V30 3530 H 350.31 -2.77037 -1.14851 0
M  V30 3531 H 347.863 -1.45779 -0.563751 0
M  V30 3532 H 348.598 -1.05637 -3.06613 0
M  V30 3533 H 348.383 -2.80124 -2.74359 0
M  V30 3534 H 349.873 -2.21396 -3.54081 0
M  V30 3535 N 350.31 0.590341 -1.46126 0
M  V30 3536 C 351.535 1.37991 -1.54833 0
M  V30 3537 C 351.96 1.87163 -0.187506 0
M  V30 3538 O 351.318 1.61133 0.831008 0
M  V30 3539 C 351.366 2.54867 -2.55098 0
M  V30 3540 O 350.47 3.56061 -2.08073 0
M  V30 3541 H 349.811 0.411265 -0.521303 0
M  V30 3542 H 352.341 0.716819 -1.91632 0
M  V30 3543 H 352.351 3.01886 -2.74461 0
M  V30 3544 H 351.026 2.18429 -3.53923 0
M  V30 3545 H 349.603 3.15574 -1.98664 0
M  V30 3546 N 351.788 1.33704 0.83433 0
M  V30 3547 C 353.036 1.25169 1.58673 0
M  V30 3548 C 353.357 -0.18127 1.94156 0
M  V30 3549 O 352.627 -1.11113 1.6134 0
M  V30 3550 H 351.207 0.4603 0.58833 0
M  V30 3551 H 353.869 1.67478 0.996847 0
M  V30 3552 H 352.965 1.84856 2.51465 0
M  V30 3553 N 353.266 -1.05314 1.17247 0
M  V30 3554 C 354.214 -2.15137 0.884238 0
M  V30 3555 C 355.208 -1.68729 -0.15063 0
M  V30 3556 O 356.414 -1.8 -0.00366673 0
M  V30 3557 H 352.789 -0.702471 0.2684 0
M  V30 3558 H 354.76 -2.36652 1.81764 0
M  V30 3559 C 353.509 -3.45243 0.412659 0
M  V30 3560 H 352.832 -3.81352 1.20043 0
M  V30 3561 H 354.272 -4.23263 0.249858 0
M  V30 3562 C 352.731 -3.25487 -0.86948 0
M  V30 3563 O 353.261 -3.51938 -1.93655 0
M  V30 3564 N 351.467 -2.78875 -0.817147 0
M  V30 3565 H 351.014 -2.57549 0.0514211 0
M  V30 3566 H 350.972 -2.66036 -1.67547 0
M  V30 3567 N 354.744 -0.972509 -1.24016 0
M  V30 3568 C 355.707 -0.511403 -2.23422 0
M  V30 3569 C 356.707 0.394679 -1.55881 0
M  V30 3570 O 357.897 0.189469 -1.73167 0
M  V30 3571 C 355.029 0.258769 -3.39916 0
M  V30 3572 H 356.222 -1.39024 -2.6573 0
M  V30 3573 H 353.775 -0.757585 -1.36713 0
M  V30 3574 H 354.51 1.1545 -3.03054 0
M  V30 3575 H 354.295 -0.391522 -3.9014 0
M  V30 3576 H 355.785 0.570244 -4.13688 0
M  V30 3577 N 356.222 1.38976 -0.743202 0
M  V30 3578 C 357.47 1.99948 -0.29417 0
M  V30 3579 C 357.791 1.59279 1.12495 0
M  V30 3580 O 357.061 0.844808 1.76748 0
M  V30 3581 H 355.641 0.739473 -0.105774 0
M  V30 3582 H 358.303 1.699 -0.954986 0
M  V30 3583 H 357.399 3.10142 -0.349056 0
M  V30 3584 N 357.7 0.491464 1.49741 0
M  V30 3585 C 358.94 -0.0549118 2.04326 0
M  V30 3586 C 359.304 -1.35148 1.36378 0
M  V30 3587 O 360.505 -1.9815 1.81631 0
M  V30 3588 C 358.776 -0.213841 3.5676 0
M  V30 3589 S 360.335 -0.715839 4.32922 0
M  V30 3590 H 357.153 -0.00630513 0.710972 0
M  V30 3591 H 359.755 0.663257 1.83905 0
M  V30 3592 H 358.459 0.73527 4.0376 0
M  V30 3593 H 357.99 -0.957529 3.81569 0
M  V30 3594 H 360.005 -1.9864 4.54705 0
M  V30 3595 N 359.178 -1.55987 0.224894 0
M  V30 3596 C 360.111 -2.16413 -0.723929 0
M  V30 3597 C 361.089 -1.10952 -1.18863 0
M  V30 3598 O 362.273 -1.39225 -1.27077 0
M  V30 3599 C 359.4 -2.74711 -1.98121 0
M  V30 3600 C 358.446 -3.9303 -1.6562 0
M  V30 3601 S 359.279 -5.29817 -0.778058 0
M  V30 3602 C 360.435 -5.91555 -2.04483 0
M  V30 3603 H 360.668 -2.96555 -0.210347 0
M  V30 3604 H 358.201 -1.54397 0.00955457 0
M  V30 3605 H 360.159 -3.08938 -2.70311 0
M  V30 3606 H 358.82 -1.94555 -2.46591 0
M  V30 3607 H 358.013 -4.32334 -2.59043 0
M  V30 3608 H 357.615 -3.59966 -1.01491 0
M  V30 3609 H 359.907 -6.07732 -2.99446 0
M  V30 3610 H 360.85 -6.87498 -1.69563 0
M  V30 3611 H 361.258 -5.20419 -2.18688 0
M  V30 3612 N 360.656 0.0484629 -1.57525 0
M  V30 3613 C 362.067 0.597486 -1.76881 0
M  V30 3614 C 362.418 1.76664 -0.853475 0
M  V30 3615 O 361.543 2.16357 -0.0433656 0
M  V30 3616 C 362.138 1.09066 -3.20765 0
M  V30 3617 C 360.697 1.58535 -3.41385 0
M  V30 3618 C 359.844 0.514868 -2.72478 0
M  V30 3619 H 362.795 -0.177758 -1.57701 0
M  V30 3620 H 362.816 1.95875 -3.2621 0
M  V30 3621 H 362.328 0.239521 -3.8736 0
M  V30 3622 H 360.429 2.45898 -2.79937 0
M  V30 3623 H 360.542 1.64622 -4.49929 0
M  V30 3624 H 358.906 0.965407 -2.35695 0
M  V30 3625 H 359.689 -0.32648 -3.41744 0
M  V30 3626 N 362.134 1.5431 0.320358 0
M  V30 3627 C 363.362 1.76636 1.07738 0
M  V30 3628 C 363.777 0.51649 1.81598 0
M  V30 3629 O 363.134 -0.512942 1.75143 0
M  V30 3630 C 363.185 2.96158 2.07299 0
M  V30 3631 O 362.906 4.16313 1.36438 0
M  V30 3632 C 364.407 3.3072 2.95193 0
M  V30 3633 H 361.627 0.589597 0.320339 0
M  V30 3634 H 364.171 2.01207 0.36551 0
M  V30 3635 H 362.326 2.73851 2.74016 0
M  V30 3636 H 362.74 4.83565 2.03138 0
M  V30 3637 H 364.214 4.17643 3.60941 0
M  V30 3638 H 364.691 2.48026 3.62463 0
M  V30 3639 H 365.297 3.55117 2.34034 0
M  V30 3640 N 363.613 -0.582584 1.46437 0
M  V30 3641 C 364.546 -1.70633 1.51524 0
M  V30 3642 C 365.524 -1.58349 0.369351 0
M  V30 3643 O 366.708 -1.79563 0.573516 0
M  V30 3644 C 363.835 -3.08687 1.39392 0
M  V30 3645 C 362.881 -3.3949 2.58164 0
M  V30 3646 S 363.714 -3.31548 4.20519 0
M  V30 3647 C 364.87 -4.72139 4.10896 0
M  V30 3648 H 365.103 -1.66058 2.46601 0
M  V30 3649 H 362.636 -0.761337 1.34324 0
M  V30 3650 H 364.594 -3.8833 1.33079 0
M  V30 3651 H 363.255 -3.10751 0.457436 0
M  V30 3652 H 362.448 -4.40071 2.45669 0
M  V30 3653 H 362.05 -2.67415 2.61468 0
M  V30 3654 H 364.342 -5.62527 3.77584 0
M  V30 3655 H 365.285 -4.89692 5.11476 0
M  V30 3656 H 365.693 -4.48995 3.42146 0
M  V30 3657 N 365.091 -1.34144 -0.827227 0
M  V30 3658 C 366.041 -1.21923 -1.92663 0
M  V30 3659 C 367.025 -0.119294 -1.60457 0
M  V30 3660 O 368.217 -0.348539 -1.73534 0
M  V30 3661 C 365.346 -0.972492 -3.29238 0
M  V30 3662 C 364.432 -2.1154 -3.67576 0
M  V30 3663 N 364.823 -3.36627 -3.77512 0
M  V30 3664 C 363.121 -2.02468 -3.97395 0
M  V30 3665 C 363.822 -4.11658 -4.1099 0
M  V30 3666 N 362.798 -3.40207 -4.23981 0
M  V30 3667 H 366.6 -2.16721 -1.98517 0
M  V30 3668 H 364.114 -1.2632 -1.02064 0
M  V30 3669 H 366.111 -0.865847 -4.0781 0
M  V30 3670 H 364.771 -0.0331509 -3.24683 0
M  V30 3671 H 365.782 -3.71234 -3.61118 0
M  V30 3672 H 362.459 -1.16265 -4.00985 0
M  V30 3673 H 363.849 -5.19657 -4.25918 0
M  V30 3674 N 366.569 1.04691 -1.17803 0
M  V30 3675 C 367.516 2.12557 -0.899343 0
M  V30 3676 C 368.486 1.65339 0.158771 0
M  V30 3677 O 369.671 1.90789 0.0204797 0
M  V30 3678 C 366.811 3.42481 -0.424315 0
M  V30 3679 C 365.924 4.03346 -1.54713 0
M  V30 3680 C 365.059 5.21208 -1.02546 0
M  V30 3681 C 364.098 5.74089 -2.12339 0
M  V30 3682 N 363.235 6.83247 -1.61612 0
M  V30 3683 H 368.075 2.35734 -1.823 0
M  V30 3684 H 365.612 1.1564 -0.909159 0
M  V30 3685 H 367.57 4.16996 -0.130421 0
M  V30 3686 H 366.2 3.19471 0.462377 0
M  V30 3687 H 365.252 3.2622 -1.95664 0
M  V30 3688 H 366.564 4.38628 -2.37501 0
M  V30 3689 H 365.718 6.02812 -0.685718 0
M  V30 3690 H 364.457 4.87414 -0.167084 0
M  V30 3691 H 363.462 4.91111 -2.47165 0
M  V30 3692 H 364.687 6.0993 -2.98601 0
M  V30 3693 H 362.633 6.5134 -0.780533 0
M  V30 3694 H 362.55 7.17559 -2.38003 0
M  V30 3695 H 363.818 7.68491 -1.30545 0
M  V30 3696 N 368.047 0.979072 1.23499 0
M  V30 3697 C 369.324 0.563674 1.87302 0
M  V30 3698 C 369.704 -0.959199 1.88049 0
M  V30 3699 O 369.052 -1.83535 1.36114 0
M  V30 3700 C 369.262 1.16822 3.28867 0
M  V30 3701 C 370.61 1.26014 4.0547 0
M  V30 3702 O 371.634 1.12158 3.38082 0
M  V30 3703 O 370.493 1.48044 5.26066 0
M  V30 3704 H 367.587 0.189602 0.804972 0
M  V30 3705 H 370.133 1.07407 1.31384 0
M  V30 3706 H 368.905 2.21049 3.22883 0
M  V30 3707 H 368.528 0.642564 3.92373 0
M  V30 3708 N 369.525 -1.3858 0.750561 0
M  V30 3709 C 370.753 -2.04471 0.316098 0
M  V30 3710 C 371.168 -1.56606 -1.05452 0
M  V30 3711 O 370.525 -0.737784 -1.66922 0
M  V30 3712 C 370.576 -3.60025 0.326275 0
M  V30 3713 O 370.297 -4.06133 1.6428 0
M  V30 3714 C 371.798 -4.43131 -0.122429 0
M  V30 3715 H 369.018 -0.65717 0.135528 0
M  V30 3716 H 371.562 -1.77329 1.01857 0
M  V30 3717 H 369.717 -3.86014 -0.327431 0
M  V30 3718 H 370.131 -5.00547 1.56693 0
M  V30 3719 H 371.605 -5.51963 -0.0641473 0
M  V30 3720 H 372.082 -4.23333 -1.16988 0
M  V30 3721 H 372.688 -4.22323 0.50229 0
M  V30 3722 N 371.003 -0.499398 -1.49478 0
M  V30 3723 C 371.951 0.293604 -2.3074 0
M  V30 3724 C 372.945 0.96427 -1.39277 0
M  V30 3725 O 374.151 0.892141 -1.56336 0
M  V30 3726 H 370.526 0.113541 -0.743379 0
M  V30 3727 H 372.497 -0.411772 -2.95545 0
M  V30 3728 C 371.246 1.3462 -3.20582 0
M  V30 3729 H 370.569 0.83954 -3.90886 0
M  V30 3730 H 372.009 1.87308 -3.80384 0
M  V30 3731 C 370.468 2.36351 -2.40083 0
M  V30 3732 O 370.998 3.422 -2.10385 0
M  V30 3733 N 369.204 2.0878 -2.02137 0
M  V30 3734 H 368.751 1.22723 -2.26488 0
M  V30 3735 H 368.709 2.77075 -1.48583 0
M  V30 3736 N 372.481 1.55866 -0.233164 0
M  V30 3737 C 373.892 1.847 0.272554 0
M  V30 3738 C 374.243 1.15477 1.58617 0
M  V30 3739 O 373.368 0.42841 2.12117 0
M  V30 3740 C 373.963 3.35071 0.501299 0
M  V30 3741 C 372.522 3.6418 0.951304 0
M  V30 3742 C 371.669 2.77292 0.0208209 0
M  V30 3743 H 374.62 1.52005 -0.456074 0
M  V30 3744 H 374.641 3.55906 1.34577 0
M  V30 3745 H 374.153 3.85424 -0.454936 0
M  V30 3746 H 372.254 3.19293 1.92049 0
M  V30 3747 H 372.367 4.72071 0.817675 0
M  V30 3748 H 370.731 2.49131 0.529723 0
M  V30 3749 H 371.514 3.30448 -0.93054 0
M  V30 3750 N 373.959 -0.0401083 1.57549 0
M  V30 3751 C 374.906 -1.04413 2.05831 0
M  V30 3752 C 375.876 -1.36585 0.945184 0
M  V30 3753 O 377.061 -1.47112 1.21502 0
M  V30 3754 C 374.201 -2.34336 2.53339 0
M  V30 3755 C 373.314 -2.08419 3.78398 0
M  V30 3756 C 372.449 -3.32133 4.14561 0
M  V30 3757 C 371.488 -3.01721 5.3257 0
M  V30 3758 N 370.625 -4.17855 5.64218 0
M  V30 3759 H 375.465 -0.625442 2.91363 0
M  V30 3760 H 373.002 -0.297218 1.44066 0
M  V30 3761 H 374.96 -3.10234 2.78946 0
M  V30 3762 H 373.59 -2.73948 1.7074 0
M  V30 3763 H 372.642 -1.23069 3.59942 0
M  V30 3764 H 373.954 -1.81978 4.64419 0
M  V30 3765 H 373.108 -4.16406 4.41238 0
M  V30 3766 H 371.847 -3.61678 3.2717 0
M  V30 3767 H 370.852 -2.15849 5.05657 0
M  V30 3768 H 372.077 -2.73466 6.21605 0
M  V30 3769 H 370.023 -4.47372 4.79786 0
M  V30 3770 H 369.94 -3.94798 6.44725 0
M  V30 3771 H 371.208 -5.03033 5.95465 0
M  V30 3772 N 375.437 -1.54477 -0.31217 0
M  V30 3773 C 376.4 -1.83923 -1.36766 0
M  V30 3774 C 377.4 -0.711563 -1.44199 0
M  V30 3775 O 378.59 -0.979866 -1.44029 0
M  V30 3776 C 375.722 -2.0095 -2.75376 0
M  V30 3777 H 376.915 -2.78239 -1.11906 0
M  V30 3778 H 374.468 -1.46369 -0.548257 0
M  V30 3779 H 375.203 -1.08883 -3.05475 0
M  V30 3780 H 374.988 -2.83018 -2.71373 0
M  V30 3781 H 376.478 -2.2514 -3.51713 0
M  V30 3782 N 376.915 0.57481 -1.46744 0
M  V30 3783 C 378.14 1.36341 -1.56288 0
M  V30 3784 C 378.565 1.86954 -0.207347 0
M  V30 3785 O 377.923 1.62006 0.813871 0
M  V30 3786 C 377.971 2.52147 -2.57787 0
M  V30 3787 O 377.075 3.53834 -2.11838 0
M  V30 3788 H 376.416 0.405713 -0.525636 0
M  V30 3789 H 378.946 0.696453 -1.92382 0
M  V30 3790 H 378.956 2.98958 -2.77648 0
M  V30 3791 H 377.631 2.14663 -3.5622 0
M  V30 3792 H 376.208 3.1345 -2.01999 0
M  V30 3793 N 378.394 1.34581 0.820102 0
M  V30 3794 C 379.805 1.24298 1.39309 0
M  V30 3795 C 380.156 -0.130351 1.95767 0
M  V30 3796 O 379.281 -1.0308 1.90272 0
M  V30 3797 C 379.876 2.25054 2.53251 0
M  V30 3798 C 378.435 2.18552 3.0645 0
M  V30 3799 C 377.582 2.11503 1.79337 0
M  V30 3800 H 380.533 1.45906 0.624262 0
M  V30 3801 H 380.554 1.86917 3.31425 0
M  V30 3802 H 380.066 3.24996 2.1213 0
M  V30 3803 H 378.167 1.21976 3.52069 0
M  V30 3804 H 378.28 3.0993 3.65349 0
M  V30 3805 H 376.644 1.57268 2.00347 0
M  V30 3806 H 377.427 3.13284 1.40386 0
M  V30 3807 N 379.872 -1.04064 1.18357 0
M  V30 3808 C 380.835 -2.10243 0.912707 0
M  V30 3809 C 381.835 -1.60477 -0.101928 0
M  V30 3810 O 383.025 -1.73703 0.131517 0
M  V30 3811 C 380.157 -3.38893 0.369387 0
M  V30 3812 H 381.35 -2.35706 1.85426 0
M  V30 3813 H 378.903 -1.20489 0.995594 0
M  V30 3814 H 379.638 -3.19094 -0.578776 0
M  V30 3815 H 379.423 -3.76331 1.1008 0
M  V30 3816 H 380.913 -4.17128 0.198575 0
M  V30 3817 N 381.35 -0.985608 -1.22978 0
M  V30 3818 C 382.578 -0.675582 -1.95559 0
M  V30 3819 C 382.993 0.758413 -1.72897 0
M  V30 3820 O 382.35 1.51094 -1.02357 0
M  V30 3821 C 382.401 -0.96293 -3.48439 0
M  V30 3822 O 382.122 -2.34057 -3.70336 0
M  V30 3823 C 383.623 -0.669585 -4.38214 0
M  V30 3824 H 380.843 -0.250523 -0.622478 0
M  V30 3825 H 383.387 -1.3184 -1.56328 0
M  V30 3826 H 381.542 -0.366033 -3.85667 0
M  V30 3827 H 381.956 -2.43424 -4.64591 0
M  V30 3828 H 383.43 -0.920967 -5.44263 0
M  V30 3829 H 383.907 0.396383 -4.37408 0
M  V30 3830 H 384.513 -1.2472 -4.06602 0
M  V30 3831 N 382.828 1.3818 -0.7579 0
M  V30 3832 C 384.076 1.99624 -0.315361 0
M  V30 3833 C 384.397 1.60464 1.10799 0
M  V30 3834 O 383.667 0.863507 1.75842 0
M  V30 3835 H 382.247 0.73831 -0.113611 0
M  V30 3836 H 384.909 1.68878 -0.972952 0
M  V30 3837 H 384.005 3.09754 -0.381931 0
M  V30 3838 N 384.306 0.507319 1.49211 0
M  V30 3839 C 385.254 -0.281364 2.30892 0
M  V30 3840 C 386.248 -0.95687 1.39787 0
M  V30 3841 O 387.454 -0.883838 1.56807 0
M  V30 3842 H 383.829 -0.109597 0.743971 0
M  V30 3843 H 385.8 0.42744 2.95323 0
M  V30 3844 C 384.549 -1.32918 3.21291 0
M  V30 3845 H 383.872 -0.818799 3.91326 0
M  V30 3846 H 385.312 -1.85288 3.81372 0
M  V30 3847 C 383.771 -2.35074 2.41333 0
M  V30 3848 O 384.301 -3.4108 2.12197 0
M  V30 3849 N 382.507 -2.07705 2.03241 0
M  V30 3850 H 382.054 -1.2152 2.27136 0
M  V30 3851 H 382.012 -2.76283 1.50051 0
M  V30 3852 N 385.784 -1.5574 0.241426 0
M  V30 3853 C 387.03 -1.99104 -0.385406 0
M  V30 3854 C 387.363 -1.1293 -1.57988 0
M  V30 3855 O 386.638 -0.191449 -1.93555 0
M  V30 3856 C 386.921 -3.51087 -0.800616 0
M  V30 3857 C 386.774 -4.48028 0.398874 0
M  V30 3858 C 388.093 -4.08015 -1.64959 0
M  V30 3859 H 385.212 -0.723848 -0.138614 0
M  V30 3860 H 387.854 -1.86903 0.341642 0
M  V30 3861 H 386.004 -3.61615 -1.4201 0
M  V30 3862 H 387.676 -4.49487 1.03726 0
M  V30 3863 H 385.919 -4.21077 1.04293 0
M  V30 3864 H 386.59 -5.51962 0.0651056 0
M  V30 3865 H 389.066 -4.00555 -1.12672 0
M  V30 3866 H 387.942 -5.14635 -1.90898 0
M  V30 3867 H 388.203 -3.56131 -2.61961 0
M  V30 3868 N 387.262 0.0317525 -1.57568 0
M  V30 3869 C 388.673 0.578692 -1.77505 0
M  V30 3870 C 389.024 1.75749 -0.872164 0
M  V30 3871 O 388.149 2.16298 -0.0663106 0
M  V30 3872 C 388.744 1.05658 -3.21904 0
M  V30 3873 C 387.303 1.54906 -3.43047 0
M  V30 3874 C 386.45 0.485939 -2.73009 0
M  V30 3875 H 389.401 -0.194475 -1.57504 0
M  V30 3876 H 389.422 1.92404 -3.28269 0
M  V30 3877 H 388.934 0.198422 -3.87592 0
M  V30 3878 H 387.035 2.42915 -2.82529 0
M  V30 3879 H 387.148 1.59841 -4.5165 0
M  V30 3880 H 385.512 0.940354 -2.36705 0
M  V30 3881 H 386.295 -0.362709 -3.41379 0
M  V30 3882 N 388.74 1.54641 0.303973 0
M  V30 3883 C 389.986 1.74038 1.04109 0
M  V30 3884 C 390.319 0.523051 1.87024 0
M  V30 3885 O 389.594 -0.479874 1.88487 0
M  V30 3886 C 389.877 3.02761 1.94955 0
M  V30 3887 C 389.73 4.34787 1.1524 0
M  V30 3888 C 391.049 3.27336 2.94175 0
M  V30 3889 H 388.168 0.63323 0.377079 0
M  V30 3890 H 390.81 1.87354 0.316001 0
M  V30 3891 H 388.96 2.9154 2.56782 0
M  V30 3892 H 390.632 4.57922 0.557236 0
M  V30 3893 H 388.875 4.31407 0.455053 0
M  V30 3894 H 389.546 5.21116 1.8205 0
M  V30 3895 H 392.022 3.38148 2.42477 0
M  V30 3896 H 390.898 4.18726 3.54908 0
M  V30 3897 H 391.159 2.45491 3.67677 0
M  V30 3898 N 390.218 -0.567019 1.47046 0
M  V30 3899 C 391.467 -1.32091 1.5243 0
M  V30 3900 C 391.78 -1.94704 0.187021 0
M  V30 3901 O 392.986 -2.7124 0.118771 0
M  V30 3902 C 391.442 -2.39479 2.68659 0
M  V30 3903 C 391.05 -1.831 4.08874 0
M  V30 3904 C 392.794 -3.16111 2.83327 0
M  V30 3905 C 390.701 -2.8821 5.16419 0
M  V30 3906 H 389.631 -0.496629 0.56734 0
M  V30 3907 H 392.282 -0.603354 1.73297 0
M  V30 3908 H 390.664 -3.14105 2.41152 0
M  V30 3909 H 391.838 -1.14913 4.46242 0
M  V30 3910 H 390.153 -1.19085 3.99008 0
M  V30 3911 H 392.75 -3.94585 3.60842 0
M  V30 3912 H 393.093 -3.69686 1.91411 0
M  V30 3913 H 393.626 -2.48595 3.10556 0
M  V30 3914 H 390.365 -2.39504 6.10179 0
M  V30 3915 H 389.885 -3.54839 4.8358 0
M  V30 3916 H 391.564 -3.51881 5.42945 0
M  V30 3917 N 391.696 -1.35014 -0.812953 0
M  V30 3918 C 392.659 -1.27292 -1.90602 0
M  V30 3919 C 393.659 -0.185817 -1.59723 0
M  V30 3920 O 394.849 -0.439102 -1.68575 0
M  V30 3921 C 391.981 -0.967676 -3.26877 0
M  V30 3922 H 393.174 -2.24479 -1.9887 0
M  V30 3923 H 390.727 -1.19446 -1.00808 0
M  V30 3924 H 391.462 0.0005954 -3.243 0
M  V30 3925 H 391.247 -1.75412 -3.50675 0
M  V30 3926 H 392.737 -0.939085 -4.06904 0
M  V30 3927 N 393.175 1.03435 -1.18907 0
M  V30 3928 C 394.421 1.77005 -0.989798 0
M  V30 3929 C 394.754 1.88205 0.478816 0
M  V30 3930 O 394.029 1.39481 1.35556 0
M  V30 3931 C 394.312 3.19925 -1.65287 0
M  V30 3932 C 394.165 3.1663 -3.19477 0
M  V30 3933 C 395.484 4.18189 -1.37134 0
M  V30 3934 H 392.603 0.642538 -0.360991 0
M  V30 3935 H 395.245 1.20784 -1.46667 0
M  V30 3936 H 393.395 3.67929 -1.24741 0
M  V30 3937 H 395.067 2.76567 -3.692 0
M  V30 3938 H 393.31 2.54491 -3.51307 0
M  V30 3939 H 393.981 4.1758 -3.61013 0
M  V30 3940 H 396.457 3.78761 -1.72276 0
M  V30 3941 H 395.333 5.16394 -1.86087 0
M  V30 3942 H 395.594 4.41112 -0.295424 0
M  V30 3943 N 394.653 0.992116 1.22453 0
M  V30 3944 C 395.901 0.666215 1.90804 0
M  V30 3945 C 396.222 -0.804152 1.77647 0
M  V30 3946 O 395.492 -1.57629 1.16318 0
M  V30 3947 H 394.072 0.243423 0.706225 0
M  V30 3948 H 396.734 1.25845 1.48825 0
M  V30 3949 H 395.83 0.928069 2.97982 0
M  V30 3950 N 396.131 -1.37776 0.765217 0
M  V30 3951 C 397.379 -1.99454 0.325943 0
M  V30 3952 C 397.7 -1.61049 -1.09947 0
M  V30 3953 O 396.97 -0.872821 -1.75381 0
M  V30 3954 H 395.55 -0.737697 0.117525 0
M  V30 3955 H 398.212 -1.68359 0.981895 0
M  V30 3956 H 397.308 -3.09547 0.398353 0
M  V30 3957 N 397.609 -0.515225 -1.4894 0
M  V30 3958 C 398.539 0.244628 -2.32215 0
M  V30 3959 C 399.52 0.949136 -1.41157 0
M  V30 3960 O 400.705 0.937783 -1.70057 0
M  V30 3961 C 397.835 1.30096 -3.22013 0
M  V30 3962 C 396.789 0.715486 -4.21977 0
M  V30 3963 C 396.115 1.87339 -5.00808 0
M  V30 3964 C 397.415 -0.302982 -5.2142 0
M  V30 3965 H 399.109 -0.450501 -2.95991 0
M  V30 3966 H 396.655 -0.218098 -1.42339 0
M  V30 3967 H 398.608 1.84037 -3.79089 0
M  V30 3968 H 397.332 2.02547 -2.56207 0
M  V30 3969 H 395.991 0.197715 -3.66066 0
M  V30 3970 H 395.639 2.58592 -4.31438 0
M  V30 3971 H 395.339 1.48764 -5.68457 0
M  V30 3972 H 396.863 2.41686 -5.60732 0
M  V30 3973 H 398.277 0.148802 -5.73107 0
M  V30 3974 H 396.674 -0.60532 -5.97039 0
M  V30 3975 H 397.744 -1.21395 -4.69459 0
M  V30 3976 N 399.087 1.5561 -0.249682 0
M  V30 3977 C 400.335 1.98618 0.373548 0
M  V30 3978 C 400.656 1.13919 1.58264 0
M  V30 3979 O 399.926 0.222637 1.94631 0
M  V30 3980 H 398.506 0.733571 0.141006 0
M  V30 3981 H 401.168 1.91748 -0.349117 0
M  V30 3982 H 400.264 3.04584 0.680796 0
M  V30 3983 N 400.565 -0.0233959 1.57583 0
M  V30 3984 C 401.811 -0.714119 1.89811 0
M  V30 3985 C 402.144 -1.74702 0.848113 0
M  V30 3986 O 401.419 -1.94023 -0.136135 0
M  V30 3987 C 401.702 -1.37853 3.32669 0
M  V30 3988 C 401.555 -0.358764 4.48367 0
M  V30 3989 C 402.874 -2.31101 3.7454 0
M  V30 3990 H 399.993 -0.25814 0.690314 0
M  V30 3991 H 402.635 0.0230927 1.89986 0
M  V30 3992 H 400.785 -2.00689 3.3265 0
M  V30 3993 H 402.457 0.268115 4.6052 0
M  V30 3994 H 400.7 0.321387 4.32608 0
M  V30 3995 H 401.371 -0.862242 5.45224 0
M  V30 3996 H 403.847 -1.78304 3.75961 0
M  V30 3997 H 402.723 -2.74567 4.75294 0
M  V30 3998 H 402.984 -3.18018 3.0711 0
M  V30 3999 N 402.043 -1.548 -0.295768 0
M  V30 4000 C 403.291 -1.73985 -1.02828 0
M  V30 4001 C 403.612 -0.531406 -1.87619 0
M  V30 4002 O 402.882 0.454221 -1.90561 0
M  V30 4003 H 401.462 -0.641556 -0.382642 0
M  V30 4004 H 404.124 -1.92163 -0.325489 0
M  V30 4005 H 403.22 -2.63129 -1.67838 0
M  V30 4006 N 403.521 0.559213 -1.47345 0
M  V30 4007 C 404.77 1.31281 -1.53128 0
M  V30 4008 C 405.083 1.94602 -0.197344 0
M  V30 4009 O 406.289 2.71173 -0.133154 0
M  V30 4010 C 404.745 2.38051 -2.69925 0
M  V30 4011 C 404.353 1.8093 -4.0984 0
M  V30 4012 C 406.097 3.14604 -2.84999 0
M  V30 4013 C 404.004 2.85468 -5.1794 0
M  V30 4014 H 402.934 0.493614 -0.569966 0
M  V30 4015 H 405.585 0.594155 -1.73615 0
M  V30 4016 H 403.967 3.12822 -2.42814 0
M  V30 4017 H 405.141 1.12544 -4.46845 0
M  V30 4018 H 403.456 1.16967 -3.99634 0
M  V30 4019 H 406.053 3.92666 -3.62929 0
M  V30 4020 H 406.396 3.68665 -1.93369 0
M  V30 4021 H 406.929 2.46945 -3.1187 0
M  V30 4022 H 403.668 2.36264 -6.1144 0
M  V30 4023 H 403.188 3.52269 -4.85455 0
M  V30 4024 H 404.867 3.48996 -5.44803 0
M  V30 4025 N 404.999 1.35443 0.805782 0
M  V30 4026 C 405.946 1.28431 1.91766 0
M  V30 4027 C 406.916 0.156102 1.65365 0
M  V30 4028 O 408.101 0.339936 1.87747 0
M  V30 4029 C 405.241 1.06301 3.2832 0
M  V30 4030 C 404.354 2.2805 3.66902 0
M  V30 4031 C 403.489 1.99064 4.92491 0
M  V30 4032 C 402.528 3.16863 5.23703 0
M  V30 4033 N 401.665 2.87647 6.40471 0
M  V30 4034 H 406.505 2.23511 1.97096 0
M  V30 4035 H 404.042 1.11105 0.964054 0
M  V30 4036 H 406 0.915012 4.07042 0
M  V30 4037 H 404.63 0.148822 3.22457 0
M  V30 4038 H 403.682 2.53711 2.83434 0
M  V30 4039 H 404.994 3.1601 3.85927 0
M  V30 4040 H 404.148 1.81099 5.7904 0
M  V30 4041 H 402.887 1.0839 4.75503 0
M  V30 4042 H 401.892 3.35404 4.35642 0
M  V30 4043 H 403.117 4.08339 5.4262 0
M  V30 4044 H 401.063 1.99568 6.24907 0
M  V30 4045 H 400.98 3.69141 6.59751 0
M  V30 4046 H 402.248 2.73226 7.30047 0
M  V30 4047 N 406.477 -1.02803 1.19454 0
M  V30 4048 C 407.754 -1.73299 0.907013 0
M  V30 4049 C 408.134 -2.02772 -0.587086 0
M  V30 4050 O 407.482 -1.68304 -1.54551 0
M  V30 4051 C 407.692 -3.00912 1.76785 0
M  V30 4052 C 409.04 -3.74403 2.00268 0
M  V30 4053 O 410.064 -3.10841 1.73943 0
M  V30 4054 O 408.923 -4.88675 2.4466 0
M  V30 4055 H 406.017 -0.754727 0.338106 0
M  V30 4056 H 408.563 -1.08754 1.30271 0
M  V30 4057 H 407.335 -2.75366 2.7801 0
M  V30 4058 H 406.958 -3.73197 1.37149 0
M  V30 4059 N 407.956 -0.998596 -1.21925 0
M  V30 4060 C 409.202 -0.678667 -1.91107 0
M  V30 4061 C 409.535 0.78791 -1.77498 0
M  V30 4062 O 408.81 1.57043 -1.1475 0
M  V30 4063 C 409.093 -1.09245 -3.43129 0
M  V30 4064 C 408.946 -2.61801 -3.6576 0
M  V30 4065 C 410.265 -0.649984 -4.35274 0
M  V30 4066 H 407.384 -0.248025 -0.694012 0
M  V30 4067 H 410.026 -1.24314 -1.43688 0
M  V30 4068 H 408.176 -0.612171 -3.83647 0
M  V30 4069 H 409.848 -3.17543 -3.34611 0
M  V30 4070 H 408.091 -3.03609 -3.09845 0
M  V30 4071 H 408.762 -2.85804 -4.7225 0
M  V30 4072 H 411.238 -1.0626 -4.02303 0
M  V30 4073 H 410.114 -0.967743 -5.40302 0
M  V30 4074 H 410.375 0.449139 -4.39813 0
M  V30 4075 N 409.434 1.37368 -0.772513 0
M  V30 4076 C 410.711 1.93839 -0.26188 0
M  V30 4077 C 411.091 1.7061 1.24319 0
M  V30 4078 O 410.439 1.05534 2.02669 0
M  V30 4079 C 410.649 3.43154 -0.636102 0
M  V30 4080 C 411.997 4.20249 -0.606324 0
M  V30 4081 O 413.021 3.5152 -0.575538 0
M  V30 4082 O 411.88 5.42809 -0.634086 0
M  V30 4083 H 408.974 0.82478 -0.0605555 0
M  V30 4084 H 411.52 1.4665 -0.853917 0
M  V30 4085 H 410.292 3.53647 -1.6748 0
M  V30 4086 H 409.915 3.97596 -0.0170516 0
M  V30 4087 N 410.912 0.523116 1.48665 0
M  V30 4088 C 412.323 0.0808997 1.86525 0
M  V30 4089 C 412.674 -1.33975 1.43336 0
M  V30 4090 O 411.799 -2.00221 0.821009 0
M  V30 4091 C 412.394 0.140037 3.3851 0
M  V30 4092 C 410.953 -0.246948 3.75589 0
M  V30 4093 C 410.1 0.502845 2.72703 0
M  V30 4094 H 413.051 0.734736 1.40667 0
M  V30 4095 H 413.072 -0.649945 3.74908 0
M  V30 4096 H 412.584 1.17412 3.69914 0
M  V30 4097 H 410.685 -1.28343 3.49798 0
M  V30 4098 H 410.798 0.0878859 4.79019 0
M  V30 4099 H 409.162 -0.0500581 2.54651 0
M  V30 4100 H 409.945 1.53743 3.0695 0
M  V30 4101 N 412.39 -1.55475 0.257931 0
M  V30 4102 C 413.337 -2.21837 -0.636939 0
M  V30 4103 C 414.307 -1.18596 -1.16294 0
M  V30 4104 O 415.492 -1.47081 -1.21539 0
M  V30 4105 C 412.632 -2.9301 -1.82317 0
M  V30 4106 C 411.745 -4.10931 -1.33265 0
M  V30 4107 C 410.88 -4.69791 -2.47931 0
M  V30 4108 C 409.919 -5.7994 -1.95796 0
M  V30 4109 N 409.056 -6.32935 -3.0387 0
M  V30 4110 H 413.896 -2.9793 -0.0643591 0
M  V30 4111 H 411.433 -1.47086 -0.0200031 0
M  V30 4112 H 413.391 -3.3248 -2.52018 0
M  V30 4113 H 412.021 -2.1937 -2.36805 0
M  V30 4114 H 411.073 -3.76699 -0.52931 0
M  V30 4115 H 412.385 -4.90417 -0.910654 0
M  V30 4116 H 411.539 -5.11892 -3.25656 0
M  V30 4117 H 410.278 -3.89545 -2.93438 0
M  V30 4118 H 409.283 -5.37305 -1.16546 0
M  V30 4119 H 410.508 -6.62043 -1.51246 0
M  V30 4120 H 408.454 -5.55591 -3.48791 0
M  V30 4121 H 408.371 -7.07645 -2.66035 0
M  V30 4122 H 409.639 -6.79695 -3.81621 0
M  V30 4123 N 413.868 0.0150385 -1.57593 0
M  V30 4124 C 415.093 0.718067 -1.94573 0
M  V30 4125 C 415.518 1.6734 -0.859005 0
M  V30 4126 O 414.876 1.80362 0.184147 0
M  V30 4127 C 414.924 1.43918 -3.30636 0
M  V30 4128 O 414.028 2.55299 -3.23876 0
M  V30 4129 H 413.369 0.192125 -0.635597 0
M  V30 4130 H 415.899 -0.0336708 -2.04572 0
M  V30 4131 H 415.909 1.80598 -3.65853 0
M  V30 4132 H 414.584 0.738619 -4.09289 0
M  V30 4133 H 413.161 2.21058 -3.00312 0
M  V30 4134 N 415.346 1.54954 0.287554 0
M  V30 4135 C 416.574 1.78881 1.03967 0
M  V30 4136 C 416.989 0.554894 1.80462 0
M  V30 4137 O 416.346 -0.475676 1.76192 0
M  V30 4138 C 416.397 3.00488 2.0097 0
M  V30 4139 O 416.118 4.19113 1.27577 0
M  V30 4140 C 417.619 3.36907 2.88112 0
M  V30 4141 H 414.839 0.596259 0.307761 0
M  V30 4142 H 417.383 2.01937 0.322749 0
M  V30 4143 H 415.538 2.79601 2.68145 0
M  V30 4144 H 415.952 4.87765 1.92835 0
M  V30 4145 H 417.426 4.25205 3.52001 0
M  V30 4146 H 417.903 2.55659 3.57121 0
M  V30 4147 H 418.509 3.60001 2.26449 0
M  V30 4148 N 416.824 -0.551391 1.4764 0
M  V30 4149 C 418.071 -1.3083 1.54563 0
M  V30 4150 C 418.399 -1.93359 0.210361 0
M  V30 4151 O 417.654 -1.78721 -0.797332 0
M  V30 4152 C 417.953 -2.43469 2.61644 0
M  V30 4153 C 417.619 -1.98732 4.04742 0
M  V30 4154 C 416.281 -1.86248 4.43695 0
M  V30 4155 C 418.633 -1.64659 4.94507 0
M  V30 4156 C 415.961 -1.37995 5.70241 0
M  V30 4157 C 418.313 -1.17875 6.21521 0
M  V30 4158 C 416.977 -1.03992 6.5935 0
M  V30 4159 H 416.247 -0.478741 0.565587 0
M  V30 4160 H 418.894 -0.617697 1.81264 0
M  V30 4161 H 417.199 -3.18109 2.28722 0
M  V30 4162 H 418.896 -3.01642 2.64222 0
M  V30 4163 H 415.486 -2.09393 3.73968 0
M  V30 4164 H 419.67 -1.73174 4.65107 0
M  V30 4165 H 414.926 -1.25915 5.98294 0
M  V30 4166 H 419.1 -0.905739 6.90485 0
M  V30 4167 H 416.727 -0.663794 7.57296 0
M  V30 4168 N 418.302 -1.35869 -0.798587 0
M  V30 4169 C 419.718 -1.16082 -1.09532 0
M  V30 4170 C 419.918 0.0213124 -2.01489 0
M  V30 4171 O 418.974 0.689488 -2.42904 0
M  V30 4172 C 420.287 -2.46748 -1.7186 0
M  V30 4173 C 421.835 -2.53028 -1.84244 0
M  V30 4174 C 422.31 -3.83758 -2.49988 0
M  V30 4175 N 423.801 -3.85053 -2.57465 0
M  V30 4176 C 424.536 -4.8294 -3.09122 0
M  V30 4177 N 424.032 -5.91217 -3.61157 0
M  V30 4178 N 425.825 -4.70369 -3.0775 0
M  V30 4179 H 417.976 -2.11571 -0.187461 0
M  V30 4180 H 420.239 -0.936726 -0.145765 0
M  V30 4181 H 419.945 -3.33471 -1.11759 0
M  V30 4182 H 419.819 -2.61883 -2.71472 0
M  V30 4183 H 422.206 -1.66729 -2.43486 0
M  V30 4184 H 422.287 -2.418 -0.834643 0
M  V30 4185 H 421.931 -4.70459 -1.91393 0
M  V30 4186 H 421.861 -3.92278 -3.5132 0
M  V30 4187 H 424.352 -3.06822 -2.20609 0
M  V30 4188 H 424.665 -6.61892 -3.98896 0
M  V30 4189 H 423.01 -5.94899 -3.59333 0
M  V30 4190 H 426.201 -3.84914 -2.66381 0
M  V30 4191 H 426.374 -5.46816 -3.47701 0
M  V30 4192 N 419.78 1.02168 -1.19998 0
M  V30 4193 C 421.191 1.57135 -1.00825 0
M  V30 4194 C 421.542 1.91276 0.436818 0
M  V30 4195 O 420.667 1.71679 1.3174 0
M  V30 4196 C 421.262 2.85514 -1.82393 0
M  V30 4197 C 419.821 3.37027 -1.67601 0
M  V30 4198 C 418.968 2.10388 -1.80644 0
M  V30 4199 H 421.919 0.846106 -1.34264 0
M  V30 4200 H 421.94 3.56711 -1.32429 0
M  V30 4201 H 421.452 2.60634 -2.87561 0
M  V30 4202 H 419.553 3.66878 -0.650485 0
M  V30 4203 H 419.666 4.09572 -2.4857 0
M  V30 4204 H 418.03 2.22601 -1.23778 0
M  V30 4205 H 418.813 1.8794 -2.87286 0
M  V30 4206 N 421.258 1.00505 1.21394 0
M  V30 4207 C 422.535 0.603277 1.86064 0
M  V30 4208 C 422.915 -0.919095 1.90042 0
M  V30 4209 O 422.263 -1.80607 1.39977 0
M  V30 4210 C 422.473 1.23772 3.26315 0
M  V30 4211 C 423.821 1.34586 4.02705 0
M  V30 4212 O 424.845 1.19304 3.35626 0
M  V30 4213 O 423.704 1.59169 5.22807 0
M  V30 4214 H 420.798 0.206634 0.800769 0
M  V30 4215 H 423.344 1.1017 1.29076 0
M  V30 4216 H 422.116 2.27848 3.18121 0
M  V30 4217 H 421.739 0.725648 3.90922 0
M  V30 4218 N 422.737 -1.36956 0.779787 0
M  V30 4219 C 423.667 -2.32761 0.185651 0
M  V30 4220 C 424.648 -1.56177 -0.673989 0
M  V30 4221 O 425.833 -1.84378 -0.609797 0
M  V30 4222 C 422.963 -3.40418 -0.687964 0
M  V30 4223 C 421.917 -4.27941 0.0710102 0
M  V30 4224 C 421.243 -5.26681 -0.922573 0
M  V30 4225 C 422.543 -5.07006 1.25467 0
M  V30 4226 H 424.237 -2.82698 0.986008 0
M  V30 4227 H 421.783 -1.3592 0.475592 0
M  V30 4228 H 423.736 -4.06423 -1.11348 0
M  V30 4229 H 422.46 -2.89025 -1.52093 0
M  V30 4230 H 421.119 -3.63478 0.47739 0
M  V30 4231 H 420.767 -4.71565 -1.7503 0
M  V30 4232 H 420.467 -5.86103 -0.419237 0
M  V30 4233 H 421.991 -5.9556 -1.34686 0
M  V30 4234 H 423.405 -5.66105 0.905401 0
M  V30 4235 H 421.802 -5.75793 1.69063 0
M  V30 4236 H 422.872 -4.3921 2.05481 0
M  V30 4237 N 424.215 -0.530993 -1.48385 0
M  V30 4238 C 425.626 -0.0907905 -1.86479 0
M  V30 4239 C 425.977 1.33213 -1.44044 0
M  V30 4240 O 425.102 1.99783 -0.831615 0
M  V30 4241 C 425.697 -0.157987 -3.38431 0
M  V30 4242 C 424.256 0.227026 -3.75715 0
M  V30 4243 C 423.403 -0.5173 -2.72432 0
M  V30 4244 H 426.354 -0.742186 -1.40276 0
M  V30 4245 H 426.375 0.630053 -3.75247 0
M  V30 4246 H 425.887 -1.19372 -3.69286 0
M  V30 4247 H 423.988 1.26486 -3.50474 0
M  V30 4248 H 424.101 -0.113288 -4.78966 0
M  V30 4249 H 422.465 0.0365527 -2.54674 0
M  V30 4250 H 423.248 -1.55368 -3.0613 0
M  V30 4251 N 425.693 1.55336 -0.266172 0
M  V30 4252 C 426.921 2.03801 0.356756 0
M  V30 4253 C 427.336 1.14485 1.50129 0
M  V30 4254 O 426.693 0.163121 1.8177 0
M  V30 4255 C 426.744 3.51455 0.846281 0
M  V30 4256 O 426.465 4.37371 -0.252663 0
M  V30 4257 C 427.966 4.15767 1.53794 0
M  V30 4258 H 425.186 0.665906 0.0825218 0
M  V30 4259 H 427.73 2.00636 -0.39566 0
M  V30 4260 H 425.885 3.55092 1.54881 0
M  V30 4261 H 426.299 5.24358 0.122173 0
M  V30 4262 H 427.773 5.20714 1.83198 0
M  V30 4263 H 428.25 3.63404 2.46646 0
M  V30 4264 H 428.856 4.16107 0.879488 0
M  V30 4265 N 427.171 -0.0066808 1.57599 0
M  V30 4266 C 428.134 -0.985035 2.06953 0
M  V30 4267 C 429.134 -1.27663 0.977687 0
M  V30 4268 O 430.324 -1.22293 1.24057 0
M  V30 4269 C 427.456 -2.3118 2.50536 0
M  V30 4270 H 428.649 -0.558255 2.94658 0
M  V30 4271 H 426.202 -0.254011 1.54222 0
M  V30 4272 H 426.937 -2.78561 1.66054 0
M  V30 4273 H 426.722 -2.11338 3.3027 0
M  V30 4274 H 428.212 -3.01377 2.8907 0
M  V30 4275 N 428.649 -1.55105 -0.279332 0
M  V30 4276 C 429.874 -1.7976 -1.03446 0
M  V30 4277 C 430.299 -0.565952 -1.79384 0
M  V30 4278 O 429.657 0.484259 -1.74713 0
M  V30 4279 C 429.705 -3.0179 -1.97371 0
M  V30 4280 O 428.809 -2.76432 -3.06038 0
M  V30 4281 H 428.15 -0.594334 -0.29608 0
M  V30 4282 H 430.68 -2.02235 -0.310165 0
M  V30 4283 H 430.69 -3.30351 -2.39441 0
M  V30 4284 H 429.365 -3.91085 -1.4151 0
M  V30 4285 H 427.942 -2.58949 -2.68328 0
M  V30 4286 N 430.127 0.543554 -1.4793 0
M  V30 4287 C 431.404 1.30458 -1.4574 0
M  V30 4288 C 431.784 2.1048 -0.161692 0
M  V30 4289 O 431.132 2.11831 0.856734 0
M  V30 4290 C 431.342 2.19754 -2.71126 0
M  V30 4291 C 432.69 2.80334 -3.18901 0
M  V30 4292 O 433.714 2.30049 -2.71948 0
M  V30 4293 O 432.573 3.71766 -4.00565 0
M  V30 4294 H 429.667 0.588117 -0.581418 0
M  V30 4295 H 432.213 0.561328 -1.60147 0
M  V30 4296 H 430.985 1.60316 -3.56952 0
M  V30 4297 H 430.608 3.01351 -2.59371 0
M  V30 4298 N 431.605 1.3629 0.791371 0
M  V30 4299 C 432.833 1.33562 1.58016 0
M  V30 4300 C 433.248 -0.0835616 1.88615 0
M  V30 4301 O 432.605 -1.0399 1.49974 0
M  V30 4302 C 432.656 2.15517 2.90232 0
M  V30 4303 O 432.377 3.51902 2.60953 0
M  V30 4304 C 433.878 2.20546 3.84544 0
M  V30 4305 H 431.098 0.458226 0.490173 0
M  V30 4306 H 433.642 1.79361 0.982345 0
M  V30 4307 H 431.797 1.73278 3.46487 0
M  V30 4308 H 432.211 3.94644 3.4548 0
M  V30 4309 H 433.685 2.82252 4.74382 0
M  V30 4310 H 434.162 1.20838 4.2225 0
M  V30 4311 H 434.768 2.63013 3.34222 0
M  V30 4312 N 433.083 -1.0153 1.20538 0
M  V30 4313 C 434.03 -2.10098 0.955383 0
M  V30 4314 C 435 -1.65702 -0.114878 0
M  V30 4315 O 436.185 -1.90776 0.0301118 0
M  V30 4316 C 433.325 -3.41236 0.514969 0
M  V30 4317 C 432.438 -3.99102 1.65353 0
M  V30 4318 C 431.573 -5.18306 1.16329 0
M  V30 4319 C 430.612 -5.68258 2.27485 0
M  V30 4320 N 429.749 -6.78722 1.7967 0
M  V30 4321 H 434.589 -2.30818 1.88486 0
M  V30 4322 H 432.126 -1.13189 0.939499 0
M  V30 4323 H 434.084 -4.16504 0.240935 0
M  V30 4324 H 432.714 -3.20585 -0.377512 0
M  V30 4325 H 431.766 -3.20918 2.04245 0
M  V30 4326 H 433.078 -4.32177 2.49047 0
M  V30 4327 H 432.232 -6.00782 0.845302 0
M  V30 4328 H 430.971 -4.86799 0.296254 0
M  V30 4329 H 429.976 -4.84385 2.60099 0
M  V30 4330 H 431.201 -6.01798 3.14667 0
M  V30 4331 H 429.147 -6.49042 0.95295 0
M  V30 4332 H 429.064 -7.10996 2.56944 0
M  V30 4333 H 430.332 -7.64759 1.50875 0
M  V30 4334 N 434.561 -1.01147 -1.20859 0
M  V30 4335 C 435.801 -0.706331 -1.91808 0
M  V30 4336 C 436.165 0.749736 -1.76757 0
M  V30 4337 O 437.366 1.16716 -2.42138 0
M  V30 4338 C 435.637 -1.12371 -3.39275 0
M  V30 4339 S 437.196 -0.939764 -4.28619 0
M  V30 4340 H 434.014 -0.257665 -0.662669 0
M  V30 4341 H 436.616 -1.29766 -1.46223 0
M  V30 4342 H 435.32 -2.17943 -3.47749 0
M  V30 4343 H 434.851 -0.524952 -3.89882 0
M  V30 4344 H 436.866 0.159556 -4.95943 0
M  V30 4345 N 436.039 1.36541 -0.78704 0
M  V30 4346 C 437.285 1.99599 -0.358872 0
M  V30 4347 C 437.618 1.62323 1.06606 0
M  V30 4348 O 436.893 0.876858 1.73613 0
M  V30 4349 C 437.176 3.56327 -0.519944 0
M  V30 4350 C 437.029 4.03464 -1.98839 0
M  V30 4351 C 438.348 4.4005 0.0664737 0
M  V30 4352 H 435.467 0.725107 -0.131869 0
M  V30 4353 H 438.109 1.6199 -0.992936 0
M  V30 4354 H 436.259 3.88495 0.0198321 0
M  V30 4355 H 437.931 3.81793 -2.58905 0
M  V30 4356 H 436.174 3.55092 -2.49183 0
M  V30 4357 H 436.845 5.12439 -2.05207 0
M  V30 4358 H 439.321 4.14228 -0.394267 0
M  V30 4359 H 438.197 5.48847 -0.0762682 0
M  V30 4360 H 438.458 4.26655 1.15835 0
M  V30 4361 N 437.518 0.538854 1.48102 0
M  V30 4362 C 438.764 0.00801365 2.02798 0
M  V30 4363 C 439.097 -1.3309 1.41424 0
M  V30 4364 O 438.372 -1.86169 0.563158 0
M  V30 4365 C 438.655 -0.104589 3.59948 0
M  V30 4366 C 438.508 1.26012 4.31788 0
M  V30 4367 C 439.827 -0.827055 4.32259 0
M  V30 4368 H 436.946 0.00438624 0.736987 0
M  V30 4369 H 439.588 0.6976 1.7673 0
M  V30 4370 H 437.738 -0.691893 3.82289 0
M  V30 4371 H 439.41 1.88922 4.2084 0
M  V30 4372 H 437.653 1.83968 3.92859 0
M  V30 4373 H 438.324 1.13424 5.40221 0
M  V30 4374 H 440.8 -0.328578 4.14801 0
M  V30 4375 H 439.676 -0.87476 5.41885 0
M  V30 4376 H 439.937 -1.87927 4.0017 0
M  V30 4377 N 438.996 -1.55193 0.274407 0
M  V30 4378 C 440.244 -1.99187 -0.341902 0
M  V30 4379 C 440.565 -1.16422 -1.56431 0
M  V30 4380 O 439.835 -0.253573 -1.94252 0
M  V30 4381 H 438.415 -0.735721 -0.129317 0
M  V30 4382 H 441.077 -1.91168 0.379578 0
M  V30 4383 H 440.173 -3.05629 -0.632253 0
M  V30 4384 N 440.474 -0.00167713 -1.576 0
M  V30 4385 C 441.404 0.988091 -2.11563 0
M  V30 4386 C 442.385 1.35736 -1.02517 0
M  V30 4387 O 443.57 1.44082 -1.30208 0
M  V30 4388 C 440.7 2.27941 -2.62031 0
M  V30 4389 C 439.654 2.0517 -3.75619 0
M  V30 4390 C 438.98 3.4033 -4.12407 0
M  V30 4391 C 440.28 1.41294 -5.02825 0
M  V30 4392 H 441.974 0.538771 -2.94513 0
M  V30 4393 H 439.52 0.257712 -1.41675 0
M  V30 4394 H 441.473 2.97539 -2.9841 0
M  V30 4395 H 440.197 2.74989 -1.76205 0
M  V30 4396 H 438.856 1.37998 -3.39635 0
M  V30 4397 H 438.504 3.85085 -3.23603 0
M  V30 4398 H 438.204 3.25909 -4.88935 0
M  V30 4399 H 439.728 4.1124 -4.51347 0
M  V30 4400 H 441.142 2.00851 -5.36965 0
M  V30 4401 H 439.539 1.37356 -5.84169 0
M  V30 4402 H 440.609 0.382362 -4.8339 0
M  V30 4403 N 441.952 1.55251 0.271103 0
M  V30 4404 C 442.902 1.84649 1.33749 0
M  V30 4405 C 443.886 0.705529 1.44607 0
M  V30 4406 O 445.078 0.966916 1.48256 0
M  V30 4407 C 442.207 2.12354 2.69742 0
M  V30 4408 C 441.293 3.32714 2.62988 0
M  V30 4409 N 441.684 4.52575 2.25853 0
M  V30 4410 C 439.982 3.35341 2.94045 0
M  V30 4411 C 440.683 5.34669 2.29136 0
M  V30 4412 N 439.659 4.73123 2.67685 0
M  V30 4413 H 443.461 2.74865 1.0405 0
M  V30 4414 H 440.975 1.55152 0.479738 0
M  V30 4415 H 442.972 2.31572 3.4667 0
M  V30 4416 H 441.632 1.23422 3.00328 0
M  V30 4417 H 442.643 4.78639 1.978 0
M  V30 4418 H 439.32 2.56608 3.2933 0
M  V30 4419 H 440.71 6.40509 2.02971 0
M  V30 4420 N 443.43 -0.535701 1.48216 0
M  V30 4421 C 444.707 -1.29683 1.46429 0
M  V30 4422 C 445.087 -2.10391 0.172852 0
M  V30 4423 O 444.435 -2.12282 -0.845488 0
M  V30 4424 C 444.645 -2.18313 2.72287 0
M  V30 4425 C 445.993 -2.78639 3.20383 0
M  V30 4426 O 447.017 -2.28604 2.73164 0
M  V30 4427 O 445.876 -3.69636 4.02531 0
M  V30 4428 H 442.97 -0.585026 0.584529 0
M  V30 4429 H 445.516 -0.552827 1.60443 0
M  V30 4430 H 444.288 -1.58421 3.57797 0
M  V30 4431 H 443.911 -2.99971 2.60966 0
M  V30 4432 N 444.908 -1.36708 -0.784132 0
M  V30 4433 C 445.856 -1.31533 -1.91838 0
M  V30 4434 C 446.85 -0.206205 -1.6814 0
M  V30 4435 O 448.056 -0.373519 -1.76082 0
M  V30 4436 H 444.431 -0.409613 -0.630651 0
M  V30 4437 H 446.402 -2.2731 -1.9332 0
M  V30 4438 C 445.151 -1.12679 -3.28936 0
M  V30 4439 H 444.474 -1.97274 -3.4774 0
M  V30 4440 H 445.914 -1.13106 -4.08636 0
M  V30 4441 C 444.373 0.168281 -3.36479 0
M  V30 4442 O 444.903 1.15625 -3.84699 0
M  V30 4443 N 443.109 0.214762 -2.89805 0
M  V30 4444 H 442.656 -0.589852 -2.50756 0
M  V30 4445 H 442.614 1.08094 -2.95234 0
M  V30 4446 N 446.386 1.0089 -1.21074 0
M  V30 4447 C 447.614 1.78191 -1.05145 0
M  V30 4448 C 448.029 1.84537 0.398952 0
M  V30 4449 O 447.386 1.30393 1.27687 0
M  V30 4450 C 447.437 3.22288 -1.63746 0
M  V30 4451 O 447.158 3.16315 -3.03111 0
M  V30 4452 C 448.659 4.16106 -1.52875 0
M  V30 4453 H 445.879 0.560129 -0.369454 0
M  V30 4454 H 448.423 1.26945 -1.60328 0
M  V30 4455 H 446.578 3.70655 -1.12664 0
M  V30 4456 H 446.992 4.06817 -3.31059 0
M  V30 4457 H 448.466 5.15026 -1.98626 0
M  V30 4458 H 448.943 4.36541 -0.482521 0
M  V30 4459 H 449.549 3.73625 -2.03185 0
M  V30 4460 N 447.864 1.01787 1.20321 0
M  V30 4461 C 448.812 0.58254 2.25187 0
M  V30 4462 C 449.806 -0.379359 1.65098 0
M  V30 4463 O 451.012 -0.249142 1.78267 0
M  V30 4464 H 447.387 0.170078 0.732514 0
M  V30 4465 H 449.358 1.47788 2.59232 0
M  V30 4466 C 448.107 -0.0620885 3.47645 0
M  V30 4467 H 447.43 0.669069 3.94162 0
M  V30 4468 H 448.87 -0.329784 4.22716 0
M  V30 4469 C 447.329 -1.3053 3.10586 0
M  V30 4470 O 447.859 -2.39848 3.22236 0
M  V30 4471 N 446.065 -1.18988 2.65123 0
M  V30 4472 H 445.612 -0.300341 2.55843 0
M  V30 4473 H 445.57 -2.02267 2.40698 0
M  V30 4474 N 449.342 -1.36122 0.79427 0
M  V30 4475 C 450.305 -2.28309 0.201889 0
M  V30 4476 C 451.305 -1.49041 -0.603603 0
M  V30 4477 O 452.495 -1.68964 -0.423888 0
M  V30 4478 C 449.627 -3.3321 -0.719978 0
M  V30 4479 H 450.82 -2.82208 1.01481 0
M  V30 4480 H 448.373 -1.45768 0.564037 0
M  V30 4481 H 449.108 -2.84475 -1.55706 0
M  V30 4482 H 448.893 -3.91835 -0.144266 0
M  V30 4483 H 450.383 -4.02044 -1.12916 0
M  V30 4484 N 450.82 -0.546701 -1.47814 0
M  V30 4485 C 452.097 0.0464413 -1.95545 0
M  V30 4486 C 452.477 1.4962 -1.48919 0
M  V30 4487 O 451.825 2.16752 -0.723232 0
M  V30 4488 C 452.035 -0.0881298 -3.48889 0
M  V30 4489 C 453.383 0.0626059 -4.24554 0
M  V30 4490 O 454.407 -0.0151555 -3.56197 0
M  V30 4491 O 453.266 0.228071 -5.46024 0
M  V30 4492 H 450.36 0.0700004 -0.824032 0
M  V30 4493 H 452.906 -0.612482 -1.58262 0
M  V30 4494 H 451.678 -1.09737 -3.75597 0
M  V30 4495 H 451.301 0.608886 -3.9291 0
M  V30 4496 N 452.299 1.55045 -0.282633 0
M  V30 4497 C 453.715 1.59441 0.0712997 0
M  V30 4498 C 453.915 1.2998 1.53972 0
M  V30 4499 O 452.971 1.06431 2.28973 0
M  V30 4500 C 454.284 2.99097 -0.310104 0
M  V30 4501 C 455.832 3.1194 -0.257343 0
M  V30 4502 C 456.307 4.53875 -0.613297 0
M  V30 4503 N 457.798 4.5974 -0.565134 0
M  V30 4504 C 458.533 5.67603 -0.81326 0
M  V30 4505 N 458.029 6.83582 -1.1264 0
M  V30 4506 N 459.822 5.57187 -0.741553 0
M  V30 4507 H 451.973 1.72458 -1.23984 0
M  V30 4508 H 454.236 0.804549 -0.501403 0
M  V30 4509 H 453.942 3.25516 -1.33163 0
M  V30 4510 H 453.816 3.75616 0.345366 0
M  V30 4511 H 456.203 2.85281 0.754905 0
M  V30 4512 H 456.284 2.37618 -0.947178 0
M  V30 4513 H 455.928 4.81261 -1.62327 0
M  V30 4514 H 455.858 5.26508 0.09841 0
M  V30 4515 H 458.349 3.76427 -0.333294 0
M  V30 4516 H 458.662 7.6175 -1.30219 0
M  V30 4517 H 457.007 6.85179 -1.16425 0
M  V30 4518 H 460.198 4.65457 -0.496705 0
M  V30 4519 H 460.371 6.41171 -0.938306 0
M  V30 4520 N 453.777 0.010035 1.57597 0
M  V30 4521 C 455.054 -0.710296 1.82248 0
M  V30 4522 C 455.434 -1.91426 0.889911 0
M  V30 4523 O 454.782 -2.28424 -0.0590292 0
M  V30 4524 C 454.992 -1.10655 3.30993 0
M  V30 4525 C 456.34 -1.50621 3.96987 0
M  V30 4526 O 457.364 -1.20007 3.35375 0
M  V30 4527 O 456.223 -2.07587 5.05539 0
M  V30 4528 H 453.317 -0.34673 0.750804 0
M  V30 4529 H 455.863 0.0362578 1.69661 0
M  V30 4530 H 454.635 -0.248826 3.90508 0
M  V30 4531 H 454.258 -1.91189 3.48615 0
M  V30 4532 N 455.255 -1.55392 -0.262866 0
M  V30 4533 C 456.485 -1.80251 -1.00961 0
M  V30 4534 C 456.893 -0.58117 -1.80053 0
M  V30 4535 O 456.236 0.459427 -1.77862 0
M  V30 4536 C 456.298 -2.98207 -2.00781 0
M  V30 4537 C 455.962 -4.34856 -1.40533 0
M  V30 4538 C 456.959 -5.13459 -0.815853 0
M  V30 4539 C 454.644 -4.8153 -1.42948 0
M  V30 4540 C 456.638 -6.36875 -0.258562 0
M  V30 4541 C 454.325 -6.04899 -0.868334 0
M  V30 4542 C 455.323 -6.8241 -0.283884 0
M  V30 4543 O 455.011 -8.03451 0.268644 0
M  V30 4544 H 454.743 -0.604049 -0.303482 0
M  V30 4545 H 457.297 -2.03257 -0.295926 0
M  V30 4546 H 455.527 -2.70917 -2.75936 0
M  V30 4547 H 457.216 -3.10299 -2.61667 0
M  V30 4548 H 457.982 -4.78526 -0.789812 0
M  V30 4549 H 453.861 -4.21201 -1.87378 0
M  V30 4550 H 457.405 -6.97318 0.198257 0
M  V30 4551 H 453.302 -6.39312 -0.891649 0
M  V30 4552 H 454.07 -8.18346 0.158974 0
M  V30 4553 N 456.733 0.527833 -1.48498 0
M  V30 4554 C 458.01 1.28905 -1.47115 0
M  V30 4555 C 458.39 2.10297 -0.184007 0
M  V30 4556 O 457.738 2.12728 0.834218 0
M  V30 4557 C 457.948 2.16866 -2.73441 0
M  V30 4558 C 459.296 2.76936 -3.21857 0
M  V30 4559 O 460.32 2.27152 -2.74373 0
M  V30 4560 O 459.179 3.67496 -4.04486 0
M  V30 4561 H 456.273 0.581918 -0.587623 0
M  V30 4562 H 458.819 0.544311 -1.60734 0
M  V30 4563 H 457.591 1.56521 -3.58632 0
M  V30 4564 H 457.214 2.98583 -2.62553 0
M  V30 4565 N 458.211 1.37122 0.776871 0
M  V30 4566 C 459.439 1.3523 1.5659 0
M  V30 4567 C 459.854 -0.0635518 1.88693 0
M  V30 4568 O 459.211 -1.02394 1.51069 0
M  V30 4569 C 459.262 2.18583 2.8793 0
M  V30 4570 O 458.983 3.5465 2.57206 0
M  V30 4571 C 460.484 2.24612 3.82183 0
M  V30 4572 H 457.704 0.4634 0.485285 0
M  V30 4573 H 460.248 1.80392 0.963266 0
M  V30 4574 H 458.403 1.76943 3.4463 0
M  V30 4575 H 458.817 3.98286 3.41275 0
M  V30 4576 H 460.291 2.87267 4.71361 0
M  V30 4577 H 460.768 1.25309 4.20944 0
M  V30 4578 H 461.374 2.66543 3.31414 0
M  V30 4579 N 459.689 -1.00246 1.21608 0
M  V30 4580 C 460.935 -1.74319 1.03638 0
M  V30 4581 C 461.268 -1.89408 -0.428749 0
M  V30 4582 O 460.543 -1.43026 -1.3181 0
M  V30 4583 C 460.826 -3.15431 1.73711 0
M  V30 4584 C 460.679 -3.08049 3.27759 0
M  V30 4585 C 461.998 -4.14407 1.48173 0
M  V30 4586 H 459.117 -0.632741 0.377899 0
M  V30 4587 H 461.759 -1.16853 1.49818 0
M  V30 4588 H 459.909 -3.64493 1.34452 0
M  V30 4589 H 461.581 -2.66681 3.76403 0
M  V30 4590 H 459.824 -2.45088 3.57931 0
M  V30 4591 H 460.495 -4.07862 3.71958 0
M  V30 4592 H 462.971 -3.74061 1.82258 0
M  V30 4593 H 461.847 -5.11279 1.99713 0
M  V30 4594 H 462.108 -4.40174 0.412273 0
M  V30 4595 N 461.167 -1.02423 -1.1978 0
M  V30 4596 C 462.115 -0.594474 -2.24875 0
M  V30 4597 C 463.109 0.370598 -1.65296 0
M  V30 4598 O 464.315 0.239684 -1.78397 0
M  V30 4599 H 460.69 -0.173961 -0.731602 0
M  V30 4600 H 462.661 -1.4916 -2.58445 0
M  V30 4601 C 461.41 0.0436512 -3.47673 0
M  V30 4602 H 460.733 -0.689963 -3.93801 0
M  V30 4603 H 462.173 0.307362 -4.22884 0
M  V30 4604 C 460.632 1.28881 -3.11274 0
M  V30 4605 O 461.162 2.38135 -3.23503 0
M  V30 4606 N 459.368 1.1758 -2.6575 0
M  V30 4607 H 458.915 0.286769 -2.55999 0
M  V30 4608 H 458.873 2.00988 -2.41767 0
M  V30 4609 N 462.645 1.35699 -0.801477 0
M  V30 4610 C 464.056 1.81415 -0.441073 0
M  V30 4611 C 464.407 1.66595 1.03636 0
M  V30 4612 O 463.532 1.19369 1.80499 0
M  V30 4613 C 464.127 3.29369 -0.793819 0
M  V30 4614 C 462.686 3.73248 -0.486083 0
M  V30 4615 C 461.833 2.57775 -1.02213 0
M  V30 4616 H 464.784 1.23749 -0.993572 0
M  V30 4617 H 464.805 3.80395 -0.0894158 0
M  V30 4618 H 464.317 3.40123 -1.86917 0
M  V30 4619 H 462.418 3.68046 0.580735 0
M  V30 4620 H 462.531 4.68222 -1.01513 0
M  V30 4621 H 460.895 2.50788 -0.444712 0
M  V30 4622 H 461.678 2.71309 -2.10348 0
M  V30 4623 N 464.123 0.554532 1.47522 0
M  V30 4624 C 465.033 -0.197865 2.33764 0
M  V30 4625 C 466.049 -0.914576 1.48025 0
M  V30 4626 O 467.225 -0.884067 1.80959 0
M  V30 4627 C 464.29 -1.21628 3.24665 0
M  V30 4628 C 463.351 -0.507283 4.26292 0
M  V30 4629 C 462.584 -1.47718 5.1285 0
M  V30 4630 O 462.807 -2.7118 5.01814 0
M  V30 4631 O 461.741 -1.00313 5.93482 0
M  V30 4632 H 465.567 0.50949 2.99396 0
M  V30 4633 H 463.152 0.315176 1.46038 0
M  V30 4634 H 465.034 -1.80421 3.80823 0
M  V30 4635 H 463.709 -1.9056 2.61665 0
M  V30 4636 H 462.616 0.121778 3.73902 0
M  V30 4637 H 463.949 0.140544 4.91999 0
M  V30 4638 N 465.601 -1.54893 0.290851 0
M  V30 4639 C 466.511 -2.26812 -0.59945 0
M  V30 4640 C 467.527 -1.29963 -1.15696 0
M  V30 4641 O 468.703 -1.62928 -1.18391 0
M  V30 4642 C 465.768 -2.98716 -1.75982 0
M  V30 4643 C 464.829 -4.1108 -1.2374 0
M  V30 4644 C 464.062 -4.79546 -2.34246 0
M  V30 4645 O 464.285 -4.47309 -3.53936 0
M  V30 4646 O 463.219 -5.67165 -2.01512 0
M  V30 4647 H 467.045 -3.03696 -0.0163561 0
M  V30 4648 H 464.63 -1.49289 0.0576755 0
M  V30 4649 H 466.512 -3.43851 -2.43607 0
M  V30 4650 H 465.187 -2.24737 -2.3297 0
M  V30 4651 H 464.094 -3.70367 -0.527163 0
M  V30 4652 H 465.427 -4.87007 -0.71307 0
M  V30 4653 N 467.08 -0.0183926 -1.57589 0
M  V30 4654 C 468.305 0.676634 -1.96052 0
M  V30 4655 C 468.73 1.6548 -0.894307 0
M  V30 4656 O 468.088 1.80712 0.145849 0
M  V30 4657 C 468.136 1.36872 -3.33614 0
M  V30 4658 O 467.24 2.48372 -3.29219 0
M  V30 4659 H 466.581 0.1786 -0.63953 0
M  V30 4660 H 469.111 -0.077056 -2.04455 0
M  V30 4661 H 469.121 1.72797 -3.69601 0
M  V30 4662 H 467.796 0.651636 -4.10763 0
M  V30 4663 H 466.373 2.14639 -3.04934 0
M  V30 4664 N 468.558 1.5553 0.254621 0
M  V30 4665 C 469.521 1.88872 1.29846 0
M  V30 4666 C 470.521 0.764591 1.41459 0
M  V30 4667 O 471.711 1.03265 1.40293 0
M  V30 4668 C 468.843 2.11032 2.67728 0
M  V30 4669 H 470.036 2.82201 1.01502 0
M  V30 4670 H 467.589 1.48303 0.493556 0
M  V30 4671 H 468.324 1.20146 3.01223 0
M  V30 4672 H 468.109 2.92895 2.60682 0
M  V30 4673 H 469.599 2.38038 3.43115 0
M  V30 4674 N 470.036 -0.519951 1.48776 0
M  V30 4675 C 470.966 -1.63253 1.66945 0
M  V30 4676 C 471.947 -1.62014 0.518224 0
M  V30 4677 O 473.132 -1.79053 0.751919 0
M  V30 4678 C 470.262 -3.0181 1.71836 0
M  V30 4679 C 469.216 -3.17911 2.8656 0
M  V30 4680 C 468.542 -4.5763 2.76548 0
M  V30 4681 C 469.842 -2.99729 4.27738 0
M  V30 4682 H 471.536 -1.48302 2.6009 0
M  V30 4683 H 469.082 -0.712026 1.25165 0
M  V30 4684 H 471.035 -3.79525 1.83135 0
M  V30 4685 H 469.759 -3.17806 0.752775 0
M  V30 4686 H 468.418 -2.42616 2.74833 0
M  V30 4687 H 468.066 -4.70476 1.77937 0
M  V30 4688 H 467.766 -4.69346 3.53536 0
M  V30 4689 H 469.29 -5.37431 2.89828 0
M  V30 4690 H 470.704 -3.67228 4.40246 0
M  V30 4691 H 469.101 -3.22932 5.05801 0
M  V30 4692 H 470.171 -1.96047 4.43502 0
M  V30 4693 N 471.514 -1.37532 -0.769588 0
M  V30 4694 C 472.93 -1.18379 -1.07045 0
M  V30 4695 C 473.13 -0.0214312 -2.01489 0
M  V30 4696 O 472.186 0.637809 -2.44312 0
M  V30 4697 C 473.499 -2.50338 -1.66588 0
M  V30 4698 C 475.047 -2.56879 -1.78835 0
M  V30 4699 C 475.522 -3.88974 -2.41792 0
M  V30 4700 N 477.013 -3.90428 -2.4924 0
M  V30 4701 C 477.748 -4.89388 -2.98809 0
M  V30 4702 N 477.244 -5.98745 -3.48535 0
M  V30 4703 N 479.037 -4.76791 -2.97703 0
M  V30 4704 H 471.188 -2.11921 -0.142541 0
M  V30 4705 H 473.451 -0.939608 -0.125863 0
M  V30 4706 H 473.157 -3.35767 -1.0466 0
M  V30 4707 H 473.031 -2.67583 -2.65856 0
M  V30 4708 H 475.418 -1.71856 -2.39895 0
M  V30 4709 H 475.499 -2.43516 -0.783166 0
M  V30 4710 H 475.143 -4.74412 -1.81371 0
M  V30 4711 H 475.073 -3.99641 -3.4292 0
M  V30 4712 H 477.564 -3.11433 -2.14052 0
M  V30 4713 H 477.877 -6.70205 -3.84767 0
M  V30 4714 H 476.222 -6.02387 -3.46634 0
M  V30 4715 H 479.413 -3.90478 -2.58157 0
M  V30 4716 H 479.586 -5.54069 -3.36024 0
M  V30 4717 N 472.992 0.995999 -1.22138 0
M  V30 4718 C 473.955 2.06711 -0.990109 0
M  V30 4719 C 474.955 1.60744 0.0422978 0
M  V30 4720 O 476.145 1.73095 -0.195895 0
M  V30 4721 C 473.277 3.37288 -0.49491 0
M  V30 4722 H 474.47 2.28661 -1.94047 0
M  V30 4723 H 472.023 1.16711 -1.03963 0
M  V30 4724 H 472.758 3.21022 0.459948 0
M  V30 4725 H 472.543 3.71986 -1.23971 0
M  V30 4726 H 474.033 4.16103 -0.353253 0
M  V30 4727 N 474.47 1.03057 1.19235 0
M  V30 4728 C 475.4 0.633497 2.24742 0
M  V30 4729 C 476.381 -0.358335 1.66283 0
M  V30 4730 O 477.566 -0.240676 1.92703 0
M  V30 4731 C 474.696 -0.0147648 3.47297 0
M  V30 4732 C 473.65 0.899527 4.18441 0
M  V30 4733 C 472.976 0.116281 5.34574 0
M  V30 4734 C 474.276 2.21404 4.73051 0
M  V30 4735 H 475.97 1.5155 2.58211 0
M  V30 4736 H 473.516 0.73014 1.24117 0
M  V30 4737 H 475.469 -0.304202 4.20301 0
M  V30 4738 H 474.193 -0.931577 3.13032 0
M  V30 4739 H 472.852 1.17319 3.47321 0
M  V30 4740 H 472.5 -0.802619 4.96555 0
M  V30 4741 H 472.2 0.725293 5.83107 0
M  V30 4742 H 473.724 -0.166376 6.10373 0
M  V30 4743 H 475.138 1.98601 5.37802 0
M  V30 4744 H 473.535 2.77512 5.32078 0
M  V30 4745 H 474.605 2.86752 3.91026 0
M  V30 4746 N 475.948 -1.35272 0.808662 0
M  V30 4747 C 477.194 -1.99003 0.390581 0
M  V30 4748 C 477.527 -1.63999 -1.0401 0
M  V30 4749 O 476.802 -0.904368 -1.72196 0
M  V30 4750 C 477.085 -3.55454 0.576566 0
M  V30 4751 C 476.938 -4.00249 2.05233 0
M  V30 4752 C 478.257 -4.401 0.00354277 0
M  V30 4753 H 475.376 -0.722917 0.143388 0
M  V30 4754 H 478.018 -1.6039 1.01858 0
M  V30 4755 H 476.168 -3.88477 0.0419766 0
M  V30 4756 H 477.84 -3.77626 2.64946 0
M  V30 4757 H 476.083 -3.51082 2.54801 0
M  V30 4758 H 476.754 -5.0911 2.13333 0
M  V30 4759 H 479.23 -4.13548 0.460117 0
M  V30 4760 H 478.106 -5.48656 0.163575 0
M  V30 4761 H 478.367 -4.28444 -1.09032 0
M  V30 4762 N 477.426 -0.562348 -1.47226 0
M  V30 4763 C 478.389 0.172056 -2.28553 0
M  V30 4764 C 479.389 0.837928 -1.37242 0
M  V30 4765 O 480.579 0.693001 -1.59822 0
M  V30 4766 C 477.711 1.25223 -3.17068 0
M  V30 4767 H 478.904 -0.542401 -2.94954 0
M  V30 4768 H 476.457 -0.319493 -1.53 0
M  V30 4769 H 477.192 1.99892 -2.55369 0
M  V30 4770 H 476.977 0.779515 -3.84273 0
M  V30 4771 H 478.467 1.76791 -3.78332 0
M  V30 4772 N 478.904 1.54736 -0.299062 0
M  V30 4773 C 480.129 2.04975 0.316254 0
M  V30 4774 C 480.554 1.17501 1.46885 0
M  V30 4775 O 479.912 0.178678 1.80417 0
M  V30 4776 C 479.96 3.52672 0.751997 0
M  V30 4777 O 479.064 3.68226 1.85697 0
M  V30 4778 H 478.405 0.661126 0.0617175 0
M  V30 4779 H 480.935 1.99805 -0.440341 0
M  V30 4780 H 480.945 3.94488 1.04133 0
M  V30 4781 H 479.62 4.158 -0.0911482 0
M  V30 4782 H 478.197 3.38316 1.56834 0
M  V30 4783 N 480.382 0.0267497 1.57577 0
M  V30 4784 C 481.345 -0.940916 2.08996 0
M  V30 4785 C 482.345 -1.25561 1.00455 0
M  V30 4786 O 483.535 -1.19634 1.26623 0
M  V30 4787 C 480.667 -2.25814 2.55384 0
M  V30 4788 H 481.86 -0.495628 2.95776 0
M  V30 4789 H 479.413 -0.221241 1.54726 0
M  V30 4790 H 480.148 -2.74976 1.71926 0
M  V30 4791 H 479.933 -2.04285 3.34679 0
M  V30 4792 H 481.423 -2.95178 2.95398 0
M  V30 4793 N 481.861 -1.55662 -0.24637 0
M  V30 4794 C 482.808 -1.90361 -1.30504 0
M  V30 4795 C 483.778 -0.757905 -1.47801 0
M  V30 4796 O 484.963 -1.01161 -1.61775 0
M  V30 4797 C 482.103 -2.2042 -2.65535 0
M  V30 4798 C 481.216 -3.47799 -2.56242 0
M  V30 4799 C 480.351 -3.67426 -3.8363 0
M  V30 4800 C 479.39 -4.88403 -3.68956 0
M  V30 4801 N 478.527 -5.04548 -4.88237 0
M  V30 4802 H 483.367 -2.80645 -1.00213 0
M  V30 4803 H 480.904 -1.38924 -0.483577 0
M  V30 4804 H 482.862 -2.35853 -3.44135 0
M  V30 4805 H 481.492 -1.3334 -2.93973 0
M  V30 4806 H 480.544 -3.40694 -1.69208 0
M  V30 4807 H 481.856 -4.36544 -2.4131 0
M  V30 4808 H 481.01 -3.82821 -4.70673 0
M  V30 4809 H 479.749 -2.76914 -4.01459 0
M  V30 4810 H 478.754 -4.72984 -2.80296 0
M  V30 4811 H 479.979 -5.80375 -3.52621 0
M  V30 4812 H 477.925 -4.16974 -5.06427 0
M  V30 4813 H 477.842 -5.87384 -4.75937 0
M  V30 4814 H 479.11 -5.24355 -5.76777 0
M  V30 4815 N 483.339 0.512053 -1.4905 0
M  V30 4816 C 484.587 1.26436 -1.57665 0
M  V30 4817 C 484.908 1.93255 -0.260293 0
M  V30 4818 O 484.178 1.82206 0.719564 0
M  V30 4819 H 482.758 0.469658 -0.580888 0
M  V30 4820 H 485.42 0.594398 -1.85615 0
M  V30 4821 H 484.516 2.03417 -2.36702 0
M  V30 4822 N 484.817 1.37938 0.762283 0
M  V30 4823 C 485.767 1.30976 1.86626 0
M  V30 4824 C 486.751 0.195714 1.59705 0
M  V30 4825 O 487.943 0.430937 1.71674 0
M  V30 4826 C 485.072 1.12847 3.24223 0
M  V30 4827 C 484.158 2.28836 3.57064 0
M  V30 4828 N 484.549 3.54256 3.61022 0
M  V30 4829 C 482.847 2.21198 3.87282 0
M  V30 4830 C 483.548 4.30798 3.90881 0
M  V30 4831 N 482.524 3.60049 4.07266 0
M  V30 4832 H 486.326 2.25946 1.87951 0
M  V30 4833 H 483.84 1.31046 0.959206 0
M  V30 4834 H 485.837 1.05943 4.03214 0
M  V30 4835 H 484.497 0.188024 3.24155 0
M  V30 4836 H 485.508 3.8804 3.42995 0
M  V30 4837 H 482.185 1.35264 3.94981 0
M  V30 4838 H 483.575 5.39386 4.00639 0
M  V30 4839 N 486.295 -0.989507 1.22664 0
M  V30 4840 C 487.544 -1.72375 1.04737 0
M  V30 4841 C 487.857 -1.91096 -0.417316 0
M  V30 4842 O 489.063 -2.6188 -0.716334 0
M  V30 4843 C 487.519 -3.10161 1.82561 0
M  V30 4844 C 487.127 -2.99358 3.333 0
M  V30 4845 C 488.871 -3.87607 1.73093 0
M  V30 4846 C 486.778 -4.32319 4.03552 0
M  V30 4847 H 485.708 -0.646326 0.388302 0
M  V30 4848 H 488.359 -1.10437 1.46546 0
M  V30 4849 H 486.741 -3.728 1.33552 0
M  V30 4850 H 487.915 -2.45863 3.89728 0
M  V30 4851 H 486.23 -2.35392 3.43481 0
M  V30 4852 H 488.827 -4.86025 2.22899 0
M  V30 4853 H 489.17 -4.10509 0.691976 0
M  V30 4854 H 489.703 -3.31652 2.19663 0
M  V30 4855 H 486.442 -4.14616 5.07714 0
M  V30 4856 H 485.962 -4.85714 3.51911 0
M  V30 4857 H 487.641 -5.01051 4.09337 0
M  V30 4858 N 487.773 -1.03688 -1.18687 0
M  V30 4859 C 488.683 -0.634908 -2.25845 0
M  V30 4860 C 489.699 0.337065 -1.70704 0
M  V30 4861 O 490.875 0.192943 -2.00474 0
M  V30 4862 C 487.94 -0.000180054 -3.467 0
M  V30 4863 C 487.001 -1.02067 -4.1699 0
M  V30 4864 C 486.234 -0.41614 -5.32075 0
M  V30 4865 O 486.457 0.778712 -5.65059 0
M  V30 4866 O 485.391 -1.14296 -5.90948 0
M  V30 4867 H 489.217 -1.52757 -2.62486 0
M  V30 4868 H 486.802 -0.807533 -1.25695 0
M  V30 4869 H 488.684 0.353342 -4.19916 0
M  V30 4870 H 487.359 0.866367 -3.11891 0
M  V30 4871 H 486.266 -1.42592 -3.45859 0
M  V30 4872 H 487.599 -1.85786 -4.5579 0
M  V30 4873 N 489.251 1.34841 -0.815825 0
M  V30 4874 C 490.5 1.97755 -0.396976 0
M  V30 4875 C 490.813 1.65422 1.04379 0
M  V30 4876 O 492.019 2.21771 1.5662 0
M  V30 4877 C 490.475 3.53818 -0.658869 0
M  V30 4878 C 490.083 3.95051 -2.11278 0
M  V30 4879 C 491.827 4.23397 -0.305834 0
M  V30 4880 C 489.734 5.43997 -2.31994 0
M  V30 4881 H 488.664 0.739985 -0.1447 0
M  V30 4882 H 491.315 1.53781 -1.00118 0
M  V30 4883 H 489.697 3.95997 0.0154112 0
M  V30 4884 H 490.871 3.63998 -2.82564 0
M  V30 4885 H 489.186 3.38388 -2.42657 0
M  V30 4886 H 491.783 5.32899 -0.43854 0
M  V30 4887 H 492.126 4.09508 0.748952 0
M  V30 4888 H 492.659 3.8667 -0.934403 0
M  V30 4889 H 489.398 5.62865 -3.35952 0
M  V30 4890 H 488.918 5.76589 -1.65244 0
M  V30 4891 H 490.597 6.10584 -2.14001 0
M  V30 4892 N 490.729 0.570148 1.46925 0
M  V30 4893 C 491.954 0.0542592 2.07329 0
M  V30 4894 C 492.379 -1.23582 1.41806 0
M  V30 4895 O 491.737 -1.74341 0.497479 0
M  V30 4896 C 491.785 -0.111175 3.60429 0
M  V30 4897 O 490.889 -1.17071 3.95434 0
M  V30 4898 H 490.23 0.0571425 0.661537 0
M  V30 4899 H 492.76 0.789516 1.88753 0
M  V30 4900 H 492.77 -0.321315 4.06733 0
M  V30 4901 H 491.445 0.831012 4.07513 0
M  V30 4902 H 490.022 -0.940029 3.60857 0
M  V30 4903 N 492.207 -1.54576 0.307264 0
M  V30 4904 C 493.139 -2.21212 -0.599807 0
M  V30 4905 C 494.152 -1.20685 -1.09266 0
M  V30 4906 O 495.341 -1.47244 -1.00903 0
M  V30 4907 C 492.441 -2.84994 -1.83389 0
M  V30 4908 C 491.614 -4.11511 -1.48248 0
M  V30 4909 C 490.673 -4.59038 -2.57237 0
M  V30 4910 O 489.699 -5.24095 -2.22065 0
M  V30 4911 N 490.901 -4.31884 -3.87887 0
M  V30 4912 H 493.666 -2.99686 -0.0293075 0
M  V30 4913 H 491.227 -1.61379 0.129738 0
M  V30 4914 H 493.219 -3.1372 -2.5566 0
M  V30 4915 H 491.789 -2.10324 -2.31263 0
M  V30 4916 H 491.009 -3.89728 -0.592122 0
M  V30 4917 H 492.297 -4.93879 -1.22316 0
M  V30 4918 H 491.695 -3.79778 -4.19268 0
M  V30 4919 H 490.252 -4.65304 -4.56438 0
M  V30 4920 N 493.685 -0.035106 -1.57561 0
M  V30 4921 C 494.617 0.973604 -2.07494 0
M  V30 4922 C 495.63 1.28504 -0.999534 0
M  V30 4923 O 496.819 1.24864 -1.27559 0
M  V30 4924 C 493.919 2.29945 -2.48955 0
M  V30 4925 C 493.092 2.1723 -3.79644 0
M  V30 4926 C 492.151 3.328 -4.07592 0
M  V30 4927 O 491.177 3.09418 -4.77754 0
M  V30 4928 N 492.379 4.56779 -3.58236 0
M  V30 4929 H 495.144 0.547525 -2.94656 0
M  V30 4930 H 492.705 0.151515 -1.61189 0
M  V30 4931 H 494.697 3.06097 -2.64739 0
M  V30 4932 H 493.267 2.64173 -1.67126 0
M  V30 4933 H 492.487 1.25768 -3.73599 0
M  V30 4934 H 493.775 2.05945 -4.65257 0
M  V30 4935 H 493.173 4.78668 -3.01485 0
M  V30 4936 H 491.73 5.30079 -3.79288 0
M  V30 4937 N 495.163 1.55791 0.238111 0
M  V30 4938 C 496.44 1.68798 0.98826 0
M  V30 4939 C 496.82 0.577562 2.03045 0
M  V30 4940 O 496.168 -0.41778 2.24648 0
M  V30 4941 C 496.378 3.09454 1.61367 0
M  V30 4942 C 497.726 3.68335 2.11221 0
M  V30 4943 O 498.75 3.1231 1.71292 0
M  V30 4944 O 497.609 4.6657 2.84561 0
M  V30 4945 H 494.703 0.686881 0.460568 0
M  V30 4946 H 497.249 1.68118 0.231202 0
M  V30 4947 H 496.021 3.81726 0.860295 0
M  V30 4948 H 495.644 3.14182 2.4367 0
M  V30 4949 N 496.642 -0.504142 1.49319 0
M  V30 4950 C 497.572 -1.61473 1.68667 0
M  V30 4951 C 498.553 -1.61455 0.535378 0
M  V30 4952 O 499.738 -1.78245 0.770868 0
M  V30 4953 C 496.868 -2.99971 1.75028 0
M  V30 4954 C 495.822 -3.14854 2.89916 0
M  V30 4955 C 495.148 -4.54671 2.81387 0
M  V30 4956 C 496.448 -2.95176 4.30893 0
M  V30 4957 H 498.142 -1.45535 2.61648 0
M  V30 4958 H 495.688 -0.698711 1.25913 0
M  V30 4959 H 497.641 -3.77562 1.8715 0
M  V30 4960 H 496.365 -3.1699 0.786441 0
M  V30 4961 H 495.024 -2.39687 2.77391 0
M  V30 4962 H 494.672 -4.68562 1.82917 0
M  V30 4963 H 494.372 -4.6557 3.58494 0
M  V30 4964 H 495.896 -5.34327 2.95512 0
M  V30 4965 H 497.31 -3.62538 4.44116 0
M  V30 4966 H 495.707 -3.17549 5.09198 0
M  V30 4967 H 496.777 -1.91332 4.45556 0
M  V30 4968 N 498.12 -1.38341 -0.754957 0
M  V30 4969 C 499.068 -1.35573 -1.89005 0
M  V30 4970 C 500.062 -0.241824 -1.67665 0
M  V30 4971 O 501.268 -0.410785 -1.7525 0
M  V30 4972 H 497.643 -0.422898 -0.621821 0
M  V30 4973 H 499.614 -2.31359 -1.88455 0
M  V30 4974 C 498.363 -1.19631 -3.26471 0
M  V30 4975 H 497.686 -2.04605 -3.43477 0
M  V30 4976 H 499.126 -1.21748 -4.06144 0
M  V30 4977 C 497.585 0.0968705 -3.36761 0
M  V30 4978 O 498.115 1.07439 -3.87066 0
M  V30 4979 N 496.321 0.153242 -2.90196 0
M  V30 4980 H 495.868 -0.642908 -2.49448 0
M  V30 4981 H 495.826 1.01807 -2.9746 0
M  V30 4982 N 499.598 0.982988 -1.23187 0
M  V30 4983 C 500.561 2.05649 -1.01198 0
M  V30 4984 C 501.561 1.6078 0.0252464 0
M  V30 4985 O 502.751 1.72878 -0.214243 0
M  V30 4986 C 499.883 3.36744 -0.530656 0
M  V30 4987 H 501.076 2.2659 -1.96461 0
M  V30 4988 H 498.629 1.15602 -1.05195 0
M  V30 4989 H 499.364 3.21492 0.425873 0
M  V30 4990 H 499.149 3.7065 -1.2791 0
M  V30 4991 H 500.639 4.15705 -0.397366 0
M  V30 4992 N 501.076 1.04316 1.18135 0
M  V30 4993 C 502.304 0.768117 1.92113 0
M  V30 4994 C 502.719 -0.675057 1.76319 0
M  V30 4995 O 502.076 -1.46038 1.09449 0
M  V30 4996 C 502.127 1.12808 3.43448 0
M  V30 4997 O 501.848 2.5146 3.58747 0
M  V30 4998 C 503.349 0.8779 4.3452 0
M  V30 4999 H 500.569 0.279937 0.609817 0
M  V30 5000 H 503.113 1.39149 1.49859 0
M  V30 5001 H 501.268 0.549623 3.83481 0
M  V30 5002 H 501.682 2.65313 4.52448 0
M  V30 5003 H 503.156 1.17959 5.39249 0
M  V30 5004 H 503.633 -0.187239 4.38801 0
M  V30 5005 H 504.239 1.43977 4.00188 0
M  V30 5006 N 502.554 -1.34406 0.822964 0
M  V30 5007 C 503.794 -2.00103 0.416915 0
M  V30 5008 C 504.158 -1.63826 -1.00125 0
M  V30 5009 O 505.359 -2.22367 -1.51018 0
M  V30 5010 C 503.63 -3.52101 0.613151 0
M  V30 5011 S 505.189 -4.37774 0.299956 0
M  V30 5012 H 502.007 -0.69333 0.157527 0
M  V30 5013 H 504.609 -1.63698 1.06879 0
M  V30 5014 H 503.313 -3.75991 1.64496 0
M  V30 5015 H 502.844 -3.93364 -0.0534554 0
M  V30 5016 H 504.859 -4.8822 -0.886336 0
M  V30 5017 N 504.032 -0.577932 -1.46621 0
M  V30 5018 C 505.443 -0.150071 -1.86096 0
M  V30 5019 C 505.794 1.28563 -1.48209 0
M  V30 5020 O 504.919 1.97036 -0.894754 0
M  V30 5021 C 505.514 -0.265576 -3.37758 0
M  V30 5022 C 504.073 0.10738 -3.76247 0
M  V30 5023 C 503.22 -0.603711 -2.70649 0
M  V30 5024 H 506.171 -0.786438 -1.37844 0
M  V30 5025 H 506.192 0.510352 -3.77062 0
M  V30 5026 H 505.704 -1.3106 -3.65301 0
M  V30 5027 H 503.805 1.15272 -3.54321 0
M  V30 5028 H 503.918 -0.26561 -4.78363 0
M  V30 5029 H 502.282 -0.0444884 -2.54661 0
M  V30 5030 H 503.065 -1.65029 -3.01032 0
M  V30 5031 N 505.51 1.54411 -0.315457 0
M  V30 5032 C 506.921 1.85885 0.174265 0
M  V30 5033 C 507.272 1.23723 1.52273 0
M  V30 5034 O 506.397 0.540246 2.09548 0
M  V30 5035 C 506.992 3.37257 0.322981 0
M  V30 5036 C 505.551 3.68711 0.756922 0
M  V30 5037 C 504.698 2.77013 -0.126195 0
M  V30 5038 H 507.649 1.49374 -0.536007 0
M  V30 5039 H 507.67 3.62539 1.15522 0
M  V30 5040 H 507.182 3.82471 -0.658602 0
M  V30 5041 H 505.283 3.29024 1.74854 0
M  V30 5042 H 505.396 4.75741 0.566291 0
M  V30 5043 H 503.76 2.51588 0.39692 0
M  V30 5044 H 504.543 3.25051 -1.1044 0
M  V30 5045 N 506.988 0.0434614 1.5754 0
M  V30 5046 C 507.918 -0.931651 2.14109 0
M  V30 5047 C 508.899 -1.32971 1.06079 0
M  V30 5048 O 510.084 -1.40579 1.33982 0
M  V30 5049 C 507.214 -2.20914 2.67982 0
M  V30 5050 C 506.168 -1.95139 3.80926 0
M  V30 5051 C 505.494 -3.29276 4.21285 0
M  V30 5052 C 506.794 -1.27913 5.06395 0
M  V30 5053 H 508.488 -0.460497 2.95837 0
M  V30 5054 H 506.034 -0.220058 1.42309 0
M  V30 5055 H 507.987 -2.89522 3.06194 0
M  V30 5056 H 506.711 -2.70221 1.83434 0
M  V30 5057 H 505.37 -1.28945 3.43175 0
M  V30 5058 H 505.018 -3.76369 3.33699 0
M  V30 5059 H 504.718 -3.12831 4.97404 0
M  V30 5060 H 506.242 -3.99129 4.62091 0
M  V30 5061 H 507.656 -1.86544 5.42102 0
M  V30 5062 H 506.053 -1.2182 5.87605 0
M  V30 5063 H 507.123 -0.254066 4.84234 0
M  V30 5064 N 508.466 -1.55915 -0.229846 0
M  V30 5065 C 509.877 -1.68809 -0.797531 0
M  V30 5066 C 510.228 -0.643995 -1.8533 0
M  V30 5067 O 509.353 0.206492 -2.15413 0
M  V30 5068 C 509.948 -3.06043 -1.45338 0
M  V30 5069 C 508.507 -3.20819 -1.96856 0
M  V30 5070 C 507.654 -2.6472 -0.825736 0
M  V30 5071 H 510.605 -1.58699 -0.00533733 0
M  V30 5072 H 510.626 -3.01438 -2.32196 0
M  V30 5073 H 510.138 -3.82012 -0.684743 0
M  V30 5074 H 508.239 -2.49704 -2.76548 0
M  V30 5075 H 508.352 -4.27937 -2.15423 0
M  V30 5076 H 506.716 -2.22985 -1.23084 0
M  V30 5077 H 507.499 -3.43229 -0.0699019 0
M  V30 5078 N 509.944 0.496216 -1.49584 0
M  V30 5079 C 511.36 0.827814 -1.36453 0
M  V30 5080 C 511.56 1.97464 -0.401285 0
M  V30 5081 O 510.616 2.51958 0.165296 0
M  V30 5082 C 511.929 1.16352 -2.77277 0
M  V30 5083 C 513.477 1.27145 -2.86013 0
M  V30 5084 C 513.952 1.64042 -4.27615 0
M  V30 5085 N 515.443 1.71082 -4.30448 0
M  V30 5086 C 516.178 2.01085 -5.36984 0
M  V30 5087 N 515.674 2.2928 -6.5376 0
M  V30 5088 N 517.467 2.02376 -5.24405 0
M  V30 5089 H 509.618 -0.259947 -2.10803 0
M  V30 5090 H 511.881 -0.0537163 -0.946477 0
M  V30 5091 H 511.587 0.394153 -3.49484 0
M  V30 5092 H 511.461 2.10582 -3.12946 0
M  V30 5093 H 513.848 2.03152 -2.1404 0
M  V30 5094 H 513.929 0.309542 -2.5392 0
M  V30 5095 H 513.573 0.88583 -5.00115 0
M  V30 5096 H 513.503 2.6134 -4.57175 0
M  V30 5097 H 515.994 1.51434 -3.46232 0
M  V30 5098 H 516.307 2.51376 -7.30774 0
M  V30 5099 H 514.652 2.26726 -6.56978 0
M  V30 5100 H 517.843 1.79829 -4.32179 0
M  V30 5101 H 518.016 2.25425 -6.07526 0
M  V30 5102 N 511.423 1.38739 0.74761 0
M  V30 5103 C 512.653 1.3832 1.53464 0
M  V30 5104 C 513.061 -0.0273464 1.8918 0
M  V30 5105 O 512.404 -1.00588 1.53713 0
M  V30 5106 C 512.466 2.18007 2.85855 0
M  V30 5107 C 512.13 3.66762 2.72644 0
M  V30 5108 C 513.127 4.60124 2.42037 0
M  V30 5109 C 510.812 4.10193 2.89909 0
M  V30 5110 C 512.806 5.94897 2.28859 0
M  V30 5111 C 510.493 5.45045 2.7635 0
M  V30 5112 C 511.491 6.37211 2.45869 0
M  V30 5113 O 511.179 7.69581 2.3238 0
M  V30 5114 H 510.911 0.474718 0.481268 0
M  V30 5115 H 513.465 1.83012 0.932518 0
M  V30 5116 H 511.695 1.68043 3.48279 0
M  V30 5117 H 513.384 2.09921 3.47402 0
M  V30 5118 H 514.15 4.27874 2.28361 0
M  V30 5119 H 510.029 3.38797 3.1263 0
M  V30 5120 H 513.573 6.66802 2.04989 0
M  V30 5121 H 509.47 5.76889 2.89601 0
M  V30 5122 H 510.238 7.80169 2.47546 0
M  V30 5123 N 512.901 -0.976442 1.23707 0
M  V30 5124 C 514.178 -1.69296 0.979699 0
M  V30 5125 C 514.558 -2.0508 -0.500555 0
M  V30 5126 O 513.906 -1.74708 -1.47273 0
M  V30 5127 C 514.116 -2.93143 1.89389 0
M  V30 5128 C 515.464 -3.65572 2.15968 0
M  V30 5129 O 516.488 -3.03184 1.86971 0
M  V30 5130 O 515.347 -4.77859 2.65167 0
M  V30 5131 H 512.441 -0.739708 0.369812 0
M  V30 5132 H 514.987 -1.03131 1.34767 0
M  V30 5133 H 513.759 -2.63327 2.89439 0
M  V30 5134 H 513.382 -3.67044 1.52854 0
M  V30 5135 N 514.379 -1.04941 -1.1758 0
M  V30 5136 C 515.628 -0.753124 -1.87112 0
M  V30 5137 C 515.941 0.722507 -1.81767 0
M  V30 5138 O 517.147 1.13265 -2.46746 0
M  V30 5139 C 515.603 -1.29695 -3.35719 0
M  V30 5140 C 515.211 -2.80184 -3.49572 0
M  V30 5141 C 516.955 -1.07759 -4.10595 0
M  V30 5142 C 514.862 -3.2788 -4.92187 0
M  V30 5143 H 513.792 -0.278034 -0.700866 0
M  V30 5144 H 516.443 -1.26637 -1.32798 0
M  V30 5145 H 514.825 -0.711522 -3.89555 0
M  V30 5146 H 515.999 -3.44561 -3.05965 0
M  V30 5147 H 514.314 -3.00632 -2.88113 0
M  V30 5148 H 516.911 -1.40899 -5.15802 0
M  V30 5149 H 517.254 -0.0152302 -4.16297 0
M  V30 5150 H 517.787 -1.62809 -3.62957 0
M  V30 5151 H 514.526 -4.33535 -4.91658 0
M  V30 5152 H 514.046 -2.68245 -5.36475 0
M  V30 5153 H 515.725 -3.22412 -5.60945 0
M  V30 5154 N 515.857 1.33968 -0.830081 0
M  V30 5155 C 517.273 1.51003 -0.516742 0
M  V30 5156 C 517.473 1.77286 0.957694 0
M  V30 5157 O 516.529 1.82797 1.74188 0
M  V30 5158 C 517.842 2.67036 -1.38247 0
M  V30 5159 C 519.39 2.80919 -1.38034 0
M  V30 5160 C 519.865 4.00004 -2.23071 0
M  V30 5161 N 521.356 4.07224 -2.20733 0
M  V30 5162 C 522.091 4.98541 -2.83275 0
M  V30 5163 N 521.587 5.95033 -3.54835 0
M  V30 5164 N 523.38 4.91469 -2.72791 0
M  V30 5165 H 515.531 1.15168 -1.78466 0
M  V30 5166 H 517.794 0.565443 -0.760906 0
M  V30 5167 H 517.5 2.54266 -2.42985 0
M  V30 5168 H 517.374 3.62226 -1.05225 0
M  V30 5169 H 519.761 2.93127 -0.340713 0
M  V30 5170 H 519.842 1.86517 -1.75057 0
M  V30 5171 H 519.486 3.88557 -3.27087 0
M  V30 5172 H 519.416 4.93634 -1.83394 0
M  V30 5173 H 521.907 3.38162 -1.68687 0
M  V30 5174 H 522.22 6.61357 -3.99784 0
M  V30 5175 H 520.565 5.95135 -3.58942 0
M  V30 5176 H 523.756 4.15048 -2.16456 0
M  V30 5177 H 523.929 5.62439 -3.21818 0
M  V30 5178 N 517.335 0.585699 1.46312 0
M  V30 5179 C 518.265 -0.133556 2.33118 0
M  V30 5180 C 519.246 -0.880707 1.45525 0
M  V30 5181 O 520.431 -0.855579 1.74337 0
M  V30 5182 C 517.561 -1.14585 3.27853 0
M  V30 5183 C 516.515 -0.513341 4.2491 0
M  V30 5184 C 515.841 -1.63231 5.09175 0
M  V30 5185 C 517.141 0.551413 5.19381 0
M  V30 5186 H 518.835 0.59121 2.93505 0
M  V30 5187 H 516.381 0.285761 1.41136 0
M  V30 5188 H 518.334 -1.65741 3.87438 0
M  V30 5189 H 517.058 -1.90093 2.65579 0
M  V30 5190 H 515.717 -0.0228349 3.66593 0
M  V30 5191 H 515.365 -2.37713 4.43285 0
M  V30 5192 H 515.065 -1.21473 5.74907 0
M  V30 5193 H 516.589 -2.14658 5.71624 0
M  V30 5194 H 518.003 0.124804 5.73164 0
M  V30 5195 H 516.4 0.889486 5.93471 0
M  V30 5196 H 517.47 1.43655 4.63132 0
M  V30 5197 N 518.813 -1.54241 0.323641 0
M  V30 5198 C 520.043 -2.04687 -0.280464 0
M  V30 5199 C 520.451 -1.19939 -1.46326 0
M  V30 5200 O 519.794 -0.222872 -1.82343 0
M  V30 5201 C 519.856 -3.50978 -0.778123 0
M  V30 5202 C 519.52 -4.56127 0.282371 0
M  V30 5203 C 520.517 -5.07726 1.11847 0
M  V30 5204 C 518.202 -5.00451 0.430582 0
M  V30 5205 C 520.196 -6.02212 2.08851 0
M  V30 5206 C 517.883 -5.94752 1.40404 0
M  V30 5207 C 518.881 -6.45519 2.23147 0
M  V30 5208 O 518.569 -7.37968 3.1884 0
M  V30 5209 H 518.301 -0.673192 -0.0615473 0
M  V30 5210 H 520.855 -1.99999 0.467921 0
M  V30 5211 H 519.085 -3.53064 -1.57742 0
M  V30 5212 H 520.774 -3.84499 -1.30058 0
M  V30 5213 H 521.54 -4.74261 1.01496 0
M  V30 5214 H 517.419 -4.6055 -0.203569 0
M  V30 5215 H 520.963 -6.41761 2.73474 0
M  V30 5216 H 516.86 -6.27633 1.5082 0
M  V30 5217 H 517.628 -7.55841 3.14079 0
M  V30 5218 N 520.291 -0.0518155 -1.57515 0
M  V30 5219 C 521.568 0.661727 -1.84067 0
M  V30 5220 C 521.948 1.88999 -0.940351 0
M  V30 5221 O 521.296 2.285 -0.00155404 0
M  V30 5222 C 521.506 1.01841 -3.3381 0
M  V30 5223 C 522.854 1.40043 -4.00841 0
M  V30 5224 O 523.878 1.11073 -3.38439 0
M  V30 5225 O 522.737 1.94111 -5.10865 0
M  V30 5226 H 519.831 0.326702 -0.759733 0
M  V30 5227 H 522.377 -0.0812277 -1.69505 0
M  V30 5228 H 521.149 0.145202 -3.91031 0
M  V30 5229 H 520.772 1.81879 -3.53562 0
M  V30 5230 N 521.769 1.56035 0.221574 0
M  V30 5231 C 522.732 1.91584 1.2581 0
M  V30 5232 C 523.732 0.794425 1.39805 0
M  V30 5233 O 524.922 1.06217 1.38071 0
M  V30 5234 C 522.054 2.16663 2.63192 0
M  V30 5235 H 523.247 2.8429 0.954935 0
M  V30 5236 H 520.8 1.49316 0.461988 0
M  V30 5237 H 521.535 1.26508 2.98607 0
M  V30 5238 H 521.32 2.98358 2.5441 0
M  V30 5239 H 522.81 2.45262 3.37988 0
M  V30 5240 N 523.247 -0.488276 1.49845 0
M  V30 5241 C 524.177 -1.59675 1.70371 0
M  V30 5242 C 525.158 -1.60878 0.552473 0
M  V30 5243 O 526.343 -1.77417 0.78973 0
M  V30 5244 C 523.473 -2.98098 1.782 0
M  V30 5245 C 522.427 -3.11761 2.93239 0
M  V30 5246 C 521.753 -4.51661 2.86193 0
M  V30 5247 C 523.053 -2.90589 4.33999 0
M  V30 5248 H 524.747 -1.42752 2.63177 0
M  V30 5249 H 522.293 -0.685317 1.26647 0
M  V30 5250 H 524.246 -3.75555 1.91144 0
M  V30 5251 H 522.97 -3.16138 0.820018 0
M  V30 5252 H 521.629 -2.36732 2.79917 0
M  V30 5253 H 521.277 -4.66595 1.87877 0
M  V30 5254 H 520.977 -4.61742 3.63412 0
M  V30 5255 H 522.501 -5.31162 3.01163 0
M  V30 5256 H 523.915 -3.57807 4.47936 0
M  V30 5257 H 522.312 -3.1213 5.12538 0
M  V30 5258 H 523.382 -1.86595 4.4756 0
M  V30 5259 N 524.725 -1.39134 -0.740242 0
M  V30 5260 C 525.688 -1.37217 -1.83587 0
M  V30 5261 C 526.688 -0.270221 -1.58513 0
M  V30 5262 O 527.878 -0.527843 -1.6601 0
M  V30 5263 C 525.01 -1.13959 -3.21288 0
M  V30 5264 H 526.203 -2.34705 -1.86691 0
M  V30 5265 H 523.756 -1.24622 -0.94335 0
M  V30 5266 H 524.491 -0.17131 -3.23847 0
M  V30 5267 H 524.276 -1.93754 -3.40884 0
M  V30 5268 H 525.766 -1.15346 -4.01354 0
M  V30 5269 N 526.204 0.969867 -1.24223 0
M  V30 5270 C 527.167 2.04564 -1.03373 0
M  V30 5271 C 528.167 1.60798 0.00819206 0
M  V30 5272 O 529.357 1.72641 -0.232567 0
M  V30 5273 C 526.489 3.36163 -0.566343 0
M  V30 5274 H 527.682 2.24494 -1.98853 0
M  V30 5275 H 525.235 1.1448 -1.06415 0
M  V30 5276 H 525.97 3.21925 0.391751 0
M  V30 5277 H 525.755 3.69273 -1.31834 0
M  V30 5278 H 527.245 4.1526 -0.441435 0
M  V30 5279 N 527.682 1.05563 1.17022 0
M  V30 5280 C 528.629 0.659893 2.21165 0
M  V30 5281 C 529.599 -0.339813 1.62587 0
M  V30 5282 O 530.784 -0.230378 1.89404 0
M  V30 5283 C 527.924 0.0447297 3.45071 0
M  V30 5284 C 527.037 1.09372 4.17926 0
M  V30 5285 C 526.172 0.445481 5.29329 0
M  V30 5286 C 525.211 1.47852 5.93975 0
M  V30 5287 N 524.348 0.854172 6.96885 0
M  V30 5288 H 529.188 1.55243 2.54369 0
M  V30 5289 H 526.725 0.776336 1.24946 0
M  V30 5290 H 528.683 -0.329404 4.15898 0
M  V30 5291 H 527.313 -0.811244 3.1244 0
M  V30 5292 H 526.365 1.58564 3.45777 0
M  V30 5293 H 527.677 1.87773 4.62107 0
M  V30 5294 H 526.831 0.0179688 6.06697 0
M  V30 5295 H 525.57 -0.370481 4.86291 0
M  V30 5296 H 524.575 1.91601 5.15334 0
M  V30 5297 H 525.8 2.29645 6.39093 0
M  V30 5298 H 523.746 0.0587882 6.55974 0
M  V30 5299 H 523.663 1.57567 7.39397 0
M  V30 5300 H 524.931 0.451559 7.78191 0
M  V30 5301 N 529.16 -1.33526 0.837174 0
M  V30 5302 C 530.093 -2.27192 0.214233 0
M  V30 5303 C 531.071 -1.49575 -0.637657 0
M  V30 5304 O 532.255 -1.78753 -0.598291 0
M  V30 5305 C 529.382 -3.31401 -0.699367 0
M  V30 5306 C 528.428 -4.26431 0.0768429 0
M  V30 5307 S 529.261 -5.15954 1.4336 0
M  V30 5308 C 530.417 -6.23692 0.525251 0
M  V30 5309 H 530.65 -2.79679 1.00831 0
M  V30 5310 H 528.183 -1.4079 0.633834 0
M  V30 5311 H 530.141 -3.91924 -1.22088 0
M  V30 5312 H 528.802 -2.77732 -1.46709 0
M  V30 5313 H 527.995 -5.00193 -0.618268 0
M  V30 5314 H 527.597 -3.70235 0.529364 0
M  V30 5315 H 529.889 -6.76931 -0.277575 0
M  V30 5316 H 530.832 -6.97283 1.23299 0
M  V30 5317 H 531.24 -5.64398 0.107351 0
M  V30 5318 N 530.638 -0.59345 -1.46 0
M  V30 5319 C 531.601 0.123538 -2.28867 0
M  V30 5320 C 532.601 0.808628 -1.38989 0
M  V30 5321 O 533.791 0.658945 -1.61256 0
M  V30 5322 C 530.923 1.1847 -3.19653 0
M  V30 5323 H 532.116 -0.604843 -2.93737 0
M  V30 5324 H 529.669 -0.351875 -1.52288 0
M  V30 5325 H 530.404 1.94431 -2.59552 0
M  V30 5326 H 530.189 0.69783 -3.8584 0
M  V30 5327 H 531.679 1.68726 -3.81997 0
M  V30 5328 N 532.116 1.54067 -0.331816 0
M  V30 5329 C 533.079 2.23275 0.517768 0
M  V30 5330 C 534.079 1.22897 1.03697 0
M  V30 5331 O 535.269 1.47419 0.928084 0
M  V30 5332 C 532.401 2.94326 1.72004 0
M  V30 5333 H 533.594 2.99773 -0.0873507 0
M  V30 5334 H 531.147 1.56079 -0.0830042 0
M  V30 5335 H 531.882 2.21986 2.36417 0
M  V30 5336 H 531.667 3.67941 1.35507 0
M  V30 5337 H 533.157 3.47031 2.32291 0
M  V30 5338 N 533.594 0.0601682 1.57485 0
M  V30 5339 C 534.842 -0.610386 1.92662 0
M  V30 5340 C 535.163 -1.70849 0.939981 0
M  V30 5341 O 534.433 -1.95895 -0.0137455 0
M  V30 5342 H 533.013 -0.228457 0.711208 0
M  V30 5343 H 535.675 0.115288 1.94559 0
M  V30 5344 H 534.771 -1.0432 2.94149 0
M  V30 5345 N 535.072 -1.5615 -0.213296 0
M  V30 5346 C 536.318 -1.79812 -0.937849 0
M  V30 5347 C 536.651 -0.631201 -1.83656 0
M  V30 5348 O 535.926 0.369165 -1.90964 0
M  V30 5349 C 536.209 -3.13613 -1.76972 0
M  V30 5350 C 536.062 -4.40766 -0.89695 0
M  V30 5351 C 537.381 -3.43931 -2.7459 0
M  V30 5352 H 534.5 -0.654138 -0.339518 0
M  V30 5353 H 537.142 -1.88877 -0.20623 0
M  V30 5354 H 535.292 -3.06015 -2.39347 0
M  V30 5355 H 536.964 -4.60392 -0.289306 0
M  V30 5356 H 535.207 -4.33326 -0.202756 0
M  V30 5357 H 535.878 -5.30843 -1.51358 0
M  V30 5358 H 538.354 -3.5171 -2.22349 0
M  V30 5359 H 537.23 -4.38706 -3.29891 0
M  V30 5360 H 537.491 -2.6651 -3.52739 0
M  V30 5361 N 536.55 0.480323 -1.50102 0
M  V30 5362 C 537.497 1.57946 -1.6829 0
M  V30 5363 C 538.467 1.57611 -0.524223 0
M  V30 5364 O 539.652 1.75282 -0.753709 0
M  V30 5365 C 536.792 2.95978 -1.77457 0
M  V30 5366 C 535.905 3.06173 -3.04766 0
M  V30 5367 C 535.04 4.35063 -3.04784 0
M  V30 5368 C 534.079 4.38966 -4.26586 0
M  V30 5369 N 533.216 5.59314 -4.24396 0
M  V30 5370 H 538.056 1.41743 -2.62131 0
M  V30 5371 H 535.593 0.689304 -1.2995 0
M  V30 5372 H 537.551 3.76011 -1.80752 0
M  V30 5373 H 536.181 3.10837 -0.870637 0
M  V30 5374 H 535.233 2.19071 -3.10986 0
M  V30 5375 H 536.545 3.04916 -3.9475 0
M  V30 5376 H 535.699 5.23436 -3.06757 0
M  V30 5377 H 534.438 4.38915 -2.12614 0
M  V30 5378 H 533.443 3.48992 -4.24835 0
M  V30 5379 H 534.668 4.36813 -5.19972 0
M  V30 5380 H 532.614 5.63969 -3.35074 0
M  V30 5381 H 532.531 5.5976 -5.08138 0
M  V30 5382 H 533.799 6.49837 -4.30502 0
M  V30 5383 N 538.028 1.39524 0.732853 0
M  V30 5384 C 539.274 1.37068 1.49467 0
M  V30 5385 C 539.607 -0.0327166 1.94172 0
M  V30 5386 O 538.882 -0.998071 1.66939 0
M  V30 5387 C 539.165 2.34494 2.73285 0
M  V30 5388 C 539.018 3.83784 2.34585 0
M  V30 5389 C 540.337 2.29717 3.75391 0
M  V30 5390 H 537.456 0.499206 0.542183 0
M  V30 5391 H 540.098 1.70532 0.837783 0
M  V30 5392 H 538.248 2.06087 3.29333 0
M  V30 5393 H 539.92 4.22949 1.84151 0
M  V30 5394 H 538.163 4.00455 1.66787 0
M  V30 5395 H 538.834 4.47444 3.23262 0
M  V30 5396 H 541.31 2.54839 3.28932 0
M  V30 5397 H 540.186 2.99962 4.59689 0
M  V30 5398 H 540.447 1.30291 4.22465 0
M  V30 5399 N 539.506 -0.963266 1.24736 0
M  V30 5400 C 540.922 -1.23273 1.01371 0
M  V30 5401 C 541.122 -1.99618 -0.274776 0
M  V30 5402 O 540.178 -2.32293 -0.989769 0
M  V30 5403 C 541.491 -2.01554 2.23152 0
M  V30 5404 C 543.039 -2.14629 2.27823 0
M  V30 5405 C 543.514 -2.96307 3.49237 0
M  V30 5406 N 545.005 -3.03887 3.49581 0
M  V30 5407 C 545.74 -3.67456 4.40186 0
M  V30 5408 N 545.236 -4.32706 5.41052 0
M  V30 5409 N 547.029 -3.64511 4.27888 0
M  V30 5410 H 539.18 -0.452294 2.07528 0
M  V30 5411 H 541.443 -0.262521 0.910926 0
M  V30 5412 H 541.149 -1.52847 3.1675 0
M  V30 5413 H 541.023 -3.02278 2.25628 0
M  V30 5414 H 543.41 -2.62537 1.34753 0
M  V30 5415 H 543.491 -1.13238 2.2937 0
M  V30 5416 H 543.135 -2.49091 4.42624 0
M  V30 5417 H 543.065 -3.97905 3.44933 0
M  V30 5418 H 545.556 -2.57477 2.76611 0
M  V30 5419 H 545.869 -4.79042 6.06415 0
M  V30 5420 H 544.214 -4.31361 5.44934 0
M  V30 5421 H 547.405 -3.12715 3.4832 0
M  V30 5422 H 547.578 -4.13768 4.98698 0
M  V30 5423 N 540.985 -1.06182 -1.16461 0
M  V30 5424 C 542.234 -0.772927 -1.86303 0
M  V30 5425 C 542.547 0.703187 -1.82523 0
M  V30 5426 O 543.753 1.10641 -2.47933 0
M  V30 5427 C 542.209 -1.33249 -3.34324 0
M  V30 5428 C 541.817 -2.83876 -3.46581 0
M  V30 5429 C 543.561 -1.12108 -4.09429 0
M  V30 5430 C 541.468 -3.33082 -4.88682 0
M  V30 5431 H 540.398 -0.285452 -0.697878 0
M  V30 5432 H 543.049 -1.28039 -1.31447 0
M  V30 5433 H 541.431 -0.7528 -3.88779 0
M  V30 5434 H 542.605 -3.47786 -3.02293 0
M  V30 5435 H 540.92 -3.03671 -2.84909 0
M  V30 5436 H 543.517 -1.46361 -5.14279 0
M  V30 5437 H 543.86 -0.0593832 -4.16258 0
M  V30 5438 H 544.393 -1.6665 -3.6121 0
M  V30 5439 H 541.132 -4.38726 -4.87032 0
M  V30 5440 H 540.652 -2.73919 -5.33599 0
M  V30 5441 H 542.331 -3.28344 -5.57494 0
M  V30 5442 N 542.463 1.3308 -0.844243 0
M  V30 5443 C 543.709 1.97898 -0.443206 0
M  V30 5444 C 544.042 1.66699 0.99625 0
M  V30 5445 O 543.317 0.949704 1.69738 0
M  V30 5446 C 543.6 3.53801 -0.670606 0
M  V30 5447 C 543.453 3.94667 -2.15772 0
M  V30 5448 C 544.772 4.39936 -0.120226 0
M  V30 5449 H 541.891 0.718861 -0.162504 0
M  V30 5450 H 544.533 1.57633 -1.06075 0
M  V30 5451 H 542.683 3.88229 -0.14496 0
M  V30 5452 H 544.355 3.70469 -2.74865 0
M  V30 5453 H 542.598 3.44203 -2.6402 0
M  V30 5454 H 543.269 5.03275 -2.26757 0
M  V30 5455 H 545.745 4.12183 -0.5696 0
M  V30 5456 H 544.621 5.4803 -0.308984 0
M  V30 5457 H 544.882 4.31184 0.976347 0
M  V30 5458 N 543.941 0.601185 1.45683 0
M  V30 5459 C 545.187 0.0940202 2.02582 0
M  V30 5460 C 545.52 -1.26972 1.46941 0
M  V30 5461 O 544.795 -1.83613 0.641612 0
M  V30 5462 C 545.078 0.0481715 3.60068 0
M  V30 5463 C 544.931 1.44212 4.26055 0
M  V30 5464 C 546.25 -0.642975 4.35378 0
M  V30 5465 H 543.369 0.0356404 0.736138 0
M  V30 5466 H 546.011 0.771929 1.73612 0
M  V30 5467 H 544.161 -0.529128 3.8488 0
M  V30 5468 H 545.833 2.06601 4.12449 0
M  V30 5469 H 544.076 2.00465 3.84703 0
M  V30 5470 H 544.747 1.36234 5.34925 0
M  V30 5471 H 547.223 -0.152351 4.15821 0
M  V30 5472 H 546.099 -0.644141 5.45107 0
M  V30 5473 H 546.36 -1.70785 4.0778 0
M  V30 5474 N 545.419 -1.53889 0.339982 0
M  V30 5475 C 546.644 -2.05741 -0.261798 0
M  V30 5476 C 547.069 -1.21354 -1.43718 0
M  V30 5477 O 546.427 -0.22645 -1.7988 0
M  V30 5478 C 546.475 -3.54542 -0.658228 0
M  V30 5479 O 545.579 -3.7302 -1.75869 0
M  V30 5480 H 544.92 -0.662529 -0.0441672 0
M  V30 5481 H 547.45 -1.98568 0.493161 0
M  V30 5482 H 547.46 -3.9711 -0.936368 0
M  V30 5483 H 546.135 -4.15412 0.201358 0
M  V30 5484 H 544.712 -3.42355 -1.47809 0
M  V30 5485 N 546.897 -0.0685191 -1.57451 0
M  V30 5486 C 548.174 0.642167 -1.84758 0
M  V30 5487 C 548.554 1.87991 -0.960344 0
M  V30 5488 O 547.902 2.28485 -0.0257894 0
M  V30 5489 C 548.112 0.982946 -3.34872 0
M  V30 5490 C 549.46 1.35784 -4.02303 0
M  V30 5491 O 550.484 1.07477 -3.39598 0
M  V30 5492 O 549.343 1.88681 -5.12895 0
M  V30 5493 H 546.437 0.318625 -0.763156 0
M  V30 5494 H 548.983 -0.0992015 -1.6941 0
M  V30 5495 H 547.755 0.10372 -3.91163 0
M  V30 5496 H 547.378 1.78119 -3.55471 0
M  V30 5497 N 548.375 1.56261 0.205012 0
M  V30 5498 C 549.786 1.70056 0.770574 0
M  V30 5499 C 550.137 0.673398 1.84282 0
M  V30 5500 O 549.262 -0.172196 2.15714 0
M  V30 5501 C 549.857 3.08316 1.40451 0
M  V30 5502 C 548.416 3.2391 1.91727 0
M  V30 5503 C 547.563 2.66001 0.783516 0
M  V30 5504 H 550.514 1.58688 -0.019911 0
M  V30 5505 H 550.535 3.05094 2.27371 0
M  V30 5506 H 550.047 3.83053 0.623882 0
M  V30 5507 H 548.148 2.54072 2.7254 0
M  V30 5508 H 548.261 4.3131 2.08588 0
M  V30 5509 H 546.625 2.24915 1.19521 0
M  V30 5510 H 547.408 3.43297 0.0152883 0
M  V30 5511 N 549.853 -0.472356 1.50355 0
M  V30 5512 C 550.816 -1.5529 1.68576 0
M  V30 5513 C 551.816 -1.50863 0.556511 0
M  V30 5514 O 553.006 -1.53505 0.823516 0
M  V30 5515 C 550.138 -2.94921 1.70981 0
M  V30 5516 H 551.331 -1.40451 2.64978 0
M  V30 5517 H 548.884 -0.698645 1.39816 0
M  V30 5518 H 549.619 -3.15204 0.762675 0
M  V30 5519 H 549.404 -2.99541 2.53017 0
M  V30 5520 H 550.894 -3.73372 1.87037 0
M  V30 5521 N 551.331 -1.39911 -0.725443 0
M  V30 5522 C 552.279 -1.39552 -1.86086 0
M  V30 5523 C 553.273 -0.277334 -1.67114 0
M  V30 5524 O 554.479 -0.447865 -1.74339 0
M  V30 5525 H 550.854 -0.435993 -0.612711 0
M  V30 5526 H 552.825 -2.35305 -1.83505 0
M  V30 5527 C 551.574 -1.26529 -3.2386 0
M  V30 5528 H 550.897 -2.11845 -3.3906 0
M  V30 5529 H 552.337 -1.30336 -4.03471 0
M  V30 5530 C 550.796 0.0254168 -3.3689 0
M  V30 5531 O 551.326 0.992048 -3.89257 0
M  V30 5532 N 549.532 0.0916528 -2.90455 0
M  V30 5533 H 549.079 -0.695675 -2.48028 0
M  V30 5534 H 549.037 0.954745 -2.99553 0
M  V30 5535 N 552.809 0.956637 -1.25245 0
M  V30 5536 C 554.225 1.22733 -1.02023 0
M  V30 5537 C 554.425 1.99761 0.264186 0
M  V30 5538 O 553.481 2.32814 0.977436 0
M  V30 5539 C 554.794 2.00367 -2.24217 0
M  V30 5540 C 556.342 2.13418 -2.28958 0
M  V30 5541 C 556.817 2.9445 -3.50803 0
M  V30 5542 N 558.308 3.02029 -3.51187 0
M  V30 5543 C 559.043 3.65116 -4.42129 0
M  V30 5544 N 558.539 4.2983 -5.43339 0
M  V30 5545 N 560.332 3.62237 -4.29815 0
M  V30 5546 H 552.483 0.441282 -2.07765 0
M  V30 5547 H 554.746 0.257686 -0.912306 0
M  V30 5548 H 554.452 1.51165 -3.17556 0
M  V30 5549 H 554.326 3.01077 -2.27228 0
M  V30 5550 H 556.713 2.61819 -1.36143 0
M  V30 5551 H 556.794 1.1202 -2.29968 0
M  V30 5552 H 556.438 2.46741 -4.43939 0
M  V30 5553 H 556.368 3.9607 -3.47039 0
M  V30 5554 H 558.859 2.56007 -2.77973 0
M  V30 5555 H 559.172 4.75819 -6.08947 0
M  V30 5556 H 557.517 4.28465 -5.47214 0
M  V30 5557 H 560.708 3.10863 -3.49974 0
M  V30 5558 H 560.881 4.11117 -5.00886 0
M  V30 5559 N 554.287 1.06798 1.15896 0
M  V30 5560 C 555.535 0.786211 1.8618 0
M  V30 5561 C 555.856 -0.689547 1.82401 0
M  V30 5562 O 555.126 -1.49913 1.26107 0
M  V30 5563 H 553.706 0.287843 0.689315 0
M  V30 5564 H 556.368 1.35055 1.40521 0
M  V30 5565 H 555.464 1.1157 2.91477 0
M  V30 5566 N 555.766 -1.3263 0.851289 0
M  V30 5567 C 556.729 -2.27247 0.298541 0
M  V30 5568 C 557.729 -1.51467 -0.539847 0
M  V30 5569 O 558.919 -1.7061 -0.351843 0
M  V30 5570 C 556.051 -3.35964 -0.578004 0
M  V30 5571 H 557.244 -2.7765 1.13359 0
M  V30 5572 H 554.797 -1.43245 0.625354 0
M  V30 5573 H 555.532 -2.90823 -1.435 0
M  V30 5574 H 555.317 -3.92094 0.0220539 0
M  V30 5575 H 556.807 -4.06472 -0.957626 0
M  V30 5576 N 557.244 -0.608902 -1.45362 0
M  V30 5577 C 558.49 -0.104762 -2.02529 0
M  V30 5578 C 558.823 1.26191 -1.47613 0
M  V30 5579 O 558.098 1.8327 -0.65134 0
M  V30 5580 C 558.381 -0.0672661 -3.60037 0
M  V30 5581 C 558.234 -1.4647 -4.25284 0
M  V30 5582 C 559.553 0.619877 -4.35713 0
M  V30 5583 H 556.672 -0.0395438 -0.735938 0
M  V30 5584 H 559.314 -0.781126 -1.73201 0
M  V30 5585 H 557.464 0.50871 -3.85155 0
M  V30 5586 H 559.136 -2.08785 -4.11347 0
M  V30 5587 H 557.379 -2.02502 -3.83634 0
M  V30 5588 H 558.05 -1.39069 -5.34195 0
M  V30 5589 H 560.526 0.130297 -4.15896 0
M  V30 5590 H 559.402 0.615224 -5.45441 0
M  V30 5591 H 559.663 1.68621 -4.0868 0
M  V30 5592 N 558.722 1.53707 -0.348139 0
M  V30 5593 C 559.97 2.00591 0.246478 0
M  V30 5594 C 560.291 1.23753 1.50699 0
M  V30 5595 O 559.561 0.345964 1.92821 0
M  V30 5596 H 558.141 0.741053 0.0940679 0
M  V30 5597 H 560.803 1.89139 -0.470354 0
M  V30 5598 H 559.899 3.08297 0.485714 0
M  V30 5599 N 560.2 0.0768682 1.57412 0
M  V30 5600 C 561.425 -0.603404 1.98428 0
M  V30 5601 C 561.85 -1.62047 0.955108 0
M  V30 5602 O 561.208 -1.81129 -0.0786778 0
M  V30 5603 C 561.256 -1.24396 3.38464 0
M  V30 5604 O 560.36 -2.35982 3.3821 0
M  V30 5605 H 559.701 -0.154741 0.645718 0
M  V30 5606 H 562.231 0.152885 2.04028 0
M  V30 5607 H 562.241 -1.5896 3.7576 0
M  V30 5608 H 560.916 -0.498735 4.12899 0
M  V30 5609 H 559.493 -2.03173 3.1269 0
M  V30 5610 N 561.678 -1.56367 -0.196722 0
M  V30 5611 C 562.926 -1.80172 -0.915554 0
M  V30 5612 C 563.247 -0.649649 -1.8386 0
M  V30 5613 O 562.517 0.332111 -1.93064 0
M  V30 5614 H 561.097 -0.664592 -0.341067 0
M  V30 5615 H 563.759 -1.93844 -0.202622 0
M  V30 5616 H 562.855 -2.7327 -1.50764 0
M  V30 5617 N 563.156 0.464375 -1.50603 0
M  V30 5618 C 564.404 1.21356 -1.61608 0
M  V30 5619 C 564.725 1.92329 -0.321643 0
M  V30 5620 O 563.995 1.84403 0.661232 0
M  V30 5621 H 562.575 0.45094 -0.595535 0
M  V30 5622 H 565.237 0.535046 -1.87412 0
M  V30 5623 H 564.333 1.95783 -2.43054 0
M  V30 5624 N 564.634 1.40294 0.718013 0
M  V30 5625 C 565.864 1.41544 1.50495 0
M  V30 5626 C 566.272 0.0127877 1.89196 0
M  V30 5627 O 565.615 -0.97305 1.55812 0
M  V30 5628 C 565.677 2.24021 2.81167 0
M  V30 5629 C 565.341 3.72463 2.64803 0
M  V30 5630 C 566.338 4.65154 2.32223 0
M  V30 5631 C 564.023 4.1625 2.81143 0
M  V30 5632 C 566.017 5.99618 2.16189 0
M  V30 5633 C 563.704 5.50784 2.64727 0
M  V30 5634 C 564.702 6.42283 2.32297 0
M  V30 5635 O 564.39 7.74337 2.16004 0
M  V30 5636 H 564.122 0.484819 0.471091 0
M  V30 5637 H 566.676 1.84948 0.893488 0
M  V30 5638 H 564.906 1.75393 3.44636 0
M  V30 5639 H 566.595 2.17243 3.42871 0
M  V30 5640 H 567.361 4.32622 2.19234 0
M  V30 5641 H 563.24 3.45352 3.05373 0
M  V30 5642 H 566.784 6.71 1.90799 0
M  V30 5643 H 562.681 5.82902 2.773 0
M  V30 5644 H 563.449 7.85244 2.30942 0
M  V30 5645 N 566.112 -0.949982 1.2575 0
M  V30 5646 C 567.337 -1.73503 1.13628 0
M  V30 5647 C 567.762 -1.85601 -0.30559 0
M  V30 5648 O 567.12 -1.33984 -1.22139 0
M  V30 5649 C 567.168 -3.1243 1.80055 0
M  V30 5650 O 566.272 -3.97916 1.08336 0
M  V30 5651 H 565.613 -0.532665 0.396439 0
M  V30 5652 H 568.143 -1.19043 1.66403 0
M  V30 5653 H 568.153 -3.62866 1.86527 0
M  V30 5654 H 566.828 -3.02941 2.84956 0
M  V30 5655 H 565.405 -3.56375 1.09777 0
M  V30 5656 N 567.59 -1.07411 -1.15328 0
M  V30 5657 C 568.522 -0.652924 -2.19703 0
M  V30 5658 C 569.535 0.294869 -1.60107 0
M  V30 5659 O 570.724 0.0840932 -1.78302 0
M  V30 5660 C 567.824 0.061434 -3.38844 0
M  V30 5661 C 566.997 -0.902696 -4.27984 0
M  V30 5662 C 566.056 -0.225521 -5.25717 0
M  V30 5663 O 565.082 -0.86676 -5.62562 0
M  V30 5664 N 566.284 1.02858 -5.71315 0
M  V30 5665 H 569.049 -1.55081 -2.56457 0
M  V30 5666 H 566.61 -0.958883 -1.30449 0
M  V30 5667 H 568.602 0.525145 -4.01278 0
M  V30 5668 H 567.172 0.861269 -3.00501 0
M  V30 5669 H 566.392 -1.54551 -3.6264 0
M  V30 5670 H 567.68 -1.55636 -4.84412 0
M  V30 5671 H 567.078 1.56948 -5.43492 0
M  V30 5672 H 565.635 1.43596 -6.35786 0
M  V30 5673 N 569.068 1.32177 -0.85831 0
M  V30 5674 C 570.317 1.96392 -0.459689 0
M  V30 5675 C 570.63 1.68659 0.990632 0
M  V30 5676 O 571.836 2.26641 1.49485 0
M  V30 5677 C 570.292 3.51542 -0.7711 0
M  V30 5678 C 569.9 3.8813 -2.2374 0
M  V30 5679 C 571.644 4.2221 -0.44038 0
M  V30 5680 C 569.551 5.36341 -2.49183 0
M  V30 5681 H 568.481 0.735007 -0.168169 0
M  V30 5682 H 571.132 1.50518 -1.0496 0
M  V30 5683 H 569.514 3.95846 -0.11058 0
M  V30 5684 H 570.688 3.54824 -2.94001 0
M  V30 5685 H 569.003 3.30497 -2.533 0
M  V30 5686 H 571.6 5.31234 -0.607855 0
M  V30 5687 H 571.943 4.11683 0.618291 0
M  V30 5688 H 572.476 3.83502 -1.05695 0
M  V30 5689 H 569.215 5.51892 -3.53689 0
M  V30 5690 H 568.735 5.7104 -1.83504 0
M  V30 5691 H 570.414 6.03466 -2.33318 0
M  V30 5692 N 570.547 0.616602 1.45037 0
M  V30 5693 C 571.494 -0.0969439 2.30596 0
M  V30 5694 C 572.464 -0.851151 1.42635 0
M  V30 5695 O 573.649 -0.835092 1.71554 0
M  V30 5696 C 570.789 -1.08234 3.27688 0
M  V30 5697 C 569.902 -0.328072 4.30752 0
M  V30 5698 C 569.037 -1.30399 5.14946 0
M  V30 5699 C 568.076 -0.538049 6.09731 0
M  V30 5700 N 567.213 -1.46371 6.86673 0
M  V30 5701 H 572.053 0.63864 2.91076 0
M  V30 5702 H 569.59 0.326733 1.43425 0
M  V30 5703 H 571.548 -1.66688 3.82454 0
M  V30 5704 H 570.178 -1.78523 2.68941 0
M  V30 5705 H 569.23 0.372136 3.78575 0
M  V30 5706 H 570.542 0.269142 4.98073 0
M  V30 5707 H 569.696 -1.96032 5.74157 0
M  V30 5708 H 568.435 -1.93514 4.47665 0
M  V30 5709 H 567.44 0.131852 5.49642 0
M  V30 5710 H 568.665 0.0881732 6.79043 0
M  V30 5711 H 566.611 -2.08233 6.22073 0
M  V30 5712 H 566.528 -0.920152 7.50379 0
M  V30 5713 H 567.796 -2.10932 7.50418 0
M  V30 5714 N 572.025 -1.5352 0.356285 0
M  V30 5715 C 573.25 -2.06007 -0.239961 0
M  V30 5716 C 573.675 -1.22872 -1.42422 0
M  V30 5717 O 573.033 -0.245516 -1.7963 0
M  V30 5718 C 573.081 -3.5522 -0.620587 0
M  V30 5719 O 572.185 -3.74864 -1.71902 0
M  V30 5720 H 571.526 -0.662961 -0.0371377 0
M  V30 5721 H 574.056 -1.98033 0.514194 0
M  V30 5722 H 574.066 -3.98081 -0.894197 0
M  V30 5723 H 572.741 -4.15175 0.245407 0
M  V30 5724 H 571.318 -3.43904 -1.44169 0
M  V30 5725 N 573.503 -0.0852151 -1.57369 0
M  V30 5726 C 574.433 0.874556 -2.16503 0
M  V30 5727 C 575.414 1.30111 -1.09568 0
M  V30 5728 O 576.599 1.36977 -1.37662 0
M  V30 5729 C 573.729 2.13731 -2.73745 0
M  V30 5730 C 572.683 1.84971 -3.85966 0
M  V30 5731 C 572.009 3.17991 -4.29867 0
M  V30 5732 C 573.309 1.14442 -5.09608 0
M  V30 5733 H 575.003 0.381899 -2.96954 0
M  V30 5734 H 572.549 0.18225 -1.42842 0
M  V30 5735 H 574.502 2.81302 -3.13763 0
M  V30 5736 H 573.226 2.65263 -1.90534 0
M  V30 5737 H 571.885 1.19801 -3.46473 0
M  V30 5738 H 571.533 3.6739 -3.4356 0
M  V30 5739 H 571.233 2.99534 -5.05523 0
M  V30 5740 H 572.757 3.86737 -4.72511 0
M  V30 5741 H 574.171 1.72105 -5.46857 0
M  V30 5742 H 572.568 1.06197 -5.90629 0
M  V30 5743 H 573.638 0.12559 -4.84737 0
M  V30 5744 N 574.981 1.5647 0.188427 0
M  V30 5745 C 576.206 1.85486 0.927891 0
M  V30 5746 C 576.631 0.669575 1.75779 0
M  V30 5747 O 575.989 -0.381573 1.77239 0
M  V30 5748 C 576.037 3.12784 1.7944 0
M  V30 5749 O 575.141 2.93805 2.894 0
M  V30 5750 H 574.482 0.610585 0.260925 0
M  V30 5751 H 577.012 2.037 0.191729 0
M  V30 5752 H 577.022 3.43749 2.19774 0
M  V30 5753 H 575.697 3.98671 1.18468 0
M  V30 5754 H 574.274 2.74153 2.52774 0
M  V30 5755 N 576.459 -0.456382 1.50847 0
M  V30 5756 C 577.369 -1.57805 1.73594 0
M  V30 5757 C 578.385 -1.62599 0.619476 0
M  V30 5758 O 579.561 -1.80195 0.899532 0
M  V30 5759 C 576.626 -2.93926 1.8387 0
M  V30 5760 C 575.687 -2.99402 3.07663 0
M  V30 5761 C 574.92 -4.29031 3.1744 0
M  V30 5762 O 575.143 -5.20358 2.33631 0
M  V30 5763 O 574.077 -4.40401 4.10281 0
M  V30 5764 H 577.903 -1.41531 2.68705 0
M  V30 5765 H 575.488 -0.637422 1.3512 0
M  V30 5766 H 577.37 -3.74747 1.92725 0
M  V30 5767 H 576.045 -3.10368 0.91944 0
M  V30 5768 H 574.952 -2.17606 3.043 0
M  V30 5769 H 576.285 -2.87901 3.99216 0
M  V30 5770 N 577.937 -1.40673 -0.710563 0
M  V30 5771 C 579.186 -1.38525 -1.46607 0
M  V30 5772 C 579.499 0.0077024 -1.95598 0
M  V30 5773 O 580.705 0.151792 -2.71075 0
M  V30 5774 C 579.161 -2.43489 -2.6503 0
M  V30 5775 C 578.769 -3.88619 -2.22888 0
M  V30 5776 C 580.513 -2.50456 -3.42742 0
M  V30 5777 C 578.42 -4.85168 -3.3818 0
M  V30 5778 H 577.35 -0.515092 -0.550632 0
M  V30 5779 H 580.001 -1.66431 -0.772846 0
M  V30 5780 H 578.383 -2.0869 -3.36548 0
M  V30 5781 H 579.557 -4.32588 -1.58758 0
M  V30 5782 H 577.872 -3.85174 -1.58208 0
M  V30 5783 H 580.469 -3.19776 -4.28541 0
M  V30 5784 H 580.812 -1.53665 -3.86902 0
M  V30 5785 H 581.345 -2.84271 -2.78271 0
M  V30 5786 H 578.084 -5.8331 -2.99047 0
M  V30 5787 H 577.604 -4.4586 -4.01209 0
M  V30 5788 H 579.283 -5.05225 -4.04174 0
M  V30 5789 N 579.415 0.9433 -1.26252 0
M  V30 5790 C 580.64 1.72898 -1.14547 0
M  V30 5791 C 581.065 1.85761 0.295743 0
M  V30 5792 O 580.423 1.3463 1.21427 0
M  V30 5793 C 580.471 3.11471 -1.8171 0
M  V30 5794 O 579.575 3.97336 -1.10445 0
M  V30 5795 H 578.916 0.530555 -0.399259 0
M  V30 5796 H 581.446 1.18159 -1.67032 0
M  V30 5797 H 581.456 3.61872 -1.88449 0
M  V30 5798 H 580.131 3.01425 -2.86558 0
M  V30 5799 H 578.708 3.55788 -1.11666 0
M  V30 5800 N 580.893 1.08022 1.14757 0
M  V30 5801 C 582.17 0.720386 1.81851 0
M  V30 5802 C 582.55 -0.796375 1.95502 0
M  V30 5803 O 581.898 -1.71339 1.51179 0
M  V30 5804 C 582.108 1.44273 3.17783 0
M  V30 5805 C 583.456 1.59925 3.93331 0
M  V30 5806 O 584.48 1.40407 3.2736 0
M  V30 5807 O 583.339 1.92096 5.11626 0
M  V30 5808 H 580.433 0.257142 0.786007 0
M  V30 5809 H 582.979 1.18155 1.21809 0
M  V30 5810 H 581.751 2.47618 3.02987 0
M  V30 5811 H 581.374 0.97279 3.85516 0
M  V30 5812 N 582.371 -1.3172 0.865308 0
M  V30 5813 C 583.599 -2.01057 0.488251 0
M  V30 5814 C 584.014 -1.64979 -0.918 0
M  V30 5815 O 583.371 -0.876597 -1.60069 0
M  V30 5816 C 583.422 -3.55964 0.630224 0
M  V30 5817 O 583.143 -3.90749 1.98109 0
M  V30 5818 C 584.644 -4.42574 0.253567 0
M  V30 5819 H 581.864 -0.64332 0.190736 0
M  V30 5820 H 584.408 -1.68058 1.16519 0
M  V30 5821 H 582.563 -3.874 0.000895422 0
M  V30 5822 H 582.977 -4.85467 1.9855 0
M  V30 5823 H 584.451 -5.50521 0.403875 0
M  V30 5824 H 584.928 -4.31724 -0.806895 0
M  V30 5825 H 585.534 -4.16547 0.858404 0
M  V30 5826 N 583.85 -0.624285 -1.44708 0
M  V30 5827 C 584.779 0.0717025 -2.3339 0
M  V30 5828 C 585.76 0.841814 -1.47809 0
M  V30 5829 O 586.946 0.809056 -1.76544 0
M  V30 5830 C 584.076 1.05852 -3.30776 0
M  V30 5831 C 583.029 0.400503 -4.26122 0
M  V30 5832 C 582.356 1.49674 -5.13324 0
M  V30 5833 C 583.656 -0.688924 -5.17737 0
M  V30 5834 H 585.35 -0.668819 -2.91834 0
M  V30 5835 H 582.896 -0.32308 -1.40329 0
M  V30 5836 H 584.849 1.5541 -3.91696 0
M  V30 5837 H 583.572 1.82984 -2.70526 0
M  V30 5838 H 582.231 -0.0743687 -3.66525 0
M  V30 5839 H 581.88 2.25877 -4.49431 0
M  V30 5840 H 581.58 1.06188 -5.77926 0
M  V30 5841 H 583.104 1.99427 -5.77115 0
M  V30 5842 H 584.518 -0.276724 -5.72632 0
M  V30 5843 H 582.915 -1.04652 -5.90904 0
M  V30 5844 H 583.985 -1.55884 -4.5916 0
M  V30 5845 N 585.328 1.53329 -0.364422 0
M  V30 5846 C 586.744 1.59594 -0.0133165 0
M  V30 5847 C 586.944 1.37959 1.46865 0
M  V30 5848 O 586 1.18418 2.2301 0
M  V30 5849 C 587.313 2.97032 -0.468213 0
M  V30 5850 C 588.861 3.10138 -0.422334 0
M  V30 5851 C 589.336 4.49986 -0.853024 0
M  V30 5852 N 590.827 4.56098 -0.808037 0
M  V30 5853 C 591.562 5.62495 -1.11299 0
M  V30 5854 N 591.058 6.7665 -1.48717 0
M  V30 5855 N 592.851 5.52473 -1.03586 0
M  V30 5856 H 585.002 1.65644 -1.32951 0
M  V30 5857 H 587.265 0.77684 -0.543345 0
M  V30 5858 H 586.971 3.18 -1.5023 0
M  V30 5859 H 586.845 3.76918 0.145775 0
M  V30 5860 H 589.232 2.88881 0.602622 0
M  V30 5861 H 589.313 2.32263 -1.0718 0
M  V30 5862 H 588.957 4.7198 -1.87609 0
M  V30 5863 H 588.887 5.26289 -0.180819 0
M  V30 5864 H 591.378 3.74131 -0.532361 0
M  V30 5865 H 591.691 7.53776 -1.70415 0
M  V30 5866 H 590.036 6.78044 -1.52581 0
M  V30 5867 H 593.227 4.6217 -0.742736 0
M  V30 5868 H 593.4 6.35295 -1.27686 0
M  V30 5869 N 586.806 0.0935595 1.57322 0
M  V30 5870 C 587.754 -0.883457 2.15169 0
M  V30 5871 C 588.748 -1.29324 1.09415 0
M  V30 5872 O 589.954 -1.26795 1.27762 0
M  V30 5873 H 586.329 -0.302923 0.688289 0
M  V30 5874 H 588.3 -0.370845 2.96087 0
M  V30 5875 C 587.049 -2.13345 2.74552 0
M  V30 5876 H 586.372 -1.82702 3.55612 0
M  V30 5877 H 587.812 -2.7977 3.18598 0
M  V30 5878 C 586.271 -2.90646 1.70371 0
M  V30 5879 O 586.801 -3.85133 1.14173 0
M  V30 5880 N 585.007 -2.54157 1.40899 0
M  V30 5881 H 584.554 -1.77391 1.86789 0
M  V30 5882 H 584.512 -3.06178 0.714301 0
M  V30 5883 N 588.284 -1.56567 -0.180126 0
M  V30 5884 C 589.7 -1.50488 -0.531559 0
M  V30 5885 C 589.9 -0.796267 -1.851 0
M  V30 5886 O 588.956 -0.352978 -2.50021 0
M  V30 5887 C 590.269 -2.95201 -0.572456 0
M  V30 5888 C 591.817 -3.05957 -0.660264 0
M  V30 5889 C 592.292 -4.5211 -0.732135 0
M  V30 5890 N 593.783 -4.56322 -0.795262 0
M  V30 5891 C 594.518 -5.66742 -0.871296 0
M  V30 5892 N 594.014 -6.86815 -0.908708 0
M  V30 5893 N 595.807 -5.54691 -0.909639 0
M  V30 5894 H 587.958 -2.01045 0.685165 0
M  V30 5895 H 590.221 -0.915536 0.245962 0
M  V30 5896 H 589.927 -3.50165 0.328208 0
M  V30 5897 H 589.801 -3.49369 -1.422 0
M  V30 5898 H 592.188 -2.51032 -1.55136 0
M  V30 5899 H 592.269 -2.54888 0.215783 0
M  V30 5900 H 591.913 -5.07664 0.154664 0
M  V30 5901 H 591.843 -5.00926 -1.6242 0
M  V30 5902 H 594.334 -3.69868 -0.77499 0
M  V30 5903 H 594.647 -7.66718 -0.967654 0
M  V30 5904 H 592.992 -6.89443 -0.877132 0
M  V30 5905 H 596.183 -4.59804 -0.877353 0
M  V30 5906 H 596.356 -6.40768 -0.965434 0
M  V30 5907 N 589.762 0.448376 -1.51087 0
M  V30 5908 C 590.692 1.55102 -1.74544 0
M  V30 5909 C 591.673 1.59357 -0.594932 0
M  V30 5910 O 592.858 1.75261 -0.836491 0
M  V30 5911 C 589.988 2.93268 -1.86041 0
M  V30 5912 C 588.942 3.03877 -3.01402 0
M  V30 5913 C 588.268 4.43914 -2.98068 0
M  V30 5914 C 589.568 2.7898 -4.41551 0
M  V30 5915 H 591.262 1.35724 -2.66869 0
M  V30 5916 H 588.808 0.651498 -1.28419 0
M  V30 5917 H 590.761 3.70356 -2.01034 0
M  V30 5918 H 589.485 3.13853 -0.903548 0
M  V30 5919 H 588.144 2.29227 -2.86096 0
M  V30 5920 H 587.792 4.6145 -2.00182 0
M  V30 5921 H 587.492 4.51944 -3.75527 0
M  V30 5922 H 589.016 5.22991 -3.1514 0
M  V30 5923 H 590.43 3.45805 -4.57265 0
M  V30 5924 H 588.827 2.98431 -5.20633 0
M  V30 5925 H 589.897 1.74663 -4.5235 0
M  V30 5926 N 591.24 1.41047 0.703093 0
M  V30 5927 C 592.203 1.42036 1.79884 0
M  V30 5928 C 593.203 0.312153 1.57741 0
M  V30 5929 O 594.393 0.571672 1.64553 0
M  V30 5930 C 591.525 1.22437 3.18154 0
M  V30 5931 H 592.718 2.39572 1.80403 0
M  V30 5932 H 590.271 1.27079 0.909977 0
M  V30 5933 H 591.006 0.257112 3.23279 0
M  V30 5934 H 590.791 2.02723 3.35627 0
M  V30 5935 H 592.281 1.25946 3.98155 0
M  V30 5936 N 592.718 -0.936591 1.26751 0
M  V30 5937 C 593.666 -2.0573 1.08527 0
M  V30 5938 C 594.66 -1.69397 0.0108784 0
M  V30 5939 O 595.866 -1.79215 0.167915 0
M  V30 5940 H 592.241 -0.673691 0.334133 0
M  V30 5941 H 594.212 -2.1825 2.03493 0
M  V30 5942 C 592.961 -3.39738 0.739845 0
M  V30 5943 H 592.284 -3.68174 1.55845 0
M  V30 5944 H 593.724 -4.18955 0.652149 0
M  V30 5945 C 592.183 -3.32292 -0.555288 0
M  V30 5946 O 592.713 -3.68794 -1.59229 0
M  V30 5947 N 590.919 -2.85394 -0.54762 0
M  V30 5948 H 590.466 -2.55886 0.296667 0
M  V30 5949 H 590.424 -2.80795 -1.41427 0
M  V30 5950 N 594.196 -1.08629 -1.14182 0
M  V30 5951 C 595.445 -0.812271 -1.84621 0
M  V30 5952 C 595.758 0.664313 -1.83973 0
M  V30 5953 O 596.964 1.05357 -2.50224 0
M  V30 5954 C 595.42 -1.4031 -3.31423 0
M  V30 5955 C 595.028 -2.91164 -3.40481 0
M  V30 5956 C 596.772 -1.20767 -4.06959 0
M  V30 5957 C 594.679 -3.43373 -4.81507 0
M  V30 5958 H 593.609 -0.30019 -0.691666 0
M  V30 5959 H 596.26 -1.30798 -1.28701 0
M  V30 5960 H 594.642 -0.835096 -3.87094 0
M  V30 5961 H 595.816 -3.5412 -2.94848 0
M  V30 5962 H 594.131 -3.09646 -2.78403 0
M  V30 5963 H 596.728 -1.57237 -5.11058 0
M  V30 5964 H 597.071 -0.147664 -4.16038 0
M  V30 5965 H 597.604 -1.74274 -3.57594 0
M  V30 5966 H 594.343 -4.48958 -4.77616 0
M  V30 5967 H 593.863 -2.85176 -5.27669 0
M  V30 5968 H 595.542 -3.40095 -5.50404 0
M  V30 5969 N 595.674 1.31259 -0.872281 0
M  V30 5970 C 596.902 2.00795 -0.498907 0
M  V30 5971 C 597.317 1.65464 0.909238 0
M  V30 5972 O 596.674 0.885073 1.59602 0
M  V30 5973 C 596.725 3.55625 -0.649092 0
M  V30 5974 O 596.446 3.89692 -2.00179 0
M  V30 5975 C 597.947 4.42434 -0.277034 0
M  V30 5976 H 595.167 0.642299 -0.194145 0
M  V30 5977 H 597.711 1.67438 -1.17408 0
M  V30 5978 H 595.866 3.87394 -0.0214402 0
M  V30 5979 H 596.28 4.84407 -2.01122 0
M  V30 5980 H 597.754 5.50299 -0.433064 0
M  V30 5981 H 598.231 4.32146 0.783989 0
M  V30 5982 H 598.837 4.16086 -0.880483 0
M  V30 5983 N 597.152 0.631951 1.44375 0
M  V30 5984 C 598.4 0.136497 2.01639 0
M  V30 5985 C 598.721 -1.24637 1.49969 0
M  V30 5986 O 597.991 -1.82827 0.70363 0
M  V30 5987 H 596.571 0.0474703 0.74549 0
M  V30 5988 H 599.233 0.818837 1.76865 0
M  V30 5989 H 598.329 0.104817 3.11924 0
M  V30 5990 N 598.631 -1.53133 0.372548 0
M  V30 5991 C 599.879 -2.00958 -0.214534 0
M  V30 5992 C 600.2 -1.26135 -1.48711 0
M  V30 5993 O 599.47 -0.376597 -1.92246 0
M  V30 5994 H 598.05 -0.742456 -0.0822664 0
M  V30 5995 H 600.712 -1.88367 0.500385 0
M  V30 5996 H 599.808 -3.09031 -0.436605 0
M  V30 5997 N 600.109 -0.101901 -1.5727 0
M  V30 5998 C 601.041 0.884723 -2.11436 0
M  V30 5999 C 602.054 1.24149 -1.05314 0
M  V30 6000 O 603.243 1.19341 -1.3274 0
M  V30 6001 C 600.343 2.19179 -2.58484 0
M  V30 6002 C 599.516 2.00933 -3.88516 0
M  V30 6003 C 598.575 3.15213 -4.2134 0
M  V30 6004 O 597.601 2.88877 -4.90448 0
M  V30 6005 N 598.803 4.41174 -3.77288 0
M  V30 6006 H 601.568 0.422058 -2.96713 0
M  V30 6007 H 599.129 0.0830128 -1.61687 0
M  V30 6008 H 601.121 2.94593 -2.77484 0
M  V30 6009 H 599.691 2.56847 -1.7818 0
M  V30 6010 H 598.911 1.09809 -3.78597 0
M  V30 6011 H 600.199 1.86026 -4.73573 0
M  V30 6012 H 599.597 4.6545 -3.21516 0
M  V30 6013 H 598.154 5.13515 -4.01429 0
M  V30 6014 N 601.587 1.56661 0.17182 0
M  V30 6015 C 602.519 1.92934 1.2373 0
M  V30 6016 C 603.532 0.822385 1.40502 0
M  V30 6017 O 604.721 1.10083 1.40514 0
M  V30 6018 C 601.821 2.16651 2.60607 0
M  V30 6019 C 600.994 3.47878 2.6514 0
M  V30 6020 C 600.053 3.60429 3.83377 0
M  V30 6021 O 599.079 4.33051 3.69398 0
M  V30 6022 N 600.281 2.95241 4.99813 0
M  V30 6023 H 603.046 2.84931 0.929205 0
M  V30 6024 H 600.607 1.5781 0.361588 0
M  V30 6025 H 602.599 2.22312 3.38171 0
M  V30 6026 H 601.169 1.3104 2.83809 0
M  V30 6027 H 600.389 3.53879 1.73675 0
M  V30 6028 H 601.677 4.34232 2.6518 0
M  V30 6029 H 601.075 2.3611 5.14071 0
M  V30 6030 H 599.632 3.06499 5.75241 0
M  V30 6031 N 603.065 -0.440357 1.51323 0
M  V30 6032 C 604.028 -1.51679 1.71832 0
M  V30 6033 C 605.028 -1.49648 0.588386 0
M  V30 6034 O 606.218 -1.51724 0.855891 0
M  V30 6035 C 603.35 -2.91228 1.77199 0
M  V30 6036 H 604.543 -1.34799 2.67898 0
M  V30 6037 H 602.096 -0.66883 1.41267 0
M  V30 6038 H 602.831 -3.13516 0.829363 0
M  V30 6039 H 602.616 -2.94107 2.59314 0
M  V30 6040 H 604.106 -3.69321 1.94915 0
M  V30 6041 N 604.543 -1.41418 -0.695603 0
M  V30 6042 C 605.506 -1.42988 -1.79129 0
M  V30 6043 C 606.506 -0.320514 -1.57573 0
M  V30 6044 O 607.696 -0.58039 -1.64247 0
M  V30 6045 C 604.828 -1.24122 -3.175 0
M  V30 6046 H 606.021 -2.40526 -1.7913 0
M  V30 6047 H 603.574 -1.2756 -0.903225 0
M  V30 6048 H 604.309 -0.274253 -3.23138 0
M  V30 6049 H 604.094 -2.045 -3.34547 0
M  V30 6050 H 605.584 -1.28056 -3.97481 0
M  V30 6051 N 606.021 0.929856 -1.27246 0
M  V30 6052 C 606.968 2.03017 -1.09785 0
M  V30 6053 C 607.938 1.661 0.000456744 0
M  V30 6054 O 609.123 1.90116 -0.161462 0
M  V30 6055 C 606.263 3.36878 -0.748816 0
M  V30 6056 C 605.376 3.86763 -1.92453 0
M  V30 6057 C 604.511 5.09061 -1.51758 0
M  V30 6058 C 603.55 5.51237 -2.66091 0
M  V30 6059 N 602.687 6.64732 -2.25999 0
M  V30 6060 H 607.527 2.17285 -2.03939 0
M  V30 6061 H 605.064 1.06448 -1.01524 0
M  V30 6062 H 607.022 4.13855 -0.527283 0
M  V30 6063 H 605.652 3.22424 0.155771 0
M  V30 6064 H 604.704 3.06086 -2.25867 0
M  V30 6065 H 606.016 4.13994 -2.78227 0
M  V30 6066 H 605.17 5.93532 -1.25716 0
M  V30 6067 H 603.909 4.83602 -0.630896 0
M  V30 6068 H 602.914 4.65316 -2.92849 0
M  V30 6069 H 604.139 5.78692 -3.55377 0
M  V30 6070 H 602.085 6.40935 -1.3978 0
M  V30 6071 H 602.002 6.91607 -3.05313 0
M  V30 6072 H 603.27 7.52549 -2.03199 0
M  V30 6073 N 607.499 1.09233 1.13605 0
M  V30 6074 C 608.727 0.848908 1.88683 0
M  V30 6075 C 609.142 -0.599667 1.79024 0
M  V30 6076 O 608.499 -1.41265 1.15544 0
M  V30 6077 C 608.55 1.27273 3.38355 0
M  V30 6078 O 608.271 2.66449 3.47759 0
M  V30 6079 C 609.772 1.0614 4.30406 0
M  V30 6080 H 606.992 0.305549 0.597395 0
M  V30 6081 H 609.536 1.4538 1.43823 0
M  V30 6082 H 607.691 0.711776 3.80805 0
M  V30 6083 H 608.105 2.84264 4.40788 0
M  V30 6084 H 609.579 1.40725 5.33761 0
M  V30 6085 H 610.056 -0.000960332 4.392 0
M  V30 6086 H 610.662 1.60821 3.93722 0
M  V30 6087 N 608.977 -1.30795 0.87923 0
M  V30 6088 C 609.94 -2.26563 0.346676 0
M  V30 6089 C 610.94 -1.52578 -0.507597 0
M  V30 6090 O 612.13 -1.71318 -0.315575 0
M  V30 6091 C 609.262 -3.37115 -0.506611 0
M  V30 6092 H 610.455 -2.75183 1.19223 0
M  V30 6093 H 608.008 -1.41886 0.655598 0
M  V30 6094 H 608.743 -2.93802 -1.37299 0
M  V30 6095 H 608.528 -3.91959 0.105218 0
M  V30 6096 H 610.018 -4.08412 -0.871192 0
M  V30 6097 N 610.455 -0.639598 -1.44038 0
M  V30 6098 C 611.388 0.109736 -2.27936 0
M  V30 6099 C 612.366 0.843095 -1.39035 0
M  V30 6100 O 613.55 0.845456 -1.68476 0
M  V30 6101 C 610.677 1.16173 -3.18153 0
M  V30 6102 C 609.723 0.527954 -4.2322 0
M  V30 6103 S 610.556 -0.688318 -5.31058 0
M  V30 6104 C 611.712 0.363481 -6.24844 0
M  V30 6105 H 611.945 -0.601986 -2.91142 0
M  V30 6106 H 609.478 -0.42802 -1.48349 0
M  V30 6107 H 611.436 1.76372 -3.7068 0
M  V30 6108 H 610.097 1.84569 -2.54151 0
M  V30 6109 H 609.29 1.32054 -4.86393 0
M  V30 6110 H 608.892 0.000396444 -3.74 0
M  V30 6111 H 611.184 1.23362 -6.66174 0
M  V30 6112 H 612.127 -0.23288 -7.07717 0
M  V30 6113 H 612.535 0.693179 -5.60228 0
M  V30 6114 N 611.933 1.52934 -0.380664 0
M  V30 6115 C 613.173 2.03378 0.204161 0
M  V30 6116 C 613.537 1.26132 1.44758 0
M  V30 6117 O 614.738 1.66657 2.109 0
M  V30 6118 C 613.009 3.54241 0.474118 0
M  V30 6119 S 614.568 4.26529 1.03046 0
M  V30 6120 H 611.386 0.708608 0.0582719 0
M  V30 6121 H 613.988 1.88263 -0.527017 0
M  V30 6122 H 612.692 4.08055 -0.438088 0
M  V30 6123 H 612.223 3.73547 1.23396 0
M  V30 6124 H 614.238 4.38964 2.31354 0
M  V30 6125 N 613.412 0.11024 1.57214 0
M  V30 6126 C 614.637 -0.561179 1.99664 0
M  V30 6127 C 615.062 -1.59985 0.989266 0
M  V30 6128 O 614.42 -1.81255 -0.0402399 0
M  V30 6129 C 614.468 -1.17189 3.41027 0
M  V30 6130 O 613.572 -2.28755 3.4314 0
M  V30 6131 H 612.913 -0.14101 0.648855 0
M  V30 6132 H 615.443 0.196128 2.03658 0
M  V30 6133 H 615.453 -1.50954 3.79047 0
M  V30 6134 H 614.128 -0.411041 4.13864 0
M  V30 6135 H 612.705 -1.96495 3.16929 0
M  V30 6136 N 614.89 -1.56749 -0.16351 0
M  V30 6137 C 615.838 -1.97939 -1.22159 0
M  V30 6138 C 616.832 -0.869288 -1.45395 0
M  V30 6139 O 618.038 -1.05443 -1.45883 0
M  V30 6140 H 614.413 -0.629869 -0.410815 0
M  V30 6141 H 616.384 -2.86115 -0.847381 0
M  V30 6142 C 615.133 -2.36206 -2.55151 0
M  V30 6143 H 614.456 -3.2117 -2.38097 0
M  V30 6144 H 615.896 -2.68863 -3.27854 0
M  V30 6145 C 614.355 -1.20841 -3.14482 0
M  V30 6146 O 614.885 -0.500258 -3.98573 0
M  V30 6147 N 613.091 -0.976943 -2.73686 0
M  V30 6148 H 612.638 -1.55457 -2.05404 0
M  V30 6149 H 612.596 -0.206912 -3.13718 0
M  V30 6150 N 616.368 0.432326 -1.51554 0
M  V30 6151 C 617.298 1.53242 -1.76179 0
M  V30 6152 C 618.279 1.58717 -0.611801 0
M  V30 6153 O 619.464 1.74364 -0.855033 0
M  V30 6154 C 616.594 2.91278 -1.89141 0
M  V30 6155 C 615.548 3.00663 -3.04608 0
M  V30 6156 C 614.874 4.40728 -3.02759 0
M  V30 6157 C 616.174 2.74281 -4.44485 0
M  V30 6158 H 617.868 1.32886 -2.68294 0
M  V30 6159 H 615.414 0.637841 -1.29103 0
M  V30 6160 H 617.367 3.68203 -2.04951 0
M  V30 6161 H 616.091 3.12877 -0.936785 0
M  V30 6162 H 614.75 2.26179 -2.88511 0
M  V30 6163 H 614.398 4.59301 -2.05065 0
M  V30 6164 H 614.098 4.47936 -3.80299 0
M  V30 6165 H 615.622 5.19619 -3.20669 0
M  V30 6166 H 617.036 3.40936 -4.60907 0
M  V30 6167 H 615.433 2.92893 -5.23769 0
M  V30 6168 H 616.503 1.69856 -4.54177 0
M  V30 6169 N 617.846 1.41785 0.688094 0
M  V30 6170 C 618.778 1.40159 1.81351 0
M  V30 6171 C 619.791 0.30262 1.59963 0
M  V30 6172 O 620.98 0.564841 1.69327 0
M  V30 6173 C 618.08 1.16517 3.1824 0
M  V30 6174 C 617.253 2.38597 3.66593 0
M  V30 6175 C 616.312 2.10699 4.82174 0
M  V30 6176 O 615.338 2.83798 4.93404 0
M  V30 6177 N 616.54 1.10187 5.69947 0
M  V30 6178 H 619.305 2.3716 1.83236 0
M  V30 6179 H 616.866 1.36494 0.870697 0
M  V30 6180 H 618.858 0.957941 3.93199 0
M  V30 6181 H 617.428 0.280873 3.11336 0
M  V30 6182 H 616.648 2.74974 2.82459 0
M  V30 6183 H 617.936 3.19919 3.95638 0
M  V30 6184 H 617.334 0.497016 5.63512 0
M  V30 6185 H 615.891 0.954518 6.44773 0
M  V30 6186 N 619.324 -0.923095 1.27737 0
M  V30 6187 C 620.254 -2.04124 1.13383 0
M  V30 6188 C 621.235 -1.70066 0.0340658 0
M  V30 6189 O 622.42 -1.93068 0.209383 0
M  V30 6190 C 619.55 -3.3831 0.785097 0
M  V30 6191 C 618.504 -3.86496 1.8386 0
M  V30 6192 C 617.83 -5.1754 1.34373 0
M  V30 6193 C 619.13 -4.09381 3.24353 0
M  V30 6194 H 620.824 -2.1639 2.06919 0
M  V30 6195 H 618.37 -1.03976 0.996243 0
M  V30 6196 H 620.323 -4.16016 0.671485 0
M  V30 6197 H 619.047 -3.2607 -0.185969 0
M  V30 6198 H 617.706 -3.10987 1.9412 0
M  V30 6199 H 617.354 -5.01696 0.361989 0
M  V30 6200 H 617.054 -5.50751 2.04811 0
M  V30 6201 H 618.578 -5.97811 1.24315 0
M  V30 6202 H 619.992 -4.77641 3.17067 0
M  V30 6203 H 618.389 -4.53906 3.92542 0
M  V30 6204 H 619.459 -3.14515 3.69064 0
M  V30 6205 N 620.802 -1.09834 -1.13024 0
M  V30 6206 C 621.765 -0.745058 -2.16752 0
M  V30 6207 C 622.765 0.227435 -1.59183 0
M  V30 6208 O 623.955 0.0050786 -1.74199 0
M  V30 6209 C 621.087 -0.102543 -3.40746 0
M  V30 6210 H 622.28 -1.66375 -2.49518 0
M  V30 6211 H 619.833 -0.898061 -1.27924 0
M  V30 6212 H 620.568 0.827177 -3.13573 0
M  V30 6213 H 620.353 -0.80235 -3.83803 0
M  V30 6214 H 621.843 0.129082 -4.174 0
M  V30 6215 N 622.28 1.30327 -0.886154 0
M  V30 6216 C 623.508 2.00254 -0.520176 0
M  V30 6217 C 623.923 1.66419 0.891637 0
M  V30 6218 O 623.28 0.901951 1.58654 0
M  V30 6219 C 623.331 3.54916 -0.686775 0
M  V30 6220 O 623.052 3.87547 -2.04301 0
M  V30 6221 C 624.553 4.42115 -0.323945 0
M  V30 6222 H 621.773 0.640204 -0.200947 0
M  V30 6223 H 624.317 1.66183 -1.19178 0
M  V30 6224 H 622.472 3.8735 -0.0625273 0
M  V30 6225 H 622.886 4.82247 -2.06249 0
M  V30 6226 H 624.36 5.49808 -0.491407 0
M  V30 6227 H 624.837 4.32953 0.73811 0
M  V30 6228 H 625.443 4.15129 -0.924565 0
M  V30 6229 N 623.758 0.647228 1.43697 0
M  V30 6230 C 625.005 0.158188 2.01881 0
M  V30 6231 C 625.333 -1.22573 1.51017 0
M  V30 6232 O 624.588 -1.83086 0.69122 0
M  V30 6233 C 624.887 0.111481 3.57226 0
M  V30 6234 C 624.553 1.43633 4.27411 0
M  V30 6235 C 623.215 1.79915 4.463 0
M  V30 6236 C 625.567 2.31011 4.67208 0
M  V30 6237 C 622.895 3.03251 5.02251 0
M  V30 6238 C 625.247 3.53633 5.24525 0
M  V30 6239 C 623.911 3.90118 5.41631 0
M  V30 6240 H 623.181 0.0578851 0.738736 0
M  V30 6241 H 625.828 0.836746 1.72252 0
M  V30 6242 H 624.133 -0.650507 3.86362 0
M  V30 6243 H 625.83 -0.283682 3.99995 0
M  V30 6244 H 622.42 1.14403 4.1305 0
M  V30 6245 H 626.604 2.04272 4.52313 0
M  V30 6246 H 621.86 3.31575 5.13681 0
M  V30 6247 H 626.034 4.21561 5.5431 0
M  V30 6248 H 623.661 4.85768 5.84751 0
M  V30 6249 N 625.236 -1.5273 0.388769 0
M  V30 6250 C 626.652 -1.59553 0.0387049 0
M  V30 6251 C 626.852 -1.40278 -1.44652 0
M  V30 6252 O 625.908 -1.21951 -2.21098 0
M  V30 6253 C 627.221 -2.9625 0.515409 0
M  V30 6254 C 628.769 -3.09426 0.471621 0
M  V30 6255 C 629.244 -4.48572 0.924505 0
M  V30 6256 N 630.735 -4.54754 0.880496 0
M  V30 6257 C 631.47 -5.60653 1.20234 0
M  V30 6258 N 630.966 -6.74198 1.59463 0
M  V30 6259 N 632.759 -5.50755 1.12363 0
M  V30 6260 H 624.91 -1.63508 1.35569 0
M  V30 6261 H 627.173 -0.768097 0.555636 0
M  V30 6262 H 626.879 -3.15569 1.5527 0
M  V30 6263 H 626.753 -3.77102 -0.085792 0
M  V30 6264 H 629.14 -2.89804 -0.556588 0
M  V30 6265 H 629.221 -2.30528 1.10862 0
M  V30 6266 H 628.865 -4.68936 1.95094 0
M  V30 6267 H 628.795 -5.25935 0.264524 0
M  V30 6268 H 631.286 -3.73237 0.591815 0
M  V30 6269 H 631.599 -7.5097 1.82385 0
M  V30 6270 H 629.944 -6.75531 1.63349 0
M  V30 6271 H 633.135 -4.6093 0.816169 0
M  V30 6272 H 633.308 -6.33184 1.37777 0
M  V30 6273 N 626.714 -0.118576 -1.57153 0
M  V30 6274 C 627.939 0.550582 -1.99958 0
M  V30 6275 C 628.364 1.59458 -0.997736 0
M  V30 6276 O 627.722 1.81274 0.0306269 0
M  V30 6277 C 627.77 1.15379 -3.41643 0
M  V30 6278 O 626.874 2.26932 -3.44348 0
M  V30 6279 H 626.215 0.137567 -0.649593 0
M  V30 6280 H 628.745 -0.206926 -2.03551 0
M  V30 6281 H 628.755 1.48942 -3.79843 0
M  V30 6282 H 627.43 0.389087 -4.14076 0
M  V30 6283 H 626.007 1.94812 -3.17967 0
M  V30 6284 N 628.193 1.56834 0.155195 0
M  V30 6285 C 629.418 1.87412 0.888337 0
M  V30 6286 C 629.843 0.70671 1.74319 0
M  V30 6287 O 629.201 -0.343892 1.78009 0
M  V30 6288 C 629.249 3.1652 1.72765 0
M  V30 6289 O 628.353 2.99877 2.83103 0
M  V30 6290 H 627.694 0.615983 0.247914 0
M  V30 6291 H 630.224 2.04061 0.148478 0
M  V30 6292 H 630.234 3.48334 2.12433 0
M  V30 6293 H 628.909 4.01094 1.09985 0
M  V30 6294 H 627.486 2.79453 2.46902 0
M  V30 6295 N 629.671 -0.424282 1.51781 0
M  V30 6296 C 631.082 -1.00368 1.57427 0
M  V30 6297 C 631.433 -1.91962 0.40558 0
M  V30 6298 O 630.558 -2.111 -0.47601 0
M  V30 6299 C 631.153 -1.82707 2.85313 0
M  V30 6300 C 629.712 -2.35675 2.93487 0
M  V30 6301 C 628.859 -1.1524 2.5222 0
M  V30 6302 H 631.81 -0.205064 1.5737 0
M  V30 6303 H 631.831 -2.68294 2.69812 0
M  V30 6304 H 631.343 -1.16017 3.70353 0
M  V30 6305 H 629.444 -3.05781 2.12906 0
M  V30 6306 H 629.557 -2.67578 3.97415 0
M  V30 6307 H 627.921 -1.50174 2.05718 0
M  V30 6308 H 628.704 -0.5014 3.39619 0
M  V30 6309 N 631.149 -1.42148 -0.680565 0
M  V30 6310 C 632.097 -1.45401 -1.81552 0
M  V30 6311 C 633.091 -0.33036 -1.66147 0
M  V30 6312 O 634.297 -0.503103 -1.72826 0
M  V30 6313 H 630.672 -0.455265 -0.59853 0
M  V30 6314 H 632.643 -2.41024 -1.75926 0
M  V30 6315 C 631.392 -1.36769 -3.19671 0
M  V30 6316 H 630.715 -2.22525 -3.32149 0
M  V30 6317 H 632.155 -1.43106 -3.9912 0
M  V30 6318 C 630.614 -0.0817752 -3.36801 0
M  V30 6319 O 631.144 0.867707 -3.92216 0
M  V30 6320 N 629.35 -0.000799811 -2.906 0
M  V30 6321 H 628.897 -0.774231 -2.4569 0
M  V30 6322 H 628.855 0.858961 -3.02439 0
M  V30 6323 N 632.627 0.916307 -1.28225 0
M  V30 6324 C 633.875 1.6619 -1.15002 0
M  V30 6325 C 634.196 1.92642 0.302329 0
M  V30 6326 O 633.466 1.54076 1.20985 0
M  V30 6327 H 632.046 0.615964 -0.422608 0
M  V30 6328 H 634.708 1.09963 -1.60917 0
M  V30 6329 H 633.804 2.62533 -1.68769 0
M  V30 6330 N 634.105 1.10431 1.1244 0
M  V30 6331 C 635.052 0.753103 2.18167 0
M  V30 6332 C 636.022 -0.270549 1.63882 0
M  V30 6333 O 637.207 -0.149837 1.90211 0
M  V30 6334 C 634.347 0.191046 3.44571 0
M  V30 6335 C 633.46 1.26999 4.12911 0
M  V30 6336 C 632.595 0.669586 5.26963 0
M  V30 6337 C 631.634 1.72912 5.87169 0
M  V30 6338 N 630.771 1.14898 6.92635 0
M  V30 6339 H 635.611 1.65892 2.47556 0
M  V30 6340 H 633.148 0.828631 1.21541 0
M  V30 6341 H 635.106 -0.152712 4.1692 0
M  V30 6342 H 633.736 -0.677997 3.15599 0
M  V30 6343 H 632.788 1.73087 3.3874 0
M  V30 6344 H 634.1 2.07204 4.53727 0
M  V30 6345 H 633.254 0.275274 6.06075 0
M  V30 6346 H 631.993 -0.163895 4.87425 0
M  V30 6347 H 630.998 2.13286 5.06744 0
M  V30 6348 H 632.223 2.56544 6.28778 0
M  V30 6349 H 630.169 0.336956 6.55134 0
M  V30 6350 H 630.086 1.88786 7.32049 0
M  V30 6351 H 631.354 0.78121 7.75576 0
M  V30 6352 N 635.583 -1.29855 0.893053 0
M  V30 6353 C 636.829 -1.96488 0.52574 0
M  V30 6354 C 637.184 -1.69164 -0.916594 0
M  V30 6355 O 636.477 -0.990405 -1.64017 0
M  V30 6356 C 636.671 -3.49515 0.746588 0
M  V30 6357 C 636.5 -3.91715 2.20884 0
M  V30 6358 C 635.27 -4.16915 2.85499 0
M  V30 6359 C 637.468 -4.03934 3.18342 0
M  V30 6360 N 635.45 -4.45634 4.22236 0
M  V30 6361 C 636.821 -4.36629 4.40176 0
M  V30 6362 C 638.876 -3.86387 3.14021 0
M  V30 6363 C 637.579 -4.53605 5.58243 0
M  V30 6364 C 639.605 -4.04569 4.31367 0
M  V30 6365 C 638.967 -4.37617 5.5197 0
M  V30 6366 H 635.066 -0.743657 0.241863 0
M  V30 6367 H 637.65 -1.56927 1.15248 0
M  V30 6368 H 635.821 -3.88113 0.149281 0
M  V30 6369 H 637.553 -4.03224 0.345372 0
M  V30 6370 H 634.308 -4.10423 2.36326 0
M  V30 6371 H 634.732 -4.64114 4.92876 0
M  V30 6372 H 639.374 -3.59906 2.21873 0
M  V30 6373 H 637.092 -4.78925 6.50889 0
M  V30 6374 H 640.678 -3.92452 4.29503 0
M  V30 6375 H 639.558 -4.51395 6.41258 0
M  V30 6376 N 637.061 -0.65484 -1.43351 0
M  V30 6377 C 638.024 0.0263562 -2.29185 0
M  V30 6378 C 639.024 0.748951 -1.42293 0
M  V30 6379 O 640.214 0.589957 -1.63906 0
M  V30 6380 C 637.346 1.04806 -3.2439 0
M  V30 6381 H 638.539 -0.728883 -2.90908 0
M  V30 6382 H 636.092 -0.416149 -1.50658 0
M  V30 6383 H 636.827 1.83247 -2.67565 0
M  V30 6384 H 636.612 0.533554 -3.88453 0
M  V30 6385 H 638.102 1.52372 -3.88809 0
M  V30 6386 N 638.539 1.52521 -0.396863 0
M  V30 6387 C 639.816 1.94112 0.240842 0
M  V30 6388 C 640.196 1.33288 1.637 0
M  V30 6389 O 639.544 0.503901 2.22875 0
M  V30 6390 C 639.754 3.48033 0.259567 0
M  V30 6391 C 641.102 4.21822 0.484866 0
M  V30 6392 O 642.126 3.54579 0.339453 0
M  V30 6393 O 640.985 5.41042 0.770412 0
M  V30 6394 H 638.079 0.812973 0.151671 0
M  V30 6395 H 640.625 1.63572 -0.451918 0
M  V30 6396 H 639.397 3.84655 -0.718078 0
M  V30 6397 H 639.02 3.84899 0.996937 0
M  V30 6398 N 640.017 0.126909 1.57088 0
M  V30 6399 C 641.265 -0.528123 1.95078 0
M  V30 6400 C 641.586 -1.66708 1.0116 0
M  V30 6401 O 640.856 -1.95777 0.0693527 0
M  V30 6402 H 639.436 -0.198087 0.720257 0
M  V30 6403 H 642.098 0.197703 1.93895 0
M  V30 6404 H 641.194 -0.917507 2.98309 0
M  V30 6405 N 641.495 -1.56914 -0.146875 0
M  V30 6406 C 642.445 -1.94693 -1.18653 0
M  V30 6407 C 643.429 -0.81821 -1.38543 0
M  V30 6408 O 644.621 -1.08167 -1.40103 0
M  V30 6409 C 641.75 -2.33117 -2.52014 0
M  V30 6410 C 640.836 -3.5256 -2.35717 0
M  V30 6411 N 641.227 -4.69091 -1.89175 0
M  V30 6412 C 639.525 -3.57647 -2.66467 0
M  V30 6413 C 640.226 -5.51187 -1.85924 0
M  V30 6414 N 639.202 -4.92899 -2.29242 0
M  V30 6415 H 643.004 -2.82264 -0.81879 0
M  V30 6416 H 640.518 -1.58474 -0.354929 0
M  V30 6417 H 642.515 -2.58387 -3.27172 0
M  V30 6418 H 641.175 -1.46898 -2.89571 0
M  V30 6419 H 642.186 -4.92844 -1.59139 0
M  V30 6420 H 638.863 -2.81967 -3.07898 0
M  V30 6421 H 640.253 -6.54613 -1.51431 0
M  V30 6422 N 642.974 0.416227 -1.52004 0
M  V30 6423 C 644.385 0.995319 -1.57957 0
M  V30 6424 C 644.736 1.91744 -0.415754 0
M  V30 6425 O 643.861 2.11349 0.464808 0
M  V30 6426 C 644.456 1.81191 -2.86278 0
M  V30 6427 C 643.015 2.34115 -2.94732 0
M  V30 6428 C 642.162 1.139 -2.52828 0
M  V30 6429 H 645.113 0.196716 -1.57476 0
M  V30 6430 H 645.134 2.66859 -2.71231 0
M  V30 6431 H 644.646 1.14051 -3.70963 0
M  V30 6432 H 642.747 3.04647 -2.14525 0
M  V30 6433 H 642.86 2.65466 -3.98829 0
M  V30 6434 H 641.224 1.49081 -2.06511 0
M  V30 6435 H 642.007 0.483383 -3.3988 0
M  V30 6436 N 644.452 1.42507 0.673017 0
M  V30 6437 C 645.682 1.46261 1.45916 0
M  V30 6438 C 646.09 0.0729724 1.89059 0
M  V30 6439 O 645.433 -0.922987 1.58829 0
M  V30 6440 C 645.495 2.32853 2.73898 0
M  V30 6441 C 645.159 3.80699 2.52819 0
M  V30 6442 C 646.156 4.72307 2.17306 0
M  V30 6443 C 643.841 4.24983 2.67758 0
M  V30 6444 C 645.835 6.06192 1.97003 0
M  V30 6445 C 643.522 5.58927 2.4707 0
M  V30 6446 C 644.52 6.49348 2.11746 0
M  V30 6447 O 644.208 7.80817 1.91259 0
M  V30 6448 H 643.94 0.499561 0.455428 0
M  V30 6449 H 646.494 1.87697 0.834196 0
M  V30 6450 H 644.724 1.86268 3.38882 0
M  V30 6451 H 646.413 2.28041 3.35786 0
M  V30 6452 H 647.179 4.39378 2.05359 0
M  V30 6453 H 643.058 3.54893 2.94231 0
M  V30 6454 H 646.602 6.76731 1.69355 0
M  V30 6455 H 642.499 5.91429 2.58615 0
M  V30 6456 H 643.267 7.92194 2.05843 0
M  V30 6457 N 645.93 -0.909495 1.28709 0
M  V30 6458 C 646.893 -1.99399 1.13016 0
M  V30 6459 C 647.893 -1.60654 0.068536 0
M  V30 6460 O 649.083 -1.71334 0.314671 0
M  V30 6461 C 646.215 -3.33078 0.726085 0
M  V30 6462 H 647.408 -2.14751 2.09338 0
M  V30 6463 H 644.961 -1.09272 1.11756 0
M  V30 6464 H 645.696 -3.23428 -0.23771 0
M  V30 6465 H 645.481 -3.62562 1.49302 0
M  V30 6466 H 646.971 -4.12681 0.639058 0
M  V30 6467 N 647.408 -1.11026 -1.11852 0
M  V30 6468 C 648.34 -0.72249 -2.17515 0
M  V30 6469 C 649.353 0.243782 -1.60964 0
M  V30 6470 O 650.542 0.0273252 -1.78479 0
M  V30 6471 C 647.642 -0.0463979 -3.38868 0
M  V30 6472 C 646.815 -1.0384 -4.24895 0
M  V30 6473 C 645.874 -0.392659 -5.24733 0
M  V30 6474 O 644.9 -1.0453 -5.5952 0
M  V30 6475 N 646.102 0.846296 -5.74298 0
M  V30 6476 H 648.867 -1.63161 -2.51393 0
M  V30 6477 H 646.428 -0.999899 -1.27333 0
M  V30 6478 H 648.42 0.397215 -4.02746 0
M  V30 6479 H 646.99 0.765231 -3.03089 0
M  V30 6480 H 646.21 -1.6601 -3.57539 0
M  V30 6481 H 647.498 -1.70968 -4.79215 0
M  V30 6482 H 646.896 1.39578 -5.4821 0
M  V30 6483 H 645.453 1.23296 -6.40032 0
M  V30 6484 N 648.886 1.2938 -0.899927 0
M  V30 6485 C 649.836 2.25311 -0.349165 0
M  V30 6486 C 650.82 1.51889 0.530892 0
M  V30 6487 O 652.012 1.73028 0.372872 0
M  V30 6488 C 649.141 3.40696 0.422055 0
M  V30 6489 C 648.227 4.21455 -0.472935 0
M  V30 6490 N 648.618 4.8048 -1.58026 0
M  V30 6491 C 646.916 4.45177 -0.270767 0
M  V30 6492 C 647.617 5.41117 -2.13465 0
M  V30 6493 N 646.593 5.24518 -1.42766 0
M  V30 6494 H 650.395 2.68507 -1.19505 0
M  V30 6495 H 647.909 1.43992 -0.751006 0
M  V30 6496 H 649.906 4.08486 0.833369 0
M  V30 6497 H 648.566 2.99037 1.2652 0
M  V30 6498 H 649.577 4.79257 -1.96299 0
M  V30 6499 H 646.254 4.14071 0.533988 0
M  V30 6500 H 647.644 5.979 -3.06537 0
M  V30 6501 N 650.364 0.662433 1.43002 0
M  V30 6502 C 651.314 -0.0460442 2.27954 0
M  V30 6503 C 652.298 -0.785753 1.40409 0
M  V30 6504 O 653.49 -0.666701 1.63964 0
M  V30 6505 C 650.619 -1.00532 3.2825 0
M  V30 6506 C 649.705 -0.263604 4.2328 0
M  V30 6507 N 650.096 0.724855 5.00579 0
M  V30 6508 C 648.394 -0.503778 4.43146 0
M  V30 6509 C 649.095 1.16594 5.69895 0
M  V30 6510 N 648.071 0.498345 5.41311 0
M  V30 6511 H 651.873 0.712314 2.85137 0
M  V30 6512 H 649.387 0.490469 1.54817 0
M  V30 6513 H 651.384 -1.52775 3.87899 0
M  V30 6514 H 650.044 -1.76364 2.72628 0
M  V30 6515 H 651.055 1.10393 5.05998 0
M  V30 6516 H 647.732 -1.24255 3.98581 0
M  V30 6517 H 649.122 1.98434 6.4193 0
M  V30 6518 N 651.842 -1.52309 0.404946 0
M  V30 6519 C 652.789 -2.26898 -0.422597 0
M  V30 6520 C 653.759 -1.2914 -1.04461 0
M  V30 6521 O 654.944 -1.57996 -1.06967 0
M  V30 6522 C 652.084 -3.09053 -1.53559 0
M  V30 6523 C 651.197 -4.21762 -0.934908 0
M  V30 6524 C 650.332 -4.91283 -2.02025 0
M  V30 6525 C 649.371 -5.95962 -1.39628 0
M  V30 6526 N 648.508 -6.59017 -2.42159 0
M  V30 6527 H 653.348 -2.97188 0.219903 0
M  V30 6528 H 650.885 -1.46607 0.120282 0
M  V30 6529 H 652.843 -3.54987 -2.19181 0
M  V30 6530 H 651.473 -2.40942 -2.14818 0
M  V30 6531 H 650.525 -3.80029 -0.167854 0
M  V30 6532 H 651.837 -4.96864 -0.439073 0
M  V30 6533 H 650.991 -5.40601 -2.75383 0
M  V30 6534 H 649.73 -4.15741 -2.54973 0
M  V30 6535 H 648.735 -5.45968 -0.648023 0
M  V30 6536 H 649.96 -6.73445 -0.874553 0
M  V30 6537 H 647.906 -5.86306 -2.94247 0
M  V30 6538 H 647.823 -7.2978 -1.97376 0
M  V30 6539 H 649.091 -7.12974 -3.15099 0
M  V30 6540 N 653.32 -0.135238 -1.57019 0
M  V30 6541 C 654.25 0.805235 -2.19176 0
M  V30 6542 C 655.231 1.2656 -1.13651 0
M  V30 6543 O 656.416 1.32528 -1.4195 0
M  V30 6544 C 653.546 2.04914 -2.80406 0
M  V30 6545 C 652.5 1.72598 -3.91655 0
M  V30 6546 C 651.826 3.04154 -4.39766 0
M  V30 6547 C 653.126 0.981709 -5.12991 0
M  V30 6548 H 654.82 0.287232 -2.98019 0
M  V30 6549 H 652.366 0.136714 -1.4335 0
M  V30 6550 H 654.319 2.71178 -3.22553 0
M  V30 6551 H 653.043 2.59067 -1.98877 0
M  V30 6552 H 651.702 1.08717 -3.50109 0
M  V30 6553 H 651.35 3.56274 -3.55075 0
M  V30 6554 H 651.05 2.83299 -5.14796 0
M  V30 6555 H 652.574 3.71509 -4.84576 0
M  V30 6556 H 653.988 1.5462 -5.52056 0
M  V30 6557 H 652.385 0.873533 -5.93708 0
M  V30 6558 H 653.455 -0.0286887 -4.84892 0
M  V30 6559 N 654.798 1.5699 0.138552 0
M  V30 6560 C 656.044 1.84081 0.85099 0
M  V30 6561 C 656.377 0.718107 1.80435 0
M  V30 6562 O 655.652 -0.277633 1.92508 0
M  V30 6563 C 655.935 3.21699 1.61808 0
M  V30 6564 C 655.788 4.44544 0.685633 0
M  V30 6565 C 657.107 3.5664 2.57868 0
M  V30 6566 H 654.226 0.669592 0.307922 0
M  V30 6567 H 656.868 1.89646 0.11588 0
M  V30 6568 H 655.018 3.17086 2.24474 0
M  V30 6569 H 656.69 4.61248 0.0693179 0
M  V30 6570 H 654.933 4.338 -0.00421993 0
M  V30 6571 H 655.604 5.3746 1.25858 0
M  V30 6572 H 658.08 3.61918 2.05316 0
M  V30 6573 H 656.956 4.53946 3.08584 0
M  V30 6574 H 657.217 2.83036 3.39622 0
M  V30 6575 N 656.276 -0.40816 1.52223 0
M  V30 6576 C 657.501 -1.18127 1.70472 0
M  V30 6577 C 657.926 -1.83491 0.41384 0
M  V30 6578 O 657.284 -1.70047 -0.628778 0
M  V30 6579 C 657.332 -2.21935 2.84213 0
M  V30 6580 O 656.436 -3.28099 2.4985 0
M  V30 6581 H 655.777 -0.344781 0.56747 0
M  V30 6582 H 658.307 -0.478328 1.9893 0
M  V30 6583 H 658.317 -2.66248 3.09153 0
M  V30 6584 H 656.992 -1.73744 3.7787 0
M  V30 6585 H 655.569 -2.89058 2.35584 0
M  V30 6586 N 657.755 -1.42862 -0.66545 0
M  V30 6587 C 659.001 -1.44043 -1.42757 0
M  V30 6588 C 659.334 -0.0599629 -1.94107 0
M  V30 6589 O 658.609 0.917286 -1.71511 0
M  V30 6590 C 658.892 -2.47266 -2.61786 0
M  V30 6591 C 658.745 -3.94539 -2.16007 0
M  V30 6592 C 660.064 -2.47365 -3.64003 0
M  V30 6593 H 657.183 -0.524506 -0.517748 0
M  V30 6594 H 659.825 -1.74335 -0.755466 0
M  V30 6595 H 657.975 -2.21565 -3.19126 0
M  V30 6596 H 659.647 -4.31254 -1.63762 0
M  V30 6597 H 657.89 -4.07957 -1.47491 0
M  V30 6598 H 658.561 -4.62357 -3.01546 0
M  V30 6599 H 661.037 -2.70243 -3.16399 0
M  V30 6600 H 659.913 -3.21552 -4.44854 0
M  V30 6601 H 660.174 -1.50299 -4.15767 0
M  V30 6602 N 659.233 0.902656 -1.29189 0
M  V30 6603 C 660.51 1.63296 -1.07674 0
M  V30 6604 C 660.89 2.07649 0.380137 0
M  V30 6605 O 660.238 1.82997 1.36837 0
M  V30 6606 C 660.448 2.81603 -2.06158 0
M  V30 6607 C 661.796 3.52359 -2.36914 0
M  V30 6608 O 662.82 2.91767 -2.04329 0
M  V30 6609 O 661.679 4.61586 -2.92576 0
M  V30 6610 H 658.773 0.716889 -0.41231 0
M  V30 6611 H 661.319 0.950984 -1.4055 0
M  V30 6612 H 660.091 2.46004 -3.04299 0
M  V30 6613 H 659.714 3.57508 -1.73993 0
M  V30 6614 N 660.711 1.11618 1.11262 0
M  V30 6615 C 661.936 0.889013 1.8738 0
M  V30 6616 C 662.361 -0.555884 1.79698 0
M  V30 6617 O 661.719 -1.39272 1.16073 0
M  V30 6618 C 661.767 1.35759 3.34069 0
M  V30 6619 O 660.871 0.530499 4.08974 0
M  V30 6620 H 660.212 0.320082 0.581759 0
M  V30 6621 H 662.742 1.48611 1.40627 0
M  V30 6622 H 662.752 1.35291 3.84916 0
M  V30 6623 H 661.427 2.40973 3.38976 0
M  V30 6624 H 660.004 0.601439 3.68018 0
M  V30 6625 N 662.189 -1.289 0.906776 0
M  V30 6626 C 663.414 -1.99939 0.551303 0
M  V30 6627 C 663.839 -1.67366 -0.858496 0
M  V30 6628 O 663.197 -0.902176 -1.57259 0
M  V30 6629 C 663.245 -3.52523 0.758937 0
M  V30 6630 O 662.349 -4.11983 -0.185308 0
M  V30 6631 H 661.69 -0.628376 0.214568 0
M  V30 6632 H 664.22 -1.64225 1.2203 0
M  V30 6633 H 664.23 -4.02522 0.666329 0
M  V30 6634 H 662.905 -3.75566 1.78671 0
M  V30 6635 H 661.482 -3.72873 -0.0445577 0
M  V30 6636 N 663.667 -0.670007 -1.42649 0
M  V30 6637 C 664.895 -0.19854 -2.05945 0
M  V30 6638 C 665.31 1.14243 -1.50313 0
M  V30 6639 O 664.667 1.70872 -0.641027 0
M  V30 6640 C 664.718 -0.11966 -3.61302 0
M  V30 6641 O 664.439 -1.40764 -4.1487 0
M  V30 6642 C 665.94 0.375878 -4.41704 0
M  V30 6643 H 663.16 -0.0976894 -0.663851 0
M  V30 6644 H 665.704 -0.915392 -1.82868 0
M  V30 6645 H 663.859 0.547851 -3.83507 0
M  V30 6646 H 664.273 -1.27784 -5.08696 0
M  V30 6647 H 665.747 0.379988 -5.50691 0
M  V30 6648 H 666.224 1.41028 -4.15942 0
M  V30 6649 H 666.83 -0.259727 -4.24506 0
M  V30 6650 N 665.145 1.52092 -0.413018 0
M  V30 6651 C 666.392 2.01855 0.161497 0
M  V30 6652 C 666.72 1.29845 1.44812 0
M  V30 6653 O 665.975 0.394471 1.91683 0
M  V30 6654 C 666.274 3.54529 0.4521 0
M  V30 6655 C 665.94 4.4469 -0.745788 0
M  V30 6656 C 664.602 4.69053 -1.07435 0
M  V30 6657 C 666.954 4.97742 -1.54604 0
M  V30 6658 C 664.282 5.43717 -2.20429 0
M  V30 6659 C 666.634 5.73642 -2.66678 0
M  V30 6660 C 665.298 5.96277 -3.00016 0
M  V30 6661 H 664.568 0.73864 0.0590961 0
M  V30 6662 H 667.215 1.83274 -0.555234 0
M  V30 6663 H 665.52 3.7131 1.25045 0
M  V30 6664 H 667.217 3.90546 0.909647 0
M  V30 6665 H 663.807 4.25907 -0.479725 0
M  V30 6666 H 667.991 4.78824 -1.30543 0
M  V30 6667 H 663.247 5.59462 -2.46602 0
M  V30 6668 H 667.421 6.13746 -3.29072 0
M  V30 6669 H 665.048 6.53913 -3.87688 0
M  V30 6670 N 666.623 0.143563 1.56945 0
M  V30 6671 C 667.853 -0.514699 2.00086 0
M  V30 6672 C 668.261 -1.59184 1.0226 0
M  V30 6673 O 667.604 -1.83697 0.0110514 0
M  V30 6674 C 667.666 -1.17778 3.39659 0
M  V30 6675 C 667.33 -0.245657 4.56339 0
M  V30 6676 C 668.327 0.525343 5.17239 0
M  V30 6677 C 666.012 -0.149564 5.02077 0
M  V30 6678 C 668.006 1.37992 6.22284 0
M  V30 6679 C 665.693 0.708621 6.06978 0
M  V30 6680 C 666.691 1.47197 6.6695 0
M  V30 6681 O 666.379 2.31586 7.6982 0
M  V30 6682 H 666.111 -0.138789 0.661599 0
M  V30 6683 H 668.665 0.234098 2.04062 0
M  V30 6684 H 666.895 -1.97415 3.32512 0
M  V30 6685 H 668.584 -1.73542 3.6693 0
M  V30 6686 H 669.35 0.461118 4.82803 0
M  V30 6687 H 665.229 -0.733457 4.55128 0
M  V30 6688 H 668.773 1.97621 6.69023 0
M  V30 6689 H 664.67 0.77415 6.40841 0
M  V30 6690 H 665.438 2.24796 7.87025 0
M  V30 6691 N 668.101 -1.57061 -0.130224 0
M  V30 6692 C 669.35 -1.83446 -0.838488 0
M  V30 6693 C 669.663 -0.727468 -1.81569 0
M  V30 6694 O 670.869 -0.877394 -2.56932 0
M  V30 6695 C 669.325 -3.25201 -1.54182 0
M  V30 6696 C 668.933 -4.4388 -0.606178 0
M  V30 6697 C 670.677 -3.60844 -2.23588 0
M  V30 6698 C 668.584 -5.76661 -1.31209 0
M  V30 6699 H 667.514 -0.684185 -0.316871 0
M  V30 6700 H 670.165 -1.83273 -0.0912059 0
M  V30 6701 H 668.547 -3.1981 -2.33533 0
M  V30 6702 H 669.721 -4.60545 0.153308 0
M  V30 6703 H 668.036 -4.16395 -0.0196705 0
M  V30 6704 H 670.633 -4.57313 -2.77072 0
M  V30 6705 H 670.976 -2.87724 -3.00867 0
M  V30 6706 H 671.509 -3.67971 -1.51137 0
M  V30 6707 H 668.248 -6.52922 -0.580823 0
M  V30 6708 H 667.768 -5.63902 -2.04387 0
M  V30 6709 H 669.447 -6.20035 -1.8484 0
M  V30 6710 N 669.579 0.400081 -1.52437 0
M  V30 6711 C 670.827 1.14392 -1.6661 0
M  V30 6712 C 671.148 1.90792 -0.402927 0
M  V30 6713 O 670.418 1.87042 0.582425 0
M  V30 6714 H 668.998 0.425275 -0.614125 0
M  V30 6715 H 671.66 0.455076 -1.89513 0
M  V30 6716 H 670.756 1.85298 -2.51139 0
M  V30 6717 N 671.057 1.43213 0.657864 0
M  V30 6718 C 672.282 1.48227 1.45064 0
M  V30 6719 C 672.707 0.0999939 1.87834 0
M  V30 6720 O 672.065 -0.905269 1.57081 0
M  V30 6721 C 672.113 2.42931 2.6649 0
M  V30 6722 O 671.217 1.91237 3.6538 0
M  V30 6723 H 670.558 0.501551 0.435135 0
M  V30 6724 H 673.088 1.8808 0.805431 0
M  V30 6725 H 673.098 2.6008 3.1436 0
M  V30 6726 H 671.773 3.43348 2.34701 0
M  V30 6727 H 670.35 1.83726 3.24498 0
M  V30 6728 N 672.536 -0.895792 1.29666 0
M  V30 6729 C 673.483 -2.00035 1.15129 0
M  V30 6730 C 674.453 -1.66043 0.0435819 0
M  V30 6731 O 675.638 -1.89621 0.211811 0
M  V30 6732 C 672.778 -3.34774 0.83787 0
M  V30 6733 C 671.891 -3.81525 2.0264 0
M  V30 6734 C 671.026 -5.04858 1.65201 0
M  V30 6735 C 670.065 -5.43988 2.80612 0
M  V30 6736 N 669.202 -6.58507 2.43544 0
M  V30 6737 H 674.042 -2.11802 2.09628 0
M  V30 6738 H 671.579 -1.03719 1.04311 0
M  V30 6739 H 673.537 -4.12311 0.636824 0
M  V30 6740 H 672.167 -3.22724 -0.0702314 0
M  V30 6741 H 671.219 -2.9999 2.33903 0
M  V30 6742 H 672.531 -4.06472 2.89106 0
M  V30 6743 H 671.685 -5.8999 1.41408 0
M  V30 6744 H 670.424 -4.81759 0.758893 0
M  V30 6745 H 669.429 -4.57388 3.05083 0
M  V30 6746 H 670.654 -5.69066 3.70595 0
M  V30 6747 H 668.6 -6.37004 1.56724 0
M  V30 6748 H 668.517 -6.83269 3.23542 0
M  V30 6749 H 669.785 -7.46897 2.2308 0
M  V30 6750 N 674.014 -1.12206 -1.10668 0
M  V30 6751 C 674.962 -0.782918 -2.19028 0
M  V30 6752 C 675.956 0.229175 -1.67843 0
M  V30 6753 O 677.162 0.0876295 -1.79787 0
M  V30 6754 H 673.537 -0.235339 -0.714227 0
M  V30 6755 H 675.508 -1.70527 -2.44874 0
M  V30 6756 C 674.257 -0.25116 -3.46792 0
M  V30 6757 H 673.58 -1.02123 -3.86537 0
M  V30 6758 H 675.02 -0.0521409 -4.23968 0
M  V30 6759 C 673.479 1.02037 -3.21076 0
M  V30 6760 O 674.009 2.09862 -3.42522 0
M  V30 6761 N 672.215 0.946348 -2.74759 0
M  V30 6762 H 671.762 0.068777 -2.57508 0
M  V30 6763 H 671.72 1.79775 -2.57931 0
M  V30 6764 N 675.492 1.28418 -0.913599 0
M  V30 6765 C 676.422 2.29713 -0.418847 0
M  V30 6766 C 677.403 1.62165 0.513469 0
M  V30 6767 O 678.588 1.89576 0.421235 0
M  V30 6768 C 675.718 3.45612 0.342042 0
M  V30 6769 C 674.672 4.25056 -0.501123 0
M  V30 6770 C 673.998 5.3329 0.388097 0
M  V30 6771 C 675.298 4.91814 -1.75831 0
M  V30 6772 H 676.992 2.71346 -1.26538 0
M  V30 6773 H 674.538 1.30446 -0.609903 0
M  V30 6774 H 676.491 4.15562 0.699 0
M  V30 6775 H 675.215 3.02858 1.22248 0
M  V30 6776 H 673.874 3.56833 -0.840598 0
M  V30 6777 H 673.522 4.8678 1.26707 0
M  V30 6778 H 673.222 5.87347 -0.172459 0
M  V30 6779 H 674.746 6.06088 0.74094 0
M  V30 6780 H 676.16 5.54126 -1.47026 0
M  V30 6781 H 674.557 5.55866 -2.26126 0
M  V30 6782 H 675.627 4.16313 -2.4862 0
M  V30 6783 N 676.97 0.677563 1.42291 0
M  V30 6784 C 678.2 0.209155 2.05539 0
M  V30 6785 C 678.608 -1.13987 1.51009 0
M  V30 6786 O 677.951 -1.71976 0.645764 0
M  V30 6787 C 678.013 0.0697758 3.59432 0
M  V30 6788 C 677.677 1.34795 4.36668 0
M  V30 6789 C 678.674 2.28201 4.67141 0
M  V30 6790 C 676.359 1.59632 4.76259 0
M  V30 6791 C 678.353 3.44718 5.36142 0
M  V30 6792 C 676.04 2.76437 5.45 0
M  V30 6793 C 677.038 3.68805 5.74867 0
M  V30 6794 O 676.726 4.83567 6.42198 0
M  V30 6795 H 676.458 0.0986202 0.668768 0
M  V30 6796 H 679.012 0.925483 1.83368 0
M  V30 6797 H 677.242 -0.702157 3.80272 0
M  V30 6798 H 678.931 -0.359115 4.04308 0
M  V30 6799 H 679.697 2.10264 4.37052 0
M  V30 6800 H 675.576 0.886073 4.52404 0
M  V30 6801 H 679.12 4.16833 5.59371 0
M  V30 6802 H 675.017 2.94299 5.74507 0
M  V30 6803 H 675.785 4.83147 6.6069 0
M  V30 6804 N 678.448 -1.51871 0.421078 0
M  V30 6805 C 679.859 -1.86644 -0.0457991 0
M  V30 6806 C 680.21 -1.33919 -1.43388 0
M  V30 6807 O 679.335 -0.683316 -2.05328 0
M  V30 6808 C 679.93 -3.38681 -0.0898844 0
M  V30 6809 C 678.489 -3.73049 -0.501127 0
M  V30 6810 C 677.636 -2.75485 0.316723 0
M  V30 6811 H 680.587 -1.45327 0.637635 0
M  V30 6812 H 680.608 -3.69636 -0.902734 0
M  V30 6813 H 680.12 -3.77025 0.920513 0
M  V30 6814 H 678.221 -3.40288 -1.51773 0
M  V30 6815 H 678.334 -4.78512 -0.237217 0
M  V30 6816 H 676.698 -2.53725 -0.222663 0
M  V30 6817 H 677.481 -3.16671 1.32569 0
M  V30 6818 N 679.926 -0.151884 -1.56866 0
M  V30 6819 C 681.151 0.508044 -2.01081 0
M  V30 6820 C 681.576 1.57306 -1.03134 0
M  V30 6821 O 680.934 1.81298 -0.0078309 0
M  V30 6822 C 680.982 1.08106 -3.44014 0
M  V30 6823 O 680.086 2.19577 -3.49084 0
M  V30 6824 H 679.427 0.123757 -0.652365 0
M  V30 6825 H 681.957 -0.250055 -2.03066 0
M  V30 6826 H 681.967 1.40851 -3.82916 0
M  V30 6827 H 680.642 0.301168 -4.14808 0
M  V30 6828 H 679.219 1.88023 -3.22027 0
M  V30 6829 N 681.404 1.57128 0.121893 0
M  V30 6830 C 682.65 1.85853 0.826451 0
M  V30 6831 C 683.005 0.739262 1.77631 0
M  V30 6832 O 682.298 -0.260959 1.89815 0
M  V30 6833 C 682.492 3.1874 1.61677 0
M  V30 6834 C 682.321 4.43487 0.744944 0
M  V30 6835 C 681.091 5.03707 0.400891 0
M  V30 6836 C 683.289 5.1426 0.0638779 0
M  V30 6837 N 681.271 6.12006 -0.481902 0
M  V30 6838 C 682.642 6.16281 -0.678033 0
M  V30 6839 C 684.697 4.97898 -0.0128424 0
M  V30 6840 C 683.4 7.0371 -1.48946 0
M  V30 6841 C 685.426 5.85812 -0.81108 0
M  V30 6842 C 684.788 6.87333 -1.54119 0
M  V30 6843 H 680.887 0.730367 0.279442 0
M  V30 6844 H 683.471 1.9449 0.0903486 0
M  V30 6845 H 681.642 3.11204 2.32393 0
M  V30 6846 H 683.374 3.35283 2.26644 0
M  V30 6847 H 680.129 4.67744 0.742469 0
M  V30 6848 H 680.553 6.70787 -0.915063 0
M  V30 6849 H 685.195 4.19372 0.537278 0
M  V30 6850 H 682.913 7.81646 -2.05074 0
M  V30 6851 H 686.499 5.75217 -0.872764 0
M  V30 6852 H 685.379 7.54182 -2.14893 0
M  V30 6853 N 682.882 -0.391992 1.52647 0
M  V30 6854 C 683.812 -1.48517 1.8018 0
M  V30 6855 C 684.793 -1.57039 0.653667 0
M  V30 6856 O 685.978 -1.72036 0.900962 0
M  V30 6857 C 683.108 -2.86161 1.96797 0
M  V30 6858 C 682.062 -2.92481 3.12472 0
M  V30 6859 C 681.388 -4.32546 3.14338 0
M  V30 6860 C 682.688 -2.624 4.51601 0
M  V30 6861 H 684.382 -1.25726 2.71723 0
M  V30 6862 H 681.928 -0.603387 1.30749 0
M  V30 6863 H 683.881 -3.62639 2.14641 0
M  V30 6864 H 682.605 -3.10283 1.01941 0
M  V30 6865 H 681.264 -2.18451 2.94406 0
M  V30 6866 H 680.912 -4.53703 2.1717 0
M  V30 6867 H 680.612 -4.37695 3.92042 0
M  V30 6868 H 682.136 -5.10934 3.34333 0
M  V30 6869 H 683.55 -3.28596 4.69785 0
M  V30 6870 H 681.947 -2.78903 5.3135 0
M  V30 6871 H 683.017 -1.57754 4.58521 0
M  V30 6872 N 684.36 -1.4356 -0.65026 0
M  V30 6873 C 685.292 -1.44918 -1.77571 0
M  V30 6874 C 686.305 -0.344925 -1.59104 0
M  V30 6875 O 687.494 -0.609537 -1.6777 0
M  V30 6876 C 684.594 -1.24914 -3.15039 0
M  V30 6877 C 683.767 -2.48232 -3.60138 0
M  V30 6878 C 682.826 -2.23409 -4.76419 0
M  V30 6879 O 681.852 -2.9678 -4.85706 0
M  V30 6880 N 683.054 -1.25259 -5.66825 0
M  V30 6881 H 685.819 -2.41935 -1.76883 0
M  V30 6882 H 683.38 -1.38754 -0.834202 0
M  V30 6883 H 685.372 -1.06185 -3.90521 0
M  V30 6884 H 683.942 -0.363319 -3.10481 0
M  V30 6885 H 683.162 -2.82366 -2.75069 0
M  V30 6886 H 684.45 -3.30296 -3.87017 0
M  V30 6887 H 683.848 -0.646246 -5.61997 0
M  V30 6888 H 682.405 -1.12513 -6.42016 0
M  V30 6889 N 685.838 0.888903 -1.30139 0
M  V30 6890 C 687.115 1.62145 -1.094 0
M  V30 6891 C 687.495 2.08041 0.358091 0
M  V30 6892 O 686.843 1.84438 1.34888 0
M  V30 6893 C 687.053 2.794 -2.09133 0
M  V30 6894 C 688.401 3.49826 -2.40638 0
M  V30 6895 O 689.425 2.89583 -2.07412 0
M  V30 6896 O 688.284 4.58457 -2.97455 0
M  V30 6897 H 685.378 0.712475 -0.41989 0
M  V30 6898 H 687.924 0.936023 -1.41551 0
M  V30 6899 H 686.696 2.42762 -3.06891 0
M  V30 6900 H 686.319 3.55643 -1.77776 0
M  V30 6901 N 687.317 1.12792 1.10072 0
M  V30 6902 C 688.564 0.885545 1.82111 0
M  V30 6903 C 688.892 -0.588519 1.85383 0
M  V30 6904 O 688.147 -1.45124 1.31292 0
M  V30 6905 C 688.446 1.4102 3.28403 0
M  V30 6906 C 688.112 2.89995 3.45273 0
M  V30 6907 C 686.774 3.30671 3.49585 0
M  V30 6908 C 689.126 3.85874 3.50358 0
M  V30 6909 C 686.454 4.65925 3.56553 0
M  V30 6910 C 688.806 5.20963 3.58859 0
M  V30 6911 C 687.47 5.61177 3.61437 0
M  V30 6912 H 686.74 0.324044 0.666391 0
M  V30 6913 H 689.387 1.40874 1.29718 0
M  V30 6914 H 687.692 0.807551 3.83387 0
M  V30 6915 H 689.389 1.19882 3.82661 0
M  V30 6916 H 685.979 2.57537 3.42597 0
M  V30 6917 H 690.163 3.5554 3.46273 0
M  V30 6918 H 685.419 4.96468 3.56833 0
M  V30 6919 H 689.593 5.95079 3.61738 0
M  V30 6920 H 687.22 6.6597 3.66589 0
M  V30 6921 N 688.795 -1.27931 0.920396 0
M  V30 6922 C 690.043 -1.94304 0.555906 0
M  V30 6923 C 690.364 -1.72753 -0.904519 0
M  V30 6924 O 689.634 -1.07104 -1.64029 0
M  V30 6925 H 688.214 -0.719001 0.202599 0
M  V30 6926 H 690.876 -1.55785 1.1712 0
M  V30 6927 H 689.972 -3.02806 0.755981 0
M  V30 6928 N 690.273 -0.685099 -1.4193 0
M  V30 6929 C 691.503 -0.220052 -2.05425 0
M  V30 6930 C 691.911 1.13185 -1.51611 0
M  V30 6931 O 691.254 1.71631 -0.654875 0
M  V30 6932 C 691.316 -0.0888364 -3.5939 0
M  V30 6933 C 690.98 -1.37109 -4.35947 0
M  V30 6934 C 691.977 -2.30675 -4.65924 0
M  V30 6935 C 689.662 -1.62155 -4.75406 0
M  V30 6936 C 691.656 -3.47556 -5.34306 0
M  V30 6937 C 689.343 -2.79324 -5.43527 0
M  V30 6938 C 690.341 -3.71848 -5.72903 0
M  V30 6939 O 690.029 -4.86966 -6.39624 0
M  V30 6940 H 689.761 -0.102165 -0.668235 0
M  V30 6941 H 692.315 -0.935194 -1.82875 0
M  V30 6942 H 690.545 0.681981 -3.80639 0
M  V30 6943 H 692.234 0.337669 -4.04493 0
M  V30 6944 H 693 -2.12579 -4.3593 0
M  V30 6945 H 688.879 -0.910053 -4.51928 0
M  V30 6946 H 692.423 -4.19794 -5.57153 0
M  V30 6947 H 688.32 -2.97342 -5.72938 0
M  V30 6948 H 689.088 -4.86644 -6.58118 0
M  V30 6949 N 691.751 1.51645 -0.429126 0
M  V30 6950 C 693 2.01203 0.141538 0
M  V30 6951 C 693.313 1.31828 1.44502 0
M  V30 6952 O 694.519 1.7231 2.09813 0
M  V30 6953 C 692.975 3.58624 0.302786 0
M  V30 6954 C 692.583 4.3693 -0.989775 0
M  V30 6955 C 694.327 4.16353 0.827661 0
M  V30 6956 C 692.234 5.86037 -0.794619 0
M  V30 6957 H 691.164 0.751867 0.05667 0
M  V30 6958 H 693.815 1.74822 -0.557633 0
M  V30 6959 H 692.197 3.81417 1.06476 0
M  V30 6960 H 693.371 4.25887 -1.75945 0
M  V30 6961 H 691.686 3.90614 -1.44256 0
M  V30 6962 H 694.283 5.25455 0.990026 0
M  V30 6963 H 694.626 3.74995 1.80787 0
M  V30 6964 H 695.159 3.97606 0.124213 0
M  V30 6965 H 691.898 6.31792 -1.74697 0
M  V30 6966 H 691.418 5.99765 -0.0645968 0
M  V30 6967 H 693.097 6.45471 -0.444591 0
M  V30 6968 N 693.229 0.160201 1.56784 0
M  V30 6969 C 694.475 -0.48831 1.96833 0
M  V30 6970 C 694.808 -1.63641 1.04571 0
M  V30 6971 O 694.083 -1.94289 0.0906481 0
M  V30 6972 C 694.366 -0.981908 3.46454 0
M  V30 6973 C 694.219 0.165607 4.49495 0
M  V30 6974 C 695.538 -1.85931 3.98896 0
M  V30 6975 H 692.657 -0.176027 0.71567 0
M  V30 6976 H 695.299 0.244093 1.88426 0
M  V30 6977 H 693.449 -1.60602 3.5375 0
M  V30 6978 H 695.121 0.802372 4.54268 0
M  V30 6979 H 693.364 0.822789 4.25926 0
M  V30 6980 H 694.035 -0.221699 5.51555 0
M  V30 6981 H 696.511 -1.33327 3.94161 0
M  V30 6982 H 695.387 -2.17373 5.04024 0
M  V30 6983 H 695.648 -2.80106 3.42042 0
M  V30 6984 N 694.707 -1.5719 -0.113559 0
M  V30 6985 C 695.617 -2.04041 -1.15777 0
M  V30 6986 C 696.633 -0.961812 -1.45001 0
M  V30 6987 O 697.809 -1.2737 -1.56009 0
M  V30 6988 C 694.874 -2.43994 -2.46308 0
M  V30 6989 C 693.935 -3.65962 -2.24433 0
M  V30 6990 C 693.168 -4.04 -3.4874 0
M  V30 6991 O 693.391 -3.42321 -4.56259 0
M  V30 6992 O 692.325 -4.97069 -3.3942 0
M  V30 6993 H 696.151 -2.93248 -0.789899 0
M  V30 6994 H 693.736 -1.45828 -0.324748 0
M  V30 6995 H 695.618 -2.70401 -3.23204 0
M  V30 6996 H 694.293 -1.57932 -2.82558 0
M  V30 6997 H 693.2 -3.44697 -1.45377 0
M  V30 6998 H 694.533 -4.52746 -1.93084 0
M  V30 6999 N 696.185 0.383891 -1.52853 0
M  V30 7000 C 697.41 1.154 -1.7233 0
M  V30 7001 C 697.835 1.82809 -0.44298 0
M  V30 7002 O 697.193 1.71026 0.601645 0
M  V30 7003 C 697.241 2.17386 -2.87708 0
M  V30 7004 O 696.345 3.24082 -2.55038 0
M  V30 7005 H 695.686 0.335709 -0.572883 0
M  V30 7006 H 698.216 0.44662 -1.99666 0
M  V30 7007 H 698.226 2.61296 -3.1335 0
M  V30 7008 H 696.901 1.6771 -3.80587 0
M  V30 7009 H 695.478 2.85273 -2.40153 0
M  V30 7010 N 697.663 1.43903 0.642637 0
M  V30 7011 C 699.074 1.40975 1.22404 0
M  V30 7012 C 699.425 0.1192 1.95838 0
M  V30 7013 O 698.55 -0.780939 2.01818 0
M  V30 7014 C 699.145 2.5538 2.22636 0
M  V30 7015 C 697.704 2.55684 2.76229 0
M  V30 7016 C 696.851 2.32556 1.51039 0
M  V30 7017 H 699.802 1.5265 0.434006 0
M  V30 7018 H 699.823 2.27474 3.05017 0
M  V30 7019 H 699.335 3.49294 1.69161 0
M  V30 7020 H 697.436 1.65679 3.33738 0
M  V30 7021 H 697.549 3.53799 3.23053 0
M  V30 7022 H 695.913 1.81427 1.78764 0
M  V30 7023 H 696.696 3.28569 0.99484 0
M  V30 7024 N 699.141 -0.881989 1.30609 0
M  V30 7025 C 700.051 -2.02076 1.19174 0
M  V30 7026 C 701.067 -1.73645 0.11102 0
M  V30 7027 O 702.243 -1.98735 0.326528 0
M  V30 7028 C 699.308 -3.3515 0.887438 0
M  V30 7029 C 698.369 -3.76983 2.05383 0
M  V30 7030 C 697.602 -5.03707 1.76395 0
M  V30 7031 O 697.825 -5.66171 0.693302 0
M  V30 7032 O 696.759 -5.42019 2.61723 0
M  V30 7033 H 700.585 -2.14652 2.14845 0
M  V30 7034 H 698.17 -1.00843 1.10232 0
M  V30 7035 H 700.052 -4.14975 0.73306 0
M  V30 7036 H 698.727 -3.23676 -0.0393354 0
M  V30 7037 H 697.634 -2.97849 2.26355 0
M  V30 7038 H 698.967 -3.93066 2.96243 0
M  V30 7039 N 700.619 -1.13374 -1.09472 0
M  V30 7040 C 701.582 -0.813639 -2.14272 0
M  V30 7041 C 702.582 0.176677 -1.59826 0
M  V30 7042 O 703.772 -0.0503441 -1.74127 0
M  V30 7043 C 700.904 -0.210897 -3.40247 0
M  V30 7044 H 702.097 -1.74229 -2.44099 0
M  V30 7045 H 699.65 -0.938304 -1.25002 0
M  V30 7046 H 700.385 0.726998 -3.16046 0
M  V30 7047 H 700.17 -0.924048 -3.81056 0
M  V30 7048 H 701.66 -0.00377603 -4.176 0
M  V30 7049 N 702.098 1.27442 -0.927168 0
M  V30 7050 C 703.061 2.2512 -0.430525 0
M  V30 7051 C 704.061 1.54357 0.450619 0
M  V30 7052 O 705.251 1.72371 0.251774 0
M  V30 7053 C 702.383 3.38763 0.381144 0
M  V30 7054 H 703.576 2.70569 -1.29354 0
M  V30 7055 H 701.129 1.39355 -0.707806 0
M  V30 7056 H 701.864 2.98695 1.263 0
M  V30 7057 H 701.649 3.91298 -0.250618 0
M  V30 7058 H 703.139 4.11364 0.719012 0
M  V30 7059 N 703.576 0.692616 1.41565 0
M  V30 7060 C 704.523 0.0254264 2.30786 0
M  V30 7061 C 705.493 -0.774347 1.46946 0
M  V30 7062 O 706.678 -0.742981 1.7574 0
M  V30 7063 C 703.818 -0.907123 3.32964 0
M  V30 7064 C 702.931 -0.0992784 4.31886 0
M  V30 7065 C 702.066 -1.0292 5.21134 0
M  V30 7066 C 701.105 -0.214088 6.11725 0
M  V30 7067 N 700.242 -1.09766 6.93467 0
M  V30 7068 H 705.082 0.792036 2.87282 0
M  V30 7069 H 702.619 0.4023 1.41492 0
M  V30 7070 H 704.577 -1.46181 3.90752 0
M  V30 7071 H 703.207 -1.64016 2.78026 0
M  V30 7072 H 702.259 0.572287 3.76071 0
M  V30 7073 H 703.571 0.532782 4.95946 0
M  V30 7074 H 702.725 -1.65321 5.83741 0
M  V30 7075 H 701.464 -1.69512 4.57293 0
M  V30 7076 H 700.469 0.42302 5.4817 0
M  V30 7077 H 701.694 0.447995 6.77621 0
M  V30 7078 H 699.64 -1.74965 6.32237 0
M  V30 7079 H 699.557 -0.521099 7.54202 0
M  V30 7080 H 700.825 -1.70858 7.60544 0
M  V30 7081 N 705.054 -1.51416 0.437162 0
M  V30 7082 C 705.986 -2.255 -0.410171 0
M  V30 7083 C 706.999 -1.29511 -0.986444 0
M  V30 7084 O 708.188 -1.55266 -0.880614 0
M  V30 7085 C 705.288 -2.99511 -1.58575 0
M  V30 7086 C 704.461 -4.22595 -1.12839 0
M  V30 7087 C 703.52 -4.79187 -2.17407 0
M  V30 7088 O 702.546 -5.4103 -1.76849 0
M  V30 7089 N 703.748 -4.63204 -3.49889 0
M  V30 7090 H 706.513 -2.98856 0.224783 0
M  V30 7091 H 704.074 -1.59699 0.266041 0
M  V30 7092 H 706.066 -3.34258 -2.28152 0
M  V30 7093 H 704.636 -2.29167 -2.12606 0
M  V30 7094 H 703.856 -3.93344 -0.259695 0
M  V30 7095 H 705.144 -5.02468 -0.800196 0
M  V30 7096 H 704.542 -4.13945 -3.85573 0
M  V30 7097 H 703.099 -5.02313 -4.15361 0
M  V30 7098 N 706.532 -0.168513 -1.56696 0
M  V30 7099 C 707.462 0.758563 -2.20835 0
M  V30 7100 C 708.443 1.24121 -1.1631 0
M  V30 7101 O 709.628 1.29487 -1.4473 0
M  V30 7102 C 706.758 1.9892 -2.8469 0
M  V30 7103 C 705.712 1.64252 -3.95228 0
M  V30 7104 C 705.038 2.94757 -4.46119 0
M  V30 7105 C 706.338 0.872675 -5.14958 0
M  V30 7106 H 708.032 0.223953 -2.98561 0
M  V30 7107 H 705.578 0.106277 -1.43607 0
M  V30 7108 H 707.531 2.64275 -3.28233 0
M  V30 7109 H 706.255 2.5479 -2.04327 0
M  V30 7110 H 704.914 1.01266 -3.52336 0
M  V30 7111 H 704.562 3.48662 -3.62552 0
M  V30 7112 H 704.262 2.72316 -5.2069 0
M  V30 7113 H 705.786 3.61147 -4.92347 0
M  V30 7114 H 707.2 1.42875 -5.55211 0
M  V30 7115 H 705.597 0.747402 -5.95428 0
M  V30 7116 H 706.667 -0.131535 -4.84722 0
M  V30 7117 N 708.01 1.57248 0.105221 0
M  V30 7118 C 709.287 1.76566 0.841647 0
M  V30 7119 C 709.667 0.747566 1.9742 0
M  V30 7120 O 709.015 -0.225886 2.27381 0
M  V30 7121 C 709.225 3.22016 1.3456 0
M  V30 7122 C 710.573 3.84911 1.79244 0
M  V30 7123 O 711.597 3.25703 1.44207 0
M  V30 7124 O 710.456 4.89008 2.43995 0
M  V30 7125 H 707.55 0.723443 0.400698 0
M  V30 7126 H 710.096 1.69472 0.0878893 0
M  V30 7127 H 708.868 3.87644 0.533685 0
M  V30 7128 H 708.491 3.33703 2.16167 0
M  V30 7129 N 709.488 -0.375779 1.53054 0
M  V30 7130 C 710.451 -1.44254 1.7811 0
M  V30 7131 C 711.451 -1.47018 0.651328 0
M  V30 7132 O 712.641 -1.47957 0.919472 0
M  V30 7133 C 709.773 -2.8345 1.89391 0
M  V30 7134 H 710.966 -1.23316 2.73374 0
M  V30 7135 H 708.519 -0.608312 1.43977 0
M  V30 7136 H 709.254 -3.09716 0.961589 0
M  V30 7137 H 709.039 -2.82844 2.71555 0
M  V30 7138 H 710.529 -3.60722 2.10404 0
M  V30 7139 N 710.966 -1.44241 -0.634997 0
M  V30 7140 C 711.913 -1.5081 -1.74714 0
M  V30 7141 C 712.883 -0.356147 -1.62237 0
M  V30 7142 O 714.068 -0.565848 -1.82216 0
M  V30 7143 C 711.208 -1.45458 -3.12947 0
M  V30 7144 C 710.321 -2.70998 -3.36428 0
M  V30 7145 C 709.456 -2.57507 -4.64611 0
M  V30 7146 C 708.495 -3.78229 -4.81258 0
M  V30 7147 N 707.632 -3.63438 -6.00714 0
M  V30 7148 H 712.472 -2.45832 -1.68436 0
M  V30 7149 H 710.009 -1.2201 -0.821706 0
M  V30 7150 H 711.967 -1.40347 -3.92885 0
M  V30 7151 H 710.597 -0.540058 -3.1825 0
M  V30 7152 H 709.649 -2.86312 -2.50458 0
M  V30 7153 H 710.961 -3.60619 -3.44609 0
M  V30 7154 H 710.115 -2.50207 -5.52703 0
M  V30 7155 H 708.854 -1.65441 -4.58782 0
M  V30 7156 H 707.859 -3.85918 -3.91596 0
M  V30 7157 H 709.084 -4.71327 -4.88904 0
M  V30 7158 H 707.03 -2.7412 -5.95982 0
M  V30 7159 H 706.947 -4.46672 -6.09934 0
M  V30 7160 H 708.215 -3.60022 -6.91378 0
M  V30 7161 N 712.444 0.87505 -1.31075 0
M  V30 7162 C 713.374 1.99775 -1.20881 0
M  V30 7163 C 714.355 1.69822 -0.0971612 0
M  V30 7164 O 715.54 1.92158 -0.280895 0
M  V30 7165 C 712.67 3.35163 -0.910118 0
M  V30 7166 C 711.624 3.79406 -1.98078 0
M  V30 7167 C 710.95 5.12197 -1.53488 0
M  V30 7168 C 712.25 3.97061 -3.39323 0
M  V30 7169 H 713.944 2.08562 -2.14808 0
M  V30 7170 H 711.49 1.00207 -1.03415 0
M  V30 7171 H 713.443 4.13237 -0.825423 0
M  V30 7172 H 712.167 3.26536 0.064822 0
M  V30 7173 H 710.826 3.03568 -2.05528 0
M  V30 7174 H 710.474 5.00007 -0.547941 0
M  V30 7175 H 710.174 5.4277 -2.2511 0
M  V30 7176 H 711.698 5.92785 -1.46417 0
M  V30 7177 H 713.112 4.65545 -3.34576 0
M  V30 7178 H 711.509 4.39025 -4.09118 0
M  V30 7179 H 712.579 3.00601 -3.80483 0
M  V30 7180 N 713.922 1.13953 1.08869 0
M  V30 7181 C 714.852 0.844824 2.17681 0
M  V30 7182 C 715.833 -0.198213 1.68941 0
M  V30 7183 O 717.018 -0.0559073 1.9412 0
M  V30 7184 C 714.148 0.316325 3.45856 0
M  V30 7185 C 713.102 1.29426 4.07962 0
M  V30 7186 C 712.428 0.625275 5.31031 0
M  V30 7187 C 713.728 2.65484 4.49795 0
M  V30 7188 H 715.422 1.75471 2.42591 0
M  V30 7189 H 712.968 0.845116 1.16592 0
M  V30 7190 H 714.921 0.0977876 4.21287 0
M  V30 7191 H 713.645 -0.628972 3.20486 0
M  V30 7192 H 712.304 1.49889 3.34558 0
M  V30 7193 H 711.952 -0.325678 5.01945 0
M  V30 7194 H 711.652 1.27777 5.73539 0
M  V30 7195 H 713.176 0.416152 6.0918 0
M  V30 7196 H 714.59 2.48957 5.16424 0
M  V30 7197 H 712.987 3.26963 5.03205 0
M  V30 7198 H 714.057 3.22717 3.61914 0
M  V30 7199 N 715.4 -1.26948 0.933913 0
M  V30 7200 C 716.677 -1.89212 0.495784 0
M  V30 7201 C 717.057 -1.84469 -1.02637 0
M  V30 7202 O 716.405 -1.29409 -1.88323 0
M  V30 7203 C 716.615 -3.32865 1.0489 0
M  V30 7204 C 717.963 -4.09749 1.11315 0
M  V30 7205 O 718.987 -3.41905 0.998966 0
M  V30 7206 O 717.846 -5.31061 1.28983 0
M  V30 7207 H 714.94 -0.811284 0.160459 0
M  V30 7208 H 717.486 -1.35171 1.02601 0
M  V30 7209 H 716.258 -3.30642 2.09265 0
M  V30 7210 H 715.881 -3.94435 0.500692 0
M  V30 7211 N 716.879 -0.700114 -1.41195 0
M  V30 7212 C 718.29 -0.307249 -1.84154 0
M  V30 7213 C 718.641 1.15539 -1.58572 0
M  V30 7214 O 717.766 1.88744 -1.05852 0
M  V30 7215 C 718.361 -0.550872 -3.34292 0
M  V30 7216 C 716.92 -0.211877 -3.75803 0
M  V30 7217 C 716.067 -0.830915 -2.64558 0
M  V30 7218 H 719.018 -0.900431 -1.30683 0
M  V30 7219 H 719.039 0.188954 -3.80031 0
M  V30 7220 H 718.551 -1.61548 -3.5288 0
M  V30 7221 H 716.652 0.848283 -3.62815 0
M  V30 7222 H 716.765 -0.67007 -4.74391 0
M  V30 7223 H 715.129 -0.260155 -2.53368 0
M  V30 7224 H 715.912 -1.89948 -2.85963 0
M  V30 7225 N 718.357 1.51182 -0.445186 0
M  V30 7226 C 719.289 2.25714 0.398206 0
M  V30 7227 C 720.302 1.30032 0.979562 0
M  V30 7228 O 721.491 1.55731 0.872368 0
M  V30 7229 C 718.591 3.00348 1.56985 0
M  V30 7230 C 717.764 4.23187 1.10596 0
M  V30 7231 C 716.823 4.80334 2.14863 0
M  V30 7232 O 715.849 5.4196 1.73977 0
M  V30 7233 N 717.051 4.65053 3.47427 0
M  V30 7234 H 719.816 2.98732 -0.240629 0
M  V30 7235 H 717.377 1.59556 -0.274507 0
M  V30 7236 H 719.369 3.35464 2.26376 0
M  V30 7237 H 717.939 2.30291 2.11387 0
M  V30 7238 H 717.159 3.93476 0.238832 0
M  V30 7239 H 718.447 5.02886 0.773537 0
M  V30 7240 H 717.845 4.15984 3.83372 0
M  V30 7241 H 716.402 5.04509 4.12691 0
M  V30 7242 N 719.835 0.176821 1.56605 0
M  V30 7243 C 721.081 -0.460868 1.9811 0
M  V30 7244 C 721.436 -1.60488 1.06119 0
M  V30 7245 O 720.729 -1.91329 0.101939 0
M  V30 7246 C 720.923 -0.986208 3.43524 0
M  V30 7247 C 720.752 0.105368 4.49577 0
M  V30 7248 C 719.522 0.556883 5.02222 0
M  V30 7249 C 721.72 0.907756 5.06226 0
M  V30 7250 N 719.702 1.62819 5.91915 0
M  V30 7251 C 721.073 1.82887 5.92412 0
M  V30 7252 C 723.128 0.952221 4.8871 0
M  V30 7253 C 721.831 2.7907 6.62957 0
M  V30 7254 C 723.857 1.90202 5.5998 0
M  V30 7255 C 723.219 2.8106 6.45898 0
M  V30 7256 H 719.318 -0.136589 0.769979 0
M  V30 7257 H 721.902 0.278307 1.92701 0
M  V30 7258 H 720.073 -1.69489 3.49468 0
M  V30 7259 H 721.805 -1.59298 3.7203 0
M  V30 7260 H 718.56 0.153575 4.73351 0
M  V30 7261 H 718.984 2.1645 6.41466 0
M  V30 7262 H 723.626 0.263794 4.21976 0
M  V30 7263 H 721.344 3.48898 7.28901 0
M  V30 7264 H 724.93 1.9426 5.48411 0
M  V30 7265 H 723.81 3.53357 7.00077 0
M  V30 7266 N 721.313 -1.57302 -0.09688 0
M  V30 7267 C 722.26 -2.01933 -1.11766 0
M  V30 7268 C 723.23 -0.895329 -1.39904 0
M  V30 7269 O 724.415 -1.16119 -1.51397 0
M  V30 7270 C 721.555 -2.44726 -2.43317 0
M  V30 7271 C 720.668 -3.70639 -2.21925 0
M  V30 7272 C 719.803 -4.02318 -3.46862 0
M  V30 7273 C 718.842 -5.21346 -3.20725 0
M  V30 7274 N 717.979 -5.48787 -4.37924 0
M  V30 7275 H 722.819 -2.88919 -0.730075 0
M  V30 7276 H 720.356 -1.42901 -0.348962 0
M  V30 7277 H 722.314 -2.6758 -3.20088 0
M  V30 7278 H 720.944 -1.60753 -2.79926 0
M  V30 7279 H 719.996 -3.55271 -1.35965 0
M  V30 7280 H 721.308 -4.57557 -1.98603 0
M  V30 7281 H 720.462 -4.25939 -4.32042 0
M  V30 7282 H 719.201 -3.13918 -3.73238 0
M  V30 7283 H 718.206 -4.97547 -2.33938 0
M  V30 7284 H 719.431 -6.11343 -2.95697 0
M  V30 7285 H 717.377 -4.63346 -4.64378 0
M  V30 7286 H 717.294 -6.30073 -4.17785 0
M  V30 7287 H 718.562 -5.76943 -5.24173 0
M  V30 7288 N 722.791 0.367657 -1.53252 0
M  V30 7289 C 724.021 1.12955 -1.72988 0
M  V30 7290 C 724.429 1.8358 -0.457708 0
M  V30 7291 O 723.772 1.74336 0.579006 0
M  V30 7292 C 723.834 2.20545 -2.83902 0
M  V30 7293 C 723.498 1.69704 -4.24323 0
M  V30 7294 C 724.495 1.16223 -5.06743 0
M  V30 7295 C 722.18 1.7528 -4.70725 0
M  V30 7296 C 724.174 0.689935 -6.33655 0
M  V30 7297 C 721.861 1.27662 -5.97617 0
M  V30 7298 C 722.859 0.746083 -6.78913 0
M  V30 7299 O 722.547 0.276925 -8.03423 0
M  V30 7300 H 722.279 0.343753 -0.582074 0
M  V30 7301 H 724.833 0.433106 -2.00782 0
M  V30 7302 H 723.063 2.93676 -2.51577 0
M  V30 7303 H 724.752 2.82111 -2.91836 0
M  V30 7304 H 725.518 1.11256 -4.72067 0
M  V30 7305 H 721.397 2.15515 -4.07522 0
M  V30 7306 H 724.941 0.275164 -6.97057 0
M  V30 7307 H 720.838 1.32322 -6.31792 0
M  V30 7308 H 721.606 0.396445 -8.17539 0
M  V30 7309 N 724.269 1.44576 0.627338 0
M  V30 7310 C 725.494 1.51271 1.41887 0
M  V30 7311 C 725.919 0.139814 1.8758 0
M  V30 7312 O 725.277 -0.871746 1.58966 0
M  V30 7313 C 725.325 2.48529 2.61277 0
M  V30 7314 O 724.429 1.98944 3.61241 0
M  V30 7315 H 723.77 0.510668 0.424399 0
M  V30 7316 H 726.3 1.89746 0.765356 0
M  V30 7317 H 726.31 2.66689 3.08773 0
M  V30 7318 H 724.985 3.48249 2.27366 0
M  V30 7319 H 723.562 1.90568 3.20528 0
M  V30 7320 N 725.747 -0.868086 1.31537 0
M  V30 7321 C 726.679 -1.98165 1.15166 0
M  V30 7322 C 727.692 -1.6255 0.0902335 0
M  V30 7323 O 728.881 -1.75272 0.33791 0
M  V30 7324 C 725.981 -3.30772 0.737776 0
M  V30 7325 C 725.154 -3.94716 1.88462 0
M  V30 7326 C 724.213 -5.05641 1.45648 0
M  V30 7327 O 723.239 -5.2636 2.16642 0
M  V30 7328 N 724.441 -5.79474 0.34493 0
M  V30 7329 H 727.206 -2.12754 2.11083 0
M  V30 7330 H 724.767 -1.04217 1.23897 0
M  V30 7331 H 726.759 -4.02366 0.434032 0
M  V30 7332 H 725.329 -3.1233 -0.129834 0
M  V30 7333 H 724.549 -3.16079 2.35558 0
M  V30 7334 H 725.837 -4.34175 2.65273 0
M  V30 7335 H 725.235 -5.65164 -0.246259 0
M  V30 7336 H 723.792 -6.51722 0.100728 0
M  V30 7337 N 727.225 -1.14528 -1.08264 0
M  V30 7338 C 728.135 -0.84728 -2.18765 0
M  V30 7339 C 729.151 0.172826 -1.7314 0
M  V30 7340 O 730.327 0.000985336 -2.014 0
M  V30 7341 C 727.392 -0.330633 -3.4512 0
M  V30 7342 C 726.453 -1.41348 -4.05363 0
M  V30 7343 C 725.686 -0.921387 -5.25686 0
M  V30 7344 O 725.909 0.236587 -5.69909 0
M  V30 7345 O 724.843 -1.70101 -5.77364 0
M  V30 7346 H 728.669 -1.7708 -2.46731 0
M  V30 7347 H 726.254 -0.923661 -1.17426 0
M  V30 7348 H 728.136 -0.0485053 -4.21372 0
M  V30 7349 H 726.811 0.565147 -3.18728 0
M  V30 7350 H 725.718 -1.74908 -3.30693 0
M  V30 7351 H 727.051 -2.28383 -4.36007 0
M  V30 7352 N 728.703 1.26451 -0.940633 0
M  V30 7353 C 729.931 1.97868 -0.604642 0
M  V30 7354 C 730.346 1.70051 0.820251 0
M  V30 7355 O 729.703 0.96843 1.54686 0
M  V30 7356 C 729.754 3.51684 -0.836689 0
M  V30 7357 O 729.475 3.78533 -2.20554 0
M  V30 7358 C 730.976 4.40343 -0.511169 0
M  V30 7359 H 728.196 0.631105 -0.227919 0
M  V30 7360 H 730.74 1.60979 -1.26119 0
M  V30 7361 H 728.895 3.86736 -0.226759 0
M  V30 7362 H 729.309 4.73065 -2.26517 0
M  V30 7363 H 730.783 5.47229 -0.724157 0
M  V30 7364 H 731.26 4.35694 0.553815 0
M  V30 7365 H 731.866 4.10834 -1.0998 0
M  V30 7366 N 730.181 0.707592 1.40822 0
M  V30 7367 C 731.144 0.0587224 2.29125 0
M  V30 7368 C 732.144 -0.695624 1.44975 0
M  V30 7369 O 733.334 -0.528718 1.65983 0
M  V30 7370 C 730.466 -0.926939 3.28056 0
M  V30 7371 H 731.659 0.836349 2.88002 0
M  V30 7372 H 729.212 0.471778 1.4901 0
M  V30 7373 H 729.947 -1.7319 2.74182 0
M  V30 7374 H 729.732 -0.389015 3.90165 0
M  V30 7375 H 731.222 -1.37837 3.94196 0
M  V30 7376 N 731.66 -1.50943 0.453197 0
M  V30 7377 C 732.888 -2.06628 -0.106135 0
M  V30 7378 C 733.303 -1.31901 -1.35084 0
M  V30 7379 O 732.66 -0.383074 -1.78434 0
M  V30 7380 C 732.711 -3.5914 -0.412368 0
M  V30 7381 O 732.432 -4.31047 0.782948 0
M  V30 7382 C 733.933 -4.31391 -1.02064 0
M  V30 7383 H 731.153 -0.670999 -0.000885896 0
M  V30 7384 H 733.697 -1.94331 0.63684 0
M  V30 7385 H 731.852 -3.71299 -1.10526 0
M  V30 7386 H 732.266 -5.21948 0.516736 0
M  V30 7387 H 733.74 -5.39135 -1.1848 0
M  V30 7388 H 734.217 -3.90714 -2.00598 0
M  V30 7389 H 734.823 -4.23716 -0.366664 0
M  V30 7390 N 733.138 -0.185124 -1.56509 0
M  V30 7391 C 734.384 0.456934 -1.97585 0
M  V30 7392 C 734.717 1.61957 -1.07161 0
M  V30 7393 O 733.992 1.9412 -0.121546 0
M  V30 7394 C 734.275 0.926666 -3.47973 0
M  V30 7395 C 734.128 -0.237097 -4.49175 0
M  V30 7396 C 735.447 1.79561 -4.01803 0
M  V30 7397 H 732.566 0.164619 -0.71838 0
M  V30 7398 H 735.208 -0.274039 -1.88013 0
M  V30 7399 H 733.358 1.54954 -3.56261 0
M  V30 7400 H 735.03 -0.87454 -4.52934 0
M  V30 7401 H 733.273 -0.890446 -4.24563 0
M  V30 7402 H 733.944 0.133924 -5.51838 0
M  V30 7403 H 736.42 1.27039 -3.96232 0
M  V30 7404 H 735.296 2.09327 -5.07418 0
M  V30 7405 H 735.557 2.74629 -3.46455 0
M  V30 7406 N 734.616 1.57351 0.0885366 0
M  V30 7407 C 735.893 1.77449 0.822873 0
M  V30 7408 C 736.273 0.768463 1.96616 0
M  V30 7409 O 735.621 -0.201757 2.27608 0
M  V30 7410 C 735.831 3.23425 1.31137 0
M  V30 7411 C 737.179 3.86791 1.75152 0
M  V30 7412 O 738.203 3.27215 1.40745 0
M  V30 7413 O 737.062 4.91568 2.38794 0
M  V30 7414 H 734.156 0.727653 0.393002 0
M  V30 7415 H 736.702 1.69556 0.0699095 0
M  V30 7416 H 735.474 3.88188 0.49254 0
M  V30 7417 H 735.097 3.35977 2.12615 0
M  V30 7418 N 736.094 -0.359525 1.53444 0
M  V30 7419 C 737.324 -1.12036 1.73585 0
M  V30 7420 C 737.732 -1.83335 0.467438 0
M  V30 7421 O 737.075 -1.74641 -0.569753 0
M  V30 7422 C 737.137 -2.19036 2.85068 0
M  V30 7423 C 736.801 -1.67451 4.25217 0
M  V30 7424 C 737.798 -1.13534 5.07352 0
M  V30 7425 C 735.483 -1.72781 4.71648 0
M  V30 7426 C 737.477 -0.656321 6.34012 0
M  V30 7427 C 735.164 -1.2449 5.98285 0
M  V30 7428 C 736.162 -0.710068 6.79299 0
M  V30 7429 O 735.85 -0.234314 8.03558 0
M  V30 7430 H 735.582 -0.340662 0.583888 0
M  V30 7431 H 738.136 -0.422452 2.01009 0
M  V30 7432 H 736.366 -2.92338 2.53131 0
M  V30 7433 H 738.055 -2.80559 2.93328 0
M  V30 7434 H 738.821 -1.08751 4.7265 0
M  V30 7435 H 734.7 -2.13351 4.08659 0
M  V30 7436 H 738.244 -0.238193 6.97193 0
M  V30 7437 H 734.141 -1.28969 6.32485 0
M  V30 7438 H 734.909 -0.353084 8.17738 0
M  V30 7439 N 737.572 -1.44907 -0.619662 0
M  V30 7440 C 738.535 -1.52282 -1.71297 0
M  V30 7441 C 739.535 -0.40359 -1.55653 0
M  V30 7442 O 740.725 -0.666638 -1.6094 0
M  V30 7443 C 737.857 -1.40778 -3.10474 0
M  V30 7444 H 739.05 -2.49683 -1.66128 0
M  V30 7445 H 736.603 -1.32168 -0.834339 0
M  V30 7446 H 737.338 -0.445156 -3.2123 0
M  V30 7447 H 737.123 -2.21947 -3.23237 0
M  V30 7448 H 738.613 -1.48946 -3.90135 0
M  V30 7449 N 739.05 0.861098 -1.31996 0
M  V30 7450 C 740.466 1.14827 -1.10846 0
M  V30 7451 C 740.666 2.0117 0.11528 0
M  V30 7452 O 739.722 2.39423 0.802048 0
M  V30 7453 C 741.035 1.83183 -2.38462 0
M  V30 7454 C 742.583 1.95847 -2.44158 0
M  V30 7455 C 743.058 2.67617 -3.71679 0
M  V30 7456 N 744.549 2.75147 -3.72624 0
M  V30 7457 C 745.284 3.31314 -4.67994 0
M  V30 7458 N 744.78 3.88343 -5.73726 0
M  V30 7459 N 746.573 3.29356 -4.55501 0
M  V30 7460 H 738.724 0.285951 -2.10466 0
M  V30 7461 H 740.987 0.189303 -0.928907 0
M  V30 7462 H 740.693 1.27193 -3.27895 0
M  V30 7463 H 740.567 2.83393 -2.48935 0
M  V30 7464 H 742.954 2.50999 -1.55189 0
M  V30 7465 H 743.035 0.94653 -2.37644 0
M  V30 7466 H 742.679 2.13131 -4.61018 0
M  V30 7467 H 742.609 3.69237 -3.75462 0
M  V30 7468 H 745.1 2.34682 -2.96197 0
M  V30 7469 H 745.413 4.29338 -6.42564 0
M  V30 7470 H 743.758 3.86693 -5.77489 0
M  V30 7471 H 746.949 2.84047 -3.72069 0
M  V30 7472 H 747.122 3.7283 -5.30001 0
M  V30 7473 N 740.528 1.15101 1.07655 0
M  V30 7474 C 741.776 0.922149 1.79836 0
M  V30 7475 C 742.097 -0.552346 1.87014 0
M  V30 7476 O 741.367 -1.40145 1.3688 0
M  V30 7477 H 739.947 0.338182 0.666064 0
M  V30 7478 H 742.609 1.45107 1.30115 0
M  V30 7479 H 741.705 1.32883 2.82398 0
M  V30 7480 N 742.006 -1.2595 0.947325 0
M  V30 7481 C 743.255 -1.92759 0.593887 0
M  V30 7482 C 743.568 -1.75083 -0.872093 0
M  V30 7483 O 744.774 -2.36401 -1.33518 0
M  V30 7484 C 743.23 -3.45395 1.01144 0
M  V30 7485 C 742.838 -3.71795 2.49946 0
M  V30 7486 C 744.582 -4.18173 0.730185 0
M  V30 7487 C 742.489 -5.17901 2.85539 0
M  V30 7488 H 741.419 -0.721676 0.218403 0
M  V30 7489 H 744.07 -1.4293 1.15079 0
M  V30 7490 H 742.452 -3.94143 0.383007 0
M  V30 7491 H 743.626 -3.33728 3.17746 0
M  V30 7492 H 741.941 -3.12263 2.75465 0
M  V30 7493 H 744.538 -5.25784 0.972367 0
M  V30 7494 H 744.881 -4.14964 -0.333223 0
M  V30 7495 H 745.414 -3.75309 1.31862 0
M  V30 7496 H 742.153 -5.26216 3.90867 0
M  V30 7497 H 741.673 -5.57042 2.22406 0
M  V30 7498 H 743.352 -5.8596 2.74336 0
M  V30 7499 N 743.484 -0.715051 -1.40445 0
M  V30 7500 C 744.724 -0.258742 -2.02756 0
M  V30 7501 C 745.088 1.12661 -1.55472 0
M  V30 7502 O 746.289 1.67988 -2.09842 0
M  V30 7503 C 744.56 -0.335201 -3.55825 0
M  V30 7504 S 746.119 0.044201 -4.38778 0
M  V30 7505 H 742.937 -0.102683 -0.703546 0
M  V30 7506 H 745.539 -0.937151 -1.71574 0
M  V30 7507 H 744.243 -1.34511 -3.87731 0
M  V30 7508 H 743.774 0.361705 -3.91734 0
M  V30 7509 H 745.789 1.26639 -4.79768 0
M  V30 7510 N 744.962 1.50701 -0.461195 0
M  V30 7511 C 745.91 2.29918 0.352231 0
M  V30 7512 C 746.904 1.36778 0.999403 0
M  V30 7513 O 748.11 1.54015 0.931639 0
M  V30 7514 H 744.485 0.740249 0.132423 0
M  V30 7515 H 746.456 2.96497 -0.336424 0
M  V30 7516 C 745.205 3.17052 1.42736 0
M  V30 7517 H 744.528 3.88623 0.938747 0
M  V30 7518 H 745.968 3.75493 1.96928 0
M  V30 7519 C 744.427 2.3399 2.42384 0
M  V30 7520 O 744.957 2.01608 3.47444 0
M  V30 7521 N 743.163 1.96758 2.13857 0
M  V30 7522 H 742.71 2.23292 1.28447 0
M  V30 7523 H 742.668 1.41484 2.80766 0
M  V30 7524 N 746.441 0.193421 1.56409 0
M  V30 7525 C 747.404 -0.714371 2.17783 0
M  V30 7526 C 748.404 -1.1422 1.13183 0
M  V30 7527 O 749.594 -1.05557 1.38576 0
M  V30 7528 C 746.726 -1.97509 2.77855 0
M  V30 7529 H 747.919 -0.179714 2.99361 0
M  V30 7530 H 745.472 -0.0561944 1.56199 0
M  V30 7531 H 746.207 -2.5523 2.0007 0
M  V30 7532 H 745.992 -1.67706 3.54425 0
M  V30 7533 H 747.482 -2.62246 3.24987 0
M  V30 7534 O 747.958 -1.61402 0.0562482 0
M  V30 7535 H 748.649 -1.85658 -0.552338 0
M  V30 END ATOM
M  V30 BEGIN BOND
M  V30 END BOND
M  V30 END CTAB
M  END
$$$$
