drugbank_target|P86287 Actin-1 (DB11638)
 OpenBabel12092121093D

  0  0  0     0  0            999 V3000
M  V30 BEGIN CTAB
M  V30 COUNTS 5848 5910 0 0 0
M  V30 BEGIN ATOM
M  V30 1 H -0.908 1.98254 -0.117106 0
M  V30 2 N 0 1.576 0 0
M  V30 3 C 0.933 2.03868 1.02534 0
M  V30 4 C 1.911 0.928543 1.3348 0
M  V30 5 O 3.095 1.19667 1.45644 0
M  V30 6 C 0.222 2.43627 2.35294 0
M  V30 7 C -0.732 3.65373 2.2001 0
M  V30 8 S 0.101 5.13292 1.52614 0
M  V30 9 C 1.257 5.56322 2.86805 0
M  V30 10 H 1.49 2.90518 0.631377 0
M  V30 11 H -0.977 1.52953 0.210867 0
M  V30 12 H 0.981 2.67203 3.11629 0
M  V30 13 H -0.358 1.57376 2.7183 0
M  V30 14 H -1.165 3.90944 3.18086 0
M  V30 15 H -1.563 3.418 1.51819 0
M  V30 16 H 0.729 5.58782 3.83104 0
M  V30 17 H 1.672 6.56266 2.65933 0
M  V30 18 H 2.08 4.83886 2.90714 0
M  V30 19 N 1.4781 -0.272755 1.55222 0
M  V30 20 C 2.7261 -1.00234 1.75492 0
M  V30 21 C 3.0471 -1.8681 0.5592 0
M  V30 22 O 2.3171 -1.91215 -0.425882 0
M  V30 23 H 0.8971 -0.373076 0.647166 0
M  V30 24 H 3.5591 -0.296926 1.92625 0
M  V30 25 H 2.6551 -1.63913 2.65592 0
M  V30 26 N 2.9562 -1.48159 -0.537278 0
M  V30 27 C 3.8662 -1.64807 -1.6696 0
M  V30 28 C 4.8822 -0.530651 -1.65711 0
M  V30 29 O 6.0582 -0.800784 -1.84796 0
M  V30 30 C 3.1232 -1.67708 -3.03438 0
M  V30 31 C 2.1842 -2.91025 -3.156 0
M  V30 32 C 1.4172 -2.93778 -4.45567 0
M  V30 33 O 1.6402 -2.05153 -5.3223 0
M  V30 34 O 0.5742 -3.85868 -4.61941 0
M  V30 35 H 4.4002 -2.6066 -1.55853 0
M  V30 36 H 1.9852 -1.31475 -0.709549 0
M  V30 37 H 3.8672 -1.7218 -3.84619 0
M  V30 38 H 2.5422 -0.750278 -3.14885 0
M  V30 39 H 1.4492 -2.92089 -2.33741 0
M  V30 40 H 2.7822 -3.83065 -3.09066 0
M  V30 41 N 4.4343 0.785586 -1.36625 0
M  V30 42 C 5.3443 1.92964 -1.33425 0
M  V30 43 C 6.3603 1.72394 -0.235851 0
M  V30 44 O 7.5363 1.95866 -0.468878 0
M  V30 45 C 4.6013 3.27884 -1.12662 0
M  V30 46 C 3.6623 3.61204 -2.32013 0
M  V30 47 C 2.8953 4.89687 -2.12231 0
M  V30 48 O 3.1183 5.59704 -1.09945 0
M  V30 49 O 2.0523 5.21752 -3.00098 0
M  V30 50 H 5.8783 1.98613 -2.29753 0
M  V30 51 H 3.4633 0.926384 -1.17211 0
M  V30 52 H 5.3453 4.08614 -1.03016 0
M  V30 53 H 4.0203 3.23118 -0.193991 0
M  V30 54 H 2.9273 2.80765 -2.47228 0
M  V30 55 H 4.2603 3.70698 -3.23796 0
M  V30 56 N 5.9124 1.20967 1.01018 0
M  V30 57 C 7.1894 0.93264 1.71934 0
M  V30 58 C 7.5694 -0.55692 2.03621 0
M  V30 59 O 6.9174 -1.52035 1.7058 0
M  V30 60 C 7.1274 1.81233 2.98254 0
M  V30 61 C 8.4754 2.05804 3.71389 0
M  V30 62 O 9.4994 1.78539 3.08225 0
M  V30 63 O 8.3584 2.51888 4.84989 0
M  V30 64 H 5.4524 0.349272 0.749625 0
M  V30 65 H 7.9984 1.31871 1.06808 0
M  V30 66 H 6.7704 2.82067 2.71208 0
M  V30 67 H 6.3934 1.42674 3.7112 0
M  V30 68 N 7.3905 -1.2043 1.01659 0
M  V30 69 C 8.6365 -1.90079 0.706963 0
M  V30 70 C 8.9695 -1.78648 -0.761474 0
M  V30 71 O 8.2445 -1.17069 -1.55323 0
M  V30 72 C 8.5275 -3.41469 1.14327 0
M  V30 73 C 8.3805 -3.61833 2.67201 0
M  V30 74 C 9.6995 -4.34261 0.714529 0
M  V30 75 H 6.8185 -0.690254 0.2583 0
M  V30 76 H 9.4605 -1.41826 1.26433 0
M  V30 77 H 7.6105 -3.82696 0.669056 0
M  V30 78 H 9.2825 -3.2986 3.22475 0
M  V30 79 H 7.5255 -3.05304 3.08175 0
M  V30 80 H 8.1965 -4.67955 2.92783 0
M  V30 81 H 10.6725 -4.00682 1.12221 0
M  V30 82 H 9.5485 -5.38806 1.04784 0
M  V30 83 H 9.8095 -4.40431 -0.383799 0
M  V30 84 N 8.8686 -0.792821 -1.36206 0
M  V30 85 C 9.8006 -0.151469 -2.28699 0
M  V30 86 C 10.8136 0.641262 -1.49638 0
M  V30 87 O 12.0026 0.475885 -1.72039 0
M  V30 88 C 9.1026 0.808424 -3.29117 0
M  V30 89 C 8.2756 0.0650202 -4.37352 0
M  V30 90 C 7.3346 0.941358 -5.17711 0
M  V30 91 O 6.3606 0.397352 -5.67811 0
M  V30 92 N 7.5626 2.2652 -5.3448 0
M  V30 93 H 10.3276 -0.945982 -2.84379 0
M  V30 94 H 7.8886 -0.647032 -1.48409 0
M  V30 95 H 9.8806 1.3986 -3.79765 0
M  V30 96 H 8.4506 1.5038 -2.74052 0
M  V30 97 H 7.6706 -0.706255 -3.87822 0
M  V30 98 H 8.9586 -0.447847 -5.06825 0
M  V30 99 H 8.3566 2.73128 -4.95396 0
M  V30 100 H 6.9136 2.80493 -5.88359 0
M  V30 101 N 10.3467 1.47872 -0.545128 0
M  V30 102 C 11.3097 2.28337 0.198717 0
M  V30 103 C 12.3097 1.36255 0.853888 0
M  V30 104 O 13.4997 1.59003 0.711606 0
M  V30 105 C 10.6317 3.15585 1.28915 0
M  V30 106 H 11.8247 2.95567 -0.507941 0
M  V30 107 H 9.3777 1.53362 -0.301616 0
M  V30 108 H 10.1127 2.53019 2.02859 0
M  V30 109 H 9.8977 3.83337 0.824309 0
M  V30 110 H 11.3877 3.76243 1.81194 0
M  V30 111 N 11.8248 0.280983 1.55075 0
M  V30 112 C 12.7548 -0.597469 2.25727 0
M  V30 113 C 13.7358 -1.15417 1.24952 0
M  V30 114 O 14.9208 -1.18722 1.53684 0
M  V30 115 C 12.0508 -1.7789 2.98283 0
M  V30 116 C 11.0048 -1.35347 4.06036 0
M  V30 117 C 10.3308 -2.61846 4.66198 0
M  V30 118 C 11.6308 -0.499354 5.19907 0
M  V30 119 H 13.3248 -0.00824265 2.99399 0
M  V30 120 H 10.8708 -0.0025244 1.44 0
M  V30 121 H 12.8238 -2.39937 3.46422 0
M  V30 122 H 11.5478 -2.39405 2.22155 0
M  V30 123 H 10.2068 -0.756156 3.58717 0
M  V30 124 H 9.8548 -3.21632 3.86732 0
M  V30 125 H 9.5548 -2.3409 5.38958 0
M  V30 126 H 11.0788 -3.24732 5.1709 0
M  V30 127 H 12.4928 -1.02498 5.64063 0
M  V30 128 H 10.8898 -0.316424 5.99265 0
M  V30 129 H 11.9598 0.480459 4.82514 0
M  V30 130 N 13.3029 -1.57598 0.00835791 0
M  V30 131 C 14.5489 -1.91211 -0.675732 0
M  V30 132 C 14.8819 -0.883139 -1.72958 0
M  V30 133 O 14.1569 0.097016 -1.94258 0
M  V30 134 C 14.4399 -3.35379 -1.31123 0
M  V30 135 C 14.2929 -4.48999 -0.268356 0
M  V30 136 C 15.6119 -3.7912 -2.23508 0
M  V30 137 H 12.7309 -0.695374 -0.244179 0
M  V30 138 H 15.3729 -1.89901 0.0613655 0
M  V30 139 H 13.5229 -3.36626 -1.93946 0
M  V30 140 H 15.1949 -4.59887 0.360844 0
M  V30 141 H 13.4379 -4.31873 0.408482 0
M  V30 142 H 14.1089 -5.46851 -0.752218 0
M  V30 143 H 16.5849 -3.79477 -1.70693 0
M  V30 144 H 15.4609 -4.80729 -2.64936 0
M  V30 145 H 15.7219 -3.13455 -3.11766 0
M  V30 146 N 14.781 0.264519 -1.55364 0
M  V30 147 C 16.027 0.99646 -1.76631 0
M  V30 148 C 16.36 1.85632 -0.570478 0
M  V30 149 O 15.635 1.89647 0.43175 0
M  V30 150 C 15.918 1.87187 -3.07625 0
M  V30 151 C 15.771 1.04138 -4.37579 0
M  V30 152 C 17.09 2.85749 -3.34717 0
M  V30 153 H 14.209 0.360841 -0.642622 0
M  V30 154 H 16.851 0.268218 -1.88097 0
M  V30 155 H 15.001 2.49279 -2.9798 0
M  V30 156 H 16.673 0.440517 -4.59192 0
M  V30 157 H 14.916 0.345115 -4.32425 0
M  V30 158 H 15.587 1.68729 -5.2558 0
M  V30 159 H 18.063 2.33793 -3.4421 0
M  V30 160 H 16.939 3.44136 -4.27623 0
M  V30 161 H 17.2 3.61311 -2.54768 0
M  V30 162 N 16.2591 1.48442 0.529413 0
M  V30 163 C 17.5361 1.46978 1.29062 0
M  V30 164 C 17.9161 0.181769 2.10316 0
M  V30 165 O 17.2641 -0.836481 2.12639 0
M  V30 166 C 17.4741 2.7321 2.17157 0
M  V30 167 C 18.8221 3.21562 2.77278 0
M  V30 168 O 19.8461 2.74131 2.27444 0
M  V30 169 O 18.7051 4.04094 3.67927 0
M  V30 170 H 15.7991 0.587003 0.582543 0
M  V30 171 H 18.3451 1.60676 0.546021 0
M  V30 172 H 17.1171 3.58465 1.56903 0
M  V30 173 H 16.7401 2.62235 2.98862 0
M  V30 174 N 17.7372 -0.778329 1.37039 0
M  V30 175 C 18.6852 -1.91278 1.32345 0
M  V30 176 C 19.6792 -1.68051 0.213331 0
M  V30 177 O 20.8852 -1.75922 0.38098 0
M  V30 178 H 17.2602 -0.628909 0.412283 0
M  V30 179 H 19.2312 -1.92355 2.28127 0
M  V30 180 C 17.9802 -3.28455 1.14073 0
M  V30 181 H 17.3032 -3.46901 1.98746 0
M  V30 182 H 18.7432 -4.08152 1.14837 0
M  V30 183 C 17.2022 -3.36548 -0.154015 0
M  V30 184 O 17.7322 -3.85186 -1.13993 0
M  V30 185 N 15.9382 -2.89894 -0.202475 0
M  V30 186 H 15.4852 -2.50504 0.600476 0
M  V30 187 H 15.4432 -2.9569 -1.06841 0
M  V30 188 N 19.2153 -1.21501 -1.00376 0
M  V30 189 C 20.4633 -1.03095 -1.73827 0
M  V30 190 C 20.7843 0.436341 -1.90055 0
M  V30 191 O 20.0543 1.31466 -1.45236 0
M  V30 192 H 18.6343 -0.378487 -0.644016 0
M  V30 193 H 21.2963 -1.52831 -1.20949 0
M  V30 194 H 20.3923 -1.49991 -2.73695 0
M  V30 195 N 20.6934 1.19889 -1.02296 0
M  V30 196 C 21.9184 1.9393 -0.735237 0
M  V30 197 C 22.3434 1.74639 0.698782 0
M  V30 198 O 21.7014 1.04481 1.48167 0
M  V30 199 C 21.7494 3.43916 -1.08417 0
M  V30 200 O 20.8534 4.11917 -0.199446 0
M  V30 201 H 20.1944 0.605645 -0.272196 0
M  V30 202 H 22.7244 1.52137 -1.36804 0
M  V30 203 H 22.7344 3.9456 -1.03856 0
M  V30 204 H 21.4094 3.5728 -2.12894 0
M  V30 205 H 19.9864 3.71666 -0.303136 0
M  V30 206 N 22.1715 0.800033 1.35784 0
M  V30 207 C 23.4195 0.376597 1.9856 0
M  V30 208 C 23.7405 -1.05812 1.63795 0
M  V30 209 O 23.0105 -1.73103 0.917171 0
M  V30 210 H 21.5905 0.136261 0.734467 0
M  V30 211 H 24.2525 1.02442 1.65806 0
M  V30 212 H 23.3485 0.477002 3.08433 0
M  V30 213 N 23.6496 -1.47581 0.552962 0
M  V30 214 C 24.5976 -2.31648 -0.21023 0
M  V30 215 C 25.5916 -1.42663 -0.913432 0
M  V30 216 O 26.7976 -1.5945 -0.835201 0
M  V30 217 H 23.1726 -0.746989 -0.0866676 0
M  V30 218 H 25.1436 -2.93869 0.518051 0
M  V30 219 C 23.8926 -3.25226 -1.22976 0
M  V30 220 H 23.2156 -3.93658 -0.698077 0
M  V30 221 H 24.6556 -3.86889 -1.73473 0
M  V30 222 C 23.1146 -2.48448 -2.27542 0
M  V30 223 O 23.6446 -2.22585 -3.34393 0
M  V30 224 N 21.8506 -2.09532 -2.01357 0
M  V30 225 H 21.3976 -2.30765 -1.14478 0
M  V30 226 H 21.3556 -1.58476 -2.71538 0
M  V30 227 N 25.1277 -0.289203 -1.54924 0
M  V30 228 C 26.3737 0.323998 -2.00195 0
M  V30 229 C 26.7067 1.54441 -1.17735 0
M  V30 230 O 25.9817 1.92875 -0.250878 0
M  V30 231 C 26.2647 0.692276 -3.53383 0
M  V30 232 C 26.1177 -0.536457 -4.46589 0
M  V30 233 C 27.4367 1.52335 -4.12895 0
M  V30 234 H 24.5557 0.116289 -0.727768 0
M  V30 235 H 27.1977 -0.398954 -1.85764 0
M  V30 236 H 25.3477 1.30822 -3.65811 0
M  V30 237 H 27.0197 -1.17499 -4.46085 0
M  V30 238 H 25.2627 -1.17192 -4.1767 0
M  V30 239 H 25.9337 -0.234806 -5.515 0
M  V30 240 H 28.4097 1.00302 -4.0383 0
M  V30 241 H 27.2857 1.74982 -5.20262 0
M  V30 242 H 27.5467 2.50886 -3.64018 0
M  V30 243 N 26.6058 1.57591 -0.0167156 0
M  V30 244 C 27.5528 2.09462 0.969251 0
M  V30 245 C 28.5228 0.99381 1.33089 0
M  V30 246 O 29.7078 1.26726 1.42636 0
M  V30 247 C 26.8478 2.61622 2.25051 0
M  V30 248 C 25.9608 3.85666 1.94642 0
M  V30 249 C 25.0958 4.26266 3.16972 0
M  V30 250 C 24.1348 5.43101 2.82326 0
M  V30 251 N 23.2718 5.78915 3.97243 0
M  V30 252 H 28.1118 2.93428 0.519997 0
M  V30 253 H 25.6488 1.45044 0.245087 0
M  V30 254 H 27.6068 2.89949 2.99976 0
M  V30 255 H 26.2368 1.80505 2.67615 0
M  V30 256 H 25.2888 3.64145 1.10013 0
M  V30 257 H 26.6008 4.70678 1.65117 0
M  V30 258 H 25.7548 4.55963 4.00228 0
M  V30 259 H 24.4938 3.39996 3.49648 0
M  V30 260 H 23.4988 5.1311 1.97479 0
M  V30 261 H 24.7238 6.3106 2.50879 0
M  V30 262 H 22.6698 4.95602 4.29785 0
M  V30 263 H 22.5868 6.58539 3.71299 0
M  V30 264 H 23.8548 6.13212 4.81239 0
M  V30 265 N 28.0839 -0.256276 1.55502 0
M  V30 266 C 29.0469 -1.30047 1.88734 0
M  V30 267 C 30.0469 -1.4154 0.763086 0
M  V30 268 O 31.2369 -1.40403 1.03115 0
M  V30 269 C 28.3689 -2.67953 2.10747 0
M  V30 270 H 29.5619 -1.01802 2.82093 0
M  V30 271 H 27.1149 -0.495134 1.4825 0
M  V30 272 H 27.8499 -3.01351 1.19825 0
M  V30 273 H 27.6349 -2.60993 2.92617 0
M  V30 274 H 29.1249 -3.43368 2.37673 0
M  V30 275 N 29.562 -1.4872 -0.521534 0
M  V30 276 C 30.81 -1.56857 -1.27437 0
M  V30 277 C 31.131 -0.247982 -1.93417 0
M  V30 278 O 30.401 0.731151 -1.81744 0
M  V30 279 H 28.981 -0.577885 -0.473347 0
M  V30 280 H 31.643 -1.85233 -0.606205 0
M  V30 281 H 30.739 -2.35402 -2.0492 0
M  V30 282 N 31.0401 0.771051 -1.3745 0
M  V30 283 C 32.2861 1.5319 -1.32894 0
M  V30 284 C 32.6191 1.94008 0.0862511 0
M  V30 285 O 31.8941 1.64124 1.04373 0
M  V30 286 C 32.1771 2.79648 -2.26868 0
M  V30 287 C 32.0301 2.45079 -3.77169 0
M  V30 288 C 33.3491 3.81583 -2.19277 0
M  V30 289 H 30.4681 0.555744 -0.484064 0
M  V30 290 H 33.1101 0.884492 -1.68157 0
M  V30 291 H 31.2601 3.34891 -1.96926 0
M  V30 292 H 32.9321 1.95745 -4.1771 0
M  V30 293 H 31.1751 1.77767 -3.95704 0
M  V30 294 H 31.8461 3.35478 -4.38359 0
M  V30 295 H 34.3221 3.35835 -2.45671 0
M  V30 296 H 33.1981 4.67787 -2.87171 0
M  V30 297 H 33.4591 4.25897 -1.18592 0
M  V30 298 N 32.5182 1.22032 0.997298 0
M  V30 299 C 33.4812 0.987909 2.06816 0
M  V30 300 C 34.4812 -0.0440084 1.6074 0
M  V30 301 O 35.6712 0.194053 1.73116 0
M  V30 302 C 32.8032 0.49132 3.37341 0
M  V30 303 H 33.9962 1.93803 2.28868 0
M  V30 304 H 31.5492 1.03838 1.16822 0
M  V30 305 H 32.2842 -0.463364 3.20973 0
M  V30 306 H 32.0692 1.23575 3.72118 0
M  V30 307 H 33.5592 0.348824 4.16141 0
M  V30 308 N 33.9963 -1.19345 1.0293 0
M  V30 309 C 35.2443 -1.88665 0.724574 0
M  V30 310 C 35.5653 -1.80036 -0.749144 0
M  V30 311 O 34.8353 -1.2111 -1.53978 0
M  V30 312 H 33.4153 -0.698406 0.265025 0
M  V30 313 H 36.0773 -1.44885 1.30362 0
M  V30 314 H 35.1733 -2.94987 1.01926 0
M  V30 315 N 35.4744 -0.807222 -1.35358 0
M  V30 316 C 36.7514 -0.311126 -1.9311 0
M  V30 317 C 37.1314 1.19937 -1.73719 0
M  V30 318 O 36.4794 1.99918 -1.10657 0
M  V30 319 C 36.6894 -0.723226 -3.41424 0
M  V30 320 C 38.0374 -0.713078 -4.18569 0
M  V30 321 O 39.0614 -0.664811 -3.49941 0
M  V30 322 O 37.9204 -0.772022 -5.41019 0
M  V30 323 H 35.0144 -0.081526 -0.822972 0
M  V30 324 H 37.5604 -0.890962 -1.4443 0
M  V30 325 H 36.3324 -1.76426 -3.4927 0
M  V30 326 H 35.9554 -0.118232 -3.97424 0
M  V30 327 N 36.9525 1.47285 -0.560781 0
M  V30 328 C 38.2295 1.9558 0.0277798 0
M  V30 329 C 38.6095 1.5034 1.48192 0
M  V30 330 O 37.9575 0.743882 2.16052 0
M  V30 331 C 38.1675 3.48789 -0.121418 0
M  V30 332 C 39.5155 4.24594 0.0220912 0
M  V30 333 O 40.5395 3.56166 -0.0491439 0
M  V30 334 O 39.3985 5.46217 0.175958 0
M  V30 335 H 36.4925 0.824663 0.0621342 0
M  V30 336 H 39.0385 1.5767 -0.627556 0
M  V30 337 H 37.8105 3.74533 -1.13316 0
M  V30 338 H 37.4335 3.93473 0.571366 0
M  V30 339 N 38.4306 0.297415 1.54768 0
M  V30 340 C 39.3936 -0.567375 2.22066 0
M  V30 341 C 40.3936 -1.06409 1.20556 0
M  V30 342 O 41.5836 -0.960691 1.45315 0
M  V30 343 C 38.7156 -1.78517 2.90421 0
M  V30 344 H 39.9086 0.0205534 2.99893 0
M  V30 345 H 37.4616 0.0482163 1.56226 0
M  V30 346 H 38.1966 -2.41303 2.16664 0
M  V30 347 H 37.9816 -1.43669 3.64831 0
M  V30 348 H 39.4716 -2.39964 3.41771 0
M  V30 349 N 39.9087 -1.5758 0.0250728 0
M  V30 350 C 41.3197 -1.79476 -0.514323 0
M  V30 351 C 41.6707 -0.934956 -1.72491 0
M  V30 352 O 40.7957 -0.144245 -2.15919 0
M  V30 353 C 41.3907 -3.25503 -0.939842 0
M  V30 354 C 39.9497 -3.48408 -1.42438 0
M  V30 355 C 39.0967 -2.74583 -0.387201 0
M  V30 356 H 42.0477 -1.567 0.25113 0
M  V30 357 H 42.0687 -3.34992 -1.80445 0
M  V30 358 H 41.5807 -3.88056 -0.0585628 0
M  V30 359 H 39.6817 -2.91103 -2.32572 0
M  V30 360 H 39.7947 -4.57119 -1.43455 0
M  V30 361 H 38.1587 -2.39942 -0.854409 0
M  V30 362 H 38.9417 -3.39849 0.485543 0
M  V30 363 N 41.3868 0.248026 -1.55636 0
M  V30 364 C 42.8028 0.596483 -1.48035 0
M  V30 365 C 43.0028 1.88386 -0.715039 0
M  V30 366 O 42.0588 2.51319 -0.243944 0
M  V30 367 C 43.3718 0.700258 -2.92433 0
M  V30 368 C 44.9198 0.792659 -3.02797 0
M  V30 369 C 45.3948 0.928005 -4.485 0
M  V30 370 N 46.8858 0.992903 -4.52433 0
M  V30 371 C 47.6208 1.11687 -5.62418 0
M  V30 372 N 47.1168 1.20645 -6.82214 0
M  V30 373 N 48.9098 1.14994 -5.50212 0
M  V30 374 H 41.0608 -0.597109 -2.03834 0
M  V30 375 H 43.3238 -0.205925 -0.925364 0
M  V30 376 H 43.0298 -0.175658 -3.51261 0
M  V30 377 H 42.9038 1.57255 -3.42857 0
M  V30 378 H 45.2908 1.65903 -2.4405 0
M  V30 379 H 45.3718 -0.104762 -2.55585 0
M  V30 380 H 45.0158 0.0661971 -5.07857 0
M  V30 381 H 44.9458 1.84045 -4.93391 0
M  V30 382 H 47.4368 0.935064 -3.66149 0
M  V30 383 H 47.7498 1.30008 -7.61786 0
M  V30 384 H 46.0948 1.17605 -6.84977 0
M  V30 385 H 49.2858 1.07643 -4.55555 0
M  V30 386 H 49.4588 1.24311 -6.35965 0
M  V30 387 N 42.8649 1.48995 0.513639 0
M  V30 388 C 44.0899 1.61792 1.29762 0
M  V30 389 C 44.5149 0.284475 1.85936 0
M  V30 390 O 43.8729 -0.746185 1.65232 0
M  V30 391 C 43.9209 2.67993 2.41272 0
M  V30 392 O 43.0249 2.26287 3.44772 0
M  V30 393 H 42.3659 0.541963 0.38363 0
M  V30 394 H 44.8959 1.95097 0.616307 0
M  V30 395 H 44.9059 2.89772 2.87221 0
M  V30 396 H 43.5809 3.64791 1.9975 0
M  V30 397 H 42.1579 2.14788 3.04829 0
M  V30 398 N 44.343 -0.763751 1.37857 0
M  V30 399 C 45.589 -1.52483 1.33704 0
M  V30 400 C 45.922 -1.94051 -0.0759612 0
M  V30 401 O 45.197 -1.64675 -1.03501 0
M  V30 402 C 45.48 -2.78441 2.28348 0
M  V30 403 C 45.333 -2.43075 3.78463 0
M  V30 404 C 46.652 -3.80415 2.21298 0
M  V30 405 H 43.771 -0.553169 0.487005 0
M  V30 406 H 46.413 -0.875562 1.68624 0
M  V30 407 H 44.563 -3.33842 1.987 0
M  V30 408 H 46.235 -1.93527 4.18742 0
M  V30 409 H 44.478 -1.75666 3.96641 0
M  V30 410 H 45.149 -3.33149 4.40132 0
M  V30 411 H 47.625 -3.34527 2.47449 0
M  V30 412 H 46.501 -4.66257 2.89647 0
M  V30 413 H 46.762 -4.25262 1.20849 0
M  V30 414 N 45.8211 -1.22559 -0.990812 0
M  V30 415 C 47.0681 -1.05141 -1.73065 0
M  V30 416 C 47.3961 0.413191 -1.9006 0
M  V30 417 O 46.6511 1.32257 -1.44245 0
M  V30 418 C 46.9501 -1.71011 -3.13831 0
M  V30 419 C 46.6161 -3.20911 -3.16745 0
M  V30 420 C 45.2781 -3.61812 -3.17247 0
M  V30 421 C 47.6301 -4.16846 -3.12872 0
M  V30 422 C 44.9581 -4.97127 -3.1158 0
M  V30 423 C 47.3101 -5.5214 -3.08746 0
M  V30 424 C 45.9741 -5.92419 -3.07565 0
M  V30 425 H 45.2441 -0.384738 -0.633291 0
M  V30 426 H 47.8911 -1.5235 -1.16025 0
M  V30 427 H 46.1961 -1.16133 -3.74193 0
M  V30 428 H 47.8931 -1.55023 -3.69823 0
M  V30 429 H 44.4831 -2.88344 -3.17105 0
M  V30 430 H 48.6671 -3.86263 -3.11632 0
M  V30 431 H 43.9231 -5.27562 -3.09012 0
M  V30 432 H 48.0971 -6.26201 -3.04705 0
M  V30 433 H 45.7241 -6.97236 -3.02929 0
M  V30 434 N 47.2992 1.18797 -1.03562 0
M  V30 435 C 48.7102 1.70322 -0.764676 0
M  V30 436 C 49.0612 1.82708 0.714996 0
M  V30 437 O 48.1862 1.50299 1.55689 0
M  V30 438 C 48.7812 3.09356 -1.38145 0
M  V30 439 C 47.3402 3.58114 -1.15895 0
M  V30 440 C 46.4872 2.34798 -1.4753 0
M  V30 441 H 49.4382 1.03543 -1.20268 0
M  V30 442 H 49.4592 3.72378 -0.781977 0
M  V30 443 H 48.9712 3.00309 -2.45837 0
M  V30 444 H 47.0722 3.72464 -0.100544 0
M  V30 445 H 47.1852 4.4184 -1.8524 0
M  V30 446 H 45.5492 2.38464 -0.894829 0
M  V30 447 H 46.3322 2.28375 -2.56319 0
M  V30 448 N 48.7773 0.814389 1.34928 0
M  V30 449 C 50.0023 0.410097 2.03305 0
M  V30 450 C 50.4273 -0.973464 1.60951 0
M  V30 451 O 49.7853 -1.63185 0.789964 0
M  V30 452 C 49.8333 0.51049 3.56968 0
M  V30 453 O 48.9373 -0.473035 4.09678 0
M  V30 454 H 48.2783 0.170088 0.641846 0
M  V30 455 H 50.8083 1.10244 1.72358 0
M  V30 456 H 50.8183 0.383135 4.06197 0
M  V30 457 H 49.4933 1.51963 3.87144 0
M  V30 458 H 48.0703 -0.305272 3.71648 0
M  V30 459 N 50.2554 -1.46986 0.568584 0
M  V30 460 C 51.5044 -2.01646 0.0465894 0
M  V30 461 C 51.8174 -1.44721 -1.31587 0
M  V30 462 O 53.0234 -1.91113 -1.92842 0
M  V30 463 C 51.4794 -3.59885 0.032752 0
M  V30 464 C 51.0874 -4.25804 1.39266 0
M  V30 465 C 52.8314 -4.22255 -0.436038 0
M  V30 466 C 50.7384 -5.76081 1.33732 0
M  V30 467 H 49.6684 -0.753876 0.013647 0
M  V30 468 H 52.3194 -1.68864 0.718131 0
M  V30 469 H 50.7014 -3.8968 -0.704669 0
M  V30 470 H 51.8754 -4.07637 2.1487 0
M  V30 471 H 50.1904 -3.7547 1.80032 0
M  V30 472 H 52.7874 -5.32394 -0.49602 0
M  V30 473 H 53.1304 -3.90212 -1.45053 0
M  V30 474 H 53.6634 -3.97033 0.246877 0
M  V30 475 H 50.4024 -6.12761 2.32817 0
M  V30 476 H 49.9224 -5.96553 0.623267 0
M  V30 477 H 51.6014 -6.38518 1.0442 0
M  V30 478 N 51.7335 -0.305618 -1.54608 0
M  V30 479 C 52.9795 0.302746 -2.00528 0
M  V30 480 C 53.3125 1.53184 -1.19367 0
M  V30 481 O 52.5875 1.92598 -0.271321 0
M  V30 482 C 52.8705 0.654756 -3.54097 0
M  V30 483 C 52.7235 -0.583793 -4.45995 0
M  V30 484 C 54.0425 1.47947 -4.14487 0
M  V30 485 H 51.1615 0.108564 -0.72896 0
M  V30 486 H 53.8035 -0.418634 -1.85331 0
M  V30 487 H 51.9535 1.26935 -3.67178 0
M  V30 488 H 53.6255 -1.22224 -4.44814 0
M  V30 489 H 51.8685 -1.21615 -4.16404 0
M  V30 490 H 52.5395 -0.293287 -5.5122 0
M  V30 491 H 55.0155 0.96013 -4.04871 0
M  V30 492 H 53.8915 1.69454 -5.22088 0
M  V30 493 H 54.1525 2.47011 -3.66658 0
M  V30 494 N 53.2116 1.57565 -0.0334293 0
M  V30 495 C 54.4596 1.91598 0.642999 0
M  V30 496 C 54.7806 0.910847 1.7242 0
M  V30 497 O 54.0506 -0.0469931 1.95844 0
M  V30 498 H 52.6306 0.707228 0.240496 0
M  V30 499 H 55.2926 1.94726 -0.0822488 0
M  V30 500 H 54.3886 2.92336 1.09298 0
M  V30 501 N 54.6897 -0.239769 1.55765 0
M  V30 502 C 56.1057 -0.588624 1.48349 0
M  V30 503 C 56.3057 -1.88005 0.72502 0
M  V30 504 O 55.3617 -2.51186 0.257269 0
M  V30 505 C 56.6747 -0.68474 2.928 0
M  V30 506 C 58.2227 -0.77659 3.03213 0
M  V30 507 C 58.6977 -0.904207 4.48986 0
M  V30 508 N 60.1887 -0.968896 4.52953 0
M  V30 509 C 60.9237 -1.08703 5.63002 0
M  V30 510 N 60.4197 -1.17026 6.82845 0
M  V30 511 N 62.2127 -1.12074 5.50814 0
M  V30 512 H 54.3637 0.607911 2.03515 0
M  V30 513 H 56.6267 0.21083 0.924259 0
M  V30 514 H 56.3327 0.194284 3.51163 0
M  V30 515 H 56.2067 -1.55435 3.43686 0
M  V30 516 H 58.5937 -1.64606 2.44926 0
M  V30 517 H 58.6747 0.118315 2.55526 0
M  V30 518 H 58.3187 -0.0392633 5.07885 0
M  V30 519 H 58.2487 -1.81426 4.9436 0
M  V30 520 H 60.7397 -0.915633 3.6664 0
M  V30 521 H 61.0527 -1.25966 7.62465 0
M  V30 522 H 59.3977 -1.13971 6.85591 0
M  V30 523 H 62.5887 -1.05226 4.5612 0
M  V30 524 H 62.7617 -1.20936 6.36615 0
M  V30 525 N 56.1678 -1.49265 -0.50573 0
M  V30 526 C 57.5788 -1.51769 -1.08734 0
M  V30 527 C 57.9298 -0.301192 -1.93874 0
M  V30 528 O 57.0548 0.589456 -2.08217 0
M  V30 529 C 57.6498 -2.75017 -1.97867 0
M  V30 530 C 56.2088 -2.80314 -2.51199 0
M  V30 531 C 55.3558 -2.4562 -1.28709 0
M  V30 532 H 58.3068 -1.56031 -0.289855 0
M  V30 533 H 58.3278 -2.5491 -2.82491 0
M  V30 534 H 57.8398 -3.63539 -1.35873 0
M  V30 535 H 55.9408 -1.96061 -3.16845 0
M  V30 536 H 56.0538 -3.82366 -2.88675 0
M  V30 537 H 54.4178 -1.97297 -1.61078 0
M  V30 538 H 55.2008 -3.36411 -0.6843 0
M  V30 539 N 57.6459 0.756429 -1.3826 0
M  V30 540 C 58.5929 1.87011 -1.35261 0
M  V30 541 C 59.5629 1.64695 -0.215616 0
M  V30 542 O 60.7479 1.864 -0.407399 0
M  V30 543 C 57.8879 3.24275 -1.18068 0
M  V30 544 C 57.0009 3.58442 -2.41129 0
M  V30 545 C 56.1359 4.84994 -2.16689 0
M  V30 546 C 55.1749 5.11939 -3.35537 0
M  V30 547 N 54.3119 6.29685 -3.10549 0
M  V30 548 H 59.1519 1.8891 -2.30472 0
M  V30 549 H 56.6889 0.923373 -1.14509 0
M  V30 550 H 58.6469 4.03479 -1.06116 0
M  V30 551 H 57.2769 3.21711 -0.264973 0
M  V30 552 H 56.3289 2.74103 -2.63764 0
M  V30 553 H 57.6409 3.74283 -3.29717 0
M  V30 554 H 56.7949 5.72135 -2.01857 0
M  V30 555 H 55.5339 4.71286 -1.25462 0
M  V30 556 H 54.5389 4.23268 -3.50891 0
M  V30 557 H 55.7639 5.27546 -4.27635 0
M  V30 558 H 53.7099 6.17306 -2.21967 0
M  V30 559 H 53.6269 6.46014 -3.92686 0
M  V30 560 H 54.8949 7.19722 -2.99367 0
M  V30 561 N 59.124 1.23083 0.984299 0
M  V30 562 C 60.072 1.00593 2.09723 0
M  V30 563 C 61.066 -0.0538014 1.69315 0
M  V30 564 O 62.272 0.0993719 1.79725 0
M  V30 565 H 58.647 0.30817 0.685956 0
M  V30 566 H 60.618 1.95012 2.2586 0
M  V30 567 C 59.367 0.609601 3.42314 0
M  V30 568 H 58.69 1.41675 3.73856 0
M  V30 569 H 60.13 0.491726 4.21139 0
M  V30 570 C 58.589 -0.681745 3.2993 0
M  V30 571 O 59.119 -1.73192 3.62446 0
M  V30 572 N 57.325 -0.656178 2.83095 0
M  V30 573 H 56.872 0.198759 2.56832 0
M  V30 574 H 56.83 -1.52044 2.75191 0
M  V30 575 N 60.6021 -1.18246 1.0419 0
M  V30 576 C 62.0131 -1.69914 0.773698 0
M  V30 577 C 62.3641 -1.83085 -0.705297 0
M  V30 578 O 61.4891 -1.51123 -1.5489 0
M  V30 579 C 62.0841 -3.08619 1.39784 0
M  V30 580 C 60.6431 -3.57494 1.17792 0
M  V30 581 C 59.7901 -2.34013 1.48773 0
M  V30 582 H 62.7411 -1.02904 1.20816 0
M  V30 583 H 62.7621 -3.71958 0.801714 0
M  V30 584 H 62.2741 -2.99001 2.47426 0
M  V30 585 H 60.3751 -3.72406 0.120295 0
M  V30 586 H 60.4881 -4.40852 1.87581 0
M  V30 587 H 58.8521 -2.37986 0.907463 0
M  V30 588 H 59.6351 -2.27013 2.57527 0
M  V30 589 N 62.0802 -0.821533 -1.34494 0
M  V30 590 C 63.3282 -0.408139 -1.97936 0
M  V30 591 C 63.6492 1.03193 -1.65457 0
M  V30 592 O 62.9192 1.71622 -0.944595 0
M  V30 593 H 61.4992 -0.147928 -0.732206 0
M  V30 594 H 64.1612 -1.05067 -1.64155 0
M  V30 595 H 63.2572 -0.52601 -3.07635 0
M  V30 596 N 63.5583 1.46682 -0.576371 0
M  V30 597 C 64.8073 2.01619 -0.0572825 0
M  V30 598 C 65.1203 1.45417 1.30818 0
M  V30 599 O 66.3263 1.92133 1.91825 0
M  V30 600 C 64.7823 3.59863 -0.0518371 0
M  V30 601 C 64.3903 4.25059 -1.41523 0
M  V30 602 C 66.1343 4.2248 0.413639 0
M  V30 603 C 64.0413 5.75364 -1.36785 0
M  V30 604 H 62.9713 0.753794 -0.0176448 0
M  V30 605 H 65.6223 1.68481 -0.727076 0
M  V30 606 H 64.0043 3.90048 0.683994 0
M  V30 607 H 65.1783 4.06491 -2.17029 0
M  V30 608 H 63.4933 3.7451 -1.8202 0
M  V30 609 H 66.0903 5.3265 0.467779 0
M  V30 610 H 66.4333 3.90976 1.42982 0
M  V30 611 H 66.9663 3.96897 -0.267929 0
M  V30 612 H 63.7053 6.11518 -2.36063 0
M  V30 613 H 63.2253 5.96214 -0.654895 0
M  V30 614 H 64.9043 6.37955 -1.07805 0
M  V30 615 N 65.0364 0.313813 1.54444 0
M  V30 616 C 65.9694 -0.598866 2.20202 0
M  V30 617 C 66.9474 -1.12318 1.17573 0
M  V30 618 O 68.1314 -1.18899 1.46271 0
M  V30 619 C 65.2584 -1.82071 2.85601 0
M  V30 620 C 64.3044 -1.42851 4.01865 0
M  V30 621 S 65.1374 -0.473512 5.33402 0
M  V30 622 C 66.2934 -1.70286 6.0229 0
M  V30 623 H 66.5264 -0.0402532 2.97273 0
M  V30 624 H 64.0594 0.0979165 1.54089 0
M  V30 625 H 66.0174 -2.52184 3.23904 0
M  V30 626 H 64.6784 -2.3505 2.08351 0
M  V30 627 H 63.8714 -2.33871 4.46453 0
M  V30 628 H 63.4734 -0.807198 3.65185 0
M  V30 629 H 65.7654 -2.64168 6.23876 0
M  V30 630 H 66.7084 -1.29932 6.96077 0
M  V30 631 H 67.1164 -1.88541 5.32083 0
M  V30 632 N 66.5145 -1.57545 0.0417849 0
M  V30 633 C 67.7605 -1.92601 -0.635021 0
M  V30 634 C 68.0935 -0.919627 -1.71045 0
M  V30 635 O 67.3685 0.0557892 -1.9442 0
M  V30 636 C 67.6515 -3.38085 -1.23979 0
M  V30 637 C 67.5045 -4.49467 -0.173057 0
M  V30 638 C 68.8235 -3.83776 -2.15416 0
M  V30 639 H 65.9425 -0.700397 -0.229374 0
M  V30 640 H 68.5845 -1.89728 0.101633 0
M  V30 641 H 66.7345 -3.40664 -1.86762 0
M  V30 642 H 68.4065 -4.59018 0.458312 0
M  V30 643 H 66.6495 -4.30909 0.499996 0
M  V30 644 H 67.3205 -5.48323 -0.636054 0
M  V30 645 H 69.7965 -3.83013 -1.62605 0
M  V30 646 H 68.6725 -4.8624 -2.54679 0
M  V30 647 H 68.9335 -3.19998 -3.05047 0
M  V30 648 N 67.9926 0.231505 -1.5589 0
M  V30 649 C 69.2406 0.955461 -1.78088 0
M  V30 650 C 69.5616 1.85262 -0.608533 0
M  V30 651 O 68.8316 1.92277 0.375035 0
M  V30 652 H 67.4116 0.355787 -0.656829 0
M  V30 653 H 70.0736 0.245751 -1.93344 0
M  V30 654 H 69.1696 1.56814 -2.69844 0
M  V30 655 N 69.4707 1.49531 0.497807 0
M  V30 656 C 70.4037 1.61043 1.6168 0
M  V30 657 C 71.3817 0.459386 1.55976 0
M  V30 658 O 72.5657 0.675358 1.75986 0
M  V30 659 C 69.6927 1.56833 3.00202 0
M  V30 660 C 68.7387 2.77173 3.24156 0
M  V30 661 S 69.5717 4.38808 3.06933 0
M  V30 662 C 70.7277 4.37248 4.47845 0
M  V30 663 H 70.9607 2.55702 1.51671 0
M  V30 664 H 68.4937 1.38462 0.683201 0
M  V30 665 H 70.4517 1.55089 3.80076 0
M  V30 666 H 69.1127 0.634561 3.07623 0
M  V30 667 H 68.3057 2.70456 4.25288 0
M  V30 668 H 67.9077 2.76346 2.5201 0
M  V30 669 H 70.1997 4.09164 5.39992 0
M  V30 670 H 71.1427 5.38668 4.59612 0
M  V30 671 H 71.5507 3.67286 4.28674 0
M  V30 672 N 70.9488 -0.749086 1.3866 0
M  V30 673 C 71.8588 -1.89358 1.38494 0
M  V30 674 C 72.8748 -1.71708 0.281476 0
M  V30 675 O 74.0508 -1.94554 0.520643 0
M  V30 676 C 71.1158 -3.24782 1.21316 0
M  V30 677 C 70.1768 -3.54926 2.41508 0
M  V30 678 C 69.4098 -4.83888 2.2514 0
M  V30 679 O 69.6328 -5.56592 1.24746 0
M  V30 680 O 68.5668 -5.13612 3.13826 0
M  V30 681 H 72.3928 -1.92452 2.34938 0
M  V30 682 H 69.9778 -0.894981 1.19626 0
M  V30 683 H 71.8598 -4.05739 1.13814 0
M  V30 684 H 70.5348 -3.2249 0.279592 0
M  V30 685 H 69.4418 -2.74112 2.54585 0
M  V30 686 H 70.7748 -3.61983 3.3351 0
M  V30 687 N 72.4269 -1.23603 -0.977757 0
M  V30 688 C 73.3369 -1.03632 -2.1047 0
M  V30 689 C 74.3529 0.0199435 -1.73989 0
M  V30 690 O 75.5289 -0.176076 -2.00629 0
M  V30 691 C 72.5939 -0.63276 -3.40877 0
M  V30 692 C 71.6549 -1.76437 -3.91367 0
M  V30 693 C 70.8879 -1.37997 -5.15551 0
M  V30 694 O 71.1109 -0.265357 -5.69782 0
M  V30 695 O 70.0449 -2.20201 -5.60174 0
M  V30 696 H 73.8709 -1.98086 -2.30208 0
M  V30 697 H 71.4559 -1.02332 -1.08851 0
M  V30 698 H 73.3379 -0.418761 -4.19314 0
M  V30 699 H 72.0129 0.282754 -3.22463 0
M  V30 700 H 70.9199 -2.03304 -3.14036 0
M  V30 701 H 72.2529 -2.6583 -4.14241 0
M  V30 702 N 73.905 1.17692 -1.04816 0
M  V30 703 C 74.852 2.21581 -0.645797 0
M  V30 704 C 75.822 1.62367 0.350159 0
M  V30 705 O 77.007 1.89254 0.242433 0
M  V30 706 C 74.147 3.45092 -0.0227568 0
M  V30 707 C 73.26 4.18613 -1.06709 0
M  V30 708 C 72.395 5.29602 -0.411767 0
M  V30 709 C 71.434 5.94904 -1.44067 0
M  V30 710 N 70.571 6.97414 -0.809781 0
M  V30 711 H 75.411 2.55353 -1.5362 0
M  V30 712 H 72.948 1.25438 -0.768364 0
M  V30 713 H 74.906 4.15679 0.35588 0
M  V30 714 H 73.536 3.11917 0.831122 0
M  V30 715 H 72.588 3.46779 -1.5636 0
M  V30 716 H 73.9 4.63293 -1.84827 0
M  V30 717 H 73.054 6.06696 0.0206623 0
M  V30 718 H 71.793 4.86045 0.401438 0
M  V30 719 H 70.798 5.16544 -1.88316 0
M  V30 720 H 72.023 6.40542 -2.25571 0
M  V30 721 H 69.969 6.55998 -0.0170186 0
M  V30 722 H 69.886 7.40386 -1.52856 0
M  V30 723 H 71.154 7.78463 -0.401999 0
M  V30 724 N 75.3831 0.828654 1.34056 0
M  V30 725 C 76.6601 0.341809 1.9259 0
M  V30 726 C 77.0401 -1.17158 1.75605 0
M  V30 727 O 76.3881 -1.98132 1.13824 0
M  V30 728 C 76.5981 0.777453 3.4023 0
M  V30 729 C 77.9461 0.779579 4.17382 0
M  V30 730 O 78.9701 0.7204 3.48839 0
M  V30 731 O 77.8291 0.857996 5.39723 0
M  V30 732 H 74.9231 0.0946085 0.821571 0
M  V30 733 H 77.4691 0.913827 1.42994 0
M  V30 734 H 76.2411 1.8196 3.46419 0
M  V30 735 H 75.8641 0.181444 3.97186 0
M  V30 736 N 76.8612 -1.46375 0.584142 0
M  V30 737 C 77.8242 -2.28784 -0.138108 0
M  V30 738 C 78.8242 -1.38471 -0.817462 0
M  V30 739 O 80.0142 -1.60833 -0.669199 0
M  V30 740 C 77.1462 -3.18892 -1.20503 0
M  V30 741 H 78.3392 -2.94117 0.586127 0
M  V30 742 H 75.8922 -1.52509 0.342171 0
M  V30 743 H 76.6272 -2.58309 -1.96079 0
M  V30 744 H 76.4122 -3.85388 -0.722384 0
M  V30 745 H 77.9022 -3.80914 -1.71155 0
M  V30 746 N 78.3393 -0.321999 -1.54275 0
M  V30 747 C 79.5863 0.281044 -2.0054 0
M  V30 748 C 79.9143 1.52265 -1.21019 0
M  V30 749 O 79.1693 1.93687 -0.279982 0
M  V30 750 C 79.4683 0.661769 -3.5122 0
M  V30 751 C 79.1343 -0.480482 -4.48333 0
M  V30 752 C 77.7963 -0.794005 -4.74604 0
M  V30 753 C 80.1483 -1.24783 -5.06042 0
M  V30 754 C 77.4763 -1.87763 -5.55844 0
M  V30 755 C 79.8283 -2.32153 -5.88462 0
M  V30 756 C 78.4923 -2.64089 -6.13036 0
M  V30 757 H 77.7623 0.102841 -0.733829 0
M  V30 758 H 80.4093 -0.445453 -1.86247 0
M  V30 759 H 78.7143 1.46867 -3.63232 0
M  V30 760 H 80.4113 1.13989 -3.84457 0
M  V30 761 H 77.0013 -0.226039 -4.28004 0
M  V30 762 H 81.1853 -1.01887 -4.85729 0
M  V30 763 H 76.4413 -2.12954 -5.73115 0
M  V30 764 H 80.6153 -2.92057 -6.32199 0
M  V30 765 H 78.2423 -3.48185 -6.75775 0
M  V30 766 N 79.8174 1.5752 -0.0501392 0
M  V30 767 C 81.0634 1.92936 0.624798 0
M  V30 768 C 81.3964 0.928685 1.70555 0
M  V30 769 O 80.6714 -0.0454779 1.94447 0
M  V30 770 C 80.9544 3.38737 1.22185 0
M  V30 771 C 80.8074 4.49552 0.149218 0
M  V30 772 C 82.1264 3.84913 2.13378 0
M  V30 773 H 79.2454 0.701604 0.225657 0
M  V30 774 H 81.8874 1.89671 -0.111693 0
M  V30 775 H 80.0374 3.4165 1.84953 0
M  V30 776 H 81.7094 4.58768 -0.482648 0
M  V30 777 H 79.9524 4.30638 -0.522841 0
M  V30 778 H 80.6234 5.48653 0.606966 0
M  V30 779 H 83.0994 3.8387 1.60572 0
M  V30 780 H 81.9754 4.87584 2.52097 0
M  V30 781 H 82.2364 3.21611 3.03346 0
M  V30 782 N 81.2955 -0.223234 1.56011 0
M  V30 783 C 82.5435 -0.946003 1.78592 0
M  V30 784 C 82.8645 -1.84936 0.618349 0
M  V30 785 O 82.1345 -1.92473 -0.364833 0
M  V30 786 H 80.7145 -0.352298 0.658707 0
M  V30 787 H 83.3765 -0.235494 1.93472 0
M  V30 788 H 82.4725 -1.55381 2.70672 0
M  V30 789 N 82.7736 -1.49793 -0.48987 0
M  V30 790 C 84.0506 -1.50348 -1.25119 0
M  V30 791 C 84.4306 -0.237466 -2.0976 0
M  V30 792 O 83.7786 0.77981 -2.14782 0
M  V30 793 C 83.9886 -2.78872 -2.09837 0
M  V30 794 C 85.3366 -3.288 -2.68655 0
M  V30 795 O 86.3606 -2.80065 -2.20096 0
M  V30 796 O 85.2196 -4.13707 -3.57083 0
M  V30 797 H 82.3136 -0.602242 -0.566775 0
M  V30 798 H 84.8596 -1.62067 -0.503229 0
M  V30 799 H 83.6316 -3.62499 -1.47343 0
M  V30 800 H 83.2546 -2.70066 -2.91805 0
M  V30 801 N 84.2517 0.741722 -1.39055 0
M  V30 802 C 85.1617 1.88621 -1.39496 0
M  V30 803 C 86.1777 1.71557 -0.290578 0
M  V30 804 O 87.3537 1.94275 -0.530954 0
M  V30 805 C 84.4187 3.24134 -1.23037 0
M  V30 806 C 83.4797 3.5364 -2.43387 0
M  V30 807 C 82.7127 4.82687 -2.27703 0
M  V30 808 O 82.9357 5.55922 -1.27696 0
M  V30 809 O 81.8697 5.1194 -3.16545 0
M  V30 810 H 85.6957 1.91203 -2.35956 0
M  V30 811 H 83.2807 0.888625 -1.20099 0
M  V30 812 H 85.1627 4.0513 -1.15964 0
M  V30 813 H 83.8377 3.22337 -0.296691 0
M  V30 814 H 82.7447 2.72758 -2.56035 0
M  V30 815 H 84.0777 3.60209 -3.35425 0
M  V30 816 N 85.7298 1.2412 0.971189 0
M  V30 817 C 86.6928 1.03156 2.04674 0
M  V30 818 C 87.6928 -0.00990322 1.60797 0
M  V30 819 O 88.8828 0.230729 1.72665 0
M  V30 820 C 86.0148 0.562765 3.36223 0
M  V30 821 H 87.2078 1.98614 2.24705 0
M  V30 822 H 84.7608 1.06293 1.14593 0
M  V30 823 H 85.4958 -0.395176 3.21883 0
M  V30 824 H 85.2808 1.31441 3.69413 0
M  V30 825 H 86.7708 0.437015 4.15307 0
M  V30 826 N 87.2079 -1.17134 1.05439 0
M  V30 827 C 88.1399 -2.2078 0.615539 0
M  V30 828 C 89.1529 -1.59584 -0.322001 0
M  V30 829 O 90.3419 -1.78133 -0.114344 0
M  V30 830 C 87.4419 -3.38691 -0.118938 0
M  V30 831 C 86.6149 -4.29454 0.829924 0
M  V30 832 C 85.6739 -5.26024 0.136258 0
M  V30 833 O 84.6999 -5.63952 0.77115 0
M  V30 834 N 85.9019 -5.69487 -1.1254 0
M  V30 835 H 88.6669 -2.59052 1.50705 0
M  V30 836 H 86.2279 -1.32058 0.936603 0
M  V30 837 H 88.2199 -4.00329 -0.593179 0
M  V30 838 H 86.7899 -2.98996 -0.91215 0
M  V30 839 H 86.0099 -3.65211 1.48373 0
M  V30 840 H 87.2979 -4.86984 1.47392 0
M  V30 841 H 86.6959 -5.4075 -1.6615 0
M  V30 842 H 85.2529 -6.33257 -1.54366 0
M  V30 843 N 88.686 -0.835752 -1.33615 0
M  V30 844 C 89.914 -0.443344 -2.02094 0
M  V30 845 C 90.329 0.954522 -1.62894 0
M  V30 846 O 89.686 1.61982 -0.840723 0
M  V30 847 C 89.737 -0.550775 -3.5728 0
M  V30 848 O 89.458 -1.89356 -3.95065 0
M  V30 849 C 90.959 -0.154919 -4.43029 0
M  V30 850 H 88.179 -0.176359 -0.647409 0
M  V30 851 H 90.723 -1.12746 -1.70612 0
M  V30 852 H 88.878 0.0853997 -3.87306 0
M  V30 853 H 89.292 -1.87687 -4.89769 0
M  V30 854 H 90.766 -0.281144 -5.51284 0
M  V30 855 H 91.243 0.902863 -4.2982 0
M  V30 856 H 91.849 -0.765404 -4.18356 0
M  V30 857 N 90.1641 1.46063 -0.591896 0
M  V30 858 C 91.1111 2.30399 0.136069 0
M  V30 859 C 92.0811 1.41169 0.875238 0
M  V30 860 O 93.2661 1.70112 0.86409 0
M  V30 861 C 90.4061 3.25804 1.13781 0
M  V30 862 C 89.5191 4.30134 0.401137 0
M  V30 863 C 88.6541 5.12659 1.39121 0
M  V30 864 C 87.6931 6.0873 0.641462 0
M  V30 865 N 86.8301 6.8409 1.58004 0
M  V30 866 H 91.6701 2.92118 -0.589144 0
M  V30 867 H 89.2071 1.43959 -0.302342 0
M  V30 868 H 91.1651 3.79569 1.73156 0
M  V30 869 H 89.7951 2.65872 1.83062 0
M  V30 870 H 88.8471 3.79152 -0.307826 0
M  V30 871 H 90.1591 4.98458 -0.184565 0
M  V30 872 H 89.3131 5.70747 2.05749 0
M  V30 873 H 88.0521 4.44316 2.01084 0
M  V30 874 H 87.0571 5.49786 -0.0385419 0
M  V30 875 H 88.2821 6.79095 0.0270945 0
M  V30 876 H 86.2281 6.18449 2.18761 0
M  V30 877 H 86.1451 7.48709 1.04738 0
M  V30 878 H 87.4131 7.4673 2.23639 0
M  V30 879 N 91.6422 0.330177 1.54103 0
M  V30 880 C 93.0582 -0.0222371 1.59585 0
M  V30 881 C 93.2582 -1.49902 1.34654 0
M  V30 882 O 92.3142 -2.25592 1.13421 0
M  V30 883 C 93.6272 0.401932 2.98002 0
M  V30 884 C 95.1752 0.353145 3.11001 0
M  V30 885 C 95.6502 0.752576 4.51775 0
M  V30 886 N 97.1412 0.706239 4.57784 0
M  V30 887 C 97.8762 0.987417 5.64834 0
M  V30 888 N 97.3722 1.33607 6.79795 0
M  V30 889 N 99.1652 0.91254 5.54643 0
M  V30 890 H 91.3162 1.29228 1.68564 0
M  V30 891 H 93.5792 0.525906 0.78875 0
M  V30 892 H 93.2852 1.4311 3.21267 0
M  V30 893 H 93.1592 -0.229699 3.765 0
M  V30 894 H 95.5462 -0.666822 2.87467 0
M  V30 895 H 95.6272 1.0198 2.34593 0
M  V30 896 H 95.2712 1.77049 4.76042 0
M  V30 897 H 95.2012 0.0635409 5.26562 0
M  V30 898 H 97.6922 0.44889 3.75224 0
M  V30 899 H 98.0052 1.53582 7.57385 0
M  V30 900 H 96.3502 1.37439 6.81275 0
M  V30 901 H 99.5412 0.639601 4.6371 0
M  V30 902 H 99.7142 1.13503 6.37982 0
M  V30 903 N 93.1203 -1.57491 0.0584922 0
M  V30 904 C 94.3683 -1.92597 -0.612436 0
M  V30 905 C 94.6893 -0.938162 -1.70949 0
M  V30 906 O 93.9593 0.0158301 -1.95894 0
M  V30 907 H 92.5393 -0.710964 -0.229214 0
M  V30 908 H 95.2013 -1.94571 0.113218 0
M  V30 909 H 94.2973 -2.94038 -1.04633 0
M  V30 910 N 94.5984 0.214957 -1.56127 0
M  V30 911 C 95.8474 0.936451 -1.78643 0
M  V30 912 C 96.1604 1.85237 -0.628229 0
M  V30 913 O 97.3664 2.613 -0.737186 0
M  V30 914 C 95.8224 1.7154 -3.16389 0
M  V30 915 C 95.4304 0.845299 -4.39953 0
M  V30 916 C 97.1744 2.42772 -3.48227 0
M  V30 917 C 95.0814 1.62198 -5.68723 0
M  V30 918 H 94.0114 0.353401 -0.666051 0
M  V30 919 H 96.6624 0.190169 -1.82512 0
M  V30 920 H 95.0444 2.50484 -3.06715 0
M  V30 921 H 96.2184 0.0959353 -4.607 0
M  V30 922 H 94.5334 0.244789 -4.1568 0
M  V30 923 H 97.1304 3.01394 -4.41663 0
M  V30 924 H 97.4734 3.15984 -2.71035 0
M  V30 925 H 98.0064 1.70813 -3.5926 0
M  V30 926 H 94.7454 0.933011 -6.48826 0
M  V30 927 H 94.2654 2.34579 -5.52026 0
M  V30 928 H 95.9444 2.18095 -6.09133 0
M  V30 929 N 96.0765 1.50051 0.48192 0
M  V30 930 C 97.0065 1.71046 1.58951 0
M  V30 931 C 97.9875 0.559288 1.60642 0
M  V30 932 O 99.1725 0.797243 1.77081 0
M  V30 933 C 96.3025 1.79462 2.97339 0
M  V30 934 C 95.2565 2.94558 3.10515 0
M  V30 935 C 94.5825 2.88105 4.50444 0
M  V30 936 C 95.8825 4.35227 2.88747 0
M  V30 937 H 97.5765 2.6378 1.41635 0
M  V30 938 H 95.1225 1.26936 0.679942 0
M  V30 939 H 97.0755 1.92734 3.74742 0
M  V30 940 H 95.7995 0.833412 3.15788 0
M  V30 941 H 94.4585 2.80918 2.35543 0
M  V30 942 H 94.1065 1.89853 4.65795 0
M  V30 943 H 93.8065 3.65366 4.60197 0
M  V30 944 H 95.3305 3.03412 5.29881 0
M  V30 945 H 96.7445 4.49449 3.55905 0
M  V30 946 H 95.1415 5.13856 3.09955 0
M  V30 947 H 96.2115 4.48347 1.84696 0
M  V30 948 N 97.5546 -0.734337 1.39446 0
M  V30 949 C 98.7826 -1.52358 1.39981 0
M  V30 950 C 99.1976 -1.88799 -0.0054975 0
M  V30 951 O 98.5546 -1.54146 -0.976998 0
M  V30 952 C 98.6056 -2.81072 2.27333 0
M  V30 953 O 98.3266 -2.46178 3.62392 0
M  V30 954 C 99.8276 -3.75096 2.36259 0
M  V30 955 H 97.0476 -0.470806 0.478103 0
M  V30 956 H 99.5916 -0.907339 1.83269 0
M  V30 957 H 97.7466 -3.39026 1.87457 0
M  V30 958 H 98.1606 -3.28866 4.08592 0
M  V30 959 H 99.6346 -4.62305 3.01626 0
M  V30 960 H 100.112 -4.16892 1.38194 0
M  V30 961 H 100.718 -3.23061 2.76608 0
M  V30 962 N 99.0327 -1.24633 -0.964593 0
M  V30 963 C 99.9627 -1.06611 -2.07741 0
M  V30 964 C 100.944 0.0218666 -1.70086 0
M  V30 965 O 102.129 -0.145793 -1.93652 0
M  V30 966 C 99.2587 -0.673444 -3.40708 0
M  V30 967 C 98.2127 -1.71054 -3.92332 0
M  V30 968 C 97.5387 -1.17285 -5.21678 0
M  V30 969 C 98.8387 -3.10718 -4.19824 0
M  V30 970 H 100.533 -1.99693 -2.23076 0
M  V30 971 H 98.0787 -0.96152 -1.07195 0
M  V30 972 H 100.032 -0.534345 -4.17998 0
M  V30 973 H 98.7557 0.293073 -3.25282 0
M  V30 974 H 97.4147 -1.83791 -3.17201 0
M  V30 975 H 97.0627 -0.196847 -5.02615 0
M  V30 976 H 96.7627 -1.86592 -5.57187 0
M  V30 977 H 98.2867 -1.04593 -6.01575 0
M  V30 978 H 99.7007 -3.01192 -4.87808 0
M  V30 979 H 98.0977 -3.77406 -4.66567 0
M  V30 980 H 99.1677 -3.58524 -3.26479 0
M  V30 981 N 100.511 1.16574 -1.06058 0
M  V30 982 C 101.458 2.20883 -0.669263 0
M  V30 983 C 102.428 1.62729 0.332918 0
M  V30 984 O 103.613 1.895 0.222346 0
M  V30 985 C 100.753 3.45049 -0.0593572 0
M  V30 986 C 99.8658 4.17458 -1.11143 0
M  V30 987 C 99.0008 5.29135 -0.467916 0
M  V30 988 C 98.0398 5.93343 -1.50369 0
M  V30 989 N 97.1768 6.96516 -0.883706 0
M  V30 990 H 102.017 2.53709 -1.5632 0
M  V30 991 H 99.5538 1.24616 -0.781625 0
M  V30 992 H 101.512 4.16033 0.311771 0
M  V30 993 H 100.142 3.12781 0.797992 0
M  V30 994 H 99.1938 3.45101 -1.60029 0
M  V30 995 H 100.506 4.61307 -1.89731 0
M  V30 996 H 99.6598 6.06684 -0.0436871 0
M  V30 997 H 98.3988 4.86443 0.349864 0
M  V30 998 H 97.4038 5.14517 -1.93784 0
M  V30 999 H 98.6288 6.38114 -2.32352 0
M  V30 1000 H 96.5748 6.55943 -0.086595 0
M  V30 1001 H 96.4918 7.38723 -1.607 0
M  V30 1002 H 97.7598 7.77993 -0.484543 0
M  V30 1003 N 101.989 0.842826 1.3317 0
M  V30 1004 C 103.219 0.453397 2.01564 0
M  V30 1005 C 103.627 -0.951147 1.63554 0
M  V30 1006 O 102.97 -1.63021 0.846746 0
M  V30 1007 C 103.032 0.499013 3.5602 0
M  V30 1008 C 102.696 1.86037 4.1742 0
M  V30 1009 C 103.693 2.82416 4.36506 0
M  V30 1010 C 101.378 2.15428 4.53757 0
M  V30 1011 C 103.372 4.06346 4.91082 0
M  V30 1012 C 101.059 3.39615 5.0804 0
M  V30 1013 C 102.057 4.3489 5.26649 0
M  V30 1014 O 101.745 5.5688 5.79776 0
M  V30 1015 H 101.477 0.177871 0.652179 0
M  V30 1016 H 104.031 1.13808 1.70988 0
M  V30 1017 H 102.261 -0.242467 3.85939 0
M  V30 1018 H 103.95 0.126852 4.05702 0
M  V30 1019 H 104.716 2.6101 4.08777 0
M  V30 1020 H 100.595 1.42061 4.38565 0
M  V30 1021 H 104.139 4.80722 5.05522 0
M  V30 1022 H 100.036 3.60876 5.352 0
M  V30 1023 H 100.804 5.58674 5.98185 0
M  V30 1024 N 103.467 -1.45747 0.599634 0
M  V30 1025 C 104.878 -1.85853 0.177681 0
M  V30 1026 C 105.229 -1.50102 -1.26348 0
M  V30 1027 O 104.354 -0.923905 -1.95686 0
M  V30 1028 C 104.949 -3.37326 0.315688 0
M  V30 1029 C 103.508 -3.76365 -0.0515144 0
M  V30 1030 C 102.655 -2.69722 0.643822 0
M  V30 1031 H 105.606 -1.36661 0.806814 0
M  V30 1032 H 105.627 -3.77778 -0.454321 0
M  V30 1033 H 105.139 -3.63315 1.36468 0
M  V30 1034 H 103.24 -3.55993 -1.09999 0
M  V30 1035 H 103.353 -4.77916 0.336594 0
M  V30 1036 H 101.717 -2.54567 0.0822881 0
M  V30 1037 H 102.5 -2.98549 1.6948 0
M  V30 1038 N 104.945 -0.338344 -1.53925 0
M  V30 1039 C 106.194 0.260732 -2.00008 0
M  V30 1040 C 106.507 1.52073 -1.23017 0
M  V30 1041 O 107.713 2.19672 -1.5955 0
M  V30 1042 C 106.169 0.51515 -3.56194 0
M  V30 1043 C 105.777 -0.728645 -4.42035 0
M  V30 1044 C 107.521 1.07337 -4.10706 0
M  V30 1045 C 105.428 -0.445315 -5.89721 0
M  V30 1046 H 104.358 0.101205 -0.747177 0
M  V30 1047 H 107.009 -0.452866 -1.77824 0
M  V30 1048 H 105.391 1.28932 -3.74423 0
M  V30 1049 H 106.565 -1.50352 -4.35581 0
M  V30 1050 H 104.88 -1.20813 -3.98489 0
M  V30 1051 H 107.477 1.30022 -5.18651 0
M  V30 1052 H 107.82 2.0273 -3.63602 0
M  V30 1053 H 108.353 0.360034 -3.96167 0
M  V30 1054 H 105.092 -1.36883 -6.41049 0
M  V30 1055 H 104.612 0.291569 -5.99091 0
M  V30 1056 H 106.291 -0.0606218 -6.46972 0
M  V30 1057 N 106.423 1.57458 -0.0668435 0
M  V30 1058 C 107.333 2.15937 0.916975 0
M  V30 1059 C 108.349 1.12123 1.33058 0
M  V30 1060 O 109.525 1.44366 1.40429 0
M  V30 1061 C 106.59 2.70547 2.16807 0
M  V30 1062 C 105.651 3.89215 1.81135 0
M  V30 1063 C 104.884 4.41211 3.0028 0
M  V30 1064 O 105.107 3.92225 4.14144 0
M  V30 1065 O 104.041 5.32605 2.80384 0
M  V30 1066 H 107.867 3.00354 0.449561 0
M  V30 1067 H 105.452 1.48584 0.155949 0
M  V30 1068 H 107.334 3.0557 2.90181 0
M  V30 1069 H 106.009 1.89192 2.62656 0
M  V30 1070 H 104.916 3.59054 1.05028 0
M  V30 1071 H 106.249 4.71848 1.40073 0
M  V30 1072 N 107.901 -0.206675 1.56239 0
M  V30 1073 C 108.851 -1.26 1.90021 0
M  V30 1074 C 109.835 -1.41566 0.764721 0
M  V30 1075 O 111.027 -1.44131 1.02739 0
M  V30 1076 C 108.156 -2.6073 2.23326 0
M  V30 1077 C 107.242 -2.49005 3.43304 0
M  V30 1078 N 107.633 -2.06946 4.61527 0
M  V30 1079 C 105.931 -2.79927 3.47213 0
M  V30 1080 C 106.632 -2.06832 5.43687 0
M  V30 1081 N 105.608 -2.47892 4.83788 0
M  V30 1082 H 109.41 -0.925955 2.78932 0
M  V30 1083 H 106.924 -0.415172 1.57003 0
M  V30 1084 H 108.921 -3.36798 2.45708 0
M  V30 1085 H 107.581 -2.94968 1.35735 0
M  V30 1086 H 108.592 -1.77839 4.86409 0
M  V30 1087 H 105.269 -3.18438 2.70006 0
M  V30 1088 H 106.659 -1.76312 6.48354 0
M  V30 1089 N 109.379 -1.50304 -0.473955 0
M  V30 1090 C 110.627 -1.60832 -1.22382 0
M  V30 1091 C 110.948 -0.30939 -1.9253 0
M  V30 1092 O 110.218 0.67296 -1.83978 0
M  V30 1093 H 108.798 -0.592652 -0.454723 0
M  V30 1094 H 111.46 -1.87068 -0.546968 0
M  V30 1095 H 110.556 -2.41803 -1.97327 0
M  V30 1096 N 110.857 0.726932 -1.39834 0
M  V30 1097 C 112.106 1.48214 -1.36805 0
M  V30 1098 C 112.419 1.95576 0.0305291 0
M  V30 1099 O 113.625 2.7088 0.183417 0
M  V30 1100 C 112.081 2.67854 -2.40379 0
M  V30 1101 C 111.689 2.27408 -3.85992 0
M  V30 1102 C 113.433 3.45641 -2.46439 0
M  V30 1103 C 111.34 3.43819 -4.81189 0
M  V30 1104 H 110.27 0.556606 -0.508631 0
M  V30 1105 H 112.921 0.792216 -1.65518 0
M  V30 1106 H 111.303 3.3896 -2.04749 0
M  V30 1107 H 112.477 1.63795 -4.30706 0
M  V30 1108 H 110.792 1.62692 -3.83302 0
M  V30 1109 H 113.389 4.32244 -3.14753 0
M  V30 1110 H 113.732 3.88669 -1.49139 0
M  V30 1111 H 114.265 2.8157 -2.81004 0
M  V30 1112 H 111.004 3.05834 -5.79781 0
M  V30 1113 H 110.524 4.06385 -4.41148 0
M  V30 1114 H 112.203 4.10043 -5.00474 0
M  V30 1115 N 112.336 1.25143 0.95797 0
M  V30 1116 C 113.582 1.09855 1.70469 0
M  V30 1117 C 113.915 -0.360187 1.90831 0
M  V30 1118 O 113.19 -1.26568 1.47685 0
M  V30 1119 C 113.473 1.8497 3.08963 0
M  V30 1120 C 113.326 3.38652 2.96032 0
M  V30 1121 C 114.645 1.63016 4.08795 0
M  V30 1122 H 111.764 0.400465 0.618706 0
M  V30 1123 H 114.406 1.53933 1.11376 0
M  V30 1124 H 112.556 1.47505 3.59409 0
M  V30 1125 H 114.228 3.85772 2.52938 0
M  V30 1126 H 112.471 3.66534 2.32025 0
M  V30 1127 H 113.142 3.8642 3.94187 0
M  V30 1128 H 115.618 1.95625 3.67247 0
M  V30 1129 H 114.494 2.18015 5.03747 0
M  V30 1130 H 114.755 0.570692 4.38401 0
M  V30 1131 N 113.814 -1.1601 1.06675 0
M  V30 1132 C 115.042 -1.90527 0.806667 0
M  V30 1133 C 115.457 -1.77643 -0.639396 0
M  V30 1134 O 114.814 -1.12369 -1.43803 0
M  V30 1135 C 114.865 -3.41106 1.19705 0
M  V30 1136 O 114.586 -3.53608 2.58636 0
M  V30 1137 C 116.087 -4.32663 0.965266 0
M  V30 1138 H 113.307 -0.604053 0.292166 0
M  V30 1139 H 115.851 -1.47026 1.4214 0
M  V30 1140 H 114.006 -3.82296 0.626774 0
M  V30 1141 H 114.42 -4.47011 2.74375 0
M  V30 1142 H 115.894 -5.36763 1.288 0
M  V30 1143 H 116.371 -4.39089 -0.0987936 0
M  V30 1144 H 116.977 -3.97206 1.52011 0
M  V30 1145 N 115.292 -0.849877 -1.32721 0
M  V30 1146 C 116.24 -0.279745 -2.30912 0
M  V30 1147 C 117.234 0.594278 -1.58634 0
M  V30 1148 O 118.44 0.482613 -1.73409 0
M  V30 1149 H 114.815 -0.0717521 -0.748569 0
M  V30 1150 H 116.786 -1.12222 -2.76494 0
M  V30 1151 C 115.535 0.521108 -3.43773 0
M  V30 1152 H 114.858 -0.142141 -3.99547 0
M  V30 1153 H 116.298 0.885693 -4.14646 0
M  V30 1154 C 114.757 1.70442 -2.90605 0
M  V30 1155 O 115.287 2.8034 -2.87702 0
M  V30 1156 N 113.493 1.52991 -2.47067 0
M  V30 1157 H 113.04 0.635914 -2.49628 0
M  V30 1158 H 112.998 2.32311 -2.11847 0
M  V30 1159 N 116.77 1.45427 -0.607355 0
M  V30 1160 C 118.016 2.03097 -0.111035 0
M  V30 1161 C 118.371 1.46735 1.24445 0
M  V30 1162 O 117.664 0.632478 1.8086 0
M  V30 1163 C 117.858 3.57398 -0.0129263 0
M  V30 1164 C 117.687 4.28726 -1.35735 0
M  V30 1165 C 116.457 4.66659 -1.93798 0
M  V30 1166 C 118.655 4.60699 -2.28607 0
M  V30 1167 N 116.637 5.22845 -3.21723 0
M  V30 1168 C 118.008 5.17716 -3.41131 0
M  V30 1169 C 120.063 4.42638 -2.27982 0
M  V30 1170 C 118.766 5.58576 -4.53194 0
M  V30 1171 C 120.792 4.84531 -3.39093 0
M  V30 1172 C 120.154 5.4164 -4.50339 0
M  V30 1173 H 116.253 0.777476 -0.083994 0
M  V30 1174 H 118.837 1.77249 -0.805655 0
M  V30 1175 H 117.008 3.82907 0.650914 0
M  V30 1176 H 118.74 4.01722 0.490033 0
M  V30 1177 H 115.495 4.50207 -1.47007 0
M  V30 1178 H 115.919 5.55438 -3.87063 0
M  V30 1179 H 120.561 3.97798 -1.43235 0
M  V30 1180 H 118.279 6.02382 -5.38667 0
M  V30 1181 H 121.865 4.72289 -3.39757 0
M  V30 1182 H 120.745 5.73461 -5.34895 0
M  V30 1183 N 118.248 0.346503 1.53744 0
M  V30 1184 C 119.525 -0.304532 1.93215 0
M  V30 1185 C 119.905 -1.67993 1.27834 0
M  V30 1186 O 119.253 -2.24411 0.430352 0
M  V30 1187 C 119.463 -0.373852 3.46992 0
M  V30 1188 C 120.811 -0.62329 4.2 0
M  V30 1189 O 121.835 -0.455847 3.53271 0
M  V30 1190 O 120.694 -0.947879 5.38217 0
M  V30 1191 H 117.788 -0.178318 0.807547 0
M  V30 1192 H 120.334 0.397895 1.64969 0
M  V30 1193 H 119.106 0.591224 3.86808 0
M  V30 1194 H 118.729 -1.12294 3.81413 0
M  V30 1195 N 119.726 -1.57421 0.075193 0
M  V30 1196 C 121.003 -1.85029 -0.634329 0
M  V30 1197 C 121.383 -0.968305 -1.87582 0
M  V30 1198 O 120.731 -0.0354749 -2.28472 0
M  V30 1199 C 120.941 -3.35286 -0.968742 0
M  V30 1200 C 122.289 -4.02875 -1.34077 0
M  V30 1201 O 123.313 -3.40051 -1.06037 0
M  V30 1202 O 122.172 -5.13691 -1.86506 0
M  V30 1203 H 119.266 -0.7645 -0.315387 0
M  V30 1204 H 121.812 -1.69366 0.106382 0
M  V30 1205 H 120.584 -3.91203 -0.0871376 0
M  V30 1206 H 120.207 -3.56223 -1.7661 0
M  V30 1207 N 121.204 0.198386 -1.56346 0
M  V30 1208 C 122.137 1.27381 -1.89339 0
M  V30 1209 C 123.115 1.44106 -0.753134 0
M  V30 1210 O 124.299 1.59549 -1.00381 0
M  V30 1211 C 121.426 2.6409 -2.12071 0
M  V30 1212 C 120.472 2.64253 -3.34772 0
M  V30 1213 S 121.305 2.16013 -4.89999 0
M  V30 1214 C 122.461 3.54553 -5.15794 0
M  V30 1215 H 122.694 0.992058 -2.8026 0
M  V30 1216 H 120.227 0.401726 -1.49082 0
M  V30 1217 H 122.185 3.42786 -2.2585 0
M  V30 1218 H 120.846 2.89478 -1.21906 0
M  V30 1219 H 120.039 3.64768 -3.47794 0
M  V30 1220 H 119.641 1.93637 -3.1997 0
M  V30 1221 H 121.933 4.50396 -5.06112 0
M  V30 1222 H 122.876 3.46428 -6.1757 0
M  V30 1223 H 123.284 3.49313 -4.43442 0
M  V30 1224 N 122.682 1.50554 0.465978 0
M  V30 1225 C 123.592 1.72585 1.58907 0
M  V30 1226 C 124.608 0.60911 1.6299 0
M  V30 1227 O 125.784 0.88804 1.80765 0
M  V30 1228 C 122.849 1.81995 2.95091 0
M  V30 1229 C 121.91 3.05751 3.01355 0
M  V30 1230 C 121.143 3.14702 4.31043 0
M  V30 1231 O 121.366 2.30313 5.21835 0
M  V30 1232 O 120.3 4.07468 4.43005 0
M  V30 1233 H 124.126 2.67799 1.43239 0
M  V30 1234 H 121.711 1.34711 0.646013 0
M  V30 1235 H 123.593 1.90335 3.75966 0
M  V30 1236 H 122.268 0.899659 3.10947 0
M  V30 1237 H 121.175 3.02908 2.19539 0
M  V30 1238 H 122.508 3.97375 2.90437 0
M  V30 1239 N 124.16 -0.719506 1.40217 0
M  V30 1240 C 125.107 -1.83359 1.40172 0
M  V30 1241 C 126.077 -1.64065 0.259206 0
M  V30 1242 O 127.262 -1.85254 0.456677 0
M  V30 1243 C 124.402 -3.2103 1.26624 0
M  V30 1244 C 123.515 -3.51923 2.50548 0
M  V30 1245 C 122.65 -4.79079 2.29471 0
M  V30 1246 C 121.689 -5.02863 3.48992 0
M  V30 1247 N 120.826 -6.2123 3.27135 0
M  V30 1248 H 125.666 -1.82733 2.35399 0
M  V30 1249 H 123.203 -0.892688 1.16917 0
M  V30 1250 H 125.161 -4.00524 1.16776 0
M  V30 1251 H 123.791 -3.20895 0.350176 0
M  V30 1252 H 122.843 -2.67014 2.70939 0
M  V30 1253 H 124.155 -3.6541 3.39525 0
M  V30 1254 H 123.309 -5.66582 2.16955 0
M  V30 1255 H 122.048 -4.67794 1.37913 0
M  V30 1256 H 121.053 -4.13816 3.6199 0
M  V30 1257 H 122.278 -5.16023 4.41472 0
M  V30 1258 H 120.224 -6.11204 2.38256 0
M  V30 1259 H 120.141 -6.35375 4.09675 0
M  V30 1260 H 121.409 -7.11532 3.18344 0
M  V30 1261 N 125.638 -1.25649 -0.95132 0
M  V30 1262 C 126.887 -1.09988 -1.69073 0
M  V30 1263 C 127.2 0.358355 -1.92289 0
M  V30 1264 O 128.406 0.635466 -2.63958 0
M  V30 1265 C 126.862 -1.92012 -3.044 0
M  V30 1266 C 126.47 -3.42347 -2.88968 0
M  V30 1267 C 128.214 -1.8493 -3.82101 0
M  V30 1268 C 126.121 -4.16655 -4.19705 0
M  V30 1269 H 125.051 -0.407993 -0.63408 0
M  V30 1270 H 127.702 -1.49873 -1.05879 0
M  V30 1271 H 126.084 -1.44952 -3.68517 0
M  V30 1272 H 127.258 -3.97104 -2.33762 0
M  V30 1273 H 125.573 -3.50557 -2.24719 0
M  V30 1274 H 128.17 -2.37739 -4.78941 0
M  V30 1275 H 128.513 -0.817883 -4.08187 0
M  V30 1276 H 129.046 -2.29758 -3.2474 0
M  V30 1277 H 125.785 -5.20224 -3.98807 0
M  V30 1278 H 125.305 -3.66681 -4.74663 0
M  V30 1279 H 126.984 -4.24551 -4.88227 0
M  V30 1280 N 127.117 1.15442 -1.07289 0
M  V30 1281 C 128.363 1.8672 -0.806679 0
M  V30 1282 C 128.718 1.80723 0.660084 0
M  V30 1283 O 128.011 1.21902 1.47819 0
M  V30 1284 C 128.205 3.3489 -1.24834 0
M  V30 1285 C 128.034 3.55313 -2.7565 0
M  V30 1286 C 126.804 3.7082 -3.4325 0
M  V30 1287 C 129.002 3.53188 -3.73848 0
M  V30 1288 N 126.984 3.7929 -4.82713 0
M  V30 1289 C 128.355 3.67765 -4.99149 0
M  V30 1290 C 130.41 3.36459 -3.67015 0
M  V30 1291 C 129.113 3.6734 -6.18428 0
M  V30 1292 C 131.139 3.37333 -4.85758 0
M  V30 1293 C 130.501 3.52438 -6.09891 0
M  V30 1294 H 126.6 0.700433 -0.347733 0
M  V30 1295 H 129.184 1.38441 -1.36902 0
M  V30 1296 H 127.355 3.81786 -0.713713 0
M  V30 1297 H 129.087 3.93875 -0.929745 0
M  V30 1298 H 125.842 3.71568 -2.93656 0
M  V30 1299 H 126.266 3.8727 -5.55294 0
M  V30 1300 H 130.908 3.237 -2.71989 0
M  V30 1301 H 128.626 3.78878 -7.13777 0
M  V30 1302 H 132.212 3.25617 -4.82146 0
M  V30 1303 H 131.092 3.53047 -7.00234 0
M  V30 1304 N 128.595 0.856903 1.32268 0
M  V30 1305 C 129.545 0.274899 2.26337 0
M  V30 1306 C 130.529 -0.580543 1.50062 0
M  V30 1307 O 131.721 -0.429559 1.71708 0
M  V30 1308 C 128.85 -0.533841 3.39124 0
M  V30 1309 C 127.936 0.334114 4.22782 0
M  V30 1310 N 128.327 1.42143 4.85416 0
M  V30 1311 C 126.625 0.124256 4.45827 0
M  V30 1312 C 127.326 1.95559 5.47843 0
M  V30 1313 N 126.302 1.25444 5.28928 0
M  V30 1314 H 130.104 1.10612 2.72291 0
M  V30 1315 H 127.618 0.703258 1.46383 0
M  V30 1316 H 129.615 -0.96722 4.05525 0
M  V30 1317 H 128.275 -1.36283 2.94715 0
M  V30 1318 H 129.286 1.80436 4.85451 0
M  V30 1319 H 125.963 -0.669837 4.12092 0
M  V30 1320 H 127.353 2.86714 6.07655 0
M  V30 1321 N 130.073 -1.45103 0.615059 0
M  V30 1322 C 131.023 -2.27679 -0.120966 0
M  V30 1323 C 132.007 -1.3775 -0.831491 0
M  V30 1324 O 133.199 -1.61683 -0.720249 0
M  V30 1325 C 130.328 -3.24767 -1.1127 0
M  V30 1326 C 129.414 -4.22184 -0.402627 0
M  V30 1327 N 129.805 -5.02692 0.559884 0
M  V30 1328 C 128.103 -4.4125 -0.649202 0
M  V30 1329 C 128.804 -5.73421 0.977942 0
M  V30 1330 N 127.78 -5.42657 0.320104 0
M  V30 1331 H 131.582 -2.87325 0.618181 0
M  V30 1332 H 129.096 -1.56345 0.439304 0
M  V30 1333 H 131.093 -3.82666 -1.65446 0
M  V30 1334 H 129.753 -2.66682 -1.85232 0
M  V30 1335 H 130.764 -5.09354 0.936976 0
M  V30 1336 H 127.441 -3.9428 -1.37293 0
M  V30 1337 H 128.831 -6.48107 1.77222 0
M  V30 1338 N 131.551 -0.354651 -1.53558 0
M  V30 1339 C 132.779 0.239515 -2.05509 0
M  V30 1340 C 133.194 1.4333 -1.2289 0
M  V30 1341 O 132.551 1.80538 -0.266899 0
M  V30 1342 C 132.602 0.643719 -3.55723 0
M  V30 1343 O 132.323 -0.502602 -4.35207 0
M  V30 1344 C 133.824 1.29743 -4.23889 0
M  V30 1345 H 131.044 0.0442697 -0.669538 0
M  V30 1346 H 133.588 -0.509856 -1.98042 0
M  V30 1347 H 131.743 1.34302 -3.63376 0
M  V30 1348 H 132.157 -0.178172 -5.24197 0
M  V30 1349 H 133.631 1.53091 -5.30346 0
M  V30 1350 H 134.108 2.25441 -3.76926 0
M  V30 1351 H 134.714 0.639865 -4.20459 0
M  V30 1352 N 133.029 1.57378 -0.0835403 0
M  V30 1353 C 134.276 1.9393 0.58287 0
M  V30 1354 C 134.604 0.964455 1.68904 0
M  V30 1355 O 133.859 -0.0179474 1.95692 0
M  V30 1356 C 134.158 3.37063 1.1884 0
M  V30 1357 C 133.824 4.50424 0.207194 0
M  V30 1358 C 132.486 4.81159 -0.0627115 0
M  V30 1359 C 134.838 5.19136 -0.463426 0
M  V30 1360 C 132.166 5.77939 -1.01012 0
M  V30 1361 C 134.518 6.16931 -1.39924 0
M  V30 1362 C 133.182 6.46078 -1.67749 0
M  V30 1363 H 132.452 0.70964 0.213287 0
M  V30 1364 H 135.099 1.90856 -0.156916 0
M  V30 1365 H 133.404 3.3666 2.00418 0
M  V30 1366 H 135.101 3.6264 1.71153 0
M  V30 1367 H 131.691 4.2646 0.427747 0
M  V30 1368 H 135.875 4.95576 -0.268034 0
M  V30 1369 H 131.131 5.98842 -1.23283 0
M  V30 1370 H 135.305 6.69273 -1.92476 0
M  V30 1371 H 132.932 7.2088 -2.41321 0
M  V30 1372 N 134.507 -0.190092 1.56449 0
M  V30 1373 C 135.737 -0.92443 1.84764 0
M  V30 1374 C 136.145 -1.77146 0.664529 0
M  V30 1375 O 135.488 -1.79812 -0.375957 0
M  V30 1376 C 135.55 -1.86651 3.07248 0
M  V30 1377 C 135.214 -1.20094 4.40938 0
M  V30 1378 C 136.211 -0.575445 5.16706 0
M  V30 1379 C 133.896 -1.2033 4.87674 0
M  V30 1380 C 135.89 0.0388111 6.37388 0
M  V30 1381 C 133.577 -0.585214 6.08291 0
M  V30 1382 C 134.575 0.0347578 6.82991 0
M  V30 1383 O 134.263 0.643147 8.01323 0
M  V30 1384 H 133.995 -0.274974 0.617548 0
M  V30 1385 H 136.549 -0.200788 2.04416 0
M  V30 1386 H 134.779 -2.62998 2.83494 0
M  V30 1387 H 136.468 -2.46907 3.22167 0
M  V30 1388 H 137.234 -0.565728 4.81689 0
M  V30 1389 H 133.113 -1.67526 4.29484 0
M  V30 1390 H 136.657 0.523329 6.95634 0
M  V30 1391 H 132.554 -0.592451 6.42775 0
M  V30 1392 H 133.322 0.540545 8.16713 0
M  V30 1393 N 135.985 -1.50799 -0.457987 0
M  V30 1394 C 136.933 -1.71162 -1.575 0
M  V30 1395 C 137.927 -0.577592 -1.59249 0
M  V30 1396 O 139.133 -0.758443 -1.63241 0
M  V30 1397 H 135.508 -0.540468 -0.522875 0
M  V30 1398 H 137.479 -2.64837 -1.37492 0
M  V30 1399 C 136.228 -1.83496 -2.95338 0
M  V30 1400 H 135.551 -2.70153 -2.94716 0
M  V30 1401 H 136.991 -2.01765 -3.72917 0
M  V30 1402 C 135.45 -0.589694 -3.31699 0
M  V30 1403 O 135.98 0.265163 -4.00824 0
M  V30 1404 N 134.186 -0.439845 -2.87252 0
M  V30 1405 H 133.733 -1.13655 -2.31172 0
M  V30 1406 H 133.691 0.392159 -3.11945 0
M  V30 1407 N 137.463 0.71206 -1.40597 0
M  V30 1408 C 138.373 1.8562 -1.43466 0
M  V30 1409 C 139.389 1.70902 -0.326902 0
M  V30 1410 O 140.565 1.93105 -0.572043 0
M  V30 1411 C 137.63 3.21451 -1.29884 0
M  V30 1412 C 136.691 3.48398 -2.50833 0
M  V30 1413 C 135.924 4.77749 -2.3789 0
M  V30 1414 O 136.147 5.53089 -1.39459 0
M  V30 1415 O 135.081 5.05111 -3.27333 0
M  V30 1416 H 138.907 1.86155 -2.39958 0
M  V30 1417 H 136.492 0.86295 -1.21957 0
M  V30 1418 H 138.374 4.02579 -1.24531 0
M  V30 1419 H 137.049 3.21636 -0.364997 0
M  V30 1420 H 135.956 2.67265 -2.61763 0
M  V30 1421 H 137.289 3.53014 -3.4299 0
M  V30 1422 N 138.941 1.26152 0.944643 0
M  V30 1423 C 139.871 1.09902 2.06019 0
M  V30 1424 C 140.852 0.00519538 1.70099 0
M  V30 1425 O 142.037 0.176583 1.93396 0
M  V30 1426 C 139.167 0.727562 3.39594 0
M  V30 1427 C 138.121 1.77274 3.89561 0
M  V30 1428 C 137.447 1.25569 5.19747 0
M  V30 1429 C 138.747 3.17357 4.14827 0
M  V30 1430 H 140.441 2.03217 2.19871 0
M  V30 1431 H 137.987 0.978452 1.05652 0
M  V30 1432 H 139.94 0.600777 4.17095 0
M  V30 1433 H 138.664 -0.241287 3.25707 0
M  V30 1434 H 137.323 1.88814 3.14237 0
M  V30 1435 H 136.971 0.276783 5.02238 0
M  V30 1436 H 136.671 1.95433 5.54148 0
M  V30 1437 H 138.195 1.1415 5.99835 0
M  V30 1438 H 139.609 3.08914 4.82954 0
M  V30 1439 H 138.006 3.84781 4.60504 0
M  V30 1440 H 139.076 3.63673 3.20734 0
M  V30 1441 N 140.419 -1.14872 1.07899 0
M  V30 1442 C 141.835 -1.37776 0.805606 0
M  V30 1443 C 142.035 -1.92743 -0.587555 0
M  V30 1444 O 141.091 -2.13678 -1.34528 0
M  V30 1445 C 142.404 -2.34361 1.88402 0
M  V30 1446 C 143.952 -2.48012 1.90942 0
M  V30 1447 C 144.427 -3.47893 2.97883 0
M  V30 1448 N 145.918 -3.55433 2.97021 0
M  V30 1449 C 146.653 -4.32553 3.76412 0
M  V30 1450 N 146.149 -5.12959 4.65666 0
M  V30 1451 N 147.942 -4.27697 3.64735 0
M  V30 1452 H 140.093 -0.775365 1.97742 0
M  V30 1453 H 142.356 -0.403521 0.857831 0
M  V30 1454 H 142.062 -2.01098 2.88535 0
M  V30 1455 H 141.936 -3.34206 1.74889 0
M  V30 1456 H 144.323 -2.8057 0.914579 0
M  V30 1457 H 144.404 -1.48147 2.08534 0
M  V30 1458 H 144.048 -3.16069 3.97571 0
M  V30 1459 H 143.978 -4.47527 2.77538 0
M  V30 1460 H 146.469 -2.98048 2.32326 0
M  V30 1461 H 146.782 -5.69065 5.22862 0
M  V30 1462 H 145.127 -5.12245 4.69712 0
M  V30 1463 H 148.318 -3.63949 2.94378 0
M  V30 1464 H 148.491 -4.8755 4.26848 0
M  V30 1465 N 141.898 -0.863906 -1.31812 0
M  V30 1466 C 142.861 -0.320212 -2.26952 0
M  V30 1467 C 143.861 0.525369 -1.51975 0
M  V30 1468 O 145.051 0.335547 -1.70938 0
M  V30 1469 C 142.183 0.545919 -3.365 0
M  V30 1470 H 143.376 -1.16004 -2.76556 0
M  V30 1471 H 140.929 -0.638995 -1.42641 0
M  V30 1472 H 141.664 1.40718 -2.92179 0
M  V30 1473 H 141.449 -0.0594674 -3.92055 0
M  V30 1474 H 142.939 0.918796 -4.07367 0
M  V30 1475 N 143.376 1.44774 -0.622745 0
M  V30 1476 C 144.339 2.29069 0.0774015 0
M  V30 1477 C 145.339 1.4059 0.780461 0
M  V30 1478 O 146.529 1.62551 0.626322 0
M  V30 1479 C 143.661 3.21974 1.12006 0
M  V30 1480 H 144.854 2.92459 -0.663901 0
M  V30 1481 H 142.407 1.51548 -0.382486 0
M  V30 1482 H 143.142 2.63417 1.89162 0
M  V30 1483 H 142.927 3.87168 0.619951 0
M  V30 1484 H 144.417 3.85318 1.60995 0
M  V30 1485 N 144.854 0.36279 1.53368 0
M  V30 1486 C 146.265 -0.117022 1.86333 0
M  V30 1487 C 146.616 -1.48397 1.28347 0
M  V30 1488 O 145.741 -2.07787 0.604428 0
M  V30 1489 C 146.336 -0.21912 3.38091 0
M  V30 1490 C 144.895 -0.643184 3.70864 0
M  V30 1491 C 144.042 0.211318 2.76494 0
M  V30 1492 H 146.993 0.581687 1.47655 0
M  V30 1493 H 147.014 -1.04319 3.6592 0
M  V30 1494 H 146.526 0.775902 3.80265 0
M  V30 1495 H 144.627 -1.64654 3.34245 0
M  V30 1496 H 144.74 -0.41973 4.77258 0
M  V30 1497 H 143.104 -0.319367 2.5269 0
M  V30 1498 H 143.887 1.20383 3.21501 0
M  V30 1499 N 146.332 -1.57332 0.0918853 0
M  V30 1500 C 147.242 -2.17368 -0.882505 0
M  V30 1501 C 148.258 -1.14226 -1.31257 0
M  V30 1502 O 149.434 -1.46582 -1.38115 0
M  V30 1503 C 146.499 -2.73962 -2.12476 0
M  V30 1504 C 145.56 -3.92048 -1.7492 0
M  V30 1505 C 144.793 -4.45933 -2.93223 0
M  V30 1506 O 145.016 -3.98764 -4.07852 0
M  V30 1507 O 143.95 -5.36999 -2.71875 0
M  V30 1508 H 147.776 -3.01031 -0.40172 0
M  V30 1509 H 145.361 -1.48813 -0.132291 0
M  V30 1510 H 147.243 -3.10147 -2.85283 0
M  V30 1511 H 145.918 -1.93347 -2.59613 0
M  V30 1512 H 144.825 -3.6068 -0.993025 0
M  V30 1513 H 146.158 -4.74017 -1.32548 0
M  V30 1514 N 147.81 0.181792 -1.56548 0
M  V30 1515 C 148.72 1.24538 -1.98815 0
M  V30 1516 C 149.736 1.49045 -0.897861 0
M  V30 1517 O 150.912 1.61399 -1.20467 0
M  V30 1518 C 147.977 2.56683 -2.33055 0
M  V30 1519 C 147.038 2.40131 -3.55859 0
M  V30 1520 C 146.271 3.65975 -3.88456 0
M  V30 1521 O 146.494 4.70711 -3.22161 0
M  V30 1522 O 145.428 3.6071 -4.81842 0
M  V30 1523 H 149.254 0.916647 -2.89536 0
M  V30 1524 H 146.839 0.387842 -1.44278 0
M  V30 1525 H 148.721 3.34655 -2.56094 0
M  V30 1526 H 147.396 2.89157 -1.45498 0
M  V30 1527 H 146.303 1.60226 -3.38051 0
M  V30 1528 H 147.636 2.12585 -4.43924 0
M  V30 1529 N 149.288 1.51039 0.449983 0
M  V30 1530 C 150.238 1.67824 1.54335 0
M  V30 1531 C 151.222 0.5324 1.51836 0
M  V30 1532 O 152.414 0.787762 1.58503 0
M  V30 1533 C 149.543 1.7951 2.92628 0
M  V30 1534 C 148.629 2.99838 2.9993 0
M  V30 1535 N 149.02 4.23207 2.77001 0
M  V30 1536 C 147.318 2.98832 3.31082 0
M  V30 1537 C 148.019 5.04361 2.89818 0
M  V30 1538 N 146.995 4.38746 3.2094 0
M  V30 1539 H 150.797 2.60884 1.35339 0
M  V30 1540 H 148.311 1.48513 0.657085 0
M  V30 1541 H 150.308 1.89642 3.7127 0
M  V30 1542 H 148.968 0.876227 3.12654 0
M  V30 1543 H 149.979 4.5236 2.52172 0
M  V30 1544 H 146.656 2.16527 3.56963 0
M  V30 1545 H 148.046 6.12528 2.76151 0
M  V30 1546 N 150.766 -0.704594 1.40972 0
M  V30 1547 C 152.177 -1.28418 1.3552 0
M  V30 1548 C 152.528 -1.96171 0.0339434 0
M  V30 1549 O 151.653 -1.98231 -0.867944 0
M  V30 1550 C 152.248 -2.33528 2.45459 0
M  V30 1551 C 150.807 -2.87085 2.43433 0
M  V30 1552 C 149.954 -1.61007 2.2577 0
M  V30 1553 H 152.905 -0.499963 1.50619 0
M  V30 1554 H 152.926 -3.14619 2.13998 0
M  V30 1555 H 152.438 -1.84187 3.41609 0
M  V30 1556 H 150.539 -3.40626 1.51013 0
M  V30 1557 H 150.652 -3.3813 3.39419 0
M  V30 1558 H 149.016 -1.86482 1.73483 0
M  V30 1559 H 149.799 -1.13675 3.23933 0
M  V30 1560 N 152.244 -1.26651 -0.937939 0
M  V30 1561 C 153.49 -1.12553 -1.687 0
M  V30 1562 C 153.823 0.329782 -1.91379 0
M  V30 1563 O 153.098 1.24202 -1.4968 0
M  V30 1564 C 153.381 -1.89862 -3.05981 0
M  V30 1565 C 153.234 -3.43318 -2.90607 0
M  V30 1566 C 154.553 -1.69499 -4.0615 0
M  V30 1567 H 151.672 -0.410257 -0.612257 0
M  V30 1568 H 154.314 -1.55685 -1.08913 0
M  V30 1569 H 152.464 -1.53204 -3.57017 0
M  V30 1570 H 154.136 -3.89747 -2.46769 0
M  V30 1571 H 152.379 -3.70179 -2.26164 0
M  V30 1572 H 153.05 -3.92642 -3.8799 0
M  V30 1573 H 155.526 -2.01442 -3.64088 0
M  V30 1574 H 154.402 -2.26002 -5.00214 0
M  V30 1575 H 154.663 -0.640365 -4.37438 0
M  V30 1576 N 153.722 1.14298 -1.08507 0
M  V30 1577 C 154.652 2.21542 -0.737646 0
M  V30 1578 C 155.633 1.67773 0.280377 0
M  V30 1579 O 156.818 1.93616 0.150521 0
M  V30 1580 C 153.948 3.46988 -0.147259 0
M  V30 1581 C 152.902 4.13789 -1.09374 0
M  V30 1582 C 152.228 5.33449 -0.365524 0
M  V30 1583 C 153.528 4.62208 -2.4323 0
M  V30 1584 H 155.222 2.5086 -1.6343 0
M  V30 1585 H 152.768 1.20576 -0.787243 0
M  V30 1586 H 154.721 4.21262 0.107808 0
M  V30 1587 H 153.445 3.17037 0.784538 0
M  V30 1588 H 152.104 3.4147 -1.33393 0
M  V30 1589 H 151.752 4.99759 0.57011 0
M  V30 1590 H 151.452 5.79088 -0.996512 0
M  V30 1591 H 152.976 6.10485 -0.118534 0
M  V30 1592 H 154.39 5.27952 -2.23472 0
M  V30 1593 H 152.787 5.18553 -3.02031 0
M  V30 1594 H 153.857 3.77224 -3.04681 0
M  V30 1595 N 155.201 0.870884 1.31352 0
M  V30 1596 C 156.131 0.343096 2.30966 0
M  V30 1597 C 157.112 -0.566507 1.60389 0
M  V30 1598 O 158.297 -0.483336 1.88089 0
M  V30 1599 C 155.427 -0.455487 3.443 0
M  V30 1600 C 154.381 0.361103 4.26474 0
M  V30 1601 C 153.707 -0.563221 5.31725 0
M  V30 1602 C 155.007 1.59566 4.97329 0
M  V30 1603 H 156.701 1.17548 2.75359 0
M  V30 1604 H 154.247 0.566686 1.32381 0
M  V30 1605 H 156.2 -0.83525 4.13039 0
M  V30 1606 H 154.924 -1.32139 2.98675 0
M  V30 1607 H 153.583 0.722825 3.59403 0
M  V30 1608 H 153.231 -1.42643 4.82351 0
M  V30 1609 H 152.931 -0.0207409 5.87596 0
M  V30 1610 H 154.455 -0.939808 6.03324 0
M  V30 1611 H 155.869 1.28728 5.58661 0
M  V30 1612 H 154.266 2.07728 5.63 0
M  V30 1613 H 155.336 2.34798 4.24262 0
M  V30 1614 N 156.679 -1.44442 0.630414 0
M  V30 1615 C 157.907 -2.06414 0.141671 0
M  V30 1616 C 158.322 -1.47105 -1.18345 0
M  V30 1617 O 157.679 -0.593662 -1.72574 0
M  V30 1618 C 157.73 -3.61494 0.0199784 0
M  V30 1619 O 157.451 -4.18594 1.29269 0
M  V30 1620 C 158.952 -4.40499 -0.497544 0
M  V30 1621 H 156.172 -0.666292 0.0793452 0
M  V30 1622 H 158.716 -1.85323 0.864614 0
M  V30 1623 H 156.871 -3.8185 -0.653402 0
M  V30 1624 H 157.285 -5.12026 1.13707 0
M  V30 1625 H 158.759 -5.49433 -0.531708 0
M  V30 1626 H 159.236 -4.11895 -1.52445 0
M  V30 1627 H 159.842 -4.25061 0.142562 0
M  V30 1628 N 158.157 -0.370918 -1.53173 0
M  V30 1629 C 159.067 0.480823 -2.2962 0
M  V30 1630 C 160.083 1.08789 -1.35798 0
M  V30 1631 O 161.259 1.09768 -1.68858 0
M  V30 1632 C 158.324 1.60227 -3.07454 0
M  V30 1633 C 157.385 1.0222 -4.16953 0
M  V30 1634 C 156.618 2.0902 -4.91066 0
M  V30 1635 O 156.841 3.30222 -4.65091 0
M  V30 1636 O 155.775 1.71778 -5.76867 0
M  V30 1637 H 159.601 -0.141421 -3.03371 0
M  V30 1638 H 157.186 -0.135146 -1.48787 0
M  V30 1639 H 159.068 2.25417 -3.56041 0
M  V30 1640 H 157.743 2.20982 -2.36535 0
M  V30 1641 H 156.65 0.334064 -3.72605 0
M  V30 1642 H 157.983 0.459131 -4.90054 0
M  V30 1643 N 159.635 1.57281 -0.100228 0
M  V30 1644 C 160.598 2.13158 0.842398 0
M  V30 1645 C 161.598 1.06202 1.20738 0
M  V30 1646 O 162.788 1.32066 1.13597 0
M  V30 1647 C 159.92 2.65639 2.13655 0
M  V30 1648 H 161.113 2.97766 0.357114 0
M  V30 1649 H 158.666 1.5559 0.148823 0
M  V30 1650 H 159.401 1.84566 2.66657 0
M  V30 1651 H 159.186 3.43844 1.88451 0
M  V30 1652 H 160.676 3.08846 2.81077 0
M  V30 1653 N 161.113 -0.173488 1.56642 0
M  V30 1654 C 162.524 -0.736155 1.71574 0
M  V30 1655 C 162.875 -1.82888 0.710389 0
M  V30 1656 O 162 -2.16017 -0.1287 0
M  V30 1657 C 162.595 -1.34211 3.11083 0
M  V30 1658 C 161.154 -1.85162 3.27707 0
M  V30 1659 C 160.301 -0.729765 2.67525 0
M  V30 1660 H 163.252 0.0518786 1.58615 0
M  V30 1661 H 163.273 -2.21178 3.09613 0
M  V30 1662 H 162.785 -0.546579 3.84232 0
M  V30 1663 H 160.886 -2.67366 2.59512 0
M  V30 1664 H 160.999 -1.99855 4.35425 0
M  V30 1665 H 159.363 -1.14965 2.27278 0
M  V30 1666 H 160.146 0.0538806 3.43258 0
M  V30 1667 N 162.591 -1.51276 -0.441967 0
M  V30 1668 C 163.521 -1.752 -1.54361 0
M  V30 1669 C 164.502 -0.601682 -1.59103 0
M  V30 1670 O 165.687 -0.843913 -1.74905 0
M  V30 1671 C 162.817 -1.87282 -2.92477 0
M  V30 1672 C 161.771 -3.02687 -3.02596 0
M  V30 1673 C 161.097 -2.99947 -4.42647 0
M  V30 1674 C 162.397 -4.4273 -2.77106 0
M  V30 1675 H 164.091 -2.67442 -1.34592 0
M  V30 1676 H 161.637 -1.28694 -0.646048 0
M  V30 1677 H 163.59 -2.02602 -3.695 0
M  V30 1678 H 162.314 -0.916844 -3.13467 0
M  V30 1679 H 160.973 -2.87065 -2.28012 0
M  V30 1680 H 160.621 -2.02136 -4.60597 0
M  V30 1681 H 160.321 -3.77439 -4.50348 0
M  V30 1682 H 161.845 -3.17354 -5.2165 0
M  V30 1683 H 163.259 -4.58727 -3.43864 0
M  V30 1684 H 161.656 -5.21893 -2.96222 0
M  V30 1685 H 162.726 -4.53087 -1.72744 0
M  V30 1686 N 164.069 0.697108 -1.41344 0
M  V30 1687 C 165.017 1.83237 -1.43272 0
M  V30 1688 C 166.011 1.66522 -0.310947 0
M  V30 1689 O 167.217 1.73402 -0.482899 0
M  V30 1690 H 163.592 0.603802 -0.448249 0
M  V30 1691 H 165.563 1.78727 -2.38954 0
M  V30 1692 C 164.312 3.21245 -1.33029 0
M  V30 1693 H 163.635 3.34723 -2.18633 0
M  V30 1694 H 165.075 4.00763 -1.38439 0
M  V30 1695 C 163.534 3.36873 -0.0424635 0
M  V30 1696 O 164.064 3.91177 0.913421 0
M  V30 1697 N 162.27 2.90581 0.0331145 0
M  V30 1698 H 161.817 2.46577 -0.745506 0
M  V30 1699 H 161.775 3.01416 0.894199 0
M  V30 1700 N 165.547 1.27147 0.931209 0
M  V30 1701 C 166.958 1.12044 1.49342 0
M  V30 1702 C 167.309 -0.295795 1.93957 0
M  V30 1703 O 166.434 -1.18835 1.80852 0
M  V30 1704 C 167.029 2.02781 2.71414 0
M  V30 1705 C 165.588 1.91794 3.2387 0
M  V30 1706 C 164.735 1.95543 1.96617 0
M  V30 1707 H 167.686 1.40091 0.745672 0
M  V30 1708 H 167.707 1.58156 3.46074 0
M  V30 1709 H 167.219 3.05848 2.38911 0
M  V30 1710 H 165.32 0.916992 3.6114 0
M  V30 1711 H 165.433 2.77852 3.90302 0
M  V30 1712 H 163.797 1.39722 2.12955 0
M  V30 1713 H 164.58 3.00259 1.66432 0
M  V30 1714 N 167.025 -1.13721 1.09112 0
M  V30 1715 C 167.972 -2.19031 0.727591 0
M  V30 1716 C 168.942 -1.63555 -0.289656 0
M  V30 1717 O 170.127 -1.90023 -0.172026 0
M  V30 1718 C 167.267 -3.4477 0.15082 0
M  V30 1719 C 166.38 -4.14365 1.22172 0
M  V30 1720 C 165.515 -5.27709 0.608042 0
M  V30 1721 C 164.554 -5.89147 1.66047 0
M  V30 1722 N 163.691 -6.93929 1.06806 0
M  V30 1723 H 168.531 -2.49475 1.62991 0
M  V30 1724 H 166.068 -1.22499 0.81439 0
M  V30 1725 H 168.026 -4.16714 -0.201358 0
M  V30 1726 H 166.656 -3.14787 -0.714783 0
M  V30 1727 H 165.708 -3.40737 1.69122 0
M  V30 1728 H 167.02 -4.56114 2.01895 0
M  V30 1729 H 166.174 -6.06355 0.204523 0
M  V30 1730 H 164.913 -4.872 -0.220769 0
M  V30 1731 H 163.918 -5.09198 2.07357 0
M  V30 1732 H 165.143 -6.31729 2.49189 0
M  V30 1733 H 163.089 -6.55483 0.260476 0
M  V30 1734 H 163.006 -7.34202 1.8023 0
M  V30 1735 H 164.274 -7.76434 0.690644 0
M  V30 1736 N 168.503 -0.877838 -1.30888 0
M  V30 1737 C 169.751 -0.491723 -1.96027 0
M  V30 1738 C 170.072 0.960827 -1.69685 0
M  V30 1739 O 169.342 1.67462 -1.01654 0
M  V30 1740 H 167.922 -0.17885 -0.725273 0
M  V30 1741 H 170.584 -1.11935 -1.59551 0
M  V30 1742 H 169.68 -0.656016 -3.05128 0
M  V30 1743 N 169.982 1.44106 -0.638065 0
M  V30 1744 C 170.93 2.3248 0.0748149 0
M  V30 1745 C 171.924 1.47746 0.828702 0
M  V30 1746 O 173.13 1.64049 0.740816 0
M  V30 1747 H 169.505 0.750771 0.0429686 0
M  V30 1748 H 171.476 2.90348 -0.688504 0
M  V30 1749 C 170.225 3.31843 1.03805 0
M  V30 1750 H 169.548 3.97059 0.467375 0
M  V30 1751 H 170.988 3.96345 1.50622 0
M  V30 1752 C 169.447 2.61291 2.1267 0
M  V30 1753 O 169.977 2.41702 3.20847 0
M  V30 1754 N 168.183 2.20915 1.88798 0
M  V30 1755 H 167.73 2.37047 1.00829 0
M  V30 1756 H 167.688 1.74038 2.61836 0
M  V30 1757 N 171.46 0.379036 1.52974 0
M  V30 1758 C 172.876 0.0285448 1.59574 0
M  V30 1759 C 173.076 -1.45542 1.39355 0
M  V30 1760 O 172.132 -2.2187 1.20541 0
M  V30 1761 C 173.445 0.496535 2.96572 0
M  V30 1762 C 174.993 0.451909 3.0972 0
M  V30 1763 C 175.468 0.895924 4.49152 0
M  V30 1764 N 176.959 0.851522 4.55306 0
M  V30 1765 C 177.694 1.16661 5.61407 0
M  V30 1766 N 177.19 1.55166 6.752 0
M  V30 1767 N 178.983 1.08853 5.51459 0
M  V30 1768 H 171.134 1.34525 1.64367 0
M  V30 1769 H 173.397 0.550733 0.771619 0
M  V30 1770 H 173.103 1.53258 3.16552 0
M  V30 1771 H 172.977 -0.109802 3.7704 0
M  V30 1772 H 175.364 -0.575029 2.89443 0
M  V30 1773 H 175.445 1.09392 2.3123 0
M  V30 1774 H 175.089 1.92104 4.70168 0
M  V30 1775 H 175.019 0.23103 5.26093 0
M  V30 1776 H 177.51 0.568038 3.73606 0
M  V30 1777 H 177.823 1.776 7.52116 0
M  V30 1778 H 176.168 1.59044 6.76557 0
M  V30 1779 H 179.359 0.786803 4.6144 0
M  V30 1780 H 179.532 1.33742 6.34048 0
M  V30 1781 N 172.938 -1.57226 0.108567 0
M  V30 1782 C 173.848 -2.18292 -0.859401 0
M  V30 1783 C 174.864 -1.15612 -1.30038 0
M  V30 1784 O 176.04 -1.48039 -1.36552 0
M  V30 1785 C 173.105 -2.762 -2.09558 0
M  V30 1786 C 172.166 -3.93881 -1.70752 0
M  V30 1787 C 171.399 -4.49018 -2.88477 0
M  V30 1788 O 171.622 -4.03068 -4.036 0
M  V30 1789 O 170.556 -5.39852 -2.66164 0
M  V30 1790 H 174.382 -3.01441 -0.369769 0
M  V30 1791 H 171.967 -1.48945 -0.1165 0
M  V30 1792 H 173.849 -3.13156 -2.81978 0
M  V30 1793 H 172.524 -1.96089 -2.57548 0
M  V30 1794 H 171.431 -3.61713 -0.954714 0
M  V30 1795 H 172.764 -4.75396 -1.27513 0
M  V30 1796 N 174.416 0.165178 -1.56732 0
M  V30 1797 C 175.832 0.517174 -1.50988 0
M  V30 1798 C 176.032 1.84331 -0.813894 0
M  V30 1799 O 175.088 2.49672 -0.37682 0
M  V30 1800 C 176.401 0.544261 -2.95733 0
M  V30 1801 C 177.949 0.631039 -3.06573 0
M  V30 1802 C 178.424 0.68896 -4.52788 0
M  V30 1803 N 179.915 0.751683 -4.5706 0
M  V30 1804 C 180.65 0.817177 -5.67547 0
M  V30 1805 N 180.146 0.843129 -6.8765 0
M  V30 1806 N 181.939 0.856668 -5.55534 0
M  V30 1807 H 174.09 -0.704318 -2.00382 0
M  V30 1808 H 176.353 -0.254687 -0.913148 0
M  V30 1809 H 176.059 -0.361607 -3.49836 0
M  V30 1810 H 175.933 1.3886 -3.5071 0
M  V30 1811 H 178.32 1.52733 -2.52501 0
M  V30 1812 H 178.401 -0.240095 -2.54671 0
M  V30 1813 H 178.045 -0.2031 -5.07494 0
M  V30 1814 H 177.975 1.57633 -5.02454 0
M  V30 1815 H 180.466 0.739661 -3.70591 0
M  V30 1816 H 180.779 0.894448 -7.67606 0
M  V30 1817 H 179.124 0.811304 -6.90248 0
M  V30 1818 H 182.315 0.833437 -4.60621 0
M  V30 1819 H 182.488 0.904247 -6.4166 0
M  V30 1820 N 175.894 1.51508 0.433938 0
M  V30 1821 C 176.827 1.67756 1.54704 0
M  V30 1822 C 177.805 0.525127 1.53887 0
M  V30 1823 O 178.989 0.749393 1.72963 0
M  V30 1824 C 176.116 1.69424 2.9328 0
M  V30 1825 C 175.162 2.90673 3.12108 0
M  V30 1826 S 175.995 4.51431 2.88046 0
M  V30 1827 C 177.151 4.55849 4.28897 0
M  V30 1828 H 177.384 2.61904 1.40689 0
M  V30 1829 H 174.917 1.41235 0.62386 0
M  V30 1830 H 176.875 1.7107 3.73156 0
M  V30 1831 H 175.536 0.764464 3.04655 0
M  V30 1832 H 174.729 2.88251 4.13434 0
M  V30 1833 H 174.331 2.86786 2.40062 0
M  V30 1834 H 176.623 4.31699 5.22152 0
M  V30 1835 H 177.566 5.57676 4.36351 0
M  V30 1836 H 177.974 3.85137 4.12711 0
M  V30 1837 N 177.372 -0.689602 1.41712 0
M  V30 1838 C 178.6 -1.47827 1.44758 0
M  V30 1839 C 179.015 -1.88721 0.0545703 0
M  V30 1840 O 178.372 -1.57176 -0.927463 0
M  V30 1841 C 178.423 -2.73698 2.3616 0
M  V30 1842 O 178.144 -2.34524 3.7004 0
M  V30 1843 C 179.645 -3.67389 2.48072 0
M  V30 1844 H 176.865 -0.455357 0.49284 0
M  V30 1845 H 179.409 -0.848574 1.86063 0
M  V30 1846 H 177.564 -3.32891 1.98148 0
M  V30 1847 H 177.978 -3.15701 4.18847 0
M  V30 1848 H 179.452 -4.52475 3.16181 0
M  V30 1849 H 179.929 -4.12284 1.51388 0
M  V30 1850 H 180.535 -3.14097 2.86746 0
M  V30 1851 N 178.85 -1.27639 -0.924453 0
M  V30 1852 C 179.782 -1.06442 -2.02985 0
M  V30 1853 C 180.795 -0.0194771 -1.62788 0
M  V30 1854 O 181.984 -0.261388 -1.76576 0
M  V30 1855 C 179.084 -0.59327 -3.33667 0
M  V30 1856 C 178.257 -1.71123 -4.02537 0
M  V30 1857 C 177.316 -1.23527 -5.11495 0
M  V30 1858 O 176.342 -1.93553 -5.35281 0
M  V30 1859 N 177.544 -0.0926678 -5.80426 0
M  V30 1860 H 180.309 -2.01633 -2.2173 0
M  V30 1861 H 177.87 -1.19248 -1.09505 0
M  V30 1862 H 179.862 -0.258686 -4.03872 0
M  V30 1863 H 178.432 0.265502 -3.1147 0
M  V30 1864 H 177.652 -2.21593 -3.26022 0
M  V30 1865 H 178.94 -2.46145 -4.45298 0
M  V30 1866 H 178.338 0.491741 -5.63559 0
M  V30 1867 H 176.895 0.182714 -6.51544 0
M  V30 1868 N 180.328 1.1314 -1.09713 0
M  V30 1869 C 181.577 1.83838 -0.829851 0
M  V30 1870 C 181.89 1.84599 0.646728 0
M  V30 1871 O 183.096 2.51218 1.02965 0
M  V30 1872 C 181.552 3.30069 -1.43466 0
M  V30 1873 C 181.16 3.37688 -2.94399 0
M  V30 1874 C 182.904 4.05788 -1.24645 0
M  V30 1875 C 180.811 4.78209 -3.47952 0
M  V30 1876 H 179.741 0.68877 -0.306777 0
M  V30 1877 H 182.392 1.27448 -1.3202 0
M  V30 1878 H 180.774 3.8628 -0.871996 0
M  V30 1879 H 181.948 2.91456 -3.56918 0
M  V30 1880 H 180.263 2.75436 -3.12289 0
M  V30 1881 H 182.86 5.09535 -1.62107 0
M  V30 1882 H 183.203 4.15878 -0.187357 0
M  V30 1883 H 183.736 3.55915 -1.77678 0
M  V30 1884 H 180.475 4.73311 -4.53495 0
M  V30 1885 H 179.995 5.24924 -2.90198 0
M  V30 1886 H 181.674 5.47133 -3.45332 0
M  V30 1887 N 181.806 0.884767 1.30421 0
M  V30 1888 C 182.739 0.295999 2.26272 0
M  V30 1889 C 183.717 -0.58332 1.51777 0
M  V30 1890 O 184.901 -0.53346 1.80794 0
M  V30 1891 C 182.028 -0.57944 3.33707 0
M  V30 1892 C 181.074 0.230525 4.25877 0
M  V30 1893 S 181.907 1.61867 5.1045 0
M  V30 1894 C 183.063 0.749756 6.21393 0
M  V30 1895 H 183.296 1.10848 2.75862 0
M  V30 1896 H 180.829 0.684178 1.38414 0
M  V30 1897 H 182.787 -1.07879 3.96071 0
M  V30 1898 H 181.448 -1.36601 2.82841 0
M  V30 1899 H 180.641 -0.437542 5.02097 0
M  V30 1900 H 180.243 0.662493 3.68086 0
M  V30 1901 H 182.535 -0.0333547 6.77492 0
M  V30 1902 H 183.478 1.48356 6.92384 0
M  V30 1903 H 183.886 0.310751 5.63644 0
M  V30 1904 N 183.284 -1.43765 0.645699 0
M  V30 1905 C 184.531 -2.01898 0.15604 0
M  V30 1906 C 184.859 -1.50887 -1.22733 0
M  V30 1907 O 184.114 -0.689271 -1.8316 0
M  V30 1908 C 184.413 -3.57238 0.107679 0
M  V30 1909 C 184.079 -4.27564 1.43178 0
M  V30 1910 C 182.741 -4.46492 1.7944 0
M  V30 1911 C 185.093 -4.67454 2.30513 0
M  V30 1912 C 182.421 -5.02573 3.02716 0
M  V30 1913 C 184.773 -5.24901 3.53074 0
M  V30 1914 C 183.437 -5.42046 3.89541 0
M  V30 1915 H 182.707 -0.738797 0.057099 0
M  V30 1916 H 185.354 -1.72341 0.834912 0
M  V30 1917 H 183.659 -3.86293 -0.654618 0
M  V30 1918 H 185.356 -3.99965 -0.287938 0
M  V30 1919 H 181.946 -4.13171 1.13963 0
M  V30 1920 H 186.13 -4.5253 2.0379 0
M  V30 1921 H 181.386 -5.14033 3.31028 0
M  V30 1922 H 185.56 -5.54758 4.20971 0
M  V30 1923 H 183.187 -5.85268 4.85145 0
M  V30 1924 N 184.763 -0.387143 -1.52771 0
M  V30 1925 C 185.673 0.456442 -2.30117 0
M  V30 1926 C 186.689 1.07342 -1.36944 0
M  V30 1927 O 187.865 1.07971 -1.70013 0
M  V30 1928 C 184.93 1.56957 -3.09136 0
M  V30 1929 C 183.991 0.977916 -4.18014 0
M  V30 1930 C 183.224 2.038 -4.93256 0
M  V30 1931 O 183.447 3.25271 -4.68567 0
M  V30 1932 O 182.381 1.6565 -5.78657 0
M  V30 1933 H 186.207 -0.17359 -3.03203 0
M  V30 1934 H 183.792 -0.150919 -1.48636 0
M  V30 1935 H 185.674 2.21628 -3.58412 0
M  V30 1936 H 184.349 2.18461 -2.38865 0
M  V30 1937 H 183.256 0.294525 -3.72939 0
M  V30 1938 H 184.589 0.407128 -4.90513 0
M  V30 1939 N 186.241 1.57166 -0.116904 0
M  V30 1940 C 187.466 1.999 0.55271 0
M  V30 1941 C 187.891 0.996039 1.59564 0
M  V30 1942 O 187.249 -0.032556 1.81271 0
M  V30 1943 C 187.297 3.4152 1.15742 0
M  V30 1944 O 186.401 3.44106 2.27299 0
M  V30 1945 H 185.742 0.649447 0.138258 0
M  V30 1946 H 188.272 2.03573 -0.204759 0
M  V30 1947 H 188.282 3.79684 1.49346 0
M  V30 1948 H 186.957 4.14034 0.393493 0
M  V30 1949 H 185.534 3.17759 1.9515 0
M  V30 1950 N 187.719 -0.156864 1.56817 0
M  V30 1951 C 188.966 -0.871125 1.82805 0
M  V30 1952 C 189.294 -1.81611 0.696262 0
M  V30 1953 O 188.549 -1.93141 -0.315459 0
M  V30 1954 C 188.848 -1.68737 3.1506 0
M  V30 1955 C 188.514 -0.890045 4.42028 0
M  V30 1956 C 187.176 -0.670042 4.76512 0
M  V30 1957 C 189.528 -0.331769 5.20143 0
M  V30 1958 C 186.856 0.119104 5.86579 0
M  V30 1959 C 189.208 0.444365 6.31037 0
M  V30 1960 C 187.872 0.675035 6.64078 0
M  V30 1961 H 187.142 -0.318767 0.668931 0
M  V30 1962 H 189.789 -0.135274 1.91022 0
M  V30 1963 H 188.094 -2.49304 3.0225 0
M  V30 1964 H 189.791 -2.24331 3.3238 0
M  V30 1965 H 186.381 -1.07157 4.14988 0
M  V30 1966 H 190.565 -0.489043 4.93885 0
M  V30 1967 H 185.821 0.307417 6.10627 0
M  V30 1968 H 189.995 0.884139 6.90765 0
M  V30 1969 H 187.622 1.28839 7.49203 0
M  V30 1970 N 189.197 -1.51736 -0.425897 0
M  V30 1971 C 190.145 -1.74464 -1.53834 0
M  V30 1972 C 191.139 -0.611241 -1.57988 0
M  V30 1973 O 192.345 -0.792899 -1.61596 0
M  V30 1974 H 188.72 -0.551437 -0.511293 0
M  V30 1975 H 190.691 -2.67694 -1.31843 0
M  V30 1976 C 189.44 -1.8972 -2.91379 0
M  V30 1977 H 188.763 -2.76344 -2.88919 0
M  V30 1978 H 190.203 -2.09629 -3.68553 0
M  V30 1979 C 188.662 -0.65992 -3.30374 0
M  V30 1980 O 189.192 0.180083 -4.01296 0
M  V30 1981 N 187.398 -0.500677 -2.86254 0
M  V30 1982 H 186.945 -1.18532 -2.28709 0
M  V30 1983 H 186.903 0.325903 -3.12706 0
M  V30 1984 N 190.675 0.682077 -1.42076 0
M  V30 1985 C 191.921 1.44428 -1.42367 0
M  V30 1986 C 192.254 1.94164 -0.0373056 0
M  V30 1987 O 191.529 1.70429 0.937239 0
M  V30 1988 C 191.812 2.64654 -2.44194 0
M  V30 1989 C 191.665 2.20596 -3.91991 0
M  V30 1990 C 192.984 3.66865 -2.431 0
M  V30 1991 H 190.103 0.523834 -0.518428 0
M  V30 1992 H 192.745 0.77576 -1.73442 0
M  V30 1993 H 190.895 3.2169 -2.17826 0
M  V30 1994 H 192.567 1.68783 -4.29313 0
M  V30 1995 H 190.81 1.52242 -4.06208 0
M  V30 1996 H 191.481 3.06921 -4.58807 0
M  V30 1997 H 193.957 3.19531 -2.66532 0
M  V30 1998 H 192.833 4.48577 -3.16339 0
M  V30 1999 H 193.094 4.17493 -1.45437 0
M  V30 2000 N 192.153 1.28127 0.917671 0
M  V30 2001 C 193.564 1.13622 1.48145 0
M  V30 2002 C 193.915 -0.275207 1.9426 0
M  V30 2003 O 193.04 -1.1691 1.82102 0
M  V30 2004 C 193.635 2.05648 2.69248 0
M  V30 2005 C 192.194 1.95219 3.21818 0
M  V30 2006 C 191.341 1.97618 1.94532 0
M  V30 2007 H 194.292 1.40874 0.730772 0
M  V30 2008 H 194.313 1.61818 3.44377 0
M  V30 2009 H 193.825 3.08365 2.35653 0
M  V30 2010 H 191.926 0.955244 3.60147 0
M  V30 2011 H 192.039 2.81976 3.87333 0
M  V30 2012 H 190.403 1.41973 2.11461 0
M  V30 2013 H 191.186 3.02007 1.63238 0
M  V30 2014 N 193.631 -1.12557 1.10312 0
M  V30 2015 C 194.594 -2.16434 0.75424 0
M  V30 2016 C 195.594 -1.59278 -0.220685 0
M  V30 2017 O 196.784 -1.742 0.00230591 0
M  V30 2018 C 193.916 -3.40699 0.116987 0
M  V30 2019 H 195.109 -2.48811 1.67431 0
M  V30 2020 H 192.662 -1.27542 0.903475 0
M  V30 2021 H 193.397 -3.13921 -0.813877 0
M  V30 2022 H 193.182 -3.83459 0.818613 0
M  V30 2023 H 194.672 -4.17451 -0.111387 0
M  V30 2024 N 195.109 -0.891671 -1.2995 0
M  V30 2025 C 196.042 -0.307994 -2.26112 0
M  V30 2026 C 197.02 0.575262 -1.52084 0
M  V30 2027 O 198.204 0.523864 -1.81074 0
M  V30 2028 C 195.331 0.561734 -3.34009 0
M  V30 2029 C 194.377 -0.253107 -4.25748 0
M  V30 2030 S 195.21 -1.64572 -5.09584 0
M  V30 2031 C 196.366 -0.782699 -6.20987 0
M  V30 2032 H 196.599 -1.12309 -2.75271 0
M  V30 2033 H 194.132 -0.691509 -1.38049 0
M  V30 2034 H 196.09 1.05777 -3.96638 0
M  V30 2035 H 194.751 1.35099 -2.83561 0
M  V30 2036 H 193.944 0.410908 -5.02322 0
M  V30 2037 H 193.546 -0.682004 -3.67729 0
M  V30 2038 H 195.838 -0.00257476 -6.775 0
M  V30 2039 H 196.781 -1.52026 -6.91588 0
M  V30 2040 H 197.189 -0.340638 -5.63471 0
M  V30 2041 N 196.587 1.43421 -0.653314 0
M  V30 2042 C 197.817 2.05864 -0.174238 0
M  V30 2043 C 198.225 1.49052 1.16534 0
M  V30 2044 O 197.568 0.616481 1.73047 0
M  V30 2045 C 197.63 3.59499 -0.00875873 0
M  V30 2046 C 197.294 4.38893 -1.27364 0
M  V30 2047 C 198.291 4.70947 -2.20239 0
M  V30 2048 C 195.976 4.789 -1.51525 0
M  V30 2049 C 197.97 5.41916 -3.35568 0
M  V30 2050 C 195.657 5.49614 -2.67147 0
M  V30 2051 C 196.655 5.81044 -3.58994 0
M  V30 2052 O 196.343 6.50313 -4.72597 0
M  V30 2053 H 196.075 0.670345 -0.0872549 0
M  V30 2054 H 198.629 1.84913 -0.894226 0
M  V30 2055 H 196.859 3.79025 0.7666 0
M  V30 2056 H 198.548 4.0364 0.427687 0
M  V30 2057 H 199.314 4.40558 -2.02815 0
M  V30 2058 H 195.193 4.53843 -0.809158 0
M  V30 2059 H 198.737 5.66365 -4.07279 0
M  V30 2060 H 194.634 5.79419 -2.84505 0
M  V30 2061 H 195.402 6.68795 -4.71864 0
M  V30 2062 N 198.065 0.39524 1.52563 0
M  V30 2063 C 199.311 -0.185318 2.01952 0
M  V30 2064 C 199.644 -1.45964 1.28095 0
M  V30 2065 O 198.919 -1.90689 0.38315 0
M  V30 2066 C 199.202 -0.447193 3.57312 0
M  V30 2067 C 199.055 0.842828 4.41833 0
M  V30 2068 C 200.374 -1.23529 4.22408 0
M  V30 2069 H 197.493 -0.0658788 0.73405 0
M  V30 2070 H 200.135 0.525975 1.82575 0
M  V30 2071 H 198.285 -1.05312 3.73954 0
M  V30 2072 H 199.957 1.4795 4.36931 0
M  V30 2073 H 198.2 1.45686 4.08605 0
M  V30 2074 H 198.871 0.614165 5.48573 0
M  V30 2075 H 201.347 -0.722445 4.0978 0
M  V30 2076 H 200.223 -1.38727 5.3108 0
M  V30 2077 H 200.484 -2.25213 3.80436 0
M  V30 2078 N 199.544 -1.57102 0.125237 0
M  V30 2079 C 200.507 -2.14471 -0.80838 0
M  V30 2080 C 201.507 -1.0811 -1.19033 0
M  V30 2081 O 202.697 -1.33856 -1.11482 0
M  V30 2082 C 199.829 -2.69005 -2.09402 0
M  V30 2083 H 201.022 -2.98297 -0.309696 0
M  V30 2084 H 198.575 -1.55807 -0.124051 0
M  V30 2085 H 199.31 -1.88785 -2.63687 0
M  V30 2086 H 199.095 -3.46799 -1.82957 0
M  V30 2087 H 200.585 -3.13278 -2.76128 0
M  V30 2088 N 201.022 0.148545 -1.56898 0
M  V30 2089 C 202.271 0.85984 -1.82454 0
M  V30 2090 C 202.584 1.82406 -0.706229 0
M  V30 2091 O 203.79 2.57938 -0.847349 0
M  V30 2092 C 202.246 1.57967 -3.2338 0
M  V30 2093 C 201.854 0.65794 -4.43142 0
M  V30 2094 C 203.598 2.27784 -3.58211 0
M  V30 2095 C 201.505 1.3793 -5.75091 0
M  V30 2096 H 200.435 0.324834 -0.68044 0
M  V30 2097 H 203.086 0.112588 -1.83154 0
M  V30 2098 H 201.468 2.37249 -3.17063 0
M  V30 2099 H 202.642 -0.0995497 -4.60692 0
M  V30 2100 H 200.957 0.0682643 -4.16344 0
M  V30 2101 H 203.554 2.8239 -4.54048 0
M  V30 2102 H 203.897 3.04204 -2.84193 0
M  V30 2103 H 204.43 1.55421 -3.66182 0
M  V30 2104 H 201.169 0.656982 -6.52199 0
M  V30 2105 H 200.689 2.10954 -5.61479 0
M  V30 2106 H 202.368 1.92063 -6.17835 0
M  V30 2107 N 202.5 1.5196 0.417844 0
M  V30 2108 C 203.432 1.70895 1.52733 0
M  V30 2109 C 204.445 0.589405 1.51756 0
M  V30 2110 O 205.634 0.864312 1.56179 0
M  V30 2111 C 202.734 1.72627 2.91639 0
M  V30 2112 C 201.907 3.01479 3.16905 0
M  V30 2113 C 200.966 2.95139 4.35637 0
M  V30 2114 O 199.992 3.69059 4.3334 0
M  V30 2115 N 201.194 2.12328 5.40275 0
M  V30 2116 H 203.959 2.66612 1.36888 0
M  V30 2117 H 201.52 1.50089 0.607037 0
M  V30 2118 H 203.512 1.65928 3.6912 0
M  V30 2119 H 202.082 0.844216 3.00985 0
M  V30 2120 H 201.302 3.21895 2.27546 0
M  V30 2121 H 202.59 3.86736 3.30625 0
M  V30 2122 H 201.988 1.51685 5.44985 0
M  V30 2123 H 200.545 2.11494 6.16534 0
M  V30 2124 N 203.978 -0.674533 1.42435 0
M  V30 2125 C 204.941 -1.76986 1.45632 0
M  V30 2126 C 205.941 -1.5708 0.343871 0
M  V30 2127 O 207.131 -1.63367 0.604709 0
M  V30 2128 C 204.263 -3.15623 1.28822 0
M  V30 2129 H 205.456 -1.75539 2.43158 0
M  V30 2130 H 203.009 -0.884189 1.28887 0
M  V30 2131 H 203.744 -3.22696 0.322193 0
M  V30 2132 H 203.529 -3.31475 2.09444 0
M  V30 2133 H 205.019 -3.95537 1.33942 0
M  V30 2134 N 205.456 -1.28612 -0.910864 0
M  V30 2135 C 206.702 -1.16106 -1.66274 0
M  V30 2136 C 207.035 0.289113 -1.92036 0
M  V30 2137 O 206.31 1.21 -1.52281 0
M  V30 2138 C 206.593 -1.96309 -3.01885 0
M  V30 2139 C 206.446 -3.49405 -2.8326 0
M  V30 2140 C 207.765 -1.78076 -4.02463 0
M  V30 2141 H 204.884 -0.423152 -0.603417 0
M  V30 2142 H 207.526 -1.57961 -1.05586 0
M  V30 2143 H 205.676 -1.60742 -3.53687 0
M  V30 2144 H 207.348 -3.94894 -2.38446 0
M  V30 2145 H 205.591 -3.74893 -2.18261 0
M  V30 2146 H 206.262 -4.00784 -3.79574 0
M  V30 2147 H 208.738 -2.0912 -3.59733 0
M  V30 2148 H 207.614 -2.36561 -4.95308 0
M  V30 2149 H 207.875 -0.733008 -4.35981 0
M  V30 2150 N 206.934 1.1197 -1.10907 0
M  V30 2151 C 207.864 2.19928 -0.784473 0
M  V30 2152 C 208.845 1.6833 0.244726 0
M  V30 2153 O 210.03 1.93892 0.109418 0
M  V30 2154 C 207.16 3.46597 -0.220827 0
M  V30 2155 C 206.114 4.11376 -1.18127 0
M  V30 2156 C 205.44 5.32554 -0.478594 0
M  V30 2157 C 206.74 4.56945 -2.52979 0
M  V30 2158 H 208.434 2.47337 -1.68715 0
M  V30 2159 H 205.98 1.18879 -0.812642 0
M  V30 2160 H 207.933 4.21396 0.0184278 0
M  V30 2161 H 206.657 3.1863 0.717113 0
M  V30 2162 H 205.316 3.38564 -1.40606 0
M  V30 2163 H 204.964 5.00856 0.463976 0
M  V30 2164 H 204.664 5.76844 -1.11912 0
M  V30 2165 H 206.188 6.10096 -0.248 0
M  V30 2166 H 207.602 5.23093 -2.3462 0
M  V30 2167 H 205.999 5.1203 -3.12962 0
M  V30 2168 H 207.069 3.70676 -3.12614 0
M  V30 2169 N 208.412 0.89855 1.29475 0
M  V30 2170 C 209.637 0.538561 2.00285 0
M  V30 2171 C 210.062 -0.869135 1.66816 0
M  V30 2172 O 209.42 -1.57831 0.892145 0
M  V30 2173 C 209.468 0.736475 3.52999 0
M  V30 2174 O 208.572 -0.211537 4.11857 0
M  V30 2175 H 207.913 0.210563 0.62973 0
M  V30 2176 H 210.443 1.20982 1.64998 0
M  V30 2177 H 210.453 0.640685 4.02938 0
M  V30 2178 H 209.128 1.76276 3.76696 0
M  V30 2179 H 207.705 -0.0682991 3.72837 0
M  V30 2180 N 209.89 -1.43072 0.660911 0
M  V30 2181 C 210.82 -2.33497 -0.0122829 0
M  V30 2182 C 211.801 -1.49903 -0.803925 0
M  V30 2183 O 212.986 -1.78546 -0.763864 0
M  V30 2184 C 210.116 -3.33363 -0.973994 0
M  V30 2185 C 209.07 -4.27003 -0.291928 0
M  V30 2186 C 208.396 -5.16967 -1.36562 0
M  V30 2187 C 209.696 -5.15816 0.820462 0
M  V30 2188 H 211.39 -2.90038 0.742873 0
M  V30 2189 H 208.936 -1.39461 0.358688 0
M  V30 2190 H 210.889 -3.95524 -1.45392 0
M  V30 2191 H 209.613 -2.75095 -1.7604 0
M  V30 2192 H 208.272 -3.66217 0.167623 0
M  V30 2193 H 207.92 -4.55034 -2.14366 0
M  V30 2194 H 207.62 -5.80441 -0.914454 0
M  V30 2195 H 209.144 -5.82003 -1.84675 0
M  V30 2196 H 210.558 -5.71742 0.422366 0
M  V30 2197 H 208.955 -5.8805 1.19656 0
M  V30 2198 H 210.025 -4.55045 1.67518 0
M  V30 2199 N 211.368 -0.403325 -1.52352 0
M  V30 2200 C 212.598 0.17376 -2.05868 0
M  V30 2201 C 213.006 1.39898 -1.27378 0
M  V30 2202 O 212.349 1.80939 -0.31729 0
M  V30 2203 C 212.411 0.594756 -3.54546 0
M  V30 2204 C 212.075 -0.518926 -4.54044 0
M  V30 2205 C 213.072 -1.3807 -5.01231 0
M  V30 2206 C 210.757 -0.689961 -4.97539 0
M  V30 2207 C 212.751 -2.39852 -5.90551 0
M  V30 2208 C 210.438 -1.71109 -5.86656 0
M  V30 2209 C 211.436 -2.56378 -6.33056 0
M  V30 2210 O 211.124 -3.56743 -7.20409 0
M  V30 2211 H 210.856 0.0264951 -0.675481 0
M  V30 2212 H 213.41 -0.571179 -1.97299 0
M  V30 2213 H 211.64 1.39189 -3.60782 0
M  V30 2214 H 213.329 1.0991 -3.90736 0
M  V30 2215 H 214.095 -1.25994 -4.68349 0
M  V30 2216 H 209.974 -0.035939 -4.60986 0
M  V30 2217 H 213.518 -3.06441 -6.26689 0
M  V30 2218 H 209.415 -1.83218 -6.18952 0
M  V30 2219 H 210.183 -3.52918 -7.38506 0
M  V30 2220 N 212.846 1.57033 -0.133567 0
M  V30 2221 C 214.071 2.00475 0.531477 0
M  V30 2222 C 214.496 1.01291 1.58499 0
M  V30 2223 O 213.854 -0.0133279 1.81295 0
M  V30 2224 C 213.902 3.42729 1.12113 0
M  V30 2225 O 213.006 3.46498 2.23636 0
M  V30 2226 H 212.347 0.650876 0.131362 0
M  V30 2227 H 214.877 2.03344 -0.22634 0
M  V30 2228 H 214.887 3.81246 1.4531 0
M  V30 2229 H 213.562 4.14428 0.349557 0
M  V30 2230 H 212.139 3.19811 1.91769 0
M  V30 2231 N 214.325 -0.140222 1.56975 0
M  V30 2232 C 215.55 -0.870414 1.88251 0
M  V30 2233 C 215.975 -1.73637 0.723312 0
M  V30 2234 O 215.333 -1.78329 -0.32689 0
M  V30 2235 C 215.381 -1.69737 3.18154 0
M  V30 2236 O 214.485 -2.80229 3.02565 0
M  V30 2237 H 213.826 -0.242025 0.61832 0
M  V30 2238 H 216.356 -0.128999 2.04193 0
M  V30 2239 H 216.366 -2.09099 3.50345 0
M  V30 2240 H 215.041 -1.06152 4.02125 0
M  V30 2241 H 213.618 -2.44224 2.81796 0
M  V30 2242 N 215.803 -1.52179 -0.40978 0
M  V30 2243 C 217.051 -1.65878 -1.15451 0
M  V30 2244 C 217.372 -0.390771 -1.91044 0
M  V30 2245 O 216.642 0.594323 -1.86667 0
M  V30 2246 H 215.222 -0.611405 -0.429177 0
M  V30 2247 H 217.884 -1.89219 -0.467134 0
M  V30 2248 H 216.98 -2.49954 -1.86894 0
M  V30 2249 N 217.281 0.66697 -1.42791 0
M  V30 2250 C 218.697 0.981027 -1.25889 0
M  V30 2251 C 218.897 2.00793 -0.168695 0
M  V30 2252 O 217.953 2.48321 0.45747 0
M  V30 2253 C 219.266 1.47838 -2.61848 0
M  V30 2254 C 220.814 1.59575 -2.69267 0
M  V30 2255 C 221.289 2.12704 -4.05612 0
M  V30 2256 N 222.78 2.20026 -4.07606 0
M  V30 2257 C 223.515 2.62227 -5.09926 0
M  V30 2258 N 223.011 3.03824 -6.22626 0
M  V30 2259 N 224.804 2.62045 -4.97281 0
M  V30 2260 H 216.955 -0.0127891 -2.12396 0
M  V30 2261 H 219.218 0.0568258 -0.946295 0
M  V30 2262 H 218.924 0.798299 -3.4252 0
M  V30 2263 H 218.798 2.45579 -2.86305 0
M  V30 2264 H 221.185 2.26687 -1.88936 0
M  V30 2265 H 221.266 0.60302 -2.48591 0
M  V30 2266 H 220.91 1.46198 -4.86404 0
M  V30 2267 H 220.84 3.12782 -4.23645 0
M  V30 2268 H 223.331 1.90708 -3.2625 0
M  V30 2269 H 223.644 3.34734 -6.96544 0
M  V30 2270 H 221.989 3.01662 -6.26119 0
M  V30 2271 H 225.18 2.28916 -4.08308 0
M  V30 2272 H 225.353 2.94613 -5.77154 0
M  V30 2273 N 218.759 1.29093 0.90403 0
M  V30 2274 C 219.987 1.19689 1.68766 0
M  V30 2275 C 220.402 -0.243113 1.87228 0
M  V30 2276 O 219.759 -1.16326 1.40621 0
M  V30 2277 C 219.81 1.90144 3.07453 0
M  V30 2278 O 219.531 3.2852 2.89838 0
M  V30 2279 C 221.032 1.87162 4.01852 0
M  V30 2280 H 218.252 0.415035 0.527244 0
M  V30 2281 H 220.796 1.7039 1.13082 0
M  V30 2282 H 218.951 1.43289 3.59926 0
M  V30 2283 H 219.365 3.63944 3.77684 0
M  V30 2284 H 220.839 2.41032 4.96596 0
M  V30 2285 H 221.316 0.84617 4.30972 0
M  V30 2286 H 221.922 2.33741 3.5531 0
M  V30 2287 N 220.237 -1.11381 1.11499 0
M  V30 2288 C 221.465 -1.86934 0.88675 0
M  V30 2289 C 221.88 -1.80195 -0.563476 0
M  V30 2290 O 221.237 -1.18367 -1.38908 0
M  V30 2291 C 221.288 -3.35722 1.34064 0
M  V30 2292 O 221.009 -3.4232 2.73401 0
M  V30 2293 C 222.51 -4.2818 1.14791 0
M  V30 2294 H 219.73 -0.591117 0.317523 0
M  V30 2295 H 222.274 -1.40865 1.48248 0
M  V30 2296 H 220.429 -3.79294 0.788355 0
M  V30 2297 H 220.843 -4.34971 2.93087 0
M  V30 2298 H 222.317 -5.30817 1.5145 0
M  V30 2299 H 222.794 -4.39113 0.0875279 0
M  V30 2300 H 223.4 -3.90402 1.68721 0
M  V30 2301 N 221.715 -0.905404 -1.28997 0
M  V30 2302 C 222.963 -0.533192 -1.9494 0
M  V30 2303 C 223.284 0.924618 -1.71685 0
M  V30 2304 O 222.554 1.65268 -1.05183 0
M  V30 2305 H 221.134 -0.194194 -0.721317 0
M  V30 2306 H 223.796 -1.15294 -1.57141 0
M  V30 2307 H 222.892 -0.72059 -3.03667 0
M  V30 2308 N 223.193 1.4272 -0.668489 0
M  V30 2309 C 224.442 2.00846 -0.185389 0
M  V30 2310 C 224.755 1.53442 1.21305 0
M  V30 2311 O 225.961 2.03944 1.79218 0
M  V30 2312 C 224.417 3.58805 -0.280591 0
M  V30 2313 C 224.025 4.15198 -1.68268 0
M  V30 2314 C 225.769 4.24255 0.14412 0
M  V30 2315 C 223.676 5.655 -1.73099 0
M  V30 2316 H 222.606 0.751145 -0.0655475 0
M  V30 2317 H 225.257 1.63516 -0.832752 0
M  V30 2318 H 223.639 3.93608 0.434553 0
M  V30 2319 H 224.813 3.91866 -2.42441 0
M  V30 2320 H 223.128 3.62176 -2.05469 0
M  V30 2321 H 225.725 5.34547 0.128086 0
M  V30 2322 H 226.068 3.99277 1.17827 0
M  V30 2323 H 226.601 3.94389 -0.519798 0
M  V30 2324 H 223.34 5.95268 -2.74475 0
M  V30 2325 H 222.86 5.90842 -1.03274 0
M  V30 2326 H 224.539 6.29808 -1.48158 0
M  V30 2327 N 224.671 0.411399 1.52136 0
M  V30 2328 C 225.917 -0.163888 2.02137 0
M  V30 2329 C 226.25 -1.44597 1.29636 0
M  V30 2330 O 225.525 -1.90272 0.403353 0
M  V30 2331 C 225.808 -0.40927 3.57767 0
M  V30 2332 C 225.661 0.889643 4.40914 0
M  V30 2333 C 226.98 -1.19042 4.23694 0
M  V30 2334 H 224.099 -0.0580896 0.734707 0
M  V30 2335 H 226.741 0.54531 1.82007 0
M  V30 2336 H 224.891 -1.0134 3.7505 0
M  V30 2337 H 226.563 1.52575 4.35337 0
M  V30 2338 H 224.806 1.50011 4.07037 0
M  V30 2339 H 225.477 0.672314 5.4789 0
M  V30 2340 H 227.953 -0.678942 4.10524 0
M  V30 2341 H 226.829 -1.33086 5.32522 0
M  V30 2342 H 227.09 -2.21166 3.82803 0
M  V30 2343 N 226.149 -1.5696 0.141893 0
M  V30 2344 C 227.079 -2.19516 -0.795936 0
M  V30 2345 C 228.06 -1.14187 -1.26077 0
M  V30 2346 O 229.245 -1.42511 -1.31925 0
M  V30 2347 C 226.375 -2.81272 -2.03723 0
M  V30 2348 C 225.329 -3.92384 -1.70936 0
M  V30 2349 C 224.655 -4.41052 -3.02287 0
M  V30 2350 C 225.955 -5.13403 -0.959954 0
M  V30 2351 H 227.649 -2.98138 -0.274596 0
M  V30 2352 H 225.195 -1.43406 -0.130636 0
M  V30 2353 H 227.148 -3.237 -2.69808 0
M  V30 2354 H 225.872 -1.99973 -2.58221 0
M  V30 2355 H 224.531 -3.50566 -1.07232 0
M  V30 2356 H 224.179 -3.56582 -3.54765 0
M  V30 2357 H 223.879 -5.15993 -2.81114 0
M  V30 2358 H 225.403 -4.86146 -3.69451 0
M  V30 2359 H 226.817 -5.52706 -1.52279 0
M  V30 2360 H 225.214 -5.94073 -0.848357 0
M  V30 2361 H 226.284 -4.84875 0.0492434 0
M  V30 2362 N 227.627 0.131896 -1.57047 0
M  V30 2363 C 228.904 0.871495 -1.75112 0
M  V30 2364 C 229.284 1.9866 -0.713949 0
M  V30 2365 O 228.632 2.26965 0.264447 0
M  V30 2366 C 228.842 1.40007 -3.19686 0
M  V30 2367 C 230.19 1.85752 -3.81813 0
M  V30 2368 O 231.214 1.49715 -3.23209 0
M  V30 2369 O 230.073 2.5226 -4.84796 0
M  V30 2370 H 227.167 0.412919 -0.716538 0
M  V30 2371 H 229.713 0.116641 -1.69299 0
M  V30 2372 H 228.485 0.599404 -3.86682 0
M  V30 2373 H 228.108 2.218 -3.29986 0
M  V30 2374 N 229.106 1.52395 0.401703 0
M  V30 2375 C 230.331 1.70972 1.17403 0
M  V30 2376 C 230.756 0.421615 1.83314 0
M  V30 2377 O 230.114 -0.621564 1.70312 0
M  V30 2378 C 230.162 2.85151 2.20728 0
M  V30 2379 O 229.266 2.51238 3.27037 0
M  V30 2380 H 228.607 0.568927 0.342372 0
M  V30 2381 H 231.137 1.99131 0.469891 0
M  V30 2382 H 231.147 3.10279 2.64936 0
M  V30 2383 H 229.822 3.78603 1.7214 0
M  V30 2384 H 228.399 2.36808 2.88057 0
M  V30 2385 N 230.584 -0.659388 1.43143 0
M  V30 2386 C 231.832 -1.41654 1.44147 0
M  V30 2387 C 232.153 -1.94893 0.0645739 0
M  V30 2388 O 231.423 -1.74044 -0.899198 0
M  V30 2389 H 230.003 -0.525708 0.530697 0
M  V30 2390 H 232.665 -0.778097 1.78694 0
M  V30 2391 H 231.761 -2.26195 2.1504 0
M  V30 2392 N 232.062 -1.29571 -0.897171 0
M  V30 2393 C 233.339 -1.08365 -1.62839 0
M  V30 2394 C 233.719 0.371331 -2.07808 0
M  V30 2395 O 233.067 1.3606 -1.83576 0
M  V30 2396 C 233.277 -2.0735 -2.80726 0
M  V30 2397 C 234.625 -2.38406 -3.51351 0
M  V30 2398 O 235.649 -2.05564 -2.90898 0
M  V30 2399 O 234.508 -2.9453 -4.60341 0
M  V30 2400 H 231.602 -0.415345 -0.715134 0
M  V30 2401 H 234.148 -1.40952 -0.945018 0
M  V30 2402 H 232.92 -3.05339 -2.44711 0
M  V30 2403 H 232.543 -1.75507 -3.56767 0
M  V30 2404 N 233.54 1.10788 -1.12088 0
M  V30 2405 C 234.788 1.8231 -0.872205 0
M  V30 2406 C 235.109 1.85419 0.603709 0
M  V30 2407 O 234.379 1.32963 1.43867 0
M  V30 2408 H 232.959 0.675137 -0.319686 0
M  V30 2409 H 235.621 1.34068 -1.41463 0
M  V30 2410 H 234.717 2.85955 -1.25045 0
M  V30 2411 N 235.018 0.912232 1.28515 0
M  V30 2412 C 236.264 0.545405 1.95328 0
M  V30 2413 C 236.597 -0.908313 1.71649 0
M  V30 2414 O 235.872 -1.64575 1.03659 0
M  V30 2415 C 236.155 0.853483 3.4984 0
M  V30 2416 C 236.008 2.35982 3.82926 0
M  V30 2417 C 237.327 0.348589 4.38717 0
M  V30 2418 H 234.446 0.199626 0.709449 0
M  V30 2419 H 237.088 1.1412 1.5191 0
M  V30 2420 H 235.238 0.34643 3.86952 0
M  V30 2421 H 236.91 2.93738 3.55691 0
M  V30 2422 H 235.153 2.81543 3.30024 0
M  V30 2423 H 235.824 2.52593 4.90816 0
M  V30 2424 H 238.3 0.78294 4.08668 0
M  V30 2425 H 237.176 0.593242 5.45685 0
M  V30 2426 H 237.437 -0.751049 4.35674 0
M  V30 2427 N 236.496 -1.42363 0.676048 0
M  V30 2428 C 237.721 -2.06377 0.205705 0
M  V30 2429 C 238.146 -1.50463 -1.12883 0
M  V30 2430 O 237.504 -0.623619 -1.70237 0
M  V30 2431 C 237.552 -3.60277 0.152655 0
M  V30 2432 O 236.656 -4.02935 -0.87845 0
M  V30 2433 H 235.997 -0.655588 0.105359 0
M  V30 2434 H 238.527 -1.82475 0.925412 0
M  V30 2435 H 238.537 -4.07993 -0.0230675 0
M  V30 2436 H 237.212 -4.00346 1.12675 0
M  V30 2437 H 235.789 -3.66764 -0.673668 0
M  V30 2438 N 237.974 -0.419461 -1.51915 0
M  V30 2439 C 238.924 0.418496 -2.24126 0
M  V30 2440 C 239.908 1.00495 -1.25656 0
M  V30 2441 O 241.1 0.926058 -1.50842 0
M  V30 2442 C 238.229 1.52899 -3.07371 0
M  V30 2443 C 237.315 0.952797 -4.13258 0
M  V30 2444 N 237.706 0.104175 -5.05693 0
M  V30 2445 C 236.004 1.22224 -4.28926 0
M  V30 2446 C 236.705 -0.21752 -5.81293 0
M  V30 2447 N 235.681 0.394293 -5.42168 0
M  V30 2448 H 239.483 -0.236048 -2.92951 0
M  V30 2449 H 236.997 -0.230481 -1.60756 0
M  V30 2450 H 238.994 2.14199 -3.57665 0
M  V30 2451 H 237.654 2.18605 -2.40088 0
M  V30 2452 H 238.665 -0.260924 -5.17242 0
M  V30 2453 H 235.342 1.87812 -3.72871 0
M  V30 2454 H 236.732 -0.906992 -6.6575 0
M  V30 2455 N 239.452 1.56882 -0.150215 0
M  V30 2456 C 240.68 2.00593 0.506948 0
M  V30 2457 C 241.095 1.03033 1.58208 0
M  V30 2458 O 240.452 0.0278396 1.82479 0
M  V30 2459 C 240.503 3.44209 1.10465 0
M  V30 2460 O 240.224 4.3804 0.0724636 0
M  V30 2461 C 241.725 4.03214 1.84211 0
M  V30 2462 H 238.945 0.65795 0.13169 0
M  V30 2463 H 241.489 2.03018 -0.245743 0
M  V30 2464 H 239.644 3.42625 1.80795 0
M  V30 2465 H 240.058 5.22007 0.510793 0
M  V30 2466 H 241.532 5.0569 2.21318 0
M  V30 2467 H 242.009 3.44107 2.72923 0
M  V30 2468 H 242.615 4.08437 1.18572 0
M  V30 2469 N 240.93 -0.123565 1.57115 0
M  V30 2470 C 242.176 -0.833386 1.84885 0
M  V30 2471 C 242.509 -1.79742 0.735292 0
M  V30 2472 O 241.784 -1.92764 -0.25925 0
M  V30 2473 C 242.067 -1.5873 3.23228 0
M  V30 2474 C 241.92 -0.643183 4.45178 0
M  V30 2475 C 243.239 -2.54453 3.59085 0
M  V30 2476 H 240.358 -0.301518 0.6725 0
M  V30 2477 H 243 -0.097778 1.89748 0
M  V30 2478 H 241.15 -2.21438 3.19214 0
M  V30 2479 H 242.822 -0.0253015 4.61293 0
M  V30 2480 H 241.065 0.0456139 4.33776 0
M  V30 2481 H 241.736 -1.20724 5.38637 0
M  V30 2482 H 244.212 -2.01853 3.63861 0
M  V30 2483 H 243.088 -3.04238 4.5687 0
M  V30 2484 H 243.349 -3.36906 2.86264 0
M  V30 2485 N 242.408 -1.52605 -0.393616 0
M  V30 2486 C 243.819 -1.59417 -0.971761 0
M  V30 2487 C 244.17 -0.444173 -1.91106 0
M  V30 2488 O 243.295 0.433382 -2.12016 0
M  V30 2489 C 243.89 -2.88936 -1.76921 0
M  V30 2490 C 242.449 -2.98175 -2.29714 0
M  V30 2491 C 241.596 -2.54491 -1.10135 0
M  V30 2492 H 244.547 -1.57751 -0.173317 0
M  V30 2493 H 244.568 -2.75163 -2.62804 0
M  V30 2494 H 244.08 -3.72616 -1.08532 0
M  V30 2495 H 242.181 -2.19024 -3.01429 0
M  V30 2496 H 242.294 -4.02726 -2.59517 0
M  V30 2497 H 240.658 -2.08702 -1.45999 0
M  V30 2498 H 241.441 -3.4056 -0.432874 0
M  V30 2499 N 243.887 0.651787 -1.4349 0
M  V30 2500 C 245.136 1.40754 -1.44469 0
M  V30 2501 C 245.449 1.95463 -0.0731845 0
M  V30 2502 O 246.655 2.71471 0.0395721 0
M  V30 2503 C 245.111 2.54735 -2.5424 0
M  V30 2504 C 244.719 2.06628 -3.97504 0
M  V30 2505 C 246.463 3.32092 -2.64414 0
M  V30 2506 C 244.37 3.17829 -4.98737 0
M  V30 2507 H 243.3 0.528862 -0.53742 0
M  V30 2508 H 245.951 0.703365 -1.69485 0
M  V30 2509 H 244.333 3.2763 -2.22428 0
M  V30 2510 H 245.507 1.40734 -4.38783 0
M  V30 2511 H 243.822 1.42146 -3.91387 0
M  V30 2512 H 246.419 4.14952 -3.37223 0
M  V30 2513 H 246.762 3.80217 -1.69532 0
M  V30 2514 H 247.295 2.66279 -2.95534 0
M  V30 2515 H 244.034 2.74671 -5.95177 0
M  V30 2516 H 243.554 3.82429 -4.62069 0
M  V30 2517 H 245.233 3.82937 -5.21505 0
M  V30 2518 N 245.365 1.30045 0.890287 0
M  V30 2519 C 246.595 1.21296 1.67245 0
M  V30 2520 C 247.003 -0.227471 1.87828 0
M  V30 2521 O 246.346 -1.16296 1.422 0
M  V30 2522 C 246.408 1.86519 3.07329 0
M  V30 2523 C 246.072 3.35837 3.09939 0
M  V30 2524 C 247.069 4.31915 2.89389 0
M  V30 2525 C 244.754 3.77196 3.31706 0
M  V30 2526 C 246.748 5.67325 2.90552 0
M  V30 2527 C 244.435 5.12725 3.32499 0
M  V30 2528 C 245.433 6.076 3.11947 0
M  V30 2529 O 245.121 7.40655 3.12547 0
M  V30 2530 H 244.853 0.4211 0.528821 0
M  V30 2531 H 247.407 1.72111 1.12103 0
M  V30 2532 H 245.637 1.30228 3.64112 0
M  V30 2533 H 247.326 1.71963 3.67673 0
M  V30 2534 H 248.092 4.01294 2.72375 0
M  V30 2535 H 243.971 3.03796 3.4674 0
M  V30 2536 H 247.515 6.41354 2.74429 0
M  V30 2537 H 243.412 5.42988 3.49047 0
M  V30 2538 H 244.18 7.49577 3.28749 0
M  V30 2539 N 246.843 -1.10192 1.12674 0
M  V30 2540 C 247.753 -2.20172 0.810026 0
M  V30 2541 C 248.769 -1.72821 -0.202188 0
M  V30 2542 O 249.945 -2.01369 -0.0351691 0
M  V30 2543 C 247.01 -3.45631 0.272007 0
M  V30 2544 C 246.071 -4.07704 1.34447 0
M  V30 2545 C 245.304 -5.27175 0.832029 0
M  V30 2546 O 245.527 -5.69425 -0.333284 0
M  V30 2547 O 244.461 -5.80168 1.60277 0
M  V30 2548 H 248.287 -2.49701 1.72867 0
M  V30 2549 H 245.872 -1.18977 0.903597 0
M  V30 2550 H 247.754 -4.21394 -0.0230219 0
M  V30 2551 H 246.429 -3.17723 -0.619164 0
M  V30 2552 H 245.336 -3.33614 1.6927 0
M  V30 2553 H 246.669 -4.3982 2.2095 0
M  V30 2554 N 248.321 -0.919034 -1.28029 0
M  V30 2555 C 249.569 -0.553838 -1.94363 0
M  V30 2556 C 249.89 0.906357 -1.72656 0
M  V30 2557 O 249.16 1.64143 -1.0693 0
M  V30 2558 H 247.74 -0.201834 -0.719216 0
M  V30 2559 H 250.402 -1.16954 -1.55909 0
M  V30 2560 H 249.498 -0.752758 -3.02886 0
M  V30 2561 N 249.799 1.42003 -0.683588 0
M  V30 2562 C 251.029 2.05448 -0.217866 0
M  V30 2563 C 251.437 1.51491 1.13346 0
M  V30 2564 O 250.78 0.653048 1.717 0
M  V30 2565 C 250.842 3.59399 -0.0850118 0
M  V30 2566 C 250.506 4.36093 -1.36645 0
M  V30 2567 C 251.503 4.66169 -2.30179 0
M  V30 2568 C 249.188 4.75578 -1.61649 0
M  V30 2569 C 251.182 5.34676 -3.46988 0
M  V30 2570 C 248.869 5.43824 -2.78745 0
M  V30 2571 C 249.867 5.73299 -3.71238 0
M  V30 2572 O 249.555 6.40142 -4.86285 0
M  V30 2573 H 249.287 0.668344 -0.101454 0
M  V30 2574 H 251.841 1.82974 -0.933248 0
M  V30 2575 H 250.071 3.80566 0.686031 0
M  V30 2576 H 251.76 4.04457 0.341973 0
M  V30 2577 H 252.526 4.36156 -2.12115 0
M  V30 2578 H 248.405 4.52025 -0.905243 0
M  V30 2579 H 251.949 5.57599 -4.19201 0
M  V30 2580 H 247.846 5.73254 -2.96732 0
M  V30 2581 H 248.614 6.58636 -4.85944 0
M  V30 2582 N 251.277 0.427512 1.51691 0
M  V30 2583 C 252.24 -0.377132 2.26076 0
M  V30 2584 C 253.24 -0.958089 1.29141 0
M  V30 2585 O 254.43 -0.83408 1.52934 0
M  V30 2586 C 251.562 -1.53262 3.04506 0
M  V30 2587 H 252.755 0.27464 2.9864 0
M  V30 2588 H 250.308 0.180445 1.55255 0
M  V30 2589 H 251.043 -2.22072 2.36335 0
M  V30 2590 H 250.828 -1.12232 3.75694 0
M  V30 2591 H 252.318 -2.10135 3.60878 0
M  V30 2592 N 252.755 -1.56801 0.158532 0
M  V30 2593 C 253.685 -2.20347 -0.772609 0
M  V30 2594 C 254.666 -1.15518 -1.24859 0
M  V30 2595 O 255.851 -1.43902 -1.30406 0
M  V30 2596 C 252.981 -2.83417 -2.00729 0
M  V30 2597 C 251.935 -3.94174 -1.66765 0
M  V30 2598 C 251.261 -4.44233 -2.97592 0
M  V30 2599 C 252.561 -5.14392 -0.905447 0
M  V30 2600 H 254.255 -2.98413 -0.242959 0
M  V30 2601 H 251.801 -1.43537 -0.115419 0
M  V30 2602 H 253.754 -3.26543 -2.6636 0
M  V30 2603 H 252.478 -2.02701 -2.56086 0
M  V30 2604 H 251.137 -3.51684 -1.03508 0
M  V30 2605 H 250.785 -3.60325 -3.50963 0
M  V30 2606 H 250.485 -5.18945 -2.75626 0
M  V30 2607 H 252.009 -4.90037 -3.64274 0
M  V30 2608 H 253.423 -5.5429 -1.46408 0
M  V30 2609 H 251.82 -5.9494 -0.7853 0
M  V30 2610 H 252.89 -4.84795 0.100668 0
M  V30 2611 N 254.233 0.115231 -1.57178 0
M  V30 2612 C 255.644 0.67197 -1.74188 0
M  V30 2613 C 255.995 1.80125 -0.777777 0
M  V30 2614 O 255.12 2.16346 0.0484376 0
M  V30 2615 C 255.715 1.22573 -3.1585 0
M  V30 2616 C 254.274 1.72872 -3.34353 0
M  V30 2617 C 253.421 0.629972 -2.70049 0
M  V30 2618 H 256.372 -0.110712 -1.58313 0
M  V30 2619 H 256.393 2.09535 -3.17609 0
M  V30 2620 H 255.905 0.403598 -3.85996 0
M  V30 2621 H 254.006 2.5755 -2.69256 0
M  V30 2622 H 254.119 1.83557 -4.42542 0
M  V30 2623 H 252.483 1.0645 -2.31388 0
M  V30 2624 H 253.266 -0.181241 -3.42821 0
M  V30 2625 N 255.711 1.52812 0.385517 0
M  V30 2626 C 256.661 1.74219 1.47078 0
M  V30 2627 C 257.645 0.59632 1.49442 0
M  V30 2628 O 258.837 0.85428 1.5502 0
M  V30 2629 C 255.966 1.9176 2.84751 0
M  V30 2630 C 255.052 3.12289 2.86943 0
M  V30 2631 N 255.443 4.34575 2.58802 0
M  V30 2632 C 253.741 3.12605 3.1811 0
M  V30 2633 C 254.442 5.162 2.68166 0
M  V30 2634 N 253.418 4.51964 3.02043 0
M  V30 2635 H 257.22 2.6639 1.24152 0
M  V30 2636 H 254.734 1.51166 0.593504 0
M  V30 2637 H 256.731 2.05218 3.62893 0
M  V30 2638 H 255.391 1.00805 3.08656 0
M  V30 2639 H 256.402 4.62649 2.32759 0
M  V30 2640 H 253.079 2.31472 3.47458 0
M  V30 2641 H 254.469 6.23689 2.49923 0
M  V30 2642 N 257.189 -0.644168 1.43834 0
M  V30 2643 C 258.152 -1.73857 1.49353 0
M  V30 2644 C 259.152 -1.56315 0.377112 0
M  V30 2645 O 260.342 -1.62048 0.639226 0
M  V30 2646 C 257.474 -3.12819 1.35488 0
M  V30 2647 H 258.667 -1.70342 2.46827 0
M  V30 2648 H 256.22 -0.856652 1.30733 0
M  V30 2649 H 256.955 -3.2194 0.390569 0
M  V30 2650 H 256.74 -3.26958 2.16428 0
M  V30 2651 H 258.23 -3.92606 1.42302 0
M  V30 2652 N 258.668 -1.30515 -0.883378 0
M  V30 2653 C 259.917 -1.18795 -1.63005 0
M  V30 2654 C 260.23 0.255923 -1.93919 0
M  V30 2655 O 261.436 0.494654 -2.66956 0
M  V30 2656 C 259.892 -2.07878 -2.93794 0
M  V30 2657 C 259.5 -3.57184 -2.70414 0
M  V30 2658 C 261.244 -2.04924 -3.71761 0
M  V30 2659 C 259.151 -4.38317 -3.97029 0
M  V30 2660 H 258.081 -0.441031 -0.611562 0
M  V30 2661 H 260.732 -1.55275 -0.977854 0
M  V30 2662 H 259.114 -1.64283 -3.60315 0
M  V30 2663 H 260.288 -4.08937 -2.12384 0
M  V30 2664 H 258.603 -3.61976 -2.0582 0
M  V30 2665 H 261.2 -2.62792 -4.65665 0
M  V30 2666 H 261.543 -1.0331 -4.03277 0
M  V30 2667 H 262.076 -2.46649 -3.12104 0
M  V30 2668 H 258.815 -5.40632 -3.70671 0
M  V30 2669 H 258.335 -3.91326 -4.54559 0
M  V30 2670 H 260.014 -4.49834 -4.65036 0
M  V30 2671 N 260.146 1.09593 -1.13257 0
M  V30 2672 C 261.079 2.15451 -0.752061 0
M  V30 2673 C 262.057 1.60493 0.260913 0
M  V30 2674 O 263.241 1.8788 0.152819 0
M  V30 2675 C 260.368 3.38506 -0.114594 0
M  V30 2676 C 259.414 4.12183 -1.09579 0
M  V30 2677 S 260.247 4.6661 -2.62745 0
M  V30 2678 C 261.403 5.92966 -2.00354 0
M  V30 2679 H 261.636 2.47395 -1.64872 0
M  V30 2680 H 259.169 1.21515 -0.952545 0
M  V30 2681 H 261.127 4.09757 0.246808 0
M  V30 2682 H 259.788 3.04784 0.759309 0
M  V30 2683 H 258.981 5.00445 -0.597545 0
M  V30 2684 H 258.583 3.46785 -1.40057 0
M  V30 2685 H 260.875 6.63882 -1.35156 0
M  V30 2686 H 261.818 6.47467 -2.86691 0
M  V30 2687 H 262.226 5.45405 -1.4558 0
M  V30 2688 N 261.624 0.925811 1.2754 0
M  V30 2689 C 263.04 0.625767 1.46821 0
M  V30 2690 C 263.24 -0.825506 1.83814 0
M  V30 2691 O 262.296 -1.60356 1.95044 0
M  V30 2692 C 263.609 1.57402 2.56213 0
M  V30 2693 C 265.157 1.58204 2.70075 0
M  V30 2694 C 265.632 2.51721 3.82623 0
M  V30 2695 N 267.123 2.49917 3.89994 0
M  V30 2696 C 267.858 3.18968 4.76494 0
M  V30 2697 N 267.354 3.97391 5.67496 0
M  V30 2698 N 269.147 3.07996 4.70208 0
M  V30 2699 H 261.298 1.86409 1.01811 0
M  V30 2700 H 263.561 0.800213 0.508295 0
M  V30 2701 H 263.267 2.60925 2.35819 0
M  V30 2702 H 263.141 1.31428 3.53563 0
M  V30 2703 H 265.528 0.554124 2.89851 0
M  V30 2704 H 265.609 1.88226 1.73218 0
M  V30 2705 H 265.253 3.54622 3.63601 0
M  V30 2706 H 265.183 2.18996 4.78903 0
M  V30 2707 H 267.674 1.9296 3.24923 0
M  V30 2708 H 267.987 4.4707 6.30356 0
M  V30 2709 H 266.332 4.01495 5.67298 0
M  V30 2710 H 269.523 2.46223 3.9811 0
M  V30 2711 H 269.696 3.6208 5.37403 0
M  V30 2712 N 263.102 -1.41638 0.69111 0
M  V30 2713 C 264.032 -2.3347 0.037248 0
M  V30 2714 C 265.013 -1.51575 -0.771947 0
M  V30 2715 O 266.198 -1.80126 -0.72582 0
M  V30 2716 C 263.328 -3.35354 -0.903064 0
M  V30 2717 C 262.282 -4.27526 -0.201288 0
M  V30 2718 C 261.608 -5.19747 -1.25565 0
M  V30 2719 C 262.908 -5.13959 0.929689 0
M  V30 2720 H 264.602 -2.88397 0.804227 0
M  V30 2721 H 262.148 -1.38669 0.388189 0
M  V30 2722 H 264.101 -3.98519 -1.36969 0
M  V30 2723 H 262.825 -2.78767 -1.70166 0
M  V30 2724 H 261.484 -3.65779 0.245265 0
M  V30 2725 H 261.132 -4.59479 -2.04666 0
M  V30 2726 H 260.832 -5.8225 -0.791128 0
M  V30 2727 H 262.356 -5.85789 -1.72288 0
M  V30 2728 H 263.77 -5.70718 0.543546 0
M  V30 2729 H 262.167 -5.85379 1.32103 0
M  V30 2730 H 263.237 -4.51389 1.77133 0
M  V30 2731 N 264.58 -0.43555 -1.51462 0
M  V30 2732 C 265.857 0.191364 -1.94662 0
M  V30 2733 C 266.237 1.60254 -1.37411 0
M  V30 2734 O 265.585 2.2152 -0.560458 0
M  V30 2735 C 265.795 0.17091 -3.48581 0
M  V30 2736 C 267.143 0.377357 -4.2292 0
M  V30 2737 O 268.167 0.249104 -3.55328 0
M  V30 2738 O 267.026 0.63247 -5.42828 0
M  V30 2739 H 264.12 0.130932 -0.816569 0
M  V30 2740 H 266.666 -0.4934 -1.62369 0
M  V30 2741 H 265.438 -0.815738 -3.82703 0
M  V30 2742 H 265.061 0.898659 -3.87311 0
M  V30 2743 N 266.058 1.56714 -0.166846 0
M  V30 2744 C 266.988 2.20754 0.760913 0
M  V30 2745 C 267.969 1.16178 1.24244 0
M  V30 2746 O 269.154 1.44592 1.29641 0
M  V30 2747 C 266.284 2.84478 1.99223 0
M  V30 2748 C 265.238 3.95053 1.64672 0
M  V30 2749 C 264.564 4.45805 2.95232 0
M  V30 2750 C 265.864 5.14865 0.878155 0
M  V30 2751 H 267.558 2.98537 0.22713 0
M  V30 2752 H 265.104 1.43596 0.107805 0
M  V30 2753 H 267.057 3.27951 2.64624 0
M  V30 2754 H 265.781 2.04056 2.55007 0
M  V30 2755 H 264.44 3.52228 1.01641 0
M  V30 2756 H 264.088 3.62181 3.49047 0
M  V30 2757 H 263.788 5.204 2.7287 0
M  V30 2758 H 265.312 4.91962 3.6167 0
M  V30 2759 H 266.726 5.55059 1.43466 0
M  V30 2760 H 265.123 5.95348 0.753738 0
M  V30 2761 H 266.193 4.84735 -0.126377 0
M  V30 2762 N 267.536 -0.106894 1.57237 0
M  V30 2763 C 268.499 -1.11466 2.0027 0
M  V30 2764 C 269.499 -1.33623 0.894519 0
M  V30 2765 O 270.689 -1.29935 1.16028 0
M  V30 2766 C 267.821 -2.46646 2.35327 0
M  V30 2767 H 269.014 -0.744516 2.90512 0
M  V30 2768 H 266.567 -0.351576 1.52295 0
M  V30 2769 H 267.302 -2.88558 1.48003 0
M  V30 2770 H 267.087 -2.31915 3.16161 0
M  V30 2771 H 268.577 -3.19151 2.69318 0
M  V30 2772 N 269.014 -1.53014 -0.377408 0
M  V30 2773 C 270.262 -1.6829 -1.11906 0
M  V30 2774 C 270.583 -0.431206 -1.90173 0
M  V30 2775 O 269.853 0.554595 -1.87886 0
M  V30 2776 H 268.433 -0.620371 -0.416112 0
M  V30 2777 H 271.095 -1.90167 -0.426893 0
M  V30 2778 H 270.191 -2.53862 -1.8155 0
M  V30 2779 N 270.492 0.636531 -1.44174 0
M  V30 2780 C 271.908 0.954104 -1.27941 0
M  V30 2781 C 272.108 2.0039 -0.211248 0
M  V30 2782 O 271.164 2.49236 0.404695 0
M  V30 2783 C 272.477 1.4225 -2.64925 0
M  V30 2784 C 274.025 1.53827 -2.72592 0
M  V30 2785 C 274.5 2.04053 -4.10032 0
M  V30 2786 N 275.991 2.11331 -4.12182 0
M  V30 2787 C 276.726 2.51352 -5.15374 0
M  V30 2788 N 276.222 2.90549 -6.2893 0
M  V30 2789 N 278.015 2.51438 -5.02728 0
M  V30 2790 H 270.166 -0.0578386 -2.12321 0
M  V30 2791 H 272.429 0.0367406 -0.947288 0
M  V30 2792 H 272.135 0.725466 -3.44136 0
M  V30 2793 H 272.009 2.39451 -2.9145 0
M  V30 2794 H 274.396 2.22628 -1.93702 0
M  V30 2795 H 274.477 0.550154 -2.49814 0
M  V30 2796 H 274.121 1.35848 -4.89395 0
M  V30 2797 H 274.051 3.03726 -4.30184 0
M  V30 2798 H 276.542 1.83745 -3.30222 0
M  V30 2799 H 276.855 3.19884 -7.03487 0
M  V30 2800 H 275.2 2.88313 -6.32377 0
M  V30 2801 H 278.391 2.20203 -4.13072 0
M  V30 2802 H 278.564 2.82304 -5.83274 0
M  V30 2803 N 271.97 1.30982 0.876444 0
M  V30 2804 C 273.247 1.10942 1.61094 0
M  V30 2805 C 273.627 -0.338223 2.08373 0
M  V30 2806 O 272.975 -1.33122 1.85717 0
M  V30 2807 C 273.185 2.11789 2.77392 0
M  V30 2808 C 274.533 2.43965 3.47514 0
M  V30 2809 O 275.557 2.10166 2.87591 0
M  V30 2810 O 274.416 3.01817 4.55597 0
M  V30 2811 H 271.51 0.42667 0.708436 0
M  V30 2812 H 274.056 1.42438 0.922474 0
M  V30 2813 H 272.828 3.09194 2.39823 0
M  V30 2814 H 272.451 1.81161 3.5393 0
M  V30 2815 N 273.449 -1.08991 1.13837 0
M  V30 2816 C 274.379 -2.17771 0.842507 0
M  V30 2817 C 275.36 -1.6892 -0.20001 0
M  V30 2818 O 276.545 -1.94113 -0.0579731 0
M  V30 2819 C 273.675 -3.4589 0.312644 0
M  V30 2820 C 272.629 -4.08099 1.28992 0
M  V30 2821 C 271.955 -5.31098 0.619623 0
M  V30 2822 C 273.255 -4.50077 2.65005 0
M  V30 2823 H 274.949 -2.42777 1.75213 0
M  V30 2824 H 272.495 -1.16682 0.843875 0
M  V30 2825 H 274.448 -4.21297 0.0933043 0
M  V30 2826 H 273.172 -3.20419 -0.632382 0
M  V30 2827 H 271.831 -3.34717 1.49533 0
M  V30 2828 H 271.479 -5.0191 -0.33102 0
M  V30 2829 H 271.179 -5.73674 1.27167 0
M  V30 2830 H 272.703 -6.09224 0.409669 0
M  V30 2831 H 274.117 -5.16688 2.48407 0
M  V30 2832 H 272.514 -5.03553 3.26427 0
M  V30 2833 H 273.584 -3.62257 3.22332 0
M  V30 2834 N 274.927 -0.932562 -1.27047 0
M  V30 2835 C 276.155 -0.592031 -1.98249 0
M  V30 2836 C 276.57 0.831062 -1.69525 0
M  V30 2837 O 275.927 1.55299 -0.958561 0
M  V30 2838 C 275.978 -0.814279 -3.5221 0
M  V30 2839 O 275.699 -2.18139 -3.7993 0
M  V30 2840 C 277.2 -0.483121 -4.4066 0
M  V30 2841 H 274.42 -0.223896 -0.632544 0
M  V30 2842 H 276.964 -1.25091 -1.61779 0
M  V30 2843 H 275.119 -0.20213 -3.86872 0
M  V30 2844 H 275.533 -2.235 -4.74498 0
M  V30 2845 H 277.007 -0.689298 -5.47679 0
M  V30 2846 H 277.484 0.581546 -4.35333 0
M  V30 2847 H 278.09 -1.07362 -4.11526 0
M  V30 2848 N 276.405 1.4127 -0.698611 0
M  V30 2849 C 277.315 2.34573 -0.0357891 0
M  V30 2850 C 278.331 1.56393 0.762701 0
M  V30 2851 O 279.507 1.8886 0.699564 0
M  V30 2852 C 276.572 3.35159 0.887089 0
M  V30 2853 C 275.633 4.29225 0.0804634 0
M  V30 2854 C 274.866 5.25006 0.959387 0
M  V30 2855 O 275.089 5.26314 2.19886 0
M  V30 2856 O 274.023 6.00519 0.407439 0
M  V30 2857 H 277.849 2.92838 -0.804957 0
M  V30 2858 H 275.434 1.42175 -0.458966 0
M  V30 2859 H 277.316 3.9689 1.41621 0
M  V30 2860 H 275.991 2.79333 1.6357 0
M  V30 2861 H 274.898 3.70833 -0.493328 0
M  V30 2862 H 276.231 4.88157 -0.629547 0
M  V30 2863 N 277.883 0.443576 1.51229 0
M  V30 2864 C 279.113 -0.119117 2.06256 0
M  V30 2865 C 279.521 -1.36471 1.31043 0
M  V30 2866 O 278.864 -1.80034 0.365151 0
M  V30 2867 C 278.926 -0.500546 3.55998 0
M  V30 2868 C 278.59 0.639125 4.52509 0
M  V30 2869 C 279.587 1.51311 4.97394 0
M  V30 2870 C 277.272 0.821632 4.95535 0
M  V30 2871 C 279.266 2.55425 5.83984 0
M  V30 2872 C 276.953 1.86603 5.81913 0
M  V30 2873 C 277.951 2.73072 6.26036 0
M  V30 2874 O 277.639 3.75718 7.10698 0
M  V30 2875 H 277.371 -0.00857665 0.675946 0
M  V30 2876 H 279.925 0.623288 1.95715 0
M  V30 2877 H 278.155 -1.29575 3.64345 0
M  V30 2878 H 279.844 -0.995116 3.93513 0
M  V30 2879 H 280.61 1.38367 4.64844 0
M  V30 2880 H 276.489 0.158149 4.60729 0
M  V30 2881 H 280.033 3.22949 6.18344 0
M  V30 2882 H 275.93 1.99564 6.13876 0
M  V30 2883 H 276.698 3.72374 7.2889 0
M  V30 2884 N 279.361 -1.56624 0.175154 0
M  V30 2885 C 280.291 -2.21155 -0.749195 0
M  V30 2886 C 281.272 -1.16836 -1.23626 0
M  V30 2887 O 282.457 -1.45277 -1.28873 0
M  V30 2888 C 279.587 -2.8553 -1.97711 0
M  V30 2889 C 278.541 -3.95921 -1.62575 0
M  V30 2890 C 277.867 -4.47365 -2.92864 0
M  V30 2891 C 279.167 -5.15323 -0.850838 0
M  V30 2892 H 280.861 -2.98653 -0.211295 0
M  V30 2893 H 278.407 -1.43651 -0.100188 0
M  V30 2894 H 280.36 -3.2935 -2.62881 0
M  V30 2895 H 279.084 -2.05406 -2.53921 0
M  V30 2896 H 277.743 -3.52762 -0.997719 0
M  V30 2897 H 277.391 -3.64027 -3.47122 0
M  V30 2898 H 277.091 -5.21839 -2.70106 0
M  V30 2899 H 278.615 -4.93873 -3.59056 0
M  V30 2900 H 280.029 -5.55812 -1.40521 0
M  V30 2901 H 278.426 -5.95739 -0.722154 0
M  V30 2902 H 279.496 -4.84661 0.152082 0
M  V30 2903 N 280.839 0.0985539 -1.57292 0
M  V30 2904 C 281.772 1.15082 -1.97057 0
M  V30 2905 C 282.75 1.39025 -0.843255 0
M  V30 2906 O 283.934 1.52842 -1.10325 0
M  V30 2907 C 281.061 2.50069 -2.28437 0
M  V30 2908 C 280.107 2.42428 -3.509 0
M  V30 2909 S 280.94 1.84414 -5.02744 0
M  V30 2910 C 282.096 3.21032 -5.37298 0
M  V30 2911 H 282.329 0.811815 -2.86002 0
M  V30 2912 H 279.862 0.306102 -1.51335 0
M  V30 2913 H 281.82 3.27729 -2.47192 0
M  V30 2914 H 280.481 2.8114 -1.40069 0
M  V30 2915 H 279.674 3.41911 -3.70288 0
M  V30 2916 H 279.276 1.72896 -3.31637 0
M  V30 2917 H 281.568 4.17297 -5.33731 0
M  V30 2918 H 282.511 3.06452 -6.38352 0
M  V30 2919 H 282.919 3.20404 -4.64759 0
M  V30 2920 N 282.317 1.53212 0.369288 0
M  V30 2921 C 283.264 1.79388 1.45219 0
M  V30 2922 C 284.234 0.638059 1.53356 0
M  V30 2923 O 285.419 0.879852 1.69302 0
M  V30 2924 C 282.559 1.98623 2.82211 0
M  V30 2925 C 281.672 3.26337 2.8307 0
M  V30 2926 C 280.807 3.35779 4.11614 0
M  V30 2927 C 279.846 4.5754 4.06601 0
M  V30 2928 N 278.983 4.64155 5.26787 0
M  V30 2929 H 283.823 2.71794 1.22198 0
M  V30 2930 H 281.36 1.34642 0.592444 0
M  V30 2931 H 283.318 2.07761 3.61789 0
M  V30 2932 H 281.948 1.09558 3.03639 0
M  V30 2933 H 281 3.26171 1.95747 0
M  V30 2934 H 282.312 4.15988 2.75237 0
M  V30 2935 H 281.466 3.44208 4.99606 0
M  V30 2936 H 280.205 2.44137 4.22195 0
M  V30 2937 H 279.21 4.49215 3.16996 0
M  V30 2938 H 280.435 5.50519 3.97625 0
M  V30 2939 H 278.381 3.75413 5.3796 0
M  V30 2940 H 278.298 5.47706 5.21109 0
M  V30 2941 H 279.566 4.76863 6.16621 0
M  V30 2942 N 283.795 -0.628877 1.44509 0
M  V30 2943 C 285.044 -1.38437 1.4669 0
M  V30 2944 C 285.357 -1.95322 0.104272 0
M  V30 2945 O 286.563 -2.715 0.00362163 0
M  V30 2946 C 285.019 -2.50659 2.5826 0
M  V30 2947 C 284.627 -2.00277 4.0074 0
M  V30 2948 C 286.371 -3.27844 2.69664 0
M  V30 2949 C 284.278 -3.09854 5.0373 0
M  V30 2950 H 283.208 -0.520245 0.545766 0
M  V30 2951 H 285.859 -0.676313 1.70582 0
M  V30 2952 H 284.241 -3.2405 2.27612 0
M  V30 2953 H 285.415 -1.33736 4.40966 0
M  V30 2954 H 283.73 -1.35901 3.93599 0
M  V30 2955 H 286.327 -4.09534 3.43781 0
M  V30 2956 H 286.67 -3.77471 1.75559 0
M  V30 2957 H 287.203 -2.61543 2.99733 0
M  V30 2958 H 283.942 -2.65168 5.99472 0
M  V30 2959 H 283.462 -3.7503 4.68095 0
M  V30 2960 H 285.141 -3.74592 5.27532 0
M  V30 2961 N 285.273 -1.31445 -0.869486 0
M  V30 2962 C 286.203 -1.21727 -1.99261 0
M  V30 2963 C 287.184 -0.104359 -1.6978 0
M  V30 2964 O 288.369 -0.289038 -1.92037 0
M  V30 2965 C 285.499 -0.924317 -3.34774 0
M  V30 2966 C 284.453 -1.99685 -3.78563 0
M  V30 2967 C 283.779 -1.55658 -5.11541 0
M  V30 2968 C 285.079 -3.41003 -3.95619 0
M  V30 2969 H 286.773 -2.1569 -2.07649 0
M  V30 2970 H 284.319 -1.03839 -0.997675 0
M  V30 2971 H 286.272 -0.842934 -4.12883 0
M  V30 2972 H 284.996 0.0509793 -3.2656 0
M  V30 2973 H 283.655 -2.06813 -3.02694 0
M  V30 2974 H 283.303 -0.569132 -4.9977 0
M  V30 2975 H 283.003 -2.27409 -5.41811 0
M  V30 2976 H 284.527 -1.48928 -5.92159 0
M  V30 2977 H 285.941 -3.36547 -4.64122 0
M  V30 2978 H 284.338 -4.10975 -4.37286 0
M  V30 2979 H 285.408 -3.81754 -2.98985 0
M  V30 2980 N 286.751 1.08385 -1.14413 0
M  V30 2981 C 287.701 2.13509 -0.79987 0
M  V30 2982 C 288.685 1.5951 0.211059 0
M  V30 2983 O 289.877 1.76995 0.0133694 0
M  V30 2984 C 287.006 3.42162 -0.279297 0
M  V30 2985 C 286.092 4.03042 -1.31976 0
M  V30 2986 N 286.483 4.38327 -2.52395 0
M  V30 2987 C 284.781 4.30379 -1.17004 0
M  V30 2988 C 285.482 4.86428 -3.19003 0
M  V30 2989 N 284.458 4.84547 -2.46405 0
M  V30 2990 H 288.26 2.38609 -1.7159 0
M  V30 2991 H 285.774 1.2572 -1.02802 0
M  V30 2992 H 287.771 4.16898 -0.0143688 0
M  V30 2993 H 286.431 3.18511 0.630923 0
M  V30 2994 H 287.442 4.29349 -2.89621 0
M  V30 2995 H 284.119 4.16281 -0.318854 0
M  V30 2996 H 285.509 5.23107 -4.21674 0
M  V30 2997 N 288.23 0.939286 1.26551 0
M  V30 2998 C 289.14 0.453432 2.30176 0
M  V30 2999 C 290.156 -0.471649 1.67486 0
M  V30 3000 O 291.332 -0.35164 1.98306 0
M  V30 3001 C 288.397 -0.275326 3.45605 0
M  V30 3002 C 287.458 0.686084 4.23782 0
M  V30 3003 C 286.691 -0.00798994 5.33699 0
M  V30 3004 O 286.914 -1.22528 5.57085 0
M  V30 3005 O 285.848 0.669746 5.98162 0
M  V30 3006 H 289.674 1.31416 2.73795 0
M  V30 3007 H 287.259 0.705095 1.31715 0
M  V30 3008 H 289.141 -0.685911 4.1578 0
M  V30 3009 H 287.816 -1.11147 3.0402 0
M  V30 3010 H 286.723 1.14658 3.56096 0
M  V30 3011 H 288.056 1.48979 4.69112 0
M  V30 3012 N 289.708 -1.40897 0.706093 0
M  V30 3013 C 291.124 -1.55042 0.37869 0
M  V30 3014 C 291.324 -1.67944 -1.11342 0
M  V30 3015 O 290.38 -1.66372 -1.89938 0
M  V30 3016 C 291.693 -2.78398 1.13643 0
M  V30 3017 C 293.241 -2.92206 1.12181 0
M  V30 3018 C 293.716 -4.18463 1.86152 0
M  V30 3019 N 295.207 -4.25443 1.83173 0
M  V30 3020 C 295.942 -5.2202 2.37239 0
M  V30 3021 N 295.438 -6.24563 2.99821 0
M  V30 3022 N 297.231 -5.14033 2.27435 0
M  V30 3023 H 289.382 -1.30769 1.67372 0
M  V30 3024 H 291.645 -0.631653 0.706907 0
M  V30 3025 H 291.351 -2.7511 2.19106 0
M  V30 3026 H 291.225 -3.70228 0.721853 0
M  V30 3027 H 293.612 -2.95004 0.0754171 0
M  V30 3028 H 293.693 -2.01521 1.57554 0
M  V30 3029 H 293.337 -4.16427 2.90776 0
M  V30 3030 H 293.267 -5.08141 1.38206 0
M  V30 3031 H 295.758 -3.51976 1.37556 0
M  V30 3032 H 296.071 -6.94665 3.38616 0
M  V30 3033 H 294.416 -6.25035 3.03902 0
M  V30 3034 H 297.607 -4.3285 1.78208 0
M  V30 3035 H 297.78 -5.89129 2.69873 0
M  V30 3036 N 291.186 -0.45159 -1.50991 0
M  V30 3037 C 292.434 0.109857 -2.01801 0
M  V30 3038 C 292.755 1.41958 -1.3369 0
M  V30 3039 O 292.025 1.9003 -0.475951 0
M  V30 3040 H 290.605 0.0435884 -0.745727 0
M  V30 3041 H 293.267 -0.597557 -1.85514 0
M  V30 3042 H 292.363 0.275489 -3.10882 0
M  V30 3043 N 292.664 1.56529 -0.183458 0
M  V30 3044 C 293.894 2.01331 0.463612 0
M  V30 3045 C 294.302 1.06278 1.5653 0
M  V30 3046 O 293.645 0.0577976 1.83609 0
M  V30 3047 C 293.707 3.42547 1.09096 0
M  V30 3048 C 293.371 4.56817 0.129442 0
M  V30 3049 C 294.368 5.15734 -0.656807 0
M  V30 3050 C 292.053 5.02295 0.02174 0
M  V30 3051 C 294.047 6.1857 -1.53784 0
M  V30 3052 C 291.734 6.04978 -0.862864 0
M  V30 3053 C 292.732 6.62988 -1.64123 0
M  V30 3054 O 292.42 7.63677 -2.51103 0
M  V30 3055 H 292.152 0.664917 0.121907 0
M  V30 3056 H 294.706 2.034 -0.285954 0
M  V30 3057 H 292.936 3.37428 1.88889 0
M  V30 3058 H 294.625 3.71228 1.64148 0
M  V30 3059 H 295.391 4.81473 -0.583839 0
M  V30 3060 H 291.27 4.56847 0.617392 0
M  V30 3061 H 294.814 6.63777 -2.14583 0
M  V30 3062 H 290.711 6.38663 -0.93699 0
M  V30 3063 H 291.479 7.81049 -2.44753 0
M  V30 3064 N 294.142 -0.090211 1.57342 0
M  V30 3065 C 295.39 -0.791241 1.85967 0
M  V30 3066 C 295.711 -1.7903 0.772859 0
M  V30 3067 O 294.981 -1.94872 -0.200398 0
M  V30 3068 H 293.561 -0.295205 0.686195 0
M  V30 3069 H 296.223 -0.0706782 1.94772 0
M  V30 3070 H 295.319 -1.31882 2.82867 0
M  V30 3071 N 295.62 -1.53406 -0.361157 0
M  V30 3072 C 296.867 -1.69802 -1.10333 0
M  V30 3073 C 297.195 -0.452087 -1.89173 0
M  V30 3074 O 296.45 0.566017 -1.87336 0
M  V30 3075 C 296.749 -2.90211 -2.08596 0
M  V30 3076 C 296.415 -4.26539 -1.46203 0
M  V30 3077 C 295.077 -4.6361 -1.28915 0
M  V30 3078 C 297.429 -5.113 -1.01101 0
M  V30 3079 C 294.757 -5.83075 -0.651157 0
M  V30 3080 C 297.109 -6.31415 -0.387007 0
M  V30 3081 C 295.773 -6.67195 -0.201657 0
M  V30 3082 H 295.043 -0.621351 -0.403737 0
M  V30 3083 H 297.69 -1.87598 -0.384609 0
M  V30 3084 H 295.995 -2.66946 -2.86788 0
M  V30 3085 H 297.692 -3.00091 -2.65982 0
M  V30 3086 H 294.282 -3.97352 -1.60653 0
M  V30 3087 H 298.466 -4.83206 -1.13249 0
M  V30 3088 H 293.722 -6.09385 -0.496006 0
M  V30 3089 H 297.896 -6.96394 -0.0293563 0
M  V30 3090 H 295.523 -7.59628 0.294766 0
M  V30 3091 N 297.098 0.621204 -1.44841 0
M  V30 3092 C 298.323 1.41244 -1.51871 0
M  V30 3093 C 298.748 1.87519 -0.147764 0
M  V30 3094 O 298.106 1.59334 0.865 0
M  V30 3095 C 298.154 2.60221 -2.49634 0
M  V30 3096 O 297.258 3.60395 -2.00473 0
M  V30 3097 H 296.599 0.42223 -0.512463 0
M  V30 3098 H 299.129 0.757305 -1.90069 0
M  V30 3099 H 299.139 3.0764 -2.67996 0
M  V30 3100 H 297.814 2.25887 -3.4921 0
M  V30 3101 H 296.391 3.19717 -1.91925 0
M  V30 3102 N 298.576 1.31904 0.862503 0
M  V30 3103 C 299.804 1.24998 1.64873 0
M  V30 3104 C 300.219 -0.183425 1.87907 0
M  V30 3105 O 299.576 -1.11794 1.44251 0
M  V30 3106 C 299.627 1.99829 3.01248 0
M  V30 3107 O 299.348 3.37575 2.79239 0
M  V30 3108 C 300.849 1.99852 3.95694 0
M  V30 3109 H 298.069 0.431599 0.513773 0
M  V30 3110 H 300.613 1.73901 1.07604 0
M  V30 3111 H 298.768 1.54668 3.55185 0
M  V30 3112 H 299.182 3.75776 3.65914 0
M  V30 3113 H 300.656 2.56709 4.88676 0
M  V30 3114 H 301.133 0.982852 4.28062 0
M  V30 3115 H 301.739 2.44926 3.47694 0
M  V30 3116 N 300.054 -1.07777 1.14986 0
M  V30 3117 C 301.279 -1.84558 0.946213 0
M  V30 3118 C 301.704 -1.81323 -0.500362 0
M  V30 3119 O 301.062 -1.20301 -1.35637 0
M  V30 3120 C 301.11 -3.29736 1.45968 0
M  V30 3121 O 300.214 -4.07149 0.65601 0
M  V30 3122 H 299.555 -0.571641 0.33782 0
M  V30 3123 H 302.085 -1.35991 1.52865 0
M  V30 3124 H 302.095 -3.80574 1.47063 0
M  V30 3125 H 300.77 -3.31406 2.51283 0
M  V30 3126 H 299.347 -3.65994 0.714322 0
M  V30 3127 N 301.532 -0.945985 -1.26051 0
M  V30 3128 C 302.495 -0.463897 -2.24456 0
M  V30 3129 C 303.495 0.427655 -1.55009 0
M  V30 3130 O 304.685 0.226157 -1.72726 0
M  V30 3131 C 301.817 0.330812 -3.39291 0
M  V30 3132 H 303.01 -1.33357 -2.68619 0
M  V30 3133 H 300.563 -0.728416 -1.38289 0
M  V30 3134 H 301.298 1.21852 -3.00537 0
M  V30 3135 H 301.083 -0.308679 -3.90883 0
M  V30 3136 H 302.573 0.657865 -4.12386 0
M  V30 3137 N 303.011 1.40521 -0.713556 0
M  V30 3138 C 303.921 2.34522 -0.0606667 0
M  V30 3139 C 304.937 1.57193 0.74607 0
M  V30 3140 O 306.113 1.89591 0.679493 0
M  V30 3141 C 303.178 3.36081 0.851491 0
M  V30 3142 C 302.239 4.29286 0.0349339 0
M  V30 3143 C 301.472 5.25994 0.903649 0
M  V30 3144 O 301.695 5.28616 2.14292 0
M  V30 3145 O 300.629 6.00918 0.343723 0
M  V30 3146 H 304.455 2.91968 -0.835972 0
M  V30 3147 H 302.04 1.41681 -0.47402 0
M  V30 3148 H 303.922 3.98369 1.37404 0
M  V30 3149 H 302.597 2.81052 1.60598 0
M  V30 3150 H 301.504 3.70289 -0.532633 0
M  V30 3151 H 302.837 4.87462 -0.681287 0
M  V30 3152 N 304.489 0.459591 1.5075 0
M  V30 3153 C 305.436 -0.340524 2.28274 0
M  V30 3154 C 306.406 -0.997371 1.32822 0
M  V30 3155 O 307.591 -1.01202 1.61749 0
M  V30 3156 C 304.731 -1.42317 3.14388 0
M  V30 3157 C 303.844 -0.782251 4.24859 0
M  V30 3158 C 302.979 -1.84182 4.98247 0
M  V30 3159 C 302.018 -1.18053 6.00608 0
M  V30 3160 N 301.155 -2.18244 6.67319 0
M  V30 3161 H 305.995 0.326899 2.96202 0
M  V30 3162 H 303.532 0.173057 1.46078 0
M  V30 3163 H 305.49 -2.06241 3.62658 0
M  V30 3164 H 304.12 -2.05992 2.4853 0
M  V30 3165 H 303.172 -0.0307404 3.80388 0
M  V30 3166 H 304.484 -0.259663 4.98124 0
M  V30 3167 H 303.638 -2.55714 5.50177 0
M  V30 3168 H 302.377 -2.39819 4.24662 0
M  V30 3169 H 301.382 -0.450776 5.47949 0
M  V30 3170 H 302.607 -0.631202 6.7616 0
M  V30 3171 H 300.553 -2.72919 5.96533 0
M  V30 3172 H 300.47 -1.70938 7.36421 0
M  V30 3173 H 301.738 -2.89191 7.23871 0
M  V30 3174 N 305.967 -1.56429 0.191757 0
M  V30 3175 C 306.877 -2.22541 -0.742481 0
M  V30 3176 C 307.893 -1.22342 -1.23727 0
M  V30 3177 O 309.069 -1.55069 -1.28513 0
M  V30 3178 C 306.134 -2.8692 -1.94623 0
M  V30 3179 C 305.195 -4.02378 -1.49633 0
M  V30 3180 C 304.428 -4.63678 -2.6427 0
M  V30 3181 O 304.651 -4.23895 -3.81666 0
M  V30 3182 O 303.585 -5.53202 -2.37174 0
M  V30 3183 H 307.411 -3.02977 -0.209462 0
M  V30 3184 H 304.996 -1.49353 -0.0373832 0
M  V30 3185 H 306.878 -3.27663 -2.64982 0
M  V30 3186 H 305.553 -2.09466 -2.46791 0
M  V30 3187 H 304.46 -3.66265 -0.761636 0
M  V30 3188 H 305.793 -4.81487 -1.02134 0
M  V30 3189 N 307.445 0.0818655 -1.57387 0
M  V30 3190 C 308.694 0.781681 -1.85937 0
M  V30 3191 C 309.007 1.79246 -0.782957 0
M  V30 3192 O 310.213 2.54112 -0.955987 0
M  V30 3193 C 308.669 1.44109 -3.29789 0
M  V30 3194 C 308.277 0.469396 -4.45534 0
M  V30 3195 C 310.021 2.12386 -3.67549 0
M  V30 3196 C 307.928 1.13415 -5.80423 0
M  V30 3197 H 306.858 0.295682 -0.693605 0
M  V30 3198 H 309.509 0.0348051 -1.83467 0
M  V30 3199 H 307.891 2.23588 -3.2684 0
M  V30 3200 H 309.065 -0.294856 -4.59856 0
M  V30 3201 H 307.38 -0.108383 -4.16259 0
M  V30 3202 H 309.977 2.62878 -4.65617 0
M  V30 3203 H 310.32 2.91877 -2.96839 0
M  V30 3204 H 310.853 1.39751 -3.72444 0
M  V30 3205 H 307.592 0.379771 -6.54399 0
M  V30 3206 H 307.112 1.8695 -5.69921 0
M  V30 3207 H 308.791 1.65686 -6.25426 0
M  V30 3208 N 308.923 1.53595 0.353017 0
M  V30 3209 C 310.169 1.70638 1.09593 0
M  V30 3210 C 310.502 0.463286 1.88593 0
M  V30 3211 O 309.777 -0.539597 1.86865 0
M  V30 3212 C 310.06 2.96406 2.04489 0
M  V30 3213 C 309.913 4.30901 1.29014 0
M  V30 3214 C 311.232 3.17812 3.0444 0
M  V30 3215 H 308.351 0.620913 0.397034 0
M  V30 3216 H 310.993 1.86254 0.375446 0
M  V30 3217 H 309.143 2.83223 2.65927 0
M  V30 3218 H 310.815 4.55917 0.702638 0
M  V30 3219 H 309.058 4.29741 0.592071 0
M  V30 3220 H 309.729 5.1506 1.98537 0
M  V30 3221 H 312.205 3.30263 2.53112 0
M  V30 3222 H 311.081 4.07223 3.6805 0
M  V30 3223 H 311.342 2.33669 3.75301 0
M  V30 3224 N 310.401 -0.613514 1.45168 0
M  V30 3225 C 311.817 -0.933629 1.29443 0
M  V30 3226 C 312.017 -2.00028 0.243101 0
M  V30 3227 O 311.073 -2.49848 -0.364992 0
M  V30 3228 C 312.386 -1.38018 2.67155 0
M  V30 3229 C 313.934 -1.49471 2.75004 0
M  V30 3230 C 314.409 -1.97503 4.13227 0
M  V30 3231 N 315.9 -2.04746 4.15491 0
M  V30 3232 C 316.635 -2.43121 5.19307 0
M  V30 3233 N 316.131 -2.80506 6.33473 0
M  V30 3234 N 317.924 -2.43408 5.06664 0
M  V30 3235 H 310.075 0.0916097 2.12202 0
M  V30 3236 H 312.338 -0.0216655 0.947752 0
M  V30 3237 H 312.044 -0.670625 3.45247 0
M  V30 3238 H 311.918 -2.34784 2.95222 0
M  V30 3239 H 314.305 -2.19519 1.9722 0
M  V30 3240 H 314.386 -0.510342 2.50657 0
M  V30 3241 H 314.03 -1.28045 4.91495 0
M  V30 3242 H 313.96 -2.96843 4.34962 0
M  V30 3243 H 316.451 -1.78468 3.33103 0
M  V30 3244 H 316.764 -3.08652 7.08487 0
M  V30 3245 H 315.109 -2.78216 6.36884 0
M  V30 3246 H 318.3 -2.13604 4.16523 0
M  V30 3247 H 318.473 -2.72989 5.87691 0
M  V30 3248 N 311.879 -1.3236 -0.855495 0
M  V30 3249 C 313.156 -1.13491 -1.59309 0
M  V30 3250 C 313.536 0.30503 -2.08885 0
M  V30 3251 O 312.884 1.30151 -1.87811 0
M  V30 3252 C 313.094 -2.16176 -2.73987 0
M  V30 3253 C 314.442 -2.49463 -3.43589 0
M  V30 3254 O 315.466 -2.14715 -2.84211 0
M  V30 3255 O 314.325 -3.09027 -4.50738 0
M  V30 3256 H 311.419 -0.437887 -0.701559 0
M  V30 3257 H 313.965 -1.43887 -0.899696 0
M  V30 3258 H 312.737 -3.1297 -2.34873 0
M  V30 3259 H 312.36 -1.86769 -3.51003 0
M  V30 3260 N 313.357 1.07166 -1.15556 0
M  V30 3261 C 314.606 1.79181 -0.926132 0
M  V30 3262 C 314.919 1.87768 0.547967 0
M  V30 3263 O 316.125 2.56323 0.895036 0
M  V30 3264 C 314.581 3.22 -1.60761 0
M  V30 3265 C 314.189 3.21607 -3.11886 0
M  V30 3266 C 315.933 3.9861 -1.4598 0
M  V30 3267 C 313.84 4.59092 -3.72812 0
M  V30 3268 H 312.77 0.67154 -0.342856 0
M  V30 3269 H 315.421 1.2027 -1.3859 0
M  V30 3270 H 313.803 3.81115 -1.07553 0
M  V30 3271 H 314.977 2.72127 -3.71865 0
M  V30 3272 H 313.292 2.58495 -3.2645 0
M  V30 3273 H 315.889 5.00225 -1.88888 0
M  V30 3274 H 316.232 4.143 -0.407541 0
M  V30 3275 H 316.765 3.45996 -1.96295 0
M  V30 3276 H 313.504 4.48606 -4.77946 0
M  V30 3277 H 313.024 5.08803 -3.17616 0
M  V30 3278 H 314.703 5.28059 -3.73848 0
M  V30 3279 N 314.835 0.952656 1.25548 0
M  V30 3280 C 315.782 0.47008 2.25962 0
M  V30 3281 C 316.752 -0.476384 1.59122 0
M  V30 3282 O 317.937 -0.39007 1.8677 0
M  V30 3283 C 315.077 -0.247881 3.44209 0
M  V30 3284 C 314.19 0.735591 4.25691 0
M  V30 3285 C 313.325 -0.0047306 5.312 0
M  V30 3286 C 312.364 0.969805 6.04368 0
M  V30 3287 N 311.501 0.260486 7.01617 0
M  V30 3288 H 316.341 1.33126 2.66611 0
M  V30 3289 H 313.878 0.66765 1.31076 0
M  V30 3290 H 315.836 -0.680695 4.1161 0
M  V30 3291 H 314.466 -1.07312 3.0444 0
M  V30 3292 H 313.518 1.28689 3.57971 0
M  V30 3293 H 314.83 1.47934 4.76358 0
M  V30 3294 H 313.984 -0.496275 6.04667 0
M  V30 3295 H 312.723 -0.781282 4.81401 0
M  V30 3296 H 311.728 1.47237 5.29718 0
M  V30 3297 H 312.953 1.74655 6.56256 0
M  V30 3298 H 310.899 -0.497364 6.54112 0
M  V30 3299 H 310.816 0.943362 7.50091 0
M  V30 3300 H 312.084 -0.209587 7.79218 0
M  V30 3301 N 316.313 -1.40141 0.720998 0
M  V30 3302 C 317.223 -2.34486 0.0731031 0
M  V30 3303 C 318.239 -1.57587 -0.737723 0
M  V30 3304 O 319.415 -1.89949 -0.669429 0
M  V30 3305 C 316.48 -3.36528 -0.833656 0
M  V30 3306 C 315.541 -4.29298 -0.0121673 0
M  V30 3307 C 314.774 -5.26466 -0.875742 0
M  V30 3308 O 314.997 -5.29745 -2.11485 0
M  V30 3309 O 313.931 -6.01092 -0.31185 0
M  V30 3310 H 317.757 -2.9152 0.851444 0
M  V30 3311 H 315.342 -1.41427 0.481527 0
M  V30 3312 H 317.224 -3.99093 -1.35289 0
M  V30 3313 H 315.899 -2.81899 -1.59105 0
M  V30 3314 H 314.806 -3.70001 0.552262 0
M  V30 3315 H 316.139 -4.87094 0.707129 0
M  V30 3316 N 317.792 -0.46758 -1.50504 0
M  V30 3317 C 318.739 0.328413 -2.28452 0
M  V30 3318 C 319.709 0.990313 -1.33349 0
M  V30 3319 O 320.894 1.00343 -1.62284 0
M  V30 3320 C 318.034 1.40648 -3.15138 0
M  V30 3321 C 317.147 0.759709 -4.25267 0
M  V30 3322 C 316.282 1.81537 -4.99217 0
M  V30 3323 C 315.321 1.14866 -6.01226 0
M  V30 3324 N 314.458 2.14702 -6.68467 0
M  V30 3325 H 319.298 -0.342603 -2.96024 0
M  V30 3326 H 316.835 -0.180801 -1.45985 0
M  V30 3327 H 318.793 2.04315 -3.63746 0
M  V30 3328 H 317.423 2.04671 -2.49619 0
M  V30 3329 H 316.475 0.0105671 -3.80399 0
M  V30 3330 H 317.787 0.233243 -4.98254 0
M  V30 3331 H 316.941 2.52793 -5.51526 0
M  V30 3332 H 315.68 2.37564 -4.25928 0
M  V30 3333 H 314.685 0.42171 -5.4818 0
M  V30 3334 H 315.91 0.595334 -6.76485 0
M  V30 3335 H 313.856 2.69752 -5.97972 0
M  V30 3336 H 313.773 1.6703 -7.37317 0
M  V30 3337 H 315.041 2.85348 -7.25394 0
M  V30 3338 N 319.27 1.56325 -0.20005 0
M  V30 3339 C 320.2 2.22318 0.713916 0
M  V30 3340 C 321.181 1.18788 1.21752 0
M  V30 3341 O 322.366 1.47309 1.26545 0
M  V30 3342 C 319.496 2.88639 1.93144 0
M  V30 3343 C 318.45 3.98457 1.56255 0
M  V30 3344 C 317.776 4.51967 2.85709 0
M  V30 3345 C 319.076 5.16612 0.768747 0
M  V30 3346 H 320.77 2.98952 0.163755 0
M  V30 3347 H 318.316 1.43792 0.0773219 0
M  V30 3348 H 320.269 3.33491 2.57608 0
M  V30 3349 H 318.993 2.09419 2.50621 0
M  V30 3350 H 317.652 3.54305 0.941471 0
M  V30 3351 H 317.3 3.69503 3.41287 0
M  V30 3352 H 317 5.26071 2.6177 0
M  V30 3353 H 318.524 4.99523 3.51154 0
M  V30 3354 H 319.938 5.57977 1.3166 0
M  V30 3355 H 318.335 5.96812 0.627286 0
M  V30 3356 H 319.405 4.84358 -0.229168 0
M  V30 3357 N 320.748 -0.0735177 1.57428 0
M  V30 3358 C 321.988 -0.778363 1.89 0
M  V30 3359 C 322.352 -1.7483 0.793634 0
M  V30 3360 O 323.553 -2.49811 0.992367 0
M  V30 3361 C 321.824 -1.46929 3.25802 0
M  V30 3362 S 323.383 -2.20943 3.79117 0
M  V30 3363 H 320.201 -0.258874 0.662197 0
M  V30 3364 H 322.803 -0.0345338 1.95469 0
M  V30 3365 H 321.507 -0.749532 4.03497 0
M  V30 3366 H 321.038 -2.25258 3.22525 0
M  V30 3367 H 323.053 -3.47435 3.54265 0
M  V30 3368 N 322.226 -1.5378 -0.344866 0
M  V30 3369 C 323.456 -1.74646 -1.10374 0
M  V30 3370 C 323.864 -0.48491 -1.8288 0
M  V30 3371 O 323.207 0.553062 -1.75177 0
M  V30 3372 C 323.269 -2.87145 -2.16306 0
M  V30 3373 C 322.933 -4.26795 -1.63386 0
M  V30 3374 C 323.93 -5.08412 -1.08688 0
M  V30 3375 C 321.615 -4.73276 -1.68272 0
M  V30 3376 C 323.609 -6.34609 -0.595792 0
M  V30 3377 C 321.296 -5.99446 -1.18776 0
M  V30 3378 C 322.294 -6.79946 -0.645215 0
M  V30 3379 O 321.982 -8.03745 -0.157626 0
M  V30 3380 H 321.714 -0.587112 -0.335075 0
M  V30 3381 H 324.268 -2.01403 -0.403252 0
M  V30 3382 H 322.498 -2.55909 -2.89909 0
M  V30 3383 H 324.187 -2.95992 -2.77747 0
M  V30 3384 H 324.953 -4.73666 -1.04236 0
M  V30 3385 H 320.832 -4.10677 -2.09442 0
M  V30 3386 H 324.376 -6.97389 -0.171654 0
M  V30 3387 H 320.273 -6.33687 -1.22928 0
M  V30 3388 H 321.041 -8.18038 -0.275037 0
M  V30 3389 N 323.704 0.605807 -1.45491 0
M  V30 3390 C 324.953 1.36086 -1.48874 0
M  V30 3391 C 325.266 1.95131 -0.135333 0
M  V30 3392 O 326.472 2.7146 -0.0468144 0
M  V30 3393 C 324.928 2.46518 -2.62215 0
M  V30 3394 C 324.536 1.93877 -4.03876 0
M  V30 3395 C 326.28 3.23512 -2.74846 0
M  V30 3396 C 324.187 3.01801 -5.08596 0
M  V30 3397 H 323.117 0.511497 -0.553974 0
M  V30 3398 H 325.768 0.649089 -1.71636 0
M  V30 3399 H 324.15 3.20388 -2.32739 0
M  V30 3400 H 325.324 1.26704 -4.43038 0
M  V30 3401 H 323.639 1.29622 -3.95711 0
M  V30 3402 H 326.236 4.04013 -3.50253 0
M  V30 3403 H 326.579 3.74631 -1.81542 0
M  V30 3404 H 327.112 2.56742 -3.03856 0
M  V30 3405 H 323.851 2.55597 -6.03614 0
M  V30 3406 H 323.371 3.67535 -4.74002 0
M  V30 3407 H 325.05 3.66152 -5.33424 0
M  V30 3408 N 325.182 1.32811 0.848464 0
M  V30 3409 C 326.145 1.22194 1.9391 0
M  V30 3410 C 327.145 0.143404 1.60159 0
M  V30 3411 O 328.335 0.394253 1.6968 0
M  V30 3412 C 325.467 0.88067 3.29328 0
M  V30 3413 H 326.66 2.19127 2.04752 0
M  V30 3414 H 324.213 1.16731 1.0394 0
M  V30 3415 H 324.948 -0.0865776 3.24184 0
M  V30 3416 H 324.733 1.66052 3.55203 0
M  V30 3417 H 326.223 0.830871 4.09251 0
M  V30 3418 N 326.66 -1.06551 1.16123 0
M  V30 3419 C 327.59 -2.15935 0.88851 0
M  V30 3420 C 328.571 -1.69306 -0.164135 0
M  V30 3421 O 329.756 -1.94193 -0.0167857 0
M  V30 3422 C 326.886 -3.45149 0.385942 0
M  V30 3423 C 325.84 -4.05271 1.3762 0
M  V30 3424 C 325.166 -5.29664 0.732137 0
M  V30 3425 C 326.466 -4.44355 2.74493 0
M  V30 3426 H 328.16 -2.39006 1.80323 0
M  V30 3427 H 325.706 -1.14866 0.868435 0
M  V30 3428 H 327.659 -4.21004 0.182647 0
M  V30 3429 H 326.383 -3.21689 -0.564274 0
M  V30 3430 H 325.042 -3.3147 1.56599 0
M  V30 3431 H 324.69 -5.02499 -0.224483 0
M  V30 3432 H 324.39 -5.70848 1.39307 0
M  V30 3433 H 325.914 -6.08218 0.538802 0
M  V30 3434 H 327.328 -5.11303 2.59311 0
M  V30 3435 H 325.725 -4.96515 3.37035 0
M  V30 3436 H 326.795 -3.55339 3.29943 0
M  V30 3437 N 328.138 -0.959301 -1.25041 0
M  V30 3438 C 329.086 -0.474437 -2.2771 0
M  V30 3439 C 330.08 0.457697 -1.631 0
M  V30 3440 O 331.286 0.333912 -1.76876 0
M  V30 3441 H 327.661 -0.134936 -0.739795 0
M  V30 3442 H 329.632 -1.35251 -2.65988 0
M  V30 3443 C 328.381 0.227884 -3.46952 0
M  V30 3444 H 327.704 -0.480248 -3.96905 0
M  V30 3445 H 329.144 0.531091 -4.20661 0
M  V30 3446 C 327.603 1.452 -3.04004 0
M  V30 3447 O 328.133 2.54949 -3.10426 0
M  V30 3448 N 326.339 1.31502 -2.59144 0
M  V30 3449 H 325.886 0.422065 -2.54119 0
M  V30 3450 H 325.844 2.13521 -2.30773 0
M  V30 3451 N 329.616 1.39756 -0.72842 0
M  V30 3452 C 330.863 2.00645 -0.273487 0
M  V30 3453 C 331.191 1.57786 1.13727 0
M  V30 3454 O 330.446 0.794886 1.7883 0
M  V30 3455 C 330.745 3.56002 -0.315776 0
M  V30 3456 C 330.411 4.18489 -1.67863 0
M  V30 3457 C 329.073 4.3527 -2.05166 0
M  V30 3458 C 331.425 4.53219 -2.57375 0
M  V30 3459 C 328.753 4.84069 -3.31503 0
M  V30 3460 C 331.105 5.03423 -3.83077 0
M  V30 3461 C 329.769 5.18413 -4.20481 0
M  V30 3462 H 329.039 0.734211 -0.100076 0
M  V30 3463 H 331.686 1.6718 -0.933972 0
M  V30 3464 H 329.991 3.89452 0.428285 0
M  V30 3465 H 331.688 4.00963 0.0542575 0
M  V30 3466 H 328.278 4.05824 -1.37858 0
M  V30 3467 H 332.462 4.39878 -2.29827 0
M  V30 3468 H 327.718 4.93859 -3.60435 0
M  V30 3469 H 331.892 5.2927 -4.52599 0
M  V30 3470 H 329.519 5.55987 -5.18443 0
M  V30 3471 N 331.094 0.475555 1.50254 0
M  V30 3472 C 332.371 -0.139685 1.95101 0
M  V30 3473 C 332.751 -1.56555 1.41611 0
M  V30 3474 O 332.099 -2.19956 0.618993 0
M  V30 3475 C 332.309 -0.0784298 3.48912 0
M  V30 3476 C 333.657 -0.265095 4.23772 0
M  V30 3477 O 334.681 -0.154808 3.55863 0
M  V30 3478 O 333.54 -0.488327 5.44314 0
M  V30 3479 H 330.634 -0.109236 0.819754 0
M  V30 3480 H 333.18 0.536276 1.61004 0
M  V30 3481 H 331.952 0.916918 3.80405 0
M  V30 3482 H 331.575 -0.795655 3.89558 0
M  V30 3483 N 332.573 -1.56217 0.208337 0
M  V30 3484 C 333.483 -2.23316 -0.718836 0
M  V30 3485 C 334.499 -1.23648 -1.22422 0
M  V30 3486 O 335.675 -1.56423 -1.26861 0
M  V30 3487 C 332.74 -2.88968 -1.91568 0
M  V30 3488 C 331.801 -4.03943 -1.45357 0
M  V30 3489 C 331.034 -4.66455 -2.59337 0
M  V30 3490 O 331.257 -4.27919 -3.77149 0
M  V30 3491 O 330.191 -5.55686 -2.31293 0
M  V30 3492 H 334.017 -3.03182 -0.177315 0
M  V30 3493 H 331.602 -1.49384 -0.0215402 0
M  V30 3494 H 333.484 -3.30455 -2.61491 0
M  V30 3495 H 332.159 -2.12071 -2.44556 0
M  V30 3496 H 331.066 -3.67052 -0.722746 0
M  V30 3497 H 332.399 -4.82543 -0.970219 0
M  V30 3498 N 334.051 0.0651679 -1.57465 0
M  V30 3499 C 334.961 1.09448 -2.07505 0
M  V30 3500 C 335.977 1.41974 -1.00595 0
M  V30 3501 O 337.153 1.52018 -1.32107 0
M  V30 3502 C 334.218 2.38689 -2.51453 0
M  V30 3503 C 333.279 2.13073 -3.72691 0
M  V30 3504 C 332.512 3.36152 -4.14533 0
M  V30 3505 O 332.735 4.45517 -3.56189 0
M  V30 3506 O 331.669 3.23974 -5.07272 0
M  V30 3507 H 335.495 0.69935 -2.95538 0
M  V30 3508 H 333.08 0.279752 -1.46757 0
M  V30 3509 H 334.962 3.14736 -2.80212 0
M  V30 3510 H 333.637 2.77568 -1.66546 0
M  V30 3511 H 332.544 1.34709 -3.49005 0
M  V30 3512 H 333.877 1.79071 -4.5847 0
M  V30 3513 N 335.529 1.53961 0.336706 0
M  V30 3514 C 336.462 1.77255 1.43722 0
M  V30 3515 C 337.44 0.62193 1.50236 0
M  V30 3516 O 338.624 0.857874 1.67847 0
M  V30 3517 C 335.751 1.87733 2.81912 0
M  V30 3518 C 334.797 3.09933 2.92991 0
M  V30 3519 S 335.63 4.68836 2.58753 0
M  V30 3520 C 336.786 4.82202 3.99039 0
M  V30 3521 H 337.019 2.70322 1.23748 0
M  V30 3522 H 334.552 1.44917 0.532777 0
M  V30 3523 H 336.51 1.94455 3.61521 0
M  V30 3524 H 335.171 0.956666 2.99177 0
M  V30 3525 H 334.364 3.1396 3.94265 0
M  V30 3526 H 333.966 3.01472 2.21338 0
M  V30 3527 H 336.258 4.64032 4.9364 0
M  V30 3528 H 337.201 5.84298 4.00002 0
M  V30 3529 H 337.609 4.10604 3.87382 0
M  V30 3530 N 337.007 -0.598083 1.45811 0
M  V30 3531 C 337.954 -1.7082 1.55207 0
M  V30 3532 C 338.924 -1.61278 0.39732 0
M  V30 3533 O 340.109 -1.80717 0.612038 0
M  V30 3534 C 337.249 -3.09144 1.53376 0
M  V30 3535 C 336.362 -3.29423 2.79472 0
M  V30 3536 C 335.497 -4.57907 2.69248 0
M  V30 3537 C 334.536 -4.71476 3.90354 0
M  V30 3538 N 333.673 -5.9127 3.78608 0
M  V30 3539 H 338.513 -1.62125 2.50039 0
M  V30 3540 H 336.05 -0.790389 1.24062 0
M  V30 3541 H 338.008 -3.89186 1.50301 0
M  V30 3542 H 336.638 -3.16773 0.620876 0
M  V30 3543 H 335.69 -2.43091 2.92594 0
M  V30 3544 H 337.002 -3.3532 3.69272 0
M  V30 3545 H 336.156 -5.46157 2.64192 0
M  V30 3546 H 334.895 -4.54423 1.77063 0
M  V30 3547 H 333.9 -3.81648 3.95759 0
M  V30 3548 H 335.125 -4.76751 4.83617 0
M  V30 3549 H 333.071 -5.88813 2.89199 0
M  V30 3550 H 332.988 -5.98369 4.6205 0
M  V30 3551 H 334.256 -6.81992 3.77501 0
M  V30 3552 N 338.485 -1.33259 -0.841409 0
M  V30 3553 C 339.713 -1.27605 -1.62864 0
M  V30 3554 C 340.128 0.153507 -1.88175 0
M  V30 3555 O 339.485 1.09485 -1.46011 0
M  V30 3556 C 339.536 -2.04596 -2.98031 0
M  V30 3557 O 339.257 -3.41975 -2.73834 0
M  V30 3558 C 340.758 -2.06122 -3.92465 0
M  V30 3559 H 337.978 -0.439718 -0.506842 0
M  V30 3560 H 340.522 -1.75591 -1.04824 0
M  V30 3561 H 338.677 -1.60299 -3.5268 0
M  V30 3562 H 339.091 -3.81549 -3.59889 0
M  V30 3563 H 340.565 -2.64451 -4.84531 0
M  V30 3564 H 341.042 -1.05083 -4.26444 0
M  V30 3565 H 341.648 -2.50427 -3.43753 0
M  V30 3566 N 339.963 1.05934 -1.16686 0
M  V30 3567 C 341.188 1.83029 -0.975455 0
M  V30 3568 C 341.613 1.82096 0.471452 0
M  V30 3569 O 340.971 1.22443 1.33706 0
M  V30 3570 C 341.019 3.27372 -1.51195 0
M  V30 3571 O 340.123 4.06054 -0.720701 0
M  V30 3572 H 339.464 0.566194 -0.346872 0
M  V30 3573 H 341.994 1.33541 -1.55009 0
M  V30 3574 H 342.004 3.78186 -1.53099 0
M  V30 3575 H 340.679 3.27366 -2.56523 0
M  V30 3576 H 339.256 3.64812 -0.772458 0
M  V30 3577 N 341.441 0.965919 1.2453 0
M  V30 3578 C 342.351 0.502154 2.29163 0
M  V30 3579 C 343.367 -0.436017 1.68448 0
M  V30 3580 O 344.543 -0.309497 1.99008 0
M  V30 3581 C 341.608 -0.201956 3.46111 0
M  V30 3582 C 340.669 0.775821 4.22232 0
M  V30 3583 C 339.902 0.105217 5.33596 0
M  V30 3584 O 340.125 -1.10683 5.59558 0
M  V30 3585 O 339.059 0.796475 5.96607 0
M  V30 3586 H 342.885 1.37194 2.70946 0
M  V30 3587 H 340.47 0.732875 1.30189 0
M  V30 3588 H 342.352 -0.597564 4.17142 0
M  V30 3589 H 341.027 -1.04673 3.06309 0
M  V30 3590 H 339.934 1.22185 3.53584 0
M  V30 3591 H 341.267 1.58896 4.65846 0
M  V30 3592 N 342.919 -1.39368 0.735821 0
M  V30 3593 C 343.851 -2.2913 0.0567723 0
M  V30 3594 C 344.864 -1.46859 -0.702589 0
M  V30 3595 O 346.053 -1.69925 -0.546616 0
M  V30 3596 C 343.153 -3.25492 -0.943823 0
M  V30 3597 C 342.326 -4.36709 -0.24581 0
M  V30 3598 C 341.385 -5.13376 -1.15463 0
M  V30 3599 O 340.411 -5.65683 -0.631803 0
M  V30 3600 N 341.613 -5.24656 -2.48427 0
M  V30 3601 H 344.378 -2.88047 0.827582 0
M  V30 3602 H 341.939 -1.50957 0.585112 0
M  V30 3603 H 343.931 -3.73657 -1.55443 0
M  V30 3604 H 342.501 -2.676 -1.61583 0
M  V30 3605 H 341.721 -3.9041 0.545286 0
M  V30 3606 H 343.009 -5.08244 0.237891 0
M  V30 3607 H 342.407 -4.83679 -2.93379 0
M  V30 3608 H 340.964 -5.76258 -3.04582 0
M  V30 3609 N 344.397 -0.483516 -1.5 0
M  V30 3610 C 345.622 0.0667119 -2.07293 0
M  V30 3611 C 346.047 1.3164 -1.3436 0
M  V30 3612 O 345.405 1.76945 -0.394987 0
M  V30 3613 C 345.453 0.321126 -3.59167 0
M  V30 3614 O 344.557 1.39927 -3.87936 0
M  V30 3615 H 343.898 -0.0184758 -0.663743 0
M  V30 3616 H 346.428 -0.678125 -1.93035 0
M  V30 3617 H 346.438 0.557906 -4.04168 0
M  V30 3618 H 345.113 -0.592007 -4.11665 0
M  V30 3619 H 343.69 1.14882 -3.54763 0
M  V30 3620 N 345.875 1.56104 -0.216619 0
M  V30 3621 C 347.1 2.0301 0.424462 0
M  V30 3622 C 347.525 1.0955 1.52907 0
M  V30 3623 O 346.883 0.0827914 1.81111 0
M  V30 3624 C 346.931 3.4819 0.937883 0
M  V30 3625 O 346.035 3.57865 2.04955 0
M  V30 3626 H 345.376 0.656925 0.0966755 0
M  V30 3627 H 347.906 2.01859 -0.33381 0
M  V30 3628 H 347.916 3.88413 1.24897 0
M  V30 3629 H 346.591 4.15699 0.129387 0
M  V30 3630 H 345.168 3.29527 1.74546 0
M  V30 3631 N 347.353 -0.0568162 1.57498 0
M  V30 3632 C 348.63 -0.786954 1.79071 0
M  V30 3633 C 349.01 -1.95028 0.80792 0
M  V30 3634 O 348.358 -2.27968 -0.155858 0
M  V30 3635 C 348.568 -1.24594 3.26002 0
M  V30 3636 C 349.916 -1.67323 3.90241 0
M  V30 3637 O 350.94 -1.34124 3.29984 0
M  V30 3638 O 349.799 -2.28842 4.9628 0
M  V30 3639 H 346.893 -0.378262 0.735423 0
M  V30 3640 H 349.439 -0.035734 1.69662 0
M  V30 3641 H 348.211 -0.41423 3.89101 0
M  V30 3642 H 347.834 -2.05803 3.40192 0
M  V30 3643 N 348.832 -1.54138 -0.328536 0
M  V30 3644 C 350.081 -1.71318 -1.06456 0
M  V30 3645 C 350.394 -0.491109 -1.89334 0
M  V30 3646 O 351.6 -0.54416 -2.65991 0
M  V30 3647 C 350.056 -3.03 -1.94214 0
M  V30 3648 C 349.664 -4.32595 -1.16471 0
M  V30 3649 C 351.408 -3.29544 -2.67583 0
M  V30 3650 C 349.315 -5.55341 -2.03347 0
M  V30 3651 H 348.245 -0.638429 -0.401155 0
M  V30 3652 H 350.896 -1.80633 -0.323106 0
M  V30 3653 H 349.278 -2.87579 -2.72239 0
M  V30 3654 H 350.452 -4.58766 -0.432525 0
M  V30 3655 H 348.767 -4.12777 -0.548063 0
M  V30 3656 H 351.364 -4.18444 -3.3288 0
M  V30 3657 H 351.707 -2.47206 -3.34955 0
M  V30 3658 H 352.24 -3.45809 -1.96623 0
M  V30 3659 H 348.979 -6.40268 -1.40491 0
M  V30 3660 H 348.499 -5.33397 -2.74313 0
M  V30 3661 H 350.178 -5.91557 -2.62049 0
M  V30 3662 N 350.31 0.590341 -1.46126 0
M  V30 3663 C 351.22 1.72793 -1.58681 0
M  V30 3664 C 352.236 1.67516 -0.470566 0
M  V30 3665 O 353.412 1.87562 -0.733642 0
M  V30 3666 C 350.477 3.09287 -1.5666 0
M  V30 3667 C 349.538 3.25886 -2.79458 0
M  V30 3668 C 348.771 4.55869 -2.77524 0
M  V30 3669 O 348.994 5.3928 -1.85832 0
M  V30 3670 O 347.928 4.75552 -3.68964 0
M  V30 3671 H 351.754 1.65149 -2.54872 0
M  V30 3672 H 349.339 0.756486 -1.28832 0
M  V30 3673 H 351.221 3.90577 -1.58202 0
M  V30 3674 H 349.896 3.17385 -0.636271 0
M  V30 3675 H 348.803 2.44119 -2.83472 0
M  V30 3676 H 350.136 3.22675 -3.71674 0
M  V30 3677 N 351.788 1.33704 0.83433 0
M  V30 3678 C 352.735 1.24335 1.94447 0
M  V30 3679 C 353.705 0.120991 1.65659 0
M  V30 3680 O 354.89 0.300035 1.88426 0
M  V30 3681 C 352.03 0.993124 3.30501 0
M  V30 3682 C 351.143 2.20217 3.71657 0
M  V30 3683 C 350.278 1.88572 4.96602 0
M  V30 3684 C 349.317 3.05683 5.30306 0
M  V30 3685 N 348.454 2.73997 6.46429 0
M  V30 3686 H 353.294 2.1928 2.01792 0
M  V30 3687 H 350.831 1.09035 0.987404 0
M  V30 3688 H 352.789 0.828467 4.08892 0
M  V30 3689 H 351.419 0.0803902 3.227 0
M  V30 3690 H 350.471 2.47642 2.88752 0
M  V30 3691 H 351.783 3.07752 3.92543 0
M  V30 3692 H 350.937 1.68776 5.82752 0
M  V30 3693 H 349.676 0.982799 4.77695 0
M  V30 3694 H 348.681 3.26088 4.42659 0
M  V30 3695 H 349.906 3.96737 5.51159 0
M  V30 3696 H 347.852 1.86268 6.28999 0
M  V30 3697 H 347.769 3.55064 6.67432 0
M  V30 3698 H 349.037 2.57679 7.35678 0
M  V30 3699 N 353.266 -1.05314 1.17247 0
M  V30 3700 C 354.491 -1.82509 0.985148 0
M  V30 3701 C 354.916 -1.82343 -0.461788 0
M  V30 3702 O 354.274 -1.23151 -1.33055 0
M  V30 3703 C 354.322 -3.26566 1.52929 0
M  V30 3704 O 353.426 -4.05666 0.742225 0
M  V30 3705 H 352.767 -0.564347 0.349869 0
M  V30 3706 H 355.297 -1.32718 1.55715 0
M  V30 3707 H 355.307 -3.77369 1.55103 0
M  V30 3708 H 353.982 -3.26001 2.58256 0
M  V30 3709 H 352.559 -3.64397 0.791794 0
M  V30 3710 N 354.744 -0.972509 -1.24016 0
M  V30 3711 C 355.974 -0.653853 -1.9598 0
M  V30 3712 C 356.382 0.781801 -1.72292 0
M  V30 3713 O 355.725 1.53677 -1.00644 0
M  V30 3714 C 355.787 -0.854608 -3.49194 0
M  V30 3715 C 355.451 -2.27082 -3.96589 0
M  V30 3716 C 356.448 -3.24892 -4.05883 0
M  V30 3717 C 354.133 -2.5998 -4.29786 0
M  V30 3718 C 356.127 -4.53684 -4.47716 0
M  V30 3719 C 353.814 -3.88997 -4.71301 0
M  V30 3720 C 354.812 -4.85661 -4.80232 0
M  V30 3721 O 354.5 -6.12376 -5.20818 0
M  V30 3722 H 354.232 -0.242572 -0.630979 0
M  V30 3723 H 356.786 -1.30431 -1.58673 0
M  V30 3724 H 355.016 -0.146985 -3.86421 0
M  V30 3725 H 356.705 -0.534311 -4.02368 0
M  V30 3726 H 357.471 -3.00805 -3.80449 0
M  V30 3727 H 353.35 -1.85457 -4.22051 0
M  V30 3728 H 356.894 -5.29135 -4.54601 0
M  V30 3729 H 352.791 -4.12882 -4.96184 0
M  V30 3730 H 353.559 -6.16013 -5.38953 0
M  V30 3731 N 356.222 1.38976 -0.743202 0
M  V30 3732 C 357.132 2.3434 -0.110399 0
M  V30 3733 C 358.148 1.58741 0.712559 0
M  V30 3734 O 359.324 1.9099 0.639125 0
M  V30 3735 C 356.389 3.37812 0.780012 0
M  V30 3736 C 355.45 4.29263 -0.0561319 0
M  V30 3737 C 354.683 5.27793 0.791875 0
M  V30 3738 O 354.906 5.33043 2.03031 0
M  V30 3739 O 353.84 6.01512 0.216183 0
M  V30 3740 H 357.666 2.90129 -0.897714 0
M  V30 3741 H 355.251 1.40643 -0.503966 0
M  V30 3742 H 357.133 4.01194 1.28923 0
M  V30 3743 H 355.808 2.84395 1.546 0
M  V30 3744 H 354.715 3.69076 -0.611056 0
M  V30 3745 H 356.048 4.85907 -0.784531 0
M  V30 3746 N 357.7 0.491464 1.49741 0
M  V30 3747 C 358.63 -0.28154 2.31796 0
M  V30 3748 C 359.611 -0.971473 1.3963 0
M  V30 3749 O 360.796 -0.964719 1.68543 0
M  V30 3750 C 357.926 -1.35203 3.19902 0
M  V30 3751 C 356.88 -0.782529 4.20786 0
M  V30 3752 C 356.206 -1.95283 4.97764 0
M  V30 3753 C 357.506 0.21999 5.21837 0
M  V30 3754 H 359.2 0.403355 2.96671 0
M  V30 3755 H 356.746 0.195425 1.42668 0
M  V30 3756 H 358.699 -1.90045 3.76113 0
M  V30 3757 H 357.423 -2.06598 2.52953 0
M  V30 3758 H 356.082 -0.255928 3.65706 0
M  V30 3759 H 355.73 -2.65423 4.2727 0
M  V30 3760 H 355.43 -1.57789 5.66018 0
M  V30 3761 H 356.954 -2.50577 5.56816 0
M  V30 3762 H 358.368 -0.23996 5.72798 0
M  V30 3763 H 356.765 0.51026 5.97927 0
M  V30 3764 H 357.835 1.13911 4.7133 0
M  V30 3765 N 359.178 -1.55987 0.224894 0
M  V30 3766 C 360.589 -1.84553 -0.282345 0
M  V30 3767 C 360.94 -1.14634 -1.59227 0
M  V30 3768 O 360.065 -0.417155 -2.12341 0
M  V30 3769 C 360.66 -3.348 -0.519062 0
M  V30 3770 C 359.219 -3.63671 -0.970604 0
M  V30 3771 C 358.366 -2.77277 -0.0355261 0
M  V30 3772 H 361.317 -1.52245 0.448006 0
M  V30 3773 H 361.338 -3.55187 -1.36463 0
M  V30 3774 H 360.85 -3.8566 0.43449 0
M  V30 3775 H 358.951 -3.1827 -1.9374 0
M  V30 3776 H 359.064 -4.71631 -0.842698 0
M  V30 3777 H 357.428 -2.48846 -0.542927 0
M  V30 3778 H 358.211 -3.30937 0.913003 0
M  V30 3779 N 360.656 0.0484629 -1.57525 0
M  V30 3780 C 361.933 0.777447 -1.79486 0
M  V30 3781 C 362.313 1.94597 -0.818251 0
M  V30 3782 O 361.661 2.28047 0.143767 0
M  V30 3783 C 361.871 1.22864 -3.26658 0
M  V30 3784 C 363.219 1.65251 -3.91123 0
M  V30 3785 O 364.243 1.32372 -3.3069 0
M  V30 3786 O 363.102 2.26207 -4.97486 0
M  V30 3787 H 360.196 0.374357 -0.737419 0
M  V30 3788 H 362.742 0.0267359 -1.69679 0
M  V30 3789 H 361.514 0.393589 -3.89316 0
M  V30 3790 H 361.137 2.03996 -3.41279 0
M  V30 3791 N 362.134 1.5431 0.320358 0
M  V30 3792 C 363.382 1.72327 1.05583 0
M  V30 3793 C 363.703 0.50149 1.88441 0
M  V30 3794 O 362.973 -0.48448 1.89815 0
M  V30 3795 H 361.553 0.635387 0.3928 0
M  V30 3796 H 364.215 1.91621 0.356019 0
M  V30 3797 H 363.311 2.60426 1.72003 0
M  V30 3798 N 363.613 -0.582584 1.46437 0
M  V30 3799 C 364.561 -1.71272 1.5738 0
M  V30 3800 C 365.555 -1.63524 0.44229 0
M  V30 3801 O 366.761 -1.69016 0.619166 0
M  V30 3802 H 363.136 -0.566273 0.494813 0
M  V30 3803 H 365.107 -1.59174 2.52401 0
M  V30 3804 C 363.856 -3.09658 1.58136 0
M  V30 3805 H 363.179 -3.16291 2.44541 0
M  V30 3806 H 364.619 -3.88494 1.69847 0
M  V30 3807 C 363.078 -3.3547 0.310026 0
M  V30 3808 O 363.608 -3.97199 -0.599683 0
M  V30 3809 N 361.814 -2.89925 0.197901 0
M  V30 3810 H 361.361 -2.39873 0.93909 0
M  V30 3811 H 361.319 -3.07568 -0.65185 0
M  V30 3812 N 365.091 -1.34144 -0.827227 0
M  V30 3813 C 366.34 -1.25602 -1.5782 0
M  V30 3814 C 366.653 0.173445 -1.94829 0
M  V30 3815 O 367.859 0.380984 -2.68814 0
M  V30 3816 C 366.315 -2.20151 -2.84713 0
M  V30 3817 C 365.923 -3.68331 -2.55021 0
M  V30 3818 C 367.667 -2.20508 -3.62735 0
M  V30 3819 C 365.574 -4.54762 -3.78082 0
M  V30 3820 H 364.504 -0.466573 -0.592306 0
M  V30 3821 H 367.155 -1.59283 -0.911116 0
M  V30 3822 H 365.537 -1.79417 -3.53023 0
M  V30 3823 H 366.711 -4.17577 -1.94849 0
M  V30 3824 H 365.026 -3.7038 -1.90283 0
M  V30 3825 H 367.623 -2.82306 -4.54101 0
M  V30 3826 H 367.966 -1.20322 -3.98533 0
M  V30 3827 H 368.499 -2.59664 -3.01362 0
M  V30 3828 H 365.238 -5.55867 -3.47407 0
M  V30 3829 H 364.758 -4.10254 -4.37552 0
M  V30 3830 H 366.437 -4.69153 -4.45538 0
M  V30 3831 N 366.569 1.04691 -1.17803 0
M  V30 3832 C 367.818 1.77176 -0.963931 0
M  V30 3833 C 368.131 1.88888 0.508015 0
M  V30 3834 O 369.337 2.58164 0.840465 0
M  V30 3835 C 367.793 3.18518 -1.67555 0
M  V30 3836 C 367.401 3.14919 -3.18637 0
M  V30 3837 C 369.145 3.95424 -1.54402 0
M  V30 3838 C 367.052 4.51081 -3.82466 0
M  V30 3839 H 365.982 0.664116 -0.357023 0
M  V30 3840 H 368.633 1.17303 -1.4111 0
M  V30 3841 H 367.015 3.78748 -1.15613 0
M  V30 3842 H 368.189 2.64178 -3.77554 0
M  V30 3843 H 366.504 2.51512 -3.31859 0
M  V30 3844 H 369.101 4.96106 -1.99456 0
M  V30 3845 H 369.444 4.13343 -0.495329 0
M  V30 3846 H 369.977 3.41754 -2.0359 0
M  V30 3847 H 366.716 4.38368 -4.87354 0
M  V30 3848 H 366.236 5.01951 -3.28337 0
M  V30 3849 H 367.915 5.2001 -3.84965 0
M  V30 3850 N 368.047 0.979072 1.23499 0
M  V30 3851 C 369.275 0.665202 1.95915 0
M  V30 3852 C 369.69 -0.767571 1.72493 0
M  V30 3853 O 369.047 -1.51635 1.01554 0
M  V30 3854 C 369.098 0.944438 3.48945 0
M  V30 3855 O 368.819 2.3209 3.71572 0
M  V30 3856 C 370.32 0.646336 4.38563 0
M  V30 3857 H 367.54 0.247218 0.623798 0
M  V30 3858 H 370.084 1.31009 1.57025 0
M  V30 3859 H 368.239 0.345575 3.85856 0
M  V30 3860 H 368.653 2.40957 4.65876 0
M  V30 3861 H 370.127 0.892091 5.44744 0
M  V30 3862 H 370.604 -0.419575 4.37191 0
M  V30 3863 H 371.21 1.22562 4.07258 0
M  V30 3864 N 369.525 -1.3858 0.750561 0
M  V30 3865 C 370.771 -2.00481 0.305825 0
M  V30 3866 C 371.104 -1.5944 -1.10872 0
M  V30 3867 O 370.379 -0.83052 -1.75877 0
M  V30 3868 C 370.662 -3.5758 0.425287 0
M  V30 3869 C 370.515 -4.08594 1.88072 0
M  V30 3870 C 371.834 -4.39719 -0.183122 0
M  V30 3871 H 368.953 -0.728348 0.112598 0
M  V30 3872 H 371.595 -1.64566 0.949638 0
M  V30 3873 H 369.745 -3.88306 -0.122828 0
M  V30 3874 H 371.417 -3.88523 2.48691 0
M  V30 3875 H 369.66 -3.61574 2.39681 0
M  V30 3876 H 370.331 -5.177 1.91548 0
M  V30 3877 H 372.807 -4.15128 0.284303 0
M  V30 3878 H 371.683 -5.48856 -0.0692757 0
M  V30 3879 H 371.944 -4.23434 -1.27106 0
M  V30 3880 N 371.003 -0.499398 -1.49478 0
M  V30 3881 C 372.251 0.0455996 -2.02049 0
M  V30 3882 C 372.572 1.37633 -1.38138 0
M  V30 3883 O 371.842 1.8842 -0.536166 0
M  V30 3884 H 370.422 0.0198416 -0.746736 0
M  V30 3885 H 373.084 -0.656274 -1.83519 0
M  V30 3886 H 372.18 0.176445 -3.11601 0
M  V30 3887 N 372.481 1.55866 -0.233164 0
M  V30 3888 C 373.429 2.22176 0.68851 0
M  V30 3889 C 374.423 1.20487 1.19076 0
M  V30 3890 O 375.629 1.38536 1.14925 0
M  V30 3891 H 372.004 0.712511 0.240483 0
M  V30 3892 H 373.975 2.98212 0.105935 0
M  V30 3893 C 372.724 2.92446 1.88071 0
M  V30 3894 H 372.047 3.70458 1.50337 0
M  V30 3895 H 373.487 3.42226 2.50314 0
M  V30 3896 C 371.946 1.95555 2.74335 0
M  V30 3897 O 372.476 1.47986 3.73447 0
M  V30 3898 N 370.682 1.62953 2.40613 0
M  V30 3899 H 370.229 2.01831 1.60069 0
M  V30 3900 H 370.187 0.983886 2.98609 0
M  V30 3901 N 373.959 -0.0401083 1.57549 0
M  V30 3902 C 374.869 -1.06133 2.0922 0
M  V30 3903 C 375.885 -1.40356 1.0284 0
M  V30 3904 O 377.061 -1.49897 1.34509 0
M  V30 3905 C 374.126 -2.34658 2.55218 0
M  V30 3906 C 373.187 -2.07117 3.76033 0
M  V30 3907 C 372.42 -3.29514 4.19829 0
M  V30 3908 O 372.643 -4.39794 3.63232 0
M  V30 3909 O 371.577 -3.15863 5.12362 0
M  V30 3910 H 375.403 -0.652244 2.96613 0
M  V30 3911 H 372.988 -0.256368 1.47184 0
M  V30 3912 H 374.87 -3.10239 2.85184 0
M  V30 3913 H 373.545 -2.74883 1.70941 0
M  V30 3914 H 372.452 -1.29139 3.51104 0
M  V30 3915 H 373.785 -1.71754 4.61261 0
M  V30 3916 N 375.437 -1.54477 -0.31217 0
M  V30 3917 C 376.853 -1.45442 -0.657185 0
M  V30 3918 C 377.053 -0.63653 -1.91182 0
M  V30 3919 O 376.109 -0.139815 -2.52113 0
M  V30 3920 C 377.422 -2.89287 -0.82058 0
M  V30 3921 C 378.97 -2.9926 -0.917188 0
M  V30 3922 C 379.445 -4.44279 -1.11267 0
M  V30 3923 N 380.936 -4.4794 -1.17914 0
M  V30 3924 C 381.671 -5.57318 -1.34848 0
M  V30 3925 N 381.167 -6.76642 -1.48752 0
M  V30 3926 N 382.96 -5.44986 -1.37647 0
M  V30 3927 H 375.111 -2.06129 0.512313 0
M  V30 3928 H 377.374 -0.933088 0.167485 0
M  V30 3929 H 377.08 -3.51687 0.0302604 0
M  V30 3930 H 376.954 -3.36061 -1.71298 0
M  V30 3931 H 379.341 -2.36981 -1.75852 0
M  V30 3932 H 379.422 -2.558 -0.00101257 0
M  V30 3933 H 379.066 -5.07149 -0.27614 0
M  V30 3934 H 378.996 -4.85359 -2.04289 0
M  V30 3935 H 381.487 -3.61969 -1.08567 0
M  V30 3936 H 381.8 -7.55758 -1.61397 0
M  V30 3937 H 380.145 -6.79529 -1.45828 0
M  V30 3938 H 383.336 -4.50715 -1.26388 0
M  V30 3939 H 383.509 -6.3028 -1.50501 0
M  V30 3940 N 376.915 0.57481 -1.46744 0
M  V30 3941 C 378.162 1.33272 -1.52462 0
M  V30 3942 C 378.49 1.93669 -0.179572 0
M  V30 3943 O 377.745 1.7743 0.825664 0
M  V30 3944 C 378.044 2.476 -2.57738 0
M  V30 3945 C 377.71 2.05146 -4.01529 0
M  V30 3946 C 376.372 1.93284 -4.40676 0
M  V30 3947 C 378.724 1.72506 -4.91824 0
M  V30 3948 C 376.052 1.47049 -5.67973 0
M  V30 3949 C 378.404 1.27748 -6.19567 0
M  V30 3950 C 377.068 1.14468 -6.57612 0
M  V30 3951 H 376.338 0.487678 -0.557899 0
M  V30 3952 H 378.985 0.646456 -1.80259 0
M  V30 3953 H 377.29 3.21708 -2.23632 0
M  V30 3954 H 378.987 3.05807 -2.5939 0
M  V30 3955 H 375.577 2.15316 -3.7059 0
M  V30 3956 H 379.761 1.80552 -4.62293 0
M  V30 3957 H 375.017 1.35417 -5.96215 0
M  V30 3958 H 379.191 1.01547 -6.88957 0
M  V30 3959 H 376.818 0.78419 -7.56145 0
M  V30 3960 N 378.394 1.34581 0.820102 0
M  V30 3961 C 379.81 1.14325 1.11364 0
M  V30 3962 C 380.01 -0.0533648 2.01429 0
M  V30 3963 O 379.066 -0.728044 2.41776 0
M  V30 3964 C 380.379 2.43983 1.75764 0
M  V30 3965 C 381.927 2.50065 1.88246 0
M  V30 3966 C 382.402 3.79732 2.56061 0
M  V30 3967 N 383.893 3.80908 2.63558 0
M  V30 3968 C 384.628 4.77961 3.16766 0
M  V30 3969 N 384.124 5.85397 3.70517 0
M  V30 3970 N 385.917 4.65413 3.15194 0
M  V30 3971 H 378.068 2.11246 0.221096 0
M  V30 3972 H 380.331 0.934289 0.160649 0
M  V30 3973 H 380.037 3.31651 1.1705 0
M  V30 3974 H 379.911 2.57531 2.75604 0
M  V30 3975 H 382.298 1.62834 2.46108 0
M  V30 3976 H 382.379 2.40442 0.873006 0
M  V30 3977 H 382.023 4.67354 1.98853 0
M  V30 3978 H 381.953 3.86639 3.57516 0
M  V30 3979 H 384.444 3.03274 2.25463 0
M  V30 3980 H 384.757 6.55463 4.09376 0
M  V30 3981 H 383.102 5.89107 3.68752 0
M  V30 3982 H 386.293 3.80627 2.72471 0
M  V30 3983 H 386.466 5.41216 3.56356 0
M  V30 3984 N 379.872 -1.04064 1.18357 0
M  V30 3985 C 381.112 -1.78829 0.989921 0
M  V30 3986 C 381.476 -1.86106 -0.472095 0
M  V30 3987 O 382.677 -2.57076 -0.785187 0
M  V30 3988 C 380.948 -3.1823 1.6268 0
M  V30 3989 S 382.507 -4.09332 1.58091 0
M  V30 3990 H 379.325 -0.615754 0.355482 0
M  V30 3991 H 381.927 -1.24778 1.50501 0
M  V30 3992 H 380.631 -3.10543 2.68311 0
M  V30 3993 H 380.162 -3.77357 1.112 0
M  V30 3994 H 382.177 -4.92598 0.596817 0
M  V30 3995 N 381.35 -0.985608 -1.22978 0
M  V30 3996 C 382.761 -0.693593 -1.73338 0
M  V30 3997 C 383.112 0.789935 -1.79595 0
M  V30 3998 O 382.237 1.61771 -1.43733 0
M  V30 3999 C 382.832 -1.25235 -3.14804 0
M  V30 4000 C 381.391 -1.00987 -3.626 0
M  V30 4001 C 380.538 -1.37695 -2.40698 0
M  V30 4002 H 383.489 -1.15884 -1.08428 0
M  V30 4003 H 383.51 -0.627329 -3.75293 0
M  V30 4004 H 383.022 -2.33209 -3.10218 0
M  V30 4005 H 381.123 0.0535565 -3.72562 0
M  V30 4006 H 381.236 -1.66812 -4.49122 0
M  V30 4007 H 379.6 -0.795459 -2.4196 0
M  V30 4008 H 380.383 -2.46657 -2.38779 0
M  V30 4009 N 382.828 1.3818 -0.7579 0
M  V30 4010 C 383.738 2.3421 -0.135247 0
M  V30 4011 C 384.754 1.59487 0.695683 0
M  V30 4012 O 385.93 1.91657 0.618832 0
M  V30 4013 C 382.995 3.3862 0.744139 0
M  V30 4014 C 382.056 4.2918 -0.101658 0
M  V30 4015 C 381.289 5.28603 0.735851 0
M  V30 4016 O 381.512 5.35166 1.97366 0
M  V30 4017 O 380.446 6.01707 0.152372 0
M  V30 4018 H 384.272 2.8916 -0.928436 0
M  V30 4019 H 381.857 1.40101 -0.518855 0
M  V30 4020 H 383.739 4.02539 1.2466 0
M  V30 4021 H 382.414 2.86019 1.51575 0
M  V30 4022 H 381.321 3.68407 -0.650167 0
M  V30 4023 H 382.654 4.85048 -0.836024 0
M  V30 4024 N 384.306 0.507319 1.49211 0
M  V30 4025 C 385.269 -0.256763 2.27757 0
M  V30 4026 C 386.269 -0.888287 1.34038 0
M  V30 4027 O 387.459 -0.751841 1.5714 0
M  V30 4028 C 384.591 -1.36905 3.12202 0
M  V30 4029 H 385.784 0.432557 2.96764 0
M  V30 4030 H 383.337 0.262488 1.5408 0
M  V30 4031 H 384.072 -2.09233 2.47775 0
M  V30 4032 H 383.857 -0.921599 3.81115 0
M  V30 4033 H 385.347 -1.9071 3.7151 0
M  V30 4034 N 385.784 -1.5574 0.241426 0
M  V30 4035 C 386.714 -2.24133 -0.654722 0
M  V30 4036 C 387.695 -1.21974 -1.1856 0
M  V30 4037 O 388.88 -1.50612 -1.22595 0
M  V30 4038 C 386.01 -2.93659 -1.85423 0
M  V30 4039 C 384.964 -4.0246 -1.45636 0
M  V30 4040 C 384.29 -4.59383 -2.73626 0
M  V30 4041 C 385.59 -5.18468 -0.631506 0
M  V30 4042 H 387.284 -2.99281 -0.0844353 0
M  V30 4043 H 384.83 -1.43947 -0.0391707 0
M  V30 4044 H 386.783 -3.40203 -2.48676 0
M  V30 4045 H 385.507 -2.15991 -2.44981 0
M  V30 4046 H 384.166 -3.56676 -0.847202 0
M  V30 4047 H 383.814 -3.78422 -3.3137 0
M  V30 4048 H 383.514 -5.32826 -2.4773 0
M  V30 4049 H 385.038 -5.08658 -3.37786 0
M  V30 4050 H 386.452 -5.61272 -1.1682 0
M  V30 4051 H 384.849 -5.98266 -0.468831 0
M  V30 4052 H 385.919 -4.8358 0.357506 0
M  V30 4053 N 387.262 0.0317525 -1.57568 0
M  V30 4054 C 388.509 0.723104 -1.89149 0
M  V30 4055 C 388.837 1.75504 -0.838377 0
M  V30 4056 O 388.092 1.95037 0.160982 0
M  V30 4057 C 388.391 1.43167 -3.27472 0
M  V30 4058 C 388.057 0.535972 -4.47703 0
M  V30 4059 C 386.719 0.289262 -4.8033 0
M  V30 4060 C 389.071 -0.0826125 -5.21135 0
M  V30 4061 C 386.399 -0.584853 -5.83778 0
M  V30 4062 C 388.751 -0.944414 -6.25511 0
M  V30 4063 C 387.415 -1.20061 -6.56614 0
M  V30 4064 H 386.685 0.264602 -0.692146 0
M  V30 4065 H 389.332 -0.0169496 -1.91492 0
M  V30 4066 H 387.637 2.24497 -3.21105 0
M  V30 4067 H 389.334 1.97209 -3.49155 0
M  V30 4068 H 385.924 0.738414 -4.22191 0
M  V30 4069 H 390.108 0.0950302 -4.96209 0
M  V30 4070 H 385.364 -0.79168 -6.06253 0
M  V30 4071 H 389.538 -1.43026 -6.81554 0
M  V30 4072 H 387.165 -1.87967 -7.36595 0
M  V30 4073 N 388.74 1.54641 0.303973 0
M  V30 4074 C 389.672 1.81754 1.39636 0
M  V30 4075 C 390.685 0.70035 1.46966 0
M  V30 4076 O 391.874 0.97778 1.49338 0
M  V30 4077 C 388.974 1.93785 2.7803 0
M  V30 4078 C 388.147 3.24156 2.93669 0
M  V30 4079 C 387.206 3.26641 4.12544 0
M  V30 4080 O 386.232 4.00187 4.04771 0
M  V30 4081 N 387.434 2.5182 5.23036 0
M  V30 4082 H 390.199 2.76031 1.16734 0
M  V30 4083 H 387.76 1.54178 0.494033 0
M  V30 4084 H 389.752 1.92852 3.55795 0
M  V30 4085 H 388.322 1.06515 2.93893 0
M  V30 4086 H 387.542 3.37887 2.03042 0
M  V30 4087 H 388.83 4.10195 3.01027 0
M  V30 4088 H 388.228 1.91692 5.32232 0
M  V30 4089 H 386.785 2.56644 5.99147 0
M  V30 4090 N 390.218 -0.567019 1.47046 0
M  V30 4091 C 391.629 -1.14916 1.47143 0
M  V30 4092 C 391.98 -1.94954 0.220767 0
M  V30 4093 O 391.105 -2.05602 -0.67505 0
M  V30 4094 C 391.7 -2.09069 2.666 0
M  V30 4095 C 390.259 -2.62575 2.69687 0
M  V30 4096 C 389.406 -1.38755 2.40088 0
M  V30 4097 H 392.357 -0.354126 1.54699 0
M  V30 4098 H 392.378 -2.92789 2.43011 0
M  V30 4099 H 391.89 -1.50789 3.57609 0
M  V30 4100 H 389.991 -3.24681 1.82792 0
M  V30 4101 H 390.104 -3.04239 3.70102 0
M  V30 4102 H 388.468 -1.69098 1.90468 0
M  V30 4103 H 389.251 -0.822822 3.33293 0
M  V30 4104 N 391.696 -1.35014 -0.812953 0
M  V30 4105 C 392.921 -1.31187 -1.60639 0
M  V30 4106 C 393.346 0.109382 -1.87782 0
M  V30 4107 O 392.704 1.07424 -1.46047 0
M  V30 4108 C 392.752 -2.11809 -2.91838 0
M  V30 4109 O 391.856 -1.49444 -3.8437 0
M  V30 4110 H 391.197 -0.450084 -0.488181 0
M  V30 4111 H 393.727 -1.77963 -1.00947 0
M  V30 4112 H 393.737 -2.23531 -3.41318 0
M  V30 4113 H 392.412 -3.15137 -2.71407 0
M  V30 4114 H 390.989 -1.46524 -3.42907 0
M  V30 4115 N 393.175 1.03435 -1.18907 0
M  V30 4116 C 394.422 1.76743 -0.988334 0
M  V30 4117 C 394.75 1.88447 0.481441 0
M  V30 4118 O 394.005 1.39383 1.37371 0
M  V30 4119 C 394.304 3.19792 -1.59586 0
M  V30 4120 C 393.97 3.28108 -3.09283 0
M  V30 4121 C 392.632 3.30084 -3.5014 0
M  V30 4122 C 394.984 3.27696 -4.05296 0
M  V30 4123 C 392.312 3.29299 -4.85571 0
M  V30 4124 C 394.664 3.28451 -5.4065 0
M  V30 4125 C 393.328 3.28723 -5.80946 0
M  V30 4126 H 392.598 0.64675 -0.361657 0
M  V30 4127 H 395.245 1.21442 -1.48068 0
M  V30 4128 H 393.55 3.78136 -1.02568 0
M  V30 4129 H 395.247 3.75171 -1.41589 0
M  V30 4130 H 391.837 3.27294 -2.76725 0
M  V30 4131 H 396.021 3.25354 -3.74778 0
M  V30 4132 H 391.277 3.2783 -5.16079 0
M  V30 4133 H 395.451 3.27082 -6.14809 0
M  V30 4134 H 393.078 3.27868 -6.85862 0
M  V30 4135 N 394.653 0.992116 1.22453 0
M  V30 4136 C 395.583 0.561677 2.26644 0
M  V30 4137 C 396.564 -0.411055 1.65059 0
M  V30 4138 O 397.749 -0.301861 1.9184 0
M  V30 4139 C 394.879 -0.125247 3.47074 0
M  V30 4140 C 393.833 0.765948 4.21091 0
M  V30 4141 C 393.159 -0.0538484 5.34673 0
M  V30 4142 C 394.459 2.06242 4.79856 0
M  V30 4143 H 396.153 1.43259 2.62902 0
M  V30 4144 H 393.699 0.690283 1.26377 0
M  V30 4145 H 395.652 -0.437764 4.1912 0
M  V30 4146 H 394.376 -1.03069 3.0991 0
M  V30 4147 H 393.035 1.0621 3.50878 0
M  V30 4148 H 392.683 -0.960188 4.9375 0
M  V30 4149 H 392.383 0.539415 5.85119 0
M  V30 4150 H 393.907 -0.360477 6.09535 0
M  V30 4151 H 395.321 1.8139 5.43848 0
M  V30 4152 H 393.718 2.60444 5.40638 0
M  V30 4153 H 394.788 2.74167 3.99951 0
M  V30 4154 N 396.131 -1.37776 0.765217 0
M  V30 4155 C 397.379 -1.99454 0.325943 0
M  V30 4156 C 397.7 -1.61049 -1.09947 0
M  V30 4157 O 396.97 -0.872821 -1.75381 0
M  V30 4158 H 395.55 -0.737697 0.117525 0
M  V30 4159 H 398.212 -1.68359 0.981895 0
M  V30 4160 H 397.308 -3.09547 0.398353 0
M  V30 4161 N 397.609 -0.515225 -1.4894 0
M  V30 4162 C 398.556 0.255567 -2.29381 0
M  V30 4163 C 399.526 0.947387 -1.36432 0
M  V30 4164 O 400.711 0.951288 -1.65394 0
M  V30 4165 C 397.851 1.30551 -3.19453 0
M  V30 4166 C 396.964 0.624029 -4.27469 0
M  V30 4167 C 396.099 1.65563 -5.0474 0
M  V30 4168 C 395.138 0.956802 -6.04576 0
M  V30 4169 N 394.275 1.93326 -6.74959 0
M  V30 4170 H 399.115 -0.436607 -2.94784 0
M  V30 4171 H 396.652 -0.227154 -1.45336 0
M  V30 4172 H 398.61 1.92639 -3.70062 0
M  V30 4173 H 397.24 1.96626 -2.56004 0
M  V30 4174 H 396.292 -0.110459 -3.8024 0
M  V30 4175 H 397.604 0.0746092 -4.98744 0
M  V30 4176 H 396.758 2.35119 -5.59289 0
M  V30 4177 H 395.497 2.23893 -4.3327 0
M  V30 4178 H 394.502 0.247097 -5.49244 0
M  V30 4179 H 395.727 0.379814 -6.78037 0
M  V30 4180 H 393.673 2.50591 -6.06251 0
M  V30 4181 H 393.59 1.43489 -7.42258 0
M  V30 4182 H 394.858 2.62126 -7.34105 0
M  V30 4183 N 399.087 1.5561 -0.249682 0
M  V30 4184 C 399.997 2.25143 0.659375 0
M  V30 4185 C 401.013 1.2685 1.19101 0
M  V30 4186 O 402.189 1.59732 1.22669 0
M  V30 4187 C 399.254 2.93945 1.8384 0
M  V30 4188 C 398.315 4.07655 1.34596 0
M  V30 4189 C 397.548 4.73167 2.46878 0
M  V30 4190 O 397.771 4.37768 3.65671 0
M  V30 4191 O 396.705 5.61623 2.16478 0
M  V30 4192 H 400.531 3.03545 0.0968698 0
M  V30 4193 H 398.116 1.49389 -0.018074 0
M  V30 4194 H 399.998 3.37271 2.52638 0
M  V30 4195 H 398.673 2.18481 2.38847 0
M  V30 4196 H 397.58 3.68839 0.625174 0
M  V30 4197 H 398.913 4.84946 0.841941 0
M  V30 4198 N 400.565 -0.0233959 1.57583 0
M  V30 4199 C 401.528 -1.00693 2.05897 0
M  V30 4200 C 402.528 -1.28693 0.964092 0
M  V30 4201 O 403.718 -1.23602 1.22753 0
M  V30 4202 C 400.85 -2.33825 2.4807 0
M  V30 4203 H 402.043 -0.589476 2.9405 0
M  V30 4204 H 399.596 -0.270354 1.53944 0
M  V30 4205 H 400.331 -2.80307 1.6309 0
M  V30 4206 H 400.116 -2.1483 3.2801 0
M  V30 4207 H 401.606 -3.04426 2.85857 0
M  V30 4208 N 402.043 -1.548 -0.295768 0
M  V30 4209 C 403.006 -1.85363 -1.34808 0
M  V30 4210 C 404.006 -0.726817 -1.43436 0
M  V30 4211 O 405.196 -0.995088 -1.42981 0
M  V30 4212 C 402.328 -2.03859 -2.73229 0
M  V30 4213 H 403.521 -2.7941 -1.08949 0
M  V30 4214 H 401.074 -1.46942 -0.532702 0
M  V30 4215 H 401.809 -1.12117 -3.04303 0
M  V30 4216 H 401.594 -2.8588 -2.68356 0
M  V30 4217 H 403.084 -2.28857 -3.49305 0
M  V30 4218 N 403.521 0.559213 -1.47345 0
M  V30 4219 C 404.769 1.31388 -1.53563 0
M  V30 4220 C 405.09 1.93985 -0.198678 0
M  V30 4221 O 404.36 1.79825 0.777167 0
M  V30 4222 H 402.94 0.487901 -0.565652 0
M  V30 4223 H 405.602 0.65315 -1.8363 0
M  V30 4224 H 404.698 2.10844 -2.30111 0
M  V30 4225 N 404.999 1.35443 0.805782 0
M  V30 4226 C 406.248 1.28097 1.55801 0
M  V30 4227 C 406.561 -0.142428 1.95081 0
M  V30 4228 O 407.767 -0.33817 2.69386 0
M  V30 4229 C 406.223 2.24653 2.81174 0
M  V30 4230 C 405.831 3.72342 2.49129 0
M  V30 4231 C 407.575 2.2625 3.59181 0
M  V30 4232 C 405.482 4.60719 3.70799 0
M  V30 4233 H 404.412 0.475937 0.584808 0
M  V30 4234 H 407.063 1.60712 0.885661 0
M  V30 4235 H 405.445 1.85011 3.50124 0
M  V30 4236 H 406.619 4.20624 1.88181 0
M  V30 4237 H 404.934 3.73361 1.84366 0
M  V30 4238 H 407.531 2.89495 4.49552 0
M  V30 4239 H 407.874 1.26647 3.96568 0
M  V30 4240 H 408.407 2.64426 2.97193 0
M  V30 4241 H 405.146 5.61324 3.3852 0
M  V30 4242 H 404.666 4.17163 4.3097 0
M  V30 4243 H 406.345 4.76182 4.38018 0
M  V30 4244 N 406.477 -1.02803 1.19454 0
M  V30 4245 C 407.427 -2.0945 0.900827 0
M  V30 4246 C 408.411 -1.60335 -0.134715 0
M  V30 4247 O 409.603 -1.76857 0.0710924 0
M  V30 4248 C 406.732 -3.4044 0.442229 0
M  V30 4249 C 405.818 -3.96286 1.51056 0
M  V30 4250 N 406.209 -4.25785 2.73021 0
M  V30 4251 C 404.507 -4.24307 1.37404 0
M  V30 4252 C 405.208 -4.70654 3.41848 0
M  V30 4253 N 404.184 -4.72238 2.69243 0
M  V30 4254 H 407.986 -2.3015 1.82779 0
M  V30 4255 H 405.5 -1.20672 1.08683 0
M  V30 4256 H 407.497 -4.16354 0.21326 0
M  V30 4257 H 406.157 -3.21159 -0.478238 0
M  V30 4258 H 407.168 -4.15041 3.09776 0
M  V30 4259 H 403.845 -4.14285 0.517103 0
M  V30 4260 H 405.235 -5.02392 4.46152 0
M  V30 4261 N 407.956 -0.998596 -1.21925 0
M  V30 4262 C 409.184 -0.696286 -1.94832 0
M  V30 4263 C 409.599 0.740032 -1.73692 0
M  V30 4264 O 408.956 1.5 -1.03953 0
M  V30 4265 C 409.007 -0.999833 -3.47398 0
M  V30 4266 O 408.728 -2.37972 -3.67833 0
M  V30 4267 C 410.229 -0.716025 -4.37479 0
M  V30 4268 H 407.449 -0.257111 -0.619786 0
M  V30 4269 H 409.993 -1.33491 -1.54921 0
M  V30 4270 H 408.148 -0.406918 -3.85257 0
M  V30 4271 H 408.562 -2.48338 -4.61983 0
M  V30 4272 H 410.036 -0.978642 -5.43256 0
M  V30 4273 H 410.513 0.349968 -4.37803 0
M  V30 4274 H 411.119 -1.29025 -4.05256 0
M  V30 4275 N 409.434 1.37368 -0.772513 0
M  V30 4276 C 410.662 2.03942 -0.348588 0
M  V30 4277 C 411.077 1.58264 1.02947 0
M  V30 4278 O 410.434 0.764246 1.65727 0
M  V30 4279 C 410.485 3.5946 -0.38351 0
M  V30 4280 O 410.206 4.03468 -1.70721 0
M  V30 4281 C 411.707 4.4327 0.0519152 0
M  V30 4282 H 408.927 0.654931 -0.145966 0
M  V30 4283 H 411.471 1.75686 -1.04665 0
M  V30 4284 H 409.626 3.86486 0.265978 0
M  V30 4285 H 410.04 4.97991 -1.64636 0
M  V30 4286 H 411.514 5.51995 -0.0236733 0
M  V30 4287 H 411.991 4.2514 1.10238 0
M  V30 4288 H 412.597 4.21471 -0.569415 0
M  V30 4289 N 410.912 0.523116 1.48665 0
M  V30 4290 C 412.14 -0.0096312 2.06898 0
M  V30 4291 C 412.555 -1.28784 1.38059 0
M  V30 4292 O 411.912 -1.76453 0.465893 0
M  V30 4293 C 411.963 -0.244386 3.60673 0
M  V30 4294 O 411.684 0.983172 4.26925 0
M  V30 4295 C 413.185 -0.818289 4.35682 0
M  V30 4296 H 410.405 0.0304161 0.67031 0
M  V30 4297 H 412.949 0.726799 1.91149 0
M  V30 4298 H 411.104 -0.930847 3.76051 0
M  V30 4299 H 411.518 0.759653 5.1897 0
M  V30 4300 H 412.992 -0.93201 5.44075 0
M  V30 4301 H 413.469 -1.82153 3.99646 0
M  V30 4302 H 414.075 -0.168609 4.24966 0
M  V30 4303 N 412.39 -1.55475 0.257931 0
M  V30 4304 C 413.637 -1.99207 -0.363728 0
M  V30 4305 C 413.965 -1.1462 -1.57139 0
M  V30 4306 O 413.22 -0.199653 -1.94679 0
M  V30 4307 C 413.519 -3.48183 -0.806433 0
M  V30 4308 C 413.185 -4.49936 0.294684 0
M  V30 4309 C 411.847 -4.77481 0.597076 0
M  V30 4310 C 414.199 -5.10769 1.03751 0
M  V30 4311 C 411.527 -5.63132 1.64618 0
M  V30 4312 C 413.879 -5.97558 2.07622 0
M  V30 4313 C 412.543 -6.23432 2.38514 0
M  V30 4314 H 411.813 -0.728949 -0.133097 0
M  V30 4315 H 414.46 -1.8793 0.368059 0
M  V30 4316 H 412.765 -3.56848 -1.61761 0
M  V30 4317 H 414.462 -3.79415 -1.29789 0
M  V30 4318 H 411.052 -4.28572 0.0488649 0
M  V30 4319 H 415.236 -4.89527 0.817149 0
M  V30 4320 H 410.492 -5.8143 1.89074 0
M  V30 4321 H 414.666 -6.43735 2.65666 0
M  V30 4322 H 412.293 -6.89594 3.19943 0
M  V30 4323 N 413.868 0.0150385 -1.57593 0
M  V30 4324 C 414.816 1.02958 -2.08572 0
M  V30 4325 C 415.81 1.36554 -1.00246 0
M  V30 4326 O 417.016 1.35295 -1.18724 0
M  V30 4327 H 413.391 0.349619 -0.665786 0
M  V30 4328 H 415.362 0.573932 -2.92829 0
M  V30 4329 C 414.111 2.31752 -2.59203 0
M  V30 4330 H 413.434 2.06765 -3.42182 0
M  V30 4331 H 414.874 3.01053 -2.98568 0
M  V30 4332 C 413.333 3.01692 -1.49945 0
M  V30 4333 O 413.863 3.92083 -0.873704 0
M  V30 4334 N 412.069 2.6326 -1.23056 0
M  V30 4335 H 411.616 1.89838 -1.74125 0
M  V30 4336 H 411.574 3.10372 -0.501685 0
M  V30 4337 N 415.346 1.54954 0.287554 0
M  V30 4338 C 416.571 1.79209 1.04397 0
M  V30 4339 C 416.996 0.556431 1.79682 0
M  V30 4340 O 416.354 -0.493518 1.74454 0
M  V30 4341 C 416.402 3.00739 1.98969 0
M  V30 4342 O 415.506 2.74805 3.075 0
M  V30 4343 H 414.847 0.592755 0.299227 0
M  V30 4344 H 417.377 2.02068 0.320886 0
M  V30 4345 H 417.387 3.29077 2.4119 0
M  V30 4346 H 416.062 3.90329 1.43582 0
M  V30 4347 H 414.639 2.57523 2.69697 0
M  V30 4348 N 416.824 -0.551391 1.4764 0
M  V30 4349 C 418.073 -1.30467 1.53822 0
M  V30 4350 C 418.386 -1.94495 0.207661 0
M  V30 4351 O 419.592 -2.71099 0.147533 0
M  V30 4352 C 418.048 -2.36616 2.71184 0
M  V30 4353 C 417.656 -1.78754 4.10793 0
M  V30 4354 C 419.4 -3.13088 2.86663 0
M  V30 4355 C 417.307 -2.82717 5.19447 0
M  V30 4356 H 416.237 -0.490584 0.572576 0
M  V30 4357 H 418.888 -0.58494 1.73927 0
M  V30 4358 H 417.27 -3.11529 2.4447 0
M  V30 4359 H 418.444 -1.10173 4.47435 0
M  V30 4360 H 416.759 -1.14846 4.00249 0
M  V30 4361 H 419.356 -3.90736 3.65007 0
M  V30 4362 H 419.699 -3.67635 1.95321 0
M  V30 4363 H 420.232 -2.45288 3.13175 0
M  V30 4364 H 416.971 -2.33018 6.12685 0
M  V30 4365 H 416.491 -3.4969 4.87316 0
M  V30 4366 H 418.17 -3.46102 5.46646 0
M  V30 4367 N 418.302 -1.35869 -0.798587 0
M  V30 4368 C 419.249 -1.29446 -1.91082 0
M  V30 4369 C 420.219 -0.16487 -1.6528 0
M  V30 4370 O 421.404 -0.349888 -1.87564 0
M  V30 4371 C 418.544 -1.0804 -3.27752 0
M  V30 4372 C 417.657 -2.29993 -3.65687 0
M  V30 4373 C 416.792 -2.01673 -4.91428 0
M  V30 4374 C 415.831 -3.19636 -5.22015 0
M  V30 4375 N 414.968 -2.91039 -6.38937 0
M  V30 4376 H 419.808 -2.24553 -1.95907 0
M  V30 4377 H 417.345 -1.11615 -0.958148 0
M  V30 4378 H 419.303 -0.936586 -4.06551 0
M  V30 4379 H 417.933 -0.16592 -3.22373 0
M  V30 4380 H 416.985 -2.55211 -2.82085 0
M  V30 4381 H 418.297 -3.18052 -3.84245 0
M  V30 4382 H 417.451 -1.84168 -5.78072 0
M  V30 4383 H 416.19 -1.10911 -4.74921 0
M  V30 4384 H 415.195 -3.37709 -4.33858 0
M  V30 4385 H 416.42 -4.11211 -5.40447 0
M  V30 4386 H 414.366 -2.0288 -6.2384 0
M  V30 4387 H 414.283 -3.72635 -6.57784 0
M  V30 4388 H 415.551 -2.77093 -7.28587 0
M  V30 4389 N 419.78 1.02168 -1.19998 0
M  V30 4390 C 420.727 2.10601 -0.944228 0
M  V30 4391 C 421.697 1.65639 0.123664 0
M  V30 4392 O 422.882 1.9079 -0.0199941 0
M  V30 4393 C 420.022 3.41504 -0.496865 0
M  V30 4394 C 419.135 3.99973 -1.63234 0
M  V30 4395 C 418.27 5.18915 -1.13579 0
M  V30 4396 C 417.309 5.69456 -2.24468 0
M  V30 4397 N 416.446 6.79665 -1.76068 0
M  V30 4398 H 421.286 2.31814 -1.8726 0
M  V30 4399 H 418.823 1.13686 -0.933483 0
M  V30 4400 H 420.781 4.16626 -0.218843 0
M  V30 4401 H 419.411 3.2038 0.394508 0
M  V30 4402 H 418.463 3.21997 -2.0254 0
M  V30 4403 H 419.775 4.33492 -2.46752 0
M  V30 4404 H 418.929 6.01222 -0.813429 0
M  V30 4405 H 417.668 4.8695 -0.270434 0
M  V30 4406 H 416.673 4.85757 -2.57526 0
M  V30 4407 H 417.898 6.03459 -3.11472 0
M  V30 4408 H 415.844 6.49538 -0.918516 0
M  V30 4409 H 415.761 7.12349 -2.5317 0
M  V30 4410 H 417.029 7.65549 -1.46817 0
M  V30 4411 N 421.258 1.00505 1.21394 0
M  V30 4412 C 422.498 0.696149 1.9218 0
M  V30 4413 C 422.862 -0.759099 1.76357 0
M  V30 4414 O 424.063 -1.17998 2.41516 0
M  V30 4415 C 422.334 1.10571 3.39866 0
M  V30 4416 S 423.893 0.91702 4.29111 0
M  V30 4417 H 420.711 0.254147 0.664026 0
M  V30 4418 H 423.313 1.28988 1.46909 0
M  V30 4419 H 422.017 2.16096 3.489 0
M  V30 4420 H 421.548 0.504268 3.90155 0
M  V30 4421 H 423.563 -0.185855 4.95852 0
M  V30 4422 N 422.737 -1.36956 0.779787 0
M  V30 4423 C 424.014 -1.93697 0.272156 0
M  V30 4424 C 424.394 -1.71267 -1.23413 0
M  V30 4425 O 423.742 -1.06607 -2.02107 0
M  V30 4426 C 423.952 -3.42812 0.654291 0
M  V30 4427 C 425.3 -4.19921 0.628602 0
M  V30 4428 O 426.324 -3.51209 0.594172 0
M  V30 4429 O 425.183 -5.42465 0.662864 0
M  V30 4430 H 422.277 -0.824447 0.0649286 0
M  V30 4431 H 424.823 -1.46196 0.861682 0
M  V30 4432 H 423.595 -3.52754 1.69353 0
M  V30 4433 H 423.218 -3.97582 0.0381369 0
M  V30 4434 N 424.215 -0.530993 -1.48385 0
M  V30 4435 C 425.461 0.00274135 -2.028 0
M  V30 4436 C 425.794 1.33838 -1.40716 0
M  V30 4437 O 425.069 1.86465 -0.553277 0
M  V30 4438 C 425.352 0.123676 -3.59888 0
M  V30 4439 C 425.205 -1.2372 -4.3245 0
M  V30 4440 C 426.524 0.849967 -4.31814 0
M  V30 4441 H 423.643 -0.000477758 -0.737 0
M  V30 4442 H 426.285 -0.688217 -1.77098 0
M  V30 4443 H 424.435 0.712157 -3.81917 0
M  V30 4444 H 426.107 -1.86687 -4.21836 0
M  V30 4445 H 424.35 -1.81882 -3.93829 0
M  V30 4446 H 425.021 -1.10557 -5.40815 0
M  V30 4447 H 427.497 0.350572 -4.14621 0
M  V30 4448 H 426.373 0.903486 -5.41413 0
M  V30 4449 H 426.634 1.90047 -3.99167 0
M  V30 4450 N 425.693 1.55336 -0.266172 0
M  V30 4451 C 426.97 1.91372 0.404486 0
M  V30 4452 C 427.35 1.18935 1.74407 0
M  V30 4453 O 426.698 0.3132 2.26343 0
M  V30 4454 C 426.908 3.44581 0.553593 0
M  V30 4455 C 428.256 4.16196 0.840618 0
M  V30 4456 O 429.28 3.50426 0.638739 0
M  V30 4457 O 428.139 5.32567 1.22618 0
M  V30 4458 H 425.233 0.797194 0.220025 0
M  V30 4459 H 427.779 1.66813 -0.311664 0
M  V30 4460 H 426.551 3.89357 -0.389498 0
M  V30 4461 H 426.174 3.75065 1.31955 0
M  V30 4462 N 427.171 -0.0066808 1.57599 0
M  V30 4463 C 428.42 -0.692078 1.89455 0
M  V30 4464 C 428.733 -1.75306 0.867586 0
M  V30 4465 O 429.939 -2.49262 1.07614 0
M  V30 4466 C 428.395 -1.2821 3.36289 0
M  V30 4467 C 428.003 -0.256291 4.47266 0
M  V30 4468 C 429.747 -1.94608 3.77264 0
M  V30 4469 C 427.654 -0.855927 5.85173 0
M  V30 4470 H 426.584 -0.262252 0.706923 0
M  V30 4471 H 429.235 0.052769 1.83424 0
M  V30 4472 H 427.617 -2.0774 3.37135 0
M  V30 4473 H 428.791 0.513923 4.57925 0
M  V30 4474 H 427.106 0.306862 4.15268 0
M  V30 4475 H 429.703 -2.40364 4.77629 0
M  V30 4476 H 430.046 -2.77382 3.10427 0
M  V30 4477 H 430.579 -1.21822 3.78688 0
M  V30 4478 H 427.318 -0.0671161 6.55466 0
M  V30 4479 H 426.838 -1.59546 5.78191 0
M  V30 4480 H 428.517 -1.35658 6.32618 0
M  V30 4481 N 428.649 -1.55105 -0.279332 0
M  V30 4482 C 430.065 -1.46803 -0.626187 0
M  V30 4483 C 430.265 -0.676939 -1.89789 0
M  V30 4484 O 429.321 -0.19326 -2.51759 0
M  V30 4485 C 430.634 -2.90962 -0.759034 0
M  V30 4486 C 432.182 -3.01138 -0.853504 0
M  V30 4487 C 432.657 -4.46539 -1.01818 0
M  V30 4488 N 434.148 -4.50341 -1.08386 0
M  V30 4489 C 434.883 -5.60053 -1.22996 0
M  V30 4490 N 434.379 -6.79645 -1.34366 0
M  V30 4491 N 436.172 -5.47783 -1.26056 0
M  V30 4492 H 428.323 -2.04996 0.555921 0
M  V30 4493 H 430.586 -0.929325 0.187239 0
M  V30 4494 H 430.292 -3.51544 0.104852 0
M  V30 4495 H 430.166 -3.39619 -1.64131 0
M  V30 4496 H 432.553 -2.40658 -1.70786 0
M  V30 4497 H 432.634 -2.55745 0.0532466 0
M  V30 4498 H 432.278 -5.0762 -0.168504 0
M  V30 4499 H 432.208 -4.89583 -1.93948 0
M  V30 4500 H 434.699 -3.64191 -1.00864 0
M  V30 4501 H 435.012 -7.59012 -1.4533 0
M  V30 4502 H 433.357 -6.82469 -1.31382 0
M  V30 4503 H 436.548 -4.53294 -1.168 0
M  V30 4504 H 436.721 -6.33331 -1.37098 0
M  V30 4505 N 430.127 0.543554 -1.4793 0
M  V30 4506 C 431.074 1.64942 -1.6144 0
M  V30 4507 C 432.044 1.59692 -0.456903 0
M  V30 4508 O 433.229 1.78321 -0.678688 0
M  V30 4509 C 430.369 3.03238 -1.64744 0
M  V30 4510 C 429.482 3.18823 -2.91506 0
M  V30 4511 C 428.617 4.47599 -2.86057 0
M  V30 4512 C 427.656 4.56664 -4.07584 0
M  V30 4513 N 426.793 5.76811 -4.00292 0
M  V30 4514 H 431.633 1.52733 -2.55884 0
M  V30 4515 H 429.17 0.7438 -1.2691 0
M  V30 4516 H 431.128 3.83339 -1.64641 0
M  V30 4517 H 429.758 3.1425 -0.738017 0
M  V30 4518 H 428.81 2.32064 -3.01414 0
M  V30 4519 H 430.122 3.21384 -3.81463 0
M  V30 4520 H 429.276 5.35975 -2.84281 0
M  V30 4521 H 428.015 4.47538 -1.93807 0
M  V30 4522 H 427.02 3.66697 -4.09651 0
M  V30 4523 H 428.245 4.58474 -5.00978 0
M  V30 4524 H 426.191 5.77673 -3.10853 0
M  V30 4525 H 426.108 5.80808 -4.8394 0
M  V30 4526 H 427.376 6.67512 -4.02553 0
M  V30 4527 N 431.605 1.3629 0.791371 0
M  V30 4528 C 432.882 1.20962 1.53712 0
M  V30 4529 C 433.262 -0.205021 2.10102 0
M  V30 4530 O 432.61 -1.21042 1.93807 0
M  V30 4531 C 432.82 2.29002 2.63361 0
M  V30 4532 C 434.168 2.65572 3.31295 0
M  V30 4533 O 435.192 2.2803 2.73643 0
M  V30 4534 O 434.051 3.3018 4.35481 0
M  V30 4535 H 431.145 0.47086 0.679867 0
M  V30 4536 H 433.691 1.48016 0.830021 0
M  V30 4537 H 432.463 3.2382 2.19674 0
M  V30 4538 H 432.086 2.03303 3.41692 0
M  V30 4539 N 433.083 -1.0153 1.20538 0
M  V30 4540 C 434.013 -2.11972 0.979295 0
M  V30 4541 C 434.994 -1.6985 -0.0921787 0
M  V30 4542 O 436.179 -1.94089 0.0655932 0
M  V30 4543 C 433.309 -3.43201 0.531984 0
M  V30 4544 C 432.263 -3.9907 1.54685 0
M  V30 4545 C 431.589 -5.26082 0.956127 0
M  V30 4546 C 432.889 -4.32313 2.93092 0
M  V30 4547 H 434.583 -2.31143 1.90298 0
M  V30 4548 H 432.129 -1.11079 0.916372 0
M  V30 4549 H 434.082 -4.1985 0.361044 0
M  V30 4550 H 432.806 -3.23792 -0.427327 0
M  V30 4551 H 431.465 -3.2453 1.70517 0
M  V30 4552 H 431.113 -5.02999 -0.0111538 0
M  V30 4553 H 430.813 -5.64426 1.63393 0
M  V30 4554 H 432.337 -6.05386 0.796284 0
M  V30 4555 H 433.751 -4.99845 2.80763 0
M  V30 4556 H 432.148 -4.81774 3.57791 0
M  V30 4557 H 433.218 -3.41025 3.44717 0
M  V30 4558 N 434.561 -1.01147 -1.20859 0
M  V30 4559 C 435.791 -0.715872 -1.93801 0
M  V30 4560 C 436.199 0.726592 -1.74692 0
M  V30 4561 O 435.542 1.50397 -1.05482 0
M  V30 4562 C 435.604 -0.965269 -3.46299 0
M  V30 4563 C 435.268 -2.39584 -3.89164 0
M  V30 4564 C 436.265 -3.3764 -3.95342 0
M  V30 4565 C 433.95 -2.73522 -4.21297 0
M  V30 4566 C 435.944 -4.67698 -4.33056 0
M  V30 4567 C 433.631 -4.03794 -4.58687 0
M  V30 4568 C 434.629 -5.00693 -4.64538 0
M  V30 4569 O 434.317 -6.28635 -5.01072 0
M  V30 4570 H 434.049 -0.262524 -0.622942 0
M  V30 4571 H 436.603 -1.35413 -1.54443 0
M  V30 4572 H 434.833 -0.269847 -3.85757 0
M  V30 4573 H 436.522 -0.662051 -4.00464 0
M  V30 4574 H 437.288 -3.12757 -3.70686 0
M  V30 4575 H 433.167 -1.9879 -4.15937 0
M  V30 4576 H 436.711 -5.4333 -4.37537 0
M  V30 4577 H 432.608 -4.28459 -4.82797 0
M  V30 4578 H 433.376 -6.32847 -5.19083 0
M  V30 4579 N 436.039 1.36541 -0.78704 0
M  V30 4580 C 437.287 1.98911 -0.357633 0
M  V30 4581 C 437.608 1.62778 1.07371 0
M  V30 4582 O 436.878 0.900612 1.73971 0
M  V30 4583 H 435.458 0.735734 -0.129246 0
M  V30 4584 H 438.12 1.66776 -1.00855 0
M  V30 4585 H 437.216 3.08874 -0.447549 0
M  V30 4586 N 437.518 0.538854 1.48102 0
M  V30 4587 C 438.466 -0.232325 2.31437 0
M  V30 4588 C 439.46 -0.927004 1.41785 0
M  V30 4589 O 440.666 -0.850378 1.58646 0
M  V30 4590 H 437.041 -0.0937916 0.746128 0
M  V30 4591 H 439.012 0.489986 2.9435 0
M  V30 4592 C 437.761 -1.26074 3.24038 0
M  V30 4593 H 437.084 -0.735609 3.92974 0
M  V30 4594 H 438.524 -1.77157 3.85216 0
M  V30 4595 C 436.983 -2.29902 2.46265 0
M  V30 4596 O 437.513 -3.36502 2.19384 0
M  V30 4597 N 435.719 -2.03348 2.07601 0
M  V30 4598 H 435.266 -1.16675 2.29662 0
M  V30 4599 H 435.224 -2.73038 1.55877 0
M  V30 4600 N 438.996 -1.55193 0.274407 0
M  V30 4601 C 440.245 -1.98758 -0.343213 0
M  V30 4602 C 440.558 -1.16624 -1.5703 0
M  V30 4603 O 441.764 -1.5033 -2.26082 0
M  V30 4604 C 440.22 -3.53759 -0.661996 0
M  V30 4605 C 439.828 -4.4467 0.54524 0
M  V30 4606 C 441.572 -4.05916 -1.24228 0
M  V30 4607 C 439.479 -5.91058 0.201084 0
M  V30 4608 H 438.409 -0.742353 -0.132014 0
M  V30 4609 H 441.06 -1.79545 0.378948 0
M  V30 4610 H 439.442 -3.68772 -1.44304 0
M  V30 4611 H 440.616 -4.41426 1.32212 0
M  V30 4612 H 438.931 -4.03143 1.04232 0
M  V30 4613 H 441.528 -5.12831 -1.51357 0
M  V30 4614 H 441.871 -3.54908 -2.17592 0
M  V30 4615 H 442.404 -3.9434 -0.523542 0
M  V30 4616 H 439.143 -6.46161 1.10258 0
M  V30 4617 H 438.663 -5.97373 -0.539045 0
M  V30 4618 H 440.342 -6.46669 -0.206954 0
M  V30 4619 N 440.474 -0.00167713 -1.576 0
M  V30 4620 C 441.72 0.683832 -1.90923 0
M  V30 4621 C 442.053 1.7333 -0.875799 0
M  V30 4622 O 441.328 1.94215 0.10525 0
M  V30 4623 C 441.611 1.32543 -3.3482 0
M  V30 4624 C 441.464 0.287387 -4.48881 0
M  V30 4625 C 442.783 2.25114 -3.78169 0
M  V30 4626 H 439.902 0.247125 -0.694333 0
M  V30 4627 H 442.544 -0.0533149 -1.89925 0
M  V30 4628 H 440.694 1.95372 -3.35801 0
M  V30 4629 H 442.366 -0.341346 -4.60035 0
M  V30 4630 H 440.609 -0.39017 -4.32042 0
M  V30 4631 H 441.28 0.775393 -5.46527 0
M  V30 4632 H 443.756 1.723 -3.7875 0
M  V30 4633 H 442.632 2.66971 -4.79602 0
M  V30 4634 H 442.893 3.13092 -3.12131 0
M  V30 4635 N 441.952 1.55251 0.271103 0
M  V30 4636 C 442.882 1.9127 1.33933 0
M  V30 4637 C 443.863 0.77478 1.5143 0
M  V30 4638 O 445.048 1.03307 1.64442 0
M  V30 4639 C 442.178 2.18627 2.69851 0
M  V30 4640 C 441.132 3.34442 2.67081 0
M  V30 4641 C 440.458 3.47284 4.06569 0
M  V30 4642 C 441.758 4.70784 2.26185 0
M  V30 4643 H 443.452 2.80744 1.04035 0
M  V30 4644 H 440.998 1.35077 0.499017 0
M  V30 4645 H 442.951 2.42413 3.44694 0
M  V30 4646 H 441.675 1.25955 3.01335 0
M  V30 4647 H 440.334 3.10627 1.94695 0
M  V30 4648 H 439.982 2.52074 4.35279 0
M  V30 4649 H 439.682 4.25152 4.0561 0
M  V30 4650 H 441.206 3.73363 4.83148 0
M  V30 4651 H 442.62 4.94102 2.90751 0
M  V30 4652 H 441.017 5.51582 2.36384 0
M  V30 4653 H 442.087 4.69478 1.21319 0
M  V30 4654 N 443.43 -0.535701 1.48216 0
M  V30 4655 C 444.655 -1.32149 1.59848 0
M  V30 4656 C 445.08 -1.86338 0.256842 0
M  V30 4657 O 444.438 -1.64107 -0.770632 0
M  V30 4658 C 444.486 -2.45224 2.64381 0
M  V30 4659 O 443.59 -3.48093 2.21144 0
M  V30 4660 H 442.931 -0.391634 0.536208 0
M  V30 4661 H 445.461 -0.645202 1.94161 0
M  V30 4662 H 445.471 -2.91491 2.85476 0
M  V30 4663 H 444.146 -2.05143 3.61786 0
M  V30 4664 H 442.723 -3.07984 2.10239 0
M  V30 4665 N 444.908 -1.36708 -0.784132 0
M  V30 4666 C 446.156 -1.30972 -1.53918 0
M  V30 4667 C 446.477 0.109086 -1.94695 0
M  V30 4668 O 445.747 1.05048 -1.65353 0
M  V30 4669 H 444.327 -0.481819 -0.570841 0
M  V30 4670 H 446.989 -1.71063 -0.934002 0
M  V30 4671 H 446.085 -1.94061 -2.44431 0
M  V30 4672 N 446.386 1.0089 -1.21074 0
M  V30 4673 C 447.634 1.74262 -1.02358 0
M  V30 4674 C 447.955 1.89869 0.444393 0
M  V30 4675 O 447.225 1.44677 1.32081 0
M  V30 4676 H 445.805 0.645615 -0.375754 0
M  V30 4677 H 448.467 1.21596 -1.52317 0
M  V30 4678 H 447.563 2.74328 -1.4883 0
M  V30 4679 N 447.864 1.01787 1.20321 0
M  V30 4680 C 449.092 0.727194 1.937 0
M  V30 4681 C 449.507 -0.712305 1.74848 0
M  V30 4682 O 448.864 -1.48327 1.06327 0
M  V30 4683 C 448.915 1.05497 3.45764 0
M  V30 4684 O 448.636 2.43794 3.64 0
M  V30 4685 C 450.137 0.785534 4.36285 0
M  V30 4686 H 447.357 0.266939 0.615617 0
M  V30 4687 H 449.901 1.35939 1.52777 0
M  V30 4688 H 448.056 0.468158 3.84561 0
M  V30 4689 H 448.47 2.55656 4.57974 0
M  V30 4690 H 449.944 1.06495 5.4163 0
M  V30 4691 H 450.421 -0.280273 4.38305 0
M  V30 4692 H 451.027 1.35456 4.03152 0
M  V30 4693 N 449.342 -1.36122 0.79427 0
M  V30 4694 C 450.57 -2.03362 0.380989 0
M  V30 4695 C 450.985 -1.59881 -1.00416 0
M  V30 4696 O 450.342 -0.790515 -1.6449 0
M  V30 4697 C 450.393 -3.58804 0.440649 0
M  V30 4698 O 450.114 -4.007 1.77118 0
M  V30 4699 C 451.615 -4.43296 0.0186117 0
M  V30 4700 H 448.835 -0.652526 0.156367 0
M  V30 4701 H 451.379 -1.73998 1.07447 0
M  V30 4702 H 449.534 -3.8686 -0.204458 0
M  V30 4703 H 449.948 -4.95309 1.72538 0
M  V30 4704 H 451.422 -5.51887 0.111488 0
M  V30 4705 H 451.899 -4.2684 -1.03461 0
M  V30 4706 H 452.505 -4.20512 0.636395 0
M  V30 4707 N 450.82 -0.546701 -1.47814 0
M  V30 4708 C 451.753 0.254472 -2.26777 0
M  V30 4709 C 452.731 0.929809 -1.33392 0
M  V30 4710 O 453.915 0.950889 -1.62759 0
M  V30 4711 C 451.042 1.36171 -3.10121 0
M  V30 4712 C 450.088 0.796038 -4.19005 0
M  V30 4713 S 450.921 -0.349191 -5.3436 0
M  V30 4714 C 452.077 0.760122 -6.21267 0
M  V30 4715 H 452.31 -0.415612 -2.94381 0
M  V30 4716 H 449.843 -0.332809 -1.5077 0
M  V30 4717 H 451.801 1.99588 -3.58713 0
M  V30 4718 H 450.462 2.00359 -2.41899 0
M  V30 4719 H 449.655 1.62719 -4.7701 0
M  V30 4720 H 449.257 0.238246 -3.7324 0
M  V30 4721 H 451.549 1.65479 -6.5698 0
M  V30 4722 H 452.492 0.217673 -7.07765 0
M  V30 4723 H 452.9 1.04806 -5.54685 0
M  V30 4724 N 452.299 1.55045 -0.282633 0
M  V30 4725 C 453.529 2.03872 0.334635 0
M  V30 4726 C 453.937 1.16018 1.49454 0
M  V30 4727 O 453.28 0.174449 1.8287 0
M  V30 4728 C 453.342 3.48791 0.870905 0
M  V30 4729 C 453.006 4.56715 -0.161338 0
M  V30 4730 C 454.003 5.10513 -0.983466 0
M  V30 4731 C 451.688 5.01417 -0.297745 0
M  V30 4732 C 453.682 6.07538 -1.92811 0
M  V30 4733 C 451.369 5.98265 -1.24586 0
M  V30 4734 C 452.367 6.51208 -2.05954 0
M  V30 4735 O 452.055 7.46162 -2.99162 0
M  V30 4736 H 451.787 0.671324 0.0793742 0
M  V30 4737 H 454.341 2.01169 -0.41473 0
M  V30 4738 H 452.571 3.48758 1.67047 0
M  V30 4739 H 454.26 3.80916 1.40207 0
M  V30 4740 H 455.026 4.76785 -0.888856 0
M  V30 4741 H 450.905 4.59849 0.325604 0
M  V30 4742 H 454.449 6.48787 -2.56363 0
M  V30 4743 H 450.346 6.31412 -1.34126 0
M  V30 4744 H 451.114 7.63903 -2.93929 0
M  V30 4745 N 453.777 0.010035 1.57597 0
M  V30 4746 C 454.687 -0.994226 2.12491 0
M  V30 4747 C 455.703 -1.37013 1.07254 0
M  V30 4748 O 456.879 -1.45542 1.3921 0
M  V30 4749 C 453.944 -2.2642 2.62555 0
M  V30 4750 C 453.005 -1.95049 3.82432 0
M  V30 4751 C 452.238 -3.15991 4.30099 0
M  V30 4752 O 452.461 -4.28015 3.7704 0
M  V30 4753 O 451.395 -2.99403 5.22151 0
M  V30 4754 H 455.221 -0.557549 2.98538 0
M  V30 4755 H 452.806 -0.209413 1.47925 0
M  V30 4756 H 454.688 -3.01009 2.9491 0
M  V30 4757 H 453.363 -2.69306 1.796 0
M  V30 4758 H 452.27 -1.17904 3.55034 0
M  V30 4759 H 453.603 -1.56992 4.66491 0
M  V30 4760 N 455.255 -1.55392 -0.262866 0
M  V30 4761 C 456.503 -1.76127 -0.991147 0
M  V30 4762 C 456.824 -0.571083 -1.8645 0
M  V30 4763 O 456.094 0.413698 -1.91482 0
M  V30 4764 H 454.674 -0.649528 -0.368948 0
M  V30 4765 H 457.336 -1.9281 -0.284655 0
M  V30 4766 H 456.432 -2.6663 -1.62219 0
M  V30 4767 N 456.733 0.527833 -1.48498 0
M  V30 4768 C 457.982 1.28003 -1.55878 0
M  V30 4769 C 458.295 1.9414 -0.238577 0
M  V30 4770 O 459.501 2.7083 -0.190643 0
M  V30 4771 C 457.957 2.32272 -2.74914 0
M  V30 4772 C 457.565 1.72196 -4.13585 0
M  V30 4773 C 459.309 3.08488 -2.91608 0
M  V30 4774 C 457.216 2.74417 -5.23879 0
M  V30 4775 H 456.146 0.481413 -0.580308 0
M  V30 4776 H 458.797 0.557195 -1.74836 0
M  V30 4777 H 457.179 3.07601 -2.49395 0
M  V30 4778 H 458.353 1.03041 -4.49132 0
M  V30 4779 H 456.668 1.08464 -4.02025 0
M  V30 4780 H 459.265 3.84879 -3.71177 0
M  V30 4781 H 459.608 3.64481 -2.01145 0
M  V30 4782 H 460.141 2.40274 -3.17038 0
M  V30 4783 H 456.88 2.23242 -6.16314 0
M  V30 4784 H 456.4 3.41893 -4.92818 0
M  V30 4785 H 458.079 3.37362 -5.52083 0
M  V30 4786 N 458.211 1.37122 0.776871 0
M  V30 4787 C 459.459 1.31787 1.53221 0
M  V30 4788 C 459.78 -0.0987589 1.9475 0
M  V30 4789 O 459.05 -1.0417 1.65908 0
M  V30 4790 H 457.63 0.484839 0.568278 0
M  V30 4791 H 460.292 1.71556 0.924917 0
M  V30 4792 H 459.388 1.95355 2.43398 0
M  V30 4793 N 459.689 -1.00246 1.21608 0
M  V30 4794 C 460.599 -2.12515 0.993709 0
M  V30 4795 C 461.615 -1.73913 -0.0549939 0
M  V30 4796 O 462.791 -2.00943 0.135619 0
M  V30 4797 C 459.856 -3.42083 0.563953 0
M  V30 4798 C 458.917 -3.94843 1.68516 0
M  V30 4799 C 458.15 -5.18226 1.27582 0
M  V30 4800 O 458.373 -5.70201 0.150506 0
M  V30 4801 O 457.307 -5.64497 2.0887 0
M  V30 4802 H 461.133 -2.34152 1.93407 0
M  V30 4803 H 458.718 -1.10891 1.00118 0
M  V30 4804 H 460.6 -4.20073 0.334194 0
M  V30 4805 H 459.275 -3.21828 -0.347665 0
M  V30 4806 H 458.182 -3.18068 1.96935 0
M  V30 4807 H 459.515 -4.19512 2.5743 0
M  V30 4808 N 461.167 -1.02423 -1.1978 0
M  V30 4809 C 462.583 -0.740459 -1.41384 0
M  V30 4810 C 462.783 0.676827 -1.89793 0
M  V30 4811 O 461.839 1.4435 -2.0717 0
M  V30 4812 C 463.152 -1.77264 -2.42895 0
M  V30 4813 C 464.7 -1.79165 -2.56649 0
M  V30 4814 C 465.175 -2.8133 -3.6141 0
M  V30 4815 N 466.666 -2.80118 -3.68901 0
M  V30 4816 C 467.401 -3.55824 -4.49641 0
M  V30 4817 N 466.897 -4.41231 -5.34123 0
M  V30 4818 N 468.69 -3.44387 -4.44246 0
M  V30 4819 H 460.841 -1.9391 -0.866764 0
M  V30 4820 H 463.104 -0.838074 -0.443098 0
M  V30 4821 H 462.81 -2.7884 -2.14339 0
M  V30 4822 H 462.684 -1.59108 -3.42001 0
M  V30 4823 H 465.071 -0.782702 -2.84531 0
M  V30 4824 H 465.152 -2.01396 -1.57713 0
M  V30 4825 H 464.796 -3.82394 -3.34271 0
M  V30 4826 H 464.726 -2.56359 -4.59986 0
M  V30 4827 H 467.217 -2.1817 -3.08562 0
M  V30 4828 H 467.53 -4.95747 -5.92836 0
M  V30 4829 H 465.875 -4.45306 -5.33599 0
M  V30 4830 H 469.066 -2.7708 -3.77285 0
M  V30 4831 H 469.239 -4.0364 -5.06931 0
M  V30 4832 N 462.645 1.35699 -0.801477 0
M  V30 4833 C 463.575 2.32436 -0.222658 0
M  V30 4834 C 464.556 1.5723 0.649057 0
M  V30 4835 O 465.741 1.85324 0.580387 0
M  V30 4836 C 462.871 3.41469 0.633719 0
M  V30 4837 C 461.825 4.27774 -0.139083 0
M  V30 4838 C 461.151 5.28082 0.838666 0
M  V30 4839 C 462.451 5.04946 -1.33517 0
M  V30 4840 H 464.145 2.81094 -1.03086 0
M  V30 4841 H 461.691 1.35146 -0.497155 0
M  V30 4842 H 463.644 4.08143 1.04868 0
M  V30 4843 H 462.368 2.91408 1.47475 0
M  V30 4844 H 461.027 3.62673 -0.535156 0
M  V30 4845 H 460.675 4.7429 1.67506 0
M  V30 4846 H 460.375 5.86695 0.32594 0
M  V30 4847 H 461.899 5.97628 1.25194 0
M  V30 4848 H 463.313 5.64593 -0.995349 0
M  V30 4849 H 461.71 5.7303 -1.78202 0
M  V30 4850 H 462.78 4.35886 -2.12442 0
M  V30 4851 N 464.123 0.554532 1.47522 0
M  V30 4852 C 465.351 0.034257 2.06872 0
M  V30 4853 C 465.766 -1.25826 1.40759 0
M  V30 4854 O 465.123 -1.75425 0.503217 0
M  V30 4855 C 465.174 -0.167827 3.6111 0
M  V30 4856 O 464.895 1.07351 4.24744 0
M  V30 4857 C 466.396 -0.72569 4.3732 0
M  V30 4858 H 463.616 0.0446275 0.669514 0
M  V30 4859 H 466.16 0.767181 1.89564 0
M  V30 4860 H 464.315 -0.850872 3.7794 0
M  V30 4861 H 464.729 0.869563 5.17242 0
M  V30 4862 H 466.203 -0.816394 5.45929 0
M  V30 4863 H 466.68 -1.73635 4.0342 0
M  V30 4864 H 467.286 -0.0784292 4.25228 0
M  V30 4865 N 465.601 -1.54893 0.290851 0
M  V30 4866 C 467.017 -1.59476 -0.0628432 0
M  V30 4867 C 467.217 -1.30795 -1.5328 0
M  V30 4868 O 466.273 -1.07644 -2.28406 0
M  V30 4869 C 467.586 -2.98928 0.325962 0
M  V30 4870 C 469.134 -3.11799 0.273882 0
M  V30 4871 C 469.609 -4.53544 0.637359 0
M  V30 4872 N 471.1 -4.59433 0.589507 0
M  V30 4873 C 471.835 -5.67164 0.84335 0
M  V30 4874 N 471.331 -6.82975 1.16263 0
M  V30 4875 N 473.124 -5.56786 0.771091 0
M  V30 4876 H 465.275 -1.71798 1.24896 0
M  V30 4877 H 467.538 -0.801879 0.505663 0
M  V30 4878 H 467.244 -3.24805 1.34887 0
M  V30 4879 H 467.118 -3.75793 -0.325441 0
M  V30 4880 H 469.505 -2.85677 -0.739765 0
M  V30 4881 H 469.586 -2.37112 0.959766 0
M  V30 4882 H 469.23 -4.80394 1.64877 0
M  V30 4883 H 469.16 -5.26553 -0.0704866 0
M  V30 4884 H 471.651 -3.76245 0.353252 0
M  V30 4885 H 471.964 -7.61048 1.34257 0
M  V30 4886 H 470.309 -6.84552 1.20057 0
M  V30 4887 H 473.5 -4.65187 0.521383 0
M  V30 4888 H 473.673 -6.40664 0.972295 0
M  V30 4889 N 467.08 -0.0183926 -1.57589 0
M  V30 4890 C 468.357 0.700621 -1.82622 0
M  V30 4891 C 468.737 1.90951 -0.90005 0
M  V30 4892 O 468.085 2.28452 0.0469145 0
M  V30 4893 C 468.295 1.08899 -3.31575 0
M  V30 4894 C 469.643 1.48514 -3.9778 0
M  V30 4895 O 470.667 1.18227 -3.36007 0
M  V30 4896 O 469.526 2.04903 -5.06633 0
M  V30 4897 H 466.62 0.342743 -0.752633 0
M  V30 4898 H 469.166 -0.0452548 -1.6964 0
M  V30 4899 H 467.938 0.228113 -3.90635 0
M  V30 4900 H 467.561 1.89338 -3.49624 0
M  V30 4901 N 468.558 1.5553 0.254621 0
M  V30 4902 C 469.807 1.76202 0.981612 0
M  V30 4903 C 470.12 0.580883 1.86776 0
M  V30 4904 O 471.326 0.670448 2.63092 0
M  V30 4905 C 469.782 3.11921 1.79537 0
M  V30 4906 C 469.39 4.37659 0.956991 0
M  V30 4907 C 471.134 3.41936 2.51555 0
M  V30 4908 C 469.041 5.64411 1.76619 0
M  V30 4909 H 467.971 0.656841 0.370237 0
M  V30 4910 H 470.622 1.81969 0.236556 0
M  V30 4911 H 469.004 3.00241 2.58208 0
M  V30 4912 H 470.178 4.60307 0.21315 0
M  V30 4913 H 468.493 4.14922 0.350497 0
M  V30 4914 H 471.09 4.33849 3.12536 0
M  V30 4915 H 471.433 2.62905 3.22779 0
M  V30 4916 H 471.966 3.54797 1.799 0
M  V30 4917 H 468.705 6.46241 1.09783 0
M  V30 4918 H 468.225 5.45877 2.48551 0
M  V30 4919 H 469.904 6.03386 2.33527 0
M  V30 4920 N 470.036 -0.519951 1.48776 0
M  V30 4921 C 471.264 -1.29971 1.60982 0
M  V30 4922 C 471.679 -1.86803 0.273885 0
M  V30 4923 O 471.036 -1.66904 -0.738193 0
M  V30 4924 C 471.087 -2.44346 2.66415 0
M  V30 4925 O 470.808 -1.89855 3.94825 0
M  V30 4926 C 472.309 -3.36014 2.89153 0
M  V30 4927 H 469.529 -0.394891 0.542496 0
M  V30 4928 H 472.073 -0.626214 1.94676 0
M  V30 4929 H 470.228 -3.07562 2.35552 0
M  V30 4930 H 470.642 -2.64798 4.5275 0
M  V30 4931 H 472.116 -4.12593 3.66703 0
M  V30 4932 H 472.593 -3.91859 1.98351 0
M  V30 4933 H 473.199 -2.78582 3.21359 0
M  V30 4934 N 471.514 -1.37532 -0.769588 0
M  V30 4935 C 472.742 -1.36059 -1.55871 0
M  V30 4936 C 473.157 0.053544 -1.88724 0
M  V30 4937 O 472.514 1.01591 -1.5161 0
M  V30 4938 C 472.565 -2.20107 -2.86767 0
M  V30 4939 O 472.286 -3.56009 -2.55321 0
M  V30 4940 C 473.787 -2.26636 -3.80987 0
M  V30 4941 H 471.007 -0.465967 -0.482821 0
M  V30 4942 H 473.551 -1.80901 -0.953686 0
M  V30 4943 H 471.706 -1.78768 -3.43687 0
M  V30 4944 H 472.12 -4.0009 -3.39158 0
M  V30 4945 H 473.594 -2.89763 -4.69831 0
M  V30 4946 H 474.071 -1.2754 -4.20274 0
M  V30 4947 H 474.677 -2.68296 -3.29996 0
M  V30 4948 N 472.992 0.995999 -1.22138 0
M  V30 4949 C 473.922 2.10387 -1.01289 0
M  V30 4950 C 474.903 1.69975 0.0651454 0
M  V30 4951 O 476.088 1.9396 -0.0964628 0
M  V30 4952 C 473.218 3.42312 -0.586517 0
M  V30 4953 C 472.172 3.96558 -1.61014 0
M  V30 4954 C 471.498 5.24494 -1.0397 0
M  V30 4955 C 472.798 4.27595 -2.99933 0
M  V30 4956 H 474.492 2.28086 -1.93951 0
M  V30 4957 H 472.038 1.09607 -0.933928 0
M  V30 4958 H 473.991 4.19223 -0.427793 0
M  V30 4959 H 472.715 3.24431 0.375761 0
M  V30 4960 H 471.374 3.21776 -1.75658 0
M  V30 4961 H 471.022 5.02953 -0.0688703 0
M  V30 4962 H 470.722 5.61755 -1.72352 0
M  V30 4963 H 472.246 6.04042 -0.892494 0
M  V30 4964 H 473.66 4.95315 -2.8868 0
M  V30 4965 H 472.057 4.76021 -3.6541 0
M  V30 4966 H 473.127 3.35498 -3.50099 0
M  V30 4967 N 474.47 1.03057 1.19235 0
M  V30 4968 C 475.433 0.617418 2.20727 0
M  V30 4969 C 476.433 -0.319856 1.57587 0
M  V30 4970 O 477.623 -0.106633 1.73873 0
M  V30 4971 C 474.755 -0.096296 3.40764 0
M  V30 4972 H 475.948 1.51544 2.58794 0
M  V30 4973 H 473.501 0.821949 1.32942 0
M  V30 4974 H 474.236 -1.00859 3.08217 0
M  V30 4975 H 474.021 0.577217 3.87828 0
M  V30 4976 H 475.511 -0.372219 4.15938 0
M  V30 4977 N 475.948 -1.35272 0.808662 0
M  V30 4978 C 477.359 -1.81179 0.450688 0
M  V30 4979 C 477.71 -1.67143 -1.02751 0
M  V30 4980 O 476.835 -1.20325 -1.79864 0
M  V30 4981 C 477.43 -3.28943 0.811275 0
M  V30 4982 C 475.989 -3.72985 0.505871 0
M  V30 4983 C 475.136 -2.57229 1.03578 0
M  V30 4984 H 478.087 -1.2322 1.00012 0
M  V30 4985 H 478.108 -3.80342 0.109588 0
M  V30 4986 H 477.62 -3.39127 1.88718 0
M  V30 4987 H 475.721 -3.68349 -0.561209 0
M  V30 4988 H 475.834 -4.67677 1.03995 0
M  V30 4989 H 474.198 -2.50548 0.458005 0
M  V30 4990 H 474.981 -2.7019 2.11784 0
M  V30 4991 N 477.426 -0.562348 -1.47226 0
M  V30 4992 C 478.651 -0.0432632 -2.07355 0
M  V30 4993 C 479.076 1.24332 -1.41149 0
M  V30 4994 O 478.434 1.74603 -0.488226 0
M  V30 4995 C 478.482 0.130288 -3.60365 0
M  V30 4996 O 477.586 1.19166 -3.94808 0
M  V30 4997 H 476.927 -0.0536334 -0.66183 0
M  V30 4998 H 479.457 -0.779495 -1.89169 0
M  V30 4999 H 479.467 0.342881 -4.06557 0
M  V30 5000 H 478.142 -0.809389 -4.07948 0
M  V30 5001 H 476.719 0.959153 -3.60354 0
M  V30 5002 N 478.904 1.54736 -0.299062 0
M  V30 5003 C 480.132 2.04512 0.313447 0
M  V30 5004 C 480.547 1.17643 1.47667 0
M  V30 5005 O 479.904 0.20164 1.81383 0
M  V30 5006 C 479.955 3.53171 0.771542 0
M  V30 5007 O 479.676 4.36736 -0.345379 0
M  V30 5008 C 481.177 4.18936 1.4494 0
M  V30 5009 H 478.397 0.667507 0.0683784 0
M  V30 5010 H 480.941 1.99752 -0.438129 0
M  V30 5011 H 479.096 3.58298 1.47314 0
M  V30 5012 H 479.51 5.24499 0.0109219 0
M  V30 5013 H 480.984 5.24482 1.72111 0
M  V30 5014 H 481.461 3.68554 2.38883 0
M  V30 5015 H 482.067 4.17879 0.791028 0
M  V30 5016 N 480.382 0.0267497 1.57577 0
M  V30 5017 C 481.315 -0.99059 2.05579 0
M  V30 5018 C 482.293 -1.31884 0.951065 0
M  V30 5019 O 483.477 -1.43592 1.22121 0
M  V30 5020 C 480.604 -2.31125 2.47586 0
M  V30 5021 C 479.65 -2.13777 3.69055 0
M  V30 5022 S 480.483 -1.4388 5.15809 0
M  V30 5023 C 481.639 -2.77321 5.6111 0
M  V30 5024 H 481.872 -0.581976 2.91548 0
M  V30 5025 H 479.405 -0.184876 1.53289 0
M  V30 5026 H 481.363 -3.07049 2.72454 0
M  V30 5027 H 480.024 -2.6912 1.61967 0
M  V30 5028 H 479.217 -3.11405 3.96287 0
M  V30 5029 H 478.819 -1.45996 3.44327 0
M  V30 5030 H 481.111 -3.73565 5.65204 0
M  V30 5031 H 482.054 -2.54756 6.60685 0
M  V30 5032 H 482.462 -2.82459 4.88751 0
M  V30 5033 N 481.861 -1.55662 -0.24637 0
M  V30 5034 C 482.808 -1.90361 -1.30504 0
M  V30 5035 C 483.778 -0.757905 -1.47801 0
M  V30 5036 O 484.963 -1.01161 -1.61775 0
M  V30 5037 C 482.103 -2.2042 -2.65535 0
M  V30 5038 C 481.216 -3.47799 -2.56242 0
M  V30 5039 C 480.351 -3.67426 -3.8363 0
M  V30 5040 C 479.39 -4.88403 -3.68956 0
M  V30 5041 N 478.527 -5.04548 -4.88237 0
M  V30 5042 H 483.367 -2.80645 -1.00213 0
M  V30 5043 H 480.904 -1.38924 -0.483577 0
M  V30 5044 H 482.862 -2.35853 -3.44135 0
M  V30 5045 H 481.492 -1.3334 -2.93973 0
M  V30 5046 H 480.544 -3.40694 -1.69208 0
M  V30 5047 H 481.856 -4.36544 -2.4131 0
M  V30 5048 H 481.01 -3.82821 -4.70673 0
M  V30 5049 H 479.749 -2.76914 -4.01459 0
M  V30 5050 H 478.754 -4.72984 -2.80296 0
M  V30 5051 H 479.979 -5.80375 -3.52621 0
M  V30 5052 H 477.925 -4.16974 -5.06427 0
M  V30 5053 H 477.842 -5.87384 -4.75937 0
M  V30 5054 H 479.11 -5.24355 -5.76777 0
M  V30 5055 N 483.339 0.512053 -1.4905 0
M  V30 5056 C 484.588 1.26343 -1.57227 0
M  V30 5057 C 484.901 1.93876 -0.259155 0
M  V30 5058 O 486.107 2.70612 -0.219358 0
M  V30 5059 C 484.563 2.29343 -2.77362 0
M  V30 5060 C 484.171 1.67799 -4.15388 0
M  V30 5061 C 485.915 3.05378 -2.94864 0
M  V30 5062 C 483.822 2.68845 -5.2676 0
M  V30 5063 H 482.752 0.475231 -0.585382 0
M  V30 5064 H 485.403 0.53862 -1.75417 0
M  V30 5065 H 483.785 3.04938 -2.52643 0
M  V30 5066 H 484.959 0.982715 -4.50199 0
M  V30 5067 H 483.274 1.04194 -4.03153 0
M  V30 5068 H 485.871 3.80921 -3.75238 0
M  V30 5069 H 486.214 3.62327 -2.05 0
M  V30 5070 H 486.747 2.36898 -3.19569 0
M  V30 5071 H 483.486 2.16692 -6.18647 0
M  V30 5072 H 483.006 3.36647 -4.96416 0
M  V30 5073 H 484.685 3.31487 -5.5563 0
M  V30 5074 N 484.817 1.37938 0.762283 0
M  V30 5075 C 485.764 1.34467 1.87583 0
M  V30 5076 C 486.734 0.208633 1.64785 0
M  V30 5077 O 487.919 0.399494 1.86571 0
M  V30 5078 C 485.059 1.16692 3.24772 0
M  V30 5079 C 484.172 2.39608 3.59461 0
M  V30 5080 C 483.307 2.14631 4.85908 0
M  V30 5081 C 482.346 3.33364 5.13357 0
M  V30 5082 N 481.483 3.07877 6.30996 0
M  V30 5083 H 486.323 2.29669 1.89885 0
M  V30 5084 H 483.86 1.14116 0.928219 0
M  V30 5085 H 485.818 1.04405 4.03925 0
M  V30 5086 H 484.448 0.251333 3.2182 0
M  V30 5087 H 483.5 2.626 2.75219 0
M  V30 5088 H 484.812 3.28128 3.75678 0
M  V30 5089 H 483.966 1.99429 5.72986 0
M  V30 5090 H 482.705 1.23463 4.71814 0
M  V30 5091 H 481.71 3.49094 4.24751 0
M  V30 5092 H 482.935 4.25395 5.29354 0
M  V30 5093 H 480.881 2.19348 6.18241 0
M  V30 5094 H 480.798 3.89944 6.47673 0
M  V30 5095 H 482.066 2.96313 7.20985 0
M  V30 5096 N 486.295 -0.989507 1.22664 0
M  V30 5097 C 487.541 -1.7321 1.05481 0
M  V30 5098 C 487.874 -1.89852 -0.408635 0
M  V30 5099 O 487.149 -1.44416 -1.30285 0
M  V30 5100 C 487.432 -3.1357 1.77047 0
M  V30 5101 C 487.285 -3.04555 3.31008 0
M  V30 5102 C 488.604 -4.12812 1.5256 0
M  V30 5103 H 485.723 -0.628697 0.384589 0
M  V30 5104 H 488.365 -1.15258 1.51049 0
M  V30 5105 H 486.515 -3.63046 1.3831 0
M  V30 5106 H 488.187 -2.62674 3.7921 0
M  V30 5107 H 486.43 -2.41278 3.6051 0
M  V30 5108 H 487.101 -4.03894 3.76263 0
M  V30 5109 H 489.577 -3.72106 1.86215 0
M  V30 5110 H 488.453 -5.09132 2.05124 0
M  V30 5111 H 488.714 -4.39711 0.458936 0
M  V30 5112 N 487.773 -1.03688 -1.18687 0
M  V30 5113 C 489.019 -0.739123 -1.88851 0
M  V30 5114 C 489.352 0.731042 -1.79915 0
M  V30 5115 O 488.627 1.53313 -1.19688 0
M  V30 5116 C 488.91 -1.20106 -3.3948 0
M  V30 5117 C 488.763 -2.73304 -3.57246 0
M  V30 5118 C 490.082 -0.788134 -4.32986 0
M  V30 5119 H 487.201 -0.269978 -0.68577 0
M  V30 5120 H 489.843 -1.28822 -1.3966 0
M  V30 5121 H 487.993 -0.733915 -3.81505 0
M  V30 5122 H 489.665 -3.28027 -3.24339 0
M  V30 5123 H 487.908 -3.13313 -3.00029 0
M  V30 5124 H 488.579 -3.00684 -4.62918 0
M  V30 5125 H 491.055 -1.19005 -3.98719 0
M  V30 5126 H 489.931 -1.13915 -5.36949 0
M  V30 5127 H 490.192 0.308988 -4.41019 0
M  V30 5128 N 489.251 1.34841 -0.815825 0
M  V30 5129 C 490.214 2.27959 -0.238185 0
M  V30 5130 C 491.214 1.49983 0.579816 0
M  V30 5131 O 492.404 1.69617 0.396953 0
M  V30 5132 C 489.536 3.34314 0.666876 0
M  V30 5133 H 490.729 2.80558 -1.05958 0
M  V30 5134 H 488.282 1.44852 -0.587156 0
M  V30 5135 H 489.017 2.86916 1.5116 0
M  V30 5136 H 488.802 3.92014 0.0819106 0
M  V30 5137 H 490.292 4.0379 1.06506 0
M  V30 5138 N 490.729 0.570148 1.46925 0
M  V30 5139 C 492.14 0.1402 1.86173 0
M  V30 5140 C 492.491 -1.29347 1.47526 0
M  V30 5141 O 491.616 -1.97508 0.884292 0
M  V30 5142 C 492.211 0.247661 3.37894 0
M  V30 5143 C 490.77 -0.127332 3.76185 0
M  V30 5144 C 489.917 0.589349 2.70965 0
M  V30 5145 H 492.868 0.779117 1.38259 0
M  V30 5146 H 492.889 -0.530341 3.76786 0
M  V30 5147 H 492.401 1.29121 3.65991 0
M  V30 5148 H 490.502 -1.17149 3.53704 0
M  V30 5149 H 490.615 0.240238 4.78497 0
M  V30 5150 H 488.979 0.0309824 2.54681 0
M  V30 5151 H 489.762 1.6343 3.01903 0
M  V30 5152 N 492.207 -1.54576 0.307264 0
M  V30 5153 C 493.618 -1.8579 -0.184121 0
M  V30 5154 C 493.969 -1.22914 -1.52927 0
M  V30 5155 O 493.094 -0.529126 -2.09831 0
M  V30 5156 C 493.689 -3.37081 -0.340862 0
M  V30 5157 C 492.248 -3.68304 -0.776465 0
M  V30 5158 C 491.395 -2.77076 0.111503 0
M  V30 5159 H 494.346 -1.49656 0.528078 0
M  V30 5160 H 494.367 -3.61922 -1.17443 0
M  V30 5161 H 493.879 -3.82815 0.638309 0
M  V30 5162 H 491.98 -3.28092 -1.76596 0
M  V30 5163 H 492.093 -4.75434 -0.591512 0
M  V30 5164 H 490.457 -2.51374 -0.410256 0
M  V30 5165 H 491.24 -3.25632 1.08714 0
M  V30 5166 N 493.685 -0.035106 -1.57561 0
M  V30 5167 C 494.595 0.960295 -2.14046 0
M  V30 5168 C 495.611 1.3529 -1.0942 0
M  V30 5169 O 496.787 1.43309 -1.41508 0
M  V30 5170 C 493.852 2.22214 -2.66124 0
M  V30 5171 C 492.913 1.8894 -3.85487 0
M  V30 5172 C 492.146 3.09109 -4.35072 0
M  V30 5173 O 492.369 4.21963 -3.83802 0
M  V30 5174 O 491.303 2.91058 -5.26848 0
M  V30 5175 H 495.129 0.509983 -2.99387 0
M  V30 5176 H 492.714 0.185853 -1.48239 0
M  V30 5177 H 494.596 2.96279 -2.99661 0
M  V30 5178 H 493.271 2.66414 -1.83862 0
M  V30 5179 H 492.178 1.12241 -3.56865 0
M  V30 5180 H 493.511 1.49551 -4.6893 0
M  V30 5181 N 495.163 1.55791 0.238111 0
M  V30 5182 C 496.579 1.48411 0.587045 0
M  V30 5183 C 496.779 0.72702 1.87927 0
M  V30 5184 O 495.835 0.259942 2.51158 0
M  V30 5185 C 497.148 2.92873 0.681623 0
M  V30 5186 C 498.696 3.03295 0.773363 0
M  V30 5187 C 499.171 4.49082 0.899428 0
M  V30 5188 N 500.662 4.53056 0.964075 0
M  V30 5189 C 501.397 5.63117 1.08104 0
M  V30 5190 N 500.893 6.82969 1.16299 0
M  V30 5191 N 502.686 5.50933 1.11488 0
M  V30 5192 H 494.837 2.0345 -0.610076 0
M  V30 5193 H 497.1 0.924034 -0.211813 0
M  V30 5194 H 496.806 3.51142 -0.19802 0
M  V30 5195 H 496.68 3.43851 1.55069 0
M  V30 5196 H 499.067 2.45101 1.64346 0
M  V30 5197 H 499.148 2.55513 -0.121034 0
M  V30 5198 H 498.792 5.07889 0.0338586 0
M  V30 5199 H 498.722 4.94553 1.809 0
M  V30 5200 H 501.213 3.66737 0.91173 0
M  V30 5201 H 501.526 7.62598 1.25155 0
M  V30 5202 H 499.871 6.85712 1.13241 0
M  V30 5203 H 503.062 4.56231 1.0474 0
M  V30 5204 H 503.235 6.36743 1.20259 0
M  V30 5205 N 496.642 -0.504142 1.49319 0
M  V30 5206 C 497.589 -1.60603 1.65756 0
M  V30 5207 C 498.559 -1.58425 0.499082 0
M  V30 5208 O 499.744 -1.76459 0.725728 0
M  V30 5209 C 496.884 -2.98764 1.72726 0
M  V30 5210 C 495.997 -3.10982 2.99857 0
M  V30 5211 C 495.132 -4.39857 2.97824 0
M  V30 5212 C 494.171 -4.45697 4.19548 0
M  V30 5213 N 493.308 -5.65995 4.15444 0
M  V30 5214 H 498.148 -1.45895 2.59843 0
M  V30 5215 H 495.685 -0.709891 1.28837 0
M  V30 5216 H 497.643 -3.78839 1.74747 0
M  V30 5217 H 496.273 -3.12183 0.821075 0
M  V30 5218 H 495.325 -2.23991 3.07461 0
M  V30 5219 H 496.637 -3.11157 3.89849 0
M  V30 5220 H 495.791 -5.2825 2.98391 0
M  V30 5221 H 494.53 -4.42242 2.05604 0
M  V30 5222 H 493.535 -3.55707 4.19229 0
M  V30 5223 H 494.76 -4.4503 5.12957 0
M  V30 5224 H 492.706 -5.69229 3.26059 0
M  V30 5225 H 492.623 -5.67773 4.99169 0
M  V30 5226 H 493.891 -6.56604 4.20109 0
M  V30 5227 N 498.12 -1.38341 -0.754957 0
M  V30 5228 C 499.35 -1.37504 -1.54195 0
M  V30 5229 C 499.758 0.0373787 -1.89163 0
M  V30 5230 O 499.101 1.01402 -1.53178 0
M  V30 5231 C 499.163 -2.16488 -2.87008 0
M  V30 5232 C 498.827 -3.65311 -2.74585 0
M  V30 5233 C 499.824 -4.58834 -2.44474 0
M  V30 5234 C 497.509 -4.08649 -2.9208 0
M  V30 5235 C 499.503 -5.93675 -2.32011 0
M  V30 5236 C 497.19 -5.43571 -2.79237 0
M  V30 5237 C 498.188 -6.35898 -2.49245 0
M  V30 5238 O 497.876 -7.68338 -2.36458 0
M  V30 5239 H 497.608 -0.472159 -0.483779 0
M  V30 5240 H 500.162 -1.82515 -0.94221 0
M  V30 5241 H 498.392 -1.66194 -3.49166 0
M  V30 5242 H 500.081 -2.08076 -3.4851 0
M  V30 5243 H 500.847 -4.26657 -2.30627 0
M  V30 5244 H 496.726 -3.37134 -3.14422 0
M  V30 5245 H 500.27 -6.65706 -2.08522 0
M  V30 5246 H 496.167 -5.75345 -2.92657 0
M  V30 5247 H 496.935 -7.78845 -2.5168 0
M  V30 5248 N 499.598 0.982988 -1.23187 0
M  V30 5249 C 500.823 1.76455 -1.08988 0
M  V30 5250 C 501.248 1.84726 0.354691 0
M  V30 5251 O 500.606 1.30699 1.25649 0
M  V30 5252 C 500.654 3.17094 -1.71708 0
M  V30 5253 O 499.758 4.00648 -0.977477 0
M  V30 5254 H 499.099 0.542988 -0.382177 0
M  V30 5255 H 501.629 1.23413 -1.63188 0
M  V30 5256 H 501.639 3.67684 -1.76841 0
M  V30 5257 H 500.314 3.10389 -2.76823 0
M  V30 5258 H 498.891 3.59161 -1.0029 0
M  V30 5259 N 501.076 1.04316 1.18135 0
M  V30 5260 C 502.322 0.749128 1.88457 0
M  V30 5261 C 502.655 -0.72149 1.803 0
M  V30 5262 O 501.93 -1.52676 1.205 0
M  V30 5263 C 502.213 1.21905 3.38838 0
M  V30 5264 C 502.066 2.75195 3.55792 0
M  V30 5265 C 503.385 0.811085 4.32561 0
M  V30 5266 H 500.504 0.273611 0.684329 0
M  V30 5267 H 503.146 1.29561 1.38975 0
M  V30 5268 H 501.296 0.754137 3.8111 0
M  V30 5269 H 502.968 3.29743 3.22595 0
M  V30 5270 H 501.211 3.14899 2.98364 0
M  V30 5271 H 501.882 3.03135 4.61317 0
M  V30 5272 H 504.358 1.21118 3.98082 0
M  V30 5273 H 503.234 1.16761 5.36338 0
M  V30 5274 H 503.495 -0.285596 4.41177 0
M  V30 5275 N 502.554 -1.34406 0.822964 0
M  V30 5276 C 503.8 -1.98999 0.420847 0
M  V30 5277 C 504.155 -1.64067 -1.00498 0
M  V30 5278 O 503.448 -0.902071 -1.69036 0
M  V30 5279 C 503.642 -3.52981 0.560268 0
M  V30 5280 C 503.471 -4.02873 1.99809 0
M  V30 5281 C 502.241 -4.31463 2.62998 0
M  V30 5282 C 504.439 -4.20241 2.96483 0
M  V30 5283 N 502.421 -4.6739 3.9802 0
M  V30 5284 C 503.792 -4.59348 4.16413 0
M  V30 5285 C 505.847 -4.02489 2.93098 0
M  V30 5286 C 504.55 -4.82559 5.33413 0
M  V30 5287 C 506.576 -4.26866 4.09315 0
M  V30 5288 C 505.938 -4.6626 5.27997 0
M  V30 5289 H 502.037 -0.755432 0.202104 0
M  V30 5290 H 504.621 -1.62815 1.06767 0
M  V30 5291 H 502.792 -3.88359 -0.0566596 0
M  V30 5292 H 504.524 -4.04487 0.131146 0
M  V30 5293 H 501.279 -4.22373 2.14238 0
M  V30 5294 H 501.703 -4.89588 4.67582 0
M  V30 5295 H 506.345 -3.71161 2.02483 0
M  V30 5296 H 504.063 -5.12754 6.24587 0
M  V30 5297 H 507.649 -4.14667 4.08096 0
M  V30 5298 H 506.529 -4.84752 6.16429 0
M  V30 5299 N 504.032 -0.577932 -1.46621 0
M  V30 5300 C 505.281 -0.0594281 -2.01612 0
M  V30 5301 C 505.594 1.30663 -1.45556 0
M  V30 5302 O 506.8 1.91621 -1.92337 0
M  V30 5303 C 505.256 -0.0556666 -3.59857 0
M  V30 5304 C 504.864 -1.41975 -4.24908 0
M  V30 5305 C 506.608 0.409143 -4.22524 0
M  V30 5306 C 504.515 -1.37397 -5.75218 0
M  V30 5307 H 503.445 -0.0184469 -0.753774 0
M  V30 5308 H 506.096 -0.728869 -1.68404 0
M  V30 5309 H 504.478 0.679843 -3.90121 0
M  V30 5310 H 505.652 -2.17461 -4.0626 0
M  V30 5311 H 503.967 -1.82419 -3.74316 0
M  V30 5312 H 506.564 0.46211 -5.32699 0
M  V30 5313 H 506.907 1.42565 -3.91128 0
M  V30 5314 H 507.44 -0.272152 -3.96868 0
M  V30 5315 H 504.179 -2.36714 -6.11267 0
M  V30 5316 H 503.699 -0.661239 -5.96144 0
M  V30 5317 H 505.378 -1.08484 -6.3784 0
M  V30 5318 N 505.51 1.54411 -0.315457 0
M  V30 5319 C 506.758 2.00023 0.288971 0
M  V30 5320 C 507.079 1.20529 1.5329 0
M  V30 5321 O 506.349 0.304986 1.93511 0
M  V30 5322 H 504.929 0.738891 0.109766 0
M  V30 5323 H 507.591 1.90094 -0.430129 0
M  V30 5324 H 506.687 3.07198 0.550999 0
M  V30 5325 N 506.988 0.0434614 1.5754 0
M  V30 5326 C 508.236 -0.630786 1.92004 0
M  V30 5327 C 508.557 -1.71836 0.921807 0
M  V30 5328 O 507.827 -1.9587 -0.034522 0
M  V30 5329 H 506.407 -0.235988 0.708745 0
M  V30 5330 H 509.069 0.0946462 1.9467 0
M  V30 5331 H 508.165 -1.07434 2.93026 0
M  V30 5332 N 508.466 -1.55915 -0.229846 0
M  V30 5333 C 509.691 -1.8296 -0.976743 0
M  V30 5334 C 510.116 -0.622735 -1.77493 0
M  V30 5335 O 509.474 0.428431 -1.76165 0
M  V30 5336 C 509.522 -3.07916 -1.8767 0
M  V30 5337 O 508.626 -2.86028 -2.97088 0
M  V30 5338 H 507.967 -0.603453 -0.277021 0
M  V30 5339 H 510.497 -2.0312 -0.245669 0
M  V30 5340 H 510.507 -3.37802 -2.2881 0
M  V30 5341 H 509.182 -3.95389 -1.28996 0
M  V30 5342 H 507.759 -2.67355 -2.59954 0
M  V30 5343 N 509.944 0.496216 -1.49584 0
M  V30 5344 C 511.193 1.24668 -1.58558 0
M  V30 5345 C 511.506 1.9359 -0.279703 0
M  V30 5346 O 512.712 2.70365 -0.248048 0
M  V30 5347 C 511.168 2.26388 -2.79779 0
M  V30 5348 C 510.776 1.63384 -4.17145 0
M  V30 5349 C 512.52 3.02233 -2.98086 0
M  V30 5350 C 510.427 2.63243 -5.29582 0
M  V30 5351 H 509.357 0.468995 -0.590389 0
M  V30 5352 H 512.008 0.519985 -1.75978 0
M  V30 5353 H 510.39 3.02241 -2.55863 0
M  V30 5354 H 511.564 0.93491 -4.51216 0
M  V30 5355 H 509.879 0.999121 -4.04236 0
M  V30 5356 H 512.476 3.76919 -3.79257 0
M  V30 5357 H 512.819 3.60132 -2.08831 0
M  V30 5358 H 513.352 2.33495 -3.22063 0
M  V30 5359 H 510.091 2.10119 -6.20911 0
M  V30 5360 H 509.611 3.31363 -4.99959 0
M  V30 5361 H 511.29 3.25575 -5.59115 0
M  V30 5362 N 511.423 1.38739 0.74761 0
M  V30 5363 C 512.353 1.39173 1.87492 0
M  V30 5364 C 513.334 0.256794 1.6815 0
M  V30 5365 O 514.519 0.460762 1.88655 0
M  V30 5366 C 511.649 1.22197 3.25093 0
M  V30 5367 C 510.603 2.32957 3.59047 0
M  V30 5368 C 509.929 2.01082 4.95449 0
M  V30 5369 C 511.229 3.75237 3.6331 0
M  V30 5370 H 512.923 2.3351 1.87386 0
M  V30 5371 H 510.469 1.12399 0.900134 0
M  V30 5372 H 512.422 1.21124 4.03617 0
M  V30 5373 H 511.146 0.243241 3.25693 0
M  V30 5374 H 509.805 2.33226 2.82845 0
M  V30 5375 H 509.453 1.01678 4.92616 0
M  V30 5376 H 509.153 2.75267 5.19136 0
M  V30 5377 H 510.677 2.01638 5.76346 0
M  V30 5378 H 512.091 3.76966 4.31937 0
M  V30 5379 H 510.488 4.48677 3.98509 0
M  V30 5380 H 511.558 4.07122 2.634 0
M  V30 5381 N 512.901 -0.976442 1.23707 0
M  V30 5382 C 514.126 -1.75875 1.09922 0
M  V30 5383 C 514.551 -1.84911 -0.34489 0
M  V30 5384 O 513.909 -1.31363 -1.24954 0
M  V30 5385 C 513.957 -3.16179 1.73388 0
M  V30 5386 O 513.061 -4.00124 0.99871 0
M  V30 5387 H 512.402 -0.540954 0.385052 0
M  V30 5388 H 514.932 -1.22546 1.6384 0
M  V30 5389 H 514.942 -3.66741 1.78788 0
M  V30 5390 H 513.617 -3.08917 2.78466 0
M  V30 5391 H 512.194 -3.58624 1.02193 0
M  V30 5392 N 514.379 -1.04941 -1.1758 0
M  V30 5393 C 515.604 -0.778253 -1.92245 0
M  V30 5394 C 516.029 0.659707 -1.76152 0
M  V30 5395 O 515.387 1.45803 -1.07755 0
M  V30 5396 C 515.435 -1.16051 -3.41416 0
M  V30 5397 O 514.539 -0.291153 -4.11371 0
M  V30 5398 H 513.88 -0.285619 -0.599431 0
M  V30 5399 H 516.41 -1.40159 -1.49052 0
M  V30 5400 H 516.42 -1.12619 -3.92149 0
M  V30 5401 H 515.095 -2.208 -3.52449 0
M  V30 5402 H 513.672 -0.385851 -3.70898 0
M  V30 5403 N 515.857 1.33968 -0.830081 0
M  V30 5404 C 516.787 2.31911 -0.271911 0
M  V30 5405 C 517.768 1.58571 0.61556 0
M  V30 5406 O 518.953 1.86514 0.540946 0
M  V30 5407 C 516.083 3.42737 0.561146 0
M  V30 5408 C 515.037 4.27383 -0.229789 0
M  V30 5409 C 514.363 5.29742 0.726463 0
M  V30 5410 C 515.663 5.02 -1.44197 0
M  V30 5411 H 517.357 2.78844 -1.09025 0
M  V30 5412 H 514.903 1.34061 -0.52571 0
M  V30 5413 H 516.856 4.10276 0.961867 0
M  V30 5414 H 515.58 2.94471 1.41261 0
M  V30 5415 H 514.239 3.61456 -0.611964 0
M  V30 5416 H 513.887 4.77736 1.57408 0
M  V30 5417 H 513.587 5.87255 0.20142 0
M  V30 5418 H 515.111 6.00149 1.12489 0
M  V30 5419 H 516.525 5.62355 -1.11488 0
M  V30 5420 H 514.922 5.69122 -1.90317 0
M  V30 5421 H 515.992 4.31281 -2.2164 0
M  V30 5422 N 517.335 0.585699 1.46312 0
M  V30 5423 C 518.56 0.0762461 2.0726 0
M  V30 5424 C 518.985 -1.22071 1.43109 0
M  V30 5425 O 518.343 -1.73804 0.515942 0
M  V30 5426 C 518.391 -0.0729404 3.60526 0
M  V30 5427 O 517.495 -1.1287 3.96654 0
M  V30 5428 H 516.836 0.0641558 0.660893 0
M  V30 5429 H 519.366 0.809492 1.87905 0
M  V30 5430 H 519.376 -0.278158 4.07051 0
M  V30 5431 H 518.051 0.874188 4.06609 0
M  V30 5432 H 516.628 -0.901703 3.61834 0
M  V30 5433 N 518.813 -1.54241 0.323641 0
M  V30 5434 C 520.041 -2.04985 -0.280871 0
M  V30 5435 C 520.456 -1.19978 -1.45777 0
M  V30 5436 O 519.813 -0.230471 -1.81039 0
M  V30 5437 C 519.864 -3.54353 -0.715258 0
M  V30 5438 O 519.585 -4.36132 0.414817 0
M  V30 5439 C 521.086 -4.21189 -1.38257 0
M  V30 5440 H 518.306 -0.66851 -0.0577502 0
M  V30 5441 H 520.85 -1.99029 0.469852 0
M  V30 5442 H 519.005 -3.60596 -1.41596 0
M  V30 5443 H 519.419 -5.2445 0.0725227 0
M  V30 5444 H 520.893 -5.27154 -1.63745 0
M  V30 5445 H 521.37 -3.72307 -2.32989 0
M  V30 5446 H 521.976 -4.19085 -0.724447 0
M  V30 5447 N 520.291 -0.0518155 -1.57515 0
M  V30 5448 C 521.538 0.621823 -1.92716 0
M  V30 5449 C 521.866 1.70813 -0.930229 0
M  V30 5450 O 521.121 1.95616 0.0573708 0
M  V30 5451 C 521.42 1.25607 -3.34601 0
M  V30 5452 C 521.086 0.297901 -4.49915 0
M  V30 5453 C 519.748 0.034243 -4.81188 0
M  V30 5454 C 522.1 -0.358738 -5.19964 0
M  V30 5455 C 519.428 -0.893479 -5.79857 0
M  V30 5456 C 521.78 -1.27466 -6.19625 0
M  V30 5457 C 520.444 -1.54698 -6.49326 0
M  V30 5458 H 519.714 0.227541 -0.705199 0
M  V30 5459 H 522.361 -0.118432 -1.91133 0
M  V30 5460 H 520.666 2.07161 -3.32553 0
M  V30 5461 H 522.363 1.78424 -3.59118 0
M  V30 5462 H 518.953 0.513581 -4.25512 0
M  V30 5463 H 523.137 -0.168133 -4.96015 0
M  V30 5464 H 518.393 -1.11193 -6.01204 0
M  V30 5465 H 522.567 -1.78953 -6.73015 0
M  V30 5466 H 520.194 -2.26748 -7.25596 0
M  V30 5467 N 521.769 1.56035 0.221574 0
M  V30 5468 C 522.701 1.889 1.29805 0
M  V30 5469 C 523.714 0.777269 1.43047 0
M  V30 5470 O 524.903 1.05557 1.43945 0
M  V30 5471 C 522.003 2.0825 2.67367 0
M  V30 5472 C 521.176 3.39267 2.76073 0
M  V30 5473 C 520.235 3.48049 3.94649 0
M  V30 5474 O 519.261 4.2108 3.82988 0
M  V30 5475 N 520.463 2.79191 5.08953 0
M  V30 5476 H 523.228 2.81831 1.01938 0
M  V30 5477 H 520.789 1.5658 0.411612 0
M  V30 5478 H 522.781 2.11441 3.45072 0
M  V30 5479 H 521.351 1.21944 2.87834 0
M  V30 5480 H 520.571 3.48175 1.84846 0
M  V30 5481 H 521.859 4.25575 2.7886 0
M  V30 5482 H 521.257 2.19635 5.21322 0
M  V30 5483 H 519.814 2.88043 5.84701 0
M  V30 5484 N 523.247 -0.488276 1.49845 0
M  V30 5485 C 524.179 -1.60539 1.63584 0
M  V30 5486 C 525.192 -1.5434 0.517972 0
M  V30 5487 O 526.381 -1.60041 0.790516 0
M  V30 5488 C 523.481 -2.99374 1.58835 0
M  V30 5489 C 522.654 -3.30624 2.86368 0
M  V30 5490 C 521.713 -4.4893 2.74496 0
M  V30 5491 O 520.739 -4.50085 3.48443 0
M  V30 5492 N 521.941 -5.49591 1.86894 0
M  V30 5493 H 524.706 -1.49176 2.59936 0
M  V30 5494 H 522.267 -0.67639 1.47094 0
M  V30 5495 H 524.259 -3.76459 1.48529 0
M  V30 5496 H 522.829 -3.04595 0.702892 0
M  V30 5497 H 522.049 -2.42314 3.1093 0
M  V30 5498 H 523.337 -3.48305 3.70892 0
M  V30 5499 H 522.735 -5.51467 1.26097 0
M  V30 5500 H 521.292 -6.25728 1.82503 0
M  V30 5501 N 524.725 -1.39134 -0.740242 0
M  V30 5502 C 525.658 -1.3182 -1.86276 0
M  V30 5503 C 526.636 -0.192794 -1.61453 0
M  V30 5504 O 527.82 -0.372365 -1.84786 0
M  V30 5505 C 524.947 -1.04564 -3.22155 0
M  V30 5506 C 523.993 -2.19224 -3.65846 0
M  V30 5507 S 524.826 -3.81466 -3.75824 0
M  V30 5508 C 525.982 -3.56425 -5.14502 0
M  V30 5509 H 526.215 -2.26822 -1.92195 0
M  V30 5510 H 523.748 -1.25127 -0.904576 0
M  V30 5511 H 525.706 -0.895228 -4.00619 0
M  V30 5512 H 524.367 -0.112578 -3.13898 0
M  V30 5513 H 523.56 -1.95732 -4.6444 0
M  V30 5514 H 523.162 -2.30441 -2.94572 0
M  V30 5515 H 525.454 -3.13366 -6.00673 0
M  V30 5516 H 526.397 -4.54462 -5.43019 0
M  V30 5517 H 526.805 -2.90641 -4.8393 0
M  V30 5518 N 526.204 0.969867 -1.24223 0
M  V30 5519 C 527.45 1.71582 -1.09231 0
M  V30 5520 C 527.805 1.88898 0.365432 0
M  V30 5521 O 527.098 1.43781 1.2664 0
M  V30 5522 C 527.292 3.10883 -1.76314 0
M  V30 5523 C 527.121 3.07155 -3.2846 0
M  V30 5524 C 525.891 3.11757 -3.97663 0
M  V30 5525 C 528.089 2.895 -4.25082 0
M  V30 5526 N 526.071 2.98025 -5.36707 0
M  V30 5527 C 527.442 2.84041 -5.51109 0
M  V30 5528 C 529.497 2.74064 -4.15684 0
M  V30 5529 C 528.2 2.64725 -6.68815 0
M  V30 5530 C 530.226 2.56115 -5.33066 0
M  V30 5531 C 529.588 2.51363 -6.58024 0
M  V30 5532 H 525.687 0.636496 -0.454309 0
M  V30 5533 H 528.271 1.15004 -1.57106 0
M  V30 5534 H 526.442 3.65657 -1.30955 0
M  V30 5535 H 528.174 3.74171 -1.54201 0
M  V30 5536 H 524.929 3.20352 -3.48814 0
M  V30 5537 H 525.353 2.94405 -6.09635 0
M  V30 5538 H 529.995 2.76521 -3.19837 0
M  V30 5539 H 527.713 2.61011 -7.64787 0
M  V30 5540 H 531.299 2.45119 -5.27644 0
M  V30 5541 H 530.179 2.37651 -7.47323 0
M  V30 5542 N 527.682 1.05563 1.17022 0
M  V30 5543 C 528.931 0.763036 1.8671 0
M  V30 5544 C 529.244 -0.712857 1.82147 0
M  V30 5545 O 530.45 -1.11955 2.47343 0
M  V30 5546 C 528.906 1.31474 3.35026 0
M  V30 5547 C 528.514 2.82034 3.48081 0
M  V30 5548 C 530.258 1.09935 4.10018 0
M  V30 5549 C 528.165 3.30486 4.90442 0
M  V30 5550 H 527.095 0.281747 0.699382 0
M  V30 5551 H 529.746 1.2734 1.32124 0
M  V30 5552 H 528.128 0.732171 3.89173 0
M  V30 5553 H 529.302 3.46178 3.04133 0
M  V30 5554 H 527.617 3.02156 2.86515 0
M  V30 5555 H 530.214 1.43632 5.15048 0
M  V30 5556 H 530.557 0.0373072 4.16283 0
M  V30 5557 H 531.09 1.64732 3.62089 0
M  V30 5558 H 527.829 4.36137 4.89352 0
M  V30 5559 H 527.349 2.71086 5.35044 0
M  V30 5560 H 529.028 3.25382 5.59227 0
M  V30 5561 N 529.16 -1.33526 0.837174 0
M  V30 5562 C 530.388 -2.02047 0.445494 0
M  V30 5563 C 530.803 -1.62995 -0.952788 0
M  V30 5564 O 530.16 -0.842447 -1.61892 0
M  V30 5565 C 530.211 -3.57221 0.554577 0
M  V30 5566 O 529.932 -3.94863 1.89776 0
M  V30 5567 C 531.433 -4.43012 0.159634 0
M  V30 5568 H 528.653 -0.647221 0.177048 0
M  V30 5569 H 531.197 -1.70492 1.12928 0
M  V30 5570 H 529.352 -3.87315 -0.0812781 0
M  V30 5571 H 529.766 -4.89569 1.88208 0
M  V30 5572 H 531.24 -5.51253 0.28701 0
M  V30 5573 H 531.717 -4.29916 -0.898289 0
M  V30 5574 H 532.323 -4.18274 0.769855 0
M  V30 5575 N 530.638 -0.59345 -1.46 0
M  V30 5576 C 531.585 0.133618 -2.30413 0
M  V30 5577 C 532.555 0.873736 -1.41262 0
M  V30 5578 O 533.74 0.862279 -1.70204 0
M  V30 5579 C 530.88 1.13434 -3.25924 0
M  V30 5580 C 529.993 0.39656 -4.30176 0
M  V30 5581 C 529.128 1.38575 -5.12806 0
M  V30 5582 C 528.167 0.634984 -6.08797 0
M  V30 5583 N 527.304 1.57276 -6.84258 0
M  V30 5584 H 532.144 -0.592252 -2.92055 0
M  V30 5585 H 529.681 -0.303874 -1.43927 0
M  V30 5586 H 531.639 1.72752 -3.79753 0
M  V30 5587 H 530.269 1.82779 -2.66067 0
M  V30 5588 H 529.321 -0.311861 -3.79119 0
M  V30 5589 H 530.633 -0.189869 -4.98438 0
M  V30 5590 H 529.787 2.05141 -5.70966 0
M  V30 5591 H 528.526 2.00611 -4.44529 0
M  V30 5592 H 527.531 -0.0443925 -5.49782 0
M  V30 5593 H 528.756 0.0198678 -6.79097 0
M  V30 5594 H 526.702 2.18103 -6.18682 0
M  V30 5595 H 526.619 1.03941 -7.48821 0
M  V30 5596 H 527.887 2.22844 -7.46968 0
M  V30 5597 N 532.116 1.54067 -0.331816 0
M  V30 5598 C 533.026 2.28322 0.539104 0
M  V30 5599 C 534.042 1.32985 1.1221 0
M  V30 5600 O 535.218 1.6601 1.1403 0
M  V30 5601 C 532.283 3.03277 1.68 0
M  V30 5602 C 531.344 4.14216 1.12798 0
M  V30 5603 C 530.577 4.85588 2.2145 0
M  V30 5604 O 530.8 4.56536 3.41952 0
M  V30 5605 O 529.734 5.72309 1.86404 0
M  V30 5606 H 533.56 3.03632 -0.0641692 0
M  V30 5607 H 531.145 1.49083 -0.0972365 0
M  V30 5608 H 533.027 3.50189 2.34405 0
M  V30 5609 H 531.702 2.30834 2.2693 0
M  V30 5610 H 530.609 3.71635 0.428782 0
M  V30 5611 H 531.942 4.88727 0.583698 0
M  V30 5612 N 533.594 0.0601682 1.57485 0
M  V30 5613 C 534.504 -0.926121 2.15546 0
M  V30 5614 C 535.52 -1.33532 1.11558 0
M  V30 5615 O 536.696 -1.4104 1.4377 0
M  V30 5616 C 533.761 -2.17952 2.69625 0
M  V30 5617 C 532.822 -1.82783 3.88444 0
M  V30 5618 C 532.055 -3.02148 4.39935 0
M  V30 5619 O 532.278 -4.15803 3.90466 0
M  V30 5620 O 531.212 -2.82639 5.31412 0
M  V30 5621 H 535.038 -0.462289 3.00161 0
M  V30 5622 H 532.623 -0.162246 1.48516 0
M  V30 5623 H 534.505 -2.91474 3.04337 0
M  V30 5624 H 533.18 -2.63456 1.88077 0
M  V30 5625 H 532.087 -1.06549 3.58606 0
M  V30 5626 H 533.42 -1.42072 4.7125 0
M  V30 5627 N 535.072 -1.5615 -0.213296 0
M  V30 5628 C 536.302 -1.83372 -0.951757 0
M  V30 5629 C 536.71 -0.638158 -1.78113 0
M  V30 5630 O 536.053 0.402609 -1.79234 0
M  V30 5631 C 536.115 -3.04444 -1.91192 0
M  V30 5632 C 535.779 -4.39107 -1.26627 0
M  V30 5633 C 536.776 -5.15794 -0.652087 0
M  V30 5634 C 534.461 -4.85834 -1.27556 0
M  V30 5635 C 536.455 -6.37376 -0.055814 0
M  V30 5636 C 534.142 -6.07356 -0.675451 0
M  V30 5637 C 535.14 -6.82967 -0.0666367 0
M  V30 5638 O 534.828 -8.0219 0.524119 0
M  V30 5639 H 534.56 -0.613398 -0.284111 0
M  V30 5640 H 537.114 -2.04096 -0.231112 0
M  V30 5641 H 535.344 -2.79559 -2.67178 0
M  V30 5642 H 537.033 -3.18466 -2.51662 0
M  V30 5643 H 537.799 -4.80796 -0.637172 0
M  V30 5644 H 533.678 -4.26949 -1.73883 0
M  V30 5645 H 537.222 -6.96334 0.420004 0
M  V30 5646 H 533.119 -6.41825 -0.687806 0
M  V30 5647 H 533.887 -8.17426 0.419243 0
M  V30 5648 N 536.55 0.480323 -1.50102 0
M  V30 5649 C 537.827 1.24159 -1.51142 0
M  V30 5650 C 538.207 2.09605 -0.250818 0
M  V30 5651 O 537.555 2.15274 0.766118 0
M  V30 5652 C 537.765 2.08057 -2.80202 0
M  V30 5653 C 539.113 2.66556 -3.30504 0
M  V30 5654 O 540.137 2.18308 -2.81461 0
M  V30 5655 O 538.996 3.54442 -4.15973 0
M  V30 5656 H 536.09 0.562928 -0.605839 0
M  V30 5657 H 538.636 0.492899 -1.62384 0
M  V30 5658 H 537.408 1.45032 -3.6343 0
M  V30 5659 H 537.031 2.90079 -2.71919 0
M  V30 5660 N 538.028 1.39524 0.732853 0
M  V30 5661 C 538.938 1.40695 1.87729 0
M  V30 5662 C 539.954 0.301496 1.71368 0
M  V30 5663 O 541.13 0.543313 1.93933 0
M  V30 5664 C 538.195 1.25098 3.23344 0
M  V30 5665 C 537.256 2.45634 3.52083 0
M  V30 5666 C 536.489 2.30772 4.81228 0
M  V30 5667 O 536.712 1.31233 5.55098 0
M  V30 5668 O 535.646 3.19799 5.09914 0
M  V30 5669 H 539.472 2.37168 1.89697 0
M  V30 5670 H 537.057 1.20663 0.880959 0
M  V30 5671 H 538.939 1.18541 4.04383 0
M  V30 5672 H 537.614 0.317209 3.22142 0
M  V30 5673 H 536.521 2.57767 2.71122 0
M  V30 5674 H 537.854 3.37712 3.58066 0
M  V30 5675 N 539.506 -0.963266 1.24736 0
M  V30 5676 C 540.731 -1.74699 1.11781 0
M  V30 5677 C 541.156 -1.85267 -0.325258 0
M  V30 5678 O 540.514 -1.32681 -1.23553 0
M  V30 5679 C 540.562 -3.14322 1.76731 0
M  V30 5680 O 539.666 -3.99043 1.04109 0
M  V30 5681 H 539.007 -0.53684 0.390767 0
M  V30 5682 H 541.537 -1.20801 1.65131 0
M  V30 5683 H 541.547 -3.64824 1.82668 0
M  V30 5684 H 540.222 -3.05946 2.81726 0
M  V30 5685 H 538.799 -3.5752 1.05991 0
M  V30 5686 N 540.985 -1.06182 -1.16461 0
M  V30 5687 C 542.233 -0.776326 -1.86595 0
M  V30 5688 C 542.554 0.69921 -1.82033 0
M  V30 5689 O 541.824 1.50579 -1.2531 0
M  V30 5690 H 540.404 -0.284184 -0.690832 0
M  V30 5691 H 543.066 -1.34308 -1.41235 0
M  V30 5692 H 542.162 -1.10022 -2.92064 0
M  V30 5693 N 542.463 1.3308 -0.844243 0
M  V30 5694 C 543.874 1.7992 -0.498566 0
M  V30 5695 C 544.225 1.69808 0.982834 0
M  V30 5696 O 543.35 1.25051 1.7661 0
M  V30 5697 C 543.945 3.26677 -0.898204 0
M  V30 5698 C 542.504 3.71513 -0.604583 0
M  V30 5699 C 541.651 2.54393 -1.10362 0
M  V30 5700 H 544.602 1.20526 -1.03244 0
M  V30 5701 H 544.623 3.79918 -0.21039 0
M  V30 5702 H 544.135 3.34004 -1.97643 0
M  V30 5703 H 542.236 3.69708 0.46335 0
M  V30 5704 H 542.349 4.64755 -1.16358 0
M  V30 5705 H 540.713 2.49246 -0.524273 0
M  V30 5706 H 541.496 2.6448 -2.18873 0
M  V30 5707 N 543.941 0.601185 1.45683 0
M  V30 5708 C 545.166 0.0982245 2.07167 0
M  V30 5709 C 545.591 -1.20546 1.44396 0
M  V30 5710 O 544.949 -1.73247 0.534347 0
M  V30 5711 C 544.997 -0.0346976 3.60583 0
M  V30 5712 O 544.101 -1.08657 3.97828 0
M  V30 5713 H 543.442 0.0711618 0.660176 0
M  V30 5714 H 545.972 0.829376 1.87036 0
M  V30 5715 H 545.982 -0.234969 4.07323 0
M  V30 5716 H 544.657 0.917265 4.05659 0
M  V30 5717 H 543.234 -0.863275 3.6277 0
M  V30 5718 N 545.419 -1.53889 0.339982 0
M  V30 5719 C 546.668 -2.00035 -0.258604 0
M  V30 5720 C 546.981 -1.23179 -1.51942 0
M  V30 5721 O 548.187 -1.59784 -2.19503 0
M  V30 5722 C 546.643 -3.56249 -0.511359 0
M  V30 5723 C 546.251 -4.41957 0.733349 0
M  V30 5724 C 547.995 -4.1082 -1.069 0
M  V30 5725 C 545.902 -5.89673 0.451591 0
M  V30 5726 H 544.832 -0.747284 -0.10041 0
M  V30 5727 H 547.483 -1.77776 0.454758 0
M  V30 5728 H 545.865 -3.7456 -1.28533 0
M  V30 5729 H 547.039 -4.35421 1.50815 0
M  V30 5730 H 545.354 -3.9836 1.21237 0
M  V30 5731 H 547.951 -5.18789 -1.2947 0
M  V30 5732 H 548.294 -3.63817 -2.02343 0
M  V30 5733 H 548.827 -3.96205 -0.355817 0
M  V30 5734 H 545.566 -6.40903 1.37565 0
M  V30 5735 H 545.086 -5.99122 -0.285193 0
M  V30 5736 H 546.765 -6.46965 0.0675067 0
M  V30 5737 N 546.897 -0.0685191 -1.57451 0
M  V30 5738 C 548.143 0.602239 -1.93652 0
M  V30 5739 C 548.476 1.6946 -0.948526 0
M  V30 5740 O 547.751 1.94487 0.022782 0
M  V30 5741 C 548.034 1.18223 -3.4014 0
M  V30 5742 C 547.887 0.0967431 -4.49696 0
M  V30 5743 C 549.206 2.08872 -3.87377 0
M  V30 5744 H 546.325 0.217453 -0.70419 0
M  V30 5745 H 548.967 -0.133821 -1.89528 0
M  V30 5746 H 547.117 1.80953 -3.43785 0
M  V30 5747 H 548.789 -0.536155 -4.58174 0
M  V30 5748 H 547.032 -0.573063 -4.29998 0
M  V30 5749 H 547.703 0.542894 -5.49324 0
M  V30 5750 H 550.179 1.56081 -3.85717 0
M  V30 5751 H 549.055 2.46389 -4.90493 0
M  V30 5752 H 549.316 2.99572 -3.25129 0
M  V30 5753 N 548.375 1.56261 0.205012 0
M  V30 5754 C 549.325 1.90155 1.25798 0
M  V30 5755 C 550.309 0.766227 1.41484 0
M  V30 5756 O 551.501 1.02893 1.44021 0
M  V30 5757 C 548.63 2.23603 2.60493 0
M  V30 5758 C 547.716 3.43568 2.48639 0
M  V30 5759 N 548.107 4.61747 2.06455 0
M  V30 5760 C 546.405 3.4751 2.79558 0
M  V30 5761 C 547.106 5.43907 2.06253 0
M  V30 5762 N 546.082 4.84051 2.47377 0
M  V30 5763 H 549.884 2.79031 0.922986 0
M  V30 5764 H 547.398 1.57048 0.413501 0
M  V30 5765 H 549.395 2.46067 3.36537 0
M  V30 5766 H 548.055 1.36049 2.94823 0
M  V30 5767 H 549.066 4.86598 1.77321 0
M  V30 5768 H 545.743 2.70345 3.18151 0
M  V30 5769 H 547.133 6.48542 1.75622 0
M  V30 5770 N 549.853 -0.472356 1.50355 0
M  V30 5771 C 551.269 -0.806001 1.37753 0
M  V30 5772 C 551.469 -1.968 0.432649 0
M  V30 5773 O 550.525 -2.52189 -0.12519 0
M  V30 5774 C 551.838 -1.11926 2.79093 0
M  V30 5775 C 553.386 -1.22579 2.87999 0
M  V30 5776 C 553.861 -1.57218 4.3017 0
M  V30 5777 N 555.352 -1.64212 4.33115 0
M  V30 5778 C 556.087 -1.92517 5.40116 0
M  V30 5779 N 555.583 -2.1885 6.57325 0
M  V30 5780 N 557.376 -1.94008 5.27558 0
M  V30 5781 H 549.527 0.293451 2.10363 0
M  V30 5782 H 551.79 0.0687672 0.945503 0
M  V30 5783 H 551.496 -0.338504 3.50067 0
M  V30 5784 H 551.37 -2.05577 3.16256 0
M  V30 5785 H 553.757 -1.99722 2.17245 0
M  V30 5786 H 553.838 -0.269107 2.54381 0
M  V30 5787 H 553.482 -0.806154 5.01461 0
M  V30 5788 H 553.412 -2.54034 4.61275 0
M  V30 5789 H 555.903 -1.45906 3.48597 0
M  V30 5790 H 556.216 -2.39718 7.3468 0
M  V30 5791 H 554.561 -2.16245 6.60502 0
M  V30 5792 H 557.752 -1.72931 4.34986 0
M  V30 5793 H 557.925 -2.15731 6.11035 0
M  V30 5794 N 551.331 -1.39911 -0.725443 0
M  V30 5795 C 552.278 -1.39393 -1.83952 0
M  V30 5796 C 553.248 -0.252249 -1.64173 0
M  V30 5797 O 554.433 -0.44882 -1.85446 0
M  V30 5798 C 551.573 -1.25262 -3.21564 0
M  V30 5799 C 550.686 -2.49054 -3.52982 0
M  V30 5800 C 549.821 -2.27439 -4.80047 0
M  V30 5801 C 548.86 -3.46857 -5.04338 0
M  V30 5802 N 547.997 -3.24499 -6.22611 0
M  V30 5803 H 552.837 -2.34622 -1.83729 0
M  V30 5804 H 550.374 -1.16537 -0.897636 0
M  V30 5805 H 552.332 -1.15077 -4.01015 0
M  V30 5806 H 550.962 -0.33657 -3.21041 0
M  V30 5807 H 550.014 -2.69805 -2.6816 0
M  V30 5808 H 551.326 -3.37973 -3.66846 0
M  V30 5809 H 550.48 -2.14551 -5.67497 0
M  V30 5810 H 549.219 -1.35929 -4.68374 0
M  V30 5811 H 548.224 -3.60232 -4.15346 0
M  V30 5812 H 549.449 -4.3928 -5.17889 0
M  V30 5813 H 547.395 -2.35663 -6.12208 0
M  V30 5814 H 547.312 -4.06978 -6.37106 0
M  V30 5815 H 548.58 -3.15325 -7.12875 0
M  V30 5816 N 552.809 0.956637 -1.25245 0
M  V30 5817 C 554.049 1.71585 -1.11076 0
M  V30 5818 C 554.413 1.88916 0.34277 0
M  V30 5819 O 555.614 2.61875 0.606227 0
M  V30 5820 C 553.885 3.06267 -1.84215 0
M  V30 5821 S 555.444 3.97469 -1.85914 0
M  V30 5822 H 552.262 0.589803 -0.397055 0
M  V30 5823 H 554.864 1.14114 -1.58739 0
M  V30 5824 H 553.568 2.91322 -2.89067 0
M  V30 5825 H 553.099 3.688 -1.36931 0
M  V30 5826 H 555.114 4.87316 -0.93474 0
M  V30 5827 N 554.287 1.06798 1.15896 0
M  V30 5828 C 555.534 0.787767 1.86549 0
M  V30 5829 C 555.862 -0.685959 1.82002 0
M  V30 5830 O 555.117 -1.5188 1.23414 0
M  V30 5831 C 555.416 1.23414 3.35416 0
M  V30 5832 C 555.082 2.71285 3.6016 0
M  V30 5833 C 553.744 3.11676 3.66622 0
M  V30 5834 C 556.096 3.6676 3.7032 0
M  V30 5835 C 553.424 4.4637 3.8075 0
M  V30 5836 C 555.776 5.01209 3.8597 0
M  V30 5837 C 554.44 5.41229 3.90676 0
M  V30 5838 H 553.71 0.288264 0.682631 0
M  V30 5839 H 556.357 1.338 1.37003 0
M  V30 5840 H 554.662 0.60319 3.87129 0
M  V30 5841 H 556.359 0.994298 3.88477 0
M  V30 5842 H 552.949 2.39015 3.55767 0
M  V30 5843 H 557.133 3.36685 3.64633 0
M  V30 5844 H 552.389 4.76855 3.82648 0
M  V30 5845 H 556.563 5.75067 3.92773 0
M  V30 5846 H 554.19 6.45602 4.01375 0
M  V30 5847 O 555.804 -1.27943 0.985539 0
M  V30 5848 H 556.495 -1.83099 0.632003 0
M  V30 END ATOM
M  V30 BEGIN BOND
M  V30 END BOND
M  V30 END CTAB
M  END
$$$$
