drugbank_target|P87764 Nonstructural protein 5b (DB09183)
 OpenBabel12092121043D

  0  0  0     0  0            999 V3000
M  V30 BEGIN CTAB
M  V30 COUNTS 1019 1023 0 0 0
M  V30 BEGIN ATOM
M  V30 1 H -0.908 1.98254 -0.117106 0
M  V30 2 N 0 1.576 0 0
M  V30 3 C 0.963 2.07369 0.976253 0
M  V30 4 C 1.963 0.98309 1.27248 0
M  V30 5 O 3.153 1.24574 1.21766 0
M  V30 6 N 1.4781 -0.272755 1.55222 0
M  V30 7 C 2.4411 -1.32041 1.87344 0
M  V30 8 C 3.4411 -1.42342 0.74803 0
M  V30 9 O 4.6311 -1.41488 1.0162 0
M  V30 10 N 2.9562 -1.48159 -0.537278 0
M  V30 11 C 3.9192 -1.61665 -1.62472 0
M  V30 12 C 4.9192 -0.490395 -1.5314 0
M  V30 13 O 6.1092 -0.755998 -1.5694 0
M  V30 14 N 4.4343 0.785586 -1.36625 0
M  V30 15 C 5.3973 1.87999 -1.31107 0
M  V30 16 C 6.3973 1.59316 -0.217959 0
M  V30 17 O 7.5873 1.67656 -0.472977 0
M  V30 18 N 5.9124 1.20967 1.01018 0
M  V30 19 C 6.8754 0.965918 2.07853 0
M  V30 20 C 7.8754 -0.0610545 1.60684 0
M  V30 21 O 9.0654 0.175681 1.73312 0
M  V30 22 N 7.3905 -1.2043 1.01659 0
M  V30 23 C 8.6675 -1.8548 0.621004 0
M  V30 24 C 9.0475 -1.9091 -0.900919 0
M  V30 25 O 8.3955 -1.41694 -1.79263 0
M  V30 26 C 8.6055 -3.25119 1.2688 0
M  V30 27 C 9.9535 -4.01403 1.38423 0
M  V30 28 O 10.9775 -3.34473 1.22501 0
M  V30 29 O 9.8365 -5.21265 1.64151 0
M  V30 30 H 6.9305 -0.798761 0.214266 0
M  V30 31 H 9.4765 -1.28019 1.11396 0
M  V30 32 H 8.2485 -3.15932 2.30873 0
M  V30 33 H 7.8715 -3.90212 0.762917 0
M  V30 34 N 8.8686 -0.792821 -1.36206 0
M  V30 35 C 9.8316 -0.199459 -2.2833 0
M  V30 36 C 10.8316 0.605189 -1.48977 0
M  V30 37 O 12.0216 0.425685 -1.68919 0
M  V30 38 N 10.3467 1.47872 -0.545128 0
M  V30 39 C 11.3097 2.28337 0.198717 0
M  V30 40 C 12.3097 1.36255 0.853888 0
M  V30 41 O 13.4997 1.59003 0.711606 0
M  V30 42 C 10.6317 3.15585 1.28915 0
M  V30 43 H 11.8247 2.95567 -0.507941 0
M  V30 44 H 9.3777 1.53362 -0.301616 0
M  V30 45 H 10.1127 2.53019 2.02859 0
M  V30 46 H 9.8977 3.83337 0.824309 0
M  V30 47 H 11.3877 3.76243 1.81194 0
M  V30 48 N 11.8248 0.280983 1.55075 0
M  V30 49 C 13.2358 -0.215629 1.85451 0
M  V30 50 C 13.5868 -1.54991 1.203 0
M  V30 51 O 12.7118 -2.10699 0.493435 0
M  V30 52 C 13.3068 -0.398026 3.36454 0
M  V30 53 C 11.8658 -0.838866 3.66933 0
M  V30 54 C 11.0128 0.064458 2.77225 0
M  V30 55 H 13.9638 0.502601 1.50531 0
M  V30 56 H 13.9848 -1.23569 3.59876 0
M  V30 57 H 13.4968 0.573241 3.83843 0
M  V30 58 H 11.5978 -1.8214 3.25048 0
M  V30 59 H 11.7108 -0.672123 4.74362 0
M  V30 60 H 10.0748 -0.452863 2.50642 0
M  V30 61 H 10.8578 1.03172 3.2743 0
M  V30 62 N 13.3029 -1.57598 0.00835791 0
M  V30 63 C 14.2129 -2.12385 -0.996487 0
M  V30 64 C 15.2289 -1.07108 -1.37127 0
M  V30 65 O 16.4049 -1.39055 -1.4569 0
M  V30 66 C 13.4699 -2.62314 -2.26699 0
M  V30 67 C 12.5309 -3.82225 -1.95456 0
M  V30 68 C 11.7639 -4.29763 -3.16449 0
M  V30 69 O 11.9869 -3.76584 -4.28416 0
M  V30 70 O 10.9209 -5.21832 -2.99958 0
M  V30 71 H 14.7469 -2.98479 -0.560725 0
M  V30 72 H 12.3319 -1.47903 -0.210987 0
M  V30 73 H 14.2139 -2.94589 -3.01322 0
M  V30 74 H 12.8889 -1.79313 -2.69497 0
M  V30 75 H 11.7959 -3.54909 -1.18282 0
M  V30 76 H 13.1289 -4.66324 -1.57489 0
M  V30 77 N 14.781 0.264519 -1.55364 0
M  V30 78 C 15.744 1.31046 -1.88042 0
M  V30 79 C 16.744 1.41943 -0.755569 0
M  V30 80 O 17.934 1.40947 -1.02369 0
M  V30 81 C 15.066 2.69067 -2.09323 0
M  V30 82 H 16.259 1.03297 -2.81549 0
M  V30 83 H 13.812 0.502989 -1.47986 0
M  V30 84 H 14.547 3.01982 -1.18226 0
M  V30 85 H 14.332 2.62542 -2.91229 0
M  V30 86 H 15.822 3.44623 -2.35848 0
M  V30 87 N 16.2591 1.48442 0.529413 0
M  V30 88 C 17.6751 1.34575 0.858004 0
M  V30 89 C 17.8751 0.3572 1.98309 0
M  V30 90 O 16.9311 -0.221379 2.51528 0
M  V30 91 C 18.2441 2.74617 1.22499 0
M  V30 92 C 19.7921 2.83109 1.33484 0
M  V30 93 C 20.2671 4.23854 1.73526 0
M  V30 94 N 21.7581 4.2653 1.80628 0
M  V30 95 C 22.4931 5.32372 2.12997 0
M  V30 96 N 21.9891 6.48491 2.43786 0
M  V30 97 N 23.7821 5.19766 2.14008 0
M  V30 98 H 15.9331 2.1133 -0.212925 0
M  V30 99 H 18.1961 0.947439 -0.0326199 0
M  V30 100 H 17.9021 3.4852 0.471905 0
M  V30 101 H 17.7761 3.08177 2.17501 0
M  V30 102 H 20.1631 2.09462 2.0787 0
M  V30 103 H 20.2441 2.53168 0.366027 0
M  V30 104 H 19.8881 4.98018 0.997013 0
M  V30 105 H 19.8181 4.5124 2.71459 0
M  V30 106 H 22.3091 3.42772 1.59108 0
M  V30 107 H 22.6221 7.24993 2.67592 0
M  V30 108 H 20.9671 6.51765 2.41304 0
M  V30 109 H 24.1581 4.28066 1.89412 0
M  V30 110 H 24.3311 6.02354 2.38902 0
M  V30 111 N 17.7372 -0.778329 1.37039 0
M  V30 112 C 18.6692 -1.90034 1.2814 0
M  V30 113 C 19.6822 -1.61585 0.198558 0
M  V30 114 O 20.8712 -1.72625 0.454175 0
M  V30 115 C 17.9712 -3.25108 0.956968 0
M  V30 116 C 17.1442 -3.81253 2.14394 0
M  V30 117 C 16.2032 -4.94789 1.79082 0
M  V30 118 O 15.2292 -5.10721 2.51301 0
M  V30 119 N 16.4312 -5.75878 0.731043 0
M  V30 120 H 19.1962 -1.98186 2.24816 0
M  V30 121 H 16.7572 -0.957129 1.30578 0
M  V30 122 H 18.7492 -3.9857 0.701701 0
M  V30 123 H 17.3192 -3.125 0.0789812 0
M  V30 124 H 16.5392 -2.99647 2.56135 0
M  V30 125 H 17.8272 -4.15495 2.93668 0
M  V30 126 H 17.2252 -5.65547 0.131618 0
M  V30 127 H 15.7822 -6.49596 0.535622 0
M  V30 128 N 19.2153 -1.21501 -1.00376 0
M  V30 129 C 20.1783 -0.976927 -2.07337 0
M  V30 130 C 21.1783 0.0525322 -1.60714 0
M  V30 131 O 22.3683 -0.184869 -1.73216 0
M  V30 132 C 19.5003 -0.473423 -3.37597 0
M  V30 133 H 20.6933 -1.92587 -2.29892 0
M  V30 134 H 18.2463 -1.03217 -1.17371 0
M  V30 135 H 18.9813 0.480379 -3.20722 0
M  V30 136 H 18.7663 -1.216 -3.72768 0
M  V30 137 H 20.2563 -0.32675 -4.1632 0
M  V30 138 N 20.6934 1.19889 -1.02296 0
M  V30 139 C 21.9424 1.88743 -0.711257 0
M  V30 140 C 22.2554 1.80112 0.762817 0
M  V30 141 O 23.4614 2.44161 1.18733 0
M  V30 142 C 21.9174 3.38525 -1.22185 0
M  V30 143 C 21.5254 3.55727 -2.72328 0
M  V30 144 C 23.2694 4.12893 -0.985864 0
M  V30 145 C 21.1764 4.99369 -3.16835 0
M  V30 146 H 20.1064 0.706885 -0.262353 0
M  V30 147 H 22.7574 1.35586 -1.23648 0
M  V30 148 H 21.1394 3.91044 -0.624571 0
M  V30 149 H 22.3134 3.13564 -3.3766 0
M  V30 150 H 20.6284 2.94739 -2.9414 0
M  V30 151 H 23.2254 5.18813 -1.29374 0
M  V30 152 H 23.5684 4.16228 0.0775055 0
M  V30 153 H 24.1014 3.66494 -1.54684 0
M  V30 154 H 20.8404 5.01193 -4.22476 0
M  V30 155 H 20.3604 5.42317 -2.56228 0
M  V30 156 H 22.0394 5.67988 -3.09837 0
M  V30 157 N 22.1715 0.800033 1.35784 0
M  V30 158 C 23.5875 0.482977 1.52117 0
M  V30 159 C 23.7875 -0.996948 1.75109 0
M  V30 160 O 22.8435 -1.78216 1.78872 0
M  V30 161 C 24.1565 1.32264 2.70049 0
M  V30 162 C 25.7045 1.31742 2.83924 0
M  V30 163 C 26.1795 2.14106 4.04874 0
M  V30 164 N 27.6705 2.11607 4.12039 0
M  V30 165 C 28.4055 2.72099 5.04727 0
M  V30 166 N 27.9015 3.41492 6.02789 0
M  V30 167 N 29.6945 2.61776 4.97423 0
M  V30 168 H 21.8455 1.75856 1.19115 0
M  V30 169 H 24.1085 0.748122 0.582252 0
M  V30 170 H 23.8145 2.37261 2.59616 0
M  V30 171 H 23.6885 0.971303 3.6448 0
M  V30 172 H 26.0755 0.275333 2.93813 0
M  V30 173 H 26.1565 1.70859 1.9037 0
M  V30 174 H 25.8005 3.18351 3.95746 0
M  V30 175 H 25.7305 1.72353 4.97596 0
M  V30 176 H 28.2215 1.61112 3.41835 0
M  V30 177 H 28.5345 3.84953 6.70098 0
M  V30 178 H 26.8795 3.45596 6.02983 0
M  V30 179 H 30.0705 2.07157 4.19766 0
M  V30 180 H 30.2435 3.0921 5.69468 0
M  V30 181 N 23.6496 -1.47581 0.552962 0
M  V30 182 C 24.8746 -2.07378 0.0300593 0
M  V30 183 C 25.2996 -1.40355 -1.25229 0
M  V30 184 O 24.6576 -0.477099 -1.7491 0
M  V30 185 C 24.7056 -3.60274 -0.153231 0
M  V30 186 O 23.8096 -3.94041 -1.21678 0
M  V30 187 H 23.1506 -0.662158 0.0494182 0
M  V30 188 H 25.6806 -1.89662 0.767434 0
M  V30 189 H 25.6906 -4.0633 -0.368761 0
M  V30 190 H 24.3656 -4.08455 0.783397 0
M  V30 191 H 22.9426 -3.59735 -0.982079 0
M  V30 192 N 25.1277 -0.289203 -1.54924 0
M  V30 193 C 26.0577 0.58549 -2.2604 0
M  V30 194 C 27.0387 1.14753 -1.25562 0
M  V30 195 O 28.2237 1.17906 -1.54311 0
M  V30 196 C 25.3537 1.76305 -2.99222 0
M  V30 197 C 24.3077 1.33191 -4.06748 0
M  V30 198 C 23.6337 2.5937 -4.6758 0
M  V30 199 C 24.9337 0.471775 -5.20165 0
M  V30 200 H 26.6277 -0.00763532 -2.99399 0
M  V30 201 H 24.1737 -0.00511229 -1.43999 0
M  V30 202 H 26.1267 2.38097 -3.47689 0
M  V30 203 H 24.8507 2.38223 -2.23422 0
M  V30 204 H 23.5097 0.737121 -3.59113 0
M  V30 205 H 23.1577 3.19576 -3.88433 0
M  V30 206 H 22.8577 2.31228 -5.40192 0
M  V30 207 H 24.3817 3.21985 -5.18804 0
M  V30 208 H 25.7957 0.995056 -5.64599 0
M  V30 209 H 24.1927 0.284639 -5.99425 0
M  V30 210 H 25.2627 -0.506041 -4.82252 0
M  V30 211 N 26.6058 1.57591 -0.0167156 0
M  V30 212 C 27.8338 1.95575 0.675128 0
M  V30 213 C 28.2488 0.892542 1.6637 0
M  V30 214 O 27.6058 -0.126912 1.82058 0
M  V30 215 C 27.6568 3.33608 1.39239 0
M  V30 216 O 27.3778 4.3585 0.443444 0
M  V30 217 C 28.8788 3.86151 2.17721 0
M  V30 218 H 26.0988 0.644423 0.186978 0
M  V30 219 H 28.6428 2.0437 -0.0728 0
M  V30 220 H 26.7978 3.2607 2.09182 0
M  V30 221 H 27.2118 5.158 0.951358 0
M  V30 222 H 28.6858 4.85114 2.63379 0
M  V30 223 H 29.1628 3.19738 3.01105 0
M  V30 224 H 29.7688 3.96918 1.52761 0
M  V30 225 N 28.0839 -0.256276 1.55502 0
M  V30 226 C 28.9939 -1.33882 1.92647 0
M  V30 227 C 30.0099 -1.53159 0.825727 0
M  V30 228 O 31.1859 -1.66963 1.12629 0
M  V30 229 C 28.2509 -2.6751 2.20543 0
M  V30 230 C 27.3119 -2.56836 3.43997 0
M  V30 231 C 26.5449 -3.84092 3.70553 0
M  V30 232 O 26.7679 -4.85545 2.99336 0
M  V30 233 O 25.7019 -3.83288 4.64084 0
M  V30 234 H 29.5279 -1.05374 2.84833 0
M  V30 235 H 27.1129 -0.456237 1.42263 0
M  V30 236 H 28.9949 -3.46492 2.39835 0
M  V30 237 H 27.6699 -2.9577 1.31536 0
M  V30 238 H 26.5769 -1.76172 3.30021 0
M  V30 239 H 27.9099 -2.33523 4.33275 0
M  V30 240 N 29.562 -1.4872 -0.521534 0
M  V30 241 C 30.978 -1.35028 -0.850855 0
M  V30 242 C 31.178 -0.367712 -1.98116 0
M  V30 243 O 30.234 0.208037 -2.51642 0
M  V30 244 C 31.547 -2.75263 -1.21041 0
M  V30 245 C 33.095 -2.83813 -1.31981 0
M  V30 246 C 33.57 -4.24769 -1.71276 0
M  V30 247 N 35.061 -4.27482 -1.78363 0
M  V30 248 C 35.796 -5.33494 -2.1017 0
M  V30 249 N 35.292 -6.49775 -2.40343 0
M  V30 250 N 37.085 -5.20894 -2.11248 0
M  V30 251 H 29.236 -2.11214 0.22413 0
M  V30 252 H 31.499 -0.947252 0.0376439 0
M  V30 253 H 31.205 -3.48765 -0.453415 0
M  V30 254 H 31.079 -3.09327 -2.15863 0
M  V30 255 H 33.466 -2.10561 -2.06756 0
M  V30 256 H 33.547 -2.53358 -0.352596 0
M  V30 257 H 33.191 -4.9854 -0.970588 0
M  V30 258 H 33.121 -4.52673 -2.69062 0
M  V30 259 H 35.612 -3.43611 -1.57288 0
M  V30 260 H 35.925 -7.26402 -2.63743 0
M  V30 261 H 34.27 -6.53035 -2.37844 0
M  V30 262 H 37.461 -4.29065 -1.87139 0
M  V30 263 H 37.634 -6.03612 -2.35704 0
M  V30 264 N 31.0401 0.771051 -1.3745 0
M  V30 265 C 31.9701 1.89827 -1.3597 0
M  V30 266 C 32.9511 1.68562 -0.228216 0
M  V30 267 O 34.1361 1.8941 -0.428675 0
M  V30 268 C 31.2661 3.2712 -1.16662 0
M  V30 269 C 30.2201 3.6295 -2.2683 0
M  V30 270 C 29.5461 4.98791 -1.92644 0
M  V30 271 C 30.8461 3.69627 -3.69017 0
M  V30 272 H 32.5401 1.91323 -2.30295 0
M  V30 273 H 30.0861 0.919082 -1.10855 0
M  V30 274 H 32.0391 4.05615 -1.14256 0
M  V30 275 H 30.7631 3.26059 -0.187926 0
M  V30 276 H 29.4221 2.86763 -2.28392 0
M  V30 277 H 29.0701 4.94271 -0.933021 0
M  V30 278 H 28.7701 5.23733 -2.66416 0
M  V30 279 H 30.2941 5.79685 -1.91826 0
M  V30 280 H 31.7081 4.38273 -3.69581 0
M  V30 281 H 30.1051 4.06067 -4.41848 0
M  V30 282 H 31.1751 2.70273 -4.02592 0
M  V30 283 N 32.5182 1.22032 0.997298 0
M  V30 284 C 33.7482 1.06686 1.76923 0
M  V30 285 C 34.1562 -0.385838 1.85224 0
M  V30 286 O 33.4992 -1.27929 1.31833 0
M  V30 287 C 33.5612 1.59802 3.22031 0
M  V30 288 C 33.2252 3.08362 3.37286 0
M  V30 289 C 34.2222 4.05835 3.24952 0
M  V30 290 C 31.9072 3.47727 3.6248 0
M  V30 291 C 33.9012 5.4066 3.37588 0
M  V30 292 C 31.5882 4.82701 3.74757 0
M  V30 293 C 32.5862 5.78977 3.62319 0
M  V30 294 O 32.2742 7.11502 3.74193 0
M  V30 295 H 32.0062 0.374767 0.562606 0
M  V30 296 H 34.5602 1.61991 1.26286 0
M  V30 297 H 32.7902 0.989003 3.73839 0
M  V30 298 H 34.4792 1.40184 3.80924 0
M  V30 299 H 35.2452 3.76766 3.05405 0
M  V30 300 H 31.1242 2.73317 3.7124 0
M  V30 301 H 34.6682 6.15788 3.27796 0
M  V30 302 H 30.5652 5.11453 3.9381 0
M  V30 303 H 31.3332 7.19019 3.91093 0
M  V30 304 N 33.9963 -1.19345 1.0293 0
M  V30 305 C 34.9593 -2.20793 0.615069 0
M  V30 306 C 35.9593 -1.57553 -0.321533 0
M  V30 307 O 37.1493 -1.73862 -0.108483 0
M  V30 308 N 35.4744 -0.807222 -1.35358 0
M  V30 309 C 36.7224 -0.387122 -1.98358 0
M  V30 310 C 37.0434 1.04942 -1.64354 0
M  V30 311 O 36.3134 1.72615 -0.926339 0
M  V30 312 H 34.8934 -0.140154 -0.733734 0
M  V30 313 H 37.5554 -1.0332 -1.6526 0
M  V30 314 H 36.6514 -0.493352 -3.08176 0
M  V30 315 N 36.9525 1.47285 -0.560781 0
M  V30 316 C 38.2005 2.02064 -0.0379868 0
M  V30 317 C 38.5215 1.43711 1.31803 0
M  V30 318 O 37.7915 0.61362 1.86042 0
M  V30 319 H 36.3715 0.746918 -0.0110531 0
M  V30 320 H 39.0335 1.80648 -0.731598 0
M  V30 321 H 38.1295 3.12064 0.0474463 0
M  V30 322 N 38.4306 0.297415 1.54768 0
M  V30 323 C 39.8416 -0.195947 1.85669 0
M  V30 324 C 40.1926 -1.53707 1.21937 0
M  V30 325 O 39.3176 -2.10164 0.515754 0
M  V30 326 C 39.9126 -0.362318 3.36857 0
M  V30 327 C 38.4716 -0.799901 3.67802 0
M  V30 328 C 37.6186 0.0938578 2.77141 0
M  V30 329 H 40.5696 0.518538 1.4999 0
M  V30 330 H 40.5906 -1.19745 3.61167 0
M  V30 331 H 40.1026 0.613921 3.83214 0
M  V30 332 H 38.2036 -1.78682 3.26961 0
M  V30 333 H 38.3166 -0.621773 4.75048 0
M  V30 334 H 36.6806 -0.426254 2.51108 0
M  V30 335 H 37.4636 1.06639 3.26318 0
M  V30 336 N 39.9087 -1.5758 0.0250728 0
M  V30 337 C 40.8387 -2.13007 -0.956575 0
M  V30 338 C 41.8197 -1.0452 -1.342 0
M  V30 339 O 43.0047 -1.32332 -1.42133 0
M  V30 340 C 40.1347 -2.65386 -2.24026 0
M  V30 341 C 39.0887 -3.78623 -1.99571 0
M  V30 342 C 38.4147 -4.17414 -3.3417 0
M  V30 343 C 39.7147 -5.04867 -1.33814 0
M  V30 344 H 41.4087 -2.9528 -0.494991 0
M  V30 345 H 38.9547 -1.42042 -0.236651 0
M  V30 346 H 40.9077 -3.02794 -2.93076 0
M  V30 347 H 39.6317 -1.80268 -2.72343 0
M  V30 348 H 38.2907 -3.41646 -1.32941 0
M  V30 349 H 37.9387 -3.29284 -3.80238 0
M  V30 350 H 37.6387 -4.93719 -3.18615 0
M  V30 351 H 39.1627 -4.57402 -4.04495 0
M  V30 352 H 40.5767 -5.39888 -1.92857 0
M  V30 353 H 38.9737 -5.86144 -1.28669 0
M  V30 354 H 40.0437 -4.83904 -0.310561 0
M  V30 355 N 41.3868 0.248026 -1.55636 0
M  V30 356 C 42.6148 0.993808 -1.81469 0
M  V30 357 C 43.0298 1.78991 -0.60064 0
M  V30 358 O 42.3868 1.77345 0.430682 0
M  V30 359 C 42.4378 1.93258 -3.05506 0
M  V30 360 O 42.1588 1.16869 -4.22224 0
M  V30 361 C 43.6598 2.79444 -3.4413 0
M  V30 362 H 40.8798 0.292486 -0.603898 0
M  V30 363 H 43.4238 0.271253 -2.02693 0
M  V30 364 H 41.5788 2.60943 -2.86335 0
M  V30 365 H 41.9928 1.80359 -4.92515 0
M  V30 366 H 43.4668 3.41066 -4.34026 0
M  V30 367 H 43.9438 3.50499 -2.64665 0
M  V30 368 H 44.5498 2.17214 -3.65648 0
M  V30 369 N 42.8649 1.48995 0.513639 0
M  V30 370 C 43.8129 1.65199 1.63744 0
M  V30 371 C 44.8069 0.51809 1.61283 0
M  V30 372 O 46.0129 0.697335 1.65943 0
M  V30 373 H 42.3879 0.52069 0.542574 0
M  V30 374 H 44.3589 2.59552 1.47226 0
M  V30 375 C 43.1079 1.72409 3.01945 0
M  V30 376 H 42.4309 2.59029 3.04539 0
M  V30 377 H 43.8709 1.87785 3.80148 0
M  V30 378 C 42.3299 0.46618 3.33659 0
M  V30 379 O 42.8599 -0.413744 3.99564 0
M  V30 380 N 41.0659 0.332931 2.88687 0
M  V30 381 H 40.6129 1.04996 2.35231 0
M  V30 382 H 40.5709 -0.507665 3.10274 0
M  V30 383 N 44.343 -0.763751 1.37857 0
M  V30 384 C 45.568 -1.55805 1.36893 0
M  V30 385 C 45.993 -1.88054 -0.0416135 0
M  V30 386 O 45.351 -1.49825 -1.02089 0
M  V30 387 C 45.399 -2.84012 2.22192 0
M  V30 388 O 44.503 -3.78732 1.63204 0
M  V30 389 H 43.844 -0.471638 0.46739 0
M  V30 390 H 46.374 -0.944657 1.81487 0
M  V30 391 H 46.384 -3.33037 2.35691 0
M  V30 392 H 45.059 -2.59869 3.24716 0
M  V30 393 H 43.636 -3.37402 1.58791 0
M  V30 394 N 45.8211 -1.22559 -0.990812 0
M  V30 395 C 46.7681 -0.997519 -2.0813 0
M  V30 396 C 47.7381 0.0814702 -1.659 0
M  V30 397 O 48.9231 -0.0685424 -1.90677 0
M  V30 398 C 46.0631 -0.583615 -3.40129 0
M  V30 399 C 45.1761 -1.7336 -3.9569 0
M  V30 400 C 44.3111 -1.26748 -5.15857 0
M  V30 401 C 43.3501 -2.38888 -5.63559 0
M  V30 402 N 42.4871 -1.93308 -6.74964 0
M  V30 403 H 47.3271 -1.93099 -2.26973 0
M  V30 404 H 44.8641 -0.962114 -1.11273 0
M  V30 405 H 46.8221 -0.324801 -4.15934 0
M  V30 406 H 45.4521 0.312845 -3.2128 0
M  V30 407 H 44.5041 -2.10669 -3.16738 0
M  V30 408 H 45.8161 -2.57704 -4.27071 0
M  V30 409 H 44.9701 -0.966173 -5.98957 0
M  V30 410 H 43.7091 -0.394272 -4.86104 0
M  V30 411 H 42.7141 -2.69805 -4.79046 0
M  V30 412 H 43.9391 -3.26728 -5.95336 0
M  V30 413 H 41.8851 -1.08352 -6.4699 0
M  V30 414 H 41.8021 -2.71217 -7.05675 0
M  V30 415 H 43.0701 -1.66252 -7.61564 0
M  V30 416 N 47.2992 1.18797 -1.03562 0
M  V30 417 C 48.5472 1.88278 -0.734569 0
M  V30 418 C 48.8682 1.8043 0.739586 0
M  V30 419 O 48.1382 1.21925 1.53333 0
M  V30 420 H 46.7182 0.696991 -0.268725 0
M  V30 421 H 49.3802 1.44192 -1.31129 0
M  V30 422 H 48.4762 2.94443 -1.03489 0
M  V30 423 N 48.7773 0.814389 1.34928 0
M  V30 424 C 49.7093 0.187834 2.28429 0
M  V30 425 C 50.7223 -0.617374 1.5064 0
M  V30 426 O 51.9113 -0.448454 1.72775 0
M  V30 427 C 49.0113 -0.755962 3.30361 0
M  V30 428 C 48.1843 0.00456686 4.374 0
M  V30 429 C 47.2433 -0.858876 5.19143 0
M  V30 430 O 46.2693 -0.306968 5.68372 0
M  V30 431 N 47.4713 -2.17988 5.38016 0
M  V30 432 H 50.2363 0.991105 2.82838 0
M  V30 433 H 47.7973 0.670561 1.4736 0
M  V30 434 H 49.7893 -1.338 3.81942 0
M  V30 435 H 48.3593 -1.46001 2.7641 0
M  V30 436 H 47.5793 0.767865 3.86649 0
M  V30 437 H 48.8673 0.528422 5.06049 0
M  V30 438 H 48.2653 -2.65212 4.99679 0
M  V30 439 H 46.8223 -2.71098 5.92747 0
M  V30 440 N 50.2554 -1.46986 0.568584 0
M  V30 441 C 51.2034 -2.31858 -0.185649 0
M  V30 442 C 52.1974 -1.43624 -0.898249 0
M  V30 443 O 53.4034 -1.60327 -0.818242 0
M  V30 444 H 49.7784 -0.747866 -0.0787399 0
M  V30 445 H 51.7494 -2.93303 0.549191 0
M  V30 446 C 50.4984 -3.26513 -1.19519 0
M  V30 447 H 49.8214 -3.94377 -0.656285 0
M  V30 448 H 51.2614 -3.88707 -1.6936 0
M  V30 449 C 49.7204 -2.50847 -2.24894 0
M  V30 450 O 50.2504 -2.26119 -3.32014 0
M  V30 451 N 48.4564 -2.11656 -1.99124 0
M  V30 452 H 48.0034 -2.31966 -1.12024 0
M  V30 453 H 47.9614 -1.61347 -2.69842 0
M  V30 454 N 51.7335 -0.305618 -1.54608 0
M  V30 455 C 52.9735 0.303114 -2.0214 0
M  V30 456 C 53.3375 1.50737 -1.18921 0
M  V30 457 O 54.5385 2.18778 -1.56172 0
M  V30 458 C 52.8095 0.646332 -3.51507 0
M  V30 459 S 54.3685 1.23727 -4.20995 0
M  V30 460 H 51.1865 0.0927643 -0.704923 0
M  V30 461 H 53.7885 -0.434566 -1.90609 0
M  V30 462 H 52.4925 -0.238541 -4.09706 0
M  V30 463 H 52.0235 1.41468 -3.67084 0
M  V30 464 H 54.0385 2.52489 -4.27158 0
M  V30 465 N 53.2116 1.57565 -0.0334293 0
M  V30 466 C 54.4596 1.91598 0.642999 0
M  V30 467 C 54.7806 0.910847 1.7242 0
M  V30 468 O 54.0506 -0.0469931 1.95844 0
M  V30 469 H 52.6306 0.707228 0.240496 0
M  V30 470 H 55.2926 1.94726 -0.0822488 0
M  V30 471 H 54.3886 2.92336 1.09298 0
M  V30 472 N 54.6897 -0.239769 1.55765 0
M  V30 473 C 55.9197 -0.982743 1.8173 0
M  V30 474 C 56.3277 -1.7917 0.607835 0
M  V30 475 O 55.6707 -1.78525 -0.432973 0
M  V30 476 C 55.7327 -1.96332 3.01155 0
M  V30 477 C 55.3967 -1.34062 4.36894 0
M  V30 478 C 56.3937 -0.739539 5.14613 0
M  V30 479 C 54.0787 -1.35784 4.83599 0
M  V30 480 C 56.0727 -0.163989 6.37189 0
M  V30 481 C 53.7597 -0.778441 6.06122 0
M  V30 482 C 54.7577 -0.182548 6.82756 0
M  V30 483 O 54.4457 0.387887 8.02964 0
M  V30 484 H 54.1777 -0.294481 0.608487 0
M  V30 485 H 56.7317 -0.26572 2.03674 0
M  V30 486 H 54.9617 -2.71884 2.74984 0
M  V30 487 H 56.6507 -2.57032 3.14149 0
M  V30 488 H 57.4167 -0.718687 4.79646 0
M  V30 489 H 53.2957 -1.81105 4.23936 0
M  V30 490 H 56.8397 0.301753 6.96947 0
M  V30 491 H 52.7367 -0.796645 6.40565 0
M  V30 492 H 53.5047 0.28044 8.18019 0
M  V30 493 N 56.1678 -1.49265 -0.50573 0
M  V30 494 C 57.5838 -1.35923 -0.836486 0
M  V30 495 C 57.7838 -0.388704 -1.97715 0
M  V30 496 O 56.8398 0.181336 -2.51848 0
M  V30 497 C 58.1528 -2.76531 -1.18115 0
M  V30 498 C 59.7008 -2.85197 -1.28964 0
M  V30 499 C 60.1758 -4.26561 -1.66761 0
M  V30 500 N 61.6668 -4.2935 -1.73819 0
M  V30 501 C 62.4018 -5.35693 -2.045 0
M  V30 502 N 61.8978 -6.52287 -2.33438 0
M  V30 503 N 63.6908 -5.23105 -2.05711 0
M  V30 504 H 55.8418 -2.10965 0.246519 0
M  V30 505 H 58.1048 -0.9468 0.0476887 0
M  V30 506 H 57.8108 -3.49226 -0.416398 0
M  V30 507 H 57.6848 -3.11599 -2.1257 0
M  V30 508 H 60.0718 -2.12742 -2.04511 0
M  V30 509 H 60.1528 -2.53718 -0.325704 0
M  V30 510 H 59.7968 -4.99541 -0.917656 0
M  V30 511 H 59.7268 -4.55502 -2.64246 0
M  V30 512 H 62.2178 -3.4526 -1.53635 0
M  V30 513 H 62.5308 -7.29158 -2.56024 0
M  V30 514 H 60.8758 -6.55521 -2.30905 0
M  V30 515 H 64.0668 -4.31026 -1.82577 0
M  V30 516 H 64.2398 -6.06078 -2.29289 0
M  V30 517 N 57.6459 0.756429 -1.3826 0
M  V30 518 C 59.0619 1.0591 -1.19395 0
M  V30 519 C 59.2619 2.01459 -0.0406567 0
M  V30 520 O 58.3179 2.44909 0.614467 0
M  V30 521 C 59.6309 1.64191 -2.51916 0
M  V30 522 C 61.1789 1.76376 -2.58574 0
M  V30 523 C 61.6539 2.38069 -3.91264 0
M  V30 524 N 63.1449 2.45503 -3.92788 0
M  V30 525 C 63.8799 2.94126 -4.92217 0
M  V30 526 N 63.3759 3.42805 -6.02043 0
M  V30 527 N 65.1689 2.9314 -4.7961 0
M  V30 528 H 57.3199 0.122313 -2.12048 0
M  V30 529 H 59.5829 0.116892 -0.940766 0
M  V30 530 H 59.2889 1.01451 -3.3675 0
M  V30 531 H 59.1629 2.6329 -2.70108 0
M  V30 532 H 61.5499 2.38244 -1.74137 0
M  V30 533 H 61.6309 0.759894 -2.44252 0
M  V30 534 H 61.2749 1.76835 -4.76121 0
M  V30 535 H 61.2049 3.39091 -4.02895 0
M  V30 536 H 63.6959 2.1107 -3.13461 0
M  V30 537 H 64.0089 3.78354 -6.73846 0
M  V30 538 H 62.3539 3.4087 -6.05667 0
M  V30 539 H 65.5449 2.54419 -3.92923 0
M  V30 540 H 65.7179 3.30721 -5.5725 0
M  V30 541 N 59.124 1.23083 0.984299 0
M  V30 542 C 60.364 1.07226 1.74017 0
M  V30 543 C 60.728 -0.384766 1.88105 0
M  V30 544 O 61.929 -0.664411 2.60459 0
M  V30 545 C 60.2 1.77348 3.10294 0
M  V30 546 S 61.759 1.77014 4.01512 0
M  V30 547 H 58.577 0.383819 0.598502 0
M  V30 548 H 61.179 1.56158 1.17622 0
M  V30 549 H 59.883 2.82506 2.97689 0
M  V30 550 H 59.414 1.28682 3.71759 0
M  V30 551 H 61.429 0.825956 4.89277 0
M  V30 552 N 60.6021 -1.18246 1.0419 0
M  V30 553 C 62.0181 -1.40269 0.761366 0
M  V30 554 C 62.2181 -1.90777 -0.648578 0
M  V30 555 O 61.2741 -2.0929 -1.41258 0
M  V30 556 C 62.5871 -2.40237 1.8085 0
M  V30 557 C 64.1351 -2.53961 1.82955 0
M  V30 558 C 64.6101 -3.57194 2.86664 0
M  V30 559 N 66.1011 -3.64702 2.85563 0
M  V30 560 C 66.8361 -4.44309 3.6246 0
M  V30 561 N 66.3321 -5.27514 4.49111 0
M  V30 562 N 68.1251 -4.39084 3.50944 0
M  V30 563 H 60.2761 -0.837882 1.95175 0
M  V30 564 H 62.5391 -0.430608 0.84456 0
M  V30 565 H 62.2451 -2.10176 2.81991 0
M  V30 566 H 62.1191 -3.39601 1.64168 0
M  V30 567 H 64.5061 -2.83338 0.824855 0
M  V30 568 H 64.5871 -1.54706 2.03715 0
M  V30 569 H 64.2311 -3.28558 3.87314 0
M  V30 570 H 64.1611 -4.5613 2.6316 0
M  V30 571 H 66.6521 -3.05289 2.22727 0
M  V30 572 H 66.9651 -5.85411 5.04493 0
M  V30 573 H 65.3101 -5.2693 4.53178 0
M  V30 574 H 68.5011 -3.7313 2.82651 0
M  V30 575 H 68.6741 -5.00883 4.11121 0
M  V30 576 N 62.0802 -0.821533 -1.34494 0
M  V30 577 C 63.0432 -0.247847 -2.27856 0
M  V30 578 C 64.0432 0.573453 -1.50227 0
M  V30 579 O 65.2332 0.389759 -1.69784 0
M  V30 580 C 62.3652 0.652698 -3.34593 0
M  V30 581 H 63.5582 -1.07146 -2.80107 0
M  V30 582 H 61.1112 -0.593291 -1.44602 0
M  V30 583 H 61.8462 1.49943 -2.87555 0
M  V30 584 H 61.6312 0.065292 -3.92046 0
M  V30 585 H 63.1212 1.04793 -4.04238 0
M  V30 586 N 63.5583 1.46682 -0.576371 0
M  V30 587 C 64.7833 2.07304 -0.0630475 0
M  V30 588 C 65.2083 1.42329 1.2298 0
M  V30 589 O 64.5663 0.504865 1.74129 0
M  V30 590 C 64.6143 3.60472 0.095895 0
M  V30 591 O 63.7183 3.95927 1.15394 0
M  V30 592 H 63.0593 0.661288 -0.0599463 0
M  V30 593 H 65.5893 1.88417 -0.797511 0
M  V30 594 H 65.5993 4.06865 0.304071 0
M  V30 595 H 64.2743 4.07157 -0.84828 0
M  V30 596 H 62.8513 3.61252 0.924724 0
M  V30 597 N 65.0364 0.313813 1.54444 0
M  V30 598 C 66.2844 -0.291099 1.99993 0
M  V30 599 C 66.6054 -1.53418 1.20366 0
M  V30 600 O 65.8754 -1.93544 0.302927 0
M  V30 601 H 64.4554 -0.110552 0.738774 0
M  V30 602 H 67.1174 0.428106 1.9014 0
M  V30 603 H 66.2134 -0.554268 3.07139 0
M  V30 604 N 66.5145 -1.57545 0.0417849 0
M  V30 605 C 67.7605 -1.92601 -0.635021 0
M  V30 606 C 68.0935 -0.919627 -1.71045 0
M  V30 607 O 67.3685 0.0557892 -1.9442 0
M  V30 608 C 67.6515 -3.38085 -1.23979 0
M  V30 609 C 67.5045 -4.49467 -0.173057 0
M  V30 610 C 68.8235 -3.83776 -2.15416 0
M  V30 611 H 65.9425 -0.700397 -0.229374 0
M  V30 612 H 68.5845 -1.89728 0.101633 0
M  V30 613 H 66.7345 -3.40664 -1.86762 0
M  V30 614 H 68.4065 -4.59018 0.458312 0
M  V30 615 H 66.6495 -4.30909 0.499996 0
M  V30 616 H 67.3205 -5.48323 -0.636054 0
M  V30 617 H 69.7965 -3.83013 -1.62605 0
M  V30 618 H 68.6725 -4.8624 -2.54679 0
M  V30 619 H 68.9335 -3.19998 -3.05047 0
M  V30 620 N 67.9926 0.231505 -1.5589 0
M  V30 621 C 68.9226 1.29022 -1.94617 0
M  V30 622 C 69.9036 1.4941 -0.813067 0
M  V30 623 O 71.0886 1.6176 -1.07459 0
M  V30 624 C 68.2186 2.64199 -2.25424 0
M  V30 625 C 67.1726 2.58484 -3.41131 0
M  V30 626 C 66.4986 3.97599 -3.57518 0
M  V30 627 C 67.7986 2.1413 -4.76388 0
M  V30 628 H 69.4926 0.968563 -2.83301 0
M  V30 629 H 67.0386 0.464479 -1.36303 0
M  V30 630 H 68.9916 3.38413 -2.51107 0
M  V30 631 H 67.7156 2.98032 -1.33583 0
M  V30 632 H 66.3746 1.86727 -3.15481 0
M  V30 633 H 66.0226 4.28723 -2.6307 0
M  V30 634 H 65.7226 3.94659 -4.35337 0
M  V30 635 H 67.2466 4.7349 -3.85538 0
M  V30 636 H 68.6606 2.78083 -5.01341 0
M  V30 637 H 67.0576 2.2227 -5.57419 0
M  V30 638 H 68.1276 1.09331 -4.72414 0
M  V30 639 N 69.4707 1.49531 0.497807 0
M  V30 640 C 70.6987 1.62893 1.27567 0
M  V30 641 C 71.1137 0.301585 1.86376 0
M  V30 642 O 70.4707 -0.713335 1.67982 0
M  V30 643 C 70.5217 2.70013 2.40364 0
M  V30 644 O 70.2427 3.976 1.83972 0
M  V30 645 C 71.7437 2.94109 3.31685 0
M  V30 646 H 68.9637 0.548298 0.386794 0
M  V30 647 H 71.5077 1.95584 0.597245 0
M  V30 648 H 69.6627 2.40092 3.04031 0
M  V30 649 H 70.0767 4.56631 2.58047 0
M  V30 650 H 71.5507 3.72788 4.07104 0
M  V30 651 H 72.0277 2.04147 3.88871 0
M  V30 652 H 72.6337 3.2546 2.73781 0
M  V30 653 N 70.9488 -0.749086 1.3866 0
M  V30 654 C 72.1768 -1.53834 1.38358 0
M  V30 655 C 72.5918 -1.88783 -0.0255219 0
M  V30 656 O 71.9488 -1.53101 -0.993292 0
M  V30 657 C 71.9998 -2.83468 2.2434 0
M  V30 658 O 71.7208 -2.50008 3.5976 0
M  V30 659 C 73.2218 -3.7758 2.32267 0
M  V30 660 H 70.4418 -0.47585 0.473083 0
M  V30 661 H 72.9858 -0.926726 1.82297 0
M  V30 662 H 71.1408 -3.40995 1.83851 0
M  V30 663 H 71.5548 -3.33182 4.05081 0
M  V30 664 H 73.0288 -4.65478 2.96706 0
M  V30 665 H 73.5058 -4.18334 1.33765 0
M  V30 666 H 74.1118 -3.25976 2.73166 0
M  V30 667 N 72.4269 -1.23603 -0.977757 0
M  V30 668 C 73.6519 -1.09735 -1.75991 0
M  V30 669 C 74.0769 0.346858 -1.84874 0
M  V30 670 O 73.4349 1.25093 -1.3123 0
M  V30 671 C 73.4829 -1.73051 -3.16363 0
M  V30 672 O 72.5869 -0.994452 -4.0023 0
M  V30 673 H 71.9279 -0.384476 -0.541364 0
M  V30 674 H 74.4579 -1.6371 -1.2272 0
M  V30 675 H 74.4679 -1.78398 -3.66931 0
M  V30 676 H 73.1429 -2.78137 -3.09213 0
M  V30 677 H 71.7199 -1.01812 -3.58732 0
M  V30 678 N 73.905 1.17692 -1.04816 0
M  V30 679 C 75.145 1.89545 -0.764979 0
M  V30 680 C 75.509 1.78979 0.695028 0
M  V30 681 O 76.71 2.45613 1.09215 0
M  V30 682 C 74.981 3.35659 -1.22751 0
M  V30 683 S 76.54 4.25526 -1.07112 0
M  V30 684 H 73.358 0.654432 -0.27792 0
M  V30 685 H 75.96 1.42163 -1.34201 0
M  V30 686 H 74.664 3.40882 -2.28533 0
M  V30 687 H 74.195 3.88083 -0.644594 0
M  V30 688 H 76.21 4.962 0.00697508 0
M  V30 689 N 75.3831 0.828654 1.34056 0
M  V30 690 C 76.3461 0.259927 2.27721 0
M  V30 691 C 77.3461 -0.565478 1.50529 0
M  V30 692 O 78.5361 -0.38075 1.69988 0
M  V30 693 N 76.8612 -1.46375 0.584142 0
M  V30 694 C 77.8092 -2.32042 -0.161047 0
M  V30 695 C 78.8032 -1.44569 -0.882966 0
M  V30 696 O 80.0092 -1.61186 -0.801191 0
M  V30 697 H 76.3842 -0.748659 -0.0708033 0
M  V30 698 H 78.3552 -2.92704 0.580269 0
M  V30 699 C 77.1042 -3.27762 -1.1605 0
M  V30 700 H 76.4272 -3.95051 -0.614419 0
M  V30 701 H 77.8672 -3.90481 -1.65228 0
M  V30 702 C 76.3262 -2.53218 -2.22221 0
M  V30 703 O 76.8562 -2.29628 -3.29597 0
M  V30 704 N 75.0622 -2.13756 -1.96868 0
M  V30 705 H 74.6092 -2.33142 -1.09557 0
M  V30 706 H 74.5672 -1.642 -2.68115 0
M  V30 707 N 78.3393 -0.321999 -1.54275 0
M  V30 708 C 79.5673 0.283052 -2.04955 0
M  V30 709 C 79.9823 1.45904 -1.19823 0
M  V30 710 O 79.3393 1.81063 -0.228545 0
M  V30 711 C 79.3903 0.719028 -3.54277 0
M  V30 712 O 79.1113 -0.410175 -4.36176 0
M  V30 713 C 80.6123 1.38705 -4.21041 0
M  V30 714 H 77.8323 0.0584616 -0.668448 0
M  V30 715 H 80.3763 -0.467734 -1.99079 0
M  V30 716 H 78.5313 1.41979 -3.60445 0
M  V30 717 H 78.9453 -0.0669416 -5.24457 0
M  V30 718 H 80.4193 1.64306 -5.2698 0
M  V30 719 H 80.8963 2.33385 -3.72059 0
M  V30 720 H 81.5023 0.728906 -4.19007 0
M  V30 721 N 79.8174 1.5752 -0.0501392 0
M  V30 722 C 80.7474 2.14502 0.922566 0
M  V30 723 C 81.7284 1.06642 1.3252 0
M  V30 724 O 82.9134 1.34577 1.4001 0
M  V30 725 C 80.0434 2.68916 2.19776 0
M  V30 726 C 78.9974 3.8175 1.93523 0
M  V30 727 C 78.3234 4.22677 3.27487 0
M  V30 728 C 79.6234 5.06932 1.25765 0
M  V30 729 H 81.3174 2.9603 0.447952 0
M  V30 730 H 78.8634 1.42401 0.214024 0
M  V30 731 H 80.8164 3.07419 2.88222 0
M  V30 732 H 79.5404 1.84578 2.69441 0
M  V30 733 H 78.1994 3.43718 1.27489 0
M  V30 734 H 77.8474 3.35291 3.74952 0
M  V30 735 H 77.5474 4.98725 3.1072 0
M  V30 736 H 79.0714 4.63779 3.97166 0
M  V30 737 H 80.4854 5.42888 1.84244 0
M  V30 738 H 78.8824 5.88116 1.19328 0
M  V30 739 H 79.9524 4.84337 0.233536 0
M  V30 740 N 81.2955 -0.223234 1.56011 0
M  V30 741 C 82.5235 -0.964812 1.83027 0
M  V30 742 C 82.9385 -1.78013 0.62904 0
M  V30 743 O 82.2955 -1.78008 -0.402414 0
M  V30 744 C 82.3465 -1.88373 3.08542 0
M  V30 745 O 82.0675 -1.10137 4.2403 0
M  V30 746 C 83.5685 -2.73934 3.48533 0
M  V30 747 H 80.7885 -0.282842 0.608475 0
M  V30 748 H 83.3325 -0.238971 2.03099 0
M  V30 749 H 81.4875 -2.56354 2.9045 0
M  V30 750 H 81.9015 -1.72501 4.95322 0
M  V30 751 H 83.3755 -3.34117 4.39397 0
M  V30 752 H 83.8525 -3.46244 2.70207 0
M  V30 753 H 84.4585 -2.11369 3.69057 0
M  V30 754 N 82.7736 -1.49793 -0.48987 0
M  V30 755 C 84.0136 -1.61466 -1.25332 0
M  V30 756 C 84.3776 -0.299688 -1.89647 0
M  V30 757 O 85.5786 -0.291687 -2.67213 0
M  V30 758 C 83.8496 -2.74944 -2.28343 0
M  V30 759 S 85.4086 -3.06637 -3.13878 0
M  V30 760 H 82.2266 -0.569411 -0.425784 0
M  V30 761 H 84.8286 -1.875 -0.553541 0
M  V30 762 H 83.5326 -3.68994 -1.79643 0
M  V30 763 H 83.0636 -2.50938 -3.02975 0
M  V30 764 H 85.0786 -2.49015 -4.29192 0
M  V30 765 N 84.2517 0.741722 -1.39055 0
M  V30 766 C 85.4817 1.52876 -1.3897 0
M  V30 767 C 85.8897 1.8919 0.0193266 0
M  V30 768 O 85.2327 1.54138 0.999356 0
M  V30 769 C 85.2947 2.84929 -2.19216 0
M  V30 770 C 84.9587 2.71086 -3.67915 0
M  V30 771 C 85.9557 2.40084 -4.61146 0
M  V30 772 C 83.6407 2.88168 -4.11418 0
M  V30 773 C 85.6347 2.26335 -5.95862 0
M  V30 774 C 83.3217 2.74037 -5.46211 0
M  V30 775 C 84.3197 2.43166 -6.38247 0
M  V30 776 O 84.0077 2.29115 -7.70559 0
M  V30 777 H 83.7397 0.479252 -0.476753 0
M  V30 778 H 86.2937 0.924751 -1.83405 0
M  V30 779 H 84.5237 3.47564 -1.69518 0
M  V30 780 H 86.2127 3.46509 -2.11392 0
M  V30 781 H 86.9787 2.26545 -4.28838 0
M  V30 782 H 82.8577 3.11191 -3.40119 0
M  V30 783 H 86.4017 2.0216 -6.67665 0
M  V30 784 H 82.2987 2.87153 -5.78112 0
M  V30 785 H 83.0667 2.44237 -7.81211 0
M  V30 786 N 85.7298 1.2412 0.971189 0
M  V30 787 C 86.6598 1.05508 2.08304 0
M  V30 788 C 87.6408 -0.0308864 1.70072 0
M  V30 789 O 88.8258 0.135521 1.93727 0
M  V30 790 C 85.9558 0.655365 3.4106 0
M  V30 791 C 84.9098 1.68971 3.93234 0
M  V30 792 C 84.2358 1.14516 5.22293 0
M  V30 793 C 85.5358 3.08487 4.21465 0
M  V30 794 H 87.2298 1.98507 2.24132 0
M  V30 795 H 84.7758 0.955821 1.07704 0
M  V30 796 H 86.7288 0.51217 4.18276 0
M  V30 797 H 85.4528 -0.31032 3.25122 0
M  V30 798 H 84.1118 1.82106 3.18171 0
M  V30 799 H 83.7598 0.170189 5.02712 0
M  V30 800 H 83.4598 1.83635 5.58168 0
M  V30 801 H 84.9838 1.01401 6.02121 0
M  V30 802 H 86.3978 2.98601 4.89398 0
M  V30 803 H 84.7948 3.74926 4.68562 0
M  V30 804 H 85.8648 3.56787 3.28376 0
M  V30 805 N 87.2079 -1.17134 1.05439 0
M  V30 806 C 88.1549 -2.21235 0.657539 0
M  V30 807 C 89.1249 -1.62551 -0.341543 0
M  V30 808 O 90.3099 -1.89379 -0.232393 0
M  V30 809 C 87.4499 -3.45076 0.0410575 0
M  V30 810 C 86.5629 -4.18042 1.08927 0
M  V30 811 C 85.6979 -5.29376 0.439848 0
M  V30 812 C 84.7369 -5.94132 1.4722 0
M  V30 813 N 83.8739 -6.96975 0.846756 0
M  V30 814 H 88.7139 -2.54534 1.54972 0
M  V30 815 H 86.2509 -1.25028 0.775006 0
M  V30 816 H 88.2089 -4.15862 -0.33383 0
M  V30 817 H 86.8389 -3.12353 -0.814568 0
M  V30 818 H 85.8909 -3.45945 1.58196 0
M  V30 819 H 87.2029 -4.62306 1.87282 0
M  V30 820 H 86.3569 -6.06699 0.0115125 0
M  V30 821 H 85.0959 -4.86251 -0.375656 0
M  V30 822 H 84.1009 -5.15538 1.91052 0
M  V30 823 H 85.3259 -6.39337 2.28965 0
M  V30 824 H 83.2719 -6.5598 0.0518075 0
M  V30 825 H 83.1889 -7.39565 1.5678 0
M  V30 826 H 84.4569 -7.78239 0.443277 0
M  V30 827 N 88.686 -0.835752 -1.33615 0
M  V30 828 C 89.649 -0.272 -2.2758 0
M  V30 829 C 90.649 0.557487 -1.50827 0
M  V30 830 O 91.839 0.37173 -1.70188 0
M  V30 831 C 88.971 0.617173 -3.35267 0
M  V30 832 H 90.164 -1.10111 -2.78954 0
M  V30 833 H 87.717 -0.608594 -1.43965 0
M  V30 834 H 88.452 1.46884 -2.89129 0
M  V30 835 H 88.237 0.0237066 -3.92093 0
M  V30 836 H 89.727 1.005 -4.05326 0
M  V30 837 N 90.1641 1.46063 -0.591896 0
M  V30 838 C 91.3891 2.07226 -0.0850314 0
M  V30 839 C 91.8141 1.43625 1.21463 0
M  V30 840 O 91.1721 0.523305 1.73583 0
M  V30 841 C 91.2201 3.60554 0.0576567 0
M  V30 842 O 90.3241 3.97128 1.11188 0
M  V30 843 H 89.6651 0.660615 -0.0669568 0
M  V30 844 H 92.1951 1.8756 -0.81745 0
M  V30 845 H 92.2051 4.07165 0.2609 0
M  V30 846 H 90.8801 4.06235 -0.891416 0
M  V30 847 H 89.4571 3.62213 0.886356 0
M  V30 848 N 91.6422 0.330177 1.54103 0
M  V30 849 C 92.6052 -0.520144 2.2322 0
M  V30 850 C 93.6052 -1.03828 1.22786 0
M  V30 851 O 94.7952 -0.929652 1.4732 0
M  V30 852 C 91.9272 -1.72317 2.94142 0
M  V30 853 H 93.1202 0.0841605 2.99782 0
M  V30 854 H 90.6732 0.0813433 1.56088 0
M  V30 855 H 91.4082 -2.36653 2.21734 0
M  V30 856 H 91.1932 -1.35898 3.67796 0
M  V30 857 H 92.6832 -2.3266 3.46784 0
M  V30 858 N 93.1203 -1.57491 0.0584922 0
M  V30 859 C 94.0833 -2.1085 -0.898617 0
M  V30 860 C 95.0833 -1.02964 -1.23511 0
M  V30 861 O 96.2733 -1.29007 -1.17059 0
M  V30 862 C 93.4053 -2.59881 -2.20623 0
M  V30 863 H 94.5983 -2.96715 -0.435936 0
M  V30 864 H 92.1513 -1.55141 -0.190023 0
M  V30 865 H 92.8863 -1.77431 -2.71457 0
M  V30 866 H 92.6713 -3.38727 -1.97501 0
M  V30 867 H 94.1613 -3.01285 -2.89166 0
M  V30 868 N 94.5984 0.214957 -1.56127 0
M  V30 869 C 95.8384 0.945364 -1.81224 0
M  V30 870 C 96.2024 1.81265 -0.633005 0
M  V30 871 O 97.4034 2.57731 -0.763423 0
M  V30 872 C 95.6744 1.75665 -3.1125 0
M  V30 873 S 97.2334 2.54179 -3.57685 0
M  V30 874 H 94.0514 0.317443 -0.6362 0
M  V30 875 H 96.6534 0.210381 -1.94365 0
M  V30 876 H 95.3574 1.10977 -3.9511 0
M  V30 877 H 94.8884 2.53381 -3.00934 0
M  V30 878 H 96.9034 3.7792 -3.21545 0
M  V30 879 N 96.0765 1.50051 0.48192 0
M  V30 880 C 97.4925 1.37237 0.814756 0
M  V30 881 C 97.6925 0.420109 1.97072 0
M  V30 882 O 96.7485 -0.141246 2.52105 0
M  V30 883 C 98.0615 2.78375 1.13701 0
M  V30 884 C 99.6095 2.87213 1.2441 0
M  V30 885 C 100.084 4.29161 1.59954 0
M  V30 886 N 101.575 4.32061 1.66967 0
M  V30 887 C 102.31 5.38879 1.95952 0
M  V30 888 N 101.806 6.55918 2.23031 0
M  V30 889 N 103.599 5.26312 1.97363 0
M  V30 890 H 95.7505 2.10546 -0.28005 0
M  V30 891 H 98.0135 0.945921 -0.0627454 0
M  V30 892 H 97.7195 3.49845 0.360787 0
M  V30 893 H 97.5935 3.14941 2.07586 0
M  V30 894 H 99.9805 2.15969 2.01101 0
M  V30 895 H 100.061 2.54204 0.285299 0
M  V30 896 H 99.7055 5.00938 0.838067 0
M  V30 897 H 99.6355 4.59648 2.56966 0
M  V30 898 H 102.126 3.47661 1.48123 0
M  V30 899 H 102.439 7.33139 2.44391 0
M  V30 900 H 100.784 6.59112 2.20447 0
M  V30 901 H 103.975 4.33876 1.75697 0
M  V30 902 H 104.148 6.09649 2.19618 0
M  V30 903 N 97.5546 -0.734337 1.39446 0
M  V30 904 C 98.5176 -1.83004 1.37994 0
M  V30 905 C 99.5176 -1.58397 0.276938 0
M  V30 906 O 100.708 -1.65785 0.534875 0
M  V30 907 C 97.8396 -3.20802 1.1532 0
M  V30 908 H 99.0326 -1.85694 2.35494 0
M  V30 909 H 96.5856 -0.938059 1.25021 0
M  V30 910 H 97.3206 -3.23772 0.185036 0
M  V30 911 H 97.1056 -3.4006 1.95197 0
M  V30 912 H 98.5956 -4.00862 1.17046 0
M  V30 913 N 99.0327 -1.24633 -0.964593 0
M  V30 914 C 99.9957 -1.0424 -2.04124 0
M  V30 915 C 100.996 0.00137563 -1.608 0
M  V30 916 O 102.186 -0.239883 -1.7254 0
M  V30 917 C 99.3177 -0.580588 -3.3592 0
M  V30 918 H 100.511 -1.99803 -2.23649 0
M  V30 919 H 98.0637 -1.06899 -1.14027 0
M  V30 920 H 98.7987 0.3781 -3.22088 0
M  V30 921 H 98.5837 -1.33398 -3.6871 0
M  V30 922 H 100.074 -0.459034 -4.15069 0
M  V30 923 N 100.511 1.16574 -1.06058 0
M  V30 924 C 101.458 2.20883 -0.669263 0
M  V30 925 C 102.428 1.62729 0.332918 0
M  V30 926 O 103.613 1.895 0.222346 0
M  V30 927 C 100.753 3.45049 -0.0593572 0
M  V30 928 C 99.8658 4.17458 -1.11143 0
M  V30 929 C 99.0008 5.29135 -0.467916 0
M  V30 930 C 98.0398 5.93343 -1.50369 0
M  V30 931 N 97.1768 6.96516 -0.883706 0
M  V30 932 H 102.017 2.53709 -1.5632 0
M  V30 933 H 99.5538 1.24616 -0.781625 0
M  V30 934 H 101.512 4.16033 0.311771 0
M  V30 935 H 100.142 3.12781 0.797992 0
M  V30 936 H 99.1938 3.45101 -1.60029 0
M  V30 937 H 100.506 4.61307 -1.89731 0
M  V30 938 H 99.6598 6.06684 -0.0436871 0
M  V30 939 H 98.3988 4.86443 0.349864 0
M  V30 940 H 97.4038 5.14517 -1.93784 0
M  V30 941 H 98.6288 6.38114 -2.32352 0
M  V30 942 H 96.5748 6.55943 -0.086595 0
M  V30 943 H 96.4918 7.38723 -1.607 0
M  V30 944 H 97.7598 7.77993 -0.484543 0
M  V30 945 N 101.989 0.842826 1.3317 0
M  V30 946 C 102.919 0.294028 2.31641 0
M  V30 947 C 103.9 -0.600401 1.59151 0
M  V30 948 O 105.085 -0.523124 1.87022 0
M  V30 949 C 102.215 -0.528416 3.43257 0
M  V30 950 C 101.169 0.27056 4.27144 0
M  V30 951 C 100.495 -0.675881 5.30411 0
M  V30 952 C 101.795 1.48981 5.00602 0
M  V30 953 H 103.489 1.11681 2.77791 0
M  V30 954 H 101.035 0.538478 1.33553 0
M  V30 955 H 102.988 -0.922674 4.11175 0
M  V30 956 H 101.712 -1.38445 2.95805 0
M  V30 957 H 100.371 0.646427 3.60856 0
M  V30 958 H 100.019 -1.52842 4.79216 0
M  V30 959 H 99.7189 -0.145374 5.8742 0
M  V30 960 H 101.243 -1.06757 6.01195 0
M  V30 961 H 102.657 1.16849 5.61266 0
M  V30 962 H 101.054 1.95739 5.6728 0
M  V30 963 H 102.124 2.25746 4.29147 0
M  V30 964 N 103.467 -1.45747 0.599634 0
M  V30 965 C 104.399 -2.28628 -0.161879 0
M  V30 966 C 105.412 -1.39494 -0.839367 0
M  V30 967 O 106.601 -1.63941 -0.706089 0
M  V30 968 C 103.701 -3.15014 -1.24976 0
M  V30 969 C 102.874 -4.32378 -0.660935 0
M  V30 970 C 101.933 -5.00033 -1.63869 0
M  V30 971 O 100.959 -5.57085 -1.1681 0
M  V30 972 N 102.161 -4.98589 -2.97303 0
M  V30 973 H 104.926 -2.94624 0.549265 0
M  V30 974 H 102.487 -1.55847 0.438565 0
M  V30 975 H 104.479 -3.5714 -1.9035 0
M  V30 976 H 103.049 -2.5098 -1.86354 0
M  V30 977 H 102.269 -3.9383 0.170688 0
M  V30 978 H 103.557 -5.08197 -0.247619 0
M  V30 979 H 102.955 -4.53514 -3.38145 0
M  V30 980 H 101.512 -5.44603 -3.58121 0
M  V30 981 N 104.945 -0.338344 -1.53925 0
M  V30 982 C 106.222 0.314774 -1.93051 0
M  V30 983 C 106.602 1.68669 -1.26941 0
M  V30 984 O 105.95 2.24636 -0.418445 0
M  V30 985 C 106.16 0.392249 -3.46789 0
M  V30 986 C 107.508 0.645554 -4.19664 0
M  V30 987 O 108.532 0.474575 -3.53024 0
M  V30 988 O 107.391 0.976408 -5.37707 0
M  V30 989 H 104.485 0.182598 -0.80659 0
M  V30 990 H 107.031 -0.389141 -1.65178 0
M  V30 991 H 105.803 -0.570702 -3.87116 0
M  V30 992 H 105.426 1.14316 -3.80812 0
M  V30 993 N 106.423 1.57458 -0.0668435 0
M  V30 994 C 107.663 1.95175 0.607116 0
M  V30 995 C 108.027 0.946039 1.67075 0
M  V30 996 O 109.228 1.2107 2.39991 0
M  V30 997 C 107.499 3.37582 1.17358 0
M  V30 998 S 109.058 3.97271 1.86336 0
M  V30 999 H 105.876 0.682604 0.19893 0
M  V30 1000 H 108.478 1.95002 -0.139519 0
M  V30 1001 H 107.182 4.08566 0.387553 0
M  V30 1002 H 106.713 3.41288 1.95669 0
M  V30 1003 H 108.728 3.83772 3.14537 0
M  V30 1004 N 107.901 -0.206675 1.56239 0
M  V30 1005 C 109.129 -0.945345 1.8404 0
M  V30 1006 C 109.544 -1.77336 0.647885 0
M  V30 1007 O 108.901 -1.78425 -0.383511 0
M  V30 1008 C 108.952 -1.8509 3.10522 0
M  V30 1009 O 108.673 -1.05634 4.25174 0
M  V30 1010 C 110.174 -2.70222 3.51418 0
M  V30 1011 H 107.394 -0.276372 0.61144 0
M  V30 1012 H 109.938 -0.217417 2.03341 0
M  V30 1013 H 108.093 -2.53259 2.93153 0
M  V30 1014 H 108.507 -1.67238 4.97124 0
M  V30 1015 H 109.981 -3.29438 4.42916 0
M  V30 1016 H 110.458 -3.43358 2.73864 0
M  V30 1017 H 111.064 -2.07443 3.71278 0
M  V30 1018 O 109.418 -1.57617 -0.352001 0
M  V30 1019 H 110.109 -1.65766 -1.00206 0
M  V30 END ATOM
M  V30 BEGIN BOND
M  V30 END BOND
M  V30 END CTAB
M  END
$$$$
