drugbank_target|P94182 Adenylate cyclase (DB02527)
 OpenBabel12092120243D

  0  0  0     0  0            999 V3000
M  V30 BEGIN CTAB
M  V30 COUNTS 13567 13685 0 0 0
M  V30 BEGIN ATOM
M  V30 1 H -0.908 1.98254 -0.117106 0
M  V30 2 N 0 1.576 0 0
M  V30 3 C 0.933 2.03868 1.02534 0
M  V30 4 C 1.911 0.928543 1.3348 0
M  V30 5 O 3.095 1.19667 1.45644 0
M  V30 6 C 0.222 2.43627 2.35294 0
M  V30 7 C -0.732 3.65373 2.2001 0
M  V30 8 S 0.101 5.13292 1.52614 0
M  V30 9 C 1.257 5.56322 2.86805 0
M  V30 10 H 1.49 2.90518 0.631377 0
M  V30 11 H -0.977 1.52953 0.210867 0
M  V30 12 H 0.981 2.67203 3.11629 0
M  V30 13 H -0.358 1.57376 2.7183 0
M  V30 14 H -1.165 3.90944 3.18086 0
M  V30 15 H -1.563 3.418 1.51819 0
M  V30 16 H 0.729 5.58782 3.83104 0
M  V30 17 H 1.672 6.56266 2.65933 0
M  V30 18 H 2.08 4.83886 2.90714 0
M  V30 19 N 1.4781 -0.272755 1.55222 0
M  V30 20 C 2.7031 -1.02683 1.80197 0
M  V30 21 C 3.1281 -1.79142 0.573551 0
M  V30 22 O 2.4861 -1.74917 -0.476849 0
M  V30 23 C 2.5341 -1.9609 3.02624 0
M  V30 24 O 1.6381 -3.04863 2.77727 0
M  V30 25 H 0.9791 -0.293557 0.595584 0
M  V30 26 H 3.5091 -0.30159 2.02365 0
M  V30 27 H 3.5191 -2.38039 3.31363 0
M  V30 28 H 2.1941 -1.39851 3.91682 0
M  V30 29 H 0.7711 -2.67228 2.60084 0
M  V30 30 N 2.9562 -1.48159 -0.537278 0
M  V30 31 C 3.8862 -1.65029 -1.6519 0
M  V30 32 C 4.8672 -0.499281 -1.62607 0
M  V30 33 O 6.0522 -0.730972 -1.79918 0
M  V30 34 C 3.1822 -1.68303 -3.03795 0
M  V30 35 C 2.1362 -2.8283 -3.21234 0
M  V30 36 C 1.4622 -2.71189 -4.60826 0
M  V30 37 C 2.7622 -4.24211 -3.04701 0
M  V30 38 H 4.4562 -2.58341 -1.51328 0
M  V30 39 H 2.0022 -1.24325 -0.726585 0
M  V30 40 H 3.9552 -1.78693 -3.81637 0
M  V30 41 H 2.6792 -0.715635 -3.18663 0
M  V30 42 H 1.3382 -2.71983 -2.45807 0
M  V30 43 H 0.9862 -1.72435 -4.7252 0
M  V30 44 H 0.6862 -3.48035 -4.7344 0
M  V30 45 H 2.2102 -2.83537 -5.40777 0
M  V30 46 H 3.6242 -4.3593 -3.72341 0
M  V30 47 H 2.0212 -5.01998 -3.28813 0
M  V30 48 H 3.0912 -4.41184 -2.01209 0
M  V30 49 N 4.4343 0.785586 -1.36625 0
M  V30 50 C 5.3663 1.90711 -1.2713 0
M  V30 51 C 6.3793 1.61688 -0.189986 0
M  V30 52 O 7.5683 1.72864 -0.445014 0
M  V30 53 C 4.6683 3.25611 -0.939713 0
M  V30 54 C 3.8413 3.82385 -2.12369 0
M  V30 55 C 2.9003 4.95732 -1.76456 0
M  V30 56 O 1.9263 5.12047 -2.48589 0
M  V30 57 N 3.1283 5.76258 -0.700492 0
M  V30 58 H 5.8933 1.99376 -2.23762 0
M  V30 59 H 3.4543 0.964041 -1.30069 0
M  V30 60 H 5.4463 3.98937 -0.680554 0
M  V30 61 H 4.0163 3.12538 -0.0624074 0
M  V30 62 H 3.2363 3.01001 -2.54543 0
M  V30 63 H 4.5243 4.17047 -2.9146 0
M  V30 64 H 3.9223 5.65609 -0.101624 0
M  V30 65 H 2.4793 6.4987 -0.501165 0
M  V30 66 N 5.9124 1.20967 1.01018 0
M  V30 67 C 6.8444 0.922059 2.09835 0
M  V30 68 C 7.8574 -0.0927106 1.62536 0
M  V30 69 O 9.0464 0.139127 1.77957 0
M  V30 70 C 6.1464 0.362004 3.36961 0
M  V30 71 C 5.3194 1.42986 4.13369 0
M  V30 72 C 4.3784 0.879976 5.1879 0
M  V30 73 O 3.4044 1.56219 5.47343 0
M  V30 74 N 4.6064 -0.307396 5.79686 0
M  V30 75 H 7.3714 1.8588 2.35093 0
M  V30 76 H 4.9324 1.11422 1.1746 0
M  V30 77 H 6.9244 -0.0201474 4.04695 0
M  V30 78 H 5.4944 -0.479437 3.08902 0
M  V30 79 H 4.7144 1.98608 3.40512 0
M  V30 80 H 6.0024 2.14885 4.61196 0
M  V30 81 H 5.4004 -0.878796 5.58832 0
M  V30 82 H 3.9574 -0.631115 6.48737 0
M  V30 83 N 7.3905 -1.2043 1.01659 0
M  V30 84 C 8.8065 -1.41852 0.731442 0
M  V30 85 C 9.0065 -1.89358 -0.688898 0
M  V30 86 O 8.0625 -2.06247 -1.45666 0
M  V30 87 C 9.3755 -2.44019 1.75714 0
M  V30 88 C 10.9235 -2.57785 1.77527 0
M  V30 89 C 11.3985 -3.63194 2.79023 0
M  V30 90 N 12.8895 -3.70678 2.77763 0
M  V30 91 C 13.6245 -4.51897 3.52954 0
M  V30 92 N 13.1205 -5.36921 4.37821 0
M  V30 93 N 14.9135 -4.4643 3.41551 0
M  V30 94 H 7.0645 -0.879093 1.93354 0
M  V30 95 H 9.3275 -0.448425 0.835236 0
M  V30 96 H 9.0335 -2.1611 2.77469 0
M  V30 97 H 8.9075 -3.43007 1.56927 0
M  V30 98 H 11.2945 -2.85023 0.764569 0
M  V30 99 H 11.3755 -1.58992 2.00387 0
M  V30 100 H 11.0195 -3.36699 3.80258 0
M  V30 101 H 10.9495 -4.61609 2.53425 0
M  V30 102 H 13.4405 -3.09944 2.16201 0
M  V30 103 H 13.7535 -5.95981 4.91962 0
M  V30 104 H 12.0985 -5.36424 4.41899 0
M  V30 105 H 15.2895 -3.79042 2.74672 0
M  V30 106 H 15.4625 -5.09491 4.00404 0
M  V30 107 N 8.8686 -0.792821 -1.36206 0
M  V30 108 C 9.8166 -0.181555 -2.3189 0
M  V30 109 C 10.8106 0.661025 -1.55971 0
M  V30 110 O 12.0166 0.555728 -1.71206 0
M  V30 111 H 8.3916 -0.0399382 -0.750939 0
M  V30 112 H 10.3626 -1.00394 -2.81005 0
M  V30 113 C 9.1116 0.666444 -3.41253 0
M  V30 114 H 8.4346 0.0274489 -3.99791 0
M  V30 115 H 9.8746 1.06076 -4.10517 0
M  V30 116 C 8.3336 1.82614 -2.83114 0
M  V30 117 O 8.8636 2.9229 -2.75553 0
M  V30 118 N 7.0696 1.63333 -2.40356 0
M  V30 119 H 6.6166 0.741217 -2.46706 0
M  V30 120 H 6.5746 2.41087 -2.01803 0
M  V30 121 N 10.3467 1.47872 -0.545128 0
M  V30 122 C 11.5937 2.02493 -0.0165858 0
M  V30 123 C 11.9217 1.42073 1.32836 0
M  V30 124 O 11.1767 0.561459 1.87473 0
M  V30 125 C 11.4757 3.57131 0.13867 0
M  V30 126 C 11.1417 4.36411 -1.13384 0
M  V30 127 C 9.8037 4.57792 -1.48256 0
M  V30 128 C 12.1557 4.82223 -1.97764 0
M  V30 129 C 9.4837 5.22233 -2.67376 0
M  V30 130 C 11.8357 5.47977 -3.16076 0
M  V30 131 C 10.4997 5.67593 -3.51275 0
M  V30 132 H 9.7697 0.740975 -0.00606918 0
M  V30 133 H 12.4167 1.77683 -0.714207 0
M  V30 134 H 10.7217 3.80865 0.919172 0
M  V30 135 H 12.4187 3.97031 0.562782 0
M  V30 136 H 9.0087 4.2004 -0.852297 0
M  V30 137 H 13.1927 4.65493 -1.72132 0
M  V30 138 H 8.4487 5.35616 -2.94831 0
M  V30 139 H 12.6227 5.8244 -3.81755 0
M  V30 140 H 10.2497 6.17298 -4.43675 0
M  V30 141 N 11.8248 0.280983 1.55075 0
M  V30 142 C 13.0728 -0.333455 1.9933 0
M  V30 143 C 13.3938 -1.55937 1.17085 0
M  V30 144 O 12.6638 -1.94143 0.261805 0
M  V30 145 H 11.2438 -0.126197 0.736263 0
M  V30 146 H 13.9058 0.387678 1.91005 0
M  V30 147 H 13.0018 -0.619292 3.05894 0
M  V30 148 N 13.3029 -1.57598 0.00835791 0
M  V30 149 C 14.2129 -2.12385 -0.996487 0
M  V30 150 C 15.2289 -1.07108 -1.37127 0
M  V30 151 O 16.4049 -1.39055 -1.4569 0
M  V30 152 C 13.4699 -2.62314 -2.26699 0
M  V30 153 C 12.5309 -3.82225 -1.95456 0
M  V30 154 C 11.7639 -4.29763 -3.16449 0
M  V30 155 O 11.9869 -3.76584 -4.28416 0
M  V30 156 O 10.9209 -5.21832 -2.99958 0
M  V30 157 H 14.7469 -2.98479 -0.560725 0
M  V30 158 H 12.3319 -1.47903 -0.210987 0
M  V30 159 H 14.2139 -2.94589 -3.01322 0
M  V30 160 H 12.8889 -1.79313 -2.69497 0
M  V30 161 H 11.7959 -3.54909 -1.18282 0
M  V30 162 H 13.1289 -4.66324 -1.57489 0
M  V30 163 N 14.781 0.264519 -1.55364 0
M  V30 164 C 16.009 1.013 -1.80405 0
M  V30 165 C 16.424 1.79618 -0.581622 0
M  V30 166 O 15.781 1.76879 0.449468 0
M  V30 167 C 15.832 1.96487 -3.03439 0
M  V30 168 O 15.553 1.21341 -4.20961 0
M  V30 169 C 17.054 2.83079 -3.41147 0
M  V30 170 H 14.274 0.298875 -0.600762 0
M  V30 171 H 16.818 0.292736 -2.02394 0
M  V30 172 H 14.973 2.63965 -2.83551 0
M  V30 173 H 15.387 1.85573 -4.90574 0
M  V30 174 H 16.861 3.4565 -4.30384 0
M  V30 175 H 17.338 3.53286 -2.60932 0
M  V30 176 H 17.944 2.2108 -3.63323 0
M  V30 177 N 16.2591 1.48442 0.529413 0
M  V30 178 C 17.5071 1.56179 1.28267 0
M  V30 179 C 17.8281 0.237721 1.93546 0
M  V30 180 O 17.0981 -0.740779 1.81354 0
M  V30 181 H 15.6781 0.575367 0.476405 0
M  V30 182 H 18.3401 1.84909 0.61602 0
M  V30 183 H 17.4361 2.34312 2.06165 0
M  V30 184 N 17.7372 -0.778329 1.37039 0
M  V30 185 C 19.0142 -1.52551 1.22424 0
M  V30 186 C 19.3942 -2.10288 -0.184964 0
M  V30 187 O 18.7422 -1.94953 -1.19187 0
M  V30 188 C 18.9522 -2.61164 2.31504 0
M  V30 189 C 20.3002 -3.28746 2.68721 0
M  V30 190 O 21.3242 -2.71455 2.30631 0
M  V30 191 O 20.1832 -4.3231 3.3432 0
M  V30 192 H 17.2772 -0.675343 0.477326 0
M  V30 193 H 19.8232 -0.815859 1.48801 0
M  V30 194 H 18.5952 -2.16574 3.25901 0
M  V30 195 H 18.2182 -3.39737 2.06554 0
M  V30 196 N 19.2153 -1.21501 -1.00376 0
M  V30 197 C 20.1453 -0.999478 -2.11028 0
M  V30 198 C 21.1263 0.0759671 -1.6993 0
M  V30 199 O 22.3113 -0.0841106 -1.94018 0
M  V30 200 C 19.4413 -0.564709 -3.42678 0
M  V30 201 C 18.3953 -1.58486 -3.97576 0
M  V30 202 C 17.7213 -1.00628 -5.25146 0
M  V30 203 C 19.0213 -2.97204 -4.29496 0
M  V30 204 H 20.7153 -1.92495 -2.29317 0
M  V30 205 H 18.2613 -0.92693 -1.102 0
M  V30 206 H 20.2143 -0.401091 -4.19487 0
M  V30 207 H 18.9383 0.396411 -3.24185 0
M  V30 208 H 17.5973 -1.73606 -3.22888 0
M  V30 209 H 17.2453 -0.0368439 -5.02987 0
M  V30 210 H 16.9453 -1.68771 -5.62841 0
M  V30 211 H 18.4693 -0.854015 -6.04598 0
M  V30 212 H 19.8833 -2.8552 -4.97143 0
M  V30 213 H 18.2803 -3.62372 -4.78338 0
M  V30 214 H 19.3503 -3.47956 -3.3772 0
M  V30 215 N 20.6934 1.19889 -1.02296 0
M  V30 216 C 21.9424 1.88743 -0.711257 0
M  V30 217 C 22.2554 1.80112 0.762817 0
M  V30 218 O 23.4614 2.44161 1.18733 0
M  V30 219 C 21.9174 3.38525 -1.22185 0
M  V30 220 C 21.5254 3.55727 -2.72328 0
M  V30 221 C 23.2694 4.12893 -0.985864 0
M  V30 222 C 21.1764 4.99369 -3.16835 0
M  V30 223 H 20.1064 0.706885 -0.262353 0
M  V30 224 H 22.7574 1.35586 -1.23648 0
M  V30 225 H 21.1394 3.91044 -0.624571 0
M  V30 226 H 22.3134 3.13564 -3.3766 0
M  V30 227 H 20.6284 2.94739 -2.9414 0
M  V30 228 H 23.2254 5.18813 -1.29374 0
M  V30 229 H 23.5684 4.16228 0.0775055 0
M  V30 230 H 24.1014 3.66494 -1.54684 0
M  V30 231 H 20.8404 5.01193 -4.22476 0
M  V30 232 H 20.3604 5.42317 -2.56228 0
M  V30 233 H 22.0394 5.67988 -3.09837 0
M  V30 234 N 22.1715 0.800033 1.35784 0
M  V30 235 C 23.1015 0.220184 2.3246 0
M  V30 236 C 24.0825 -0.65073 1.57161 0
M  V30 237 O 25.2675 -0.582359 1.85263 0
M  V30 238 C 22.3975 -0.637353 3.41402 0
M  V30 239 C 21.3515 0.134531 4.27789 0
M  V30 240 C 20.6775 -0.844285 5.27992 0
M  V30 241 C 21.9775 1.32979 5.05088 0
M  V30 242 H 23.6715 1.02787 2.81203 0
M  V30 243 H 21.2175 0.495717 1.35199 0
M  V30 244 H 23.1705 -1.05302 4.08031 0
M  V30 245 H 21.8945 -1.47785 2.91251 0
M  V30 246 H 20.5535 0.531296 3.6273 0
M  V30 247 H 20.2015 -1.68011 4.74111 0
M  V30 248 H 19.9015 -0.332184 5.8666 0
M  V30 249 H 21.4255 -1.2583 5.97494 0
M  V30 250 H 22.8395 0.98934 5.64699 0
M  V30 251 H 21.2365 1.77593 5.7322 0
M  V30 252 H 22.3065 2.11978 4.36111 0
M  V30 253 N 23.6496 -1.47581 0.552962 0
M  V30 254 C 24.8976 -2.02082 0.0272703 0
M  V30 255 C 25.2186 -1.4301 -1.32563 0
M  V30 256 O 24.4886 -0.603745 -1.86365 0
M  V30 257 H 23.0686 -0.746966 0.00709182 0
M  V30 258 H 25.7306 -1.81033 0.722008 0
M  V30 259 H 24.8266 -3.12034 -0.0639951 0
M  V30 260 N 25.1277 -0.289203 -1.54924 0
M  V30 261 C 26.3557 0.326463 -2.04308 0
M  V30 262 C 26.7707 1.48413 -1.16701 0
M  V30 263 O 26.1277 1.81507 -0.190087 0
M  V30 264 C 26.1787 0.794014 -3.52672 0
M  V30 265 O 25.8997 -0.317564 -4.36948 0
M  V30 266 C 27.4007 1.47605 -4.18004 0
M  V30 267 H 24.6207 0.0726272 -0.667058 0
M  V30 268 H 27.1647 -0.425401 -2.00026 0
M  V30 269 H 25.3197 1.49593 -3.57352 0
M  V30 270 H 25.7337 0.0443186 -5.24481 0
M  V30 271 H 27.2077 1.75447 -5.23376 0
M  V30 272 H 27.6847 2.41224 -3.67025 0
M  V30 273 H 28.2907 0.81762 -4.17367 0
M  V30 274 N 26.6058 1.57591 -0.0167156 0
M  V30 275 C 27.5378 2.06343 0.997753 0
M  V30 276 C 28.5508 0.984469 1.29661 0
M  V30 277 O 29.7398 1.26093 1.26344 0
M  V30 278 C 26.8398 2.46255 2.32834 0
M  V30 279 C 26.0128 3.77083 2.21646 0
M  V30 280 C 25.0718 4.0368 3.37534 0
M  V30 281 O 24.0978 4.7411 3.14973 0
M  V30 282 N 25.2998 3.52881 4.60929 0
M  V30 283 H 28.0648 2.93997 0.581875 0
M  V30 284 H 25.6258 1.61002 0.170316 0
M  V30 285 H 27.6178 2.61149 3.09166 0
M  V30 286 H 26.1878 1.64032 2.66106 0
M  V30 287 H 25.4078 3.72106 1.30119 0
M  V30 288 H 26.6958 4.62822 2.11361 0
M  V30 289 H 26.0938 2.95878 4.82154 0
M  V30 290 H 24.6508 3.73076 5.34469 0
M  V30 291 N 28.0839 -0.256276 1.55502 0
M  V30 292 C 29.0319 -1.33694 1.90338 0
M  V30 293 C 30.0259 -1.50299 0.781441 0
M  V30 294 O 31.2319 -1.51885 0.965966 0
M  V30 295 H 27.6069 -0.447483 0.60437 0
M  V30 296 H 29.5779 -1.01574 2.8058 0
M  V30 297 C 28.3269 -2.68724 2.20642 0
M  V30 298 H 27.6499 -2.56743 3.06469 0
M  V30 299 H 29.0899 -3.43237 2.48926 0
M  V30 300 C 27.5489 -3.21101 1.01959 0
M  V30 301 O 28.0789 -4.0084 0.262762 0
M  V30 302 N 26.2849 -2.79003 0.812746 0
M  V30 303 H 25.8319 -2.14271 1.42989 0
M  V30 304 H 25.7899 -3.14393 0.0203076 0
M  V30 305 N 29.562 -1.4872 -0.521534 0
M  V30 306 C 30.494 -1.59968 -1.64143 0
M  V30 307 C 31.507 -0.483463 -1.55456 0
M  V30 308 O 32.696 -0.75467 -1.61762 0
M  V30 309 C 29.796 -1.52127 -3.02838 0
M  V30 310 C 28.969 -2.78932 -3.36921 0
M  V30 311 C 28.028 -2.64428 -4.54933 0
M  V30 312 O 27.054 -3.38331 -4.57735 0
M  V30 313 N 28.256 -1.74606 -5.53618 0
M  V30 314 H 31.021 -2.56548 -1.54929 0
M  V30 315 H 28.582 -1.45551 -0.708988 0
M  V30 316 H 30.574 -1.40106 -3.79674 0
M  V30 317 H 29.144 -0.634868 -3.06085 0
M  V30 318 H 28.364 -3.05455 -2.4918 0
M  V30 319 H 29.652 -3.63041 -3.56481 0
M  V30 320 H 29.05 -1.13782 -5.54139 0
M  V30 321 H 27.607 -1.6852 -6.29638 0
M  V30 322 N 31.0401 0.771051 -1.3745 0
M  V30 323 C 31.9501 1.91538 -1.35464 0
M  V30 324 C 32.9661 1.72134 -0.254123 0
M  V30 325 O 34.1421 1.95358 -0.489626 0
M  V30 326 C 31.2071 3.26671 -1.16134 0
M  V30 327 C 30.2681 3.58723 -2.35831 0
M  V30 328 C 29.5011 4.87409 -2.17413 0
M  V30 329 O 29.7241 5.58506 -1.15876 0
M  V30 330 O 28.6581 5.18539 -3.05615 0
M  V30 331 H 32.4841 1.96165 -2.31847 0
M  V30 332 H 30.0691 0.9139 -1.18187 0
M  V30 333 H 31.9511 4.07499 -1.07345 0
M  V30 334 H 30.6261 3.22894 -0.228251 0
M  V30 335 H 29.5331 2.78127 -2.50192 0
M  V30 336 H 30.8661 3.67243 -3.27709 0
M  V30 337 N 32.5182 1.22032 0.997298 0
M  V30 338 C 33.4502 0.944263 2.08845 0
M  V30 339 C 34.4632 -0.0754663 1.62625 0
M  V30 340 O 35.6522 0.157994 1.77799 0
M  V30 341 C 32.7522 0.397723 3.36558 0
M  V30 342 C 31.9252 1.47362 4.11829 0
M  V30 343 C 30.9842 0.934951 5.17827 0
M  V30 344 O 30.0102 1.62016 5.45655 0
M  V30 345 N 31.2122 -0.245895 5.79979 0
M  V30 346 H 33.9772 1.88363 2.33109 0
M  V30 347 H 31.5382 1.12661 1.16272 0
M  V30 348 H 33.5302 0.0227771 4.04694 0
M  V30 349 H 32.1002 -0.446646 3.09393 0
M  V30 350 H 31.3202 2.02208 3.38386 0
M  V30 351 H 32.6082 2.19764 4.58891 0
M  V30 352 H 32.0062 -0.819475 5.59733 0
M  V30 353 H 30.5632 -0.562272 6.4937 0
M  V30 354 N 33.9963 -1.19345 1.0293 0
M  V30 355 C 34.9443 -2.24621 0.604001 0
M  V30 356 C 35.9383 -1.65452 -0.363587 0
M  V30 357 O 37.1443 -1.78497 -0.23212 0
M  V30 358 H 33.5193 -0.730858 0.177061 0
M  V30 359 H 35.4903 -2.5781 1.50255 0
M  V30 360 C 34.2393 -3.47688 -0.0289127 0
M  V30 361 H 33.5623 -3.93505 0.706651 0
M  V30 362 H 35.0023 -4.23011 -0.289432 0
M  V30 363 C 33.4613 -3.11817 -1.2756 0
M  V30 364 O 33.9913 -3.2451 -2.36762 0
M  V30 365 N 32.1973 -2.66246 -1.16453 0
M  V30 366 H 31.7443 -2.56118 -0.275914 0
M  V30 367 H 31.7023 -2.42617 -1.99961 0
M  V30 368 N 35.4744 -0.807222 -1.35358 0
M  V30 369 C 36.4044 -0.232509 -2.3234 0
M  V30 370 C 37.3854 0.642386 -1.57504 0
M  V30 371 O 38.5704 0.572526 -1.85569 0
M  V30 372 C 35.7004 0.619238 -3.41735 0
M  V30 373 C 34.6544 -0.157215 -4.27711 0
M  V30 374 C 33.9804 0.816273 -5.28433 0
M  V30 375 C 35.2804 -1.35656 -5.04376 0
M  V30 376 H 36.9744 -1.04276 -2.80654 0
M  V30 377 H 34.5204 -0.50288 -1.34934 0
M  V30 378 H 36.4734 1.03137 -4.08584 0
M  V30 379 H 35.1974 1.46239 -2.92031 0
M  V30 380 H 33.8564 -0.550525 -3.62443 0
M  V30 381 H 33.5044 1.65494 -4.74996 0
M  V30 382 H 33.2044 0.301067 -5.86828 0
M  V30 383 H 34.7284 1.22659 -5.98153 0
M  V30 384 H 36.1424 -1.01927 -5.64166 0
M  V30 385 H 34.5394 -1.8063 -5.7227 0
M  V30 386 H 35.6094 -2.14288 -4.34981 0
M  V30 387 N 36.9525 1.47285 -0.560781 0
M  V30 388 C 38.3635 1.86258 -0.128343 0
M  V30 389 C 38.7145 1.46699 1.30284 0
M  V30 390 O 37.8395 0.871698 1.98067 0
M  V30 391 C 38.4345 3.38044 -0.22614 0
M  V30 392 C 36.9935 3.76096 0.151283 0
M  V30 393 C 36.1405 2.71335 -0.572084 0
M  V30 394 H 39.0915 1.38752 -0.770297 0
M  V30 395 H 39.1125 3.76441 0.554322 0
M  V30 396 H 38.6245 3.66806 -1.26788 0
M  V30 397 H 36.7255 3.52951 1.19399 0
M  V30 398 H 36.8385 4.78641 -0.209765 0
M  V30 399 H 35.2025 2.54696 -0.0147653 0
M  V30 400 H 35.9855 3.02938 -1.61504 0
M  V30 401 N 38.4306 0.297415 1.54768 0
M  V30 402 C 39.3406 -0.58983 2.27064 0
M  V30 403 C 40.3566 -1.15144 1.30453 0
M  V30 404 O 41.5326 -1.17699 1.63428 0
M  V30 405 C 38.5976 -1.74714 2.9946 0
M  V30 406 C 37.6586 -1.21997 4.11601 0
M  V30 407 C 36.8916 -2.32212 4.80535 0
M  V30 408 O 37.1146 -3.52036 4.48806 0
M  V30 409 O 36.0486 -1.99106 5.68014 0
M  V30 410 H 39.8746 -0.00348199 3.037 0
M  V30 411 H 37.4596 0.0640035 1.49263 0
M  V30 412 H 39.3416 -2.42147 3.44881 0
M  V30 413 H 38.0166 -2.32016 2.25722 0
M  V30 414 H 36.9236 -0.511458 3.70587 0
M  V30 415 H 38.2566 -0.692419 4.87305 0
M  V30 416 N 39.9087 -1.5758 0.0250728 0
M  V30 417 C 41.1367 -1.9593 -0.664747 0
M  V30 418 C 41.5517 -0.901352 -1.65895 0
M  V30 419 O 40.9087 0.117255 -1.82123 0
M  V30 420 C 40.9597 -3.34342 -1.37468 0
M  V30 421 O 40.6807 -4.36079 -0.420324 0
M  V30 422 C 42.1817 -3.873 -2.1567 0
M  V30 423 H 39.4017 -0.645405 -0.183557 0
M  V30 424 H 41.9457 -2.04329 0.0836372 0
M  V30 425 H 40.1007 -3.27175 -2.0745 0
M  V30 426 H 40.5147 -5.16297 -0.923991 0
M  V30 427 H 41.9887 -4.86504 -2.60803 0
M  V30 428 H 42.4657 -3.21331 -2.99405 0
M  V30 429 H 43.0717 -3.97723 -1.50654 0
M  V30 430 N 41.3868 0.248026 -1.55636 0
M  V30 431 C 42.6118 0.998028 -1.81808 0
M  V30 432 C 43.0368 1.78207 -0.601979 0
M  V30 433 O 42.3948 1.75653 0.448961 0
M  V30 434 C 42.4428 1.9125 -3.05705 0
M  V30 435 O 41.5468 3.00406 -2.82542 0
M  V30 436 H 40.8878 0.284045 -0.600179 0
M  V30 437 H 43.4178 0.269357 -2.02819 0
M  V30 438 H 43.4278 2.32737 -3.35108 0
M  V30 439 H 42.1028 1.33602 -3.93857 0
M  V30 440 H 40.6798 2.63056 -2.64303 0
M  V30 441 N 42.8649 1.48995 0.513639 0
M  V30 442 C 43.8279 1.64229 1.59879 0
M  V30 443 C 44.8279 0.514696 1.5234 0
M  V30 444 O 46.0179 0.78087 1.55718 0
M  V30 445 C 43.1499 1.62783 2.99524 0
M  V30 446 H 44.3429 2.61004 1.47705 0
M  V30 447 H 41.8959 1.37837 0.736936 0
M  V30 448 H 42.6309 0.675461 3.17188 0
M  V30 449 H 42.4159 2.4466 3.06404 0
M  V30 450 H 43.9059 1.76669 3.78388 0
M  V30 451 N 44.343 -0.763751 1.37857 0
M  V30 452 C 45.754 -1.3405 1.29952 0
M  V30 453 C 46.105 -1.96138 -0.0492898 0
M  V30 454 O 45.23 -1.94372 -0.951239 0
M  V30 455 C 45.825 -2.43729 2.35333 0
M  V30 456 C 44.384 -2.97151 2.31037 0
M  V30 457 C 43.531 -1.70438 2.18738 0
M  V30 458 H 46.482 -0.563396 1.48363 0
M  V30 459 H 46.503 -3.23412 2.00462 0
M  V30 460 H 46.015 -1.9851 3.33489 0
M  V30 461 H 44.116 -3.46724 1.3643 0
M  V30 462 H 44.229 -3.52221 3.24772 0
M  V30 463 H 42.593 -1.93673 1.65418 0
M  V30 464 H 43.376 -1.27312 3.18821 0
M  V30 465 N 45.8211 -1.22559 -0.990812 0
M  V30 466 C 47.0671 -1.05297 -1.73322 0
M  V30 467 C 47.4001 0.410655 -1.89808 0
M  V30 468 O 46.6751 1.30439 -1.44277 0
M  V30 469 C 46.9581 -1.76713 -3.13759 0
M  V30 470 C 46.8111 -3.30684 -3.04907 0
M  V30 471 C 48.1301 -1.52121 -4.12974 0
M  V30 472 H 45.2491 -0.38392 -0.629106 0
M  V30 473 H 47.8911 -1.50926 -1.15418 0
M  V30 474 H 46.0411 -1.37924 -3.63193 0
M  V30 475 H 47.7131 -3.7893 -2.63077 0
M  V30 476 H 45.9561 -3.60253 -2.41661 0
M  V30 477 H 46.6271 -3.75833 -4.04294 0
M  V30 478 H 49.1031 -1.85819 -3.72304 0
M  V30 479 H 47.9791 -2.04582 -5.0935 0
M  V30 480 H 48.2401 -0.454257 -4.3976 0
M  V30 481 N 47.2992 1.18797 -1.03562 0
M  V30 482 C 48.5472 1.88278 -0.734569 0
M  V30 483 C 48.8682 1.8043 0.739586 0
M  V30 484 O 48.1382 1.21925 1.53333 0
M  V30 485 H 46.7182 0.696991 -0.268725 0
M  V30 486 H 49.3802 1.44192 -1.31129 0
M  V30 487 H 48.4762 2.94443 -1.03489 0
M  V30 488 N 48.7773 0.814389 1.34928 0
M  V30 489 C 50.0053 0.411136 2.02774 0
M  V30 490 C 50.4203 -0.980316 1.61354 0
M  V30 491 O 49.7773 -1.63299 0.814847 0
M  V30 492 C 49.8283 0.493865 3.58111 0
M  V30 493 O 49.5493 1.83047 3.98027 0
M  V30 494 C 51.0503 0.0844174 4.4322 0
M  V30 495 H 48.2703 0.166037 0.650133 0
M  V30 496 H 50.8143 1.10018 1.72384 0
M  V30 497 H 48.9693 -0.147006 3.87121 0
M  V30 498 H 49.3833 1.79872 4.92693 0
M  V30 499 H 50.8573 0.193404 5.51661 0
M  V30 500 H 51.3343 -0.97113 4.28329 0
M  V30 501 H 51.9403 0.69875 4.19521 0
M  V30 502 N 50.2554 -1.46986 0.568584 0
M  V30 503 C 51.1854 -2.32946 -0.160753 0
M  V30 504 C 52.1664 -1.44487 -0.897631 0
M  V30 505 O 53.3514 -1.73327 -0.875867 0
M  V30 506 C 50.4814 -3.26494 -1.18403 0
M  V30 507 C 49.4354 -4.24282 -0.562895 0
M  V30 508 C 48.7614 -5.07236 -1.69163 0
M  V30 509 C 50.0614 -5.19989 0.490761 0
M  V30 510 H 51.7554 -2.94175 0.556916 0
M  V30 511 H 49.3014 -1.4146 0.26927 0
M  V30 512 H 51.2544 -3.85477 -1.70251 0
M  V30 513 H 49.9784 -2.63343 -1.93179 0
M  V30 514 H 48.6374 -3.66541 -0.0656164 0
M  V30 515 H 48.2854 -4.4048 -2.42871 0
M  V30 516 H 47.9854 -5.7345 -1.28174 0
M  V30 517 H 49.5094 -5.6908 -2.21314 0
M  V30 518 H 50.9234 -5.73271 0.0579047 0
M  V30 519 H 49.3204 -5.94469 0.820165 0
M  V30 520 H 50.3904 -4.64777 1.3824 0
M  V30 521 N 51.7335 -0.305618 -1.54608 0
M  V30 522 C 52.6965 0.555591 -2.22364 0
M  V30 523 C 53.6965 1.05768 -1.21119 0
M  V30 524 O 54.8865 0.952972 -1.45822 0
M  V30 525 C 52.0185 1.76974 -2.91364 0
M  V30 526 H 53.2115 -0.0364572 -2.99878 0
M  V30 527 H 50.7645 -0.0565007 -1.56198 0
M  V30 528 H 51.4995 2.40151 -2.17941 0
M  V30 529 H 51.2845 1.41732 -3.65588 0
M  V30 530 H 52.7745 2.38148 -3.43038 0
M  V30 531 N 53.2116 1.57565 -0.0334293 0
M  V30 532 C 54.6276 1.56297 0.322997 0
M  V30 533 C 54.8276 1.03945 1.7262 0
M  V30 534 O 53.8836 0.688109 2.42943 0
M  V30 535 C 55.1966 3.00232 0.167664 0
M  V30 536 C 56.7446 3.12078 0.240107 0
M  V30 537 C 57.2196 4.57859 0.113513 0
M  V30 538 N 58.7106 4.62887 0.170359 0
M  V30 539 C 59.4456 5.73319 0.0962517 0
M  V30 540 N 58.9416 6.92794 -0.0291881 0
M  V30 541 N 60.7346 5.61898 0.150551 0
M  V30 542 H 52.8856 1.89923 -0.950956 0
M  V30 543 H 55.1486 0.873824 -0.367608 0
M  V30 544 H 54.8546 3.42501 -0.799102 0
M  V30 545 H 54.7286 3.654 0.936083 0
M  V30 546 H 57.1156 2.69718 1.19733 0
M  V30 547 H 57.1966 2.49623 -0.558763 0
M  V30 548 H 56.8406 5.009 -0.840314 0
M  V30 549 H 56.7706 5.18299 0.931302 0
M  V30 550 H 59.2616 3.76954 0.26728 0
M  V30 551 H 59.5746 7.7276 -0.0789252 0
M  V30 552 H 57.9196 6.94971 -0.0640299 0
M  V30 553 H 61.1106 4.67448 0.246981 0
M  V30 554 H 61.2836 6.47938 0.0893365 0
M  V30 555 N 54.6897 -0.239769 1.55765 0
M  V30 556 C 56.1057 -0.588624 1.48349 0
M  V30 557 C 56.3057 -1.88005 0.72502 0
M  V30 558 O 55.3617 -2.51186 0.257269 0
M  V30 559 C 56.6747 -0.68474 2.928 0
M  V30 560 C 58.2227 -0.77659 3.03213 0
M  V30 561 C 58.6977 -0.904207 4.48986 0
M  V30 562 N 60.1887 -0.968896 4.52953 0
M  V30 563 C 60.9237 -1.08703 5.63002 0
M  V30 564 N 60.4197 -1.17026 6.82845 0
M  V30 565 N 62.2127 -1.12074 5.50814 0
M  V30 566 H 54.3637 0.607911 2.03515 0
M  V30 567 H 56.6267 0.21083 0.924259 0
M  V30 568 H 56.3327 0.194284 3.51163 0
M  V30 569 H 56.2067 -1.55435 3.43686 0
M  V30 570 H 58.5937 -1.64606 2.44926 0
M  V30 571 H 58.6747 0.118315 2.55526 0
M  V30 572 H 58.3187 -0.0392633 5.07885 0
M  V30 573 H 58.2487 -1.81426 4.9436 0
M  V30 574 H 60.7397 -0.915633 3.6664 0
M  V30 575 H 61.0527 -1.25966 7.62465 0
M  V30 576 H 59.3977 -1.13971 6.85591 0
M  V30 577 H 62.5887 -1.05226 4.5612 0
M  V30 578 H 62.7617 -1.20936 6.36615 0
M  V30 579 N 56.1678 -1.49265 -0.50573 0
M  V30 580 C 57.1148 -1.65585 -1.6078 0
M  V30 581 C 58.0848 -0.497396 -1.58478 0
M  V30 582 O 59.2698 -0.72385 -1.76536 0
M  V30 583 C 56.4098 -1.72408 -2.98948 0
M  V30 584 C 55.5228 -2.99525 -3.11301 0
M  V30 585 C 54.6578 -2.97356 -4.40174 0
M  V30 586 C 53.6968 -4.19074 -4.46143 0
M  V30 587 N 52.8338 -4.14841 -5.66437 0
M  V30 588 H 57.6738 -2.59688 -1.46172 0
M  V30 589 H 55.2108 -1.28761 -0.711261 0
M  V30 590 H 57.1688 -1.74344 -3.79025 0
M  V30 591 H 55.7988 -0.817753 -3.1227 0
M  V30 592 H 54.8508 -3.07222 -2.24318 0
M  V30 593 H 56.1628 -3.89518 -3.11572 0
M  V30 594 H 55.3168 -2.97829 -5.28567 0
M  V30 595 H 54.0558 -2.05133 -4.42461 0
M  V30 596 H 53.0608 -4.1885 -3.56153 0
M  V30 597 H 54.2858 -5.12483 -4.45575 0
M  V30 598 H 52.2318 -3.25453 -5.69575 0
M  V30 599 H 52.1488 -4.98564 -5.68304 0
M  V30 600 H 53.4168 -4.1941 -6.57051 0
M  V30 601 N 57.6459 0.756429 -1.3826 0
M  V30 602 C 58.8939 1.51248 -1.34047 0
M  V30 603 C 59.2149 1.94875 0.0698372 0
M  V30 604 O 58.4849 1.67436 1.01696 0
M  V30 605 H 57.0649 0.561018 -0.493222 0
M  V30 606 H 59.7269 0.899347 -1.7291 0
M  V30 607 H 58.8229 2.40472 -1.98947 0
M  V30 608 N 59.124 1.23083 0.984299 0
M  V30 609 C 60.352 1.08714 1.76037 0
M  V30 610 C 60.767 -0.361691 1.85303 0
M  V30 611 O 60.124 -1.25034 1.32939 0
M  V30 612 C 60.175 1.70206 3.18923 0
M  V30 613 O 59.896 3.09423 3.10144 0
M  V30 614 C 61.397 1.61227 4.12941 0
M  V30 615 H 58.617 0.380664 0.552572 0
M  V30 616 H 61.161 1.62853 1.23689 0
M  V30 617 H 59.316 1.20109 3.6831 0
M  V30 618 H 59.73 3.39188 4.00065 0
M  V30 619 H 61.204 2.08962 5.10919 0
M  V30 620 H 61.681 0.570375 4.35481 0
M  V30 621 H 62.287 2.10671 3.69456 0
M  V30 622 N 60.6021 -1.18246 1.0419 0
M  V30 623 C 61.8511 -1.87588 0.741194 0
M  V30 624 C 62.1641 -1.81303 -0.734066 0
M  V30 625 O 63.3701 -2.46019 -1.14834 0
M  V30 626 C 61.8261 -3.36538 1.27555 0
M  V30 627 C 61.4341 -3.51349 2.77953 0
M  V30 628 C 63.1781 -4.11273 1.05143 0
M  V30 629 C 61.0851 -4.94265 3.2474 0
M  V30 630 H 60.0151 -0.702622 0.273565 0
M  V30 631 H 62.6661 -1.33601 1.25789 0
M  V30 632 H 61.0481 -3.9 0.686703 0
M  V30 633 H 62.2221 -3.08153 3.42605 0
M  V30 634 H 60.5371 -2.90022 2.98791 0
M  V30 635 H 63.1341 -5.16689 1.37611 0
M  V30 636 H 63.4771 -4.16298 -0.0112774 0
M  V30 637 H 64.0101 -3.63987 1.60495 0
M  V30 638 H 60.7491 -4.94408 4.30396 0
M  V30 639 H 60.2691 -5.38172 2.64823 0
M  V30 640 H 61.9481 -5.62987 3.18834 0
M  V30 641 N 62.0802 -0.821533 -1.34494 0
M  V30 642 C 63.3052 -0.420873 -2.03085 0
M  V30 643 C 63.7302 0.964915 -1.61465 0
M  V30 644 O 63.0882 1.62763 -0.798607 0
M  V30 645 C 63.1362 -0.529414 -3.56693 0
M  V30 646 O 62.2402 0.451302 -4.09923 0
M  V30 647 H 61.5812 -0.173489 -0.640935 0
M  V30 648 H 64.1112 -1.11157 -1.71771 0
M  V30 649 H 64.1212 -0.404671 -4.05988 0
M  V30 650 H 62.7962 -1.54014 -3.86332 0
M  V30 651 H 61.3732 0.285558 -3.71805 0
M  V30 652 N 63.5583 1.46682 -0.576371 0
M  V30 653 C 64.7863 2.06798 -0.0649635 0
M  V30 654 C 65.2013 1.42612 1.23723 0
M  V30 655 O 64.5583 0.529203 1.74659 0
M  V30 656 C 64.6093 3.6132 0.114202 0
M  V30 657 O 64.3303 4.23104 -1.13644 0
M  V30 658 C 65.8313 4.38349 0.66069 0
M  V30 659 H 63.0513 0.668778 -0.0545616 0
M  V30 660 H 65.5953 1.88404 -0.795237 0
M  V30 661 H 63.7503 3.79162 0.794673 0
M  V30 662 H 64.1643 5.15894 -0.946253 0
M  V30 663 H 65.6383 5.47081 0.73526 0
M  V30 664 H 66.1153 4.05953 1.67627 0
M  V30 665 H 66.7213 4.25297 0.0152951 0
M  V30 666 N 65.0364 0.313813 1.54444 0
M  V30 667 C 66.2834 -0.291675 2.00388 0
M  V30 668 C 66.6114 -1.52904 1.2021 0
M  V30 669 O 65.8664 -1.93833 0.269707 0
M  V30 670 C 66.1654 -0.680386 3.50864 0
M  V30 671 C 65.8314 0.456699 4.48581 0
M  V30 672 C 64.4934 0.768824 4.75018 0
M  V30 673 C 66.8454 1.22098 5.06697 0
M  V30 674 C 64.1734 1.84812 5.56831 0
M  V30 675 C 66.5254 2.29029 5.89685 0
M  V30 676 C 65.1894 2.60834 6.14428 0
M  V30 677 H 64.4594 -0.106732 0.733273 0
M  V30 678 H 67.1064 0.43557 1.86481 0
M  V30 679 H 65.4114 -1.48791 3.62448 0
M  V30 680 H 67.1084 -1.16026 3.83847 0
M  V30 681 H 63.6984 0.203337 4.28117 0
M  V30 682 H 67.8824 0.993096 4.86263 0
M  V30 683 H 63.1384 2.09912 5.74236 0
M  V30 684 H 67.3124 2.887 6.33739 0
M  V30 685 H 64.9394 3.44596 6.77612 0
M  V30 686 N 66.5145 -1.57545 0.0417849 0
M  V30 687 C 67.4445 -2.14009 -0.933929 0
M  V30 688 C 68.4255 -1.05938 -1.33083 0
M  V30 689 O 69.6105 -1.33833 -1.40721 0
M  V30 690 C 66.7405 -2.67747 -2.21199 0
M  V30 691 C 65.6945 -3.80718 -1.95544 0
M  V30 692 C 65.0205 -4.20935 -3.29724 0
M  V30 693 C 66.3205 -5.06258 -1.28452 0
M  V30 694 H 68.0145 -2.95788 -0.463645 0
M  V30 695 H 65.5605 -1.42285 -0.221573 0
M  V30 696 H 67.5135 -3.05886 -2.89848 0
M  V30 697 H 66.2375 -1.83147 -2.70416 0
M  V30 698 H 64.8965 -3.43037 -1.2931 0
M  V30 699 H 64.5445 -3.33298 -3.76724 0
M  V30 700 H 64.2445 -4.9707 -3.13361 0
M  V30 701 H 65.7685 -4.61666 -3.9962 0
M  V30 702 H 67.1825 -5.41903 -1.8712 0
M  V30 703 H 65.5795 -5.87475 -1.22445 0
M  V30 704 H 66.6495 -4.84207 -0.259219 0
M  V30 705 N 67.9926 0.231505 -1.5589 0
M  V30 706 C 68.9556 1.27028 -1.90779 0
M  V30 707 C 69.9556 1.40308 -0.785507 0
M  V30 708 O 71.1456 1.38744 -1.05336 0
M  V30 709 C 68.2776 2.64566 -2.14983 0
M  V30 710 H 69.4706 0.973017 -2.83677 0
M  V30 711 H 67.0236 0.471486 -1.49019 0
M  V30 712 H 67.7586 2.99406 -1.24604 0
M  V30 713 H 67.5436 2.56305 -2.96732 0
M  V30 714 H 69.0336 3.39543 -2.43105 0
M  V30 715 N 69.4707 1.49531 0.497807 0
M  V30 716 C 70.8817 1.52344 1.07927 0
M  V30 717 C 71.2327 0.311469 1.93712 0
M  V30 718 O 70.3577 -0.578405 2.08527 0
M  V30 719 C 70.9527 2.76062 1.96405 0
M  V30 720 C 69.5117 2.81643 2.49709 0
M  V30 721 C 68.6587 2.46299 1.27404 0
M  V30 722 H 71.6097 1.56182 0.281576 0
M  V30 723 H 71.6307 2.56405 2.81135 0
M  V30 724 H 71.1427 3.64254 1.33943 0
M  V30 725 H 69.2437 1.97739 3.15801 0
M  V30 726 H 69.3567 3.83891 2.86643 0
M  V30 727 H 67.7207 1.98148 1.60029 0
M  V30 728 H 68.5037 3.36769 0.66645 0
M  V30 729 N 70.9488 -0.749086 1.3866 0
M  V30 730 C 71.8788 -1.8764 1.38973 0
M  V30 731 C 72.8598 -1.68178 0.255004 0
M  V30 732 O 74.0448 -1.88704 0.458754 0
M  V30 733 C 71.1748 -3.25222 1.21851 0
M  V30 734 C 70.1288 -3.59295 2.32575 0
M  V30 735 C 69.4548 -4.95663 2.00555 0
M  V30 736 C 70.7548 -3.63709 3.7485 0
M  V30 737 H 72.4488 -1.87635 2.3331 0
M  V30 738 H 69.9948 -0.901329 1.12303 0
M  V30 739 H 71.9478 -4.03746 1.20695 0
M  V30 740 H 70.6718 -3.25719 0.239775 0
M  V30 741 H 69.3308 -2.83093 2.32925 0
M  V30 742 H 68.9788 -4.92724 1.01154 0
M  V30 743 H 68.6788 -5.19429 2.74714 0
M  V30 744 H 70.2028 -5.7656 2.01024 0
M  V30 745 H 71.6168 -4.32338 3.76506 0
M  V30 746 H 70.0138 -3.98986 4.48252 0
M  V30 747 H 71.0838 -2.63834 4.06841 0
M  V30 748 N 72.4269 -1.23603 -0.977757 0
M  V30 749 C 73.6549 -1.09646 -1.75458 0
M  V30 750 C 74.0699 0.351859 -1.85492 0
M  V30 751 O 73.4269 1.24327 -1.336 0
M  V30 752 C 73.4779 -1.71895 -3.18016 0
M  V30 753 O 73.1989 -3.11063 -3.08498 0
M  V30 754 C 74.6999 -1.63415 -4.12081 0
M  V30 755 H 71.9199 -0.38359 -0.550545 0
M  V30 756 H 74.4639 -1.63507 -1.22824 0
M  V30 757 H 72.6189 -1.22061 -3.67668 0
M  V30 758 H 73.0329 -3.41305 -3.9826 0
M  V30 759 H 74.5069 -2.11669 -5.09804 0
M  V30 760 H 74.9839 -0.593462 -4.35172 0
M  V30 761 H 75.5899 -2.12628 -3.68334 0
M  V30 762 N 73.905 1.17692 -1.04816 0
M  V30 763 C 74.837 2.21103 -0.603822 0
M  V30 764 C 75.85 1.59411 0.33046 0
M  V30 765 O 77.039 1.7807 0.12379 0
M  V30 766 C 74.139 3.38623 0.136898 0
M  V30 767 C 73.312 4.29888 -0.807137 0
M  V30 768 C 72.371 5.26088 -0.10836 0
M  V30 769 O 71.397 5.64353 -0.741232 0
M  V30 770 N 72.599 5.68882 1.15558 0
M  V30 771 H 75.364 2.59848 -1.49329 0
M  V30 772 H 72.925 1.32553 -0.929587 0
M  V30 773 H 74.917 4.00009 0.614401 0
M  V30 774 H 73.487 2.98508 0.927993 0
M  V30 775 H 72.707 3.65993 -1.46434 0
M  V30 776 H 73.995 4.87759 -1.44807 0
M  V30 777 H 73.393 5.39861 1.69015 0
M  V30 778 H 71.95 6.32429 1.57722 0
M  V30 779 N 75.3831 0.828654 1.34056 0
M  V30 780 C 76.6601 0.341809 1.9259 0
M  V30 781 C 77.0401 -1.17158 1.75605 0
M  V30 782 O 76.3881 -1.98132 1.13824 0
M  V30 783 C 76.5981 0.777453 3.4023 0
M  V30 784 C 77.9461 0.779579 4.17382 0
M  V30 785 O 78.9701 0.7204 3.48839 0
M  V30 786 O 77.8291 0.857996 5.39723 0
M  V30 787 H 74.9231 0.0946085 0.821571 0
M  V30 788 H 77.4691 0.913827 1.42994 0
M  V30 789 H 76.2411 1.8196 3.46419 0
M  V30 790 H 75.8641 0.181444 3.97186 0
M  V30 791 N 76.8612 -1.46375 0.584142 0
M  V30 792 C 78.0892 -2.06761 0.0759296 0
M  V30 793 C 78.5042 -1.43266 -1.22965 0
M  V30 794 O 77.8612 -0.538458 -1.74376 0
M  V30 795 C 77.9122 -3.61375 -0.0950384 0
M  V30 796 O 77.6332 -4.22495 1.15887 0
M  V30 797 C 79.1342 -4.38693 -0.637434 0
M  V30 798 H 76.3542 -0.668479 0.0581075 0
M  V30 799 H 78.8982 -1.8798 0.805218 0
M  V30 800 H 77.0532 -3.79578 -0.774554 0
M  V30 801 H 77.4672 -5.15385 0.973598 0
M  V30 802 H 78.9412 -5.47464 -0.706237 0
M  V30 803 H 79.4182 -4.06836 -1.65472 0
M  V30 804 H 80.0242 -4.25299 0.00725967 0
M  V30 805 N 78.3393 -0.321999 -1.54275 0
M  V30 806 C 79.5863 0.281044 -2.0054 0
M  V30 807 C 79.9143 1.52265 -1.21019 0
M  V30 808 O 79.1693 1.93687 -0.279982 0
M  V30 809 C 79.4683 0.661769 -3.5122 0
M  V30 810 C 79.1343 -0.480482 -4.48333 0
M  V30 811 C 77.7963 -0.794005 -4.74604 0
M  V30 812 C 80.1483 -1.24783 -5.06042 0
M  V30 813 C 77.4763 -1.87763 -5.55844 0
M  V30 814 C 79.8283 -2.32153 -5.88462 0
M  V30 815 C 78.4923 -2.64089 -6.13036 0
M  V30 816 H 77.7623 0.102841 -0.733829 0
M  V30 817 H 80.4093 -0.445453 -1.86247 0
M  V30 818 H 78.7143 1.46867 -3.63232 0
M  V30 819 H 80.4113 1.13989 -3.84457 0
M  V30 820 H 77.0013 -0.226039 -4.28004 0
M  V30 821 H 81.1853 -1.01887 -4.85729 0
M  V30 822 H 76.4413 -2.12954 -5.73115 0
M  V30 823 H 80.6153 -2.92057 -6.32199 0
M  V30 824 H 78.2423 -3.48185 -6.75775 0
M  V30 825 N 79.8174 1.5752 -0.0501392 0
M  V30 826 C 80.7644 2.1147 0.924603 0
M  V30 827 C 81.7344 1.02182 1.30951 0
M  V30 828 O 82.9194 1.29723 1.39916 0
M  V30 829 C 80.0594 2.66337 2.19451 0
M  V30 830 C 79.1724 3.89708 1.86418 0
M  V30 831 C 78.3074 4.32893 3.07859 0
M  V30 832 C 77.3464 5.48967 2.70742 0
M  V30 833 N 76.4834 5.87211 3.84874 0
M  V30 834 H 81.3234 2.94465 0.457639 0
M  V30 835 H 78.8604 1.45531 0.214266 0
M  V30 836 H 80.8184 2.96247 2.93758 0
M  V30 837 H 79.4484 1.86141 2.63726 0
M  V30 838 H 78.5004 3.66396 1.02264 0
M  V30 839 H 79.8124 4.74074 1.55096 0
M  V30 840 H 78.9664 4.6435 3.90466 0
M  V30 841 H 77.7054 3.47336 3.42358 0
M  V30 842 H 76.7104 5.17183 1.86551 0
M  V30 843 H 77.9354 6.3624 2.37436 0
M  V30 844 H 75.8814 5.04607 4.19175 0
M  V30 845 H 75.7984 6.66266 3.57247 0
M  V30 846 H 77.0664 6.23282 4.68123 0
M  V30 847 N 81.2955 -0.223234 1.56011 0
M  V30 848 C 82.2275 -1.30006 1.88762 0
M  V30 849 C 83.2405 -1.43129 0.775746 0
M  V30 850 O 84.4295 -1.44057 1.05403 0
M  V30 851 C 81.5295 -2.67589 2.07965 0
M  V30 852 C 80.7025 -2.76434 3.38973 0
M  V30 853 C 79.7615 -3.95019 3.47629 0
M  V30 854 O 78.7875 -3.83436 4.20672 0
M  V30 855 N 79.9895 -5.09249 2.78649 0
M  V30 856 H 82.7545 -1.02238 2.81722 0
M  V30 857 H 80.3155 -0.413278 1.56536 0
M  V30 858 H 82.3075 -3.45297 2.11073 0
M  V30 859 H 80.8775 -2.87964 1.21638 0
M  V30 860 H 80.0975 -1.85216 3.47978 0
M  V30 861 H 81.3855 -2.79313 4.25278 0
M  V30 862 H 80.7835 -5.21556 2.19081 0
M  V30 863 H 79.3405 -5.85007 2.8742 0
M  V30 864 N 82.7736 -1.49793 -0.48987 0
M  V30 865 C 84.0196 -1.60078 -1.24511 0
M  V30 866 C 84.3526 -0.291608 -1.91998 0
M  V30 867 O 83.6276 0.705647 -1.81248 0
M  V30 868 C 83.9106 -2.76791 -2.30345 0
M  V30 869 C 83.7636 -4.17535 -1.67286 0
M  V30 870 C 85.0826 -2.89111 -3.31817 0
M  V30 871 H 82.2016 -0.582645 -0.451324 0
M  V30 872 H 84.8436 -1.82117 -0.541612 0
M  V30 873 H 82.9936 -2.5813 -2.90346 0
M  V30 874 H 84.6656 -4.4774 -1.11026 0
M  V30 875 H 82.9086 -4.22665 -0.976577 0
M  V30 876 H 83.5796 -4.95094 -2.44103 0
M  V30 877 H 86.0556 -3.06133 -2.81819 0
M  V30 878 H 84.9316 -3.72433 -4.03219 0
M  V30 879 H 85.1926 -1.9893 -3.94815 0
M  V30 880 N 84.2517 0.741722 -1.39055 0
M  V30 881 C 85.4977 1.50336 -1.36113 0
M  V30 882 C 85.8307 1.94148 0.0450796 0
M  V30 883 O 85.1057 1.66301 1.00868 0
M  V30 884 C 85.3887 2.74773 -2.32749 0
M  V30 885 C 85.2417 2.37023 -3.82283 0
M  V30 886 C 86.5607 3.76846 -2.27322 0
M  V30 887 H 83.6797 0.545351 -0.495743 0
M  V30 888 H 86.3217 0.848624 -1.69995 0
M  V30 889 H 84.4717 3.30639 -2.03986 0
M  V30 890 H 86.1437 1.8684 -4.21768 0
M  V30 891 H 84.3867 1.69334 -3.99385 0
M  V30 892 H 85.0577 3.26104 -4.45376 0
M  V30 893 H 87.5337 3.30548 -2.5274 0
M  V30 894 H 86.4097 4.6159 -2.97028 0
M  V30 895 H 86.6707 4.23286 -1.27599 0
M  V30 896 N 85.7298 1.2412 0.971189 0
M  V30 897 C 86.9578 1.10575 1.74874 0
M  V30 898 C 87.3728 -0.342017 1.85676 0
M  V30 899 O 86.7298 -1.23617 1.34258 0
M  V30 900 C 86.7808 1.73579 3.171 0
M  V30 901 O 86.5018 3.12695 3.06844 0
M  V30 902 C 88.0028 1.65598 4.11208 0
M  V30 903 H 85.2228 0.386504 0.548503 0
M  V30 904 H 87.7668 1.64156 1.21955 0
M  V30 905 H 85.9218 1.24009 3.67016 0
M  V30 906 H 86.3358 3.43412 3.96445 0
M  V30 907 H 87.8098 2.1437 5.08674 0
M  V30 908 H 88.2868 0.616532 4.34851 0
M  V30 909 H 88.8928 2.14578 3.67201 0
M  V30 910 N 87.2079 -1.17134 1.05439 0
M  V30 911 C 88.1179 -2.24878 0.668365 0
M  V30 912 C 89.1339 -1.71186 -0.311687 0
M  V30 913 O 90.3099 -2.00738 -0.163161 0
M  V30 914 C 87.3749 -3.46662 0.051648 0
M  V30 915 C 86.4359 -4.15429 1.08246 0
M  V30 916 C 85.6689 -5.31399 0.495082 0
M  V30 917 O 85.8919 -5.66153 -0.694743 0
M  V30 918 O 84.8259 -5.89187 1.23056 0
M  V30 919 H 88.6519 -2.60189 1.56637 0
M  V30 920 H 86.2369 -1.24482 0.826104 0
M  V30 921 H 88.1189 -4.20394 -0.290966 0
M  V30 922 H 86.7939 -3.13142 -0.819971 0
M  V30 923 H 85.7009 -3.43704 1.47711 0
M  V30 924 H 87.0339 -4.52982 1.92532 0
M  V30 925 N 88.686 -0.835752 -1.33615 0
M  V30 926 C 89.932 -0.430596 -1.98176 0
M  V30 927 C 90.265 1.00684 -1.66061 0
M  V30 928 O 89.54 1.70339 -0.938877 0
M  V30 929 C 89.823 -0.648065 -3.5422 0
M  V30 930 C 89.676 -2.13255 -3.96033 0
M  V30 931 C 90.995 -0.0922113 -4.40003 0
M  V30 932 H 88.114 -0.157924 -0.719881 0
M  V30 933 H 90.756 -1.05069 -1.58305 0
M  V30 934 H 88.906 -0.120237 -3.88314 0
M  V30 935 H 90.578 -2.725 -3.72211 0
M  V30 936 H 88.821 -2.61823 -3.45878 0
M  V30 937 H 89.492 -2.23547 -5.04708 0
M  V30 938 H 91.968 -0.543343 -4.12537 0
M  V30 939 H 90.844 -0.274083 -5.48215 0
M  V30 940 H 91.105 1.00378 -4.30554 0
M  V30 941 N 90.1641 1.46063 -0.591896 0
M  V30 942 C 91.0741 2.34192 0.13831 0
M  V30 943 C 92.0901 1.50305 0.876608 0
M  V30 944 O 93.2661 1.8315 0.837728 0
M  V30 945 C 90.3311 3.27656 1.13326 0
M  V30 946 C 89.3921 4.27445 0.39863 0
M  V30 947 C 88.6251 5.16443 1.34618 0
M  V30 948 O 88.8481 5.08553 2.58321 0
M  V30 949 O 87.7821 5.95843 0.851768 0
M  V30 950 H 91.6081 2.98002 -0.58552 0
M  V30 951 H 89.1931 1.45188 -0.352239 0
M  V30 952 H 91.0751 3.85291 1.70671 0
M  V30 953 H 89.7501 2.6643 1.83839 0
M  V30 954 H 88.6571 3.73471 -0.216895 0
M  V30 955 H 89.9901 4.91482 -0.265709 0
M  V30 956 N 91.6422 0.330177 1.54103 0
M  V30 957 C 92.5742 -0.566902 2.22079 0
M  V30 958 C 93.5872 -1.07462 1.22294 0
M  V30 959 O 94.7762 -0.987065 1.48726 0
M  V30 960 C 91.8762 -1.79138 2.87685 0
M  V30 961 C 91.0492 -1.42123 4.13666 0
M  V30 962 C 90.1082 -2.50394 4.62806 0
M  V30 963 O 89.1342 -2.14261 5.27334 0
M  V30 964 N 90.3362 -3.81433 4.37595 0
M  V30 965 H 93.1012 0.0151844 2.99696 0
M  V30 966 H 90.6622 0.153681 1.61169 0
M  V30 967 H 92.6542 -2.50975 3.1748 0
M  V30 968 H 91.2242 -2.28115 2.13734 0
M  V30 969 H 90.4442 -0.534201 3.90564 0
M  V30 970 H 91.7322 -1.14971 4.9564 0
M  V30 971 H 91.1302 -4.13584 3.8596 0
M  V30 972 H 89.6872 -4.4948 4.72029 0
M  V30 973 N 93.1203 -1.57491 0.0584922 0
M  V30 974 C 94.0673 -2.11958 -0.913376 0
M  V30 975 C 95.0373 -1.02875 -1.30407 0
M  V30 976 O 96.2223 -1.30464 -1.39226 0
M  V30 977 C 93.3623 -2.67497 -2.18035 0
M  V30 978 C 92.4753 -3.90691 -1.84349 0
M  V30 979 C 91.6103 -4.3452 -3.05559 0
M  V30 980 C 90.6493 -5.50395 -2.67827 0
M  V30 981 N 89.7863 -5.89244 -3.81754 0
M  V30 982 H 94.6263 -2.94704 -0.442017 0
M  V30 983 H 92.1633 -1.45643 -0.206545 0
M  V30 984 H 94.1213 -2.978 -2.92183 0
M  V30 985 H 92.7513 -1.87537 -2.62735 0
M  V30 986 H 91.8033 -3.66934 -1.00319 0
M  V30 987 H 93.1153 -4.7489 -1.5258 0
M  V30 988 H 92.2693 -4.66414 -3.87998 0
M  V30 989 H 91.0083 -3.49147 -3.40511 0
M  V30 990 H 90.0133 -5.18165 -1.83806 0
M  V30 991 H 91.2383 -6.3749 -2.34059 0
M  V30 992 H 89.1843 -5.06823 -4.16493 0
M  V30 993 H 89.1013 -6.68151 -3.53708 0
M  V30 994 H 90.3693 -6.25756 -4.64811 0
M  V30 995 N 94.5984 0.214957 -1.56127 0
M  V30 996 C 95.5284 1.2695 -1.95974 0
M  V30 997 C 96.5094 1.48539 -0.828868 0
M  V30 998 O 97.6944 1.60611 -1.09168 0
M  V30 999 C 94.8244 2.61794 -2.28214 0
M  V30 1000 C 93.7784 2.54851 -3.43853 0
M  V30 1001 C 93.1044 3.93785 -3.61715 0
M  V30 1002 C 94.4044 2.09065 -4.78632 0
M  V30 1003 H 96.0984 0.93846 -2.84312 0
M  V30 1004 H 93.6444 0.449996 -1.36788 0
M  V30 1005 H 95.5974 3.35731 -2.54682 0
M  V30 1006 H 94.3214 2.96599 -1.36736 0
M  V30 1007 H 92.9804 1.8337 -3.17444 0
M  V30 1008 H 92.6284 4.25908 -2.67602 0
M  V30 1009 H 92.3284 3.90019 -4.39498 0
M  V30 1010 H 93.8524 4.69374 -3.90539 0
M  V30 1011 H 95.2664 2.7275 -5.04262 0
M  V30 1012 H 93.6634 2.16346 -5.59745 0
M  V30 1013 H 94.7334 1.04315 -4.73547 0
M  V30 1014 N 96.0765 1.50051 0.48192 0
M  V30 1015 C 97.0085 1.64263 1.59844 0
M  V30 1016 C 98.0215 0.52451 1.54119 0
M  V30 1017 O 99.2105 0.797293 1.59704 0
M  V30 1018 C 96.3105 1.60102 2.98698 0
M  V30 1019 C 95.4835 2.87767 3.29407 0
M  V30 1020 C 94.5425 2.76397 4.47762 0
M  V30 1021 O 93.5685 3.50348 4.48603 0
M  V30 1022 N 94.7705 1.89222 5.48794 0
M  V30 1023 H 97.5355 2.60566 1.48073 0
M  V30 1024 H 95.0965 1.47379 0.670149 0
M  V30 1025 H 97.0885 1.50123 3.75826 0
M  V30 1026 H 95.6585 0.715798 3.04294 0
M  V30 1027 H 94.8785 3.11954 2.40994 0
M  V30 1028 H 96.1665 3.72365 3.4673 0
M  V30 1029 H 95.5645 1.28434 5.50928 0
M  V30 1030 H 94.1215 1.85154 6.24949 0
M  V30 1031 N 97.5546 -0.734337 1.39446 0
M  V30 1032 C 98.8036 -1.48937 1.36017 0
M  V30 1033 C 99.1166 -1.95557 -0.0409005 0
M  V30 1034 O 100.323 -2.70779 -0.19778 0
M  V30 1035 C 98.7786 -2.69125 2.38955 0
M  V30 1036 C 98.3866 -2.29452 3.8478 0
M  V30 1037 C 100.131 -3.46944 2.44603 0
M  V30 1038 C 98.0376 -3.46366 4.79358 0
M  V30 1039 H 96.9676 -0.559296 0.505672 0
M  V30 1040 H 99.6186 -0.800983 1.65095 0
M  V30 1041 H 98.0006 -3.40041 2.02948 0
M  V30 1042 H 99.1746 -1.66077 4.29831 0
M  V30 1043 H 97.4896 -1.64723 3.82433 0
M  V30 1044 H 100.087 -4.33907 3.12456 0
M  V30 1045 H 100.43 -3.89454 1.47076 0
M  V30 1046 H 100.963 -2.83056 2.79507 0
M  V30 1047 H 97.7016 -3.08905 5.78151 0
M  V30 1048 H 97.2216 -4.08719 4.38986 0
M  V30 1049 H 98.9006 -4.12691 4.98292 0
M  V30 1050 N 99.0327 -1.24633 -0.964593 0
M  V30 1051 C 100.279 -1.08949 -1.71049 0
M  V30 1052 C 100.612 0.370302 -1.90637 0
M  V30 1053 O 99.8867 1.27349 -1.47011 0
M  V30 1054 C 100.17 -1.83329 -3.0994 0
M  V30 1055 C 100.023 -3.37077 -2.97824 0
M  V30 1056 C 101.342 -1.60846 -4.09654 0
M  V30 1057 H 98.4607 -0.397178 -0.620821 0
M  V30 1058 H 101.103 -1.5334 -1.12191 0
M  V30 1059 H 99.2527 -1.45597 -3.60186 0
M  V30 1060 H 100.925 -3.84425 -2.5498 0
M  V30 1061 H 99.1677 -3.65298 -2.33965 0
M  V30 1062 H 99.8387 -3.84324 -3.96231 0
M  V30 1063 H 102.315 -1.93674 -3.68279 0
M  V30 1064 H 101.191 -2.1534 -5.04896 0
M  V30 1065 H 101.452 -0.547434 -4.38698 0
M  V30 1066 N 100.511 1.16574 -1.06058 0
M  V30 1067 C 101.461 2.18854 -0.63929 0
M  V30 1068 C 102.445 1.57505 0.328798 0
M  V30 1069 O 103.637 1.76408 0.144623 0
M  V30 1070 C 100.766 3.43291 -0.0247203 0
M  V30 1071 C 99.8518 4.11722 -1.01716 0
M  V30 1072 N 100.243 4.55841 -2.19186 0
M  V30 1073 C 98.5408 4.37872 -0.847569 0
M  V30 1074 C 99.2418 5.08751 -2.82042 0
M  V30 1075 N 98.2178 5.01489 -2.09784 0
M  V30 1076 H 102.02 2.5068 -1.53417 0
M  V30 1077 H 99.5338 1.32999 -0.931935 0
M  V30 1078 H 101.531 4.15856 0.294915 0
M  V30 1079 H 100.191 3.12954 0.865448 0
M  V30 1080 H 101.202 4.49649 -2.56975 0
M  V30 1081 H 97.8788 4.17499 -0.00918848 0
M  V30 1082 H 99.2688 5.52944 -3.81709 0
M  V30 1083 N 101.989 0.842826 1.3317 0
M  V30 1084 C 102.921 0.236245 2.27979 0
M  V30 1085 C 103.934 -0.585282 1.51915 0
M  V30 1086 O 105.123 -0.411705 1.73687 0
M  V30 1087 C 102.223 -0.685717 3.3189 0
M  V30 1088 C 101.396 0.0973448 4.37292 0
M  V30 1089 C 100.455 -0.748565 5.20848 0
M  V30 1090 O 99.4809 -0.186339 5.68895 0
M  V30 1091 N 100.683 -2.06527 5.42519 0
M  V30 1092 H 103.448 1.05088 2.80672 0
M  V30 1093 H 101.009 0.701667 1.45905 0
M  V30 1094 H 103.001 -1.25669 3.84694 0
M  V30 1095 H 101.571 -1.40105 2.79445 0
M  V30 1096 H 100.791 0.849706 3.84933 0
M  V30 1097 H 102.079 0.635643 5.04814 0
M  V30 1098 H 101.477 -2.54554 5.05192 0
M  V30 1099 H 100.034 -2.58464 5.98364 0
M  V30 1100 N 103.467 -1.45747 0.599634 0
M  V30 1101 C 104.695 -2.06668 0.0978551 0
M  V30 1102 C 105.11 -1.44562 -1.21439 0
M  V30 1103 O 104.467 -0.556923 -1.73795 0
M  V30 1104 C 104.518 -3.61456 -0.0567044 0
M  V30 1105 O 104.239 -4.21242 1.20361 0
M  V30 1106 C 105.74 -4.39345 -0.590869 0
M  V30 1107 H 102.96 -0.667825 0.0651943 0
M  V30 1108 H 105.504 -1.87115 0.82511 0
M  V30 1109 H 103.659 -3.80378 -0.734251 0
M  V30 1110 H 104.073 -5.14323 1.02821 0
M  V30 1111 H 105.547 -5.48182 -0.648131 0
M  V30 1112 H 106.024 -4.08568 -1.61147 0
M  V30 1113 H 106.63 -4.25268 0.0523679 0
M  V30 1114 N 104.945 -0.338344 -1.53925 0
M  V30 1115 C 105.875 0.51328 -2.27789 0
M  V30 1116 C 106.856 1.107 -1.29149 0
M  V30 1117 O 108.041 1.12937 -1.57984 0
M  V30 1118 C 105.171 1.66697 -3.04679 0
M  V30 1119 C 104.125 1.20183 -4.1078 0
M  V30 1120 C 103.451 2.44363 -4.75595 0
M  V30 1121 C 104.751 0.30605 -5.21403 0
M  V30 1122 H 106.445 -0.102883 -2.99223 0
M  V30 1123 H 103.991 -0.0509219 -1.4391 0
M  V30 1124 H 105.944 2.26915 -3.55088 0
M  V30 1125 H 104.668 2.30995 -2.30887 0
M  V30 1126 H 103.327 0.622499 -3.61276 0
M  V30 1127 H 102.975 3.07057 -3.98403 0
M  V30 1128 H 102.675 2.13925 -5.47275 0
M  V30 1129 H 104.199 3.05317 -5.28786 0
M  V30 1130 H 105.613 0.814929 -5.67478 0
M  V30 1131 H 104.01 0.0937929 -6.00027 0
M  V30 1132 H 105.08 -0.65921 -4.80398 0
M  V30 1133 N 106.423 1.57458 -0.0668435 0
M  V30 1134 C 107.648 1.9804 0.616027 0
M  V30 1135 C 108.073 0.944771 1.62652 0
M  V30 1136 O 107.431 -0.0902094 1.81075 0
M  V30 1137 C 107.479 3.37665 1.26549 0
M  V30 1138 O 106.583 3.36701 2.38131 0
M  V30 1139 H 105.924 0.644719 0.158849 0
M  V30 1140 H 108.454 2.04121 -0.139891 0
M  V30 1141 H 108.464 3.7474 1.6135 0
M  V30 1142 H 107.139 4.12573 0.525016 0
M  V30 1143 H 105.716 3.1139 2.0516 0
M  V30 1144 N 107.901 -0.206675 1.56239 0
M  V30 1145 C 108.834 -1.28383 1.88661 0
M  V30 1146 C 109.812 -1.44504 0.745481 0
M  V30 1147 O 110.996 -1.60079 0.995336 0
M  V30 1148 C 108.123 -2.65211 2.10667 0
M  V30 1149 C 107.169 -2.66025 3.33366 0
M  V30 1150 S 108.002 -2.18609 4.88846 0
M  V30 1151 C 109.158 -3.57283 5.13906 0
M  V30 1152 H 109.391 -1.00691 2.7973 0
M  V30 1153 H 106.924 -0.409627 1.48867 0
M  V30 1154 H 108.882 -3.43979 2.24029 0
M  V30 1155 H 107.543 -2.90121 1.20369 0
M  V30 1156 H 106.736 -3.66607 3.45855 0
M  V30 1157 H 106.338 -1.95331 3.18938 0
M  V30 1158 H 108.63 -4.53074 5.03717 0
M  V30 1159 H 109.573 -3.49699 6.15724 0
M  V30 1160 H 109.981 -3.51659 4.41583 0
M  V30 1161 N 109.379 -1.50304 -0.473955 0
M  V30 1162 C 110.309 -1.71886 -1.58042 0
M  V30 1163 C 111.29 -0.567799 -1.60344 0
M  V30 1164 O 112.475 -0.806623 -1.76656 0
M  V30 1165 C 109.605 -1.81036 -2.96384 0
M  V30 1166 C 108.559 -2.962 -3.08949 0
M  V30 1167 C 107.885 -2.9049 -4.48909 0
M  V30 1168 C 109.185 -4.36752 -2.86434 0
M  V30 1169 H 110.879 -2.64527 -1.40234 0
M  V30 1170 H 108.425 -1.27295 -0.673201 0
M  V30 1171 H 110.378 -1.94719 -3.73714 0
M  V30 1172 H 109.102 -0.850147 -3.15341 0
M  V30 1173 H 107.761 -2.82164 -2.3405 0
M  V30 1174 H 107.409 -1.92321 -4.64781 0
M  V30 1175 H 107.109 -3.67802 -4.58253 0
M  V30 1176 H 108.633 -3.06218 -5.28264 0
M  V30 1177 H 110.047 -4.5133 -3.53517 0
M  V30 1178 H 108.444 -5.15493 -3.07225 0
M  V30 1179 H 109.514 -4.49321 -1.82316 0
M  V30 1180 N 110.857 0.726932 -1.39834 0
M  V30 1181 C 112.134 1.47902 -1.28001 0
M  V30 1182 C 112.514 2.1083 0.106789 0
M  V30 1183 O 111.862 1.99242 1.11869 0
M  V30 1184 C 112.072 2.52392 -2.41038 0
M  V30 1185 C 113.42 3.18546 -2.80737 0
M  V30 1186 O 114.444 2.62708 -2.40547 0
M  V30 1187 O 113.303 4.19604 -3.50135 0
M  V30 1188 H 110.397 0.657163 -0.502062 0
M  V30 1189 H 112.943 0.760071 -1.51727 0
M  V30 1190 H 111.715 2.04329 -3.33715 0
M  V30 1191 H 111.338 3.31837 -2.19021 0
M  V30 1192 N 112.336 1.25143 0.95797 0
M  V30 1193 C 113.561 1.12521 1.74223 0
M  V30 1194 C 113.986 -0.317402 1.85403 0
M  V30 1195 O 113.344 -1.2299 1.33204 0
M  V30 1196 C 113.392 1.78062 3.1357 0
M  V30 1197 O 112.496 1.058 3.98598 0
M  V30 1198 H 111.837 0.39304 0.535178 0
M  V30 1199 H 114.367 1.65641 1.201 0
M  V30 1200 H 114.377 1.84213 3.64046 0
M  V30 1201 H 113.052 2.83021 3.04749 0
M  V30 1202 H 111.629 1.07506 3.57067 0
M  V30 1203 N 113.814 -1.1601 1.06675 0
M  V30 1204 C 114.764 -2.18512 0.650888 0
M  V30 1205 C 115.748 -1.57677 -0.320441 0
M  V30 1206 O 116.94 -1.76482 -0.135266 0
M  V30 1207 C 114.069 -3.43273 0.0429255 0
M  V30 1208 C 113.155 -4.11176 1.03898 0
M  V30 1209 N 113.546 -4.54672 2.216 0
M  V30 1210 C 111.844 -4.37417 0.870779 0
M  V30 1211 C 112.545 -5.07248 2.84736 0
M  V30 1212 N 111.521 -5.0037 2.12441 0
M  V30 1213 H 115.323 -2.49863 1.54745 0
M  V30 1214 H 112.837 -1.32503 0.938975 0
M  V30 1215 H 114.834 -4.16006 -0.272857 0
M  V30 1216 H 113.494 -3.13408 -0.84884 0
M  V30 1217 H 114.505 -4.4828 2.59356 0
M  V30 1218 H 111.182 -4.17488 0.0313293 0
M  V30 1219 H 112.572 -5.50912 3.84636 0
M  V30 1220 N 115.292 -0.849877 -1.32721 0
M  V30 1221 C 116.54 -0.450032 -1.97026 0
M  V30 1222 C 116.861 0.996604 -1.67609 0
M  V30 1223 O 116.131 1.6958 -0.980786 0
M  V30 1224 H 114.711 -0.163426 -0.728904 0
M  V30 1225 H 117.373 -1.08526 -1.6189 0
M  V30 1226 H 116.469 -0.591146 -3.0645 0
M  V30 1227 N 116.77 1.45427 -0.607355 0
M  V30 1228 C 118.017 2.02241 -0.102455 0
M  V30 1229 C 118.345 1.4758 1.26691 0
M  V30 1230 O 117.6 0.640468 1.84923 0
M  V30 1231 C 117.899 3.57398 -0.0129263 0
M  V30 1232 C 117.565 4.3121 -1.31792 0
M  V30 1233 C 116.227 4.51092 -1.67539 0
M  V30 1234 C 118.579 4.73401 -2.18039 0
M  V30 1235 C 115.907 5.10422 -2.89285 0
M  V30 1236 C 118.259 5.34078 -3.39034 0
M  V30 1237 C 116.923 5.52184 -3.75033 0
M  V30 1238 H 116.193 0.740051 -0.037491 0
M  V30 1239 H 118.84 1.74494 -0.788926 0
M  V30 1240 H 117.145 3.84421 0.756806 0
M  V30 1241 H 118.842 3.99061 0.393881 0
M  V30 1242 H 115.432 4.16047 -1.02968 0
M  V30 1243 H 119.616 4.57774 -1.91721 0
M  V30 1244 H 114.872 5.22629 -3.17283 0
M  V30 1245 H 119.046 5.65724 -4.06115 0
M  V30 1246 H 116.673 5.97925 -4.69457 0
M  V30 1247 N 118.248 0.346503 1.53744 0
M  V30 1248 C 119.158 -0.517293 2.28826 0
M  V30 1249 C 120.174 -1.10935 1.3405 0
M  V30 1250 O 121.35 -1.1244 1.6709 0
M  V30 1251 C 118.415 -1.65098 3.04866 0
M  V30 1252 C 117.476 -1.0884 4.15274 0
M  V30 1253 C 116.709 -2.16806 4.87679 0
M  V30 1254 O 116.932 -3.3758 4.59778 0
M  V30 1255 O 115.866 -1.80934 5.74061 0
M  V30 1256 H 119.692 0.0931396 3.03557 0
M  V30 1257 H 117.277 0.111458 1.48984 0
M  V30 1258 H 119.159 -2.31053 3.5241 0
M  V30 1259 H 117.834 -2.24717 2.32989 0
M  V30 1260 H 116.741 -0.3933 3.72027 0
M  V30 1261 H 118.074 -0.537036 4.89261 0
M  V30 1262 N 119.726 -1.57421 0.075193 0
M  V30 1263 C 120.674 -2.14124 -0.908508 0
M  V30 1264 C 121.668 -1.07898 -1.30592 0
M  V30 1265 O 122.874 -1.26273 -1.28277 0
M  V30 1266 H 119.249 -0.684707 -0.310935 0
M  V30 1267 H 121.22 -2.95634 -0.405374 0
M  V30 1268 C 119.969 -2.72044 -2.16535 0
M  V30 1269 H 119.292 -3.53456 -1.86839 0
M  V30 1270 H 120.732 -3.15311 -2.83469 0
M  V30 1271 C 119.191 -1.66968 -2.92615 0
M  V30 1272 O 119.721 -1.0967 -3.86439 0
M  V30 1273 N 117.927 -1.37923 -2.55784 0
M  V30 1274 H 117.474 -1.84706 -1.79559 0
M  V30 1275 H 117.432 -0.67852 -3.06991 0
M  V30 1276 N 121.204 0.198386 -1.56346 0
M  V30 1277 C 122.453 0.917451 -1.79627 0
M  V30 1278 C 122.766 1.8456 -0.64784 0
M  V30 1279 O 123.972 2.60504 -0.764859 0
M  V30 1280 C 122.428 1.68175 -3.18191 0
M  V30 1281 C 122.036 0.798589 -4.40825 0
M  V30 1282 C 123.78 2.39065 -3.50782 0
M  V30 1283 C 121.687 1.56157 -5.70411 0
M  V30 1284 H 120.617 0.346317 -0.669762 0
M  V30 1285 H 123.268 0.170801 -1.82703 0
M  V30 1286 H 121.65 2.47216 -3.09354 0
M  V30 1287 H 122.824 0.0470665 -4.60776 0
M  V30 1288 H 121.139 0.200686 -4.15916 0
M  V30 1289 H 123.736 2.96692 -4.44835 0
M  V30 1290 H 124.079 3.13091 -2.74371 0
M  V30 1291 H 124.612 1.66993 -3.61052 0
M  V30 1292 H 121.351 0.864142 -6.49779 0
M  V30 1293 H 120.871 2.2871 -5.54483 0
M  V30 1294 H 122.55 2.11622 -6.11412 0
M  V30 1295 N 122.682 1.50554 0.465978 0
M  V30 1296 C 123.612 1.72722 1.57128 0
M  V30 1297 C 124.593 0.576294 1.6004 0
M  V30 1298 O 125.778 0.81598 1.76225 0
M  V30 1299 C 122.908 1.82605 2.95419 0
M  V30 1300 C 121.862 2.97835 3.07373 0
M  V30 1301 C 121.188 2.92867 4.47363 0
M  V30 1302 C 122.488 4.38265 2.84114 0
M  V30 1303 H 124.182 2.65267 1.38829 0
M  V30 1304 H 121.728 1.2765 0.666441 0
M  V30 1305 H 123.681 1.96698 3.72677 0
M  V30 1306 H 122.405 0.866858 3.14886 0
M  V30 1307 H 121.064 2.83401 2.3255 0
M  V30 1308 H 120.712 1.94783 4.63755 0
M  V30 1309 H 120.412 3.70227 4.56296 0
M  V30 1310 H 121.936 3.09015 5.26633 0
M  V30 1311 H 123.35 4.53198 3.51118 0
M  V30 1312 H 121.747 5.17115 3.04487 0
M  V30 1313 H 122.817 4.50281 1.7993 0
M  V30 1314 N 124.16 -0.719506 1.40217 0
M  V30 1315 C 125.092 -1.84428 1.36084 0
M  V30 1316 C 126.105 -1.60597 0.266913 0
M  V30 1317 O 127.294 -1.70544 0.526983 0
M  V30 1318 C 124.394 -3.20757 1.094 0
M  V30 1319 C 123.567 -3.71817 2.30372 0
M  V30 1320 C 122.626 -4.86748 1.99907 0
M  V30 1321 O 121.652 -4.99603 2.72737 0
M  V30 1322 N 122.854 -5.7226 0.974635 0
M  V30 1323 H 125.619 -1.88473 2.33019 0
M  V30 1324 H 123.18 -0.900885 1.3452 0
M  V30 1325 H 125.172 -3.95235 0.870116 0
M  V30 1326 H 123.742 -3.11884 0.211452 0
M  V30 1327 H 122.962 -2.88514 2.68614 0
M  V30 1328 H 124.25 -4.02666 3.11026 0
M  V30 1329 H 123.648 -5.6448 0.371368 0
M  V30 1330 H 122.205 -6.46739 0.810656 0
M  V30 1331 N 125.638 -1.25649 -0.95132 0
M  V30 1332 C 126.548 -1.08073 -2.08224 0
M  V30 1333 C 127.564 -0.0169666 -1.73992 0
M  V30 1334 O 128.74 -0.218593 -2.0021 0
M  V30 1335 C 125.805 -0.704922 -3.39458 0
M  V30 1336 C 124.866 -1.84699 -3.87537 0
M  V30 1337 C 124.099 -1.48902 -5.12508 0
M  V30 1338 O 124.322 -0.386156 -5.69091 0
M  V30 1339 O 123.256 -2.32033 -5.55378 0
M  V30 1340 H 127.082 -2.02924 -2.25954 0
M  V30 1341 H 124.667 -1.04618 -1.06656 0
M  V30 1342 H 126.549 -0.507609 -4.18332 0
M  V30 1343 H 125.224 0.214291 -3.2299 0
M  V30 1344 H 124.131 -2.09919 -3.09653 0
M  V30 1345 H 125.464 -2.74557 -4.08509 0
M  V30 1346 N 127.117 1.15442 -1.07289 0
M  V30 1347 C 128.05 2.19135 -0.636798 0
M  V30 1348 C 129.028 1.58884 0.34562 0
M  V30 1349 O 130.212 1.86805 0.252195 0
M  V30 1350 C 127.339 3.38638 0.0650014 0
M  V30 1351 C 126.385 4.17412 -0.87576 0
M  V30 1352 S 127.218 4.79882 -2.37642 0
M  V30 1353 C 128.374 6.02753 -1.6864 0
M  V30 1354 H 128.607 2.55787 -1.51526 0
M  V30 1355 H 126.14 1.26394 -0.886793 0
M  V30 1356 H 128.098 4.07873 0.463664 0
M  V30 1357 H 126.759 3.00331 0.919801 0
M  V30 1358 H 125.952 5.02909 -0.33143 0
M  V30 1359 H 125.554 3.53722 -1.21478 0
M  V30 1360 H 127.846 6.70113 -0.997753 0
M  V30 1361 H 128.789 6.61754 -2.51967 0
M  V30 1362 H 129.197 5.52355 -1.16465 0
M  V30 1363 N 128.595 0.856903 1.32268 0
M  V30 1364 C 129.525 0.31858 2.31316 0
M  V30 1365 C 130.506 -0.583487 1.59779 0
M  V30 1366 O 131.691 -0.503259 1.87566 0
M  V30 1367 C 128.821 -0.491979 3.43798 0
M  V30 1368 C 127.775 0.315849 4.26833 0
M  V30 1369 C 127.101 -0.619586 5.31098 0
M  V30 1370 C 128.401 1.54282 4.98993 0
M  V30 1371 H 130.095 1.14621 2.76591 0
M  V30 1372 H 127.641 0.552613 1.32974 0
M  V30 1373 H 129.594 -0.879012 4.1213 0
M  V30 1374 H 128.318 -1.35299 2.97257 0
M  V30 1375 H 126.977 0.684664 3.6015 0
M  V30 1376 H 126.625 -1.47751 4.8081 0
M  V30 1377 H 126.325 -0.0830621 5.87541 0
M  V30 1378 H 127.849 -1.00375 6.02293 0
M  V30 1379 H 129.263 1.22796 5.59995 0
M  V30 1380 H 127.66 2.01745 5.65172 0
M  V30 1381 H 128.73 2.30285 4.26728 0
M  V30 1382 N 130.073 -1.45103 0.615059 0
M  V30 1383 C 131.005 -2.28786 -0.13762 0
M  V30 1384 C 132.018 -1.40376 -0.824525 0
M  V30 1385 O 133.207 -1.64681 -0.688662 0
M  V30 1386 C 130.307 -3.16322 -1.21628 0
M  V30 1387 C 129.48 -4.33054 -0.615039 0
M  V30 1388 C 128.539 -5.01743 -1.58556 0
M  V30 1389 O 127.565 -5.58293 -1.10895 0
M  V30 1390 N 128.767 -5.01714 -2.91998 0
M  V30 1391 H 131.532 -2.94025 0.580483 0
M  V30 1392 H 129.093 -1.55373 0.45507 0
M  V30 1393 H 131.085 -3.59139 -1.86552 0
M  V30 1394 H 129.655 -2.52943 -1.83681 0
M  V30 1395 H 128.875 -3.93627 0.21245 0
M  V30 1396 H 130.163 -5.08431 -0.193704 0
M  V30 1397 H 129.561 -4.57075 -3.33316 0
M  V30 1398 H 128.118 -5.48371 -3.52325 0
M  V30 1399 N 131.551 -0.354651 -1.53558 0
M  V30 1400 C 132.776 0.242153 -2.05981 0
M  V30 1401 C 133.201 1.42553 -1.2272 0
M  V30 1402 O 132.559 1.79656 -0.243604 0
M  V30 1403 C 132.607 0.624367 -3.55154 0
M  V30 1404 O 131.711 1.72301 -3.74681 0
M  V30 1405 H 131.052 0.0378432 -0.662921 0
M  V30 1406 H 133.582 -0.512087 -1.98088 0
M  V30 1407 H 133.592 0.898433 -3.97985 0
M  V30 1408 H 132.267 -0.240989 -4.15201 0
M  V30 1409 H 130.844 1.44535 -3.4375 0
M  V30 1410 N 133.029 1.57378 -0.0835403 0
M  V30 1411 C 134.278 1.93106 0.582498 0
M  V30 1412 C 134.591 0.96651 1.70053 0
M  V30 1413 O 135.797 1.21705 2.42693 0
M  V30 1414 C 134.253 3.43076 1.08751 0
M  V30 1415 C 133.861 4.48 -0.000146404 0
M  V30 1416 C 135.605 3.87785 1.72694 0
M  V30 1417 C 133.512 5.89113 0.519568 0
M  V30 1418 H 132.442 0.720775 0.221358 0
M  V30 1419 H 135.093 1.82821 -0.157675 0
M  V30 1420 H 133.475 3.48474 1.88101 0
M  V30 1421 H 134.649 4.54233 -0.775199 0
M  V30 1422 H 132.964 4.1283 -0.54406 0
M  V30 1423 H 135.561 4.90604 2.1263 0
M  V30 1424 H 135.904 3.25796 2.59158 0
M  V30 1425 H 136.437 3.8504 0.999457 0
M  V30 1426 H 133.176 6.54775 -0.308186 0
M  V30 1427 H 132.696 5.86376 1.26188 0
M  V30 1428 H 134.375 6.39346 0.992237 0
M  V30 1429 N 134.507 -0.190092 1.56449 0
M  V30 1430 C 135.735 -0.925772 1.85033 0
M  V30 1431 C 136.15 -1.76638 0.666658 0
M  V30 1432 O 135.507 -1.78822 -0.364565 0
M  V30 1433 C 135.558 -1.81786 3.12468 0
M  V30 1434 O 135.279 -1.01118 4.26271 0
M  V30 1435 C 136.78 -2.6648 3.54265 0
M  V30 1436 H 134 -0.269872 0.614337 0
M  V30 1437 H 136.544 -0.195837 2.0356 0
M  V30 1438 H 134.699 -2.50136 2.95822 0
M  V30 1439 H 135.113 -1.61956 4.98869 0
M  V30 1440 H 136.587 -3.24722 4.46385 0
M  V30 1441 H 137.064 -3.40434 2.77491 0
M  V30 1442 H 137.67 -2.03493 3.73458 0
M  V30 1443 N 135.985 -1.50799 -0.457987 0
M  V30 1444 C 136.915 -1.73553 -1.5621 0
M  V30 1445 C 137.896 -0.584774 -1.59732 0
M  V30 1446 O 139.081 -0.825314 -1.7579 0
M  V30 1447 C 136.211 -1.84169 -2.94447 0
M  V30 1448 C 135.165 -2.99461 -3.0579 0
M  V30 1449 C 134.491 -2.95235 -4.45803 0
M  V30 1450 C 135.791 -4.39766 -2.81786 0
M  V30 1451 H 137.485 -2.66 -1.37421 0
M  V30 1452 H 135.031 -1.28002 -0.659662 0
M  V30 1453 H 136.984 -1.98672 -3.71628 0
M  V30 1454 H 135.708 -0.883545 -3.14422 0
M  V30 1455 H 134.367 -2.8463 -2.31044 0
M  V30 1456 H 134.015 -1.97239 -4.62715 0
M  V30 1457 H 133.715 -3.72642 -4.54326 0
M  V30 1458 H 135.239 -3.11803 -5.24987 0
M  V30 1459 H 136.653 -4.55054 -3.4871 0
M  V30 1460 H 135.05 -5.18722 -3.0174 0
M  V30 1461 H 136.12 -4.51229 -1.7754 0
M  V30 1462 N 137.463 0.71206 -1.40597 0
M  V30 1463 C 138.41 1.82613 -1.41142 0
M  V30 1464 C 139.38 1.63925 -0.267903 0
M  V30 1465 O 140.565 1.85009 -0.466495 0
M  V30 1466 C 137.705 3.20354 -1.28324 0
M  V30 1467 C 136.818 3.50589 -2.52411 0
M  V30 1468 C 135.953 4.77855 -2.32009 0
M  V30 1469 C 134.992 5.01005 -3.51654 0
M  V30 1470 N 134.129 6.19487 -3.30425 0
M  V30 1471 H 138.969 1.81482 -2.36365 0
M  V30 1472 H 136.506 0.886475 -1.17388 0
M  V30 1473 H 138.464 3.99899 -1.18899 0
M  V30 1474 H 137.094 3.20705 -0.367189 0
M  V30 1475 H 136.146 2.65573 -2.72351 0
M  V30 1476 H 137.458 3.63604 -3.41458 0
M  V30 1477 H 136.612 5.65424 -2.19956 0
M  V30 1478 H 135.351 4.67056 -1.40392 0
M  V30 1479 H 134.356 4.1189 -3.64179 0
M  V30 1480 H 135.581 5.13674 -4.44202 0
M  V30 1481 H 133.527 6.09932 -2.41494 0
M  V30 1482 H 133.444 6.33194 -4.13039 0
M  V30 1483 H 134.712 7.09834 -3.22113 0
M  V30 1484 N 138.941 1.26152 0.944643 0
M  V30 1485 C 140.169 1.14259 1.72489 0
M  V30 1486 C 140.584 -0.302555 1.8636 0
M  V30 1487 O 139.941 -1.20741 1.36849 0
M  V30 1488 C 139.992 1.80266 3.13347 0
M  V30 1489 O 139.713 3.19133 3.00143 0
M  V30 1490 C 141.214 1.74283 4.07603 0
M  V30 1491 H 138.434 0.398051 0.540181 0
M  V30 1492 H 140.978 1.66706 1.18446 0
M  V30 1493 H 139.133 1.31766 3.64303 0
M  V30 1494 H 139.547 3.51744 3.89071 0
M  V30 1495 H 141.021 2.25111 5.04013 0
M  V30 1496 H 141.498 0.708631 4.33446 0
M  V30 1497 H 142.104 2.22319 3.62567 0
M  V30 1498 N 140.419 -1.14872 1.07899 0
M  V30 1499 C 141.667 -1.85422 0.803941 0
M  V30 1500 C 141.988 -1.83051 -0.67211 0
M  V30 1501 O 141.258 -1.27532 -1.48703 0
M  V30 1502 H 139.838 -0.686537 0.294408 0
M  V30 1503 H 142.5 -1.39226 1.3639 0
M  V30 1504 H 141.596 -2.90399 1.14346 0
M  V30 1505 N 141.898 -0.863906 -1.31812 0
M  V30 1506 C 142.808 -0.318461 -2.32428 0
M  V30 1507 C 143.824 0.568496 -1.64451 0
M  V30 1508 O 145 0.46666 -1.95919 0
M  V30 1509 C 142.065 0.476355 -3.43412 0
M  V30 1510 C 141.126 -0.43784 -4.27061 0
M  V30 1511 C 140.359 0.319138 -5.32745 0
M  V30 1512 O 140.582 1.54799 -5.48993 0
M  V30 1513 O 139.516 -0.319861 -6.01049 0
M  V30 1514 H 143.342 -1.15229 -2.80991 0
M  V30 1515 H 140.927 -0.627103 -1.35602 0
M  V30 1516 H 142.809 0.927156 -4.11074 0
M  V30 1517 H 141.484 1.28683 -2.97022 0
M  V30 1518 H 140.391 -0.937013 -3.62175 0
M  V30 1519 H 141.724 -1.21375 -4.77 0
M  V30 1520 N 143.376 1.44774 -0.622745 0
M  V30 1521 C 144.306 2.33382 0.0741861 0
M  V30 1522 C 145.287 1.47719 0.843387 0
M  V30 1523 O 146.472 1.76458 0.810934 0
M  V30 1524 C 143.602 3.30663 1.06204 0
M  V30 1525 C 142.556 4.26079 0.405037 0
M  V30 1526 C 141.882 5.13165 1.5022 0
M  V30 1527 C 143.182 5.1781 -0.683414 0
M  V30 1528 H 144.876 2.91905 -0.665713 0
M  V30 1529 H 142.422 1.40363 -0.321587 0
M  V30 1530 H 144.375 3.9153 1.55827 0
M  V30 1531 H 143.099 2.70331 1.83272 0
M  V30 1532 H 141.758 3.66532 -0.0704683 0
M  V30 1533 H 141.406 4.49191 2.26355 0
M  V30 1534 H 141.106 5.77812 1.06803 0
M  V30 1535 H 142.63 5.76902 2.00041 0
M  V30 1536 H 144.044 5.72661 -0.270631 0
M  V30 1537 H 142.441 5.91015 -1.04023 0
M  V30 1538 H 143.511 4.59326 -1.55395 0
M  V30 1539 N 144.854 0.36279 1.53368 0
M  V30 1540 C 145.784 -0.476976 2.28576 0
M  V30 1541 C 146.765 -1.08631 1.30894 0
M  V30 1542 O 147.95 -1.10409 1.59761 0
M  V30 1543 C 145.08 -1.61828 3.07293 0
M  V30 1544 C 144.034 -1.13633 4.1264 0
M  V30 1545 C 143.36 -2.36766 4.79423 0
M  V30 1546 C 144.66 -0.223061 5.21823 0
M  V30 1547 H 146.354 0.150474 2.99022 0
M  V30 1548 H 143.9 0.0738103 1.43811 0
M  V30 1549 H 145.853 -2.21237 3.58653 0
M  V30 1550 H 144.577 -2.27292 2.34533 0
M  V30 1551 H 143.236 -0.564945 3.62221 0
M  V30 1552 H 142.884 -3.0068 4.03238 0
M  V30 1553 H 142.584 -2.05192 5.50609 0
M  V30 1554 H 144.108 -2.96865 5.33576 0
M  V30 1555 H 145.522 -0.724545 5.68703 0
M  V30 1556 H 143.919 0.001678 6.001 0
M  V30 1557 H 144.989 0.735553 4.79289 0
M  V30 1558 N 146.332 -1.57332 0.0918853 0
M  V30 1559 C 147.58 -1.93853 -0.571446 0
M  V30 1560 C 147.901 -0.974212 -1.6892 0
M  V30 1561 O 147.171 -0.0257254 -1.95883 0
M  V30 1562 H 145.751 -0.715666 -0.214082 0
M  V30 1563 H 148.413 -1.94287 0.154464 0
M  V30 1564 H 147.509 -2.96191 -0.983729 0
M  V30 1565 N 147.81 0.181792 -1.56548 0
M  V30 1566 C 148.773 1.20894 -1.94724 0
M  V30 1567 C 149.773 1.37738 -0.829747 0
M  V30 1568 O 150.963 1.35323 -1.09697 0
M  V30 1569 C 148.095 2.57593 -2.23291 0
M  V30 1570 H 149.288 0.882275 -2.86629 0
M  V30 1571 H 146.841 0.423838 -1.50444 0
M  V30 1572 H 147.576 2.95291 -1.34067 0
M  V30 1573 H 147.361 2.46735 -3.04736 0
M  V30 1574 H 148.851 3.31637 -2.53785 0
M  V30 1575 N 149.288 1.51039 0.449983 0
M  V30 1576 C 150.565 1.53612 1.21089 0
M  V30 1577 C 150.945 0.292997 2.09057 0
M  V30 1578 O 150.293 -0.72259 2.16774 0
M  V30 1579 C 150.503 2.84337 2.0237 0
M  V30 1580 C 151.851 3.35807 2.59843 0
M  V30 1581 O 152.875 2.85802 2.12593 0
M  V30 1582 O 151.734 4.23029 3.45989 0
M  V30 1583 H 148.828 0.617057 0.550608 0
M  V30 1584 H 151.374 1.63344 0.460082 0
M  V30 1585 H 150.146 3.66278 1.37681 0
M  V30 1586 H 149.769 2.77708 2.84542 0
M  V30 1587 N 150.766 -0.704594 1.40972 0
M  V30 1588 C 152.182 -1.01406 1.23244 0
M  V30 1589 C 152.382 -2.01169 0.115399 0
M  V30 1590 O 151.438 -2.47021 -0.523147 0
M  V30 1591 C 152.751 -1.54728 2.57836 0
M  V30 1592 C 154.299 -1.66658 2.64942 0
M  V30 1593 C 154.774 -2.23383 3.9983 0
M  V30 1594 N 156.265 -2.30756 4.01629 0
M  V30 1595 C 157 -2.75655 5.02794 0
M  V30 1596 N 156.496 -3.20225 6.14352 0
M  V30 1597 N 158.289 -2.75138 4.90159 0
M  V30 1598 H 150.44 -0.0435285 2.12355 0
M  V30 1599 H 152.703 -0.0818951 0.944456 0
M  V30 1600 H 152.409 -0.888832 3.40283 0
M  V30 1601 H 152.283 -2.53084 2.79693 0
M  V30 1602 H 154.67 -2.31617 1.8286 0
M  V30 1603 H 154.751 -0.668717 2.46904 0
M  V30 1604 H 154.395 -1.59043 4.82357 0
M  V30 1605 H 154.325 -3.23904 4.15203 0
M  V30 1606 H 156.816 -1.99291 3.21079 0
M  V30 1607 H 157.129 -3.53084 6.87424 0
M  V30 1608 H 155.474 -3.18156 6.17901 0
M  V30 1609 H 158.665 -2.39661 4.02095 0
M  V30 1610 H 158.838 -3.09812 5.6914 0
M  V30 1611 N 152.244 -1.26651 -0.937939 0
M  V30 1612 C 153.472 -1.15173 -1.7188 0
M  V30 1613 C 153.887 0.292668 -1.86518 0
M  V30 1614 O 153.244 1.20014 -1.37488 0
M  V30 1615 C 153.295 -1.81925 -3.12387 0
M  V30 1616 O 153.016 -3.2072 -2.98446 0
M  V30 1617 C 154.517 -1.76442 -4.06673 0
M  V30 1618 H 151.737 -0.400911 -0.538063 0
M  V30 1619 H 154.281 -1.67332 -1.1756 0
M  V30 1620 H 152.436 -1.33696 -3.63599 0
M  V30 1621 H 152.85 -3.53802 -3.872 0
M  V30 1622 H 154.324 -2.27781 -5.02812 0
M  V30 1623 H 154.801 -0.731608 -4.33064 0
M  V30 1624 H 155.407 -2.24238 -3.61382 0
M  V30 1625 N 153.722 1.14298 -1.08507 0
M  V30 1626 C 154.95 1.89219 -0.836876 0
M  V30 1627 C 155.365 1.78638 0.611054 0
M  V30 1628 O 154.722 1.14643 1.41998 0
M  V30 1629 C 154.773 3.39158 -1.25116 0
M  V30 1630 O 154.494 3.49449 -2.64229 0
M  V30 1631 C 155.995 4.31073 -1.03398 0
M  V30 1632 H 153.215 0.599328 -0.301739 0
M  V30 1633 H 155.759 1.44746 -1.44461 0
M  V30 1634 H 153.914 3.81251 -0.687514 0
M  V30 1635 H 154.328 4.42589 -2.81452 0
M  V30 1636 H 155.802 5.34646 -1.37323 0
M  V30 1637 H 156.279 4.3919 0.0289259 0
M  V30 1638 H 156.885 3.94738 -1.58311 0
M  V30 1639 N 155.201 0.870884 1.31352 0
M  V30 1640 C 156.45 0.478408 1.95944 0
M  V30 1641 C 156.763 -0.974493 1.69597 0
M  V30 1642 O 157.969 -1.47316 2.28058 0
M  V30 1643 C 156.425 0.804609 3.50791 0
M  V30 1644 C 156.033 2.27433 3.85977 0
M  V30 1645 C 157.777 0.480648 4.2177 0
M  V30 1646 C 155.684 2.5429 5.33939 0
M  V30 1647 H 154.614 0.175175 0.733369 0
M  V30 1648 H 157.265 1.06391 1.4951 0
M  V30 1649 H 155.647 0.148347 3.95722 0
M  V30 1650 H 156.821 2.97373 3.52002 0
M  V30 1651 H 155.136 2.56442 3.28065 0
M  V30 1652 H 157.733 0.658519 5.30629 0
M  V30 1653 H 158.076 -0.578979 4.12254 0
M  V30 1654 H 158.609 1.09349 3.82476 0
M  V30 1655 H 155.348 3.58939 5.48491 0
M  V30 1656 H 154.868 1.88945 5.69263 0
M  V30 1657 H 156.547 2.39066 6.01212 0
M  V30 1658 N 156.679 -1.44442 0.630414 0
M  V30 1659 C 157.926 -2.02052 0.134617 0
M  V30 1660 C 158.254 -1.49576 -1.24327 0
M  V30 1661 O 157.509 -0.669806 -1.83881 0
M  V30 1662 C 157.808 -3.57332 0.0697835 0
M  V30 1663 C 157.474 -4.29058 1.38635 0
M  V30 1664 C 156.136 -4.4837 1.74694 0
M  V30 1665 C 158.488 -4.69872 2.25543 0
M  V30 1666 C 155.816 -5.05756 2.97369 0
M  V30 1667 C 158.168 -5.28616 3.47487 0
M  V30 1668 C 156.832 -5.46147 3.8377 0
M  V30 1669 H 156.102 -0.739361 0.0492598 0
M  V30 1670 H 158.749 -1.73217 0.816586 0
M  V30 1671 H 157.054 -3.85577 -0.695553 0
M  V30 1672 H 158.751 -3.99637 -0.330344 0
M  V30 1673 H 155.341 -4.14357 1.09574 0
M  V30 1674 H 159.525 -4.54666 1.98979 0
M  V30 1675 H 154.781 -5.17515 3.25558 0
M  V30 1676 H 158.955 -5.59192 4.15063 0
M  V30 1677 H 156.582 -5.9038 4.7891 0
M  V30 1678 N 158.157 -0.370918 -1.53173 0
M  V30 1679 C 159.087 0.464847 -2.28826 0
M  V30 1680 C 160.068 1.07936 -1.31468 0
M  V30 1681 O 161.253 1.0956 -1.60344 0
M  V30 1682 C 158.383 1.60196 -3.08147 0
M  V30 1683 C 157.337 1.11443 -4.13237 0
M  V30 1684 C 156.663 2.3422 -4.80672 0
M  V30 1685 C 157.963 0.195384 -5.21934 0
M  V30 1686 H 159.657 -0.166329 -2.98938 0
M  V30 1687 H 157.203 -0.0814359 -1.4377 0
M  V30 1688 H 159.156 2.19332 -3.59822 0
M  V30 1689 H 157.88 2.26045 -2.35735 0
M  V30 1690 H 156.539 0.545727 -3.62515 0
M  V30 1691 H 156.187 2.98537 -4.04827 0
M  V30 1692 H 155.887 2.02269 -5.51689 0
M  V30 1693 H 157.411 2.94032 -5.35143 0
M  V30 1694 H 158.825 0.694375 -5.69079 0
M  V30 1695 H 157.222 -0.0335027 -6.00091 0
M  V30 1696 H 158.292 -0.760961 -4.78892 0
M  V30 1697 N 159.635 1.57281 -0.100228 0
M  V30 1698 C 160.565 2.17328 0.853857 0
M  V30 1699 C 161.546 1.10804 1.2906 0
M  V30 1700 O 162.731 1.38963 1.35657 0
M  V30 1701 C 159.861 2.75772 2.11109 0
M  V30 1702 C 158.815 3.87713 1.81279 0
M  V30 1703 C 158.141 4.32882 3.13874 0
M  V30 1704 C 159.441 5.10677 1.09574 0
M  V30 1705 H 161.135 2.97305 0.353545 0
M  V30 1706 H 158.681 1.43009 0.168612 0
M  V30 1707 H 160.634 3.16433 2.78296 0
M  V30 1708 H 159.358 1.93057 2.63432 0
M  V30 1709 H 158.017 3.476 1.16489 0
M  V30 1710 H 157.665 3.47051 3.64095 0
M  V30 1711 H 157.365 5.08358 2.94696 0
M  V30 1712 H 158.889 4.7618 3.82211 0
M  V30 1713 H 160.303 5.48474 1.66879 0
M  V30 1714 H 158.7 5.91615 1.00557 0
M  V30 1715 H 159.77 4.84835 0.0793299 0
M  V30 1716 N 161.113 -0.173488 1.56642 0
M  V30 1717 C 162.39 -0.917617 1.7274 0
M  V30 1718 C 162.77 -2.00484 0.661027 0
M  V30 1719 O 162.118 -2.26184 -0.32453 0
M  V30 1720 C 162.328 -1.48433 3.15862 0
M  V30 1721 C 163.676 -1.95809 3.76754 0
M  V30 1722 O 164.7 -1.58231 3.19126 0
M  V30 1723 O 163.559 -2.65024 4.77938 0
M  V30 1724 H 160.653 -0.431772 0.705338 0
M  V30 1725 H 163.199 -0.161487 1.6893 0
M  V30 1726 H 161.971 -0.701715 3.84957 0
M  V30 1727 H 161.594 -2.30471 3.23989 0
M  V30 1728 N 162.591 -1.51276 -0.441967 0
M  V30 1729 C 163.501 -1.75092 -1.56141 0
M  V30 1730 C 164.517 -0.634963 -1.62001 0
M  V30 1731 O 165.693 -0.916686 -1.79329 0
M  V30 1732 C 162.758 -1.86666 -2.92158 0
M  V30 1733 C 161.819 -3.10506 -2.96453 0
M  V30 1734 C 161.052 -3.21519 -4.25982 0
M  V30 1735 O 161.275 -2.38586 -5.18105 0
M  V30 1736 O 160.209 -4.14465 -4.36466 0
M  V30 1737 H 164.035 -2.70044 -1.38961 0
M  V30 1738 H 161.62 -1.35722 -0.624499 0
M  V30 1739 H 163.502 -1.96292 -3.72891 0
M  V30 1740 H 162.177 -0.949014 -3.09476 0
M  V30 1741 H 161.084 -3.06363 -2.14692 0
M  V30 1742 H 162.417 -4.01945 -2.84079 0
M  V30 1743 N 164.069 0.697108 -1.41344 0
M  V30 1744 C 164.979 1.84088 -1.45427 0
M  V30 1745 C 165.995 1.70545 -0.34501 0
M  V30 1746 O 167.171 1.92488 -0.592492 0
M  V30 1747 C 164.236 3.20056 -1.33286 0
M  V30 1748 C 163.297 3.45718 -2.54514 0
M  V30 1749 C 162.53 4.75199 -2.42944 0
M  V30 1750 O 162.753 5.51579 -1.45318 0
M  V30 1751 O 161.687 5.0161 -3.32672 0
M  V30 1752 H 165.513 1.836 -2.41919 0
M  V30 1753 H 163.098 0.849966 -1.22866 0
M  V30 1754 H 164.98 4.01236 -1.28794 0
M  V30 1755 H 163.655 3.2123 -0.39909 0
M  V30 1756 H 162.562 2.64474 -2.64583 0
M  V30 1757 H 163.895 3.49356 -3.46715 0
M  V30 1758 N 165.547 1.27147 0.931209 0
M  V30 1759 C 166.494 1.09568 2.03134 0
M  V30 1760 C 167.464 -0.00222433 1.661 0
M  V30 1761 O 168.649 0.159439 1.90133 0
M  V30 1762 C 165.789 0.745231 3.36957 0
M  V30 1763 C 164.902 1.92041 3.86968 0
M  V30 1764 C 164.037 1.51216 5.09222 0
M  V30 1765 C 163.076 2.65504 5.5152 0
M  V30 1766 N 162.213 2.25291 6.64972 0
M  V30 1767 H 167.053 2.03708 2.17502 0
M  V30 1768 H 164.59 1.01411 1.06556 0
M  V30 1769 H 166.548 0.522878 4.1391 0
M  V30 1770 H 165.178 -0.159202 3.22407 0
M  V30 1771 H 164.23 2.25541 3.06326 0
M  V30 1772 H 165.542 2.77787 4.1429 0
M  V30 1773 H 164.696 1.25084 5.93666 0
M  V30 1774 H 163.435 0.625749 4.83669 0
M  V30 1775 H 162.44 2.92354 4.65628 0
M  V30 1776 H 163.665 3.54761 5.7907 0
M  V30 1777 H 161.611 1.39098 6.41083 0
M  V30 1778 H 161.528 3.04577 6.91931 0
M  V30 1779 H 162.796 2.02398 7.52765 0
M  V30 1780 N 167.025 -1.13721 1.09112 0
M  V30 1781 C 167.957 -2.1871 0.685467 0
M  V30 1782 C 168.97 -1.60527 -0.271068 0
M  V30 1783 O 170.159 -1.78407 -0.0576148 0
M  V30 1784 C 167.259 -3.38898 -0.0111255 0
M  V30 1785 C 166.432 -4.26597 0.966131 0
M  V30 1786 C 165.491 -5.25324 0.303539 0
M  V30 1787 O 164.517 -5.61213 0.950177 0
M  V30 1788 N 165.719 -5.72779 -0.943651 0
M  V30 1789 H 168.484 -2.54126 1.58871 0
M  V30 1790 H 166.045 -1.29012 0.978143 0
M  V30 1791 H 168.037 -4.02014 -0.465517 0
M  V30 1792 H 166.607 -3.01747 -0.816565 0
M  V30 1793 H 165.827 -3.60306 1.59917 0
M  V30 1794 H 167.115 -4.82048 1.6281 0
M  V30 1795 H 166.513 -5.45762 -1.48862 0
M  V30 1796 H 165.07 -6.37847 -1.34142 0
M  V30 1797 N 168.503 -0.877838 -1.30888 0
M  V30 1798 C 169.413 -0.343096 -2.32078 0
M  V30 1799 C 170.429 0.551022 -1.65045 0
M  V30 1800 O 171.605 0.445854 -1.96403 0
M  V30 1801 C 168.67 0.439905 -3.43898 0
M  V30 1802 C 167.731 -0.483111 -4.26573 0
M  V30 1803 C 166.964 0.262616 -5.33053 0
M  V30 1804 O 167.187 1.48967 -5.50604 0
M  V30 1805 O 166.121 -0.383593 -6.00676 0
M  V30 1806 H 169.947 -1.18203 -2.79753 0
M  V30 1807 H 167.532 -0.64145 -1.34929 0
M  V30 1808 H 169.414 0.883504 -4.12034 0
M  V30 1809 H 168.089 1.25526 -2.98371 0
M  V30 1810 H 166.996 -0.975374 -3.61161 0
M  V30 1811 H 168.329 -1.26427 -4.75686 0
M  V30 1812 N 169.982 1.44106 -0.638065 0
M  V30 1813 C 170.912 2.33448 0.0494287 0
M  V30 1814 C 171.893 1.48606 0.827672 0
M  V30 1815 O 173.078 1.77308 0.792173 0
M  V30 1816 C 170.208 3.31771 1.02691 0
M  V30 1817 C 169.162 4.26485 0.359823 0
M  V30 1818 C 168.488 5.14729 1.44769 0
M  V30 1819 C 169.788 5.17056 -0.738296 0
M  V30 1820 H 171.482 2.91183 -0.696636 0
M  V30 1821 H 169.028 1.40014 -0.336456 0
M  V30 1822 H 170.981 3.93161 1.51666 0
M  V30 1823 H 169.705 2.7226 1.80395 0
M  V30 1824 H 168.364 3.66437 -0.10934 0
M  V30 1825 H 168.012 4.51566 2.21578 0
M  V30 1826 H 167.712 5.78913 1.00668 0
M  V30 1827 H 169.236 5.78991 1.93911 0
M  V30 1828 H 170.65 5.72342 -0.331354 0
M  V30 1829 H 169.047 5.89879 -1.10286 0
M  V30 1830 H 170.117 4.57652 -1.60258 0
M  V30 1831 N 171.46 0.379036 1.52974 0
M  V30 1832 C 172.706 -0.199244 2.02422 0
M  V30 1833 C 173.061 -1.4532 1.26095 0
M  V30 1834 O 172.354 -1.88377 0.34996 0
M  V30 1835 C 172.548 -0.53096 3.53434 0
M  V30 1836 C 172.377 0.689298 4.44386 0
M  V30 1837 C 171.147 1.20546 4.9071 0
M  V30 1838 C 173.345 1.55856 4.90116 0
M  V30 1839 N 171.327 2.38434 5.65705 0
M  V30 1840 C 172.698 2.58396 5.63588 0
M  V30 1841 C 174.753 1.57986 4.7217 0
M  V30 1842 C 173.456 3.62939 6.21022 0
M  V30 1843 C 175.482 2.6143 5.30479 0
M  V30 1844 C 174.844 3.62693 6.03849 0
M  V30 1845 H 170.943 -0.0352671 0.781204 0
M  V30 1846 H 173.527 0.526614 1.87443 0
M  V30 1847 H 171.698 -1.22588 3.68547 0
M  V30 1848 H 173.43 -1.0955 3.89591 0
M  V30 1849 H 170.185 0.768022 4.67331 0
M  V30 1850 H 170.609 2.98055 6.07859 0
M  V30 1851 H 175.251 0.810475 4.14959 0
M  V30 1852 H 172.969 4.40751 6.77321 0
M  V30 1853 H 176.555 2.63949 5.18481 0
M  V30 1854 H 175.435 4.41424 6.48163 0
M  V30 1855 N 172.938 -1.57226 0.108567 0
M  V30 1856 C 174.163 -1.99604 -0.563303 0
M  V30 1857 C 174.588 -0.987563 -1.6009 0
M  V30 1858 O 173.946 0.0421687 -1.81251 0
M  V30 1859 C 173.994 -3.40902 -1.17552 0
M  V30 1860 O 173.098 -3.42896 -2.2912 0
M  V30 1861 H 172.439 -0.648704 -0.1417 0
M  V30 1862 H 174.969 -2.03679 0.193961 0
M  V30 1863 H 174.979 -3.78886 -1.51357 0
M  V30 1864 H 173.654 -4.1382 -0.415445 0
M  V30 1865 H 172.231 -3.1672 -1.96832 0
M  V30 1866 N 174.416 0.165178 -1.56732 0
M  V30 1867 C 175.665 0.879143 -1.81532 0
M  V30 1868 C 175.978 1.83144 -0.686842 0
M  V30 1869 O 177.184 2.58823 -0.819944 0
M  V30 1870 C 175.64 1.61388 -3.21686 0
M  V30 1871 C 175.248 0.704904 -4.4242 0
M  V30 1872 C 176.992 2.3157 -3.55774 0
M  V30 1873 C 174.899 1.44022 -5.73595 0
M  V30 1874 H 173.829 0.332033 -0.676957 0
M  V30 1875 H 176.48 0.132008 -1.83025 0
M  V30 1876 H 174.862 2.40599 -3.14529 0
M  V30 1877 H 176.036 -0.0506815 -4.60772 0
M  V30 1878 H 174.351 0.112419 -4.16248 0
M  V30 1879 H 176.948 2.8719 -4.51028 0
M  V30 1880 H 177.291 3.07201 -2.8095 0
M  V30 1881 H 177.824 1.59297 -3.64513 0
M  V30 1882 H 174.563 0.72612 -6.51466 0
M  V30 1883 H 174.083 2.16898 -5.5921 0
M  V30 1884 H 175.762 1.98606 -6.15764 0
M  V30 1885 N 175.894 1.51508 0.433938 0
M  V30 1886 C 177.14 1.64588 1.18484 0
M  V30 1887 C 177.473 0.362666 1.90784 0
M  V30 1888 O 176.748 -0.637892 1.83742 0
M  V30 1889 C 177.031 2.85149 2.19913 0
M  V30 1890 C 176.884 4.23456 1.51674 0
M  V30 1891 C 178.203 3.01227 3.20858 0
M  V30 1892 H 175.322 0.598994 0.429389 0
M  V30 1893 H 177.964 1.84002 0.473647 0
M  V30 1894 H 176.114 2.68729 2.80566 0
M  V30 1895 H 177.786 4.51552 0.943322 0
M  V30 1896 H 176.029 4.25998 0.819035 0
M  V30 1897 H 176.7 5.03812 2.2556 0
M  V30 1898 H 179.176 3.16382 2.70263 0
M  V30 1899 H 178.052 3.87141 3.89118 0
M  V30 1900 H 178.313 2.13447 3.8716 0
M  V30 1901 N 177.372 -0.689602 1.41712 0
M  V30 1902 C 178.335 -1.78521 1.43746 0
M  V30 1903 C 179.335 -1.57436 0.327191 0
M  V30 1904 O 180.525 -1.64 0.587348 0
M  V30 1905 C 177.657 -3.16971 1.25467 0
M  V30 1906 H 178.85 -1.78108 2.41283 0
M  V30 1907 H 176.403 -0.89781 1.27942 0
M  V30 1908 H 177.138 -3.23019 0.287948 0
M  V30 1909 H 176.923 -3.33678 2.05917 0
M  V30 1910 H 178.413 -3.96935 1.2974 0
M  V30 1911 N 178.85 -1.27639 -0.924453 0
M  V30 1912 C 179.813 -1.10681 -2.00705 0
M  V30 1913 C 180.813 -0.0497823 -1.60723 0
M  V30 1914 O 182.003 -0.294654 -1.7169 0
M  V30 1915 C 179.135 -0.687164 -3.33902 0
M  V30 1916 H 180.328 -2.06817 -2.17179 0
M  V30 1917 H 177.881 -1.10473 -1.10569 0
M  V30 1918 H 178.616 0.275439 -3.23128 0
M  V30 1919 H 178.401 -1.45061 -3.6428 0
M  V30 1920 H 179.891 -0.590853 -4.13399 0
M  V30 1921 N 180.328 1.1314 -1.09713 0
M  V30 1922 C 181.576 1.84119 -0.833338 0
M  V30 1923 C 181.897 1.84097 0.642904 0
M  V30 1924 O 181.167 1.29881 1.46655 0
M  V30 1925 H 179.747 0.681766 -0.305293 0
M  V30 1926 H 182.409 1.37038 -1.38588 0
M  V30 1927 H 181.505 2.88543 -1.18951 0
M  V30 1928 N 181.806 0.884767 1.30421 0
M  V30 1929 C 182.716 0.355398 2.31892 0
M  V30 1930 C 183.732 -0.542261 1.65335 0
M  V30 1931 O 184.908 -0.435432 1.96637 0
M  V30 1932 C 181.973 -0.421661 3.44126 0
M  V30 1933 C 181.034 0.505727 4.26311 0
M  V30 1934 C 180.267 -0.234343 5.33185 0
M  V30 1935 O 180.49 -1.46045 5.51386 0
M  V30 1936 O 179.424 0.415443 6.00465 0
M  V30 1937 H 183.25 1.19685 2.79122 0
M  V30 1938 H 180.835 0.648596 1.34587 0
M  V30 1939 H 182.717 -0.861641 4.12497 0
M  V30 1940 H 181.392 -1.23942 2.99032 0
M  V30 1941 H 180.299 0.994513 3.60639 0
M  V30 1942 H 181.632 1.28948 4.75009 0
M  V30 1943 N 183.284 -1.43765 0.645699 0
M  V30 1944 C 184.532 -2.01499 0.155731 0
M  V30 1945 C 184.853 -1.51151 -1.232 0
M  V30 1946 O 184.123 -0.721044 -1.82148 0
M  V30 1947 H 182.703 -0.745003 0.0545817 0
M  V30 1948 H 185.365 -1.76075 0.835677 0
M  V30 1949 H 184.461 -3.1181 0.134577 0
M  V30 1950 N 184.763 -0.387143 -1.52771 0
M  V30 1951 C 186.04 0.253197 -1.93954 0
M  V30 1952 C 186.42 1.64545 -1.32243 0
M  V30 1953 O 185.768 2.23191 -0.489699 0
M  V30 1954 C 185.978 0.281722 -3.47861 0
M  V30 1955 C 187.326 0.511715 -4.21505 0
M  V30 1956 O 188.35 0.362023 -3.54356 0
M  V30 1957 O 187.209 0.804847 -5.40541 0
M  V30 1958 H 184.303 0.156845 -0.811991 0
M  V30 1959 H 186.849 -0.441494 -1.63856 0
M  V30 1960 H 185.621 -0.693571 -3.85104 0
M  V30 1961 H 185.244 1.02142 -3.84256 0
M  V30 1962 N 186.241 1.57166 -0.116904 0
M  V30 1963 C 187.657 1.5779 0.239693 0
M  V30 1964 C 187.857 1.1295 1.66867 0
M  V30 1965 O 186.913 0.81592 2.38954 0
M  V30 1966 C 188.226 3.00699 0.00828202 0
M  V30 1967 C 189.774 3.12912 0.0743438 0
M  V30 1968 C 190.249 4.57817 -0.129348 0
M  V30 1969 N 191.74 4.63139 -0.075247 0
M  V30 1970 C 192.475 5.73023 -0.207788 0
M  V30 1971 N 191.971 6.91665 -0.396382 0
M  V30 1972 N 193.764 5.61906 -0.14751 0
M  V30 1973 H 185.915 1.84615 -1.05029 0
M  V30 1974 H 188.178 0.85311 -0.41341 0
M  V30 1975 H 187.884 3.37784 -0.979531 0
M  V30 1976 H 187.758 3.69848 0.741077 0
M  V30 1977 H 190.145 2.75686 1.05268 0
M  V30 1978 H 190.226 2.4631 -0.690297 0
M  V30 1979 H 189.87 4.95742 -1.10465 0
M  V30 1980 H 189.8 5.22507 0.655253 0
M  V30 1981 H 192.291 3.7784 0.0670898 0
M  V30 1982 H 192.604 7.71255 -0.488437 0
M  V30 1983 H 190.949 6.93654 -0.432329 0
M  V30 1984 H 194.14 4.681 -0.00115036 0
M  V30 1985 H 194.313 6.47501 -0.254247 0
M  V30 1986 N 187.719 -0.156864 1.56817 0
M  V30 1987 C 188.944 -0.890331 1.87318 0
M  V30 1988 C 189.369 -1.74394 0.704855 0
M  V30 1989 O 188.727 -1.77972 -0.345786 0
M  V30 1990 C 188.775 -1.73102 3.16336 0
M  V30 1991 O 187.879 -2.83422 2.99576 0
M  V30 1992 H 187.22 -0.24857 0.615718 0
M  V30 1993 H 189.75 -0.150649 2.04045 0
M  V30 1994 H 189.76 -2.12803 3.48107 0
M  V30 1995 H 188.435 -1.10412 4.00976 0
M  V30 1996 H 187.012 -2.47199 2.7919 0
M  V30 1997 N 189.197 -1.51736 -0.425897 0
M  V30 1998 C 190.127 -1.76827 -1.52494 0
M  V30 1999 C 191.108 -0.618524 -1.58456 0
M  V30 2000 O 192.293 -0.862416 -1.74 0
M  V30 2001 C 189.423 -1.90374 -2.90474 0
M  V30 2002 C 188.377 -3.0588 -2.99369 0
M  V30 2003 C 187.703 -3.04625 -4.3944 0
M  V30 2004 C 189.003 -4.45644 -2.72394 0
M  V30 2005 H 190.697 -2.68855 -1.31748 0
M  V30 2006 H 188.243 -1.29372 -0.632362 0
M  V30 2007 H 190.196 -2.0651 -3.6733 0
M  V30 2008 H 188.92 -0.95004 -3.12477 0
M  V30 2009 H 187.579 -2.89467 -2.24954 0
M  V30 2010 H 187.227 -2.0701 -4.58428 0
M  V30 2011 H 186.927 -3.82195 -4.46319 0
M  V30 2012 H 188.451 -3.22869 -5.18255 0
M  V30 2013 H 189.865 -4.62348 -3.38979 0
M  V30 2014 H 188.262 -5.25006 -2.9067 0
M  V30 2015 H 189.332 -4.54893 -1.67929 0
M  V30 2016 N 190.675 0.682077 -1.42076 0
M  V30 2017 C 191.585 1.82535 -1.47371 0
M  V30 2018 C 192.601 1.7017 -0.363079 0
M  V30 2019 O 193.777 1.91848 -0.612875 0
M  V30 2020 C 190.842 3.18624 -1.36674 0
M  V30 2021 C 189.903 3.42999 -2.58167 0
M  V30 2022 C 189.136 4.72595 -2.4797 0
M  V30 2023 O 189.359 5.50006 -1.5116 0
M  V30 2024 O 188.293 4.98054 -3.37974 0
M  V30 2025 H 192.119 1.81023 -2.43853 0
M  V30 2026 H 189.704 0.836887 -1.2376 0
M  V30 2027 H 191.586 3.99847 -1.33043 0
M  V30 2028 H 190.261 3.20789 -0.433138 0
M  V30 2029 H 189.168 2.61653 -2.67373 0
M  V30 2030 H 190.501 3.45659 -3.50401 0
M  V30 2031 N 192.153 1.28127 0.917671 0
M  V30 2032 C 193.402 1.14432 1.66097 0
M  V30 2033 C 193.715 -0.307247 1.93172 0
M  V30 2034 O 194.921 -0.565259 2.65551 0
M  V30 2035 C 193.377 2.00015 2.99202 0
M  V30 2036 C 192.985 3.49889 2.79789 0
M  V30 2037 C 194.729 1.94996 3.77064 0
M  V30 2038 C 192.636 4.27636 4.08511 0
M  V30 2039 H 191.566 0.424662 0.62304 0
M  V30 2040 H 194.217 1.52628 1.01868 0
M  V30 2041 H 192.599 1.54672 3.64544 0
M  V30 2042 H 193.773 4.03162 2.23152 0
M  V30 2043 H 192.088 3.56392 2.15345 0
M  V30 2044 H 194.685 2.50354 4.72469 0
M  V30 2045 H 195.028 0.925819 4.05875 0
M  V30 2046 H 195.561 2.38287 3.18534 0
M  V30 2047 H 192.3 5.30615 3.84874 0
M  V30 2048 H 191.82 3.79137 4.64774 0
M  V30 2049 H 193.499 4.37346 4.76799 0
M  V30 2050 N 193.631 -1.12557 1.10312 0
M  V30 2051 C 195.047 -1.36036 0.834649 0
M  V30 2052 C 195.247 -1.93946 -0.546539 0
M  V30 2053 O 194.303 -2.16484 -1.29966 0
M  V30 2054 C 195.616 -2.30312 1.9333 0
M  V30 2055 C 197.164 -2.43906 1.9616 0
M  V30 2056 C 197.639 -3.41496 3.05195 0
M  V30 2057 N 199.13 -3.49053 3.04494 0
M  V30 2058 C 199.865 -4.24471 3.85502 0
M  V30 2059 N 199.361 -5.02966 4.76442 0
M  V30 2060 N 201.154 -4.19864 3.73725 0
M  V30 2061 H 193.305 -0.733246 1.99342 0
M  V30 2062 H 195.568 -0.385234 0.866198 0
M  V30 2063 H 195.274 -1.94933 2.92735 0
M  V30 2064 H 195.148 -3.30421 1.81939 0
M  V30 2065 H 197.535 -2.78567 0.973886 0
M  V30 2066 H 197.616 -1.4369 2.11629 0
M  V30 2067 H 197.26 -3.07565 4.04186 0
M  V30 2068 H 197.19 -4.41539 2.86968 0
M  V30 2069 H 199.681 -2.93053 2.38596 0
M  V30 2070 H 199.994 -5.57846 5.34815 0
M  V30 2071 H 198.339 -5.02167 4.80472 0
M  V30 2072 H 201.53 -3.57623 3.02032 0
M  V30 2073 H 201.703 -4.78386 4.37093 0
M  V30 2074 N 195.109 -0.891671 -1.2995 0
M  V30 2075 C 196.358 -0.509521 -1.95158 0
M  V30 2076 C 196.671 0.947388 -1.71125 0
M  V30 2077 O 197.877 1.43669 -2.30372 0
M  V30 2078 C 196.333 -0.860315 -3.49466 0
M  V30 2079 C 195.941 -2.33545 -3.8231 0
M  V30 2080 C 197.685 -0.547687 -4.20952 0
M  V30 2081 C 195.592 -2.62752 -5.29826 0
M  V30 2082 H 194.522 -0.18682 -0.730489 0
M  V30 2083 H 197.173 -1.08756 -1.47798 0
M  V30 2084 H 195.555 -0.211285 -3.95436 0
M  V30 2085 H 196.729 -3.02936 -3.47227 0
M  V30 2086 H 195.044 -2.61629 -3.23944 0
M  V30 2087 H 197.641 -0.742854 -5.29515 0
M  V30 2088 H 197.984 0.51332 -4.13123 0
M  V30 2089 H 198.517 -1.1542 -3.80688 0
M  V30 2090 H 195.256 -3.6762 -5.42712 0
M  V30 2091 H 194.776 -1.97977 -5.66185 0
M  V30 2092 H 196.455 -2.48601 -5.97333 0
M  V30 2093 N 196.587 1.43421 -0.653314 0
M  V30 2094 C 197.998 1.85065 -0.246537 0
M  V30 2095 C 198.349 1.54688 1.2069 0
M  V30 2096 O 197.474 0.995896 1.92122 0
M  V30 2097 C 198.069 3.35922 -0.440666 0
M  V30 2098 C 196.628 3.76297 -0.0882064 0
M  V30 2099 C 195.775 2.67147 -0.743484 0
M  V30 2100 H 198.726 1.33572 -0.856979 0
M  V30 2101 H 198.747 3.79204 0.313798 0
M  V30 2102 H 198.259 3.58 -1.49858 0
M  V30 2103 H 196.36 3.5983 0.96711 0
M  V30 2104 H 196.473 4.76338 -0.513738 0
M  V30 2105 H 194.837 2.54086 -0.176712 0
M  V30 2106 H 195.62 2.92053 -1.80443 0
M  V30 2107 N 198.065 0.39524 1.52563 0
M  V30 2108 C 199.028 -0.425001 2.25225 0
M  V30 2109 C 200.028 -0.985266 1.27079 0
M  V30 2110 O 201.218 -0.866332 1.5113 0
M  V30 2111 C 198.35 -1.59686 3.01186 0
M  V30 2112 H 199.543 0.211233 2.99155 0
M  V30 2113 H 197.096 0.147472 1.55603 0
M  V30 2114 H 197.831 -2.27035 2.31572 0
M  V30 2115 H 197.616 -1.20176 3.73229 0
M  V30 2116 H 199.106 -2.17743 3.5634 0
M  V30 2117 N 199.544 -1.57102 0.125237 0
M  V30 2118 C 200.821 -1.86953 -0.575142 0
M  V30 2119 C 201.201 -1.02749 -1.84407 0
M  V30 2120 O 200.549 -0.108144 -2.28244 0
M  V30 2121 C 200.759 -3.38198 -0.861583 0
M  V30 2122 C 202.107 -4.06937 -1.21192 0
M  V30 2123 O 203.131 -3.43252 -0.951645 0
M  V30 2124 O 201.99 -5.19364 -1.70068 0
M  V30 2125 H 199.084 -0.774147 -0.290906 0
M  V30 2126 H 201.63 -1.68942 0.160211 0
M  V30 2127 H 200.402 -3.91282 0.0373647 0
M  V30 2128 H 200.025 -3.61661 -1.65188 0
M  V30 2129 N 201.022 0.148545 -1.56898 0
M  V30 2130 C 201.969 1.18345 -1.98149 0
M  V30 2131 C 202.939 1.42772 -0.848848 0
M  V30 2132 O 204.124 1.55132 -1.11079 0
M  V30 2133 C 201.264 2.51231 -2.36594 0
M  V30 2134 C 200.377 2.33991 -3.63142 0
M  V30 2135 C 199.512 3.59902 -3.90697 0
M  V30 2136 C 198.551 3.37692 -5.1052 0
M  V30 2137 N 197.688 4.5573 -5.34092 0
M  V30 2138 H 202.528 0.82467 -2.86362 0
M  V30 2139 H 200.065 0.395756 -1.41676 0
M  V30 2140 H 202.023 3.28713 -2.56912 0
M  V30 2141 H 200.653 2.85059 -1.51463 0
M  V30 2142 H 199.705 1.47572 -3.50609 0
M  V30 2143 H 201.017 2.13539 -4.5078 0
M  V30 2144 H 200.171 4.45813 -4.11505 0
M  V30 2145 H 198.91 3.83357 -3.01477 0
M  V30 2146 H 197.915 2.5017 -4.89587 0
M  V30 2147 H 199.14 3.15637 -6.0129 0
M  V30 2148 H 197.086 4.79361 -4.47827 0
M  V30 2149 H 197.003 4.38274 -6.15996 0
M  V30 2150 H 198.271 5.42858 -5.59397 0
M  V30 2151 N 202.5 1.5196 0.417844 0
M  V30 2152 C 203.748 1.65263 1.16329 0
M  V30 2153 C 204.069 0.380634 1.91249 0
M  V30 2154 O 203.339 -0.604214 1.86349 0
M  V30 2155 H 201.919 0.60912 0.432414 0
M  V30 2156 H 204.581 1.88969 0.477162 0
M  V30 2157 H 203.677 2.4896 1.88217 0
M  V30 2158 N 203.978 -0.674533 1.42435 0
M  V30 2159 C 205.227 -1.43034 1.42212 0
M  V30 2160 C 205.54 -1.95555 0.0420788 0
M  V30 2161 O 206.746 -2.71374 -0.0827558 0
M  V30 2162 C 205.202 -2.58748 2.50155 0
M  V30 2163 C 204.81 -2.12925 3.94166 0
M  V30 2164 C 206.554 -3.36257 2.59098 0
M  V30 2165 C 204.461 -3.25723 4.93618 0
M  V30 2166 H 203.391 -0.537345 0.528939 0
M  V30 2167 H 206.042 -0.73024 1.68344 0
M  V30 2168 H 204.424 -3.31128 2.17188 0
M  V30 2169 H 205.598 -1.47697 4.36488 0
M  V30 2170 H 203.913 -1.48354 3.89076 0
M  V30 2171 H 206.51 -4.20264 3.30578 0
M  V30 2172 H 206.853 -3.82866 1.63461 0
M  V30 2173 H 207.386 -2.70947 2.9126 0
M  V30 2174 H 204.125 -2.84105 5.90732 0
M  V30 2175 H 203.645 -3.89732 4.55926 0
M  V30 2176 H 205.324 -3.91186 5.15347 0
M  V30 2177 N 205.456 -1.28612 -0.910864 0
M  V30 2178 C 206.419 -1.12803 -1.9952 0
M  V30 2179 C 207.419 -0.0668264 -1.60661 0
M  V30 2180 O 208.609 -0.312847 -1.71368 0
M  V30 2181 C 205.741 -0.72254 -3.33155 0
M  V30 2182 H 206.934 -2.09109 -2.14973 0
M  V30 2183 H 204.487 -1.11639 -1.09391 0
M  V30 2184 H 205.222 0.241152 -3.23402 0
M  V30 2185 H 205.007 -1.48916 -3.62721 0
M  V30 2186 H 206.497 -0.634666 -4.12749 0
M  V30 2187 N 206.934 1.1197 -1.10907 0
M  V30 2188 C 208.182 1.83225 -0.852819 0
M  V30 2189 C 208.503 1.84769 0.623341 0
M  V30 2190 O 207.773 1.3143 1.45269 0
M  V30 2191 H 206.353 0.67849 -0.312507 0
M  V30 2192 H 209.015 1.3556 -1.40033 0
M  V30 2193 H 208.111 2.87265 -1.22005 0
M  V30 2194 N 208.412 0.89855 1.29475 0
M  V30 2195 C 209.322 0.379974 2.31502 0
M  V30 2196 C 210.338 -0.524695 1.659 0
M  V30 2197 O 211.514 -0.414551 1.97087 0
M  V30 2198 C 208.579 -0.385138 3.44554 0
M  V30 2199 C 207.64 0.550914 4.2575 0
M  V30 2200 C 206.873 -0.177778 5.33404 0
M  V30 2201 O 207.096 -1.40189 5.52904 0
M  V30 2202 O 206.03 0.479106 5.9999 0
M  V30 2203 H 209.856 1.22639 2.77837 0
M  V30 2204 H 207.441 0.662834 1.33891 0
M  V30 2205 H 209.323 -0.817841 4.13388 0
M  V30 2206 H 207.998 -1.20763 3.0033 0
M  V30 2207 H 206.905 1.03271 3.59564 0
M  V30 2208 H 208.238 1.33979 4.73614 0
M  V30 2209 N 209.89 -1.43072 0.660911 0
M  V30 2210 C 211.136 -2.0202 0.177708 0
M  V30 2211 C 211.469 -1.52066 -1.20787 0
M  V30 2212 O 210.744 -0.716987 -1.80802 0
M  V30 2213 C 211.027 -3.59561 0.197019 0
M  V30 2214 C 210.88 -4.19727 1.61706 0
M  V30 2215 C 212.199 -4.37664 -0.462396 0
M  V30 2216 H 209.318 -0.734034 0.0660494 0
M  V30 2217 H 211.96 -1.70272 0.843058 0
M  V30 2218 H 210.11 -3.86739 -0.369527 0
M  V30 2219 H 211.782 -4.03553 2.23479 0
M  V30 2220 H 210.025 -3.76084 2.16201 0
M  V30 2221 H 210.696 -5.28834 1.58237 0
M  V30 2222 H 213.172 -4.16095 0.0197215 0
M  V30 2223 H 212.048 -5.47305 -0.418188 0
M  V30 2224 H 212.309 -4.14493 -1.53778 0
M  V30 2225 N 211.368 -0.403325 -1.52352 0
M  V30 2226 C 212.331 0.413051 -2.25447 0
M  V30 2227 C 213.331 0.978513 -1.276 0
M  V30 2228 O 214.521 0.858305 -1.51587 0
M  V30 2229 C 211.653 1.58087 -3.02029 0
M  V30 2230 H 212.846 -0.227094 -2.99039 0
M  V30 2231 H 210.399 -0.155722 -1.55522 0
M  V30 2232 H 211.134 2.25804 -2.32772 0
M  V30 2233 H 210.919 1.18195 -3.73861 0
M  V30 2234 H 212.409 2.1585 -3.57489 0
M  V30 2235 N 212.846 1.57033 -0.133567 0
M  V30 2236 C 214.074 2.00044 0.528195 0
M  V30 2237 C 214.489 1.01349 1.59291 0
M  V30 2238 O 213.846 0.00848369 1.82498 0
M  V30 2239 C 213.897 3.43018 1.1411 0
M  V30 2240 O 213.618 4.37939 0.11892 0
M  V30 2241 C 215.119 4.01237 1.88477 0
M  V30 2242 H 212.339 0.656517 0.138661 0
M  V30 2243 H 214.883 2.03267 -0.224196 0
M  V30 2244 H 213.038 3.40688 1.84418 0
M  V30 2245 H 213.452 5.21436 0.56613 0
M  V30 2246 H 214.926 5.03314 2.26669 0
M  V30 2247 H 215.403 3.41193 2.76558 0
M  V30 2248 H 216.009 4.07156 1.22898 0
M  V30 2249 N 214.325 -0.140222 1.56975 0
M  V30 2250 C 215.572 -0.851687 1.83719 0
M  V30 2251 C 215.9 -1.80862 0.715485 0
M  V30 2252 O 215.155 -1.93464 -0.294956 0
M  V30 2253 C 215.454 -1.65386 3.16832 0
M  V30 2254 C 215.12 -0.843112 4.42947 0
M  V30 2255 C 213.782 -0.619464 4.77196 0
M  V30 2256 C 216.134 -0.276582 5.20466 0
M  V30 2257 C 213.462 0.181312 5.8642 0
M  V30 2258 C 215.814 0.51127 6.30531 0
M  V30 2259 C 214.478 0.745432 6.63325 0
M  V30 2260 H 213.748 -0.311654 0.672274 0
M  V30 2261 H 216.395 -0.115006 1.91154 0
M  V30 2262 H 214.7 -2.46084 3.04877 0
M  V30 2263 H 216.397 -2.20793 3.34741 0
M  V30 2264 H 212.987 -1.0275 4.16101 0
M  V30 2265 H 217.171 -0.436632 4.94376 0
M  V30 2266 H 212.427 0.372165 6.10266 0
M  V30 2267 H 216.601 0.957354 6.89788 0
M  V30 2268 H 214.228 1.36778 7.47794 0
M  V30 2269 N 215.803 -1.52179 -0.40978 0
M  V30 2270 C 216.75 -1.75475 -1.49924 0
M  V30 2271 C 217.72 -0.597175 -1.54994 0
M  V30 2272 O 218.905 -0.834655 -1.71575 0
M  V30 2273 C 216.045 -1.9107 -2.87378 0
M  V30 2274 C 215.158 -3.18717 -2.91622 0
M  V30 2275 C 214.293 -3.24747 -4.20372 0
M  V30 2276 C 213.332 -4.46598 -4.18588 0
M  V30 2277 N 212.469 -4.50025 -5.38908 0
M  V30 2278 H 217.309 -2.68458 -1.29361 0
M  V30 2279 H 214.846 -1.33024 -0.627934 0
M  V30 2280 H 216.804 -1.98096 -3.6717 0
M  V30 2281 H 215.434 -1.01469 -3.06437 0
M  V30 2282 H 214.486 -3.20866 -2.04326 0
M  V30 2283 H 215.798 -4.08544 -2.86169 0
M  V30 2284 H 214.952 -3.30841 -5.08556 0
M  V30 2285 H 213.691 -2.32857 -4.28519 0
M  V30 2286 H 212.696 -4.40652 -3.28794 0
M  V30 2287 H 213.921 -5.39783 -4.12081 0
M  V30 2288 H 211.867 -3.61017 -5.47725 0
M  V30 2289 H 211.784 -5.33697 -5.35447 0
M  V30 2290 H 213.052 -4.60347 -6.29048 0
M  V30 2291 N 217.281 0.66697 -1.42791 0
M  V30 2292 C 218.213 1.7925 -1.42836 0
M  V30 2293 C 219.226 1.59496 -0.326333 0
M  V30 2294 O 220.415 1.6847 -0.589916 0
M  V30 2295 C 217.515 3.16476 -1.21229 0
M  V30 2296 C 216.688 3.63011 -2.44013 0
M  V30 2297 C 215.747 4.78993 -2.17834 0
M  V30 2298 O 214.773 4.89137 -2.91091 0
M  V30 2299 N 215.975 5.68248 -1.18635 0
M  V30 2300 H 218.74 1.79695 -2.39854 0
M  V30 2301 H 216.301 0.850338 -1.37771 0
M  V30 2302 H 218.293 3.91734 -1.01621 0
M  V30 2303 H 216.863 3.10884 -0.32706 0
M  V30 2304 H 216.083 2.78346 -2.79137 0
M  V30 2305 H 217.371 3.90845 -3.25757 0
M  V30 2306 H 216.769 5.62712 -0.580615 0
M  V30 2307 H 215.326 6.43285 -1.05013 0
M  V30 2308 N 218.759 1.29093 0.90403 0
M  V30 2309 C 220.005 1.16986 1.65656 0
M  V30 2310 C 220.338 -0.278925 1.92186 0
M  V30 2311 O 219.613 -1.2019 1.5292 0
M  V30 2312 C 219.896 1.97908 3.0084 0
M  V30 2313 C 219.749 3.50903 2.81403 0
M  V30 2314 C 221.068 1.80208 4.01513 0
M  V30 2315 H 218.187 0.426346 0.601164 0
M  V30 2316 H 220.829 1.58518 1.04747 0
M  V30 2317 H 218.979 1.62616 3.52829 0
M  V30 2318 H 220.651 3.96153 2.36348 0
M  V30 2319 H 218.894 3.76045 2.1627 0
M  V30 2320 H 219.565 4.02791 3.77443 0
M  V30 2321 H 222.041 2.11025 3.58619 0
M  V30 2322 H 220.917 2.39184 4.94047 0
M  V30 2323 H 221.178 0.756119 4.35586 0
M  V30 2324 N 220.237 -1.11381 1.11499 0
M  V30 2325 C 221.483 -1.83403 0.865512 0
M  V30 2326 C 221.816 -1.84459 -0.607329 0
M  V30 2327 O 221.091 -1.29811 -1.44842 0
M  V30 2328 C 221.374 -3.30552 1.42855 0
M  V30 2329 C 221.227 -3.37886 2.96906 0
M  V30 2330 C 222.546 -4.26643 1.08 0
M  V30 2331 H 219.665 -0.665879 0.31587 0
M  V30 2332 H 222.307 -1.30601 1.37998 0
M  V30 2333 H 220.457 -3.75648 0.990985 0
M  V30 2334 H 222.129 -3.01343 3.49271 0
M  V30 2335 H 220.372 -2.78088 3.32941 0
M  V30 2336 H 221.043 -4.41458 3.31389 0
M  V30 2337 H 223.519 -3.89729 1.45775 0
M  V30 2338 H 222.395 -5.27986 1.50072 0
M  V30 2339 H 222.656 -4.42099 -0.00915037 0
M  V30 2340 N 221.715 -0.905404 -1.28997 0
M  V30 2341 C 222.663 -0.377431 -2.29517 0
M  V30 2342 C 223.657 0.526461 -1.61012 0
M  V30 2343 O 224.863 0.40863 -1.753 0
M  V30 2344 H 221.238 -0.103437 -0.744852 0
M  V30 2345 H 223.209 -1.23848 -2.71485 0
M  V30 2346 C 221.958 0.374833 -3.45674 0
M  V30 2347 H 221.281 -0.311474 -3.98585 0
M  V30 2348 H 222.721 0.70903 -4.1803 0
M  V30 2349 C 221.18 1.57963 -2.97572 0
M  V30 2350 O 221.71 2.67886 -2.99333 0
M  V30 2351 N 219.916 1.42375 -2.53333 0
M  V30 2352 H 219.463 0.529466 -2.521 0
M  V30 2353 H 219.421 2.23117 -2.21509 0
M  V30 2354 N 223.193 1.4272 -0.668489 0
M  V30 2355 C 224.442 2.00846 -0.185389 0
M  V30 2356 C 224.755 1.53442 1.21305 0
M  V30 2357 O 225.961 2.03944 1.79218 0
M  V30 2358 C 224.417 3.58805 -0.280591 0
M  V30 2359 C 224.025 4.15198 -1.68268 0
M  V30 2360 C 225.769 4.24255 0.14412 0
M  V30 2361 C 223.676 5.655 -1.73099 0
M  V30 2362 H 222.606 0.751145 -0.0655475 0
M  V30 2363 H 225.257 1.63516 -0.832752 0
M  V30 2364 H 223.639 3.93608 0.434553 0
M  V30 2365 H 224.813 3.91866 -2.42441 0
M  V30 2366 H 223.128 3.62176 -2.05469 0
M  V30 2367 H 225.725 5.34547 0.128086 0
M  V30 2368 H 226.068 3.99277 1.17827 0
M  V30 2369 H 226.601 3.94389 -0.519798 0
M  V30 2370 H 223.34 5.95268 -2.74475 0
M  V30 2371 H 222.86 5.90842 -1.03274 0
M  V30 2372 H 224.539 6.29808 -1.48158 0
M  V30 2373 N 224.671 0.411399 1.52136 0
M  V30 2374 C 226.082 -0.0576826 1.86611 0
M  V30 2375 C 226.433 -1.44238 1.33003 0
M  V30 2376 O 225.558 -2.05759 0.670228 0
M  V30 2377 C 226.153 -0.111448 3.38617 0
M  V30 2378 C 224.712 -0.52487 3.72723 0
M  V30 2379 C 223.859 0.299176 2.75681 0
M  V30 2380 H 226.81 0.628368 1.4573 0
M  V30 2381 H 226.831 -0.926252 3.69054 0
M  V30 2382 H 226.343 0.896488 3.77604 0
M  V30 2383 H 224.444 -1.53936 3.39315 0
M  V30 2384 H 224.557 -0.267681 4.78352 0
M  V30 2385 H 222.921 -0.238814 2.53578 0
M  V30 2386 H 223.704 1.3055 3.17508 0
M  V30 2387 N 226.149 -1.5696 0.141893 0
M  V30 2388 C 227.396 -1.9596 -0.510492 0
M  V30 2389 C 227.724 -1.02648 -1.65208 0
M  V30 2390 O 226.979 -0.0546947 -1.95624 0
M  V30 2391 C 227.278 -3.41242 -1.06249 0
M  V30 2392 C 226.944 -4.50882 -0.0398791 0
M  V30 2393 C 225.606 -4.80595 0.241247 0
M  V30 2394 C 227.958 -5.17058 0.65578 0
M  V30 2395 C 225.286 -5.73792 1.22393 0
M  V30 2396 C 227.638 -6.11313 1.62724 0
M  V30 2397 C 226.302 -6.39407 1.91612 0
M  V30 2398 H 225.572 -0.717068 -0.186802 0
M  V30 2399 H 228.219 -1.90142 0.227643 0
M  V30 2400 H 226.524 -3.43866 -1.87785 0
M  V30 2401 H 228.221 -3.68742 -1.57576 0
M  V30 2402 H 224.811 -4.27754 -0.269174 0
M  V30 2403 H 228.995 -4.94239 0.451779 0
M  V30 2404 H 224.251 -5.93853 1.45424 0
M  V30 2405 H 228.425 -6.61668 2.17183 0
M  V30 2406 H 226.052 -7.11427 2.6791 0
M  V30 2407 N 227.627 0.131896 -1.57047 0
M  V30 2408 C 228.904 0.871495 -1.75112 0
M  V30 2409 C 229.284 1.9866 -0.713949 0
M  V30 2410 O 228.632 2.26965 0.264447 0
M  V30 2411 C 228.842 1.40007 -3.19686 0
M  V30 2412 C 230.19 1.85752 -3.81813 0
M  V30 2413 O 231.214 1.49715 -3.23209 0
M  V30 2414 O 230.073 2.5226 -4.84796 0
M  V30 2415 H 227.167 0.412919 -0.716538 0
M  V30 2416 H 229.713 0.116641 -1.69299 0
M  V30 2417 H 228.485 0.599404 -3.86682 0
M  V30 2418 H 228.108 2.218 -3.29986 0
M  V30 2419 N 229.106 1.52395 0.401703 0
M  V30 2420 C 230.353 1.66817 1.14796 0
M  V30 2421 C 230.681 0.401772 1.90305 0
M  V30 2422 O 229.936 -0.615487 1.85769 0
M  V30 2423 C 230.235 2.84578 2.16217 0
M  V30 2424 C 229.901 4.22513 1.5746 0
M  V30 2425 C 228.563 4.60029 1.41161 0
M  V30 2426 C 230.915 5.0844 1.14622 0
M  V30 2427 C 228.243 5.81144 0.80552 0
M  V30 2428 C 230.595 6.30167 0.55428 0
M  V30 2429 C 229.259 6.66426 0.378482 0
M  V30 2430 H 228.529 0.610428 0.420069 0
M  V30 2431 H 231.176 1.86512 0.434212 0
M  V30 2432 H 229.481 2.59248 2.93764 0
M  V30 2433 H 231.178 2.92933 2.73845 0
M  V30 2434 H 227.768 3.92953 1.71132 0
M  V30 2435 H 231.952 4.80034 1.26021 0
M  V30 2436 H 227.208 6.07855 0.657399 0
M  V30 2437 H 231.382 6.96071 0.213983 0
M  V30 2438 H 229.009 7.60143 -0.0932606 0
M  V30 2439 N 230.584 -0.659388 1.43143 0
M  V30 2440 C 231.814 -1.44513 1.47646 0
M  V30 2441 C 232.222 -1.88981 0.0910095 0
M  V30 2442 O 231.565 -1.59702 -0.907789 0
M  V30 2443 C 231.627 -2.71663 2.35456 0
M  V30 2444 C 231.291 -2.49175 3.83094 0
M  V30 2445 C 232.288 -2.1279 4.74359 0
M  V30 2446 C 229.973 -2.63691 4.27519 0
M  V30 2447 C 231.967 -1.9121 6.08044 0
M  V30 2448 C 229.654 -2.41726 5.61259 0
M  V30 2449 C 230.652 -2.0554 6.51339 0
M  V30 2450 O 230.34 -1.838 7.82606 0
M  V30 2451 H 230.072 -0.45064 0.503884 0
M  V30 2452 H 232.626 -0.816248 1.88485 0
M  V30 2453 H 230.856 -3.37089 1.89493 0
M  V30 2454 H 232.545 -3.33595 2.31235 0
M  V30 2455 H 233.311 -2.01157 4.41317 0
M  V30 2456 H 229.19 -2.90832 3.57684 0
M  V30 2457 H 232.734 -1.62889 6.78316 0
M  V30 2458 H 228.631 -2.52959 5.9387 0
M  V30 2459 H 229.399 -1.98275 7.94122 0
M  V30 2460 N 232.062 -1.29571 -0.897171 0
M  V30 2461 C 233.012 -1.11539 -1.98855 0
M  V30 2462 C 233.996 -0.0340716 -1.60864 0
M  V30 2463 O 235.188 -0.256062 -1.75138 0
M  V30 2464 C 232.317 -0.796603 -3.3393 0
M  V30 2465 C 231.403 -1.91758 -3.78272 0
M  V30 2466 N 231.794 -3.16143 -3.94826 0
M  V30 2467 C 230.092 -1.81119 -4.07568 0
M  V30 2468 C 230.793 -3.89293 -4.32233 0
M  V30 2469 N 229.769 -3.17255 -4.41419 0
M  V30 2470 H 233.571 -2.05894 -2.09726 0
M  V30 2471 H 231.085 -1.20732 -1.08616 0
M  V30 2472 H 233.082 -0.648459 -4.11826 0
M  V30 2473 H 231.742 0.139003 -3.24402 0
M  V30 2474 H 232.753 -3.5157 -3.80288 0
M  V30 2475 H 229.43 -0.948461 -4.06584 0
M  V30 2476 H 230.82 -4.9635 -4.52865 0
M  V30 2477 N 233.54 1.10788 -1.12088 0
M  V30 2478 C 234.817 1.79136 -0.785476 0
M  V30 2479 C 235.197 1.98246 0.725377 0
M  V30 2480 O 234.545 1.57258 1.65778 0
M  V30 2481 C 234.755 3.12375 -1.55636 0
M  V30 2482 C 236.103 3.8731 -1.74001 0
M  V30 2483 O 237.127 3.22085 -1.52117 0
M  V30 2484 O 235.986 5.04369 -2.10415 0
M  V30 2485 H 233.08 0.776226 -0.285311 0
M  V30 2486 H 235.626 1.1747 -1.2247 0
M  V30 2487 H 234.398 2.93863 -2.5838 0
M  V30 2488 H 234.021 3.81758 -1.11114 0
M  V30 2489 N 235.018 0.912232 1.28515 0
M  V30 2490 C 236.429 0.591352 1.77087 0
M  V30 2491 C 236.78 -0.8933 1.74684 0
M  V30 2492 O 235.905 -1.69876 1.34056 0
M  V30 2493 C 236.5 1.06668 3.2157 0
M  V30 2494 C 235.059 0.79675 3.67871 0
M  V30 2495 C 234.206 1.23427 2.48316 0
M  V30 2496 H 237.157 1.09365 1.15 0
M  V30 2497 H 237.178 0.407455 3.78312 0
M  V30 2498 H 236.69 2.14726 3.23287 0
M  V30 2499 H 234.791 -0.270679 3.71616 0
M  V30 2500 H 234.904 1.40343 4.58084 0
M  V30 2501 H 233.268 0.653036 2.46186 0
M  V30 2502 H 234.051 2.32316 2.52753 0
M  V30 2503 N 236.496 -1.42363 0.676048 0
M  V30 2504 C 237.912 -1.55811 0.345718 0
M  V30 2505 C 238.112 -1.65544 -1.14879 0
M  V30 2506 O 237.168 -1.62306 -1.93424 0
M  V30 2507 C 238.481 -2.80746 1.07713 0
M  V30 2508 C 240.029 -2.9452 1.05958 0
M  V30 2509 C 240.504 -4.22318 1.77233 0
M  V30 2510 N 241.995 -4.29233 1.74108 0
M  V30 2511 C 242.73 -5.26935 2.26113 0
M  V30 2512 N 242.226 -6.30783 2.86505 0
M  V30 2513 N 244.019 -5.18741 2.1648 0
M  V30 2514 H 236.17 -1.34289 1.6456 0
M  V30 2515 H 238.433 -0.646506 0.69335 0
M  V30 2516 H 238.139 -2.79696 2.13221 0
M  V30 2517 H 238.013 -3.71676 0.64316 0
M  V30 2518 H 240.4 -2.95097 0.0128255 0
M  V30 2519 H 240.481 -2.04817 1.53244 0
M  V30 2520 H 240.125 -4.22502 2.81877 0
M  V30 2521 H 240.055 -5.10958 1.27396 0
M  V30 2522 H 242.546 -3.54814 1.30059 0
M  V30 2523 H 242.859 -7.01691 3.23805 0
M  V30 2524 H 241.204 -6.31341 2.90575 0
M  V30 2525 H 244.395 -4.36533 1.68987 0
M  V30 2526 H 244.568 -5.94721 2.57316 0
M  V30 2527 N 237.974 -0.419461 -1.51915 0
M  V30 2528 C 239.199 0.154572 -2.06823 0
M  V30 2529 C 239.624 1.3722 -1.28656 0
M  V30 2530 O 238.982 1.78461 -0.319583 0
M  V30 2531 C 239.03 0.473172 -3.57482 0
M  V30 2532 O 238.134 1.56255 -3.81652 0
M  V30 2533 H 237.475 0.0096924 -0.663929 0
M  V30 2534 H 240.005 -0.595642 -1.95738 0
M  V30 2535 H 240.015 0.728825 -4.01438 0
M  V30 2536 H 238.69 -0.416873 -4.13805 0
M  V30 2537 H 237.267 1.29825 -3.49571 0
M  V30 2538 N 239.452 1.56882 -0.150215 0
M  V30 2539 C 240.701 1.95403 0.500071 0
M  V30 2540 C 241.014 1.03777 1.658 0
M  V30 2541 O 242.22 1.31889 2.37313 0
M  V30 2542 C 240.676 3.4738 0.941018 0
M  V30 2543 C 240.284 4.47596 -0.190158 0
M  V30 2544 C 242.028 3.9476 1.56091 0
M  V30 2545 C 239.935 5.90787 0.269237 0
M  V30 2546 H 238.865 0.729515 0.190588 0
M  V30 2547 H 241.516 1.81988 -0.235074 0
M  V30 2548 H 239.898 3.56138 1.73152 0
M  V30 2549 H 241.072 4.50536 -0.967157 0
M  V30 2550 H 239.387 4.10151 -0.718666 0
M  V30 2551 H 241.984 4.99181 1.9163 0
M  V30 2552 H 242.327 3.36494 2.45107 0
M  V30 2553 H 242.86 3.88932 0.835249 0
M  V30 2554 H 239.599 6.52879 -0.585621 0
M  V30 2555 H 239.119 5.912 1.01204 0
M  V30 2556 H 240.798 6.42979 0.720176 0
M  V30 2557 N 240.93 -0.123565 1.57115 0
M  V30 2558 C 242.177 -0.832153 1.84612 0
M  V30 2559 C 242.505 -1.80093 0.734627 0
M  V30 2560 O 241.76 -1.93766 -0.27442 0
M  V30 2561 C 242.059 -1.62016 3.18568 0
M  V30 2562 C 241.725 -0.796084 4.43817 0
M  V30 2563 C 240.387 -0.568816 4.77826 0
M  V30 2564 C 242.739 -0.221364 5.2073 0
M  V30 2565 C 240.067 0.243499 5.86194 0
M  V30 2566 C 242.419 0.578117 6.29953 0
M  V30 2567 C 241.083 0.815744 6.62497 0
M  V30 2568 H 240.353 -0.304507 0.675542 0
M  V30 2569 H 243 -0.0947248 1.91266 0
M  V30 2570 H 241.305 -2.42837 3.0747 0
M  V30 2571 H 243.002 -2.17231 3.37064 0
M  V30 2572 H 239.592 -0.983307 4.17168 0
M  V30 2573 H 243.776 -0.384173 4.94811 0
M  V30 2574 H 239.032 0.436871 6.09837 0
M  V30 2575 H 243.206 1.03046 6.88734 0
M  V30 2576 H 240.833 1.44701 7.46301 0
M  V30 2577 N 242.408 -1.52605 -0.393616 0
M  V30 2578 C 243.371 -1.76415 -1.46323 0
M  V30 2579 C 244.371 -0.634126 -1.47768 0
M  V30 2580 O 245.561 -0.902142 -1.4902 0
M  V30 2581 C 242.693 -1.8607 -2.85641 0
M  V30 2582 H 243.886 -2.71916 -1.26498 0
M  V30 2583 H 241.439 -1.43257 -0.625073 0
M  V30 2584 H 242.174 -0.925378 -3.10817 0
M  V30 2585 H 241.959 -2.68235 -2.85993 0
M  V30 2586 H 243.449 -2.06179 -3.63153 0
M  V30 2587 N 243.887 0.651787 -1.4349 0
M  V30 2588 C 244.819 1.77725 -1.44729 0
M  V30 2589 C 245.832 1.59141 -0.343231 0
M  V30 2590 O 247.021 1.67835 -0.607751 0
M  V30 2591 C 244.121 3.15172 -1.24579 0
M  V30 2592 C 243.294 3.60402 -2.47849 0
M  V30 2593 C 242.353 4.76656 -2.22902 0
M  V30 2594 O 241.379 4.86022 -2.96263 0
M  V30 2595 N 242.581 5.66958 -1.24656 0
M  V30 2596 H 245.346 1.77141 -2.41746 0
M  V30 2597 H 242.907 0.835678 -1.38665 0
M  V30 2598 H 244.899 3.90634 -1.0577 0
M  V30 2599 H 243.469 3.1052 -0.360015 0
M  V30 2600 H 242.689 2.75369 -2.82073 0
M  V30 2601 H 243.977 3.87368 -3.29884 0
M  V30 2602 H 243.375 5.62065 -0.640265 0
M  V30 2603 H 241.932 6.42135 -1.1183 0
M  V30 2604 N 245.365 1.30045 0.890287 0
M  V30 2605 C 246.312 1.15976 1.99545 0
M  V30 2606 C 247.282 0.0506202 1.66023 0
M  V30 2607 O 248.467 0.219847 1.89529 0
M  V30 2608 C 245.607 0.852054 3.34416 0
M  V30 2609 C 244.72 2.04255 3.80662 0
M  V30 2610 C 243.855 1.6734 5.04154 0
M  V30 2611 C 242.894 2.82916 5.42794 0
M  V30 2612 N 242.031 2.46333 6.57468 0
M  V30 2613 H 246.871 2.10524 2.10911 0
M  V30 2614 H 244.408 1.04749 1.03276 0
M  V30 2615 H 246.366 0.654296 4.12037 0
M  V30 2616 H 244.996 -0.0565502 3.2275 0
M  V30 2617 H 244.048 2.35172 2.98995 0
M  V30 2618 H 245.36 2.90826 4.05242 0
M  V30 2619 H 244.514 1.43908 5.89386 0
M  V30 2620 H 243.253 0.779308 4.81433 0
M  V30 2621 H 242.258 3.0702 4.56091 0
M  V30 2622 H 243.483 3.73004 5.6749 0
M  V30 2623 H 241.429 1.59423 6.36334 0
M  V30 2624 H 241.346 3.26436 6.81891 0
M  V30 2625 H 242.614 2.26244 7.45945 0
M  V30 2626 N 246.843 -1.10192 1.12674 0
M  V30 2627 C 247.775 -2.16418 0.754701 0
M  V30 2628 C 248.788 -1.61309 -0.21986 0
M  V30 2629 O 249.977 -1.785 -0.000826841 0
M  V30 2630 C 247.077 -3.38762 0.096698 0
M  V30 2631 C 246.25 -4.23307 1.10136 0
M  V30 2632 C 245.309 -5.24092 0.470513 0
M  V30 2633 O 244.335 -5.57906 1.12824 0
M  V30 2634 N 245.537 -5.75491 -0.760948 0
M  V30 2635 H 248.302 -2.48943 1.66875 0
M  V30 2636 H 245.863 -1.25834 1.01869 0
M  V30 2637 H 247.855 -4.03291 -0.337384 0
M  V30 2638 H 246.425 -3.04192 -0.720153 0
M  V30 2639 H 245.645 -3.55036 1.71299 0
M  V30 2640 H 246.933 -4.76624 1.78064 0
M  V30 2641 H 246.331 -5.50222 -1.31424 0
M  V30 2642 H 244.888 -6.41792 -1.13781 0
M  V30 2643 N 248.321 -0.919034 -1.28029 0
M  V30 2644 C 249.231 -0.416756 -2.30869 0
M  V30 2645 C 250.247 0.498235 -1.66714 0
M  V30 2646 O 251.423 0.383144 -1.97722 0
M  V30 2647 C 248.488 0.330274 -3.45123 0
M  V30 2648 C 247.549 -0.618578 -4.2482 0
M  V30 2649 C 246.782 0.0928959 -5.33619 0
M  V30 2650 O 247.005 1.31375 -5.55065 0
M  V30 2651 O 245.939 -0.574499 -5.99152 0
M  V30 2652 H 249.765 -1.27043 -2.75851 0
M  V30 2653 H 247.35 -0.684052 -1.3282 0
M  V30 2654 H 249.232 0.751972 -4.14636 0
M  V30 2655 H 247.907 1.1597 -3.02213 0
M  V30 2656 H 246.814 -1.08978 -3.57875 0
M  V30 2657 H 248.147 -1.41497 -4.71423 0
M  V30 2658 N 249.799 1.42003 -0.683588 0
M  V30 2659 C 250.746 2.30798 -0.0107309 0
M  V30 2660 C 251.716 1.4645 0.783688 0
M  V30 2661 O 252.901 1.75263 0.754156 0
M  V30 2662 C 250.041 3.3238 0.928306 0
M  V30 2663 C 249.154 4.31814 0.126776 0
M  V30 2664 C 248.289 5.20468 1.06236 0
M  V30 2665 C 247.328 6.11577 0.253035 0
M  V30 2666 N 246.465 6.92754 1.14179 0
M  V30 2667 H 251.305 2.8778 -0.773727 0
M  V30 2668 H 248.842 1.41745 -0.393283 0
M  V30 2669 H 250.8 3.89813 1.48666 0
M  V30 2670 H 249.43 2.76976 1.65783 0
M  V30 2671 H 248.482 3.76427 -0.54833 0
M  V30 2672 H 249.794 4.96276 -0.501192 0
M  V30 2673 H 248.948 5.82677 1.69035 0
M  V30 2674 H 247.687 4.56204 1.7242 0
M  V30 2675 H 246.692 5.48428 -0.388108 0
M  V30 2676 H 247.917 6.77892 -0.404839 0
M  V30 2677 H 245.863 6.3111 1.78987 0
M  V30 2678 H 245.78 7.53855 0.569111 0
M  V30 2679 H 247.048 7.59441 1.75697 0
M  V30 2680 N 251.277 0.427512 1.51691 0
M  V30 2681 C 252.526 -0.143679 2.01188 0
M  V30 2682 C 252.839 -1.44642 1.31674 0
M  V30 2683 O 254.045 -2.09997 1.72086 0
M  V30 2684 C 252.501 -0.306602 3.58592 0
M  V30 2685 C 252.109 0.985125 4.37035 0
M  V30 2686 C 253.853 -0.832091 4.16265 0
M  V30 2687 C 251.76 0.788382 5.86122 0
M  V30 2688 H 250.69 -0.0574701 0.751807 0
M  V30 2689 H 253.341 0.555772 1.74881 0
M  V30 2690 H 251.723 -1.06882 3.81303 0
M  V30 2691 H 252.897 1.75492 4.26074 0
M  V30 2692 H 251.212 1.4384 3.90767 0
M  V30 2693 H 253.809 -0.995617 5.25349 0
M  V30 2694 H 254.152 -1.81186 3.74803 0
M  V30 2695 H 254.685 -0.128444 3.97593 0
M  V30 2696 H 251.424 1.74025 6.31978 0
M  V30 2697 H 250.944 0.0582143 5.99772 0
M  V30 2698 H 252.623 0.437722 6.45518 0
M  V30 2699 N 252.755 -1.56801 0.158532 0
M  V30 2700 C 253.983 -2.00859 -0.496303 0
M  V30 2701 C 254.398 -1.03871 -1.57659 0
M  V30 2702 O 253.755 -0.0375165 -1.82461 0
M  V30 2703 C 253.806 -3.4479 -1.08638 0
M  V30 2704 O 253.527 -4.38072 -0.0492322 0
M  V30 2705 C 255.028 -4.04185 -1.8207 0
M  V30 2706 H 252.248 -0.65864 -0.128199 0
M  V30 2707 H 254.792 -2.02885 0.256506 0
M  V30 2708 H 252.947 -3.43579 -1.78975 0
M  V30 2709 H 253.361 -5.2227 -0.483102 0
M  V30 2710 H 254.835 -5.06857 -2.18633 0
M  V30 2711 H 255.312 -3.45549 -2.71095 0
M  V30 2712 H 255.918 -4.0906 -1.16405 0
M  V30 2713 N 254.233 0.115231 -1.57178 0
M  V30 2714 C 255.481 0.820727 -1.84685 0
M  V30 2715 C 255.802 1.80237 -0.744279 0
M  V30 2716 O 255.072 1.94529 0.231375 0
M  V30 2717 H 253.652 0.306084 -0.681411 0
M  V30 2718 H 256.314 0.101656 -1.94635 0
M  V30 2719 H 255.41 1.36366 -2.80733 0
M  V30 2720 N 255.711 1.52812 0.385517 0
M  V30 2721 C 256.941 1.71658 1.14966 0
M  V30 2722 C 257.349 0.436253 1.84102 0
M  V30 2723 O 256.692 -0.599313 1.73649 0
M  V30 2724 C 256.754 2.81309 2.23843 0
M  V30 2725 C 256.418 4.22313 1.74644 0
M  V30 2726 C 257.415 5.05352 1.22129 0
M  V30 2727 C 255.1 4.68648 1.80761 0
M  V30 2728 C 257.094 6.32807 0.763838 0
M  V30 2729 C 254.781 5.96086 1.34627 0
M  V30 2730 C 255.779 6.77996 0.825264 0
M  V30 2731 O 255.467 8.03045 0.370669 0
M  V30 2732 H 255.199 0.578022 0.350523 0
M  V30 2733 H 257.753 2.00263 0.456509 0
M  V30 2734 H 255.983 2.48133 2.96592 0
M  V30 2735 H 257.672 2.88524 2.85497 0
M  V30 2736 H 258.438 4.70736 1.16758 0
M  V30 2737 H 254.317 4.04979 2.20256 0
M  V30 2738 H 257.861 6.96689 0.356494 0
M  V30 2739 H 253.758 6.30205 1.39686 0
M  V30 2740 H 254.526 8.17021 0.491829 0
M  V30 2741 N 257.189 -0.644168 1.43834 0
M  V30 2742 C 258.605 -0.960875 1.27434 0
M  V30 2743 C 258.805 -2.00499 0.200618 0
M  V30 2744 O 257.861 -2.49018 -0.417906 0
M  V30 2745 C 259.174 -1.43653 2.64167 0
M  V30 2746 C 260.722 -1.55271 2.71772 0
M  V30 2747 C 261.197 -2.06224 4.08944 0
M  V30 2748 N 262.688 -2.13513 4.11055 0
M  V30 2749 C 263.423 -2.54081 5.14033 0
M  V30 2750 N 262.919 -2.9388 6.27381 0
M  V30 2751 N 264.712 -2.54101 5.01387 0
M  V30 2752 H 256.863 0.0465779 2.12349 0
M  V30 2753 H 259.126 -0.0417638 0.94708 0
M  V30 2754 H 258.832 -0.743706 3.43747 0
M  V30 2755 H 258.706 -2.40993 2.90176 0
M  V30 2756 H 261.093 -2.23653 1.92519 0
M  V30 2757 H 261.174 -0.563395 2.49519 0
M  V30 2758 H 260.818 -1.38441 4.88668 0
M  V30 2759 H 260.748 -3.06003 4.28567 0
M  V30 2760 H 263.239 -1.85493 3.29242 0
M  V30 2761 H 263.552 -3.2361 7.01781 0
M  V30 2762 H 261.897 -2.91663 6.30839 0
M  V30 2763 H 265.088 -2.22391 4.11898 0
M  V30 2764 H 265.261 -2.85394 5.81768 0
M  V30 2765 N 258.668 -1.30515 -0.883378 0
M  V30 2766 C 259.896 -1.22359 -1.66841 0
M  V30 2767 C 260.311 0.213296 -1.87591 0
M  V30 2768 O 259.668 1.14075 -1.42454 0
M  V30 2769 C 259.719 -1.95011 -3.04389 0
M  V30 2770 O 259.44 -3.3309 -2.84575 0
M  V30 2771 C 260.941 -1.93532 -3.98824 0
M  V30 2772 H 258.161 -0.423371 -0.520575 0
M  V30 2773 H 260.705 -1.72167 -1.10357 0
M  V30 2774 H 258.86 -1.48997 -3.57601 0
M  V30 2775 H 259.274 -3.69907 -3.71846 0
M  V30 2776 H 260.748 -2.48902 -4.92699 0
M  V30 2777 H 261.225 -0.914627 -4.29571 0
M  V30 2778 H 261.831 -2.39364 -3.51547 0
M  V30 2779 N 260.146 1.09593 -1.13257 0
M  V30 2780 C 261.376 1.85231 -0.915049 0
M  V30 2781 C 261.784 1.81345 0.539498 0
M  V30 2782 O 261.127 1.20664 1.38513 0
M  V30 2783 C 261.189 3.34275 -1.3229 0
M  V30 2784 C 260.853 3.6191 -2.79052 0
M  V30 2785 C 261.85 3.57777 -3.77216 0
M  V30 2786 C 259.535 3.90309 -3.16171 0
M  V30 2787 C 261.529 3.81652 -5.1051 0
M  V30 2788 C 259.216 4.13839 -4.49644 0
M  V30 2789 C 260.214 4.09502 -5.46623 0
M  V30 2790 O 259.902 4.32426 -6.77689 0
M  V30 2791 H 259.634 0.591997 -0.326367 0
M  V30 2792 H 262.188 1.394 -1.50854 0
M  V30 2793 H 260.418 3.80805 -0.672667 0
M  V30 2794 H 262.107 3.9132 -1.07812 0
M  V30 2795 H 262.873 3.35865 -3.49885 0
M  V30 2796 H 258.752 3.92811 -2.41289 0
M  V30 2797 H 262.296 3.78182 -5.86195 0
M  V30 2798 H 258.193 4.35232 -4.767 0
M  V30 2799 H 258.961 4.49896 -6.83766 0
M  V30 2800 N 261.624 0.925811 1.2754 0
M  V30 2801 C 262.852 0.581509 1.9856 0
M  V30 2802 C 263.267 -0.840041 1.69082 0
M  V30 2803 O 262.624 -1.55805 0.950312 0
M  V30 2804 C 262.675 0.795589 3.52637 0
M  V30 2805 O 262.396 2.16121 3.81082 0
M  V30 2806 C 263.897 0.459744 4.4091 0
M  V30 2807 H 261.117 0.220538 0.633722 0
M  V30 2808 H 263.661 1.24232 1.6244 0
M  V30 2809 H 261.816 0.18161 3.86974 0
M  V30 2810 H 262.23 2.2098 4.75676 0
M  V30 2811 H 263.704 0.660244 5.48037 0
M  V30 2812 H 264.181 -0.604625 4.35018 0
M  V30 2813 H 264.787 1.05178 4.12089 0
M  V30 2814 N 263.102 -1.41638 0.69111 0
M  V30 2815 C 264.035 -2.28183 -0.0274913 0
M  V30 2816 C 265.013 -1.41984 -0.792424 0
M  V30 2817 O 266.197 -1.71415 -0.784169 0
M  V30 2818 C 263.324 -3.22135 -1.04628 0
M  V30 2819 C 262.37 -4.24848 -0.375037 0
M  V30 2820 S 263.203 -5.28231 0.879321 0
M  V30 2821 C 264.359 -6.25748 -0.137983 0
M  V30 2822 H 264.592 -2.88782 0.706553 0
M  V30 2823 H 262.125 -1.46709 0.481222 0
M  V30 2824 H 264.083 -3.76797 -1.62894 0
M  V30 2825 H 262.744 -2.6064 -1.75287 0
M  V30 2826 H 261.937 -4.90837 -1.14433 0
M  V30 2827 H 261.539 -3.73758 0.134434 0
M  V30 2828 H 263.831 -6.70188 -0.992659 0
M  V30 2829 H 264.774 -7.06417 0.487867 0
M  V30 2830 H 265.182 -5.62363 -0.490762 0
M  V30 2831 N 264.58 -0.43555 -1.51462 0
M  V30 2832 C 265.51 0.367376 -2.30592 0
M  V30 2833 C 266.491 1.02263 -1.35928 0
M  V30 2834 O 267.676 1.02661 -1.64847 0
M  V30 2835 C 264.806 1.46983 -3.14664 0
M  V30 2836 C 263.76 0.938161 -4.17591 0
M  V30 2837 C 263.086 2.13622 -4.90173 0
M  V30 2838 C 264.386 -0.0261621 -5.22293 0
M  V30 2839 H 266.08 -0.292969 -2.97963 0
M  V30 2840 H 263.626 -0.14234 -1.43295 0
M  V30 2841 H 265.579 2.03873 -3.688 0
M  V30 2842 H 264.303 2.15843 -2.4511 0
M  V30 2843 H 262.962 0.391481 -3.64504 0
M  V30 2844 H 262.61 2.81098 -4.17124 0
M  V30 2845 H 262.31 1.78688 -5.59772 0
M  V30 2846 H 263.834 2.7107 -5.47132 0
M  V30 2847 H 265.248 0.452384 -5.71512 0
M  V30 2848 H 263.645 -0.287992 -5.99409 0
M  V30 2849 H 264.715 -0.963391 -4.75233 0
M  V30 2850 N 266.058 1.56714 -0.166846 0
M  V30 2851 C 267.021 2.16539 0.751232 0
M  V30 2852 C 268.021 1.11228 1.16125 0
M  V30 2853 O 269.211 1.36765 1.07894 0
M  V30 2854 C 266.343 2.74462 2.02196 0
M  V30 2855 H 267.536 2.99013 0.230499 0
M  V30 2856 H 265.089 1.56081 0.0826982 0
M  V30 2857 H 265.824 1.95709 2.58589 0
M  V30 2858 H 265.609 3.51527 1.73698 0
M  V30 2859 H 267.099 3.20489 2.67725 0
M  V30 2860 N 267.536 -0.106894 1.57237 0
M  V30 2861 C 268.466 -1.13148 2.04254 0
M  V30 2862 C 269.447 -1.42476 0.929224 0
M  V30 2863 O 270.632 -1.52709 1.19973 0
M  V30 2864 C 267.762 -2.4545 2.45706 0
M  V30 2865 C 266.716 -2.30558 3.60592 0
M  V30 2866 C 266.042 -3.67931 3.87983 0
M  V30 2867 C 267.342 -1.75597 4.91897 0
M  V30 2868 H 269.036 -0.740374 2.90101 0
M  V30 2869 H 266.582 -0.354696 1.39563 0
M  V30 2870 H 268.535 -3.17389 2.77205 0
M  V30 2871 H 267.259 -2.86475 1.56843 0
M  V30 2872 H 265.918 -1.61067 3.29322 0
M  V30 2873 H 265.566 -4.06462 2.96306 0
M  V30 2874 H 265.266 -3.58817 4.65322 0
M  V30 2875 H 266.79 -4.41356 4.21945 0
M  V30 2876 H 268.204 -2.37364 5.21854 0
M  V30 2877 H 266.601 -1.77272 5.73319 0
M  V30 2878 H 267.671 -0.714451 4.79608 0
M  V30 2879 N 269.014 -1.53014 -0.377408 0
M  V30 2880 C 270.425 -1.60438 -0.954798 0
M  V30 2881 C 270.776 -0.464418 -1.90624 0
M  V30 2882 O 269.901 0.41087 -2.12464 0
M  V30 2883 C 270.496 -2.90797 -1.73847 0
M  V30 2884 C 269.055 -3.00595 -2.26538 0
M  V30 2885 C 268.202 -2.55645 -1.07429 0
M  V30 2886 H 271.153 -1.57926 -0.156575 0
M  V30 2887 H 271.174 -2.77935 -2.5987 0
M  V30 2888 H 270.686 -3.73746 -1.04574 0
M  V30 2889 H 268.787 -2.22208 -2.99089 0
M  V30 2890 H 268.9 -4.05456 -2.5523 0
M  V30 2891 H 267.264 -2.10239 -1.43777 0
M  V30 2892 H 268.047 -3.41 -0.396728 0
M  V30 2893 N 270.492 0.636531 -1.44174 0
M  V30 2894 C 271.422 1.76003 -1.53444 0
M  V30 2895 C 272.403 1.65619 -0.387841 0
M  V30 2896 O 273.588 1.84461 -0.607257 0
M  V30 2897 C 270.718 3.14511 -1.4731 0
M  V30 2898 C 269.672 3.39677 -2.60391 0
M  V30 2899 C 268.998 4.78159 -2.39308 0
M  V30 2900 C 270.298 3.32772 -4.02567 0
M  V30 2901 H 271.992 1.68501 -2.47483 0
M  V30 2902 H 269.538 0.809237 -1.19111 0
M  V30 2903 H 271.491 3.92878 -1.52397 0
M  V30 2904 H 270.215 3.22783 -0.49785 0
M  V30 2905 H 268.874 2.63688 -2.54684 0
M  V30 2906 H 268.522 4.83128 -1.39988 0
M  V30 2907 H 268.222 4.95956 -3.15122 0
M  V30 2908 H 269.746 5.58762 -2.46205 0
M  V30 2909 H 271.16 4.01051 -4.09672 0
M  V30 2910 H 269.557 3.62104 -4.7854 0
M  V30 2911 H 270.627 2.30669 -4.2652 0
M  V30 2912 N 271.97 1.30982 0.876444 0
M  V30 2913 C 272.9 1.20668 1.99903 0
M  V30 2914 C 273.881 0.095354 1.69833 0
M  V30 2915 O 275.066 0.27885 1.92188 0
M  V30 2916 C 272.196 0.90655 3.3526 0
M  V30 2917 C 271.15 1.97675 3.79617 0
M  V30 2918 C 270.476 1.52943 5.1236 0
M  V30 2919 C 271.776 3.389 3.97422 0
M  V30 2920 H 273.47 2.14586 2.0879 0
M  V30 2921 H 271.016 1.03308 1.00317 0
M  V30 2922 H 272.969 0.821025 4.13324 0
M  V30 2923 H 271.693 -0.0682969 3.26529 0
M  V30 2924 H 270.352 2.05205 3.03787 0
M  V30 2925 H 270 0.54262 5.00065 0
M  V30 2926 H 269.7 2.24532 5.43009 0
M  V30 2927 H 271.224 1.45786 5.92941 0
M  V30 2928 H 272.638 3.34081 4.659 0
M  V30 2929 H 271.035 4.0865 4.3946 0
M  V30 2930 H 272.105 3.80163 3.01006 0
M  V30 2931 N 273.449 -1.08991 1.13837 0
M  V30 2932 C 274.674 -1.85551 0.926585 0
M  V30 2933 C 275.099 -1.80782 -0.519566 0
M  V30 2934 O 274.457 -1.18855 -1.36906 0
M  V30 2935 C 274.505 -3.31266 1.42462 0
M  V30 2936 O 273.609 -4.07822 0.612789 0
M  V30 2937 H 272.95 -0.575192 0.331738 0
M  V30 2938 H 275.48 -1.37604 1.51414 0
M  V30 2939 H 275.49 -3.82112 1.43019 0
M  V30 2940 H 274.165 -3.34052 2.47754 0
M  V30 2941 H 272.742 -3.66731 0.675463 0
M  V30 2942 N 274.927 -0.932562 -1.27047 0
M  V30 2943 C 275.837 -0.441219 -2.30414 0
M  V30 2944 C 276.853 0.480525 -1.67233 0
M  V30 2945 O 278.029 0.362151 -1.98117 0
M  V30 2946 C 275.094 0.293651 -3.45454 0
M  V30 2947 C 274.155 -0.663601 -4.2414 0
M  V30 2948 C 273.388 0.0362932 -5.33688 0
M  V30 2949 O 273.611 1.2548 -5.56427 0
M  V30 2950 O 272.545 -0.638015 -5.98509 0
M  V30 2951 H 276.371 -1.29962 -2.74488 0
M  V30 2952 H 273.956 -0.6981 -1.32087 0
M  V30 2953 H 275.838 0.707951 -4.15411 0
M  V30 2954 H 274.513 1.12758 -3.03426 0
M  V30 2955 H 273.42 -1.12768 -3.56699 0
M  V30 2956 H 274.753 -1.46489 -4.69896 0
M  V30 2957 N 276.405 1.4127 -0.698611 0
M  V30 2958 C 277.337 2.292 0.00399731 0
M  V30 2959 C 278.35 1.44944 0.741279 0
M  V30 2960 O 279.539 1.68416 0.591477 0
M  V30 2961 C 276.639 3.22875 1.02979 0
M  V30 2962 C 275.812 4.35904 0.36151 0
M  V30 2963 C 274.871 5.10134 1.29033 0
M  V30 2964 O 273.897 5.63809 0.781562 0
M  V30 2965 N 275.099 5.17885 2.6225 0
M  V30 2966 H 277.864 2.9014 -0.750921 0
M  V30 2967 H 275.425 1.52455 -0.544882 0
M  V30 2968 H 277.417 3.69404 1.65296 0
M  V30 2969 H 275.987 2.63221 1.68622 0
M  V30 2970 H 275.207 3.91719 -0.441584 0
M  V30 2971 H 276.495 5.08696 -0.103055 0
M  V30 2972 H 275.893 4.7573 3.061 0
M  V30 2973 H 274.45 5.6798 3.19754 0
M  V30 2974 N 277.883 0.443576 1.51229 0
M  V30 2975 C 279.131 -0.120557 2.0174 0
M  V30 2976 C 279.452 -1.42665 1.32935 0
M  V30 2977 O 278.722 -1.9028 0.465866 0
M  V30 2978 H 277.302 -0.0475426 0.745486 0
M  V30 2979 H 279.964 0.587711 1.85828 0
M  V30 2980 H 279.06 -0.291972 3.10731 0
M  V30 2981 N 279.361 -1.56624 0.175154 0
M  V30 2982 C 280.777 -1.58571 -0.180966 0
M  V30 2983 C 280.977 -1.19065 -1.6256 0
M  V30 2984 O 280.033 -0.904044 -2.35761 0
M  V30 2985 C 281.346 -3.00522 0.103326 0
M  V30 2986 C 282.894 -3.12972 0.0418426 0
M  V30 2987 C 283.369 -4.57022 0.299175 0
M  V30 2988 N 284.86 -4.62541 0.247086 0
M  V30 2989 C 285.595 -5.71857 0.420318 0
M  V30 2990 N 285.091 -6.89717 0.652816 0
M  V30 2991 N 286.884 -5.60972 0.355957 0
M  V30 2992 H 279.035 -1.80589 1.11809 0
M  V30 2993 H 281.298 -0.837178 0.444788 0
M  V30 2994 H 281.004 -3.33916 1.10422 0
M  V30 2995 H 280.878 -3.72344 -0.603299 0
M  V30 2996 H 283.265 -2.79403 -0.949636 0
M  V30 2997 H 283.346 -2.43578 0.781238 0
M  V30 2998 H 282.99 -4.913 1.28788 0
M  V30 2999 H 282.92 -5.24579 -0.460876 0
M  V30 3000 H 285.411 -3.77829 0.0731895 0
M  V30 3001 H 285.724 -7.68911 0.774347 0
M  V30 3002 H 284.069 -6.91572 0.689476 0
M  V30 3003 H 287.26 -4.67773 0.174882 0
M  V30 3004 H 287.433 -6.46111 0.494388 0
M  V30 3005 N 280.839 0.0985539 -1.57292 0
M  V30 3006 C 281.769 1.12064 -2.04851 0
M  V30 3007 C 282.75 1.41981 -0.936767 0
M  V30 3008 O 283.935 1.52071 -1.20781 0
M  V30 3009 C 281.065 2.44144 -2.47004 0
M  V30 3010 C 280.019 2.28643 -3.6181 0
M  V30 3011 C 279.345 3.65869 -3.89929 0
M  V30 3012 C 280.645 1.72986 -4.92822 0
M  V30 3013 H 282.339 0.724979 -2.9049 0
M  V30 3014 H 279.885 0.34729 -1.39749 0
M  V30 3015 H 281.838 3.15914 -2.78884 0
M  V30 3016 H 280.562 2.85639 -1.5836 0
M  V30 3017 H 279.221 1.59318 -3.30172 0
M  V30 3018 H 278.869 4.04885 -2.98458 0
M  V30 3019 H 278.569 3.56344 -4.67218 0
M  V30 3020 H 280.093 4.39112 -4.2428 0
M  V30 3021 H 281.507 2.34593 -5.23105 0
M  V30 3022 H 279.904 1.74229 -5.74251 0
M  V30 3023 H 280.974 0.689007 -4.7998 0
M  V30 3024 N 282.317 1.53212 0.369288 0
M  V30 3025 C 283.563 1.69466 1.11397 0
M  V30 3026 C 283.896 0.443257 1.89074 0
M  V30 3027 O 283.171 -0.559386 1.86282 0
M  V30 3028 C 283.454 2.9422 2.07621 0
M  V30 3029 C 283.307 4.29508 1.33577 0
M  V30 3030 C 284.626 3.14565 3.07794 0
M  V30 3031 H 281.745 0.616667 0.403597 0
M  V30 3032 H 284.387 1.85845 0.395179 0
M  V30 3033 H 282.537 2.80387 2.68916 0
M  V30 3034 H 284.209 4.55147 0.750955 0
M  V30 3035 H 282.452 4.29088 0.637618 0
M  V30 3036 H 283.123 5.12926 2.03989 0
M  V30 3037 H 285.599 3.2756 2.56601 0
M  V30 3038 H 284.475 4.03297 3.72348 0
M  V30 3039 H 284.736 2.29675 3.77759 0
M  V30 3040 N 283.795 -0.628877 1.44509 0
M  V30 3041 C 284.758 -1.72263 1.51188 0
M  V30 3042 C 285.758 -1.55907 0.39367 0
M  V30 3043 O 286.948 -1.61361 0.656377 0
M  V30 3044 C 284.08 -3.11365 1.38798 0
M  V30 3045 H 285.273 -1.67714 2.4862 0
M  V30 3046 H 282.826 -0.842737 1.31634 0
M  V30 3047 H 283.561 -3.21507 0.424693 0
M  V30 3048 H 283.346 -3.24644 2.19884 0
M  V30 3049 H 284.836 -3.91075 1.46458 0
M  V30 3050 N 285.273 -1.31445 -0.869486 0
M  V30 3051 C 286.519 -1.21337 -1.62496 0
M  V30 3052 C 286.852 0.227872 -1.92858 0
M  V30 3053 O 286.127 1.16094 -1.56053 0
M  V30 3054 C 286.41 -2.05814 -2.95487 0
M  V30 3055 C 286.263 -3.5824 -2.72 0
M  V30 3056 C 287.582 -1.9079 -3.96594 0
M  V30 3057 H 284.701 -0.442135 -0.589649 0
M  V30 3058 H 287.343 -1.6124 -1.00507 0
M  V30 3059 H 285.493 -1.71913 -3.48394 0
M  V30 3060 H 287.165 -4.0228 -2.25762 0
M  V30 3061 H 285.408 -3.81647 -2.06224 0
M  V30 3062 H 286.079 -4.12657 -3.66631 0
M  V30 3063 H 288.555 -2.20459 -3.52898 0
M  V30 3064 H 287.431 -2.52199 -4.87531 0
M  V30 3065 H 287.692 -0.871341 -4.33428 0
M  V30 3066 N 286.751 1.08385 -1.14413 0
M  V30 3067 C 287.997 1.81044 -0.913834 0
M  V30 3068 C 288.33 1.86004 0.558209 0
M  V30 3069 O 287.605 1.33606 1.4135 0
M  V30 3070 C 287.888 3.26648 -1.51569 0
M  V30 3071 C 287.741 3.29895 -3.0576 0
M  V30 3072 C 289.06 4.23629 -1.19273 0
M  V30 3073 H 286.179 0.65727 -0.333414 0
M  V30 3074 H 288.821 1.26896 -1.41412 0
M  V30 3075 H 286.971 3.72889 -1.09023 0
M  V30 3076 H 288.643 2.91977 -3.57137 0
M  V30 3077 H 286.886 2.69163 -3.40197 0
M  V30 3078 H 287.557 4.32516 -3.42977 0
M  V30 3079 H 290.033 3.85727 -1.56057 0
M  V30 3080 H 288.909 5.23822 -1.64017 0
M  V30 3081 H 289.17 4.41968 -0.108068 0
M  V30 3082 N 288.23 0.939286 1.26551 0
M  V30 3083 C 289.162 0.404704 2.25599 0
M  V30 3084 C 290.175 -0.470983 1.55838 0
M  V30 3085 O 291.364 -0.281734 1.76263 0
M  V30 3086 C 288.464 -0.43764 3.36062 0
M  V30 3087 C 287.637 0.421449 4.35365 0
M  V30 3088 C 286.696 -0.36015 5.24966 0
M  V30 3089 O 285.722 0.236167 5.6871 0
M  V30 3090 N 286.924 -1.65715 5.56344 0
M  V30 3091 H 289.689 1.25618 2.72103 0
M  V30 3092 H 287.25 0.807963 1.40298 0
M  V30 3093 H 289.242 -0.967866 3.92956 0
M  V30 3094 H 287.812 -1.18991 2.89067 0
M  V30 3095 H 287.032 1.1329 3.7757 0
M  V30 3096 H 288.32 1.00835 4.98708 0
M  V30 3097 H 287.718 -2.16378 5.22682 0
M  V30 3098 H 286.275 -2.13366 6.15888 0
M  V30 3099 N 289.708 -1.40897 0.706093 0
M  V30 3100 C 290.638 -2.33418 0.0620085 0
M  V30 3101 C 291.619 -1.52385 -0.755827 0
M  V30 3102 O 292.804 -1.80886 -0.706674 0
M  V30 3103 C 289.934 -3.36293 -0.867445 0
M  V30 3104 C 288.888 -4.27716 -0.155932 0
M  V30 3105 C 288.214 -5.2105 -1.20046 0
M  V30 3106 C 289.514 -5.12944 0.984149 0
M  V30 3107 H 291.208 -2.87527 0.83477 0
M  V30 3108 H 288.754 -1.38249 0.402875 0
M  V30 3109 H 290.707 -3.99949 -1.32735 0
M  V30 3110 H 289.431 -2.80556 -1.67199 0
M  V30 3111 H 288.09 -3.65498 0.284047 0
M  V30 3112 H 287.738 -4.61624 -1.99781 0
M  V30 3113 H 287.438 -5.83056 -0.729328 0
M  V30 3114 H 288.962 -5.87584 -1.66066 0
M  V30 3115 H 290.376 -5.70109 0.604048 0
M  V30 3116 H 288.773 -5.83945 1.38304 0
M  V30 3117 H 289.843 -4.49485 1.81911 0
M  V30 3118 N 291.186 -0.45159 -1.50991 0
M  V30 3119 C 292.116 0.342898 -2.30969 0
M  V30 3120 C 293.097 1.00815 -1.37005 0
M  V30 3121 O 294.282 1.00907 -1.65926 0
M  V30 3122 C 291.412 1.43637 -3.16205 0
M  V30 3123 C 290.366 0.893818 -4.18563 0
M  V30 3124 C 289.692 2.08411 -4.92411 0
M  V30 3125 C 290.992 -0.0815568 -5.22236 0
M  V30 3126 H 292.686 -0.324556 -2.97636 0
M  V30 3127 H 290.232 -0.157531 -1.43136 0
M  V30 3128 H 292.185 1.9995 -3.70942 0
M  V30 3129 H 290.909 2.13232 -2.47386 0
M  V30 3130 H 289.568 0.352798 -3.64898 0
M  V30 3131 H 289.216 2.76658 -4.20082 0
M  V30 3132 H 288.916 1.72741 -5.61636 0
M  V30 3133 H 290.44 2.65251 -5.49976 0
M  V30 3134 H 291.854 0.391742 -5.7196 0
M  V30 3135 H 290.251 -0.351551 -5.99069 0
M  V30 3136 H 291.321 -1.01374 -4.74185 0
M  V30 3137 N 292.664 1.56529 -0.183458 0
M  V30 3138 C 293.612 2.19873 0.758845 0
M  V30 3139 C 294.606 1.16638 1.22849 0
M  V30 3140 O 295.812 1.3481 1.19274 0
M  V30 3141 H 292.187 0.7045 0.263029 0
M  V30 3142 H 294.158 2.97724 0.200755 0
M  V30 3143 C 292.907 2.86314 1.9728 0
M  V30 3144 H 292.23 3.65487 1.62047 0
M  V30 3145 H 293.67 3.3409 2.61075 0
M  V30 3146 C 292.129 1.86729 2.80418 0
M  V30 3147 O 292.659 1.36031 3.77966 0
M  V30 3148 N 290.865 1.55216 2.45675 0
M  V30 3149 H 290.412 1.96636 1.66409 0
M  V30 3150 H 290.37 0.888388 3.01588 0
M  V30 3151 N 294.142 -0.090211 1.57342 0
M  V30 3152 C 295.089 -1.10909 2.02405 0
M  V30 3153 C 296.059 -1.39523 0.901252 0
M  V30 3154 O 297.244 -1.50903 1.1676 0
M  V30 3155 C 294.384 -2.42277 2.45755 0
M  V30 3156 C 293.497 -2.20352 3.71576 0
M  V30 3157 C 292.632 -3.45154 4.03785 0
M  V30 3158 C 291.671 -3.18512 5.22701 0
M  V30 3159 N 290.808 -4.35593 5.50639 0
M  V30 3160 H 295.648 -0.71782 2.89225 0
M  V30 3161 H 293.185 -0.342901 1.43048 0
M  V30 3162 H 295.143 -3.18951 2.68935 0
M  V30 3163 H 293.773 -2.79242 1.61938 0
M  V30 3164 H 292.825 -1.34458 3.55844 0
M  V30 3165 H 294.137 -1.96661 4.58395 0
M  V30 3166 H 293.291 -4.30233 4.27767 0
M  V30 3167 H 292.03 -3.71904 3.15498 0
M  V30 3168 H 291.035 -2.31827 4.98534 0
M  V30 3169 H 292.26 -2.93103 6.12591 0
M  V30 3170 H 290.206 -4.6241 4.6531 0
M  V30 3171 H 290.123 -4.1511 6.31838 0
M  V30 3172 H 291.391 -5.21723 5.7916 0
M  V30 3173 N 295.62 -1.53406 -0.361157 0
M  V30 3174 C 296.55 -1.83136 -1.44857 0
M  V30 3175 C 297.531 -0.685174 -1.5569 0
M  V30 3176 O 298.716 -0.93544 -1.70186 0
M  V30 3177 C 295.846 -2.02522 -2.82138 0
M  V30 3178 C 294.8 -3.18302 -2.86126 0
M  V30 3179 C 294.126 -3.22989 -4.26125 0
M  V30 3180 C 295.426 -4.56796 -2.53248 0
M  V30 3181 H 297.12 -2.74201 -1.20226 0
M  V30 3182 H 294.666 -1.31938 -0.576922 0
M  V30 3183 H 296.619 -2.21904 -3.58241 0
M  V30 3184 H 295.343 -1.08172 -3.08166 0
M  V30 3185 H 294.002 -2.98747 -2.12475 0
M  V30 3186 H 293.65 -2.26267 -4.49235 0
M  V30 3187 H 293.35 -4.00781 -4.29708 0
M  V30 3188 H 294.874 -3.44559 -5.04094 0
M  V30 3189 H 296.288 -4.7631 -3.19064 0
M  V30 3190 H 294.685 -5.36862 -2.68141 0
M  V30 3191 H 295.755 -4.61606 -1.48484 0
M  V30 3192 N 297.098 0.621204 -1.44841 0
M  V30 3193 C 298.045 1.73267 -1.5247 0
M  V30 3194 C 299.015 1.6189 -0.371611 0
M  V30 3195 O 300.2 1.81668 -0.58321 0
M  V30 3196 C 297.34 3.11545 -1.48438 0
M  V30 3197 C 296.453 3.33827 -2.74196 0
M  V30 3198 C 295.588 4.62133 -2.61929 0
M  V30 3199 C 294.627 4.77627 -3.82804 0
M  V30 3200 N 293.764 5.97219 -3.69153 0
M  V30 3201 H 298.604 1.66082 -2.47428 0
M  V30 3202 H 296.141 0.810026 -1.22788 0
M  V30 3203 H 298.099 3.91528 -1.4409 0
M  V30 3204 H 296.729 3.1772 -0.570402 0
M  V30 3205 H 295.781 2.47715 -2.88689 0
M  V30 3206 H 297.093 3.41153 -3.6389 0
M  V30 3207 H 296.247 5.50291 -2.5547 0
M  V30 3208 H 294.986 4.57182 -1.69811 0
M  V30 3209 H 293.991 3.87896 -3.89637 0
M  V30 3210 H 295.216 4.84385 -4.75971 0
M  V30 3211 H 293.162 5.93339 -2.79794 0
M  V30 3212 H 293.079 6.05644 -4.52472 0
M  V30 3213 H 294.347 6.87912 -3.66603 0
M  V30 3214 N 298.576 1.31904 0.862503 0
M  V30 3215 C 299.987 1.19803 1.43193 0
M  V30 3216 C 300.338 -0.192567 1.95253 0
M  V30 3217 O 299.463 -1.09081 1.86896 0
M  V30 3218 C 300.058 2.16883 2.60283 0
M  V30 3219 C 298.617 2.08692 3.13248 0
M  V30 3220 C 297.764 2.05691 1.85975 0
M  V30 3221 H 300.715 1.43846 0.670365 0
M  V30 3222 H 300.736 1.76278 3.37204 0
M  V30 3223 H 300.248 3.18083 2.22363 0
M  V30 3224 H 298.349 1.10713 3.55771 0
M  V30 3225 H 298.462 2.9815 3.75025 0
M  V30 3226 H 296.826 1.50814 2.05249 0
M  V30 3227 H 297.609 3.08659 1.50282 0
M  V30 3228 N 300.054 -1.07777 1.14986 0
M  V30 3229 C 301.284 -1.83752 0.944402 0
M  V30 3230 C 301.692 -1.8218 -0.51058 0
M  V30 3231 O 301.035 -1.22852 -1.36576 0
M  V30 3232 C 301.097 -3.32128 1.37592 0
M  V30 3233 C 300.761 -3.57425 2.84775 0
M  V30 3234 C 301.758 -3.5173 3.8286 0
M  V30 3235 C 299.443 -3.8523 3.2234 0
M  V30 3236 C 301.437 -3.73482 5.16517 0
M  V30 3237 C 299.124 -4.06634 4.56171 0
M  V30 3238 C 300.122 -4.00754 5.53069 0
M  V30 3239 O 299.81 -4.2159 6.84483 0
M  V30 3240 H 299.542 -0.58673 0.335744 0
M  V30 3241 H 302.096 -1.36982 1.53052 0
M  V30 3242 H 300.326 -3.79686 0.733165 0
M  V30 3243 H 302.015 -3.89555 1.14024 0
M  V30 3244 H 302.781 -3.30256 3.55184 0
M  V30 3245 H 298.66 -3.88923 2.47508 0
M  V30 3246 H 302.204 -3.68808 5.92137 0
M  V30 3247 H 298.101 -4.27593 4.83564 0
M  V30 3248 H 298.869 -4.38961 6.90837 0
M  V30 3249 N 301.532 -0.945985 -1.26051 0
M  V30 3250 C 302.757 -0.612525 -1.98149 0
M  V30 3251 C 303.182 0.806623 -1.69927 0
M  V30 3252 O 302.54 1.54411 -0.950108 0
M  V30 3253 C 302.588 -0.866981 -3.50023 0
M  V30 3254 O 301.692 0.0585333 -4.12358 0
M  V30 3255 H 301.033 -0.23379 -0.621481 0
M  V30 3256 H 303.563 -1.27023 -1.60395 0
M  V30 3257 H 303.573 -0.789792 -4.00283 0
M  V30 3258 H 302.248 -1.90135 -3.69894 0
M  V30 3259 H 300.825 -0.0701241 -3.72834 0
M  V30 3260 N 303.011 1.40521 -0.713556 0
M  V30 3261 C 304.422 1.83853 -0.324807 0
M  V30 3262 C 304.773 1.59667 1.14021 0
M  V30 3263 O 303.898 1.07649 1.87725 0
M  V30 3264 C 304.493 3.33751 -0.582746 0
M  V30 3265 C 303.052 3.75584 -0.247727 0
M  V30 3266 C 302.199 2.63753 -0.856121 0
M  V30 3267 H 305.15 1.29817 -0.91286 0
M  V30 3268 H 305.171 3.80194 0.152682 0
M  V30 3269 H 304.683 3.51322 -1.64908 0
M  V30 3270 H 302.784 3.63608 0.813624 0
M  V30 3271 H 302.897 4.7373 -0.715307 0
M  V30 3272 H 301.261 2.53108 -0.28432 0
M  V30 3273 H 302.044 2.84137 -1.92668 0
M  V30 3274 N 304.489 0.459591 1.5075 0
M  V30 3275 C 305.9 0.00171547 1.867 0
M  V30 3276 C 306.251 -1.39934 1.37525 0
M  V30 3277 O 305.376 -2.03523 0.735349 0
M  V30 3278 C 305.971 -0.00366298 3.388 0
M  V30 3279 C 304.53 -0.406026 3.74204 0
M  V30 3280 C 303.677 0.38673 2.7459 0
M  V30 3281 H 306.628 0.674413 1.43657 0
M  V30 3282 H 306.649 -0.808371 3.71814 0
M  V30 3283 H 306.161 1.01617 3.74561 0
M  V30 3284 H 304.262 -1.43063 3.4404 0
M  V30 3285 H 304.375 -0.115362 4.78961 0
M  V30 3286 H 302.739 -0.158019 2.54209 0
M  V30 3287 H 303.522 1.40585 3.13194 0
M  V30 3288 N 305.967 -1.56429 0.191757 0
M  V30 3289 C 307.244 -1.89224 -0.495332 0
M  V30 3290 C 307.624 -1.10478 -1.79883 0
M  V30 3291 O 306.972 -0.204852 -2.2758 0
M  V30 3292 C 307.182 -3.41548 -0.717367 0
M  V30 3293 C 308.53 -4.11711 -1.03823 0
M  V30 3294 O 309.554 -3.4698 -0.805204 0
M  V30 3295 O 308.413 -5.2611 -1.47887 0
M  V30 3296 H 305.507 -0.785788 -0.25781 0
M  V30 3297 H 308.053 -1.68111 0.231721 0
M  V30 3298 H 306.825 -3.90772 0.203287 0
M  V30 3299 H 306.448 -3.68342 -1.497 0
M  V30 3300 N 307.445 0.0818655 -1.57387 0
M  V30 3301 C 308.408 1.08265 -2.02018 0
M  V30 3302 C 309.408 1.32183 -0.915664 0
M  V30 3303 O 310.598 1.28073 -1.18081 0
M  V30 3304 C 307.73 2.42871 -2.39221 0
M  V30 3305 H 308.923 0.698204 -2.91659 0
M  V30 3306 H 306.476 0.327303 -1.52835 0
M  V30 3307 H 307.211 2.86167 -1.52575 0
M  V30 3308 H 306.996 2.26855 -3.19811 0
M  V30 3309 H 308.486 3.14826 -2.74362 0
M  V30 3310 N 308.923 1.53595 0.353017 0
M  V30 3311 C 309.853 1.83902 1.43883 0
M  V30 3312 C 310.834 0.693421 1.55324 0
M  V30 3313 O 312.019 0.944452 1.69687 0
M  V30 3314 C 309.149 2.04016 2.8106 0
M  V30 3315 C 308.103 3.19814 2.84434 0
M  V30 3316 C 307.429 3.25244 4.24406 0
M  V30 3317 C 308.729 4.58133 2.50822 0
M  V30 3318 H 310.423 2.74835 1.1877 0
M  V30 3319 H 307.969 1.32242 0.569917 0
M  V30 3320 H 309.922 2.238 3.57059 0
M  V30 3321 H 308.646 1.09804 3.07588 0
M  V30 3322 H 307.305 2.9987 2.10887 0
M  V30 3323 H 306.953 2.28646 4.48029 0
M  V30 3324 H 306.653 4.03054 4.27576 0
M  V30 3325 H 308.177 3.47228 5.0226 0
M  V30 3326 H 309.591 4.77995 3.16534 0
M  V30 3327 H 307.988 5.38276 2.6529 0
M  V30 3328 H 309.058 4.62387 1.46034 0
M  V30 3329 N 310.401 -0.613514 1.45168 0
M  V30 3330 C 311.331 -1.7354 1.56225 0
M  V30 3331 C 312.312 -1.64981 0.41414 0
M  V30 3332 O 313.497 -1.83472 0.636526 0
M  V30 3333 C 310.627 -3.12128 1.52295 0
M  V30 3334 C 309.581 -3.35491 2.65762 0
M  V30 3335 C 308.907 -4.74291 2.46885 0
M  V30 3336 C 310.207 -3.26325 4.0781 0
M  V30 3337 H 311.901 -1.64543 2.50132 0
M  V30 3338 H 309.447 -0.790185 1.20383 0
M  V30 3339 H 311.4 -3.90404 1.58628 0
M  V30 3340 H 310.124 -3.2195 0.549139 0
M  V30 3341 H 308.783 -2.59603 2.58847 0
M  V30 3342 H 308.431 -4.80839 1.47657 0
M  V30 3343 H 308.131 -4.9088 3.22972 0
M  V30 3344 H 309.655 -5.54775 2.55063 0
M  V30 3345 H 311.069 -3.94483 4.16 0
M  V30 3346 H 309.466 -3.54445 4.8424 0
M  V30 3347 H 310.536 -2.23855 4.30136 0
M  V30 3348 N 311.879 -1.3236 -0.855495 0
M  V30 3349 C 312.842 -1.21164 -1.94556 0
M  V30 3350 C 313.842 -0.134908 -1.60233 0
M  V30 3351 O 315.032 -0.385249 -1.69887 0
M  V30 3352 C 312.164 -0.863192 -3.29791 0
M  V30 3353 H 313.357 -2.18038 -2.05911 0
M  V30 3354 H 310.91 -1.16179 -1.04557 0
M  V30 3355 H 311.645 0.103769 -3.24134 0
M  V30 3356 H 311.43 -1.64166 -3.56078 0
M  V30 3357 H 312.92 -0.809156 -4.09686 0
M  V30 3358 N 313.357 1.07166 -1.15556 0
M  V30 3359 C 314.267 2.17947 -0.868116 0
M  V30 3360 C 315.283 1.73297 0.156297 0
M  V30 3361 O 316.459 2.01392 -0.0182327 0
M  V30 3362 C 313.524 3.44789 -0.36355 0
M  V30 3363 C 312.585 4.03996 -1.45209 0
M  V30 3364 C 311.818 5.24783 -0.971508 0
M  V30 3365 O 312.041 5.70109 0.182194 0
M  V30 3366 O 310.975 5.75715 -1.75603 0
M  V30 3367 H 314.801 2.4503 -1.79427 0
M  V30 3368 H 312.386 1.16539 -0.934824 0
M  V30 3369 H 314.268 4.21307 -0.0887113 0
M  V30 3370 H 312.943 3.19253 0.534708 0
M  V30 3371 H 311.85 3.29009 -1.78056 0
M  V30 3372 H 313.183 4.33808 -2.32533 0
M  V30 3373 N 314.835 0.952656 1.25548 0
M  V30 3374 C 316.251 0.656769 1.4546 0
M  V30 3375 C 316.451 -0.78633 1.85524 0
M  V30 3376 O 315.507 -1.56183 1.98402 0
M  V30 3377 C 316.82 1.62801 2.52817 0
M  V30 3378 C 318.368 1.63897 2.66659 0
M  V30 3379 C 318.843 2.5978 3.77198 0
M  V30 3380 N 320.334 2.58133 3.84606 0
M  V30 3381 C 321.069 3.29003 4.69621 0
M  V30 3382 N 320.565 4.09339 5.58939 0
M  V30 3383 N 322.358 3.179 4.63569 0
M  V30 3384 H 314.509 1.88526 0.978344 0
M  V30 3385 H 316.772 0.810815 0.491206 0
M  V30 3386 H 316.478 2.65869 2.30232 0
M  V30 3387 H 316.352 1.38898 3.50695 0
M  V30 3388 H 318.739 0.615481 2.8861 0
M  V30 3389 H 318.82 1.91858 1.69187 0
M  V30 3390 H 318.464 3.62254 3.55997 0
M  V30 3391 H 318.394 2.29105 4.7415 0
M  V30 3392 H 320.885 1.99809 3.20757 0
M  V30 3393 H 321.198 4.6034 6.20731 0
M  V30 3394 H 319.543 4.13438 5.58654 0
M  V30 3395 H 322.734 2.54612 3.92798 0
M  V30 3396 H 322.907 3.73398 5.29602 0
M  V30 3397 N 316.313 -1.40141 0.720998 0
M  V30 3398 C 317.562 -2.0002 0.259804 0
M  V30 3399 C 317.875 -1.57839 -1.15526 0
M  V30 3400 O 319.081 -2.10455 -1.71525 0
M  V30 3401 C 317.537 -3.57516 0.413566 0
M  V30 3402 C 317.145 -4.08667 1.83562 0
M  V30 3403 C 318.889 -4.24498 0.0134387 0
M  V30 3404 C 316.796 -5.58686 1.93968 0
M  V30 3405 H 315.726 -0.748195 0.0933806 0
M  V30 3406 H 318.377 -1.60313 0.892866 0
M  V30 3407 H 316.759 -3.9495 -0.288169 0
M  V30 3408 H 317.933 -3.82598 2.56817 0
M  V30 3409 H 316.248 -3.543 2.1877 0
M  V30 3410 H 318.845 -5.34654 0.0703954 0
M  V30 3411 H 319.188 -4.03375 -1.02927 0
M  V30 3412 H 319.721 -3.92188 0.665815 0
M  V30 3413 H 316.46 -5.8467 2.96379 0
M  V30 3414 H 315.98 -5.86602 1.25131 0
M  V30 3415 H 317.659 -6.23875 1.71431 0
M  V30 3416 N 317.792 -0.46758 -1.50504 0
M  V30 3417 C 319.069 0.15003 -1.95024 0
M  V30 3418 C 319.449 1.57304 -1.40779 0
M  V30 3419 O 318.797 2.20281 -0.607319 0
M  V30 3420 C 319.007 0.0969324 -3.48865 0
M  V30 3421 C 320.355 0.287565 -4.23625 0
M  V30 3422 O 321.379 0.173678 -3.55776 0
M  V30 3423 O 320.238 0.517186 -5.44047 0
M  V30 3424 H 317.332 0.113582 -0.819163 0
M  V30 3425 H 319.878 -0.52773 -1.61286 0
M  V30 3426 H 318.65 -0.896732 -3.80886 0
M  V30 3427 H 318.273 0.816303 -3.8913 0
M  V30 3428 N 319.27 1.56325 -0.20005 0
M  V30 3429 C 320.218 2.20666 0.735482 0
M  V30 3430 C 321.212 1.17934 1.21605 0
M  V30 3431 O 322.418 1.36068 1.17837 0
M  V30 3432 H 318.793 0.70725 0.255542 0
M  V30 3433 H 320.764 2.9792 0.169166 0
M  V30 3434 C 319.513 2.88391 1.94232 0
M  V30 3435 H 318.836 3.67185 1.58161 0
M  V30 3436 H 320.276 3.3684 2.57517 0
M  V30 3437 C 318.735 1.89692 2.78421 0
M  V30 3438 O 319.265 1.40032 3.76502 0
M  V30 3439 N 317.471 1.57813 2.44015 0
M  V30 3440 H 317.018 1.9839 1.64314 0
M  V30 3441 H 316.976 0.920325 3.00628 0
M  V30 3442 N 320.748 -0.0735177 1.57428 0
M  V30 3443 C 321.68 -1.11423 2.00294 0
M  V30 3444 C 322.693 -1.35084 0.908637 0
M  V30 3445 O 323.882 -1.33355 1.18654 0
M  V30 3446 C 320.982 -2.46548 2.32523 0
M  V30 3447 C 320.155 -2.42867 3.63778 0
M  V30 3448 C 319.214 -3.60087 3.83697 0
M  V30 3449 O 318.24 -3.41595 4.55304 0
M  V30 3450 N 319.442 -4.80372 3.25919 0
M  V30 3451 H 322.207 -0.749206 2.90184 0
M  V30 3452 H 319.768 -0.262195 1.59763 0
M  V30 3453 H 321.76 -3.23607 2.43024 0
M  V30 3454 H 320.33 -2.75059 1.48531 0
M  V30 3455 H 319.55 -1.51206 3.64047 0
M  V30 3456 H 320.838 -2.37506 4.49965 0
M  V30 3457 H 320.236 -4.983 2.67795 0
M  V30 3458 H 318.793 -5.54948 3.41871 0
M  V30 3459 N 322.226 -1.5378 -0.344866 0
M  V30 3460 C 323.474 -1.70625 -1.08311 0
M  V30 3461 C 323.795 -0.471447 -1.89215 0
M  V30 3462 O 323.065 0.514616 -1.8902 0
M  V30 3463 H 321.645 -0.629058 -0.402859 0
M  V30 3464 H 324.307 -1.9103 -0.386459 0
M  V30 3465 H 323.403 -2.57656 -1.76124 0
M  V30 3466 N 323.704 0.605807 -1.45491 0
M  V30 3467 C 324.951 1.36476 -1.49601 0
M  V30 3468 C 325.279 1.94007 -0.138452 0
M  V30 3469 O 324.534 1.75638 0.863114 0
M  V30 3470 C 324.833 2.53012 -2.52428 0
M  V30 3471 C 324.499 2.13617 -3.97087 0
M  V30 3472 C 323.161 2.02587 -4.36477 0
M  V30 3473 C 325.513 1.82899 -4.88055 0
M  V30 3474 C 322.841 1.59064 -5.64726 0
M  V30 3475 C 325.193 1.40861 -6.16718 0
M  V30 3476 C 323.857 1.28391 -6.55036 0
M  V30 3477 H 323.127 0.499402 -0.547429 0
M  V30 3478 H 325.774 0.684546 -1.78847 0
M  V30 3479 H 324.079 3.26379 -2.16758 0
M  V30 3480 H 325.776 3.1124 -2.52845 0
M  V30 3481 H 322.366 2.23129 -3.65939 0
M  V30 3482 H 326.55 1.90317 -4.58359 0
M  V30 3483 H 321.806 1.48034 -5.93208 0
M  V30 3484 H 325.98 1.16138 -6.86648 0
M  V30 3485 H 323.607 0.944403 -7.54311 0
M  V30 3486 N 325.182 1.32811 0.848464 0
M  V30 3487 C 326.41 1.26739 1.63538 0
M  V30 3488 C 326.825 -0.163484 1.88091 0
M  V30 3489 O 326.182 -1.10258 1.45429 0
M  V30 3490 C 326.233 2.03013 2.99112 0
M  V30 3491 O 325.954 3.40518 2.75643 0
M  V30 3492 C 327.455 2.04038 3.93552 0
M  V30 3493 H 324.675 0.437024 0.509167 0
M  V30 3494 H 327.219 1.75033 1.05753 0
M  V30 3495 H 325.374 1.58426 3.53525 0
M  V30 3496 H 325.788 3.79635 3.61908 0
M  V30 3497 H 327.262 2.61877 4.85926 0
M  V30 3498 H 327.739 1.0282 4.26995 0
M  V30 3499 H 328.345 2.486 3.45077 0
M  V30 3500 N 326.66 -1.06551 1.16123 0
M  V30 3501 C 327.885 -1.83544 0.965735 0
M  V30 3502 C 328.31 -1.81843 -0.481102 0
M  V30 3503 O 327.668 -1.21732 -1.34354 0
M  V30 3504 C 327.716 -3.28169 1.49457 0
M  V30 3505 O 326.82 -4.0643 0.699157 0
M  V30 3506 H 326.161 -0.568026 0.343864 0
M  V30 3507 H 328.691 -1.34362 1.54299 0
M  V30 3508 H 328.701 -3.78992 1.51092 0
M  V30 3509 H 327.376 -3.28722 2.54784 0
M  V30 3510 H 325.953 -3.65216 0.7531 0
M  V30 3511 N 328.138 -0.959301 -1.25041 0
M  V30 3512 C 329.101 -0.487677 -2.23952 0
M  V30 3513 C 330.101 0.41119 -1.55454 0
M  V30 3514 O 331.291 0.207825 -1.72956 0
M  V30 3515 C 328.423 0.294807 -3.39623 0
M  V30 3516 H 329.616 -1.36198 -2.67189 0
M  V30 3517 H 327.169 -0.743042 -1.37508 0
M  V30 3518 H 327.904 1.18658 -3.01813 0
M  V30 3519 H 327.689 -0.35012 -3.90534 0
M  V30 3520 H 329.179 0.614089 -4.1306 0
M  V30 3521 N 329.616 1.39756 -0.72842 0
M  V30 3522 C 330.893 1.94574 -0.200079 0
M  V30 3523 C 331.273 1.66569 1.29684 0
M  V30 3524 O 330.621 0.990326 2.05924 0
M  V30 3525 C 330.831 3.45004 -0.526608 0
M  V30 3526 C 332.179 4.21965 -0.472318 0
M  V30 3527 O 333.203 3.53173 -0.463413 0
M  V30 3528 O 332.062 5.44552 -0.461075 0
M  V30 3529 H 329.156 0.826289 -0.0342851 0
M  V30 3530 H 331.702 1.49293 -0.806829 0
M  V30 3531 H 330.474 3.58796 -1.56144 0
M  V30 3532 H 330.097 3.97449 0.109449 0
M  V30 3533 N 331.094 0.475555 1.50254 0
M  V30 3534 C 332.004 -0.321501 2.32387 0
M  V30 3535 C 333.02 -0.991755 1.42969 0
M  V30 3536 O 334.196 -0.978747 1.76018 0
M  V30 3537 C 331.261 -1.38667 3.17762 0
M  V30 3538 C 330.322 -0.732538 4.23004 0
M  V30 3539 C 329.555 -1.74695 5.04299 0
M  V30 3540 O 329.778 -2.97399 4.86734 0
M  V30 3541 O 328.712 -1.31631 5.8733 0
M  V30 3542 H 332.538 0.350071 3.01676 0
M  V30 3543 H 330.123 0.237321 1.47503 0
M  V30 3544 H 332.005 -2.00354 3.70724 0
M  V30 3545 H 330.68 -2.04163 2.51196 0
M  V30 3546 H 329.587 -0.0765902 3.74022 0
M  V30 3547 H 330.92 -0.120452 4.92053 0
M  V30 3548 N 332.573 -1.56217 0.208337 0
M  V30 3549 C 333.505 -2.1695 -0.739276 0
M  V30 3550 C 334.518 -1.13492 -1.1672 0
M  V30 3551 O 335.707 -1.40529 -1.10063 0
M  V30 3552 C 332.807 -2.72755 -2.01142 0
M  V30 3553 C 331.98 -4.0125 -1.74118 0
M  V30 3554 C 331.039 -4.41749 -2.85909 0
M  V30 3555 O 330.065 -5.08912 -2.54946 0
M  V30 3556 N 331.267 -4.06342 -4.14568 0
M  V30 3557 H 334.032 -2.98893 -0.219837 0
M  V30 3558 H 331.593 -1.61878 0.0268445 0
M  V30 3559 H 333.585 -2.96826 -2.75094 0
M  V30 3560 H 332.155 -1.95191 -2.4417 0
M  V30 3561 H 331.375 -3.85173 -0.838775 0
M  V30 3562 H 332.663 -4.851 -1.53477 0
M  V30 3563 H 332.061 -3.52345 -4.42571 0
M  V30 3564 H 330.618 -4.35335 -4.85105 0
M  V30 3565 N 334.051 0.0651679 -1.57465 0
M  V30 3566 C 334.981 1.07693 -2.07182 0
M  V30 3567 C 335.962 1.39962 -0.966673 0
M  V30 3568 O 337.147 1.49475 -1.2398 0
M  V30 3569 C 334.277 2.3885 -2.52127 0
M  V30 3570 C 333.231 2.20917 -3.66579 0
M  V30 3571 C 332.557 3.57515 -3.97601 0
M  V30 3572 C 333.857 1.62493 -4.9638 0
M  V30 3573 H 335.551 0.663199 -2.91962 0
M  V30 3574 H 333.097 0.317569 -1.40455 0
M  V30 3575 H 335.05 3.09928 -2.85522 0
M  V30 3576 H 333.774 2.82215 -1.64384 0
M  V30 3577 H 332.433 1.52279 -3.33477 0
M  V30 3578 H 332.081 3.98463 -3.06979 0
M  V30 3579 H 331.781 3.46353 -4.74672 0
M  V30 3580 H 333.305 4.30013 -4.33499 0
M  V30 3581 H 334.719 2.23445 -5.27963 0
M  V30 3582 H 333.116 1.62009 -5.77818 0
M  V30 3583 H 334.186 0.587041 -4.81333 0
M  V30 3584 N 335.529 1.53961 0.336706 0
M  V30 3585 C 336.776 1.71536 1.07618 0
M  V30 3586 C 337.104 0.482125 1.8843 0
M  V30 3587 O 336.359 -0.536142 1.88213 0
M  V30 3588 C 336.658 2.93493 2.03953 0
M  V30 3589 C 336.324 4.28811 1.39399 0
M  V30 3590 C 334.986 4.65602 1.21523 0
M  V30 3591 C 337.338 5.12844 0.929541 0
M  V30 3592 C 334.666 5.84037 0.558312 0
M  V30 3593 C 337.018 6.31951 0.286505 0
M  V30 3594 C 335.682 6.67432 0.0954869 0
M  V30 3595 H 334.952 0.627696 0.393801 0
M  V30 3596 H 337.599 1.88186 0.354715 0
M  V30 3597 H 335.904 2.71475 2.82504 0
M  V30 3598 H 337.601 3.04285 2.61174 0
M  V30 3599 H 334.191 3.99858 1.54311 0
M  V30 3600 H 338.375 4.84947 1.05548 0
M  V30 3601 H 333.631 6.10097 0.398995 0
M  V30 3602 H 337.805 6.96352 -0.0814376 0
M  V30 3603 H 335.432 7.59063 -0.415579 0
M  V30 3604 N 337.007 -0.598083 1.45811 0
M  V30 3605 C 337.939 -1.72231 1.51225 0
M  V30 3606 C 338.952 -1.57757 0.402059 0
M  V30 3607 O 340.141 -1.65464 0.669624 0
M  V30 3608 C 337.241 -3.10331 1.3619 0
M  V30 3609 C 336.414 -3.50955 2.61054 0
M  V30 3610 C 335.473 -4.68055 2.40439 0
M  V30 3611 O 334.499 -4.74691 3.14097 0
M  V30 3612 N 335.701 -5.61941 1.45612 0
M  V30 3613 H 338.466 -1.68046 2.48154 0
M  V30 3614 H 336.027 -0.783637 1.41671 0
M  V30 3615 H 338.019 -3.86439 1.20195 0
M  V30 3616 H 336.589 -3.0897 0.475015 0
M  V30 3617 H 335.809 -2.64711 2.92099 0
M  V30 3618 H 337.097 -3.74858 3.44034 0
M  V30 3619 H 336.495 -5.59301 0.848431 0
M  V30 3620 H 335.052 -6.37542 1.35585 0
M  V30 3621 N 338.485 -1.33259 -0.841409 0
M  V30 3622 C 339.395 -1.25332 -1.98316 0
M  V30 3623 C 340.411 -0.164364 -1.73222 0
M  V30 3624 O 341.587 -0.387486 -1.97637 0
M  V30 3625 C 338.652 -0.990078 -3.32262 0
M  V30 3626 C 337.713 -2.16879 -3.70489 0
M  V30 3627 C 336.946 -1.91801 -4.98044 0
M  V30 3628 O 337.169 -0.867075 -5.63771 0
M  V30 3629 O 336.103 -2.78267 -5.33714 0
M  V30 3630 H 339.929 -2.21344 -2.07944 0
M  V30 3631 H 337.514 -1.1328 -0.974058 0
M  V30 3632 H 339.396 -0.860321 -4.12524 0
M  V30 3633 H 338.071 -0.0602155 -3.23644 0
M  V30 3634 H 336.978 -2.35407 -2.90748 0
M  V30 3635 H 338.311 -3.0819 -3.8377 0
M  V30 3636 N 339.963 1.05934 -1.16686 0
M  V30 3637 C 341.21 1.788 -0.950622 0
M  V30 3638 C 341.538 1.87384 0.521305 0
M  V30 3639 O 340.793 1.36438 1.40297 0
M  V30 3640 C 341.092 3.23105 -1.52767 0
M  V30 3641 C 340.758 3.34594 -3.02254 0
M  V30 3642 C 339.42 3.37437 -3.43059 0
M  V30 3643 C 341.772 3.36219 -3.98254 0
M  V30 3644 C 339.1 3.39525 -4.78477 0
M  V30 3645 C 341.452 3.39845 -5.33562 0
M  V30 3646 C 340.116 3.40971 -5.73842 0
M  V30 3647 H 339.386 0.654275 -0.347857 0
M  V30 3648 H 342.033 1.24555 -1.45459 0
M  V30 3649 H 340.338 3.80227 -0.94524 0
M  V30 3650 H 342.035 3.7809 -1.336 0
M  V30 3651 H 338.625 3.3309 -2.6972 0
M  V30 3652 H 342.809 3.33231 -3.67792 0
M  V30 3653 H 338.065 3.38703 -5.09009 0
M  V30 3654 H 342.239 3.4005 -6.07733 0
M  V30 3655 H 339.866 3.42342 -6.78753 0
M  V30 3656 N 341.441 0.965919 1.2453 0
M  V30 3657 C 342.404 0.499547 2.2369 0
M  V30 3658 C 343.404 -0.40294 1.5567 0
M  V30 3659 O 344.594 -0.19865 1.73064 0
M  V30 3660 C 341.726 -0.276792 3.39774 0
M  V30 3661 H 342.919 1.37613 2.66463 0
M  V30 3662 H 340.472 0.750324 1.37112 0
M  V30 3663 H 341.207 -1.17055 3.02438 0
M  V30 3664 H 340.992 0.370826 3.90343 0
M  V30 3665 H 342.482 -0.592175 4.1338 0
M  V30 3666 N 342.919 -1.39368 0.735821 0
M  V30 3667 C 344.33 -1.83313 0.354015 0
M  V30 3668 C 344.681 -1.61461 -1.11466 0
M  V30 3669 O 343.806 -1.10621 -1.85989 0
M  V30 3670 C 344.401 -3.32781 0.635769 0
M  V30 3671 C 342.96 -3.75142 0.307448 0
M  V30 3672 C 342.107 -2.62358 0.897974 0
M  V30 3673 H 345.058 -1.28349 0.933398 0
M  V30 3674 H 345.079 -3.80388 -0.0921773 0
M  V30 3675 H 344.591 -3.48654 1.70476 0
M  V30 3676 H 342.692 -3.64857 -0.755674 0
M  V30 3677 H 342.805 -4.72532 0.790583 0
M  V30 3678 H 341.169 -2.52624 0.324551 0
M  V30 3679 H 341.952 -2.81036 1.97164 0
M  V30 3680 N 344.397 -0.483516 -1.5 0
M  V30 3681 C 345.622 0.0667119 -2.07293 0
M  V30 3682 C 346.047 1.3164 -1.3436 0
M  V30 3683 O 345.405 1.76945 -0.394987 0
M  V30 3684 C 345.453 0.321126 -3.59167 0
M  V30 3685 O 344.557 1.39927 -3.87936 0
M  V30 3686 H 343.898 -0.0184758 -0.663743 0
M  V30 3687 H 346.428 -0.678125 -1.93035 0
M  V30 3688 H 346.438 0.557906 -4.04168 0
M  V30 3689 H 345.113 -0.592007 -4.11665 0
M  V30 3690 H 343.69 1.14882 -3.54763 0
M  V30 3691 N 345.875 1.56104 -0.216619 0
M  V30 3692 C 347.124 1.97348 0.416744 0
M  V30 3693 C 347.437 1.10715 1.6125 0
M  V30 3694 O 348.643 1.41836 2.31506 0
M  V30 3695 C 347.099 3.51059 0.792835 0
M  V30 3696 C 346.707 4.46387 -0.379828 0
M  V30 3697 C 348.451 4.01026 1.39208 0
M  V30 3698 C 346.358 5.91397 0.0184223 0
M  V30 3699 H 345.288 0.736942 0.159475 0
M  V30 3700 H 347.939 1.80827 -0.31205 0
M  V30 3701 H 346.321 3.63162 1.57891 0
M  V30 3702 H 347.495 4.46029 -1.15737 0
M  V30 3703 H 345.81 4.06734 -0.891979 0
M  V30 3704 H 348.407 5.0686 1.70286 0
M  V30 3705 H 348.75 3.46587 2.30614 0
M  V30 3706 H 349.283 3.92125 0.669537 0
M  V30 3707 H 346.022 6.49807 -0.862002 0
M  V30 3708 H 345.542 5.94961 0.760384 0
M  V30 3709 H 347.221 6.45455 0.446818 0
M  V30 3710 N 347.353 -0.0568162 1.57498 0
M  V30 3711 C 348.769 -0.411933 1.54192 0
M  V30 3712 C 348.969 -1.78287 0.938942 0
M  V30 3713 O 348.025 -2.46483 0.547919 0
M  V30 3714 C 349.338 -0.339244 2.9878 0
M  V30 3715 C 350.886 -0.418348 3.10192 0
M  V30 3716 C 351.361 -0.375407 4.56459 0
M  V30 3717 N 352.852 -0.435038 4.61153 0
M  V30 3718 C 353.587 -0.424265 5.71828 0
M  V30 3719 N 353.083 -0.367418 6.91825 0
M  V30 3720 N 354.876 -0.471938 5.60115 0
M  V30 3721 H 347.027 0.840684 1.95055 0
M  V30 3722 H 349.29 0.316987 0.893433 0
M  V30 3723 H 348.996 0.601742 3.46514 0
M  V30 3724 H 348.87 -1.14371 3.59443 0
M  V30 3725 H 351.257 -1.34976 2.62422 0
M  V30 3726 H 351.338 0.414962 2.52412 0
M  V30 3727 H 350.982 0.552219 5.04889 0
M  V30 3728 H 350.912 -1.22645 5.12119 0
M  V30 3729 H 353.403 -0.482612 3.74806 0
M  V30 3730 H 353.716 -0.363535 7.71944 0
M  V30 3731 H 352.061 -0.333879 6.94198 0
M  V30 3732 H 355.252 -0.514145 4.65268 0
M  V30 3733 H 355.425 -0.460073 6.46365 0
M  V30 3734 N 348.832 -1.54138 -0.328536 0
M  V30 3735 C 349.762 -1.86167 -1.40939 0
M  V30 3736 C 350.743 -0.718044 -1.54202 0
M  V30 3737 O 351.928 -0.971328 -1.68163 0
M  V30 3738 C 349.058 -2.08461 -2.77779 0
M  V30 3739 C 348.012 -3.24299 -2.7931 0
M  V30 3740 C 347.338 -3.31955 -4.19178 0
M  V30 3741 C 348.638 -4.62065 -2.43502 0
M  V30 3742 H 350.332 -2.76689 -1.14383 0
M  V30 3743 H 347.878 -1.33132 -0.548806 0
M  V30 3744 H 349.831 -2.29453 -3.53454 0
M  V30 3745 H 348.555 -1.14684 -3.05802 0
M  V30 3746 H 347.214 -3.03187 -2.0609 0
M  V30 3747 H 346.862 -2.35745 -4.44335 0
M  V30 3748 H 346.562 -4.09805 -4.2111 0
M  V30 3749 H 348.086 -3.55175 -4.96672 0
M  V30 3750 H 349.5 -4.8297 -3.08889 0
M  V30 3751 H 347.897 -5.42429 -2.56693 0
M  V30 3752 H 348.967 -4.64652 -1.38659 0
M  V30 3753 N 350.31 0.590341 -1.46126 0
M  V30 3754 C 351.559 1.34499 -1.50309 0
M  V30 3755 C 351.872 1.94977 -0.156021 0
M  V30 3756 O 353.078 2.71395 -0.0756037 0
M  V30 3757 C 351.534 2.43723 -2.64815 0
M  V30 3758 C 351.142 1.89582 -4.0591 0
M  V30 3759 C 352.886 3.20579 -2.78262 0
M  V30 3760 C 350.793 2.9639 -5.11769 0
M  V30 3761 H 349.723 0.505593 -0.559368 0
M  V30 3762 H 352.374 0.630848 -1.72315 0
M  V30 3763 H 350.756 3.17902 -2.36124 0
M  V30 3764 H 351.93 1.21997 -4.44357 0
M  V30 3765 H 350.245 1.25418 -3.97063 0
M  V30 3766 H 352.842 4.00276 -3.54519 0
M  V30 3767 H 353.185 3.72684 -1.85505 0
M  V30 3768 H 353.718 2.53505 -3.06562 0
M  V30 3769 H 350.457 2.49181 -6.06291 0
M  V30 3770 H 349.977 3.62487 -4.77873 0
M  V30 3771 H 351.656 3.60474 -5.37278 0
M  V30 3772 N 351.788 1.33704 0.83433 0
M  V30 3773 C 352.718 1.26967 1.95963 0
M  V30 3774 C 353.699 0.149337 1.69443 0
M  V30 3775 O 354.884 0.339852 1.91203 0
M  V30 3776 C 352.014 1.01275 3.32206 0
M  V30 3777 C 350.968 2.09652 3.73136 0
M  V30 3778 C 350.294 1.69166 5.07235 0
M  V30 3779 C 351.594 3.51372 3.86439 0
M  V30 3780 H 353.288 2.2112 2.01857 0
M  V30 3781 H 350.834 1.06447 0.969793 0
M  V30 3782 H 352.787 0.952106 4.10503 0
M  V30 3783 H 351.511 0.0356203 3.26581 0
M  V30 3784 H 350.17 2.14766 2.97104 0
M  V30 3785 H 349.818 0.701437 4.98085 0
M  V30 3786 H 349.518 2.41694 5.35591 0
M  V30 3787 H 351.042 1.64576 5.88003 0
M  V30 3788 H 352.456 3.48734 4.55036 0
M  V30 3789 H 350.853 4.22425 4.26236 0
M  V30 3790 H 351.923 3.89546 2.88759 0
M  V30 3791 N 353.266 -1.05314 1.17247 0
M  V30 3792 C 354.176 -2.16538 0.90268 0
M  V30 3793 C 355.192 -1.73523 -0.128707 0
M  V30 3794 O 356.368 -2.01337 0.0502701 0
M  V30 3795 C 353.433 -3.44167 0.418356 0
M  V30 3796 C 352.494 -4.01635 1.51618 0
M  V30 3797 C 351.727 -5.23171 1.05487 0
M  V30 3798 O 351.95 -5.70327 -0.0914715 0
M  V30 3799 O 350.884 -5.72848 1.8474 0
M  V30 3800 H 354.71 -2.42145 1.83302 0
M  V30 3801 H 352.295 -1.15037 0.953246 0
M  V30 3802 H 354.177 -4.21112 0.155726 0
M  V30 3803 H 352.852 -3.20063 -0.48385 0
M  V30 3804 H 351.759 -3.26135 1.83268 0
M  V30 3805 H 353.092 -4.30053 2.39405 0
M  V30 3806 N 354.744 -0.972509 -1.24016 0
M  V30 3807 C 355.969 -0.654417 -1.96805 0
M  V30 3808 C 356.394 0.770398 -1.716 0
M  V30 3809 O 355.752 1.52361 -0.982647 0
M  V30 3810 C 355.8 -0.941031 -3.48105 0
M  V30 3811 O 354.904 -0.0289472 -4.1239 0
M  V30 3812 H 354.245 -0.24692 -0.616382 0
M  V30 3813 H 356.775 -1.30396 -1.57664 0
M  V30 3814 H 356.785 -0.87452 -3.98517 0
M  V30 3815 H 355.46 -1.97939 -3.65777 0
M  V30 3816 H 354.037 -0.149192 -3.72601 0
M  V30 3817 N 356.222 1.38976 -0.743202 0
M  V30 3818 C 357.447 2.05161 -0.303936 0
M  V30 3819 C 357.872 1.55677 1.05576 0
M  V30 3820 O 357.23 0.704131 1.67068 0
M  V30 3821 C 357.278 3.59138 -0.324373 0
M  V30 3822 O 356.382 4.06668 0.685204 0
M  V30 3823 H 355.723 0.649815 -0.136518 0
M  V30 3824 H 358.253 1.77852 -1.01142 0
M  V30 3825 H 358.263 4.07639 -0.171618 0
M  V30 3826 H 356.938 3.94515 -1.31647 0
M  V30 3827 H 355.515 3.69561 0.497913 0
M  V30 3828 N 357.7 0.491464 1.49741 0
M  V30 3829 C 359.116 0.146835 1.58923 0
M  V30 3830 C 359.316 -1.34804 1.49767 0
M  V30 3831 O 358.372 -2.12317 1.36667 0
M  V30 3832 C 359.685 0.715157 2.92072 0
M  V30 3833 C 361.233 0.680407 3.05515 0
M  V30 3834 C 361.708 1.22663 4.41269 0
M  V30 3835 N 363.199 1.18691 4.47735 0
M  V30 3836 C 363.934 1.57984 5.51207 0
M  V30 3837 N 363.43 2.04824 6.6183 0
M  V30 3838 N 365.223 1.49459 5.41866 0
M  V30 3839 H 357.374 1.46347 1.53936 0
M  V30 3840 H 359.637 0.606453 0.728642 0
M  V30 3841 H 359.343 1.76317 3.04311 0
M  V30 3842 H 359.217 0.17018 3.76816 0
M  V30 3843 H 361.604 -0.358743 2.92911 0
M  V30 3844 H 361.685 1.26242 2.22478 0
M  V30 3845 H 361.329 2.26451 4.54623 0
M  V30 3846 H 361.259 0.620637 5.2293 0
M  V30 3847 H 363.75 0.843605 3.68364 0
M  V30 3848 H 364.063 2.32901 7.3687 0
M  V30 3849 H 362.408 2.08791 6.62896 0
M  V30 3850 H 365.599 1.12692 4.54333 0
M  V30 3851 H 365.772 1.80406 6.22381 0
M  V30 3852 N 359.178 -1.55987 0.224894 0
M  V30 3853 C 360.403 -2.03232 -0.41369 0
M  V30 3854 C 360.828 -1.10359 -1.52323 0
M  V30 3855 O 360.186 -0.092395 -1.81064 0
M  V30 3856 C 360.234 -3.48682 -0.919405 0
M  V30 3857 O 359.338 -3.58947 -2.03054 0
M  V30 3858 H 358.679 -0.657428 -0.0931903 0
M  V30 3859 H 361.209 -2.01679 0.34451 0
M  V30 3860 H 361.219 -3.8907 -1.22835 0
M  V30 3861 H 359.894 -4.15761 -0.107339 0
M  V30 3862 H 358.471 -3.30448 -1.72796 0
M  V30 3863 N 360.656 0.0484629 -1.57525 0
M  V30 3864 C 361.903 0.743125 -1.88372 0
M  V30 3865 C 362.231 1.76383 -0.819715 0
M  V30 3866 O 361.486 1.94855 0.181659 0
M  V30 3867 C 361.785 1.46632 -3.25935 0
M  V30 3868 C 361.451 0.583427 -4.4711 0
M  V30 3869 C 360.113 0.340191 -4.79996 0
M  V30 3870 C 362.465 -0.0273345 -5.21193 0
M  V30 3871 C 359.793 -0.522903 -5.84365 0
M  V30 3872 C 362.145 -0.878017 -6.26477 0
M  V30 3873 C 360.809 -1.1309 -6.5785 0
M  V30 3874 H 360.079 0.271929 -0.689301 0
M  V30 3875 H 362.726 0.00336166 -1.915 0
M  V30 3876 H 361.031 2.2789 -3.18706 0
M  V30 3877 H 362.728 2.00902 -3.47044 0
M  V30 3878 H 359.318 0.783151 -4.21384 0
M  V30 3879 H 363.502 0.147654 -4.9608 0
M  V30 3880 H 358.758 -0.727335 -6.07058 0
M  V30 3881 H 362.932 -1.35789 -6.83033 0
M  V30 3882 H 360.559 -1.80144 -7.38547 0
M  V30 3883 N 362.134 1.5431 0.320358 0
M  V30 3884 C 363.364 1.7638 1.07582 0
M  V30 3885 C 363.772 0.513944 1.82086 0
M  V30 3886 O 363.115 -0.525123 1.76035 0
M  V30 3887 C 363.177 2.9055 2.1171 0
M  V30 3888 C 362.841 4.2934 1.56575 0
M  V30 3889 C 363.838 5.10077 1.00586 0
M  V30 3890 C 361.523 4.75893 1.60722 0
M  V30 3891 C 363.517 6.35477 0.494756 0
M  V30 3892 C 361.204 6.0126 1.09224 0
M  V30 3893 C 362.202 6.80886 0.53696 0
M  V30 3894 O 361.89 8.03894 0.0297371 0
M  V30 3895 H 361.622 0.592369 0.325692 0
M  V30 3896 H 364.176 2.02019 0.37116 0
M  V30 3897 H 362.406 2.60489 2.85801 0
M  V30 3898 H 364.095 3.00373 2.73003 0
M  V30 3899 H 364.861 4.75265 0.966869 0
M  V30 3900 H 360.74 4.13957 2.02882 0
M  V30 3901 H 364.284 6.97574 0.0606842 0
M  V30 3902 H 360.181 6.35562 1.12831 0
M  V30 3903 H 360.949 8.18372 0.14486 0
M  V30 3904 N 363.613 -0.582584 1.46437 0
M  V30 3905 C 364.862 -1.337 1.5102 0
M  V30 3906 C 365.175 -1.94891 0.166359 0
M  V30 3907 O 366.381 -2.71351 0.0899954 0
M  V30 3908 C 364.837 -2.42315 2.66104 0
M  V30 3909 C 364.445 -1.87427 4.06909 0
M  V30 3910 C 366.189 -3.19099 2.79958 0
M  V30 3911 C 364.096 -2.93672 5.13333 0
M  V30 3912 H 363.026 -0.502619 0.562041 0
M  V30 3913 H 365.677 -0.621701 1.72647 0
M  V30 3914 H 364.059 -3.16645 2.37807 0
M  V30 3915 H 365.233 -1.19639 4.44998 0
M  V30 3916 H 363.548 -1.2331 3.97723 0
M  V30 3917 H 366.145 -3.9839 3.56636 0
M  V30 3918 H 366.488 -3.71695 1.87479 0
M  V30 3919 H 367.021 -2.51875 3.07902 0
M  V30 3920 H 363.76 -2.45962 6.07604 0
M  V30 3921 H 363.28 -3.59948 4.79789 0
M  V30 3922 H 364.959 -3.5762 5.39182 0
M  V30 3923 N 365.091 -1.34144 -0.827227 0
M  V30 3924 C 366.054 -1.25264 -1.91942 0
M  V30 3925 C 367.054 -0.168866 -1.59911 0
M  V30 3926 O 368.244 -0.421198 -1.69031 0
M  V30 3927 C 365.376 -0.932952 -3.27885 0
M  V30 3928 H 366.569 -2.22357 -2.0124 0
M  V30 3929 H 364.122 -1.1837 -1.0207 0
M  V30 3930 H 364.857 0.0349917 -3.24281 0
M  V30 3931 H 364.642 -1.71682 -3.52516 0
M  V30 3932 H 366.132 -0.895874 -4.07877 0
M  V30 3933 N 366.569 1.04691 -1.17803 0
M  V30 3934 C 367.797 1.81446 -0.99423 0
M  V30 3935 C 368.212 1.83174 0.457459 0
M  V30 3936 O 367.569 1.26265 1.31771 0
M  V30 3937 C 367.62 3.27334 -1.5341 0
M  V30 3938 O 367.341 3.25798 -2.92895 0
M  V30 3939 C 368.842 4.20759 -1.39559 0
M  V30 3940 H 366.062 0.571599 -0.351447 0
M  V30 3941 H 368.606 1.31982 -1.56208 0
M  V30 3942 H 366.761 3.74052 -1.00815 0
M  V30 3943 H 367.175 4.17144 -3.17949 0
M  V30 3944 H 368.649 5.21084 -1.82141 0
M  V30 3945 H 369.126 4.37856 -0.343394 0
M  V30 3946 H 369.732 3.79901 -1.91195 0
M  V30 3947 N 368.047 0.979072 1.23499 0
M  V30 3948 C 368.979 0.476271 2.24197 0
M  V30 3949 C 369.992 -0.421166 1.57258 0
M  V30 3950 O 371.181 -0.225515 1.7707 0
M  V30 3951 C 368.281 -0.330503 3.37285 0
M  V30 3952 C 367.454 0.559744 4.33804 0
M  V30 3953 C 366.513 -0.192954 5.25846 0
M  V30 3954 O 365.539 0.416978 5.67671 0
M  V30 3955 N 366.741 -1.47932 5.61334 0
M  V30 3956 H 369.506 1.34211 2.67969 0
M  V30 3957 H 367.067 0.852189 1.37657 0
M  V30 3958 H 369.059 -0.842361 3.95836 0
M  V30 3959 H 367.629 -1.09734 2.92707 0
M  V30 3960 H 366.849 1.25245 3.73775 0
M  V30 3961 H 368.137 1.1665 4.95248 0
M  V30 3962 H 367.535 -1.9964 5.29302 0
M  V30 3963 H 366.092 -1.93664 6.22364 0
M  V30 3964 N 369.525 -1.3858 0.750561 0
M  V30 3965 C 370.472 -2.30483 0.120835 0
M  V30 3966 C 371.442 -1.50022 -0.712923 0
M  V30 3967 O 372.627 -1.78662 -0.669676 0
M  V30 3968 C 369.767 -3.36431 -0.768666 0
M  V30 3969 C 368.88 -4.31927 0.0793922 0
M  V30 3970 C 368.015 -5.24944 -0.81283 0
M  V30 3971 C 367.054 -6.12088 0.0390447 0
M  V30 3972 N 366.191 -6.97412 -0.809969 0
M  V30 3973 H 371.031 -2.83761 0.91015 0
M  V30 3974 H 368.568 -1.39707 0.460463 0
M  V30 3975 H 370.526 -3.96462 -1.29898 0
M  V30 3976 H 369.156 -2.8457 -1.5238 0
M  V30 3977 H 368.208 -3.73382 0.727303 0
M  V30 3978 H 369.52 -4.93319 0.737401 0
M  V30 3979 H 368.674 -5.90078 -1.41042 0
M  V30 3980 H 367.413 -4.63911 -1.50458 0
M  V30 3981 H 366.418 -5.45952 0.649328 0
M  V30 3982 H 367.643 -6.75189 0.727809 0
M  V30 3983 H 365.589 -6.38931 -1.48672 0
M  V30 3984 H 365.506 -7.55712 -0.208789 0
M  V30 3985 H 366.774 -7.66959 -1.39263 0
M  V30 3986 N 371.003 -0.499398 -1.49478 0
M  V30 3987 C 371.935 0.316575 -2.27003 0
M  V30 3988 C 372.948 0.932047 -1.33479 0
M  V30 3989 O 374.137 0.815658 -1.58774 0
M  V30 3990 C 371.237 1.46055 -3.05812 0
M  V30 3991 C 370.41 0.952679 -4.26899 0
M  V30 3992 C 369.469 1.97407 -4.87767 0
M  V30 3993 O 368.495 1.54326 -5.4788 0
M  V30 3994 N 369.697 3.30436 -4.77276 0
M  V30 3995 H 372.462 -0.348168 -2.97671 0
M  V30 3996 H 370.023 -0.33185 -1.58463 0
M  V30 3997 H 372.015 2.14135 -3.43407 0
M  V30 3998 H 370.585 2.02948 -2.37762 0
M  V30 3999 H 369.805 0.0968248 -3.94081 0
M  V30 4000 H 371.093 0.59174 -5.05347 0
M  V30 4001 H 370.491 3.68126 -4.29534 0
M  V30 4002 H 369.048 3.94235 -5.19059 0
M  V30 4003 N 372.481 1.55866 -0.233164 0
M  V30 4004 C 373.897 1.59133 0.121988 0
M  V30 4005 C 374.097 1.25016 1.58029 0
M  V30 4006 O 373.153 0.990922 2.32243 0
M  V30 4007 C 374.466 2.99932 -0.214792 0
M  V30 4008 C 376.014 3.12601 -0.157971 0
M  V30 4009 C 376.489 4.55597 -0.46859 0
M  V30 4010 N 377.98 4.61305 -0.418585 0
M  V30 4011 C 378.715 5.69903 -0.63227 0
M  V30 4012 N 378.211 6.86819 -0.90835 0
M  V30 4013 N 380.004 5.59264 -0.563913 0
M  V30 4014 H 372.155 1.76315 -1.18434 0
M  V30 4015 H 374.418 0.820093 -0.475553 0
M  V30 4016 H 374.124 3.29588 -1.22739 0
M  V30 4017 H 373.998 3.74327 0.464691 0
M  V30 4018 H 376.385 2.82735 0.845283 0
M  V30 4019 H 376.466 2.40511 -0.871102 0
M  V30 4020 H 376.11 4.86182 -1.46934 0
M  V30 4021 H 376.04 5.25928 0.265865 0
M  V30 4022 H 378.531 3.77297 -0.213368 0
M  V30 4023 H 378.844 7.65507 -1.05919 0
M  V30 4024 H 377.189 6.88536 -0.945673 0
M  V30 4025 H 380.38 4.66802 -0.348372 0
M  V30 4026 H 380.553 6.43831 -0.733847 0
M  V30 4027 N 373.959 -0.0401083 1.57549 0
M  V30 4028 C 374.922 -1.02871 2.04817 0
M  V30 4029 C 375.922 -1.29708 0.950388 0
M  V30 4030 O 377.112 -1.24897 1.21435 0
M  V30 4031 C 374.244 -2.36443 2.45576 0
M  V30 4032 H 375.437 -0.620631 2.93408 0
M  V30 4033 H 372.99 -0.286667 1.53649 0
M  V30 4034 H 373.725 -2.82021 1.60108 0
M  V30 4035 H 373.51 -2.18296 3.25713 0
M  V30 4036 H 375 -3.07441 2.82612 0
M  V30 4037 N 375.437 -1.54477 -0.31217 0
M  V30 4038 C 376.4 -1.83923 -1.36766 0
M  V30 4039 C 377.4 -0.711563 -1.44199 0
M  V30 4040 O 378.59 -0.979866 -1.44029 0
M  V30 4041 C 375.722 -2.0095 -2.75376 0
M  V30 4042 H 376.915 -2.78239 -1.11906 0
M  V30 4043 H 374.468 -1.46369 -0.548257 0
M  V30 4044 H 375.203 -1.08883 -3.05475 0
M  V30 4045 H 374.988 -2.83018 -2.71373 0
M  V30 4046 H 376.478 -2.2514 -3.51713 0
M  V30 4047 N 376.915 0.57481 -1.46744 0
M  V30 4048 C 377.878 1.66533 -1.57478 0
M  V30 4049 C 378.878 1.54338 -0.451263 0
M  V30 4050 O 380.068 1.58814 -0.715813 0
M  V30 4051 C 377.2 3.05999 -1.50259 0
M  V30 4052 H 378.393 1.58372 -2.54673 0
M  V30 4053 H 375.946 0.793301 -1.34672 0
M  V30 4054 H 376.681 3.19709 -0.543725 0
M  V30 4055 H 376.466 3.16259 -2.31781 0
M  V30 4056 H 377.956 3.8537 -1.60872 0
M  V30 4057 N 378.394 1.34581 0.820102 0
M  V30 4058 C 379.357 1.2628 1.91275 0
M  V30 4059 C 380.357 0.177344 1.59819 0
M  V30 4060 O 381.547 0.430156 1.68806 0
M  V30 4061 C 378.679 0.950327 3.27386 0
M  V30 4062 H 379.872 2.23421 2.00057 0
M  V30 4063 H 377.425 1.1891 1.0144 0
M  V30 4064 H 378.16 -0.0177938 3.24295 0
M  V30 4065 H 377.945 1.73549 3.51601 0
M  V30 4066 H 379.435 0.917492 4.07396 0
M  V30 4067 N 379.872 -1.04064 1.18357 0
M  V30 4068 C 380.805 -2.11618 0.854 0
M  V30 4069 C 381.783 -1.61555 -0.184043 0
M  V30 4070 O 382.967 -1.88395 -0.0630048 0
M  V30 4071 C 380.094 -3.37574 0.27597 0
M  V30 4072 C 379.14 -4.06485 1.2912 0
M  V30 4073 S 379.973 -4.53543 2.84709 0
M  V30 4074 C 381.129 -5.82732 2.28417 0
M  V30 4075 H 381.362 -2.39247 1.76488 0
M  V30 4076 H 378.895 -1.16832 1.00944 0
M  V30 4077 H 380.853 -4.10468 -0.051026 0
M  V30 4078 H 379.514 -3.0806 -0.613028 0
M  V30 4079 H 378.707 -4.97024 0.835633 0
M  V30 4080 H 378.309 -3.39708 1.56443 0
M  V30 4081 H 380.601 -6.56677 1.66677 0
M  V30 4082 H 381.544 -6.33052 3.17256 0
M  V30 4083 H 381.952 -5.37838 1.71436 0
M  V30 4084 N 381.35 -0.985608 -1.22978 0
M  V30 4085 C 382.283 -0.47487 -2.23204 0
M  V30 4086 C 383.261 0.460865 -1.55932 0
M  V30 4087 O 384.445 0.388105 -1.84461 0
M  V30 4088 C 381.572 0.312427 -3.37256 0
M  V30 4089 C 380.618 -0.568219 -4.22698 0
M  V30 4090 S 381.451 -2.01919 -4.95973 0
M  V30 4091 C 382.607 -1.24118 -6.1347 0
M  V30 4092 H 382.84 -1.32419 -2.66181 0
M  V30 4093 H 380.373 -0.792005 -1.32539 0
M  V30 4094 H 382.331 0.760645 -4.03391 0
M  V30 4095 H 380.992 1.13693 -2.92801 0
M  V30 4096 H 380.185 0.0371657 -5.03986 0
M  V30 4097 H 379.787 -0.952897 -3.61657 0
M  V30 4098 H 382.079 -0.505121 -6.75614 0
M  V30 4099 H 383.022 -2.02907 -6.78406 0
M  V30 4100 H 383.43 -0.757669 -5.59392 0
M  V30 4101 N 382.828 1.3818 -0.7579 0
M  V30 4102 C 383.775 2.30416 -0.133057 0
M  V30 4103 C 384.745 1.50398 0.704957 0
M  V30 4104 O 385.93 1.79014 0.660192 0
M  V30 4105 C 383.07 3.36834 0.750813 0
M  V30 4106 C 382.183 4.31879 -0.102297 0
M  V30 4107 C 381.318 5.25368 0.784979 0
M  V30 4108 C 380.357 6.12058 -0.0715046 0
M  V30 4109 N 379.494 6.97832 0.772972 0
M  V30 4110 H 384.334 2.83274 -0.925186 0
M  V30 4111 H 381.871 1.39461 -0.467866 0
M  V30 4112 H 383.829 3.97145 1.27794 0
M  V30 4113 H 382.459 2.85374 1.50868 0
M  V30 4114 H 381.511 3.72991 -0.747095 0
M  V30 4115 H 382.823 4.92921 -0.763552 0
M  V30 4116 H 381.977 5.90818 1.37911 0
M  V30 4117 H 380.716 4.64703 1.47996 0
M  V30 4118 H 379.721 5.456 -0.678272 0
M  V30 4119 H 380.946 6.74793 -0.763606 0
M  V30 4120 H 378.892 6.3971 1.45282 0
M  V30 4121 H 378.809 7.55812 0.168709 0
M  V30 4122 H 380.077 7.67687 1.35194 0
M  V30 4123 N 384.306 0.507319 1.49211 0
M  V30 4124 C 385.269 -0.256763 2.27757 0
M  V30 4125 C 386.269 -0.888287 1.34038 0
M  V30 4126 O 387.459 -0.751841 1.5714 0
M  V30 4127 C 384.591 -1.36905 3.12202 0
M  V30 4128 H 385.784 0.432557 2.96764 0
M  V30 4129 H 383.337 0.262488 1.5408 0
M  V30 4130 H 384.072 -2.09233 2.47775 0
M  V30 4131 H 383.857 -0.921599 3.81115 0
M  V30 4132 H 385.347 -1.9071 3.7151 0
M  V30 4133 N 385.784 -1.5574 0.241426 0
M  V30 4134 C 387.03 -1.99104 -0.385406 0
M  V30 4135 C 387.363 -1.1293 -1.57988 0
M  V30 4136 O 386.638 -0.191449 -1.93555 0
M  V30 4137 C 386.921 -3.51087 -0.800616 0
M  V30 4138 C 386.774 -4.48028 0.398874 0
M  V30 4139 C 388.093 -4.08015 -1.64959 0
M  V30 4140 H 385.212 -0.723848 -0.138614 0
M  V30 4141 H 387.854 -1.86903 0.341642 0
M  V30 4142 H 386.004 -3.61615 -1.4201 0
M  V30 4143 H 387.676 -4.49487 1.03726 0
M  V30 4144 H 385.919 -4.21077 1.04293 0
M  V30 4145 H 386.59 -5.51962 0.0651056 0
M  V30 4146 H 389.066 -4.00555 -1.12672 0
M  V30 4147 H 387.942 -5.14635 -1.90898 0
M  V30 4148 H 388.203 -3.56131 -2.61961 0
M  V30 4149 N 387.262 0.0317525 -1.57568 0
M  V30 4150 C 388.209 1.0332 -2.06382 0
M  V30 4151 C 389.179 1.36082 -0.952414 0
M  V30 4152 O 390.364 1.46466 -1.2228 0
M  V30 4153 C 387.504 2.32989 -2.54578 0
M  V30 4154 C 386.617 2.0641 -3.79498 0
M  V30 4155 C 385.752 3.2993 -4.16317 0
M  V30 4156 C 384.791 2.98893 -5.34162 0
M  V30 4157 N 383.928 4.14857 -5.66426 0
M  V30 4158 H 388.768 0.609982 -2.9169 0
M  V30 4159 H 386.305 0.289573 -1.44222 0
M  V30 4160 H 388.263 3.0875 -2.80587 0
M  V30 4161 H 386.893 2.73039 -1.7219 0
M  V30 4162 H 385.945 1.21158 -3.6059 0
M  V30 4163 H 387.257 1.79513 -4.65378 0
M  V30 4164 H 386.411 4.1406 -4.4344 0
M  V30 4165 H 385.15 3.59938 -3.29083 0
M  V30 4166 H 384.155 2.13164 -5.06795 0
M  V30 4167 H 385.38 2.70165 -6.23047 0
M  V30 4168 H 383.326 4.44821 -4.82151 0
M  V30 4169 H 383.243 3.91374 -6.4681 0
M  V30 4170 H 384.511 4.99868 -5.98124 0
M  V30 4171 N 388.74 1.54641 0.303973 0
M  V30 4172 C 389.965 1.78092 1.06292 0
M  V30 4173 C 390.39 0.537342 1.80262 0
M  V30 4174 O 389.748 -0.511993 1.7392 0
M  V30 4175 C 389.796 2.98612 2.02147 0
M  V30 4176 O 388.9 2.71528 3.10397 0
M  V30 4177 H 388.241 0.589548 0.305497 0
M  V30 4178 H 390.771 2.01716 0.3423 0
M  V30 4179 H 390.781 3.265 2.44667 0
M  V30 4180 H 389.456 3.88785 1.47714 0
M  V30 4181 H 388.033 2.54648 2.72413 0
M  V30 4182 N 390.218 -0.567019 1.47046 0
M  V30 4183 C 391.148 -1.68482 1.61667 0
M  V30 4184 C 392.129 -1.6358 0.466418 0
M  V30 4185 O 393.314 -1.81354 0.694574 0
M  V30 4186 C 390.444 -3.07124 1.62148 0
M  V30 4187 C 389.398 -3.26867 2.76301 0
M  V30 4188 C 388.724 -4.66196 2.61849 0
M  V30 4189 C 390.024 -3.13186 4.17986 0
M  V30 4190 H 391.718 -1.56502 2.5524 0
M  V30 4191 H 389.264 -0.751486 1.22836 0
M  V30 4192 H 391.217 -3.8516 1.70968 0
M  V30 4193 H 389.941 -3.2004 0.651287 0
M  V30 4194 H 388.6 -2.51237 2.66975 0
M  V30 4195 H 388.248 -4.75898 1.62879 0
M  V30 4196 H 387.948 -4.80356 3.38425 0
M  V30 4197 H 389.472 -5.46379 2.72584 0
M  V30 4198 H 390.886 -3.81049 4.2834 0
M  V30 4199 H 389.283 -3.3886 4.95272 0
M  V30 4200 H 390.353 -2.10057 4.3704 0
M  V30 4201 N 391.696 -1.35014 -0.812953 0
M  V30 4202 C 392.921 -1.31187 -1.60639 0
M  V30 4203 C 393.346 0.109382 -1.87782 0
M  V30 4204 O 392.704 1.07424 -1.46047 0
M  V30 4205 C 392.752 -2.11809 -2.91838 0
M  V30 4206 O 391.856 -1.49444 -3.8437 0
M  V30 4207 H 391.197 -0.450084 -0.488181 0
M  V30 4208 H 393.727 -1.77963 -1.00947 0
M  V30 4209 H 393.737 -2.23531 -3.41318 0
M  V30 4210 H 392.412 -3.15137 -2.71407 0
M  V30 4211 H 390.989 -1.46524 -3.42907 0
M  V30 4212 N 393.175 1.03435 -1.18907 0
M  V30 4213 C 394.107 2.1165 -0.879595 0
M  V30 4214 C 395.12 1.62316 0.125439 0
M  V30 4215 O 396.309 1.78201 -0.103245 0
M  V30 4216 C 393.409 3.37622 -0.294042 0
M  V30 4217 C 392.582 4.16166 -1.34629 0
M  V30 4218 C 391.641 5.20457 -0.775274 0
M  V30 4219 O 390.667 5.50379 -1.4516 0
M  V30 4220 N 391.869 5.78949 0.424126 0
M  V30 4221 H 394.634 2.38791 -1.81105 0
M  V30 4222 H 392.195 1.19681 -1.09032 0
M  V30 4223 H 394.187 4.04572 0.101679 0
M  V30 4224 H 392.757 3.07873 0.541575 0
M  V30 4225 H 391.977 3.44444 -1.91707 0
M  V30 4226 H 393.265 4.65432 -2.05549 0
M  V30 4227 H 392.663 5.56948 0.991209 0
M  V30 4228 H 391.22 6.47334 0.761691 0
M  V30 4229 N 394.653 0.992116 1.22453 0
M  V30 4230 C 395.878 0.685644 1.95739 0
M  V30 4231 C 396.303 -0.743 1.72804 0
M  V30 4232 O 395.661 -1.50778 1.00676 0
M  V30 4233 C 395.709 0.996293 3.46564 0
M  V30 4234 O 394.813 0.0945512 4.12292 0
M  V30 4235 H 394.154 0.256694 0.612376 0
M  V30 4236 H 396.684 1.32888 1.5557 0
M  V30 4237 H 396.694 0.93781 3.97076 0
M  V30 4238 H 395.369 2.03733 3.62582 0
M  V30 4239 H 393.946 0.208451 3.72317 0
M  V30 4240 N 396.131 -1.37776 0.765217 0
M  V30 4241 C 397.356 -2.04651 0.336537 0
M  V30 4242 C 397.781 -1.57337 -1.03086 0
M  V30 4243 O 397.139 -0.730621 -1.65927 0
M  V30 4244 C 397.187 -3.58577 0.381468 0
M  V30 4245 O 396.291 -4.07706 -0.62042 0
M  V30 4246 H 395.632 -0.64756 0.146838 0
M  V30 4247 H 398.162 -1.76221 1.03959 0
M  V30 4248 H 398.172 -4.07314 0.236448 0
M  V30 4249 H 396.847 -3.9237 1.37907 0
M  V30 4250 H 395.424 -3.70306 -0.439056 0
M  V30 4251 N 397.609 -0.515225 -1.4894 0
M  V30 4252 C 398.539 0.244628 -2.32215 0
M  V30 4253 C 399.52 0.949136 -1.41157 0
M  V30 4254 O 400.705 0.937783 -1.70057 0
M  V30 4255 C 397.835 1.30096 -3.22013 0
M  V30 4256 C 396.789 0.715486 -4.21977 0
M  V30 4257 C 396.115 1.87339 -5.00808 0
M  V30 4258 C 397.415 -0.302982 -5.2142 0
M  V30 4259 H 399.109 -0.450501 -2.95991 0
M  V30 4260 H 396.655 -0.218098 -1.42339 0
M  V30 4261 H 398.608 1.84037 -3.79089 0
M  V30 4262 H 397.332 2.02547 -2.56207 0
M  V30 4263 H 395.991 0.197715 -3.66066 0
M  V30 4264 H 395.639 2.58592 -4.31438 0
M  V30 4265 H 395.339 1.48764 -5.68457 0
M  V30 4266 H 396.863 2.41686 -5.60732 0
M  V30 4267 H 398.277 0.148802 -5.73107 0
M  V30 4268 H 396.674 -0.60532 -5.97039 0
M  V30 4269 H 397.744 -1.21395 -4.69459 0
M  V30 4270 N 399.087 1.5561 -0.249682 0
M  V30 4271 C 400.364 1.90932 0.424761 0
M  V30 4272 C 400.744 1.17078 1.75658 0
M  V30 4273 O 400.092 0.289176 2.26663 0
M  V30 4274 C 400.302 3.43975 0.590109 0
M  V30 4275 C 401.65 4.15281 0.884714 0
M  V30 4276 O 402.674 3.49729 0.67587 0
M  V30 4277 O 401.533 5.31236 1.28259 0
M  V30 4278 H 398.627 0.794815 0.228468 0
M  V30 4279 H 401.173 1.67135 -0.293954 0
M  V30 4280 H 399.945 3.89748 -0.34818 0
M  V30 4281 H 399.568 3.73644 1.35926 0
M  V30 4282 N 400.565 -0.0233959 1.57583 0
M  V30 4283 C 401.495 -1.02162 2.09965 0
M  V30 4284 C 402.476 -1.3735 1.00344 0
M  V30 4285 O 403.661 -1.46135 1.27899 0
M  V30 4286 C 400.791 -2.32081 2.58371 0
M  V30 4287 C 399.745 -2.1112 3.72307 0
M  V30 4288 C 399.071 -3.46848 4.06941 0
M  V30 4289 C 400.371 -1.49276 5.00514 0
M  V30 4290 H 402.065 -0.585557 2.93618 0
M  V30 4291 H 399.611 -0.280218 1.41247 0
M  V30 4292 H 401.564 -3.02249 2.93639 0
M  V30 4293 H 400.288 -2.77758 1.71808 0
M  V30 4294 H 398.947 -1.43384 3.37397 0
M  V30 4295 H 398.595 -3.90184 3.17436 0
M  V30 4296 H 398.295 -3.33646 4.83688 0
M  V30 4297 H 399.819 -4.18369 4.44747 0
M  V30 4298 H 401.233 -2.09368 5.33702 0
M  V30 4299 H 399.63 -1.46632 5.8191 0
M  V30 4300 H 400.7 -0.459217 4.82721 0
M  V30 4301 N 402.043 -1.548 -0.295768 0
M  V30 4302 C 402.953 -1.89177 -1.38742 0
M  V30 4303 C 403.969 -0.786481 -1.55211 0
M  V30 4304 O 405.145 -1.08344 -1.69775 0
M  V30 4305 C 402.21 -2.13663 -2.73036 0
M  V30 4306 C 401.271 -3.37349 -2.65508 0
M  V30 4307 C 400.504 -3.60658 -3.93398 0
M  V30 4308 O 400.727 -2.86882 -4.93006 0
M  V30 4309 O 399.661 -4.54179 -3.94975 0
M  V30 4310 H 403.487 -2.82059 -1.12589 0
M  V30 4311 H 401.072 -1.41056 -0.492295 0
M  V30 4312 H 402.954 -2.3094 -3.52484 0
M  V30 4313 H 401.629 -1.23967 -2.99022 0
M  V30 4314 H 400.536 -3.25431 -1.84514 0
M  V30 4315 H 401.869 -4.27192 -2.44474 0
M  V30 4316 N 403.521 0.559213 -1.47345 0
M  V30 4317 C 404.798 1.31997 -1.44348 0
M  V30 4318 C 405.178 2.1064 -0.139358 0
M  V30 4319 O 404.526 2.1091 0.879153 0
M  V30 4320 C 404.736 2.22618 -2.68779 0
M  V30 4321 C 406.084 2.83701 -3.1591 0
M  V30 4322 O 407.108 2.32921 -2.69493 0
M  V30 4323 O 405.967 3.75993 -3.966 0
M  V30 4324 H 403.061 0.594251 -0.575147 0
M  V30 4325 H 405.607 0.578282 -1.59543 0
M  V30 4326 H 404.379 1.64093 -3.55231 0
M  V30 4327 H 404.002 3.04085 -2.5616 0
M  V30 4328 N 404.999 1.35443 0.805782 0
M  V30 4329 C 406.227 1.31878 1.59423 0
M  V30 4330 C 406.642 -0.103562 1.88516 0
M  V30 4331 O 405.999 -1.05575 1.48863 0
M  V30 4332 C 406.05 2.12426 2.92502 0
M  V30 4333 O 405.771 3.49115 2.6467 0
M  V30 4334 C 407.272 2.16455 3.86862 0
M  V30 4335 H 404.492 0.453002 0.495005 0
M  V30 4336 H 407.036 1.78309 1.00131 0
M  V30 4337 H 405.191 1.69593 3.48306 0
M  V30 4338 H 405.605 3.90957 3.49647 0
M  V30 4339 H 407.079 2.77204 4.77349 0
M  V30 4340 H 407.556 1.16352 4.23508 0
M  V30 4341 H 408.162 2.59453 3.36993 0
M  V30 4342 N 406.477 -1.02803 1.19454 0
M  V30 4343 C 407.407 -2.12999 0.956758 0
M  V30 4344 C 408.388 -1.69743 -0.110188 0
M  V30 4345 O 409.573 -1.94148 0.0450038 0
M  V30 4346 C 406.703 -3.43746 0.495553 0
M  V30 4347 C 405.657 -4.00688 1.50443 0
M  V30 4348 C 404.983 -5.27067 0.900275 0
M  V30 4349 C 406.283 -4.35397 2.8849 0
M  V30 4350 H 407.977 -2.33148 1.87836 0
M  V30 4351 H 405.523 -1.12045 0.904539 0
M  V30 4352 H 407.476 -4.2021 0.316493 0
M  V30 4353 H 406.2 -3.23321 -0.461646 0
M  V30 4354 H 404.859 -3.2632 1.67065 0
M  V30 4355 H 404.507 -5.02959 -0.064503 0
M  V30 4356 H 404.207 -5.66127 1.57397 0
M  V30 4357 H 405.731 -6.06196 0.73203 0
M  V30 4358 H 407.145 -5.02795 2.75446 0
M  V30 4359 H 405.542 -4.85541 3.52661 0
M  V30 4360 H 406.612 -3.44662 3.41081 0
M  V30 4361 N 407.956 -0.998596 -1.21925 0
M  V30 4362 C 408.903 -0.553621 -2.24062 0
M  V30 4363 C 409.873 0.416999 -1.6078 0
M  V30 4364 O 411.058 0.320482 -1.88089 0
M  V30 4365 C 408.198 0.119959 -3.44891 0
M  V30 4366 C 407.311 -0.893077 -4.22668 0
M  V30 4367 C 406.446 -0.192424 -5.30851 0
M  V30 4368 C 405.485 -1.19344 -6.00353 0
M  V30 4369 N 404.622 -0.520707 -7.00166 0
M  V30 4370 H 409.462 -1.4293 -2.61486 0
M  V30 4371 H 406.999 -0.715838 -1.28507 0
M  V30 4372 H 408.957 0.527459 -4.13852 0
M  V30 4373 H 407.587 0.959389 -3.08214 0
M  V30 4374 H 406.639 -1.41886 -3.52948 0
M  V30 4375 H 407.951 -1.65512 -4.70539 0
M  V30 4376 H 407.105 0.271515 -6.06092 0
M  V30 4377 H 405.844 0.602075 -4.83969 0
M  V30 4378 H 404.849 -1.66795 -5.23889 0
M  V30 4379 H 406.074 -1.98891 -6.49322 0
M  V30 4380 H 404.02 0.254252 -6.55507 0
M  V30 4381 H 403.937 -1.2211 -7.46073 0
M  V30 4382 H 405.205 -0.0797596 -7.79459 0
M  V30 4383 N 409.434 1.37368 -0.772513 0
M  V30 4384 C 410.85 1.53059 -0.452231 0
M  V30 4385 C 411.05 1.73065 1.03203 0
M  V30 4386 O 410.106 1.75245 1.81784 0
M  V30 4387 C 411.419 2.72659 -1.26797 0
M  V30 4388 C 412.967 2.86521 -1.25995 0
M  V30 4389 C 413.442 4.09105 -2.05905 0
M  V30 4390 N 414.933 4.16219 -2.03263 0
M  V30 4391 C 415.668 5.10107 -2.61875 0
M  V30 4392 N 415.164 6.09547 -3.29278 0
M  V30 4393 N 416.957 5.02596 -2.51701 0
M  V30 4394 H 409.108 1.22634 -1.7342 0
M  V30 4395 H 411.371 0.597206 -0.736239 0
M  V30 4396 H 411.077 2.64343 -2.31982 0
M  V30 4397 H 410.951 3.66363 -0.897672 0
M  V30 4398 H 413.338 2.94308 -0.216081 0
M  V30 4399 H 413.419 1.93774 -1.66989 0
M  V30 4400 H 413.063 4.0208 -3.10313 0
M  V30 4401 H 412.993 5.00968 -1.62292 0
M  V30 4402 H 415.484 3.45012 -1.54192 0
M  V30 4403 H 415.797 6.77718 -3.71374 0
M  V30 4404 H 414.142 6.09824 -3.33377 0
M  V30 4405 H 417.333 4.23855 -1.98657 0
M  V30 4406 H 417.506 5.75582 -2.97673 0
M  V30 4407 N 410.912 0.523116 1.48665 0
M  V30 4408 C 412.158 -0.0134963 2.02796 0
M  V30 4409 C 412.491 -1.34582 1.40004 0
M  V30 4410 O 411.766 -1.86756 0.543381 0
M  V30 4411 C 412.049 -0.14276 3.59817 0
M  V30 4412 C 411.902 1.21425 4.331 0
M  V30 4413 C 413.221 -0.872856 4.31357 0
M  V30 4414 H 410.34 -0.00343074 0.736992 0
M  V30 4415 H 412.982 0.678816 1.7746 0
M  V30 4416 H 411.132 -0.732401 3.81534 0
M  V30 4417 H 412.804 1.84447 4.2282 0
M  V30 4418 H 411.047 1.79791 3.94788 0
M  V30 4419 H 411.718 1.07687 5.41394 0
M  V30 4420 H 414.194 -0.372555 4.14429 0
M  V30 4421 H 413.07 -0.932185 5.40927 0
M  V30 4422 H 413.331 -1.92161 3.98154 0
M  V30 4423 N 412.39 -1.55475 0.257931 0
M  V30 4424 C 413.323 -2.179 -0.677862 0
M  V30 4425 C 414.301 -1.13448 -1.16483 0
M  V30 4426 O 415.485 -1.41889 -1.24095 0
M  V30 4427 C 412.612 -2.78851 -1.92249 0
M  V30 4428 C 411.658 -3.96454 -1.57246 0
M  V30 4429 S 412.491 -5.31349 -0.665501 0
M  V30 4430 C 413.647 -5.9576 -1.91889 0
M  V30 4431 H 413.88 -2.96934 -0.147396 0
M  V30 4432 H 411.413 -1.54342 0.0423023 0
M  V30 4433 H 413.371 -3.14602 -2.63697 0
M  V30 4434 H 412.032 -1.99742 -2.42409 0
M  V30 4435 H 411.225 -4.37731 -2.49814 0
M  V30 4436 H 410.827 -3.62038 -0.938325 0
M  V30 4437 H 413.119 -6.13947 -2.86487 0
M  V30 4438 H 414.062 -6.9094 -1.54942 0
M  V30 4439 H 414.47 -5.2494 -2.076 0
M  V30 4440 N 413.868 0.0150385 -1.57593 0
M  V30 4441 C 415.145 0.7392 -1.81094 0
M  V30 4442 C 415.525 1.92817 -0.859344 0
M  V30 4443 O 414.873 2.28301 0.095362 0
M  V30 4444 C 415.083 1.15907 -3.29191 0
M  V30 4445 C 416.431 1.56918 -3.9454 0
M  V30 4446 O 417.455 1.25328 -3.33424 0
M  V30 4447 O 416.314 2.15604 -5.02173 0
M  V30 4448 H 413.408 0.358631 -0.745193 0
M  V30 4449 H 415.954 -0.00926156 -1.69697 0
M  V30 4450 H 414.726 0.310921 -3.90063 0
M  V30 4451 H 414.349 1.96711 -3.45529 0
M  V30 4452 N 415.346 1.54954 0.287554 0
M  V30 4453 C 416.256 1.8991 1.37736 0
M  V30 4454 C 417.272 0.794701 1.54792 0
M  V30 4455 O 418.448 1.09243 1.69198 0
M  V30 4456 C 415.513 2.15108 2.71899 0
M  V30 4457 C 414.574 3.38752 2.63715 0
M  V30 4458 C 413.807 3.62739 3.91479 0
M  V30 4459 O 414.03 2.89492 4.91478 0
M  V30 4460 O 412.964 4.56267 3.92561 0
M  V30 4461 H 416.79 2.82652 1.11092 0
M  V30 4462 H 414.375 1.41315 0.484807 0
M  V30 4463 H 416.257 2.32806 3.51254 0
M  V30 4464 H 414.932 1.25551 2.9836 0
M  V30 4465 H 413.839 3.26405 1.82786 0
M  V30 4466 H 415.172 4.28483 2.42205 0
M  V30 4467 N 416.824 -0.551391 1.4764 0
M  V30 4468 C 417.787 -1.64007 1.60107 0
M  V30 4469 C 418.787 -1.53601 0.47576 0
M  V30 4470 O 419.977 -1.57655 0.740988 0
M  V30 4471 C 417.109 -3.03569 1.55108 0
M  V30 4472 H 418.302 -1.543 2.57161 0
M  V30 4473 H 415.855 -0.771776 1.35917 0
M  V30 4474 H 416.59 -3.18804 0.594519 0
M  V30 4475 H 416.375 -3.12532 2.36783 0
M  V30 4476 H 417.865 -3.82762 1.66982 0
M  V30 4477 N 418.302 -1.35869 -0.798587 0
M  V30 4478 C 419.249 -1.29446 -1.91082 0
M  V30 4479 C 420.219 -0.16487 -1.6528 0
M  V30 4480 O 421.404 -0.349888 -1.87564 0
M  V30 4481 C 418.544 -1.0804 -3.27752 0
M  V30 4482 C 417.657 -2.29993 -3.65687 0
M  V30 4483 C 416.792 -2.01673 -4.91428 0
M  V30 4484 C 415.831 -3.19636 -5.22015 0
M  V30 4485 N 414.968 -2.91039 -6.38937 0
M  V30 4486 H 419.808 -2.24553 -1.95907 0
M  V30 4487 H 417.345 -1.11615 -0.958148 0
M  V30 4488 H 419.303 -0.936586 -4.06551 0
M  V30 4489 H 417.933 -0.16592 -3.22373 0
M  V30 4490 H 416.985 -2.55211 -2.82085 0
M  V30 4491 H 418.297 -3.18052 -3.84245 0
M  V30 4492 H 417.451 -1.84168 -5.78072 0
M  V30 4493 H 416.19 -1.10911 -4.74921 0
M  V30 4494 H 415.195 -3.37709 -4.33858 0
M  V30 4495 H 416.42 -4.11211 -5.40447 0
M  V30 4496 H 414.366 -2.0288 -6.2384 0
M  V30 4497 H 414.283 -3.72635 -6.57784 0
M  V30 4498 H 415.551 -2.77093 -7.28587 0
M  V30 4499 N 419.78 1.02168 -1.19998 0
M  V30 4500 C 420.69 2.14069 -0.959774 0
M  V30 4501 C 421.706 1.73804 0.082655 0
M  V30 4502 O 422.882 2.01133 -0.103633 0
M  V30 4503 C 419.947 3.42936 -0.509459 0
M  V30 4504 C 419.008 3.97474 -1.62213 0
M  V30 4505 C 418.241 5.2019 -1.19321 0
M  V30 4506 O 418.464 5.70369 -0.0597726 0
M  V30 4507 O 417.398 5.67749 -1.99863 0
M  V30 4508 H 421.224 2.37199 -1.89658 0
M  V30 4509 H 418.809 1.12469 -0.983411 0
M  V30 4510 H 420.691 4.20551 -0.267322 0
M  V30 4511 H 419.366 3.21234 0.398821 0
M  V30 4512 H 418.273 3.21161 -1.9185 0
M  V30 4513 H 419.606 4.23555 -2.50723 0
M  V30 4514 N 421.258 1.00505 1.21394 0
M  V30 4515 C 422.188 0.585684 2.26035 0
M  V30 4516 C 423.169 -0.393525 1.65485 0
M  V30 4517 O 424.354 -0.281497 1.92149 0
M  V30 4518 C 421.484 -0.0884283 3.47187 0
M  V30 4519 C 420.438 0.810567 4.20254 0
M  V30 4520 C 419.764 0.00286382 5.347 0
M  V30 4521 C 421.064 2.1132 4.77641 0
M  V30 4522 H 422.758 1.46039 2.61368 0
M  V30 4523 H 420.304 0.703648 1.25638 0
M  V30 4524 H 422.257 -0.393286 4.19561 0
M  V30 4525 H 420.981 -0.997766 3.10986 0
M  V30 4526 H 419.64 1.09925 3.49731 0
M  V30 4527 H 419.288 -0.907765 4.94741 0
M  V30 4528 H 418.988 0.601444 5.84514 0
M  V30 4529 H 420.512 -0.295808 6.09883 0
M  V30 4530 H 421.926 1.87148 5.41893 0
M  V30 4531 H 420.323 2.66164 5.37845 0
M  V30 4532 H 421.393 2.78393 3.9702 0
M  V30 4533 N 422.737 -1.36956 0.779787 0
M  V30 4534 C 423.67 -2.27896 0.117681 0
M  V30 4535 C 424.648 -1.46736 -0.700523 0
M  V30 4536 O 425.832 -1.76055 -0.673568 0
M  V30 4537 C 422.959 -3.28136 -0.839296 0
M  V30 4538 C 422.005 -4.26373 -0.10409 0
M  V30 4539 S 422.838 -5.2157 1.21348 0
M  V30 4540 C 423.994 -6.25359 0.260249 0
M  V30 4541 H 424.227 -2.83704 0.888778 0
M  V30 4542 H 421.76 -1.43352 0.57355 0
M  V30 4543 H 423.718 -3.86394 -1.38601 0
M  V30 4544 H 422.379 -2.7126 -1.58356 0
M  V30 4545 H 421.572 -4.97121 -0.82986 0
M  V30 4546 H 421.174 -3.72147 0.371858 0
M  V30 4547 H 423.466 -6.75145 -0.564435 0
M  V30 4548 H 424.409 -7.01885 0.936135 0
M  V30 4549 H 424.817 -5.64345 -0.132127 0
M  V30 4550 N 424.215 -0.530993 -1.48385 0
M  V30 4551 C 425.163 0.244595 -2.3131 0
M  V30 4552 C 426.157 0.93451 -1.41291 0
M  V30 4553 O 427.363 0.85878 -1.58193 0
M  V30 4554 H 423.738 0.0977472 -0.74562 0
M  V30 4555 H 425.709 -0.474369 -2.94605 0
M  V30 4556 C 424.458 1.2779 -3.23365 0
M  V30 4557 H 423.781 0.756439 -3.92579 0
M  V30 4558 H 425.221 1.79198 -3.84271 0
M  V30 4559 C 423.68 2.31205 -2.45042 0
M  V30 4560 O 424.21 3.37661 -2.17596 0
M  V30 4561 N 422.416 2.04446 -2.0652 0
M  V30 4562 H 421.963 1.17891 -2.2904 0
M  V30 4563 H 421.921 2.73861 -1.54427 0
M  V30 4564 N 425.693 1.55336 -0.266172 0
M  V30 4565 C 426.656 2.20878 0.612001 0
M  V30 4566 C 427.656 1.18388 1.08816 0
M  V30 4567 O 428.846 1.4335 0.989774 0
M  V30 4568 C 425.978 2.86765 1.84332 0
M  V30 4569 H 427.171 2.99873 0.0398718 0
M  V30 4570 H 424.724 1.56291 -0.0167309 0
M  V30 4571 H 425.459 2.11759 2.45619 0
M  V30 4572 H 425.244 3.61862 1.5099 0
M  V30 4573 H 426.734 3.36867 2.46801 0
M  V30 4574 N 427.171 -0.0066808 1.57599 0
M  V30 4575 C 428.448 -0.729586 1.81484 0
M  V30 4576 C 428.828 -1.92359 0.869558 0
M  V30 4577 O 428.176 -2.28348 -0.0832533 0
M  V30 4578 C 428.386 -1.1416 3.29801 0
M  V30 4579 C 429.734 -1.54823 3.95367 0
M  V30 4580 O 430.758 -1.23558 3.34084 0
M  V30 4581 O 429.617 -2.12937 5.03309 0
M  V30 4582 H 426.711 -0.354674 0.747085 0
M  V30 4583 H 429.257 0.0182609 1.6969 0
M  V30 4584 H 428.029 -0.290231 3.90222 0
M  V30 4585 H 427.652 -1.94876 3.46568 0
M  V30 4586 N 428.649 -1.55105 -0.279332 0
M  V30 4587 C 430.065 -1.46803 -0.626187 0
M  V30 4588 C 430.265 -0.676939 -1.89789 0
M  V30 4589 O 429.321 -0.19326 -2.51759 0
M  V30 4590 C 430.634 -2.90962 -0.759034 0
M  V30 4591 C 432.182 -3.01138 -0.853504 0
M  V30 4592 C 432.657 -4.46539 -1.01818 0
M  V30 4593 N 434.148 -4.50341 -1.08386 0
M  V30 4594 C 434.883 -5.60053 -1.22996 0
M  V30 4595 N 434.379 -6.79645 -1.34366 0
M  V30 4596 N 436.172 -5.47783 -1.26056 0
M  V30 4597 H 428.323 -2.04996 0.555921 0
M  V30 4598 H 430.586 -0.929325 0.187239 0
M  V30 4599 H 430.292 -3.51544 0.104852 0
M  V30 4600 H 430.166 -3.39619 -1.64131 0
M  V30 4601 H 432.553 -2.40658 -1.70786 0
M  V30 4602 H 432.634 -2.55745 0.0532466 0
M  V30 4603 H 432.278 -5.0762 -0.168504 0
M  V30 4604 H 432.208 -4.89583 -1.93948 0
M  V30 4605 H 434.699 -3.64191 -1.00864 0
M  V30 4606 H 435.012 -7.59012 -1.4533 0
M  V30 4607 H 433.357 -6.82469 -1.31382 0
M  V30 4608 H 436.548 -4.53294 -1.168 0
M  V30 4609 H 436.721 -6.33331 -1.37098 0
M  V30 4610 N 430.127 0.543554 -1.4793 0
M  V30 4611 C 431.352 1.32995 -1.59145 0
M  V30 4612 C 431.777 1.86472 -0.246956 0
M  V30 4613 O 431.135 1.63696 0.779324 0
M  V30 4614 C 431.183 2.46623 -2.63077 0
M  V30 4615 O 430.287 3.49261 -2.19295 0
M  V30 4616 H 429.628 0.394472 -0.534124 0
M  V30 4617 H 432.158 0.655489 -1.93816 0
M  V30 4618 H 432.168 2.93001 -2.83926 0
M  V30 4619 H 430.843 2.07059 -3.60693 0
M  V30 4620 H 429.42 3.09094 -2.08603 0
M  V30 4621 N 431.605 1.3629 0.791371 0
M  V30 4622 C 432.833 1.33562 1.58016 0
M  V30 4623 C 433.248 -0.0835616 1.88615 0
M  V30 4624 O 432.605 -1.0399 1.49974 0
M  V30 4625 C 432.656 2.15517 2.90232 0
M  V30 4626 O 432.377 3.51902 2.60953 0
M  V30 4627 C 433.878 2.20546 3.84544 0
M  V30 4628 H 431.098 0.458226 0.490173 0
M  V30 4629 H 433.642 1.79361 0.982345 0
M  V30 4630 H 431.797 1.73278 3.46487 0
M  V30 4631 H 432.211 3.94644 3.4548 0
M  V30 4632 H 433.685 2.82252 4.74382 0
M  V30 4633 H 434.162 1.20838 4.2225 0
M  V30 4634 H 434.768 2.63013 3.34222 0
M  V30 4635 N 433.083 -1.0153 1.20538 0
M  V30 4636 C 434.013 -2.11972 0.979295 0
M  V30 4637 C 434.994 -1.6985 -0.0921787 0
M  V30 4638 O 436.179 -1.94089 0.0655932 0
M  V30 4639 C 433.309 -3.43201 0.531984 0
M  V30 4640 C 432.263 -3.9907 1.54685 0
M  V30 4641 C 431.589 -5.26082 0.956127 0
M  V30 4642 C 432.889 -4.32313 2.93092 0
M  V30 4643 H 434.583 -2.31143 1.90298 0
M  V30 4644 H 432.129 -1.11079 0.916372 0
M  V30 4645 H 434.082 -4.1985 0.361044 0
M  V30 4646 H 432.806 -3.23792 -0.427327 0
M  V30 4647 H 431.465 -3.2453 1.70517 0
M  V30 4648 H 431.113 -5.02999 -0.0111538 0
M  V30 4649 H 430.813 -5.64426 1.63393 0
M  V30 4650 H 432.337 -6.05386 0.796284 0
M  V30 4651 H 433.751 -4.99845 2.80763 0
M  V30 4652 H 432.148 -4.81774 3.57791 0
M  V30 4653 H 433.218 -3.41025 3.44717 0
M  V30 4654 N 434.561 -1.01147 -1.20859 0
M  V30 4655 C 435.807 -0.708598 -1.90658 0
M  V30 4656 C 436.162 0.753069 -1.7705 0
M  V30 4657 O 435.455 1.53952 -1.14059 0
M  V30 4658 C 435.649 -1.0727 -3.40922 0
M  V30 4659 C 435.478 -2.56821 -3.69152 0
M  V30 4660 C 434.248 -3.23524 -3.8815 0
M  V30 4661 C 436.446 -3.54997 -3.72131 0
M  V30 4662 N 434.428 -4.62359 -4.03853 0
M  V30 4663 C 435.799 -4.79371 -3.93196 0
M  V30 4664 C 437.854 -3.49042 -3.55069 0
M  V30 4665 C 436.557 -5.98512 -3.98969 0
M  V30 4666 C 438.583 -4.67579 -3.6211 0
M  V30 4667 C 437.945 -5.9076 -3.83643 0
M  V30 4668 H 434.044 -0.31088 -0.71755 0
M  V30 4669 H 436.628 -1.29526 -1.45366 0
M  V30 4670 H 434.799 -0.51443 -3.84978 0
M  V30 4671 H 436.531 -0.723891 -3.98173 0
M  V30 4672 H 433.286 -2.73958 -3.86321 0
M  V30 4673 H 433.71 -5.34427 -4.15592 0
M  V30 4674 H 438.352 -2.54808 -3.37391 0
M  V30 4675 H 436.07 -6.93132 -4.15444 0
M  V30 4676 H 439.656 -4.64581 -3.50222 0
M  V30 4677 H 438.536 -6.8095 -3.88944 0
M  V30 4678 N 436.039 1.36541 -0.78704 0
M  V30 4679 C 436.969 2.32659 -0.197992 0
M  V30 4680 C 437.95 1.56533 0.665697 0
M  V30 4681 O 439.135 1.84698 0.60001 0
M  V30 4682 C 436.265 3.40778 0.669901 0
M  V30 4683 C 435.219 4.27897 -0.0937039 0
M  V30 4684 C 434.545 5.27163 0.894629 0
M  V30 4685 C 435.845 5.06334 -1.28154 0
M  V30 4686 H 437.539 2.82171 -1.00099 0
M  V30 4687 H 435.085 1.35665 -0.482793 0
M  V30 4688 H 437.038 4.07008 1.09191 0
M  V30 4689 H 435.762 2.89827 1.50558 0
M  V30 4690 H 434.421 3.6322 -0.49666 0
M  V30 4691 H 434.069 4.72486 1.72527 0
M  V30 4692 H 433.769 5.86317 0.388149 0
M  V30 4693 H 435.293 5.96266 1.31525 0
M  V30 4694 H 436.707 5.65617 -0.93541 0
M  V30 4695 H 435.104 5.74888 -1.72115 0
M  V30 4696 H 436.174 4.38114 -2.07807 0
M  V30 4697 N 437.518 0.538854 1.48102 0
M  V30 4698 C 438.767 0.0059532 2.01699 0
M  V30 4699 C 439.08 -1.34476 1.42041 0
M  V30 4700 O 440.286 -1.96653 1.87189 0
M  V30 4701 C 438.742 -0.0397627 3.59878 0
M  V30 4702 C 438.35 1.30659 4.28523 0
M  V30 4703 C 440.094 -0.521024 4.2129 0
M  V30 4704 C 438.001 1.22098 5.78659 0
M  V30 4705 H 436.931 -0.00154456 0.753998 0
M  V30 4706 H 439.582 0.683963 1.70277 0
M  V30 4707 H 437.964 -0.783037 3.88181 0
M  V30 4708 H 439.138 2.06613 4.11883 0
M  V30 4709 H 437.453 1.7243 3.79021 0
M  V30 4710 H 440.05 -0.603184 5.31287 0
M  V30 4711 H 440.393 -1.52885 3.8721 0
M  V30 4712 H 440.926 0.166834 3.9745 0
M  V30 4713 H 437.665 2.20424 6.17328 0
M  V30 4714 H 437.185 0.50295 5.97688 0
M  V30 4715 H 438.864 0.915345 6.40492 0
M  V30 4716 N 438.996 -1.55193 0.274407 0
M  V30 4717 C 440.273 -1.91584 -0.394331 0
M  V30 4718 C 440.653 -1.19858 -1.73774 0
M  V30 4719 O 440.001 -0.3252 -2.26174 0
M  V30 4720 C 440.211 -3.4487 -0.535311 0
M  V30 4721 C 441.559 -4.16636 -0.818534 0
M  V30 4722 O 442.583 -3.5076 -0.620146 0
M  V30 4723 O 441.442 -5.33209 -1.19792 0
M  V30 4724 H 438.536 -0.798349 -0.215794 0
M  V30 4725 H 441.082 -1.66646 0.320507 0
M  V30 4726 H 439.854 -3.89145 0.410141 0
M  V30 4727 H 439.477 -3.75759 -1.29964 0
M  V30 4728 N 440.474 -0.00167713 -1.576 0
M  V30 4729 C 441.89 0.354422 -1.55615 0
M  V30 4730 C 442.09 1.74679 -1.00447 0
M  V30 4731 O 441.146 2.4428 -0.639022 0
M  V30 4732 C 442.459 0.22812 -2.99833 0
M  V30 4733 C 444.007 0.302934 -3.11531 0
M  V30 4734 C 444.482 0.205737 -4.57538 0
M  V30 4735 N 445.973 0.263584 -4.62449 0
M  V30 4736 C 446.708 0.211742 -5.73009 0
M  V30 4737 N 446.204 0.110399 -6.92712 0
M  V30 4738 N 447.997 0.263729 -5.61481 0
M  V30 4739 H 440.148 -0.912498 -1.918 0
M  V30 4740 H 442.411 -0.349928 -0.881053 0
M  V30 4741 H 442.117 -0.729934 -3.44042 0
M  V30 4742 H 441.991 1.00951 -3.6344 0
M  V30 4743 H 444.378 1.25143 -2.67251 0
M  V30 4744 H 444.459 -0.508357 -2.50698 0
M  V30 4745 H 444.103 -0.739225 -5.02492 0
M  V30 4746 H 444.033 1.03554 -5.16318 0
M  V30 4747 H 446.524 0.343173 -3.76339 0
M  V30 4748 H 446.837 0.0767828 -7.72762 0
M  V30 4749 H 445.182 0.0760025 -6.94958 0
M  V30 4750 H 448.373 0.34111 -4.66855 0
M  V30 4751 H 448.546 0.219862 -6.47627 0
M  V30 4752 N 441.952 1.55251 0.271103 0
M  V30 4753 C 443.229 1.66664 1.02384 0
M  V30 4754 C 443.609 0.534363 2.04225 0
M  V30 4755 O 442.957 -0.465337 2.23712 0
M  V30 4756 C 443.167 3.05961 1.67895 0
M  V30 4757 C 444.515 3.63772 2.18986 0
M  V30 4758 O 445.539 3.08606 1.77878 0
M  V30 4759 O 444.398 4.60429 2.94393 0
M  V30 4760 H 441.492 0.676957 0.475035 0
M  V30 4761 H 444.038 1.67589 0.26681 0
M  V30 4762 H 442.81 3.79815 0.941071 0
M  V30 4763 H 442.433 3.08943 2.5028 0
M  V30 4764 N 443.43 -0.535701 1.48216 0
M  V30 4765 C 444.846 -0.863701 1.3421 0
M  V30 4766 C 445.046 -1.98458 0.34879 0
M  V30 4767 O 444.102 -2.51432 -0.23204 0
M  V30 4768 C 445.415 -1.23662 2.74095 0
M  V30 4769 C 446.963 -1.34683 2.82541 0
M  V30 4770 C 447.438 -1.75322 4.23115 0
M  V30 4771 N 448.929 -1.82434 4.2576 0
M  V30 4772 C 449.664 -2.15252 5.31464 0
M  V30 4773 N 449.16 -2.46533 6.47452 0
M  V30 4774 N 450.953 -2.16209 5.18855 0
M  V30 4775 H 443.104 0.203965 2.11418 0
M  V30 4776 H 445.367 0.0286033 0.947568 0
M  V30 4777 H 445.073 -0.486674 3.48316 0
M  V30 4778 H 444.947 -2.18805 3.07253 0
M  V30 4779 H 447.334 -2.08756 2.08579 0
M  V30 4780 H 447.415 -0.376756 2.5301 0
M  V30 4781 H 447.059 -1.01812 4.97591 0
M  V30 4782 H 446.989 -2.7337 4.50085 0
M  V30 4783 H 449.48 -1.6056 3.42095 0
M  V30 4784 H 449.793 -2.70662 7.23852 0
M  V30 4785 H 448.138 -2.44065 6.50736 0
M  V30 4786 H 451.329 -1.91224 4.2726 0
M  V30 4787 H 451.502 -2.41453 6.01335 0
M  V30 4788 N 444.908 -1.36708 -0.784132 0
M  V30 4789 C 445.858 -1.2799 -1.88686 0
M  V30 4790 C 446.842 -0.170282 -1.59996 0
M  V30 4791 O 448.034 -0.403571 -1.72338 0
M  V30 4792 C 445.163 -1.07674 -3.25977 0
M  V30 4793 C 444.249 -2.23127 -3.60659 0
M  V30 4794 N 444.64 -3.48467 -3.66612 0
M  V30 4795 C 442.938 -2.15009 -3.90752 0
M  V30 4796 C 443.639 -4.24525 -3.97685 0
M  V30 4797 N 442.615 -3.53524 -4.12943 0
M  V30 4798 H 446.417 -2.22927 -1.91522 0
M  V30 4799 H 443.931 -1.29503 -0.979933 0
M  V30 4800 H 445.928 -0.995151 -4.04849 0
M  V30 4801 H 444.588 -0.13643 -3.24413 0
M  V30 4802 H 445.599 -3.82534 -3.49125 0
M  V30 4803 H 442.276 -1.28963 -3.97083 0
M  V30 4804 H 443.666 -5.32944 -4.0917 0
M  V30 4805 N 446.386 1.0089 -1.21074 0
M  V30 4806 C 447.296 2.13039 -0.982425 0
M  V30 4807 C 448.312 1.73881 0.0642161 0
M  V30 4808 O 449.488 2.01012 -0.12496 0
M  V30 4809 C 446.553 3.42377 -0.545803 0
M  V30 4810 C 445.614 3.95731 -1.6642 0
M  V30 4811 C 444.847 5.18896 -1.24832 0
M  V30 4812 O 445.07 5.70273 -0.120265 0
M  V30 4813 O 444.004 5.65597 -2.05873 0
M  V30 4814 H 447.83 2.35175 -1.92163 0
M  V30 4815 H 445.415 1.1142 -0.995285 0
M  V30 4816 H 447.297 4.20244 -0.311912 0
M  V30 4817 H 445.972 3.21639 0.364727 0
M  V30 4818 H 444.879 3.19108 -1.95246 0
M  V30 4819 H 446.212 4.20872 -2.55201 0
M  V30 4820 N 447.864 1.01787 1.20321 0
M  V30 4821 C 448.794 0.609625 2.25401 0
M  V30 4822 C 449.775 -0.375951 1.65893 0
M  V30 4823 O 450.96 -0.261101 1.92437 0
M  V30 4824 C 448.09 -0.0515995 3.47262 0
M  V30 4825 C 447.044 0.855095 4.19371 0
M  V30 4826 C 446.37 0.0595757 5.34667 0
M  V30 4827 C 447.67 2.16374 4.75373 0
M  V30 4828 H 449.364 1.48803 2.59804 0
M  V30 4829 H 446.91 0.716934 1.24884 0
M  V30 4830 H 448.863 -0.348764 4.19954 0
M  V30 4831 H 447.587 -0.964726 3.12027 0
M  V30 4832 H 446.246 1.13628 3.48546 0
M  V30 4833 H 445.894 -0.85524 4.95676 0
M  V30 4834 H 445.594 0.663406 5.83843 0
M  V30 4835 H 447.118 -0.231105 6.10162 0
M  V30 4836 H 448.532 1.92885 5.39878 0
M  V30 4837 H 446.929 2.71853 5.34991 0
M  V30 4838 H 447.999 2.82589 3.94045 0
M  V30 4839 N 449.342 -1.36122 0.79427 0
M  V30 4840 C 450.588 -1.99846 0.378542 0
M  V30 4841 C 450.943 -1.61898 -1.03955 0
M  V30 4842 O 450.236 -0.866013 -1.70912 0
M  V30 4843 C 450.43 -3.5409 0.48527 0
M  V30 4844 C 450.259 -4.0702 1.91219 0
M  V30 4845 C 449.029 -4.36944 2.53787 0
M  V30 4846 C 451.227 -4.26435 2.87502 0
M  V30 4847 N 449.209 -4.75727 3.88017 0
M  V30 4848 C 450.58 -4.68077 4.06576 0
M  V30 4849 C 452.635 -4.08616 2.84495 0
M  V30 4850 C 451.338 -4.93765 5.23057 0
M  V30 4851 C 453.364 -4.35453 4.00169 0
M  V30 4852 C 452.726 -4.77355 5.17988 0
M  V30 4853 H 448.825 -0.759549 0.186034 0
M  V30 4854 H 451.409 -1.65043 1.0329 0
M  V30 4855 H 449.58 -3.88151 -0.139023 0
M  V30 4856 H 451.312 -4.04675 0.0453192 0
M  V30 4857 H 448.067 -4.26822 2.05231 0
M  V30 4858 H 448.491 -4.99396 4.57092 0
M  V30 4859 H 453.133 -3.75373 1.94564 0
M  V30 4860 H 450.851 -5.25887 6.1357 0
M  V30 4861 H 454.437 -4.2323 3.99208 0
M  V30 4862 H 453.317 -4.97718 6.06008 0
M  V30 4863 N 450.82 -0.546701 -1.47814 0
M  V30 4864 C 452.048 -0.0232857 -2.06887 0
M  V30 4865 C 452.463 1.26571 -1.4009 0
M  V30 4866 O 451.82 1.7569 -0.493906 0
M  V30 4867 C 451.871 0.186975 -3.61016 0
M  V30 4868 O 451.592 -1.05097 -4.25307 0
M  V30 4869 C 453.093 0.748872 -4.36929 0
M  V30 4870 H 450.313 -0.0410763 -0.669742 0
M  V30 4871 H 452.857 -0.757117 -1.89968 0
M  V30 4872 H 451.012 0.870903 -3.77484 0
M  V30 4873 H 451.426 -0.842121 -5.17695 0
M  V30 4874 H 452.9 0.845334 -5.45489 0
M  V30 4875 H 453.377 1.75772 -4.02493 0
M  V30 4876 H 453.983 0.100979 -4.2518 0
M  V30 4877 N 452.299 1.55045 -0.282633 0
M  V30 4878 C 453.246 2.22822 0.601566 0
M  V30 4879 C 454.216 1.20431 1.14392 0
M  V30 4880 O 455.401 1.48996 1.19184 0
M  V30 4881 C 452.541 2.95873 1.77632 0
M  V30 4882 C 451.654 4.12999 1.26711 0
M  V30 4883 C 450.789 4.73676 2.40426 0
M  V30 4884 C 449.828 5.82981 1.86545 0
M  V30 4885 N 448.965 6.3769 2.93762 0
M  V30 4886 H 453.805 2.97995 0.0169528 0
M  V30 4887 H 451.342 1.471 -0.00339964 0
M  V30 4888 H 453.3 3.36447 2.46697 0
M  V30 4889 H 451.93 2.2311 2.33285 0
M  V30 4890 H 450.982 3.77494 0.469314 0
M  V30 4891 H 452.294 4.91803 0.832518 0
M  V30 4892 H 451.448 5.17008 3.17471 0
M  V30 4893 H 450.187 3.94164 2.87203 0
M  V30 4894 H 449.192 5.39092 1.07983 0
M  V30 4895 H 450.417 6.64366 1.40694 0
M  V30 4896 H 448.363 5.61069 3.39908 0
M  V30 4897 H 448.28 7.11788 2.54744 0
M  V30 4898 H 449.548 6.8568 3.7076 0
M  V30 4899 N 453.777 0.010035 1.57597 0
M  V30 4900 C 455.026 -0.671945 1.90178 0
M  V30 4901 C 455.339 -1.74376 0.886131 0
M  V30 4902 O 456.545 -2.48107 1.10252 0
M  V30 4903 C 455.001 -1.24636 3.3763 0
M  V30 4904 C 454.609 -0.208838 4.47513 0
M  V30 4905 C 456.353 -1.90595 3.79307 0
M  V30 4906 C 454.26 -0.793814 5.86048 0
M  V30 4907 H 453.19 -0.25474 0.709665 0
M  V30 4908 H 455.841 0.0722206 1.83358 0
M  V30 4909 H 454.223 -2.04152 3.3932 0
M  V30 4910 H 455.397 0.562463 4.57354 0
M  V30 4911 H 453.712 0.350889 4.14919 0
M  V30 4912 H 456.309 -2.35284 4.80151 0
M  V30 4913 H 456.652 -2.74074 3.13352 0
M  V30 4914 H 457.185 -1.17798 3.79958 0
M  V30 4915 H 453.924 0.00240855 6.555 0
M  V30 4916 H 453.444 -1.53404 5.79851 0
M  V30 4917 H 455.123 -1.2894 6.34022 0
M  V30 4918 N 455.255 -1.55392 -0.262866 0
M  V30 4919 C 456.483 -1.80513 -1.01108 0
M  V30 4920 C 456.898 -0.583533 -1.79556 0
M  V30 4921 O 456.255 0.447585 -1.76926 0
M  V30 4922 C 456.306 -3.03648 -1.96164 0
M  V30 4923 O 456.027 -4.2109 -1.20893 0
M  V30 4924 C 457.528 -3.41448 -2.82715 0
M  V30 4925 H 454.748 -0.601079 -0.298236 0
M  V30 4926 H 457.292 -2.02425 -0.290582 0
M  V30 4927 H 455.447 -2.83832 -2.63663 0
M  V30 4928 H 455.861 -4.90771 -1.85051 0
M  V30 4929 H 457.335 -4.30751 -3.45192 0
M  V30 4930 H 457.812 -2.61308 -3.53008 0
M  V30 4931 H 458.418 -3.63559 -2.20693 0
M  V30 4932 N 456.733 0.527833 -1.48498 0
M  V30 4933 C 457.665 1.6482 -1.5927 0
M  V30 4934 C 458.678 1.55659 -0.476869 0
M  V30 4935 O 459.867 1.62081 -0.747806 0
M  V30 4936 C 456.967 3.0348 -1.50842 0
M  V30 4937 C 456.14 3.381 -2.77502 0
M  V30 4938 C 455.199 4.5605 -2.62497 0
M  V30 4939 O 454.225 4.59165 -3.36387 0
M  V30 4940 N 455.427 5.54353 -1.72257 0
M  V30 4941 H 458.192 1.56015 -2.55889 0
M  V30 4942 H 455.753 0.715152 -1.45249 0
M  V30 4943 H 457.745 3.80264 -1.38496 0
M  V30 4944 H 456.315 3.06352 -0.621887 0
M  V30 4945 H 455.535 2.50473 -3.04396 0
M  V30 4946 H 456.823 3.58017 -3.61527 0
M  V30 4947 H 456.221 5.54617 -1.11431 0
M  V30 4948 H 454.778 6.30347 -1.65849 0
M  V30 4949 N 458.211 1.37122 0.776871 0
M  V30 4950 C 459.488 1.22586 1.52421 0
M  V30 4951 C 459.868 -0.182726 2.10308 0
M  V30 4952 O 459.216 -1.18979 1.9508 0
M  V30 4953 C 459.426 2.31782 2.60918 0
M  V30 4954 C 460.774 2.69071 3.2846 0
M  V30 4955 O 461.798 2.3092 2.71209 0
M  V30 4956 O 460.657 3.3478 4.31954 0
M  V30 4957 H 457.751 0.478045 0.674835 0
M  V30 4958 H 460.297 1.48888 0.814275 0
M  V30 4959 H 459.069 3.26131 2.16227 0
M  V30 4960 H 458.692 2.06916 3.39517 0
M  V30 4961 N 459.689 -1.00246 1.21608 0
M  V30 4962 C 460.637 -2.11193 0.97469 0
M  V30 4963 C 461.631 -1.69216 -0.0789303 0
M  V30 4964 O 462.837 -1.79853 0.0726806 0
M  V30 4965 H 459.212 -0.690455 0.297953 0
M  V30 4966 H 461.183 -2.2873 1.91638 0
M  V30 4967 C 459.932 -3.43182 0.558717 0
M  V30 4968 H 459.255 -3.75918 1.3611 0
M  V30 4969 H 460.695 -4.21823 0.429154 0
M  V30 4970 C 459.154 -3.28882 -0.730648 0
M  V30 4971 O 459.684 -3.59835 -1.78554 0
M  V30 4972 N 457.89 -2.8209 -0.698131 0
M  V30 4973 H 457.437 -2.57099 0.16061 0
M  V30 4974 H 457.395 -2.72903 -1.56113 0
M  V30 4975 N 461.167 -1.02423 -1.1978 0
M  V30 4976 C 462.415 -0.716569 -1.8897 0
M  V30 4977 C 462.736 0.756769 -1.79716 0
M  V30 4978 O 462.006 1.5449 -1.20456 0
M  V30 4979 H 460.586 -0.262062 -0.699523 0
M  V30 4980 H 463.248 -1.29747 -1.45436 0
M  V30 4981 H 462.344 -1.00675 -2.95417 0
M  V30 4982 N 462.645 1.35699 -0.801477 0
M  V30 4983 C 463.87 2.03687 -0.390678 0
M  V30 4984 C 464.295 1.60015 0.988778 0
M  V30 4985 O 463.653 0.774357 1.63931 0
M  V30 4986 C 463.701 3.57439 -0.476404 0
M  V30 4987 O 462.805 4.09208 0.512106 0
M  V30 4988 H 462.146 0.64344 -0.163956 0
M  V30 4989 H 464.676 1.73403 -1.08594 0
M  V30 4990 H 464.686 4.06544 -0.344357 0
M  V30 4991 H 463.361 3.88576 -1.48262 0
M  V30 4992 H 461.938 3.7134 0.340721 0
M  V30 4993 N 464.123 0.554532 1.47522 0
M  V30 4994 C 465.351 0.034257 2.06872 0
M  V30 4995 C 465.766 -1.25826 1.40759 0
M  V30 4996 O 465.123 -1.75425 0.503217 0
M  V30 4997 C 465.174 -0.167827 3.6111 0
M  V30 4998 O 464.895 1.07351 4.24744 0
M  V30 4999 C 466.396 -0.72569 4.3732 0
M  V30 5000 H 463.616 0.0446275 0.669514 0
M  V30 5001 H 466.16 0.767181 1.89564 0
M  V30 5002 H 464.315 -0.850872 3.7794 0
M  V30 5003 H 464.729 0.869563 5.17242 0
M  V30 5004 H 466.203 -0.816394 5.45929 0
M  V30 5005 H 466.68 -1.73635 4.0342 0
M  V30 5006 H 467.286 -0.0784292 4.25228 0
M  V30 5007 N 465.601 -1.54893 0.290851 0
M  V30 5008 C 466.548 -2.23138 -0.58974 0
M  V30 5009 C 467.518 -1.21036 -1.13752 0
M  V30 5010 O 468.703 -1.49626 -1.18392 0
M  V30 5011 C 465.843 -2.96811 -1.76061 0
M  V30 5012 C 464.956 -4.13665 -1.24519 0
M  V30 5013 C 464.091 -4.74944 -2.3791 0
M  V30 5014 C 463.13 -5.83963 -1.83451 0
M  V30 5015 N 462.267 -6.39239 -2.90376 0
M  V30 5016 H 467.107 -2.98 -0.00114915 0
M  V30 5017 H 464.644 -1.47096 0.0112006 0
M  V30 5018 H 466.602 -3.37751 -2.44909 0
M  V30 5019 H 465.232 -2.24344 -2.32098 0
M  V30 5020 H 464.284 -3.77737 -0.449288 0
M  V30 5021 H 465.596 -4.92238 -0.806424 0
M  V30 5022 H 464.75 -5.18684 -3.14724 0
M  V30 5023 H 463.489 -3.95682 -2.85109 0
M  V30 5024 H 462.494 -5.39657 -1.05122 0
M  V30 5025 H 463.719 -6.65103 -1.37169 0
M  V30 5026 H 461.665 -5.62864 -3.36927 0
M  V30 5027 H 461.582 -7.13129 -2.50965 0
M  V30 5028 H 462.85 -6.87637 -3.67118 0
M  V30 5029 N 467.08 -0.0183926 -1.57589 0
M  V30 5030 C 467.99 0.982943 -2.13015 0
M  V30 5031 C 469.006 1.36443 -1.07979 0
M  V30 5032 O 470.182 1.44802 -1.3998 0
M  V30 5033 C 467.247 2.25024 -2.63752 0
M  V30 5034 C 466.308 1.93018 -3.83461 0
M  V30 5035 C 465.541 3.13706 -4.31769 0
M  V30 5036 O 465.764 4.2601 -3.79305 0
M  V30 5037 O 464.698 2.96629 -5.23732 0
M  V30 5038 H 468.524 0.541709 -2.9883 0
M  V30 5039 H 466.109 0.201565 -1.48034 0
M  V30 5040 H 467.991 2.99441 -2.96502 0
M  V30 5041 H 466.666 2.68349 -1.81026 0
M  V30 5042 H 465.573 1.16019 -3.55655 0
M  V30 5043 H 466.906 1.54516 -4.67317 0
M  V30 5044 N 468.558 1.5553 0.254621 0
M  V30 5045 C 469.488 1.9268 1.31897 0
M  V30 5046 C 470.469 0.790797 1.506 0
M  V30 5047 O 471.654 1.05045 1.63337 0
M  V30 5048 C 468.784 2.21477 2.67517 0
M  V30 5049 C 467.738 3.37256 2.63519 0
M  V30 5050 C 467.064 3.51576 4.02862 0
M  V30 5051 C 468.364 4.73157 2.21179 0
M  V30 5052 H 470.058 2.81832 1.01051 0
M  V30 5053 H 467.604 1.35599 0.484662 0
M  V30 5054 H 469.557 2.46055 3.42104 0
M  V30 5055 H 468.281 1.29144 2.99982 0
M  V30 5056 H 466.94 3.12675 1.9139 0
M  V30 5057 H 466.588 2.56676 4.32581 0
M  V30 5058 H 466.288 4.2943 4.01078 0
M  V30 5059 H 467.812 3.78467 4.79161 0
M  V30 5060 H 469.226 4.97158 2.85494 0
M  V30 5061 H 467.623 5.54058 2.30521 0
M  V30 5062 H 468.693 4.70739 1.16332 0
M  V30 5063 N 470.036 -0.519951 1.48776 0
M  V30 5064 C 471.452 -0.849418 1.35119 0
M  V30 5065 C 471.652 -1.98077 0.36982 0
M  V30 5066 O 470.708 -2.51664 -0.205359 0
M  V30 5067 C 472.021 -1.20748 2.75391 0
M  V30 5068 C 473.569 -1.31679 2.83954 0
M  V30 5069 C 474.044 -1.70824 4.24951 0
M  V30 5070 N 475.535 -1.77908 4.27672 0
M  V30 5071 C 476.27 -2.09603 5.33717 0
M  V30 5072 N 475.766 -2.39652 6.5003 0
M  V30 5073 N 477.559 -2.10694 5.21119 0
M  V30 5074 H 469.71 0.226377 2.1119 0
M  V30 5075 H 471.973 0.0386519 0.947212 0
M  V30 5076 H 471.679 -0.449703 3.48813 0
M  V30 5077 H 471.553 -2.15534 3.09556 0
M  V30 5078 H 473.94 -2.06532 2.10781 0
M  V30 5079 H 474.021 -0.3499 2.53396 0
M  V30 5080 H 473.665 -0.965282 4.98643 0
M  V30 5081 H 473.595 -2.6858 4.52959 0
M  V30 5082 H 476.086 -1.56923 3.43779 0
M  V30 5083 H 476.399 -2.6297 7.26682 0
M  V30 5084 H 474.744 -2.37149 6.53288 0
M  V30 5085 H 477.935 -1.86682 4.29264 0
M  V30 5086 H 478.108 -2.35062 6.03863 0
M  V30 5087 N 471.514 -1.37532 -0.769588 0
M  V30 5088 C 472.76 -1.33057 -1.53048 0
M  V30 5089 C 473.093 0.0841865 -1.94017 0
M  V30 5090 O 472.368 1.04198 -1.64235 0
M  V30 5091 C 472.651 -2.27166 -2.79406 0
M  V30 5092 C 472.504 -3.77429 -2.44677 0
M  V30 5093 C 473.823 -2.19683 -3.81349 0
M  V30 5094 H 470.942 -0.484655 -0.555228 0
M  V30 5095 H 473.584 -1.68251 -0.882702 0
M  V30 5096 H 471.734 -1.97283 -3.34682 0
M  V30 5097 H 473.406 -4.17918 -1.953 0
M  V30 5098 H 471.649 -3.95892 -1.77346 0
M  V30 5099 H 472.32 -4.38716 -3.35011 0
M  V30 5100 H 474.796 -2.46029 -3.35573 0
M  V30 5101 H 473.672 -2.87668 -4.67481 0
M  V30 5102 H 473.933 -1.19045 -4.25771 0
M  V30 5103 N 472.992 0.995999 -1.22138 0
M  V30 5104 C 474.403 1.54961 -1.04135 0
M  V30 5105 C 474.754 1.92159 0.396147 0
M  V30 5106 O 473.879 1.74435 1.28069 0
M  V30 5107 C 474.474 2.81581 -1.88408 0
M  V30 5108 C 473.033 3.33396 -1.74712 0
M  V30 5109 C 472.18 2.06509 -1.85066 0
M  V30 5110 H 475.131 0.817436 -1.36028 0
M  V30 5111 H 475.152 3.53822 -1.39966 0
M  V30 5112 H 474.664 2.54476 -2.93025 0
M  V30 5113 H 472.765 3.65416 -0.728159 0
M  V30 5114 H 472.878 4.04208 -2.57202 0
M  V30 5115 H 471.242 2.19925 -1.28472 0
M  V30 5116 H 472.025 1.81804 -2.91208 0
M  V30 5117 N 474.47 1.03057 1.19235 0
M  V30 5118 C 475.719 0.72326 1.88287 0
M  V30 5119 C 476.032 -0.751333 1.80594 0
M  V30 5120 O 477.238 -1.17176 2.44912 0
M  V30 5121 C 475.694 1.24338 3.3774 0
M  V30 5122 C 475.302 2.74587 3.53986 0
M  V30 5123 C 477.046 1.01213 4.12257 0
M  V30 5124 C 474.953 3.20009 4.97341 0
M  V30 5125 H 473.883 0.266848 0.705201 0
M  V30 5126 H 476.534 1.24509 1.34795 0
M  V30 5127 H 474.916 0.649457 3.90638 0
M  V30 5128 H 476.09 3.39649 3.11408 0
M  V30 5129 H 474.405 2.9601 2.9286 0
M  V30 5130 H 477.002 1.32675 5.17978 0
M  V30 5131 H 477.345 -0.051001 4.16269 0
M  V30 5132 H 477.878 1.57014 3.65501 0
M  V30 5133 H 474.617 4.25659 4.98493 0
M  V30 5134 H 474.137 2.59676 5.40674 0
M  V30 5135 H 475.816 3.13447 5.66003 0
M  V30 5136 N 475.948 -1.35272 0.808662 0
M  V30 5137 C 477.196 -1.98316 0.389233 0
M  V30 5138 C 477.517 -1.64465 -1.04767 0
M  V30 5139 O 476.787 -0.928175 -1.72516 0
M  V30 5140 H 475.367 -0.733585 0.140935 0
M  V30 5141 H 478.029 -1.6515 1.03496 0
M  V30 5142 H 477.125 -3.08123 0.496631 0
M  V30 5143 N 477.426 -0.562348 -1.47226 0
M  V30 5144 C 478.373 0.182461 -2.30078 0
M  V30 5145 C 479.343 0.903503 -1.39377 0
M  V30 5146 O 480.528 0.898188 -1.68337 0
M  V30 5147 C 477.668 1.20322 -3.23445 0
M  V30 5148 C 476.781 0.487717 -4.29238 0
M  V30 5149 C 475.916 1.49422 -5.09752 0
M  V30 5150 C 474.955 0.763976 -6.07314 0
M  V30 5151 N 474.092 1.71755 -6.80768 0
M  V30 5152 H 478.932 -0.530169 -2.93246 0
M  V30 5153 H 476.469 -0.273276 -1.44539 0
M  V30 5154 H 478.427 1.80768 -3.76004 0
M  V30 5155 H 477.057 1.88382 -2.6213 0
M  V30 5156 H 476.109 -0.231374 -3.79696 0
M  V30 5157 H 477.421 -0.0841003 -4.98729 0
M  V30 5158 H 476.575 2.17206 -5.66486 0
M  V30 5159 H 475.314 2.09995 -4.40174 0
M  V30 5160 H 474.319 0.0722344 -5.49753 0
M  V30 5161 H 475.544 0.16391 -6.78902 0
M  V30 5162 H 473.49 2.31177 -6.13916 0
M  V30 5163 H 473.407 1.19802 -7.46447 0
M  V30 5164 H 474.675 2.38638 -7.42073 0
M  V30 5165 N 478.904 1.54736 -0.299062 0
M  V30 5166 C 480.152 1.99706 0.31017 0
M  V30 5167 C 480.473 1.18896 1.54559 0
M  V30 5168 O 479.743 0.284445 1.93824 0
M  V30 5169 H 478.323 0.737686 0.117596 0
M  V30 5170 H 480.985 1.9054 -0.409943 0
M  V30 5171 H 480.081 3.06596 0.58355 0
M  V30 5172 N 480.382 0.0267497 1.57577 0
M  V30 5173 C 481.629 -0.652404 1.91703 0
M  V30 5174 C 481.957 -1.72271 0.902936 0
M  V30 5175 O 481.212 -1.955 -0.0884843 0
M  V30 5176 C 481.511 -1.30914 3.3256 0
M  V30 5177 C 481.177 -0.369441 4.49384 0
M  V30 5178 C 479.839 -0.110791 4.81072 0
M  V30 5179 C 482.191 0.275971 5.20469 0
M  V30 5180 C 479.519 0.801116 5.81205 0
M  V30 5181 C 481.871 1.17592 6.21575 0
M  V30 5182 C 480.535 1.44348 6.51705 0
M  V30 5183 H 479.805 -0.238732 0.70149 0
M  V30 5184 H 482.452 0.0880091 1.91298 0
M  V30 5185 H 480.757 -2.12425 3.29216 0
M  V30 5186 H 482.454 -1.84115 3.56234 0
M  V30 5187 H 479.044 -0.581211 4.24641 0
M  V30 5188 H 483.228 0.0892 4.9622 0
M  V30 5189 H 478.484 1.01614 6.02897 0
M  V30 5190 H 482.658 1.68223 6.75777 0
M  V30 5191 H 480.285 2.15176 7.29111 0
M  V30 5192 N 481.861 -1.55662 -0.24637 0
M  V30 5193 C 482.824 -1.89558 -1.28842 0
M  V30 5194 C 483.824 -0.772082 -1.41052 0
M  V30 5195 O 485.014 -1.04007 -1.39743 0
M  V30 5196 C 482.146 -2.12449 -2.66605 0
M  V30 5197 H 483.339 -2.82735 -1.00004 0
M  V30 5198 H 480.892 -1.48562 -0.485684 0
M  V30 5199 H 481.627 -1.21742 -3.00582 0
M  V30 5200 H 481.412 -2.94273 -2.59125 0
M  V30 5201 H 482.902 -2.39854 -3.41847 0
M  V30 5202 N 483.339 0.512053 -1.4905 0
M  V30 5203 C 484.587 1.26436 -1.57665 0
M  V30 5204 C 484.908 1.93255 -0.260293 0
M  V30 5205 O 484.178 1.82206 0.719564 0
M  V30 5206 H 482.758 0.469658 -0.580888 0
M  V30 5207 H 485.42 0.594398 -1.85615 0
M  V30 5208 H 484.516 2.03417 -2.36702 0
M  V30 5209 N 484.817 1.37938 0.762283 0
M  V30 5210 C 486.066 1.32989 1.51647 0
M  V30 5211 C 486.379 -0.0802922 1.95435 0
M  V30 5212 O 487.585 -0.252295 2.70325 0
M  V30 5213 C 486.041 2.33485 2.73885 0
M  V30 5214 C 485.649 3.80079 2.37157 0
M  V30 5215 C 487.393 2.37563 3.51801 0
M  V30 5216 C 485.3 4.72283 3.55954 0
M  V30 5217 H 484.23 0.494301 0.56937 0
M  V30 5218 H 486.881 1.63448 0.834083 0
M  V30 5219 H 485.263 1.96056 3.44061 0
M  V30 5220 H 486.437 4.26398 1.74704 0
M  V30 5221 H 484.752 3.79037 1.72395 0
M  V30 5222 H 487.349 3.0365 4.40114 0
M  V30 5223 H 487.692 1.39199 3.92338 0
M  V30 5224 H 488.225 2.73747 2.8863 0
M  V30 5225 H 484.964 5.7181 3.2049 0
M  V30 5226 H 484.484 4.30663 4.1748 0
M  V30 5227 H 486.163 4.89876 4.22647 0
M  V30 5228 N 486.295 -0.989507 1.22664 0
M  V30 5229 C 487.541 -1.7321 1.05481 0
M  V30 5230 C 487.874 -1.89852 -0.408635 0
M  V30 5231 O 487.149 -1.44416 -1.30285 0
M  V30 5232 C 487.432 -3.1357 1.77047 0
M  V30 5233 C 487.285 -3.04555 3.31008 0
M  V30 5234 C 488.604 -4.12812 1.5256 0
M  V30 5235 H 485.723 -0.628697 0.384589 0
M  V30 5236 H 488.365 -1.15258 1.51049 0
M  V30 5237 H 486.515 -3.63046 1.3831 0
M  V30 5238 H 488.187 -2.62674 3.7921 0
M  V30 5239 H 486.43 -2.41278 3.6051 0
M  V30 5240 H 487.101 -4.03894 3.76263 0
M  V30 5241 H 489.577 -3.72106 1.86215 0
M  V30 5242 H 488.453 -5.09132 2.05124 0
M  V30 5243 H 488.714 -4.39711 0.458936 0
M  V30 5244 N 487.773 -1.03688 -1.18687 0
M  V30 5245 C 488.736 -0.629115 -2.20397 0
M  V30 5246 C 489.736 0.311495 -1.57754 0
M  V30 5247 O 490.926 0.0974107 -1.73927 0
M  V30 5248 C 488.058 0.0782231 -3.4081 0
M  V30 5249 H 489.251 -1.52915 -2.57987 0
M  V30 5250 H 486.804 -0.828988 -1.32505 0
M  V30 5251 H 487.539 0.992233 -3.08748 0
M  V30 5252 H 487.324 -0.597776 -3.87517 0
M  V30 5253 H 488.814 0.350156 -4.16129 0
M  V30 5254 N 489.251 1.34841 -0.815825 0
M  V30 5255 C 490.214 2.27959 -0.238185 0
M  V30 5256 C 491.214 1.49983 0.579816 0
M  V30 5257 O 492.404 1.69617 0.396953 0
M  V30 5258 C 489.536 3.34314 0.666876 0
M  V30 5259 H 490.729 2.80558 -1.05958 0
M  V30 5260 H 488.282 1.44852 -0.587156 0
M  V30 5261 H 489.017 2.86916 1.5116 0
M  V30 5262 H 488.802 3.92014 0.0819106 0
M  V30 5263 H 490.292 4.0379 1.06506 0
M  V30 5264 N 490.729 0.570148 1.46925 0
M  V30 5265 C 491.954 0.0542592 2.07329 0
M  V30 5266 C 492.379 -1.23582 1.41806 0
M  V30 5267 O 491.737 -1.74341 0.497479 0
M  V30 5268 C 491.785 -0.111175 3.60429 0
M  V30 5269 O 490.889 -1.17071 3.95434 0
M  V30 5270 H 490.23 0.0571425 0.661537 0
M  V30 5271 H 492.76 0.789516 1.88753 0
M  V30 5272 H 492.77 -0.321315 4.06733 0
M  V30 5273 H 491.445 0.831012 4.07513 0
M  V30 5274 H 490.022 -0.940029 3.60857 0
M  V30 5275 N 492.207 -1.54576 0.307264 0
M  V30 5276 C 493.455 -1.99867 -0.299574 0
M  V30 5277 C 493.776 -1.19714 -1.53927 0
M  V30 5278 O 493.046 -0.29472 -1.9367 0
M  V30 5279 H 491.626 -0.738299 -0.113683 0
M  V30 5280 H 494.288 -1.9032 0.420042 0
M  V30 5281 H 493.384 -3.06901 -0.567283 0
M  V30 5282 N 493.685 -0.035106 -1.57561 0
M  V30 5283 C 494.617 0.973604 -2.07494 0
M  V30 5284 C 495.63 1.28504 -0.999534 0
M  V30 5285 O 496.819 1.24864 -1.27559 0
M  V30 5286 C 493.919 2.29945 -2.48955 0
M  V30 5287 C 493.092 2.1723 -3.79644 0
M  V30 5288 C 492.151 3.328 -4.07592 0
M  V30 5289 O 491.177 3.09418 -4.77754 0
M  V30 5290 N 492.379 4.56779 -3.58236 0
M  V30 5291 H 495.144 0.547525 -2.94656 0
M  V30 5292 H 492.705 0.151515 -1.61189 0
M  V30 5293 H 494.697 3.06097 -2.64739 0
M  V30 5294 H 493.267 2.64173 -1.67126 0
M  V30 5295 H 492.487 1.25768 -3.73599 0
M  V30 5296 H 493.775 2.05945 -4.65257 0
M  V30 5297 H 493.173 4.78668 -3.01485 0
M  V30 5298 H 491.73 5.30079 -3.79288 0
M  V30 5299 N 495.163 1.55791 0.238111 0
M  V30 5300 C 496.11 1.9105 1.29493 0
M  V30 5301 C 497.08 0.765733 1.47397 0
M  V30 5302 O 498.265 1.02017 1.61236 0
M  V30 5303 C 495.405 2.21826 2.64362 0
M  V30 5304 C 494.518 3.49153 2.54394 0
M  V30 5305 C 493.653 3.69455 3.81676 0
M  V30 5306 C 492.692 4.90353 3.66361 0
M  V30 5307 N 491.829 5.07131 4.85554 0
M  V30 5308 H 496.669 2.81172 0.987233 0
M  V30 5309 H 494.206 1.39179 0.476203 0
M  V30 5310 H 496.164 2.37675 3.4288 0
M  V30 5311 H 494.794 1.34897 2.93262 0
M  V30 5312 H 493.846 3.41587 1.67399 0
M  V30 5313 H 495.158 4.37818 2.38991 0
M  V30 5314 H 494.312 3.85311 4.68636 0
M  V30 5315 H 493.051 2.7904 3.99985 0
M  V30 5316 H 492.056 4.74464 2.77784 0
M  V30 5317 H 493.281 5.82237 3.49538 0
M  V30 5318 H 491.227 4.19654 5.04209 0
M  V30 5319 H 491.144 5.89899 4.72816 0
M  V30 5320 H 492.412 5.27407 5.73988 0
M  V30 5321 N 496.642 -0.504142 1.49319 0
M  V30 5322 C 497.572 -1.61473 1.68667 0
M  V30 5323 C 498.553 -1.61455 0.535378 0
M  V30 5324 O 499.738 -1.78245 0.770868 0
M  V30 5325 C 496.868 -2.99971 1.75028 0
M  V30 5326 C 495.822 -3.14854 2.89916 0
M  V30 5327 C 495.148 -4.54671 2.81387 0
M  V30 5328 C 496.448 -2.95176 4.30893 0
M  V30 5329 H 498.142 -1.45535 2.61648 0
M  V30 5330 H 495.688 -0.698711 1.25913 0
M  V30 5331 H 497.641 -3.77562 1.8715 0
M  V30 5332 H 496.365 -3.1699 0.786441 0
M  V30 5333 H 495.024 -2.39687 2.77391 0
M  V30 5334 H 494.672 -4.68562 1.82917 0
M  V30 5335 H 494.372 -4.6557 3.58494 0
M  V30 5336 H 495.896 -5.34327 2.95512 0
M  V30 5337 H 497.31 -3.62538 4.44116 0
M  V30 5338 H 495.707 -3.17549 5.09198 0
M  V30 5339 H 496.777 -1.91332 4.45556 0
M  V30 5340 N 498.12 -1.38341 -0.754957 0
M  V30 5341 C 499.068 -1.35573 -1.89005 0
M  V30 5342 C 500.062 -0.241824 -1.67665 0
M  V30 5343 O 501.268 -0.410785 -1.7525 0
M  V30 5344 H 497.643 -0.422898 -0.621821 0
M  V30 5345 H 499.614 -2.31359 -1.88455 0
M  V30 5346 C 498.363 -1.19631 -3.26471 0
M  V30 5347 H 497.686 -2.04605 -3.43477 0
M  V30 5348 H 499.126 -1.21748 -4.06144 0
M  V30 5349 C 497.585 0.0968705 -3.36761 0
M  V30 5350 O 498.115 1.07439 -3.87066 0
M  V30 5351 N 496.321 0.153242 -2.90196 0
M  V30 5352 H 495.868 -0.642908 -2.49448 0
M  V30 5353 H 495.826 1.01807 -2.9746 0
M  V30 5354 N 499.598 0.982988 -1.23187 0
M  V30 5355 C 500.847 1.71817 -1.05649 0
M  V30 5356 C 501.16 1.91315 0.407176 0
M  V30 5357 O 502.366 2.62256 0.702436 0
M  V30 5358 C 500.822 3.09188 -1.84203 0
M  V30 5359 C 500.43 2.97586 -3.34882 0
M  V30 5360 C 502.174 3.86684 -1.75146 0
M  V30 5361 C 500.081 4.30173 -4.05839 0
M  V30 5362 H 499.011 0.644258 -0.391724 0
M  V30 5363 H 501.662 1.09659 -1.4713 0
M  V30 5364 H 500.044 3.72087 -1.35527 0
M  V30 5365 H 501.218 2.43793 -3.91026 0
M  V30 5366 H 499.533 2.33567 -3.44725 0
M  V30 5367 H 502.13 4.84836 -2.25473 0
M  V30 5368 H 502.473 4.10136 -0.713737 0
M  V30 5369 H 503.006 3.30482 -2.21419 0
M  V30 5370 H 499.745 4.11918 -5.09906 0
M  V30 5371 H 499.265 4.83841 -3.54482 0
M  V30 5372 H 500.944 4.98873 -4.11989 0
M  V30 5373 N 501.076 1.04316 1.18135 0
M  V30 5374 C 502.487 0.775505 1.69832 0
M  V30 5375 C 502.838 -0.703348 1.8316 0
M  V30 5376 O 501.963 -1.54729 1.51287 0
M  V30 5377 C 502.558 1.40112 3.0847 0
M  V30 5378 C 501.117 1.18172 3.57368 0
M  V30 5379 C 500.264 1.49022 2.33854 0
M  V30 5380 H 503.215 1.20925 1.02775 0
M  V30 5381 H 503.236 0.805672 3.71873 0
M  V30 5382 H 502.748 2.47744 2.98738 0
M  V30 5383 H 500.849 0.124258 3.72393 0
M  V30 5384 H 500.962 1.8805 4.40652 0
M  V30 5385 H 499.326 0.909995 2.37889 0
M  V30 5386 H 500.109 2.57768 2.26738 0
M  V30 5387 N 502.554 -1.34406 0.822964 0
M  V30 5388 C 503.801 -1.98284 0.411057 0
M  V30 5389 C 504.129 -1.65245 -1.02588 0
M  V30 5390 O 503.384 -0.91619 -1.72929 0
M  V30 5391 C 503.683 -3.52981 0.560268 0
M  V30 5392 C 503.349 -4.05931 1.96293 0
M  V30 5393 C 502.011 -4.20103 2.34664 0
M  V30 5394 C 504.363 -4.34412 2.87985 0
M  V30 5395 C 501.691 -4.60082 3.64062 0
M  V30 5396 C 504.043 -4.75838 4.16847 0
M  V30 5397 C 502.707 -4.88215 4.55195 0
M  V30 5398 H 501.977 -0.725573 0.150416 0
M  V30 5399 H 504.624 -1.60349 1.04692 0
M  V30 5400 H 502.929 -3.91477 -0.158982 0
M  V30 5401 H 504.626 -4.00385 0.222087 0
M  V30 5402 H 501.216 -3.95363 1.65487 0
M  V30 5403 H 505.4 -4.23001 2.59584 0
M  V30 5404 H 500.656 -4.67856 3.93599 0
M  V30 5405 H 504.83 -4.96834 4.87984 0
M  V30 5406 H 502.457 -5.18952 5.55512 0
M  V30 5407 N 504.032 -0.577932 -1.46621 0
M  V30 5408 C 505.309 0.00495287 -1.95599 0
M  V30 5409 C 505.689 1.46428 -1.5206 0
M  V30 5410 O 505.037 2.1517 -0.769046 0
M  V30 5411 C 505.247 -0.162114 -3.48623 0
M  V30 5412 C 506.595 -0.0274623 -4.24591 0
M  V30 5413 O 507.619 -0.0907067 -3.56084 0
M  V30 5414 O 506.478 0.1122 -5.46385 0
M  V30 5415 H 503.572 0.0525057 -0.825332 0
M  V30 5416 H 506.118 -0.645914 -1.56927 0
M  V30 5417 H 504.89 -1.17679 -3.73185 0
M  V30 5418 H 504.513 0.525407 -3.94113 0
M  V30 5419 N 505.51 1.54411 -0.315457 0
M  V30 5420 C 506.44 2.27002 0.547039 0
M  V30 5421 C 507.421 1.27492 1.12605 0
M  V30 5422 O 508.606 1.5629 1.15269 0
M  V30 5423 C 505.736 3.02171 1.71201 0
M  V30 5424 C 504.69 4.0895 1.26268 0
M  V30 5425 C 504.016 4.71915 2.51396 0
M  V30 5426 C 505.316 5.20891 0.383419 0
M  V30 5427 H 507.01 2.99343 -0.0584517 0
M  V30 5428 H 504.556 1.4397 -0.0295527 0
M  V30 5429 H 506.509 3.51681 2.32161 0
M  V30 5430 H 505.233 2.27433 2.34397 0
M  V30 5431 H 503.892 3.60312 0.676062 0
M  V30 5432 H 503.54 3.93801 3.12937 0
M  V30 5433 H 503.24 5.44039 2.22026 0
M  V30 5434 H 504.764 5.24195 3.13133 0
M  V30 5435 H 506.178 5.66206 0.899082 0
M  V30 5436 H 504.575 5.99821 0.182857 0
M  V30 5437 H 505.645 4.81324 -0.587821 0
M  V30 5438 N 506.988 0.0434614 1.5754 0
M  V30 5439 C 508.218 -0.640905 1.96408 0
M  V30 5440 C 508.626 -1.65365 0.919297 0
M  V30 5441 O 507.969 -1.83395 -0.105795 0
M  V30 5442 C 508.031 -1.39141 3.31482 0
M  V30 5443 C 507.695 -0.535375 4.53853 0
M  V30 5444 C 508.692 0.195335 5.19533 0
M  V30 5445 C 506.377 -0.468564 5.0011 0
M  V30 5446 C 508.371 0.981377 6.298 0
M  V30 5447 C 506.058 0.321171 6.10255 0
M  V30 5448 C 507.056 1.04484 6.74961 0
M  V30 5449 O 506.744 1.8216 7.8299 0
M  V30 5450 H 506.476 -0.180584 0.651433 0
M  V30 5451 H 509.03 0.103848 2.05137 0
M  V30 5452 H 507.26 -2.18162 3.19284 0
M  V30 5453 H 508.949 -1.96526 3.55151 0
M  V30 5454 H 509.715 0.15314 4.84758 0
M  V30 5455 H 505.594 -1.02142 4.49542 0
M  V30 5456 H 509.138 1.54674 6.80237 0
M  V30 5457 H 505.035 0.365032 6.44467 0
M  V30 5458 H 505.803 1.74289 7.99728 0
M  V30 5459 N 508.466 -1.55915 -0.229846 0
M  V30 5460 C 509.743 -1.6932 -0.979295 0
M  V30 5461 C 510.123 -0.588321 -2.02736 0
M  V30 5462 O 509.471 0.40586 -2.24867 0
M  V30 5463 C 509.681 -3.10305 -1.59724 0
M  V30 5464 C 511.029 -3.6945 -2.09264 0
M  V30 5465 O 512.053 -3.13214 -1.69633 0
M  V30 5466 O 510.912 -4.68072 -2.82082 0
M  V30 5467 H 508.006 -0.689314 -0.456919 0
M  V30 5468 H 510.552 -1.68238 -0.222283 0
M  V30 5469 H 509.324 -3.82177 -0.840039 0
M  V30 5470 H 508.947 -3.1547 -2.42001 0
M  V30 5471 N 509.944 0.496216 -1.49584 0
M  V30 5472 C 510.894 1.59422 -1.62999 0
M  V30 5473 C 511.878 1.53402 -0.485457 0
M  V30 5474 O 513.07 1.60851 -0.738649 0
M  V30 5475 C 510.199 2.98009 -1.70427 0
M  V30 5476 C 509.285 3.09008 -2.90473 0
M  V30 5477 N 509.676 2.89884 -4.14489 0
M  V30 5478 C 507.974 3.40115 -2.8851 0
M  V30 5479 C 508.675 3.0519 -4.95211 0
M  V30 5480 N 507.651 3.3428 -4.2867 0
M  V30 5481 H 511.453 1.43297 -2.56599 0
M  V30 5482 H 508.967 0.702443 -1.46422 0
M  V30 5483 H 510.964 3.76926 -1.78136 0
M  V30 5484 H 509.624 3.152 -0.77967 0
M  V30 5485 H 510.635 2.65963 -4.44392 0
M  V30 5486 H 507.312 3.63452 -2.05448 0
M  V30 5487 H 508.702 2.94856 -6.03746 0
M  V30 5488 N 511.423 1.38739 0.74761 0
M  V30 5489 C 512.834 1.31507 1.32524 0
M  V30 5490 C 513.185 -0.0263963 1.96182 0
M  V30 5491 O 512.31 -0.92849 1.95469 0
M  V30 5492 C 512.905 2.38162 2.40966 0
M  V30 5493 C 511.464 2.34489 2.94434 0
M  V30 5494 C 510.611 2.20712 1.67873 0
M  V30 5495 H 513.562 1.4901 0.546043 0
M  V30 5496 H 513.583 2.04222 3.21051 0
M  V30 5497 H 513.095 3.35783 1.94605 0
M  V30 5498 H 511.196 1.40467 3.45108 0
M  V30 5499 H 511.309 3.28861 3.48407 0
M  V30 5500 H 509.673 1.67667 1.91729 0
M  V30 5501 H 510.456 3.20285 1.23582 0
M  V30 5502 N 512.901 -0.976442 1.23707 0
M  V30 5503 C 514.178 -1.69296 0.979699 0
M  V30 5504 C 514.558 -2.0508 -0.500555 0
M  V30 5505 O 513.906 -1.74708 -1.47273 0
M  V30 5506 C 514.116 -2.93143 1.89389 0
M  V30 5507 C 515.464 -3.65572 2.15968 0
M  V30 5508 O 516.488 -3.03184 1.86971 0
M  V30 5509 O 515.347 -4.77859 2.65167 0
M  V30 5510 H 512.441 -0.739708 0.369812 0
M  V30 5511 H 514.987 -1.03131 1.34767 0
M  V30 5512 H 513.759 -2.63327 2.89439 0
M  V30 5513 H 513.382 -3.67044 1.52854 0
M  V30 5514 N 514.379 -1.04941 -1.1758 0
M  V30 5515 C 515.604 -0.778253 -1.92245 0
M  V30 5516 C 516.029 0.659707 -1.76152 0
M  V30 5517 O 515.387 1.45803 -1.07755 0
M  V30 5518 C 515.435 -1.16051 -3.41416 0
M  V30 5519 O 514.539 -0.291153 -4.11371 0
M  V30 5520 H 513.88 -0.285619 -0.599431 0
M  V30 5521 H 516.41 -1.40159 -1.49052 0
M  V30 5522 H 516.42 -1.12619 -3.92149 0
M  V30 5523 H 515.095 -2.208 -3.52449 0
M  V30 5524 H 513.672 -0.385851 -3.70898 0
M  V30 5525 N 515.857 1.33968 -0.830081 0
M  V30 5526 C 516.82 2.27694 -0.26235 0
M  V30 5527 C 517.82 1.50589 0.563876 0
M  V30 5528 O 519.01 1.70028 0.378941 0
M  V30 5529 C 516.142 3.35002 0.63138 0
M  V30 5530 H 517.335 2.79419 -1.08928 0
M  V30 5531 H 514.888 1.44221 -0.602486 0
M  V30 5532 H 515.623 2.88504 1.48109 0
M  V30 5533 H 515.408 3.92079 0.0403276 0
M  V30 5534 H 516.898 4.04897 1.02217 0
M  V30 5535 N 517.335 0.585699 1.46312 0
M  V30 5536 C 518.563 0.0781299 2.06752 0
M  V30 5537 C 518.978 -1.22812 1.43396 0
M  V30 5538 O 518.335 -1.74318 0.540314 0
M  V30 5539 C 518.386 -0.0911927 3.61385 0
M  V30 5540 O 518.107 1.16336 4.22371 0
M  V30 5541 C 519.608 -0.632765 4.38761 0
M  V30 5542 H 516.828 0.0588188 0.668417 0
M  V30 5543 H 519.372 0.807218 1.87894 0
M  V30 5544 H 517.527 -0.770514 3.7966 0
M  V30 5545 H 517.941 0.979082 5.15281 0
M  V30 5546 H 519.415 -0.70041 5.47538 0
M  V30 5547 H 519.892 -1.65039 4.07012 0
M  V30 5548 H 520.498 0.0117856 4.25298 0
M  V30 5549 N 518.813 -1.54241 0.323641 0
M  V30 5550 C 519.776 -2.22997 -0.529602 0
M  V30 5551 C 520.776 -1.22345 -1.04347 0
M  V30 5552 O 521.966 -1.46924 -0.935889 0
M  V30 5553 C 519.098 -2.93409 -1.73562 0
M  V30 5554 H 520.291 -2.99815 0.0714518 0
M  V30 5555 H 517.844 -1.56121 0.0747258 0
M  V30 5556 H 518.579 -2.20729 -2.37591 0
M  V30 5557 H 518.364 -3.67217 -1.37456 0
M  V30 5558 H 519.854 -3.45794 -2.34128 0
M  V30 5559 N 520.291 -0.0518155 -1.57515 0
M  V30 5560 C 521.238 0.922352 -2.11569 0
M  V30 5561 C 522.208 1.30842 -1.02321 0
M  V30 5562 O 523.393 1.39778 -1.29872 0
M  V30 5563 C 520.533 2.19167 -2.6657 0
M  V30 5564 C 519.646 1.86003 -3.89906 0
M  V30 5565 C 518.781 3.07398 -4.33221 0
M  V30 5566 C 517.82 2.70158 -5.49255 0
M  V30 5567 N 516.957 3.84248 -5.8762 0
M  V30 5568 H 521.797 0.454506 -2.94514 0
M  V30 5569 H 519.334 0.212718 -1.45554 0
M  V30 5570 H 521.292 2.93443 -2.96559 0
M  V30 5571 H 519.922 2.63528 -1.86421 0
M  V30 5572 H 518.974 1.01874 -3.66505 0
M  V30 5573 H 520.286 1.54592 -4.74239 0
M  V30 5574 H 519.44 3.89972 -4.64765 0
M  V30 5575 H 518.179 3.41988 -3.477 0
M  V30 5576 H 517.184 1.86001 -5.17382 0
M  V30 5577 H 518.409 2.36759 -6.36492 0
M  V30 5578 H 516.355 4.18638 -5.05053 0
M  V30 5579 H 516.272 3.56538 -6.66646 0
M  V30 5580 H 517.54 4.6746 -6.2378 0
M  V30 5581 N 521.769 1.56035 0.221574 0
M  V30 5582 C 522.701 1.889 1.29805 0
M  V30 5583 C 523.714 0.777269 1.43047 0
M  V30 5584 O 524.903 1.05557 1.43945 0
M  V30 5585 C 522.003 2.0825 2.67367 0
M  V30 5586 C 521.176 3.39267 2.76073 0
M  V30 5587 C 520.235 3.48049 3.94649 0
M  V30 5588 O 519.261 4.2108 3.82988 0
M  V30 5589 N 520.463 2.79191 5.08953 0
M  V30 5590 H 523.228 2.81831 1.01938 0
M  V30 5591 H 520.789 1.5658 0.411612 0
M  V30 5592 H 522.781 2.11441 3.45072 0
M  V30 5593 H 521.351 1.21944 2.87834 0
M  V30 5594 H 520.571 3.48175 1.84846 0
M  V30 5595 H 521.859 4.25575 2.7886 0
M  V30 5596 H 521.257 2.19635 5.21322 0
M  V30 5597 H 519.814 2.88043 5.84701 0
M  V30 5598 N 523.247 -0.488276 1.49845 0
M  V30 5599 C 524.496 -1.23826 1.59217 0
M  V30 5600 C 524.809 -1.93439 0.289966 0
M  V30 5601 O 526.015 -2.70229 0.262382 0
M  V30 5602 C 524.471 -2.24902 2.80976 0
M  V30 5603 C 524.079 -1.6117 4.18005 0
M  V30 5604 C 525.823 -3.00648 2.99685 0
M  V30 5605 C 523.73 -2.60431 5.3097 0
M  V30 5606 H 522.66 -0.465858 0.592868 0
M  V30 5607 H 525.311 -0.510645 1.76252 0
M  V30 5608 H 523.693 -3.0088 2.57463 0
M  V30 5609 H 524.867 -0.910968 4.51706 0
M  V30 5610 H 523.182 -0.97767 4.0476 0
M  V30 5611 H 525.779 -3.74903 3.81251 0
M  V30 5612 H 526.122 -3.5902 2.10738 0
M  V30 5613 H 526.655 -2.31784 3.23297 0
M  V30 5614 H 523.394 -2.06823 6.22017 0
M  V30 5615 H 522.914 -3.28707 5.01709 0
M  V30 5616 H 524.593 -3.22606 5.60834 0
M  V30 5617 N 524.725 -1.39134 -0.740242 0
M  V30 5618 C 526.002 -1.26584 -1.49117 0
M  V30 5619 C 526.382 0.126902 -2.10718 0
M  V30 5620 O 525.73 1.13765 -1.98166 0
M  V30 5621 C 525.94 -2.38619 -2.54681 0
M  V30 5622 C 527.288 -2.77685 -3.21211 0
M  V30 5623 O 528.312 -2.38029 -2.64991 0
M  V30 5624 O 527.171 -3.46115 -4.22926 0
M  V30 5625 H 524.265 -0.495769 -0.661923 0
M  V30 5626 H 526.811 -1.50995 -0.774514 0
M  V30 5627 H 525.583 -3.3175 -2.07504 0
M  V30 5628 H 525.206 -2.15845 -3.33911 0
M  V30 5629 N 526.204 0.969867 -1.24223 0
M  V30 5630 C 527.136 2.0669 -0.99055 0
M  V30 5631 C 528.149 1.62753 0.0392222 0
M  V30 5632 O 529.338 1.77403 -0.197561 0
M  V30 5633 C 526.438 3.35589 -0.472594 0
M  V30 5634 C 525.611 4.08444 -1.56499 0
M  V30 5635 C 524.67 5.15616 -1.05007 0
M  V30 5636 O 523.696 5.41911 -1.7413 0
M  V30 5637 N 524.898 5.80383 0.116641 0
M  V30 5638 H 527.663 2.28855 -1.93508 0
M  V30 5639 H 525.224 1.13733 -1.15223 0
M  V30 5640 H 527.216 4.04542 -0.112919 0
M  V30 5641 H 525.786 3.10311 0.377617 0
M  V30 5642 H 525.006 3.33798 -2.09696 0
M  V30 5643 H 526.294 4.53882 -2.29932 0
M  V30 5644 H 525.692 5.6142 0.694589 0
M  V30 5645 H 524.249 6.50462 0.417483 0
M  V30 5646 N 527.682 1.05563 1.17022 0
M  V30 5647 C 528.614 0.617888 2.20714 0
M  V30 5648 C 529.627 -0.320303 1.59618 0
M  V30 5649 O 530.816 -0.112449 1.78145 0
M  V30 5650 C 527.916 -0.115333 3.38704 0
M  V30 5651 C 527.089 0.834493 4.29366 0
M  V30 5652 C 526.148 0.141855 5.26009 0
M  V30 5653 O 525.174 0.777151 5.6387 0
M  V30 5654 N 526.376 -1.11934 5.69606 0
M  V30 5655 H 529.141 1.50981 2.58892 0
M  V30 5656 H 526.702 0.938008 1.31958 0
M  V30 5657 H 528.694 -0.588918 4.00392 0
M  V30 5658 H 527.264 -0.908967 2.99093 0
M  V30 5659 H 526.484 1.48762 3.65053 0
M  V30 5660 H 527.772 1.4791 4.86827 0
M  V30 5661 H 527.17 -1.65574 5.40927 0
M  V30 5662 H 525.727 -1.53692 6.33421 0
M  V30 5663 N 529.16 -1.33526 0.837174 0
M  V30 5664 C 530.108 -2.31168 0.257698 0
M  V30 5665 C 531.102 -1.5806 -0.609388 0
M  V30 5666 O 532.308 -1.72941 -0.499139 0
M  V30 5667 H 528.683 -0.74922 0.0646058 0
M  V30 5668 H 530.654 -2.77552 1.09578 0
M  V30 5669 C 529.403 -3.4326 -0.553887 0
M  V30 5670 H 528.726 -3.99665 0.104008 0
M  V30 5671 H 530.166 -4.13782 -0.925219 0
M  V30 5672 C 528.625 -2.88965 -1.73207 0
M  V30 5673 O 529.155 -2.85013 -2.83073 0
M  V30 5674 N 527.361 -2.45596 -1.55342 0
M  V30 5675 H 526.908 -2.49009 -0.659705 0
M  V30 5676 H 526.866 -2.0962 -2.34322 0
M  V30 5677 N 530.638 -0.59345 -1.46 0
M  V30 5678 C 531.886 -0.082988 -2.0193 0
M  V30 5679 C 532.207 1.28569 -1.46612 0
M  V30 5680 O 531.477 1.84629 -0.654909 0
M  V30 5681 H 530.057 -0.0276882 -0.746487 0
M  V30 5682 H 532.719 -0.771657 -1.78973 0
M  V30 5683 H 531.815 -0.022079 -3.12092 0
M  V30 5684 N 532.116 1.54067 -0.331816 0
M  V30 5685 C 533.346 2.04833 0.269605 0
M  V30 5686 C 533.754 1.20714 1.45687 0
M  V30 5687 O 533.097 0.232539 1.82222 0
M  V30 5688 C 533.159 3.51386 0.759499 0
M  V30 5689 C 532.823 4.55971 -0.306557 0
M  V30 5690 C 533.82 5.07126 -1.14538 0
M  V30 5691 C 531.505 5.00216 -0.457116 0
M  V30 5692 C 533.499 6.01096 -2.12042 0
M  V30 5693 C 531.186 5.93999 -1.43556 0
M  V30 5694 C 532.184 6.44326 -2.26568 0
M  V30 5695 O 531.872 7.36267 -3.22749 0
M  V30 5696 H 531.604 0.673509 0.0579763 0
M  V30 5697 H 534.158 1.99748 -0.478521 0
M  V30 5698 H 532.388 3.53896 1.55867 0
M  V30 5699 H 534.077 3.85184 1.28017 0
M  V30 5700 H 534.843 4.73716 -1.04009 0
M  V30 5701 H 530.722 4.60652 0.179142 0
M  V30 5702 H 534.266 6.40302 -2.76873 0
M  V30 5703 H 530.163 6.26825 -1.54146 0
M  V30 5704 H 530.931 7.54165 -3.18083 0
M  V30 5705 N 533.594 0.0601682 1.57485 0
M  V30 5706 C 535.01 -0.296422 1.56823 0
M  V30 5707 C 535.21 -1.70831 1.0686 0
M  V30 5708 O 534.266 -2.4174 0.729245 0
M  V30 5709 C 535.579 -0.116681 3.00474 0
M  V30 5710 C 537.127 -0.187103 3.1244 0
M  V30 5711 C 537.602 -0.035783 4.57986 0
M  V30 5712 N 539.093 -0.0917676 4.63109 0
M  V30 5713 C 539.828 0.00107251 5.734 0
M  V30 5714 N 539.324 0.146773 6.92645 0
M  V30 5715 N 541.117 -0.0551577 5.62073 0
M  V30 5716 H 533.268 0.983055 1.88281 0
M  V30 5717 H 535.531 0.382386 0.867459 0
M  V30 5718 H 535.237 0.85712 3.41096 0
M  V30 5719 H 535.111 -0.873929 3.66936 0
M  V30 5720 H 537.498 -1.15138 2.71712 0
M  V30 5721 H 537.579 0.601052 2.48638 0
M  V30 5722 H 537.223 0.925212 4.99402 0
M  V30 5723 H 537.153 -0.843196 5.19806 0
M  V30 5724 H 539.644 -0.203261 3.77353 0
M  V30 5725 H 539.957 0.210076 7.72514 0
M  V30 5726 H 538.302 0.181979 6.94762 0
M  V30 5727 H 541.493 -0.167605 4.678 0
M  V30 5728 H 541.666 0.020652 6.47997 0
M  V30 5729 N 535.072 -1.5615 -0.213296 0
M  V30 5730 C 536.3 -1.83638 -0.953139 0
M  V30 5731 C 536.715 -0.640362 -1.77609 0
M  V30 5732 O 536.072 0.391071 -1.78261 0
M  V30 5733 C 536.123 -3.09735 -1.86405 0
M  V30 5734 O 535.844 -4.24723 -1.07435 0
M  V30 5735 C 537.345 -3.5027 -2.71709 0
M  V30 5736 H 534.565 -0.610263 -0.278962 0
M  V30 5737 H 537.109 -2.03247 -0.226035 0
M  V30 5738 H 535.264 -2.92077 -2.545 0
M  V30 5739 H 535.678 -4.9641 -1.69343 0
M  V30 5740 H 537.152 -4.41515 -3.31313 0
M  V30 5741 H 537.629 -2.72406 -3.44516 0
M  V30 5742 H 538.235 -3.70396 -2.09015 0
M  V30 5743 N 536.55 0.480323 -1.50102 0
M  V30 5744 C 537.79 1.24301 -1.62261 0
M  V30 5745 C 538.154 1.89452 -0.311758 0
M  V30 5746 O 539.355 2.67022 -0.308696 0
M  V30 5747 C 537.626 2.26588 -2.76392 0
M  V30 5748 S 539.185 3.11919 -3.08629 0
M  V30 5749 H 536.003 0.42215 -0.57211 0
M  V30 5750 H 538.605 0.541591 -1.87848 0
M  V30 5751 H 537.309 1.7729 -3.70131 0
M  V30 5752 H 536.84 3.01371 -2.52862 0
M  V30 5753 H 538.855 4.27598 -2.51742 0
M  V30 5754 N 538.028 1.39524 0.732853 0
M  V30 5755 C 539.253 1.40329 1.52717 0
M  V30 5756 C 539.678 0.000286574 1.881 0
M  V30 5757 O 539.036 -0.987262 1.52062 0
M  V30 5758 C 539.084 2.28464 2.78992 0
M  V30 5759 O 538.188 1.716 3.75003 0
M  V30 5760 H 537.529 0.47778 0.461109 0
M  V30 5761 H 540.059 1.83546 0.903996 0
M  V30 5762 H 540.069 2.43051 3.27705 0
M  V30 5763 H 538.744 3.30425 2.52572 0
M  V30 5764 H 537.321 1.66267 3.33781 0
M  V30 5765 N 539.506 -0.963266 1.24736 0
M  V30 5766 C 540.436 -2.07628 1.06832 0
M  V30 5767 C 541.417 -1.70088 -0.0200566 0
M  V30 5768 O 542.602 -1.93636 0.147854 0
M  V30 5769 C 539.732 -3.40636 0.677069 0
M  V30 5770 C 538.686 -3.9215 1.71471 0
M  V30 5771 C 538.012 -5.21553 1.1784 0
M  V30 5772 C 539.312 -4.19493 3.11164 0
M  V30 5773 H 541.006 -2.22864 1.9993 0
M  V30 5774 H 538.552 -1.07093 0.96266 0
M  V30 5775 H 540.505 -4.17941 0.538792 0
M  V30 5776 H 539.229 -3.25313 -0.289612 0
M  V30 5777 H 537.888 -3.17005 1.84128 0
M  V30 5778 H 537.536 -5.02593 0.202195 0
M  V30 5779 H 537.236 -5.56988 1.87185 0
M  V30 5780 H 538.76 -6.01463 1.05233 0
M  V30 5781 H 540.174 -4.87487 3.01711 0
M  V30 5782 H 538.571 -4.66165 3.77902 0
M  V30 5783 H 539.641 -3.26097 3.58871 0
M  V30 5784 N 540.985 -1.06182 -1.16461 0
M  V30 5785 C 541.915 -0.692861 -2.22984 0
M  V30 5786 C 542.896 0.314122 -1.67174 0
M  V30 5787 O 544.081 0.189499 -1.93273 0
M  V30 5788 C 541.211 -0.07732 -3.47214 0
M  V30 5789 C 540.165 -1.01015 -4.15909 0
M  V30 5790 C 539.491 -0.257973 -5.34077 0
M  V30 5791 C 540.791 -2.33868 -4.67015 0
M  V30 5792 H 542.485 -1.58343 -2.54102 0
M  V30 5793 H 540.031 -0.76279 -1.22137 0
M  V30 5794 H 541.984 0.19266 -4.20959 0
M  V30 5795 H 540.708 0.848254 -3.15392 0
M  V30 5796 H 539.367 -1.26486 -3.44088 0
M  V30 5797 H 539.015 0.670684 -4.98509 0
M  V30 5798 H 538.715 -0.879638 -5.80979 0
M  V30 5799 H 540.239 0.00448788 -6.106 0
M  V30 5800 H 541.653 -2.1279 -5.32347 0
M  V30 5801 H 540.05 -2.91522 -5.24533 0
M  V30 5802 H 541.12 -2.97019 -3.83286 0
M  V30 5803 N 542.463 1.3308 -0.844243 0
M  V30 5804 C 543.703 1.99414 -0.448697 0
M  V30 5805 C 544.067 1.65398 0.975058 0
M  V30 5806 O 545.268 2.24741 1.47461 0
M  V30 5807 C 543.539 3.51081 -0.669089 0
M  V30 5808 S 545.098 4.37241 -0.369564 0
M  V30 5809 H 541.916 0.690736 -0.168538 0
M  V30 5810 H 544.518 1.61977 -1.0947 0
M  V30 5811 H 543.222 3.73326 -1.70457 0
M  V30 5812 H 542.753 3.93399 -0.00913211 0
M  V30 5813 H 544.768 4.89568 0.808552 0
M  V30 5814 N 543.941 0.601185 1.45683 0
M  V30 5815 C 544.874 -0.17013 2.27565 0
M  V30 5816 C 545.852 -0.879661 1.36751 0
M  V30 5817 O 547.036 -0.889827 1.66176 0
M  V30 5818 C 544.163 -1.24568 3.14961 0
M  V30 5819 C 543.209 -0.639978 4.21671 0
M  V30 5820 S 544.042 0.547275 5.32696 0
M  V30 5821 C 545.198 -0.529019 6.2366 0
M  V30 5822 H 545.431 0.524583 2.92635 0
M  V30 5823 H 542.964 0.388537 1.49431 0
M  V30 5824 H 544.922 -1.86138 3.65873 0
M  V30 5825 H 543.583 -1.91243 2.49169 0
M  V30 5826 H 542.776 -1.44903 4.8272 0
M  V30 5827 H 542.378 -0.0995558 3.73867 0
M  V30 5828 H 544.67 -1.40981 6.62669 0
M  V30 5829 H 545.613 0.0451599 7.08086 0
M  V30 5830 H 546.021 -0.84147 5.58193 0
M  V30 5831 N 545.419 -1.53889 0.339982 0
M  V30 5832 C 546.83 -1.86139 -0.144671 0
M  V30 5833 C 547.181 -1.2613 -1.50285 0
M  V30 5834 O 546.306 -0.573515 -2.08662 0
M  V30 5835 C 546.901 -3.37728 -0.269285 0
M  V30 5836 C 545.46 -3.69868 -0.698168 0
M  V30 5837 C 544.607 -2.76777 0.170249 0
M  V30 5838 H 547.558 -1.48503 0.559704 0
M  V30 5839 H 547.579 -3.64331 -1.0974 0
M  V30 5840 H 547.091 -3.81375 0.719366 0
M  V30 5841 H 545.192 -3.31764 -1.69597 0
M  V30 5842 H 545.305 -4.76582 -0.490533 0
M  V30 5843 H 543.669 -2.52188 -0.356844 0
M  V30 5844 H 544.452 -3.23253 1.15597 0
M  V30 5845 N 546.897 -0.0685191 -1.57451 0
M  V30 5846 C 548.143 0.602239 -1.93652 0
M  V30 5847 C 548.476 1.6946 -0.948526 0
M  V30 5848 O 547.751 1.94487 0.022782 0
M  V30 5849 C 548.034 1.18223 -3.4014 0
M  V30 5850 C 547.887 0.0967431 -4.49696 0
M  V30 5851 C 549.206 2.08872 -3.87377 0
M  V30 5852 H 546.325 0.217453 -0.70419 0
M  V30 5853 H 548.967 -0.133821 -1.89528 0
M  V30 5854 H 547.117 1.80953 -3.43785 0
M  V30 5855 H 548.789 -0.536155 -4.58174 0
M  V30 5856 H 547.032 -0.573063 -4.29998 0
M  V30 5857 H 547.703 0.542894 -5.49324 0
M  V30 5858 H 550.179 1.56081 -3.85717 0
M  V30 5859 H 549.055 2.46389 -4.90493 0
M  V30 5860 H 549.316 2.99572 -3.25129 0
M  V30 5861 N 548.375 1.56261 0.205012 0
M  V30 5862 C 549.622 1.8004 0.926927 0
M  V30 5863 C 549.95 0.640086 1.83666 0
M  V30 5864 O 549.205 -0.374702 1.92079 0
M  V30 5865 C 549.504 3.09722 1.78345 0
M  V30 5866 C 549.17 4.39082 1.02555 0
M  V30 5867 C 547.832 4.74226 0.816256 0
M  V30 5868 C 550.184 5.18877 0.491559 0
M  V30 5869 C 547.512 5.86668 0.0613287 0
M  V30 5870 C 549.864 6.32105 -0.250107 0
M  V30 5871 C 548.528 6.6584 -0.470508 0
M  V30 5872 H 547.798 0.658812 0.339187 0
M  V30 5873 H 550.445 1.90515 0.19395 0
M  V30 5874 H 548.75 2.9444 2.5848 0
M  V30 5875 H 550.447 3.25324 2.34446 0
M  V30 5876 H 547.037 4.11497 1.19868 0
M  V30 5877 H 551.221 4.92147 0.640684 0
M  V30 5878 H 546.477 6.11283 -0.119501 0
M  V30 5879 H 550.651 6.93157 -0.671307 0
M  V30 5880 H 548.278 7.5281 -1.05739 0
M  V30 5881 N 549.853 -0.472356 1.50355 0
M  V30 5882 C 550.801 -1.59126 1.69651 0
M  V30 5883 C 551.795 -1.59793 0.56237 0
M  V30 5884 O 553.001 -1.63957 0.742832 0
M  V30 5885 H 549.376 -0.528008 0.535454 0
M  V30 5886 H 551.347 -1.40013 2.63513 0
M  V30 5887 C 550.096 -2.97075 1.8067 0
M  V30 5888 H 549.419 -2.9728 2.67329 0
M  V30 5889 H 550.859 -3.74825 1.98197 0
M  V30 5890 C 549.318 -3.32247 0.558016 0
M  V30 5891 O 549.848 -4.00553 -0.303399 0
M  V30 5892 N 548.054 -2.87659 0.412415 0
M  V30 5893 H 547.601 -2.32246 1.11443 0
M  V30 5894 H 547.559 -3.11556 -0.421908 0
M  V30 5895 N 551.331 -1.39911 -0.725443 0
M  V30 5896 C 552.579 -1.37382 -1.48224 0
M  V30 5897 C 552.9 0.0264107 -1.94982 0
M  V30 5898 O 552.17 0.979408 -1.6966 0
M  V30 5899 H 550.75 -0.505596 -0.549892 0
M  V30 5900 H 553.412 -1.7487 -0.860608 0
M  V30 5901 H 552.508 -2.04254 -2.3598 0
M  V30 5902 N 552.809 0.956637 -1.25245 0
M  V30 5903 C 554.086 1.67716 -1.00651 0
M  V30 5904 C 554.466 2.0585 0.467866 0
M  V30 5905 O 553.814 1.77029 1.44475 0
M  V30 5906 C 554.024 2.90093 -1.94028 0
M  V30 5907 C 555.372 3.6209 -2.21756 0
M  V30 5908 O 556.396 3.00171 -1.9177 0
M  V30 5909 O 555.255 4.7358 -2.72735 0
M  V30 5910 H 552.349 0.733731 -0.381533 0
M  V30 5911 H 554.895 1.00974 -1.3639 0
M  V30 5912 H 553.667 2.58689 -2.93591 0
M  V30 5913 H 553.29 3.64566 -1.58674 0
M  V30 5914 N 554.287 1.06798 1.15896 0
M  V30 5915 C 555.219 0.641263 2.20046 0
M  V30 5916 C 556.232 -0.303355 1.59949 0
M  V30 5917 O 557.421 -0.0935478 1.78255 0
M  V30 5918 C 554.521 -0.0794029 3.38807 0
M  V30 5919 C 553.694 0.879986 4.28457 0
M  V30 5920 C 552.753 0.197638 5.25829 0
M  V30 5921 O 551.779 0.836913 5.63014 0
M  V30 5922 N 552.981 -1.05886 5.70761 0
M  V30 5923 H 555.746 1.53718 2.57276 0
M  V30 5924 H 553.307 0.951951 1.30956 0
M  V30 5925 H 555.299 -0.546418 4.00994 0
M  V30 5926 H 553.869 -0.877193 3.0004 0
M  V30 5927 H 553.089 1.52625 3.63454 0
M  V30 5928 H 554.377 1.53065 4.8523 0
M  V30 5929 H 553.775 -1.59828 5.42652 0
M  V30 5930 H 552.332 -1.46965 6.35015 0
M  V30 5931 N 555.766 -1.3263 0.851289 0
M  V30 5932 C 556.676 -2.32722 0.296268 0
M  V30 5933 C 557.692 -1.63901 -0.584162 0
M  V30 5934 O 558.868 -1.95465 -0.485334 0
M  V30 5935 C 555.933 -3.42942 -0.509103 0
M  V30 5936 C 554.994 -4.2746 0.397069 0
M  V30 5937 C 554.227 -5.32416 -0.36996 0
M  V30 5938 O 554.45 -5.47491 -1.6003 0
M  V30 5939 O 553.384 -6.01327 0.262493 0
M  V30 5940 H 557.21 -2.82078 1.12543 0
M  V30 5941 H 554.795 -1.36194 0.614135 0
M  V30 5942 H 556.677 -4.1017 -0.96634 0
M  V30 5943 H 555.352 -2.95781 -1.31512 0
M  V30 5944 H 554.259 -3.63053 0.902411 0
M  V30 5945 H 555.592 -4.78136 1.16818 0
M  V30 5946 N 557.244 -0.608902 -1.45362 0
M  V30 5947 C 558.174 0.0964526 -2.33301 0
M  V30 5948 C 559.155 0.857444 -1.46908 0
M  V30 5949 O 560.34 0.827735 -1.75676 0
M  V30 5950 C 557.47 1.09354 -3.29635 0
M  V30 5951 C 556.424 0.445676 -4.25673 0
M  V30 5952 C 555.75 1.5511 -5.11708 0
M  V30 5953 C 557.05 -0.633972 -5.18438 0
M  V30 5954 H 558.744 -0.637829 -2.92527 0
M  V30 5955 H 556.29 -0.308178 -1.40664 0
M  V30 5956 H 558.243 1.59556 -3.90025 0
M  V30 5957 H 556.967 1.85843 -2.6857 0
M  V30 5958 H 555.626 -0.0354897 -3.66583 0
M  V30 5959 H 555.274 2.30631 -4.4701 0
M  V30 5960 H 554.974 1.12311 -5.76767 0
M  V30 5961 H 556.498 2.05537 -5.74967 0
M  V30 5962 H 557.912 -0.215974 -5.72893 0
M  V30 5963 H 556.309 -0.983789 -5.91981 0
M  V30 5964 H 557.379 -1.51005 -4.60788 0
M  V30 5965 N 558.722 1.53707 -0.348139 0
M  V30 5966 C 559.971 2.0017 0.247992 0
M  V30 5967 C 560.284 1.23983 1.51286 0
M  V30 5968 O 561.49 1.60946 2.18652 0
M  V30 5969 C 559.946 3.56515 0.492459 0
M  V30 5970 C 559.554 4.41562 -0.756777 0
M  V30 5971 C 561.298 4.11381 1.0472 0
M  V30 5972 C 559.205 5.89426 -0.482856 0
M  V30 5973 H 558.135 0.747806 0.0964452 0
M  V30 5974 H 560.786 1.77532 -0.464179 0
M  V30 5975 H 559.168 3.75236 1.26545 0
M  V30 5976 H 560.342 4.34615 -1.53122 0
M  V30 5977 H 558.657 3.97711 -1.23348 0
M  V30 5978 H 561.254 5.19468 1.26717 0
M  V30 5979 H 561.597 3.64885 2.00411 0
M  V30 5980 H 562.13 3.96389 0.334801 0
M  V30 5981 H 558.869 6.40164 -1.40962 0
M  V30 5982 H 558.389 5.99264 0.253416 0
M  V30 5983 H 560.068 6.4692 -0.101816 0
M  V30 5984 N 560.2 0.0768682 1.57412 0
M  V30 5985 C 561.448 -0.589918 1.93299 0
M  V30 5986 C 561.769 -1.69842 0.958049 0
M  V30 5987 O 561.039 -1.95899 0.00703261 0
M  V30 5988 H 559.619 -0.220901 0.713591 0
M  V30 5989 H 562.281 0.135917 1.94425 0
M  V30 5990 H 561.377 -1.01195 2.95239 0
M  V30 5991 N 561.678 -1.56367 -0.196722 0
M  V30 5992 C 562.924 -1.80796 -0.918725 0
M  V30 5993 C 563.257 -0.650645 -1.82976 0
M  V30 5994 O 562.532 0.348889 -1.91345 0
M  V30 5995 C 562.815 -3.15472 -1.73636 0
M  V30 5996 C 562.668 -4.41693 -0.85015 0
M  V30 5997 C 563.987 -3.46824 -2.70927 0
M  V30 5998 H 561.106 -0.657702 -0.332561 0
M  V30 5999 H 563.748 -1.89086 -0.186186 0
M  V30 6000 H 561.898 -3.08536 -2.36088 0
M  V30 6001 H 563.57 -4.60673 -0.240459 0
M  V30 6002 H 561.813 -4.33517 -0.156785 0
M  V30 6003 H 562.484 -5.32419 -1.45719 0
M  V30 6004 H 564.96 -3.54049 -2.18607 0
M  V30 6005 H 563.836 -4.4218 -3.25219 0
M  V30 6006 H 564.097 -2.70236 -3.49893 0
M  V30 6007 N 563.156 0.464375 -1.50603 0
M  V30 6008 C 564.384 1.23907 -1.65695 0
M  V30 6009 C 564.799 1.85658 -0.343027 0
M  V30 6010 O 564.156 1.69529 0.675739 0
M  V30 6011 C 564.207 2.3429 -2.75301 0
M  V30 6012 O 563.928 1.7507 -4.01599 0
M  V30 6013 C 565.429 3.25051 -3.01424 0
M  V30 6014 H 562.649 0.374485 -0.556778 0
M  V30 6015 H 565.193 0.55353 -1.96866 0
M  V30 6016 H 563.348 2.98607 -2.46804 0
M  V30 6017 H 563.762 2.47812 -4.62266 0
M  V30 6018 H 565.236 3.98699 -3.81763 0
M  V30 6019 H 565.713 3.84227 -2.12758 0
M  V30 6020 H 566.319 2.66463 -3.31477 0
M  V30 6021 N 564.634 1.40294 0.718013 0
M  V30 6022 C 565.566 1.36281 1.84283 0
M  V30 6023 C 566.579 0.268621 1.60569 0
M  V30 6024 O 567.768 0.528798 1.70487 0
M  V30 6025 C 564.868 1.09741 3.2064 0
M  V30 6026 C 564.041 2.30767 3.71571 0
M  V30 6027 C 563.1 2.00424 4.86535 0
M  V30 6028 O 562.126 2.73268 4.99313 0
M  V30 6029 N 563.328 0.980724 5.72156 0
M  V30 6030 H 566.093 2.3322 1.88225 0
M  V30 6031 H 563.654 1.34616 0.899453 0
M  V30 6032 H 565.646 0.874322 3.95143 0
M  V30 6033 H 564.216 0.214771 3.11861 0
M  V30 6034 H 563.436 2.68921 2.88228 0
M  V30 6035 H 564.724 3.11455 4.02335 0
M  V30 6036 H 564.122 0.377375 5.6444 0
M  V30 6037 H 562.679 0.817538 6.46653 0
M  V30 6038 N 566.112 -0.949982 1.2575 0
M  V30 6039 C 567.042 -2.06483 1.09028 0
M  V30 6040 C 568.023 -1.701 -0.00201532 0
M  V30 6041 O 569.208 -1.93469 0.168383 0
M  V30 6042 C 566.338 -3.39899 0.71316 0
M  V30 6043 C 565.292 -3.90309 1.75621 0
M  V30 6044 C 564.618 -5.20274 1.23365 0
M  V30 6045 C 565.918 -4.16169 3.15596 0
M  V30 6046 H 567.612 -2.20731 2.02283 0
M  V30 6047 H 565.158 -1.06066 0.973964 0
M  V30 6048 H 567.111 -4.17346 0.58309 0
M  V30 6049 H 565.835 -3.25602 -0.255091 0
M  V30 6050 H 564.494 -3.15035 1.8748 0
M  V30 6051 H 564.142 -5.02351 0.255491 0
M  V30 6052 H 563.842 -5.54971 1.93082 0
M  V30 6053 H 565.366 -6.00314 1.11607 0
M  V30 6054 H 566.78 -4.84259 3.06864 0
M  V30 6055 H 565.177 -4.62131 3.82825 0
M  V30 6056 H 566.247 -3.22273 3.6231 0
M  V30 6057 N 567.59 -1.07411 -1.15328 0
M  V30 6058 C 568.836 -0.798831 -1.86404 0
M  V30 6059 C 569.169 0.673433 -1.8215 0
M  V30 6060 O 568.444 1.49428 -1.24505 0
M  V30 6061 C 568.727 -1.30846 -3.35487 0
M  V30 6062 C 568.58 -2.84532 -3.4837 0
M  V30 6063 C 569.899 -0.925486 -4.30259 0
M  V30 6064 H 567.018 -0.291659 -0.676834 0
M  V30 6065 H 569.66 -1.332 -1.35491 0
M  V30 6066 H 567.81 -0.854916 -3.78977 0
M  V30 6067 H 569.482 -3.3818 -3.13739 0
M  V30 6068 H 567.725 -3.22699 -2.8991 0
M  V30 6069 H 568.396 -3.15259 -4.53118 0
M  V30 6070 H 570.872 -1.3163 -3.94731 0
M  V30 6071 H 569.748 -1.3094 -5.33053 0
M  V30 6072 H 570.009 0.168525 -4.41779 0
M  V30 6073 N 569.068 1.32177 -0.85831 0
M  V30 6074 C 570.016 2.30729 -0.294442 0
M  V30 6075 C 571.01 1.59009 0.584165 0
M  V30 6076 O 572.216 1.73713 0.471562 0
M  V30 6077 H 568.591 0.748097 -0.0765171 0
M  V30 6078 H 570.562 2.75774 -1.1398 0
M  V30 6079 C 569.311 3.44098 0.499208 0
M  V30 6080 H 568.634 3.99449 -0.167579 0
M  V30 6081 H 570.074 4.15202 0.859273 0
M  V30 6082 C 568.533 2.91684 1.68588 0
M  V30 6083 O 569.063 2.89481 2.78503 0
M  V30 6084 N 567.269 2.48036 1.51415 0
M  V30 6085 H 566.816 2.50027 0.620006 0
M  V30 6086 H 566.774 2.13322 2.30957 0
M  V30 6087 N 570.547 0.616602 1.45037 0
M  V30 6088 C 571.494 -0.0969439 2.30596 0
M  V30 6089 C 572.464 -0.851151 1.42635 0
M  V30 6090 O 573.649 -0.835092 1.71554 0
M  V30 6091 C 570.789 -1.08234 3.27688 0
M  V30 6092 C 569.902 -0.328072 4.30752 0
M  V30 6093 C 569.037 -1.30399 5.14946 0
M  V30 6094 C 568.076 -0.538049 6.09731 0
M  V30 6095 N 567.213 -1.46371 6.86673 0
M  V30 6096 H 572.053 0.63864 2.91076 0
M  V30 6097 H 569.59 0.326733 1.43425 0
M  V30 6098 H 571.548 -1.66688 3.82454 0
M  V30 6099 H 570.178 -1.78523 2.68941 0
M  V30 6100 H 569.23 0.372136 3.78575 0
M  V30 6101 H 570.542 0.269142 4.98073 0
M  V30 6102 H 569.696 -1.96032 5.74157 0
M  V30 6103 H 568.435 -1.93514 4.47665 0
M  V30 6104 H 567.44 0.131852 5.49642 0
M  V30 6105 H 568.665 0.0881732 6.79043 0
M  V30 6106 H 566.611 -2.08233 6.22073 0
M  V30 6107 H 566.528 -0.920152 7.50379 0
M  V30 6108 H 567.796 -2.10932 7.50418 0
M  V30 6109 N 572.025 -1.5352 0.356285 0
M  V30 6110 C 572.972 -2.25439 -0.494569 0
M  V30 6111 C 573.942 -1.25752 -1.08516 0
M  V30 6112 O 575.127 -1.54513 -1.1194 0
M  V30 6113 C 572.267 -3.04011 -1.63313 0
M  V30 6114 C 571.38 -4.18574 -1.06862 0
M  V30 6115 C 570.515 -4.84607 -2.17552 0
M  V30 6116 C 569.554 -5.91218 -1.58518 0
M  V30 6117 N 568.691 -6.50979 -2.63003 0
M  V30 6118 H 573.531 -2.97737 0.125244 0
M  V30 6119 H 571.068 -1.46916 0.0735789 0
M  V30 6120 H 573.026 -3.47834 -2.30363 0
M  V30 6121 H 571.656 -2.33986 -2.22374 0
M  V30 6122 H 570.708 -3.79303 -0.288672 0
M  V30 6123 H 572.02 -4.95215 -0.596924 0
M  V30 6124 H 571.174 -5.31566 -2.92442 0
M  V30 6125 H 569.913 -4.07418 -2.6807 0
M  V30 6126 H 568.918 -5.4363 -0.821391 0
M  V30 6127 H 570.143 -6.70322 -1.08836 0
M  V30 6128 H 568.089 -5.76648 -3.12751 0
M  V30 6129 H 568.006 -7.23131 -2.20493 0
M  V30 6130 H 569.274 -7.02589 -3.37623 0
M  V30 6131 N 573.503 -0.0852151 -1.57369 0
M  V30 6132 C 574.45 0.877268 -2.13478 0
M  V30 6133 C 575.42 1.28642 -1.05073 0
M  V30 6134 O 576.605 1.36992 -1.32808 0
M  V30 6135 C 573.745 2.13464 -2.71159 0
M  V30 6136 C 572.858 1.77691 -3.93764 0
M  V30 6137 C 571.993 2.98139 -4.39643 0
M  V30 6138 C 571.032 2.58447 -5.54862 0
M  V30 6139 N 570.169 3.71698 -5.95639 0
M  V30 6140 H 575.009 0.391933 -2.95411 0
M  V30 6141 H 572.546 0.181796 -1.45972 0
M  V30 6142 H 574.504 2.87086 -3.02717 0
M  V30 6143 H 573.134 2.59514 -1.91969 0
M  V30 6144 H 572.186 0.940768 -3.68583 0
M  V30 6145 H 573.498 1.44497 -4.77412 0
M  V30 6146 H 572.652 3.80026 -4.72933 0
M  V30 6147 H 571.391 3.34536 -3.54876 0
M  V30 6148 H 570.396 1.74984 -5.21211 0
M  V30 6149 H 571.621 2.23205 -6.41371 0
M  V30 6150 H 569.567 4.07831 -5.13819 0
M  V30 6151 H 569.484 3.42317 -6.74059 0
M  V30 6152 H 570.752 4.54123 -6.33555 0
M  V30 6153 N 574.981 1.5647 0.188427 0
M  V30 6154 C 576.209 1.85131 0.923803 0
M  V30 6155 C 576.624 0.668537 1.76567 0
M  V30 6156 O 575.981 -0.362662 1.7886 0
M  V30 6157 C 576.032 3.12661 1.81453 0
M  V30 6158 O 575.753 4.26378 1.00665 0
M  V30 6159 C 577.254 3.54548 2.66103 0
M  V30 6160 H 574.474 0.614624 0.269218 0
M  V30 6161 H 577.018 2.03581 0.193671 0
M  V30 6162 H 575.173 2.96088 2.49821 0
M  V30 6163 H 575.587 4.99041 1.61425 0
M  V30 6164 H 577.061 4.4673 3.24247 0
M  V30 6165 H 577.538 2.77853 3.40139 0
M  V30 6166 H 578.144 3.73674 2.03096 0
M  V30 6167 N 576.459 -0.456382 1.50847 0
M  V30 6168 C 577.707 -1.20497 1.62249 0
M  V30 6169 C 578.028 -1.92156 0.331839 0
M  V30 6170 O 577.298 -1.84751 -0.651443 0
M  V30 6171 H 575.878 -0.447775 0.597918 0
M  V30 6172 H 578.54 -0.525099 1.87693 0
M  V30 6173 H 577.636 -1.94492 2.44089 0
M  V30 6174 N 577.937 -1.40673 -0.710563 0
M  V30 6175 C 578.847 -1.43663 -1.85467 0
M  V30 6176 C 579.863 -0.328721 -1.70867 0
M  V30 6177 O 581.039 -0.574098 -1.93044 0
M  V30 6178 C 578.104 -1.30226 -3.21313 0
M  V30 6179 C 577.165 -2.51204 -3.48131 0
M  V30 6180 C 576.398 -2.38398 -4.77495 0
M  V30 6181 O 576.621 -1.40048 -5.5294 0
M  V30 6182 O 575.555 -3.2787 -5.04762 0
M  V30 6183 H 579.381 -2.40156 -1.859 0
M  V30 6184 H 576.966 -1.22049 -0.861652 0
M  V30 6185 H 578.848 -1.2496 -4.02446 0
M  V30 6186 H 577.523 -0.368419 -3.21597 0
M  V30 6187 H 576.43 -2.62048 -2.66987 0
M  V30 6188 H 577.763 -3.43366 -3.52648 0
M  V30 6189 N 579.415 0.9433 -1.26252 0
M  V30 6190 C 580.662 1.68925 -1.11672 0
M  V30 6191 C 580.99 1.91499 0.340329 0
M  V30 6192 O 580.245 1.49189 1.26653 0
M  V30 6193 C 580.544 3.07073 -1.82868 0
M  V30 6194 C 580.21 3.04262 -3.32769 0
M  V30 6195 C 578.872 3.03203 -3.7366 0
M  V30 6196 C 581.224 2.96729 -4.28487 0
M  V30 6197 C 578.552 2.92373 -5.0866 0
M  V30 6198 C 580.904 2.87442 -5.63525 0
M  V30 6199 C 579.568 2.84724 -6.03729 0
M  V30 6200 H 578.838 0.618141 -0.408635 0
M  V30 6201 H 581.485 1.10124 -1.56668 0
M  V30 6202 H 579.79 3.69486 -1.30335 0
M  V30 6203 H 581.487 3.63635 -1.69029 0
M  V30 6204 H 578.077 3.05865 -3.00241 0
M  V30 6205 H 582.261 2.96658 -3.97879 0
M  V30 6206 H 577.517 2.88645 -5.38975 0
M  V30 6207 H 581.691 2.80576 -6.37377 0
M  V30 6208 H 579.318 2.76089 -7.08293 0
M  V30 6209 N 580.893 1.08022 1.14757 0
M  V30 6210 C 582.304 0.829144 1.67279 0
M  V30 6211 C 582.655 -0.644721 1.85305 0
M  V30 6212 O 581.78 -1.49838 1.56133 0
M  V30 6213 C 582.375 1.49855 3.03857 0
M  V30 6214 C 580.934 1.29482 3.53428 0
M  V30 6215 C 580.081 1.56386 2.28995 0
M  V30 6216 H 583.032 1.24134 0.988762 0
M  V30 6217 H 583.053 0.923572 3.69121 0
M  V30 6218 H 582.565 2.57123 2.90705 0
M  V30 6219 H 580.666 0.242669 3.71809 0
M  V30 6220 H 580.779 2.01974 4.34446 0
M  V30 6221 H 579.143 0.985217 2.34874 0
M  V30 6222 H 579.926 2.64851 2.18423 0
M  V30 6223 N 582.371 -1.3172 0.865308 0
M  V30 6224 C 583.782 -1.79104 0.527126 0
M  V30 6225 C 584.133 -1.7135 -0.955695 0
M  V30 6226 O 583.258 -1.27845 -1.74598 0
M  V30 6227 C 583.853 -3.25207 0.950061 0
M  V30 6228 C 582.412 -3.70504 0.663611 0
M  V30 6229 C 581.559 -2.52605 1.14395 0
M  V30 6230 H 584.51 -1.18868 1.05148 0
M  V30 6231 H 584.531 -3.79535 0.270805 0
M  V30 6232 H 584.043 -3.30818 2.02931 0
M  V30 6233 H 582.144 -3.70398 -0.404474 0
M  V30 6234 H 582.257 -4.62845 1.23737 0
M  V30 6235 H 580.621 -2.4838 0.563859 0
M  V30 6236 H 581.404 -2.60964 2.23053 0
M  V30 6237 N 583.85 -0.624285 -1.44708 0
M  V30 6238 C 585.08 -0.132726 -2.06173 0
M  V30 6239 C 585.488 1.19513 -1.46674 0
M  V30 6240 O 584.831 1.74254 -0.581491 0
M  V30 6241 C 584.893 0.0636732 -3.59444 0
M  V30 6242 C 584.557 -1.18496 -4.4137 0
M  V30 6243 C 585.553 -2.10706 -4.75288 0
M  V30 6244 C 583.239 -1.41846 -4.81856 0
M  V30 6245 C 585.233 -3.24582 -5.48567 0
M  V30 6246 C 582.92 -2.5602 -5.54885 0
M  V30 6247 C 583.918 -3.47215 -5.88159 0
M  V30 6248 O 583.606 -4.59399 -6.59703 0
M  V30 6249 H 583.338 -0.0737313 -0.671967 0
M  V30 6250 H 585.892 -0.856789 -1.86677 0
M  V30 6251 H 584.122 0.842809 -3.77404 0
M  V30 6252 H 585.811 0.508924 -4.02697 0
M  V30 6253 H 586.577 -1.93898 -4.44554 0
M  V30 6254 H 582.456 -0.717556 -4.55381 0
M  V30 6255 H 586 -3.95785 -5.74456 0
M  V30 6256 H 581.897 -2.72774 -5.85034 0
M  V30 6257 H 582.665 -4.58293 -6.78166 0
M  V30 6258 N 585.328 1.53329 -0.364422 0
M  V30 6259 C 586.276 2.27212 0.497737 0
M  V30 6260 C 587.27 1.30146 1.08437 0
M  V30 6261 O 588.476 1.47778 1.0277 0
M  V30 6262 H 584.851 0.730329 0.179232 0
M  V30 6263 H 586.822 2.98037 -0.147182 0
M  V30 6264 C 585.571 3.07333 1.6261 0
M  V30 6265 H 584.894 3.81866 1.184 0
M  V30 6266 H 586.334 3.62209 2.20409 0
M  V30 6267 C 584.793 2.18102 2.56775 0
M  V30 6268 O 585.323 1.79104 3.59562 0
M  V30 6269 N 583.529 1.82759 2.25937 0
M  V30 6270 H 583.076 2.14671 1.42387 0
M  V30 6271 H 583.034 1.23342 2.89196 0
M  V30 6272 N 586.806 0.0935595 1.57322 0
M  V30 6273 C 588.217 -0.435807 1.81542 0
M  V30 6274 C 588.568 -1.68263 1.00907 0
M  V30 6275 O 587.693 -2.15087 0.237983 0
M  V30 6276 C 588.288 -0.797436 3.29282 0
M  V30 6277 C 586.847 -1.27155 3.54272 0
M  V30 6278 C 585.994 -0.267455 2.76007 0
M  V30 6279 H 588.945 0.31902 1.5546 0
M  V30 6280 H 588.966 -1.6571 3.42521 0
M  V30 6281 H 588.478 0.110206 3.87943 0
M  V30 6282 H 586.579 -2.19696 3.00939 0
M  V30 6283 H 586.692 -1.23445 4.62923 0
M  V30 6284 H 585.056 -0.749282 2.43429 0
M  V30 6285 H 585.839 0.632839 3.37417 0
M  V30 6286 N 588.284 -1.56567 -0.180126 0
M  V30 6287 C 589.194 -1.98947 -1.24327 0
M  V30 6288 C 590.21 -0.899446 -1.4895 0
M  V30 6289 O 591.386 -1.20639 -1.61271 0
M  V30 6290 C 588.451 -2.33328 -2.56435 0
M  V30 6291 C 587.512 -3.56114 -2.39752 0
M  V30 6292 C 586.745 -3.88845 -3.65561 0
M  V30 6293 O 586.968 -3.22662 -4.70368 0
M  V30 6294 O 585.902 -4.82226 -3.60197 0
M  V30 6295 H 589.728 -2.89634 -0.913565 0
M  V30 6296 H 587.313 -1.44319 -0.386306 0
M  V30 6297 H 589.195 -2.5645 -3.34382 0
M  V30 6298 H 587.87 -1.45806 -2.89002 0
M  V30 6299 H 586.777 -3.38221 -1.59866 0
M  V30 6300 H 588.11 -4.4415 -2.12113 0
M  V30 6301 N 589.762 0.448376 -1.51087 0
M  V30 6302 C 590.99 1.22143 -1.66999 0
M  V30 6303 C 591.405 1.85283 -0.362699 0
M  V30 6304 O 590.762 1.70236 0.65772 0
M  V30 6305 C 590.813 2.31357 -2.7777 0
M  V30 6306 O 590.534 1.70801 -4.03434 0
M  V30 6307 C 592.035 3.21836 -3.04855 0
M  V30 6308 H 589.255 0.368558 -0.560719 0
M  V30 6309 H 591.799 0.532618 -1.97442 0
M  V30 6310 H 589.954 2.95973 -2.49958 0
M  V30 6311 H 590.368 2.42895 -4.64868 0
M  V30 6312 H 591.842 3.94627 -3.85971 0
M  V30 6313 H 592.319 3.81949 -2.16821 0
M  V30 6314 H 592.925 2.62933 -3.34285 0
M  V30 6315 N 591.24 1.41047 0.703093 0
M  V30 6316 C 592.486 1.41209 1.46396 0
M  V30 6317 C 592.841 0.0180188 1.92392 0
M  V30 6318 O 592.134 -0.954739 1.66118 0
M  V30 6319 C 592.328 2.34686 2.6955 0
M  V30 6320 C 592.157 3.83044 2.35601 0
M  V30 6321 C 590.927 4.51777 2.26331 0
M  V30 6322 C 593.125 4.74215 1.9906 0
M  V30 6323 N 591.107 5.85302 1.85188 0
M  V30 6324 C 592.478 5.96631 1.68616 0
M  V30 6325 C 594.533 4.61932 1.85805 0
M  V30 6326 C 593.236 7.08134 1.26249 0
M  V30 6327 C 595.262 5.73389 1.44842 0
M  V30 6328 C 594.624 6.94899 1.15304 0
M  V30 6329 H 590.723 0.571951 0.533288 0
M  V30 6330 H 593.307 1.76859 0.814179 0
M  V30 6331 H 591.478 2.01143 3.32259 0
M  V30 6332 H 593.21 2.25618 3.35974 0
M  V30 6333 H 589.965 4.05618 2.44482 0
M  V30 6334 H 590.389 6.56049 1.67119 0
M  V30 6335 H 595.031 3.68494 2.07298 0
M  V30 6336 H 592.749 8.01445 1.035 0
M  V30 6337 H 596.335 5.65886 1.35146 0
M  V30 6338 H 595.215 7.79679 0.840854 0
M  V30 6339 N 592.718 -0.936591 1.26751 0
M  V30 6340 C 594.129 -1.49816 1.1141 0
M  V30 6341 C 594.48 -1.9383 -0.304015 0
M  V30 6342 O 593.605 -1.80346 -1.196 0
M  V30 6343 C 594.2 -2.72271 2.01629 0
M  V30 6344 C 592.759 -3.2468 1.9042 0
M  V30 6345 C 591.906 -1.97444 1.94708 0
M  V30 6346 H 594.857 -0.751604 1.39773 0
M  V30 6347 H 594.878 -3.46741 1.56688 0
M  V30 6348 H 594.39 -2.40205 3.04833 0
M  V30 6349 H 592.491 -3.61525 0.901674 0
M  V30 6350 H 592.604 -3.91476 2.76195 0
M  V30 6351 H 590.968 -2.13545 1.38818 0
M  V30 6352 H 591.751 -1.67703 2.9955 0
M  V30 6353 N 594.196 -1.08629 -1.14182 0
M  V30 6354 C 595.445 -0.812271 -1.84621 0
M  V30 6355 C 595.758 0.664313 -1.83973 0
M  V30 6356 O 596.964 1.05357 -2.50224 0
M  V30 6357 C 595.42 -1.4031 -3.31423 0
M  V30 6358 C 595.028 -2.91164 -3.40481 0
M  V30 6359 C 596.772 -1.20767 -4.06959 0
M  V30 6360 C 594.679 -3.43373 -4.81507 0
M  V30 6361 H 593.609 -0.30019 -0.691666 0
M  V30 6362 H 596.26 -1.30798 -1.28701 0
M  V30 6363 H 594.642 -0.835096 -3.87094 0
M  V30 6364 H 595.816 -3.5412 -2.94848 0
M  V30 6365 H 594.131 -3.09646 -2.78403 0
M  V30 6366 H 596.728 -1.57237 -5.11058 0
M  V30 6367 H 597.071 -0.147664 -4.16038 0
M  V30 6368 H 597.604 -1.74274 -3.57594 0
M  V30 6369 H 594.343 -4.48958 -4.77616 0
M  V30 6370 H 593.863 -2.85176 -5.27669 0
M  V30 6371 H 595.542 -3.40095 -5.50404 0
M  V30 6372 N 595.674 1.31259 -0.872281 0
M  V30 6373 C 596.637 2.26744 -0.334656 0
M  V30 6374 C 597.637 1.52307 0.515681 0
M  V30 6375 O 598.827 1.71148 0.324656 0
M  V30 6376 C 595.959 3.36841 0.524482 0
M  V30 6377 H 597.152 2.75812 -1.17762 0
M  V30 6378 H 594.705 1.42232 -0.648064 0
M  V30 6379 H 595.44 2.93069 1.38855 0
M  V30 6380 H 595.225 3.92009 -0.0844299 0
M  V30 6381 H 596.715 4.07944 0.892838 0
M  V30 6382 N 597.152 0.631951 1.44375 0
M  V30 6383 C 598.563 0.219036 1.85411 0
M  V30 6384 C 598.914 -1.22974 1.52879 0
M  V30 6385 O 598.039 -1.93579 0.967266 0
M  V30 6386 C 598.634 0.39075 3.36539 0
M  V30 6387 C 597.193 0.0323351 3.76386 0
M  V30 6388 C 596.34 0.703744 2.68221 0
M  V30 6389 H 599.291 0.837056 1.3483 0
M  V30 6390 H 599.312 -0.370056 3.78696 0
M  V30 6391 H 598.824 1.44527 3.60185 0
M  V30 6392 H 596.925 -1.02042 3.58355 0
M  V30 6393 H 597.038 0.442969 4.77048 0
M  V30 6394 H 595.402 0.138974 2.54321 0
M  V30 6395 H 596.185 1.76088 2.947 0
M  V30 6396 N 598.631 -1.53133 0.372548 0
M  V30 6397 C 599.541 -2.29671 -0.478379 0
M  V30 6398 C 600.557 -1.35913 -1.08644 0
M  V30 6399 O 601.733 -1.68975 -1.09588 0
M  V30 6400 C 598.798 -3.07625 -1.599 0
M  V30 6401 C 597.859 -4.17061 -1.01776 0
M  V30 6402 C 597.092 -4.91289 -2.08497 0
M  V30 6403 O 597.315 -4.65442 -3.29727 0
M  V30 6404 O 596.249 -5.7705 -1.71164 0
M  V30 6405 H 600.075 -3.03355 0.144649 0
M  V30 6406 H 597.66 -1.48773 0.136729 0
M  V30 6407 H 599.542 -3.56281 -2.25038 0
M  V30 6408 H 598.217 -2.3677 -2.2073 0
M  V30 6409 H 597.124 -3.72641 -0.330098 0
M  V30 6410 H 598.457 -4.90102 -0.453915 0
M  V30 6411 N 600.109 -0.101901 -1.5727 0
M  V30 6412 C 601.349 0.563489 -1.96479 0
M  V30 6413 C 601.713 1.64926 -0.983021 0
M  V30 6414 O 602.914 2.37234 -1.26386 0
M  V30 6415 C 601.185 1.09809 -3.40113 0
M  V30 6416 S 602.744 1.7744 -4.01323 0
M  V30 6417 H 599.562 0.183675 -0.686866 0
M  V30 6418 H 602.164 -0.182922 -1.94642 0
M  V30 6419 H 600.868 0.296447 -4.09328 0
M  V30 6420 H 600.399 1.88018 -3.45562 0
M  V30 6421 H 602.414 3.0591 -3.90683 0
M  V30 6422 N 601.587 1.56661 0.17182 0
M  V30 6423 C 602.834 1.81965 0.888529 0
M  V30 6424 C 603.162 0.6789 1.82267 0
M  V30 6425 O 602.417 -0.333875 1.92831 0
M  V30 6426 C 602.716 3.13435 1.71736 0
M  V30 6427 C 602.382 4.41159 0.932184 0
M  V30 6428 C 601.044 4.75851 0.715481 0
M  V30 6429 C 603.396 5.19803 0.381387 0
M  V30 6430 C 600.724 5.86666 -0.063126 0
M  V30 6431 C 603.076 6.31433 -0.384129 0
M  V30 6432 C 601.74 6.64692 -0.611637 0
M  V30 6433 H 601.01 0.665859 0.325136 0
M  V30 6434 H 603.657 1.90884 0.153495 0
M  V30 6435 H 601.962 2.99857 2.52177 0
M  V30 6436 H 603.659 3.30224 2.27493 0
M  V30 6437 H 600.249 4.13947 1.11112 0
M  V30 6438 H 604.433 4.93396 0.536148 0
M  V30 6439 H 599.689 6.10892 -0.249136 0
M  V30 6440 H 603.863 6.91577 -0.818185 0
M  V30 6441 H 601.49 7.50398 -1.21684 0
M  V30 6442 N 603.065 -0.440357 1.51323 0
M  V30 6443 C 603.997 -1.55254 1.68609 0
M  V30 6444 C 605.01 -1.52614 0.566812 0
M  V30 6445 O 606.199 -1.57445 0.841032 0
M  V30 6446 C 603.299 -2.94169 1.68279 0
M  V30 6447 C 602.472 -3.21346 2.96742 0
M  V30 6448 C 601.531 -4.3997 2.8864 0
M  V30 6449 O 600.557 -4.38771 3.62586 0
M  V30 6450 N 601.759 -5.43367 2.04285 0
M  V30 6451 H 604.524 -1.40831 2.6455 0
M  V30 6452 H 602.085 -0.629251 1.49171 0
M  V30 6453 H 604.077 -3.71543 1.60431 0
M  V30 6454 H 602.647 -3.02205 0.799441 0
M  V30 6455 H 601.867 -2.32299 3.18482 0
M  V30 6456 H 603.155 -3.3633 3.81785 0
M  V30 6457 H 602.553 -5.47176 1.43578 0
M  V30 6458 H 601.11 -6.19605 2.02318 0
M  V30 6459 N 604.543 -1.41418 -0.695603 0
M  V30 6460 C 605.506 -1.42988 -1.79129 0
M  V30 6461 C 606.506 -0.320514 -1.57573 0
M  V30 6462 O 607.696 -0.58039 -1.64247 0
M  V30 6463 C 604.828 -1.24122 -3.175 0
M  V30 6464 H 606.021 -2.40526 -1.7913 0
M  V30 6465 H 603.574 -1.2756 -0.903225 0
M  V30 6466 H 604.309 -0.274253 -3.23138 0
M  V30 6467 H 604.094 -2.045 -3.34547 0
M  V30 6468 H 605.584 -1.28056 -3.97481 0
M  V30 6469 N 606.021 0.929856 -1.27246 0
M  V30 6470 C 607.246 1.71674 -1.16374 0
M  V30 6471 C 607.671 1.86064 0.276024 0
M  V30 6472 O 607.029 1.3591 1.19992 0
M  V30 6473 C 607.077 3.09526 -1.85003 0
M  V30 6474 O 606.181 3.96142 -1.14653 0
M  V30 6475 H 605.522 0.52629 -0.404863 0
M  V30 6476 H 608.052 1.16381 -1.68276 0
M  V30 6477 H 608.062 3.59852 -1.92276 0
M  V30 6478 H 606.737 2.98369 -2.89739 0
M  V30 6479 H 605.314 3.54584 -1.15433 0
M  V30 6480 N 607.499 1.09233 1.13605 0
M  V30 6481 C 608.746 0.827159 1.84836 0
M  V30 6482 C 609.074 -0.647199 1.83416 0
M  V30 6483 O 608.329 -1.49228 1.26608 0
M  V30 6484 C 608.628 1.305 3.32723 0
M  V30 6485 C 608.294 2.78864 3.54325 0
M  V30 6486 C 606.956 3.19382 3.59928 0
M  V30 6487 C 609.308 3.74532 3.62457 0
M  V30 6488 C 606.636 4.54346 3.71196 0
M  V30 6489 C 608.988 5.09283 3.75252 0
M  V30 6490 C 607.652 5.49394 3.79108 0
M  V30 6491 H 606.922 0.302679 0.676363 0
M  V30 6492 H 609.569 1.36676 1.34134 0
M  V30 6493 H 607.874 0.68517 3.85762 0
M  V30 6494 H 609.571 1.07648 3.86281 0
M  V30 6495 H 606.161 2.46507 3.50617 0
M  V30 6496 H 610.345 3.44343 3.57409 0
M  V30 6497 H 605.601 4.84864 3.72447 0
M  V30 6498 H 609.775 5.83269 3.80487 0
M  V30 6499 H 607.402 6.5397 3.87591 0
M  V30 6500 N 608.977 -1.30795 0.87923 0
M  V30 6501 C 610.254 -1.91145 0.415086 0
M  V30 6502 C 610.634 -1.7995 -1.10368 0
M  V30 6503 O 609.982 -1.21305 -1.93642 0
M  V30 6504 C 610.192 -3.37014 0.906778 0
M  V30 6505 C 611.54 -4.14101 0.938358 0
M  V30 6506 O 612.564 -3.45834 0.853053 0
M  V30 6507 O 611.423 -5.36054 1.06342 0
M  V30 6508 H 608.517 -0.81736 0.125905 0
M  V30 6509 H 611.063 -1.39401 0.967753 0
M  V30 6510 H 609.835 -3.3922 1.95053 0
M  V30 6511 H 609.458 -3.96204 0.332948 0
M  V30 6512 N 610.455 -0.639598 -1.44038 0
M  V30 6513 C 611.871 -0.305953 -1.5664 0
M  V30 6514 C 612.071 1.19055 -1.62567 0
M  V30 6515 O 611.127 1.97492 -1.57331 0
M  V30 6516 C 612.44 -1.00533 -2.83397 0
M  V30 6517 C 613.988 -0.984278 -2.97121 0
M  V30 6518 C 614.463 -1.66428 -4.26691 0
M  V30 6519 N 615.954 -1.63127 -4.33525 0
M  V30 6520 C 616.689 -2.12629 -5.32519 0
M  V30 6521 N 616.185 -2.70359 -6.3787 0
M  V30 6522 N 617.978 -2.03208 -5.24083 0
M  V30 6523 H 610.129 -1.6109 -1.38434 0
M  V30 6524 H 612.392 -0.676672 -0.663942 0
M  V30 6525 H 612.098 -2.06034 -2.85032 0
M  V30 6526 H 611.972 -0.548362 -3.73193 0
M  V30 6527 H 614.359 0.0622792 -2.95034 0
M  V30 6528 H 614.44 -1.47981 -2.08651 0
M  V30 6529 H 614.084 -2.71034 -4.29538 0
M  V30 6530 H 614.014 -1.14351 -5.14034 0
M  V30 6531 H 616.505 -1.20987 -3.58009 0
M  V30 6532 H 616.818 -3.05842 -7.09704 0
M  V30 6533 H 615.163 -2.74414 -6.38531 0
M  V30 6534 H 618.354 -1.57823 -4.40692 0
M  V30 6535 H 618.527 -2.42097 -6.01077 0
M  V30 6536 N 611.933 1.52934 -0.380664 0
M  V30 6537 C 612.881 2.27727 0.47361 0
M  V30 6538 C 613.875 1.31288 1.0705 0
M  V30 6539 O 615.081 1.4886 1.01197 0
M  V30 6540 H 611.456 0.732189 0.171475 0
M  V30 6541 H 613.427 2.97864 -0.178785 0
M  V30 6542 C 612.176 3.0904 1.59341 0
M  V30 6543 H 611.499 3.831 1.14343 0
M  V30 6544 H 612.939 3.64527 2.16555 0
M  V30 6545 C 611.398 2.20813 2.54447 0
M  V30 6546 O 611.928 1.82907 3.57642 0
M  V30 6547 N 610.134 1.85145 2.23986 0
M  V30 6548 H 609.681 2.16169 1.40103 0
M  V30 6549 H 609.639 1.26402 2.87871 0
M  V30 6550 N 613.412 0.11024 1.57214 0
M  V30 6551 C 614.689 -0.592956 1.86396 0
M  V30 6552 C 615.069 -1.85379 1.00985 0
M  V30 6553 O 614.417 -2.28337 0.0863592 0
M  V30 6554 C 614.627 -0.893816 3.3736 0
M  V30 6555 C 615.975 -1.25069 4.05762 0
M  V30 6556 O 616.999 -0.984356 3.42329 0
M  V30 6557 O 615.858 -1.75017 5.17718 0
M  V30 6558 H 612.952 -0.29828 0.771335 0
M  V30 6559 H 615.498 0.144083 1.69087 0
M  V30 6560 H 614.27 2.6031e-05 3.913 0
M  V30 6561 H 613.893 -1.68631 3.60068 0
M  V30 6562 N 614.89 -1.56749 -0.16351 0
M  V30 6563 C 615.8 -2.00255 -1.2221 0
M  V30 6564 C 616.816 -0.915194 -1.47987 0
M  V30 6565 O 617.992 -1.22342 -1.59982 0
M  V30 6566 C 615.057 -2.36035 -2.53946 0
M  V30 6567 C 614.118 -3.58637 -2.35962 0
M  V30 6568 C 613.351 -3.92701 -3.61416 0
M  V30 6569 O 613.574 -3.27632 -4.66919 0
M  V30 6570 O 612.508 -4.86019 -3.55062 0
M  V30 6571 H 616.334 -2.90586 -0.882794 0
M  V30 6572 H 613.919 -1.44721 -0.370978 0
M  V30 6573 H 615.801 -2.59982 -3.31643 0
M  V30 6574 H 614.476 -1.48863 -2.8744 0
M  V30 6575 H 613.383 -3.39898 -1.5627 0
M  V30 6576 H 614.716 -4.46374 -2.0739 0
M  V30 6577 N 616.368 0.432326 -1.51554 0
M  V30 6578 C 617.278 1.55023 -1.76082 0
M  V30 6579 C 618.294 1.61593 -0.645265 0
M  V30 6580 O 619.47 1.78742 -0.928086 0
M  V30 6581 C 616.535 2.90964 -1.88523 0
M  V30 6582 C 615.596 2.9447 -3.12388 0
M  V30 6583 C 614.829 4.23926 -3.24225 0
M  V30 6584 O 615.052 5.16576 -2.4188 0
M  V30 6585 O 613.986 4.33818 -4.17235 0
M  V30 6586 H 617.812 1.37238 -2.70923 0
M  V30 6587 H 615.397 0.615845 -1.36117 0
M  V30 6588 H 617.279 3.71633 -1.98662 0
M  V30 6589 H 615.954 3.08865 -0.9687 0
M  V30 6590 H 614.861 2.12737 -3.07723 0
M  V30 6591 H 616.194 2.81514 -4.03746 0
M  V30 6592 N 617.846 1.41785 0.688094 0
M  V30 6593 C 619.093 1.41544 1.44816 0
M  V30 6594 C 619.421 0.0271746 1.94481 0
M  V30 6595 O 618.676 -0.962235 1.7041 0
M  V30 6596 C 618.975 2.37532 2.67046 0
M  V30 6597 C 618.641 3.84209 2.35996 0
M  V30 6598 C 617.303 4.24165 2.27239 0
M  V30 6599 C 619.655 4.76785 2.10536 0
M  V30 6600 C 616.983 5.54695 1.91128 0
M  V30 6601 C 619.335 6.07644 1.75931 0
M  V30 6602 C 617.999 6.46613 1.65675 0
M  V30 6603 H 617.269 0.517945 0.529919 0
M  V30 6604 H 619.916 1.74635 0.785797 0
M  V30 6605 H 618.221 1.9772 3.38251 0
M  V30 6606 H 619.918 2.34615 3.25203 0
M  V30 6607 H 616.508 3.52567 2.4371 0
M  V30 6608 H 620.692 4.46714 2.16242 0
M  V30 6609 H 615.948 5.83762 1.81746 0
M  V30 6610 H 620.122 6.78874 1.55252 0
M  V30 6611 H 617.749 7.47668 1.37463 0
M  V30 6612 N 619.324 -0.923095 1.27737 0
M  V30 6613 C 620.257 -2.02515 1.05181 0
M  V30 6614 C 621.235 -1.62574 -0.0292204 0
M  V30 6615 O 622.419 -1.88137 0.116848 0
M  V30 6616 C 619.546 -3.33407 0.596468 0
M  V30 6617 C 618.592 -3.92328 1.67276 0
M  V30 6618 S 619.425 -4.24342 3.26641 0
M  V30 6619 C 620.581 -5.58308 2.82919 0
M  V30 6620 H 620.814 -2.21336 1.98488 0
M  V30 6621 H 618.347 -1.06679 1.1162 0
M  V30 6622 H 620.305 -4.09086 0.34044 0
M  V30 6623 H 618.966 -3.125 -0.316614 0
M  V30 6624 H 618.159 -4.86797 1.30556 0
M  V30 6625 H 617.761 -3.2325 1.8811 0
M  V30 6626 H 620.053 -6.37801 2.28509 0
M  V30 6627 H 620.996 -5.99931 3.7615 0
M  V30 6628 H 621.404 -5.19049 2.21919 0
M  V30 6629 N 620.802 -1.09834 -1.13024 0
M  V30 6630 C 621.712 -0.753731 -2.22162 0
M  V30 6631 C 622.728 0.246105 -1.72251 0
M  V30 6632 O 623.904 0.0864051 -2.01215 0
M  V30 6633 C 620.969 -0.183958 -3.46212 0
M  V30 6634 C 620.03 -1.24028 -4.10993 0
M  V30 6635 C 619.263 -0.697597 -5.29121 0
M  V30 6636 O 619.486 0.478092 -5.68393 0
M  V30 6637 O 618.42 -1.4546 -5.84059 0
M  V30 6638 H 622.246 -1.66456 -2.5402 0
M  V30 6639 H 619.831 -0.873026 -1.21238 0
M  V30 6640 H 621.713 0.130257 -4.21199 0
M  V30 6641 H 620.388 0.699823 -3.16045 0
M  V30 6642 H 619.295 -1.60725 -3.37814 0
M  V30 6643 H 620.628 -2.09685 -4.45301 0
M  V30 6644 N 622.28 1.30327 -0.886154 0
M  V30 6645 C 623.243 2.26376 -0.358687 0
M  V30 6646 C 624.243 1.52845 0.499498 0
M  V30 6647 O 625.433 1.71483 0.306485 0
M  V30 6648 C 622.565 3.37379 0.488726 0
M  V30 6649 H 623.758 2.74547 -1.20681 0
M  V30 6650 H 621.311 1.41536 -0.663113 0
M  V30 6651 H 622.046 2.94526 1.35739 0
M  V30 6652 H 621.831 3.91897 -0.126003 0
M  V30 6653 H 623.321 4.08868 0.84952 0
M  V30 6654 N 623.758 0.647228 1.43697 0
M  V30 6655 C 625.005 0.158188 2.01881 0
M  V30 6656 C 625.333 -1.22573 1.51017 0
M  V30 6657 O 624.588 -1.83086 0.69122 0
M  V30 6658 C 624.887 0.111481 3.57226 0
M  V30 6659 C 624.553 1.43633 4.27411 0
M  V30 6660 C 623.215 1.79915 4.463 0
M  V30 6661 C 625.567 2.31011 4.67208 0
M  V30 6662 C 622.895 3.03251 5.02251 0
M  V30 6663 C 625.247 3.53633 5.24525 0
M  V30 6664 C 623.911 3.90118 5.41631 0
M  V30 6665 H 623.181 0.0578851 0.738736 0
M  V30 6666 H 625.828 0.836746 1.72252 0
M  V30 6667 H 624.133 -0.650507 3.86362 0
M  V30 6668 H 625.83 -0.283682 3.99995 0
M  V30 6669 H 622.42 1.14403 4.1305 0
M  V30 6670 H 626.604 2.04272 4.52313 0
M  V30 6671 H 621.86 3.31575 5.13681 0
M  V30 6672 H 626.034 4.21561 5.5431 0
M  V30 6673 H 623.661 4.85768 5.84751 0
M  V30 6674 N 625.236 -1.5273 0.388769 0
M  V30 6675 C 626.184 -2.27975 -0.461527 0
M  V30 6676 C 627.178 -1.31854 -1.06352 0
M  V30 6677 O 628.384 -1.49394 -1.00406 0
M  V30 6678 H 624.759 -0.733088 -0.16759 0
M  V30 6679 H 626.73 -2.97765 0.194579 0
M  V30 6680 C 625.479 -3.09881 -1.577 0
M  V30 6681 H 624.802 -3.83701 -1.12309 0
M  V30 6682 H 626.242 -3.6567 -2.14619 0
M  V30 6683 C 624.701 -2.22159 -2.53272 0
M  V30 6684 O 625.231 -1.84802 -3.56667 0
M  V30 6685 N 623.437 -1.8633 -2.23001 0
M  V30 6686 H 622.984 -2.16909 -1.38954 0
M  V30 6687 H 622.942 -1.27927 -2.87197 0
M  V30 6688 N 626.714 -0.118576 -1.57153 0
M  V30 6689 C 627.963 0.539339 -1.94355 0
M  V30 6690 C 628.276 1.67858 -1.00415 0
M  V30 6691 O 629.482 2.39922 -1.27081 0
M  V30 6692 C 627.938 1.01082 -3.45414 0
M  V30 6693 C 627.546 -0.0999402 -4.47889 0
M  V30 6694 C 629.29 1.64013 -3.91535 0
M  V30 6695 C 627.197 0.388212 -5.90124 0
M  V30 6696 H 626.127 0.205247 -0.725527 0
M  V30 6697 H 628.778 -0.19836 -1.82425 0
M  V30 6698 H 627.16 1.80292 -3.52577 0
M  V30 6699 H 628.334 -0.876189 -4.52393 0
M  V30 6700 H 626.649 -0.635885 -4.11516 0
M  V30 6701 H 629.246 2.01649 -4.95219 0
M  V30 6702 H 629.589 2.51836 -3.31488 0
M  V30 6703 H 630.122 0.913439 -3.87171 0
M  V30 6704 H 626.861 -0.453963 -6.53926 0
M  V30 6705 H 626.381 1.13095 -5.89041 0
M  V30 6706 H 628.06 0.849574 -6.41398 0
M  V30 6707 N 628.193 1.56834 0.155195 0
M  V30 6708 C 629.125 1.94235 1.21677 0
M  V30 6709 C 630.138 0.83724 1.39621 0
M  V30 6710 O 631.327 1.11567 1.39338 0
M  V30 6711 C 628.427 2.19402 2.58294 0
M  V30 6712 C 627.6 3.50671 2.61436 0
M  V30 6713 C 626.659 3.64475 3.79532 0
M  V30 6714 O 625.685 4.36945 3.64784 0
M  V30 6715 N 626.887 3.00526 4.96653 0
M  V30 6716 H 629.652 2.85901 0.898932 0
M  V30 6717 H 627.213 1.58185 0.34483 0
M  V30 6718 H 629.205 2.25886 3.35794 0
M  V30 6719 H 627.775 1.34042 2.82403 0
M  V30 6720 H 626.995 3.55702 1.69912 0
M  V30 6721 H 628.283 4.3702 2.60559 0
M  V30 6722 H 627.681 2.41549 5.11538 0
M  V30 6723 H 626.238 3.12583 5.71958 0
M  V30 6724 N 629.671 -0.424282 1.51781 0
M  V30 6725 C 630.634 -1.49848 1.73431 0
M  V30 6726 C 631.634 -1.49016 0.604225 0
M  V30 6727 O 632.824 -1.50808 0.871935 0
M  V30 6728 C 629.956 -2.89332 1.80277 0
M  V30 6729 H 631.149 -1.3195 2.69312 0
M  V30 6730 H 628.702 -0.653809 1.41968 0
M  V30 6731 H 629.437 -3.12618 0.862568 0
M  V30 6732 H 629.222 -2.9134 2.62419 0
M  V30 6733 H 630.712 -3.67233 1.98821 0
M  V30 6734 N 631.149 -1.42148 -0.680565 0
M  V30 6735 C 632.397 -1.42029 -1.43779 0
M  V30 6736 C 632.718 -0.0356347 -1.94967 0
M  V30 6737 O 631.988 0.924936 -1.7269 0
M  V30 6738 H 630.568 -0.522835 -0.533529 0
M  V30 6739 H 633.23 -1.7752 -0.804538 0
M  V30 6740 H 632.326 -2.11658 -2.29363 0
M  V30 6741 N 632.627 0.916307 -1.28225 0
M  V30 6742 C 633.873 1.66765 -1.154 0
M  V30 6743 C 634.206 1.91912 0.297251 0
M  V30 6744 O 633.481 1.51766 1.21644 0
M  V30 6745 C 633.764 3.02715 -1.95028 0
M  V30 6746 C 633.617 2.84738 -3.48201 0
M  V30 6747 C 634.936 4.03215 -1.76369 0
M  V30 6748 H 632.055 0.605205 -0.42059 0
M  V30 6749 H 634.697 1.06255 -1.57512 0
M  V30 6750 H 632.847 3.54365 -1.59242 0
M  V30 6751 H 634.519 2.40118 -3.9388 0
M  V30 6752 H 632.762 2.19848 -3.73964 0
M  V30 6753 H 633.433 3.8127 -3.99171 0
M  V30 6754 H 635.909 3.60617 -2.07593 0
M  V30 6755 H 634.785 4.96306 -2.34459 0
M  V30 6756 H 635.046 4.36288 -0.71452 0
M  V30 6757 N 634.105 1.10431 1.1244 0
M  V30 6758 C 635.068 0.756542 2.16354 0
M  V30 6759 C 636.068 -0.21899 1.59302 0
M  V30 6760 O 637.258 0.00415969 1.742 0
M  V30 6761 C 634.39 0.120612 3.40687 0
M  V30 6762 H 635.583 1.67696 2.48632 0
M  V30 6763 H 633.136 0.904832 1.27446 0
M  V30 6764 H 633.871 -0.810536 3.14008 0
M  V30 6765 H 633.656 0.822693 3.83372 0
M  V30 6766 H 635.146 -0.106945 4.17463 0
M  V30 6767 N 635.583 -1.29855 0.893053 0
M  V30 6768 C 636.513 -2.3035 0.382249 0
M  V30 6769 C 637.494 -1.61328 -0.539203 0
M  V30 6770 O 638.679 -1.88882 -0.451342 0
M  V30 6771 C 635.809 -3.45024 -0.396983 0
M  V30 6772 C 634.763 -4.258 0.433437 0
M  V30 6773 C 634.089 -5.32605 -0.472889 0
M  V30 6774 C 635.389 -4.94549 1.67984 0
M  V30 6775 H 637.083 -2.73325 1.22205 0
M  V30 6776 H 634.629 -1.314 0.589073 0
M  V30 6777 H 636.582 -4.14398 -0.765024 0
M  V30 6778 H 635.306 -3.00875 -1.2705 0
M  V30 6779 H 633.965 -3.58125 0.783723 0
M  V30 6780 H 633.613 -4.84702 -1.34435 0
M  V30 6781 H 633.313 -5.87547 0.0789958 0
M  V30 6782 H 634.837 -6.04832 -0.837269 0
M  V30 6783 H 636.251 -5.56395 1.38192 0
M  V30 6784 H 634.648 -5.59393 2.17254 0
M  V30 6785 H 635.718 -4.20215 2.41965 0
M  V30 6786 N 637.061 -0.65484 -1.43351 0
M  V30 6787 C 637.993 0.0744757 -2.29079 0
M  V30 6788 C 639.006 0.7855 -1.42596 0
M  V30 6789 O 640.195 0.642986 -1.66517 0
M  V30 6790 C 637.295 1.12859 -3.19556 0
M  V30 6791 C 636.468 0.495381 -4.34586 0
M  V30 6792 C 635.527 1.44659 -5.05925 0
M  V30 6793 O 634.553 0.954567 -5.61139 0
M  V30 6794 N 635.755 2.78051 -5.09576 0
M  V30 6795 H 638.52 -0.661346 -2.92312 0
M  V30 6796 H 636.081 -0.497744 -1.54059 0
M  V30 6797 H 638.073 1.76577 -3.64147 0
M  V30 6798 H 636.643 1.76636 -2.57912 0
M  V30 6799 H 635.863 -0.32092 -3.92892 0
M  V30 6800 H 637.151 0.0534203 -5.08772 0
M  V30 6801 H 636.549 3.20584 -4.66093 0
M  V30 6802 H 635.106 3.37068 -5.57878 0
M  V30 6803 N 638.539 1.52521 -0.396863 0
M  V30 6804 C 639.487 2.28217 0.44943 0
M  V30 6805 C 640.481 1.32416 1.05652 0
M  V30 6806 O 641.687 1.49925 0.996124 0
M  V30 6807 H 638.062 0.733966 0.1637 0
M  V30 6808 H 640.033 2.97658 -0.210367 0
M  V30 6809 C 638.782 3.10713 1.56054 0
M  V30 6810 H 638.105 3.84291 1.10273 0
M  V30 6811 H 639.545 3.66803 2.12677 0
M  V30 6812 C 638.004 2.23499 2.52091 0
M  V30 6813 O 638.534 1.8669 3.55682 0
M  V30 6814 N 636.74 1.8751 2.2201 0
M  V30 6815 H 636.287 2.17643 1.37802 0
M  V30 6816 H 636.245 1.29448 2.86514 0
M  V30 6817 N 640.017 0.126909 1.57088 0
M  V30 6818 C 640.98 -0.806097 2.14557 0
M  V30 6819 C 641.98 -1.18918 1.08236 0
M  V30 6820 O 643.17 -1.11339 1.33975 0
M  V30 6821 C 640.302 -2.09116 2.69227 0
M  V30 6822 H 641.495 -0.306522 2.98329 0
M  V30 6823 H 639.048 -0.122393 1.5582 0
M  V30 6824 H 639.783 -2.63486 1.89065 0
M  V30 6825 H 639.568 -1.82588 3.46993 0
M  V30 6826 H 641.058 -2.75794 3.13572 0
M  V30 6827 N 641.495 -1.56914 -0.146875 0
M  V30 6828 C 642.427 -1.94878 -1.20645 0
M  V30 6829 C 643.44 -0.844633 -1.39175 0
M  V30 6830 O 644.629 -1.12304 -1.38744 0
M  V30 6831 C 641.729 -2.20769 -2.57127 0
M  V30 6832 C 640.902 -3.52053 -2.59572 0
M  V30 6833 C 639.961 -3.66482 -3.77594 0
M  V30 6834 O 638.987 -4.38873 -3.62462 0
M  V30 6835 N 640.189 -3.03156 -4.95052 0
M  V30 6836 H 642.954 -2.86374 -0.883757 0
M  V30 6837 H 640.515 -1.58366 -0.336436 0
M  V30 6838 H 642.507 -2.27664 -3.34591 0
M  V30 6839 H 641.077 -1.35538 -2.81688 0
M  V30 6840 H 640.297 -3.56598 -1.68023 0
M  V30 6841 H 641.585 -4.38396 -2.58238 0
M  V30 6842 H 640.983 -2.44258 -5.10249 0
M  V30 6843 H 639.54 -3.15611 -5.70292 0
M  V30 6844 N 642.974 0.416227 -1.52004 0
M  V30 6845 C 643.904 1.51365 -1.77795 0
M  V30 6846 C 644.885 1.58059 -0.628601 0
M  V30 6847 O 646.07 1.73447 -0.873478 0
M  V30 6848 C 643.2 2.89256 -1.92219 0
M  V30 6849 C 642.154 2.97415 -3.0778 0
M  V30 6850 C 641.48 4.37492 -3.07417 0
M  V30 6851 C 642.78 2.69551 -4.47369 0
M  V30 6852 H 644.474 1.30033 -2.69688 0
M  V30 6853 H 642.02 0.624112 -1.29772 0
M  V30 6854 H 643.973 3.66008 -2.08845 0
M  V30 6855 H 642.697 3.11866 -0.969917 0
M  V30 6856 H 641.356 2.23107 -2.90893 0
M  V30 6857 H 641.004 4.571 -2.09925 0
M  V30 6858 H 640.704 4.43877 -3.85029 0
M  V30 6859 H 642.228 5.16188 -3.26162 0
M  V30 6860 H 643.642 3.36028 -4.64497 0
M  V30 6861 H 642.039 2.87321 -5.26846 0
M  V30 6862 H 643.109 1.65029 -4.55953 0
M  V30 6863 N 644.452 1.42507 0.673017 0
M  V30 6864 C 645.699 1.43072 1.43306 0
M  V30 6865 C 646.027 0.0478004 1.94441 0
M  V30 6866 O 645.282 -0.944106 1.71421 0
M  V30 6867 C 645.581 2.40351 2.64511 0
M  V30 6868 C 645.247 3.8669 2.31908 0
M  V30 6869 C 643.909 4.26551 2.22728 0
M  V30 6870 C 646.261 4.78991 2.05467 0
M  V30 6871 C 643.589 5.56691 1.85234 0
M  V30 6872 C 645.941 6.09476 1.69477 0
M  V30 6873 C 644.605 6.48334 1.58808 0
M  V30 6874 H 643.875 0.523536 0.524395 0
M  V30 6875 H 646.522 1.75459 0.76723 0
M  V30 6876 H 644.827 2.01297 3.36135 0
M  V30 6877 H 646.524 2.38051 3.22696 0
M  V30 6878 H 643.114 3.55132 2.39956 0
M  V30 6879 H 647.298 4.48982 2.11492 0
M  V30 6880 H 642.554 5.85657 1.75545 0
M  V30 6881 H 646.728 6.80482 1.48043 0
M  V30 6882 H 644.355 7.49084 1.29525 0
M  V30 6883 N 645.93 -0.909495 1.28709 0
M  V30 6884 C 646.893 -1.99399 1.13016 0
M  V30 6885 C 647.893 -1.60654 0.068536 0
M  V30 6886 O 649.083 -1.71334 0.314671 0
M  V30 6887 C 646.215 -3.33078 0.726085 0
M  V30 6888 H 647.408 -2.14751 2.09338 0
M  V30 6889 H 644.961 -1.09272 1.11756 0
M  V30 6890 H 645.696 -3.23428 -0.23771 0
M  V30 6891 H 645.481 -3.62562 1.49302 0
M  V30 6892 H 646.971 -4.12681 0.639058 0
M  V30 6893 N 647.408 -1.11026 -1.11852 0
M  V30 6894 C 648.636 -0.878818 -1.87308 0
M  V30 6895 C 649.051 0.57111 -1.79955 0
M  V30 6896 O 648.408 1.39409 -1.17777 0
M  V30 6897 C 648.459 -1.3264 -3.36287 0
M  V30 6898 O 648.18 -2.71948 -3.43476 0
M  V30 6899 C 649.681 -1.12974 -4.28663 0
M  V30 6900 H 646.901 -0.315015 -0.592458 0
M  V30 6901 H 649.445 -1.47649 -1.41492 0
M  V30 6902 H 647.6 -0.772269 -3.79625 0
M  V30 6903 H 648.014 -2.91241 -4.3621 0
M  V30 6904 H 649.488 -1.49198 -5.31454 0
M  V30 6905 H 649.965 -0.0689127 -4.39146 0
M  V30 6906 H 650.571 -1.67064 -3.91113 0
M  V30 6907 N 648.886 1.2938 -0.899927 0
M  V30 6908 C 650.132 1.9584 -0.526742 0
M  V30 6909 C 650.465 1.70774 0.924651 0
M  V30 6910 O 649.74 1.02084 1.65557 0
M  V30 6911 C 650.023 3.50638 -0.820062 0
M  V30 6912 C 649.876 3.85161 -2.32317 0
M  V30 6913 C 651.195 4.3903 -0.30671 0
M  V30 6914 H 648.314 0.711322 -0.192848 0
M  V30 6915 H 650.956 1.52992 -1.12665 0
M  V30 6916 H 649.106 3.87265 -0.309491 0
M  V30 6917 H 650.778 3.58477 -2.9033 0
M  V30 6918 H 649.021 3.32696 -2.78381 0
M  V30 6919 H 649.692 4.93204 -2.47898 0
M  V30 6920 H 652.168 4.09396 -0.743908 0
M  V30 6921 H 651.044 5.46226 -0.541144 0
M  V30 6922 H 651.305 4.34937 0.792588 0
M  V30 6923 N 650.364 0.662433 1.43002 0
M  V30 6924 C 651.311 -0.0235324 2.30788 0
M  V30 6925 C 652.281 -0.805342 1.4527 0
M  V30 6926 O 653.466 -0.78009 1.74124 0
M  V30 6927 C 650.606 -0.977545 3.30965 0
M  V30 6928 C 649.719 -0.190865 4.31578 0
M  V30 6929 C 648.854 -1.13951 5.18834 0
M  V30 6930 C 647.893 -0.343796 6.11134 0
M  V30 6931 N 647.03 -1.2445 6.90982 0
M  V30 6932 H 651.87 0.730921 2.88897 0
M  V30 6933 H 649.407 0.372197 1.42313 0
M  V30 6934 H 651.365 -1.54437 3.87563 0
M  V30 6935 H 649.995 -1.69877 2.74484 0
M  V30 6936 H 649.047 0.492388 3.772 0
M  V30 6937 H 650.359 0.427464 4.96965 0
M  V30 6938 H 649.513 -1.77666 5.80103 0
M  V30 6939 H 648.252 -1.79174 4.53595 0
M  V30 6940 H 647.257 0.30665 5.48944 0
M  V30 6941 H 648.482 0.304161 6.78419 0
M  V30 6942 H 646.428 -1.88336 6.28383 0
M  V30 6943 H 646.345 -0.680959 7.52927 0
M  V30 6944 H 647.613 -1.86952 7.56749 0
M  V30 6945 N 651.842 -1.52309 0.404946 0
M  V30 6946 C 652.774 -2.24579 -0.45791 0
M  V30 6947 C 653.787 -1.2739 -1.01369 0
M  V30 6948 O 654.976 -1.53363 -0.91335 0
M  V30 6949 C 652.076 -2.9608 -1.64893 0
M  V30 6950 C 651.249 -4.20106 -1.21777 0
M  V30 6951 C 650.308 -4.74468 -2.27523 0
M  V30 6952 O 649.334 -5.37157 -1.88285 0
M  V30 6953 N 650.536 -4.55678 -3.59635 0
M  V30 6954 H 653.301 -2.99265 0.161341 0
M  V30 6955 H 650.862 -1.60228 0.232107 0
M  V30 6956 H 652.854 -3.29344 -2.35191 0
M  V30 6957 H 651.424 -2.24606 -2.17419 0
M  V30 6958 H 650.644 -3.92704 -0.343071 0
M  V30 6959 H 651.932 -5.00658 -0.906596 0
M  V30 6960 H 651.33 -4.05673 -3.94266 0
M  V30 6961 H 649.887 -4.9339 -4.25922 0
M  V30 6962 N 653.32 -0.135238 -1.57019 0
M  V30 6963 C 654.252 0.839675 -2.13265 0
M  V30 6964 C 655.265 1.21887 -1.07923 0
M  V30 6965 O 656.454 1.16499 -1.35241 0
M  V30 6966 C 653.554 2.13647 -2.63075 0
M  V30 6967 C 652.727 1.92646 -3.92691 0
M  V30 6968 C 651.786 3.06205 -4.27931 0
M  V30 6969 O 650.812 2.78409 -4.96465 0
M  V30 6970 N 652.014 4.33072 -3.86561 0
M  V30 6971 H 654.779 0.359026 -2.97542 0
M  V30 6972 H 652.34 0.0486979 -1.61827 0
M  V30 6973 H 654.332 2.88641 -2.8367 0
M  V30 6974 H 652.902 2.5301 -1.83588 0
M  V30 6975 H 652.122 1.01754 -3.80841 0
M  V30 6976 H 653.41 1.75939 -4.77413 0
M  V30 6977 H 652.808 4.58526 -3.31316 0
M  V30 6978 H 651.365 5.04885 -4.12231 0
M  V30 6979 N 654.798 1.5699 0.138552 0
M  V30 6980 C 655.708 2.02174 1.19008 0
M  V30 6981 C 656.724 0.938622 1.46512 0
M  V30 6982 O 657.9 1.24872 1.58016 0
M  V30 6983 C 654.965 2.40045 2.50159 0
M  V30 6984 C 654.026 3.62346 2.30226 0
M  V30 6985 C 653.259 3.98401 3.55123 0
M  V30 6986 O 653.482 3.35019 4.61647 0
M  V30 6987 O 652.416 4.91606 3.47285 0
M  V30 6988 H 656.242 2.91954 0.836452 0
M  V30 6989 H 653.827 1.45293 0.347907 0
M  V30 6990 H 655.709 2.65225 3.27465 0
M  V30 6991 H 654.384 1.53417 2.85035 0
M  V30 6992 H 653.291 3.42341 1.50843 0
M  V30 6993 H 654.624 4.49617 2.00262 0
M  V30 6994 N 656.276 -0.40816 1.52223 0
M  V30 6995 C 657.208 -1.51642 1.71864 0
M  V30 6996 C 658.221 -1.51378 0.599056 0
M  V30 6997 O 659.41 -1.55626 0.874239 0
M  V30 6998 C 656.51 -2.90534 1.74481 0
M  V30 6999 C 655.683 -3.14979 3.03491 0
M  V30 7000 C 654.742 -4.33749 2.97907 0
M  V30 7001 O 653.768 -4.30982 3.71811 0
M  V30 7002 N 654.97 -5.38912 2.15764 0
M  V30 7003 H 657.735 -1.35188 2.67478 0
M  V30 7004 H 655.296 -0.597468 1.50472 0
M  V30 7005 H 657.288 -3.68056 1.68275 0
M  V30 7006 H 655.858 -3.00441 0.863363 0
M  V30 7007 H 655.078 -2.25492 3.23337 0
M  V30 7008 H 656.366 -3.28156 3.88833 0
M  V30 7009 H 655.764 -5.44008 1.55152 0
M  V30 7010 H 654.321 -6.15174 2.15415 0
M  V30 7011 N 657.755 -1.42862 -0.66545 0
M  V30 7012 C 658.688 -1.41509 -1.79026 0
M  V30 7013 C 659.666 -0.278106 -1.60204 0
M  V30 7014 O 660.85 -0.469792 -1.82552 0
M  V30 7015 C 657.977 -1.21494 -3.1616 0
M  V30 7016 C 657.023 -2.38308 -3.53711 0
M  V30 7017 S 657.856 -4.00852 -3.55075 0
M  V30 7018 C 659.012 -3.83197 -4.94885 0
M  V30 7019 H 659.245 -2.36691 -1.79902 0
M  V30 7020 H 656.778 -1.29746 -0.836977 0
M  V30 7021 H 658.736 -1.10633 -3.95311 0
M  V30 7022 H 657.397 -0.27881 -3.1286 0
M  V30 7023 H 656.59 -2.20076 -4.53412 0
M  V30 7024 H 656.192 -2.45732 -2.81943 0
M  V30 7025 H 658.484 -3.44765 -5.83218 0
M  V30 7026 H 659.427 -4.82607 -5.18166 0
M  V30 7027 H 659.835 -3.15884 -4.67843 0
M  V30 7028 N 659.233 0.902656 -1.29189 0
M  V30 7029 C 660.165 2.01149 -1.09872 0
M  V30 7030 C 661.178 1.62732 -0.0471046 0
M  V30 7031 O 662.367 1.76107 -0.29132 0
M  V30 7032 C 659.467 3.32612 -0.649818 0
M  V30 7033 C 658.64 3.99574 -1.7793 0
M  V30 7034 C 657.699 5.09325 -1.32191 0
M  V30 7035 O 656.725 5.31919 -2.02611 0
M  V30 7036 N 657.927 5.80185 -0.191171 0
M  V30 7037 H 660.692 2.18276 -2.05368 0
M  V30 7038 H 658.253 1.07466 -1.2109 0
M  V30 7039 H 660.245 4.03375 -0.327199 0
M  V30 7040 H 658.815 3.11876 0.212597 0
M  V30 7041 H 658.035 3.22213 -2.27095 0
M  V30 7042 H 659.323 4.41056 -2.53668 0
M  V30 7043 H 658.721 5.64312 0.396016 0
M  V30 7044 H 657.278 6.5176 0.0721001 0
M  V30 7045 N 660.711 1.11618 1.11262 0
M  V30 7046 C 662.127 0.850468 1.35053 0
M  V30 7047 C 662.327 -0.523868 1.94571 0
M  V30 7048 O 661.383 -1.2743 2.17986 0
M  V30 7049 C 662.696 1.96005 2.28041 0
M  V30 7050 C 664.244 1.98993 2.416 0
M  V30 7051 C 664.719 3.0916 3.37911 0
M  V30 7052 N 666.21 3.08547 3.45475 0
M  V30 7053 C 666.945 3.9043 4.19943 0
M  V30 7054 N 666.441 4.8228 4.97371 0
M  V30 7055 N 668.234 3.786 4.15474 0
M  V30 7056 H 660.385 2.00184 0.709932 0
M  V30 7057 H 662.648 0.870635 0.375099 0
M  V30 7058 H 662.354 2.9499 1.91503 0
M  V30 7059 H 662.228 1.85782 3.28275 0
M  V30 7060 H 664.615 1.00633 2.77411 0
M  V30 7061 H 664.696 2.13292 1.4121 0
M  V30 7062 H 664.34 4.07748 3.02827 0
M  V30 7063 H 664.27 2.92102 4.3816 0
M  V30 7064 H 666.761 2.42 2.90249 0
M  V30 7065 H 667.074 5.41289 5.51567 0
M  V30 7066 H 665.419 4.863 4.96525 0
M  V30 7067 H 668.61 3.06185 3.54074 0
M  V30 7068 H 668.783 4.42647 4.73253 0
M  V30 7069 N 662.189 -1.289 0.906776 0
M  V30 7070 C 663.466 -1.90221 0.455537 0
M  V30 7071 C 663.846 -1.82251 -1.06527 0
M  V30 7072 O 663.194 -1.25385 -1.91026 0
M  V30 7073 C 663.404 -3.35015 0.97806 0
M  V30 7074 C 664.752 -4.12018 1.02598 0
M  V30 7075 O 665.776 -3.43947 0.926218 0
M  V30 7076 O 664.635 -5.33677 1.17689 0
M  V30 7077 H 661.729 -0.814505 0.143214 0
M  V30 7078 H 664.275 -1.37317 0.997104 0
M  V30 7079 H 663.047 -3.35006 2.02204 0
M  V30 7080 H 662.67 -3.95408 0.416914 0
M  V30 7081 N 663.667 -0.670007 -1.42649 0
M  V30 7082 C 664.916 -0.187526 -2.00826 0
M  V30 7083 C 665.229 1.21142 -1.53571 0
M  V30 7084 O 666.435 1.79001 -2.04134 0
M  V30 7085 C 664.891 -0.284409 -3.58774 0
M  V30 7086 C 664.499 -1.6871 -4.15019 0
M  V30 7087 C 666.243 0.139605 -4.2427 0
M  V30 7088 C 664.15 -1.73701 -5.65316 0
M  V30 7089 H 663.08 -0.0663468 -0.751075 0
M  V30 7090 H 665.731 -0.834492 -1.63427 0
M  V30 7091 H 664.113 0.430364 -3.93655 0
M  V30 7092 H 665.287 -2.42857 -3.91608 0
M  V30 7093 H 663.602 -2.05855 -3.61957 0
M  V30 7094 H 666.199 0.122398 -5.3456 0
M  V30 7095 H 666.542 1.17403 -3.99402 0
M  V30 7096 H 667.075 -0.523995 -3.94334 0
M  V30 7097 H 663.814 -2.75109 -5.94975 0
M  V30 7098 H 663.334 -1.03903 -5.90732 0
M  V30 7099 H 665.013 -1.48829 -6.2965 0
M  V30 7100 N 665.145 1.52092 -0.413018 0
M  V30 7101 C 666.075 2.30021 0.401567 0
M  V30 7102 C 667.056 1.34395 1.04269 0
M  V30 7103 O 668.241 1.63304 1.05097 0
M  V30 7104 C 665.371 3.12447 1.51638 0
M  V30 7105 C 664.325 4.16153 1.00005 0
M  V30 7106 C 663.651 4.86948 2.20875 0
M  V30 7107 C 664.951 5.22275 0.0513757 0
M  V30 7108 H 666.645 2.98365 -0.248704 0
M  V30 7109 H 664.191 1.4349 -0.121052 0
M  V30 7110 H 666.144 3.65733 2.09326 0
M  V30 7111 H 664.868 2.41879 2.19458 0
M  V30 7112 H 663.527 3.63882 0.445549 0
M  V30 7113 H 663.175 4.12905 2.8726 0
M  V30 7114 H 662.875 5.57057 1.86978 0
M  V30 7115 H 664.399 5.43048 2.79162 0
M  V30 7116 H 665.813 5.70778 0.537176 0
M  V30 7117 H 664.21 5.9977 -0.198977 0
M  V30 7118 H 665.28 4.76611 -0.892736 0
M  V30 7119 N 666.623 0.143563 1.56945 0
M  V30 7120 C 668.039 -0.212877 1.58174 0
M  V30 7121 C 668.239 -1.64926 1.15766 0
M  V30 7122 O 667.295 -2.37535 0.856361 0
M  V30 7123 C 668.608 0.0427573 3.0067 0
M  V30 7124 C 670.156 -0.0212221 3.12993 0
M  V30 7125 C 670.631 0.207036 4.57532 0
M  V30 7126 N 672.122 0.153845 4.62944 0
M  V30 7127 C 672.857 0.305018 5.72588 0
M  V30 7128 N 672.353 0.513722 6.90893 0
M  V30 7129 N 674.146 0.242862 5.61575 0
M  V30 7130 H 666.297 1.08148 1.82805 0
M  V30 7131 H 668.56 0.427831 0.84597 0
M  V30 7132 H 668.266 1.03672 3.36073 0
M  V30 7133 H 668.14 -0.678195 3.71053 0
M  V30 7134 H 670.527 -1.00574 2.77433 0
M  V30 7135 H 670.608 0.732004 2.45103 0
M  V30 7136 H 670.252 1.18863 4.93795 0
M  V30 7137 H 670.182 -0.566473 5.23544 0
M  V30 7138 H 672.673 -0.00294866 3.779 0
M  V30 7139 H 672.986 0.619273 7.70315 0
M  V30 7140 H 671.331 0.550001 6.9282 0
M  V30 7141 H 674.522 0.0806015 4.68031 0
M  V30 7142 H 674.695 0.364112 6.46976 0
M  V30 7143 N 668.101 -1.57061 -0.130224 0
M  V30 7144 C 669.326 -1.88802 -0.858409 0
M  V30 7145 C 669.751 -0.734353 -1.73173 0
M  V30 7146 O 669.109 0.315529 -1.78533 0
M  V30 7147 C 669.157 -3.19228 -1.67708 0
M  V30 7148 O 668.261 -3.04343 -2.78297 0
M  V30 7149 H 667.602 -0.619849 -0.238083 0
M  V30 7150 H 670.132 -2.04271 -0.115995 0
M  V30 7151 H 670.142 -3.51669 -2.06864 0
M  V30 7152 H 668.817 -4.02793 -1.0359 0
M  V30 7153 H 667.394 -2.83346 -2.42425 0
M  V30 7154 N 669.579 0.400081 -1.52437 0
M  V30 7155 C 670.509 1.4947 -1.7939 0
M  V30 7156 C 671.49 1.57383 -0.645329 0
M  V30 7157 O 672.675 1.72511 -0.891826 0
M  V30 7158 C 669.805 2.87201 -1.95276 0
M  V30 7159 C 668.759 2.94134 -3.10917 0
M  V30 7160 C 668.085 4.34207 -3.1204 0
M  V30 7161 C 669.385 2.64791 -4.50203 0
M  V30 7162 H 671.079 1.27165 -2.71052 0
M  V30 7163 H 668.625 0.610312 -1.30427 0
M  V30 7164 H 670.578 3.63772 -2.12715 0
M  V30 7165 H 669.302 3.10819 -1.00294 0
M  V30 7166 H 667.961 2.20009 -2.93243 0
M  V30 7167 H 667.609 4.54848 -2.14761 0
M  V30 7168 H 667.309 4.39768 -3.89715 0
M  V30 7169 H 668.833 5.127 -3.31619 0
M  V30 7170 H 670.247 3.31083 -4.68035 0
M  V30 7171 H 668.644 2.81717 -5.29864 0
M  V30 7172 H 669.714 1.60184 -4.57678 0
M  V30 7173 N 671.057 1.43213 0.657864 0
M  V30 7174 C 672.282 1.48227 1.45064 0
M  V30 7175 C 672.707 0.0999939 1.87834 0
M  V30 7176 O 672.065 -0.905269 1.57081 0
M  V30 7177 C 672.113 2.42931 2.6649 0
M  V30 7178 O 671.217 1.91237 3.6538 0
M  V30 7179 H 670.558 0.501551 0.435135 0
M  V30 7180 H 673.088 1.8808 0.805431 0
M  V30 7181 H 673.098 2.6008 3.1436 0
M  V30 7182 H 671.773 3.43348 2.34701 0
M  V30 7183 H 670.35 1.83726 3.24498 0
M  V30 7184 N 672.536 -0.895792 1.29666 0
M  V30 7185 C 673.484 -2.02173 1.15017 0
M  V30 7186 C 674.478 -1.69276 0.0647651 0
M  V30 7187 O 675.684 -1.7859 0.224846 0
M  V30 7188 H 672.059 -0.662719 0.355397 0
M  V30 7189 H 674.03 -2.11666 2.10334 0
M  V30 7190 C 672.779 -3.37212 0.847555 0
M  V30 7191 H 672.102 -3.6303 1.67479 0
M  V30 7192 H 673.542 -4.16668 0.785106 0
M  V30 7193 C 672.001 -3.33891 -0.44929 0
M  V30 7194 O 672.531 -3.73673 -1.47415 0
M  V30 7195 N 670.737 -2.86991 -0.456547 0
M  V30 7196 H 670.284 -2.54813 0.377925 0
M  V30 7197 H 670.242 -2.85152 -1.32423 0
M  V30 7198 N 674.014 -1.12206 -1.10668 0
M  V30 7199 C 675.262 -0.874144 -1.82217 0
M  V30 7200 C 675.583 0.601736 -1.85484 0
M  V30 7201 O 674.853 1.43725 -1.33116 0
M  V30 7202 H 673.433 -0.320404 -0.674797 0
M  V30 7203 H 676.095 -1.41606 -1.33917 0
M  V30 7204 H 675.191 -1.25349 -2.85822 0
M  V30 7205 N 675.492 1.28418 -0.913599 0
M  V30 7206 C 676.738 1.9527 -0.547484 0
M  V30 7207 C 677.071 1.71745 0.906486 0
M  V30 7208 O 676.346 1.03834 1.64465 0
M  V30 7209 C 676.629 3.49748 -0.857205 0
M  V30 7210 C 676.482 3.82675 -2.3639 0
M  V30 7211 C 677.801 4.3868 -0.353258 0
M  V30 7212 H 674.92 0.709236 -0.200381 0
M  V30 7213 H 677.562 1.51789 -1.14281 0
M  V30 7214 H 675.712 3.86915 -0.350548 0
M  V30 7215 H 677.384 3.55378 -2.94116 0
M  V30 7216 H 675.627 3.29724 -2.81894 0
M  V30 7217 H 676.298 4.90547 -2.53115 0
M  V30 7218 H 678.774 4.08584 -0.787288 0
M  V30 7219 H 677.65 5.45621 -0.599049 0
M  V30 7220 H 677.911 4.35753 0.746413 0
M  V30 7221 N 676.97 0.677563 1.42291 0
M  V30 7222 C 678.219 0.198173 2.00724 0
M  V30 7223 C 678.532 -1.20325 1.54211 0
M  V30 7224 O 679.738 -1.77916 2.05081 0
M  V30 7225 C 678.194 0.303432 3.58619 0
M  V30 7226 C 677.802 1.70909 4.14119 0
M  V30 7227 C 679.546 -0.117103 4.24338 0
M  V30 7228 C 677.453 1.76696 5.64387 0
M  V30 7229 H 676.383 0.070329 0.750713 0
M  V30 7230 H 679.034 0.843147 1.62982 0
M  V30 7231 H 677.416 -0.409482 3.93877 0
M  V30 7232 H 678.59 2.44931 3.90315 0
M  V30 7233 H 676.905 2.07771 3.6086 0
M  V30 7234 H 679.502 -0.0940471 5.34617 0
M  V30 7235 H 679.845 -1.15283 4.00019 0
M  V30 7236 H 680.378 0.5449 3.9405 0
M  V30 7237 H 677.117 2.7826 5.93508 0
M  V30 7238 H 676.637 1.07034 5.90173 0
M  V30 7239 H 678.316 1.52166 6.28852 0
M  V30 7240 N 678.448 -1.51871 0.421078 0
M  V30 7241 C 679.673 -2.0684 -0.152371 0
M  V30 7242 C 680.098 -1.28802 -1.37083 0
M  V30 7243 O 679.456 -0.321482 -1.78427 0
M  V30 7244 C 679.504 -3.57532 -0.469368 0
M  V30 7245 O 678.608 -3.81818 -1.55848 0
M  V30 7246 H 677.949 -0.663939 -0.00898586 0
M  V30 7247 H 680.479 -1.95674 0.597724 0
M  V30 7248 H 680.489 -4.01515 -0.724553 0
M  V30 7249 H 679.164 -4.13761 0.421276 0
M  V30 7250 H 677.741 -3.49709 -1.29453 0
M  V30 7251 N 679.926 -0.151884 -1.56866 0
M  V30 7252 C 681.154 0.504813 -2.00647 0
M  V30 7253 C 681.569 1.58098 -1.03201 0
M  V30 7254 O 680.926 1.82476 -0.0297814 0
M  V30 7255 C 680.977 1.10099 -3.44326 0
M  V30 7256 O 680.698 0.0678021 -4.38048 0
M  V30 7257 C 682.199 1.83782 -4.03409 0
M  V30 7258 H 679.419 0.130989 -0.65809 0
M  V30 7259 H 681.963 -0.247903 -2.02992 0
M  V30 7260 H 680.118 1.8043 -3.42817 0
M  V30 7261 H 680.532 0.505237 -5.22061 0
M  V30 7262 H 682.006 2.2078 -5.05925 0
M  V30 7263 H 682.483 2.72557 -3.44397 0
M  V30 7264 H 683.089 1.18138 -4.08563 0
M  V30 7265 N 681.404 1.57128 0.121893 0
M  V30 7266 C 682.681 1.75664 0.860327 0
M  V30 7267 C 683.061 0.726585 1.98202 0
M  V30 7268 O 682.409 -0.24999 2.27128 0
M  V30 7269 C 682.619 3.20571 1.37968 0
M  V30 7270 C 683.967 3.82988 1.83317 0
M  V30 7271 O 684.991 3.24156 1.47654 0
M  V30 7272 O 683.85 4.86393 2.49168 0
M  V30 7273 H 680.944 0.719153 0.408348 0
M  V30 7274 H 683.49 1.6937 0.105859 0
M  V30 7275 H 682.262 3.87056 0.57477 0
M  V30 7276 H 681.885 3.31392 2.19694 0
M  V30 7277 N 682.882 -0.391992 1.52647 0
M  V30 7278 C 683.829 -1.47866 1.77213 0
M  V30 7279 C 684.799 -1.54286 0.615223 0
M  V30 7280 O 685.984 -1.7059 0.854622 0
M  V30 7281 C 683.124 -2.85129 1.94411 0
M  V30 7282 C 682.237 -2.87883 3.22098 0
M  V30 7283 C 681.372 -4.16553 3.29631 0
M  V30 7284 C 680.411 -4.13348 4.51453 0
M  V30 7285 N 679.548 -5.33619 4.56284 0
M  V30 7286 H 684.388 -1.26219 2.6995 0
M  V30 7287 H 681.925 -0.612367 1.33748 0
M  V30 7288 H 683.883 -3.64833 2.02367 0
M  V30 7289 H 682.513 -3.05232 1.05038 0
M  V30 7290 H 681.565 -2.00567 3.23229 0
M  V30 7291 H 682.877 -2.81382 4.11856 0
M  V30 7292 H 682.031 -5.0466 3.36753 0
M  V30 7293 H 680.77 -4.25773 2.37842 0
M  V30 7294 H 679.775 -3.23629 4.44459 0
M  V30 7295 H 681 -4.05754 5.44555 0
M  V30 7296 H 678.946 -5.43474 3.67385 0
M  V30 7297 H 678.863 -5.29182 5.3991 0
M  V30 7298 H 680.131 -6.23632 4.67657 0
M  V30 7299 N 684.36 -1.4356 -0.65026 0
M  V30 7300 C 685.585 -1.48995 -1.44275 0
M  V30 7301 C 686.01 -0.109954 -1.87778 0
M  V30 7302 O 685.368 0.896926 -1.57559 0
M  V30 7303 C 685.416 -2.44341 -2.65198 0
M  V30 7304 O 684.52 -1.93172 -3.6436 0
M  V30 7305 H 683.861 -0.503852 -0.432469 0
M  V30 7306 H 686.391 -1.88504 -0.795446 0
M  V30 7307 H 686.401 -2.61743 -3.12977 0
M  V30 7308 H 685.076 -3.44588 -2.32877 0
M  V30 7309 H 683.653 -1.85445 -3.23519 0
M  V30 7310 N 685.838 0.888903 -1.30139 0
M  V30 7311 C 687.086 1.63713 -1.18501 0
M  V30 7312 C 687.407 1.9324 0.261399 0
M  V30 7313 O 686.677 1.56608 1.17689 0
M  V30 7314 H 685.257 0.606861 -0.435579 0
M  V30 7315 H 687.919 1.06525 -1.63213 0
M  V30 7316 H 687.015 2.58894 -1.743 0
M  V30 7317 N 687.317 1.12792 1.10072 0
M  V30 7318 C 688.545 0.908506 1.85886 0
M  V30 7319 C 688.96 -0.542408 1.80841 0
M  V30 7320 O 688.317 -1.37517 1.1998 0
M  V30 7321 C 688.368 1.37973 3.34134 0
M  V30 7322 O 688.089 2.77378 3.39106 0
M  V30 7323 C 689.59 1.1978 4.26811 0
M  V30 7324 H 686.81 0.3244 0.587372 0
M  V30 7325 H 689.354 1.49882 1.39125 0
M  V30 7326 H 687.509 0.832566 3.78348 0
M  V30 7327 H 687.923 2.98144 4.31521 0
M  V30 7328 H 689.397 1.57635 5.29014 0
M  V30 7329 H 689.874 0.138768 4.38981 0
M  V30 7330 H 690.48 1.73266 3.88406 0
M  V30 7331 N 688.795 -1.27931 0.920396 0
M  V30 7332 C 690.044 -1.93975 0.552867 0
M  V30 7333 C 690.357 -1.73193 -0.909035 0
M  V30 7334 O 691.563 -2.33515 -1.38502 0
M  V30 7335 C 690.019 -3.47463 0.937947 0
M  V30 7336 C 689.627 -3.77013 2.42003 0
M  V30 7337 C 691.371 -4.19628 0.64132 0
M  V30 7338 C 689.278 -5.23841 2.74489 0
M  V30 7339 H 688.208 -0.726146 0.203046 0
M  V30 7340 H 690.859 -1.45339 1.12022 0
M  V30 7341 H 689.241 -3.94867 0.299317 0
M  V30 7342 H 690.415 -3.40393 3.10595 0
M  V30 7343 H 688.73 -3.18035 2.6878 0
M  V30 7344 H 691.327 -5.27729 0.860622 0
M  V30 7345 H 691.67 -4.14164 -0.421168 0
M  V30 7346 H 692.203 -3.78022 1.23872 0
M  V30 7347 H 688.942 -5.34388 3.79618 0
M  V30 7348 H 688.462 -5.61634 2.1054 0
M  V30 7349 H 690.141 -5.91647 2.61845 0
M  V30 7350 N 690.273 -0.685099 -1.4193 0
M  V30 7351 C 691.522 -0.208816 -2.00616 0
M  V30 7352 C 691.835 1.19506 -1.54847 0
M  V30 7353 O 693.041 1.76826 -2.06021 0
M  V30 7354 C 691.497 -0.322446 -3.58453 0
M  V30 7355 C 691.105 -1.73102 -4.13206 0
M  V30 7356 C 692.849 0.0945979 -4.24395 0
M  V30 7357 C 690.756 -1.79687 -5.63442 0
M  V30 7358 H 689.686 -0.0743092 -0.750329 0
M  V30 7359 H 692.337 -0.851778 -1.62533 0
M  V30 7360 H 690.719 0.388588 -3.94089 0
M  V30 7361 H 691.893 -2.46997 -3.8901 0
M  V30 7362 H 690.208 -2.09682 -3.59753 0
M  V30 7363 H 692.805 0.0656937 -5.3466 0
M  V30 7364 H 693.148 1.1316 -4.00625 0
M  V30 7365 H 693.681 -0.56579 -3.93756 0
M  V30 7366 H 690.42 -2.81404 -5.92024 0
M  V30 7367 H 689.94 -1.10162 -5.89597 0
M  V30 7368 H 691.619 -1.55498 -6.28036 0
M  V30 7369 N 691.751 1.51645 -0.429126 0
M  V30 7370 C 692.714 2.26116 0.374726 0
M  V30 7371 C 693.714 1.29242 0.956714 0
M  V30 7372 O 694.904 1.53022 0.832452 0
M  V30 7373 C 692.036 3.04669 1.52937 0
M  V30 7374 H 693.229 2.9861 -0.277818 0
M  V30 7375 H 690.782 1.55236 -0.182097 0
M  V30 7376 H 691.517 2.36571 2.21821 0
M  V30 7377 H 691.302 3.75814 1.11833 0
M  V30 7378 H 692.792 3.61102 2.09751 0
M  V30 7379 N 693.229 0.160201 1.56784 0
M  V30 7380 C 694.192 -0.760405 2.16219 0
M  V30 7381 C 695.192 -1.16595 1.10735 0
M  V30 7382 O 696.382 -1.08472 1.36306 0
M  V30 7383 C 693.514 -2.03358 2.73603 0
M  V30 7384 H 694.707 -0.243173 2.98912 0
M  V30 7385 H 692.26 -0.0893139 1.56045 0
M  V30 7386 H 692.995 -2.59416 1.94612 0
M  V30 7387 H 692.78 -1.75186 3.50788 0
M  V30 7388 H 694.27 -2.69081 3.19351 0
M  V30 7389 N 694.707 -1.5719 -0.113559 0
M  V30 7390 C 695.655 -2.01725 -1.158 0
M  V30 7391 C 696.649 -0.915105 -1.42556 0
M  V30 7392 O 697.855 -1.10031 -1.42454 0
M  V30 7393 H 694.23 -0.64262 -0.390569 0
M  V30 7394 H 696.201 -2.88666 -0.755926 0
M  V30 7395 C 694.95 -2.44203 -2.47507 0
M  V30 7396 H 694.273 -3.28582 -2.27758 0
M  V30 7397 H 695.713 -2.79158 -3.19135 0
M  V30 7398 C 694.172 -1.30785 -3.10478 0
M  V30 7399 O 694.702 -0.626807 -3.9678 0
M  V30 7400 N 692.908 -1.06352 -2.7044 0
M  V30 7401 H 692.455 -1.61913 -2.00355 0
M  V30 7402 H 692.413 -0.306614 -3.12901 0
M  V30 7403 N 696.185 0.383891 -1.52853 0
M  V30 7404 C 697.095 1.49343 -1.80925 0
M  V30 7405 C 698.111 1.59458 -0.696348 0
M  V30 7406 O 699.287 1.75698 -0.984481 0
M  V30 7407 C 696.352 2.84819 -1.97684 0
M  V30 7408 C 695.413 2.84382 -3.21598 0
M  V30 7409 C 694.646 4.13397 -3.37548 0
M  V30 7410 O 694.869 5.08619 -2.58192 0
M  V30 7411 O 693.803 4.20325 -4.30826 0
M  V30 7412 H 697.629 1.2855 -2.75152 0
M  V30 7413 H 695.214 0.572229 -1.38007 0
M  V30 7414 H 697.096 3.65125 -2.10385 0
M  V30 7415 H 695.771 3.05627 -1.06647 0
M  V30 7416 H 694.678 2.0284 -3.14336 0
M  V30 7417 H 696.011 2.68526 -4.12498 0
M  V30 7418 N 697.663 1.43903 0.642637 0
M  V30 7419 C 698.888 1.49758 1.43483 0
M  V30 7420 C 699.313 0.119911 1.87717 0
M  V30 7421 O 698.671 -0.888558 1.58033 0
M  V30 7422 C 698.719 2.45744 2.63898 0
M  V30 7423 O 697.823 1.95101 3.63331 0
M  V30 7424 H 697.164 0.506138 0.429791 0
M  V30 7425 H 699.694 1.88923 0.785438 0
M  V30 7426 H 699.704 2.63399 3.11584 0
M  V30 7427 H 698.379 3.45818 2.31046 0
M  V30 7428 H 696.956 1.87158 3.22531 0
M  V30 7429 N 699.141 -0.881989 1.30609 0
M  V30 7430 C 700.104 -1.96957 1.1722 0
M  V30 7431 C 701.104 -1.60472 0.102598 0
M  V30 7432 O 702.294 -1.70628 0.350943 0
M  V30 7433 C 699.426 -3.31463 0.796572 0
M  V30 7434 H 700.619 -2.10262 2.13846 0
M  V30 7435 H 698.172 -1.06877 1.14048 0
M  V30 7436 H 698.907 -3.23859 -0.169053 0
M  V30 7437 H 698.692 -3.59314 1.56959 0
M  V30 7438 H 700.182 -4.11233 0.72645 0
M  V30 7439 N 700.619 -1.13374 -1.09472 0
M  V30 7440 C 701.551 -0.768466 -2.15933 0
M  V30 7441 C 702.564 0.209585 -1.61445 0
M  V30 7442 O 703.753 -0.010539 -1.78497 0
M  V30 7443 C 700.853 -0.118266 -3.38694 0
M  V30 7444 C 700.026 -1.12829 -4.22597 0
M  V30 7445 C 699.085 -0.503875 -5.23782 0
M  V30 7446 O 698.111 -1.16374 -5.57177 0
M  V30 7447 N 699.313 0.724288 -5.75964 0
M  V30 7448 H 702.078 -1.68457 -2.47876 0
M  V30 7449 H 699.639 -1.02668 -1.25183 0
M  V30 7450 H 701.631 0.311698 -4.03498 0
M  V30 7451 H 700.201 0.700769 -3.04644 0
M  V30 7452 H 699.421 -1.73556 -3.53938 0
M  V30 7453 H 700.709 -1.81095 -4.75481 0
M  V30 7454 H 700.107 1.27918 -5.51048 0
M  V30 7455 H 698.664 1.09692 -6.42504 0
M  V30 7456 N 702.098 1.27442 -0.927168 0
M  V30 7457 C 703.514 1.46754 -0.627329 0
M  V30 7458 C 703.714 1.83902 0.823549 0
M  V30 7459 O 702.77 1.95215 1.60148 0
M  V30 7460 C 704.083 2.56045 -1.57674 0
M  V30 7461 C 705.631 2.69906 -1.58491 0
M  V30 7462 C 706.106 3.82355 -2.52128 0
M  V30 7463 N 707.597 3.89728 -2.50332 0
M  V30 7464 C 708.332 4.76155 -3.19475 0
M  V30 7465 N 707.828 5.67073 -3.97995 0
M  V30 7466 N 709.621 4.6988 -3.08496 0
M  V30 7467 H 701.772 1.01613 -1.86517 0
M  V30 7468 H 704.035 0.507443 -0.800753 0
M  V30 7469 H 703.741 2.35542 -2.61176 0
M  V30 7470 H 703.615 3.53423 -1.31804 0
M  V30 7471 H 706.002 2.89792 -0.557208 0
M  V30 7472 H 706.083 1.73018 -1.8841 0
M  V30 7473 H 705.727 3.63224 -3.55008 0
M  V30 7474 H 705.657 4.7867 -2.19505 0
M  V30 7475 H 708.148 3.24717 -1.93306 0
M  V30 7476 H 708.461 6.2988 -4.4774 0
M  V30 7477 H 706.806 5.6687 -4.02098 0
M  V30 7478 H 709.997 3.97848 -2.46646 0
M  V30 7479 H 710.17 5.37017 -3.62652 0
M  V30 7480 N 703.576 0.692616 1.41565 0
M  V30 7481 C 704.506 0.0397325 2.33466 0
M  V30 7482 C 705.487 -0.770334 1.51657 0
M  V30 7483 O 706.672 -0.723903 1.80203 0
M  V30 7484 C 703.802 -0.899495 3.3545 0
M  V30 7485 C 702.756 -0.196738 4.27548 0
M  V30 7486 C 702.082 -1.25012 5.19881 0
M  V30 7487 C 703.382 0.935158 5.1386 0
M  V30 7488 H 705.076 0.807296 2.88311 0
M  V30 7489 H 702.622 0.389665 1.38628 0
M  V30 7490 H 704.575 -1.36545 3.98665 0
M  V30 7491 H 703.299 -1.69869 2.78948 0
M  V30 7492 H 701.958 0.249158 3.65752 0
M  V30 7493 H 701.606 -2.04177 4.59696 0
M  V30 7494 H 701.306 -0.784931 5.82334 0
M  V30 7495 H 702.83 -1.71665 5.85972 0
M  V30 7496 H 704.244 0.549619 5.70659 0
M  V30 7497 H 702.641 1.32726 5.85238 0
M  V30 7498 H 703.711 1.77613 4.512 0
M  V30 7499 N 705.054 -1.51416 0.437162 0
M  V30 7500 C 705.984 -2.30631 -0.364922 0
M  V30 7501 C 706.965 -1.36037 -1.02118 0
M  V30 7502 O 708.15 -1.64956 -1.02485 0
M  V30 7503 C 705.28 -3.1482 -1.46648 0
M  V30 7504 C 704.234 -4.17691 -0.933717 0
M  V30 7505 C 703.56 -4.904 -2.13101 0
M  V30 7506 C 704.86 -5.2229 0.0317201 0
M  V30 7507 H 706.554 -2.97932 0.29614 0
M  V30 7508 H 704.1 -1.4328 0.143865 0
M  V30 7509 H 706.053 -3.69017 -2.03481 0
M  V30 7510 H 704.777 -2.4534 -2.15583 0
M  V30 7511 H 703.436 -3.64545 -0.387602 0
M  V30 7512 H 703.084 -4.17423 -2.80654 0
M  V30 7513 H 702.784 -5.59962 -1.78092 0
M  V30 7514 H 704.308 -5.4742 -2.70487 0
M  V30 7515 H 705.722 -5.7156 -0.446302 0
M  V30 7516 H 704.119 -5.99378 0.29437 0
M  V30 7517 H 705.189 -4.75131 0.968447 0
M  V30 7518 N 706.532 -0.168513 -1.56696 0
M  V30 7519 C 707.78 0.476216 -1.96409 0
M  V30 7520 C 708.101 1.63968 -1.05544 0
M  V30 7521 O 707.371 1.95525 -0.121235 0
M  V30 7522 H 705.951 0.178921 -0.725256 0
M  V30 7523 H 708.613 -0.249042 -1.93302 0
M  V30 7524 H 707.709 0.838094 -3.00637 0
M  V30 7525 N 708.01 1.57248 0.105221 0
M  V30 7526 C 708.94 2.04374 1.12931 0
M  V30 7527 C 709.921 0.93074 1.42377 0
M  V30 7528 O 711.106 1.20136 1.52581 0
M  V30 7529 C 708.236 2.45967 2.45189 0
M  V30 7530 C 707.19 3.60838 2.30174 0
M  V30 7531 C 706.516 3.88374 3.67518 0
M  V30 7532 C 707.816 4.92084 1.75073 0
M  V30 7533 H 709.51 2.9018 0.737287 0
M  V30 7534 H 707.056 1.39601 0.353211 0
M  V30 7535 H 709.009 2.77542 3.17094 0
M  V30 7536 H 707.733 1.57148 2.86308 0
M  V30 7537 H 706.392 3.29493 1.60716 0
M  V30 7538 H 706.04 2.96739 4.06147 0
M  V30 7539 H 705.74 4.65703 3.58321 0
M  V30 7540 H 707.264 4.22415 4.40906 0
M  V30 7541 H 708.678 5.22106 2.36809 0
M  V30 7542 H 707.075 5.73507 1.76662 0
M  V30 7543 H 708.145 4.79684 0.709347 0
M  V30 7544 N 709.488 -0.375779 1.53054 0
M  V30 7545 C 710.398 -1.48381 1.81715 0
M  V30 7546 C 711.414 -1.59087 0.704795 0
M  V30 7547 O 712.59 -1.75174 0.993785 0
M  V30 7548 C 709.655 -2.83767 1.99192 0
M  V30 7549 C 708.716 -2.82673 3.23102 0
M  V30 7550 C 707.949 -4.11601 3.39736 0
M  V30 7551 O 708.172 -5.07243 2.60885 0
M  V30 7552 O 707.106 -4.18034 4.33049 0
M  V30 7553 H 710.932 -1.27089 2.7583 0
M  V30 7554 H 708.517 -0.564902 1.38308 0
M  V30 7555 H 710.399 -3.64004 2.12318 0
M  V30 7556 H 709.074 -3.05057 1.08267 0
M  V30 7557 H 707.981 -2.0117 3.15407 0
M  V30 7558 H 709.314 -2.66335 4.13916 0
M  V30 7559 N 710.966 -1.44241 -0.634997 0
M  V30 7560 C 712.191 -1.50516 -1.42687 0
M  V30 7561 C 712.616 -0.129864 -1.87651 0
M  V30 7562 O 711.974 0.880164 -1.58502 0
M  V30 7563 C 712.022 -2.4714 -2.62591 0
M  V30 7564 O 711.126 -1.97025 -3.62291 0
M  V30 7565 H 710.467 -0.50841 -0.427101 0
M  V30 7566 H 712.997 -1.89337 -0.775408 0
M  V30 7567 H 713.007 -2.65048 -3.10183 0
M  V30 7568 H 711.682 -3.47039 -2.29209 0
M  V30 7569 H 710.259 -1.88866 -3.21534 0
M  V30 7570 N 712.444 0.87505 -1.31075 0
M  V30 7571 C 713.354 2.01441 -1.20244 0
M  V30 7572 C 714.37 1.73584 -0.120227 0
M  V30 7573 O 715.546 1.98559 -0.337063 0
M  V30 7574 C 712.611 3.34675 -0.905199 0
M  V30 7575 C 711.672 3.75889 -2.0738 0
M  V30 7576 C 710.905 5.02764 -1.79064 0
M  V30 7577 O 711.128 5.65795 -0.723318 0
M  V30 7578 O 710.062 5.40623 -2.64594 0
M  V30 7579 H 713.888 2.13509 -2.1598 0
M  V30 7580 H 711.473 1.00257 -1.10765 0
M  V30 7581 H 713.355 4.1458 -0.755057 0
M  V30 7582 H 712.03 3.23692 0.0221695 0
M  V30 7583 H 710.937 2.96645 -2.27931 0
M  V30 7584 H 712.27 3.91489 -2.98324 0
M  V30 7585 N 713.922 1.13953 1.08869 0
M  V30 7586 C 715.199 0.815768 1.77777 0
M  V30 7587 C 715.579 -0.691624 1.99449 0
M  V30 7588 O 714.927 -1.63085 1.60049 0
M  V30 7589 C 715.137 1.60916 3.09689 0
M  V30 7590 C 716.485 1.80549 3.84301 0
M  V30 7591 O 717.509 1.57562 3.19457 0
M  V30 7592 O 716.368 2.18946 5.00724 0
M  V30 7593 H 713.462 0.298445 0.771271 0
M  V30 7594 H 716.008 1.24446 1.15374 0
M  V30 7595 H 714.78 2.6333 2.89435 0
M  V30 7596 H 714.403 1.17578 3.79817 0
M  V30 7597 N 715.4 -1.26948 0.933913 0
M  V30 7598 C 716.816 -1.46419 0.635103 0
M  V30 7599 C 717.016 -1.84336 -0.813785 0
M  V30 7600 O 716.072 -1.96061 -1.59111 0
M  V30 7601 C 717.385 -2.55206 1.5903 0
M  V30 7602 C 718.933 -2.69062 1.5992 0
M  V30 7603 C 719.408 -3.81013 2.54152 0
M  V30 7604 N 720.899 -3.88395 2.52395 0
M  V30 7605 C 721.634 -4.74454 3.21996 0
M  V30 7606 N 721.13 -5.64954 4.00997 0
M  V30 7607 N 722.923 -4.68237 3.10983 0
M  V30 7608 H 715.074 -1.00622 1.87053 0
M  V30 7609 H 717.337 -0.503189 0.803433 0
M  V30 7610 H 717.043 -2.34153 2.62422 0
M  V30 7611 H 716.917 -3.52719 1.33677 0
M  V30 7612 H 719.304 -2.89492 0.572569 0
M  V30 7613 H 719.385 -1.72016 1.89325 0
M  V30 7614 H 719.029 -3.61336 3.5693 0
M  V30 7615 H 718.959 -4.77499 2.22041 0
M  V30 7616 H 721.45 -3.23687 1.95025 0
M  V30 7617 H 721.763 -6.27496 4.51074 0
M  V30 7618 H 720.108 -5.6473 4.05099 0
M  V30 7619 H 723.299 -3.96535 2.48753 0
M  V30 7620 H 723.472 -5.35087 3.65494 0
M  V30 7621 N 716.879 -0.700114 -1.41195 0
M  V30 7622 C 717.809 -0.0521132 -2.33442 0
M  V30 7623 C 718.79 0.76228 -1.52063 0
M  V30 7624 O 719.975 0.714336 -1.80585 0
M  V30 7625 C 717.105 0.881693 -3.35922 0
M  V30 7626 C 716.059 0.174062 -4.27646 0
M  V30 7627 C 715.385 1.22254 -5.20536 0
M  V30 7628 C 716.685 -0.962396 -5.13357 0
M  V30 7629 H 718.379 -0.822574 -2.87879 0
M  V30 7630 H 715.925 -0.397011 -1.38419 0
M  V30 7631 H 717.878 1.34429 -3.99383 0
M  V30 7632 H 716.602 1.68387 -2.79845 0
M  V30 7633 H 715.261 -0.268551 -3.65615 0
M  V30 7634 H 714.909 2.01736 -4.60773 0
M  V30 7635 H 714.609 0.754038 -5.82742 0
M  V30 7636 H 716.133 1.68555 -5.86874 0
M  V30 7637 H 717.547 -0.579875 -5.7036 0
M  V30 7638 H 715.944 -1.35828 -5.84526 0
M  V30 7639 H 717.014 -1.80003 -4.50252 0
M  V30 7640 N 718.357 1.51182 -0.445186 0
M  V30 7641 C 719.267 2.31692 0.368255 0
M  V30 7642 C 720.283 1.40942 1.02036 0
M  V30 7643 O 721.459 1.74011 1.01401 0
M  V30 7644 C 718.524 3.14903 1.45041 0
M  V30 7645 C 717.585 4.21442 0.817615 0
M  V30 7646 C 716.818 5.00677 1.8482 0
M  V30 7647 O 717.041 4.80644 3.07145 0
M  V30 7648 O 715.975 5.84559 1.43438 0
M  V30 7649 H 719.801 3.0232 -0.289219 0
M  V30 7650 H 717.386 1.47951 -0.207555 0
M  V30 7651 H 719.268 3.66612 2.07783 0
M  V30 7652 H 717.943 2.47031 2.09182 0
M  V30 7653 H 716.85 3.73791 0.151931 0
M  V30 7654 H 718.183 4.9171 0.219564 0
M  V30 7655 N 719.835 0.176821 1.56605 0
M  V30 7656 C 721.083 -0.465793 1.96659 0
M  V30 7657 C 721.404 -1.63406 1.06412 0
M  V30 7658 O 720.674 -1.95457 0.131603 0
M  V30 7659 H 719.254 -0.175072 0.726195 0
M  V30 7660 H 721.916 0.25929 1.93168 0
M  V30 7661 H 721.012 -0.822138 3.01077 0
M  V30 7662 N 721.313 -1.57302 -0.09688 0
M  V30 7663 C 722.26 -2.01933 -1.11766 0
M  V30 7664 C 723.23 -0.895329 -1.39904 0
M  V30 7665 O 724.415 -1.16119 -1.51397 0
M  V30 7666 C 721.555 -2.44726 -2.43317 0
M  V30 7667 C 720.668 -3.70639 -2.21925 0
M  V30 7668 C 719.803 -4.02318 -3.46862 0
M  V30 7669 C 718.842 -5.21346 -3.20725 0
M  V30 7670 N 717.979 -5.48787 -4.37924 0
M  V30 7671 H 722.819 -2.88919 -0.730075 0
M  V30 7672 H 720.356 -1.42901 -0.348962 0
M  V30 7673 H 722.314 -2.6758 -3.20088 0
M  V30 7674 H 720.944 -1.60753 -2.79926 0
M  V30 7675 H 719.996 -3.55271 -1.35965 0
M  V30 7676 H 721.308 -4.57557 -1.98603 0
M  V30 7677 H 720.462 -4.25939 -4.32042 0
M  V30 7678 H 719.201 -3.13918 -3.73238 0
M  V30 7679 H 718.206 -4.97547 -2.33938 0
M  V30 7680 H 719.431 -6.11343 -2.95697 0
M  V30 7681 H 717.377 -4.63346 -4.64378 0
M  V30 7682 H 717.294 -6.30073 -4.17785 0
M  V30 7683 H 718.562 -5.76943 -5.24173 0
M  V30 7684 N 722.791 0.367657 -1.53252 0
M  V30 7685 C 723.721 1.45632 -1.8252 0
M  V30 7686 C 724.702 1.55979 -0.678568 0
M  V30 7687 O 725.887 1.70581 -0.928217 0
M  V30 7688 C 723.017 2.82994 -2.01325 0
M  V30 7689 C 721.971 2.87473 -3.17086 0
M  V30 7690 C 721.297 4.2749 -3.21179 0
M  V30 7691 C 722.597 2.55182 -4.55719 0
M  V30 7692 H 724.291 1.21387 -2.73689 0
M  V30 7693 H 721.837 0.58251 -1.31692 0
M  V30 7694 H 723.79 3.59179 -2.20383 0
M  V30 7695 H 722.514 3.08622 -1.06864 0
M  V30 7696 H 721.173 2.13739 -2.97844 0
M  V30 7697 H 720.821 4.5019 -2.24361 0
M  V30 7698 H 720.521 4.31403 -3.98955 0
M  V30 7699 H 722.045 5.0555 -3.42419 0
M  V30 7700 H 723.459 3.21081 -4.74953 0
M  V30 7701 H 721.856 2.70414 -5.3572 0
M  V30 7702 H 722.926 1.5044 -4.60973 0
M  V30 7703 N 724.269 1.44576 0.627338 0
M  V30 7704 C 725.518 1.46837 1.38281 0
M  V30 7705 C 725.831 0.10635 1.95311 0
M  V30 7706 O 727.037 0.00651084 2.71499 0
M  V30 7707 C 725.493 2.58527 2.50384 0
M  V30 7708 C 725.101 4.00953 1.99851 0
M  V30 7709 C 726.845 2.70013 3.27557 0
M  V30 7710 C 724.752 5.0406 3.09318 0
M  V30 7711 H 723.682 0.546319 0.519664 0
M  V30 7712 H 726.333 1.70654 0.674497 0
M  V30 7713 H 724.715 2.27957 3.23808 0
M  V30 7714 H 725.889 4.41108 1.33267 0
M  V30 7715 H 724.204 3.93743 1.35482 0
M  V30 7716 H 726.801 3.44217 4.09168 0
M  V30 7717 H 727.144 1.75961 3.77284 0
M  V30 7718 H 727.677 3.00011 2.61224 0
M  V30 7719 H 724.416 5.99753 2.6453 0
M  V30 7720 H 723.936 4.68493 3.74532 0
M  V30 7721 H 725.615 5.2793 3.74031 0
M  V30 7722 N 725.747 -0.868086 1.31537 0
M  V30 7723 C 726.972 -1.65926 1.24432 0
M  V30 7724 C 727.397 -1.87169 -0.186936 0
M  V30 7725 O 726.755 -1.4148 -1.13371 0
M  V30 7726 C 726.803 -3.00347 1.9956 0
M  V30 7727 O 725.907 -3.90221 1.33422 0
M  V30 7728 H 725.248 -0.506375 0.429512 0
M  V30 7729 H 727.778 -1.0822 1.73637 0
M  V30 7730 H 727.788 -3.50269 2.09226 0
M  V30 7731 H 726.463 -2.84205 3.03645 0
M  V30 7732 H 725.04 -3.48672 1.32219 0
M  V30 7733 N 727.225 -1.14528 -1.08264 0
M  V30 7734 C 728.135 -0.84728 -2.18765 0
M  V30 7735 C 729.151 0.172826 -1.7314 0
M  V30 7736 O 730.327 0.000985336 -2.014 0
M  V30 7737 C 727.392 -0.330633 -3.4512 0
M  V30 7738 C 726.453 -1.41348 -4.05363 0
M  V30 7739 C 725.686 -0.921387 -5.25686 0
M  V30 7740 O 725.909 0.236587 -5.69909 0
M  V30 7741 O 724.843 -1.70101 -5.77364 0
M  V30 7742 H 728.669 -1.7708 -2.46731 0
M  V30 7743 H 726.254 -0.923661 -1.17426 0
M  V30 7744 H 728.136 -0.0485053 -4.21372 0
M  V30 7745 H 726.811 0.565147 -3.18728 0
M  V30 7746 H 725.718 -1.74908 -3.30693 0
M  V30 7747 H 727.051 -2.28383 -4.36007 0
M  V30 7748 N 728.703 1.26451 -0.940633 0
M  V30 7749 C 729.666 2.24651 -0.454378 0
M  V30 7750 C 730.666 1.54826 0.434222 0
M  V30 7751 O 731.856 1.72628 0.233477 0
M  V30 7752 C 728.988 3.39148 0.345192 0
M  V30 7753 H 730.181 2.69182 -1.32217 0
M  V30 7754 H 727.734 1.38596 -0.722547 0
M  V30 7755 H 728.469 3.00018 1.23125 0
M  V30 7756 H 728.254 3.9101 -0.292107 0
M  V30 7757 H 729.744 4.12103 0.675341 0
M  V30 7758 N 730.181 0.707592 1.40822 0
M  V30 7759 C 731.43 0.240705 2.00259 0
M  V30 7760 C 731.743 -1.17027 1.56729 0
M  V30 7761 O 732.949 -1.73526 2.08809 0
M  V30 7762 C 731.405 0.379432 3.57894 0
M  V30 7763 C 731.013 1.79654 4.104 0
M  V30 7764 C 732.757 -0.0270684 4.24491 0
M  V30 7765 C 730.664 1.88628 5.60512 0
M  V30 7766 H 729.594 0.0862369 0.749052 0
M  V30 7767 H 732.245 0.877528 1.61157 0
M  V30 7768 H 730.627 -0.325842 3.94657 0
M  V30 7769 H 731.801 2.53155 3.85032 0
M  V30 7770 H 730.116 2.15379 3.56372 0
M  V30 7771 H 732.713 0.0193743 5.34696 0
M  V30 7772 H 733.056 -1.06772 4.02375 0
M  V30 7773 H 733.589 0.628361 3.92806 0
M  V30 7774 H 730.328 2.90787 5.87472 0
M  V30 7775 H 729.848 1.19528 5.8777 0
M  V30 7776 H 731.527 1.6547 6.25483 0
M  V30 7777 N 731.66 -1.50943 0.453197 0
M  V30 7778 C 732.623 -2.26684 -0.338705 0
M  V30 7779 C 733.623 -1.30748 -0.936032 0
M  V30 7780 O 734.813 -1.54327 -0.808002 0
M  V30 7781 C 731.945 -3.07063 -1.48071 0
M  V30 7782 H 733.138 -2.98131 0.325289 0
M  V30 7783 H 730.691 -1.54926 0.206771 0
M  V30 7784 H 731.426 -2.4007 -2.18029 0
M  V30 7785 H 731.211 -3.77545 -1.0584 0
M  V30 7786 H 732.701 -3.64393 -2.0398 0
M  V30 7787 N 733.138 -0.185124 -1.56509 0
M  V30 7788 C 734.387 0.456421 -1.96468 0
M  V30 7789 C 734.7 1.63448 -1.07444 0
M  V30 7790 O 735.906 2.34316 -1.37143 0
M  V30 7791 C 734.362 0.863404 -3.4939 0
M  V30 7792 C 733.97 -0.289815 -4.47062 0
M  V30 7793 C 735.714 1.47259 -3.98139 0
M  V30 7794 C 733.621 0.137571 -5.9124 0
M  V30 7795 H 732.551 0.17429 -0.733579 0
M  V30 7796 H 735.202 -0.275554 -1.81419 0
M  V30 7797 H 733.584 1.65176 -3.59907 0
M  V30 7798 H 734.758 -1.06728 -4.4827 0
M  V30 7799 H 733.073 -0.809851 -4.08449 0
M  V30 7800 H 735.67 1.80463 -5.03326 0
M  V30 7801 H 736.013 2.3755 -3.41871 0
M  V30 7802 H 736.546 0.748405 -3.90696 0
M  V30 7803 H 733.285 -0.730907 -6.51412 0
M  V30 7804 H 732.805 0.8801 -5.93308 0
M  V30 7805 H 734.484 0.576771 -6.44424 0
M  V30 7806 N 734.616 1.57351 0.0885366 0
M  V30 7807 C 735.563 2.02523 1.10693 0
M  V30 7808 C 736.533 0.902736 1.39427 0
M  V30 7809 O 737.718 1.16921 1.50779 0
M  V30 7810 C 734.858 2.46013 2.42016 0
M  V30 7811 C 733.971 3.7181 2.19957 0
M  V30 7812 C 733.106 4.04152 3.44724 0
M  V30 7813 C 732.145 5.2304 3.17956 0
M  V30 7814 N 731.282 5.51102 4.35007 0
M  V30 7815 H 736.122 2.89302 0.714742 0
M  V30 7816 H 733.659 1.43084 0.341378 0
M  V30 7817 H 735.617 2.69274 3.18665 0
M  V30 7818 H 734.247 1.62235 2.79069 0
M  V30 7819 H 733.299 3.55987 1.34079 0
M  V30 7820 H 734.611 4.58604 1.96173 0
M  V30 7821 H 733.765 4.28225 4.29777 0
M  V30 7822 H 732.504 3.15893 3.71568 0
M  V30 7823 H 731.509 4.98781 2.31296 0
M  V30 7824 H 732.734 6.12902 2.92451 0
M  V30 7825 H 730.68 4.65802 4.61914 0
M  V30 7826 H 730.597 6.3228 4.14437 0
M  V30 7827 H 731.865 5.79714 5.21106 0
M  V30 7828 N 736.094 -0.359525 1.53444 0
M  V30 7829 C 737.004 -1.46445 1.83278 0
M  V30 7830 C 738.02 -1.5833 0.721629 0
M  V30 7831 O 739.196 -1.7411 1.01231 0
M  V30 7832 C 736.261 -2.81638 2.02191 0
M  V30 7833 C 735.322 -2.7923 3.26082 0
M  V30 7834 C 734.555 -4.07974 3.44082 0
M  V30 7835 O 734.778 -5.04447 2.66251 0
M  V30 7836 O 733.712 -4.13417 4.37458 0
M  V30 7837 H 737.538 -1.24156 2.77162 0
M  V30 7838 H 735.123 -0.550201 1.389 0
M  V30 7839 H 737.005 -3.61732 2.16167 0
M  V30 7840 H 735.68 -3.03892 1.11496 0
M  V30 7841 H 734.587 -1.97813 3.17523 0
M  V30 7842 H 735.92 -2.6193 4.16718 0
M  V30 7843 N 737.572 -1.44907 -0.619662 0
M  V30 7844 C 738.82 -1.47999 -1.37625 0
M  V30 7845 C 739.141 -0.118295 -1.94641 0
M  V30 7846 O 738.411 0.85086 -1.76457 0
M  V30 7847 H 736.991 -0.544993 -0.510873 0
M  V30 7848 H 739.653 -1.80772 -0.728522 0
M  V30 7849 H 738.749 -2.21196 -2.20179 0
M  V30 7850 N 739.05 0.861098 -1.31996 0
M  V30 7851 C 740.327 1.59788 -1.12814 0
M  V30 7852 C 740.707 2.08753 0.313882 0
M  V30 7853 O 740.055 1.87258 1.30946 0
M  V30 7854 C 740.265 2.74901 -2.15012 0
M  V30 7855 C 741.613 3.44643 -2.48004 0
M  V30 7856 O 742.637 2.85119 -2.13508 0
M  V30 7857 O 741.496 4.52044 -3.07113 0
M  V30 7858 H 738.59 0.703408 -0.434909 0
M  V30 7859 H 741.136 0.905788 -1.43505 0
M  V30 7860 H 739.908 2.36198 -3.11971 0
M  V30 7861 H 739.531 3.51792 -1.85279 0
M  V30 7862 N 740.528 1.15101 1.07655 0
M  V30 7863 C 741.775 0.923974 1.80191 0
M  V30 7864 C 742.103 -0.549065 1.86589 0
M  V30 7865 O 741.358 -1.42307 1.3434 0
M  V30 7866 C 741.657 1.47954 3.25337 0
M  V30 7867 C 741.323 2.97253 3.39044 0
M  V30 7868 C 739.985 3.38012 3.42493 0
M  V30 7869 C 742.337 3.93219 3.42094 0
M  V30 7870 C 739.665 4.73384 3.4659 0
M  V30 7871 C 742.017 5.28458 3.47728 0
M  V30 7872 C 740.681 5.68717 3.49453 0
M  V30 7873 H 739.951 0.338106 0.659367 0
M  V30 7874 H 742.598 1.43594 1.26701 0
M  V30 7875 H 740.903 0.888691 3.81588 0
M  V30 7876 H 742.6 1.27972 3.80032 0
M  V30 7877 H 739.19 2.64746 3.37057 0
M  V30 7878 H 743.374 3.62805 3.38654 0
M  V30 7879 H 738.63 5.03925 3.46222 0
M  V30 7880 H 742.804 6.02618 3.49034 0
M  V30 7881 H 740.431 6.73596 3.5238 0
M  V30 7882 N 742.006 -1.2595 0.947325 0
M  V30 7883 C 743.231 -1.98083 0.614633 0
M  V30 7884 C 743.656 -1.70013 -0.804815 0
M  V30 7885 O 743.014 -0.95175 -1.54309 0
M  V30 7886 C 743.062 -3.4993 0.870706 0
M  V30 7887 O 742.166 -4.12364 -0.0541451 0
M  V30 7888 H 741.507 -0.621232 0.234451 0
M  V30 7889 H 744.037 -1.60259 1.27193 0
M  V30 7890 H 744.047 -4.00198 0.794051 0
M  V30 7891 H 742.722 -3.69691 1.90529 0
M  V30 7892 H 741.299 -3.72826 0.0740917 0
M  V30 7893 N 743.484 -0.715051 -1.40445 0
M  V30 7894 C 744.431 -0.0621393 -2.30716 0
M  V30 7895 C 745.401 0.750871 -1.48159 0
M  V30 7896 O 746.586 0.714928 -1.76899 0
M  V30 7897 C 743.726 0.854036 -3.34365 0
M  V30 7898 C 742.839 0.0305565 -4.31989 0
M  V30 7899 C 741.974 0.946162 -5.22706 0
M  V30 7900 C 741.013 0.116741 -6.11989 0
M  V30 7901 N 740.15 0.987194 -6.95125 0
M  V30 7902 H 744.99 -0.83764 -2.85985 0
M  V30 7903 H 742.527 -0.424759 -1.40834 0
M  V30 7904 H 744.485 1.39946 -3.93028 0
M  V30 7905 H 743.115 1.59572 -2.806 0
M  V30 7906 H 742.167 -0.632044 -3.75112 0
M  V30 7907 H 743.479 -0.611615 -4.95036 0
M  V30 7908 H 742.633 1.56014 -5.86297 0
M  V30 7909 H 741.372 1.62216 -4.59932 0
M  V30 7910 H 740.377 -0.510176 -5.47428 0
M  V30 7911 H 741.602 -0.555742 -6.76822 0
M  V30 7912 H 739.548 1.64885 -6.3494 0
M  V30 7913 H 739.465 0.401046 -7.54936 0
M  V30 7914 H 740.733 1.58737 -7.63166 0
M  V30 7915 N 744.962 1.50701 -0.461195 0
M  V30 7916 C 746.208 2.03203 0.0895017 0
M  V30 7917 C 746.563 1.33768 1.38289 0
M  V30 7918 O 745.856 0.451304 1.86209 0
M  V30 7919 C 746.05 3.55788 0.33908 0
M  V30 7920 C 745.879 4.40009 -0.928571 0
M  V30 7921 C 744.649 4.83475 -1.46903 0
M  V30 7922 C 746.847 4.80972 -1.82129 0
M  V30 7923 N 744.829 5.51985 -2.68673 0
M  V30 7924 C 746.2 5.48792 -2.88491 0
M  V30 7925 C 748.255 4.62937 -1.83285 0
M  V30 7926 C 746.958 6.00489 -3.95987 0
M  V30 7927 C 748.984 5.15568 -2.89731 0
M  V30 7928 C 748.346 5.83355 -3.94812 0
M  V30 7929 H 744.445 0.781968 -0.00702462 0
M  V30 7930 H 747.029 1.84321 -0.627195 0
M  V30 7931 H 745.2 3.74636 1.02481 0
M  V30 7932 H 746.932 3.94944 0.883242 0
M  V30 7933 H 743.687 4.62495 -1.01959 0
M  V30 7934 H 744.111 5.90854 -3.30486 0
M  V30 7935 H 748.753 4.0997 -1.03366 0
M  V30 7936 H 746.471 6.52499 -4.7673 0
M  V30 7937 H 750.057 5.0345 -2.91597 0
M  V30 7938 H 748.937 6.23347 -4.75824 0
M  V30 7939 N 746.441 0.193421 1.56409 0
M  V30 7940 C 747.681 -0.447977 1.9943 0
M  V30 7941 C 748.045 -1.58915 1.07751 0
M  V30 7942 O 749.246 -2.29462 1.40002 0
M  V30 7943 C 747.517 -0.89793 3.45936 0
M  V30 7944 S 749.076 -1.5374 4.10986 0
M  V30 7945 H 745.894 -0.143316 0.696406 0
M  V30 7946 H 748.496 0.296093 1.93245 0
M  V30 7947 H 747.2 -0.0572927 4.1036 0
M  V30 7948 H 746.731 -1.67551 3.55936 0
M  V30 7949 H 748.746 -2.82612 4.07854 0
M  V30 7950 N 747.919 -1.57396 -0.0801906 0
M  V30 7951 C 748.851 -1.9982 -1.12271 0
M  V30 7952 C 749.864 -0.902902 -1.35468 0
M  V30 7953 O 751.053 -1.18088 -1.33856 0
M  V30 7954 C 748.153 -2.31476 -2.47532 0
M  V30 7955 C 747.326 -3.62745 -2.44407 0
M  V30 7956 C 746.385 -3.82168 -3.6171 0
M  V30 7957 O 745.411 -4.53852 -3.43522 0
M  V30 7958 N 746.613 -3.2388 -4.81749 0
M  V30 7959 H 749.378 -2.89864 -0.761501 0
M  V30 7960 H 746.939 -1.5965 -0.268965 0
M  V30 7961 H 748.931 -2.4165 -3.24634 0
M  V30 7962 H 747.501 -1.47364 -2.75686 0
M  V30 7963 H 746.721 -3.63403 -1.52747 0
M  V30 7964 H 748.009 -4.48954 -2.39412 0
M  V30 7965 H 747.407 -2.6568 -4.9943 0
M  V30 7966 H 745.964 -3.39515 -5.56392 0
M  V30 7967 N 749.397 0.351382 -1.53633 0
M  V30 7968 C 750.674 1.10903 -1.6112 0
M  V30 7969 C 751.054 2.06725 -0.427556 0
M  V30 7970 O 750.402 2.20992 0.580916 0
M  V30 7971 C 750.612 1.83561 -2.96827 0
M  V30 7972 C 751.96 2.37587 -3.51906 0
M  V30 7973 O 752.984 1.93669 -2.9895 0
M  V30 7974 O 751.843 3.17913 -4.44515 0
M  V30 7975 H 748.937 0.509558 -0.651368 0
M  V30 7976 H 751.483 0.353504 -1.65977 0
M  V30 7977 H 750.255 1.1371 -3.74414 0
M  V30 7978 H 749.878 2.6599 -2.95525 0
M  V30 7979 N 750.875 1.45233 0.611969 0
M  V30 7980 C 751.838 1.53189 1.70487 0
M  V30 7981 C 752.838 0.411839 1.55437 0
M  V30 7982 O 754.028 0.675164 1.60584 0
M  V30 7983 C 751.16 1.42422 3.09723 0
M  V30 7984 H 752.353 2.5056 1.64802 0
M  V30 7985 H 749.906 1.32609 0.827318 0
M  V30 7986 H 750.641 0.462185 3.2099 0
M  V30 7987 H 750.426 2.23658 3.22055 0
M  V30 7988 H 751.916 1.51012 3.89339 0
M  V30 7989 N 752.353 -0.854086 1.3245 0
M  V30 7990 C 753.283 -1.97827 1.24044 0
M  V30 7991 C 754.264 -1.69646 0.124166 0
M  V30 7992 O 755.449 -1.91687 0.31143 0
M  V30 7993 C 752.579 -3.33673 0.963324 0
M  V30 7994 C 751.533 -3.76207 2.04089 0
M  V30 7995 C 750.859 -5.0969 1.61618 0
M  V30 7996 C 752.159 -3.91612 3.45597 0
M  V30 7997 H 753.853 -2.05118 2.18099 0
M  V30 7998 H 751.399 -0.985489 1.04996 0
M  V30 7999 H 753.352 -4.11871 0.891061 0
M  V30 8000 H 752.076 -3.26597 -0.0128649 0
M  V30 8001 H 750.735 -3.0026 2.10332 0
M  V30 8002 H 750.383 -4.99072 0.627418 0
M  V30 8003 H 750.083 -5.3912 2.33717 0
M  V30 8004 H 751.607 -5.90381 1.55829 0
M  V30 8005 H 753.021 -4.60163 3.4194 0
M  V30 8006 H 751.418 -4.3246 4.16051 0
M  V30 8007 H 752.488 -2.9451 3.85217 0
M  V30 8008 N 753.831 -1.1567 -1.07043 0
M  V30 8009 C 754.781 -0.824733 -2.12561 0
M  V30 8010 C 755.765 0.19243 -1.59745 0
M  V30 8011 O 756.957 -0.00728759 -1.76998 0
M  V30 8012 C 754.086 -0.31921 -3.41813 0
M  V30 8013 C 753.172 -1.36671 -4.01475 0
M  V30 8014 N 753.563 -2.57493 -4.35351 0
M  V30 8015 C 751.861 -1.22018 -4.28984 0
M  V30 8016 C 752.562 -3.24658 -4.82672 0
M  V30 8017 N 751.538 -2.52043 -4.81638 0
M  V30 8018 H 755.34 -1.74363 -2.3659 0
M  V30 8019 H 752.854 -1.04262 -1.24511 0
M  V30 8020 H 754.851 -0.0630216 -4.16852 0
M  V30 8021 H 753.511 0.593708 -3.19226 0
M  V30 8022 H 754.522 -2.94612 -4.25939 0
M  V30 8023 H 751.199 -0.367414 -4.1588 0
M  V30 8024 H 752.589 -4.2775 -5.1815 0
M  V30 8025 N 755.309 1.25446 -0.953992 0
M  V30 8026 C 756.557 1.92762 -0.607227 0
M  V30 8027 C 756.878 1.7509 0.858399 0
M  V30 8028 O 756.148 1.11416 1.61132 0
M  V30 8029 H 754.728 0.713377 -0.221591 0
M  V30 8030 H 757.39 1.52625 -1.21209 0
M  V30 8031 H 756.486 3.00695 -0.835998 0
M  V30 8032 N 756.787 0.722489 1.40064 0
M  V30 8033 C 758.015 0.274838 2.05066 0
M  V30 8034 C 758.43 -1.08586 1.54449 0
M  V30 8035 O 757.787 -1.68375 0.704003 0
M  V30 8036 C 757.838 0.253673 3.60609 0
M  V30 8037 O 757.559 1.56064 4.0936 0
M  V30 8038 C 759.06 -0.211684 4.42794 0
M  V30 8039 H 756.28 0.12226 0.659768 0
M  V30 8040 H 758.824 0.982632 1.79345 0
M  V30 8041 H 756.979 -0.405137 3.85276 0
M  V30 8042 H 757.393 1.46576 5.03603 0
M  V30 8043 H 758.867 -0.175341 5.51721 0
M  V30 8044 H 759.344 -1.25493 4.2089 0
M  V30 8045 H 759.95 0.4171 4.2325 0
M  V30 8046 N 758.265 -1.50454 0.469181 0
M  V30 8047 C 759.542 -1.9504 -0.147955 0
M  V30 8048 C 759.922 -1.40946 -1.57154 0
M  V30 8049 O 759.27 -0.609663 -2.20217 0
M  V30 8050 C 759.48 -3.48875 -0.0932198 0
M  V30 8051 C 760.828 -4.23655 -0.283056 0
M  V30 8052 O 761.852 -3.55795 -0.169892 0
M  V30 8053 O 760.711 -5.44102 -0.511396 0
M  V30 8054 H 757.805 -0.819283 -0.11271 0
M  V30 8055 H 760.351 -1.6123 0.529446 0
M  V30 8056 H 759.123 -3.80791 0.900784 0
M  V30 8057 H 758.746 -3.89217 -0.812161 0
M  V30 8058 N 759.743 -0.201713 -1.56304 0
M  V30 8059 C 760.673 0.71155 -2.22394 0
M  V30 8060 C 761.654 1.21625 -1.18917 0
M  V30 8061 O 762.839 1.26388 -1.47444 0
M  V30 8062 C 759.969 1.92837 -2.88845 0
M  V30 8063 C 758.923 1.55831 -3.98623 0
M  V30 8064 C 758.249 2.85228 -4.52271 0
M  V30 8065 C 759.549 0.763249 -5.16693 0
M  V30 8066 H 761.243 0.160573 -2.98969 0
M  V30 8067 H 758.789 0.0757916 -1.438 0
M  V30 8068 H 760.742 2.57253 -3.33764 0
M  V30 8069 H 759.466 2.50398 -2.09686 0
M  V30 8070 H 758.125 0.9377 -3.54405 0
M  V30 8071 H 757.773 3.40893 -3.69866 0
M  V30 8072 H 757.473 2.6121 -5.26349 0
M  V30 8073 H 758.997 3.50622 -4.99897 0
M  V30 8074 H 760.411 1.31066 -5.58117 0
M  V30 8075 H 758.808 0.620935 -5.96879 0
M  V30 8076 H 759.878 -0.234322 -4.84334 0
M  V30 8077 N 761.222 1.57436 0.0718424 0
M  V30 8078 C 762.169 2.03686 1.08539 0
M  V30 8079 C 763.139 0.917474 1.38462 0
M  V30 8080 O 764.324 1.18513 1.4953 0
M  V30 8081 C 761.464 2.48566 2.39393 0
M  V30 8082 C 760.577 3.74122 2.16001 0
M  V30 8083 C 759.712 4.07786 3.40418 0
M  V30 8084 C 758.751 5.26383 3.1239 0
M  V30 8085 N 757.888 5.55685 4.29138 0
M  V30 8086 H 762.728 2.90043 0.684018 0
M  V30 8087 H 760.265 1.43438 0.326183 0
M  V30 8088 H 762.223 2.72639 3.15791 0
M  V30 8089 H 760.853 1.65186 2.77333 0
M  V30 8090 H 759.905 3.57389 1.30296 0
M  V30 8091 H 761.217 4.60659 1.91298 0
M  V30 8092 H 760.371 4.32759 4.25211 0
M  V30 8093 H 759.11 3.19817 3.68197 0
M  V30 8094 H 758.115 5.01206 2.25993 0
M  V30 8095 H 759.34 6.1597 2.85934 0
M  V30 8096 H 757.286 4.70675 4.56948 0
M  V30 8097 H 757.203 6.3664 4.07708 0
M  V30 8098 H 758.471 5.85209 5.14928 0
M  V30 8099 N 762.7 -0.34323 1.53817 0
M  V30 8100 C 763.948 -1.0813 1.70741 0
M  V30 8101 C 764.269 -1.89165 0.473461 0
M  V30 8102 O 763.539 -1.89075 -0.512605 0
M  V30 8103 H 762.119 -0.40219 0.629486 0
M  V30 8104 H 764.781 -0.384426 1.91071 0
M  V30 8105 H 763.877 -1.7585 2.57843 0
M  V30 8106 N 764.178 -1.45556 -0.604258 0
M  V30 8107 C 765.594 -1.30035 -0.925368 0
M  V30 8108 C 765.794 -0.255833 -1.99869 0
M  V30 8109 O 764.85 0.349076 -2.50075 0
M  V30 8110 C 766.163 -2.68028 -1.36314 0
M  V30 8111 C 767.711 -2.75951 -1.47717 0
M  V30 8112 C 768.186 -4.14476 -1.94868 0
M  V30 8113 N 769.677 -4.16787 -2.02097 0
M  V30 8114 C 770.412 -5.20845 -2.39809 0
M  V30 8115 N 769.908 -6.35246 -2.76467 0
M  V30 8116 N 771.701 -5.08204 -2.40177 0
M  V30 8117 H 763.852 -2.1214 0.10512 0
M  V30 8118 H 766.115 -0.947871 -0.0156303 0
M  V30 8119 H 765.821 -3.45667 -0.648628 0
M  V30 8120 H 765.695 -2.96711 -2.329 0
M  V30 8121 H 768.082 -1.98613 -2.18258 0
M  V30 8122 H 768.163 -2.50977 -0.494371 0
M  V30 8123 H 767.807 -4.923 -1.24912 0
M  V30 8124 H 767.737 -4.36843 -2.94068 0
M  V30 8125 H 770.228 -3.34233 -1.76343 0
M  V30 8126 H 770.541 -7.10438 -3.04134 0
M  V30 8127 H 768.886 -6.38642 -2.74155 0
M  V30 8128 H 772.077 -4.17874 -2.10947 0
M  V30 8129 H 772.25 -5.89417 -2.69242 0
M  V30 8130 N 765.656 0.84705 -1.32902 0
M  V30 8131 C 766.588 1.96308 -1.18304 0
M  V30 8132 C 767.601 1.62386 -0.116082 0
M  V30 8133 O 768.79 1.74713 -0.365751 0
M  V30 8134 C 765.89 3.29556 -0.790305 0
M  V30 8135 C 765.063 3.91668 -1.94717 0
M  V30 8136 C 764.122 5.0326 -1.53674 0
M  V30 8137 O 763.148 5.22847 -2.24989 0
M  V30 8138 N 764.35 5.78852 -0.437075 0
M  V30 8139 H 767.115 2.09369 -2.14441 0
M  V30 8140 H 764.676 1.02233 -1.25539 0
M  V30 8141 H 766.668 4.01624 -0.49799 0
M  V30 8142 H 765.238 3.12497 0.0801286 0
M  V30 8143 H 764.458 3.12292 -2.40557 0
M  V30 8144 H 765.746 4.299 -2.72146 0
M  V30 8145 H 765.144 5.65484 0.156316 0
M  V30 8146 H 763.701 6.51479 -0.204399 0
M  V30 8147 N 767.134 1.16236 1.06428 0
M  V30 8148 C 768.066 0.825446 2.1382 0
M  V30 8149 C 769.079 -0.166707 1.61944 0
M  V30 8150 O 770.268 0.0578606 1.78406 0
M  V30 8151 C 767.368 0.208023 3.38261 0
M  V30 8152 C 766.541 1.23994 4.19457 0
M  V30 8153 C 765.6 0.642569 5.22262 0
M  V30 8154 O 764.626 1.31106 5.53895 0
M  V30 8155 N 765.828 -0.571327 5.77682 0
M  V30 8156 H 768.593 1.7497 2.43322 0
M  V30 8157 H 766.154 1.05951 1.22417 0
M  V30 8158 H 768.146 -0.204608 4.04182 0
M  V30 8159 H 766.716 -0.619752 3.06395 0
M  V30 8160 H 765.936 1.82879 3.49212 0
M  V30 8161 H 767.224 1.93638 4.70512 0
M  V30 8162 H 766.622 -1.13263 5.54245 0
M  V30 8163 H 765.179 -0.926187 6.45186 0
M  V30 8164 N 768.612 -1.24939 0.960631 0
M  V30 8165 C 769.842 -1.96595 0.635123 0
M  V30 8166 C 770.25 -1.71538 -0.798206 0
M  V30 8167 O 769.593 -0.991727 -1.5463 0
M  V30 8168 C 769.655 -3.49994 0.821248 0
M  V30 8169 C 769.319 -3.98738 2.23287 0
M  V30 8170 C 770.316 -4.08965 3.21004 0
M  V30 8171 C 768.001 -4.32247 2.55867 0
M  V30 8172 C 769.995 -4.52025 4.49391 0
M  V30 8173 C 767.682 -4.74991 3.84482 0
M  V30 8174 C 768.68 -4.84844 4.81056 0
M  V30 8175 O 768.368 -5.26638 6.07378 0
M  V30 8176 H 768.1 -0.633265 0.23654 0
M  V30 8177 H 770.654 -1.5991 1.28911 0
M  V30 8178 H 768.884 -3.86543 0.110105 0
M  V30 8179 H 770.573 -4.02859 0.495892 0
M  V30 8180 H 771.339 -3.83302 2.97161 0
M  V30 8181 H 767.218 -4.23801 1.81421 0
M  V30 8182 H 770.762 -4.5963 5.24773 0
M  V30 8183 H 766.659 -5.00101 4.08129 0
M  V30 8184 H 767.427 -5.44807 6.10842 0
M  V30 8185 N 770.09 -0.729906 -1.39679 0
M  V30 8186 C 771.32 -0.285295 -2.04621 0
M  V30 8187 C 771.728 1.08304 -1.55135 0
M  V30 8188 O 771.071 1.6946 -0.709146 0
M  V30 8189 C 771.133 -0.203129 -3.58926 0
M  V30 8190 C 770.797 -1.50909 -4.31365 0
M  V30 8191 C 771.794 -2.45381 -4.58349 0
M  V30 8192 C 769.479 -1.77198 -4.70007 0
M  V30 8193 C 771.473 -3.64379 -5.22979 0
M  V30 8194 C 769.16 -2.96474 -5.34365 0
M  V30 8195 C 770.158 -3.89886 -5.60783 0
M  V30 8196 O 769.846 -5.07069 -6.23808 0
M  V30 8197 H 769.578 -0.123373 -0.664647 0
M  V30 8198 H 772.132 -0.992901 -1.79807 0
M  V30 8199 H 770.362 0.560538 -3.82616 0
M  V30 8200 H 772.051 0.208811 -4.05363 0
M  V30 8201 H 772.817 -2.2634 -4.28947 0
M  V30 8202 H 768.696 -1.05337 -4.48804 0
M  V30 8203 H 772.24 -4.37307 -5.43515 0
M  V30 8204 H 768.137 -3.15419 -5.63188 0
M  V30 8205 H 768.905 -5.07335 -6.42303 0
M  V30 8206 N 771.568 1.50203 -0.477153 0
M  V30 8207 C 772.979 1.86685 -0.0235041 0
M  V30 8208 C 773.33 1.39148 1.38319 0
M  V30 8209 O 772.455 0.759051 2.02651 0
M  V30 8210 C 773.05 3.38781 -0.0358767 0
M  V30 8211 C 771.609 3.74652 0.362327 0
M  V30 8212 C 770.756 2.7412 -0.41875 0
M  V30 8213 H 773.707 1.4286 -0.691133 0
M  V30 8214 H 773.728 3.72732 0.764924 0
M  V30 8215 H 773.24 3.73349 -1.05981 0
M  V30 8216 H 771.341 3.45686 1.39039 0
M  V30 8217 H 771.454 4.79063 0.059457 0
M  V30 8218 H 769.818 2.54376 0.128341 0
M  V30 8219 H 770.601 3.11532 -1.44231 0
M  V30 8220 N 773.046 0.209999 1.56195 0
M  V30 8221 C 774.323 -0.473214 1.89789 0
M  V30 8222 C 774.703 -1.78581 1.1257 0
M  V30 8223 O 774.051 -2.27325 0.231398 0
M  V30 8224 C 774.261 -0.677458 3.42362 0
M  V30 8225 C 775.609 -0.990114 4.12895 0
M  V30 8226 O 776.633 -0.764655 3.47896 0
M  V30 8227 O 775.492 -1.41737 5.278 0
M  V30 8228 H 772.586 -0.248622 0.788743 0
M  V30 8229 H 775.132 0.251324 1.67829 0
M  V30 8230 H 773.904 0.248878 3.90508 0
M  V30 8231 H 773.527 -1.45391 3.70064 0
M  V30 8232 N 774.524 -1.57472 -0.0634922 0
M  V30 8233 C 775.94 -1.54016 -0.418466 0
M  V30 8234 C 776.14 -0.931376 -1.78683 0
M  V30 8235 O 775.196 -0.537465 -2.46714 0
M  V30 8236 C 776.509 -2.98634 -0.351906 0
M  V30 8237 C 778.057 -3.10012 -0.431494 0
M  V30 8238 C 778.532 -4.56296 -0.394754 0
M  V30 8239 N 780.023 -4.60964 -0.454583 0
M  V30 8240 C 780.758 -5.71643 -0.448501 0
M  V30 8241 N 780.254 -6.91663 -0.396742 0
M  V30 8242 N 782.047 -5.5991 -0.495677 0
M  V30 8243 H 774.198 -1.95409 0.832408 0
M  V30 8244 H 776.461 -0.894769 0.313197 0
M  V30 8245 H 776.167 -3.46766 0.587048 0
M  V30 8246 H 776.041 -3.58955 -1.15893 0
M  V30 8247 H 778.428 -2.61848 -1.36087 0
M  V30 8248 H 778.509 -2.52585 0.404258 0
M  V30 8249 H 778.153 -5.05119 0.530811 0
M  V30 8250 H 778.083 -5.11594 -1.24815 0
M  V30 8251 H 780.574 -3.74598 -0.498496 0
M  V30 8252 H 780.887 -7.71783 -0.396256 0
M  V30 8253 H 779.232 -6.9405 -0.363304 0
M  V30 8254 H 782.423 -4.65046 -0.533864 0
M  V30 8255 H 782.596 -6.46164 -0.487469 0
M  V30 8256 N 776.003 0.335068 -1.53997 0
M  V30 8257 C 777.231 1.09418 -1.756 0
M  V30 8258 C 777.646 1.82083 -0.499138 0
M  V30 8259 O 777.003 1.74646 0.529631 0
M  V30 8260 C 777.054 2.10115 -2.94166 0
M  V30 8261 O 776.775 1.40404 -4.14992 0
M  V30 8262 C 778.276 2.98336 -3.27888 0
M  V30 8263 H 775.496 0.32595 -0.586513 0
M  V30 8264 H 778.04 0.384693 -2.00849 0
M  V30 8265 H 776.195 2.76616 -2.71224 0
M  V30 8266 H 776.609 2.07743 -4.81605 0
M  V30 8267 H 778.083 3.6491 -4.1418 0
M  V30 8268 H 778.56 3.64814 -2.44556 0
M  V30 8269 H 779.166 2.37412 -3.52868 0
M  V30 8270 N 777.481 1.45874 0.596531 0
M  V30 8271 C 778.411 1.5824 1.71705 0
M  V30 8272 C 779.392 0.433366 1.64487 0
M  V30 8273 O 780.577 0.657895 1.82717 0
M  V30 8274 C 777.707 1.55927 3.10329 0
M  V30 8275 C 776.661 2.69659 3.32367 0
M  V30 8276 C 775.987 2.52403 4.71377 0
M  V30 8277 C 777.287 4.11591 3.21544 0
M  V30 8278 H 778.981 2.52035 1.61613 0
M  V30 8279 H 776.527 1.21297 0.776082 0
M  V30 8280 H 778.48 1.63173 3.88526 0
M  V30 8281 H 777.204 0.586674 3.21288 0
M  V30 8282 H 775.863 2.61859 2.56564 0
M  V30 8283 H 775.511 1.53258 4.79083 0
M  V30 8284 H 775.211 3.28679 4.87077 0
M  V30 8285 H 776.735 2.6152 5.5176 0
M  V30 8286 H 778.149 4.20576 3.89601 0
M  V30 8287 H 776.546 4.88344 3.4877 0
M  V30 8288 H 777.616 4.32719 2.1882 0
M  V30 8289 N 778.959 -0.83999 1.33349 0
M  V30 8290 C 780.205 -1.59753 1.24927 0
M  V30 8291 C 780.538 -1.93318 -0.184855 0
M  V30 8292 O 779.813 -1.586 -1.12589 0
M  V30 8293 C 780.096 -2.90829 2.12345 0
M  V30 8294 C 779.949 -2.63953 3.6421 0
M  V30 8295 C 781.268 -3.92246 1.99577 0
M  V30 8296 H 778.387 -0.579654 0.45516 0
M  V30 8297 H 781.029 -0.968909 1.63439 0
M  V30 8298 H 779.179 -3.44478 1.79631 0
M  V30 8299 H 780.851 -2.16745 4.07209 0
M  V30 8300 H 779.094 -1.97671 3.86146 0
M  V30 8301 H 779.765 -3.57348 4.20721 0
M  V30 8302 H 782.241 -3.479 2.28265 0
M  V30 8303 H 781.117 -4.81793 2.62996 0
M  V30 8304 H 781.378 -4.3138 0.967673 0
M  V30 8305 N 780.437 -1.16799 -1.0581 0
M  V30 8306 C 781.662 -0.977402 -1.82925 0
M  V30 8307 C 782.087 0.469514 -1.82146 0
M  V30 8308 O 781.445 1.33576 -1.22585 0
M  V30 8309 C 781.493 -1.51543 -3.27211 0
M  V30 8310 O 780.597 -0.725021 -4.05977 0
M  V30 8311 H 779.938 -0.347474 -0.565825 0
M  V30 8312 H 782.468 -1.55151 -1.33376 0
M  V30 8313 H 782.478 -1.53502 -3.78023 0
M  V30 8314 H 781.153 -2.56872 -3.27093 0
M  V30 8315 H 779.73 -0.77634 -3.64729 0
M  V30 8316 N 781.915 1.24427 -0.967243 0
M  V30 8317 C 783.143 1.96541 -0.646477 0
M  V30 8318 C 783.558 1.71753 0.783996 0
M  V30 8319 O 782.915 1.00102 1.52597 0
M  V30 8320 C 782.966 3.4983 -0.911098 0
M  V30 8321 O 782.687 3.7377 -2.28534 0
M  V30 8322 C 784.188 4.3916 -0.604458 0
M  V30 8323 H 781.408 0.626129 -0.241255 0
M  V30 8324 H 783.952 1.58268 -1.29505 0
M  V30 8325 H 782.107 3.86168 -0.308741 0
M  V30 8326 H 782.521 4.68154 -2.365 0
M  V30 8327 H 783.995 5.4557 -0.840069 0
M  V30 8328 H 784.472 4.36771 0.461273 0
M  V30 8329 H 785.078 4.08409 -1.1867 0
M  V30 8330 N 783.393 0.737304 1.3929 0
M  V30 8331 C 784.303 0.100464 2.34385 0
M  V30 8332 C 785.319 -0.719282 1.58437 0
M  V30 8333 O 786.495 -0.647216 1.90717 0
M  V30 8334 C 783.56 -0.794325 3.37478 0
M  V30 8335 C 782.621 0.0379345 4.29283 0
M  V30 8336 C 781.854 -0.814241 5.27452 0
M  V30 8337 O 782.077 -2.05288 5.32177 0
M  V30 8338 O 781.011 -0.241679 6.01415 0
M  V30 8339 H 784.837 0.885407 2.90507 0
M  V30 8340 H 782.422 0.497999 1.40856 0
M  V30 8341 H 784.304 -1.30622 4.00644 0
M  V30 8342 H 782.979 -1.55804 2.83737 0
M  V30 8343 H 781.886 0.595405 3.69331 0
M  V30 8344 H 783.219 0.763926 4.86236 0
M  V30 8345 N 784.871 -1.49948 0.485112 0
M  V30 8346 C 785.834 -2.27351 -0.290546 0
M  V30 8347 C 786.834 -1.32704 -0.908087 0
M  V30 8348 O 788.024 -1.56007 -0.775085 0
M  V30 8349 C 785.156 -3.10135 -1.41524 0
M  V30 8350 H 786.349 -2.97374 0.388454 0
M  V30 8351 H 783.902 -1.54453 0.239586 0
M  V30 8352 H 784.637 -2.44641 -2.12888 0
M  V30 8353 H 784.422 -3.79705 -0.978074 0
M  V30 8354 H 785.912 -3.68638 -1.96204 0
M  V30 8355 N 786.349 -0.21828 -1.56081 0
M  V30 8356 C 787.312 0.679633 -2.18892 0
M  V30 8357 C 788.312 1.12405 -1.14986 0
M  V30 8358 O 789.502 1.03339 -1.40238 0
M  V30 8359 C 786.634 1.93063 -2.80962 0
M  V30 8360 H 787.827 0.132066 -2.99609 0
M  V30 8361 H 785.38 0.0313374 -1.56269 0
M  V30 8362 H 786.115 2.52015 -2.04106 0
M  V30 8363 H 785.9 1.62046 -3.57048 0
M  V30 8364 H 787.39 2.57043 -3.29118 0
M  V30 8365 N 787.827 1.57504 0.0551401 0
M  V30 8366 C 788.759 2.0158 1.09078 0
M  V30 8367 C 789.772 0.92434 1.34014 0
M  V30 8368 O 790.961 1.20202 1.31961 0
M  V30 8369 C 788.061 2.35385 2.43818 0
M  V30 8370 C 787.234 3.66588 2.38605 0
M  V30 8371 C 786.293 3.87874 3.55585 0
M  V30 8372 O 785.319 4.59259 3.36258 0
M  V30 8373 N 786.521 3.31503 4.76536 0
M  V30 8374 H 789.286 2.91039 0.71529 0
M  V30 8375 H 786.847 1.60058 0.243532 0
M  V30 8376 H 788.839 2.46784 3.20749 0
M  V30 8377 H 787.409 1.51731 2.73307 0
M  V30 8378 H 786.629 3.65787 1.46947 0
M  V30 8379 H 787.917 4.52706 2.32239 0
M  V30 8380 H 787.315 2.73592 4.9514 0
M  V30 8381 H 785.872 3.48324 5.50921 0
M  V30 8382 N 789.305 -0.326896 1.54172 0
M  V30 8383 C 790.253 -1.42232 1.84046 0
M  V30 8384 C 791.247 -1.53705 0.712115 0
M  V30 8385 O 792.453 -1.56131 0.895724 0
M  V30 8386 H 788.828 -0.474568 0.583343 0
M  V30 8387 H 790.799 -1.14259 2.75658 0
M  V30 8388 C 789.548 -2.78502 2.08163 0
M  V30 8389 H 788.871 -2.70447 2.94446 0
M  V30 8390 H 790.311 -3.54228 2.33021 0
M  V30 8391 C 788.77 -3.25415 0.872152 0
M  V30 8392 O 789.3 -4.01621 0.0797648 0
M  V30 8393 N 787.506 -2.82418 0.684716 0
M  V30 8394 H 787.053 -2.20566 1.33072 0
M  V30 8395 H 787.011 -3.14159 -0.123031 0
M  V30 8396 N 790.784 -1.46188 -0.588786 0
M  V30 8397 C 792.009 -1.5498 -1.37826 0
M  V30 8398 C 792.434 -0.189498 -1.87143 0
M  V30 8399 O 791.792 0.829293 -1.61222 0
M  V30 8400 C 791.84 -2.55369 -2.54596 0
M  V30 8401 O 790.944 -2.08452 -3.55839 0
M  V30 8402 H 790.285 -0.521741 -0.41071 0
M  V30 8403 H 792.815 -1.91708 -0.714779 0
M  V30 8404 H 792.825 -2.74782 -3.01594 0
M  V30 8405 H 791.5 -3.54155 -2.18052 0
M  V30 8406 H 790.077 -1.98999 -3.15363 0
M  V30 8407 N 792.262 0.832906 -1.33792 0
M  V30 8408 C 793.511 1.58351 -1.24932 0
M  V30 8409 C 793.824 1.94754 0.181703 0
M  V30 8410 O 795.03 2.6865 0.392375 0
M  V30 8411 C 793.486 2.85643 -2.18943 0
M  V30 8412 C 793.094 2.56581 -3.67247 0
M  V30 8413 C 794.838 3.63667 -2.18968 0
M  V30 8414 C 792.745 3.80006 -4.53155 0
M  V30 8415 H 791.675 0.594278 -0.464058 0
M  V30 8416 H 794.326 0.91786 -1.58895 0
M  V30 8417 H 792.708 3.53781 -1.77919 0
M  V30 8418 H 793.882 1.96617 -4.16747 0
M  V30 8419 H 792.197 1.91851 -3.6957 0
M  V30 8420 H 794.794 4.55293 -2.80379 0
M  V30 8421 H 795.137 3.99039 -1.18631 0
M  V30 8422 H 795.67 3.0246 -2.58384 0
M  V30 8423 H 792.409 3.4976 -5.5439 0
M  V30 8424 H 791.929 4.39288 -4.08395 0
M  V30 8425 H 793.608 4.47523 -4.6726 0
M  V30 8426 N 793.74 1.17359 1.05189 0
M  V30 8427 C 794.688 0.886527 2.15043 0
M  V30 8428 C 795.682 -0.148834 1.68745 0
M  V30 8429 O 796.888 -0.00175123 1.8 0
M  V30 8430 H 793.263 0.269147 0.702185 0
M  V30 8431 H 795.234 1.82016 2.36459 0
M  V30 8432 C 793.983 0.416333 3.45198 0
M  V30 8433 H 793.306 1.20449 3.81225 0
M  V30 8434 H 794.746 0.254362 4.23236 0
M  V30 8435 C 793.205 -0.866016 3.25579 0
M  V30 8436 O 793.735 -1.9328 3.52144 0
M  V30 8437 N 791.941 -0.814179 2.78961 0
M  V30 8438 H 791.488 0.0541618 2.57543 0
M  V30 8439 H 791.446 -1.67264 2.66214 0
M  V30 8440 N 795.218 -1.23913 0.973828 0
M  V30 8441 C 796.148 -2.27453 0.527969 0
M  V30 8442 C 797.129 -1.6443 -0.435513 0
M  V30 8443 O 798.314 -1.9137 -0.330306 0
M  V30 8444 C 795.444 -3.4685 -0.176757 0
M  V30 8445 C 794.398 -4.22181 0.703352 0
M  V30 8446 C 793.724 -5.34534 -0.133215 0
M  V30 8447 C 795.024 -4.82865 1.99096 0
M  V30 8448 H 796.718 -2.65 1.3934 0
M  V30 8449 H 794.264 -1.27388 0.671446 0
M  V30 8450 H 796.217 -4.18424 -0.499934 0
M  V30 8451 H 794.941 -3.08346 -1.07659 0
M  V30 8452 H 793.6 -3.52416 1.00989 0
M  V30 8453 H 793.248 -4.92271 -1.03338 0
M  V30 8454 H 792.948 -5.85855 0.452494 0
M  V30 8455 H 794.472 -6.08933 -0.450924 0
M  V30 8456 H 795.886 -5.46481 1.73297 0
M  V30 8457 H 794.283 -5.44444 2.52389 0
M  V30 8458 H 795.353 -4.03977 2.68199 0
M  V30 8459 N 796.696 -0.74468 -1.38897 0
M  V30 8460 C 797.921 -0.306119 -2.05128 0
M  V30 8461 C 798.346 1.0541 -1.55789 0
M  V30 8462 O 797.704 1.66993 -0.705909 0
M  V30 8463 C 797.752 -0.328195 -3.59103 0
M  V30 8464 O 796.856 0.680876 -4.06741 0
M  V30 8465 H 796.197 -0.137209 -0.649669 0
M  V30 8466 H 798.727 -1.01331 -1.77745 0
M  V30 8467 H 798.737 -0.175956 -4.0762 0
M  V30 8468 H 797.412 -1.32067 -3.94374 0
M  V30 8469 H 795.989 0.49398 -3.69614 0
M  V30 8470 N 798.174 1.49689 -0.493057 0
M  V30 8471 C 799.423 2.01622 0.0560733 0
M  V30 8472 C 799.736 1.37838 1.3878 0
M  V30 8473 O 800.942 1.81054 2.02316 0
M  V30 8474 C 799.398 3.59586 0.150409 0
M  V30 8475 C 799.006 4.32338 -1.1742 0
M  V30 8476 C 800.75 4.19489 0.650327 0
M  V30 8477 C 798.657 5.8214 -1.04246 0
M  V30 8478 H 797.587 0.753594 0.0247297 0
M  V30 8479 H 800.238 1.723 -0.631279 0
M  V30 8480 H 798.62 3.8559 0.902035 0
M  V30 8481 H 799.794 4.18042 -1.9385 0
M  V30 8482 H 798.109 3.84144 -1.60694 0
M  V30 8483 H 800.706 5.29181 0.766272 0
M  V30 8484 H 801.049 3.82326 1.6472 0
M  V30 8485 H 801.582 3.97775 -0.0445371 0
M  V30 8486 H 798.321 6.23814 -2.01336 0
M  V30 8487 H 797.841 5.98952 -0.31892 0
M  V30 8488 H 799.52 6.43004 -0.717957 0
M  V30 8489 N 799.652 0.226554 1.55963 0
M  V30 8490 C 800.6 -0.697922 2.21882 0
M  V30 8491 C 801.594 -1.19586 1.19981 0
M  V30 8492 O 802.8 -1.15511 1.38048 0
M  V30 8493 H 799.175 -0.243501 0.711485 0
M  V30 8494 H 801.146 -0.118576 2.98164 0
M  V30 8495 C 799.895 -1.89309 2.91646 0
M  V30 8496 H 799.218 -1.51906 3.69817 0
M  V30 8497 H 800.658 -2.51762 3.41162 0
M  V30 8498 C 799.117 -2.75162 1.94391 0
M  V30 8499 O 799.647 -3.74071 1.46402 0
M  V30 8500 N 797.853 -2.41302 1.61932 0
M  V30 8501 H 797.4 -1.60923 2.01151 0
M  V30 8502 H 797.358 -2.99023 0.971219 0
M  V30 8503 N 801.13 -1.57531 -0.0467866 0
M  V30 8504 C 802.358 -1.92696 -0.753371 0
M  V30 8505 C 802.773 -0.824792 -1.69831 0
M  V30 8506 O 802.13 0.200155 -1.81399 0
M  V30 8507 C 802.181 -3.27728 -1.52566 0
M  V30 8508 O 801.902 -4.3371 -0.618674 0
M  V30 8509 C 803.403 -3.77066 -2.33101 0
M  V30 8510 H 800.623 -0.636367 -0.212788 0
M  V30 8511 H 803.167 -2.04498 -0.00959361 0
M  V30 8512 H 801.322 -3.17378 -2.22148 0
M  V30 8513 H 801.736 -5.11548 -1.15839 0
M  V30 8514 H 803.21 -4.74109 -2.82709 0
M  V30 8515 H 803.687 -3.07348 -3.13741 0
M  V30 8516 H 804.293 -3.90442 -1.68628 0
M  V30 8517 N 802.608 0.318715 -1.54344 0
M  V30 8518 C 803.857 1.05363 -1.71993 0
M  V30 8519 C 804.17 1.89018 -0.503155 0
M  V30 8520 O 805.376 2.65639 -0.561085 0
M  V30 8521 C 803.832 1.92281 -3.0423 0
M  V30 8522 C 803.44 1.13715 -4.33328 0
M  V30 8523 C 805.184 2.65479 -3.31242 0
M  V30 8524 C 803.091 1.99806 -5.56625 0
M  V30 8525 H 802.021 0.397081 -0.64097 0
M  V30 8526 H 804.672 0.311598 -1.80835 0
M  V30 8527 H 803.054 2.70402 -2.89307 0
M  V30 8528 H 804.228 0.403305 -4.59032 0
M  V30 8529 H 802.543 0.521769 -4.13118 0
M  V30 8530 H 805.14 3.30209 -4.20555 0
M  V30 8531 H 805.483 3.33374 -2.49334 0
M  V30 8532 H 806.016 1.94417 -3.47054 0
M  V30 8533 H 802.755 1.36411 -6.41149 0
M  V30 8534 H 802.275 2.70911 -5.35133 0
M  V30 8535 H 803.954 2.58277 -5.93213 0
M  V30 8536 N 804.086 1.46499 0.581025 0
M  V30 8537 C 805.049 1.5677 1.672 0
M  V30 8538 C 806.049 0.444716 1.54528 0
M  V30 8539 O 807.239 0.709074 1.59116 0
M  V30 8540 C 804.371 1.4896 3.06633 0
M  V30 8541 H 805.564 2.54 1.5945 0
M  V30 8542 H 803.117 1.34334 0.799003 0
M  V30 8543 H 803.852 0.530168 3.19937 0
M  V30 8544 H 803.637 2.30439 3.17239 0
M  V30 8545 H 805.127 1.59237 3.86048 0
M  V30 8546 N 805.565 -0.825799 1.34232 0
M  V30 8547 C 806.842 -1.56741 1.17011 0
M  V30 8548 C 807.222 -2.09512 -0.258425 0
M  V30 8549 O 806.57 -1.90664 -1.25935 0
M  V30 8550 C 806.78 -2.69104 2.22225 0
M  V30 8551 C 808.128 -3.37947 2.57055 0
M  V30 8552 O 809.152 -2.79358 2.20992 0
M  V30 8553 O 808.011 -4.43743 3.1899 0
M  V30 8554 H 805.105 -0.69163 0.453405 0
M  V30 8555 H 807.651 -0.867422 1.45856 0
M  V30 8556 H 806.423 -2.27844 3.18124 0
M  V30 8557 H 806.046 -3.46756 1.94541 0
M  V30 8558 N 807.043 -1.17915 -1.04565 0
M  V30 8559 C 808.006 -0.903787 -2.10628 0
M  V30 8560 C 809.006 0.10873 -1.60432 0
M  V30 8561 O 810.196 -0.124152 -1.73757 0
M  V30 8562 C 807.328 -0.355017 -3.39046 0
M  V30 8563 H 808.521 -1.84425 -2.3649 0
M  V30 8564 H 806.074 -0.990477 -1.2091 0
M  V30 8565 H 806.809 0.592297 -3.18845 0
M  V30 8566 H 806.594 -1.08484 -3.76794 0
M  V30 8567 H 808.084 -0.180891 -4.17208 0
M  V30 8568 N 808.521 1.23394 -0.980386 0
M  V30 8569 C 809.746 1.96384 -0.666935 0
M  V30 8570 C 810.171 1.72087 0.759456 0
M  V30 8571 O 809.529 0.992328 1.51732 0
M  V30 8572 C 809.577 3.47499 -0.963177 0
M  V30 8573 O 808.681 4.12363 -0.0552051 0
M  V30 8574 H 808.022 0.614797 -0.250839 0
M  V30 8575 H 810.552 1.56831 -1.31398 0
M  V30 8576 H 810.562 3.97953 -0.899877 0
M  V30 8577 H 809.237 3.6451 -2.00264 0
M  V30 8578 H 807.814 3.72499 -0.172914 0
M  V30 8579 N 809.999 0.752036 1.385 0
M  V30 8580 C 811.276 0.233075 1.94206 0
M  V30 8581 C 811.656 -1.26838 1.68746 0
M  V30 8582 O 811.004 -2.04214 1.02513 0
M  V30 8583 C 811.214 0.58509 3.44061 0
M  V30 8584 C 812.562 0.543871 4.21102 0
M  V30 8585 O 813.586 0.523291 3.52335 0
M  V30 8586 O 812.445 0.553436 5.4369 0
M  V30 8587 H 809.539 0.0483049 0.825588 0
M  V30 8588 H 812.085 0.832053 1.47902 0
M  V30 8589 H 810.857 1.62212 3.56094 0
M  V30 8590 H 810.48 -0.0419738 3.97578 0
M  V30 8591 N 811.477 -1.49425 0.500989 0
M  V30 8592 C 812.888 -1.86624 0.0532011 0
M  V30 8593 C 813.239 -1.41331 -1.36088 0
M  V30 8594 O 812.364 -0.791195 -2.01418 0
M  V30 8595 C 812.959 -3.38681 0.0897693 0
M  V30 8596 C 811.518 -3.75181 -0.302677 0
M  V30 8597 C 810.665 -2.73419 0.462307 0
M  V30 8598 H 813.616 -1.41743 0.713773 0
M  V30 8599 H 813.637 -3.73902 -0.705528 0
M  V30 8600 H 813.149 -3.71616 1.11907 0
M  V30 8601 H 811.25 -3.47855 -1.33521 0
M  V30 8602 H 811.363 -4.79097 0.0167653 0
M  V30 8603 H 809.727 -2.54548 -0.0878557 0
M  V30 8604 H 810.51 -3.09198 1.49169 0
M  V30 8605 N 812.955 -0.234822 -1.55841 0
M  V30 8606 C 813.887 0.702346 -2.18174 0
M  V30 8607 C 814.9 1.14776 -1.15457 0
M  V30 8608 O 816.089 1.07662 -1.42377 0
M  V30 8609 C 813.189 1.96483 -2.76129 0
M  V30 8610 C 812.362 1.67283 -4.04148 0
M  V30 8611 C 811.421 2.7837 -4.46539 0
M  V30 8612 O 810.447 2.46272 -5.13166 0
M  V30 8613 N 811.649 4.07611 -4.1332 0
M  V30 8614 H 814.414 0.169074 -2.99223 0
M  V30 8615 H 811.975 -0.0543164 -1.61809 0
M  V30 8616 H 813.967 2.70016 -3.01452 0
M  V30 8617 H 812.537 2.40822 -1.99307 0
M  V30 8618 H 811.757 0.773278 -3.86541 0
M  V30 8619 H 813.045 1.45222 -4.87635 0
M  V30 8620 H 812.443 4.36527 -3.59806 0
M  V30 8621 H 811 4.77646 -4.43506 0
M  V30 8622 N 814.433 1.57553 0.0384317 0
M  V30 8623 C 815.365 2.02726 1.06934 0
M  V30 8624 C 816.378 0.938502 1.33026 0
M  V30 8625 O 817.567 1.21595 1.30678 0
M  V30 8626 C 814.667 2.37958 2.41308 0
M  V30 8627 C 813.84 3.69098 2.34703 0
M  V30 8628 C 812.899 3.91623 3.51451 0
M  V30 8629 O 811.925 4.628 3.31368 0
M  V30 8630 N 813.127 3.36538 4.72993 0
M  V30 8631 H 815.892 2.91781 0.684381 0
M  V30 8632 H 813.453 1.60307 0.226542 0
M  V30 8633 H 815.445 2.50172 3.18113 0
M  V30 8634 H 814.015 1.54621 2.71682 0
M  V30 8635 H 813.235 3.67325 1.43059 0
M  V30 8636 H 814.523 4.55144 2.27424 0
M  V30 8637 H 813.921 2.78828 4.92211 0
M  V30 8638 H 812.478 3.54148 5.47195 0
M  V30 8639 N 815.911 -0.310526 1.54511 0
M  V30 8640 C 817.157 -1.04846 1.73595 0
M  V30 8641 C 817.49 -1.87244 0.515118 0
M  V30 8642 O 816.765 -1.88282 -0.48786 0
M  V30 8643 C 817.048 -1.96237 3.01932 0
M  V30 8644 C 816.901 -1.17082 4.34295 0
M  V30 8645 C 818.22 -2.9556 3.26086 0
M  V30 8646 H 815.339 -0.37976 0.631626 0
M  V30 8647 H 817.981 -0.32394 1.87218 0
M  V30 8648 H 816.131 -2.58015 2.90449 0
M  V30 8649 H 817.803 -0.576643 4.57682 0
M  V30 8650 H 816.046 -0.473336 4.3121 0
M  V30 8651 H 816.717 -1.84257 5.20339 0
M  V30 8652 H 819.193 -2.43908 3.37117 0
M  V30 8653 H 818.069 -3.5668 4.17218 0
M  V30 8654 H 818.33 -3.68715 2.4393 0
M  V30 8655 N 817.389 -1.46805 -0.573248 0
M  V30 8656 C 818.629 -1.5417 -1.34205 0
M  V30 8657 C 818.993 -0.192675 -1.91031 0
M  V30 8658 O 820.194 -0.141111 -2.68429 0
M  V30 8659 C 818.465 -2.61682 -2.43428 0
M  V30 8660 S 820.024 -2.88519 -3.30609 0
M  V30 8661 H 816.842 -0.544592 -0.4571 0
M  V30 8662 H 819.444 -1.84094 -0.658001 0
M  V30 8663 H 818.148 -3.58319 -2.00088 0
M  V30 8664 H 817.679 -2.33521 -3.16594 0
M  V30 8665 H 819.694 -2.2451 -4.42504 0
M  V30 8666 N 818.867 0.818669 -1.34668 0
M  V30 8667 C 820.115 1.57201 -1.27013 0
M  V30 8668 C 820.436 1.94354 0.158599 0
M  V30 8669 O 819.706 1.62626 1.09223 0
M  V30 8670 H 818.286 0.582919 -0.467135 0
M  V30 8671 H 820.948 0.977234 -1.6863 0
M  V30 8672 H 820.044 2.49291 -1.87778 0
M  V30 8673 N 820.346 1.18468 1.03938 0
M  V30 8674 C 821.309 0.914944 2.10146 0
M  V30 8675 C 822.309 -0.10022 1.60487 0
M  V30 8676 O 823.499 0.133365 1.73689 0
M  V30 8677 C 820.631 0.372993 3.38853 0
M  V30 8678 H 821.824 1.85677 2.35508 0
M  V30 8679 H 819.377 0.996876 1.20383 0
M  V30 8680 H 820.112 -0.57538 3.19155 0
M  V30 8681 H 819.897 1.1048 3.76213 0
M  V30 8682 H 821.387 0.203014 4.17106 0
M  V30 8683 N 821.824 -1.22873 0.986916 0
M  V30 8684 C 822.754 -2.2688 0.552064 0
M  V30 8685 C 823.735 -1.64883 -0.418048 0
M  V30 8686 O 824.92 -1.9171 -0.30999 0
M  V30 8687 C 822.05 -3.47018 -0.139959 0
M  V30 8688 C 821.004 -4.21411 0.748091 0
M  V30 8689 C 820.33 -5.34645 -0.0765132 0
M  V30 8690 C 821.63 -4.80726 2.04206 0
M  V30 8691 H 823.324 -2.63507 1.42143 0
M  V30 8692 H 820.87 -1.26668 0.68492 0
M  V30 8693 H 822.823 -4.18931 -0.455527 0
M  V30 8694 H 821.547 -3.0947 -1.04382 0
M  V30 8695 H 820.206 -3.51325 1.04721 0
M  V30 8696 H 819.854 -4.93339 -0.981109 0
M  V30 8697 H 819.554 -5.85342 0.514606 0
M  V30 8698 H 821.078 -6.09377 -0.386313 0
M  V30 8699 H 822.492 -5.44612 1.79083 0
M  V30 8700 H 820.889 -5.41737 2.5815 0
M  V30 8701 H 821.959 -4.01109 2.72469 0
M  V30 8702 N 823.302 -0.75937 -1.38099 0
M  V30 8703 C 824.548 -0.318584 -2.00282 0
M  V30 8704 C 824.881 1.09854 -1.60143 0
M  V30 8705 O 824.156 1.75344 -0.841702 0
M  V30 8706 C 824.439 -0.448047 -3.57302 0
M  V30 8707 C 824.292 -1.9067 -4.07388 0
M  V30 8708 C 825.611 0.155119 -4.39827 0
M  V30 8709 H 822.73 -0.117233 -0.727616 0
M  V30 8710 H 825.372 -0.960097 -1.63958 0
M  V30 8711 H 823.522 0.0981003 -3.88376 0
M  V30 8712 H 825.194 -2.5116 -3.86932 0
M  V30 8713 H 823.437 -2.41979 -3.6004 0
M  V30 8714 H 824.108 -1.94841 -5.1647 0
M  V30 8715 H 826.584 -0.31073 -4.14938 0
M  V30 8716 H 825.46 0.0343264 -5.48889 0
M  V30 8717 H 825.721 1.24407 -4.24235 0
M  V30 8718 N 824.78 1.49157 -0.508906 0
M  V30 8719 C 826.026 2.02773 0.0328469 0
M  V30 8720 C 826.359 1.38714 1.35912 0
M  V30 8721 O 825.634 0.525536 1.87266 0
M  V30 8722 C 825.917 3.59664 0.177088 0
M  V30 8723 C 825.77 4.34239 -1.17287 0
M  V30 8724 C 827.089 4.30505 0.913977 0
M  V30 8725 H 824.208 0.736926 0.0104631 0
M  V30 8726 H 826.85 1.781 -0.661851 0
M  V30 8727 H 825 3.80818 0.768774 0
M  V30 8728 H 826.672 4.24561 -1.80404 0
M  V30 8729 H 824.915 3.96486 -1.76016 0
M  V30 8730 H 825.586 5.42397 -1.02516 0
M  V30 8731 H 828.062 4.14054 0.412084 0
M  V30 8732 H 826.938 5.40012 0.983759 0
M  V30 8733 H 827.199 3.96302 1.95951 0
M  V30 8734 N 826.258 0.243083 1.55714 0
M  V30 8735 C 827.191 -0.698623 2.17243 0
M  V30 8736 C 828.169 -1.1756 1.12331 0
M  V30 8737 O 829.353 -1.25444 1.40699 0
M  V30 8738 C 826.48 -1.94901 2.77004 0
M  V30 8739 C 825.526 -1.61022 3.94936 0
M  V30 8740 S 826.359 -0.716173 5.30689 0
M  V30 8741 C 827.515 -1.97565 5.93901 0
M  V30 8742 H 827.748 -0.175724 2.9678 0
M  V30 8743 H 825.281 0.0275727 1.54375 0
M  V30 8744 H 827.239 -2.66687 3.12071 0
M  V30 8745 H 825.9 -2.44304 1.9742 0
M  V30 8746 H 825.093 -2.5398 4.35328 0
M  V30 8747 H 824.695 -0.972829 3.61126 0
M  V30 8748 H 826.987 -2.92333 6.11186 0
M  V30 8749 H 827.93 -1.61528 6.8943 0
M  V30 8750 H 828.338 -2.126 5.22935 0
M  V30 8751 N 827.736 -1.57571 -0.0300757 0
M  V30 8752 C 828.646 -2.09892 -1.04798 0
M  V30 8753 C 829.662 -1.03732 -1.39698 0
M  V30 8754 O 830.838 -1.35461 -1.49038 0
M  V30 8755 C 827.903 -2.56707 -2.33028 0
M  V30 8756 C 826.964 -3.77345 -2.04718 0
M  V30 8757 C 826.197 -4.21918 -3.26834 0
M  V30 8758 O 826.42 -3.66025 -4.37472 0
M  V30 8759 O 825.354 -5.14362 -3.12594 0
M  V30 8760 H 829.18 -2.97023 -0.633344 0
M  V30 8761 H 826.765 -1.47344 -0.246991 0
M  V30 8762 H 828.647 -2.87154 -3.08417 0
M  V30 8763 H 827.322 -1.72688 -2.73789 0
M  V30 8764 H 826.229 -3.51919 -1.26901 0
M  V30 8765 H 827.562 -4.62345 -1.68813 0
M  V30 8766 N 829.214 0.302327 -1.54673 0
M  V30 8767 C 830.491 1.05721 -1.64567 0
M  V30 8768 C 830.871 2.0526 -0.493108 0
M  V30 8769 O 830.219 2.22729 0.510315 0
M  V30 8770 C 830.429 1.74025 -3.02517 0
M  V30 8771 C 831.777 2.26271 -3.59286 0
M  V30 8772 O 832.801 1.8406 -3.0496 0
M  V30 8773 O 831.66 3.0361 -4.54404 0
M  V30 8774 H 828.754 0.488577 -0.667249 0
M  V30 8775 H 831.3 0.300521 -1.67018 0
M  V30 8776 H 830.072 1.0174 -3.77842 0
M  V30 8777 H 829.695 2.56454 -3.03838 0
M  V30 8778 N 830.692 1.47107 0.565454 0
M  V30 8779 C 831.941 1.5257 1.31929 0
M  V30 8780 C 832.254 0.189092 1.94684 0
M  V30 8781 O 833.46 0.121657 2.71227 0
M  V30 8782 C 831.916 2.68914 2.39193 0
M  V30 8783 C 831.524 4.09069 1.82665 0
M  V30 8784 C 833.268 2.83663 3.1581 0
M  V30 8785 C 831.175 5.16726 2.87661 0
M  V30 8786 H 830.105 0.567869 0.496025 0
M  V30 8787 H 832.756 1.73361 0.60151 0
M  V30 8788 H 831.138 2.41486 3.13848 0
M  V30 8789 H 832.312 4.46364 1.14438 0
M  V30 8790 H 830.627 3.99135 1.1866 0
M  V30 8791 H 833.224 3.61261 3.94201 0
M  V30 8792 H 833.567 1.91804 3.69482 0
M  V30 8793 H 834.1 3.10821 2.48265 0
M  V30 8794 H 830.839 6.10433 2.38854 0
M  V30 8795 H 830.359 4.83957 3.54324 0
M  V30 8796 H 832.038 5.43319 3.51303 0
M  V30 8797 N 832.17 -0.811516 1.35101 0
M  V30 8798 C 833.395 -1.60499 1.31358 0
M  V30 8799 C 833.82 -1.87793 -0.107383 0
M  V30 8800 O 833.178 -1.46161 -1.07268 0
M  V30 8801 C 833.226 -2.91612 2.12119 0
M  V30 8802 O 832.33 -3.84211 1.49853 0
M  V30 8803 H 831.671 -0.487702 0.450603 0
M  V30 8804 H 834.201 -1.00758 1.7807 0
M  V30 8805 H 834.211 -3.4108 2.23894 0
M  V30 8806 H 832.886 -2.71071 3.15426 0
M  V30 8807 H 831.463 -3.42751 1.46889 0
M  V30 8808 N 833.648 -1.19017 -1.03309 0
M  V30 8809 C 834.925 -0.899659 -1.73682 0
M  V30 8810 C 835.305 0.595677 -2.02521 0
M  V30 8811 O 834.653 1.55263 -1.67648 0
M  V30 8812 C 834.863 -1.75508 -3.01659 0
M  V30 8813 C 836.211 -1.98679 -3.75249 0
M  V30 8814 O 837.235 -1.72624 -3.11576 0
M  V30 8815 O 836.094 -2.42587 -4.89708 0
M  V30 8816 H 833.188 -0.334903 -0.756154 0
M  V30 8817 H 835.734 -1.29809 -1.09305 0
M  V30 8818 H 834.506 -2.7684 -2.76542 0
M  V30 8819 H 834.129 -1.35565 -3.73775 0
M  V30 8820 N 835.127 1.22348 -0.993418 0
M  V30 8821 C 836.037 2.27987 -0.553076 0
M  V30 8822 C 837.053 1.69378 0.398386 0
M  V30 8823 O 838.229 1.99648 0.26509 0
M  V30 8824 C 835.294 3.46475 0.124809 0
M  V30 8825 C 834.355 4.20399 -0.869682 0
M  V30 8826 C 833.588 5.33229 -0.224052 0
M  V30 8827 O 833.811 5.61885 0.981915 0
M  V30 8828 O 832.745 5.94685 -0.929174 0
M  V30 8829 H 836.571 2.67822 -1.43195 0
M  V30 8830 H 834.156 1.28525 -0.761694 0
M  V30 8831 H 836.038 4.18369 0.504496 0
M  V30 8832 H 834.713 3.08565 0.978243 0
M  V30 8833 H 833.62 3.50774 -1.30031 0
M  V30 8834 H 834.953 4.62191 -1.69233 0
M  V30 8835 N 836.605 0.766683 1.37694 0
M  V30 8836 C 837.552 0.147725 2.30327 0
M  V30 8837 C 838.522 -0.695366 1.50844 0
M  V30 8838 O 839.707 -0.64878 1.79431 0
M  V30 8839 C 836.847 -0.72935 3.37305 0
M  V30 8840 C 835.96 0.129795 4.31805 0
M  V30 8841 C 835.095 -0.751511 5.25857 0
M  V30 8842 C 834.134 0.110475 6.12 0
M  V30 8843 N 833.271 -0.728522 6.9831 0
M  V30 8844 H 838.111 0.943204 2.82679 0
M  V30 8845 H 835.648 0.476736 1.3916 0
M  V30 8846 H 837.606 -1.25263 3.97951 0
M  V30 8847 H 836.236 -1.49048 2.86329 0
M  V30 8848 H 835.288 0.770829 3.72508 0
M  V30 8849 H 836.6 0.794923 4.92425 0
M  V30 8850 H 835.754 -1.34146 5.91684 0
M  V30 8851 H 834.493 -1.45034 4.65636 0
M  V30 8852 H 833.498 0.712999 5.45157 0
M  V30 8853 H 834.723 0.806557 6.74293 0
M  V30 8854 H 832.669 -1.41206 6.40622 0
M  V30 8855 H 832.586 -0.12058 7.55904 0
M  V30 8856 H 833.854 -1.30303 7.68532 0
M  V30 8857 N 838.083 -1.48885 0.516809 0
M  V30 8858 C 839.499 -1.58651 0.173788 0
M  V30 8859 C 839.699 -1.52033 -1.32243 0
M  V30 8860 O 838.755 -1.40251 -2.09967 0
M  V30 8861 C 840.068 -2.90816 0.764628 0
M  V30 8862 C 841.616 -3.04316 0.732164 0
M  V30 8863 C 842.091 -4.39123 1.30135 0
M  V30 8864 N 843.582 -4.45656 1.26273 0
M  V30 8865 C 844.317 -5.48446 1.67317 0
M  V30 8866 N 843.813 -6.58258 2.16028 0
M  V30 8867 N 845.606 -5.39251 1.58635 0
M  V30 8868 H 837.757 -1.5143 1.48939 0
M  V30 8869 H 840.02 -0.718243 0.618733 0
M  V30 8870 H 839.726 -3.01275 1.81456 0
M  V30 8871 H 839.6 -3.76473 0.234113 0
M  V30 8872 H 841.987 -2.93478 -0.308975 0
M  V30 8873 H 842.068 -2.20303 1.3 0
M  V30 8874 H 841.712 -4.50714 2.34135 0
M  V30 8875 H 841.642 -5.21801 0.709305 0
M  V30 8876 H 844.133 -3.66879 0.906006 0
M  V30 8877 H 844.446 -7.32811 2.45374 0
M  V30 8878 H 842.791 -6.59257 2.20013 0
M  V30 8879 H 845.982 -4.52354 1.20387 0
M  V30 8880 H 846.155 -6.19229 1.90944 0
M  V30 8881 N 839.561 -0.251338 -1.55583 0
M  V30 8882 C 840.491 0.640437 -2.24545 0
M  V30 8883 C 841.472 1.17781 -1.22726 0
M  V30 8884 O 842.657 1.21633 -1.5139 0
M  V30 8885 C 839.787 1.8355 -2.94834 0
M  V30 8886 C 838.741 1.4307 -4.03379 0
M  V30 8887 C 838.067 2.70695 -4.61116 0
M  V30 8888 C 839.367 0.59848 -5.1886 0
M  V30 8889 H 841.061 0.0653772 -2.99329 0
M  V30 8890 H 838.607 0.0300042 -1.43969 0
M  V30 8891 H 840.56 2.46505 -3.4178 0
M  V30 8892 H 839.284 2.43601 -2.17546 0
M  V30 8893 H 837.943 0.824474 -3.57209 0
M  V30 8894 H 837.591 3.28954 -3.80524 0
M  V30 8895 H 837.291 2.44332 -5.34393 0
M  V30 8896 H 838.815 3.34541 -5.10798 0
M  V30 8897 H 840.229 1.13244 -5.62004 0
M  V30 8898 H 838.626 0.430728 -5.98552 0
M  V30 8899 H 839.696 -0.38829 -4.83343 0
M  V30 8900 N 841.039 1.57585 0.0217189 0
M  V30 8901 C 841.986 2.07036 1.02004 0
M  V30 8902 C 842.956 0.96106 1.35473 0
M  V30 8903 O 844.141 1.23211 1.45684 0
M  V30 8904 C 841.281 2.56056 2.31364 0
M  V30 8905 C 840.394 3.80805 2.03989 0
M  V30 8906 C 839.529 4.18409 3.27272 0
M  V30 8907 C 838.568 5.36055 2.95486 0
M  V30 8908 N 837.705 5.69056 4.11242 0
M  V30 8909 H 842.545 2.92073 0.591396 0
M  V30 8910 H 840.082 1.44403 0.280384 0
M  V30 8911 H 842.04 2.82548 3.06957 0
M  V30 8912 H 840.67 1.73925 2.71937 0
M  V30 8913 H 839.722 3.61354 1.1886 0
M  V30 8914 H 841.034 4.66512 1.76546 0
M  V30 8915 H 840.188 4.46068 4.11228 0
M  V30 8916 H 838.927 3.31369 3.57835 0
M  V30 8917 H 837.932 5.08142 2.09933 0
M  V30 8918 H 839.157 6.24755 2.66193 0
M  V30 8919 H 837.103 4.84974 4.41742 0
M  V30 8920 H 837.02 6.49288 3.87247 0
M  V30 8921 H 838.288 6.01295 4.96049 0
M  V30 8922 N 842.517 -0.29412 1.54831 0
M  V30 8923 C 843.742 -1.05156 1.78765 0
M  V30 8924 C 844.167 -1.79916 0.548809 0
M  V30 8925 O 843.525 -1.74243 -0.500909 0
M  V30 8926 C 843.573 -2.00242 2.99893 0
M  V30 8927 O 842.677 -3.08662 2.73499 0
M  V30 8928 H 842.018 -0.301737 0.591482 0
M  V30 8929 H 844.548 -0.329449 2.0193 0
M  V30 8930 H 844.558 -2.42583 3.28051 0
M  V30 8931 H 843.233 -1.45235 3.89717 0
M  V30 8932 H 841.81 -2.70786 2.56377 0
M  V30 8933 N 843.995 -1.47404 -0.557645 0
M  V30 8934 C 845.223 -1.57622 -1.34026 0
M  V30 8935 C 845.638 -0.226256 -1.87439 0
M  V30 8936 O 844.995 0.78043 -1.64971 0
M  V30 8937 C 845.046 -2.60111 -2.51047 0
M  V30 8938 O 844.767 -3.89866 -1.99841 0
M  V30 8939 C 846.268 -2.80508 -3.43264 0
M  V30 8940 H 843.488 -0.532271 -0.40857 0
M  V30 8941 H 846.032 -1.93019 -0.675555 0
M  V30 8942 H 844.187 -2.27648 -3.13457 0
M  V30 8943 H 844.601 -4.45864 -2.76234 0
M  V30 8944 H 846.075 -3.56084 -4.21792 0
M  V30 8945 H 846.552 -1.88314 -3.9678 0
M  V30 8946 H 847.158 -3.14166 -2.86671 0
M  V30 8947 N 845.473 0.80434 -1.35529 0
M  V30 8948 C 846.406 1.92222 -1.22987 0
M  V30 8949 C 847.384 1.62177 -0.117269 0
M  V30 8950 O 848.568 1.86321 -0.285761 0
M  V30 8951 C 845.695 3.26682 -0.894223 0
M  V30 8952 C 844.741 3.75674 -2.01919 0
M  V30 8953 S 845.574 3.93209 -3.6352 0
M  V30 8954 C 846.73 5.30568 -3.32037 0
M  V30 8955 H 846.963 2.02567 -2.1761 0
M  V30 8956 H 844.496 0.961961 -1.20771 0
M  V30 8957 H 846.454 4.04359 -0.707371 0
M  V30 8958 H 845.115 3.14082 0.0339729 0
M  V30 8959 H 844.308 4.73065 -1.73854 0
M  V30 8960 H 843.91 3.05001 -2.16449 0
M  V30 8961 H 846.202 6.14637 -2.85004 0
M  V30 8962 H 847.145 5.63628 -4.28636 0
M  V30 8963 H 847.553 4.96961 -2.6775 0
M  V30 8964 N 846.951 1.19563 1.02676 0
M  V30 8965 C 848.181 1.0234 1.79472 0
M  V30 8966 C 848.589 -0.430891 1.84228 0
M  V30 8967 O 847.932 -1.31106 1.28674 0
M  V30 8968 C 847.994 1.51901 3.25832 0
M  V30 8969 C 847.658 3.00045 3.44706 0
M  V30 8970 C 848.655 3.9779 3.34752 0
M  V30 8971 C 846.34 3.38784 3.70851 0
M  V30 8972 C 848.334 5.32267 3.50672 0
M  V30 8973 C 846.021 4.73419 3.86416 0
M  V30 8974 C 847.019 5.69969 3.7633 0
M  V30 8975 O 846.707 7.02165 3.91432 0
M  V30 8976 H 846.439 0.360936 0.571578 0
M  V30 8977 H 848.993 1.58863 1.30198 0
M  V30 8978 H 847.223 0.897546 3.7614 0
M  V30 8979 H 848.912 1.30853 3.84229 0
M  V30 8980 H 849.678 3.69207 3.14502 0
M  V30 8981 H 845.557 2.64183 3.77794 0
M  V30 8982 H 849.101 6.07612 3.42715 0
M  V30 8983 H 844.998 5.01697 4.06165 0
M  V30 8984 H 845.766 7.09268 4.08511 0
M  V30 8985 N 848.429 -1.21819 0.999893 0
M  V30 8986 C 849.845 -1.42847 0.711824 0
M  V30 8987 C 850.045 -1.88391 -0.714928 0
M  V30 8988 O 849.101 -2.0422 -1.48494 0
M  V30 8989 C 850.414 -2.46417 1.72334 0
M  V30 8990 C 851.962 -2.60207 1.73958 0
M  V30 8991 C 852.437 -3.67005 2.73992 0
M  V30 8992 N 853.928 -3.7447 2.72628 0
M  V30 8993 C 854.663 -4.56718 3.46693 0
M  V30 8994 N 854.159 -5.42904 4.3038 0
M  V30 8995 N 855.952 -4.51094 3.35366 0
M  V30 8996 H 848.103 -0.905656 1.92124 0
M  V30 8997 H 850.366 -0.459893 0.828977 0
M  V30 8998 H 850.072 -2.19914 2.74465 0
M  V30 8999 H 849.946 -3.45137 1.52186 0
M  V30 9000 H 852.333 -2.8605 0.725217 0
M  V30 9001 H 852.414 -1.61739 1.98177 0
M  V30 9002 H 852.058 -3.41908 3.75582 0
M  V30 9003 H 851.988 -4.65058 2.4704 0
M  V30 9004 H 854.479 -3.12895 2.11909 0
M  V30 9005 H 854.792 -6.02704 4.83702 0
M  V30 9006 H 853.137 -5.42463 4.34464 0
M  V30 9007 H 856.328 -3.82791 2.69423 0
M  V30 9008 H 856.501 -5.1496 3.93344 0
M  V30 9009 N 849.908 -0.773975 -1.37286 0
M  V30 9010 C 851.138 -0.350249 -2.03609 0
M  V30 9011 C 851.546 1.03313 -1.58502 0
M  V30 9012 O 850.889 1.67118 -0.7627 0
M  V30 9013 C 850.951 -0.317215 -3.58098 0
M  V30 9014 C 850.615 -1.64556 -4.26345 0
M  V30 9015 C 851.612 -2.59839 -4.50311 0
M  V30 9016 C 849.297 -1.92061 -4.64131 0
M  V30 9017 C 851.291 -3.80833 -5.11122 0
M  V30 9018 C 848.978 -3.13325 -5.24663 0
M  V30 9019 C 849.976 -4.0753 -5.48095 0
M  V30 9020 O 849.664 -5.26658 -6.0736 0
M  V30 9021 H 849.396 -0.144456 -0.660385 0
M  V30 9022 H 851.95 -1.0496 -1.76557 0
M  V30 9023 H 850.18 0.438528 -3.84205 0
M  V30 9024 H 851.869 0.0797428 -4.05822 0
M  V30 9025 H 852.635 -2.39872 -4.21529 0
M  V30 9026 H 848.514 -1.19562 -4.45226 0
M  V30 9027 H 852.058 -4.54377 -5.29327 0
M  V30 9028 H 847.955 -3.33177 -5.52869 0
M  V30 9029 H 848.723 -5.27513 -6.25837 0
M  V30 9030 N 851.386 1.48609 -0.524698 0
M  V30 9031 C 852.319 2.26374 0.288109 0
M  V30 9032 C 853.297 1.31997 0.949509 0
M  V30 9033 O 854.481 1.61329 0.974946 0
M  V30 9034 C 851.608 3.08065 1.4076 0
M  V30 9035 C 850.654 4.17777 0.858152 0
M  V30 9036 S 851.487 5.3482 -0.269827 0
M  V30 9037 C 852.643 6.2007 0.852266 0
M  V30 9038 H 852.876 2.94965 -0.371865 0
M  V30 9039 H 850.409 1.51248 -0.31039 0
M  V30 9040 H 852.367 3.5571 2.04892 0
M  V30 9041 H 851.028 2.38898 2.03928 0
M  V30 9042 H 850.221 4.74542 1.69783 0
M  V30 9043 H 849.823 3.72846 0.293627 0
M  V30 9044 H 852.115 6.54451 1.75213 0
M  V30 9045 H 853.058 7.07364 0.322717 0
M  V30 9046 H 853.466 5.53068 1.13029 0
M  V30 9047 N 852.864 0.259585 1.55447 0
M  V30 9048 C 854.092 -0.365392 2.03648 0
M  V30 9049 C 854.507 -1.50613 1.13847 0
M  V30 9050 O 853.864 -1.81837 0.155414 0
M  V30 9051 C 853.915 -0.861172 3.51093 0
M  V30 9052 O 853.636 0.234121 4.37474 0
M  V30 9053 C 855.137 -1.55555 4.15111 0
M  V30 9054 H 852.357 -0.0853439 0.66555 0
M  V30 9055 H 854.901 0.387151 2.00802 0
M  V30 9056 H 853.056 -1.56385 3.54433 0
M  V30 9057 H 853.47 -0.1444 5.24301 0
M  V30 9058 H 854.944 -1.85403 5.19932 0
M  V30 9059 H 855.421 -2.48185 3.62355 0
M  V30 9060 H 856.027 -0.89712 4.15731 0
M  V30 9061 N 854.342 -1.57594 -0.0133615 0
M  V30 9062 C 855.274 -2.04402 -1.03695 0
M  V30 9063 C 856.287 -0.959546 -1.31516 0
M  V30 9064 O 857.476 -1.23659 -1.28727 0
M  V30 9065 C 854.576 -2.41766 -2.37491 0
M  V30 9066 C 853.749 -3.72785 -2.28802 0
M  V30 9067 C 852.808 -3.97165 -3.45176 0
M  V30 9068 O 851.834 -4.68013 -3.23963 0
M  V30 9069 N 853.036 -3.44021 -4.67579 0
M  V30 9070 H 855.801 -2.92833 -0.637874 0
M  V30 9071 H 853.362 -1.60647 -0.20101 0
M  V30 9072 H 855.354 -2.55201 -3.14093 0
M  V30 9073 H 853.924 -1.58924 -2.69188 0
M  V30 9074 H 853.144 -3.69555 -1.37197 0
M  V30 9075 H 854.432 -4.58704 -2.20154 0
M  V30 9076 H 853.83 -2.86623 -4.87713 0
M  V30 9077 H 852.387 -3.62808 -5.41492 0
M  V30 9078 N 855.82 0.285905 -1.54985 0
M  V30 9079 C 856.73 1.37534 -1.90057 0
M  V30 9080 C 857.746 1.54707 -0.796348 0
M  V30 9081 O 858.922 1.69082 -1.09423 0
M  V30 9082 C 855.987 2.7167 -2.15398 0
M  V30 9083 C 855.048 2.63354 -3.39033 0
M  V30 9084 C 854.281 3.91093 -3.63155 0
M  V30 9085 O 854.504 4.91169 -2.90015 0
M  V30 9086 O 853.438 3.92075 -4.56685 0
M  V30 9087 H 857.264 1.10791 -2.8277 0
M  V30 9088 H 854.849 0.483303 -1.41367 0
M  V30 9089 H 856.731 3.51006 -2.33179 0
M  V30 9090 H 855.406 2.98226 -1.25868 0
M  V30 9091 H 854.313 1.82438 -3.26599 0
M  V30 9092 H 855.646 2.41749 -4.2874 0
M  V30 9093 N 857.298 1.47698 0.54982 0
M  V30 9094 C 858.228 1.63622 1.66583 0
M  V30 9095 C 859.209 0.485477 1.63025 0
M  V30 9096 O 860.394 0.715692 1.80531 0
M  V30 9097 C 857.524 1.65721 3.05211 0
M  V30 9098 C 856.478 2.80097 3.2362 0
M  V30 9099 C 855.804 2.67272 4.63109 0
M  V30 9100 C 857.104 4.21612 3.08286 0
M  V30 9101 H 858.798 2.57049 1.53512 0
M  V30 9102 H 856.344 1.23705 0.737099 0
M  V30 9103 H 858.297 1.75451 3.83138 0
M  V30 9104 H 857.021 0.688593 3.19258 0
M  V30 9105 H 855.68 2.69889 2.48104 0
M  V30 9106 H 855.328 1.68422 4.73965 0
M  V30 9107 H 855.028 3.44008 4.76374 0
M  V30 9108 H 856.552 2.78942 5.43161 0
M  V30 9109 H 857.966 4.32758 3.76024 0
M  V30 9110 H 856.363 4.99193 3.33057 0
M  V30 9111 H 857.433 4.39462 2.04942 0
M  V30 9112 N 858.776 -0.797141 1.35954 0
M  V30 9113 C 859.739 -1.89104 1.29508 0
M  V30 9114 C 860.739 -1.59495 0.204444 0
M  V30 9115 O 861.929 -1.68051 0.458746 0
M  V30 9116 C 859.061 -3.25726 1.00576 0
M  V30 9117 H 860.254 -1.96237 2.26785 0
M  V30 9118 H 857.807 -0.994075 1.20614 0
M  V30 9119 H 858.542 -3.24279 0.0372519 0
M  V30 9120 H 858.327 -3.48604 1.79492 0
M  V30 9121 H 859.817 -4.0578 0.986508 0
M  V30 9122 N 860.254 -1.20106 -1.0204 0
M  V30 9123 C 861.164 -0.962051 -2.13967 0
M  V30 9124 C 862.18 0.0808053 -1.73812 0
M  V30 9125 O 863.356 -0.105774 -2.01122 0
M  V30 9126 C 860.421 -0.513108 -3.42882 0
M  V30 9127 C 859.482 -1.62636 -3.97301 0
M  V30 9128 C 858.715 -1.19875 -5.20063 0
M  V30 9129 O 858.938 -0.0658423 -5.70362 0
M  V30 9130 O 857.872 -2.00467 -5.67536 0
M  V30 9131 H 861.698 -1.8991 -2.36998 0
M  V30 9132 H 859.283 -0.984608 -1.12365 0
M  V30 9133 H 861.165 -0.271797 -4.20523 0
M  V30 9134 H 859.84 0.395402 -3.21276 0
M  V30 9135 H 858.747 -1.92192 -3.20957 0
M  V30 9136 H 860.08 -2.51174 -4.23288 0
M  V30 9137 N 861.732 1.21287 -1.00634 0
M  V30 9138 C 862.642 2.27388 -0.577226 0
M  V30 9139 C 863.658 1.69791 0.380399 0
M  V30 9140 O 864.834 1.99918 0.2439 0
M  V30 9141 C 861.899 3.46588 0.0880532 0
M  V30 9142 C 860.96 4.19453 -0.914222 0
M  V30 9143 C 860.193 5.32962 -0.280596 0
M  V30 9144 O 860.416 5.62895 0.922265 0
M  V30 9145 O 859.35 5.93666 -0.992196 0
M  V30 9146 H 863.176 2.66289 -1.46028 0
M  V30 9147 H 860.761 1.2771 -0.775283 0
M  V30 9148 H 862.643 4.18881 0.460094 0
M  V30 9149 H 861.318 3.09585 0.945461 0
M  V30 9150 H 860.225 3.49376 -1.33744 0
M  V30 9151 H 861.558 4.6037 -1.74126 0
M  V30 9152 N 863.21 0.781244 1.36873 0
M  V30 9153 C 864.14 0.188128 2.32741 0
M  V30 9154 C 865.121 -0.672326 1.56249 0
M  V30 9155 O 866.306 -0.607835 1.84442 0
M  V30 9156 C 863.436 -0.684341 3.40491 0
M  V30 9157 C 862.39 0.0755641 4.27933 0
M  V30 9158 C 861.716 -0.916968 5.26779 0
M  V30 9159 C 863.016 1.26006 5.06873 0
M  V30 9160 H 864.71 0.989016 2.82593 0
M  V30 9161 H 862.256 0.477038 1.35869 0
M  V30 9162 H 864.209 -1.10915 4.06541 0
M  V30 9163 H 862.933 -1.51785 2.89187 0
M  V30 9164 H 861.592 0.481258 3.63427 0
M  V30 9165 H 861.24 -1.74528 4.71751 0
M  V30 9166 H 860.94 -0.413 5.86147 0
M  V30 9167 H 862.464 -1.34052 5.95703 0
M  V30 9168 H 863.878 0.911425 5.66009 0
M  V30 9169 H 862.275 1.69676 5.75613 0
M  V30 9170 H 863.345 2.05948 4.38991 0
M  V30 9171 N 864.689 -1.48329 0.532571 0
M  V30 9172 C 865.619 -2.32485 -0.217511 0
M  V30 9173 C 866.6 -1.42255 -0.932598 0
M  V30 9174 O 867.785 -1.7114 -0.917873 0
M  V30 9175 C 864.915 -3.23509 -1.26329 0
M  V30 9176 C 863.869 -4.22784 -0.666191 0
M  V30 9177 C 863.195 -5.0296 -1.81482 0
M  V30 9178 C 864.495 -5.21031 0.363813 0
M  V30 9179 H 866.189 -2.95445 0.485014 0
M  V30 9180 H 863.735 -1.42075 0.234694 0
M  V30 9181 H 865.688 -3.81211 -1.79601 0
M  V30 9182 H 864.412 -2.58554 -1.99543 0
M  V30 9183 H 863.071 -3.66272 -0.15498 0
M  V30 9184 H 862.719 -4.34427 -2.5354 0
M  V30 9185 H 862.419 -5.70154 -1.4212 0
M  V30 9186 H 863.943 -5.63514 -2.35126 0
M  V30 9187 H 865.357 -5.73241 -0.0819079 0
M  V30 9188 H 863.754 -5.96292 0.674956 0
M  V30 9189 H 864.824 -4.6801 1.26865 0
M  V30 9190 N 866.167 -0.267825 -1.55308 0
M  V30 9191 C 867.114 0.6228 -2.22238 0
M  V30 9192 C 868.084 1.15536 -1.19334 0
M  V30 9193 O 869.269 1.206 -1.47852 0
M  V30 9194 C 866.409 1.80447 -2.94164 0
M  V30 9195 C 865.522 1.30646 -4.11771 0
M  V30 9196 C 864.657 2.44935 -4.7136 0
M  V30 9197 C 863.696 1.92099 -5.81175 0
M  V30 9198 N 862.833 2.99834 -6.34857 0
M  V30 9199 H 867.673 0.0453874 -2.97965 0
M  V30 9200 H 865.21 0.0106371 -1.47096 0
M  V30 9201 H 867.168 2.49896 -3.34078 0
M  V30 9202 H 865.798 2.35403 -2.20874 0
M  V30 9203 H 864.85 0.505314 -3.77029 0
M  V30 9204 H 866.162 0.879409 -4.90987 0
M  V30 9205 H 865.316 3.2239 -5.13955 0
M  V30 9206 H 864.055 2.90951 -3.91406 0
M  V30 9207 H 863.06 1.13122 -5.38037 0
M  V30 9208 H 864.285 1.47027 -6.62993 0
M  V30 9209 H 862.231 3.45246 -5.578 0
M  V30 9210 H 862.148 2.61524 -7.09324 0
M  V30 9211 H 863.416 3.77286 -6.82111 0
M  V30 9212 N 867.645 1.57599 0.00500368 0
M  V30 9213 C 868.575 2.11143 0.99705 0
M  V30 9214 C 869.556 1.0194 1.3617 0
M  V30 9215 O 870.741 1.29596 1.44632 0
M  V30 9216 C 867.871 2.61062 2.2905 0
M  V30 9217 C 866.825 3.74745 2.0676 0
M  V30 9218 C 866.151 4.10961 3.42075 0
M  V30 9219 C 867.451 5.02222 1.43424 0
M  V30 9220 H 869.145 2.94281 0.551251 0
M  V30 9221 H 866.691 1.41565 0.263715 0
M  V30 9222 H 868.644 2.97146 2.98801 0
M  V30 9223 H 867.368 1.75038 2.75734 0
M  V30 9224 H 866.027 3.39047 1.39436 0
M  V30 9225 H 865.675 3.21968 3.86453 0
M  V30 9226 H 865.375 4.87549 3.27979 0
M  V30 9227 H 866.899 4.49599 4.1315 0
M  V30 9228 H 868.313 5.36109 2.03125 0
M  V30 9229 H 866.71 5.83581 1.39831 0
M  V30 9230 H 867.78 4.83224 0.40285 0
M  V30 9231 N 869.123 -0.277682 1.55134 0
M  V30 9232 C 870.4 -1.0309 1.66228 0
M  V30 9233 C 870.78 -2.0445 0.525701 0
M  V30 9234 O 870.128 -2.23512 -0.474816 0
M  V30 9235 C 870.338 -1.6919 3.05247 0
M  V30 9236 C 871.686 -2.20526 3.62841 0
M  V30 9237 O 872.71 -1.79185 3.07849 0
M  V30 9238 O 871.569 -2.96342 4.59177 0
M  V30 9239 H 868.663 -0.4779 0.674937 0
M  V30 9240 H 871.209 -0.273912 1.67475 0
M  V30 9241 H 869.981 -0.957163 3.79413 0
M  V30 9242 H 869.604 -2.51587 3.07879 0
M  V30 9243 N 870.601 -1.47988 -0.541979 0
M  V30 9244 C 871.878 -1.45878 -1.30303 0
M  V30 9245 C 872.258 -0.163931 -2.10463 0
M  V30 9246 O 871.606 0.854479 -2.11922 0
M  V30 9247 C 871.816 -2.71359 -2.19466 0
M  V30 9248 C 873.164 -3.19199 -2.79995 0
M  V30 9249 O 874.188 -2.72193 -2.2976 0
M  V30 9250 O 873.047 -4.00961 -3.71339 0
M  V30 9251 H 870.141 -0.582043 -0.587498 0
M  V30 9252 H 872.687 -1.60207 -0.559623 0
M  V30 9253 H 871.459 -3.57122 -1.59936 0
M  V30 9254 H 871.082 -2.59692 -3.01075 0
M  V30 9255 N 872.079 0.78992 -1.36375 0
M  V30 9256 C 873.042 1.88414 -1.30509 0
M  V30 9257 C 874.042 1.59384 -0.2129 0
M  V30 9258 O 875.232 1.67805 -0.467651 0
M  V30 9259 C 872.364 3.25188 -1.02302 0
M  V30 9260 H 873.557 1.95031 -2.27822 0
M  V30 9261 H 871.11 0.987664 -1.2114 0
M  V30 9262 H 871.845 3.24254 -0.0544486 0
M  V30 9263 H 871.63 3.47647 -1.81338 0
M  V30 9264 H 873.12 4.05252 -1.00801 0
M  V30 9265 N 873.557 1.20646 1.01402 0
M  V30 9266 C 874.504 0.957618 2.09996 0
M  V30 9267 C 875.474 -0.113115 1.65714 0
M  V30 9268 O 876.659 0.032142 1.90773 0
M  V30 9269 C 873.799 0.5186 3.41181 0
M  V30 9270 C 872.912 1.65777 3.98926 0
M  V30 9271 C 872.047 1.16881 5.18182 0
M  V30 9272 C 871.086 2.2809 5.68015 0
M  V30 9273 N 870.223 1.80392 6.7853 0
M  V30 9274 H 875.063 1.88732 2.30617 0
M  V30 9275 H 872.6 0.940703 1.13089 0
M  V30 9276 H 874.558 0.245367 4.16478 0
M  V30 9277 H 873.188 -0.3741 3.20625 0
M  V30 9278 H 872.24 2.04586 3.207 0
M  V30 9279 H 873.552 2.49507 4.31912 0
M  V30 9280 H 872.706 0.851694 6.00692 0
M  V30 9281 H 871.445 0.301434 4.86768 0
M  V30 9282 H 870.45 2.60614 4.84108 0
M  V30 9283 H 871.675 3.15308 6.01463 0
M  V30 9284 H 869.621 0.959856 6.4894 0
M  V30 9285 H 869.538 2.57701 7.10722 0
M  V30 9286 H 870.806 1.51688 7.64598 0
M  V30 9287 N 875.035 -1.20752 1.01276 0
M  V30 9288 C 875.965 -2.25658 0.600064 0
M  V30 9289 C 876.946 -1.65733 -0.38298 0
M  V30 9290 O 878.131 -1.92324 -0.269256 0
M  V30 9291 C 875.261 -3.47237 -0.0663197 0
M  V30 9292 C 874.215 -4.1973 0.83731 0
M  V30 9293 C 873.541 -5.34687 0.0369102 0
M  V30 9294 C 874.841 -4.76286 2.14357 0
M  V30 9295 H 876.535 -2.60432 1.477 0
M  V30 9296 H 874.081 -1.25187 0.711634 0
M  V30 9297 H 876.034 -4.19803 -0.366563 0
M  V30 9298 H 874.758 -3.11615 -0.977944 0
M  V30 9299 H 873.417 -3.49024 1.1215 0
M  V30 9300 H 873.065 -4.95309 -0.876244 0
M  V30 9301 H 872.765 -5.84119 0.63865 0
M  V30 9302 H 874.289 -6.10059 -0.256968 0
M  V30 9303 H 875.703 -5.40691 1.90595 0
M  V30 9304 H 874.1 -5.36139 2.69583 0
M  V30 9305 H 875.17 -3.9524 2.80916 0
M  V30 9306 N 876.513 -0.788492 -1.36457 0
M  V30 9307 C 877.761 -0.359749 -1.98872 0
M  V30 9308 C 878.082 1.07197 -1.62892 0
M  V30 9309 O 877.352 1.73875 -0.902463 0
M  V30 9310 H 875.932 -0.130029 -0.735596 0
M  V30 9311 H 878.594 -1.01033 -1.66668 0
M  V30 9312 H 877.69 -0.450835 -3.08827 0
M  V30 9313 N 877.991 1.48044 -0.54043 0
M  V30 9314 C 879.239 2.02097 -0.0101367 0
M  V30 9315 C 879.56 1.41881 1.33771 0
M  V30 9316 O 878.83 0.587923 1.8687 0
M  V30 9317 H 877.41 0.747 -0.000758716 0
M  V30 9318 H 880.072 1.81639 -0.706634 0
M  V30 9319 H 879.168 3.11969 0.0904474 0
M  V30 9320 N 879.47 0.276058 1.55163 0
M  V30 9321 C 880.747 -0.392292 1.91626 0
M  V30 9322 C 881.127 -1.73646 1.20043 0
M  V30 9323 O 880.475 -2.26139 0.327606 0
M  V30 9324 C 880.685 -0.531641 3.44927 0
M  V30 9325 C 882.033 -0.8141 4.16722 0
M  V30 9326 O 883.057 -0.616413 3.50826 0
M  V30 9327 O 881.916 -1.19224 5.33337 0
M  V30 9328 H 879.01 -0.214945 0.798579 0
M  V30 9329 H 881.556 0.32228 1.66612 0
M  V30 9330 H 880.328 0.414282 3.89101 0
M  V30 9331 H 879.951 -1.29564 3.75897 0
M  V30 9332 N 880.948 -1.576 0.00335426 0
M  V30 9333 C 882.364 -1.55653 -0.352766 0
M  V30 9334 C 882.564 -1.00632 -1.74572 0
M  V30 9335 O 881.62 -0.641621 -2.44212 0
M  V30 9336 C 882.933 -2.99858 -0.224929 0
M  V30 9337 C 884.481 -3.11563 -0.299619 0
M  V30 9338 C 884.956 -4.57559 -0.200868 0
M  V30 9339 N 886.447 -4.62477 -0.258663 0
M  V30 9340 C 887.182 -5.73031 -0.205644 0
M  V30 9341 N 886.678 -6.92723 -0.103027 0
M  V30 9342 N 888.471 -5.61509 -0.257754 0
M  V30 9343 H 880.622 -1.91703 0.914539 0
M  V30 9344 H 882.885 -0.88068 0.350865 0
M  V30 9345 H 882.591 -3.43964 0.733595 0
M  V30 9346 H 882.465 -3.63547 -1.00564 0
M  V30 9347 H 884.852 -2.67384 -1.24859 0
M  V30 9348 H 884.933 -2.50644 0.511025 0
M  V30 9349 H 884.577 -5.02413 0.744572 0
M  V30 9350 H 884.507 -5.16428 -1.03004 0
M  V30 9351 H 886.998 -3.76375 -0.339168 0
M  V30 9352 H 887.311 -7.7277 -0.0685593 0
M  V30 9353 H 885.656 -6.94966 -0.0686069 0
M  V30 9354 H 888.847 -4.66892 -0.336142 0
M  V30 9355 H 889.02 -6.4765 -0.21297 0
M  V30 9356 N 882.426 0.269451 -1.5528 0
M  V30 9357 C 883.373 1.33316 -1.88403 0
M  V30 9358 C 884.343 1.48909 -0.735881 0
M  V30 9359 O 885.528 1.63259 -0.987479 0
M  V30 9360 C 882.668 2.68778 -2.16454 0
M  V30 9361 C 881.781 2.61377 -3.43956 0
M  V30 9362 C 880.916 3.89042 -3.6169 0
M  V30 9363 C 879.955 3.76166 -4.82872 0
M  V30 9364 N 879.092 4.95673 -4.97245 0
M  V30 9365 H 883.932 1.04368 -2.79126 0
M  V30 9366 H 881.469 0.504147 -1.38191 0
M  V30 9367 H 883.427 3.47599 -2.30719 0
M  V30 9368 H 882.057 2.9592 -1.28961 0
M  V30 9369 H 881.109 1.74247 -3.38145 0
M  V30 9370 H 882.421 2.47764 -4.32914 0
M  V30 9371 H 881.575 4.76304 -3.75791 0
M  V30 9372 H 880.314 4.05526 -2.70924 0
M  V30 9373 H 879.319 2.87287 -4.68771 0
M  V30 9374 H 880.544 3.61198 -5.75077 0
M  V30 9375 H 878.49 5.12561 -4.09411 0
M  V30 9376 H 878.407 4.84605 -5.80254 0
M  V30 9377 H 879.675 5.84498 -5.15735 0
M  V30 9378 N 883.904 1.48273 0.534124 0
M  V30 9379 C 884.814 1.65162 1.66609 0
M  V30 9380 C 885.83 0.534177 1.65598 0
M  V30 9381 O 887.006 0.804715 1.84625 0
M  V30 9382 C 884.071 1.68354 3.03081 0
M  V30 9383 C 883.132 2.91696 3.1498 0
M  V30 9384 C 882.365 2.94725 4.44941 0
M  V30 9385 O 882.588 2.06285 5.31792 0
M  V30 9386 O 881.522 3.8685 4.61119 0
M  V30 9387 H 885.348 2.60991 1.55298 0
M  V30 9388 H 882.933 1.31626 0.706749 0
M  V30 9389 H 884.815 1.72998 3.84252 0
M  V30 9390 H 883.49 0.756978 3.14725 0
M  V30 9391 H 882.397 2.92586 2.33119 0
M  V30 9392 H 883.73 3.83722 3.0825 0
M  V30 9393 N 885.382 -0.782676 1.36792 0
M  V30 9394 C 886.628 -1.54311 1.3159 0
M  V30 9395 C 886.961 -1.93928 -0.102696 0
M  V30 9396 O 886.236 -1.63233 -1.05761 0
M  V30 9397 C 886.519 -2.81561 2.24489 0
M  V30 9398 C 886.372 -2.48268 3.75078 0
M  V30 9399 C 887.691 -3.83428 2.16034 0
M  V30 9400 H 884.81 -0.559828 0.479335 0
M  V30 9401 H 887.452 -0.898717 1.67401 0
M  V30 9402 H 885.602 -3.36549 1.9408 0
M  V30 9403 H 887.274 -1.99279 4.16036 0
M  V30 9404 H 885.517 -1.81116 3.94182 0
M  V30 9405 H 886.188 -3.39183 4.35499 0
M  V30 9406 H 888.664 -3.37905 2.42815 0
M  V30 9407 H 887.54 -4.70204 2.83194 0
M  V30 9408 H 887.801 -4.26887 1.14976 0
M  V30 9409 N 886.86 -1.21182 -1.00761 0
M  V30 9410 C 888.085 -1.05411 -1.78615 0
M  V30 9411 C 888.51 0.391837 -1.83973 0
M  V30 9412 O 887.868 1.28256 -1.28141 0
M  V30 9413 C 887.916 -1.65285 -3.20489 0
M  V30 9414 O 887.02 -0.896558 -4.02536 0
M  V30 9415 H 886.361 -0.37116 -0.550578 0
M  V30 9416 H 888.891 -1.60669 -1.26676 0
M  V30 9417 H 888.901 -1.69397 -3.71172 0
M  V30 9418 H 887.576 -2.70514 -3.15904 0
M  V30 9419 H 886.153 -0.930335 -3.61108 0
M  V30 9420 N 888.338 1.20213 -1.01915 0
M  V30 9421 C 889.587 1.88968 -0.705261 0
M  V30 9422 C 889.9 1.79869 0.768531 0
M  V30 9423 O 891.106 2.43783 1.19508 0
M  V30 9424 C 889.562 3.38911 -1.21109 0
M  V30 9425 C 889.17 3.5659 -2.71197 0
M  V30 9426 C 890.914 4.13204 -0.97275 0
M  V30 9427 C 888.821 5.00372 -3.15248 0
M  V30 9428 H 887.751 0.707715 -0.260107 0
M  V30 9429 H 890.402 1.35977 -1.23217 0
M  V30 9430 H 888.784 3.9124 -0.612152 0
M  V30 9431 H 889.958 3.14635 -3.36662 0
M  V30 9432 H 888.273 2.95671 -2.93202 0
M  V30 9433 H 890.87 5.19221 -1.27726 0
M  V30 9434 H 891.213 4.16201 0.09072 0
M  V30 9435 H 891.746 3.66983 -1.5352 0
M  V30 9436 H 888.485 5.02532 -4.20882 0
M  V30 9437 H 888.005 5.43127 -2.54505 0
M  V30 9438 H 889.684 5.68969 -3.08032 0
M  V30 9439 N 889.816 0.795718 1.36037 0
M  V30 9440 C 890.746 0.212803 2.32528 0
M  V30 9441 C 891.727 -0.655716 1.56953 0
M  V30 9442 O 892.912 -0.588238 1.85077 0
M  V30 9443 C 890.042 -0.648189 3.41198 0
M  V30 9444 C 888.996 0.120948 4.27829 0
M  V30 9445 C 888.322 -0.861044 5.27722 0
M  V30 9446 C 889.622 1.31375 5.05508 0
M  V30 9447 H 891.316 1.01893 2.81528 0
M  V30 9448 H 888.862 0.491422 1.35355 0
M  V30 9449 H 890.815 -1.06597 4.07695 0
M  V30 9450 H 889.539 -1.48709 2.9078 0
M  V30 9451 H 888.198 0.519777 3.62897 0
M  V30 9452 H 887.846 -1.69515 4.73575 0
M  V30 9453 H 887.546 -0.350808 5.86552 0
M  V30 9454 H 889.07 -1.27726 5.97092 0
M  V30 9455 H 890.484 0.971406 5.6501 0
M  V30 9456 H 888.881 1.75772 5.73781 0
M  V30 9457 H 889.951 2.10593 4.36782 0
M  V30 9458 N 891.294 -1.47756 0.548274 0
M  V30 9459 C 892.541 -2.02489 0.0208955 0
M  V30 9460 C 892.869 -1.42356 -1.32533 0
M  V30 9461 O 892.124 -0.565448 -1.87353 0
M  V30 9462 C 892.423 -3.5716 -0.131069 0
M  V30 9463 C 892.089 -4.36169 1.14313 0
M  V30 9464 C 890.751 -4.57476 1.4923 0
M  V30 9465 C 893.103 -4.81801 1.9879 0
M  V30 9466 C 890.431 -5.21662 2.68487 0
M  V30 9467 C 892.783 -5.47303 3.17242 0
M  V30 9468 C 891.447 -5.66844 3.52483 0
M  V30 9469 H 890.717 -0.740961 0.00764621 0
M  V30 9470 H 893.364 -1.77531 0.717987 0
M  V30 9471 H 891.669 -3.8106 -0.911063 0
M  V30 9472 H 893.366 -3.9715 -0.55433 0
M  V30 9473 H 889.956 -4.19858 0.861235 0
M  V30 9474 H 894.14 -4.65126 1.73123 0
M  V30 9475 H 889.396 -5.34987 2.95971 0
M  V30 9476 H 893.57 -5.81626 3.82994 0
M  V30 9477 H 891.197 -6.16352 4.44988 0
M  V30 9478 N 892.772 -0.284283 -1.55015 0
M  V30 9479 C 893.997 0.335799 -2.04664 0
M  V30 9480 C 894.422 1.47999 -1.16094 0
M  V30 9481 O 893.78 1.8058 -0.161454 0
M  V30 9482 C 893.828 0.785615 -3.51938 0
M  V30 9483 O 892.932 1.89202 -3.66437 0
M  V30 9484 H 892.273 0.0680233 -0.660506 0
M  V30 9485 H 894.803 -0.421255 -2.00216 0
M  V30 9486 H 894.813 1.07892 -3.93476 0
M  V30 9487 H 893.488 -0.0514675 -4.15868 0
M  V30 9488 H 892.065 1.60055 -3.36804 0
M  V30 9489 N 894.251 1.57596 -0.0117121 0
M  V30 9490 C 895.528 1.82323 0.708356 0
M  V30 9491 C 895.908 0.891947 1.91331 0
M  V30 9492 O 895.256 -0.0565984 2.2843 0
M  V30 9493 C 895.466 3.31111 1.10303 0
M  V30 9494 C 896.814 3.97147 1.50199 0
M  V30 9495 O 897.838 3.35503 1.1965 0
M  V30 9496 O 896.697 5.0576 2.07049 0
M  V30 9497 H 893.791 0.751173 0.345931 0
M  V30 9498 H 896.337 1.69657 -0.0380632 0
M  V30 9499 H 895.109 3.90534 0.24467 0
M  V30 9500 H 894.732 3.48818 1.90818 0
M  V30 9501 N 895.729 -0.261212 1.5542 0
M  V30 9502 C 896.978 -0.989072 1.75785 0
M  V30 9503 C 897.291 -1.8702 0.572961 0
M  V30 9504 O 898.497 -2.63374 0.659289 0
M  V30 9505 C 896.953 -1.80857 3.11157 0
M  V30 9506 C 896.561 -0.975535 4.3725 0
M  V30 9507 C 898.305 -2.53003 3.40866 0
M  V30 9508 C 896.212 -1.7901 5.63657 0
M  V30 9509 H 895.142 -0.373019 0.655266 0
M  V30 9510 H 897.793 -0.244267 1.81867 0
M  V30 9511 H 896.175 -2.59479 2.99144 0
M  V30 9512 H 897.349 -0.232661 4.60212 0
M  V30 9513 H 895.664 -0.368083 4.1477 0
M  V30 9514 H 898.261 -3.14372 4.32521 0
M  V30 9515 H 898.604 -3.23891 2.61535 0
M  V30 9516 H 899.137 -1.81403 3.54031 0
M  V30 9517 H 895.876 -1.12522 6.4577 0
M  V30 9518 H 895.396 -2.50863 5.44819 0
M  V30 9519 H 897.075 -2.36082 6.0239 0
M  V30 9520 N 897.207 -1.48554 -0.526253 0
M  V30 9521 C 898.623 -1.34757 -0.855138 0
M  V30 9522 C 898.823 -0.36142 -1.98232 0
M  V30 9523 O 897.879 0.216026 -2.51574 0
M  V30 9524 C 899.192 -2.74877 -1.21915 0
M  V30 9525 C 900.74 -2.83393 -1.32882 0
M  V30 9526 C 901.215 -4.24223 -1.72624 0
M  V30 9527 N 902.706 -4.26913 -1.7972 0
M  V30 9528 C 903.441 -5.32824 -2.11863 0
M  V30 9529 N 902.937 -6.49008 -2.42405 0
M  V30 9530 N 904.73 -5.20221 -2.12901 0
M  V30 9531 H 896.881 -2.11284 0.217422 0
M  V30 9532 H 899.144 -0.947367 0.0346362 0
M  V30 9533 H 898.85 -3.48619 -0.464486 0
M  V30 9534 H 898.724 -3.0864 -2.16844 0
M  V30 9535 H 901.111 -2.09904 -2.07424 0
M  V30 9536 H 901.192 -2.53245 -0.360638 0
M  V30 9537 H 900.836 -4.98229 -0.986411 0
M  V30 9538 H 900.766 -4.51817 -2.70498 0
M  V30 9539 H 903.257 -3.4311 -1.58379 0
M  V30 9540 H 903.57 -7.25561 -2.66048 0
M  V30 9541 H 901.915 -6.52277 -2.39917 0
M  V30 9542 H 905.106 -4.28469 -1.885 0
M  V30 9543 H 905.279 -6.02861 -2.37619 0
M  V30 9544 N 898.685 0.775411 -1.37205 0
M  V30 9545 C 899.933 1.53081 -1.3195 0
M  V30 9546 C 900.254 1.9476 0.0966864 0
M  V30 9547 O 899.524 1.66019 1.03993 0
M  V30 9548 H 898.104 0.567762 -0.485444 0
M  V30 9549 H 900.766 0.92309 -1.71654 0
M  V30 9550 H 899.862 2.4319 -1.95614 0
M  V30 9551 N 900.163 1.21714 1.00117 0
M  V30 9552 C 901.393 1.06124 1.77261 0
M  V30 9553 C 901.801 -0.391717 1.85101 0
M  V30 9554 O 901.144 -1.28347 1.31426 0
M  V30 9555 C 901.206 1.58778 3.22536 0
M  V30 9556 C 900.87 3.07289 3.38264 0
M  V30 9557 C 901.867 4.04801 3.26239 0
M  V30 9558 C 899.552 3.46574 3.63582 0
M  V30 9559 C 901.546 5.39585 3.39303 0
M  V30 9560 C 899.233 4.81509 3.76288 0
M  V30 9561 C 900.231 5.77824 3.64155 0
M  V30 9562 O 899.919 7.1031 3.7645 0
M  V30 9563 H 899.651 0.372979 0.563793 0
M  V30 9564 H 902.205 1.61589 1.26799 0
M  V30 9565 H 900.435 0.977129 3.74151 0
M  V30 9566 H 902.124 1.38974 3.81367 0
M  V30 9567 H 902.89 3.75795 3.066 0
M  V30 9568 H 898.769 2.72137 3.72106 0
M  V30 9569 H 902.313 6.14744 3.2975 0
M  V30 9570 H 898.21 5.102 3.95432 0
M  V30 9571 H 898.978 7.17774 3.93374 0
M  V30 9572 N 901.641 -1.19671 1.02551 0
M  V30 9573 C 902.869 -1.93233 0.739513 0
M  V30 9574 C 903.284 -1.75298 -0.701158 0
M  V30 9575 O 902.641 -1.07269 -1.47647 0
M  V30 9576 C 902.692 -3.45085 1.07697 0
M  V30 9577 O 902.413 -3.62441 2.46106 0
M  V30 9578 C 903.914 -4.35776 0.813298 0
M  V30 9579 H 901.134 -0.613905 0.270853 0
M  V30 9580 H 903.678 -1.51909 1.36909 0
M  V30 9581 H 901.833 -3.84255 0.492635 0
M  V30 9582 H 902.247 -4.56337 2.58567 0
M  V30 9583 H 903.721 -5.40941 1.09941 0
M  V30 9584 H 904.198 -4.38474 -0.252359 0
M  V30 9585 H 904.804 -4.02282 1.38021 0
M  V30 9586 N 903.119 -0.802921 -1.35613 0
M  V30 9587 C 904.347 -0.39393 -2.03115 0
M  V30 9588 C 904.762 0.993961 -1.60517 0
M  V30 9589 O 904.119 1.63984 -0.800973 0
M  V30 9590 C 904.17 -0.463486 -3.58516 0
M  V30 9591 O 903.891 -1.79666 -3.99565 0
M  V30 9592 C 905.392 -0.0468377 -4.43275 0
M  V30 9593 H 902.612 -0.160519 -0.651517 0
M  V30 9594 H 905.156 -1.08552 -1.73311 0
M  V30 9595 H 903.311 0.179821 -3.86982 0
M  V30 9596 H 903.725 -1.75688 -4.942 0
M  V30 9597 H 905.199 -0.146626 -5.51805 0
M  V30 9598 H 905.676 1.00741 -4.2749 0
M  V30 9599 H 906.282 -0.663158 -4.20098 0
M  V30 9600 N 904.597 1.47463 -0.556102 0
M  V30 9601 C 905.527 2.32801 0.180497 0
M  V30 9602 C 906.508 1.43721 0.909848 0
M  V30 9603 O 907.693 1.72578 0.89053 0
M  V30 9604 C 904.823 3.25478 1.21167 0
M  V30 9605 C 903.777 4.2379 0.598846 0
M  V30 9606 C 903.103 5.05783 1.73457 0
M  V30 9607 C 904.403 5.20387 -0.446659 0
M  V30 9608 H 906.097 2.94636 -0.531956 0
M  V30 9609 H 903.643 1.41683 -0.257267 0
M  V30 9610 H 905.596 3.8402 1.73513 0
M  V30 9611 H 904.32 2.61695 1.95405 0
M  V30 9612 H 902.979 3.66472 0.0966897 0
M  V30 9613 H 902.627 4.38405 2.46596 0
M  V30 9614 H 902.327 5.72343 1.33031 0
M  V30 9615 H 903.851 5.67183 2.26131 0
M  V30 9616 H 905.265 5.73299 -0.00930019 0
M  V30 9617 H 903.662 5.95143 -0.769735 0
M  V30 9618 H 904.732 4.65932 -1.34295 0
M  V30 9619 N 906.075 0.2925 1.54862 0
M  V30 9620 C 907.303 -0.322113 2.04377 0
M  V30 9621 C 907.718 -1.48164 1.17016 0
M  V30 9622 O 907.075 -1.81466 0.19395 0
M  V30 9623 C 907.126 -0.786506 3.5284 0
M  V30 9624 O 906.847 0.326863 4.36879 0
M  V30 9625 C 908.348 -1.46715 4.18318 0
M  V30 9626 H 905.568 -0.0712074 0.667211 0
M  V30 9627 H 908.112 0.429657 1.99935 0
M  V30 9628 H 906.267 -1.48832 3.5767 0
M  V30 9629 H 906.681 -0.0331558 5.2449 0
M  V30 9630 H 908.155 -1.74333 5.23748 0
M  V30 9631 H 908.632 -2.40443 3.67538 0
M  V30 9632 H 909.238 -0.808735 4.1754 0
M  V30 9633 N 907.553 -1.57587 0.0200696 0
M  V30 9634 C 908.463 -2.13119 -0.980676 0
M  V30 9635 C 909.479 -1.08124 -1.36328 0
M  V30 9636 O 910.655 -1.40134 -1.44653 0
M  V30 9637 C 907.72 -2.63991 -2.24743 0
M  V30 9638 C 906.781 -3.83667 -1.9261 0
M  V30 9639 C 906.014 -4.32103 -3.13246 0
M  V30 9640 O 906.237 -3.79758 -4.25606 0
M  V30 9641 O 905.171 -5.24047 -2.96072 0
M  V30 9642 H 908.997 -2.98887 -0.538528 0
M  V30 9643 H 906.582 -1.48055 -0.19999 0
M  V30 9644 H 908.464 -2.9682 -2.99125 0
M  V30 9645 H 907.139 -1.81311 -2.68157 0
M  V30 9646 H 906.046 -3.55778 -1.15641 0
M  V30 9647 H 907.379 -4.67482 -1.54019 0
M  V30 9648 N 909.032 0.252966 -1.55557 0
M  V30 9649 C 909.98 1.33289 -1.90622 0
M  V30 9650 C 910.974 1.50133 -0.784638 0
M  V30 9651 O 912.18 1.51679 -0.969196 0
M  V30 9652 H 908.555 0.446196 -0.605321 0
M  V30 9653 H 910.526 1.00977 -2.80796 0
M  V30 9654 C 909.275 2.68254 -2.21213 0
M  V30 9655 H 908.598 2.5609 -3.07014 0
M  V30 9656 H 910.038 3.42707 -2.49656 0
M  V30 9657 C 908.497 3.20884 -1.02642 0
M  V30 9658 O 909.027 4.00783 -0.271292 0
M  V30 9659 N 907.233 2.7883 -0.818682 0
M  V30 9660 H 906.78 2.13966 -1.43444 0
M  V30 9661 H 906.738 3.14388 -0.0269989 0
M  V30 9662 N 910.51 1.48831 0.518367 0
M  V30 9663 C 911.44 1.67119 1.63075 0
M  V30 9664 C 912.421 0.519948 1.61958 0
M  V30 9665 O 913.606 0.753824 1.78972 0
M  V30 9666 C 910.736 1.72158 3.01627 0
M  V30 9667 C 909.69 2.86898 3.17606 0
M  V30 9668 C 909.016 2.77035 4.57335 0
M  V30 9669 C 910.316 4.28057 2.99274 0
M  V30 9670 H 912.01 2.60248 1.48025 0
M  V30 9671 H 909.556 1.2524 0.710694 0
M  V30 9672 H 911.509 1.83539 3.7933 0
M  V30 9673 H 910.233 0.756157 3.17726 0
M  V30 9674 H 908.892 2.75091 2.42323 0
M  V30 9675 H 908.54 1.78438 4.70286 0
M  V30 9676 H 908.24 3.54036 4.6897 0
M  V30 9677 H 909.764 2.904 5.37122 0
M  V30 9678 H 911.178 4.40636 3.6676 0
M  V30 9679 H 909.575 5.06145 3.22393 0
M  V30 9680 H 910.645 4.4371 1.95574 0
M  V30 9681 N 911.988 -0.768124 1.37614 0
M  V30 9682 C 912.898 -1.91249 1.35871 0
M  V30 9683 C 913.914 -1.7208 0.257786 0
M  V30 9684 O 915.09 -1.95253 0.493782 0
M  V30 9685 C 912.155 -3.26423 1.16829 0
M  V30 9686 C 911.216 -3.5822 2.36594 0
M  V30 9687 C 910.449 -4.86945 2.1845 0
M  V30 9688 O 910.672 -5.58258 1.17064 0
M  V30 9689 O 909.606 -5.17888 3.06718 0
M  V30 9690 H 913.432 -1.95671 2.32264 0
M  V30 9691 H 911.017 -0.911382 1.18382 0
M  V30 9692 H 912.899 -4.07269 1.08212 0
M  V30 9693 H 911.574 -3.22845 0.235123 0
M  V30 9694 H 910.481 -2.77594 2.50783 0
M  V30 9695 H 911.814 -3.66545 3.2849 0
M  V30 9696 N 913.466 -1.22244 -0.994698 0
M  V30 9697 C 914.429 -0.992308 -2.06606 0
M  V30 9698 C 915.429 0.0405872 -1.60749 0
M  V30 9699 O 916.619 -0.197737 -1.73074 0
M  V30 9700 C 913.751 -0.498499 -3.37236 0
M  V30 9701 H 914.944 -1.9429 -2.28455 0
M  V30 9702 H 912.497 -1.04087 -1.166 0
M  V30 9703 H 913.232 0.456531 -3.21071 0
M  V30 9704 H 913.017 -1.24367 -3.71854 0
M  V30 9705 H 914.507 -0.35768 -4.16065 0
M  V30 9706 N 914.944 1.19125 -1.03184 0
M  V30 9707 C 915.854 2.26112 -0.625329 0
M  V30 9708 C 916.87 1.7056 0.344298 0
M  V30 9709 O 918.046 2.0039 0.20144 0
M  V30 9710 C 915.111 3.46697 0.0145169 0
M  V30 9711 C 914.172 4.17419 -1.00299 0
M  V30 9712 C 913.405 5.32247 -0.393581 0
M  V30 9713 O 913.628 5.64724 0.802659 0
M  V30 9714 O 912.562 5.91428 -1.1179 0
M  V30 9715 H 916.388 2.63131 -1.51643 0
M  V30 9716 H 913.973 1.26036 -0.802197 0
M  V30 9717 H 915.855 4.19762 0.371139 0
M  V30 9718 H 914.53 3.11521 0.879581 0
M  V30 9719 H 913.437 3.4646 -1.41125 0
M  V30 9720 H 914.77 4.56573 -1.83852 0
M  V30 9721 N 916.422 0.810101 1.35185 0
M  V30 9722 C 917.332 0.224565 2.33523 0
M  V30 9723 C 918.348 -0.634287 1.62027 0
M  V30 9724 O 919.524 -0.545211 1.9388 0
M  V30 9725 C 916.589 -0.614319 3.41214 0
M  V30 9726 C 915.65 0.265435 4.28479 0
M  V30 9727 C 914.883 -0.533506 5.31027 0
M  V30 9728 O 915.106 -1.7679 5.42311 0
M  V30 9729 O 914.04 0.0774573 6.0185 0
M  V30 9730 H 917.866 1.03815 2.85405 0
M  V30 9731 H 915.451 0.571964 1.38018 0
M  V30 9732 H 917.333 -1.09201 4.07005 0
M  V30 9733 H 916.008 -1.40545 2.91597 0
M  V30 9734 H 914.915 0.790343 3.65656 0
M  V30 9735 H 916.248 1.0206 4.81503 0
M  V30 9736 N 917.9 -1.47166 0.563914 0
M  V30 9737 C 919.146 -2.02756 0.0424338 0
M  V30 9738 C 919.479 -1.43662 -1.3067 0
M  V30 9739 O 918.754 -0.594676 -1.85186 0
M  V30 9740 C 919.037 -3.60074 -0.0434793 0
M  V30 9741 C 918.89 -4.29587 1.33323 0
M  V30 9742 C 920.209 -4.336 -0.753568 0
M  V30 9743 H 917.328 -0.736806 0.0168946 0
M  V30 9744 H 919.97 -1.75521 0.727496 0
M  V30 9745 H 918.12 -3.83409 -0.626906 0
M  V30 9746 H 919.792 -4.17573 1.96037 0
M  V30 9747 H 918.035 -3.8968 1.9061 0
M  V30 9748 H 918.706 -5.38218 1.22576 0
M  V30 9749 H 921.182 -4.15299 -0.258126 0
M  V30 9750 H 920.058 -5.43291 -0.782659 0
M  V30 9751 H 920.319 -4.03302 -1.81108 0
M  V30 9752 N 919.378 -0.300708 -1.54705 0
M  V30 9753 C 920.624 0.309111 -2.0043 0
M  V30 9754 C 920.957 1.53562 -1.1888 0
M  V30 9755 O 920.232 1.92683 -0.265205 0
M  V30 9756 C 920.515 0.665995 -3.53888 0
M  V30 9757 C 920.368 -0.56963 -4.46178 0
M  V30 9758 C 921.687 1.49262 -4.14016 0
M  V30 9759 H 918.806 0.110878 -0.728612 0
M  V30 9760 H 921.448 -0.412748 -1.85463 0
M  V30 9761 H 919.598 1.281 -3.66773 0
M  V30 9762 H 921.27 -1.20811 -4.45199 0
M  V30 9763 H 919.513 -1.20292 -4.16788 0
M  V30 9764 H 920.184 -0.275785 -5.51311 0
M  V30 9765 H 922.66 0.972979 -4.04564 0
M  V30 9766 H 921.536 1.71111 -5.21548 0
M  V30 9767 H 921.797 2.48174 -3.65872 0
M  V30 9768 N 920.856 1.57574 -0.0284266 0
M  V30 9769 C 922.081 1.96479 0.664137 0
M  V30 9770 C 922.506 0.904826 1.64908 0
M  V30 9771 O 921.864 -0.134339 1.80802 0
M  V30 9772 C 921.912 3.34479 1.34745 0
M  V30 9773 O 921.016 3.30794 2.46271 0
M  V30 9774 H 920.357 0.640654 0.174524 0
M  V30 9775 H 922.887 2.04402 -0.0900729 0
M  V30 9776 H 922.897 3.70694 1.7044 0
M  V30 9777 H 921.572 4.1117 0.625468 0
M  V30 9778 H 920.149 3.06294 2.12693 0
M  V30 9779 N 922.334 -0.244713 1.55689 0
M  V30 9780 C 923.267 -1.32946 1.85474 0
M  V30 9781 C 924.245 -1.46279 0.710021 0
M  V30 9782 O 925.429 -1.62459 0.956004 0
M  V30 9783 C 922.556 -2.7027 2.04137 0
M  V30 9784 C 921.602 -2.74075 3.2678 0
M  V30 9785 S 922.435 -2.30465 4.8337 0
M  V30 9786 C 923.591 -3.69709 5.05041 0
M  V30 9787 H 923.824 -1.07482 2.77191 0
M  V30 9788 H 921.357 -0.445807 1.47824 0
M  V30 9789 H 923.315 -3.4934 2.15574 0
M  V30 9790 H 921.976 -2.9297 1.13259 0
M  V30 9791 H 921.169 -3.74932 3.36812 0
M  V30 9792 H 920.771 -2.03051 3.1408 0
M  V30 9793 H 923.063 -4.65222 4.92518 0
M  V30 9794 H 924.006 -3.6461 6.07014 0
M  V30 9795 H 924.414 -3.62323 4.32877 0
M  V30 9796 N 923.813 -1.49104 -0.510467 0
M  V30 9797 C 924.743 -1.67981 -1.62187 0
M  V30 9798 C 925.724 -0.528529 -1.6168 0
M  V30 9799 O 926.909 -0.763305 -1.7857 0
M  V30 9800 C 924.039 -1.73755 -3.0071 0
M  V30 9801 C 922.993 -2.88579 -3.1608 0
M  V30 9802 C 922.319 -2.79457 -4.5586 0
M  V30 9803 C 923.619 -4.29638 -2.97 0
M  V30 9804 H 925.313 -2.61029 -1.46643 0
M  V30 9805 H 922.859 -1.25615 -0.704042 0
M  V30 9806 H 924.812 -1.85548 -3.78352 0
M  V30 9807 H 923.536 -0.772996 -3.17321 0
M  V30 9808 H 922.195 -2.76372 -2.40861 0
M  V30 9809 H 921.843 -1.80929 -4.69333 0
M  V30 9810 H 921.543 -3.56518 -4.67086 0
M  V30 9811 H 923.067 -2.93245 -5.35574 0
M  V30 9812 H 924.481 -4.42575 -3.64418 0
M  V30 9813 H 922.878 -5.07847 -3.19704 0
M  V30 9814 H 923.948 -4.44741 -1.93219 0
M  V30 9815 N 925.291 0.760815 -1.38019 0
M  V30 9816 C 926.239 1.89578 -1.34771 0
M  V30 9817 C 927.233 1.67766 -0.234714 0
M  V30 9818 O 928.439 1.75423 -0.403352 0
M  V30 9819 H 924.814 0.623608 -0.420258 0
M  V30 9820 H 926.785 1.89434 -2.30558 0
M  V30 9821 C 925.534 3.26976 -1.18246 0
M  V30 9822 H 924.857 3.44342 -2.03147 0
M  V30 9823 H 926.297 4.06657 -1.20026 0
M  V30 9824 C 924.756 3.36717 0.111145 0
M  V30 9825 O 925.286 3.86607 1.09079 0
M  V30 9826 N 923.492 2.90128 0.165542 0
M  V30 9827 H 923.039 2.49719 -0.632328 0
M  V30 9828 H 922.997 2.97026 1.03067 0
M  V30 9829 N 926.769 1.22769 0.988202 0
M  V30 9830 C 927.679 1.01844 2.11341 0
M  V30 9831 C 928.695 -0.0346937 1.73965 0
M  V30 9832 O 929.871 0.159061 2.00771 0
M  V30 9833 C 926.936 0.603837 3.41401 0
M  V30 9834 C 925.997 1.73113 3.92849 0
M  V30 9835 C 925.23 1.33621 5.16702 0
M  V30 9836 O 925.453 0.217041 5.69987 0
M  V30 9837 O 924.387 2.15444 5.62021 0
M  V30 9838 H 928.213 1.96127 2.31879 0
M  V30 9839 H 925.798 1.01405 1.09715 0
M  V30 9840 H 927.68 0.383196 4.19654 0
M  V30 9841 H 926.355 -0.310082 3.22211 0
M  V30 9842 H 925.262 2.00634 3.15748 0
M  V30 9843 H 926.595 2.62308 4.1648 0
M  V30 9844 N 928.247 -1.18576 1.03814 0
M  V30 9845 C 929.477 -1.92158 0.758864 0
M  V30 9846 C 929.885 -1.76267 -0.687498 0
M  V30 9847 O 929.228 -1.08806 -1.4801 0
M  V30 9848 C 929.29 -3.44063 1.04217 0
M  V30 9849 C 928.954 -3.8373 2.48193 0
M  V30 9850 C 929.951 -3.87722 3.46363 0
M  V30 9851 C 927.636 -4.151 2.82838 0
M  V30 9852 C 929.63 -4.2253 4.77229 0
M  V30 9853 C 927.317 -4.49578 4.13911 0
M  V30 9854 C 928.315 -4.53269 5.10917 0
M  V30 9855 O 928.003 -4.86945 6.39641 0
M  V30 9856 H 927.735 -0.61694 0.276335 0
M  V30 9857 H 930.289 -1.51388 1.38819 0
M  V30 9858 H 928.519 -3.85061 0.355709 0
M  V30 9859 H 930.208 -3.9889 0.751091 0
M  V30 9860 H 930.974 -3.63627 3.20936 0
M  V30 9861 H 926.853 -4.11406 2.08006 0
M  V30 9862 H 930.397 -4.25326 5.52941 0
M  V30 9863 H 926.294 -4.73133 4.39107 0
M  V30 9864 H 927.062 -5.04857 6.44253 0
M  V30 9865 N 929.725 -0.817259 -1.34754 0
M  V30 9866 C 930.972 -0.402648 -1.98457 0
M  V30 9867 C 931.3 1.03287 -1.64809 0
M  V30 9868 O 930.555 1.73316 -0.908851 0
M  V30 9869 C 930.854 -0.5453 -3.53216 0
M  V30 9870 C 930.52 -1.9457 -4.06759 0
M  V30 9871 C 929.182 -2.32881 -4.21094 0
M  V30 9872 C 931.534 -2.86141 -4.35629 0
M  V30 9873 C 928.862 -3.62108 -4.61622 0
M  V30 9874 C 931.214 -4.14826 -4.776 0
M  V30 9875 C 929.878 -4.53121 -4.9014 0
M  V30 9876 H 929.148 -0.147339 -0.726204 0
M  V30 9877 H 931.795 -1.04011 -1.60791 0
M  V30 9878 H 930.1 0.175576 -3.91406 0
M  V30 9879 H 931.797 -0.205112 -4.00475 0
M  V30 9880 H 928.387 -1.6381 -3.96061 0
M  V30 9881 H 932.571 -2.57788 -4.24098 0
M  V30 9882 H 927.827 -3.91613 -4.69521 0
M  V30 9883 H 932.001 -4.85874 -4.98899 0
M  V30 9884 H 929.628 -5.53307 -5.21302 0
M  V30 9885 N 931.203 1.46865 -0.571711 0
M  V30 9886 C 932.113 2.33979 0.170571 0
M  V30 9887 C 933.129 1.49083 0.897239 0
M  V30 9888 O 934.305 1.81979 0.862888 0
M  V30 9889 C 931.37 3.26063 1.17831 0
M  V30 9890 C 930.431 4.26855 0.457499 0
M  V30 9891 C 929.664 5.14539 1.41722 0
M  V30 9892 O 929.887 5.04945 2.65305 0
M  V30 9893 O 928.821 5.94612 0.9338 0
M  V30 9894 H 932.647 2.98781 -0.544396 0
M  V30 9895 H 930.232 1.4566 -0.332198 0
M  V30 9896 H 932.114 3.82903 1.75965 0
M  V30 9897 H 930.789 2.63871 1.87493 0
M  V30 9898 H 929.696 3.73734 -0.165406 0
M  V30 9899 H 931.029 4.91802 -0.197953 0
M  V30 9900 N 932.681 0.308908 1.54543 0
M  V30 9901 C 933.906 -0.303196 2.05172 0
M  V30 9902 C 934.331 -1.46133 1.18434 0
M  V30 9903 O 933.689 -1.803 0.190162 0
M  V30 9904 C 933.737 -0.729526 3.53143 0
M  V30 9905 O 932.841 -1.83348 3.69401 0
M  V30 9906 H 932.182 -0.0575066 0.661505 0
M  V30 9907 H 934.712 0.453055 1.99521 0
M  V30 9908 H 934.722 -1.01619 3.95143 0
M  V30 9909 H 933.397 0.117622 4.15734 0
M  V30 9910 H 931.974 -1.54676 3.39308 0
M  V30 9911 N 934.159 -1.57557 0.0367827 0
M  V30 9912 C 935.092 -2.06205 -0.977479 0
M  V30 9913 C 936.07 -0.959444 -1.31276 0
M  V30 9914 O 937.254 -1.23033 -1.42811 0
M  V30 9915 C 934.381 -2.49053 -2.29544 0
M  V30 9916 C 933.427 -3.70409 -2.11423 0
M  V30 9917 S 934.26 -5.16715 -1.40593 0
M  V30 9918 C 935.416 -5.62864 -2.73742 0
M  V30 9919 H 935.649 -2.91913 -0.5634 0
M  V30 9920 H 933.182 -1.53404 -0.175111 0
M  V30 9921 H 935.14 -2.74403 -3.05308 0
M  V30 9922 H 933.801 -1.63677 -2.68083 0
M  V30 9923 H 932.994 -3.98262 -3.08875 0
M  V30 9924 H 932.596 -3.4525 -1.438 0
M  V30 9925 H 934.888 -5.67571 -3.69958 0
M  V30 9926 H 935.831 -6.62294 -2.50544 0
M  V30 9927 H 936.239 -4.90539 -2.79341 0
M  V30 9928 N 935.637 0.236453 -1.55816 0
M  V30 9929 C 936.883 0.964439 -1.784 0
M  V30 9930 C 937.216 1.84573 -0.603868 0
M  V30 9931 O 936.491 1.90395 0.397473 0
M  V30 9932 C 936.774 1.81608 -3.10951 0
M  V30 9933 C 936.627 0.962283 -4.39386 0
M  V30 9934 C 937.946 2.79665 -3.39817 0
M  V30 9935 H 935.065 0.349192 -0.649026 0
M  V30 9936 H 937.707 0.234247 -1.8855 0
M  V30 9937 H 935.857 2.43864 -3.02428 0
M  V30 9938 H 937.529 0.35762 -4.59912 0
M  V30 9939 H 935.772 0.267062 -4.32977 0
M  V30 9940 H 936.443 1.59222 -5.28538 0
M  V30 9941 H 938.919 2.27546 -3.4837 0
M  V30 9942 H 937.795 3.36367 -4.33761 0
M  V30 9943 H 938.056 3.56657 -2.61244 0
M  V30 9944 N 937.115 1.49373 0.502552 0
M  V30 9945 C 938.025 1.68659 1.63068 0
M  V30 9946 C 939.041 0.569182 1.64427 0
M  V30 9947 O 940.217 0.843695 1.82876 0
M  V30 9948 C 937.282 1.74745 2.99441 0
M  V30 9949 C 936.343 2.98311 3.08721 0
M  V30 9950 C 935.576 3.04097 4.38589 0
M  V30 9951 O 935.799 2.17519 5.27297 0
M  V30 9952 O 934.733 3.96544 4.52809 0
M  V30 9953 H 938.559 2.64226 1.49727 0
M  V30 9954 H 936.144 1.33096 0.67867 0
M  V30 9955 H 938.026 1.8111 3.80496 0
M  V30 9956 H 936.701 0.823565 3.13048 0
M  V30 9957 H 935.608 2.97465 2.2686 0
M  V30 9958 H 936.941 3.90174 3.00041 0
M  V30 9959 N 938.594 -0.753485 1.38421 0
M  V30 9960 C 939.557 -1.84888 1.35459 0
M  V30 9961 C 940.557 -1.58764 0.255083 0
M  V30 9962 O 941.747 -1.66507 0.511978 0
M  V30 9963 C 938.879 -3.22361 1.10888 0
M  V30 9964 H 940.072 -1.88922 2.32913 0
M  V30 9965 H 937.625 -0.955199 1.23716 0
M  V30 9966 H 938.36 -3.23996 0.1404 0
M  V30 9967 H 938.145 -3.42717 1.90492 0
M  V30 9968 H 939.635 -4.02437 1.1151 0
M  V30 9969 N 940.072 -1.23292 -0.981677 0
M  V30 9970 C 941.318 -1.06582 -1.72535 0
M  V30 9971 C 941.651 0.396538 -1.90108 0
M  V30 9972 O 940.926 1.29363 -1.45243 0
M  V30 9973 C 941.209 -1.7904 -3.12437 0
M  V30 9974 C 941.062 -3.32941 -3.02441 0
M  V30 9975 C 942.381 -1.55185 -4.11832 0
M  V30 9976 H 939.5 -0.388585 -0.626236 0
M  V30 9977 H 942.142 -1.51779 -1.14293 0
M  V30 9978 H 940.292 -1.40619 -3.62158 0
M  V30 9979 H 941.964 -3.80875 -2.60254 0
M  V30 9980 H 940.207 -3.62039 -2.38977 0
M  V30 9981 H 940.878 -3.78827 -4.0149 0
M  V30 9982 H 943.354 -1.88581 -3.70913 0
M  V30 9983 H 942.23 -2.08362 -5.07815 0
M  V30 9984 H 942.491 -0.486925 -4.3941 0
M  V30 9985 N 941.55 1.18024 -1.04442 0
M  V30 9986 C 942.797 1.88098 -0.750022 0
M  V30 9987 C 943.125 1.80583 0.722489 0
M  V30 9988 O 942.38 1.20329 1.54335 0
M  V30 9989 C 942.679 3.37834 -1.16631 0
M  V30 9990 C 942.345 3.65553 -2.63974 0
M  V30 9991 C 941.007 3.72827 -3.04226 0
M  V30 9992 C 943.359 3.77634 -3.59224 0
M  V30 9993 C 940.687 3.89666 -4.38608 0
M  V30 9994 C 943.039 3.9599 -4.9333 0
M  V30 9995 C 941.703 4.01501 -5.33248 0
M  V30 9996 H 940.973 0.6883 -0.274452 0
M  V30 9997 H 943.62 1.39671 -1.31012 0
M  V30 9998 H 941.925 3.88266 -0.525071 0
M  V30 9999 H 943.622 3.90402 -0.915827 0
M  V30 10000 H 940.212 3.6051 -2.31798 0
M  V30 10001 H 944.396 3.71342 -3.2927 0
M  V30 10002 H 939.652 3.92178 -4.69048 0
M  V30 10003 H 943.826 4.0428 -5.67037 0
M  V30 10004 H 941.453 4.14301 -6.37384 0
M  V30 10005 N 943.028 0.824394 1.34319 0
M  V30 10006 C 943.975 0.245282 2.29493 0
M  V30 10007 C 944.945 -0.630762 1.53657 0
M  V30 10008 O 946.13 -0.572094 1.82021 0
M  V30 10009 C 943.27 -0.585631 3.40095 0
M  V30 10010 C 942.383 0.312821 4.30866 0
M  V30 10011 C 941.518 -0.527801 5.28571 0
M  V30 10012 C 940.557 0.369946 6.10981 0
M  V30 10013 N 939.694 -0.43169 7.00772 0
M  V30 10014 H 944.534 1.06225 2.78425 0
M  V30 10015 H 942.071 0.53533 1.37013 0
M  V30 10016 H 944.029 -1.08271 4.02906 0
M  V30 10017 H 942.659 -1.3677 2.92393 0
M  V30 10018 H 941.711 0.928129 3.68904 0
M  V30 10019 H 943.023 1.00306 4.8861 0
M  V30 10020 H 942.177 -1.0893 5.96841 0
M  V30 10021 H 940.916 -1.25154 4.71368 0
M  V30 10022 H 939.921 0.943577 5.41643 0
M  V30 10023 H 941.146 1.09182 6.70266 0
M  V30 10024 H 939.092 -1.13908 6.46035 0
M  V30 10025 H 939.009 0.200133 7.55735 0
M  V30 10026 H 940.277 -0.975894 7.73367 0
M  V30 10027 N 944.506 -1.46559 0.579492 0
M  V30 10028 C 945.456 -2.27316 -0.17645 0
M  V30 10029 C 946.44 -1.35681 -0.864835 0
M  V30 10030 O 947.632 -1.59879 -0.759462 0
M  V30 10031 C 944.761 -3.21957 -1.19157 0
M  V30 10032 C 943.847 -4.21077 -0.505459 0
M  V30 10033 N 944.238 -5.03908 0.437133 0
M  V30 10034 C 942.536 -4.39535 -0.75661 0
M  V30 10035 C 943.237 -5.75635 0.837819 0
M  V30 10036 N 942.213 -5.43276 0.187679 0
M  V30 10037 H 946.015 -2.88747 0.547932 0
M  V30 10038 H 943.529 -1.5737 0.401048 0
M  V30 10039 H 945.526 -3.78518 -1.74728 0
M  V30 10040 H 944.186 -2.62085 -1.9168 0
M  V30 10041 H 945.197 -5.11487 0.812488 0
M  V30 10042 H 941.874 -3.90815 -1.46867 0
M  V30 10043 H 943.264 -6.52235 1.61364 0
M  V30 10044 N 945.984 -0.3171 -1.54377 0
M  V30 10045 C 946.931 0.551782 -2.24107 0
M  V30 10046 C 947.901 1.11681 -1.22949 0
M  V30 10047 O 949.086 1.15836 -1.51614 0
M  V30 10048 C 946.226 1.70997 -2.99756 0
M  V30 10049 C 945.339 1.17479 -4.15719 0
M  V30 10050 C 944.474 2.29815 -4.78914 0
M  V30 10051 C 943.513 1.73513 -5.86992 0
M  V30 10052 N 942.65 2.79485 -6.44075 0
M  V30 10053 H 947.49 -0.049431 -2.97959 0
M  V30 10054 H 945.027 -0.0361658 -1.47056 0
M  V30 10055 H 946.985 2.39141 -3.41859 0
M  V30 10056 H 945.615 2.28257 -2.28251 0
M  V30 10057 H 944.667 0.385109 -3.78446 0
M  V30 10058 H 945.979 0.72276 -4.93536 0
M  V30 10059 H 945.133 3.05875 -5.23952 0
M  V30 10060 H 943.872 2.78352 -4.00464 0
M  V30 10061 H 942.877 0.959475 -5.41363 0
M  V30 10062 H 944.102 1.2586 -6.67335 0
M  V30 10063 H 942.048 3.27325 -5.68502 0
M  V30 10064 H 941.965 2.38825 -7.17286 0
M  V30 10065 H 943.233 3.55394 -6.93769 0
M  V30 10066 N 947.462 1.57535 -0.0451378 0
M  V30 10067 C 948.71 1.92071 0.628743 0
M  V30 10068 C 949.031 0.923635 1.71738 0
M  V30 10069 O 948.301 -0.0324376 1.95873 0
M  V30 10070 H 946.881 0.708995 0.235233 0
M  V30 10071 H 949.543 1.9466 -0.0967177 0
M  V30 10072 H 948.639 2.9314 1.07123 0
M  V30 10073 N 948.94 -0.228186 1.55939 0
M  V30 10074 C 950.168 -0.970618 1.8272 0
M  V30 10075 C 950.583 -1.78212 0.623385 0
M  V30 10076 O 949.94 -1.77879 -0.408063 0
M  V30 10077 C 949.991 -1.89352 3.07942 0
M  V30 10078 O 949.712 -1.11483 4.23678 0
M  V30 10079 C 951.213 -2.75039 3.47661 0
M  V30 10080 H 948.433 -0.284772 0.607574 0
M  V30 10081 H 950.977 -0.245419 2.03022 0
M  V30 10082 H 949.132 -2.57275 2.89635 0
M  V30 10083 H 949.546 -1.74073 4.94772 0
M  V30 10084 H 951.02 -3.35511 4.38334 0
M  V30 10085 H 951.497 -3.471 2.69106 0
M  V30 10086 H 952.103 -2.1254 3.68384 0
M  V30 10087 N 950.418 -1.49637 -0.494624 0
M  V30 10088 C 951.348 -1.69692 -1.60396 0
M  V30 10089 C 952.329 -0.545648 -1.61111 0
M  V30 10090 O 953.514 -0.782202 -1.77751 0
M  V30 10091 C 950.644 -1.76934 -2.9885 0
M  V30 10092 C 949.598 -2.91915 -3.13001 0
M  V30 10093 C 948.924 -2.84276 -4.5287 0
M  V30 10094 C 950.224 -4.32764 -2.92426 0
M  V30 10095 H 951.918 -2.6257 -1.43866 0
M  V30 10096 H 949.464 -1.26355 -0.690679 0
M  V30 10097 H 951.417 -1.8955 -3.76362 0
M  V30 10098 H 950.141 -0.806609 -3.16483 0
M  V30 10099 H 948.8 -2.78911 -2.37916 0
M  V30 10100 H 948.448 -1.85897 -4.67388 0
M  V30 10101 H 948.148 -3.61452 -4.63278 0
M  V30 10102 H 949.672 -2.98909 -5.32434 0
M  V30 10103 H 951.086 -4.46415 -3.59703 0
M  V30 10104 H 949.483 -5.1121 -3.143 0
M  V30 10105 H 950.553 -4.46765 -1.88491 0
M  V30 10106 N 951.896 0.746133 -1.38819 0
M  V30 10107 C 953.173 1.49652 -1.25951 0
M  V30 10108 C 953.553 2.10663 0.135833 0
M  V30 10109 O 952.901 1.97682 1.14604 0
M  V30 10110 C 953.111 2.5569 -2.37537 0
M  V30 10111 C 954.459 3.22385 -2.76321 0
M  V30 10112 O 955.483 2.65998 -2.36904 0
M  V30 10113 O 954.342 4.2439 -3.44319 0
M  V30 10114 H 951.436 0.664019 -0.492958 0
M  V30 10115 H 953.982 0.780908 -1.50665 0
M  V30 10116 H 952.754 2.08908 -3.30867 0
M  V30 10117 H 952.377 3.34823 -2.14427 0
M  V30 10118 N 953.375 1.23811 0.975125 0
M  V30 10119 C 954.322 1.02394 2.06843 0
M  V30 10120 C 955.292 -0.060337 1.6599 0
M  V30 10121 O 956.477 0.0928187 1.90574 0
M  V30 10122 C 953.617 0.626882 3.39359 0
M  V30 10123 C 952.73 1.78385 3.9345 0
M  V30 10124 C 951.865 1.33307 5.14201 0
M  V30 10125 C 950.904 2.46045 5.60471 0
M  V30 10126 N 950.041 2.01888 6.72448 0
M  V30 10127 H 954.881 1.95973 2.24496 0
M  V30 10128 H 952.418 0.976206 1.10039 0
M  V30 10129 H 954.376 0.377742 4.15486 0
M  V30 10130 H 953.006 -0.271907 3.21653 0
M  V30 10131 H 952.058 2.14685 3.14029 0
M  V30 10132 H 953.37 2.63122 4.23755 0
M  V30 10133 H 952.524 1.04237 5.97678 0
M  V30 10134 H 951.263 0.456143 4.85562 0
M  V30 10135 H 950.268 2.75884 4.75571 0
M  V30 10136 H 951.493 3.34283 5.91127 0
M  V30 10137 H 949.439 1.16583 6.45558 0
M  V30 10138 H 949.356 2.80182 7.02164 0
M  V30 10139 H 950.624 1.75937 7.59386 0
M  V30 10140 N 954.853 -1.17469 1.05066 0
M  V30 10141 C 956.083 -1.91343 0.779202 0
M  V30 10142 C 956.491 -1.76986 -0.668764 0
M  V30 10143 O 955.834 -1.1037 -1.46848 0
M  V30 10144 C 955.896 -3.42938 1.0786 0
M  V30 10145 C 955.56 -3.81076 2.52249 0
M  V30 10146 C 956.557 -3.84027 3.50456 0
M  V30 10147 C 954.242 -4.12076 2.87225 0
M  V30 10148 C 956.236 -4.17445 4.81683 0
M  V30 10149 C 953.923 -4.45163 4.18656 0
M  V30 10150 C 954.921 -4.47825 5.15696 0
M  V30 10151 O 954.609 -4.80133 6.44769 0
M  V30 10152 H 954.341 -0.613974 0.282863 0
M  V30 10153 H 956.895 -1.49907 1.40417 0
M  V30 10154 H 955.125 -3.84662 0.39653 0
M  V30 10155 H 956.814 -3.98071 0.793357 0
M  V30 10156 H 957.58 -3.60203 3.24775 0
M  V30 10157 H 953.459 -4.09176 2.12358 0
M  V30 10158 H 957.003 -4.19437 5.57421 0
M  V30 10159 H 952.9 -4.68449 4.44101 0
M  V30 10160 H 953.668 -4.97995 6.49571 0
M  V30 10161 N 956.331 -0.831506 -1.3388 0
M  V30 10162 C 957.58 -0.420028 -1.97278 0
M  V30 10163 C 957.893 1.02441 -1.66629 0
M  V30 10164 O 959.099 1.54021 -2.23584 0
M  V30 10165 C 957.555 -0.700116 -3.53025 0
M  V30 10166 C 957.163 -2.15874 -3.92559 0
M  V30 10167 C 958.907 -0.355226 -4.23011 0
M  V30 10168 C 956.814 -2.38327 -5.41252 0
M  V30 10169 H 955.744 -0.153326 -0.738246 0
M  V30 10170 H 958.395 -1.01906 -1.52602 0
M  V30 10171 H 956.777 -0.0308044 -3.95988 0
M  V30 10172 H 957.951 -2.86792 -3.60675 0
M  V30 10173 H 956.266 -2.4659 -3.35533 0
M  V30 10174 H 958.863 -0.500701 -5.32351 0
M  V30 10175 H 959.206 0.70111 -4.10354 0
M  V30 10176 H 959.739 -0.979466 -3.85553 0
M  V30 10177 H 956.478 -3.42498 -5.58906 0
M  V30 10178 H 955.998 -1.71962 -5.74621 0
M  V30 10179 H 957.677 -2.21113 -6.08045 0
M  V30 10180 N 957.809 1.4625 -0.587256 0
M  V30 10181 C 959.057 2.01963 -0.0744273 0
M  V30 10182 C 959.378 1.46065 1.29189 0
M  V30 10183 O 958.648 0.647077 1.84905 0
M  V30 10184 H 957.228 0.746597 -0.0245236 0
M  V30 10185 H 959.89 1.79299 -0.764063 0
M  V30 10186 H 958.986 3.12099 -0.00884894 0
M  V30 10187 N 959.287 0.325282 1.54207 0
M  V30 10188 C 960.564 -0.33113 1.92777 0
M  V30 10189 C 960.944 -1.69739 1.25506 0
M  V30 10190 O 960.292 -2.24983 0.399385 0
M  V30 10191 C 960.502 -0.421636 3.46444 0
M  V30 10192 C 961.85 -0.681111 4.19101 0
M  V30 10193 O 962.874 -0.504488 3.52609 0
M  V30 10194 O 961.733 -1.02196 5.3686 0
M  V30 10195 H 958.827 -0.18943 0.805013 0
M  V30 10196 H 961.373 0.375123 1.65502 0
M  V30 10197 H 960.145 0.537862 3.87586 0
M  V30 10198 H 959.768 -1.1754 3.79829 0
M  V30 10199 N 960.765 -1.57509 0.0534917 0
M  V30 10200 C 961.728 -2.10563 -0.905307 0
M  V30 10201 C 962.728 -1.02571 -1.23838 0
M  V30 10202 O 963.918 -1.28635 -1.17468 0
M  V30 10203 C 961.05 -2.5918 -2.21447 0
M  V30 10204 H 962.243 -2.96575 -0.445354 0
M  V30 10205 H 959.796 -1.55079 -0.194947 0
M  V30 10206 H 960.531 -1.76568 -2.72019 0
M  V30 10207 H 960.316 -3.38098 -1.98575 0
M  V30 10208 H 961.806 -3.00365 -2.90122 0
M  V30 10209 N 962.243 0.219913 -1.56058 0
M  V30 10210 C 963.492 0.942119 -1.78345 0
M  V30 10211 C 963.805 1.85435 -0.622344 0
M  V30 10212 O 965.011 2.61533 -0.728886 0
M  V30 10213 C 963.467 1.72544 -3.15843 0
M  V30 10214 C 963.075 0.859263 -4.39682 0
M  V30 10215 C 964.819 2.43876 -3.47455 0
M  V30 10216 C 962.726 1.64003 -5.68205 0
M  V30 10217 H 961.656 0.355514 -0.664925 0
M  V30 10218 H 964.307 0.195963 -1.82451 0
M  V30 10219 H 962.689 2.51456 -3.05918 0
M  V30 10220 H 963.863 0.110562 -4.60667 0
M  V30 10221 H 962.178 0.257985 -4.156 0
M  V30 10222 H 964.775 3.02794 -4.40704 0
M  V30 10223 H 965.118 3.16843 -2.7003 0
M  V30 10224 H 965.651 1.71952 -3.58716 0
M  V30 10225 H 962.39 0.953606 -6.48526 0
M  V30 10226 H 961.91 2.3633 -5.51279 0
M  V30 10227 H 963.589 2.20028 -6.08438 0
M  V30 10228 N 963.721 1.49897 0.486681 0
M  V30 10229 C 964.654 1.6224 1.60479 0
M  V30 10230 C 965.632 0.470964 1.5563 0
M  V30 10231 O 966.816 0.688418 1.75479 0
M  V30 10232 C 963.943 1.59059 2.99028 0
M  V30 10233 C 962.989 2.79575 3.22087 0
M  V30 10234 S 963.822 4.41077 3.03664 0
M  V30 10235 C 964.978 4.40564 4.44583 0
M  V30 10236 H 965.211 2.56822 1.49766 0
M  V30 10237 H 962.744 1.38966 0.672893 0
M  V30 10238 H 964.702 1.5791 3.78913 0
M  V30 10239 H 963.363 0.657405 3.07143 0
M  V30 10240 H 962.556 2.73609 4.23266 0
M  V30 10241 H 962.158 2.78211 2.49949 0
M  V30 10242 H 964.45 4.13166 5.36936 0
M  V30 10243 H 965.393 5.42068 4.55596 0
M  V30 10244 H 965.801 3.70461 4.25933 0
M  V30 10245 N 965.199 -0.738761 1.39212 0
M  V30 10246 C 966.162 -1.83441 1.37412 0
M  V30 10247 C 967.162 -1.58484 0.271908 0
M  V30 10248 O 968.352 -1.65954 0.529609 0
M  V30 10249 C 965.484 -3.21167 1.143 0
M  V30 10250 H 966.677 -1.86441 2.34904 0
M  V30 10251 H 964.23 -0.942023 1.24722 0
M  V30 10252 H 964.965 -3.23829 0.174756 0
M  V30 10253 H 964.75 -3.40678 1.94116 0
M  V30 10254 H 966.24 -4.01231 1.15773 0
M  V30 10255 N 966.677 -1.24326 -0.968545 0
M  V30 10256 C 967.923 -1.08406 -1.71394 0
M  V30 10257 C 968.256 0.376353 -1.90518 0
M  V30 10258 O 967.531 1.27816 -1.46606 0
M  V30 10259 C 967.814 -1.82344 -3.1052 0
M  V30 10260 C 967.667 -3.3613 -2.98893 0
M  V30 10261 C 968.986 -1.59545 -4.10163 0
M  V30 10262 H 966.105 -0.395205 -0.622079 0
M  V30 10263 H 968.747 -1.52983 -1.12677 0
M  V30 10264 H 966.897 -1.44452 -3.60646 0
M  V30 10265 H 968.569 -3.83614 -2.56199 0
M  V30 10266 H 966.812 -3.64553 -2.35124 0
M  V30 10267 H 967.483 -3.83064 -3.97449 0
M  V30 10268 H 969.959 -1.92504 -3.68892 0
M  V30 10269 H 968.835 -2.13736 -5.05577 0
M  V30 10270 H 969.096 -0.533503 -4.38869 0
M  V30 10271 N 968.156 1.1691 -1.05688 0
M  V30 10272 C 969.403 1.87292 -0.76993 0
M  V30 10273 C 969.731 1.81339 0.703295 0
M  V30 10274 O 968.986 1.21959 1.5305 0
M  V30 10275 C 969.285 3.36578 -1.20207 0
M  V30 10276 C 968.951 3.62732 -2.67836 0
M  V30 10277 C 967.613 3.69579 -3.08163 0
M  V30 10278 C 969.965 3.73803 -3.63209 0
M  V30 10279 C 967.293 3.84992 -4.42717 0
M  V30 10280 C 969.645 3.90735 -4.97503 0
M  V30 10281 C 968.309 3.95823 -5.37476 0
M  V30 10282 H 967.579 0.68535 -0.281737 0
M  V30 10283 H 970.226 1.38274 -1.32486 0
M  V30 10284 H 968.531 3.87687 -0.566222 0
M  V30 10285 H 970.228 3.89409 -0.957183 0
M  V30 10286 H 966.818 3.58031 -2.35609 0
M  V30 10287 H 971.002 3.67829 -3.3319 0
M  V30 10288 H 966.258 3.87181 -4.73182 0
M  V30 10289 H 970.432 3.98243 -5.71293 0
M  V30 10290 H 968.059 4.07518 -6.41742 0
M  V30 10291 N 969.634 0.838594 1.33437 0
M  V30 10292 C 970.882 0.433312 1.974 0
M  V30 10293 C 971.203 -1.01078 1.66758 0
M  V30 10294 O 970.473 -1.70406 0.966373 0
M  V30 10295 H 969.053 0.15724 0.730263 0
M  V30 10296 H 971.715 1.07149 1.62804 0
M  V30 10297 H 970.811 0.565144 3.06941 0
M  V30 10298 N 971.112 -1.45937 0.595003 0
M  V30 10299 C 972.337 -2.07207 0.0894416 0
M  V30 10300 C 972.762 -1.43884 -1.21157 0
M  V30 10301 O 972.12 -0.526998 -1.73472 0
M  V30 10302 C 972.168 -3.60565 -0.0499828 0
M  V30 10303 O 971.272 -3.97364 -1.10342 0
M  V30 10304 H 970.613 -0.660471 0.0683627 0
M  V30 10305 H 973.143 -1.87386 0.82144 0
M  V30 10306 H 973.153 -4.0722 -0.252234 0
M  V30 10307 H 971.828 -4.06044 0.90006 0
M  V30 10308 H 970.405 -3.62401 -0.878645 0
M  V30 10309 N 972.59 -0.333456 -1.54032 0
M  V30 10310 C 974.001 0.15256 -1.86076 0
M  V30 10311 C 974.352 1.50819 -1.25492 0
M  V30 10312 O 973.477 2.08903 -0.564665 0
M  V30 10313 C 974.072 0.283599 -3.37611 0
M  V30 10314 C 972.631 0.713841 -3.69569 0
M  V30 10315 C 971.778 -0.158515 -2.76847 0
M  V30 10316 H 974.729 -0.553404 -1.48738 0
M  V30 10317 H 974.75 1.11284 -3.63863 0
M  V30 10318 H 974.262 -0.703193 -3.81676 0
M  V30 10319 H 972.363 1.71002 -3.31042 0
M  V30 10320 H 972.476 0.510731 -4.7637 0
M  V30 10321 H 970.84 0.367531 -2.52034 0
M  V30 10322 H 971.623 -1.14226 -3.2374 0
M  V30 10323 N 974.068 1.57479 -0.061844 0
M  V30 10324 C 974.998 2.15181 0.9066 0
M  V30 10325 C 975.979 1.07624 1.31724 0
M  V30 10326 O 977.164 1.35614 1.39006 0
M  V30 10327 C 974.294 2.70542 2.17771 0
M  V30 10328 C 973.248 3.83178 1.9068 0
M  V30 10329 C 972.574 4.25099 3.24337 0
M  V30 10330 C 973.874 5.07853 1.21994 0
M  V30 10331 H 975.568 2.96355 0.42594 0
M  V30 10332 H 973.114 1.42556 0.203435 0
M  V30 10333 H 975.067 3.09552 2.85929 0
M  V30 10334 H 973.791 1.86575 2.68062 0
M  V30 10335 H 972.45 3.44656 1.24931 0
M  V30 10336 H 972.098 3.38069 3.72449 0
M  V30 10337 H 971.798 5.01021 3.07005 0
M  V30 10338 H 973.322 4.66718 3.93709 0
M  V30 10339 H 974.736 5.44242 1.80204 0
M  V30 10340 H 973.133 5.88987 1.14954 0
M  V30 10341 H 974.203 4.84497 0.197536 0
M  V30 10342 N 975.546 -0.211634 1.56173 0
M  V30 10343 C 976.957 -0.777776 1.69728 0
M  V30 10344 C 977.308 -1.84566 0.66558 0
M  V30 10345 O 976.433 -2.15639 -0.181338 0
M  V30 10346 C 977.028 -1.41757 3.07718 0
M  V30 10347 C 975.587 -1.93098 3.23094 0
M  V30 10348 C 974.734 -0.794785 2.65666 0
M  V30 10349 H 977.685 0.0131839 1.58695 0
M  V30 10350 H 977.706 -2.28662 3.04128 0
M  V30 10351 H 977.218 -0.640114 3.82785 0
M  V30 10352 H 975.319 -2.73615 2.52914 0
M  V30 10353 H 975.432 -2.10414 4.30422 0
M  V30 10354 H 973.796 -1.20473 2.24407 0
M  V30 10355 H 974.579 -0.0298408 3.43287 0
M  V30 10356 N 977.024 -1.50153 -0.478725 0
M  V30 10357 C 977.954 -1.71384 -1.58587 0
M  V30 10358 C 978.935 -0.562705 -1.60523 0
M  V30 10359 O 980.12 -0.80101 -1.76911 0
M  V30 10360 C 977.25 -1.80094 -2.96957 0
M  V30 10361 C 976.204 -2.95218 -3.09888 0
M  V30 10362 C 975.53 -2.89063 -4.49829 0
M  V30 10363 C 976.83 -4.35841 -2.8782 0
M  V30 10364 H 978.524 -2.64081 -1.41073 0
M  V30 10365 H 976.07 -1.27081 -0.677239 0
M  V30 10366 H 978.023 -1.93531 -3.74331 0
M  V30 10367 H 976.747 -0.840131 -3.1561 0
M  V30 10368 H 975.406 -2.81419 -2.34944 0
M  V30 10369 H 975.054 -1.90844 -4.6539 0
M  V30 10370 H 974.754 -3.66345 -4.59418 0
M  V30 10371 H 976.278 -3.04539 -5.29234 0
M  V30 10372 H 977.692 -4.50205 -3.54948 0
M  V30 10373 H 976.089 -5.14515 -3.0886 0
M  V30 10374 H 977.159 -4.48739 -1.83742 0
M  V30 10375 N 978.502 0.731368 -1.39602 0
M  V30 10376 C 979.412 1.87579 -1.40894 0
M  V30 10377 C 980.428 1.71336 -0.303319 0
M  V30 10378 O 981.604 1.93875 -0.545377 0
M  V30 10379 C 978.669 3.23211 -1.25442 0
M  V30 10380 C 977.73 3.51822 -2.46008 0
M  V30 10381 C 976.963 4.80982 -2.31284 0
M  V30 10382 O 977.186 5.54958 -1.31824 0
M  V30 10383 O 976.12 5.09574 -3.20341 0
M  V30 10384 H 979.946 1.89444 -2.3737 0
M  V30 10385 H 977.531 0.879675 -1.20756 0
M  V30 10386 H 979.413 4.04257 -1.18972 0
M  V30 10387 H 978.088 3.22108 -0.320637 0
M  V30 10388 H 976.995 2.70847 -2.58055 0
M  V30 10389 H 978.328 3.57707 -3.38093 0
M  V30 10390 N 979.98 1.24838 0.961938 0
M  V30 10391 C 980.89 1.06304 2.09133 0
M  V30 10392 C 981.906 0.00221475 1.74 0
M  V30 10393 O 983.082 0.201611 2.00388 0
M  V30 10394 C 980.147 0.676117 3.40043 0
M  V30 10395 C 979.208 1.81407 3.89089 0
M  V30 10396 C 978.441 1.44551 5.13752 0
M  V30 10397 O 978.664 0.337894 5.69398 0
M  V30 10398 O 977.598 2.27316 5.57325 0
M  V30 10399 H 981.424 2.01001 2.27667 0
M  V30 10400 H 979.009 1.0371 1.07539 0
M  V30 10401 H 980.891 0.472124 4.18747 0
M  V30 10402 H 979.566 -0.241667 3.22797 0
M  V30 10403 H 978.473 2.07286 3.11421 0
M  V30 10404 H 979.806 2.71083 4.10822 0
M  V30 10405 N 981.458 -1.16348 1.06306 0
M  V30 10406 C 982.408 -2.18717 0.643947 0
M  V30 10407 C 983.392 -1.57574 -0.325445 0
M  V30 10408 O 984.584 -1.76439 -0.140868 0
M  V30 10409 C 981.713 -3.43285 0.0320266 0
M  V30 10410 C 980.799 -4.11504 1.02592 0
M  V30 10411 N 981.19 -4.55374 2.20155 0
M  V30 10412 C 979.488 -4.37691 0.856887 0
M  V30 10413 C 980.189 -5.08149 2.83124 0
M  V30 10414 N 979.165 -5.01042 2.10851 0
M  V30 10415 H 982.967 -2.50353 1.53951 0
M  V30 10416 H 980.481 -1.328 0.934763 0
M  V30 10417 H 982.478 -4.15917 -0.286064 0
M  V30 10418 H 981.138 -3.13137 -0.858786 0
M  V30 10419 H 982.149 -4.49101 2.57931 0
M  V30 10420 H 978.826 -4.17496 0.0180742 0
M  V30 10421 H 980.216 -5.52131 3.82885 0
M  V30 10422 N 982.937 -0.845659 -1.3299 0
M  V30 10423 C 983.9 -0.288905 -2.27372 0
M  V30 10424 C 984.9 0.546263 -1.51237 0
M  V30 10425 O 986.09 0.359072 -1.70459 0
M  V30 10426 C 983.222 0.59224 -3.35716 0
M  V30 10427 H 984.415 -1.12181 -2.78128 0
M  V30 10428 H 981.968 -0.619276 -1.43508 0
M  V30 10429 H 982.703 1.44732 -2.90212 0
M  V30 10430 H 982.488 -0.00543255 -3.921 0
M  V30 10431 H 983.978 0.974848 -4.06062 0
M  V30 10432 N 984.415 1.45619 -0.602734 0
M  V30 10433 C 985.661 2.03131 -0.104587 0
M  V30 10434 C 986.016 1.4634 1.2491 0
M  V30 10435 O 985.309 0.626733 1.8106 0
M  V30 10436 C 985.503 3.574 -0.00157909 0
M  V30 10437 C 985.332 4.29155 -1.34373 0
M  V30 10438 C 984.102 4.67272 -1.92316 0
M  V30 10439 C 986.3 4.61422 -2.27143 0
M  V30 10440 N 984.282 5.23864 -3.20062 0
M  V30 10441 C 985.653 5.18796 -3.39485 0
M  V30 10442 C 987.708 4.4336 -2.26575 0
M  V30 10443 C 986.411 5.60012 -4.51419 0
M  V30 10444 C 988.437 4.85605 -3.37553 0
M  V30 10445 C 987.799 5.43068 -4.48617 0
M  V30 10446 H 983.898 0.777739 -0.0815251 0
M  V30 10447 H 986.482 1.77504 -0.800024 0
M  V30 10448 H 984.653 3.82698 0.663068 0
M  V30 10449 H 986.385 4.01565 0.502784 0
M  V30 10450 H 983.14 4.50671 -1.45577 0
M  V30 10451 H 983.564 5.56664 -3.85298 0
M  V30 10452 H 988.206 3.98251 -1.41971 0
M  V30 10453 H 985.924 6.04089 -5.36751 0
M  V30 10454 H 989.51 4.73365 -3.38255 0
M  V30 10455 H 988.39 5.75156 -5.33072 0
M  V30 10456 N 985.893 0.34162 1.53853 0
M  V30 10457 C 986.826 -0.559051 2.21246 0
M  V30 10458 C 987.804 -1.10179 1.1958 0
M  V30 10459 O 988.988 -1.16242 1.48392 0
M  V30 10460 C 986.115 -1.7689 2.88838 0
M  V30 10461 C 985.161 -1.3558 4.04377 0
M  V30 10462 S 985.994 -0.377225 5.3417 0
M  V30 10463 C 987.15 -1.59395 6.05264 0
M  V30 10464 H 987.383 0.013373 2.97297 0
M  V30 10465 H 984.916 0.125694 1.53888 0
M  V30 10466 H 986.874 -2.463 3.284 0
M  V30 10467 H 985.535 -2.31254 2.12557 0
M  V30 10468 H 984.728 -2.25781 4.50599 0
M  V30 10469 H 984.33 -0.741197 3.66582 0
M  V30 10470 H 986.622 -2.52872 6.2854 0
M  V30 10471 H 987.565 -1.17356 6.98307 0
M  V30 10472 H 987.973 -1.78913 5.35397 0
M  V30 10473 N 987.371 -1.57444 0.0701946 0
M  V30 10474 C 988.334 -2.11511 -0.882923 0
M  V30 10475 C 989.334 -1.03879 -1.22743 0
M  V30 10476 O 990.524 -1.29874 -1.16097 0
M  V30 10477 C 987.656 -2.61514 -2.18686 0
M  V30 10478 H 988.849 -2.9703 -0.413873 0
M  V30 10479 H 986.402 -1.55278 -0.178488 0
M  V30 10480 H 987.137 -1.79443 -2.70131 0
M  V30 10481 H 986.922 -3.40185 -1.94978 0
M  V30 10482 H 988.412 -3.03425 -2.86919 0
M  V30 10483 N 988.849 0.203349 -1.56283 0
M  V30 10484 C 990.095 0.926381 -1.80405 0
M  V30 10485 C 990.428 1.8325 -0.642883 0
M  V30 10486 O 989.703 1.91196 0.356998 0
M  V30 10487 C 989.986 1.74972 -3.14733 0
M  V30 10488 C 989.839 0.868866 -4.41328 0
M  V30 10489 C 991.158 2.72394 -3.45672 0
M  V30 10490 H 988.277 0.335346 -0.656286 0
M  V30 10491 H 990.919 0.1942 -1.89005 0
M  V30 10492 H 989.069 2.37394 -3.07533 0
M  V30 10493 H 990.741 0.259986 -4.60567 0
M  V30 10494 H 988.984 0.175161 -4.33446 0
M  V30 10495 H 989.655 1.47975 -5.31796 0
M  V30 10496 H 992.131 2.20105 -3.53119 0
M  V30 10497 H 991.007 3.27091 -4.40798 0
M  V30 10498 H 991.268 3.51035 -2.6875 0
M  V30 10499 N 990.327 1.50405 0.470755 0
M  V30 10500 C 991.274 1.69293 1.56871 0
M  V30 10501 C 992.244 0.534248 1.57274 0
M  V30 10502 O 993.429 0.764855 1.74799 0
M  V30 10503 C 990.569 1.79338 2.94842 0
M  V30 10504 C 989.682 3.06709 3.04226 0
M  V30 10505 C 988.817 3.07548 4.33114 0
M  V30 10506 C 987.856 4.29372 4.36241 0
M  V30 10507 N 986.993 4.27949 5.56601 0
M  V30 10508 H 991.833 2.63029 1.40071 0
M  V30 10509 H 989.37 1.30386 0.681016 0
M  V30 10510 H 991.328 1.83143 3.74853 0
M  V30 10511 H 989.958 0.890411 3.10277 0
M  V30 10512 H 989.01 3.12374 2.17086 0
M  V30 10513 H 990.322 3.96684 3.02396 0
M  V30 10514 H 989.476 3.10084 5.21472 0
M  V30 10515 H 988.215 2.15404 4.37553 0
M  V30 10516 H 987.22 4.27048 3.4628 0
M  V30 10517 H 988.445 5.22743 4.33493 0
M  V30 10518 H 986.391 3.38658 5.61824 0
M  V30 10519 H 986.308 5.11692 5.56513 0
M  V30 10520 H 987.576 4.34631 6.47083 0
M  V30 10521 N 991.805 -0.723954 1.39988 0
M  V30 10522 C 993.033 -1.51313 1.4111 0
M  V30 10523 C 993.448 -1.88798 0.00853333 0
M  V30 10524 O 992.805 -1.54868 -0.965516 0
M  V30 10525 C 992.856 -2.79375 2.29416 0
M  V30 10526 O 992.577 -2.43478 3.64211 0
M  V30 10527 C 994.078 -3.7333 2.3904 0
M  V30 10528 H 991.298 -0.46724 0.481589 0
M  V30 10529 H 993.842 -0.893694 1.83938 0
M  V30 10530 H 991.997 -3.37624 1.89971 0
M  V30 10531 H 992.411 -3.25821 4.11024 0
M  V30 10532 H 993.885 -4.60051 3.05053 0
M  V30 10533 H 994.362 -4.15854 1.41289 0
M  V30 10534 H 994.968 -3.20996 2.79001 0
M  V30 10535 N 993.283 -1.25346 -0.955304 0
M  V30 10536 C 994.508 -1.12892 -1.73983 0
M  V30 10537 C 994.933 0.313455 -1.8547 0
M  V30 10538 O 994.291 1.22706 -1.33465 0
M  V30 10539 C 994.339 -1.78729 -3.1319 0
M  V30 10540 O 993.443 -1.06648 -3.98372 0
M  V30 10541 H 992.784 -0.394178 -0.534341 0
M  V30 10542 H 995.314 -1.65897 -1.19747 0
M  V30 10543 H 995.324 -1.84987 -3.63653 0
M  V30 10544 H 993.999 -2.83669 -3.04146 0
M  V30 10545 H 992.576 -1.08266 -3.56837 0
M  V30 10546 N 994.761 1.15782 -1.06922 0
M  V30 10547 C 996.01 1.85807 -0.784774 0
M  V30 10548 C 996.323 1.82967 0.691551 0
M  V30 10549 O 997.529 2.48632 1.0906 0
M  V30 10550 C 995.985 3.33469 -1.35375 0
M  V30 10551 C 995.593 3.44766 -2.86077 0
M  V30 10552 C 997.337 4.08707 -1.14713 0
M  V30 10553 C 995.244 4.86551 -3.36187 0
M  V30 10554 H 994.174 0.696046 -0.28989 0
M  V30 10555 H 996.825 1.30629 -1.28873 0
M  V30 10556 H 995.207 3.88292 -0.77754 0
M  V30 10557 H 996.381 3.00073 -3.49704 0
M  V30 10558 H 994.696 2.82969 -3.05479 0
M  V30 10559 H 997.293 5.13336 -1.49633 0
M  V30 10560 H 997.636 4.16211 -0.0858868 0
M  V30 10561 H 998.169 3.60142 -1.68946 0
M  V30 10562 H 994.908 4.84229 -4.41818 0
M  V30 10563 H 994.428 5.31844 -2.77312 0
M  V30 10564 H 996.107 5.55392 -3.31887 0
M  V30 10565 N 996.239 0.8527 1.3254 0
M  V30 10566 C 997.149 0.298744 2.3269 0
M  V30 10567 C 998.165 -0.582418 1.63963 0
M  V30 10568 O 999.341 -0.483253 1.95516 0
M  V30 10569 C 996.406 -0.505453 3.42996 0
M  V30 10570 C 995.467 0.401618 4.27417 0
M  V30 10571 C 994.7 -0.364294 5.32455 0
M  V30 10572 O 994.923 -1.59448 5.47661 0
M  V30 10573 O 993.857 0.268892 6.01299 0
M  V30 10574 H 997.683 1.12843 2.81958 0
M  V30 10575 H 995.268 0.615584 1.36128 0
M  V30 10576 H 997.15 -0.961974 4.10273 0
M  V30 10577 H 995.825 -1.31197 2.95921 0
M  V30 10578 H 994.732 0.906274 3.62957 0
M  V30 10579 H 996.065 1.17327 4.78012 0
M  V30 10580 N 997.718 -1.45297 0.610449 0
M  V30 10581 C 998.651 -2.27669 -0.155637 0
M  V30 10582 C 999.629 -1.37308 -0.870936 0
M  V30 10583 O 1000.81 -1.66739 -0.879228 0
M  V30 10584 C 997.94 -3.15748 -1.2256 0
M  V30 10585 C 996.986 -4.2207 -0.613116 0
M  V30 10586 S 997.819 -5.32337 0.581183 0
M  V30 10587 C 998.975 -6.23985 -0.489298 0
M  V30 10588 H 999.208 -2.92295 0.543205 0
M  V30 10589 H 996.741 -1.49181 0.398044 0
M  V30 10590 H 998.699 -3.67051 -1.83804 0
M  V30 10591 H 997.36 -2.50381 -1.89652 0
M  V30 10592 H 996.553 -4.83633 -1.41827 0
M  V30 10593 H 996.155 -3.73923 -0.0757482 0
M  V30 10594 H 998.447 -6.63553 -1.36759 0
M  V30 10595 H 999.39 -7.08042 0.0902456 0
M  V30 10596 H 999.798 -5.58718 -0.805911 0
M  V30 10597 N 999.196 -0.349774 -1.5367 0
M  V30 10598 C 1000.61 0.00191293 -1.596 0
M  V30 10599 C 1000.81 1.48175 -1.36552 0
M  V30 10600 O 999.868 2.24129 -1.16285 0
M  V30 10601 C 1001.18 -0.439848 -2.97466 0
M  V30 10602 C 1002.73 -0.392721 -3.10526 0
M  V30 10603 C 1003.2 -0.810047 -4.5078 0
M  V30 10604 N 1004.69 -0.764478 -4.56848 0
M  V30 10605 C 1005.43 -1.05927 -5.63531 0
M  V30 10606 N 1004.93 -1.42253 -6.78038 0
M  V30 10607 N 1006.72 -0.983098 -5.53436 0
M  V30 10608 H 998.87 -1.31364 -1.66905 0
M  V30 10609 H 1001.13 -0.535908 -0.781989 0
M  V30 10610 H 1000.84 -1.47189 -3.19419 0
M  V30 10611 H 1000.71 0.181735 -3.76762 0
M  V30 10612 H 1003.1 0.630161 -2.88293 0
M  V30 10613 H 1003.18 -1.04959 -2.33275 0
M  V30 10614 H 1002.82 -1.83097 -4.73749 0
M  V30 10615 H 1002.75 -0.130591 -5.26438 0
M  V30 10616 H 1005.25 -0.496637 -3.74622 0
M  V30 10617 H 1005.56 -1.63215 -7.55368 0
M  V30 10618 H 1003.9 -1.46104 -6.79469 0
M  V30 10619 H 1007.09 -0.698601 -4.62858 0
M  V30 10620 H 1007.27 -1.21618 -6.36485 0
M  V30 10621 N 1000.67 1.57404 -0.0785433 0
M  V30 10622 C 1001.62 2.09632 0.896565 0
M  V30 10623 C 1002.61 1.00754 1.25449 0
M  V30 10624 O 1003.8 1.27053 1.23234 0
M  V30 10625 C 1000.93 2.66694 2.16169 0
M  V30 10626 C 1000.01 3.82588 1.82994 0
M  V30 10627 N 1000.41 4.91286 1.203 0
M  V30 10628 C 998.704 3.92011 2.12704 0
M  V30 10629 C 999.405 5.72077 1.05367 0
M  V30 10630 N 998.381 5.20567 1.56559 0
M  V30 10631 H 1002.18 2.9106 0.407621 0
M  V30 10632 H 999.697 1.61917 0.125155 0
M  V30 10633 H 1001.69 3.0243 2.86952 0
M  V30 10634 H 1000.35 1.86716 2.65645 0
M  V30 10635 H 1001.36 5.10509 0.871817 0
M  V30 10636 H 998.042 3.23018 2.6451 0
M  V30 10637 H 999.432 6.69523 0.564685 0
M  V30 10638 N 1002.15 -0.195058 1.56388 0
M  V30 10639 C 1003.57 -0.545894 1.49974 0
M  V30 10640 C 1003.77 -1.85851 0.778568 0
M  V30 10641 O 1002.82 -2.50346 0.329105 0
M  V30 10642 C 1004.14 -0.600599 2.94641 0
M  V30 10643 C 1005.68 -0.689429 3.05313 0
M  V30 10644 C 1006.16 -0.775243 4.51391 0
M  V30 10645 N 1007.65 -0.838769 4.55542 0
M  V30 10646 C 1008.39 -0.925337 5.65884 0
M  V30 10647 N 1007.88 -0.974204 6.85916 0
M  V30 10648 N 1009.67 -0.962528 5.53798 0
M  V30 10649 H 1001.83 0.66595 2.0169 0
M  V30 10650 H 1004.09 0.237215 0.917842 0
M  V30 10651 H 1003.79 0.29478 3.50462 0
M  V30 10652 H 1003.67 -1.45528 3.47996 0
M  V30 10653 H 1006.06 -1.57524 2.4954 0
M  V30 10654 H 1006.14 0.191451 2.55083 0
M  V30 10655 H 1005.78 0.106215 5.07789 0
M  V30 10656 H 1005.71 -1.67193 4.99354 0
M  V30 10657 H 1008.2 -0.810249 3.69112 0
M  V30 10658 H 1008.51 -1.04077 7.6576 0
M  V30 10659 H 1006.86 -0.942881 6.88574 0
M  V30 10660 H 1010.05 -0.921188 4.58946 0
M  V30 10661 H 1010.22 -1.02653 6.39817 0
M  V30 10662 N 1003.63 -1.50653 -0.462772 0
M  V30 10663 C 1004.56 -1.73056 -1.5676 0
M  V30 10664 C 1005.54 -0.579699 -1.59917 0
M  V30 10665 O 1006.73 -0.819729 -1.76051 0
M  V30 10666 C 1003.86 -1.83234 -2.9503 0
M  V30 10667 C 1002.81 -2.98488 -3.06739 0
M  V30 10668 C 1002.14 -2.93818 -4.46738 0
M  V30 10669 C 1003.44 -4.38869 -2.83181 0
M  V30 10670 H 1005.13 -2.65562 -1.38265 0
M  V30 10671 H 1002.68 -1.27792 -0.663722 0
M  V30 10672 H 1004.63 -1.97491 -3.72257 0
M  V30 10673 H 1003.35 -0.873558 -3.14701 0
M  V30 10674 H 1002.01 -2.83895 -2.31946 0
M  V30 10675 H 1001.66 -1.95769 -4.63339 0
M  V30 10676 H 1001.36 -3.71197 -4.55507 0
M  V30 10677 H 1002.88 -3.10135 -5.25974 0
M  V30 10678 H 1004.3 -4.53945 -3.50153 0
M  V30 10679 H 1002.69 -5.17762 -3.03386 0
M  V30 10680 H 1003.76 -4.50663 -1.78972 0
M  V30 10681 N 1005.11 0.71652 -1.4037 0
M  V30 10682 C 1006.04 1.84138 -1.36477 0
M  V30 10683 C 1007.05 1.6054 -0.27033 0
M  V30 10684 O 1008.24 1.70431 -0.530612 0
M  V30 10685 C 1005.34 3.20523 -1.10082 0
M  V30 10686 C 1004.52 3.71326 -2.31162 0
M  V30 10687 C 1003.57 4.86322 -2.00942 0
M  V30 10688 O 1002.6 4.99022 -2.73799 0
M  V30 10689 N 1003.8 5.72051 -0.986812 0
M  V30 10690 H 1006.57 1.87977 -2.3342 0
M  V30 10691 H 1004.13 0.89802 -1.34712 0
M  V30 10692 H 1006.12 3.95049 -0.878526 0
M  V30 10693 H 1004.69 3.11838 -0.21809 0
M  V30 10694 H 1003.91 2.87941 -2.69227 0
M  V30 10695 H 1005.2 4.02003 -3.11883 0
M  V30 10696 H 1004.6 5.64399 -0.383381 0
M  V30 10697 H 1003.15 6.46565 -0.824419 0
M  V30 10698 N 1006.59 1.25851 0.948643 0
M  V30 10699 C 1007.5 1.08516 2.07994 0
M  V30 10700 C 1008.51 0.0206696 1.73988 0
M  V30 10701 O 1009.69 0.222854 2.00163 0
M  V30 10702 C 1006.75 0.712145 3.39307 0
M  V30 10703 C 1005.81 1.85523 3.87143 0
M  V30 10704 C 1005.05 1.49992 5.1219 0
M  V30 10705 O 1005.27 0.398268 5.69008 0
M  V30 10706 O 1004.2 2.33215 5.54882 0
M  V30 10707 H 1008.03 2.03405 2.25522 0
M  V30 10708 H 1005.62 1.04844 1.06433 0
M  V30 10709 H 1007.5 0.516512 4.18223 0
M  V30 10710 H 1006.17 -0.207416 3.23035 0
M  V30 10711 H 1005.08 2.10578 3.09205 0
M  V30 10712 H 1006.41 2.75425 4.07924 0
M  V30 10713 N 1008.06 -1.15214 1.07534 0
M  V30 10714 C 1009.31 -1.86043 0.799629 0
M  V30 10715 C 1009.64 -1.82435 -0.674356 0
M  V30 10716 O 1008.89 -1.24379 -1.51091 0
M  V30 10717 C 1009.19 -3.34623 1.25547 0
M  V30 10718 C 1008.86 -3.58425 2.73573 0
M  V30 10719 C 1007.52 -3.6463 3.14004 0
M  V30 10720 C 1009.87 -3.67977 3.6911 0
M  V30 10721 C 1007.2 -3.779 4.48786 0
M  V30 10722 C 1009.55 -3.82771 5.03656 0
M  V30 10723 C 1008.22 -3.87222 5.43705 0
M  V30 10724 H 1007.49 -0.680781 0.292605 0
M  V30 10725 H 1010.13 -1.36149 1.34669 0
M  V30 10726 H 1008.44 -3.86737 0.627828 0
M  V30 10727 H 1010.14 -3.87836 1.01901 0
M  V30 10728 H 1006.73 -3.54238 2.41275 0
M  V30 10729 H 1010.91 -3.62482 3.39 0
M  V30 10730 H 1006.17 -3.79604 4.79281 0
M  V30 10731 H 1010.34 -3.89104 5.77556 0
M  V30 10732 H 1007.97 -3.97256 6.48145 0
M  V30 10733 N 1009.54 -0.859717 -1.32086 0
M  V30 10734 C 1010.49 -0.296897 -2.30697 0
M  V30 10735 C 1011.48 0.582473 -1.59071 0
M  V30 10736 O 1012.69 0.469713 -1.73763 0
M  V30 10737 H 1009.07 -0.0773132 -0.748015 0
M  V30 10738 H 1011.04 -1.14273 -2.75652 0
M  V30 10739 C 1009.79 0.495546 -3.44151 0
M  V30 10740 H 1009.11 -0.171829 -3.99431 0
M  V30 10741 H 1010.55 0.854854 -4.15293 0
M  V30 10742 C 1009.01 1.68278 -2.91863 0
M  V30 10743 O 1009.54 2.78194 -2.89777 0
M  V30 10744 N 1007.74 1.51151 -2.48197 0
M  V30 10745 H 1007.29 0.617345 -2.50093 0
M  V30 10746 H 1007.25 2.3073 -2.13567 0
M  V30 10747 N 1011.02 1.44971 -0.618145 0
M  V30 10748 C 1011.95 2.28815 0.132751 0
M  V30 10749 C 1012.97 1.40551 0.821535 0
M  V30 10750 O 1014.15 1.64827 0.685155 0
M  V30 10751 C 1011.25 3.1658 1.20955 0
M  V30 10752 C 1010.43 4.33184 0.605821 0
M  V30 10753 C 1009.49 5.0208 1.57488 0
M  V30 10754 O 1008.51 5.58528 1.09706 0
M  V30 10755 N 1009.71 5.02335 2.9093 0
M  V30 10756 H 1012.48 2.939 -0.58674 0
M  V30 10757 H 1010.04 1.55276 -0.458375 0
M  V30 10758 H 1012.03 3.59535 1.85787 0
M  V30 10759 H 1010.6 2.53333 1.83143 0
M  V30 10760 H 1009.82 3.93581 -0.220827 0
M  V30 10761 H 1011.11 5.08471 0.182883 0
M  V30 10762 H 1010.51 4.57783 3.32342 0
M  V30 10763 H 1009.07 5.49119 3.51157 0
M  V30 10764 N 1012.5 0.357919 1.53482 0
M  V30 10765 C 1013.45 -0.49217 2.25491 0
M  V30 10766 C 1014.42 -1.08382 1.25867 0
M  V30 10767 O 1015.6 -1.11775 1.54632 0
M  V30 10768 C 1012.74 -1.6299 3.04185 0
M  V30 10769 C 1011.85 -1.06416 4.18688 0
M  V30 10770 C 1010.99 -2.17037 4.84839 0
M  V30 10771 C 1010.03 -1.57889 5.91386 0
M  V30 10772 N 1009.16 -2.6231 6.51259 0
M  V30 10773 H 1014 0.128412 2.97723 0
M  V30 10774 H 1011.54 0.0751423 1.46908 0
M  V30 10775 H 1013.5 -2.29993 3.48079 0
M  V30 10776 H 1012.13 -2.22125 2.34223 0
M  V30 10777 H 1011.18 -0.284635 3.79334 0
M  V30 10778 H 1012.49 -0.591654 4.95279 0
M  V30 10779 H 1011.65 -2.91876 5.31877 0
M  V30 10780 H 1010.39 -2.67636 4.07703 0
M  V30 10781 H 1009.39 -0.815605 5.43717 0
M  V30 10782 H 1010.62 -1.08123 6.70437 0
M  V30 10783 H 1008.56 -3.12137 5.7698 0
M  V30 10784 H 1008.48 -2.19724 7.23365 0
M  V30 10785 H 1009.75 -3.36875 7.02948 0
M  V30 10786 N 1013.98 -1.5736 0.0868897 0
M  V30 10787 C 1015.39 -1.57304 -0.269762 0
M  V30 10788 C 1015.59 -1.09745 -1.68992 0
M  V30 10789 O 1014.65 -0.77017 -2.40468 0
M  V30 10790 C 1015.96 -3.00628 -0.0656646 0
M  V30 10791 C 1017.51 -3.12713 -0.134045 0
M  V30 10792 C 1017.98 -4.57981 0.0419569 0
M  V30 10793 N 1019.48 -4.63198 -0.0131501 0
M  V30 10794 C 1020.21 -5.73316 0.0983964 0
M  V30 10795 N 1019.71 -6.92296 0.264315 0
M  V30 10796 N 1021.5 -5.62086 0.0402517 0
M  V30 10797 H 1013.65 -1.86585 1.01487 0
M  V30 10798 H 1015.91 -0.860843 0.397055 0
M  V30 10799 H 1015.62 -3.39592 0.914891 0
M  V30 10800 H 1015.49 -3.68367 -0.811522 0
M  V30 10801 H 1017.88 -2.73627 -1.1051 0
M  V30 10802 H 1017.96 -2.47582 0.643167 0
M  V30 10803 H 1017.61 -4.9776 1.00984 0
M  V30 10804 H 1017.54 -5.21162 -0.754847 0
M  V30 10805 H 1020.03 -3.77644 -0.139183 0
M  V30 10806 H 1020.34 -7.72047 0.341165 0
M  V30 10807 H 1018.68 -6.94353 0.299876 0
M  V30 10808 H 1021.88 -4.68017 -0.0881801 0
M  V30 10809 H 1022.05 -6.47868 0.130635 0
M  V30 10810 N 1015.45 0.186762 -1.56489 0
M  V30 10811 C 1016.68 0.920495 -1.84961 0
M  V30 10812 C 1017.09 1.77004 -0.668297 0
M  V30 10813 O 1016.44 1.79891 0.37213 0
M  V30 10814 C 1016.5 1.85997 -3.07645 0
M  V30 10815 C 1016.16 1.19156 -4.41193 0
M  V30 10816 C 1017.16 0.564446 -5.16827 0
M  V30 10817 C 1014.84 1.19292 -4.87929 0
M  V30 10818 C 1016.84 -0.0523768 -6.37378 0
M  V30 10819 C 1014.52 0.572266 -6.08415 0
M  V30 10820 C 1015.52 -0.049294 -6.82982 0
M  V30 10821 O 1015.21 -0.660201 -8.01184 0
M  V30 10822 H 1014.94 0.273659 -0.618132 0
M  V30 10823 H 1017.5 0.196437 -2.04459 0
M  V30 10824 H 1015.73 2.62394 -2.84053 0
M  V30 10825 H 1017.42 2.46221 -3.22692 0
M  V30 10826 H 1018.18 0.555474 -4.81809 0
M  V30 10827 H 1014.06 1.66611 -4.29839 0
M  V30 10828 H 1017.6 -0.538133 -6.95521 0
M  V30 10829 H 1013.5 0.578769 -6.429 0
M  V30 10830 H 1014.27 -0.557926 -8.16596 0
M  V30 10831 N 1016.93 1.50896 0.454776 0
M  V30 10832 C 1017.9 1.70377 1.53312 0
M  V30 10833 C 1018.9 0.57408 1.50203 0
M  V30 10834 O 1020.09 0.841374 1.52534 0
M  V30 10835 C 1017.22 1.74411 2.92905 0
M  V30 10836 H 1018.41 2.66599 1.37349 0
M  V30 10837 H 1015.96 1.40622 0.68228 0
M  V30 10838 H 1016.7 0.799408 3.14293 0
M  V30 10839 H 1016.48 2.56496 2.96568 0
M  V30 10840 H 1017.97 1.91382 3.71164 0
M  V30 10841 N 1018.41 -0.709066 1.40748 0
M  V30 10842 C 1019.37 -1.80485 1.41272 0
M  V30 10843 C 1020.37 -1.57872 0.305463 0
M  V30 10844 O 1021.56 -1.64793 0.564691 0
M  V30 10845 C 1018.7 -3.1867 1.21087 0
M  V30 10846 H 1019.89 -1.81417 2.38805 0
M  V30 10847 H 1017.44 -0.915356 1.26692 0
M  V30 10848 H 1018.18 -3.23385 0.243406 0
M  V30 10849 H 1017.96 -3.36484 2.01299 0
M  V30 10850 H 1019.45 -3.98685 1.24257 0
M  V30 10851 N 1019.89 -1.26353 -0.941956 0
M  V30 10852 C 1020.84 -1.07654 -2.06188 0
M  V30 10853 C 1021.83 -0.00369741 -1.694 0
M  V30 10854 O 1023.04 -0.160316 -1.79285 0
M  V30 10855 H 1019.41 -0.331274 -0.675101 0
M  V30 10856 H 1021.38 -2.02566 -2.19111 0
M  V30 10857 C 1020.13 -0.725436 -3.40048 0
M  V30 10858 H 1019.46 -1.54283 -3.68832 0
M  V30 10859 H 1020.9 -0.634383 -4.19227 0
M  V30 10860 C 1019.35 0.569369 -3.32054 0
M  V30 10861 O 1019.88 1.60791 -3.68116 0
M  V30 10862 N 1018.09 0.559714 -2.85159 0
M  V30 10863 H 1017.64 -0.285817 -2.56009 0
M  V30 10864 H 1017.6 1.42617 -2.80193 0
M  V30 10865 N 1021.37 1.14642 -1.08144 0
M  V30 10866 C 1022.31 2.1964 -0.708995 0
M  V30 10867 C 1023.28 1.63303 0.303512 0
M  V30 10868 O 1024.47 1.8987 0.18813 0
M  V30 10869 C 1021.61 3.44886 -0.121585 0
M  V30 10870 C 1020.72 4.15386 -1.18654 0
M  V30 10871 C 1019.86 5.28205 -0.56328 0
M  V30 10872 C 1018.9 5.90534 -1.61046 0
M  V30 10873 N 1018.03 6.94809 -1.00919 0
M  V30 10874 H 1022.87 2.50848 -1.6087 0
M  V30 10875 H 1020.41 1.23185 -0.803975 0
M  V30 10876 H 1022.37 4.16528 0.23668 0
M  V30 10877 H 1021 3.14169 0.741445 0
M  V30 10878 H 1020.05 3.42159 -1.66227 0
M  V30 10879 H 1021.36 4.57809 -1.9802 0
M  V30 10880 H 1020.52 6.06507 -0.153109 0
M  V30 10881 H 1019.26 4.86995 0.262066 0
M  V30 10882 H 1018.26 5.10938 -2.03033 0
M  V30 10883 H 1019.49 6.33819 -2.43824 0
M  V30 10884 H 1017.43 6.5568 -0.204894 0
M  V30 10885 H 1017.35 7.35704 -1.73999 0
M  V30 10886 H 1018.62 7.76992 -0.624792 0
M  V30 10887 N 1022.85 0.866709 1.31628 0
M  V30 10888 C 1024.26 0.529032 1.79048 0
M  V30 10889 C 1024.61 -0.953871 1.71452 0
M  V30 10890 O 1023.73 -1.74462 1.28031 0
M  V30 10891 C 1024.33 0.953522 3.25105 0
M  V30 10892 C 1022.89 0.667554 3.70433 0
M  V30 10893 C 1022.03 1.14664 2.52483 0
M  V30 10894 H 1024.98 1.05275 1.18756 0
M  V30 10895 H 1025.01 0.274844 3.79506 0
M  V30 10896 H 1024.52 2.03283 3.30602 0
M  V30 10897 H 1022.62 -0.400532 3.70441 0
M  V30 10898 H 1022.73 1.2423 4.62714 0
M  V30 10899 H 1021.1 0.566502 2.4832 0
M  V30 10900 H 1021.88 2.2333 2.60727 0
M  V30 10901 N 1024.32 -1.44642 0.625825 0
M  V30 10902 C 1025.74 -1.56925 0.290992 0
M  V30 10903 C 1025.94 -1.61424 -1.20601 0
M  V30 10904 O 1025 -1.55439 -1.98985 0
M  V30 10905 C 1026.31 -2.84343 0.978242 0
M  V30 10906 C 1027.86 -2.98047 0.955882 0
M  V30 10907 C 1028.33 -4.2826 1.62349 0
M  V30 10908 N 1029.82 -4.35062 1.58983 0
M  V30 10909 C 1030.56 -5.34524 2.07538 0
M  V30 10910 N 1030.05 -6.4042 2.6426 0
M  V30 10911 N 1031.85 -5.25998 1.98198 0
M  V30 10912 H 1024 -1.39965 1.59761 0
M  V30 10913 H 1026.26 -0.670368 0.670306 0
M  V30 10914 H 1025.97 -2.86985 2.03304 0
M  V30 10915 H 1025.84 -3.73699 0.512726 0
M  V30 10916 H 1028.23 -2.94961 -0.0904292 0
M  V30 10917 H 1028.31 -2.10053 1.45984 0
M  V30 10918 H 1027.95 -4.32105 2.66923 0
M  V30 10919 H 1027.88 -5.15102 1.09441 0
M  V30 10920 H 1030.37 -3.59147 1.17565 0
M  V30 10921 H 1030.69 -7.1259 2.99056 0
M  V30 10922 H 1029.03 -6.41121 2.68308 0
M  V30 10923 H 1032.22 -4.42178 1.5361 0
M  V30 10924 H 1032.4 -6.03359 2.3635 0
M  V30 10925 N 1025.8 -0.366053 -1.5329 0
M  V30 10926 C 1027.05 0.224614 -2.00445 0
M  V30 10927 C 1027.36 1.49829 -1.2574 0
M  V30 10928 O 1028.57 2.16759 -1.63487 0
M  V30 10929 C 1027.03 0.450818 -3.57065 0
M  V30 10930 C 1026.63 -0.808257 -4.40649 0
M  V30 10931 C 1028.38 0.999116 -4.12575 0
M  V30 10932 C 1026.28 -0.551612 -5.88822 0
M  V30 10933 H 1025.21 0.0877114 -0.748881 0
M  V30 10934 H 1027.87 -0.484866 -1.76978 0
M  V30 10935 H 1026.25 1.22157 -3.76688 0
M  V30 10936 H 1027.42 -1.58184 -4.32798 0
M  V30 10937 H 1025.74 -1.27981 -3.96245 0
M  V30 10938 H 1028.33 1.20646 -5.20911 0
M  V30 10939 H 1028.68 1.96139 -3.67199 0
M  V30 10940 H 1029.21 0.288518 -3.96752 0
M  V30 10941 H 1025.95 -1.48423 -6.38475 0
M  V30 10942 H 1025.47 0.183462 -5.99519 0
M  V30 10943 H 1027.15 -0.177307 -6.46757 0
M  V30 10944 N 1027.28 1.57312 -0.0952337 0
M  V30 10945 C 1028.23 2.15263 0.881167 0
M  V30 10946 C 1029.22 1.09552 1.29208 0
M  V30 10947 O 1030.43 1.27897 1.26659 0
M  V30 10948 H 1026.8 0.688611 0.302191 0
M  V30 10949 H 1028.77 2.96126 0.367694 0
M  V30 10950 C 1027.52 2.74779 2.13053 0
M  V30 10951 H 1026.85 3.55807 1.82323 0
M  V30 10952 H 1028.29 3.18895 2.79431 0
M  V30 10953 C 1026.74 1.7068 2.90465 0
M  V30 10954 O 1027.27 1.14582 3.85011 0
M  V30 10955 N 1025.48 1.41169 2.54007 0
M  V30 10956 H 1025.03 1.86977 1.77193 0
M  V30 10957 H 1024.99 0.717559 3.06102 0
M  V30 10958 N 1028.76 -0.17846 1.56586 0
M  V30 10959 C 1030.01 -0.894502 1.8078 0
M  V30 10960 C 1030.32 -1.8372 0.67129 0
M  V30 10961 O 1031.53 -2.59509 0.797971 0
M  V30 10962 C 1029.98 -1.64109 3.20306 0
M  V30 10963 C 1029.59 -0.742387 4.41806 0
M  V30 10964 C 1031.33 -2.34578 3.53798 0
M  V30 10965 C 1029.24 -1.4888 5.72354 0
M  V30 10966 H 1028.17 -0.33776 0.674117 0
M  V30 10967 H 1030.82 -0.14752 1.82906 0
M  V30 10968 H 1029.2 -2.43257 3.12477 0
M  V30 10969 H 1030.38 0.011615 4.60799 0
M  V30 10970 H 1028.69 -0.147705 4.16138 0
M  V30 10971 H 1031.29 -2.91004 4.48577 0
M  V30 10972 H 1031.63 -3.09572 2.78336 0
M  V30 10973 H 1032.17 -1.62381 3.63149 0
M  V30 10974 H 1028.9 -0.781325 6.50827 0
M  V30 10975 H 1028.42 -2.21631 5.57351 0
M  V30 10976 H 1030.1 -2.03819 6.14058 0
M  V30 10977 N 1030.24 -1.51135 -0.446768 0
M  V30 10978 C 1031.48 -1.63013 -1.19461 0
M  V30 10979 C 1031.8 -0.344067 -1.91941 0
M  V30 10980 O 1031.07 0.639666 -1.85162 0
M  V30 10981 H 1029.65 -0.600757 -0.443959 0
M  V30 10982 H 1032.32 -1.88024 -0.513137 0
M  V30 10983 H 1031.41 -2.45322 -1.92933 0
M  V30 10984 N 1031.71 0.701592 -1.41122 0
M  V30 10985 C 1032.96 1.45722 -1.39456 0
M  V30 10986 C 1033.28 1.95599 -0.00475228 0
M  V30 10987 O 1034.48 2.71166 0.134529 0
M  V30 10988 C 1032.94 2.63475 -2.45172 0
M  V30 10989 C 1032.55 2.20409 -3.90031 0
M  V30 10990 C 1034.29 3.4114 -2.52633 0
M  V30 10991 C 1032.2 3.35084 -4.87312 0
M  V30 10992 H 1031.13 0.547341 -0.518588 0
M  V30 10993 H 1033.78 0.762233 -1.6692 0
M  V30 10994 H 1032.16 3.35212 -2.10829 0
M  V30 10995 H 1033.33 1.56 -4.3359 0
M  V30 10996 H 1031.65 1.55752 -3.86174 0
M  V30 10997 H 1034.25 4.26496 -3.22498 0
M  V30 10998 H 1034.59 3.85915 -1.56125 0
M  V30 10999 H 1035.12 2.76456 -2.86037 0
M  V30 11000 H 1031.86 2.95327 -5.85203 0
M  V30 11001 H 1031.38 3.98362 -4.48406 0
M  V30 11002 H 1033.06 4.00949 -5.07788 0
M  V30 11003 N 1033.19 1.2685 0.935242 0
M  V30 11004 C 1034.44 1.12522 1.67878 0
M  V30 11005 C 1034.76 -0.330894 1.92172 0
M  V30 11006 O 1034.03 -1.23259 1.52263 0
M  V30 11007 H 1032.61 0.413418 0.622169 0
M  V30 11008 H 1035.27 1.59267 1.12339 0
M  V30 11009 H 1034.37 1.64853 2.65009 0
M  V30 11010 N 1034.67 -1.14067 1.0875 0
M  V30 11011 C 1035.92 -1.84535 0.814235 0
M  V30 11012 C 1036.23 -1.84044 -0.662355 0
M  V30 11013 O 1037.44 -2.50336 -1.05091 0
M  V30 11014 C 1035.89 -3.31273 1.40663 0
M  V30 11015 C 1035.5 -3.40171 2.91526 0
M  V30 11016 C 1037.25 -4.0683 1.21201 0
M  V30 11017 C 1035.15 -4.81141 3.43885 0
M  V30 11018 H 1034.08 -0.691346 0.300926 0
M  V30 11019 H 1036.73 -1.28562 1.30935 0
M  V30 11020 H 1035.12 -3.87005 0.839215 0
M  V30 11021 H 1036.29 -2.94471 3.54434 0
M  V30 11022 H 1034.61 -2.78073 3.09942 0
M  V30 11023 H 1037.2 -5.10891 1.57781 0
M  V30 11024 H 1037.55 -4.16022 0.152092 0
M  V30 11025 H 1038.08 -3.57408 1.74655 0
M  V30 11026 H 1034.82 -4.77138 4.49466 0
M  V30 11027 H 1034.34 -5.27365 2.85738 0
M  V30 11028 H 1036.02 -5.50042 3.40681 0
M  V30 11029 N 1036.15 -0.873678 -1.31166 0
M  V30 11030 C 1037.1 -0.321349 -2.3037 0
M  V30 11031 C 1038.09 0.565568 -1.5968 0
M  V30 11032 O 1039.3 0.451257 -1.74252 0
M  V30 11033 H 1035.67 -0.0852425 -0.747153 0
M  V30 11034 H 1037.64 -1.17191 -2.74425 0
M  V30 11035 C 1036.39 0.459016 -3.44657 0
M  V30 11036 H 1035.71 -0.214185 -3.99226 0
M  V30 11037 H 1037.15 0.810758 -4.16176 0
M  V30 11038 C 1035.61 1.65173 -2.93632 0
M  V30 11039 O 1036.14 2.75105 -2.92711 0
M  V30 11040 N 1034.35 1.4851 -2.49786 0
M  V30 11041 H 1033.9 0.590785 -2.50734 0
M  V30 11042 H 1033.85 2.28452 -2.16002 0
M  V30 11043 N 1037.63 1.44308 -0.633487 0
M  V30 11044 C 1038.85 2.06897 -0.144347 0
M  V30 11045 C 1039.28 1.47045 1.173 0
M  V30 11046 O 1038.63 0.572806 1.72013 0
M  V30 11047 C 1038.68 3.60571 -0.0456324 0
M  V30 11048 O 1037.79 4.0015 0.997682 0
M  V30 11049 H 1037.13 0.658427 -0.0858499 0
M  V30 11050 H 1039.66 1.85142 -0.870833 0
M  V30 11051 H 1039.67 4.07745 0.144178 0
M  V30 11052 H 1038.34 4.03515 -1.0074 0
M  V30 11053 H 1036.92 3.64603 0.782252 0
M  V30 11054 N 1039.1 0.374177 1.53094 0
M  V30 11055 C 1040.38 -0.269632 1.93733 0
M  V30 11056 C 1040.76 -1.6566 1.30843 0
M  V30 11057 O 1040.11 -2.23598 0.470759 0
M  V30 11058 C 1040.32 -0.311204 3.4761 0
M  V30 11059 C 1041.67 -0.547432 4.21056 0
M  V30 11060 O 1042.69 -0.392053 3.54036 0
M  V30 11061 O 1041.55 -0.850645 5.39839 0
M  V30 11062 H 1038.64 -0.163723 0.810632 0
M  V30 11063 H 1041.19 0.427586 1.64225 0
M  V30 11064 H 1039.96 0.660897 3.85678 0
M  V30 11065 H 1039.59 -1.05397 3.83376 0
M  V30 11066 N 1040.58 -1.57259 0.103575 0
M  V30 11067 C 1041.81 -1.99 -0.566275 0
M  V30 11068 C 1042.23 -0.982909 -1.61197 0
M  V30 11069 O 1041.58 0.026345 -1.82481 0
M  V30 11070 C 1041.63 -3.40778 -1.20635 0
M  V30 11071 O 1041.35 -4.37632 -0.202472 0
M  V30 11072 C 1042.86 -3.97567 -1.961 0
M  V30 11073 H 1040.08 -0.653751 -0.151164 0
M  V30 11074 H 1042.62 -2.03658 0.185365 0
M  V30 11075 H 1040.77 -3.37107 -1.90886 0
M  V30 11076 H 1041.19 -5.2026 -0.665535 0
M  V30 11077 H 1042.66 -4.98897 -2.36233 0
M  V30 11078 H 1043.14 -3.35853 -2.83018 0
M  V30 11079 H 1043.75 -4.04737 -1.30645 0
M  V30 11080 N 1042.06 0.170153 -1.56679 0
M  V30 11081 C 1043.31 0.887906 -1.8233 0
M  V30 11082 C 1043.64 1.81845 -0.681608 0
M  V30 11083 O 1042.91 1.9191 0.316362 0
M  V30 11084 C 1043.2 1.68256 -3.18374 0
M  V30 11085 C 1043.05 0.775059 -4.43072 0
M  V30 11086 C 1044.37 2.65001 -3.51372 0
M  V30 11087 H 1041.49 0.32135 -0.663252 0
M  V30 11088 H 1044.13 0.154065 -1.89374 0
M  V30 11089 H 1042.28 2.30817 -3.12499 0
M  V30 11090 H 1043.95 0.162234 -4.61015 0
M  V30 11091 H 1042.2 0.0831809 -4.3372 0
M  V30 11092 H 1042.87 1.36661 -5.34816 0
M  V30 11093 H 1045.34 2.12566 -3.57708 0
M  V30 11094 H 1044.22 3.17667 -4.47637 0
M  V30 11095 H 1044.48 3.45255 -2.76136 0
M  V30 11096 N 1043.54 1.5137 0.438746 0
M  V30 11097 C 1044.79 1.63202 1.18524 0
M  V30 11098 C 1045.1 0.353408 1.92381 0
M  V30 11099 O 1046.31 0.351086 2.6922 0
M  V30 11100 C 1044.76 2.88218 2.15542 0
M  V30 11101 C 1044.37 4.23078 1.47339 0
M  V30 11102 C 1046.11 3.09407 2.90633 0
M  V30 11103 C 1044.02 5.39246 2.42833 0
M  V30 11104 H 1042.95 0.607864 0.446114 0
M  V30 11105 H 1045.6 1.77835 0.452421 0
M  V30 11106 H 1043.98 2.67216 2.92253 0
M  V30 11107 H 1045.16 4.54457 0.761964 0
M  V30 11108 H 1043.47 4.07755 0.844065 0
M  V30 11109 H 1046.07 3.9337 3.62165 0
M  V30 11110 H 1046.41 2.22428 3.51897 0
M  V30 11111 H 1046.95 3.30743 2.21029 0
M  V30 11112 H 1043.69 6.2848 1.8626 0
M  V30 11113 H 1043.21 5.12245 3.12034 0
M  V30 11114 H 1044.88 5.71137 3.03992 0
M  V30 11115 N 1045.02 -0.694098 1.41492 0
M  V30 11116 C 1046.24 -1.48789 1.44488 0
M  V30 11117 C 1046.67 -1.88028 0.0521588 0
M  V30 11118 O 1046.02 -1.54727 -0.944952 0
M  V30 11119 C 1046.07 -2.72586 2.3607 0
M  V30 11120 O 1045.18 -3.70128 1.81876 0
M  V30 11121 H 1044.52 -0.447758 0.490315 0
M  V30 11122 H 1047.05 -0.853036 1.85969 0
M  V30 11123 H 1047.06 -3.20877 2.51995 0
M  V30 11124 H 1045.73 -2.43363 3.37264 0
M  V30 11125 H 1044.31 -3.29069 1.75408 0
M  V30 11126 N 1046.49 -1.27344 -0.928501 0
M  V30 11127 C 1047.74 -1.13411 -1.67279 0
M  V30 11128 C 1048.06 0.320698 -1.92345 0
M  V30 11129 O 1047.33 1.2245 -1.52915 0
M  V30 11130 H 1045.91 -0.416712 -0.619968 0
M  V30 11131 H 1048.58 -1.5986 -1.11493 0
M  V30 11132 H 1047.67 -1.66256 -2.64131 0
M  V30 11133 N 1047.97 1.13488 -1.09353 0
M  V30 11134 C 1048.92 2.20949 -0.726923 0
M  V30 11135 C 1049.91 1.67205 0.271816 0
M  V30 11136 O 1051.12 1.79505 0.133356 0
M  V30 11137 H 1047.5 0.719985 -0.217086 0
M  V30 11138 H 1049.47 2.49134 -1.6424 0
M  V30 11139 C 1048.22 3.47319 -0.162822 0
M  V30 11140 H 1047.54 3.89011 -0.922527 0
M  V30 11141 H 1048.98 4.23963 0.0557734 0
M  V30 11142 C 1047.44 3.18376 1.10175 0
M  V30 11143 O 1047.97 3.3707 2.18511 0
M  V30 11144 N 1046.17 2.72262 1.01597 0
M  V30 11145 H 1045.72 2.5725 0.134289 0
M  V30 11146 H 1045.68 2.53272 1.86281 0
M  V30 11147 N 1049.45 0.880621 1.30701 0
M  V30 11148 C 1050.7 0.492957 1.95583 0
M  V30 11149 C 1051.01 -0.961863 1.70316 0
M  V30 11150 O 1052.22 -1.45617 2.29146 0
M  V30 11151 C 1050.68 0.830656 3.50183 0
M  V30 11152 C 1050.28 2.30295 3.84276 0
M  V30 11153 C 1052.03 0.511979 4.21401 0
M  V30 11154 C 1049.93 2.58251 5.32034 0
M  V30 11155 H 1048.86 0.18062 0.732047 0
M  V30 11156 H 1051.52 1.075 1.48715 0
M  V30 11157 H 1049.9 0.177752 3.95601 0
M  V30 11158 H 1051.07 2.99981 3.49783 0
M  V30 11159 H 1049.39 2.58873 3.2615 0
M  V30 11160 H 1051.98 0.697935 5.30125 0
M  V30 11161 H 1052.33 -0.548327 4.12673 0
M  V30 11162 H 1052.86 1.12189 3.81652 0
M  V30 11163 H 1049.6 3.63005 5.45809 0
M  V30 11164 H 1049.12 1.9317 5.67843 0
M  V30 11165 H 1050.8 2.43527 5.99419 0
M  V30 11166 N 1050.93 -1.4397 0.641131 0
M  V30 11167 C 1052.18 -2.01548 0.149333 0
M  V30 11168 C 1052.5 -1.50759 -1.23679 0
M  V30 11169 O 1051.77 -0.715257 -1.82376 0
M  V30 11170 H 1050.35 -0.745173 0.0522161 0
M  V30 11171 H 1053.01 -1.7634 0.830082 0
M  V30 11172 H 1052.11 -3.11851 0.124676 0
M  V30 11173 N 1052.41 -0.382291 -1.52893 0
M  V30 11174 C 1053.63 0.204961 -2.06385 0
M  V30 11175 C 1054.06 1.40316 -1.25271 0
M  V30 11176 O 1053.42 1.79187 -0.275969 0
M  V30 11177 C 1053.46 0.560205 -3.56222 0
M  V30 11178 O 1052.57 1.65515 -3.77728 0
M  V30 11179 H 1051.91 0.0258798 -0.663495 0
M  V30 11180 H 1054.44 -0.547733 -1.97132 0
M  V30 11181 H 1054.45 0.826501 -3.99541 0
M  V30 11182 H 1053.12 -0.31584 -4.14699 0
M  V30 11183 H 1051.7 1.38311 -3.46301 0
M  V30 11184 N 1053.89 1.57202 -0.111913 0
M  V30 11185 C 1055.11 1.99723 0.559054 0
M  V30 11186 C 1055.54 0.990968 1.59879 0
M  V30 11187 O 1054.89 -0.038311 1.8126 0
M  V30 11188 C 1054.94 3.41151 1.16826 0
M  V30 11189 O 1054.05 3.43383 2.2839 0
M  V30 11190 H 1053.39 0.649004 0.140319 0
M  V30 11191 H 1055.92 2.03637 -0.198295 0
M  V30 11192 H 1055.93 3.79208 1.50551 0
M  V30 11193 H 1054.6 4.13907 0.406637 0
M  V30 11194 H 1053.18 3.17138 1.96158 0
M  V30 11195 N 1055.36 -0.161842 1.56767 0
M  V30 11196 C 1056.31 -1.2002 1.97139 0
M  V30 11197 C 1057.28 -1.43486 0.836713 0
M  V30 11198 O 1058.47 -1.56069 1.0976 0
M  V30 11199 C 1055.61 -2.53228 2.34456 0
M  V30 11200 C 1054.72 -2.37062 3.61145 0
M  V30 11201 C 1053.85 -3.63202 3.87631 0
M  V30 11202 C 1052.89 -3.42008 5.07638 0
M  V30 11203 N 1052.03 -4.60242 5.30209 0
M  V30 11204 H 1056.87 -0.848918 2.85653 0
M  V30 11205 H 1054.41 -0.407753 1.41336 0
M  V30 11206 H 1056.36 -3.30879 2.54116 0
M  V30 11207 H 1054.99 -2.86333 1.4904 0
M  V30 11208 H 1054.05 -1.50539 3.49345 0
M  V30 11209 H 1055.36 -2.17353 4.48953 0
M  V30 11210 H 1054.51 -4.49285 4.0771 0
M  V30 11211 H 1053.25 -3.85899 2.98216 0
M  V30 11212 H 1052.26 -2.54312 4.87448 0
M  V30 11213 H 1053.48 -3.20724 5.98593 0
M  V30 11214 H 1051.43 -4.8314 4.43747 0
M  V30 11215 H 1051.34 -4.43481 6.12259 0
M  V30 11216 H 1052.61 -5.47581 5.54775 0
M  V30 11217 N 1056.84 -1.516 -0.430713 0
M  V30 11218 C 1058.26 -1.39923 -0.767706 0
M  V30 11219 C 1058.46 -0.486756 -1.95532 0
M  V30 11220 O 1057.51 0.0555965 -2.52439 0
M  V30 11221 C 1058.83 -2.82074 -1.04187 0
M  V30 11222 C 1060.37 -2.9127 -1.1459 0
M  V30 11223 C 1060.85 -4.34342 -1.45295 0
M  V30 11224 N 1062.34 -4.37479 -1.52206 0
M  V30 11225 C 1063.08 -5.45219 -1.77549 0
M  V30 11226 N 1062.57 -6.6311 -2.0064 0
M  V30 11227 N 1064.36 -5.32707 -1.79386 0
M  V30 11228 H 1056.52 -2.09474 0.351351 0
M  V30 11229 H 1058.78 -0.943247 0.0948151 0
M  V30 11230 H 1058.48 -3.50868 -0.241837 0
M  V30 11231 H 1058.36 -3.21805 -1.96777 0
M  V30 11232 H 1060.75 -2.2267 -1.93655 0
M  V30 11233 H 1060.83 -2.55026 -0.198854 0
M  V30 11234 H 1060.47 -5.03494 -0.667559 0
M  V30 11235 H 1060.4 -4.68105 -2.41217 0
M  V30 11236 H 1062.89 -3.52488 -1.36237 0
M  V30 11237 H 1063.2 -7.41012 -2.19366 0
M  V30 11238 H 1061.55 -6.66214 -1.97948 0
M  V30 11239 H 1064.74 -4.39589 -1.60869 0
M  V30 11240 H 1064.91 -6.16752 -1.98799 0
M  V30 11241 N 1058.32 0.686584 -1.41858 0
M  V30 11242 C 1059.25 1.81107 -1.38836 0
M  V30 11243 C 1060.23 1.60599 -0.254293 0
M  V30 11244 O 1061.41 1.83229 -0.442641 0
M  V30 11245 C 1058.54 3.17928 -1.16787 0
M  V30 11246 C 1057.59 3.5721 -2.33031 0
M  V30 11247 S 1058.42 3.60986 -3.95536 0
M  V30 11248 C 1059.58 5.00519 -3.75808 0
M  V30 11249 H 1059.81 1.83396 -2.33994 0
M  V30 11250 H 1057.34 0.856146 -1.28489 0
M  V30 11251 H 1059.3 3.9691 -1.04752 0
M  V30 11252 H 1057.96 3.1324 -0.232335 0
M  V30 11253 H 1057.15 4.56629 -2.13321 0
M  V30 11254 H 1056.76 2.8556 -2.41519 0
M  V30 11255 H 1059.05 5.88272 -3.36069 0
M  V30 11256 H 1059.99 5.25273 -4.74862 0
M  V30 11257 H 1060.4 4.72481 -3.08904 0
M  V30 11258 N 1059.8 1.27835 0.921735 0
M  V30 11259 C 1060.71 1.12904 2.05645 0
M  V30 11260 C 1061.72 0.0575704 1.73905 0
M  V30 11261 O 1062.9 0.265261 1.99645 0
M  V30 11262 C 1059.96 0.783957 3.3772 0
M  V30 11263 C 1059.03 1.93694 3.8312 0
M  V30 11264 C 1058.26 1.60823 5.08893 0
M  V30 11265 O 1058.48 0.518873 5.68035 0
M  V30 11266 O 1057.42 2.44932 5.49811 0
M  V30 11267 H 1061.24 2.08143 2.21157 0
M  V30 11268 H 1058.83 1.07078 1.04185 0
M  V30 11269 H 1060.71 0.605107 4.17033 0
M  V30 11270 H 1059.38 -0.138849 3.23402 0
M  V30 11271 H 1058.29 2.17089 3.04669 0
M  V30 11272 H 1059.62 2.84016 4.0199 0
M  V30 11273 N 1061.28 -1.12907 1.09954 0
M  V30 11274 C 1062.52 -1.84306 0.838912 0
M  V30 11275 C 1062.85 -1.83825 -0.635508 0
M  V30 11276 O 1062.11 -1.27556 -1.48418 0
M  V30 11277 C 1062.4 -3.31885 1.32616 0
M  V30 11278 C 1062.07 -3.52542 2.81114 0
M  V30 11279 C 1060.73 -3.57888 3.21667 0
M  V30 11280 C 1063.08 -3.60065 3.76833 0
M  V30 11281 C 1060.41 -3.68296 4.567 0
M  V30 11282 C 1062.76 -3.72001 5.11662 0
M  V30 11283 C 1061.43 -3.75602 5.51797 0
M  V30 11284 H 1060.7 -0.674422 0.30698 0
M  V30 11285 H 1063.35 -1.33261 1.37527 0
M  V30 11286 H 1061.65 -3.85318 0.709719 0
M  V30 11287 H 1063.35 -3.85588 1.10105 0
M  V30 11288 H 1059.94 -3.4904 2.48735 0
M  V30 11289 H 1064.12 -3.55209 3.46612 0
M  V30 11290 H 1059.38 -3.69352 4.87226 0
M  V30 11291 H 1063.55 -3.76765 5.8568 0
M  V30 11292 H 1061.18 -3.83419 6.56425 0
M  V30 11293 N 1062.75 -0.88754 -1.30232 0
M  V30 11294 C 1063.98 -0.522306 -2.00199 0
M  V30 11295 C 1064.4 0.889866 -1.66514 0
M  V30 11296 O 1063.75 1.58558 -0.903639 0
M  V30 11297 C 1063.8 -0.690551 -3.54843 0
M  V30 11298 O 1063.53 -2.04713 -3.8733 0
M  V30 11299 C 1065.03 -0.328649 -4.4208 0
M  V30 11300 H 1062.25 -0.201628 -0.63999 0
M  V30 11301 H 1064.79 -1.19355 -1.66056 0
M  V30 11302 H 1062.95 -0.0666493 -3.87343 0
M  V30 11303 H 1063.36 -2.06762 -4.82027 0
M  V30 11304 H 1064.83 -0.497257 -5.49756 0
M  V30 11305 H 1065.31 0.733502 -4.33032 0
M  V30 11306 H 1065.92 -0.928982 -4.1503 0
M  V30 11307 N 1064.23 1.43628 -0.648757 0
M  V30 11308 C 1065.2 2.29172 0.0360713 0
M  V30 11309 C 1066.2 1.41974 0.754976 0
M  V30 11310 O 1067.39 1.63654 0.5969 0
M  V30 11311 C 1064.52 3.23942 1.0618 0
M  V30 11312 H 1065.71 2.91214 -0.716544 0
M  V30 11313 H 1063.26 1.50833 -0.409759 0
M  V30 11314 H 1064 2.66786 1.8438 0
M  V30 11315 H 1063.78 3.88223 0.550016 0
M  V30 11316 H 1065.27 3.8816 1.54019 0
M  V30 11317 N 1065.71 0.390394 1.52688 0
M  V30 11318 C 1066.96 -0.192697 2.00777 0
M  V30 11319 C 1067.27 -1.4781 1.28108 0
M  V30 11320 O 1068.48 -2.1413 1.66914 0
M  V30 11321 C 1066.93 -0.393955 3.57737 0
M  V30 11322 C 1066.54 0.878259 4.39307 0
M  V30 11323 C 1068.29 -0.933352 4.14112 0
M  V30 11324 C 1066.19 0.645218 5.8787 0
M  V30 11325 H 1065.12 -0.0757862 0.750182 0
M  V30 11326 H 1067.77 0.512961 1.76184 0
M  V30 11327 H 1066.16 -1.16149 3.78583 0
M  V30 11328 H 1067.33 1.65049 4.30227 0
M  V30 11329 H 1065.65 1.34269 3.94158 0
M  V30 11330 H 1068.24 -1.12343 5.22765 0
M  V30 11331 H 1068.59 -1.90272 3.70273 0
M  V30 11332 H 1069.12 -0.225361 3.97161 0
M  V30 11333 H 1065.86 1.58562 6.36033 0
M  V30 11334 H 1065.38 -0.0880609 5.99735 0
M  V30 11335 H 1067.06 0.280178 6.46393 0
M  V30 11336 N 1067.19 -1.57141 0.120249 0
M  V30 11337 C 1068.44 -1.94852 -0.536387 0
M  V30 11338 C 1068.76 -1.00452 -1.67136 0
M  V30 11339 O 1068.03 -0.061053 -1.95805 0
M  V30 11340 H 1066.61 -0.719411 -0.201138 0
M  V30 11341 H 1069.27 -1.93977 0.189482 0
M  V30 11342 H 1068.37 -2.97917 -0.930145 0
M  V30 11343 N 1068.67 0.153526 -1.5685 0
M  V30 11344 C 1069.94 0.895545 -1.73895 0
M  V30 11345 C 1070.32 1.99625 -0.686504 0
M  V30 11346 O 1069.67 2.26579 0.2957 0
M  V30 11347 C 1069.88 1.44399 -3.17726 0
M  V30 11348 C 1071.23 1.90996 -3.79217 0
M  V30 11349 O 1072.25 1.54155 -3.21115 0
M  V30 11350 O 1071.11 2.58917 -4.81274 0
M  V30 11351 H 1068.21 0.422755 -0.710779 0
M  V30 11352 H 1070.75 0.139961 -1.69122 0
M  V30 11353 H 1069.52 0.652635 -3.85819 0
M  V30 11354 H 1069.15 2.26326 -3.26898 0
M  V30 11355 N 1070.14 1.51827 0.422667 0
M  V30 11356 C 1071.39 1.64893 1.16853 0
M  V30 11357 C 1071.71 0.37456 1.91369 0
M  V30 11358 O 1070.98 -0.610128 1.86157 0
M  V30 11359 H 1069.56 0.607744 0.434345 0
M  V30 11360 H 1072.23 1.88816 0.483159 0
M  V30 11361 H 1071.32 2.48361 1.89006 0
M  V30 11362 N 1071.62 -0.679052 1.4222 0
M  V30 11363 C 1072.87 -1.44125 1.42674 0
M  V30 11364 C 1073.2 -1.94156 0.041438 0
M  V30 11365 O 1072.48 -1.70628 -0.93361 0
M  V30 11366 C 1072.76 -2.64133 2.44756 0
M  V30 11367 C 1072.61 -2.19761 3.9246 0
M  V30 11368 C 1073.93 -3.66347 2.43881 0
M  V30 11369 H 1071.05 -0.522729 0.519541 0
M  V30 11370 H 1073.69 -0.772067 1.73606 0
M  V30 11371 H 1071.84 -3.21225 2.1851 0
M  V30 11372 H 1073.51 -1.67869 4.29671 0
M  V30 11373 H 1071.76 -1.51377 4.06531 0
M  V30 11374 H 1072.43 -3.05944 4.59459 0
M  V30 11375 H 1074.9 -3.18963 2.67211 0
M  V30 11376 H 1073.78 -4.47902 3.17293 0
M  V30 11377 H 1074.04 -4.17183 1.46325 0
M  V30 11378 N 1073.1 -1.28322 -0.914942 0
M  V30 11379 C 1074.05 -1.12003 -2.03858 0
M  V30 11380 C 1075.04 -0.0396287 -1.69354 0
M  V30 11381 O 1076.25 -0.198309 -1.78904 0
M  V30 11382 H 1072.62 -0.34552 -0.667922 0
M  V30 11383 H 1074.59 -2.07168 -2.14765 0
M  V30 11384 C 1073.34 -0.797402 -3.38433 0
M  V30 11385 H 1072.67 -1.62071 -3.65476 0
M  V30 11386 H 1074.11 -0.723165 -4.17787 0
M  V30 11387 C 1072.57 0.498807 -3.33187 0
M  V30 11388 O 1073.1 1.52946 -3.71444 0
M  V30 11389 N 1071.3 0.499101 -2.86282 0
M  V30 11390 H 1070.85 -0.340056 -2.55346 0
M  V30 11391 H 1070.81 1.36641 -2.83155 0
M  V30 11392 N 1074.58 1.12322 -1.10551 0
M  V30 11393 C 1075.51 2.20176 -0.777486 0
M  V30 11394 C 1076.49 1.68252 0.250069 0
M  V30 11395 O 1077.67 1.93856 0.115574 0
M  V30 11396 C 1074.8 3.46666 -0.209822 0
M  V30 11397 C 1073.76 4.11749 -1.1682 0
M  V30 11398 C 1073.08 5.32703 -0.461684 0
M  V30 11399 C 1074.38 4.57746 -2.51527 0
M  V30 11400 H 1076.08 2.47872 -1.67928 0
M  V30 11401 H 1073.62 1.19136 -0.808863 0
M  V30 11402 H 1075.58 4.21388 0.0318068 0
M  V30 11403 H 1074.3 3.18401 0.727226 0
M  V30 11404 H 1072.96 3.39009 -1.3953 0
M  V30 11405 H 1072.61 5.00706 0.479875 0
M  V30 11406 H 1072.31 5.77197 -1.1008 0
M  V30 11407 H 1073.83 6.10172 -0.228629 0
M  V30 11408 H 1075.25 5.23835 -2.32958 0
M  V30 11409 H 1073.64 5.13021 -3.11335 0
M  V30 11410 H 1074.71 3.71667 -3.11435 0
M  V30 11411 N 1076.06 0.894434 1.2976 0
M  V30 11412 C 1077.3 0.516646 1.95385 0
M  V30 11413 C 1077.63 -0.939141 1.70895 0
M  V30 11414 O 1076.9 -1.66153 1.03778 0
M  V30 11415 H 1075.48 0.188072 0.722937 0
M  V30 11416 H 1078.14 1.13958 1.58113 0
M  V30 11417 H 1077.23 0.694819 3.04267 0
M  V30 11418 N 1077.53 -1.43282 0.656365 0
M  V30 11419 C 1078.76 -2.06641 0.177245 0
M  V30 11420 C 1079.18 -1.48893 -1.14946 0
M  V30 11421 O 1078.54 -0.600099 -1.7108 0
M  V30 11422 C 1078.59 -3.60453 0.10299 0
M  V30 11423 O 1077.69 -4.01687 -0.933895 0
M  V30 11424 H 1077.04 -0.656978 0.096314 0
M  V30 11425 H 1079.57 -1.83733 0.900178 0
M  V30 11426 H 1079.58 -4.07923 -0.079291 0
M  V30 11427 H 1078.25 -4.01861 1.07147 0
M  V30 11428 H 1076.83 -3.65801 -0.724148 0
M  V30 11429 N 1079.01 -0.398486 -1.52479 0
M  V30 11430 C 1080.43 -0.0488635 -1.59525 0
M  V30 11431 C 1080.63 1.43756 -1.41197 0
M  V30 11432 O 1079.69 2.20317 -1.23357 0
M  V30 11433 C 1081 -0.534262 -2.95916 0
M  V30 11434 C 1082.55 -0.491314 -3.0912 0
M  V30 11435 C 1083.02 -0.953049 -4.47974 0
M  V30 11436 N 1084.51 -0.909434 -4.54184 0
M  V30 11437 C 1085.25 -1.23801 -5.59876 0
M  V30 11438 N 1084.74 -1.63752 -6.73169 0
M  V30 11439 N 1086.54 -1.15867 -5.50028 0
M  V30 11440 H 1078.69 -1.36608 -1.62641 0
M  V30 11441 H 1080.95 -0.560515 -0.764544 0
M  V30 11442 H 1080.66 -1.57277 -3.14574 0
M  V30 11443 H 1080.53 0.0617787 -3.77149 0
M  V30 11444 H 1082.92 0.538123 -2.90152 0
M  V30 11445 H 1083 -1.12327 -2.29818 0
M  V30 11446 H 1082.64 -1.98076 -4.67684 0
M  V30 11447 H 1082.57 -0.298007 -5.25756 0
M  V30 11448 H 1085.06 -0.615569 -3.72853 0
M  V30 11449 H 1085.38 -1.87163 -7.49793 0
M  V30 11450 H 1083.72 -1.67647 -6.74477 0
M  V30 11451 H 1086.91 -0.845502 -4.60401 0
M  V30 11452 H 1087.09 -1.41805 -6.32294 0
M  V30 11453 N 1080.49 1.57075 -0.12858 0
M  V30 11454 C 1081.42 2.18833 0.814519 0
M  V30 11455 C 1082.4 1.13114 1.2704 0
M  V30 11456 O 1083.59 1.41387 1.33129 0
M  V30 11457 C 1080.72 2.79535 2.06101 0
M  V30 11458 C 1079.67 3.9092 1.74257 0
M  V30 11459 C 1079 4.38473 3.06015 0
M  V30 11460 C 1080.3 5.1257 1.00345 0
M  V30 11461 H 1081.99 2.97895 0.299862 0
M  V30 11462 H 1079.54 1.4329 0.14279 0
M  V30 11463 H 1081.49 3.21401 2.72543 0
M  V30 11464 H 1080.21 1.97777 2.59907 0
M  V30 11465 H 1078.87 3.49645 1.102 0
M  V30 11466 H 1078.52 3.53561 3.57776 0
M  V30 11467 H 1078.22 5.13591 2.85479 0
M  V30 11468 H 1079.75 4.82997 3.7356 0
M  V30 11469 H 1081.16 5.51395 1.56959 0
M  V30 11470 H 1079.56 5.93333 0.898693 0
M  V30 11471 H 1080.63 4.84899 -0.0081335 0
M  V30 11472 N 1081.97 -0.145205 1.5693 0
M  V30 11473 C 1082.88 -1.19864 2.01667 0
M  V30 11474 C 1083.9 -1.46909 0.932402 0
M  V30 11475 O 1085.07 -1.58543 1.24201 0
M  V30 11476 C 1082.14 -2.51174 2.38982 0
M  V30 11477 C 1081.2 -2.3176 3.61366 0
M  V30 11478 C 1080.43 -3.56809 3.96892 0
M  V30 11479 O 1080.65 -4.63063 3.33059 0
M  V30 11480 O 1079.59 -3.49366 4.9013 0
M  V30 11481 H 1083.41 -0.848821 2.91597 0
M  V30 11482 H 1081 -0.354063 1.45144 0
M  V30 11483 H 1082.88 -3.28587 2.63835 0
M  V30 11484 H 1081.56 -2.85683 1.52207 0
M  V30 11485 H 1080.46 -1.52293 3.41698 0
M  V30 11486 H 1081.8 -2.02167 4.48764 0
M  V30 11487 N 1083.45 -1.52049 -0.414609 0
M  V30 11488 C 1084.67 -1.6997 -1.18848 0
M  V30 11489 C 1085.1 -0.406058 -1.83665 0
M  V30 11490 O 1084.46 0.635981 -1.69779 0
M  V30 11491 C 1084.5 -2.8327 -2.23138 0
M  V30 11492 O 1083.61 -2.48457 -3.29155 0
M  V30 11493 H 1082.95 -0.566003 -0.347183 0
M  V30 11494 H 1085.48 -1.98726 -0.486757 0
M  V30 11495 H 1085.49 -3.08022 -2.67557 0
M  V30 11496 H 1084.16 -3.7713 -1.75344 0
M  V30 11497 H 1082.74 -2.34357 -2.90054 0
M  V30 11498 N 1084.93 0.6715 -1.42579 0
M  V30 11499 C 1086.17 1.43366 -1.43436 0
M  V30 11500 C 1086.5 1.94131 -0.0517339 0
M  V30 11501 O 1085.78 1.71121 0.924548 0
M  V30 11502 C 1086.06 2.62832 -2.46154 0
M  V30 11503 C 1085.92 2.17677 -3.9362 0
M  V30 11504 C 1087.23 3.65049 -2.4582 0
M  V30 11505 H 1084.35 0.519967 -0.522306 0
M  V30 11506 H 1087 0.762849 -1.74013 0
M  V30 11507 H 1085.15 3.20062 -2.2021 0
M  V30 11508 H 1086.82 1.65588 -4.30556 0
M  V30 11509 H 1085.06 1.49219 -4.07328 0
M  V30 11510 H 1085.73 3.03503 -4.61075 0
M  V30 11511 H 1088.21 3.17541 -2.68899 0
M  V30 11512 H 1087.08 4.46213 -3.19664 0
M  V30 11513 H 1087.34 4.16401 -1.48536 0
M  V30 11514 N 1086.4 1.28806 0.908124 0
M  V30 11515 C 1087.63 1.19271 1.69674 0
M  V30 11516 C 1088.05 -0.244403 1.86505 0
M  V30 11517 O 1087.41 -1.17668 1.37927 0
M  V30 11518 C 1087.46 1.9023 3.06341 0
M  V30 11519 O 1086.56 1.2136 3.94139 0
M  V30 11520 H 1085.9 0.413738 0.519343 0
M  V30 11521 H 1088.43 1.70227 1.13508 0
M  V30 11522 H 1088.44 1.98356 3.56537 0
M  V30 11523 H 1087.12 2.94762 2.93408 0
M  V30 11524 H 1085.7 1.21435 3.52573 0
M  V30 11525 N 1087.88 -1.11734 1.11145 0
M  V30 11526 C 1088.83 -2.17683 0.766979 0
M  V30 11527 C 1089.8 -1.64051 -0.260108 0
M  V30 11528 O 1090.98 -1.90302 -0.137723 0
M  V30 11529 C 1088.12 -3.44442 0.212982 0
M  V30 11530 C 1087.24 -4.12094 1.29626 0
M  V30 11531 C 1086.37 -5.26526 0.703127 0
M  V30 11532 C 1085.41 -5.86057 1.76647 0
M  V30 11533 N 1084.55 -6.91889 1.19306 0
M  V30 11534 H 1089.39 -2.46495 1.67465 0
M  V30 11535 H 1086.92 -1.21011 0.836353 0
M  V30 11536 H 1088.88 -4.17009 -0.126162 0
M  V30 11537 H 1087.51 -3.16025 -0.657888 0
M  V30 11538 H 1086.56 -3.37631 1.75241 0
M  V30 11539 H 1087.88 -4.52398 2.10089 0
M  V30 11540 H 1087.03 -6.05888 0.313859 0
M  V30 11541 H 1085.77 -4.87519 -0.132856 0
M  V30 11542 H 1084.77 -5.05375 2.16508 0
M  V30 11543 H 1086 -6.27132 2.60543 0
M  V30 11544 H 1083.95 -6.54906 0.378664 0
M  V30 11545 H 1083.86 -7.30832 1.93443 0
M  V30 11546 H 1085.13 -7.75062 0.830578 0
M  V30 11547 N 1089.36 -0.901303 -1.29284 0
M  V30 11548 C 1090.29 -0.337552 -2.26701 0
M  V30 11549 C 1091.3 0.517039 -1.54371 0
M  V30 11550 O 1092.49 0.333937 -1.75349 0
M  V30 11551 C 1089.59 0.537214 -3.34615 0
M  V30 11552 C 1088.77 -0.292017 -4.36424 0
M  V30 11553 C 1087.83 0.515837 -5.23666 0
M  V30 11554 O 1086.85 -0.0672303 -5.6916 0
M  V30 11555 N 1088.05 1.82159 -5.51179 0
M  V30 11556 H 1090.82 -1.17484 -2.75713 0
M  V30 11557 H 1088.38 -0.765957 -1.42635 0
M  V30 11558 H 1090.37 1.0841 -3.8991 0
M  V30 11559 H 1088.94 1.2752 -2.85408 0
M  V30 11560 H 1088.16 -1.02031 -3.80767 0
M  V30 11561 H 1089.45 -0.859855 -5.01482 0
M  V30 11562 H 1088.85 2.318 -5.16028 0
M  V30 11563 H 1087.4 2.31556 -6.09282 0
M  V30 11564 N 1090.84 1.42931 -0.663954 0
M  V30 11565 C 1092.07 2.05729 -0.189532 0
M  V30 11566 C 1092.48 1.49914 1.15423 0
M  V30 11567 O 1091.82 0.629324 1.72584 0
M  V30 11568 C 1091.88 3.59482 -0.0354748 0
M  V30 11569 C 1091.54 4.37935 -1.30622 0
M  V30 11570 C 1092.54 4.69297 -2.23733 0
M  V30 11571 C 1090.23 4.77761 -1.5508 0
M  V30 11572 C 1092.22 5.39407 -3.39586 0
M  V30 11573 C 1089.91 5.47613 -2.71224 0
M  V30 11574 C 1090.91 5.7836 -3.63302 0
M  V30 11575 O 1090.59 6.46783 -4.77417 0
M  V30 11576 H 1090.33 0.669678 -0.0922342 0
M  V30 11577 H 1092.88 1.84243 -0.907943 0
M  V30 11578 H 1091.11 3.79584 0.738412 0
M  V30 11579 H 1092.8 4.03947 0.397679 0
M  V30 11580 H 1093.56 4.39038 -2.06084 0
M  V30 11581 H 1089.44 4.53229 -0.842863 0
M  V30 11582 H 1092.99 5.63323 -4.11476 0
M  V30 11583 H 1088.88 5.77289 -2.88804 0
M  V30 11584 H 1089.65 6.6527 -4.76821 0
M  V30 11585 N 1092.32 0.406567 1.52266 0
M  V30 11586 C 1093.56 -0.169717 2.01386 0
M  V30 11587 C 1093.88 -1.45864 1.29417 0
M  V30 11588 O 1093.15 -1.9136 0.419327 0
M  V30 11589 H 1091.73 -0.0657075 0.744105 0
M  V30 11590 H 1094.4 0.542221 1.87206 0
M  V30 11591 H 1093.49 -0.367659 3.09927 0
M  V30 11592 N 1093.79 -1.57004 0.136909 0
M  V30 11593 C 1095.03 -1.97686 -0.519583 0
M  V30 11594 C 1095.4 -1.01951 -1.62696 0
M  V30 11595 O 1096.6 -1.31639 -2.3436 0
M  V30 11596 C 1094.87 -3.42474 -1.02206 0
M  V30 11597 S 1096.43 -4.05176 -1.68457 0
M  V30 11598 H 1093.25 -0.690787 -0.168329 0
M  V30 11599 H 1095.85 -1.94187 0.226234 0
M  V30 11600 H 1094.55 -4.09887 -0.205194 0
M  V30 11601 H 1094.08 -3.49664 -1.80273 0
M  V30 11602 H 1096.1 -3.97401 -2.97131 0
M  V30 11603 N 1095.27 0.136881 -1.57004 0
M  V30 11604 C 1096.55 0.87705 -1.74835 0
M  V30 11605 C 1096.93 1.98886 -0.707639 0
M  V30 11606 O 1096.28 2.26879 0.271652 0
M  V30 11607 C 1096.49 1.41021 -3.1924 0
M  V30 11608 C 1097.84 1.86963 -3.81222 0
M  V30 11609 O 1098.86 1.5074 -3.22732 0
M  V30 11610 O 1097.72 2.53798 -4.83993 0
M  V30 11611 H 1094.81 0.415192 -0.715223 0
M  V30 11612 H 1097.36 0.122016 -1.69261 0
M  V30 11613 H 1096.13 0.611677 -3.8649 0
M  V30 11614 H 1095.75 2.22846 -3.2928 0
M  V30 11615 N 1096.75 1.52266 0.40654 0
M  V30 11616 C 1098 1.6568 1.15035 0
M  V30 11617 C 1098.31 0.394135 1.91588 0
M  V30 11618 O 1099.52 0.408113 2.68415 0
M  V30 11619 C 1097.97 2.92725 2.0938 0
M  V30 11620 C 1097.58 4.26108 1.38332 0
M  V30 11621 C 1099.33 3.15502 2.84004 0
M  V30 11622 C 1097.23 5.44275 2.3134 0
M  V30 11623 H 1096.16 0.61719 0.43312 0
M  V30 11624 H 1098.81 1.78755 0.414598 0
M  V30 11625 H 1097.2 2.73355 2.86519 0
M  V30 11626 H 1098.37 4.55971 0.665396 0
M  V30 11627 H 1096.69 4.09454 0.757384 0
M  V30 11628 H 1099.28 4.00964 3.5374 0
M  V30 11629 H 1099.63 2.29842 3.471 0
M  V30 11630 H 1100.16 3.35357 2.13964 0
M  V30 11631 H 1096.9 6.3229 1.72887 0
M  V30 11632 H 1096.42 5.18749 3.01098 0
M  V30 11633 H 1098.1 5.77457 2.91809 0
M  V30 11634 N 1098.23 -0.663929 1.42933 0
M  V30 11635 C 1099.48 -1.41973 1.43271 0
M  V30 11636 C 1099.79 -1.95518 0.0566103 0
M  V30 11637 O 1101 -2.71428 -0.0625862 0
M  V30 11638 C 1099.45 -2.56882 2.52071 0
M  V30 11639 C 1099.06 -2.0999 3.95737 0
M  V30 11640 C 1100.8 -3.34322 2.61589 0
M  V30 11641 C 1098.71 -3.22046 4.96025 0
M  V30 11642 H 1097.64 -0.5334 0.532917 0
M  V30 11643 H 1100.29 -0.717709 1.68882 0
M  V30 11644 H 1098.67 -3.29504 2.19643 0
M  V30 11645 H 1099.85 -1.44449 4.37574 0
M  V30 11646 H 1098.16 -1.45459 3.90168 0
M  V30 11647 H 1100.76 -4.17796 3.33692 0
M  V30 11648 H 1101.1 -3.8164 1.66302 0
M  V30 11649 H 1101.64 -2.68775 2.93266 0
M  V30 11650 H 1098.38 -2.79708 5.92827 0
M  V30 11651 H 1097.9 -3.86333 4.5881 0
M  V30 11652 H 1099.57 -3.87345 5.1824 0
M  V30 11653 N 1099.71 -1.29285 -0.901281 0
M  V30 11654 C 1100.64 -1.16832 -2.0217 0
M  V30 11655 C 1101.62 -0.0629265 -1.69984 0
M  V30 11656 O 1102.8 -0.242123 -1.92685 0
M  V30 11657 C 1099.93 -0.842406 -3.36929 0
M  V30 11658 C 1098.89 -1.90394 -3.8332 0
M  V30 11659 C 1098.21 -1.43138 -5.15185 0
M  V30 11660 C 1099.51 -3.31254 -4.03817 0
M  V30 11661 H 1101.21 -2.10562 -2.12847 0
M  V30 11662 H 1098.75 -1.01375 -1.0227 0
M  V30 11663 H 1100.71 -0.741999 -4.14816 0
M  V30 11664 H 1099.43 0.130598 -3.26339 0
M  V30 11665 H 1098.09 -1.99371 -3.07647 0
M  V30 11666 H 1097.74 -0.447091 -5.01009 0
M  V30 11667 H 1097.44 -2.14129 -5.47195 0
M  V30 11668 H 1098.96 -1.34444 -5.95615 0
M  V30 11669 H 1100.37 -3.25129 -4.72191 0
M  V30 11670 H 1098.77 -4.00189 -4.47178 0
M  V30 11671 H 1099.84 -3.74349 -3.08206 0
M  V30 11672 N 1101.18 1.11143 -1.11736 0
M  V30 11673 C 1102.41 1.87285 -0.891007 0
M  V30 11674 C 1102.83 1.79758 0.553971 0
M  V30 11675 O 1102.19 1.16221 1.39149 0
M  V30 11676 C 1102.24 3.33924 -1.36114 0
M  V30 11677 O 1101.34 4.08917 -0.534851 0
M  V30 11678 H 1100.69 0.581418 -0.320701 0
M  V30 11679 H 1103.22 1.40469 -1.4876 0
M  V30 11680 H 1103.23 3.84772 -1.35701 0
M  V30 11681 H 1101.9 3.38719 -2.41334 0
M  V30 11682 H 1100.48 3.67954 -0.605355 0
M  V30 11683 N 1102.66 0.908147 1.28804 0
M  V30 11684 C 1103.94 0.457561 1.90173 0
M  V30 11685 C 1104.32 -1.06333 1.82364 0
M  V30 11686 O 1103.67 -1.90892 1.25589 0
M  V30 11687 C 1103.88 0.981624 3.34911 0
M  V30 11688 C 1105.23 1.03037 4.11908 0
M  V30 11689 O 1106.25 0.929878 3.43848 0
M  V30 11690 O 1105.11 1.18257 5.33552 0
M  V30 11691 H 1102.2 0.144081 0.814352 0
M  V30 11692 H 1104.75 0.998565 1.37211 0
M  V30 11693 H 1103.52 2.02561 3.34791 0
M  V30 11694 H 1103.14 0.421122 3.95364 0
M  V30 11695 N 1104.14 -1.42577 0.671525 0
M  V30 11696 C 1105.09 -2.32591 -0.0205354 0
M  V30 11697 C 1106.08 -1.4964 -0.793993 0
M  V30 11698 O 1107.29 -1.65733 -0.702327 0
M  V30 11699 H 1103.66 -0.75157 -0.0254344 0
M  V30 11700 H 1105.63 -2.88662 0.756082 0
M  V30 11701 C 1104.38 -3.34175 -0.960316 0
M  V30 11702 H 1103.71 -3.98041 -0.374577 0
M  V30 11703 H 1105.15 -3.99752 -1.4133 0
M  V30 11704 C 1103.61 -2.66184 -2.06513 0
M  V30 11705 O 1104.14 -2.49125 -3.15119 0
M  V30 11706 N 1102.34 -2.25261 -1.83591 0
M  V30 11707 H 1101.89 -2.39336 -0.952689 0
M  V30 11708 H 1101.85 -1.80101 -2.57703 0
M  V30 11709 N 1105.62 -0.414636 -1.52048 0
M  V30 11710 C 1106.85 0.158686 -2.06291 0
M  V30 11711 C 1107.26 1.38397 -1.2842 0
M  V30 11712 O 1106.62 1.79351 -0.337539 0
M  V30 11713 C 1106.67 0.503634 -3.57975 0
M  V30 11714 O 1106.39 -0.672996 -4.329 0
M  V30 11715 C 1107.89 1.13009 -4.28653 0
M  V30 11716 H 1105.11 0.0179622 -0.67076 0
M  V30 11717 H 1107.66 -0.587177 -1.95889 0
M  V30 11718 H 1105.81 1.19939 -3.68366 0
M  V30 11719 H 1106.22 -0.383735 -5.23094 0
M  V30 11720 H 1107.7 1.32162 -5.35945 0
M  V30 11721 H 1108.18 2.10476 -3.85482 0
M  V30 11722 H 1108.78 0.474379 -4.22646 0
M  V30 11723 N 1107.1 1.56929 -0.145233 0
M  V30 11724 C 1108.34 1.96068 0.50632 0
M  V30 11725 C 1108.67 1.02999 1.64989 0
M  V30 11726 O 1107.93 0.0588581 1.95611 0
M  V30 11727 C 1108.23 3.41467 1.05522 0
M  V30 11728 C 1107.89 4.5089 0.0302827 0
M  V30 11729 C 1106.55 4.80542 -0.251475 0
M  V30 11730 C 1108.91 5.16917 -0.666783 0
M  V30 11731 C 1106.23 5.7353 -1.23614 0
M  V30 11732 C 1108.59 6.10965 -1.64025 0
M  V30 11733 C 1107.25 6.38998 -1.92973 0
M  V30 11734 H 1106.52 0.717464 0.185276 0
M  V30 11735 H 1109.17 1.90093 -0.23169 0
M  V30 11736 H 1107.47 3.44265 1.87053 0
M  V30 11737 H 1109.17 3.69077 1.5679 0
M  V30 11738 H 1105.76 4.2781 0.260069 0
M  V30 11739 H 1109.94 4.94142 -0.462297 0
M  V30 11740 H 1105.2 5.93543 -1.46687 0
M  V30 11741 H 1109.37 6.61204 -2.18591 0
M  V30 11742 H 1107 7.10855 -2.69423 0
M  V30 11743 N 1108.58 -0.128553 1.57075 0
M  V30 11744 C 1109.52 -1.15812 1.9964 0
M  V30 11745 C 1110.49 -1.41679 0.86696 0
M  V30 11746 O 1111.68 -1.53705 1.13046 0
M  V30 11747 C 1108.82 -2.48198 2.39774 0
M  V30 11748 C 1107.93 -2.29348 3.66092 0
M  V30 11749 C 1107.07 -3.54898 3.95248 0
M  V30 11750 C 1106.1 -3.31164 5.14779 0
M  V30 11751 N 1105.24 -4.48891 5.39853 0
M  V30 11752 H 1110.08 -0.788136 2.87389 0
M  V30 11753 H 1107.62 -0.377682 1.42169 0
M  V30 11754 H 1109.58 -3.25414 2.61077 0
M  V30 11755 H 1108.21 -2.83108 1.5508 0
M  V30 11756 H 1107.26 -1.43095 3.5246 0
M  V30 11757 H 1108.57 -2.07781 4.53463 0
M  V30 11758 H 1107.72 -4.40536 4.17148 0
M  V30 11759 H 1106.46 -3.79487 3.06335 0
M  V30 11760 H 1105.47 -2.43915 4.92733 0
M  V30 11761 H 1106.69 -3.07954 6.05261 0
M  V30 11762 H 1104.64 -4.73619 4.53895 0
M  V30 11763 H 1104.56 -4.30394 6.21528 0
M  V30 11764 H 1105.82 -5.35691 5.66265 0
M  V30 11765 N 1110.05 -1.5248 -0.398459 0
M  V30 11766 C 1111.46 -1.59107 -0.976817 0
M  V30 11767 C 1111.82 -0.438104 -1.91246 0
M  V30 11768 O 1110.94 0.440111 -2.11877 0
M  V30 11769 C 1111.54 -2.88373 -1.77838 0
M  V30 11770 C 1110.09 -2.97445 -2.30659 0
M  V30 11771 C 1109.24 -2.5414 -1.10942 0
M  V30 11772 H 1112.19 -1.57695 -0.178324 0
M  V30 11773 H 1112.21 -2.74327 -2.63676 0
M  V30 11774 H 1111.73 -3.72269 -1.09714 0
M  V30 11775 H 1109.83 -2.18066 -3.02123 0
M  V30 11776 H 1109.94 -4.019 -2.60794 0
M  V30 11777 H 1108.3 -2.08237 -1.46661 0
M  V30 11778 H 1109.09 -3.40421 -0.443684 0
M  V30 11779 N 1111.53 0.65634 -1.43283 0
M  V30 11780 C 1112.77 1.4281 -1.46235 0
M  V30 11781 C 1113.14 1.9182 -0.0830126 0
M  V30 11782 O 1114.34 2.68797 0.0127701 0
M  V30 11783 C 1112.61 2.58008 -2.47319 0
M  V30 11784 S 1114.17 3.46582 -2.69122 0
M  V30 11785 H 1110.98 0.487523 -0.517534 0
M  V30 11786 H 1113.59 0.762298 -1.80026 0
M  V30 11787 H 1112.29 2.20271 -3.46279 0
M  V30 11788 H 1111.82 3.29441 -2.15016 0
M  V30 11789 H 1113.84 4.54629 -1.98813 0
M  V30 11790 N 1113.01 1.29761 0.894412 0
M  V30 11791 C 1113.94 1.1115 2.00445 0
M  V30 11792 C 1114.95 0.0574655 1.62699 0
M  V30 11793 O 1116.14 0.302528 1.75918 0
M  V30 11794 C 1113.24 0.670984 3.32191 0
M  V30 11795 C 1112.42 1.80471 3.98433 0
M  V30 11796 C 1111.48 1.35431 5.08473 0
M  V30 11797 O 1110.5 2.05994 5.30618 0
M  V30 11798 N 1111.7 0.22811 5.80052 0
M  V30 11799 H 1114.47 2.06753 2.16964 0
M  V30 11800 H 1112.03 1.21772 1.06692 0
M  V30 11801 H 1114.02 0.352877 4.03159 0
M  V30 11802 H 1112.59 -0.192735 3.12005 0
M  V30 11803 H 1111.81 2.29142 3.20761 0
M  V30 11804 H 1113.1 2.56471 4.39431 0
M  V30 11805 H 1112.5 -0.360076 5.64553 0
M  V30 11806 H 1111.05 -0.0305985 6.51793 0
M  V30 11807 N 1114.49 -1.10549 1.12324 0
M  V30 11808 C 1115.4 -2.20428 0.803032 0
M  V30 11809 C 1116.41 -1.72756 -0.207674 0
M  V30 11810 O 1117.59 -2.01357 -0.0415623 0
M  V30 11811 C 1114.65 -3.45716 0.261032 0
M  V30 11812 C 1113.72 -4.08129 1.33152 0
M  V30 11813 C 1112.95 -5.27436 0.815288 0
M  V30 11814 O 1113.17 -5.69317 -0.351361 0
M  V30 11815 O 1112.11 -5.80674 1.58434 0
M  V30 11816 H 1115.93 -2.50249 1.72073 0
M  V30 11817 H 1113.52 -1.19263 0.899815 0
M  V30 11818 H 1115.4 -4.21384 -0.0364007 0
M  V30 11819 H 1114.07 -3.17525 -0.629249 0
M  V30 11820 H 1112.98 -3.3415 1.6821 0
M  V30 11821 H 1114.31 -4.4052 2.19552 0
M  V30 11822 N 1115.97 -0.914965 -1.28321 0
M  V30 11823 C 1116.91 -0.394477 -2.29231 0
M  V30 11824 C 1117.91 0.514481 -1.61398 0
M  V30 11825 O 1119.11 0.395591 -1.75599 0
M  V30 11826 H 1115.49 -0.108969 -0.744063 0
M  V30 11827 H 1117.46 -1.25862 -2.70557 0
M  V30 11828 C 1116.21 0.349134 -3.45943 0
M  V30 11829 H 1115.53 -0.341087 -3.98342 0
M  V30 11830 H 1116.97 0.677944 -4.18545 0
M  V30 11831 C 1115.43 1.55747 -2.98738 0
M  V30 11832 O 1115.96 2.65654 -3.01315 0
M  V30 11833 N 1114.17 1.40488 -2.54384 0
M  V30 11834 H 1113.71 0.510716 -2.52487 0
M  V30 11835 H 1113.67 2.21464 -2.23161 0
M  V30 11836 N 1117.44 1.42219 -0.679077 0
M  V30 11837 C 1118.69 2.00703 -0.200309 0
M  V30 11838 C 1119.01 1.54339 1.20161 0
M  V30 11839 O 1120.21 2.0527 1.77698 0
M  V30 11840 C 1118.67 3.58586 -0.307248 0
M  V30 11841 C 1118.28 4.13937 -1.71349 0
M  V30 11842 C 1120.02 4.24351 0.112588 0
M  V30 11843 C 1117.93 5.64198 -1.77297 0
M  V30 11844 H 1116.86 0.750638 -0.0711279 0
M  V30 11845 H 1119.51 1.62893 -0.844881 0
M  V30 11846 H 1117.89 3.93921 0.40529 0
M  V30 11847 H 1119.06 3.90054 -2.45346 0
M  V30 11848 H 1117.38 3.60639 -2.08155 0
M  V30 11849 H 1119.98 5.34627 0.0883578 0
M  V30 11850 H 1120.32 4.00142 1.14857 0
M  V30 11851 H 1120.85 3.93992 -0.549093 0
M  V30 11852 H 1117.59 5.93211 -2.78892 0
M  V30 11853 H 1117.11 5.90058 -1.07662 0
M  V30 11854 H 1118.79 6.2869 -1.52835 0
M  V30 11855 N 1118.92 0.422693 1.51826 0
M  V30 11856 C 1120.17 -0.141187 2.02909 0
M  V30 11857 C 1120.52 -1.41649 1.30205 0
M  V30 11858 O 1119.82 -1.87297 0.403769 0
M  V30 11859 C 1120.01 -0.429516 3.5481 0
M  V30 11860 C 1119.84 0.816291 4.42229 0
M  V30 11861 C 1118.61 1.34551 4.87057 0
M  V30 11862 C 1120.81 1.69829 4.85451 0
M  V30 11863 N 1118.79 2.54538 5.58644 0
M  V30 11864 C 1120.16 2.74431 5.55956 0
M  V30 11865 C 1122.21 1.71445 4.67452 0
M  V30 11866 C 1120.92 3.80576 6.10372 0
M  V30 11867 C 1122.94 2.76516 5.22774 0
M  V30 11868 C 1122.31 3.79839 5.93213 0
M  V30 11869 H 1118.4 -0.0128783 0.781894 0
M  V30 11870 H 1120.99 0.580083 1.85858 0
M  V30 11871 H 1119.16 -1.11982 3.71907 0
M  V30 11872 H 1120.89 -0.983467 3.92568 0
M  V30 11873 H 1117.65 0.901554 4.6494 0
M  V30 11874 H 1118.07 3.15342 5.99073 0
M  V30 11875 H 1122.71 0.92899 4.12468 0
M  V30 11876 H 1120.43 4.59969 6.6442 0
M  V30 11877 H 1124.02 2.7869 5.10708 0
M  V30 11878 H 1122.9 4.59806 6.35254 0
M  V30 11879 N 1120.4 -1.5685 0.153553 0
M  V30 11880 C 1121.36 -2.15894 -0.769564 0
M  V30 11881 C 1122.36 -1.10239 -1.17064 0
M  V30 11882 O 1123.55 -1.35845 -1.09049 0
M  V30 11883 C 1120.68 -2.72738 -2.04516 0
M  V30 11884 H 1121.88 -2.98807 -0.255842 0
M  V30 11885 H 1119.43 -1.56005 -0.0959279 0
M  V30 11886 H 1120.17 -1.9351 -2.60239 0
M  V30 11887 H 1119.95 -3.50042 -1.76672 0
M  V30 11888 H 1121.44 -3.18208 -2.70432 0
M  V30 11889 N 1121.88 0.120221 -1.57141 0
M  V30 11890 C 1123.29 0.473718 -1.52408 0
M  V30 11891 C 1123.49 1.81925 -0.866354 0
M  V30 11892 O 1122.55 2.48491 -0.448173 0
M  V30 11893 C 1123.86 0.459338 -2.97171 0
M  V30 11894 C 1125.41 0.542975 -3.08254 0
M  V30 11895 C 1125.89 0.558996 -4.54576 0
M  V30 11896 N 1127.38 0.620469 -4.59026 0
M  V30 11897 C 1128.11 0.654292 -5.69655 0
M  V30 11898 N 1127.61 0.645835 -6.89783 0
M  V30 11899 N 1129.4 0.697208 -5.57759 0
M  V30 11900 H 1121.55 -0.76142 -1.98283 0
M  V30 11901 H 1123.81 -0.280736 -0.905479 0
M  V30 11902 H 1123.52 -0.461654 -3.48657 0
M  V30 11903 H 1123.39 1.28759 -3.54543 0
M  V30 11904 H 1125.78 1.45439 -2.56772 0
M  V30 11905 H 1125.86 -0.312936 -2.53879 0
M  V30 11906 H 1125.51 -0.348367 -5.06704 0
M  V30 11907 H 1125.44 1.43177 -5.06762 0
M  V30 11908 H 1127.93 0.633218 -3.72557 0
M  V30 11909 H 1128.24 0.674233 -7.69853 0
M  V30 11910 H 1126.59 0.613279 -6.92289 0
M  V30 11911 H 1129.78 0.70117 -4.62819 0
M  V30 11912 H 1129.95 0.7201 -6.43986 0
M  V30 11913 N 1123.36 1.52689 0.390367 0
M  V30 11914 C 1124.27 1.8029 1.50108 0
M  V30 11915 C 1125.28 0.689582 1.59752 0
M  V30 11916 O 1126.46 0.977024 1.76114 0
M  V30 11917 C 1123.52 1.96475 2.85654 0
M  V30 11918 C 1122.58 3.2039 2.85743 0
M  V30 11919 C 1121.82 3.35793 4.14824 0
M  V30 11920 O 1122.04 2.56033 5.09709 0
M  V30 11921 O 1120.97 4.2904 4.22147 0
M  V30 11922 H 1124.8 2.74605 1.29715 0
M  V30 11923 H 1122.39 1.37763 0.578074 0
M  V30 11924 H 1124.27 2.08835 3.66013 0
M  V30 11925 H 1122.94 1.05351 3.06077 0
M  V30 11926 H 1121.85 3.13473 2.0417 0
M  V30 11927 H 1123.18 4.11356 2.70272 0
M  V30 11928 N 1124.83 -0.648732 1.43629 0
M  V30 11929 C 1125.76 -1.77298 1.51947 0
M  V30 11930 C 1126.75 -1.65942 0.373785 0
M  V30 11931 O 1127.93 -1.8497 0.591596 0
M  V30 11932 C 1125.06 -3.15749 1.44638 0
M  V30 11933 C 1124.01 -3.41872 2.57502 0
M  V30 11934 C 1123.34 -4.8017 2.35246 0
M  V30 11935 C 1124.64 -3.36173 3.99731 0
M  V30 11936 H 1126.33 -1.70594 2.46045 0
M  V30 11937 H 1123.88 -0.819306 1.1842 0
M  V30 11938 H 1125.83 -3.94156 1.4906 0
M  V30 11939 H 1124.56 -3.23194 0.470466 0
M  V30 11940 H 1123.22 -2.65838 2.5244 0
M  V30 11941 H 1122.86 -4.84297 1.35887 0
M  V30 11942 H 1122.56 -4.9861 3.10906 0
M  V30 11943 H 1124.09 -5.6083 2.41459 0
M  V30 11944 H 1125.5 -4.0451 4.06257 0
M  V30 11945 H 1123.9 -3.66148 4.75453 0
M  V30 11946 H 1124.97 -2.34277 4.24549 0
M  V30 11947 N 1126.31 -1.30234 -0.887518 0
M  V30 11948 C 1127.59 -1.09572 -1.62029 0
M  V30 11949 C 1127.97 0.355877 -2.08079 0
M  V30 11950 O 1127.32 1.34692 -1.84582 0
M  V30 11951 C 1127.53 -2.0943 -2.79177 0
M  V30 11952 C 1128.88 -2.4101 -3.4957 0
M  V30 11953 O 1129.9 -2.0772 -2.89363 0
M  V30 11954 O 1128.76 -2.97943 -4.5814 0
M  V30 11955 H 1125.85 -0.420648 -0.712028 0
M  V30 11956 H 1128.4 -1.41651 -0.934517 0
M  V30 11957 H 1127.17 -3.07149 -2.42436 0
M  V30 11958 H 1126.79 -1.78154 -3.55453 0
M  V30 11959 N 1127.79 1.09952 -1.12909 0
M  V30 11960 C 1129.04 1.82016 -0.887482 0
M  V30 11961 C 1129.37 1.85445 0.586546 0
M  V30 11962 O 1128.62 1.31446 1.44984 0
M  V30 11963 C 1128.92 3.28252 -1.41369 0
M  V30 11964 C 1128.59 3.44965 -2.90362 0
M  V30 11965 C 1127.25 3.49233 -3.31043 0
M  V30 11966 C 1129.6 3.49947 -3.86247 0
M  V30 11967 C 1126.93 3.56057 -4.66305 0
M  V30 11968 C 1129.28 3.58305 -5.21345 0
M  V30 11969 C 1127.94 3.6084 -5.61561 0
M  V30 11970 H 1127.21 0.666046 -0.324753 0
M  V30 11971 H 1129.86 1.29568 -1.41012 0
M  V30 11972 H 1128.17 3.83301 -0.81163 0
M  V30 11973 H 1129.86 3.82533 -1.20289 0
M  V30 11974 H 1126.45 3.42323 -2.57901 0
M  V30 11975 H 1130.64 3.45895 -3.55908 0
M  V30 11976 H 1125.89 3.56305 -4.96847 0
M  V30 11977 H 1130.07 3.61104 -5.95463 0
M  V30 11978 H 1127.69 3.6588 -6.6636 0
M  V30 11979 N 1129.27 0.921757 1.27833 0
M  V30 11980 C 1130.52 0.55493 1.93916 0
M  V30 11981 C 1130.83 -0.907191 1.7329 0
M  V30 11982 O 1132.04 -1.38253 2.33663 0
M  V30 11983 C 1130.49 0.941644 3.47363 0
M  V30 11984 C 1130.1 2.42404 3.76755 0
M  V30 11985 C 1131.84 0.645785 4.19559 0
M  V30 11986 C 1129.75 2.75046 5.23549 0
M  V30 11987 H 1128.68 0.203818 0.72593 0
M  V30 11988 H 1131.33 1.12176 1.4522 0
M  V30 11989 H 1129.71 0.303519 3.94835 0
M  V30 11990 H 1130.89 3.10957 3.40062 0
M  V30 11991 H 1129.2 2.69118 3.17749 0
M  V30 11992 H 1131.8 0.866237 5.27637 0
M  V30 11993 H 1132.14 -0.41676 4.14209 0
M  V30 11994 H 1132.68 1.24274 3.7789 0
M  V30 11995 H 1129.42 3.80186 5.33984 0
M  V30 11996 H 1128.94 2.11138 5.6141 0
M  V30 11997 H 1130.61 2.62474 5.91368 0
M  V30 11998 N 1130.75 -1.41857 0.686609 0
M  V30 11999 C 1132.16 -1.55549 0.357288 0
M  V30 12000 C 1132.36 -1.66394 -1.13646 0
M  V30 12001 O 1131.42 -1.63739 -1.92213 0
M  V30 12002 C 1132.73 -2.79938 1.09796 0
M  V30 12003 C 1134.28 -2.93724 1.08143 0
M  V30 12004 C 1134.75 -4.20989 1.80367 0
M  V30 12005 N 1136.25 -4.27927 1.77293 0
M  V30 12006 C 1136.98 -5.2524 2.30022 0
M  V30 12007 N 1136.48 -6.28636 2.91185 0
M  V30 12008 N 1138.27 -5.17118 2.20329 0
M  V30 12009 H 1130.42 -1.33063 1.65554 0
M  V30 12010 H 1132.68 -0.641335 0.698135 0
M  V30 12011 H 1132.39 -2.78104 2.15293 0
M  V30 12012 H 1132.26 -3.71188 0.670763 0
M  V30 12013 H 1134.65 -2.9508 0.0347554 0
M  V30 12014 H 1134.73 -2.03673 1.54761 0
M  V30 12015 H 1134.38 -4.20395 2.85009 0
M  V30 12016 H 1134.31 -5.09997 1.3119 0
M  V30 12017 H 1136.8 -3.53838 1.32692 0
M  V30 12018 H 1137.11 -6.99265 3.29011 0
M  V30 12019 H 1135.45 -6.29164 2.95259 0
M  V30 12020 H 1138.65 -4.35265 1.72226 0
M  V30 12021 H 1138.82 -5.92792 2.61728 0
M  V30 12022 N 1132.22 -0.430739 -1.51599 0
M  V30 12023 C 1133.47 0.138133 -2.02329 0
M  V30 12024 C 1133.8 1.42934 -1.31466 0
M  V30 12025 O 1133.08 1.89743 -0.427551 0
M  V30 12026 C 1133.36 0.363677 -3.58259 0
M  V30 12027 C 1133.21 -0.94572 -4.39746 0
M  V30 12028 C 1134.53 1.13637 -4.25176 0
M  V30 12029 H 1131.65 0.0487287 -0.735387 0
M  V30 12030 H 1134.29 -0.568444 -1.81297 0
M  V30 12031 H 1132.44 0.965552 -3.7631 0
M  V30 12032 H 1134.12 -1.58107 -4.33359 0
M  V30 12033 H 1132.36 -1.55183 -4.05094 0
M  V30 12034 H 1133.03 -0.742031 -5.4699 0
M  V30 12035 H 1135.51 0.626608 -4.11355 0
M  V30 12036 H 1134.38 1.26294 -5.34173 0
M  V30 12037 H 1134.64 2.16273 -3.85588 0
M  V30 12038 N 1133.7 1.56767 -0.161869 0
M  V30 12039 C 1134.65 2.17502 0.772102 0
M  V30 12040 C 1135.62 1.11223 1.23364 0
M  V30 12041 O 1136.8 1.39332 1.30351 0
M  V30 12042 C 1133.94 2.81248 1.99984 0
M  V30 12043 C 1133.06 4.01962 1.58274 0
M  V30 12044 C 1132.19 4.53662 2.76341 0
M  V30 12045 C 1131.23 5.66807 2.31076 0
M  V30 12046 N 1130.37 6.13059 3.42203 0
M  V30 12047 H 1135.21 2.96971 0.247382 0
M  V30 12048 H 1132.75 1.46685 0.110382 0
M  V30 12049 H 1134.7 3.16359 2.7198 0
M  V30 12050 H 1133.33 2.04398 2.49842 0
M  V30 12051 H 1132.39 3.72733 0.759874 0
M  V30 12052 H 1133.7 4.83891 1.2104 0
M  V30 12053 H 1132.85 4.90905 3.56507 0
M  V30 12054 H 1131.59 3.7077 3.16829 0
M  V30 12055 H 1130.6 5.29125 1.49354 0
M  V30 12056 H 1131.82 6.51494 1.91657 0
M  V30 12057 H 1129.77 5.33099 3.82285 0
M  V30 12058 H 1129.68 6.89953 3.09033 0
M  V30 12059 H 1130.95 6.54951 4.22682 0
M  V30 12060 N 1135.18 -0.111886 1.57202 0
M  V30 12061 C 1136.43 -0.816794 1.84859 0
M  V30 12062 C 1136.75 -1.80079 0.748113 0
M  V30 12063 O 1136.02 -1.94578 -0.227235 0
M  V30 12064 H 1134.6 -0.304633 0.682061 0
M  V30 12065 H 1137.26 -0.097513 1.94656 0
M  V30 12066 H 1136.36 -1.35768 2.81022 0
M  V30 12067 N 1136.66 -1.52894 -0.382264 0
M  V30 12068 C 1138.07 -1.42295 -0.722802 0
M  V30 12069 C 1138.27 -0.548717 -1.93885 0
M  V30 12070 O 1137.33 -0.0247431 -2.52488 0
M  V30 12071 C 1138.64 -2.85246 -0.9516 0
M  V30 12072 C 1140.19 -2.94768 -1.05265 0
M  V30 12073 C 1140.67 -4.38745 -1.31404 0
M  V30 12074 N 1142.16 -4.421 -1.38211 0
M  V30 12075 C 1142.89 -5.50592 -1.60113 0
M  V30 12076 N 1142.39 -6.69158 -1.79442 0
M  V30 12077 N 1144.18 -5.38145 -1.62347 0
M  V30 12078 H 1136.33 -2.0825 0.417816 0
M  V30 12079 H 1138.6 -0.939753 0.124776 0
M  V30 12080 H 1138.3 -3.51459 -0.130088 0
M  V30 12081 H 1138.18 -3.27903 -1.86439 0
M  V30 12082 H 1140.56 -2.28718 -1.86472 0
M  V30 12083 H 1140.64 -2.55529 -0.117619 0
M  V30 12084 H 1140.29 -5.05363 -0.507038 0
M  V30 12085 H 1140.22 -4.75542 -2.26202 0
M  V30 12086 H 1142.71 -3.56644 -1.24954 0
M  V30 12087 H 1143.02 -7.47615 -1.95681 0
M  V30 12088 H 1141.37 -6.72175 -1.76653 0
M  V30 12089 H 1144.56 -4.44485 -1.46803 0
M  V30 12090 H 1144.73 -6.22764 -1.79077 0
M  V30 12091 N 1138.14 0.641106 -1.43971 0
M  V30 12092 C 1139.09 1.77474 -1.50352 0
M  V30 12093 C 1140.08 1.65173 -0.376052 0
M  V30 12094 O 1141.29 1.71373 -0.550572 0
M  V30 12095 H 1137.66 0.585747 -0.471597 0
M  V30 12096 H 1139.63 1.69213 -2.45784 0
M  V30 12097 C 1138.38 3.15778 -1.45532 0
M  V30 12098 H 1137.7 3.25886 -2.316 0
M  V30 12099 H 1139.14 3.95022 -1.54058 0
M  V30 12100 C 1137.6 3.36447 -0.174624 0
M  V30 12101 O 1138.13 3.9446 0.759215 0
M  V30 12102 N 1136.34 2.90487 -0.0809383 0
M  V30 12103 H 1135.89 2.43461 -0.841691 0
M  V30 12104 H 1135.84 3.04693 0.775231 0
M  V30 12105 N 1139.62 1.30703 0.880598 0
M  V30 12106 C 1140.53 1.19389 2.01949 0
M  V30 12107 C 1141.54 0.112868 1.73634 0
M  V30 12108 O 1142.72 0.328643 1.98701 0
M  V30 12109 C 1139.78 0.891004 3.35055 0
M  V30 12110 C 1138.84 2.05784 3.76764 0
M  V30 12111 C 1138.08 1.76931 5.03519 0
M  V30 12112 O 1138.3 0.699326 5.66097 0
M  V30 12113 O 1137.23 2.623 5.4174 0
M  V30 12114 H 1141.06 2.15073 2.14423 0
M  V30 12115 H 1138.64 1.10339 1.00726 0
M  V30 12116 H 1140.53 0.737476 4.14897 0
M  V30 12117 H 1139.2 -0.0358909 3.2368 0
M  V30 12118 H 1138.11 2.26672 2.97608 0
M  V30 12119 H 1139.44 2.96661 3.9275 0
M  V30 12120 N 1141.09 -1.09351 1.1349 0
M  V30 12121 C 1142.5 -1.63035 0.909746 0
M  V30 12122 C 1142.86 -1.88229 -0.553573 0
M  V30 12123 O 1141.98 -1.63256 -1.42044 0
M  V30 12124 C 1142.58 -2.96186 1.64497 0
M  V30 12125 C 1141.13 -3.46692 1.46566 0
M  V30 12126 C 1140.28 -2.21095 1.67369 0
M  V30 12127 H 1143.23 -0.92704 1.28809 0
M  V30 12128 H 1143.25 -3.64177 1.10251 0
M  V30 12129 H 1142.77 -2.77818 2.70996 0
M  V30 12130 H 1140.87 -3.70183 0.423728 0
M  V30 12131 H 1140.98 -4.24078 2.22923 0
M  V30 12132 H 1139.34 -2.29789 1.0986 0
M  V30 12133 H 1140.13 -2.05245 2.7519 0
M  V30 12134 N 1142.57 -0.928524 -1.27343 0
M  V30 12135 C 1143.82 -0.570235 -1.94618 0
M  V30 12136 C 1144.15 0.886381 -1.72792 0
M  V30 12137 O 1143.43 1.63242 -1.05747 0
M  V30 12138 C 1143.71 -0.897964 -3.48724 0
M  V30 12139 C 1143.56 -2.40839 -3.7989 0
M  V30 12140 C 1144.88 -0.404429 -4.38238 0
M  V30 12141 H 1142 -0.208645 -0.70685 0
M  V30 12142 H 1144.64 -1.16045 -1.50444 0
M  V30 12143 H 1142.79 -0.395679 -3.8648 0
M  V30 12144 H 1144.46 -2.98243 -3.51921 0
M  V30 12145 H 1142.71 -2.85723 -3.26412 0
M  V30 12146 H 1143.38 -2.58823 -4.8756 0
M  V30 12147 H 1145.85 -0.834918 -4.07637 0
M  V30 12148 H 1144.73 -0.662684 -5.44885 0
M  V30 12149 H 1144.99 0.695507 -4.36595 0
M  V30 12150 N 1144.05 1.41491 -0.694123 0
M  V30 12151 C 1145.27 2.06099 -0.23197 0
M  V30 12152 C 1145.7 1.51888 1.10958 0
M  V30 12153 O 1145.06 0.645247 1.69429 0
M  V30 12154 C 1145.11 3.60053 -0.198522 0
M  V30 12155 O 1144.21 4.04021 0.827067 0
M  V30 12156 H 1143.55 0.654193 -0.113699 0
M  V30 12157 H 1146.08 1.81282 -0.948575 0
M  V30 12158 H 1146.09 4.0799 -0.0288904 0
M  V30 12159 H 1144.77 3.98879 -1.17764 0
M  V30 12160 H 1143.34 3.67593 0.626908 0
M  V30 12161 N 1145.53 0.438773 1.51369 0
M  V30 12162 C 1146.78 -0.128723 2.01289 0
M  V30 12163 C 1147.09 -1.43659 1.32745 0
M  V30 12164 O 1148.3 -2.08712 1.73642 0
M  V30 12165 C 1146.75 -0.279945 3.5881 0
M  V30 12166 C 1146.36 1.01758 4.3629 0
M  V30 12167 C 1148.1 -0.801133 4.16872 0
M  V30 12168 C 1146.01 0.831918 5.85519 0
M  V30 12169 H 1144.94 -0.0518814 0.752213 0
M  V30 12170 H 1147.59 0.568753 1.74463 0
M  V30 12171 H 1145.97 -1.04046 3.82087 0
M  V30 12172 H 1147.15 1.78653 4.24758 0
M  V30 12173 H 1145.46 1.46741 3.89687 0
M  V30 12174 H 1148.06 -0.956548 5.26074 0
M  V30 12175 H 1148.4 -1.78396 3.76139 0
M  V30 12176 H 1148.94 -0.0988934 3.97677 0
M  V30 12177 H 1145.67 1.78716 6.30667 0
M  V30 12178 H 1145.19 0.102785 5.99712 0
M  V30 12179 H 1146.87 0.485681 6.45174 0
M  V30 12180 N 1147.01 -1.56678 0.170181 0
M  V30 12181 C 1148.24 -2.00931 -0.480664 0
M  V30 12182 C 1148.64 -1.04947 -1.57425 0
M  V30 12183 O 1147.99 -0.042229 -1.83651 0
M  V30 12184 C 1148.05 -3.4161 -1.11996 0
M  V30 12185 C 1147.71 -4.5669 -0.168167 0
M  V30 12186 C 1148.71 -5.16273 0.613059 0
M  V30 12187 C 1146.39 -5.02259 -0.0643243 0
M  V30 12188 C 1148.39 -6.19852 1.48534 0
M  V30 12189 C 1146.08 -6.05687 0.811542 0
M  V30 12190 C 1147.07 -6.64355 1.58496 0
M  V30 12191 O 1146.76 -7.65778 2.44619 0
M  V30 12192 H 1146.49 -0.66386 -0.12754 0
M  V30 12193 H 1149.05 -2.03635 0.2687 0
M  V30 12194 H 1147.28 -3.35815 -1.91743 0
M  V30 12195 H 1148.97 -3.69823 -1.67289 0
M  V30 12196 H 1149.73 -4.81951 0.542999 0
M  V30 12197 H 1145.61 -4.56307 -0.656102 0
M  V30 12198 H 1149.16 -6.65572 2.08948 0
M  V30 12199 H 1145.05 -6.39435 0.88281 0
M  V30 12200 H 1145.82 -7.83096 2.38122 0
M  V30 12201 N 1148.48 0.103547 -1.57259 0
M  V30 12202 C 1149.39 1.14475 -2.04774 0
M  V30 12203 C 1150.41 1.44385 -0.971025 0
M  V30 12204 O 1151.59 1.55195 -1.28361 0
M  V30 12205 C 1148.65 2.4475 -2.45558 0
M  V30 12206 C 1147.71 2.22098 -3.67384 0
M  V30 12207 C 1146.94 3.4616 -4.06213 0
M  V30 12208 O 1147.17 4.5407 -3.45219 0
M  V30 12209 O 1146.1 3.36248 -4.9922 0
M  V30 12210 H 1149.93 0.771211 -2.93745 0
M  V30 12211 H 1147.51 0.315456 -1.46032 0
M  V30 12212 H 1149.39 3.21476 -2.72454 0
M  V30 12213 H 1148.07 2.81547 -1.59728 0
M  V30 12214 H 1146.98 1.43179 -3.45616 0
M  V30 12215 H 1148.31 1.90197 -4.53967 0
M  V30 12216 N 1149.96 1.53094 0.37415 0
M  V30 12217 C 1150.89 1.81901 1.46404 0
M  V30 12218 C 1151.87 0.671949 1.56265 0
M  V30 12219 O 1153.06 0.920978 1.70973 0
M  V30 12220 C 1150.19 2.00123 2.83845 0
M  V30 12221 C 1149.14 3.15864 2.88814 0
M  V30 12222 C 1148.47 3.19364 4.28848 0
M  V30 12223 C 1149.77 4.54633 2.57112 0
M  V30 12224 H 1151.46 2.73172 1.22546 0
M  V30 12225 H 1149.01 1.31444 0.588087 0
M  V30 12226 H 1150.96 2.18859 3.6011 0
M  V30 12227 H 1149.68 1.05555 3.09072 0
M  V30 12228 H 1148.34 2.96935 2.15 0
M  V30 12229 H 1147.99 2.2245 4.51137 0
M  V30 12230 H 1147.69 3.97123 4.3309 0
M  V30 12231 H 1149.22 3.40273 5.06997 0
M  V30 12232 H 1150.63 4.73587 3.23091 0
M  V30 12233 H 1149.03 5.34569 2.72683 0
M  V30 12234 H 1150.1 4.60331 1.52392 0
M  V30 12235 N 1151.44 -0.633461 1.44309 0
M  V30 12236 C 1152.69 -1.38902 1.4625 0
M  V30 12237 C 1153 -1.95354 0.0980699 0
M  V30 12238 O 1154.21 -2.715 -0.0049983 0
M  V30 12239 C 1152.66 -2.51477 2.57463 0
M  V30 12240 C 1152.27 -2.01549 4.00103 0
M  V30 12241 C 1154.02 -3.28698 2.68622 0
M  V30 12242 C 1151.92 -3.11452 5.02744 0
M  V30 12243 H 1150.85 -0.521976 0.544112 0
M  V30 12244 H 1153.5 -0.681725 1.70367 0
M  V30 12245 H 1151.89 -3.24771 2.26582 0
M  V30 12246 H 1153.06 -1.35135 4.4054 0
M  V30 12247 H 1151.37 -1.3715 3.93165 0
M  V30 12248 H 1153.97 -4.10624 3.42479 0
M  V30 12249 H 1154.31 -3.78027 1.7436 0
M  V30 12250 H 1154.85 -2.62494 2.98901 0
M  V30 12251 H 1151.59 -2.6707 5.98627 0
M  V30 12252 H 1151.11 -3.76514 4.66902 0
M  V30 12253 H 1152.79 -3.76265 5.2634 0
M  V30 12254 N 1152.92 -1.31168 -0.873655 0
M  V30 12255 C 1154.17 -1.20404 -1.62319 0
M  V30 12256 C 1154.49 0.238829 -1.93532 0
M  V30 12257 O 1153.76 1.15854 -1.57971 0
M  V30 12258 H 1152.34 -0.442632 -0.601736 0
M  V30 12259 H 1155 -1.64445 -1.04613 0
M  V30 12260 H 1154.1 -1.77309 -2.56842 0
M  V30 12261 N 1154.4 1.08748 -1.14068 0
M  V30 12262 C 1155.33 2.17591 -0.84714 0
M  V30 12263 C 1156.31 1.68962 0.196415 0
M  V30 12264 O 1157.49 1.94125 0.0538415 0
M  V30 12265 C 1154.62 3.45823 -0.320005 0
M  V30 12266 C 1153.58 4.07824 -1.2986 0
M  V30 12267 C 1152.9 5.30965 -0.630925 0
M  V30 12268 C 1154.2 4.49512 -2.65963 0
M  V30 12269 H 1155.9 2.42404 -1.75729 0
M  V30 12270 H 1153.44 1.16502 -0.846356 0
M  V30 12271 H 1155.4 4.21276 -0.102271 0
M  V30 12272 H 1154.12 3.20553 0.625561 0
M  V30 12273 H 1152.78 3.34398 -1.50245 0
M  V30 12274 H 1152.43 5.01979 0.320337 0
M  V30 12275 H 1152.13 5.73402 -1.28388 0
M  V30 12276 H 1153.65 6.09136 -0.422635 0
M  V30 12277 H 1155.06 5.16159 -2.49506 0
M  V30 12278 H 1153.46 5.02857 -3.27498 0
M  V30 12279 H 1154.53 3.6157 -3.23102 0
M  V30 12280 N 1155.87 0.935264 1.26849 0
M  V30 12281 C 1157.29 0.636661 1.46352 0
M  V30 12282 C 1157.49 -0.811823 1.84423 0
M  V30 12283 O 1156.55 -1.58902 1.9623 0
M  V30 12284 C 1157.86 1.59301 2.55036 0
M  V30 12285 C 1159.41 1.60207 2.68892 0
M  V30 12286 C 1159.88 2.54558 3.80742 0
M  V30 12287 N 1161.37 2.52809 3.88126 0
M  V30 12288 C 1162.11 3.225 4.74111 0
M  V30 12289 N 1161.6 4.01598 5.64527 0
M  V30 12290 N 1163.4 3.11481 4.67906 0
M  V30 12291 H 1155.55 1.8716 1.00423 0
M  V30 12292 H 1157.81 0.803968 0.502334 0
M  V30 12293 H 1157.52 2.62671 2.33874 0
M  V30 12294 H 1157.39 1.34052 3.52576 0
M  V30 12295 H 1159.78 0.575649 2.89431 0
M  V30 12296 H 1159.86 1.89508 1.71815 0
M  V30 12297 H 1159.5 3.57314 3.60956 0
M  V30 12298 H 1159.43 2.22549 4.77263 0
M  V30 12299 H 1161.92 1.9537 3.2348 0
M  V30 12300 H 1162.24 4.51742 6.27016 0
M  V30 12301 H 1160.58 4.057 5.64298 0
M  V30 12302 H 1163.77 2.49175 3.9627 0
M  V30 12303 H 1163.95 3.66064 5.34697 0
M  V30 12304 N 1157.35 -1.41121 0.701616 0
M  V30 12305 C 1158.58 -2.05973 0.242896 0
M  V30 12306 C 1159 -1.52474 -1.10151 0
M  V30 12307 O 1158.36 -0.654224 -1.69085 0
M  V30 12308 C 1158.41 -3.59943 0.217614 0
M  V30 12309 O 1157.51 -4.04454 -0.805629 0
M  V30 12310 H 1156.85 -0.653581 0.117166 0
M  V30 12311 H 1159.38 -1.80777 0.958175 0
M  V30 12312 H 1159.39 -4.07969 0.0505267 0
M  V30 12313 H 1158.07 -3.98249 1.19877 0
M  V30 12314 H 1156.65 -3.6792 -0.607404 0
M  V30 12315 N 1158.83 -0.446794 -1.51134 0
M  V30 12316 C 1160.08 0.116666 -2.02464 0
M  V30 12317 C 1160.41 1.41532 -1.32975 0
M  V30 12318 O 1159.68 1.89278 -0.447651 0
M  V30 12319 C 1159.97 0.325659 -3.58624 0
M  V30 12320 C 1159.82 -0.992307 -4.38718 0
M  V30 12321 C 1161.14 1.09121 -4.26357 0
M  V30 12322 H 1158.26 0.0409262 -0.735863 0
M  V30 12323 H 1160.9 -0.587641 -1.80684 0
M  V30 12324 H 1159.05 0.925585 -3.77313 0
M  V30 12325 H 1160.72 -1.62694 -4.31658 0
M  V30 12326 H 1158.97 -1.5947 -4.03425 0
M  V30 12327 H 1159.64 -0.800005 -5.46172 0
M  V30 12328 H 1162.11 0.582944 -4.11996 0
M  V30 12329 H 1160.99 1.20621 -5.35483 0
M  V30 12330 H 1161.25 2.12171 -3.87861 0
M  V30 12331 N 1160.31 1.56586 -0.178487 0
M  V30 12332 C 1161.72 1.83633 0.337009 0
M  V30 12333 C 1162.07 1.09857 1.6256 0
M  V30 12334 O 1161.2 0.353933 2.13486 0
M  V30 12335 C 1161.79 3.33112 0.618225 0
M  V30 12336 C 1160.35 3.60629 1.07814 0
M  V30 12337 C 1159.5 2.7705 0.117825 0
M  V30 12338 H 1162.45 1.53508 -0.402612 0
M  V30 12339 H 1162.47 3.5098 1.46947 0
M  V30 12340 H 1161.98 3.8678 -0.319808 0
M  V30 12341 H 1160.08 3.12378 2.03103 0
M  V30 12342 H 1160.19 4.68921 0.982339 0
M  V30 12343 H 1158.56 2.47125 0.616563 0
M  V30 12344 H 1159.34 3.33501 -0.814356 0
M  V30 12345 N 1161.79 -0.095206 1.57312 0
M  V30 12346 C 1163.04 -0.797417 1.85268 0
M  V30 12347 C 1163.35 -1.79903 0.767733 0
M  V30 12348 O 1164.55 -2.54914 0.934409 0
M  V30 12349 C 1163.01 -1.469 3.28555 0
M  V30 12350 C 1162.62 -0.507152 4.4512 0
M  V30 12351 C 1164.36 -2.15494 3.65735 0
M  V30 12352 C 1162.27 -1.18331 5.79441 0
M  V30 12353 H 1161.2 -0.301552 0.691074 0
M  V30 12354 H 1163.85 -0.0503584 1.83431 0
M  V30 12355 H 1162.23 -2.26351 3.24933 0
M  V30 12356 H 1163.41 0.255858 4.60089 0
M  V30 12357 H 1161.72 0.0730882 4.16336 0
M  V30 12358 H 1164.32 -2.66816 4.63371 0
M  V30 12359 H 1164.66 -2.94383 2.94354 0
M  V30 12360 H 1165.19 -1.42903 3.71246 0
M  V30 12361 H 1161.93 -0.435238 6.54053 0
M  V30 12362 H 1161.45 -1.91775 5.68315 0
M  V30 12363 H 1163.13 -1.70983 6.23998 0
M  V30 12364 N 1163.26 -1.53291 -0.366026 0
M  V30 12365 C 1164.23 -1.79025 -1.43117 0
M  V30 12366 C 1165.23 -0.660676 -1.46601 0
M  V30 12367 O 1166.42 -0.928875 -1.47369 0
M  V30 12368 C 1163.55 -1.91192 -2.82238 0
M  V30 12369 H 1164.74 -2.74154 -1.21572 0
M  V30 12370 H 1162.3 -1.44361 -0.599132 0
M  V30 12371 H 1163.03 -0.98129 -3.09097 0
M  V30 12372 H 1162.82 -2.7335 -2.81109 0
M  V30 12373 H 1164.31 -2.12696 -3.59375 0
M  V30 12374 N 1164.74 0.6258 -1.44643 0
M  V30 12375 C 1165.97 1.41726 -1.51422 0
M  V30 12376 C 1166.39 1.87565 -0.14181 0
M  V30 12377 O 1165.75 1.59059 0.870054 0
M  V30 12378 C 1165.8 2.61012 -2.48807 0
M  V30 12379 O 1164.9 3.61029 -1.99328 0
M  V30 12380 H 1164.24 0.423855 -0.511119 0
M  V30 12381 H 1166.77 0.763336 -1.89827 0
M  V30 12382 H 1166.78 3.08489 -2.67018 0
M  V30 12383 H 1165.46 2.26995 -3.48491 0
M  V30 12384 H 1164.04 3.20325 -1.90909 0
M  V30 12385 N 1166.22 1.31629 0.866686 0
M  V30 12386 C 1167.13 1.21524 2.00671 0
M  V30 12387 C 1168.15 0.131277 1.73504 0
M  V30 12388 O 1169.32 0.349699 1.98341 0
M  V30 12389 C 1166.39 0.926491 3.34091 0
M  V30 12390 C 1165.45 2.09769 3.7456 0
M  V30 12391 C 1164.68 1.82262 5.01614 0
M  V30 12392 O 1164.9 0.759329 5.65323 0
M  V30 12393 O 1163.84 2.68031 5.38928 0
M  V30 12394 H 1167.66 2.17335 2.1213 0
M  V30 12395 H 1165.25 1.11401 0.995499 0
M  V30 12396 H 1167.13 0.78144 4.14091 0
M  V30 12397 H 1165.81 -0.00155829 3.237 0
M  V30 12398 H 1164.71 2.29816 2.95187 0
M  V30 12399 H 1166.05 3.0081 3.89582 0
M  V30 12400 N 1167.7 -1.08142 1.14644 0
M  V30 12401 C 1168.65 -2.15133 0.835845 0
M  V30 12402 C 1169.62 -1.64795 -0.207785 0
M  V30 12403 O 1170.8 -1.90644 -0.07711 0
M  V30 12404 C 1167.94 -3.4359 0.322456 0
M  V30 12405 C 1167.05 -4.07761 1.42671 0
M  V30 12406 C 1166.19 -5.24022 0.870281 0
M  V30 12407 C 1165.23 -5.8014 1.95202 0
M  V30 12408 N 1164.37 -6.87743 1.41257 0
M  V30 12409 H 1169.21 -2.41042 1.75222 0
M  V30 12410 H 1166.74 -1.18288 0.874428 0
M  V30 12411 H 1168.7 -4.17199 0.00657059 0
M  V30 12412 H 1167.33 -3.17958 -0.557014 0
M  V30 12413 H 1166.38 -3.31885 1.85893 0
M  V30 12414 H 1167.69 -4.45485 2.24375 0
M  V30 12415 H 1166.85 -6.04582 0.506459 0
M  V30 12416 H 1165.59 -4.87695 0.0223118 0
M  V30 12417 H 1164.59 -4.98232 2.32476 0
M  V30 12418 H 1165.82 -6.18525 2.80363 0
M  V30 12419 H 1163.76 -6.5337 0.586826 0
M  V30 12420 H 1163.68 -7.24308 2.16596 0
M  V30 12421 H 1164.95 -7.72028 1.07674 0
M  V30 12422 N 1169.18 -0.941978 -1.26351 0
M  V30 12423 C 1170.11 -0.469913 -2.28723 0
M  V30 12424 C 1171.09 0.477218 -1.63269 0
M  V30 12425 O 1172.27 0.378902 -1.90468 0
M  V30 12426 C 1169.4 0.264971 -3.46288 0
M  V30 12427 C 1168.36 -0.595682 -4.23834 0
M  V30 12428 C 1167.68 0.269208 -5.34022 0
M  V30 12429 C 1168.98 -1.86743 -4.87775 0
M  V30 12430 H 1170.68 -1.32551 -2.6846 0
M  V30 12431 H 1168.22 -0.638809 -1.29055 0
M  V30 12432 H 1170.18 0.606259 -4.17016 0
M  V30 12433 H 1168.9 1.15471 -3.05506 0
M  V30 12434 H 1167.56 -0.919875 -3.54872 0
M  V30 12435 H 1167.21 1.15832 -4.89481 0
M  V30 12436 H 1166.91 -0.30325 -5.86817 0
M  V30 12437 H 1168.43 0.605748 -6.07588 0
M  V30 12438 H 1169.85 -1.59333 -5.50714 0
M  V30 12439 H 1168.24 -2.38452 -5.50691 0
M  V30 12440 H 1169.31 -2.57831 -4.10671 0
M  V30 12441 N 1170.66 1.40747 -0.709091 0
M  V30 12442 C 1171.59 2.29196 -0.0130359 0
M  V30 12443 C 1172.6 1.45491 0.730487 0
M  V30 12444 O 1173.79 1.6885 0.578944 0
M  V30 12445 C 1170.89 3.23632 1.00577 0
M  V30 12446 C 1170.06 4.3616 0.329105 0
M  V30 12447 C 1169.12 5.11079 1.25239 0
M  V30 12448 O 1168.15 5.64374 0.739641 0
M  V30 12449 N 1169.35 5.1982 2.58394 0
M  V30 12450 H 1172.11 2.89574 -0.772462 0
M  V30 12451 H 1169.68 1.52046 -0.556197 0
M  V30 12452 H 1171.67 3.70622 1.62546 0
M  V30 12453 H 1170.24 2.64467 1.66661 0
M  V30 12454 H 1169.46 3.9138 -0.470683 0
M  V30 12455 H 1170.75 5.08605 -0.140856 0
M  V30 12456 H 1170.14 4.77992 3.02556 0
M  V30 12457 H 1168.7 5.7034 3.15524 0
M  V30 12458 N 1172.13 0.454803 1.50895 0
M  V30 12459 C 1173.38 -0.105927 2.02523 0
M  V30 12460 C 1173.71 -1.40825 1.33724 0
M  V30 12461 O 1172.99 -1.89038 0.457683 0
M  V30 12462 C 1173.27 -0.306635 3.58792 0
M  V30 12463 C 1173.12 1.01556 4.38185 0
M  V30 12464 C 1174.44 -1.06858 4.2693 0
M  V30 12465 H 1171.56 -0.0370232 0.736069 0
M  V30 12466 H 1174.2 0.597215 1.8037 0
M  V30 12467 H 1172.35 -0.905563 3.77799 0
M  V30 12468 H 1174.03 1.64981 4.30789 0
M  V30 12469 H 1172.27 1.61608 4.02574 0
M  V30 12470 H 1172.94 0.828959 5.4574 0
M  V30 12471 H 1175.42 -0.561086 4.123 0
M  V30 12472 H 1174.29 -1.1778 5.36115 0
M  V30 12473 H 1174.55 -2.10111 3.8898 0
M  V30 12474 N 1173.61 -1.56489 0.186789 0
M  V30 12475 C 1174.86 -1.96517 -0.45433 0
M  V30 12476 C 1175.17 -1.07618 -1.63333 0
M  V30 12477 O 1176.38 -1.37392 -2.3417 0
M  V30 12478 C 1174.84 -3.49482 -0.859685 0
M  V30 12479 C 1174.44 -4.47031 0.294572 0
M  V30 12480 C 1176.19 -3.98296 -1.46835 0
M  V30 12481 C 1174.09 -5.91254 -0.131279 0
M  V30 12482 H 1173.02 -0.733765 -0.17351 0
M  V30 12483 H 1175.68 -1.8139 0.277485 0
M  V30 12484 H 1174.06 -3.60082 -1.64793 0
M  V30 12485 H 1175.23 -4.48156 1.07205 0
M  V30 12486 H 1173.55 -4.08362 0.814197 0
M  V30 12487 H 1176.14 -5.03518 -1.79928 0
M  V30 12488 H 1176.49 -3.42123 -2.37186 0
M  V30 12489 H 1177.02 -3.90776 -0.744247 0
M  V30 12490 H 1173.76 -6.51334 0.737839 0
M  V30 12491 H 1173.28 -5.93401 -0.873786 0
M  V30 12492 H 1174.96 -6.44485 -0.569913 0
M  V30 12493 N 1175.09 0.086862 -1.5736 0
M  V30 12494 C 1176 1.12297 -2.05977 0
M  V30 12495 C 1177.02 1.43347 -0.986284 0
M  V30 12496 O 1178.19 1.53825 -1.3 0
M  V30 12497 C 1175.26 2.42131 -2.4814 0
M  V30 12498 C 1174.32 2.18189 -3.69719 0
M  V30 12499 C 1173.55 3.41833 -4.09861 0
M  V30 12500 O 1173.77 4.50383 -3.50016 0
M  V30 12501 O 1172.71 3.30934 -5.02759 0
M  V30 12502 H 1176.53 0.740012 -2.94546 0
M  V30 12503 H 1174.12 0.29995 -1.46358 0
M  V30 12504 H 1176 3.18568 -2.75848 0
M  V30 12505 H 1174.68 2.79837 -1.62705 0
M  V30 12506 H 1173.58 1.39506 -3.47115 0
M  V30 12507 H 1174.92 1.85372 -4.55959 0
M  V30 12508 N 1176.57 1.53483 0.357892 0
M  V30 12509 C 1177.52 1.76843 1.43911 0
M  V30 12510 C 1178.5 0.623178 1.48342 0
M  V30 12511 O 1179.69 0.882102 1.53453 0
M  V30 12512 C 1176.82 1.96865 2.81246 0
M  V30 12513 C 1175.91 3.17414 2.81263 0
M  V30 12514 N 1176.3 4.39172 2.50921 0
M  V30 12515 C 1174.6 3.18292 3.1242 0
M  V30 12516 C 1175.3 5.20953 2.58811 0
M  V30 12517 N 1174.27 4.57338 2.93841 0
M  V30 12518 H 1178.08 2.68586 1.19327 0
M  V30 12519 H 1175.59 1.52212 0.566142 0
M  V30 12520 H 1177.59 2.11731 3.59132 0
M  V30 12521 H 1176.25 1.06355 3.06788 0
M  V30 12522 H 1177.26 4.66772 2.24376 0
M  V30 12523 H 1173.94 2.37702 3.43226 0
M  V30 12524 H 1175.33 6.28095 2.38633 0
M  V30 12525 N 1178.05 -0.61812 1.44973 0
M  V30 12526 C 1179.28 -1.40225 1.51725 0
M  V30 12527 C 1179.68 -1.88643 0.145098 0
M  V30 12528 O 1179.03 -1.62237 -0.861677 0
M  V30 12529 C 1179.09 -2.64808 2.4314 0
M  V30 12530 C 1178.75 -2.381 3.90073 0
M  V30 12531 C 1179.75 -1.99116 4.80259 0
M  V30 12532 C 1177.43 -2.51338 4.34896 0
M  V30 12533 C 1179.43 -1.73716 6.13271 0
M  V30 12534 C 1177.12 -2.25552 5.67952 0
M  V30 12535 C 1178.11 -1.86801 6.56958 0
M  V30 12536 O 1177.8 -1.6131 7.8755 0
M  V30 12537 H 1177.53 -0.436024 0.516584 0
M  V30 12538 H 1180.09 -0.761929 1.90745 0
M  V30 12539 H 1178.32 -3.31524 1.9907 0
M  V30 12540 H 1180.01 -3.26835 2.40694 0
M  V30 12541 H 1180.77 -1.88435 4.46897 0
M  V30 12542 H 1176.65 -2.80468 3.65867 0
M  V30 12543 H 1180.2 -1.43395 6.82703 0
M  V30 12544 H 1176.09 -2.35847 6.00872 0
M  V30 12545 H 1176.86 -1.75449 7.99475 0
M  V30 12546 N 1179.52 -1.32087 -0.859693 0
M  V30 12547 C 1180.47 -1.17188 -1.95578 0
M  V30 12548 C 1181.46 -0.0801302 -1.607 0
M  V30 12549 O 1182.65 -0.306118 -1.74333 0
M  V30 12550 C 1179.78 -0.891916 -3.31511 0
M  V30 12551 C 1178.86 -2.02513 -3.72625 0
M  V30 12552 N 1179.26 -3.27321 -3.85609 0
M  V30 12553 C 1177.55 -1.92717 -4.02214 0
M  V30 12554 C 1178.25 -4.01513 -4.20906 0
M  V30 12555 N 1177.23 -3.29767 -4.32151 0
M  V30 12556 H 1181.03 -2.11816 -2.03743 0
M  V30 12557 H 1178.55 -1.23794 -1.05114 0
M  V30 12558 H 1180.54 -0.766143 -4.098 0
M  V30 12559 H 1179.2 0.0460349 -3.24667 0
M  V30 12560 H 1180.21 -3.62317 -3.70063 0
M  V30 12561 H 1176.89 -1.06452 -4.03701 0
M  V30 12562 H 1178.28 -5.09116 -4.38463 0
M  V30 12563 N 1181 1.07532 -1.15215 0
M  V30 12564 C 1181.95 2.14687 -0.847243 0
M  V30 12565 C 1182.92 1.64903 0.199043 0
M  V30 12566 O 1184.1 1.90682 0.0669986 0
M  V30 12567 C 1181.24 3.43414 -0.340673 0
M  V30 12568 C 1180.36 4.06999 -1.44831 0
M  V30 12569 C 1179.49 5.23554 -0.898059 0
M  V30 12570 C 1178.53 5.79097 -1.98276 0
M  V30 12571 N 1177.67 6.86985 -1.44902 0
M  V30 12572 H 1182.51 2.4011 -1.76498 0
M  V30 12573 H 1180.04 1.17823 -0.880689 0
M  V30 12574 H 1182 4.1719 -0.0286956 0
M  V30 12575 H 1180.63 3.18249 0.540144 0
M  V30 12576 H 1179.68 3.30895 -1.87651 0
M  V30 12577 H 1181 4.44289 -2.26735 0
M  V30 12578 H 1180.15 6.04305 -0.538514 0
M  V30 12579 H 1178.89 4.87676 -0.0481752 0
M  V30 12580 H 1177.89 4.96992 -2.35115 0
M  V30 12581 H 1179.12 6.1703 -2.83639 0
M  V30 12582 H 1177.07 6.5305 -0.621468 0
M  V30 12583 H 1176.98 7.23149 -2.20434 0
M  V30 12584 H 1178.25 7.71446 -1.11767 0
M  V30 12585 N 1182.48 0.948665 1.2585 0
M  V30 12586 C 1183.73 0.59905 1.93018 0
M  V30 12587 C 1184.05 -0.865813 1.74725 0
M  V30 12588 O 1183.32 -1.61602 1.10732 0
M  V30 12589 H 1181.9 0.218565 0.71431 0
M  V30 12590 H 1184.56 1.20561 1.53137 0
M  V30 12591 H 1183.66 0.823244 3.01047 0
M  V30 12592 N 1183.96 -1.40369 0.716545 0
M  V30 12593 C 1185.37 -1.54757 0.390202 0
M  V30 12594 C 1185.57 -1.68767 -1.10091 0
M  V30 12595 O 1184.63 -1.67779 -1.88697 0
M  V30 12596 C 1185.94 -2.77546 1.15709 0
M  V30 12597 C 1187.49 -2.91364 1.14349 0
M  V30 12598 C 1187.97 -4.17068 1.89256 0
M  V30 12599 N 1189.46 -4.2407 1.8633 0
M  V30 12600 C 1190.19 -5.20243 2.41112 0
M  V30 12601 N 1189.69 -6.22318 3.04454 0
M  V30 12602 N 1191.48 -5.12328 2.31249 0
M  V30 12603 H 1183.63 -1.29521 1.68339 0
M  V30 12604 H 1185.9 -0.626382 0.711582 0
M  V30 12605 H 1185.6 -2.73474 2.21144 0
M  V30 12606 H 1185.48 -3.69682 0.749347 0
M  V30 12607 H 1187.86 -2.94939 0.0973383 0
M  V30 12608 H 1187.94 -2.00344 1.59047 0
M  V30 12609 H 1187.59 -4.14255 2.93863 0
M  V30 12610 H 1187.52 -5.07099 1.41978 0
M  V30 12611 H 1190.01 -3.50944 1.40168 0
M  V30 12612 H 1190.32 -6.92129 3.43769 0
M  V30 12613 H 1188.67 -6.22759 3.08538 0
M  V30 12614 H 1191.86 -4.31514 1.8142 0
M  V30 12615 H 1192.03 -5.87107 2.74243 0
M  V30 12616 N 1185.44 -0.462799 -1.50652 0
M  V30 12617 C 1186.35 0.341191 -2.32106 0
M  V30 12618 C 1187.36 1.00384 -1.42123 0
M  V30 12619 O 1188.54 0.993635 -1.75182 0
M  V30 12620 C 1185.6 1.41356 -3.16575 0
M  V30 12621 C 1184.66 0.768375 -4.22368 0
M  V30 12622 C 1183.9 1.78964 -5.028 0
M  V30 12623 O 1184.12 3.01515 -4.84195 0
M  V30 12624 O 1183.05 1.36606 -5.86193 0
M  V30 12625 H 1186.88 -0.324482 -3.01962 0
M  V30 12626 H 1184.47 -0.224807 -1.47699 0
M  V30 12627 H 1186.35 2.0349 -3.69012 0
M  V30 12628 H 1185.02 2.06285 -2.49456 0
M  V30 12629 H 1183.93 0.108297 -3.73943 0
M  V30 12630 H 1185.26 0.162164 -4.91933 0
M  V30 12631 N 1186.91 1.56388 -0.195085 0
M  V30 12632 C 1188.14 2.0167 0.448637 0
M  V30 12633 C 1188.55 1.07439 1.55736 0
M  V30 12634 O 1187.9 0.071441 1.83561 0
M  V30 12635 C 1187.96 3.43348 1.06547 0
M  V30 12636 C 1187.62 4.569 0.0954901 0
M  V30 12637 C 1188.62 5.15232 -0.695116 0
M  V30 12638 C 1186.3 5.02298 -0.0155889 0
M  V30 12639 C 1188.3 6.1741 -1.58377 0
M  V30 12640 C 1185.98 6.0432 -0.907799 0
M  V30 12641 C 1186.98 6.6175 -1.69045 0
M  V30 12642 O 1186.67 7.6179 -2.56771 0
M  V30 12643 H 1186.4 0.665805 0.116962 0
M  V30 12644 H 1188.96 2.03182 -0.301062 0
M  V30 12645 H 1187.19 3.38823 1.86376 0
M  V30 12646 H 1188.88 3.72438 1.61385 0
M  V30 12647 H 1189.64 4.81026 -0.619604 0
M  V30 12648 H 1185.52 4.57293 0.583424 0
M  V30 12649 H 1189.06 6.62164 -2.1951 0
M  V30 12650 H 1184.96 6.37949 -0.984427 0
M  V30 12651 H 1185.73 7.79209 -2.50551 0
M  V30 12652 N 1188.39 -0.0785156 1.57404 0
M  V30 12653 C 1189.62 -0.790893 1.90862 0
M  V30 12654 C 1190.03 -1.7198 0.788644 0
M  V30 12655 O 1189.37 -1.82027 -0.247322 0
M  V30 12656 C 1189.44 -1.64362 3.19727 0
M  V30 12657 C 1189.1 -0.884796 4.48353 0
M  V30 12658 C 1190.1 -0.207074 5.19487 0
M  V30 12659 C 1187.78 -0.853962 4.94988 0
M  V30 12660 C 1189.78 0.491329 6.35504 0
M  V30 12661 C 1187.46 -0.151783 6.10911 0
M  V30 12662 C 1188.46 0.519669 6.8102 0
M  V30 12663 O 1188.15 1.21055 7.94733 0
M  V30 12664 H 1187.88 -0.230427 0.635515 0
M  V30 12665 H 1190.43 -0.0551231 2.05326 0
M  V30 12666 H 1188.66 -2.42203 3.01454 0
M  V30 12667 H 1190.35 -2.23406 3.38887 0
M  V30 12668 H 1191.12 -0.222247 4.84491 0
M  V30 12669 H 1187 -1.36605 4.40296 0
M  V30 12670 H 1190.54 1.01598 6.90162 0
M  V30 12671 H 1186.44 -0.134514 6.4536 0
M  V30 12672 H 1187.21 1.11914 8.10813 0
M  V30 12673 N 1189.87 -1.5367 -0.349747 0
M  V30 12674 C 1190.8 -1.84208 -1.43492 0
M  V30 12675 C 1191.78 -0.696725 -1.55177 0
M  V30 12676 O 1192.97 -0.948061 -1.69486 0
M  V30 12677 C 1190.1 -2.04613 -2.80625 0
M  V30 12678 C 1189.05 -3.20419 -2.83753 0
M  V30 12679 C 1188.38 -3.26147 -4.23713 0
M  V30 12680 C 1189.68 -4.58666 -2.49846 0
M  V30 12681 H 1191.37 -2.75087 -1.18185 0
M  V30 12682 H 1188.92 -1.32363 -0.567101 0
M  V30 12683 H 1190.87 -2.2456 -3.56582 0
M  V30 12684 H 1189.59 -1.10459 -3.07354 0
M  V30 12685 H 1188.25 -3.00318 -2.10249 0
M  V30 12686 H 1187.9 -2.29599 -4.47541 0
M  V30 12687 H 1187.6 -4.03963 -4.26717 0
M  V30 12688 H 1189.12 -3.48296 -5.0152 0
M  V30 12689 H 1190.54 -4.78668 -3.15516 0
M  V30 12690 H 1188.94 -5.3884 -2.64144 0
M  V30 12691 H 1190.01 -4.62697 -1.4505 0
M  V30 12692 N 1191.35 0.610423 -1.45298 0
M  V30 12693 C 1192.28 1.73507 -1.4976 0
M  V30 12694 C 1193.29 1.58092 -0.38867 0
M  V30 12695 O 1194.48 1.66026 -0.655571 0
M  V30 12696 C 1191.58 3.11475 -1.33554 0
M  V30 12697 C 1190.76 3.53156 -2.5807 0
M  V30 12698 C 1189.81 4.70076 -2.36463 0
M  V30 12699 O 1188.84 4.77337 -3.10061 0
M  V30 12700 N 1190.04 5.63155 -1.40843 0
M  V30 12701 H 1192.81 1.70144 -2.46721 0
M  V30 12702 H 1190.37 0.79562 -1.41002 0
M  V30 12703 H 1192.36 3.87444 -1.16914 0
M  V30 12704 H 1190.93 3.09361 -0.448803 0
M  V30 12705 H 1190.15 2.67178 -2.89844 0
M  V30 12706 H 1191.44 3.77761 -3.40843 0
M  V30 12707 H 1190.84 5.60001 -0.800982 0
M  V30 12708 H 1189.39 6.38669 -1.30175 0
M  V30 12709 N 1192.83 1.32541 0.852676 0
M  V30 12710 C 1194.24 1.11575 1.14119 0
M  V30 12711 C 1194.44 -0.102469 2.01239 0
M  V30 12712 O 1193.5 -0.786786 2.39929 0
M  V30 12713 C 1194.81 2.39624 1.81661 0
M  V30 12714 C 1196.36 2.454 1.94288 0
M  V30 12715 C 1196.83 3.73375 2.65245 0
M  V30 12716 N 1198.33 3.74368 2.72769 0
M  V30 12717 C 1199.06 4.70094 3.28328 0
M  V30 12718 N 1198.56 5.76187 3.84682 0
M  V30 12719 N 1200.35 4.57588 3.26449 0
M  V30 12720 H 1192.5 2.10644 0.272544 0
M  V30 12721 H 1194.76 0.930094 0.183385 0
M  V30 12722 H 1194.47 3.28698 1.25102 0
M  V30 12723 H 1194.34 2.50734 2.81802 0
M  V30 12724 H 1196.73 1.56784 2.50005 0
M  V30 12725 H 1196.81 2.38241 0.931379 0
M  V30 12726 H 1196.46 4.62366 2.10191 0
M  V30 12727 H 1196.39 3.77806 3.66838 0
M  V30 12728 H 1198.88 2.97685 2.32791 0
M  V30 12729 H 1199.19 6.45285 4.25238 0
M  V30 12730 H 1197.53 5.79939 3.83008 0
M  V30 12731 H 1200.73 3.7387 2.81672 0
M  V30 12732 H 1200.9 5.32365 3.69448 0
M  V30 12733 N 1194.3 -1.0692 1.15784 0
M  V30 12734 C 1195.24 -2.14168 0.816375 0
M  V30 12735 C 1196.25 -1.61872 -0.17357 0
M  V30 12736 O 1197.44 -1.78429 0.0502973 0
M  V30 12737 C 1194.54 -3.38346 0.193682 0
M  V30 12738 C 1193.71 -4.19979 1.22215 0
M  V30 12739 C 1192.77 -5.2253 0.620424 0
M  V30 12740 O 1191.8 -5.54446 1.28757 0
M  V30 12741 N 1193 -5.77434 -0.595811 0
M  V30 12742 H 1195.76 -2.44062 1.73937 0
M  V30 12743 H 1193.32 -1.22865 1.05431 0
M  V30 12744 H 1195.32 -4.04092 -0.22174 0
M  V30 12745 H 1193.89 -3.06129 -0.632735 0
M  V30 12746 H 1193.11 -3.49984 1.81397 0
M  V30 12747 H 1194.39 -4.71329 1.91641 0
M  V30 12748 H 1193.79 -5.5376 -1.15611 0
M  V30 12749 H 1192.35 -6.44788 -0.953529 0
M  V30 12750 N 1195.78 -0.955326 -1.25345 0
M  V30 12751 C 1197.03 -0.610484 -1.93079 0
M  V30 12752 C 1197.36 0.852591 -1.74817 0
M  V30 12753 O 1196.61 1.6272 -1.08723 0
M  V30 12754 C 1196.91 -0.916173 -3.45458 0
M  V30 12755 C 1196.58 -2.36539 -3.83875 0
M  V30 12756 C 1195.24 -2.76152 -3.94073 0
M  V30 12757 C 1197.59 -3.30652 -4.02888 0
M  V30 12758 C 1194.92 -4.08944 -4.20692 0
M  V30 12759 C 1197.27 -4.63057 -4.31 0
M  V30 12760 C 1195.94 -5.02464 -4.39415 0
M  V30 12761 H 1195.21 -0.223392 -0.706525 0
M  V30 12762 H 1197.85 -1.20449 -1.48877 0
M  V30 12763 H 1196.16 -0.23978 -3.91066 0
M  V30 12764 H 1197.85 -0.627929 -3.96053 0
M  V30 12765 H 1194.44 -2.04819 -3.76493 0
M  V30 12766 H 1198.63 -3.01237 -3.94423 0
M  V30 12767 H 1193.88 -4.39118 -4.25423 0
M  V30 12768 H 1198.06 -5.3596 -4.44657 0
M  V30 12769 H 1195.69 -6.05386 -4.59795 0
M  V30 12770 N 1197.26 1.39987 -0.723979 0
M  V30 12771 C 1198.49 2.0556 -0.275634 0
M  V30 12772 C 1198.91 1.54207 1.07711 0
M  V30 12773 O 1198.27 0.681041 1.68022 0
M  V30 12774 C 1198.32 3.59551 -0.27485 0
M  V30 12775 O 1197.42 4.05685 0.741182 0
M  V30 12776 H 1196.76 0.651634 -0.12755 0
M  V30 12777 H 1199.29 1.79229 -0.986814 0
M  V30 12778 H 1199.3 4.07837 -0.115425 0
M  V30 12779 H 1197.98 3.96291 -1.26198 0
M  V30 12780 H 1196.55 3.6884 0.548795 0
M  V30 12781 N 1198.74 0.470782 1.50404 0
M  V30 12782 C 1199.67 -0.313458 2.31386 0
M  V30 12783 C 1200.65 -0.990623 1.38278 0
M  V30 12784 O 1201.84 -0.987854 1.67198 0
M  V30 12785 C 1198.97 -1.39599 3.18009 0
M  V30 12786 C 1197.92 -0.840443 4.19667 0
M  V30 12787 C 1197.25 -2.02124 4.95025 0
M  V30 12788 C 1198.55 0.148055 5.2209 0
M  V30 12789 H 1200.24 0.362432 2.97198 0
M  V30 12790 H 1197.79 0.175745 1.42924 0
M  V30 12791 H 1199.74 -1.9521 3.73458 0
M  V30 12792 H 1198.46 -2.10064 2.50081 0
M  V30 12793 H 1197.12 -0.306302 3.65318 0
M  V30 12794 H 1196.77 -2.71286 4.23571 0
M  V30 12795 H 1196.47 -1.65574 5.6379 0
M  V30 12796 H 1197.99 -2.58226 5.5331 0
M  V30 12797 H 1199.41 -0.318874 5.72413 0
M  V30 12798 H 1197.8 0.427811 5.98573 0
M  V30 12799 H 1198.87 1.07404 4.72855 0
M  V30 12800 N 1200.22 -1.56282 0.203376 0
M  V30 12801 C 1201.18 -2.18233 -0.700489 0
M  V30 12802 C 1202.18 -1.13908 -1.13497 0
M  V30 12803 O 1203.37 -1.39246 -1.04672 0
M  V30 12804 C 1200.5 -2.79107 -1.95735 0
M  V30 12805 H 1201.7 -2.99469 -0.160649 0
M  V30 12806 H 1199.25 -1.56232 -0.0462475 0
M  V30 12807 H 1199.98 -2.01691 -2.53951 0
M  V30 12808 H 1199.77 -3.55486 -1.65446 0
M  V30 12809 H 1201.26 -3.2665 -2.60172 0
M  V30 12810 N 1201.7 0.070167 -1.57444 0
M  V30 12811 C 1203.11 0.424991 -1.53838 0
M  V30 12812 C 1203.31 1.79076 -0.923793 0
M  V30 12813 O 1202.37 2.46939 -0.527002 0
M  V30 12814 C 1203.68 0.364562 -2.98482 0
M  V30 12815 C 1205.23 0.444631 -3.09826 0
M  V30 12816 C 1205.7 0.414093 -4.56124 0
M  V30 12817 N 1207.19 0.474119 -4.60767 0
M  V30 12818 C 1207.93 0.472729 -5.71448 0
M  V30 12819 N 1207.43 0.426059 -6.91489 0
M  V30 12820 N 1209.22 0.519408 -5.59695 0
M  V30 12821 H 1201.37 -0.824117 -1.9576 0
M  V30 12822 H 1203.63 -0.309401 -0.896089 0
M  V30 12823 H 1203.34 -0.572343 -3.47012 0
M  V30 12824 H 1203.21 1.17414 -3.5846 0
M  V30 12825 H 1205.6 1.37196 -2.61269 0
M  V30 12826 H 1205.68 -0.393547 -2.52755 0
M  V30 12827 H 1205.32 -0.509394 -5.05339 0
M  V30 12828 H 1205.25 1.26983 -5.11061 0
M  V30 12829 H 1207.75 0.514371 -3.74383 0
M  V30 12830 H 1208.06 0.428969 -7.71609 0
M  V30 12831 H 1206.4 0.392722 -6.9389 0
M  V30 12832 H 1209.59 0.553573 -4.64815 0
M  V30 12833 H 1209.77 0.514856 -6.45951 0
M  V30 12834 N 1203.17 1.53854 0.341593 0
M  V30 12835 C 1204.14 1.8128 1.40251 0
M  V30 12836 C 1205.14 0.683915 1.45531 0
M  V30 12837 O 1206.33 0.952202 1.45872 0
M  V30 12838 C 1203.46 1.95658 2.79161 0
M  V30 12839 H 1204.65 2.76053 1.17195 0
M  V30 12840 H 1202.2 1.45296 0.57609 0
M  V30 12841 H 1202.94 1.03034 3.07497 0
M  V30 12842 H 1202.72 2.77788 2.76724 0
M  V30 12843 H 1204.21 2.18387 3.55945 0
M  V30 12844 N 1204.65 -0.602709 1.4562 0
M  V30 12845 C 1205.56 -1.74132 1.5721 0
M  V30 12846 C 1206.58 -1.67909 0.456347 0
M  V30 12847 O 1207.75 -1.88178 0.717714 0
M  V30 12848 C 1204.82 -3.10604 1.54032 0
M  V30 12849 C 1203.88 -3.28244 2.76685 0
M  V30 12850 C 1203.11 -4.58205 2.73649 0
M  V30 12851 O 1203.34 -5.40836 1.81254 0
M  V30 12852 O 1202.27 -4.78663 3.64919 0
M  V30 12853 H 1206.1 -1.67304 2.53462 0
M  V30 12854 H 1203.68 -0.767381 1.28186 0
M  V30 12855 H 1205.56 -3.91904 1.54885 0
M  V30 12856 H 1204.24 -3.17913 0.60934 0
M  V30 12857 H 1203.14 -2.46514 2.81393 0
M  V30 12858 H 1204.48 -3.25814 3.68925 0
M  V30 12859 N 1206.13 -1.32992 -0.845635 0
M  V30 12860 C 1207.38 -1.24065 -1.60044 0
M  V30 12861 C 1207.7 0.195282 -1.93517 0
M  V30 12862 O 1206.96 1.1507 -1.58296 0
M  V30 12863 C 1207.26 -2.05454 -2.92444 0
M  V30 12864 C 1206.92 -3.54718 -2.78362 0
M  V30 12865 C 1205.59 -3.95413 -2.74229 0
M  V30 12866 C 1207.94 -4.49598 -2.63649 0
M  V30 12867 C 1205.27 -5.29216 -2.53274 0
M  V30 12868 C 1207.62 -5.83554 -2.44228 0
M  V30 12869 C 1206.28 -6.2344 -2.38493 0
M  V30 12870 H 1205.55 -0.453985 -0.585644 0
M  V30 12871 H 1208.2 -1.6451 -0.980244 0
M  V30 12872 H 1206.5 -1.57765 -3.58633 0
M  V30 12873 H 1208.2 -1.95909 -3.49887 0
M  V30 12874 H 1204.79 -3.22403 -2.82409 0
M  V30 12875 H 1208.98 -4.19072 -2.65881 0
M  V30 12876 H 1204.23 -5.59164 -2.47275 0
M  V30 12877 H 1208.41 -6.56681 -2.31825 0
M  V30 12878 H 1206.03 -7.27058 -2.22015 0
M  V30 12879 N 1207.61 1.06304 -1.1635 0
M  V30 12880 C 1208.57 2.11947 -0.872419 0
M  V30 12881 C 1209.57 1.60253 0.132534 0
M  V30 12882 O 1210.76 1.73922 -0.0983441 0
M  V30 12883 C 1207.89 3.39536 -0.304646 0
M  V30 12884 H 1209.09 2.39201 -1.80894 0
M  V30 12885 H 1206.64 1.22367 -0.972419 0
M  V30 12886 H 1207.37 3.17931 0.639565 0
M  V30 12887 H 1207.16 3.78363 -1.02878 0
M  V30 12888 H 1208.65 4.17431 -0.118936 0
M  V30 12889 N 1209.09 0.96196 1.24836 0
M  V30 12890 C 1210.03 0.479282 2.27609 0
M  V30 12891 C 1211.03 -0.454224 1.63197 0
M  V30 12892 O 1212.23 -0.330146 1.76946 0
M  V30 12893 H 1208.61 0.13651 0.739506 0
M  V30 12894 H 1210.58 1.35817 2.657 0
M  V30 12895 C 1209.33 -0.220499 3.47 0
M  V30 12896 H 1208.65 0.488694 3.96802 0
M  V30 12897 H 1210.09 -0.522137 4.20773 0
M  V30 12898 C 1208.55 -1.44552 3.04313 0
M  V30 12899 O 1209.08 -2.54287 3.10967 0
M  V30 12900 N 1207.29 -1.3095 2.59423 0
M  V30 12901 H 1206.83 -0.416656 2.54208 0
M  V30 12902 H 1206.79 -2.13029 2.31227 0
M  V30 12903 N 1210.56 -1.39601 0.731392 0
M  V30 12904 C 1211.81 -2.00883 0.278168 0
M  V30 12905 C 1212.14 -1.57897 -1.13059 0
M  V30 12906 O 1211.42 -0.806203 -1.77005 0
M  V30 12907 C 1211.7 -3.58132 0.375969 0
M  V30 12908 C 1211.55 -4.11147 1.82423 0
M  V30 12909 C 1212.87 -4.39425 -0.243702 0
M  V30 12910 H 1209.99 -0.729831 0.102549 0
M  V30 12911 H 1212.63 -1.65859 0.926869 0
M  V30 12912 H 1210.78 -3.881 -0.176329 0
M  V30 12913 H 1212.46 -3.91914 2.43313 0
M  V30 12914 H 1210.7 -3.64842 2.34675 0
M  V30 12915 H 1211.37 -5.20291 1.84396 0
M  V30 12916 H 1213.85 -4.1548 0.227067 0
M  V30 12917 H 1212.72 -5.48709 -0.144907 0
M  V30 12918 H 1212.98 -4.21642 -1.32929 0
M  V30 12919 N 1212.04 -0.478751 -1.50152 0
M  V30 12920 C 1212.97 0.301182 -2.31549 0
M  V30 12921 C 1213.95 0.983276 -1.38801 0
M  V30 12922 O 1215.14 0.978973 -1.67719 0
M  V30 12923 C 1212.27 1.3791 -3.18745 0
M  V30 12924 C 1211.22 0.818175 -4.20107 0
M  V30 12925 C 1210.55 1.99496 -4.9609 0
M  V30 12926 C 1211.85 -0.17574 -5.22004 0
M  V30 12927 H 1213.54 -0.378188 -2.97002 0
M  V30 12928 H 1211.09 -0.183323 -1.42828 0
M  V30 12929 H 1213.04 1.93227 -3.74488 0
M  V30 12930 H 1211.77 2.08735 -2.51192 0
M  V30 12931 H 1210.42 0.286924 -3.65475 0
M  V30 12932 H 1210.07 2.69036 -4.25004 0
M  V30 12933 H 1209.77 1.62582 -5.6466 0
M  V30 12934 H 1211.3 2.55288 -5.54671 0
M  V30 12935 H 1212.71 0.288513 -5.72574 0
M  V30 12936 H 1211.11 -0.459549 -5.98338 0
M  V30 12937 H 1212.18 -1.09911 -4.72279 0
M  V30 12938 N 1213.52 1.56172 -0.211661 0
M  V30 12939 C 1214.48 2.18602 0.688906 0
M  V30 12940 C 1215.48 1.14508 1.12892 0
M  V30 12941 O 1216.67 1.39799 1.03932 0
M  V30 12942 C 1213.81 2.80141 1.94253 0
M  V30 12943 H 1215 2.9955 0.144765 0
M  V30 12944 H 1212.55 1.56254 0.0379615 0
M  V30 12945 H 1213.29 2.03035 2.52878 0
M  V30 12946 H 1213.07 3.56358 1.63558 0
M  V30 12947 H 1214.56 3.28026 2.58436 0
M  V30 12948 N 1215 -0.0618163 1.57479 0
M  V30 12949 C 1216.24 -0.760193 1.88013 0
M  V30 12950 C 1216.58 -1.76718 0.805258 0
M  V30 12951 O 1215.85 -1.93633 -0.183408 0
M  V30 12952 C 1216.14 -1.45924 3.29208 0
M  V30 12953 C 1215.99 -0.467994 4.47359 0
M  V30 12954 C 1217.31 -2.40166 3.68793 0
M  V30 12955 H 1214.43 -0.274896 0.683814 0
M  V30 12956 H 1217.07 -0.0232433 1.89986 0
M  V30 12957 H 1215.22 -2.08741 3.27657 0
M  V30 12958 H 1216.89 0.155735 4.61037 0
M  V30 12959 H 1215.13 0.215797 4.33263 0
M  V30 12960 H 1215.8 -0.994942 5.42959 0
M  V30 12961 H 1218.28 -1.87419 3.71501 0
M  V30 12962 H 1217.16 -2.86076 4.68457 0
M  V30 12963 H 1217.42 -3.25413 2.99264 0
M  V30 12964 N 1216.48 -1.54033 -0.333429 0
M  V30 12965 C 1217.75 -1.62404 -1.09015 0
M  V30 12966 C 1218.13 -0.451653 -2.06212 0
M  V30 12967 O 1217.48 0.555086 -2.21655 0
M  V30 12968 C 1217.69 -2.98949 -1.80085 0
M  V30 12969 C 1219.04 -3.54655 -2.33464 0
M  V30 12970 O 1220.06 -3.0119 -1.90166 0
M  V30 12971 O 1218.92 -4.48195 -3.12703 0
M  V30 12972 H 1216.02 -0.65727 -0.501921 0
M  V30 12973 H 1218.56 -1.66378 -0.33411 0
M  V30 12974 H 1217.33 -3.75716 -1.09332 0
M  V30 12975 H 1216.96 -2.98609 -2.62523 0
M  V30 12976 N 1217.95 0.594978 -1.45938 0
M  V30 12977 C 1218.9 1.70489 -1.5557 0
M  V30 12978 C 1219.87 1.61193 -0.400751 0
M  V30 12979 O 1221.06 1.80587 -0.615882 0
M  V30 12980 C 1218.2 3.08817 -1.54033 0
M  V30 12981 C 1217.31 3.28827 -2.80173 0
M  V30 12982 C 1216.44 4.57333 -2.70222 0
M  V30 12983 C 1215.48 4.70644 -3.91357 0
M  V30 12984 N 1214.62 5.90463 -3.79865 0
M  V30 12985 H 1219.46 1.61593 -2.50383 0
M  V30 12986 H 1217 0.787747 -1.24229 0
M  V30 12987 H 1218.96 3.88865 -1.51129 0
M  V30 12988 H 1217.59 3.1664 -0.627617 0
M  V30 12989 H 1216.64 2.42467 -2.9311 0
M  V30 12990 H 1217.95 3.34534 -3.69985 0
M  V30 12991 H 1217.1 5.45593 -2.65354 0
M  V30 12992 H 1215.84 4.54045 -1.7803 0
M  V30 12993 H 1214.85 3.80805 -3.9657 0
M  V30 12994 H 1216.07 4.75721 -4.8463 0
M  V30 12995 H 1214.02 5.88196 -2.90451 0
M  V30 12996 H 1213.94 5.97385 -4.63322 0
M  V30 12997 H 1215.2 6.81187 -3.78952 0
M  V30 12998 N 1219.43 1.33438 0.838571 0
M  V30 12999 C 1220.38 1.20285 1.93689 0
M  V30 13000 C 1221.37 0.105686 1.60553 0
M  V30 13001 O 1222.56 0.333814 1.73824 0
M  V30 13002 C 1219.69 0.944544 3.3005 0
M  V30 13003 C 1218.77 2.08416 3.69356 0
M  V30 13004 N 1219.16 3.33415 3.80353 0
M  V30 13005 C 1217.46 1.99092 3.99097 0
M  V30 13006 C 1218.16 4.08159 4.14465 0
M  V30 13007 N 1217.14 3.36601 4.2685 0
M  V30 13008 H 1220.94 2.1503 2.00348 0
M  V30 13009 H 1218.46 1.2545 1.03131 0
M  V30 13010 H 1220.45 0.831242 4.08529 0
M  V30 13011 H 1219.11 0.00562273 3.247 0
M  V30 13012 H 1220.12 3.68159 3.64252 0
M  V30 13013 H 1216.8 1.12861 4.01956 0
M  V30 13014 H 1218.19 5.16027 4.30308 0
M  V30 13015 N 1220.91 -1.05686 1.16912 0
M  V30 13016 C 1222.19 -1.7546 0.864483 0
M  V30 13017 C 1222.57 -2.0128 -0.636359 0
M  V30 13018 O 1221.92 -1.64485 -1.58609 0
M  V30 13019 C 1222.13 -3.05134 1.69395 0
M  V30 13020 C 1223.47 -3.79176 1.91079 0
M  V30 13021 O 1224.5 -3.1499 1.66312 0
M  V30 13022 O 1223.36 -4.94496 2.32671 0
M  V30 13023 H 1220.45 -0.762748 0.319601 0
M  V30 13024 H 1223 -1.11899 1.27581 0
M  V30 13025 H 1221.77 -2.82063 2.71212 0
M  V30 13026 H 1221.39 -3.76431 1.28007 0
M  V30 13027 N 1222.39 -0.968567 -1.24324 0
M  V30 13028 C 1223.34 -0.498817 -2.25345 0
M  V30 13029 C 1224.31 0.456082 -1.59716 0
M  V30 13030 O 1225.49 0.366254 -1.87252 0
M  V30 13031 C 1222.63 0.204027 -3.44496 0
M  V30 13032 C 1221.74 -0.789741 -4.2472 0
M  V30 13033 C 1220.88 -0.0629156 -5.31163 0
M  V30 13034 C 1219.92 -1.04669 -6.03084 0
M  V30 13035 N 1219.05 -0.349812 -7.01228 0
M  V30 13036 H 1223.89 -1.36511 -2.64894 0
M  V30 13037 H 1221.43 -0.684288 -1.30215 0
M  V30 13038 H 1223.39 0.628223 -4.12443 0
M  V30 13039 H 1222.02 1.03426 -3.05782 0
M  V30 13040 H 1221.07 -1.33237 -3.56303 0
M  V30 13041 H 1222.38 -1.53988 -4.74436 0
M  V30 13042 H 1221.54 0.419233 -6.0525 0
M  V30 13043 H 1220.28 0.719915 -4.82357 0
M  V30 13044 H 1219.28 -1.53971 -5.278 0
M  V30 13045 H 1220.51 -1.82998 -6.53979 0
M  V30 13046 H 1218.45 0.414026 -6.54692 0
M  V30 13047 H 1218.37 -1.03881 -7.48829 0
M  V30 13048 H 1219.64 0.11034 -7.79422 0
M  V30 13049 N 1223.87 1.39211 -0.738786 0
M  V30 13050 C 1224.83 2.28937 -0.109746 0
M  V30 13051 C 1225.83 1.46488 0.663157 0
M  V30 13052 O 1227.02 1.67119 0.491614 0
M  V30 13053 C 1224.15 3.30039 0.853633 0
M  V30 13054 H 1225.34 2.86068 -0.900295 0
M  V30 13055 H 1222.9 1.47922 -0.504853 0
M  V30 13056 H 1223.63 2.77971 1.6704 0
M  V30 13057 H 1223.42 3.90935 0.302007 0
M  V30 13058 H 1224.91 3.97169 1.29022 0
M  V30 13059 N 1225.34 0.486708 1.49896 0
M  V30 13060 C 1226.31 -0.288126 2.27382 0
M  V30 13061 C 1227.31 -0.906675 1.32801 0
M  V30 13062 O 1228.5 -0.773425 1.56089 0
M  V30 13063 C 1225.63 -1.41194 3.10285 0
M  V30 13064 H 1226.82 0.391618 2.97332 0
M  V30 13065 H 1224.38 0.24123 1.54427 0
M  V30 13066 H 1225.11 -2.12627 2.44868 0
M  V30 13067 H 1224.9 -0.974033 3.79809 0
M  V30 13068 H 1226.39 -1.95812 3.68846 0
M  V30 13069 N 1226.82 -1.56058 0.219941 0
M  V30 13070 C 1227.76 -2.16182 -0.730796 0
M  V30 13071 C 1228.73 -1.10574 -1.19215 0
M  V30 13072 O 1229.92 -1.38821 -1.27518 0
M  V30 13073 C 1227.05 -2.7408 -1.98992 0
M  V30 13074 C 1226.09 -3.92502 -1.66867 0
M  V30 13075 S 1226.92 -5.29568 -0.794875 0
M  V30 13076 C 1228.08 -5.90903 -2.0636 0
M  V30 13077 H 1228.31 -2.96487 -0.219762 0
M  V30 13078 H 1225.85 -1.54399 0.00465254 0
M  V30 13079 H 1227.8 -3.08078 -2.7129 0
M  V30 13080 H 1226.47 -1.93771 -2.47207 0
M  V30 13081 H 1225.66 -4.31509 -2.60414 0
M  V30 13082 H 1225.26 -3.59642 -1.02633 0
M  V30 13083 H 1227.55 -6.06778 -3.01374 0
M  V30 13084 H 1228.5 -6.86957 -1.71745 0
M  V30 13085 H 1228.9 -5.19722 -2.2034 0
M  V30 13086 N 1228.3 0.053464 -1.57509 0
M  V30 13087 C 1229.23 1.06151 -2.07977 0
M  V30 13088 C 1230.21 1.3924 -0.977047 0
M  V30 13089 O 1231.4 1.48549 -1.25087 0
M  V30 13090 C 1228.53 2.36969 -2.53895 0
M  V30 13091 C 1227.48 2.18186 -3.6821 0
M  V30 13092 C 1226.81 3.54551 -4.00247 0
M  V30 13093 C 1228.11 1.588 -4.97574 0
M  V30 13094 H 1229.8 0.641483 -2.92447 0
M  V30 13095 H 1227.35 0.307122 -1.40687 0
M  V30 13096 H 1229.3 3.07797 -2.87817 0
M  V30 13097 H 1228.02 2.80986 -1.66476 0
M  V30 13098 H 1226.68 1.49796 -3.34599 0
M  V30 13099 H 1226.33 3.96171 -3.09932 0
M  V30 13100 H 1226.03 3.42816 -4.77232 0
M  V30 13101 H 1227.56 4.2678 -4.36682 0
M  V30 13102 H 1228.97 2.19515 -5.29609 0
M  V30 13103 H 1227.37 1.57711 -5.79006 0
M  V30 13104 H 1228.44 0.551254 -4.81756 0
M  V30 13105 N 1229.78 1.54207 0.325255 0
M  V30 13106 C 1230.73 1.79856 1.40128 0
M  V30 13107 C 1231.71 0.654503 1.46987 0
M  V30 13108 O 1232.91 0.914453 1.51548 0
M  V30 13109 C 1230.03 2.02786 2.77007 0
M  V30 13110 C 1229.12 3.23309 2.74467 0
M  V30 13111 N 1229.51 4.44396 2.41549 0
M  V30 13112 C 1227.81 3.24848 3.05598 0
M  V30 13113 C 1228.51 5.26325 2.47703 0
M  V30 13114 N 1227.49 4.63468 2.84074 0
M  V30 13115 H 1231.29 2.71056 1.13603 0
M  V30 13116 H 1228.8 1.53379 0.533728 0
M  V30 13117 H 1230.8 2.19301 3.5456 0
M  V30 13118 H 1229.46 1.12839 3.04463 0
M  V30 13119 H 1230.47 4.71426 2.14425 0
M  V30 13120 H 1227.15 2.44929 3.38107 0
M  V30 13121 H 1228.54 6.33016 2.25257 0
M  V30 13122 N 1231.26 -0.58723 1.46251 0
M  V30 13123 C 1232.19 -1.70694 1.5933 0
M  V30 13124 C 1233.17 -1.64208 0.443831 0
M  V30 13125 O 1234.35 -1.82294 0.669516 0
M  V30 13126 C 1231.48 -3.0933 1.579 0
M  V30 13127 C 1230.44 -3.30643 2.7177 0
M  V30 13128 C 1229.76 -4.69761 2.554 0
M  V30 13129 C 1231.06 -3.18916 4.1363 0
M  V30 13130 H 1232.76 -1.60004 2.53059 0
M  V30 13131 H 1230.3 -0.768343 1.21789 0
M  V30 13132 H 1232.26 -3.87479 1.65644 0
M  V30 13133 H 1230.98 -3.20907 0.60712 0
M  V30 13134 H 1229.64 -2.54892 2.63488 0
M  V30 13135 H 1229.29 -4.78098 1.56306 0
M  V30 13136 H 1228.99 -4.84974 3.31774 0
M  V30 13137 H 1230.51 -5.50084 2.65028 0
M  V30 13138 H 1231.93 -3.86915 4.23048 0
M  V30 13139 H 1230.32 -3.45653 4.90555 0
M  V30 13140 H 1231.39 -2.1606 4.34104 0
M  V30 13141 N 1232.74 -1.33881 -0.831482 0
M  V30 13142 C 1233.67 -1.27384 -1.95693 0
M  V30 13143 C 1234.65 -0.152943 -1.69411 0
M  V30 13144 O 1235.83 -0.34392 -1.9113 0
M  V30 13145 C 1232.96 -1.01982 -3.31989 0
M  V30 13146 C 1231.92 -2.10445 -3.72689 0
M  V30 13147 C 1231.24 -1.70245 -5.06873 0
M  V30 13148 C 1232.54 -3.52194 -3.8569 0
M  V30 13149 H 1234.24 -2.21549 -2.01386 0
M  V30 13150 H 1231.78 -1.06653 -0.967526 0
M  V30 13151 H 1233.73 -0.960841 -4.103 0
M  V30 13152 H 1232.46 -0.0425709 -3.26572 0
M  V30 13153 H 1231.12 -2.15398 -2.96647 0
M  V30 13154 H 1230.77 -0.712036 -4.97935 0
M  V30 13155 H 1230.47 -2.42834 -5.35075 0
M  V30 13156 H 1231.99 -1.65827 -5.87651 0
M  V30 13157 H 1233.4 -3.49701 -4.54293 0
M  V30 13158 H 1231.8 -4.23331 -4.25336 0
M  V30 13159 H 1232.87 -3.9016 -2.87929 0
M  V30 13160 N 1234.21 1.05064 -1.1747 0
M  V30 13161 C 1235.63 1.30256 -0.922248 0
M  V30 13162 C 1235.83 1.97119 0.417896 0
M  V30 13163 O 1234.89 2.24557 1.15457 0
M  V30 13164 C 1236.2 2.17109 -2.08049 0
M  V30 13165 C 1237.75 2.30487 -2.11766 0
M  V30 13166 C 1238.22 3.20701 -3.26979 0
M  V30 13167 N 1239.71 3.28287 -3.26775 0
M  V30 13168 C 1240.45 3.98218 -4.12565 0
M  V30 13169 N 1239.94 4.70567 -5.08467 0
M  V30 13170 N 1241.74 3.94395 -4.00511 0
M  V30 13171 H 1233.89 0.600653 -2.0373 0
M  V30 13172 H 1236.15 0.327475 -0.889643 0
M  V30 13173 H 1235.86 1.75273 -3.04914 0
M  V30 13174 H 1235.73 3.1775 -2.03261 0
M  V30 13175 H 1238.12 2.71564 -1.15486 0
M  V30 13176 H 1238.2 1.29471 -2.20615 0
M  V30 13177 H 1237.84 2.80337 -4.23525 0
M  V30 13178 H 1237.77 4.21725 -3.15366 0
M  V30 13179 H 1240.26 2.76739 -2.5734 0
M  V30 13180 H 1240.58 5.21492 -5.70321 0
M  V30 13181 H 1238.92 4.69505 -5.12436 0
M  V30 13182 H 1242.11 3.37 -3.24882 0
M  V30 13183 H 1242.29 4.48626 -4.67588 0
M  V30 13184 N 1235.69 0.975146 1.23809 0
M  V30 13185 C 1236.93 0.649078 1.9382 0
M  V30 13186 C 1237.3 -0.801879 1.74453 0
M  V30 13187 O 1238.5 -1.23853 2.38567 0
M  V30 13188 C 1236.77 1.0225 3.42461 0
M  V30 13189 S 1238.33 0.812107 4.3122 0
M  V30 13190 H 1235.14 0.237878 0.670026 0
M  V30 13191 H 1237.75 1.25368 1.50011 0
M  V30 13192 H 1236.45 2.07523 3.54065 0
M  V30 13193 H 1235.98 0.408976 3.91268 0
M  V30 13194 H 1238 -0.306716 4.95251 0
M  V30 13195 N 1237.17 -1.38817 0.746158 0
M  V30 13196 C 1238.1 -2.29081 0.0737986 0
M  V30 13197 C 1239.11 -1.47377 -0.691656 0
M  V30 13198 O 1240.3 -1.70326 -0.533973 0
M  V30 13199 C 1237.4 -3.26185 -0.919607 0
M  V30 13200 C 1236.58 -4.36879 -0.213349 0
M  V30 13201 C 1235.64 -5.1422 -1.11644 0
M  V30 13202 O 1234.66 -5.66137 -0.589747 0
M  V30 13203 N 1235.86 -5.26488 -2.44521 0
M  V30 13204 H 1238.63 -2.87424 0.848966 0
M  V30 13205 H 1236.19 -1.50518 0.596314 0
M  V30 13206 H 1238.18 -3.74802 -1.52662 0
M  V30 13207 H 1236.75 -2.68793 -1.5959 0
M  V30 13208 H 1235.97 -3.89994 0.574285 0
M  V30 13209 H 1237.26 -5.08053 0.275655 0
M  V30 13210 H 1236.66 -4.85846 -2.89777 0
M  V30 13211 H 1235.21 -5.78505 -3.00291 0
M  V30 13212 N 1238.65 -0.49465 -1.49636 0
M  V30 13213 C 1239.6 0.306278 -2.25933 0
M  V30 13214 C 1240.58 0.941082 -1.30508 0
M  V30 13215 O 1241.77 0.849732 -1.55269 0
M  V30 13216 C 1238.9 1.3739 -3.14609 0
M  V30 13217 C 1237.99 0.745657 -4.17493 0
M  V30 13218 N 1238.38 -0.147977 -5.05583 0
M  V30 13219 C 1236.68 1.00696 -4.34484 0
M  V30 13220 C 1237.38 -0.506949 -5.79487 0
M  V30 13221 N 1236.35 0.123603 -5.43459 0
M  V30 13222 H 1240.16 -0.381753 -2.9141 0
M  V30 13223 H 1237.67 -0.310311 -1.59408 0
M  V30 13224 H 1239.67 1.96108 -3.67896 0
M  V30 13225 H 1238.33 2.06368 -2.50684 0
M  V30 13226 H 1239.34 -0.518378 -5.15299 0
M  V30 13227 H 1236.02 1.68996 -3.81768 0
M  V30 13228 H 1237.41 -1.23766 -6.60403 0
M  V30 13229 N 1240.13 1.55939 -0.228214 0
M  V30 13230 C 1241.37 1.99518 0.395485 0
M  V30 13231 C 1241.73 1.11339 1.56912 0
M  V30 13232 O 1241.02 0.164788 1.9089 0
M  V30 13233 C 1241.21 3.46581 0.872732 0
M  V30 13234 C 1241.04 4.48987 -0.253122 0
M  V30 13235 C 1239.81 5.0012 -0.721702 0
M  V30 13236 C 1242.01 5.02967 -1.0737 0
M  V30 13237 N 1239.99 5.86242 -1.82192 0
M  V30 13238 C 1241.36 5.86079 -2.02265 0
M  V30 13239 C 1243.42 4.85315 -1.11238 0
M  V30 13240 C 1242.12 6.53424 -3.00716 0
M  V30 13241 C 1244.15 5.53423 -2.0851 0
M  V30 13242 C 1243.51 6.36308 -3.02144 0
M  V30 13243 H 1239.61 0.774053 0.1112 0
M  V30 13244 H 1242.19 1.91681 -0.341512 0
M  V30 13245 H 1240.36 3.54852 1.57907 0
M  V30 13246 H 1242.1 3.77066 1.46981 0
M  V30 13247 H 1238.85 4.7259 -0.309119 0
M  V30 13248 H 1239.27 6.34003 -2.37423 0
M  V30 13249 H 1243.92 4.20881 -0.402389 0
M  V30 13250 H 1241.63 7.17035 -3.72674 0
M  V30 13251 H 1245.22 5.41727 -2.12186 0
M  V30 13252 H 1244.1 6.88081 -3.76183 0
M  V30 13253 N 1241.6 -0.0451101 1.57535 0
M  V30 13254 C 1242.53 -1.05046 2.08537 0
M  V30 13255 C 1243.52 -1.3872 0.984418 0
M  V30 13256 O 1244.7 -1.47884 1.25873 0
M  V30 13257 C 1241.83 -2.3562 2.55148 0
M  V30 13258 C 1240.78 -2.16231 3.69362 0
M  V30 13259 C 1240.11 -3.52423 4.02122 0
M  V30 13260 C 1241.41 -1.56159 4.98409 0
M  V30 13261 H 1243.1 -0.625965 2.92783 0
M  V30 13262 H 1240.65 -0.299657 1.40848 0
M  V30 13263 H 1242.6 -3.06266 2.89446 0
M  V30 13264 H 1241.33 -2.80099 1.67964 0
M  V30 13265 H 1239.99 -1.4802 3.35389 0
M  V30 13266 H 1239.63 -3.94522 3.12028 0
M  V30 13267 H 1239.33 -3.4028 4.79044 0
M  V30 13268 H 1240.86 -4.24458 4.38939 0
M  V30 13269 H 1242.27 -2.16703 5.30766 0
M  V30 13270 H 1240.67 -1.54638 5.79834 0
M  V30 13271 H 1241.74 -0.525698 4.82042 0
M  V30 13272 N 1243.08 -1.54377 -0.317073 0
M  V30 13273 C 1244.01 -1.80563 -1.41172 0
M  V30 13274 C 1245.03 -0.687865 -1.47554 0
M  V30 13275 O 1246.22 -0.965084 -1.50161 0
M  V30 13276 C 1243.32 -1.9142 -2.79663 0
M  V30 13277 C 1242.49 -3.21655 -2.96407 0
M  V30 13278 C 1241.55 -3.23131 -4.15298 0
M  V30 13279 O 1240.57 -3.96741 -4.08149 0
M  V30 13280 N 1241.78 -2.47376 -5.25153 0
M  V30 13281 H 1244.54 -2.75032 -1.1907 0
M  V30 13282 H 1242.1 -1.53754 -0.507086 0
M  V30 13283 H 1244.09 -1.89828 -3.57418 0
M  V30 13284 H 1242.66 -1.0402 -2.94786 0
M  V30 13285 H 1241.88 -3.36154 -2.05899 0
M  V30 13286 H 1243.17 -4.07629 -3.04494 0
M  V30 13287 H 1242.57 -1.87173 -5.33838 0
M  V30 13288 H 1241.13 -2.51555 -6.01301 0
M  V30 13289 N 1244.56 0.579466 -1.4656 0
M  V30 13290 C 1245.79 1.36837 -1.55854 0
M  V30 13291 C 1246.21 1.87019 -0.20141 0
M  V30 13292 O 1245.57 1.61746 0.81901 0
M  V30 13293 C 1245.62 2.52965 -2.56985 0
M  V30 13294 O 1244.72 3.54505 -2.10713 0
M  V30 13295 H 1244.06 0.407379 -0.524345 0
M  V30 13296 H 1246.59 0.702558 -1.9216 0
M  V30 13297 H 1246.6 2.99838 -2.76697 0
M  V30 13298 H 1245.28 2.15793 -3.55536 0
M  V30 13299 H 1243.85 3.14089 -2.01003 0
M  V30 13300 N 1246.04 1.3432 0.824371 0
M  V30 13301 C 1247.45 1.23855 1.39703 0
M  V30 13302 C 1247.8 -0.136566 1.95724 0
M  V30 13303 O 1246.93 -1.03683 1.89944 0
M  V30 13304 C 1247.52 2.24249 2.53965 0
M  V30 13305 C 1246.08 2.17578 3.07143 0
M  V30 13306 C 1245.23 2.10933 1.80008 0
M  V30 13307 H 1248.18 1.45707 0.628891 0
M  V30 13308 H 1248.2 1.85864 3.32016 0
M  V30 13309 H 1247.71 3.24321 2.13161 0
M  V30 13310 H 1245.81 1.20858 3.52455 0
M  V30 13311 H 1245.92 3.08769 3.66331 0
M  V30 13312 H 1244.29 1.56631 2.00845 0
M  V30 13313 H 1245.07 3.12836 1.4138 0
M  V30 13314 N 1247.52 -1.0444 1.18026 0
M  V30 13315 C 1248.93 -1.5903 0.978076 0
M  V30 13316 C 1249.28 -1.90407 -0.473241 0
M  V30 13317 O 1248.4 -1.69133 -1.34992 0
M  V30 13318 C 1249 -2.88942 1.76912 0
M  V30 13319 C 1247.56 -3.40164 1.61139 0
M  V30 13320 C 1246.7 -2.13797 1.76596 0
M  V30 13321 H 1249.66 -0.871574 1.32625 0
M  V30 13322 H 1249.68 -3.59173 1.25598 0
M  V30 13323 H 1249.19 -2.66074 2.82535 0
M  V30 13324 H 1247.29 -3.68053 0.580353 0
M  V30 13325 H 1247.4 -4.14241 2.40709 0
M  V30 13326 H 1245.77 -2.24922 1.19507 0
M  V30 13327 H 1246.55 -1.93389 2.83647 0
M  V30 13328 N 1248.99 -0.981699 -1.2329 0
M  V30 13329 C 1250.22 -0.66937 -1.95773 0
M  V30 13330 C 1250.64 0.763898 -1.72656 0
M  V30 13331 O 1249.99 1.51418 -1.01876 0
M  V30 13332 C 1250.05 -0.951863 -3.48743 0
M  V30 13333 O 1249.77 -2.3288 -3.71078 0
M  V30 13334 C 1251.27 -0.655668 -4.38424 0
M  V30 13335 H 1248.49 -0.248545 -0.623271 0
M  V30 13336 H 1251.03 -1.31343 -1.56746 0
M  V30 13337 H 1249.19 -0.353787 -3.85781 0
M  V30 13338 H 1249.6 -2.41948 -4.65362 0
M  V30 13339 H 1251.07 -0.903683 -5.44553 0
M  V30 13340 H 1251.55 0.410269 -4.3728 0
M  V30 13341 H 1252.16 -1.23428 -4.06996 0
M  V30 13342 N 1250.47 1.3842 -0.753509 0
M  V30 13343 C 1251.75 1.94181 -0.235142 0
M  V30 13344 C 1252.13 1.68881 1.26659 0
M  V30 13345 O 1251.48 1.02731 2.04104 0
M  V30 13346 C 1251.69 3.43998 -0.588751 0
M  V30 13347 C 1253.04 4.21044 -0.548352 0
M  V30 13348 O 1254.06 3.52279 -0.52704 0
M  V30 13349 O 1252.92 5.43631 -0.559221 0
M  V30 13350 H 1250.01 0.825536 -0.0491834 0
M  V30 13351 H 1252.56 1.47813 -0.833626 0
M  V30 13352 H 1251.33 3.55921 -1.6259 0
M  V30 13353 H 1250.95 3.97582 0.0377429 0
M  V30 13354 N 1251.95 0.502579 1.49372 0
M  V30 13355 C 1253.18 -0.0403087 2.07361 0
M  V30 13356 C 1253.6 -1.29918 1.36026 0
M  V30 13357 O 1252.96 -1.76428 0.417488 0
M  V30 13358 C 1253.01 -0.275362 3.59547 0
M  V30 13359 O 1252.11 -1.34975 3.89686 0
M  V30 13360 H 1251.45 0.0269268 0.663454 0
M  V30 13361 H 1253.98 0.702652 1.92156 0
M  V30 13362 H 1253.99 -0.506392 4.04845 0
M  V30 13363 H 1252.67 0.644382 4.10878 0
M  V30 13364 H 1251.24 -1.10355 3.56197 0
M  V30 13365 N 1253.43 -1.55816 0.23648 0
M  V30 13366 C 1254.34 -2.24576 -0.678439 0
M  V30 13367 C 1255.35 -1.25836 -1.20172 0
M  V30 13368 O 1256.53 -1.58686 -1.24019 0
M  V30 13369 C 1253.6 -2.92376 -1.86325 0
M  V30 13370 C 1252.66 -4.06499 -1.38047 0
M  V30 13371 C 1251.89 -4.71057 -2.50881 0
M  V30 13372 O 1252.11 -4.34652 -3.69369 0
M  V30 13373 O 1251.05 -5.59768 -2.21232 0
M  V30 13374 H 1254.87 -3.03452 -0.122601 0
M  V30 13375 H 1252.46 -1.49399 0.00540803 0
M  V30 13376 H 1254.34 -3.35117 -2.55488 0
M  V30 13377 H 1253.01 -2.16448 -2.40691 0
M  V30 13378 H 1251.92 -3.68296 -0.656422 0
M  V30 13379 H 1253.25 -4.84214 -0.883024 0
M  V30 13380 N 1254.91 0.036755 -1.57557 0
M  V30 13381 C 1256.15 0.72475 -1.9005 0
M  V30 13382 C 1256.51 1.73374 -0.834226 0
M  V30 13383 O 1255.8 1.90948 0.157943 0
M  V30 13384 C 1255.99 1.44206 -3.27016 0
M  V30 13385 C 1255.82 0.504059 -4.46866 0
M  V30 13386 C 1254.59 0.127948 -5.05138 0
M  V30 13387 C 1256.79 -0.214278 -5.13853 0
M  V30 13388 N 1254.77 -0.812111 -6.08505 0
M  V30 13389 C 1256.14 -1.01027 -6.11714 0
M  V30 13390 C 1258.2 -0.28204 -4.97101 0
M  V30 13391 C 1256.9 -1.86778 -6.94627 0
M  V30 13392 C 1258.93 -1.12664 -5.80569 0
M  V30 13393 C 1258.29 -1.91058 -6.77994 0
M  V30 13394 H 1254.39 0.239542 -0.744408 0
M  V30 13395 H 1256.97 -0.0149454 -1.94694 0
M  V30 13396 H 1255.14 2.15226 -3.23314 0
M  V30 13397 H 1256.88 2.08183 -3.47047 0
M  V30 13398 H 1253.63 0.488471 -4.71074 0
M  V30 13399 H 1254.06 -1.27642 -6.64858 0
M  V30 13400 H 1258.7 0.309735 -4.21664 0
M  V30 13401 H 1256.42 -2.47038 -7.69414 0
M  V30 13402 H 1260 -1.18251 -5.69656 0
M  V30 13403 H 1258.88 -2.55358 -7.41459 0
M  V30 13404 N 1256.39 1.54543 0.308881 0
M  V30 13405 C 1257.66 1.64118 1.06418 0
M  V30 13406 C 1258.04 0.484402 2.05467 0
M  V30 13407 O 1257.39 -0.519752 2.2251 0
M  V30 13408 C 1257.6 3.01776 1.75306 0
M  V30 13409 C 1258.95 3.58324 2.27792 0
M  V30 13410 O 1259.97 3.04177 1.85351 0
M  V30 13411 O 1258.83 4.53113 3.05533 0
M  V30 13412 H 1255.93 0.665172 0.491401 0
M  V30 13413 H 1258.47 1.66889 0.307598 0
M  V30 13414 H 1257.24 3.77407 1.03341 0
M  V30 13415 H 1256.87 3.02748 2.57739 0
M  V30 13416 N 1257.86 -0.571685 1.46866 0
M  V30 13417 C 1258.77 -1.70758 1.60869 0
M  V30 13418 C 1259.79 -1.66903 0.49186 0
M  V30 13419 O 1260.97 -1.86613 0.757468 0
M  V30 13420 C 1258.03 -3.07267 1.60586 0
M  V30 13421 C 1257.09 -3.22301 2.83585 0
M  V30 13422 C 1256.32 -4.52298 2.83306 0
M  V30 13423 O 1256.55 -5.36869 1.92685 0
M  V30 13424 O 1255.48 -4.70814 3.7499 0
M  V30 13425 H 1259.31 -1.6189 2.56954 0
M  V30 13426 H 1256.89 -0.740018 1.29785 0
M  V30 13427 H 1258.77 -3.8853 1.63163 0
M  V30 13428 H 1257.45 -3.16549 0.676637 0
M  V30 13429 H 1256.36 -2.4049 2.86558 0
M  V30 13430 H 1257.69 -3.17916 3.75753 0
M  V30 13431 N 1259.34 -1.34755 -0.817236 0
M  V30 13432 C 1260.59 -1.2718 -1.57066 0
M  V30 13433 C 1260.91 0.156531 -1.94371 0
M  V30 13434 O 1260.18 1.09049 -1.62742 0
M  V30 13435 H 1258.76 -0.467755 -0.582421 0
M  V30 13436 H 1261.42 -1.68734 -0.975438 0
M  V30 13437 H 1260.52 -1.88043 -2.49091 0
M  V30 13438 N 1260.82 1.03812 -1.18578 0
M  V30 13439 C 1262.07 1.77319 -0.984173 0
M  V30 13440 C 1262.4 1.88052 0.484789 0
M  V30 13441 O 1261.67 1.3905 1.35998 0
M  V30 13442 C 1261.96 3.20448 -1.6427 0
M  V30 13443 C 1261.81 3.17643 -3.1847 0
M  V30 13444 C 1263.13 4.18623 -1.35805 0
M  V30 13445 H 1260.25 0.643681 -0.358949 0
M  V30 13446 H 1262.89 1.21249 -1.46283 0
M  V30 13447 H 1261.04 3.68324 -1.23572 0
M  V30 13448 H 1262.71 2.77738 -3.6832 0
M  V30 13449 H 1260.95 2.55606 -3.50497 0
M  V30 13450 H 1261.63 4.18724 -3.59686 0
M  V30 13451 H 1264.1 3.79306 -1.71073 0
M  V30 13452 H 1262.98 5.16982 -1.84446 0
M  V30 13453 H 1263.24 4.41203 -0.281418 0
M  V30 13454 N 1262.3 0.988223 1.22768 0
M  V30 13455 C 1263.54 0.672085 1.91975 0
M  V30 13456 C 1263.9 -0.786719 1.7558 0
M  V30 13457 O 1263.19 -1.561 1.111 0
M  V30 13458 C 1263.39 1.00744 3.42907 0
M  V30 13459 C 1263.21 2.4973 3.73985 0
M  V30 13460 C 1261.98 3.16058 3.94253 0
M  V30 13461 C 1264.18 3.47831 3.78838 0
M  V30 13462 N 1262.16 4.54568 4.12603 0
M  V30 13463 C 1263.54 4.7178 4.02273 0
M  V30 13464 C 1265.59 3.42203 3.61665 0
M  V30 13465 C 1264.29 5.90789 4.10318 0
M  V30 13466 C 1266.32 4.60584 3.70967 0
M  V30 13467 C 1265.68 5.83331 3.94847 0
M  V30 13468 H 1261.78 0.297129 0.723352 0
M  V30 13469 H 1264.36 1.26728 1.47811 0
M  V30 13470 H 1262.54 0.440869 3.8589 0
M  V30 13471 H 1264.27 0.647774 3.99482 0
M  V30 13472 H 1261.02 2.66536 3.91479 0
M  V30 13473 H 1261.45 5.26399 4.25715 0
M  V30 13474 H 1266.09 2.48323 3.42193 0
M  V30 13475 H 1263.81 6.85078 4.28596 0
M  V30 13476 H 1267.39 4.57813 3.59024 0
M  V30 13477 H 1266.27 6.73403 4.01868 0
M  V30 13478 N 1263.78 -1.38018 0.760839 0
M  V30 13479 C 1265 -2.04231 0.331285 0
M  V30 13480 C 1265.42 -1.57385 -1.04285 0
M  V30 13481 O 1264.78 -0.750168 -1.66369 0
M  V30 13482 C 1264.83 -3.59772 0.353021 0
M  V30 13483 O 1264.55 -4.049 1.67294 0
M  V30 13484 C 1266.05 -4.4321 -0.0894942 0
M  V30 13485 H 1263.27 -0.656145 0.140408 0
M  V30 13486 H 1265.81 -1.76567 1.03172 0
M  V30 13487 H 1263.97 -3.86246 -0.298735 0
M  V30 13488 H 1264.38 -4.99369 1.60408 0
M  V30 13489 H 1265.86 -5.51995 -0.0231262 0
M  V30 13490 H 1266.33 -4.2419 -1.13839 0
M  V30 13491 H 1266.94 -4.21939 0.533661 0
M  V30 13492 N 1265.25 -0.510493 -1.49103 0
M  V30 13493 C 1266.5 0.0306436 -2.02477 0
M  V30 13494 C 1266.83 1.36113 -1.38937 0
M  V30 13495 O 1266.08 1.88731 -0.517584 0
M  V30 13496 C 1266.38 0.221921 -3.5671 0
M  V30 13497 C 1266.05 -1.03176 -4.38937 0
M  V30 13498 C 1264.71 -1.37539 -4.61125 0
M  V30 13499 C 1267.06 -1.86464 -4.86704 0
M  V30 13500 C 1264.39 -2.55124 -5.28326 0
M  V30 13501 C 1266.74 -3.03211 -5.55199 0
M  V30 13502 C 1265.41 -3.37943 -5.75631 0
M  V30 13503 H 1264.68 0.0112133 -0.740915 0
M  V30 13504 H 1267.32 -0.672574 -1.79301 0
M  V30 13505 H 1265.63 1.00775 -3.78618 0
M  V30 13506 H 1267.33 0.655223 -3.95611 0
M  V30 13507 H 1263.92 -0.754105 -4.21914 0
M  V30 13508 H 1268.1 -1.61229 -4.69381 0
M  V30 13509 H 1263.36 -2.8226 -5.42346 0
M  V30 13510 H 1267.53 -3.68068 -5.91185 0
M  V30 13511 H 1265.16 -4.29158 -6.27477 0
M  V30 13512 N 1266.73 1.55688 -0.24474 0
M  V30 13513 C 1267.66 2.18616 0.68844 0
M  V30 13514 C 1268.68 1.16185 1.14039 0
M  V30 13515 O 1269.87 1.43059 1.06754 0
M  V30 13516 C 1266.97 2.77375 1.94721 0
M  V30 13517 C 1266.14 4.05204 1.64706 0
M  V30 13518 C 1265.2 4.48302 2.75521 0
M  V30 13519 O 1264.22 5.14723 2.42999 0
M  V30 13520 N 1265.43 4.15907 4.04971 0
M  V30 13521 H 1268.19 2.99324 0.150018 0
M  V30 13522 H 1265.75 1.61771 -0.0646183 0
M  V30 13523 H 1267.74 3.03165 2.68091 0
M  V30 13524 H 1266.31 2.00837 2.39548 0
M  V30 13525 H 1265.53 3.87026 0.74865 0
M  V30 13526 H 1266.82 4.8855 1.42114 0
M  V30 13527 H 1266.22 3.62579 4.34227 0
M  V30 13528 H 1264.78 4.46538 4.74813 0
M  V30 13529 N 1268.21 -0.0283989 1.57574 0
M  V30 13530 C 1269.12 -1.04575 2.10003 0
M  V30 13531 C 1270.14 -1.39588 1.03881 0
M  V30 13532 O 1271.31 -1.48894 1.35619 0
M  V30 13533 C 1268.38 -2.32755 2.56955 0
M  V30 13534 C 1267.44 -2.04317 3.77562 0
M  V30 13535 C 1266.67 -3.26385 4.22266 0
M  V30 13536 O 1266.89 -4.37082 3.66491 0
M  V30 13537 O 1265.83 -3.12046 5.14695 0
M  V30 13538 H 1269.65 -0.630183 2.9709 0
M  V30 13539 H 1267.24 -0.245423 1.4737 0
M  V30 13540 H 1269.12 -3.08111 2.87482 0
M  V30 13541 H 1267.8 -2.73605 1.72979 0
M  V30 13542 H 1266.7 -1.26527 3.52054 0
M  V30 13543 H 1268.04 -1.68321 4.62524 0
M  V30 13544 N 1269.69 -1.54705 -0.300681 0
M  V30 13545 C 1270.63 -1.85678 -1.37084 0
M  V30 13546 C 1271.6 -0.70573 -1.50362 0
M  V30 13547 O 1272.79 -0.954385 -1.65215 0
M  V30 13548 C 1269.93 -2.10995 -2.73084 0
M  V30 13549 C 1269.04 -3.38621 -2.68254 0
M  V30 13550 C 1268.18 -3.53779 -3.9625 0
M  V30 13551 C 1267.22 -4.75195 -3.85818 0
M  V30 13552 N 1266.35 -4.87157 -5.05591 0
M  V30 13553 H 1271.19 -2.76967 -1.09971 0
M  V30 13554 H 1268.73 -1.37147 -0.531887 0
M  V30 13555 H 1270.69 -2.23669 -3.52176 0
M  V30 13556 H 1269.32 -1.22973 -2.98458 0
M  V30 13557 H 1268.37 -3.34566 -1.81025 0
M  V30 13558 H 1269.68 -4.27834 -2.56436 0
M  V30 13559 H 1268.84 -3.66119 -4.83779 0
M  V30 13560 H 1267.58 -2.62699 -4.10902 0
M  V30 13561 H 1266.58 -4.62888 -2.96673 0
M  V30 13562 H 1267.81 -5.67683 -3.72711 0
M  V30 13563 H 1265.75 -3.99001 -5.20706 0
M  V30 13564 H 1265.67 -5.70372 -4.96197 0
M  V30 13565 H 1266.94 -5.03854 -5.9477 0
M  V30 13566 O 1271.2 0.446575 -1.55203 0
M  V30 13567 H 1271.9 1.10037 -1.5941 0
M  V30 END ATOM
M  V30 BEGIN BOND
M  V30 END BOND
M  V30 END CTAB
M  END
$$$$
