drugbank_target|P94548 Fatty acid metabolism regulator protein (DB03264)
 OpenBabel12092120273D

  0  0  0     0  0            999 V3000
M  V30 BEGIN CTAB
M  V30 COUNTS 3149 3166 0 0 0
M  V30 BEGIN ATOM
M  V30 1 H -0.908 1.98254 -0.117106 0
M  V30 2 N 0 1.576 0 0
M  V30 3 C 0.933 2.03868 1.02534 0
M  V30 4 C 1.911 0.928543 1.3348 0
M  V30 5 O 3.095 1.19667 1.45644 0
M  V30 6 C 0.222 2.43627 2.35294 0
M  V30 7 C -0.732 3.65373 2.2001 0
M  V30 8 S 0.101 5.13292 1.52614 0
M  V30 9 C 1.257 5.56322 2.86805 0
M  V30 10 H 1.49 2.90518 0.631377 0
M  V30 11 H -0.977 1.52953 0.210867 0
M  V30 12 H 0.981 2.67203 3.11629 0
M  V30 13 H -0.358 1.57376 2.7183 0
M  V30 14 H -1.165 3.90944 3.18086 0
M  V30 15 H -1.563 3.418 1.51819 0
M  V30 16 H 0.729 5.58782 3.83104 0
M  V30 17 H 1.672 6.56266 2.65933 0
M  V30 18 H 2.08 4.83886 2.90714 0
M  V30 19 N 1.4781 -0.272755 1.55222 0
M  V30 20 C 2.4251 -1.33716 1.88119 0
M  V30 21 C 3.3951 -1.49066 0.73271 0
M  V30 22 O 4.5801 -1.63469 0.984002 0
M  V30 23 C 1.7201 -2.69238 2.15882 0
M  V30 24 C 0.8331 -2.62108 3.43399 0
M  V30 25 C -0.0319 -3.89811 3.60861 0
M  V30 26 C -0.9929 -3.77193 4.8207 0
M  V30 27 N -1.8559 -4.9673 4.96189 0
M  V30 28 H 2.9841 -1.04962 2.78903 0
M  V30 29 H 0.5211 -0.507088 1.38083 0
M  V30 30 H 2.4791 -3.48089 2.29978 0
M  V30 31 H 1.1091 -2.96194 1.28331 0
M  V30 32 H 0.1611 -1.74967 3.37773 0
M  V30 33 H 1.4731 -2.48685 4.32386 0
M  V30 34 H 0.6271 -4.77103 3.74777 0
M  V30 35 H -0.6339 -4.06102 2.7006 0
M  V30 36 H -1.6289 -2.88284 4.68159 0
M  V30 37 H -0.4039 -3.62421 5.74307 0
M  V30 38 H -2.4579 -5.13431 4.08319 0
M  V30 39 H -2.5409 -4.85839 5.79221 0
M  V30 40 H -1.2729 -5.85594 5.1449 0
M  V30 41 N 2.9562 -1.48159 -0.537278 0
M  V30 42 C 3.8882 -1.58218 -1.65831 0
M  V30 43 C 4.9012 -0.466948 -1.5596 0
M  V30 44 O 6.0902 -0.73747 -1.62553 0
M  V30 45 C 3.1902 -1.48906 -3.04434 0
M  V30 46 C 2.3632 -2.75343 -3.3986 0
M  V30 47 C 1.4222 -2.59588 -4.57712 0
M  V30 48 O 0.4482 -3.33457 -4.61297 0
M  V30 49 N 1.6502 -1.68724 -5.55439 0
M  V30 50 H 4.4152 -2.54891 -1.57641 0
M  V30 51 H 1.9762 -1.4479 -0.724386 0
M  V30 52 H 3.9682 -1.36072 -3.81139 0
M  V30 53 H 2.5382 -0.602368 -3.06741 0
M  V30 54 H 1.7582 -3.02795 -2.52406 0
M  V30 55 H 3.0462 -3.5924 -3.60311 0
M  V30 56 H 2.4442 -1.07898 -5.55315 0
M  V30 57 H 1.0012 -1.61832 -6.3139 0
M  V30 58 N 4.4343 0.785586 -1.36625 0
M  V30 59 C 5.3813 1.89838 -1.31264 0
M  V30 60 C 6.3513 1.65115 -0.180633 0
M  V30 61 O 7.5363 1.87222 -0.36777 0
M  V30 62 C 4.6763 3.26706 -1.11163 0
M  V30 63 C 3.7893 3.63476 -2.33472 0
M  V30 64 C 2.9243 4.89481 -2.06353 0
M  V30 65 C 1.9633 5.18941 -3.24602 0
M  V30 66 N 1.1003 6.36131 -2.97123 0
M  V30 67 H 5.9403 1.93756 -2.26413 0
M  V30 68 H 3.4773 0.947454 -1.12524 0
M  V30 69 H 5.4353 4.05639 -0.975337 0
M  V30 70 H 4.0653 3.222 -0.196674 0
M  V30 71 H 3.1173 2.79636 -2.57891 0
M  V30 72 H 4.4293 3.81193 -3.21704 0
M  V30 73 H 3.5833 5.76288 -1.89675 0
M  V30 74 H 2.3223 4.73841 -1.15437 0
M  V30 75 H 1.3273 4.30615 -3.41834 0
M  V30 76 H 2.5523 5.36498 -4.16349 0
M  V30 77 H 0.4983 6.21875 -2.08823 0
M  V30 78 H 0.4153 6.54198 -3.78894 0
M  V30 79 H 1.6833 7.2591 -2.84033 0
M  V30 80 N 5.9124 1.20967 1.01018 0
M  V30 81 C 7.3284 0.965905 1.27053 0
M  V30 82 C 7.5284 -0.350785 1.98423 0
M  V30 83 O 6.5844 -1.07773 2.28344 0
M  V30 84 C 7.8974 2.15294 2.09926 0
M  V30 85 C 9.4454 2.19463 2.23171 0
M  V30 86 C 9.9204 3.3767 3.09424 0
M  V30 87 N 11.4114 3.37724 3.17012 0
M  V30 88 C 12.1464 4.25837 3.83993 0
M  V30 89 N 11.6424 5.24138 4.53047 0
M  V30 90 N 13.4354 4.1366 3.80581 0
M  V30 91 H 5.5864 2.0565 0.531194 0
M  V30 92 H 7.8494 0.90024 0.297106 0
M  V30 93 H 7.5554 3.10684 1.64828 0
M  V30 94 H 7.4294 2.13923 3.10672 0
M  V30 95 H 9.8164 1.24632 2.6749 0
M  V30 96 H 9.8974 2.2488 1.21912 0
M  V30 97 H 9.5414 4.32791 2.65808 0
M  V30 98 H 9.4714 3.29491 4.10784 0
M  V30 99 H 11.9624 2.6658 2.6785 0
M  V30 100 H 12.2754 5.87684 5.01844 0
M  V30 101 H 10.6204 5.28068 4.5185 0
M  V30 102 H 13.8114 3.36127 3.25785 0
M  V30 103 H 13.9844 4.82538 4.32505 0
M  V30 104 N 7.3905 -1.2043 1.01659 0
M  V30 105 C 8.8015 -1.71517 0.737482 0
M  V30 106 C 9.1525 -1.81547 -0.743973 0
M  V30 107 O 8.2775 -1.47803 -1.58061 0
M  V30 108 C 8.8725 -3.11515 1.33206 0
M  V30 109 C 7.4315 -3.59912 1.10183 0
M  V30 110 C 6.5785 -2.37116 1.43776 0
M  V30 111 H 9.5295 -1.05444 1.18606 0
M  V30 112 H 9.5505 -3.73575 0.722636 0
M  V30 113 H 9.0625 -3.04182 2.41028 0
M  V30 114 H 7.1635 -3.72577 0.0412756 0
M  V30 115 H 7.2765 -4.44731 1.78188 0
M  V30 116 H 5.6405 -2.39857 0.856778 0
M  V30 117 H 6.4235 -2.32424 2.52654 0
M  V30 118 N 8.8686 -0.792821 -1.36206 0
M  V30 119 C 9.8156 -0.191653 -2.30003 0
M  V30 120 C 10.7856 0.666453 -1.52143 0
M  V30 121 O 11.9706 0.61442 -1.80636 0
M  V30 122 C 9.1106 0.664848 -3.38635 0
M  V30 123 C 8.2236 -0.212175 -4.31479 0
M  V30 124 C 7.3586 0.651022 -5.27196 0
M  V30 125 C 6.3976 -0.227247 -6.11678 0
M  V30 126 N 5.5346 0.595127 -6.99573 0
M  V30 127 H 10.3746 -0.996978 -2.80828 0
M  V30 128 H 7.9116 -0.503206 -1.38225 0
M  V30 129 H 9.8696 1.17645 -4.00269 0
M  V30 130 H 8.4996 1.43557 -2.89122 0
M  V30 131 H 7.5516 -0.841777 -3.70969 0
M  V30 132 H 8.8636 -0.888751 -4.90818 0
M  V30 133 H 8.0176 1.2283 -5.94136 0
M  V30 134 H 6.7566 1.36121 -4.68319 0
M  V30 135 H 5.7616 -0.816904 -5.43697 0
M  V30 136 H 6.9866 -0.93509 -6.72631 0
M  V30 137 H 4.9326 1.28955 -6.432 0
M  V30 138 H 4.8496 -0.0236952 -7.55996 0
M  V30 139 H 6.1176 1.15613 -7.70879 0
M  V30 140 N 10.3467 1.47872 -0.545128 0
M  V30 141 C 11.5767 2.06589 -0.0210534 0
M  V30 142 C 11.9847 1.39997 1.27269 0
M  V30 143 O 11.3277 0.486421 1.77143 0
M  V30 144 C 11.3897 3.58574 0.257933 0
M  V30 145 C 11.0537 4.47132 -0.944573 0
M  V30 146 C 12.0507 4.85986 -1.84699 0
M  V30 147 C 9.7357 4.88821 -1.15584 0
M  V30 148 C 11.7297 5.65314 -2.94446 0
M  V30 149 C 9.4167 5.67916 -2.25642 0
M  V30 150 C 10.4147 6.06073 -3.14905 0
M  V30 151 O 10.1027 6.83578 -4.23057 0
M  V30 152 H 9.8347 0.674971 -0.0372899 0
M  V30 153 H 12.3887 1.91037 -0.754599 0
M  V30 154 H 10.6187 3.72295 1.04564 0
M  V30 155 H 12.3077 3.99356 0.72592 0
M  V30 156 H 13.0737 4.54388 -1.69577 0
M  V30 157 H 8.9527 4.58595 -0.470279 0
M  V30 158 H 12.4967 5.95016 -3.64145 0
M  V30 159 H 8.3937 5.98927 -2.40742 0
M  V30 160 H 9.1617 7.01954 -4.20954 0
M  V30 161 N 11.8248 0.280983 1.55075 0
M  V30 162 C 12.7578 -0.645439 2.18882 0
M  V30 163 C 13.7358 -1.14786 1.15165 0
M  V30 164 O 14.9198 -1.21975 1.43716 0
M  V30 165 C 12.0468 -1.88088 2.81674 0
M  V30 166 C 11.0928 -1.51343 3.98745 0
M  V30 167 S 11.9258 -0.586548 5.32278 0
M  V30 168 C 13.0818 -1.83024 5.98543 0
M  V30 169 H 13.3148 -0.1033 2.9712 0
M  V30 170 H 10.8478 0.0652099 1.54262 0
M  V30 171 H 12.8058 -2.58997 3.18482 0
M  V30 172 H 11.4668 -2.39417 2.03318 0
M  V30 173 H 10.6598 -2.43289 4.41392 0
M  V30 174 H 10.2618 -0.884477 3.63391 0
M  V30 175 H 12.5538 -2.77342 6.18133 0
M  V30 176 H 13.4968 -1.44668 6.93164 0
M  V30 177 H 13.9048 -1.99785 5.27964 0
M  V30 178 N 13.3029 -1.57598 0.00835791 0
M  V30 179 C 14.2349 -2.05811 -1.00868 0
M  V30 180 C 15.2479 -0.977579 -1.30182 0
M  V30 181 O 16.4369 -1.25421 -1.27011 0
M  V30 182 C 13.5369 -2.45016 -2.34137 0
M  V30 183 C 12.7099 -3.75903 -2.23643 0
M  V30 184 C 11.7689 -4.01884 -3.3967 0
M  V30 185 O 10.7949 -4.72433 -3.17483 0
M  V30 186 N 11.9969 -3.50432 -4.62793 0
M  V30 187 H 14.7619 -2.93684 -0.597458 0
M  V30 188 H 12.3229 -1.60909 -0.178852 0
M  V30 189 H 14.3149 -2.59506 -3.10546 0
M  V30 190 H 12.8849 -1.62618 -2.66972 0
M  V30 191 H 12.1049 -3.7141 -1.32091 0
M  V30 192 H 13.3929 -4.61695 -2.13812 0
M  V30 193 H 12.7909 -2.93317 -4.83716 0
M  V30 194 H 11.3479 -3.70236 -5.3644 0
M  V30 195 N 14.781 0.264519 -1.55364 0
M  V30 196 C 16.03 0.992812 -1.75574 0
M  V30 197 C 16.343 1.87142 -0.568979 0
M  V30 198 O 17.549 2.63513 -0.653682 0
M  V30 199 C 16.005 1.81519 -3.10771 0
M  V30 200 C 15.613 0.984839 -4.37041 0
M  V30 201 C 17.357 2.53727 -3.40327 0
M  V30 202 C 15.264 1.80209 -5.63275 0
M  V30 203 H 14.194 0.374412 -0.65447 0
M  V30 204 H 16.845 0.248138 -1.81815 0
M  V30 205 H 15.227 2.60115 -2.98591 0
M  V30 206 H 16.401 0.242455 -4.60162 0
M  V30 207 H 14.716 0.37691 -4.14691 0
M  V30 208 H 17.313 3.15292 -4.3185 0
M  V30 209 H 17.656 3.24447 -2.60845 0
M  V30 210 H 18.189 1.82156 -3.53644 0
M  V30 211 H 14.928 1.13896 -6.45529 0
M  V30 212 H 14.448 2.52022 -5.44284 0
M  V30 213 H 16.127 2.37364 -6.01887 0
M  V30 214 N 16.2591 1.48442 0.529413 0
M  V30 215 C 17.5081 1.55742 1.28169 0
M  V30 216 C 17.8211 0.236511 1.94165 0
M  V30 217 O 19.0271 0.187761 2.7085 0
M  V30 218 C 17.4831 2.74667 2.32564 0
M  V30 219 C 17.0911 4.13402 1.72636 0
M  V30 220 C 18.8351 2.9128 3.08798 0
M  V30 221 C 16.7421 5.23587 2.74975 0
M  V30 222 H 15.6721 0.579796 0.48203 0
M  V30 223 H 18.3231 1.74776 0.559056 0
M  V30 224 H 16.7051 2.49067 3.07866 0
M  V30 225 H 17.8791 4.49022 1.03519 0
M  V30 226 H 16.1941 4.0191 1.08892 0
M  V30 227 H 18.7911 3.70767 3.85274 0
M  V30 228 H 19.1341 2.00757 3.64695 0
M  V30 229 H 19.6671 3.16782 2.40611 0
M  V30 230 H 16.4061 6.16076 2.23897 0
M  V30 231 H 15.9261 4.92454 3.42417 0
M  V30 232 H 17.6051 5.51724 3.37949 0
M  V30 233 N 17.7372 -0.778329 1.37039 0
M  V30 234 C 19.0142 -1.52551 1.22424 0
M  V30 235 C 19.3942 -2.10288 -0.184964 0
M  V30 236 O 18.7422 -1.94953 -1.19187 0
M  V30 237 C 18.9522 -2.61164 2.31504 0
M  V30 238 C 20.3002 -3.28746 2.68721 0
M  V30 239 O 21.3242 -2.71455 2.30631 0
M  V30 240 O 20.1832 -4.3231 3.3432 0
M  V30 241 H 17.2772 -0.675343 0.477326 0
M  V30 242 H 19.8232 -0.815859 1.48801 0
M  V30 243 H 18.5952 -2.16574 3.25901 0
M  V30 244 H 18.2182 -3.39737 2.06554 0
M  V30 245 N 19.2153 -1.21501 -1.00376 0
M  V30 246 C 20.1783 -0.976927 -2.07337 0
M  V30 247 C 21.1783 0.0525322 -1.60714 0
M  V30 248 O 22.3683 -0.184869 -1.73216 0
M  V30 249 C 19.5003 -0.473423 -3.37597 0
M  V30 250 H 20.6933 -1.92587 -2.29892 0
M  V30 251 H 18.2463 -1.03217 -1.17371 0
M  V30 252 H 18.9813 0.480379 -3.20722 0
M  V30 253 H 18.7663 -1.216 -3.72768 0
M  V30 254 H 20.2563 -0.32675 -4.1632 0
M  V30 255 N 20.6934 1.19889 -1.02296 0
M  V30 256 C 21.6564 2.21116 -0.603351 0
M  V30 257 C 22.6564 1.5738 0.329884 0
M  V30 258 O 23.8464 1.73802 0.117702 0
M  V30 259 C 20.9784 3.40696 0.117992 0
M  V30 260 H 22.1714 2.59754 -1.49893 0
M  V30 261 H 19.7244 1.33463 -0.813468 0
M  V30 262 H 20.4594 3.07569 1.0282 0
M  V30 263 H 20.2444 3.88188 -0.552511 0
M  V30 264 H 21.7344 4.15692 0.398696 0
M  V30 265 N 22.1715 0.800033 1.35784 0
M  V30 266 C 23.4175 0.377901 1.99248 0
M  V30 267 C 23.7505 -1.05052 1.63333 0
M  V30 268 O 23.0255 -1.72768 0.893385 0
M  V30 269 C 23.3085 0.553922 3.55814 0
M  V30 270 C 23.1615 2.0268 4.01548 0
M  V30 271 C 24.4805 -0.0244802 4.40093 0
M  V30 272 H 21.5995 0.138782 0.723815 0
M  V30 273 H 24.2415 1.00835 1.61035 0
M  V30 274 H 22.3915 0.0172398 3.88496 0
M  V30 275 H 24.0635 2.62536 3.79305 0
M  V30 276 H 22.3065 2.5256 3.52698 0
M  V30 277 H 22.9775 2.10087 5.10458 0
M  V30 278 H 25.4535 0.433775 4.13833 0
M  V30 279 H 24.3295 0.128637 5.48749 0
M  V30 280 H 24.5905 -1.11758 4.27741 0
M  V30 281 N 23.6496 -1.47581 0.552962 0
M  V30 282 C 24.5596 -2.33743 -0.200353 0
M  V30 283 C 25.5756 -1.47928 -0.916151 0
M  V30 284 O 26.7516 -1.80865 -0.885993 0
M  V30 285 C 23.8166 -3.24536 -1.21973 0
M  V30 286 C 22.8776 -4.26238 -0.511819 0
M  V30 287 C 22.1106 -5.12693 -1.48263 0
M  V30 288 O 22.3336 -5.01525 -2.71714 0
M  V30 289 O 21.2676 -5.93375 -1.00945 0
M  V30 290 H 25.0936 -2.9945 0.506304 0
M  V30 291 H 22.6786 -1.46071 0.313622 0
M  V30 292 H 24.5606 -3.80631 -1.80827 0
M  V30 293 H 23.2356 -2.61462 -1.90839 0
M  V30 294 H 22.1426 -3.73914 0.117799 0
M  V30 295 H 23.4756 -4.92014 0.135308 0
M  V30 296 N 25.1277 -0.289203 -1.54924 0
M  V30 297 C 26.3737 0.323998 -2.00195 0
M  V30 298 C 26.7067 1.54441 -1.17735 0
M  V30 299 O 25.9817 1.92875 -0.250878 0
M  V30 300 C 26.2647 0.692276 -3.53383 0
M  V30 301 C 26.1177 -0.536457 -4.46589 0
M  V30 302 C 27.4367 1.52335 -4.12895 0
M  V30 303 H 24.5557 0.116289 -0.727768 0
M  V30 304 H 27.1977 -0.398954 -1.85764 0
M  V30 305 H 25.3477 1.30822 -3.65811 0
M  V30 306 H 27.0197 -1.17499 -4.46085 0
M  V30 307 H 25.2627 -1.17192 -4.1767 0
M  V30 308 H 25.9337 -0.234806 -5.515 0
M  V30 309 H 28.4097 1.00302 -4.0383 0
M  V30 310 H 27.2857 1.74982 -5.20262 0
M  V30 311 H 27.5467 2.50886 -3.64018 0
M  V30 312 N 26.6058 1.57591 -0.0167156 0
M  V30 313 C 27.8548 1.90461 0.663877 0
M  V30 314 C 28.1678 0.893515 1.73999 0
M  V30 315 O 29.3738 1.11302 2.47637 0
M  V30 316 C 27.8298 3.38155 1.23204 0
M  V30 317 C 27.4378 4.47597 0.189866 0
M  V30 318 C 29.1818 3.80111 1.88986 0
M  V30 319 C 27.0888 5.86379 0.768964 0
M  V30 320 H 26.0188 0.710738 0.251729 0
M  V30 321 H 28.6698 1.83326 -0.0799926 0
M  V30 322 H 27.0518 3.40182 2.02712 0
M  V30 323 H 28.2258 4.57112 -0.581846 0
M  V30 324 H 26.5408 4.14766 -0.368475 0
M  V30 325 H 29.1378 4.81145 2.33247 0
M  V30 326 H 29.4808 3.14511 2.72743 0
M  V30 327 H 30.0138 3.80454 1.16187 0
M  V30 328 H 26.7528 6.55493 -0.0301957 0
M  V30 329 H 26.2728 5.80496 1.50945 0
M  V30 330 H 27.9518 6.34563 1.26251 0
M  V30 331 N 28.0839 -0.256276 1.55502 0
M  V30 332 C 29.0469 -1.30047 1.88734 0
M  V30 333 C 30.0469 -1.4154 0.763086 0
M  V30 334 O 31.2369 -1.40403 1.03115 0
M  V30 335 C 28.3689 -2.67953 2.10747 0
M  V30 336 H 29.5619 -1.01802 2.82093 0
M  V30 337 H 27.1149 -0.495134 1.4825 0
M  V30 338 H 27.8499 -3.01351 1.19825 0
M  V30 339 H 27.6349 -2.60993 2.92617 0
M  V30 340 H 29.1249 -3.43368 2.37673 0
M  V30 341 N 29.562 -1.4872 -0.521534 0
M  V30 342 C 30.472 -1.66569 -1.65203 0
M  V30 343 C 31.488 -0.548197 -1.65139 0
M  V30 344 O 32.664 -0.820339 -1.83936 0
M  V30 345 C 29.729 -1.70917 -3.01642 0
M  V30 346 C 28.79 -2.94356 -3.12495 0
M  V30 347 C 28.023 -2.98487 -4.42426 0
M  V30 348 O 28.246 -2.10786 -5.30024 0
M  V30 349 O 27.18 -3.90746 -4.57822 0
M  V30 350 H 31.006 -2.62298 -1.5308 0
M  V30 351 H 28.591 -1.3222 -0.695565 0
M  V30 352 H 30.473 -1.7625 -3.82771 0
M  V30 353 H 29.148 -0.783633 -3.14071 0
M  V30 354 H 28.055 -2.94552 -2.3063 0
M  V30 355 H 29.388 -3.86322 -3.04986 0
M  V30 356 N 31.0401 0.771051 -1.3745 0
M  V30 357 C 31.9881 1.90574 -1.33358 0
M  V30 358 C 32.9821 1.67936 -0.22224 0
M  V30 359 O 34.1881 1.75717 -0.390304 0
M  V30 360 H 30.5631 0.626714 -0.415612 0
M  V30 361 H 32.5341 1.91142 -2.29144 0
M  V30 362 C 31.2831 3.27845 -1.15813 0
M  V30 363 H 30.6061 3.45842 -2.00583 0
M  V30 364 H 32.0461 4.07538 -1.17 0
M  V30 365 C 30.5051 3.36625 0.136165 0
M  V30 366 O 31.0351 3.85785 1.11949 0
M  V30 367 N 29.2411 2.89997 0.187099 0
M  V30 368 H 28.7881 2.50182 -0.613753 0
M  V30 369 H 28.7461 2.96252 1.05272 0
M  V30 370 N 32.5182 1.22032 0.997298 0
M  V30 371 C 33.7662 1.04016 1.73278 0
M  V30 372 C 34.0872 -0.426255 1.90284 0
M  V30 373 O 33.3572 -1.30694 1.45931 0
M  V30 374 H 31.9372 0.381897 0.642 0
M  V30 375 H 34.5992 1.5347 1.20137 0
M  V30 376 H 33.6952 1.51441 2.72896 0
M  V30 377 N 33.9963 -1.19345 1.0293 0
M  V30 378 C 35.2263 -1.92717 0.744563 0
M  V30 379 C 35.6343 -1.75751 -0.700579 0
M  V30 380 O 34.9773 -1.07703 -1.48815 0
M  V30 381 C 35.0393 -3.44828 1.01657 0
M  V30 382 C 34.7033 -3.85564 2.45335 0
M  V30 383 C 35.7003 -3.90286 3.43472 0
M  V30 384 C 33.3853 -4.1719 2.79746 0
M  V30 385 C 35.3793 -4.26065 4.74075 0
M  V30 386 C 33.0663 -4.52642 4.10559 0
M  V30 387 C 34.0643 -4.57054 5.07534 0
M  V30 388 O 33.7523 -4.91685 6.36004 0
M  V30 389 H 33.4843 -0.618977 0.271742 0
M  V30 390 H 36.0383 -1.52415 1.37691 0
M  V30 391 H 34.2683 -3.85314 0.327084 0
M  V30 392 H 35.9573 -3.99437 0.721427 0
M  V30 393 H 36.7233 -3.66002 3.18225 0
M  V30 394 H 32.6023 -4.1294 2.04943 0
M  V30 395 H 36.1463 -4.29423 5.49765 0
M  V30 396 H 32.0433 -4.76383 4.35579 0
M  V30 397 H 32.8113 -5.09631 6.40483 0
M  V30 398 N 35.4744 -0.807222 -1.35358 0
M  V30 399 C 36.4244 -0.190706 -2.27201 0
M  V30 400 C 37.4084 0.635838 -1.47804 0
M  V30 401 O 38.6004 0.492991 -1.69996 0
M  V30 402 C 35.7294 0.659337 -3.36909 0
M  V30 403 C 34.8154 -0.176971 -4.23731 0
M  V30 404 N 35.2064 -1.24029 -4.90357 0
M  V30 405 C 33.5044 0.0412953 -4.45981 0
M  V30 406 C 34.2054 -1.75092 -5.54723 0
M  V30 407 N 33.1814 -1.05727 -5.33219 0
M  V30 408 H 36.9834 -1.0043 -2.76208 0
M  V30 409 H 34.4974 -0.648445 -1.48892 0
M  V30 410 H 36.4944 1.11706 -4.01656 0
M  V30 411 H 35.1544 1.47127 -2.89454 0
M  V30 412 H 36.1654 -1.62295 -4.91814 0
M  V30 413 H 32.8424 0.82232 -4.09322 0
M  V30 414 H 34.2324 -2.63963 -6.17878 0
M  V30 415 N 36.9525 1.47285 -0.560781 0
M  V30 416 C 37.8845 2.28118 0.222438 0
M  V30 417 C 38.8975 1.37219 0.876056 0
M  V30 418 O 40.0865 1.62011 0.749307 0
M  V30 419 C 37.1865 3.1159 1.33285 0
M  V30 420 C 36.3595 4.30473 0.77534 0
M  V30 421 C 35.4185 4.95513 1.77069 0
M  V30 422 O 34.4445 5.53792 1.31539 0
M  V30 423 N 35.6465 4.90531 3.10418 0
M  V30 424 H 38.4115 2.95976 -0.470958 0
M  V30 425 H 35.9725 1.56955 -0.39709 0
M  V30 426 H 37.9645 3.51967 1.99752 0
M  V30 427 H 36.5345 2.45951 1.92943 0
M  V30 428 H 35.7545 3.94144 -0.0662113 0
M  V30 429 H 37.0425 5.07362 0.382272 0
M  V30 430 H 36.4405 4.44389 3.5005 0
M  V30 431 H 34.9975 5.34917 3.72434 0
M  V30 432 N 38.4306 0.297415 1.54768 0
M  V30 433 C 39.6556 -0.318435 2.04941 0
M  V30 434 C 40.0806 -1.4701 1.17345 0
M  V30 435 O 39.4386 -1.80436 0.176758 0
M  V30 436 C 39.4866 -0.755749 3.52592 0
M  V30 437 O 38.5906 -1.86088 3.68028 0
M  V30 438 H 37.9316 -0.062421 0.661059 0
M  V30 439 H 40.4616 0.438215 1.99852 0
M  V30 440 H 40.4716 -1.04552 3.94376 0
M  V30 441 H 39.1466 0.0867233 4.1581 0
M  V30 442 H 37.7236 -1.57193 3.38149 0
M  V30 443 N 39.9087 -1.5758 0.0250728 0
M  V30 444 C 40.8407 -2.06869 -0.986796 0
M  V30 445 C 41.8537 -0.991332 -1.29137 0
M  V30 446 O 43.0427 -1.26761 -1.25674 0
M  V30 447 C 40.1427 -2.47486 -2.31525 0
M  V30 448 C 39.3157 -3.78253 -2.19643 0
M  V30 449 C 38.3747 -4.05464 -3.35388 0
M  V30 450 O 37.4007 -4.75774 -3.12454 0
M  V30 451 N 38.6027 -3.55321 -4.59051 0
M  V30 452 H 41.3677 -2.94302 -0.566276 0
M  V30 453 H 38.9287 -1.6109 -0.161776 0
M  V30 454 H 40.9207 -2.62785 -3.07776 0
M  V30 455 H 39.4907 -1.65441 -2.65232 0
M  V30 456 H 38.7107 -3.7279 -1.28144 0
M  V30 457 H 39.9987 -4.63936 -2.08903 0
M  V30 458 H 39.3967 -2.98431 -4.80578 0
M  V30 459 H 37.9537 -3.75905 -5.32483 0
M  V30 460 N 41.3868 0.248026 -1.55636 0
M  V30 461 C 42.6328 0.97767 -1.77678 0
M  V30 462 C 42.9658 1.85016 -0.590135 0
M  V30 463 O 42.2408 1.90095 0.411611 0
M  V30 464 C 42.5238 1.83914 -3.09593 0
M  V30 465 C 42.3768 0.99491 -4.38659 0
M  V30 466 C 43.6958 2.82183 -3.37729 0
M  V30 467 H 40.8148 0.354005 -0.646413 0
M  V30 468 H 43.4568 0.248253 -1.88371 0
M  V30 469 H 41.6068 2.46104 -3.00608 0
M  V30 470 H 43.2788 0.391789 -4.59633 0
M  V30 471 H 41.5218 0.299231 -4.32767 0
M  V30 472 H 42.1928 1.63145 -5.2734 0
M  V30 473 H 44.6688 2.30129 -3.4667 0
M  V30 474 H 43.5448 3.39582 -4.31249 0
M  V30 475 H 43.8058 3.58588 -2.58586 0
M  V30 476 N 42.8649 1.48995 0.513639 0
M  V30 477 C 44.0899 1.61792 1.29762 0
M  V30 478 C 44.5149 0.284475 1.85936 0
M  V30 479 O 43.8729 -0.746185 1.65232 0
M  V30 480 C 43.9209 2.67993 2.41272 0
M  V30 481 O 43.0249 2.26287 3.44772 0
M  V30 482 H 42.3659 0.541963 0.38363 0
M  V30 483 H 44.8959 1.95097 0.616307 0
M  V30 484 H 44.9059 2.89772 2.87221 0
M  V30 485 H 43.5809 3.64791 1.9975 0
M  V30 486 H 42.1579 2.14788 3.04829 0
M  V30 487 N 44.343 -0.763751 1.37857 0
M  V30 488 C 45.29 -1.87726 1.34267 0
M  V30 489 C 46.26 -1.64807 0.206879 0
M  V30 490 O 47.445 -1.86613 0.397508 0
M  V30 491 C 44.585 -3.24896 1.16346 0
M  V30 492 C 43.698 -3.59716 2.39225 0
M  V30 493 C 42.833 -4.86137 2.14114 0
M  V30 494 C 41.872 -5.13711 3.32817 0
M  V30 495 N 41.009 -6.31323 3.07206 0
M  V30 496 H 45.849 -1.90129 2.29466 0
M  V30 497 H 43.386 -0.929433 1.14017 0
M  V30 498 H 45.344 -4.04036 1.03975 0
M  V30 499 H 43.974 -3.21847 0.247909 0
M  V30 500 H 43.026 -2.75498 2.62307 0
M  V30 501 H 44.338 -3.76027 3.27728 0
M  V30 502 H 43.492 -5.73198 1.9882 0
M  V30 503 H 42.231 -4.71945 1.22961 0
M  V30 504 H 41.236 -4.25123 3.48641 0
M  V30 505 H 42.461 -5.29807 4.24832 0
M  V30 506 H 40.407 -6.18474 2.1869 0
M  V30 507 H 40.324 -6.48087 3.89254 0
M  V30 508 H 41.592 -7.213 2.95546 0
M  V30 509 N 45.8211 -1.22559 -0.990812 0
M  V30 510 C 47.0701 -1.04553 -1.72486 0
M  V30 511 C 47.3831 0.419349 -1.91052 0
M  V30 512 O 48.5891 0.719121 -2.61803 0
M  V30 513 C 47.0451 -1.82231 -3.10355 0
M  V30 514 C 46.6531 -3.32981 -2.99713 0
M  V30 515 C 48.3971 -1.7268 -3.87791 0
M  V30 516 C 46.3041 -4.03091 -4.32748 0
M  V30 517 H 45.2341 -0.387614 -0.646739 0
M  V30 518 H 47.8851 -1.46429 -1.10593 0
M  V30 519 H 46.2671 -1.33155 -3.72942 0
M  V30 520 H 47.4411 -3.89466 -2.46278 0
M  V30 521 H 45.7561 -3.43231 -2.35758 0
M  V30 522 H 48.3531 -2.22381 -4.86262 0
M  V30 523 H 48.6961 -0.687607 -4.10582 0
M  V30 524 H 49.2291 -2.1931 -3.31885 0
M  V30 525 H 45.9681 -5.07273 -4.15156 0
M  V30 526 H 45.4881 -3.51394 -4.86089 0
M  V30 527 H 47.1671 -4.08804 -5.01486 0
M  V30 528 N 47.2992 1.18797 -1.03562 0
M  V30 529 C 48.2622 2.20464 -0.626769 0
M  V30 530 C 49.2622 1.57721 0.313173 0
M  V30 531 O 50.4522 1.73917 0.0992615 0
M  V30 532 C 47.5842 3.40802 0.0818498 0
M  V30 533 H 48.7772 2.58149 -1.5264 0
M  V30 534 H 46.3302 1.32593 -0.827578 0
M  V30 535 H 47.0652 3.08642 0.995518 0
M  V30 536 H 46.8502 3.8758 -0.593652 0
M  V30 537 H 48.3402 4.16092 0.354584 0
M  V30 538 N 48.7773 0.814389 1.34928 0
M  V30 539 C 49.7243 0.22822 2.29669 0
M  V30 540 C 50.6943 -0.642164 1.53184 0
M  V30 541 O 51.8793 -0.585605 1.81591 0
M  V30 542 C 49.0193 -0.61089 3.3965 0
M  V30 543 C 48.1323 0.280792 4.31086 0
M  V30 544 C 47.2673 -0.567067 5.28165 0
M  V30 545 C 46.3063 0.324531 6.11239 0
M  V30 546 N 45.4433 -0.483756 7.00431 0
M  V30 547 H 50.2833 1.04153 2.79206 0
M  V30 548 H 47.8203 0.525133 1.37407 0
M  V30 549 H 49.7783 -1.11263 4.0209 0
M  V30 550 H 48.4083 -1.38939 2.91369 0
M  V30 551 H 47.4603 0.900688 3.69583 0
M  V30 552 H 48.7723 0.966723 4.89342 0
M  V30 553 H 47.9263 -1.13363 5.96015 0
M  V30 554 H 46.6653 -1.28654 4.70425 0
M  V30 555 H 45.6703 0.903298 5.42329 0
M  V30 556 H 46.8953 1.04198 6.71059 0
M  V30 557 H 44.8413 -1.18706 6.45171 0
M  V30 558 H 44.7583 0.143965 7.55863 0
M  V30 559 H 46.0263 -1.03334 7.7262 0
M  V30 560 N 50.2554 -1.46986 0.568584 0
M  V30 561 C 51.1874 -2.28233 -0.210337 0
M  V30 562 C 52.2004 -1.37682 -0.868767 0
M  V30 563 O 53.3894 -1.62406 -0.740705 0
M  V30 564 C 50.4894 -3.12293 -1.3163 0
M  V30 565 C 49.6624 -4.30878 -0.7525 0
M  V30 566 C 48.7214 -4.96445 -1.74439 0
M  V30 567 O 47.7474 -5.54482 -1.286 0
M  V30 568 N 48.9494 -4.92171 -3.07812 0
M  V30 569 H 51.7144 -2.95723 0.486648 0
M  V30 570 H 49.2754 -1.56742 0.405409 0
M  V30 571 H 51.2674 -3.53022 -1.97883 0
M  V30 572 H 49.8374 -2.46971 -1.91636 0
M  V30 573 H 49.0574 -3.94104 0.0871128 0
M  V30 574 H 50.3454 -5.07558 -0.35536 0
M  V30 575 H 49.7434 -4.46239 -3.47688 0
M  V30 576 H 48.3004 -5.36884 -3.69592 0
M  V30 577 N 51.7335 -0.305618 -1.54608 0
M  V30 578 C 52.6965 0.555591 -2.22364 0
M  V30 579 C 53.6965 1.05768 -1.21119 0
M  V30 580 O 54.8865 0.952972 -1.45822 0
M  V30 581 C 52.0185 1.76974 -2.91364 0
M  V30 582 H 53.2115 -0.0364572 -2.99878 0
M  V30 583 H 50.7645 -0.0565007 -1.56198 0
M  V30 584 H 51.4995 2.40151 -2.17941 0
M  V30 585 H 51.2845 1.41732 -3.65588 0
M  V30 586 H 52.7745 2.38148 -3.43038 0
M  V30 587 N 53.2116 1.57565 -0.0334293 0
M  V30 588 C 54.4596 1.91598 0.642999 0
M  V30 589 C 54.7806 0.910847 1.7242 0
M  V30 590 O 54.0506 -0.0469931 1.95844 0
M  V30 591 H 52.6306 0.707228 0.240496 0
M  V30 592 H 55.2926 1.94726 -0.0822488 0
M  V30 593 H 54.3886 2.92336 1.09298 0
M  V30 594 N 54.6897 -0.239769 1.55765 0
M  V30 595 C 55.9357 -0.968234 1.78194 0
M  V30 596 C 56.2687 -1.84701 0.599938 0
M  V30 597 O 55.5437 -1.9031 -0.401524 0
M  V30 598 C 55.8267 -1.8227 3.10564 0
M  V30 599 C 55.6797 -0.971633 4.3918 0
M  V30 600 C 56.9987 -2.80388 3.39221 0
M  V30 601 H 54.1177 -0.350572 0.648281 0
M  V30 602 H 56.7597 -0.238259 1.885 0
M  V30 603 H 54.9097 -2.44507 3.01908 0
M  V30 604 H 56.5817 -0.367408 4.59835 0
M  V30 605 H 54.8247 -0.276276 4.32919 0
M  V30 606 H 55.4957 -1.60346 5.28198 0
M  V30 607 H 57.9717 -2.28287 3.47885 0
M  V30 608 H 56.8477 -3.3729 4.33044 0
M  V30 609 H 57.1087 -3.57212 2.60484 0
M  V30 610 N 56.1678 -1.49265 -0.50573 0
M  V30 611 C 57.1308 -1.65075 -1.59006 0
M  V30 612 C 58.1308 -0.522768 -1.52065 0
M  V30 613 O 59.3208 -0.789117 -1.55302 0
M  V30 614 C 56.4528 -1.64369 -2.98656 0
M  V30 615 H 57.6458 -2.61784 -1.46319 0
M  V30 616 H 55.1988 -1.38226 -0.729616 0
M  V30 617 H 55.9338 -0.692272 -3.16825 0
M  V30 618 H 55.7188 -2.46282 -3.05103 0
M  V30 619 H 57.2088 -1.78674 -3.77446 0
M  V30 620 N 57.6459 0.756429 -1.3826 0
M  V30 621 C 58.9229 1.50584 -1.24835 0
M  V30 622 C 59.3029 2.10556 0.151485 0
M  V30 623 O 58.6509 1.96825 1.1607 0
M  V30 624 C 58.8609 2.57448 -2.3563 0
M  V30 625 C 60.2089 3.24429 -2.73917 0
M  V30 626 O 61.2329 2.67751 -2.34921 0
M  V30 627 O 60.0919 4.26937 -3.41156 0
M  V30 628 H 57.1859 0.667664 -0.48801 0
M  V30 629 H 59.7319 0.792083 -1.5008 0
M  V30 630 H 58.5039 2.11362 -3.29305 0
M  V30 631 H 58.1269 3.36408 -2.11933 0
M  V30 632 N 59.124 1.23083 0.984299 0
M  V30 633 C 60.372 1.05848 1.72165 0
M  V30 634 C 60.693 -0.406049 1.90726 0
M  V30 635 O 59.963 -1.29139 1.47309 0
M  V30 636 H 58.543 0.388685 0.637913 0
M  V30 637 H 61.205 1.54736 1.18503 0
M  V30 638 H 60.301 1.54327 2.71274 0
M  V30 639 N 60.6021 -1.18246 1.0419 0
M  V30 640 C 61.8301 -1.92195 0.766072 0
M  V30 641 C 62.2451 -1.76247 -0.676933 0
M  V30 642 O 61.6021 -1.09293 -1.46155 0
M  V30 643 C 61.6531 -3.43568 1.12442 0
M  V30 644 O 61.3741 -3.59015 2.51078 0
M  V30 645 C 62.8751 -4.34613 0.873275 0
M  V30 646 H 60.0951 -0.610114 0.279288 0
M  V30 647 H 62.6391 -1.50007 1.38989 0
M  V30 648 H 60.7941 -3.8354 0.545542 0
M  V30 649 H 61.2081 -4.5273 2.64831 0
M  V30 650 H 62.6821 -5.39374 1.17385 0
M  V30 651 H 63.1591 -4.38781 -0.191909 0
M  V30 652 H 63.7651 -4.00341 1.43551 0
M  V30 653 N 62.0802 -0.821533 -1.34494 0
M  V30 654 C 63.3292 -0.405355 -1.97585 0
M  V30 655 C 63.6422 1.03677 -1.65863 0
M  V30 656 O 64.8482 1.55679 -2.22433 0
M  V30 657 C 63.3042 -0.673861 -3.53535 0
M  V30 658 C 62.9122 -2.12951 -3.94152 0
M  V30 659 C 64.6562 -0.32378 -4.23263 0
M  V30 660 C 62.5632 -2.34298 -5.43009 0
M  V30 661 H 61.4932 -0.147836 -0.739365 0
M  V30 662 H 64.1442 -1.00769 -1.53355 0
M  V30 663 H 62.5262 -0.00137554 -3.96 0
M  V30 664 H 63.7002 -2.84104 -3.62797 0
M  V30 665 H 62.0152 -2.44089 -3.37356 0
M  V30 666 H 64.6122 -0.461126 -5.32708 0
M  V30 667 H 64.9552 0.731586 -4.09821 0
M  V30 668 H 65.4882 -0.950786 -3.8627 0
M  V30 669 H 62.2272 -3.38335 -5.61435 0
M  V30 670 H 61.7472 -1.67687 -5.75883 0
M  V30 671 H 63.4262 -2.16588 -6.09671 0
M  V30 672 N 63.5583 1.46682 -0.576371 0
M  V30 673 C 64.7883 2.06498 -0.0648694 0
M  V30 674 C 65.1963 1.42665 1.24271 0
M  V30 675 O 64.5393 0.523886 1.76071 0
M  V30 676 C 64.6013 3.5904 0.181816 0
M  V30 677 C 64.2653 4.45028 -1.0392 0
M  V30 678 C 65.2623 4.81959 -1.94966 0
M  V30 679 C 62.9473 4.86259 -1.25927 0
M  V30 680 C 64.9413 5.58942 -3.06371 0
M  V30 681 C 62.6283 5.63002 -2.37638 0
M  V30 682 C 63.6263 5.99257 -3.2769 0
M  V30 683 O 63.3143 6.7445 -4.37461 0
M  V30 684 H 63.0463 0.674028 -0.0515987 0
M  V30 685 H 65.6003 1.89393 -0.794951 0
M  V30 686 H 63.8303 3.74429 0.966436 0
M  V30 687 H 65.5193 4.00806 0.641047 0
M  V30 688 H 66.2853 4.50689 -1.79177 0
M  V30 689 H 62.1643 4.57494 -0.567448 0
M  V30 690 H 65.7083 5.87158 -3.76684 0
M  V30 691 H 61.6053 5.93686 -2.53392 0
M  V30 692 H 62.3733 6.92867 -4.35749 0
M  V30 693 N 65.0364 0.313813 1.54444 0
M  V30 694 C 65.9664 -0.549454 2.26943 0
M  V30 695 C 66.9474 -1.12741 1.27372 0
M  V30 696 O 68.1324 -1.15436 1.56167 0
M  V30 697 C 65.2624 -1.71523 3.01989 0
M  V30 698 C 64.2164 -1.26703 4.08816 0
M  V30 699 C 63.5424 -2.51898 4.71647 0
M  V30 700 C 64.8424 -0.388962 5.2085 0
M  V30 701 H 66.5364 0.0552661 2.99349 0
M  V30 702 H 64.0824 0.0280207 1.43973 0
M  V30 703 H 66.0354 -2.32535 3.51433 0
M  V30 704 H 64.7594 -2.34639 2.27183 0
M  V30 705 H 63.4184 -0.679896 3.6024 0
M  V30 706 H 63.0664 -3.13356 3.93468 0
M  V30 707 H 62.7664 -2.22605 5.43802 0
M  V30 708 H 64.2904 -3.1369 5.23861 0
M  V30 709 H 65.7044 -0.905107 5.6611 0
M  V30 710 H 64.1014 -0.18924 5.99802 0
M  V30 711 H 65.1714 0.582699 4.81386 0
M  V30 712 N 66.5145 -1.57545 0.0417849 0
M  V30 713 C 67.7445 -1.96339 -0.642995 0
M  V30 714 C 68.1525 -0.917536 -1.65463 0
M  V30 715 O 67.4955 0.107747 -1.83384 0
M  V30 716 C 67.5575 -3.31333 -1.39494 0
M  V30 717 C 67.2215 -4.53796 -0.540204 0
M  V30 718 C 68.2185 -5.19553 0.189806 0
M  V30 719 C 65.9035 -5.0006 -0.473886 0
M  V30 720 C 67.8975 -6.29904 0.974674 0
M  V30 721 C 65.5845 -6.10289 0.314677 0
M  V30 722 C 66.5825 -6.75072 1.03765 0
M  V30 723 O 66.2705 -7.83183 1.81327 0
M  V30 724 H 66.0025 -0.651241 -0.181277 0
M  V30 725 H 68.5565 -2.05148 0.101665 0
M  V30 726 H 66.7865 -3.19052 -2.18502 0
M  V30 727 H 68.4755 -3.54942 -1.96904 0
M  V30 728 H 69.2415 -4.84774 0.147981 0
M  V30 729 H 65.1205 -4.49433 -1.0262 0
M  V30 730 H 68.6645 -6.80401 1.5395 0
M  V30 731 H 64.5615 -6.44506 0.358174 0
M  V30 732 H 65.3295 -7.99913 1.73438 0
M  V30 733 N 67.9926 0.231505 -1.5589 0
M  V30 734 C 69.2396 0.957352 -1.78441 0
M  V30 735 C 69.5676 1.84726 -0.60882 0
M  V30 736 O 68.8226 1.91416 0.40725 0
M  V30 737 C 69.1216 1.83577 -3.0665 0
M  V30 738 C 68.7876 1.09993 -4.37278 0
M  V30 739 C 67.4496 0.896629 -4.72773 0
M  V30 740 C 69.8016 0.579558 -5.17968 0
M  V30 741 C 67.1296 0.160896 -5.86479 0
M  V30 742 C 69.4816 -0.142783 -6.32439 0
M  V30 743 C 68.1456 -0.357427 -6.66542 0
M  V30 744 H 67.4156 0.35032 -0.65296 0
M  V30 745 H 70.0626 0.226259 -1.90159 0
M  V30 746 H 68.3676 2.63441 -2.90011 0
M  V30 747 H 70.0646 2.39934 -3.21298 0
M  V30 748 H 66.6546 1.26835 -4.09403 0
M  V30 749 H 70.8386 0.724125 -4.90989 0
M  V30 750 H 66.0946 -0.0157293 -6.11398 0
M  V30 751 H 70.2686 -0.553559 -6.94196 0
M  V30 752 H 67.8956 -0.929466 -7.54497 0
M  V30 753 N 69.4707 1.49531 0.497807 0
M  V30 754 C 70.4177 1.66436 1.59899 0
M  V30 755 C 71.3877 0.505793 1.58212 0
M  V30 756 O 72.5727 0.733202 1.7615 0
M  V30 757 C 69.7127 1.7399 2.98029 0
M  V30 758 C 68.8257 3.01172 3.09708 0
M  V30 759 C 67.9607 2.99686 4.38591 0
M  V30 760 C 66.9997 4.21434 4.43914 0
M  V30 761 N 66.1367 4.1784 5.64229 0
M  V30 762 H 70.9767 2.60459 1.44793 0
M  V30 763 H 68.5137 1.29137 0.704423 0
M  V30 764 H 70.4717 1.76352 3.78095 0
M  V30 765 H 69.1017 0.834301 3.11832 0
M  V30 766 H 68.1537 3.08408 2.22685 0
M  V30 767 H 69.4657 3.91165 3.09502 0
M  V30 768 H 68.6197 3.00628 5.2698 0
M  V30 769 H 67.3587 2.07477 4.41367 0
M  V30 770 H 66.3637 4.20733 3.53926 0
M  V30 771 H 67.5887 5.14839 4.42851 0
M  V30 772 H 65.5347 3.28469 5.67841 0
M  V30 773 H 65.4517 5.01571 5.65652 0
M  V30 774 H 66.7197 4.22889 6.54817 0
M  V30 775 N 70.9488 -0.749086 1.3866 0
M  V30 776 C 71.8968 -1.88428 1.36373 0
M  V30 777 C 72.8908 -1.67561 0.248929 0
M  V30 778 O 74.0968 -1.75074 0.41821 0
M  V30 779 H 70.4718 -0.620023 0.42553 0
M  V30 780 H 72.4428 -1.87473 2.32156 0
M  V30 781 C 71.1918 -3.25961 1.21014 0
M  V30 782 H 70.5148 -3.42607 2.06059 0
M  V30 783 H 71.9548 -4.05625 1.23469 0
M  V30 784 C 70.4138 -3.36799 -0.0825941 0
M  V30 785 O 70.9438 -3.87517 -1.05797 0
M  V30 786 N 69.1498 -2.90258 -0.140939 0
M  V30 787 H 68.6968 -2.49174 0.653477 0
M  V30 788 H 68.6548 -2.97889 -1.00545 0
M  V30 789 N 72.4269 -1.23603 -0.977757 0
M  V30 790 C 73.3739 -1.01954 -2.07061 0
M  V30 791 C 74.3439 0.0638697 -1.65977 0
M  V30 792 O 75.5289 -0.0887624 -1.90593 0
M  V30 793 C 72.6689 -0.619658 -3.39491 0
M  V30 794 C 71.7819 -1.77547 -3.93829 0
M  V30 795 C 70.9169 -1.32212 -5.14484 0
M  V30 796 C 69.9559 -2.44852 -5.60994 0
M  V30 797 N 69.0929 -2.00456 -6.72876 0
M  V30 798 H 73.9329 -1.95495 -2.24913 0
M  V30 799 H 71.4699 -0.973861 -1.10247 0
M  V30 800 H 73.4279 -0.368898 -4.15566 0
M  V30 801 H 72.0579 0.278752 -3.21594 0
M  V30 802 H 71.1099 -2.14016 -3.14486 0
M  V30 803 H 72.4219 -2.62219 -4.24314 0
M  V30 804 H 71.5759 -1.02965 -5.97899 0
M  V30 805 H 70.3149 -0.445808 -4.85658 0
M  V30 806 H 69.3199 -2.74871 -4.76157 0
M  V30 807 H 70.5449 -3.33024 -5.91837 0
M  V30 808 H 68.4909 -1.15208 -6.45804 0
M  V30 809 H 68.4079 -2.78687 -7.02759 0
M  V30 810 H 69.6759 -1.7432 -7.59758 0
M  V30 811 N 73.905 1.17692 -1.04816 0
M  V30 812 C 74.815 2.25229 -0.65643 0
M  V30 813 C 75.831 1.71018 0.320761 0
M  V30 814 O 77.007 2.00649 0.173805 0
M  V30 815 C 74.072 3.46684 -0.0332629 0
M  V30 816 C 73.133 4.15997 -1.06042 0
M  V30 817 C 72.366 5.31654 -0.466893 0
M  V30 818 O 72.589 5.65777 0.724758 0
M  V30 819 O 71.523 5.89831 -1.1993 0
M  V30 820 H 75.349 2.61016 -1.55255 0
M  V30 821 H 72.934 1.24919 -0.81949 0
M  V30 822 H 74.816 4.20234 0.313256 0
M  V30 823 H 73.491 3.12703 0.836566 0
M  V30 824 H 72.398 3.44482 -1.45886 0
M  V30 825 H 73.731 4.53996 -1.90127 0
M  V30 826 N 75.3831 0.828654 1.34056 0
M  V30 827 C 76.6601 0.341809 1.9259 0
M  V30 828 C 77.0401 -1.17158 1.75605 0
M  V30 829 O 76.3881 -1.98132 1.13824 0
M  V30 830 C 76.5981 0.777453 3.4023 0
M  V30 831 C 77.9461 0.779579 4.17382 0
M  V30 832 O 78.9701 0.7204 3.48839 0
M  V30 833 O 77.8291 0.857996 5.39723 0
M  V30 834 H 74.9231 0.0946085 0.821571 0
M  V30 835 H 77.4691 0.913827 1.42994 0
M  V30 836 H 76.2411 1.8196 3.46419 0
M  V30 837 H 75.8641 0.181444 3.97186 0
M  V30 838 N 76.8612 -1.46375 0.584142 0
M  V30 839 C 78.1102 -2.01585 0.0679741 0
M  V30 840 C 78.4232 -1.46109 -1.30045 0
M  V30 841 O 79.6292 -1.93148 -1.90804 0
M  V30 842 C 78.0852 -3.5983 0.0709207 0
M  V30 843 C 77.6932 -4.24303 1.43775 0
M  V30 844 C 79.4372 -4.22693 -0.391228 0
M  V30 845 C 77.3442 -5.74631 1.39834 0
M  V30 846 H 76.2742 -0.753689 0.0216421 0
M  V30 847 H 78.9252 -1.68093 0.736001 0
M  V30 848 H 77.3072 -3.90405 -0.663299 0
M  V30 849 H 78.4812 -4.05335 2.19181 0
M  V30 850 H 76.7962 -3.73539 1.84004 0
M  V30 851 H 79.3932 -5.3289 -0.439524 0
M  V30 852 H 79.7362 -3.91728 -1.40906 0
M  V30 853 H 80.2692 -3.96749 0.288974 0
M  V30 854 H 77.0082 -6.10258 2.39303 0
M  V30 855 H 76.5282 -5.95858 0.686505 0
M  V30 856 H 78.2072 -6.37375 1.11187 0
M  V30 857 N 78.3393 -0.321999 -1.54275 0
M  V30 858 C 79.2693 0.537411 -2.27231 0
M  V30 859 C 80.2503 1.12064 -1.27968 0
M  V30 860 O 81.4353 1.14606 -1.56777 0
M  V30 861 C 78.5653 1.69919 -3.02894 0
M  V30 862 C 77.5193 1.24534 -4.09482 0
M  V30 863 C 76.8453 2.49394 -4.72977 0
M  V30 864 C 78.1453 0.361335 -5.21049 0
M  V30 865 H 79.8393 -0.0711406 -2.99315 0
M  V30 866 H 77.3853 -0.0356555 -1.43956 0
M  V30 867 H 79.3383 2.30668 -3.52662 0
M  V30 868 H 78.0623 2.33431 -2.28424 0
M  V30 869 H 76.7213 0.660782 -3.60596 0
M  V30 870 H 76.3693 3.11265 -3.95124 0
M  V30 871 H 76.0693 2.19718 -5.44975 0
M  V30 872 H 77.5933 3.10908 -5.25517 0
M  V30 873 H 79.0073 0.875072 -5.66582 0
M  V30 874 H 77.4043 0.157428 -5.99893 0
M  V30 875 H 78.4743 -0.60822 -4.8107 0
M  V30 876 N 79.8174 1.5752 -0.0501392 0
M  V30 877 C 81.0664 1.91827 0.623328 0
M  V30 878 C 81.3794 0.930222 1.72065 0
M  V30 879 O 82.5854 1.1653 2.4522 0
M  V30 880 C 81.0414 3.40692 1.16003 0
M  V30 881 C 80.6494 4.479 0.0948811 0
M  V30 882 C 82.3934 3.84034 1.80881 0
M  V30 883 C 80.3004 5.87879 0.644411 0
M  V30 884 H 79.2304 0.715918 0.236596 0
M  V30 885 H 81.8814 1.83115 -0.118861 0
M  V30 886 H 80.2634 3.44405 1.9545 0
M  V30 887 H 81.4374 4.55775 -0.678675 0
M  V30 888 H 79.7524 4.13892 -0.45637 0
M  V30 889 H 82.3494 4.85984 2.22988 0
M  V30 890 H 82.6924 3.20225 2.6601 0
M  V30 891 H 83.2254 3.82833 1.0809 0
M  V30 892 H 79.9644 6.55282 -0.169229 0
M  V30 893 H 79.4844 5.83567 1.38598 0
M  V30 894 H 81.1634 6.37098 1.12763 0
M  V30 895 N 81.2955 -0.223234 1.56011 0
M  V30 896 C 82.5205 -0.968978 1.83373 0
M  V30 897 C 82.9455 -1.77227 0.630254 0
M  V30 898 O 82.3035 -1.76345 -0.420959 0
M  V30 899 C 82.3515 -1.86363 3.08709 0
M  V30 900 O 81.4555 -2.95873 2.87285 0
M  V30 901 H 80.7965 -0.274461 0.604622 0
M  V30 902 H 83.3265 -0.237056 2.03222 0
M  V30 903 H 83.3365 -2.27376 3.38768 0
M  V30 904 H 82.0115 -1.27319 3.95933 0
M  V30 905 H 80.5885 -2.58818 2.68454 0
M  V30 906 N 82.7736 -1.49793 -0.48987 0
M  V30 907 C 83.7036 -1.70201 -1.59856 0
M  V30 908 C 84.6846 -0.55076 -1.60937 0
M  V30 909 O 85.8696 -0.787841 -1.77501 0
M  V30 910 C 82.9996 -1.77882 -2.98287 0
M  V30 911 C 81.9536 -2.92907 -3.12073 0
M  V30 912 C 81.2796 -2.85712 -4.51965 0
M  V30 913 C 82.5796 -4.3369 -2.91051 0
M  V30 914 H 84.2736 -2.63025 -1.43032 0
M  V30 915 H 81.8196 -1.26574 -0.686664 0
M  V30 916 H 83.7726 -1.90744 -3.75759 0
M  V30 917 H 82.4966 -0.816653 -3.16225 0
M  V30 918 H 81.1556 -2.79665 -2.37029 0
M  V30 919 H 80.8036 -1.8738 -4.66795 0
M  V30 920 H 80.5036 -3.62921 -4.62128 0
M  V30 921 H 82.0276 -3.00598 -5.31482 0
M  V30 922 H 83.4416 -4.47555 -3.58284 0
M  V30 923 H 81.8386 -5.12205 -3.12675 0
M  V30 924 H 82.9086 -4.47362 -1.87071 0
M  V30 925 N 84.2517 0.741722 -1.39055 0
M  V30 926 C 85.4987 1.50114 -1.35912 0
M  V30 927 C 85.8267 1.94443 0.0470937 0
M  V30 928 O 85.0817 1.66612 1.02659 0
M  V30 929 C 85.3807 2.7592 -2.27163 0
M  V30 930 C 85.0467 2.50493 -3.74919 0
M  V30 931 C 83.7087 2.43267 -4.1518 0
M  V30 932 C 86.0607 2.28585 -4.684 0
M  V30 933 C 83.3887 2.12166 -5.46994 0
M  V30 934 C 85.7407 1.99002 -6.00484 0
M  V30 935 C 84.4047 1.90241 -6.39816 0
M  V30 936 H 83.6747 0.549306 -0.497336 0
M  V30 937 H 86.3217 0.851896 -1.71508 0
M  V30 938 H 84.6267 3.45553 -1.84663 0
M  V30 939 H 86.3237 3.33923 -2.22028 0
M  V30 940 H 82.9137 2.56992 -3.43006 0
M  V30 941 H 87.0977 2.33139 -4.38132 0
M  V30 942 H 82.3537 2.03901 -5.76398 0
M  V30 943 H 86.5277 1.81057 -6.72452 0
M  V30 944 H 84.1547 1.65907 -7.41875 0
M  V30 945 N 85.7298 1.2412 0.971189 0
M  V30 946 C 86.6768 1.0305 2.06517 0
M  V30 947 C 87.6468 -0.0550666 1.66009 0
M  V30 948 O 88.8318 0.0988688 1.90544 0
M  V30 949 C 85.9718 0.637653 3.39158 0
M  V30 950 C 85.0848 1.79633 3.92882 0
M  V30 951 C 84.2198 1.34939 5.13775 0
M  V30 952 C 83.2588 2.47823 5.59687 0
M  V30 953 N 82.3958 2.04022 6.71803 0
M  V30 954 H 87.2358 1.96685 2.23873 0
M  V30 955 H 84.7728 0.979694 1.09729 0
M  V30 956 H 86.7308 0.390931 4.15364 0
M  V30 957 H 85.3608 -0.261693 3.21737 0
M  V30 958 H 84.4128 2.15681 3.13346 0
M  V30 959 H 85.7248 2.64466 4.22918 0
M  V30 960 H 84.8788 1.06134 5.97345 0
M  V30 961 H 83.6178 0.471557 4.85415 0
M  V30 962 H 82.6228 2.77392 4.74693 0
M  V30 963 H 83.8478 3.36158 5.90063 0
M  V30 964 H 81.7938 1.18632 6.45184 0
M  V30 965 H 81.7108 2.82409 7.01271 0
M  V30 966 H 82.9788 1.78347 7.58823 0
M  V30 967 N 87.2079 -1.17134 1.05439 0
M  V30 968 C 88.1179 -2.24878 0.668365 0
M  V30 969 C 89.1339 -1.71186 -0.311687 0
M  V30 970 O 90.3099 -2.00738 -0.163161 0
M  V30 971 C 87.3749 -3.46662 0.051648 0
M  V30 972 C 86.4359 -4.15429 1.08246 0
M  V30 973 C 85.6689 -5.31399 0.495082 0
M  V30 974 O 85.8919 -5.66153 -0.694743 0
M  V30 975 O 84.8259 -5.89187 1.23056 0
M  V30 976 H 88.6519 -2.60189 1.56637 0
M  V30 977 H 86.2369 -1.24482 0.826104 0
M  V30 978 H 88.1189 -4.20394 -0.290966 0
M  V30 979 H 86.7939 -3.13142 -0.819971 0
M  V30 980 H 85.7009 -3.43704 1.47711 0
M  V30 981 H 87.0339 -4.52982 1.92532 0
M  V30 982 N 88.686 -0.835752 -1.33615 0
M  V30 983 C 89.633 -0.26473 -2.29277 0
M  V30 984 C 90.603 0.617712 -1.54187 0
M  V30 985 O 91.788 0.556641 -1.825 0
M  V30 986 C 88.928 0.556777 -3.40579 0
M  V30 987 C 88.041 -0.349339 -4.30585 0
M  V30 988 C 87.176 0.482969 -5.29 0
M  V30 989 C 86.215 -0.421732 -6.10645 0
M  V30 990 N 85.352 0.372262 -7.01112 0
M  V30 991 H 90.192 -1.08582 -2.77514 0
M  V30 992 H 87.729 -0.546927 -1.36554 0
M  V30 993 H 89.687 1.04852 -4.03809 0
M  V30 994 H 88.317 1.34286 -2.93542 0
M  V30 995 H 87.369 -0.959372 -3.68104 0
M  V30 996 H 88.681 -1.04445 -4.87742 0
M  V30 997 H 87.835 1.03866 -5.97743 0
M  V30 998 H 86.574 1.21153 -4.72412 0
M  V30 999 H 85.579 -0.989464 -5.40823 0
M  V30 1000 H 86.804 -1.14861 -6.69316 0
M  V30 1001 H 84.75 1.08426 -6.46977 0
M  V30 1002 H 84.667 -0.264198 -7.55538 0
M  V30 1003 H 85.935 0.910293 -7.74167 0
M  V30 1004 N 90.1641 1.46063 -0.591896 0
M  V30 1005 C 91.0971 2.27452 0.184617 0
M  V30 1006 C 92.0751 1.36188 0.888351 0
M  V30 1007 O 93.2591 1.65606 0.90039 0
M  V30 1008 C 90.3861 3.14162 1.26571 0
M  V30 1009 C 89.4321 4.21255 0.666814 0
M  V30 1010 S 90.2651 5.33034 -0.513345 0
M  V30 1011 C 91.4211 6.23311 0.56872 0
M  V30 1012 H 91.6541 2.92963 -0.505939 0
M  V30 1013 H 89.1871 1.49676 -0.379014 0
M  V30 1014 H 91.1451 3.6468 1.88463 0
M  V30 1015 H 89.8061 2.47946 1.92826 0
M  V30 1016 H 88.9991 4.81788 1.47974 0
M  V30 1017 H 88.6011 3.73797 0.123359 0
M  V30 1018 H 90.8931 6.61758 1.45198 0
M  V30 1019 H 91.8361 7.081 -7.23824e-05 0
M  V30 1020 H 92.2441 5.57646 0.876996 0
M  V30 1021 N 91.6422 0.330177 1.54103 0
M  V30 1022 C 92.8902 -0.269871 2.0029 0
M  V30 1023 C 93.2112 -1.52133 1.21986 0
M  V30 1024 O 92.4812 -1.93212 0.323438 0
M  V30 1025 H 91.0612 -0.10271 0.739905 0
M  V30 1026 H 93.7232 0.448249 1.89675 0
M  V30 1027 H 92.8192 -0.52166 3.07709 0
M  V30 1028 N 93.1203 -1.57491 0.0584922 0
M  V30 1029 C 94.0523 -2.08916 -0.942694 0
M  V30 1030 C 95.0653 -1.0185 -1.27006 0
M  V30 1031 O 96.2543 -1.29398 -1.22957 0
M  V30 1032 C 93.3543 -2.52341 -2.26224 0
M  V30 1033 C 92.5273 -3.82827 -2.1157 0
M  V30 1034 C 91.5863 -4.12487 -3.26712 0
M  V30 1035 O 90.6123 -4.82295 -3.02292 0
M  V30 1036 N 91.8143 -3.64978 -4.5141 0
M  V30 1037 H 94.5793 -2.95437 -0.503722 0
M  V30 1038 H 92.1403 -1.61397 -0.12757 0
M  V30 1039 H 94.1323 -2.69254 -3.02133 0
M  V30 1040 H 92.7023 -1.7103 -2.61663 0
M  V30 1041 H 91.9223 -3.75425 -1.20208 0
M  V30 1042 H 93.2103 -4.68263 -1.99015 0
M  V30 1043 H 92.6083 -3.08558 -4.7414 0
M  V30 1044 H 91.1653 -3.87115 -5.2439 0
M  V30 1045 N 94.5984 0.214957 -1.56127 0
M  V30 1046 C 95.8454 0.938372 -1.79446 0
M  V30 1047 C 96.1734 1.8407 -0.628378 0
M  V30 1048 O 95.4284 1.91837 0.386925 0
M  V30 1049 C 95.7274 1.80314 -3.0858 0
M  V30 1050 C 95.3934 1.05349 -4.3842 0
M  V30 1051 C 94.0554 0.846435 -4.73697 0
M  V30 1052 C 96.4074 0.524588 -5.18553 0
M  V30 1053 C 93.7354 0.098683 -5.86617 0
M  V30 1054 C 96.0874 -0.209853 -6.32252 0
M  V30 1055 C 94.7514 -0.428102 -6.66126 0
M  V30 1056 H 94.0214 0.343375 -0.656639 0
M  V30 1057 H 96.6684 0.206077 -1.90388 0
M  V30 1058 H 94.9734 2.6035 -2.92789 0
M  V30 1059 H 96.6704 2.36513 -3.23825 0
M  V30 1060 H 93.2604 1.22486 -4.10725 0
M  V30 1061 H 97.4444 0.672008 -4.91729 0
M  V30 1062 H 92.7004 -0.0805753 -6.11347 0
M  V30 1063 H 96.8744 -0.627157 -6.9357 0
M  V30 1064 H 94.5014 -1.00944 -7.53468 0
M  V30 1065 N 96.0765 1.50051 0.48192 0
M  V30 1066 C 97.3255 1.59741 1.23149 0
M  V30 1067 C 97.6385 0.298163 1.93314 0
M  V30 1068 O 98.8445 0.273835 2.70116 0
M  V30 1069 C 97.3005 2.81926 2.23708 0
M  V30 1070 C 96.9085 4.18685 1.59396 0
M  V30 1071 C 98.6525 3.00956 2.99375 0
M  V30 1072 C 96.5595 5.3207 2.58178 0
M  V30 1073 H 95.4895 0.594838 0.46334 0
M  V30 1074 H 98.1405 1.76467 0.503169 0
M  V30 1075 H 96.5225 2.58736 2.99786 0
M  V30 1076 H 97.6965 4.52088 0.891811 0
M  V30 1077 H 96.0115 4.05171 0.960503 0
M  V30 1078 H 98.6085 3.82836 3.73283 0
M  V30 1079 H 98.9515 2.12258 3.58123 0
M  V30 1080 H 99.4845 3.24277 2.30411 0
M  V30 1081 H 96.2235 6.22888 2.04184 0
M  V30 1082 H 95.7435 5.03098 3.26577 0
M  V30 1083 H 97.4225 5.62196 3.20225 0
M  V30 1084 N 97.5546 -0.734337 1.39446 0
M  V30 1085 C 98.4646 -1.87879 1.40495 0
M  V30 1086 C 99.4806 -1.714 0.299672 0
M  V30 1087 O 100.657 -1.93991 0.541249 0
M  V30 1088 C 97.7216 -3.23477 1.24754 0
M  V30 1089 C 96.7826 -3.52344 2.45259 0
M  V30 1090 C 96.0156 -4.81473 2.30259 0
M  V30 1091 O 96.2386 -5.55237 1.30643 0
M  V30 1092 O 95.1726 -5.10254 3.19256 0
M  V30 1093 H 98.9986 -1.89949 2.36966 0
M  V30 1094 H 96.5836 -0.882243 1.20569 0
M  V30 1095 H 98.4656 -4.04509 1.18111 0
M  V30 1096 H 97.1406 -3.22176 0.313781 0
M  V30 1097 H 96.0476 -2.71396 2.57478 0
M  V30 1098 H 97.3806 -3.58426 3.37331 0
M  V30 1099 N 99.0327 -1.24633 -0.964593 0
M  V30 1100 C 100.449 -1.01239 -1.2338 0
M  V30 1101 C 100.649 0.2769 -1.99588 0
M  V30 1102 O 99.7047 0.992241 -2.32187 0
M  V30 1103 C 101.018 -2.22937 -2.01791 0
M  V30 1104 C 102.566 -2.27594 -2.14872 0
M  V30 1105 C 103.041 -3.48921 -2.96678 0
M  V30 1106 N 104.532 -3.49257 -3.04259 0
M  V30 1107 C 105.267 -4.39795 -3.67924 0
M  V30 1108 N 104.763 -5.40591 -4.33281 0
M  V30 1109 N 106.556 -4.275 -3.64966 0
M  V30 1110 H 98.7067 -2.0748 -0.454502 0
M  V30 1111 H 100.97 -0.910647 -0.26349 0
M  V30 1112 H 100.676 -3.16587 -1.53184 0
M  V30 1113 H 100.55 -2.25306 -3.02518 0
M  V30 1114 H 102.937 -1.34473 -2.6268 0
M  V30 1115 H 103.018 -2.2925 -1.13482 0
M  V30 1116 H 102.662 -4.42359 -2.49562 0
M  V30 1117 H 102.592 -3.4451 -3.98272 0
M  V30 1118 H 105.083 -2.76337 -2.57771 0
M  V30 1119 H 105.396 -6.05904 -4.79687 0
M  V30 1120 H 103.741 -5.44475 -4.3194 0
M  V30 1121 H 106.932 -3.47987 -3.13086 0
M  V30 1122 H 107.105 -4.98258 -4.14298 0
M  V30 1123 N 100.511 1.16574 -1.06058 0
M  V30 1124 C 101.444 2.19798 -0.61352 0
M  V30 1125 C 102.422 1.58509 0.362453 0
M  V30 1126 O 103.606 1.86527 0.271994 0
M  V30 1127 C 100.733 3.3855 0.100915 0
M  V30 1128 C 99.7788 4.18317 -0.831438 0
M  V30 1129 S 100.612 4.82375 -2.32539 0
M  V30 1130 C 101.768 6.04508 -1.62238 0
M  V30 1131 H 102.001 2.5738 -1.48805 0
M  V30 1132 H 99.5338 1.27327 -0.873338 0
M  V30 1133 H 101.492 4.07358 0.506898 0
M  V30 1134 H 100.153 2.99338 0.951604 0
M  V30 1135 H 99.3458 5.03232 -0.278071 0
M  V30 1136 H 98.9478 3.5499 -1.17719 0
M  V30 1137 H 101.24 6.71133 -0.926622 0
M  V30 1138 H 102.183 6.64389 -2.44934 0
M  V30 1139 H 102.591 5.53559 -1.106 0
M  V30 1140 N 101.989 0.842826 1.3317 0
M  V30 1141 C 102.899 0.281444 2.32906 0
M  V30 1142 C 103.915 -0.594587 1.63526 0
M  V30 1143 O 105.091 -0.49777 1.95152 0
M  V30 1144 C 102.156 -0.530929 3.42611 0
M  V30 1145 C 101.217 0.369843 4.27704 0
M  V30 1146 C 100.45 -0.403853 5.3217 0
M  V30 1147 O 100.673 -1.63513 5.46461 0
M  V30 1148 O 99.6069 0.224199 6.01482 0
M  V30 1149 H 103.433 1.10744 2.82789 0
M  V30 1150 H 101.018 0.60545 1.36582 0
M  V30 1151 H 102.9 -0.992437 4.09547 0
M  V30 1152 H 101.575 -1.33392 2.94938 0
M  V30 1153 H 100.482 0.879275 3.6362 0
M  V30 1154 H 101.815 1.13771 4.78871 0
M  V30 1155 N 103.467 -1.45747 0.599634 0
M  V30 1156 C 104.377 -2.34262 -0.125888 0
M  V30 1157 C 105.393 -1.50768 -0.868625 0
M  V30 1158 O 106.569 -1.83592 -0.828003 0
M  V30 1159 C 103.634 -3.28252 -1.11587 0
M  V30 1160 C 102.695 -4.27651 -0.375956 0
M  V30 1161 C 101.928 -5.1715 -1.31877 0
M  V30 1162 O 102.151 -5.09916 -2.55621 0
M  V30 1163 O 101.085 -5.96286 -0.820157 0
M  V30 1164 H 104.911 -2.97688 0.601315 0
M  V30 1165 H 102.496 -1.44999 0.359934 0
M  V30 1166 H 104.378 -3.86191 -1.68626 0
M  V30 1167 H 103.053 -2.67401 -1.82424 0
M  V30 1168 H 101.96 -3.7335 0.236698 0
M  V30 1169 H 103.293 -4.91334 0.29177 0
M  V30 1170 N 104.945 -0.338344 -1.53925 0
M  V30 1171 C 106.222 0.314774 -1.93051 0
M  V30 1172 C 106.602 1.68669 -1.26941 0
M  V30 1173 O 105.95 2.24636 -0.418445 0
M  V30 1174 C 106.16 0.392249 -3.46789 0
M  V30 1175 C 107.508 0.645554 -4.19664 0
M  V30 1176 O 108.532 0.474575 -3.53024 0
M  V30 1177 O 107.391 0.976408 -5.37707 0
M  V30 1178 H 104.485 0.182598 -0.80659 0
M  V30 1179 H 107.031 -0.389141 -1.65178 0
M  V30 1180 H 105.803 -0.570702 -3.87116 0
M  V30 1181 H 105.426 1.14316 -3.80812 0
M  V30 1182 N 106.423 1.57458 -0.0668435 0
M  V30 1183 C 107.672 1.92477 0.602947 0
M  V30 1184 C 107.985 0.948419 1.71068 0
M  V30 1185 O 109.191 1.19124 2.43971 0
M  V30 1186 C 107.647 3.41903 1.12383 0
M  V30 1187 C 107.255 4.47975 0.04737 0
M  V30 1188 C 108.999 3.85931 1.76797 0
M  V30 1189 C 106.906 5.88529 0.582022 0
M  V30 1190 H 105.836 0.718387 0.22899 0
M  V30 1191 H 108.487 1.82978 -0.138276 0
M  V30 1192 H 106.869 3.46459 1.91787 0
M  V30 1193 H 108.043 4.55029 -0.726978 0
M  V30 1194 H 106.358 4.13384 -0.500243 0
M  V30 1195 H 108.955 4.88322 2.17821 0
M  V30 1196 H 109.298 3.23029 2.62599 0
M  V30 1197 H 109.831 3.83958 1.04024 0
M  V30 1198 H 106.57 6.55065 -0.238721 0
M  V30 1199 H 106.09 5.85004 1.324 0
M  V30 1200 H 107.769 6.38258 1.05999 0
M  V30 1201 N 107.901 -0.206675 1.56239 0
M  V30 1202 C 108.848 -1.25617 1.93621 0
M  V30 1203 C 109.818 -1.45824 0.795274 0
M  V30 1204 O 111.003 -1.59148 1.05245 0
M  V30 1205 C 108.143 -2.59839 2.27107 0
M  V30 1206 C 107.256 -2.47308 3.54207 0
M  V30 1207 C 106.391 -3.74155 3.7707 0
M  V30 1208 C 105.43 -3.56407 4.97635 0
M  V30 1209 N 104.567 -4.75238 5.1681 0
M  V30 1210 H 109.407 -0.930383 2.83104 0
M  V30 1211 H 106.944 -0.448065 1.4011 0
M  V30 1212 H 108.902 -3.38021 2.44535 0
M  V30 1213 H 107.532 -2.90485 1.40778 0
M  V30 1214 H 106.584 -1.60483 3.4489 0
M  V30 1215 H 107.896 -2.30122 4.42544 0
M  V30 1216 H 107.05 -4.60778 3.94675 0
M  V30 1217 H 105.789 -3.94282 2.87042 0
M  V30 1218 H 104.794 -2.68168 4.79964 0
M  V30 1219 H 106.019 -3.37736 5.89161 0
M  V30 1220 H 103.965 -4.95651 4.29728 0
M  V30 1221 H 103.882 -4.60835 5.99306 0
M  V30 1222 H 105.15 -5.63246 5.38864 0
M  V30 1223 N 109.379 -1.50304 -0.473955 0
M  V30 1224 C 110.289 -1.7174 -1.5982 0
M  V30 1225 C 111.305 -0.600457 -1.63311 0
M  V30 1226 O 112.481 -0.878441 -1.81233 0
M  V30 1227 C 109.546 -1.80427 -2.96052 0
M  V30 1228 C 108.607 -3.04148 -3.02972 0
M  V30 1229 C 107.84 -3.12411 -4.32706 0
M  V30 1230 O 108.063 -2.27542 -5.23049 0
M  V30 1231 O 106.997 -4.05113 -4.45159 0
M  V30 1232 H 110.823 -2.67035 -1.44657 0
M  V30 1233 H 108.408 -1.34366 -0.653148 0
M  V30 1234 H 110.29 -1.88338 -3.7697 0
M  V30 1235 H 108.965 -0.883156 -3.11419 0
M  V30 1236 H 107.872 -3.0174 -2.21142 0
M  V30 1237 H 109.205 -3.95829 -2.92541 0
M  V30 1238 N 110.857 0.726932 -1.39834 0
M  V30 1239 C 111.804 1.841 -1.39197 0
M  V30 1240 C 112.774 1.642 -0.250502 0
M  V30 1241 O 113.959 1.85494 -0.446846 0
M  V30 1242 C 111.099 3.21697 -1.24919 0
M  V30 1243 C 110.212 3.53247 -2.48678 0
M  V30 1244 C 109.347 4.80289 -2.26928 0
M  V30 1245 C 108.386 5.04707 -3.4632 0
M  V30 1246 N 107.523 6.22956 -3.23836 0
M  V30 1247 H 112.363 1.83979 -2.34427 0
M  V30 1248 H 109.9 0.898876 -1.16442 0
M  V30 1249 H 111.858 4.01137 -1.1465 0
M  V30 1250 H 110.488 3.21076 -0.333153 0
M  V30 1251 H 109.54 2.68447 -2.69519 0
M  V30 1252 H 110.852 3.67205 -3.37582 0
M  V30 1253 H 110.006 5.67725 -2.13947 0
M  V30 1254 H 108.745 4.68519 -1.35431 0
M  V30 1255 H 107.75 4.1573 -3.5979 0
M  V30 1256 H 108.975 5.18357 -4.38729 0
M  V30 1257 H 106.921 6.12459 -2.35011 0
M  V30 1258 H 106.838 6.37539 -4.063 0
M  V30 1259 H 108.106 7.1321 -3.14566 0
M  V30 1260 N 112.336 1.25143 0.95797 0
M  V30 1261 C 113.299 1.05321 2.03569 0
M  V30 1262 C 114.299 0.007152 1.60798 0
M  V30 1263 O 115.489 0.24903 1.72411 0
M  V30 1264 C 112.621 0.598394 3.35607 0
M  V30 1265 H 113.814 2.00986 2.22586 0
M  V30 1266 H 111.367 1.07502 1.13459 0
M  V30 1267 H 112.102 -0.361014 3.22284 0
M  V30 1268 H 111.887 1.35351 3.67998 0
M  V30 1269 H 113.377 0.48104 4.1482 0
M  V30 1270 N 113.814 -1.1601 1.06675 0
M  V30 1271 C 115.042 -1.90527 0.806667 0
M  V30 1272 C 115.457 -1.77643 -0.639396 0
M  V30 1273 O 114.814 -1.12369 -1.43803 0
M  V30 1274 C 114.865 -3.41106 1.19705 0
M  V30 1275 O 114.586 -3.53608 2.58636 0
M  V30 1276 C 116.087 -4.32663 0.965266 0
M  V30 1277 H 113.307 -0.604053 0.292166 0
M  V30 1278 H 115.851 -1.47026 1.4214 0
M  V30 1279 H 114.006 -3.82296 0.626774 0
M  V30 1280 H 114.42 -4.47011 2.74375 0
M  V30 1281 H 115.894 -5.36763 1.288 0
M  V30 1282 H 116.371 -4.39089 -0.0987936 0
M  V30 1283 H 116.977 -3.97206 1.52011 0
M  V30 1284 N 115.292 -0.849877 -1.32721 0
M  V30 1285 C 116.255 -0.296122 -2.27279 0
M  V30 1286 C 117.255 0.541458 -1.5141 0
M  V30 1287 O 118.445 0.353658 -1.70572 0
M  V30 1288 C 115.577 0.581579 -3.35902 0
M  V30 1289 H 116.77 -1.13064 -2.77771 0
M  V30 1290 H 114.323 -0.62383 -1.43311 0
M  V30 1291 H 115.058 1.43809 -2.9067 0
M  V30 1292 H 114.843 -0.0178814 -3.92096 0
M  V30 1293 H 116.333 0.961951 -4.0637 0
M  V30 1294 N 116.77 1.45427 -0.607355 0
M  V30 1295 C 117.717 2.3053 0.111625 0
M  V30 1296 C 118.687 1.4209 0.860216 0
M  V30 1297 O 119.872 1.71019 0.845998 0
M  V30 1298 C 117.012 3.26992 1.10319 0
M  V30 1299 C 116.125 4.30535 0.355493 0
M  V30 1300 C 115.26 5.14105 1.33676 0
M  V30 1301 C 114.299 6.09376 0.576862 0
M  V30 1302 N 113.436 6.85727 1.5074 0
M  V30 1303 H 118.276 2.91477 -0.620093 0
M  V30 1304 H 115.813 1.43631 -0.317594 0
M  V30 1305 H 117.771 3.81385 1.6912 0
M  V30 1306 H 116.401 2.67799 1.80232 0
M  V30 1307 H 115.453 3.78805 -0.348023 0
M  V30 1308 H 116.765 4.98235 -0.237423 0
M  V30 1309 H 115.919 5.72897 1.99684 0
M  V30 1310 H 114.658 4.46423 1.9636 0
M  V30 1311 H 113.663 5.49715 -0.0968519 0
M  V30 1312 H 114.888 6.79085 -0.0449341 0
M  V30 1313 H 112.834 6.20735 2.12189 0
M  V30 1314 H 112.751 7.49778 0.967913 0
M  V30 1315 H 114.019 7.4906 2.15706 0
M  V30 1316 N 118.248 0.346503 1.53744 0
M  V30 1317 C 119.158 -0.517293 2.28826 0
M  V30 1318 C 120.174 -1.10935 1.3405 0
M  V30 1319 O 121.35 -1.1244 1.6709 0
M  V30 1320 C 118.415 -1.65098 3.04866 0
M  V30 1321 C 117.476 -1.0884 4.15274 0
M  V30 1322 C 116.709 -2.16806 4.87679 0
M  V30 1323 O 116.932 -3.3758 4.59778 0
M  V30 1324 O 115.866 -1.80934 5.74061 0
M  V30 1325 H 119.692 0.0931396 3.03557 0
M  V30 1326 H 117.277 0.111458 1.48984 0
M  V30 1327 H 119.159 -2.31053 3.5241 0
M  V30 1328 H 117.834 -2.24717 2.32989 0
M  V30 1329 H 116.741 -0.3933 3.72027 0
M  V30 1330 H 118.074 -0.537036 4.89261 0
M  V30 1331 N 119.726 -1.57421 0.075193 0
M  V30 1332 C 120.673 -2.12915 -0.890843 0
M  V30 1333 C 121.643 -1.04252 -1.29309 0
M  V30 1334 O 122.828 -1.31933 -1.37834 0
M  V30 1335 C 119.968 -2.69795 -2.15186 0
M  V30 1336 C 119.081 -3.92624 -1.80194 0
M  V30 1337 C 118.216 -4.37736 -3.00933 0
M  V30 1338 C 117.255 -5.53205 -2.61974 0
M  V30 1339 N 116.392 -5.9326 -3.75483 0
M  V30 1340 H 121.232 -2.95156 -0.410735 0
M  V30 1341 H 118.769 -1.45854 -0.191086 0
M  V30 1342 H 120.727 -3.00883 -2.89008 0
M  V30 1343 H 119.357 -1.90313 -2.60731 0
M  V30 1344 H 118.409 -3.67977 -0.964218 0
M  V30 1345 H 119.721 -4.76482 -1.47534 0
M  V30 1346 H 118.875 -4.70503 -3.8303 0
M  V30 1347 H 117.614 -3.52739 -3.36789 0
M  V30 1348 H 116.619 -5.20086 -1.783 0
M  V30 1349 H 117.844 -6.39936 -2.27284 0
M  V30 1350 H 115.79 -5.11212 -4.11094 0
M  V30 1351 H 115.707 -6.71865 -3.46602 0
M  V30 1352 H 116.975 -6.30651 -4.58148 0
M  V30 1353 N 121.204 0.198386 -1.56346 0
M  V30 1354 C 122.134 1.24865 -1.9731 0
M  V30 1355 C 123.115 1.47651 -0.844576 0
M  V30 1356 O 124.3 1.59444 -1.10866 0
M  V30 1357 C 121.43 2.59358 -2.30977 0
M  V30 1358 C 120.384 2.5119 -3.46537 0
M  V30 1359 C 119.71 3.89926 -3.65871 0
M  V30 1360 C 121.01 2.03977 -4.80823 0
M  V30 1361 H 122.704 0.908252 -2.85291 0
M  V30 1362 H 120.25 0.435462 -1.37258 0
M  V30 1363 H 122.203 3.33011 -2.58228 0
M  V30 1364 H 120.927 2.95132 -1.39874 0
M  V30 1365 H 119.586 1.79993 -3.19371 0
M  V30 1366 H 119.234 4.23046 -2.72105 0
M  V30 1367 H 118.934 3.85336 -4.4361 0
M  V30 1368 H 120.458 4.65205 -3.95495 0
M  V30 1369 H 121.872 2.67386 -5.07127 0
M  V30 1370 H 120.269 2.10397 -5.62008 0
M  V30 1371 H 121.339 0.992861 -4.74626 0
M  V30 1372 N 122.682 1.50554 0.465978 0
M  V30 1373 C 123.645 1.69233 1.54574 0
M  V30 1374 C 124.645 0.562901 1.50626 0
M  V30 1375 O 125.835 0.830016 1.53155 0
M  V30 1376 C 122.967 1.7223 2.94193 0
M  V30 1377 H 124.16 2.65571 1.39327 0
M  V30 1378 H 121.713 1.40111 0.692711 0
M  V30 1379 H 122.448 0.77603 3.14878 0
M  V30 1380 H 122.233 2.54285 2.98466 0
M  V30 1381 H 123.723 1.88618 3.72576 0
M  V30 1382 N 124.16 -0.719506 1.40217 0
M  V30 1383 C 125.09 -1.8465 1.42922 0
M  V30 1384 C 126.071 -1.67599 0.29062 0
M  V30 1385 O 127.256 -1.87688 0.498677 0
M  V30 1386 C 124.386 -3.22565 1.28722 0
M  V30 1387 C 123.34 -3.54281 2.40144 0
M  V30 1388 C 122.666 -4.91298 2.11023 0
M  V30 1389 C 123.966 -3.55676 3.82481 0
M  V30 1390 H 125.66 -1.82644 2.37237 0
M  V30 1391 H 123.206 -0.877305 1.1419 0
M  V30 1392 H 125.159 -4.01095 1.29232 0
M  V30 1393 H 123.883 -3.25137 0.308811 0
M  V30 1394 H 122.542 -2.78088 2.38877 0
M  V30 1395 H 122.19 -4.90468 1.11582 0
M  V30 1396 H 121.89 -5.13485 2.8567 0
M  V30 1397 H 123.414 -5.72166 2.13209 0
M  V30 1398 H 124.828 -4.24254 3.85592 0
M  V30 1399 H 123.225 -3.89388 4.56614 0
M  V30 1400 H 124.295 -2.55144 4.12346 0
M  V30 1401 N 125.638 -1.25649 -0.95132 0
M  V30 1402 C 126.884 -1.10757 -1.69884 0
M  V30 1403 C 127.217 0.350061 -1.91019 0
M  V30 1404 O 126.492 1.25783 -1.48354 0
M  V30 1405 C 126.775 -1.86606 -3.07978 0
M  V30 1406 C 126.628 -3.40217 -2.94232 0
M  V30 1407 C 127.947 -1.65182 -4.07925 0
M  V30 1408 H 125.066 -0.40374 -0.616574 0
M  V30 1409 H 127.708 -1.54521 -1.10558 0
M  V30 1410 H 125.858 -1.49409 -3.58621 0
M  V30 1411 H 127.53 -3.87108 -2.50889 0
M  V30 1412 H 125.773 -3.67759 -2.30078 0
M  V30 1413 H 126.444 -3.88505 -3.92133 0
M  V30 1414 H 128.92 -1.9757 -3.66204 0
M  V30 1415 H 127.796 -2.20683 -5.02583 0
M  V30 1416 H 128.057 -0.593933 -4.38092 0
M  V30 1417 N 127.117 1.15442 -1.07289 0
M  V30 1418 C 128.366 1.85557 -0.790669 0
M  V30 1419 C 128.679 1.83186 0.685739 0
M  V30 1420 O 129.885 2.48977 1.0827 0
M  V30 1421 C 128.341 3.33038 -1.36433 0
M  V30 1422 C 127.949 3.43856 -2.8717 0
M  V30 1423 C 129.693 4.0834 -1.1601 0
M  V30 1424 C 127.6 4.85482 -3.3773 0
M  V30 1425 H 126.53 0.695122 -0.292098 0
M  V30 1426 H 129.181 1.30219 -1.29287 0
M  V30 1427 H 127.563 3.88043 -0.789864 0
M  V30 1428 H 128.737 2.98961 -3.50655 0
M  V30 1429 H 127.052 2.81998 -3.06376 0
M  V30 1430 H 129.649 5.12859 -1.51262 0
M  V30 1431 H 129.992 4.16182 -0.0991007 0
M  V30 1432 H 130.525 3.59603 -1.70089 0
M  V30 1433 H 127.264 4.82823 -4.43353 0
M  V30 1434 H 126.784 5.30961 -2.78999 0
M  V30 1435 H 128.463 5.54335 -3.33648 0
M  V30 1436 N 128.595 0.856903 1.32268 0
M  V30 1437 C 129.82 0.474569 2.01897 0
M  V30 1438 C 130.245 -0.921766 1.63967 0
M  V30 1439 O 129.603 -1.60589 0.84148 0
M  V30 1440 C 129.651 0.623799 3.55164 0
M  V30 1441 O 128.755 -0.342459 4.10976 0
M  V30 1442 H 128.096 0.190422 0.63611 0
M  V30 1443 H 130.626 1.15672 1.68764 0
M  V30 1444 H 130.636 0.512169 4.04773 0
M  V30 1445 H 129.311 1.64202 3.82113 0
M  V30 1446 H 127.888 -0.18688 3.72431 0
M  V30 1447 N 130.073 -1.45103 0.615059 0
M  V30 1448 C 131.02 -2.30586 -0.0993978 0
M  V30 1449 C 131.99 -1.42544 -0.852669 0
M  V30 1450 O 133.175 -1.71465 -0.836917 0
M  V30 1451 C 130.315 -3.27572 -1.08583 0
M  V30 1452 C 129.428 -4.30717 -0.332656 0
M  V30 1453 C 128.563 -5.14807 -1.30947 0
M  V30 1454 C 127.602 -6.09673 -0.544538 0
M  V30 1455 N 126.739 -6.86517 -1.47101 0
M  V30 1456 H 131.579 -2.91144 0.635542 0
M  V30 1457 H 129.116 -1.4346 0.325206 0
M  V30 1458 H 131.074 -3.82276 -1.67095 0
M  V30 1459 H 129.704 -2.68751 -1.78809 0
M  V30 1460 H 128.756 -3.78615 0.368107 0
M  V30 1461 H 130.068 -4.98102 0.263842 0
M  V30 1462 H 129.222 -5.73948 -1.96643 0
M  V30 1463 H 127.961 -4.47458 -1.9399 0
M  V30 1464 H 126.966 -5.49656 0.126003 0
M  V30 1465 H 128.191 -6.79052 0.080947 0
M  V30 1466 H 126.137 -6.21851 -2.08895 0
M  V30 1467 H 126.054 -7.50281 -0.928137 0
M  V30 1468 H 127.322 -7.50194 -2.11731 0
M  V30 1469 N 131.551 -0.354651 -1.53558 0
M  V30 1470 C 132.501 0.513179 -2.2215 0
M  V30 1471 C 133.485 1.05734 -1.21281 0
M  V30 1472 O 134.677 0.989202 -1.46778 0
M  V30 1473 C 131.806 1.65798 -3.00609 0
M  V30 1474 C 130.892 1.12722 -4.08845 0
M  V30 1475 N 131.283 0.318563 -5.04796 0
M  V30 1476 C 129.581 1.40307 -4.23356 0
M  V30 1477 C 130.282 0.0292224 -5.81693 0
M  V30 1478 N 129.258 0.623891 -5.40008 0
M  V30 1479 H 133.06 -0.111586 -2.93688 0
M  V30 1480 H 130.574 -0.162091 -1.61589 0
M  V30 1481 H 132.571 2.29176 -3.48258 0
M  V30 1482 H 131.231 2.28591 -2.306 0
M  V30 1483 H 132.242 -0.0413091 -5.17884 0
M  V30 1484 H 128.919 2.03458 -3.6457 0
M  V30 1485 H 130.309 -0.623808 -6.68998 0
M  V30 1486 N 133.029 1.57378 -0.0835403 0
M  V30 1487 C 134.276 1.9393 0.58287 0
M  V30 1488 C 134.604 0.964455 1.68904 0
M  V30 1489 O 133.859 -0.0179474 1.95692 0
M  V30 1490 C 134.158 3.37063 1.1884 0
M  V30 1491 C 133.824 4.50424 0.207194 0
M  V30 1492 C 132.486 4.81159 -0.0627115 0
M  V30 1493 C 134.838 5.19136 -0.463426 0
M  V30 1494 C 132.166 5.77939 -1.01012 0
M  V30 1495 C 134.518 6.16931 -1.39924 0
M  V30 1496 C 133.182 6.46078 -1.67749 0
M  V30 1497 H 132.452 0.70964 0.213287 0
M  V30 1498 H 135.099 1.90856 -0.156916 0
M  V30 1499 H 133.404 3.3666 2.00418 0
M  V30 1500 H 135.101 3.6264 1.71153 0
M  V30 1501 H 131.691 4.2646 0.427747 0
M  V30 1502 H 135.875 4.95576 -0.268034 0
M  V30 1503 H 131.131 5.98842 -1.23283 0
M  V30 1504 H 135.305 6.69273 -1.92476 0
M  V30 1505 H 132.932 7.2088 -2.41321 0
M  V30 1506 N 134.507 -0.190092 1.56449 0
M  V30 1507 C 135.732 -0.929864 1.85387 0
M  V30 1508 C 136.157 -1.7585 0.667704 0
M  V30 1509 O 135.515 -1.77198 -0.383459 0
M  V30 1510 C 135.563 -1.79773 3.12593 0
M  V30 1511 O 134.667 -2.89713 2.93496 0
M  V30 1512 H 134.008 -0.261574 0.610307 0
M  V30 1513 H 136.538 -0.193896 2.03679 0
M  V30 1514 H 136.548 -2.20139 3.43515 0
M  V30 1515 H 135.223 -1.18892 3.98544 0
M  V30 1516 H 133.8 -2.53065 2.73884 0
M  V30 1517 N 135.985 -1.50799 -0.457987 0
M  V30 1518 C 136.915 -1.73553 -1.5621 0
M  V30 1519 C 137.896 -0.584774 -1.59732 0
M  V30 1520 O 139.081 -0.825314 -1.7579 0
M  V30 1521 C 136.211 -1.84169 -2.94447 0
M  V30 1522 C 135.165 -2.99461 -3.0579 0
M  V30 1523 C 134.491 -2.95235 -4.45803 0
M  V30 1524 C 135.791 -4.39766 -2.81786 0
M  V30 1525 H 137.485 -2.66 -1.37421 0
M  V30 1526 H 135.031 -1.28002 -0.659662 0
M  V30 1527 H 136.984 -1.98672 -3.71628 0
M  V30 1528 H 135.708 -0.883545 -3.14422 0
M  V30 1529 H 134.367 -2.8463 -2.31044 0
M  V30 1530 H 134.015 -1.97239 -4.62715 0
M  V30 1531 H 133.715 -3.72642 -4.54326 0
M  V30 1532 H 135.239 -3.11803 -5.24987 0
M  V30 1533 H 136.653 -4.55054 -3.4871 0
M  V30 1534 H 135.05 -5.18722 -3.0174 0
M  V30 1535 H 136.12 -4.51229 -1.7754 0
M  V30 1536 N 137.463 0.71206 -1.40597 0
M  V30 1537 C 138.393 1.83889 -1.43899 0
M  V30 1538 C 139.374 1.67442 -0.299504 0
M  V30 1539 O 140.559 1.87421 -0.508624 0
M  V30 1540 C 137.689 3.21877 -1.30431 0
M  V30 1541 C 136.643 3.53002 -2.42019 0
M  V30 1542 C 135.969 4.90172 -2.13626 0
M  V30 1543 C 137.269 3.53643 -3.84362 0
M  V30 1544 H 138.963 1.81383 -2.38203 0
M  V30 1545 H 136.509 0.871237 -1.14654 0
M  V30 1546 H 138.462 4.00404 -1.31357 0
M  V30 1547 H 137.186 3.24968 -0.326049 0
M  V30 1548 H 135.845 2.76818 -2.40349 0
M  V30 1549 H 135.493 4.89869 -1.14182 0
M  V30 1550 H 135.193 5.11962 -2.88389 0
M  V30 1551 H 136.717 5.71028 -2.1624 0
M  V30 1552 H 138.131 4.22203 -3.87837 0
M  V30 1553 H 136.528 3.86961 -4.58673 0
M  V30 1554 H 137.598 2.52954 -4.13693 0
M  V30 1555 N 138.941 1.26152 0.944643 0
M  V30 1556 C 139.904 1.07474 2.0244 0
M  V30 1557 C 140.904 0.0242064 1.60782 0
M  V30 1558 O 142.094 0.267302 1.72137 0
M  V30 1559 C 139.226 0.633956 3.34953 0
M  V30 1560 H 140.419 2.03336 2.20442 0
M  V30 1561 H 137.972 1.087 1.12312 0
M  V30 1562 H 138.707 -0.326811 3.22649 0
M  V30 1563 H 138.492 1.39247 3.66542 0
M  V30 1564 H 139.982 0.52501 4.14287 0
M  V30 1565 N 140.419 -1.14872 1.07899 0
M  V30 1566 C 141.667 -1.85422 0.803941 0
M  V30 1567 C 141.988 -1.83051 -0.67211 0
M  V30 1568 O 141.258 -1.27532 -1.48703 0
M  V30 1569 H 139.838 -0.686537 0.294408 0
M  V30 1570 H 142.5 -1.39226 1.3639 0
M  V30 1571 H 141.596 -2.90399 1.14346 0
M  V30 1572 N 141.898 -0.863906 -1.31812 0
M  V30 1573 C 143.175 -0.39275 -1.91616 0
M  V30 1574 C 143.555 1.12461 -1.7865 0
M  V30 1575 O 142.903 1.95045 -1.19037 0
M  V30 1576 C 143.113 -0.867385 -3.38049 0
M  V30 1577 C 144.461 -0.889966 -4.15168 0
M  V30 1578 O 145.485 -0.812635 -3.46806 0
M  V30 1579 O 144.344 -1.00079 -5.37258 0
M  V30 1580 H 141.438 -0.116358 -0.818773 0
M  V30 1581 H 143.984 -0.951418 -1.40521 0
M  V30 1582 H 142.756 -1.91081 -3.41473 0
M  V30 1583 H 142.379 -0.286687 -3.96565 0
M  V30 1584 N 143.376 1.44774 -0.622745 0
M  V30 1585 C 144.326 2.2774 0.108889 0
M  V30 1586 C 145.31 1.38189 0.824175 0
M  V30 1587 O 146.502 1.62063 0.711664 0
M  V30 1588 C 143.631 3.25353 1.09546 0
M  V30 1589 C 142.717 4.22392 0.380232 0
M  V30 1590 N 143.108 5.02388 -0.586535 0
M  V30 1591 C 141.406 4.41588 0.625792 0
M  V30 1592 C 142.107 5.72894 -1.00834 0
M  V30 1593 N 141.083 5.42479 -0.348878 0
M  V30 1594 H 144.885 2.86993 -0.63341 0
M  V30 1595 H 142.399 1.5611 -0.447589 0
M  V30 1596 H 144.396 3.83538 1.63414 0
M  V30 1597 H 143.056 2.6766 1.83815 0
M  V30 1598 H 144.067 5.0885 -0.963975 0
M  V30 1599 H 140.744 3.95003 1.352 0
M  V30 1600 H 142.134 6.47158 -1.80656 0
M  V30 1601 N 144.854 0.36279 1.53368 0
M  V30 1602 C 145.802 -0.500155 2.27159 0
M  V30 1603 C 146.796 -1.08575 1.3003 0
M  V30 1604 O 148.002 -1.02927 1.47668 0
M  V30 1605 H 144.377 -0.180009 0.730138 0
M  V30 1606 H 146.348 0.14401 2.98052 0
M  V30 1607 C 145.097 -1.62937 3.07159 0
M  V30 1608 H 144.42 -1.18806 3.8174 0
M  V30 1609 H 145.86 -2.20795 3.61975 0
M  V30 1610 C 144.319 -2.57007 2.17829 0
M  V30 1611 O 144.849 -3.59752 1.78721 0
M  V30 1612 N 143.055 -2.26131 1.82518 0
M  V30 1613 H 142.602 -1.42616 2.14519 0
M  V30 1614 H 142.56 -2.89327 1.23034 0
M  V30 1615 N 146.332 -1.57332 0.0918853 0
M  V30 1616 C 147.262 -2.16872 -0.865371 0
M  V30 1617 C 148.243 -1.10118 -1.29646 0
M  V30 1618 O 149.428 -1.38242 -1.36392 0
M  V30 1619 C 146.558 -2.74649 -2.12569 0
M  V30 1620 C 145.512 -3.86747 -1.83333 0
M  V30 1621 C 144.838 -4.31212 -3.16166 0
M  V30 1622 C 146.138 -5.10089 -1.1228 0
M  V30 1623 H 147.832 -2.97114 -0.369307 0
M  V30 1624 H 145.378 -1.42918 -0.176194 0
M  V30 1625 H 147.331 -3.14952 -2.7997 0
M  V30 1626 H 146.055 -1.91657 -2.64452 0
M  V30 1627 H 144.714 -3.46978 -1.18331 0
M  V30 1628 H 144.362 -3.45115 -3.6593 0
M  V30 1629 H 144.062 -5.06788 -2.97388 0
M  V30 1630 H 145.586 -4.74146 -3.84731 0
M  V30 1631 H 147 -5.47582 -1.69785 0
M  V30 1632 H 145.397 -5.91073 -1.03693 0
M  V30 1633 H 146.467 -4.84786 -0.105041 0
M  V30 1634 N 147.81 0.181792 -1.56548 0
M  V30 1635 C 148.773 1.20894 -1.94724 0
M  V30 1636 C 149.773 1.37738 -0.829747 0
M  V30 1637 O 150.963 1.35323 -1.09697 0
M  V30 1638 C 148.095 2.57593 -2.23291 0
M  V30 1639 H 149.288 0.882275 -2.86629 0
M  V30 1640 H 146.841 0.423838 -1.50444 0
M  V30 1641 H 147.576 2.95291 -1.34067 0
M  V30 1642 H 147.361 2.46735 -3.04736 0
M  V30 1643 H 148.851 3.31637 -2.53785 0
M  V30 1644 N 149.288 1.51039 0.449983 0
M  V30 1645 C 150.537 1.62317 1.19733 0
M  V30 1646 C 150.85 0.339101 1.92638 0
M  V30 1647 O 152.056 0.331069 2.69474 0
M  V30 1648 C 150.512 2.86608 2.17678 0
M  V30 1649 C 150.12 4.21972 1.50479 0
M  V30 1650 C 151.864 3.07239 2.92924 0
M  V30 1651 C 149.771 5.37426 2.46834 0
M  V30 1652 H 148.701 0.604532 0.450619 0
M  V30 1653 H 151.352 1.77494 0.465625 0
M  V30 1654 H 149.734 2.65037 2.94231 0
M  V30 1655 H 150.908 4.53878 0.795716 0
M  V30 1656 H 149.223 4.07117 0.874344 0
M  V30 1657 H 151.82 3.90668 3.65079 0
M  V30 1658 H 152.163 2.19807 3.5354 0
M  V30 1659 H 152.696 3.29091 2.23481 0
M  V30 1660 H 149.435 6.27079 1.90926 0
M  V30 1661 H 148.955 5.09912 3.15832 0
M  V30 1662 H 150.634 5.68862 3.08228 0
M  V30 1663 N 150.766 -0.704594 1.40972 0
M  V30 1664 C 152.012 -1.46675 1.40051 0
M  V30 1665 C 152.345 -1.94199 0.00641102 0
M  V30 1666 O 151.62 -1.68916 -0.964235 0
M  V30 1667 C 151.903 -2.68505 2.39952 0
M  V30 1668 C 151.756 -2.26805 3.88432 0
M  V30 1669 C 153.075 -3.70686 2.37233 0
M  V30 1670 H 150.194 -0.532015 0.510028 0
M  V30 1671 H 152.836 -0.803255 1.72185 0
M  V30 1672 H 150.986 -3.25114 2.1268 0
M  V30 1673 H 152.658 -1.75592 4.26574 0
M  V30 1674 H 150.901 -1.58685 4.03734 0
M  V30 1675 H 151.572 -3.14181 4.53866 0
M  V30 1676 H 154.048 -3.23731 2.61415 0
M  V30 1677 H 152.924 -4.53553 3.09162 0
M  V30 1678 H 153.185 -4.19754 1.38777 0
M  V30 1679 N 152.244 -1.26651 -0.937939 0
M  V30 1680 C 153.472 -1.15173 -1.7188 0
M  V30 1681 C 153.887 0.292668 -1.86518 0
M  V30 1682 O 153.244 1.20014 -1.37488 0
M  V30 1683 C 153.295 -1.81925 -3.12387 0
M  V30 1684 O 153.016 -3.2072 -2.98446 0
M  V30 1685 C 154.517 -1.76442 -4.06673 0
M  V30 1686 H 151.737 -0.400911 -0.538063 0
M  V30 1687 H 154.281 -1.67332 -1.1756 0
M  V30 1688 H 152.436 -1.33696 -3.63599 0
M  V30 1689 H 152.85 -3.53802 -3.872 0
M  V30 1690 H 154.324 -2.27781 -5.02812 0
M  V30 1691 H 154.801 -0.731608 -4.33064 0
M  V30 1692 H 155.407 -2.24238 -3.61382 0
M  V30 1693 N 153.722 1.14298 -1.08507 0
M  V30 1694 C 154.654 2.1907 -0.673859 0
M  V30 1695 C 155.667 1.60381 0.279577 0
M  V30 1696 O 156.856 1.78374 0.0670754 0
M  V30 1697 C 153.956 3.38888 0.0290979 0
M  V30 1698 C 153.129 4.27103 -0.943494 0
M  V30 1699 C 152.188 5.25477 -0.275676 0
M  V30 1700 O 151.214 5.61709 -0.920401 0
M  V30 1701 N 152.416 5.7227 0.974013 0
M  V30 1702 H 155.181 2.54965 -1.57521 0
M  V30 1703 H 152.742 1.29528 -0.971287 0
M  V30 1704 H 154.734 4.01761 0.48683 0
M  V30 1705 H 153.304 3.01309 0.832555 0
M  V30 1706 H 152.524 3.61149 -1.58004 0
M  V30 1707 H 153.812 4.82905 -1.60251 0
M  V30 1708 H 153.21 5.44965 1.51755 0
M  V30 1709 H 151.767 6.37127 1.37522 0
M  V30 1710 N 155.201 0.870884 1.31352 0
M  V30 1711 C 156.131 0.343096 2.30966 0
M  V30 1712 C 157.112 -0.566507 1.60389 0
M  V30 1713 O 158.297 -0.483336 1.88089 0
M  V30 1714 C 155.427 -0.455487 3.443 0
M  V30 1715 C 154.381 0.361103 4.26474 0
M  V30 1716 C 153.707 -0.563221 5.31725 0
M  V30 1717 C 155.007 1.59566 4.97329 0
M  V30 1718 H 156.701 1.17548 2.75359 0
M  V30 1719 H 154.247 0.566686 1.32381 0
M  V30 1720 H 156.2 -0.83525 4.13039 0
M  V30 1721 H 154.924 -1.32139 2.98675 0
M  V30 1722 H 153.583 0.722825 3.59403 0
M  V30 1723 H 153.231 -1.42643 4.82351 0
M  V30 1724 H 152.931 -0.0207409 5.87596 0
M  V30 1725 H 154.455 -0.939808 6.03324 0
M  V30 1726 H 155.869 1.28728 5.58661 0
M  V30 1727 H 154.266 2.07728 5.63 0
M  V30 1728 H 155.336 2.34798 4.24262 0
M  V30 1729 N 156.679 -1.44442 0.630414 0
M  V30 1730 C 157.589 -2.34476 -0.0761693 0
M  V30 1731 C 158.605 -1.52576 -0.836449 0
M  V30 1732 O 159.781 -1.85307 -0.788874 0
M  V30 1733 C 156.846 -3.30545 -1.04599 0
M  V30 1734 C 155.907 -4.28352 -0.28516 0
M  V30 1735 C 155.14 -5.19831 -1.20878 0
M  V30 1736 O 155.363 -5.15223 -2.44747 0
M  V30 1737 O 154.297 -5.97892 -0.693491 0
M  V30 1738 H 158.123 -2.96345 0.664324 0
M  V30 1739 H 155.708 -1.44203 0.39061 0
M  V30 1740 H 157.59 -3.89681 -1.60396 0
M  V30 1741 H 156.265 -2.7121 -1.76711 0
M  V30 1742 H 155.172 -3.72764 0.315837 0
M  V30 1743 H 156.505 -4.90605 0.395924 0
M  V30 1744 N 158.157 -0.370918 -1.53173 0
M  V30 1745 C 159.087 0.464847 -2.28826 0
M  V30 1746 C 160.068 1.07936 -1.31468 0
M  V30 1747 O 161.253 1.0956 -1.60344 0
M  V30 1748 C 158.383 1.60196 -3.08147 0
M  V30 1749 C 157.337 1.11443 -4.13237 0
M  V30 1750 C 156.663 2.3422 -4.80672 0
M  V30 1751 C 157.963 0.195384 -5.21934 0
M  V30 1752 H 159.657 -0.166329 -2.98938 0
M  V30 1753 H 157.203 -0.0814359 -1.4377 0
M  V30 1754 H 159.156 2.19332 -3.59822 0
M  V30 1755 H 157.88 2.26045 -2.35735 0
M  V30 1756 H 156.539 0.545727 -3.62515 0
M  V30 1757 H 156.187 2.98537 -4.04827 0
M  V30 1758 H 155.887 2.02269 -5.51689 0
M  V30 1759 H 157.411 2.94032 -5.35143 0
M  V30 1760 H 158.825 0.694375 -5.69079 0
M  V30 1761 H 157.222 -0.0335027 -6.00091 0
M  V30 1762 H 158.292 -0.760961 -4.78892 0
M  V30 1763 N 159.635 1.57281 -0.100228 0
M  V30 1764 C 161.051 1.57527 0.256416 0
M  V30 1765 C 161.251 1.11173 1.68056 0
M  V30 1766 O 160.307 0.79053 2.39806 0
M  V30 1767 C 161.62 3.00673 0.0401747 0
M  V30 1768 C 163.168 3.12815 0.107528 0
M  V30 1769 C 163.643 4.57929 -0.0807834 0
M  V30 1770 N 165.134 4.63193 -0.0261207 0
M  V30 1771 C 165.869 5.73212 -0.146999 0
M  V30 1772 N 165.365 6.92047 -0.322999 0
M  V30 1773 N 167.158 5.62031 -0.0879044 0
M  V30 1774 H 159.309 1.85718 -1.03065 0
M  V30 1775 H 161.572 0.857446 -0.404339 0
M  V30 1776 H 161.278 3.38804 -0.943649 0
M  V30 1777 H 161.152 3.69042 0.780262 0
M  V30 1778 H 163.539 2.74554 1.08186 0
M  V30 1779 H 163.62 2.47028 -0.664134 0
M  V30 1780 H 163.264 4.96886 -1.05201 0
M  V30 1781 H 163.194 5.21783 0.710635 0
M  V30 1782 H 165.685 3.77748 0.107161 0
M  V30 1783 H 165.998 7.7173 -0.406608 0
M  V30 1784 H 164.343 6.94074 -0.358733 0
M  V30 1785 H 167.534 4.68075 0.048498 0
M  V30 1786 H 167.707 6.47734 -0.185557 0
M  V30 1787 N 161.113 -0.173488 1.56642 0
M  V30 1788 C 162.045 -1.23935 1.92802 0
M  V30 1789 C 163.058 -1.40589 0.820889 0
M  V30 1790 O 164.247 -1.40631 1.09933 0
M  V30 1791 C 161.347 -2.60837 2.16373 0
M  V30 1792 C 160.52 -2.6551 3.47596 0
M  V30 1793 C 159.579 -3.8376 3.60021 0
M  V30 1794 O 158.605 -3.69859 4.32658 0
M  V30 1795 N 159.807 -5.00127 2.94709 0
M  V30 1796 H 162.572 -0.932236 2.84832 0
M  V30 1797 H 160.133 -0.363268 1.57772 0
M  V30 1798 H 162.125 -3.38407 2.21952 0
M  V30 1799 H 160.695 -2.83948 1.30738 0
M  V30 1800 H 159.915 -1.74052 3.53694 0
M  V30 1801 H 161.203 -2.65641 4.33949 0
M  V30 1802 H 160.601 -5.14322 2.35563 0
M  V30 1803 H 159.158 -5.75567 3.05886 0
M  V30 1804 N 162.591 -1.51276 -0.441967 0
M  V30 1805 C 163.816 -1.67799 -1.21895 0
M  V30 1806 C 164.241 -0.372864 -1.84367 0
M  V30 1807 O 163.599 0.666501 -1.68604 0
M  V30 1808 C 163.647 -2.79199 -2.28211 0
M  V30 1809 O 162.751 -2.42479 -3.33583 0
M  V30 1810 H 162.092 -0.559649 -0.357336 0
M  V30 1811 H 164.622 -1.97815 -0.522522 0
M  V30 1812 H 164.632 -3.03146 -2.73069 0
M  V30 1813 H 163.307 -3.73906 -1.82118 0
M  V30 1814 H 161.884 -2.29087 -2.94234 0
M  V30 1815 N 164.069 0.697108 -1.41344 0
M  V30 1816 C 165.017 1.83237 -1.43272 0
M  V30 1817 C 166.011 1.66522 -0.310947 0
M  V30 1818 O 167.217 1.73402 -0.482899 0
M  V30 1819 H 163.592 0.603802 -0.448249 0
M  V30 1820 H 165.563 1.78727 -2.38954 0
M  V30 1821 C 164.312 3.21245 -1.33029 0
M  V30 1822 H 163.635 3.34723 -2.18633 0
M  V30 1823 H 165.075 4.00763 -1.38439 0
M  V30 1824 C 163.534 3.36873 -0.0424635 0
M  V30 1825 O 164.064 3.91177 0.913421 0
M  V30 1826 N 162.27 2.90581 0.0331145 0
M  V30 1827 H 161.817 2.46577 -0.745506 0
M  V30 1828 H 161.775 3.01416 0.894199 0
M  V30 1829 N 165.547 1.27147 0.931209 0
M  V30 1830 C 166.477 1.12081 2.04842 0
M  V30 1831 C 167.458 0.0232364 1.70084 0
M  V30 1832 O 168.643 0.197085 1.93197 0
M  V30 1833 C 165.773 0.76354 3.38803 0
M  V30 1834 C 164.727 1.81396 3.87659 0
M  V30 1835 C 164.053 1.31075 5.18385 0
M  V30 1836 C 165.353 3.21739 4.11438 0
M  V30 1837 H 167.047 2.05537 2.17703 0
M  V30 1838 H 164.593 0.989603 1.04608 0
M  V30 1839 H 166.546 0.644982 4.16435 0
M  V30 1840 H 165.27 -0.206727 3.25945 0
M  V30 1841 H 163.929 1.92136 3.12217 0
M  V30 1842 H 163.577 0.330037 5.01916 0
M  V30 1843 H 163.277 2.013 5.52044 0
M  V30 1844 H 164.801 1.20506 5.98591 0
M  V30 1845 H 166.215 3.14019 4.79651 0
M  V30 1846 H 164.612 3.89644 4.56397 0
M  V30 1847 H 165.682 3.67054 3.16859 0
M  V30 1848 N 167.025 -1.13721 1.09112 0
M  V30 1849 C 167.935 -2.22638 0.73957 0
M  V30 1850 C 168.951 -1.72091 -0.257068 0
M  V30 1851 O 170.127 -2.01155 -0.0992154 0
M  V30 1852 C 167.192 -3.46322 0.16191 0
M  V30 1853 C 166.253 -4.11775 1.21408 0
M  V30 1854 C 165.486 -5.29555 0.663891 0
M  V30 1855 O 165.709 -5.68077 -0.514274 0
M  V30 1856 O 164.643 -5.84973 1.41738 0
M  V30 1857 H 168.469 -2.55074 1.64836 0
M  V30 1858 H 166.054 -1.21791 0.865289 0
M  V30 1859 H 167.936 -4.21107 -0.157073 0
M  V30 1860 H 166.611 -3.15593 -0.719932 0
M  V30 1861 H 165.518 -3.3883 1.58571 0
M  V30 1862 H 166.851 -4.46627 2.06845 0
M  V30 1863 N 168.503 -0.877838 -1.30888 0
M  V30 1864 C 169.433 -0.35534 -2.3078 0
M  V30 1865 C 170.414 0.557994 -1.60687 0
M  V30 1866 O 171.599 0.473355 -1.88343 0
M  V30 1867 C 168.729 0.437221 -3.44537 0
M  V30 1868 C 167.683 -0.383715 -4.26276 0
M  V30 1869 C 167.009 0.535014 -5.32017 0
M  V30 1870 C 168.309 -1.62201 -4.96476 0
M  V30 1871 H 170.003 -1.19007 -2.74732 0
M  V30 1872 H 167.549 -0.573698 -1.32078 0
M  V30 1873 H 169.502 0.813334 -4.13477 0
M  V30 1874 H 168.226 1.30553 -2.99372 0
M  V30 1875 H 166.885 -0.741874 -3.59015 0
M  V30 1876 H 166.533 1.40083 -4.831 0
M  V30 1877 H 166.233 -0.0104211 -5.87599 0
M  V30 1878 H 167.757 0.907799 -6.03814 0
M  V30 1879 H 169.171 -1.31689 -5.5797 0
M  V30 1880 H 167.568 -2.10711 -5.61891 0
M  V30 1881 H 168.638 -2.37044 -4.23011 0
M  V30 1882 N 169.982 1.44106 -0.638065 0
M  V30 1883 C 171.398 1.56672 -0.304286 0
M  V30 1884 C 171.598 1.6244 1.19228 0
M  V30 1885 O 170.654 1.57121 1.9766 0
M  V30 1886 C 171.967 2.83503 -1.00231 0
M  V30 1887 C 173.515 2.97226 -0.981116 0
M  V30 1888 C 173.99 4.26868 -1.65974 0
M  V30 1889 N 175.481 4.33698 -1.62666 0
M  V30 1890 C 176.216 5.32745 -2.12063 0
M  V30 1891 N 175.712 6.38157 -2.6968 0
M  V30 1892 N 177.505 5.24299 -2.02651 0
M  V30 1893 H 169.656 1.38605 -1.60942 0
M  V30 1894 H 171.919 0.664661 -0.675965 0
M  V30 1895 H 171.625 2.85251 -2.0573 0
M  V30 1896 H 171.499 3.73251 -0.54439 0
M  V30 1897 H 173.886 2.95027 0.0654188 0
M  V30 1898 H 173.967 2.08808 -1.47759 0
M  V30 1899 H 173.611 4.29826 -2.70576 0
M  V30 1900 H 173.541 5.14156 -1.13804 0
M  V30 1901 H 176.032 3.58138 -1.20606 0
M  V30 1902 H 176.345 7.10029 -3.05087 0
M  V30 1903 H 174.69 6.38823 -2.73734 0
M  V30 1904 H 177.881 4.4086 -1.57353 0
M  V30 1905 H 178.054 6.01334 -2.41457 0
M  V30 1906 N 171.46 0.379036 1.52974 0
M  V30 1907 C 172.392 -0.495963 2.2377 0
M  V30 1908 C 173.405 -1.03517 1.25651 0
M  V30 1909 O 174.594 -0.939249 1.51791 0
M  V30 1910 C 171.694 -1.69894 2.93239 0
M  V30 1911 C 170.867 -1.2889 4.17979 0
M  V30 1912 C 169.926 -2.35543 4.70538 0
M  V30 1913 O 168.952 -1.97375 5.33883 0
M  V30 1914 N 170.154 -3.67318 4.49508 0
M  V30 1915 H 172.919 0.110523 2.99496 0
M  V30 1916 H 170.48 0.204878 1.60598 0
M  V30 1917 H 172.472 -2.40747 3.25304 0
M  V30 1918 H 171.042 -2.212 2.20883 0
M  V30 1919 H 170.262 -0.409676 3.92065 0
M  V30 1920 H 171.55 -0.991443 4.99047 0
M  V30 1921 H 170.948 -4.01095 3.98923 0
M  V30 1922 H 169.505 -4.34235 4.8609 0
M  V30 1923 N 172.938 -1.57226 0.108567 0
M  V30 1924 C 173.885 -2.14756 -0.845481 0
M  V30 1925 C 174.855 -1.06971 -1.27068 0
M  V30 1926 O 176.04 -1.34827 -1.35005 0
M  V30 1927 C 173.18 -2.74298 -2.09415 0
M  V30 1928 C 172.293 -3.96358 -1.71826 0
M  V30 1929 C 171.428 -4.44021 -2.9158 0
M  V30 1930 C 170.467 -5.58637 -2.50181 0
M  V30 1931 N 169.604 -6.01091 -3.62814 0
M  V30 1932 H 174.444 -2.95961 -0.348035 0
M  V30 1933 H 171.981 -1.46226 -0.160106 0
M  V30 1934 H 173.939 -3.06945 -2.82561 0
M  V30 1935 H 172.569 -1.95801 -2.56636 0
M  V30 1936 H 171.621 -3.69939 -0.885947 0
M  V30 1937 H 172.933 -4.79504 -1.37394 0
M  V30 1938 H 172.087 -4.78522 -3.72963 0
M  V30 1939 H 170.826 -3.59803 -3.29231 0
M  V30 1940 H 169.831 -5.23751 -1.67228 0
M  V30 1941 H 171.056 -6.44613 -2.13659 0
M  V30 1942 H 169.002 -5.19817 -4.00158 0
M  V30 1943 H 168.919 -6.79066 -3.32273 0
M  V30 1944 H 170.187 -6.40227 -4.44668 0
M  V30 1945 N 174.416 0.165178 -1.56732 0
M  V30 1946 C 175.665 0.879143 -1.81532 0
M  V30 1947 C 175.978 1.83144 -0.686842 0
M  V30 1948 O 177.184 2.58823 -0.819944 0
M  V30 1949 C 175.64 1.61388 -3.21686 0
M  V30 1950 C 175.248 0.704904 -4.4242 0
M  V30 1951 C 176.992 2.3157 -3.55774 0
M  V30 1952 C 174.899 1.44022 -5.73595 0
M  V30 1953 H 173.829 0.332033 -0.676957 0
M  V30 1954 H 176.48 0.132008 -1.83025 0
M  V30 1955 H 174.862 2.40599 -3.14529 0
M  V30 1956 H 176.036 -0.0506815 -4.60772 0
M  V30 1957 H 174.351 0.112419 -4.16248 0
M  V30 1958 H 176.948 2.8719 -4.51028 0
M  V30 1959 H 177.291 3.07201 -2.8095 0
M  V30 1960 H 177.824 1.59297 -3.64513 0
M  V30 1961 H 174.563 0.72612 -6.51466 0
M  V30 1962 H 174.083 2.16898 -5.5921 0
M  V30 1963 H 175.762 1.98606 -6.15764 0
M  V30 1964 N 175.894 1.51508 0.433938 0
M  V30 1965 C 176.842 1.73646 1.54757 0
M  V30 1966 C 177.836 0.602854 1.5831 0
M  V30 1967 O 179.042 0.784318 1.62014 0
M  V30 1968 H 175.417 0.548718 0.51421 0
M  V30 1969 H 177.388 2.66991 1.33261 0
M  V30 1970 C 176.137 1.88172 2.92381 0
M  V30 1971 H 175.46 2.74808 2.90381 0
M  V30 1972 H 176.9 2.07672 3.6966 0
M  V30 1973 C 175.359 0.64239 3.30719 0
M  V30 1974 O 175.889 -0.201362 4.01195 0
M  V30 1975 N 174.095 0.485489 2.86516 0
M  V30 1976 H 173.642 1.17318 2.29334 0
M  V30 1977 H 173.6 -0.342482 3.12529 0
M  V30 1978 N 177.372 -0.689602 1.41712 0
M  V30 1979 C 178.282 -1.83314 1.46401 0
M  V30 1980 C 179.298 -1.7036 0.35405 0
M  V30 1981 O 180.474 -1.92171 0.602692 0
M  V30 1982 C 177.539 -3.19344 1.34982 0
M  V30 1983 C 176.6 -3.44363 2.56344 0
M  V30 1984 C 175.833 -4.73904 2.45461 0
M  V30 1985 O 176.056 -5.508 1.48241 0
M  V30 1986 O 174.99 -4.99839 3.35328 0
M  V30 1987 H 178.816 -1.82314 2.42889 0
M  V30 1988 H 176.401 -0.843438 1.23315 0
M  V30 1989 H 178.283 -4.00547 1.3092 0
M  V30 1990 H 176.958 -3.21014 0.41612 0
M  V30 1991 H 175.865 -2.63067 2.65982 0
M  V30 1992 H 177.198 -3.47512 3.48563 0
M  V30 1993 N 178.85 -1.27639 -0.924453 0
M  V30 1994 C 180.099 -1.13549 -1.66702 0
M  V30 1995 C 180.412 0.317487 -1.93006 0
M  V30 1996 O 181.618 0.579333 -2.65247 0
M  V30 1997 C 180.074 -1.98426 -3.00259 0
M  V30 1998 C 179.682 -3.484 -2.81641 0
M  V30 1999 C 181.426 -1.92993 -3.78092 0
M  V30 2000 C 179.333 -4.25464 -4.10773 0
M  V30 2001 H 178.263 -0.421351 -0.625283 0
M  V30 2002 H 180.914 -1.52085 -1.02676 0
M  V30 2003 H 179.296 -1.52736 -3.6536 0
M  V30 2004 H 180.47 -4.01973 -2.25287 0
M  V30 2005 H 178.785 -3.55245 -2.17232 0
M  V30 2006 H 181.382 -2.47844 -4.7379 0
M  V30 2007 H 181.725 -0.904281 -4.0636 0
M  V30 2008 H 182.258 -2.36595 -3.19793 0
M  V30 2009 H 178.997 -5.28566 -3.87683 0
M  V30 2010 H 178.517 -3.76667 -4.66779 0
M  V30 2011 H 180.196 -4.34812 -4.79111 0
M  V30 2012 N 180.328 1.1314 -1.09713 0
M  V30 2013 C 181.258 2.20748 -0.761102 0
M  V30 2014 C 182.239 1.68061 0.262566 0
M  V30 2015 O 183.424 1.93765 0.129977 0
M  V30 2016 C 180.554 3.46812 -0.184054 0
M  V30 2017 C 179.508 4.12606 -1.13757 0
M  V30 2018 C 178.834 5.33031 -0.422083 0
M  V30 2019 C 180.134 4.59603 -2.48118 0
M  V30 2020 H 181.828 2.49113 -1.66082 0
M  V30 2021 H 179.374 1.19734 -0.799987 0
M  V30 2022 H 181.327 4.21353 0.0631215 0
M  V30 2023 H 180.051 3.17851 0.750868 0
M  V30 2024 H 178.71 3.40036 -1.37007 0
M  V30 2025 H 178.358 5.00335 0.517072 0
M  V30 2026 H 178.058 5.77999 -1.05788 0
M  V30 2027 H 179.582 6.10325 -0.183277 0
M  V30 2028 H 180.996 5.25552 -2.29059 0
M  V30 2029 H 179.393 5.15321 -3.07514 0
M  V30 2030 H 180.463 3.73971 -3.08665 0
M  V30 2031 N 181.806 0.884767 1.30421 0
M  V30 2032 C 182.753 0.349642 2.28136 0
M  V30 2033 C 183.723 -0.560061 1.56373 0
M  V30 2034 O 184.908 -0.488524 1.8444 0
M  V30 2035 C 182.048 -0.42999 3.42411 0
M  V30 2036 C 181.161 0.508907 4.28992 0
M  V30 2037 C 180.296 -0.286301 5.30428 0
M  V30 2038 C 179.335 0.648079 6.08659 0
M  V30 2039 N 178.472 -0.111792 7.02011 0
M  V30 2040 H 183.312 1.18807 2.73293 0
M  V30 2041 H 180.849 0.597231 1.3443 0
M  V30 2042 H 182.807 -0.897923 4.07423 0
M  V30 2043 H 181.437 -1.23299 2.98324 0
M  V30 2044 H 180.489 1.09533 3.64289 0
M  V30 2045 H 181.801 1.22475 4.8353 0
M  V30 2046 H 180.955 -0.816098 6.01186 0
M  V30 2047 H 179.694 -1.03536 4.76583 0
M  V30 2048 H 178.699 1.18951 5.36778 0
M  V30 2049 H 179.924 1.39623 6.64592 0
M  V30 2050 H 177.87 -0.843395 6.50556 0
M  V30 2051 H 177.787 0.544429 7.54037 0
M  V30 2052 H 179.055 -0.622339 7.77012 0
M  V30 2053 N 183.284 -1.43765 0.645699 0
M  V30 2054 C 184.532 -2.01499 0.155731 0
M  V30 2055 C 184.853 -1.51151 -1.232 0
M  V30 2056 O 184.123 -0.721044 -1.82148 0
M  V30 2057 H 182.703 -0.745003 0.0545817 0
M  V30 2058 H 185.365 -1.76075 0.835677 0
M  V30 2059 H 184.461 -3.1181 0.134577 0
M  V30 2060 N 184.763 -0.387143 -1.52771 0
M  V30 2061 C 185.993 0.195585 -2.05672 0
M  V30 2062 C 186.401 1.41241 -1.25887 0
M  V30 2063 O 185.744 1.81265 -0.298081 0
M  V30 2064 C 185.806 0.632327 -3.53895 0
M  V30 2065 C 185.47 -0.470739 -4.54569 0
M  V30 2066 C 186.467 -1.32746 -5.02667 0
M  V30 2067 C 184.152 -0.637151 -4.98243 0
M  V30 2068 C 186.146 -2.33574 -5.93061 0
M  V30 2069 C 183.833 -1.64877 -5.88438 0
M  V30 2070 C 184.831 -2.49649 -6.35739 0
M  V30 2071 O 184.519 -3.49082 -7.24153 0
M  V30 2072 H 184.251 0.033658 -0.675162 0
M  V30 2073 H 186.805 -0.550221 -1.97893 0
M  V30 2074 H 185.035 1.43008 -3.59285 0
M  V30 2075 H 186.724 1.14048 -3.89548 0
M  V30 2076 H 187.49 -1.21019 -4.69659 0
M  V30 2077 H 183.369 0.0129567 -4.60998 0
M  V30 2078 H 186.913 -2.99777 -6.29904 0
M  V30 2079 H 182.81 -1.76643 -6.2086 0
M  V30 2080 H 183.578 -3.45065 -7.42208 0
M  V30 2081 N 186.241 1.57166 -0.116904 0
M  V30 2082 C 187.171 2.18222 0.830759 0
M  V30 2083 C 188.152 1.12167 1.27877 0
M  V30 2084 O 189.337 1.40394 1.34176 0
M  V30 2085 C 186.467 2.77996 2.08172 0
M  V30 2086 C 185.421 3.89614 1.77157 0
M  V30 2087 C 184.747 4.36187 3.09265 0
M  V30 2088 C 186.047 5.1181 1.04151 0
M  V30 2089 H 187.741 2.97664 0.321992 0
M  V30 2090 H 185.287 1.4318 0.153434 0
M  V30 2091 H 187.24 3.19366 2.74924 0
M  V30 2092 H 185.964 1.9584 2.6137 0
M  V30 2093 H 184.623 3.48816 1.12796 0
M  V30 2094 H 184.271 3.50893 3.60393 0
M  V30 2095 H 183.971 5.11455 2.89288 0
M  V30 2096 H 185.495 4.80207 3.77139 0
M  V30 2097 H 186.909 5.50214 1.61052 0
M  V30 2098 H 185.306 5.92648 0.942762 0
M  V30 2099 H 186.376 4.84892 0.0279022 0
M  V30 2100 N 187.719 -0.156864 1.56817 0
M  V30 2101 C 188.667 -1.21319 1.98455 0
M  V30 2102 C 189.661 -1.45025 0.875444 0
M  V30 2103 O 190.867 -1.45435 1.0606 0
M  V30 2104 H 187.242 -0.408142 0.631605 0
M  V30 2105 H 189.213 -0.835244 2.86472 0
M  V30 2106 C 187.962 -2.54148 2.37285 0
M  V30 2107 H 187.285 -2.36733 3.22176 0
M  V30 2108 H 188.725 -3.26712 2.70251 0
M  V30 2109 C 187.184 -3.13967 1.22173 0
M  V30 2110 O 187.714 -3.98357 0.517149 0
M  V30 2111 N 185.92 -2.7327 0.988536 0
M  V30 2112 H 185.467 -2.04744 1.56326 0
M  V30 2113 H 185.425 -3.13628 0.220209 0
M  V30 2114 N 189.197 -1.51736 -0.425897 0
M  V30 2115 C 190.446 -1.64201 -1.17136 0
M  V30 2116 C 190.759 -0.369705 -1.92074 0
M  V30 2117 O 191.965 -0.373898 -2.68913 0
M  V30 2118 C 190.421 -2.90035 -2.13091 0
M  V30 2119 C 190.029 -4.24312 -1.43747 0
M  V30 2120 C 191.773 -3.1186 -2.87999 0
M  V30 2121 C 189.68 -5.41285 -2.38253 0
M  V30 2122 H 188.61 -0.611624 -0.440944 0
M  V30 2123 H 191.261 -1.78212 -0.437328 0
M  V30 2124 H 189.643 -2.69684 -2.89977 0
M  V30 2125 H 190.817 -4.55086 -0.723408 0
M  V30 2126 H 189.132 -4.08456 -0.809465 0
M  V30 2127 H 191.729 -3.96427 -3.58817 0
M  V30 2128 H 192.072 -2.25403 -3.49999 0
M  V30 2129 H 192.605 -3.32605 -2.18217 0
M  V30 2130 H 189.344 -6.30037 -1.80925 0
M  V30 2131 H 188.864 -5.14872 -3.0768 0
M  V30 2132 H 190.543 -5.73694 -2.99139 0
M  V30 2133 N 190.675 0.682077 -1.42076 0
M  V30 2134 C 191.605 1.80796 -1.47767 0
M  V30 2135 C 192.586 1.6677 -0.334954 0
M  V30 2136 O 193.771 1.863 -0.548264 0
M  V30 2137 C 190.901 3.19038 -1.37229 0
M  V30 2138 C 189.855 3.47789 -2.49453 0
M  V30 2139 C 189.181 4.8553 -2.23975 0
M  V30 2140 C 190.481 3.45411 -3.91776 0
M  V30 2141 H 192.175 1.7629 -2.41997 0
M  V30 2142 H 189.721 0.846721 -1.16476 0
M  V30 2143 H 191.674 3.97528 -1.39821 0
M  V30 2144 H 190.398 3.24204 -0.394907 0
M  V30 2145 H 189.057 2.71657 -2.46166 0
M  V30 2146 H 188.705 4.87337 -1.24547 0
M  V30 2147 H 188.405 5.0573 -2.99184 0
M  V30 2148 H 189.929 5.66312 -2.28304 0
M  V30 2149 H 191.343 4.13882 -3.96705 0
M  V30 2150 H 189.74 3.77145 -4.66778 0
M  V30 2151 H 190.81 2.44122 -4.18966 0
M  V30 2152 N 192.153 1.28127 0.917671 0
M  V30 2153 C 193.43 1.05761 1.64542 0
M  V30 2154 C 193.81 -0.404344 2.07191 0
M  V30 2155 O 193.158 -1.38963 1.81388 0
M  V30 2156 C 193.368 2.02857 2.83989 0
M  V30 2157 C 194.716 2.32786 3.551 0
M  V30 2158 O 195.74 2.0091 2.94132 0
M  V30 2159 O 194.599 2.87169 4.64969 0
M  V30 2160 H 191.693 0.403916 0.721652 0
M  V30 2161 H 194.239 1.39431 0.967322 0
M  V30 2162 H 193.011 3.01407 2.49538 0
M  V30 2163 H 192.634 1.69809 3.59514 0
M  V30 2164 N 193.631 -1.12557 1.10312 0
M  V30 2165 C 194.879 -1.83675 0.843091 0
M  V30 2166 C 195.2 -1.84435 -0.633131 0
M  V30 2167 O 194.47 -1.30657 -1.45964 0
M  V30 2168 H 193.05 -0.680138 0.308904 0
M  V30 2169 H 195.712 -1.36301 1.39313 0
M  V30 2170 H 194.808 -2.87908 1.2048 0
M  V30 2171 N 195.109 -0.891671 -1.2995 0
M  V30 2172 C 196.358 -0.509521 -1.95158 0
M  V30 2173 C 196.671 0.947388 -1.71125 0
M  V30 2174 O 197.877 1.43669 -2.30372 0
M  V30 2175 C 196.333 -0.860315 -3.49466 0
M  V30 2176 C 195.941 -2.33545 -3.8231 0
M  V30 2177 C 197.685 -0.547687 -4.20952 0
M  V30 2178 C 195.592 -2.62752 -5.29826 0
M  V30 2179 H 194.522 -0.18682 -0.730489 0
M  V30 2180 H 197.173 -1.08756 -1.47798 0
M  V30 2181 H 195.555 -0.211285 -3.95436 0
M  V30 2182 H 196.729 -3.02936 -3.47227 0
M  V30 2183 H 195.044 -2.61629 -3.23944 0
M  V30 2184 H 197.641 -0.742854 -5.29515 0
M  V30 2185 H 197.984 0.51332 -4.13123 0
M  V30 2186 H 198.517 -1.1542 -3.80688 0
M  V30 2187 H 195.256 -3.6762 -5.42712 0
M  V30 2188 H 194.776 -1.97977 -5.66185 0
M  V30 2189 H 196.455 -2.48601 -5.97333 0
M  V30 2190 N 196.587 1.43421 -0.653314 0
M  V30 2191 C 197.517 2.33487 0.0246656 0
M  V30 2192 C 198.498 1.49475 0.811863 0
M  V30 2193 O 199.683 1.78139 0.773322 0
M  V30 2194 C 196.813 3.32841 0.99166 0
M  V30 2195 C 195.767 4.26842 0.314568 0
M  V30 2196 C 195.093 5.16236 1.39302 0
M  V30 2197 C 196.393 5.16243 -0.793095 0
M  V30 2198 H 198.087 2.90427 -0.727481 0
M  V30 2199 H 195.633 1.39649 -0.351287 0
M  V30 2200 H 197.586 3.94747 1.47487 0
M  V30 2201 H 196.31 2.74158 1.77497 0
M  V30 2202 H 194.969 3.663 -0.148199 0
M  V30 2203 H 194.617 4.53891 2.16776 0
M  V30 2204 H 194.317 5.79948 0.945223 0
M  V30 2205 H 195.841 5.81015 1.87759 0
M  V30 2206 H 197.255 5.71958 -0.392039 0
M  V30 2207 H 195.652 5.88676 -1.16536 0
M  V30 2208 H 196.722 4.55927 -1.65103 0
M  V30 2209 N 198.065 0.39524 1.52563 0
M  V30 2210 C 199.293 -0.184943 2.06072 0
M  V30 2211 C 199.708 -1.40021 1.26647 0
M  V30 2212 O 199.065 -1.79767 0.314672 0
M  V30 2213 C 199.116 -0.549179 3.57304 0
M  V30 2214 O 198.837 0.617813 4.33722 0
M  V30 2215 C 200.338 -1.18459 4.2718 0
M  V30 2216 H 197.558 -0.0265025 0.670476 0
M  V30 2217 H 200.102 0.562184 1.96621 0
M  V30 2218 H 198.257 -1.2462 3.66809 0
M  V30 2219 H 198.671 0.317091 5.23541 0
M  V30 2220 H 200.145 -1.38976 5.34219 0
M  V30 2221 H 200.622 -2.15368 3.82771 0
M  V30 2222 H 201.228 -0.528163 4.22008 0
M  V30 2223 N 199.544 -1.57102 0.125237 0
M  V30 2224 C 200.454 -2.19191 -0.8362 0
M  V30 2225 C 201.47 -1.16985 -1.28805 0
M  V30 2226 O 202.646 -1.49479 -1.34974 0
M  V30 2227 C 199.711 -2.78407 -2.06617 0
M  V30 2228 C 198.772 -3.9567 -1.66565 0
M  V30 2229 C 198.005 -4.52052 -2.83698 0
M  V30 2230 O 198.228 -4.07326 -3.99302 0
M  V30 2231 O 197.162 -5.42645 -2.60423 0
M  V30 2232 H 200.988 -3.01816 -0.337776 0
M  V30 2233 H 198.573 -1.4906 -0.100695 0
M  V30 2234 H 200.455 -3.16129 -2.7864 0
M  V30 2235 H 199.13 -1.9881 -2.55453 0
M  V30 2236 H 198.037 -3.62705 -0.916296 0
M  V30 2237 H 199.37 -4.76722 -1.22464 0
M  V30 2238 N 201.022 0.148545 -1.56898 0
M  V30 2239 C 202.27 0.859717 -1.82902 0
M  V30 2240 C 202.591 1.81775 -0.70588 0
M  V30 2241 O 201.861 1.93994 0.272586 0
M  V30 2242 H 200.441 0.320469 -0.674766 0
M  V30 2243 H 203.103 0.142918 -1.94375 0
M  V30 2244 H 202.199 1.4229 -2.77777 0
M  V30 2245 N 202.5 1.5196 0.417844 0
M  V30 2246 C 203.749 1.6482 1.16264 0
M  V30 2247 C 204.062 0.379886 1.91876 0
M  V30 2248 O 205.268 0.388154 2.68711 0
M  V30 2249 C 203.724 2.91161 2.1155 0
M  V30 2250 C 203.332 4.25068 1.41495 0
M  V30 2251 C 205.076 3.13383 2.86341 0
M  V30 2252 C 202.983 5.42541 2.35379 0
M  V30 2253 H 201.913 0.613954 0.437694 0
M  V30 2254 H 204.564 1.78442 0.427871 0
M  V30 2255 H 202.946 2.71218 2.88543 0
M  V30 2256 H 204.12 4.55463 0.699263 0
M  V30 2257 H 202.435 4.0888 0.787792 0
M  V30 2258 H 205.032 3.98324 3.5671 0
M  V30 2259 H 205.375 2.27256 3.48798 0
M  V30 2260 H 205.908 3.33757 2.1645 0
M  V30 2261 H 202.647 6.30987 1.77582 0
M  V30 2262 H 202.167 5.16497 3.04945 0
M  V30 2263 H 203.846 5.75272 2.96093 0
M  V30 2264 N 203.978 -0.674533 1.42435 0
M  V30 2265 C 204.91 -1.80005 1.41883 0
M  V30 2266 C 205.923 -1.59667 0.31787 0
M  V30 2267 O 207.112 -1.68781 0.580973 0
M  V30 2268 C 204.212 -3.17114 1.19549 0
M  V30 2269 C 203.385 -3.64299 2.42084 0
M  V30 2270 C 202.444 -4.80142 2.15291 0
M  V30 2271 O 201.47 -4.90673 2.88493 0
M  V30 2272 N 202.672 -5.68869 1.1562 0
M  V30 2273 H 205.437 -1.80964 2.38898 0
M  V30 2274 H 202.998 -0.857633 1.37318 0
M  V30 2275 H 204.99 -3.92267 0.995417 0
M  V30 2276 H 203.56 -3.11053 0.310569 0
M  V30 2277 H 202.78 -2.79822 2.77657 0
M  V30 2278 H 204.068 -3.92567 3.23679 0
M  V30 2279 H 203.466 -5.63012 0.550765 0
M  V30 2280 H 202.023 -6.43833 1.016 0
M  V30 2281 N 205.456 -1.28612 -0.910864 0
M  V30 2282 C 206.681 -1.1891 -1.69927 0
M  V30 2283 C 207.106 0.248372 -1.86453 0
M  V30 2284 O 206.464 1.17961 -1.37676 0
M  V30 2285 C 206.512 -1.89578 -3.06745 0
M  V30 2286 O 205.616 -1.20521 -3.94396 0
M  V30 2287 H 204.957 -0.412632 -0.520222 0
M  V30 2288 H 207.487 -1.69985 -1.1387 0
M  V30 2289 H 207.497 -1.97597 -3.56958 0
M  V30 2290 H 206.172 -2.94136 -2.94035 0
M  V30 2291 H 204.749 -1.20684 -3.52831 0
M  V30 2292 N 206.934 1.1197 -1.10907 0
M  V30 2293 C 208.182 1.83225 -0.852819 0
M  V30 2294 C 208.503 1.84769 0.623341 0
M  V30 2295 O 207.773 1.3143 1.45269 0
M  V30 2296 H 206.353 0.67849 -0.312507 0
M  V30 2297 H 209.015 1.3556 -1.40033 0
M  V30 2298 H 208.111 2.87265 -1.22005 0
M  V30 2299 N 208.412 0.89855 1.29475 0
M  V30 2300 C 209.322 0.379974 2.31502 0
M  V30 2301 C 210.338 -0.524695 1.659 0
M  V30 2302 O 211.514 -0.414551 1.97087 0
M  V30 2303 C 208.579 -0.385138 3.44554 0
M  V30 2304 C 207.64 0.550914 4.2575 0
M  V30 2305 C 206.873 -0.177778 5.33404 0
M  V30 2306 O 207.096 -1.40189 5.52904 0
M  V30 2307 O 206.03 0.479106 5.9999 0
M  V30 2308 H 209.856 1.22639 2.77837 0
M  V30 2309 H 207.441 0.662834 1.33891 0
M  V30 2310 H 209.323 -0.817841 4.13388 0
M  V30 2311 H 207.998 -1.20763 3.0033 0
M  V30 2312 H 206.905 1.03271 3.59564 0
M  V30 2313 H 208.238 1.33979 4.73614 0
M  V30 2314 N 209.89 -1.43072 0.660911 0
M  V30 2315 C 211.139 -2.00942 0.174735 0
M  V30 2316 C 211.452 -1.52797 -1.22117 0
M  V30 2317 O 212.658 -2.02991 -1.80297 0
M  V30 2318 C 211.114 -3.58948 0.261559 0
M  V30 2319 C 210.722 -4.16085 1.66064 0
M  V30 2320 C 212.466 -4.24173 -0.166617 0
M  V30 2321 C 210.373 -5.6641 1.70098 0
M  V30 2322 H 209.303 -0.751483 0.0615631 0
M  V30 2323 H 211.954 -1.63955 0.824069 0
M  V30 2324 H 210.336 -3.93372 -0.455421 0
M  V30 2325 H 211.51 -3.93147 2.40359 0
M  V30 2326 H 209.825 -3.6326 2.03546 0
M  V30 2327 H 212.422 -5.34471 -0.156433 0
M  V30 2328 H 212.765 -3.98647 -1.19943 0
M  V30 2329 H 213.298 -3.94659 0.498875 0
M  V30 2330 H 210.037 -5.96715 2.71315 0
M  V30 2331 H 209.557 -5.91382 1.00139 0
M  V30 2332 H 211.236 -6.30585 1.44816 0
M  V30 2333 N 211.368 -0.403325 -1.52352 0
M  V30 2334 C 212.315 0.425011 -2.26853 0
M  V30 2335 C 213.285 1.04598 -1.29029 0
M  V30 2336 O 214.47 1.07135 -1.57882 0
M  V30 2337 C 211.61 1.53888 -3.08889 0
M  V30 2338 C 210.723 0.939396 -4.21663 0
M  V30 2339 C 209.858 2.02547 -4.91068 0
M  V30 2340 C 208.897 1.40263 -5.95813 0
M  V30 2341 N 208.034 2.4286 -6.58759 0
M  V30 2342 H 212.874 -0.21674 -2.97211 0
M  V30 2343 H 210.411 -0.118722 -1.4662 0
M  V30 2344 H 212.369 2.19558 -3.54753 0
M  V30 2345 H 210.999 2.15074 -2.40714 0
M  V30 2346 H 210.051 0.171898 -3.80011 0
M  V30 2347 H 211.363 0.44436 -4.96817 0
M  V30 2348 H 210.517 2.75958 -5.40308 0
M  V30 2349 H 209.256 2.55415 -4.15469 0
M  V30 2350 H 208.261 0.653833 -5.45898 0
M  V30 2351 H 209.486 0.881719 -6.73352 0
M  V30 2352 H 207.432 2.94871 -5.85992 0
M  V30 2353 H 207.349 1.98152 -7.2957 0
M  V30 2354 H 208.617 3.15858 -7.12639 0
M  V30 2355 N 212.846 1.57033 -0.133567 0
M  V30 2356 C 213.756 2.19632 0.824564 0
M  V30 2357 C 214.772 1.17666 1.28182 0
M  V30 2358 O 215.948 1.50193 1.3418 0
M  V30 2359 C 213.013 2.79499 2.05137 0
M  V30 2360 C 212.074 3.96548 1.64464 0
M  V30 2361 C 211.307 4.5355 2.81297 0
M  V30 2362 O 211.53 4.09438 3.97136 0
M  V30 2363 O 210.464 5.44018 2.57542 0
M  V30 2364 H 214.29 3.01991 0.321766 0
M  V30 2365 H 211.875 1.49112 0.0927889 0
M  V30 2366 H 213.757 3.17602 2.7696 0
M  V30 2367 H 212.432 2.00162 2.54395 0
M  V30 2368 H 211.339 3.63186 0.897048 0
M  V30 2369 H 212.672 4.77364 1.19934 0
M  V30 2370 N 214.325 -0.140222 1.56975 0
M  V30 2371 C 215.573 -0.850005 1.83356 0
M  V30 2372 C 215.894 -1.81399 0.71551 0
M  V30 2373 O 215.164 -1.94136 -0.262294 0
M  V30 2374 H 213.744 -0.316886 0.676456 0
M  V30 2375 H 216.406 -0.132608 1.94448 0
M  V30 2376 H 215.502 -1.40814 2.78528 0
M  V30 2377 N 215.803 -1.52179 -0.40978 0
M  V30 2378 C 216.733 -1.78435 -1.5061 0
M  V30 2379 C 217.714 -0.635295 -1.57791 0
M  V30 2380 O 218.899 -0.880823 -1.73076 0
M  V30 2381 C 216.029 -1.93444 -2.88439 0
M  V30 2382 C 214.983 -3.09038 -2.96108 0
M  V30 2383 C 214.309 -3.09268 -4.36185 0
M  V30 2384 C 215.609 -4.48508 -2.67652 0
M  V30 2385 H 217.303 -2.70237 -1.28889 0
M  V30 2386 H 214.849 -1.30036 -0.618605 0
M  V30 2387 H 216.802 -2.10394 -3.65119 0
M  V30 2388 H 215.526 -0.983129 -3.11452 0
M  V30 2389 H 214.185 -2.91837 -2.21872 0
M  V30 2390 H 213.833 -2.11861 -4.56206 0
M  V30 2391 H 213.533 -3.86907 -4.42241 0
M  V30 2392 H 215.057 -3.28348 -5.14801 0
M  V30 2393 H 216.471 -4.65918 -3.34056 0
M  V30 2394 H 214.868 -5.28059 -2.85085 0
M  V30 2395 H 215.938 -4.56649 -1.63095 0
M  V30 2396 N 217.281 0.66697 -1.42791 0
M  V30 2397 C 218.558 1.4234 -1.34159 0
M  V30 2398 C 218.938 2.11093 0.0172729 0
M  V30 2399 O 218.286 2.03808 1.03318 0
M  V30 2400 C 218.496 2.41942 -2.51526 0
M  V30 2401 C 219.844 3.06353 -2.93995 0
M  V30 2402 O 220.868 2.52269 -2.51473 0
M  V30 2403 O 219.727 4.04376 -3.67617 0
M  V30 2404 H 216.821 0.635277 -0.529483 0
M  V30 2405 H 219.367 0.695034 -1.54814 0
M  V30 2406 H 218.139 1.89991 -3.42081 0
M  V30 2407 H 217.762 3.22249 -2.32898 0
M  V30 2408 N 218.759 1.29093 0.90403 0
M  V30 2409 C 220.005 1.16986 1.65656 0
M  V30 2410 C 220.338 -0.278925 1.92186 0
M  V30 2411 O 219.613 -1.2019 1.5292 0
M  V30 2412 C 219.896 1.97908 3.0084 0
M  V30 2413 C 219.749 3.50903 2.81403 0
M  V30 2414 C 221.068 1.80208 4.01513 0
M  V30 2415 H 218.187 0.426346 0.601164 0
M  V30 2416 H 220.829 1.58518 1.04747 0
M  V30 2417 H 218.979 1.62616 3.52829 0
M  V30 2418 H 220.651 3.96153 2.36348 0
M  V30 2419 H 218.894 3.76045 2.1627 0
M  V30 2420 H 219.565 4.02791 3.77443 0
M  V30 2421 H 222.041 2.11025 3.58619 0
M  V30 2422 H 220.917 2.39184 4.94047 0
M  V30 2423 H 221.178 0.756119 4.35586 0
M  V30 2424 N 220.237 -1.11381 1.11499 0
M  V30 2425 C 221.653 -1.35143 0.849031 0
M  V30 2426 C 221.853 -1.94515 -0.525938 0
M  V30 2427 O 220.909 -2.1785 -1.27662 0
M  V30 2428 C 222.222 -2.28249 1.95762 0
M  V30 2429 C 223.77 -2.41812 1.98736 0
M  V30 2430 C 224.245 -3.3824 3.088 0
M  V30 2431 N 225.736 -3.45803 3.08179 0
M  V30 2432 C 226.471 -4.20358 3.89982 0
M  V30 2433 N 225.967 -4.97884 4.8175 0
M  V30 2434 N 227.76 -4.15877 3.78157 0
M  V30 2435 H 219.911 -0.712062 2.00109 0
M  V30 2436 H 222.174 -0.376025 0.870235 0
M  V30 2437 H 221.88 -1.91817 2.94787 0
M  V30 2438 H 221.754 -3.28473 1.85433 0
M  V30 2439 H 224.141 -2.77518 1.00338 0
M  V30 2440 H 224.222 -1.41437 2.13141 0
M  V30 2441 H 223.866 -3.03261 4.07425 0
M  V30 2442 H 223.796 -4.38471 2.91635 0
M  V30 2443 H 226.287 -2.90506 2.41691 0
M  V30 2444 H 226.6 -5.52142 5.40702 0
M  V30 2445 H 224.945 -4.97043 4.85771 0
M  V30 2446 H 228.136 -3.544 3.05808 0
M  V30 2447 H 228.309 -4.73723 4.42143 0
M  V30 2448 N 221.715 -0.905404 -1.28997 0
M  V30 2449 C 222.645 -0.404212 -2.29975 0
M  V30 2450 C 223.626 0.523784 -1.61835 0
M  V30 2451 O 224.811 0.433298 -1.89304 0
M  V30 2452 C 221.941 0.364042 -3.45387 0
M  V30 2453 C 220.895 -0.474048 -4.25367 0
M  V30 2454 C 220.221 0.422045 -5.33032 0
M  V30 2455 C 221.521 -1.72696 -4.92923 0
M  V30 2456 H 223.215 -1.24807 -2.72146 0
M  V30 2457 H 220.761 -0.601585 -1.30832 0
M  V30 2458 H 222.714 0.725447 -4.15109 0
M  V30 2459 H 221.438 1.24174 -3.02074 0
M  V30 2460 H 220.097 -0.81786 -3.57361 0
M  V30 2461 H 219.745 1.29804 -4.85963 0
M  V30 2462 H 219.445 -0.135057 -5.87445 0
M  V30 2463 H 220.969 0.779517 -6.05604 0
M  V30 2464 H 222.383 -1.43495 -5.55051 0
M  V30 2465 H 220.78 -2.22582 -5.57295 0
M  V30 2466 H 221.85 -2.45964 -4.17887 0
M  V30 2467 N 223.193 1.4272 -0.668489 0
M  V30 2468 C 224.156 2.292 0.00448567 0
M  V30 2469 C 225.156 1.43001 0.735339 0
M  V30 2470 O 226.346 1.64461 0.57429 0
M  V30 2471 C 223.478 3.25375 1.01705 0
M  V30 2472 H 224.671 2.90199 -0.756608 0
M  V30 2473 H 222.224 1.50254 -0.430506 0
M  V30 2474 H 222.959 2.69301 1.80686 0
M  V30 2475 H 222.744 3.88944 0.496463 0
M  V30 2476 H 224.234 3.90245 1.48655 0
M  V30 2477 N 224.671 0.411399 1.52136 0
M  V30 2478 C 226.087 0.0623865 1.59478 0
M  V30 2479 C 226.287 -1.42554 1.4241 0
M  V30 2480 O 225.343 -2.19263 1.2522 0
M  V30 2481 C 226.656 0.559331 2.95452 0
M  V30 2482 C 228.204 0.517503 3.08692 0
M  V30 2483 C 228.679 0.990994 4.4715 0
M  V30 2484 N 230.17 0.947908 4.53397 0
M  V30 2485 C 230.905 1.28544 5.58806 0
M  V30 2486 N 230.401 1.69454 6.71757 0
M  V30 2487 N 232.194 1.20526 5.49026 0
M  V30 2488 H 224.345 1.37982 1.61477 0
M  V30 2489 H 226.608 0.566977 0.759764 0
M  V30 2490 H 226.314 1.59938 3.1323 0
M  V30 2491 H 226.188 -0.0298014 3.77188 0
M  V30 2492 H 228.575 -0.513505 2.90598 0
M  V30 2493 H 228.656 1.14272 2.28857 0
M  V30 2494 H 228.3 2.02034 4.65988 0
M  V30 2495 H 228.23 0.34257 5.25485 0
M  V30 2496 H 230.721 0.647157 3.72317 0
M  V30 2497 H 231.034 1.93513 7.48179 0
M  V30 2498 H 229.379 1.73359 6.73032 0
M  V30 2499 H 232.57 0.884505 4.59667 0
M  V30 2500 H 232.743 1.47161 6.31069 0
M  V30 2501 N 226.149 -1.5696 0.141893 0
M  V30 2502 C 227.081 -2.13619 -0.830627 0
M  V30 2503 C 228.094 -1.08439 -1.21428 0
M  V30 2504 O 229.283 -1.35734 -1.15925 0
M  V30 2505 C 226.383 -2.63978 -2.12529 0
M  V30 2506 C 225.556 -3.93504 -1.9098 0
M  V30 2507 C 224.615 -4.29225 -3.04388 0
M  V30 2508 O 223.641 -4.97641 -2.76302 0
M  V30 2509 N 224.843 -3.88393 -4.31429 0
M  V30 2510 H 227.608 -2.97691 -0.34641 0
M  V30 2511 H 225.169 -1.61846 -0.0418375 0
M  V30 2512 H 227.161 -2.84891 -2.87436 0
M  V30 2513 H 225.731 -1.84659 -2.52229 0
M  V30 2514 H 224.951 -3.81269 -1.00139 0
M  V30 2515 H 226.239 -4.78154 -1.73914 0
M  V30 2516 H 225.637 -3.33257 -4.57117 0
M  V30 2517 H 224.194 -4.14368 -5.03133 0
M  V30 2518 N 227.627 0.131896 -1.57047 0
M  V30 2519 C 228.56 1.19236 -1.94571 0
M  V30 2520 C 229.538 1.40782 -0.813576 0
M  V30 2521 O 230.722 1.55148 -1.07058 0
M  V30 2522 C 227.849 2.54858 -2.23081 0
M  V30 2523 C 226.895 2.49817 -3.45679 0
M  V30 2524 S 227.728 1.95036 -4.98719 0
M  V30 2525 C 228.884 3.32357 -5.30367 0
M  V30 2526 H 229.117 0.872297 -2.84215 0
M  V30 2527 H 226.65 0.338134 -1.50652 0
M  V30 2528 H 228.608 3.32898 -2.40185 0
M  V30 2529 H 227.269 2.84047 -1.34074 0
M  V30 2530 H 226.462 3.49688 -3.62952 0
M  V30 2531 H 226.064 1.79892 -3.27895 0
M  V30 2532 H 228.356 4.28525 -5.2476 0
M  V30 2533 H 229.299 3.19923 -6.31708 0
M  V30 2534 H 229.707 3.3019 -4.57859 0
M  V30 2535 N 229.106 1.52395 0.401703 0
M  V30 2536 C 230.355 1.66044 1.14509 0
M  V30 2537 C 230.668 0.400216 1.91462 0
M  V30 2538 O 231.874 0.416632 2.68284 0
M  V30 2539 C 230.33 2.93388 2.0845 0
M  V30 2540 C 229.938 4.26545 1.36978 0
M  V30 2541 C 231.682 3.16402 2.83001 0
M  V30 2542 C 229.589 5.45007 2.29611 0
M  V30 2543 H 228.519 0.618562 0.431158 0
M  V30 2544 H 231.17 1.78886 0.40892 0
M  V30 2545 H 229.552 2.74263 2.8565 0
M  V30 2546 H 230.726 4.56179 0.650916 0
M  V30 2547 H 229.041 4.09692 0.74438 0
M  V30 2548 H 231.638 4.02085 3.52465 0
M  V30 2549 H 231.981 2.30943 3.46368 0
M  V30 2550 H 232.514 3.36034 2.12898 0
M  V30 2551 H 229.253 6.32835 1.70879 0
M  V30 2552 H 228.773 5.19702 2.9945 0
M  V30 2553 H 230.452 5.7838 2.89974 0
M  V30 2554 N 230.584 -0.659388 1.43143 0
M  V30 2555 C 231.831 -1.41935 1.44433 0
M  V30 2556 C 232.159 -1.94387 0.0663522 0
M  V30 2557 O 231.414 -1.72314 -0.927706 0
M  V30 2558 C 231.713 -2.62206 2.42864 0
M  V30 2559 C 231.379 -2.28208 3.88886 0
M  V30 2560 C 230.041 -2.18647 4.28657 0
M  V30 2561 C 232.393 -2.00887 4.8093 0
M  V30 2562 C 229.721 -1.79914 5.58433 0
M  V30 2563 C 232.073 -1.63653 6.11065 0
M  V30 2564 C 230.737 -1.52614 6.49819 0
M  V30 2565 H 230.007 -0.519376 0.528517 0
M  V30 2566 H 232.654 -0.750453 1.76183 0
M  V30 2567 H 230.959 -3.34199 2.04495 0
M  V30 2568 H 232.656 -3.2041 2.41119 0
M  V30 2569 H 229.246 -2.36557 3.57406 0
M  V30 2570 H 233.43 -2.07198 4.5098 0
M  V30 2571 H 228.686 -1.69948 5.87305 0
M  V30 2572 H 232.86 -1.41543 6.81864 0
M  V30 2573 H 230.487 -1.22371 7.50286 0
M  V30 2574 N 232.062 -1.29571 -0.897171 0
M  V30 2575 C 233.31 -1.17456 -1.64464 0
M  V30 2576 C 233.631 0.273698 -1.9307 0
M  V30 2577 O 232.901 1.18684 -1.55855 0
M  V30 2578 H 231.481 -0.431706 -0.609622 0
M  V30 2579 H 234.143 -1.62531 -1.07562 0
M  V30 2580 H 233.239 -1.72648 -2.59998 0
M  V30 2581 N 233.54 1.10788 -1.12088 0
M  V30 2582 C 234.768 1.86461 -0.896651 0
M  V30 2583 C 235.183 1.80492 0.553912 0
M  V30 2584 O 234.54 1.19102 1.38278 0
M  V30 2585 C 234.591 3.35006 -1.35843 0
M  V30 2586 O 234.312 3.40866 -2.75213 0
M  V30 2587 C 235.813 4.27565 -1.1706 0
M  V30 2588 H 233.033 0.589425 -0.320654 0
M  V30 2589 H 235.577 1.40076 -1.48993 0
M  V30 2590 H 233.732 3.7887 -0.808458 0
M  V30 2591 H 234.146 4.33411 -2.9539 0
M  V30 2592 H 235.62 5.30007 -1.54263 0
M  V30 2593 H 236.097 4.3906 -0.110814 0
M  V30 2594 H 236.703 3.89501 -1.70789 0
M  V30 2595 N 235.018 0.912232 1.28515 0
M  V30 2596 C 236.267 0.540504 1.94323 0
M  V30 2597 C 236.58 -0.920044 1.72611 0
M  V30 2598 O 237.786 -1.39986 2.32629 0
M  V30 2599 C 236.242 0.915803 3.48053 0
M  V30 2600 C 235.85 2.39598 3.78546 0
M  V30 2601 C 237.594 0.614588 4.20027 0
M  V30 2602 C 235.501 2.71148 5.25578 0
M  V30 2603 H 234.431 0.198418 0.727424 0
M  V30 2604 H 237.082 1.11094 1.46049 0
M  V30 2605 H 235.464 0.274168 3.9505 0
M  V30 2606 H 236.638 3.08422 3.42364 0
M  V30 2607 H 234.953 2.66749 3.1974 0
M  V30 2608 H 237.55 0.827002 5.28266 0
M  V30 2609 H 237.893 -0.447531 4.13887 0
M  V30 2610 H 238.426 1.21462 3.78803 0
M  V30 2611 H 235.165 3.76207 5.36794 0
M  V30 2612 H 234.685 2.0696 5.62963 0
M  V30 2613 H 236.364 2.58072 5.93302 0
M  V30 2614 N 236.496 -1.42363 0.676048 0
M  V30 2615 C 237.773 -1.95183 0.127726 0
M  V30 2616 C 238.153 -1.61641 -1.35777 0
M  V30 2617 O 237.501 -0.913216 -2.09458 0
M  V30 2618 C 237.711 -3.46721 0.398199 0
M  V30 2619 C 239.059 -4.23427 0.315383 0
M  V30 2620 O 240.083 -3.54649 0.332016 0
M  V30 2621 O 238.942 -5.45888 0.25865 0
M  V30 2622 H 236.036 -0.826992 0.00359427 0
M  V30 2623 H 238.582 -1.52184 0.750864 0
M  V30 2624 H 237.354 -3.64344 1.4272 0
M  V30 2625 H 236.977 -3.96769 -0.256885 0
M  V30 2626 N 237.974 -0.419461 -1.51915 0
M  V30 2627 C 238.884 0.407528 -2.31033 0
M  V30 2628 C 239.9 1.04413 -1.3919 0
M  V30 2629 O 241.076 1.0434 -1.72265 0
M  V30 2630 C 238.141 1.50365 -3.12396 0
M  V30 2631 C 237.202 0.889029 -4.19994 0
M  V30 2632 C 236.435 1.93291 -4.97468 0
M  V30 2633 O 236.658 3.15259 -4.75361 0
M  V30 2634 O 235.592 1.53339 -5.8204 0
M  V30 2635 H 239.418 -0.237865 -3.02767 0
M  V30 2636 H 237.003 -0.182413 -1.48282 0
M  V30 2637 H 238.885 2.13975 -3.63032 0
M  V30 2638 H 237.56 2.13345 -2.43445 0
M  V30 2639 H 236.467 0.215353 -3.7348 0
M  V30 2640 H 237.8 0.302991 -4.91267 0
M  V30 2641 N 239.452 1.56882 -0.150215 0
M  V30 2642 C 240.68 2.00593 0.506948 0
M  V30 2643 C 241.095 1.03033 1.58208 0
M  V30 2644 O 240.452 0.0278396 1.82479 0
M  V30 2645 C 240.503 3.44209 1.10465 0
M  V30 2646 O 240.224 4.3804 0.0724636 0
M  V30 2647 C 241.725 4.03214 1.84211 0
M  V30 2648 H 238.945 0.65795 0.13169 0
M  V30 2649 H 241.489 2.03018 -0.245743 0
M  V30 2650 H 239.644 3.42625 1.80795 0
M  V30 2651 H 240.058 5.22007 0.510793 0
M  V30 2652 H 241.532 5.0569 2.21318 0
M  V30 2653 H 242.009 3.44107 2.72923 0
M  V30 2654 H 242.615 4.08437 1.18572 0
M  V30 2655 N 240.93 -0.123565 1.57115 0
M  V30 2656 C 242.176 -0.833386 1.84885 0
M  V30 2657 C 242.509 -1.79742 0.735292 0
M  V30 2658 O 241.784 -1.92764 -0.25925 0
M  V30 2659 C 242.067 -1.5873 3.23228 0
M  V30 2660 C 241.92 -0.643183 4.45178 0
M  V30 2661 C 243.239 -2.54453 3.59085 0
M  V30 2662 H 240.358 -0.301518 0.6725 0
M  V30 2663 H 243 -0.097778 1.89748 0
M  V30 2664 H 241.15 -2.21438 3.19214 0
M  V30 2665 H 242.822 -0.0253015 4.61293 0
M  V30 2666 H 241.065 0.0456139 4.33776 0
M  V30 2667 H 241.736 -1.20724 5.38637 0
M  V30 2668 H 244.212 -2.01853 3.63861 0
M  V30 2669 H 243.088 -3.04238 4.5687 0
M  V30 2670 H 243.349 -3.36906 2.86264 0
M  V30 2671 N 242.408 -1.52605 -0.393616 0
M  V30 2672 C 243.636 -1.71294 -1.16043 0
M  V30 2673 C 244.051 -0.429259 -1.83855 0
M  V30 2674 O 243.408 0.595921 -1.72496 0
M  V30 2675 C 243.459 -2.8593 -2.21193 0
M  V30 2676 O 243.18 -4.09329 -1.56146 0
M  V30 2677 C 244.681 -3.16259 -3.10636 0
M  V30 2678 H 241.901 -0.573641 -0.348104 0
M  V30 2679 H 244.445 -1.99234 -0.461092 0
M  V30 2680 H 242.6 -2.60465 -2.86769 0
M  V30 2681 H 243.014 -4.73323 -2.25978 0
M  V30 2682 H 244.488 -3.99946 -3.80456 0
M  V30 2683 H 244.965 -2.3045 -3.73884 0
M  V30 2684 H 245.571 -3.43547 -2.50711 0
M  V30 2685 N 243.887 0.651787 -1.4349 0
M  V30 2686 C 245.115 1.43937 -1.48626 0
M  V30 2687 C 245.53 1.8851 -0.104587 0
M  V30 2688 O 244.887 1.5958 0.885464 0
M  V30 2689 C 244.938 2.6734 -2.43334 0
M  V30 2690 O 244.659 2.24631 -3.76128 0
M  V30 2691 C 246.16 3.60683 -2.57726 0
M  V30 2692 H 243.38 0.44213 -0.504739 0
M  V30 2693 H 245.924 0.798944 -1.88248 0
M  V30 2694 H 244.079 3.2752 -2.06904 0
M  V30 2695 H 244.493 3.04485 -4.2707 0
M  V30 2696 H 245.967 4.43933 -3.28067 0
M  V30 2697 H 246.444 4.08126 -1.62265 0
M  V30 2698 H 247.05 3.06384 -2.94973 0
M  V30 2699 N 245.365 1.30045 0.890287 0
M  V30 2700 C 246.611 1.19747 1.64415 0
M  V30 2701 C 246.966 -0.246591 1.90813 0
M  V30 2702 O 246.259 -1.174 1.51419 0
M  V30 2703 C 246.453 1.95409 2.99249 0
M  V30 2704 C 246.282 3.47025 2.86013 0
M  V30 2705 C 245.052 4.1638 2.86279 0
M  V30 2706 C 247.25 4.42353 2.62351 0
M  V30 2707 N 245.232 5.54293 2.63879 0
M  V30 2708 C 246.603 5.67792 2.49022 0
M  V30 2709 C 248.658 4.32009 2.47533 0
M  V30 2710 C 247.361 6.8406 2.22383 0
M  V30 2711 C 249.387 5.48038 2.22279 0
M  V30 2712 C 248.749 6.72455 2.09722 0
M  V30 2713 H 244.848 0.493223 0.60684 0
M  V30 2714 H 247.432 1.6399 1.04954 0
M  V30 2715 H 245.603 1.53565 3.56752 0
M  V30 2716 H 247.335 1.77298 3.63796 0
M  V30 2717 H 244.09 3.68164 2.97913 0
M  V30 2718 H 244.514 6.26852 2.55706 0
M  V30 2719 H 249.156 3.36503 2.55979 0
M  V30 2720 H 246.874 7.79612 2.12675 0
M  V30 2721 H 250.46 5.41939 2.11643 0
M  V30 2722 H 249.34 7.60722 1.90453 0
M  V30 2723 N 246.843 -1.10192 1.12674 0
M  V30 2724 C 248.089 -1.82475 0.884915 0
M  V30 2725 C 248.422 -1.85093 -0.58773 0
M  V30 2726 O 247.697 -1.3134 -1.43457 0
M  V30 2727 C 247.98 -3.29018 1.46353 0
M  V30 2728 C 247.833 -3.34718 3.00473 0
M  V30 2729 C 249.152 -4.25473 1.12519 0
M  V30 2730 H 246.271 -0.662492 0.322915 0
M  V30 2731 H 248.913 -1.2913 1.39375 0
M  V30 2732 H 247.063 -3.74576 1.03077 0
M  V30 2733 H 248.735 -2.97622 3.52447 0
M  V30 2734 H 246.978 -2.74541 3.35872 0
M  V30 2735 H 247.649 -4.37918 3.36053 0
M  V30 2736 H 250.125 -3.88161 1.499 0
M  V30 2737 H 249.001 -5.26365 1.55663 0
M  V30 2738 H 249.262 -4.42084 0.0377407 0
M  V30 2739 N 248.321 -0.919034 -1.28029 0
M  V30 2740 C 249.254 -0.355887 -2.25408 0
M  V30 2741 C 250.232 0.542874 -1.5327 0
M  V30 2742 O 251.416 0.485338 -1.82145 0
M  V30 2743 C 248.543 0.490759 -3.35126 0
M  V30 2744 C 247.589 -0.343358 -4.25116 0
M  V30 2745 S 248.422 -1.75344 -5.05979 0
M  V30 2746 C 249.578 -0.914244 -6.19187 0
M  V30 2747 H 249.811 -1.18123 -2.72826 0
M  V30 2748 H 247.344 -0.720636 -1.36551 0
M  V30 2749 H 249.302 0.973404 -3.98792 0
M  V30 2750 H 247.963 1.29054 -2.86363 0
M  V30 2751 H 247.156 0.304266 -5.03081 0
M  V30 2752 H 246.758 -0.759851 -3.662 0
M  V30 2753 H 249.05 -0.146282 -6.77342 0
M  V30 2754 H 249.993 -1.66661 -6.88208 0
M  V30 2755 H 250.401 -0.460082 -5.62622 0
M  V30 2756 N 249.799 1.42003 -0.683588 0
M  V30 2757 C 250.747 2.326 0.000815408 0
M  V30 2758 C 251.741 1.50308 0.781278 0
M  V30 2759 O 252.947 1.66322 0.688251 0
M  V30 2760 H 249.322 0.751758 0.0190616 0
M  V30 2761 H 251.293 2.88011 -0.780528 0
M  V30 2762 C 250.042 3.34978 0.93195 0
M  V30 2763 H 249.365 3.98345 0.340817 0
M  V30 2764 H 250.805 4.00936 1.37936 0
M  V30 2765 C 249.264 2.67925 2.04249 0
M  V30 2766 O 249.794 2.51788 3.12995 0
M  V30 2767 N 248 2.2681 1.81675 0
M  V30 2768 H 247.547 2.40135 0.932363 0
M  V30 2769 H 247.505 1.8228 2.56167 0
M  V30 2770 N 251.277 0.427512 1.51691 0
M  V30 2771 C 252.554 -0.201684 1.94557 0
M  V30 2772 C 252.934 -1.60981 1.36559 0
M  V30 2773 O 252.282 -2.21814 0.548702 0
M  V30 2774 C 252.492 -0.189394 3.48486 0
M  V30 2775 C 253.84 -0.39978 4.22714 0
M  V30 2776 O 254.864 -0.267945 3.55191 0
M  V30 2777 O 253.723 -0.661249 5.42485 0
M  V30 2778 H 250.817 -0.135261 0.815864 0
M  V30 2779 H 253.363 0.484782 1.62628 0
M  V30 2780 H 252.135 0.795431 3.8313 0
M  V30 2781 H 251.758 -0.919187 3.86829 0
M  V30 2782 N 252.755 -1.56801 0.158532 0
M  V30 2783 C 253.687 -2.14488 -0.807923 0
M  V30 2784 C 254.7 -1.09721 -1.20271 0
M  V30 2785 O 255.889 -1.36956 -1.14478 0
M  V30 2786 C 252.989 -2.66217 -2.09718 0
M  V30 2787 C 252.162 -3.95507 -1.86796 0
M  V30 2788 C 251.221 -4.3243 -2.99818 0
M  V30 2789 O 250.247 -5.00543 -2.71008 0
M  V30 2790 N 251.449 -3.92947 -4.27285 0
M  V30 2791 H 254.214 -2.98042 -0.314816 0
M  V30 2792 H 251.775 -1.61881 -0.0246692 0
M  V30 2793 H 253.767 -2.87924 -2.84398 0
M  V30 2794 H 252.337 -1.87324 -2.50257 0
M  V30 2795 H 251.557 -3.82309 -0.96089 0
M  V30 2796 H 252.845 -4.79972 -1.68833 0
M  V30 2797 H 252.243 -3.38087 -4.53557 0
M  V30 2798 H 250.8 -4.19681 -4.9871 0
M  V30 2799 N 254.233 0.115231 -1.57178 0
M  V30 2800 C 255.18 1.14115 -2.00615 0
M  V30 2801 C 256.15 1.40939 -0.878941 0
M  V30 2802 O 257.335 1.52741 -1.14345 0
M  V30 2803 C 254.475 2.46156 -2.4187 0
M  V30 2804 C 253.588 2.26236 -3.68024 0
M  V30 2805 C 252.723 3.51534 -3.98243 0
M  V30 2806 C 251.762 3.26787 -5.17568 0
M  V30 2807 N 250.899 4.44298 -5.43639 0
M  V30 2808 H 255.739 0.763743 -2.88047 0
M  V30 2809 H 253.276 0.365615 -1.42484 0
M  V30 2810 H 255.234 3.23189 -2.63827 0
M  V30 2811 H 253.864 2.81783 -1.57475 0
M  V30 2812 H 252.916 1.40102 -3.5366 0
M  V30 2813 H 254.228 2.03929 -4.55208 0
M  V30 2814 H 253.382 4.36984 -4.20868 0
M  V30 2815 H 252.121 3.76876 -3.09541 0
M  V30 2816 H 251.126 2.39729 -4.94783 0
M  V30 2817 H 252.351 3.02812 -6.0785 0
M  V30 2818 H 250.297 4.69754 -4.57895 0
M  V30 2819 H 250.214 4.25109 -6.25154 0
M  V30 2820 H 251.482 5.3087 -5.70786 0
M  V30 2821 N 255.711 1.52812 0.385517 0
M  V30 2822 C 256.941 1.71658 1.14966 0
M  V30 2823 C 257.349 0.436253 1.84102 0
M  V30 2824 O 256.692 -0.599313 1.73649 0
M  V30 2825 C 256.754 2.81309 2.23843 0
M  V30 2826 C 256.418 4.22313 1.74644 0
M  V30 2827 C 257.415 5.05352 1.22129 0
M  V30 2828 C 255.1 4.68648 1.80761 0
M  V30 2829 C 257.094 6.32807 0.763838 0
M  V30 2830 C 254.781 5.96086 1.34627 0
M  V30 2831 C 255.779 6.77996 0.825264 0
M  V30 2832 O 255.467 8.03045 0.370669 0
M  V30 2833 H 255.199 0.578022 0.350523 0
M  V30 2834 H 257.753 2.00263 0.456509 0
M  V30 2835 H 255.983 2.48133 2.96592 0
M  V30 2836 H 257.672 2.88524 2.85497 0
M  V30 2837 H 258.438 4.70736 1.16758 0
M  V30 2838 H 254.317 4.04979 2.20256 0
M  V30 2839 H 257.861 6.96689 0.356494 0
M  V30 2840 H 253.758 6.30205 1.39686 0
M  V30 2841 H 254.526 8.17021 0.491829 0
M  V30 2842 N 257.189 -0.644168 1.43834 0
M  V30 2843 C 258.466 -1.40188 1.36406 0
M  V30 2844 C 258.846 -2.11094 0.0163124 0
M  V30 2845 O 258.194 -2.05426 -1.00062 0
M  V30 2846 C 258.404 -2.3791 2.55343 0
M  V30 2847 C 259.752 -3.01637 2.98832 0
M  V30 2848 O 260.776 -2.48237 2.55455 0
M  V30 2849 O 259.635 -3.98477 3.74003 0
M  V30 2850 H 256.729 -0.626773 0.539523 0
M  V30 2851 H 259.275 -0.670317 1.559 0
M  V30 2852 H 258.047 -1.84525 3.4506 0
M  V30 2853 H 257.67 -3.18503 2.37995 0
M  V30 2854 N 258.668 -1.30515 -0.883378 0
M  V30 2855 C 259.598 -1.19607 -2.00541 0
M  V30 2856 C 260.579 -0.086346 -1.69881 0
M  V30 2857 O 261.764 -0.268654 -1.92333 0
M  V30 2858 C 258.894 -0.888758 -3.35736 0
M  V30 2859 C 257.848 -1.95659 -3.8066 0
M  V30 2860 C 257.174 -1.50224 -5.13164 0
M  V30 2861 C 258.474 -3.36788 -3.99213 0
M  V30 2862 H 260.168 -2.13476 -2.09925 0
M  V30 2863 H 257.714 -1.02775 -1.00863 0
M  V30 2864 H 259.667 -0.799094 -4.13754 0
M  V30 2865 H 258.391 0.0856125 -3.26488 0
M  V30 2866 H 257.05 -2.03591 -3.04871 0
M  V30 2867 H 256.698 -0.516092 -5.00345 0
M  V30 2868 H 256.398 -2.2165 -5.44192 0
M  V30 2869 H 257.922 -1.42639 -5.93706 0
M  V30 2870 H 259.336 -3.31605 -4.67665 0
M  V30 2871 H 257.733 -4.06314 -4.41621 0
M  V30 2872 H 258.803 -3.78561 -3.03017 0
M  V30 2873 N 260.146 1.09593 -1.13257 0
M  V30 2874 C 261.392 1.82003 -0.89458 0
M  V30 2875 C 261.725 1.85402 0.577906 0
M  V30 2876 O 261 1.32099 1.42759 0
M  V30 2877 C 261.283 3.28237 -1.48096 0
M  V30 2878 C 261.136 3.3312 -3.02244 0
M  V30 2879 C 262.455 4.24871 -1.14774 0
M  V30 2880 H 259.574 0.66077 -0.326424 0
M  V30 2881 H 262.216 1.28389 -1.40058 0
M  V30 2882 H 260.366 3.74024 -1.05062 0
M  V30 2883 H 262.038 2.95748 -3.54021 0
M  V30 2884 H 260.281 2.72756 -3.37323 0
M  V30 2885 H 260.952 4.3613 -3.38371 0
M  V30 2886 H 263.428 3.87361 -1.51957 0
M  V30 2887 H 262.304 5.25532 -1.58452 0
M  V30 2888 H 262.565 4.42058 -0.0611849 0
M  V30 2889 N 261.624 0.925811 1.2754 0
M  V30 2890 C 262.587 0.428129 2.25166 0
M  V30 2891 C 263.587 -0.452261 1.54309 0
M  V30 2892 O 264.777 -0.253608 1.72344 0
M  V30 2893 C 261.909 -0.384749 3.38722 0
M  V30 2894 H 263.102 1.29066 2.70706 0
M  V30 2895 H 260.655 0.706323 1.3943 0
M  V30 2896 H 261.39 -1.26618 2.98561 0
M  V30 2897 H 261.175 0.246454 3.91325 0
M  V30 2898 H 262.665 -0.723389 4.11287 0
M  V30 2899 N 263.102 -1.41638 0.69111 0
M  V30 2900 C 264.032 -2.3347 0.037248 0
M  V30 2901 C 265.013 -1.51575 -0.771947 0
M  V30 2902 O 266.198 -1.80126 -0.72582 0
M  V30 2903 C 263.328 -3.35354 -0.903064 0
M  V30 2904 C 262.282 -4.27526 -0.201288 0
M  V30 2905 C 261.608 -5.19747 -1.25565 0
M  V30 2906 C 262.908 -5.13959 0.929689 0
M  V30 2907 H 264.602 -2.88397 0.804227 0
M  V30 2908 H 262.148 -1.38669 0.388189 0
M  V30 2909 H 264.101 -3.98519 -1.36969 0
M  V30 2910 H 262.825 -2.78767 -1.70166 0
M  V30 2911 H 261.484 -3.65779 0.245265 0
M  V30 2912 H 261.132 -4.59479 -2.04666 0
M  V30 2913 H 260.832 -5.8225 -0.791128 0
M  V30 2914 H 262.356 -5.85789 -1.72288 0
M  V30 2915 H 263.77 -5.70718 0.543546 0
M  V30 2916 H 262.167 -5.85379 1.32103 0
M  V30 2917 H 263.237 -4.51389 1.77133 0
M  V30 2918 N 264.58 -0.43555 -1.51462 0
M  V30 2919 C 265.805 0.132627 -2.06976 0
M  V30 2920 C 266.23 1.35848 -1.30104 0
M  V30 2921 O 265.588 1.78112 -0.338493 0
M  V30 2922 C 265.636 0.43523 -3.57964 0
M  V30 2923 O 264.74 1.52198 -3.83288 0
M  V30 2924 H 264.081 0.00265 -0.663995 0
M  V30 2925 H 266.611 -0.616369 -1.95095 0
M  V30 2926 H 266.621 0.686206 -4.02188 0
M  V30 2927 H 265.296 -0.460739 -4.1334 0
M  V30 2928 H 263.873 1.2611 -3.50928 0
M  V30 2929 N 266.058 1.56714 -0.166846 0
M  V30 2930 C 267.006 2.19056 0.782123 0
M  V30 2931 C 268 1.15328 1.24079 0
M  V30 2932 O 269.206 1.33537 1.20697 0
M  V30 2933 H 265.581 0.70167 0.270486 0
M  V30 2934 H 267.552 2.97494 0.232322 0
M  V30 2935 C 266.301 2.84206 2.00306 0
M  V30 2936 H 265.624 3.63748 1.65914 0
M  V30 2937 H 267.064 3.31302 2.64604 0
M  V30 2938 C 265.523 1.83744 2.82382 0
M  V30 2939 O 266.053 1.32014 3.79388 0
M  V30 2940 N 264.259 1.52601 2.47308 0
M  V30 2941 H 263.806 1.9486 1.68485 0
M  V30 2942 H 263.764 0.856351 3.02513 0
M  V30 2943 N 267.536 -0.106894 1.57237 0
M  V30 2944 C 268.761 -0.830287 1.90055 0
M  V30 2945 C 269.186 -1.72064 0.75998 0
M  V30 2946 O 268.544 -1.78982 -0.288991 0
M  V30 2947 C 268.592 -1.6295 3.21683 0
M  V30 2948 O 267.696 -2.73748 3.08441 0
M  V30 2949 H 267.037 -0.228855 0.623315 0
M  V30 2950 H 269.567 -0.085658 2.04421 0
M  V30 2951 H 269.577 -2.01621 3.54701 0
M  V30 2952 H 268.252 -0.975989 4.04286 0
M  V30 2953 H 266.829 -2.38192 2.86913 0
M  V30 2954 N 269.014 -1.53014 -0.377408 0
M  V30 2955 C 270.26 -1.68872 -1.12294 0
M  V30 2956 C 270.593 -0.433224 -1.89306 0
M  V30 2957 O 269.868 0.569258 -1.85983 0
M  V30 2958 C 270.151 -2.93115 -2.09179 0
M  V30 2959 C 270.004 -4.28794 -1.35853 0
M  V30 2960 C 271.323 -3.12928 -3.09458 0
M  V30 2961 H 268.442 -0.614518 -0.406862 0
M  V30 2962 H 271.084 -1.85633 -0.40503 0
M  V30 2963 H 269.234 -2.78956 -2.70399 0
M  V30 2964 H 270.906 -4.54742 -0.775082 0
M  V30 2965 H 269.149 -4.28744 -0.660364 0
M  V30 2966 H 269.82 -5.11837 -2.06706 0
M  V30 2967 H 272.296 -3.26194 -2.58334 0
M  V30 2968 H 271.172 -4.01316 -3.74482 0
M  V30 2969 H 271.433 -2.27669 -3.78971 0
M  V30 2970 N 270.492 0.636531 -1.44174 0
M  V30 2971 C 271.422 1.76003 -1.53444 0
M  V30 2972 C 272.403 1.65619 -0.387841 0
M  V30 2973 O 273.588 1.84461 -0.607257 0
M  V30 2974 C 270.718 3.14511 -1.4731 0
M  V30 2975 C 269.672 3.39677 -2.60391 0
M  V30 2976 C 268.998 4.78159 -2.39308 0
M  V30 2977 C 270.298 3.32772 -4.02567 0
M  V30 2978 H 271.992 1.68501 -2.47483 0
M  V30 2979 H 269.538 0.809237 -1.19111 0
M  V30 2980 H 271.491 3.92878 -1.52397 0
M  V30 2981 H 270.215 3.22783 -0.49785 0
M  V30 2982 H 268.874 2.63688 -2.54684 0
M  V30 2983 H 268.522 4.83128 -1.39988 0
M  V30 2984 H 268.222 4.95956 -3.15122 0
M  V30 2985 H 269.746 5.58762 -2.46205 0
M  V30 2986 H 271.16 4.01051 -4.09672 0
M  V30 2987 H 269.557 3.62104 -4.7854 0
M  V30 2988 H 270.627 2.30669 -4.2652 0
M  V30 2989 N 271.97 1.30982 0.876444 0
M  V30 2990 C 272.88 1.2003 2.01569 0
M  V30 2991 C 273.896 0.11838 1.73597 0
M  V30 2992 O 275.072 0.33495 1.98595 0
M  V30 2993 C 272.137 0.901637 3.34771 0
M  V30 2994 C 271.198 2.06979 3.76109 0
M  V30 2995 C 270.431 1.78529 5.02954 0
M  V30 2996 O 270.654 0.717296 5.65872 0
M  V30 2997 O 269.588 2.64019 5.40905 0
M  V30 2998 H 273.414 2.15753 2.13739 0
M  V30 2999 H 270.999 1.10658 1.00375 0
M  V30 3000 H 272.881 0.750645 4.1466 0
M  V30 3001 H 271.556 -0.0256141 3.2369 0
M  V30 3002 H 270.463 2.27616 2.96887 0
M  V30 3003 H 271.796 2.97907 3.91807 0
M  V30 3004 N 273.449 -1.08991 1.13837 0
M  V30 3005 C 274.379 -2.17771 0.842507 0
M  V30 3006 C 275.36 -1.6892 -0.20001 0
M  V30 3007 O 276.545 -1.94113 -0.0579731 0
M  V30 3008 C 273.675 -3.4589 0.312644 0
M  V30 3009 C 272.629 -4.08099 1.28992 0
M  V30 3010 C 271.955 -5.31098 0.619623 0
M  V30 3011 C 273.255 -4.50077 2.65005 0
M  V30 3012 H 274.949 -2.42777 1.75213 0
M  V30 3013 H 272.495 -1.16682 0.843875 0
M  V30 3014 H 274.448 -4.21297 0.0933043 0
M  V30 3015 H 273.172 -3.20419 -0.632382 0
M  V30 3016 H 271.831 -3.34717 1.49533 0
M  V30 3017 H 271.479 -5.0191 -0.33102 0
M  V30 3018 H 271.179 -5.73674 1.27167 0
M  V30 3019 H 272.703 -6.09224 0.409669 0
M  V30 3020 H 274.117 -5.16688 2.48407 0
M  V30 3021 H 272.514 -5.03553 3.26427 0
M  V30 3022 H 273.584 -3.62257 3.22332 0
M  V30 3023 N 274.927 -0.932562 -1.27047 0
M  V30 3024 C 275.857 -0.452902 -2.29066 0
M  V30 3025 C 276.838 0.489338 -1.62909 0
M  V30 3026 O 278.023 0.393046 -1.90181 0
M  V30 3027 C 275.153 0.290698 -3.46081 0
M  V30 3028 C 274.107 -0.564168 -4.24265 0
M  V30 3029 C 273.433 0.308886 -5.33807 0
M  V30 3030 C 274.733 -1.83112 -4.89149 0
M  V30 3031 H 276.427 -1.30552 -2.69437 0
M  V30 3032 H 273.973 -0.629201 -1.29526 0
M  V30 3033 H 275.926 0.637233 -4.16554 0
M  V30 3034 H 274.65 1.17738 -3.0464 0
M  V30 3035 H 273.309 -0.893477 -3.55545 0
M  V30 3036 H 272.957 1.19467 -4.88607 0
M  V30 3037 H 272.657 -0.259633 -5.87026 0
M  V30 3038 H 274.181 0.650884 -6.07121 0
M  V30 3039 H 275.595 -1.55236 -5.51883 0
M  V30 3040 H 273.992 -2.34353 -5.52448 0
M  V30 3041 H 275.062 -2.54772 -4.12576 0
M  V30 3042 N 276.405 1.4127 -0.698611 0
M  V30 3043 C 277.651 2.01478 -0.231207 0
M  V30 3044 C 277.984 1.55215 1.16713 0
M  V30 3045 O 277.259 0.764672 1.78838 0
M  V30 3046 C 277.542 3.58912 -0.292281 0
M  V30 3047 C 277.395 4.15293 -1.72778 0
M  V30 3048 C 278.714 4.38736 0.346194 0
M  V30 3049 H 275.833 0.732025 -0.0854878 0
M  V30 3050 H 278.475 1.67977 -0.887906 0
M  V30 3051 H 276.625 3.87582 0.26686 0
M  V30 3052 H 278.297 3.97486 -2.341 0
M  V30 3053 H 276.54 3.7022 -2.26096 0
M  V30 3054 H 277.211 5.24452 -1.72202 0
M  V30 3055 H 279.687 4.15897 -0.130035 0
M  V30 3056 H 278.563 5.48221 0.272932 0
M  V30 3057 H 278.824 4.18425 1.42734 0
M  V30 3058 N 277.883 0.443576 1.51229 0
M  V30 3059 C 279.108 -0.121648 2.07043 0
M  V30 3060 C 279.533 -1.35156 1.30823 0
M  V30 3061 O 278.891 -1.7793 0.347934 0
M  V30 3062 C 278.939 -0.41624 3.5819 0
M  V30 3063 O 278.043 -1.50163 3.8409 0
M  V30 3064 H 277.384 0.000871367 0.663999 0
M  V30 3065 H 279.914 0.626706 1.94765 0
M  V30 3066 H 279.924 -0.664867 4.02546 0
M  V30 3067 H 278.599 0.482653 4.1309 0
M  V30 3068 H 277.176 -1.24248 3.51592 0
M  V30 3069 N 279.361 -1.56624 0.175154 0
M  V30 3070 C 280.609 -1.96609 -0.467885 0
M  V30 3071 C 280.93 -1.06238 -1.63519 0
M  V30 3072 O 280.2 -0.129523 -1.95471 0
M  V30 3073 H 278.78 -0.726008 -0.175845 0
M  V30 3074 H 281.442 -1.93195 0.257234 0
M  V30 3075 H 280.538 -3.00989 -0.825342 0
M  V30 3076 N 280.839 0.0985539 -1.57292 0
M  V30 3077 C 282.088 0.801358 -1.85098 0
M  V30 3078 C 282.401 1.80066 -0.763902 0
M  V30 3079 O 283.607 2.55112 -0.928981 0
M  V30 3080 C 282.063 1.47599 -3.28242 0
M  V30 3081 C 281.671 0.516624 -4.45011 0
M  V30 3082 C 283.415 2.16272 -3.65276 0
M  V30 3083 C 281.322 1.19564 -5.79188 0
M  V30 3084 H 280.252 0.303022 -0.69043 0
M  V30 3085 H 282.903 0.0542623 -1.8342 0
M  V30 3086 H 281.285 2.27042 -3.2445 0
M  V30 3087 H 282.459 -0.246065 -4.60143 0
M  V30 3088 H 280.774 -0.064227 -4.1635 0
M  V30 3089 H 283.371 2.67802 -4.62803 0
M  V30 3090 H 283.714 2.95009 -2.93727 0
M  V30 3091 H 284.247 1.43693 -3.70941 0
M  V30 3092 H 280.986 0.449157 -6.53959 0
M  V30 3093 H 280.506 1.92984 -5.67906 0
M  V30 3094 H 282.185 1.7231 -6.23633 0
M  V30 3095 N 282.317 1.53212 0.369288 0
M  V30 3096 C 283.267 1.75769 1.45222 0
M  V30 3097 C 284.251 0.612136 1.48801 0
M  V30 3098 O 285.443 0.870674 1.54105 0
M  V30 3099 C 282.572 1.94769 2.82701 0
M  V30 3100 C 281.658 3.15315 2.83615 0
M  V30 3101 N 282.049 4.37295 2.54178 0
M  V30 3102 C 280.347 3.15962 3.14776 0
M  V30 3103 C 281.048 5.19015 2.62675 0
M  V30 3104 N 280.024 4.55142 2.97232 0
M  V30 3105 H 283.826 2.67691 1.2132 0
M  V30 3106 H 281.34 1.51787 0.577438 0
M  V30 3107 H 283.337 2.09056 3.60696 0
M  V30 3108 H 281.997 1.04073 3.07569 0
M  V30 3109 H 283.008 4.65091 2.27839 0
M  V30 3110 H 279.685 2.35144 3.44983 0
M  V30 3111 H 281.075 6.26305 2.43294 0
M  V30 3112 N 283.795 -0.628877 1.44509 0
M  V30 3113 C 284.743 -1.76193 1.51852 0
M  V30 3114 C 285.737 -1.64849 0.390042 0
M  V30 3115 O 286.943 -1.709 0.565082 0
M  V30 3116 H 283.318 -0.581728 0.476547 0
M  V30 3117 H 285.289 -1.67123 2.47209 0
M  V30 3118 C 284.038 -3.14533 1.48204 0
M  V30 3119 H 283.361 -3.23911 2.34354 0
M  V30 3120 H 284.801 -3.93701 1.57402 0
M  V30 3121 C 283.26 -3.36287 0.203142 0
M  V30 3122 O 283.79 -3.9509 -0.725745 0
M  V30 3123 N 281.996 -2.90408 0.105563 0
M  V30 3124 H 281.543 -2.42739 0.862301 0
M  V30 3125 H 281.501 -3.05339 -0.749371 0
M  V30 3126 N 285.273 -1.31445 -0.869486 0
M  V30 3127 C 286.22 -1.19135 -1.97675 0
M  V30 3128 C 287.19 -0.0770266 -1.65921 0
M  V30 3129 O 288.375 -0.249972 -1.89155 0
M  V30 3130 C 285.515 -0.905149 -3.33018 0
M  V30 3131 C 284.628 -2.10285 -3.77365 0
M  V30 3132 C 283.763 -1.75339 -5.01427 0
M  V30 3133 C 282.802 -2.91515 -5.38224 0
M  V30 3134 N 281.939 -2.56762 -6.53466 0
M  V30 3135 H 286.779 -2.13853 -2.07535 0
M  V30 3136 H 284.316 -1.06379 -1.01597 0
M  V30 3137 H 286.274 -0.719765 -4.10944 0
M  V30 3138 H 284.904 0.00519624 -3.228 0
M  V30 3139 H 283.956 -2.39899 -2.95216 0
M  V30 3140 H 285.268 -2.97237 -4.00564 0
M  V30 3141 H 284.422 -1.53266 -5.87022 0
M  V30 3142 H 283.161 -0.855801 -4.80133 0
M  V30 3143 H 282.166 -3.14237 -4.51149 0
M  V30 3144 H 283.391 -3.81985 -5.61484 0
M  V30 3145 H 281.337 -1.69526 -6.33717 0
M  V30 3146 H 281.254 -3.37243 -6.76612 0
M  V30 3147 H 282.522 -2.38083 -7.42251 0
M  V30 3148 O 286.79 1.00619 -1.26325 0
M  V30 3149 H 287.481 1.62637 -1.05209 0
M  V30 END ATOM
M  V30 BEGIN BOND
M  V30 END BOND
M  V30 END CTAB
M  END
$$$$
