drugbank_target|P94690 Acidic cytochrome c3 (DB03901)
 OpenBabel12092120013D

  0  0  0     0  0            999 V3000
M  V30 BEGIN CTAB
M  V30 COUNTS 1863 1888 0 0 0
M  V30 BEGIN ATOM
M  V30 1 H -0.908 1.98254 -0.117106 0
M  V30 2 N 0 1.576 0 0
M  V30 3 C 0.933 2.03868 1.02534 0
M  V30 4 C 1.911 0.928543 1.3348 0
M  V30 5 O 3.095 1.19667 1.45644 0
M  V30 6 C 0.222 2.43627 2.35294 0
M  V30 7 C -0.732 3.65373 2.2001 0
M  V30 8 S 0.101 5.13292 1.52614 0
M  V30 9 C 1.257 5.56322 2.86805 0
M  V30 10 H 1.49 2.90518 0.631377 0
M  V30 11 H -0.977 1.52953 0.210867 0
M  V30 12 H 0.981 2.67203 3.11629 0
M  V30 13 H -0.358 1.57376 2.7183 0
M  V30 14 H -1.165 3.90944 3.18086 0
M  V30 15 H -1.563 3.418 1.51819 0
M  V30 16 H 0.729 5.58782 3.83104 0
M  V30 17 H 1.672 6.56266 2.65933 0
M  V30 18 H 2.08 4.83886 2.90714 0
M  V30 19 N 1.4781 -0.272755 1.55222 0
M  V30 20 C 2.7251 -1.00433 1.7584 0
M  V30 21 C 3.0531 -1.86275 0.559629 0
M  V30 22 O 2.3081 -1.90269 -0.457857 0
M  V30 23 C 2.6071 -1.91642 3.01675 0
M  V30 24 C 2.2731 -1.21548 4.34208 0
M  V30 25 C 0.9351 -1.02166 4.70229 0
M  V30 26 C 3.2871 -0.716684 5.16249 0
M  V30 27 C 0.6151 -0.316334 5.85847 0
M  V30 28 C 2.9671 -0.0249476 6.32595 0
M  V30 29 C 1.6311 0.180579 6.67256 0
M  V30 30 H 0.9011 -0.367509 0.643443 0
M  V30 31 H 3.5481 -0.276596 1.89492 0
M  V30 32 H 1.8531 -2.71037 2.82924 0
M  V30 33 H 3.5501 -2.48369 3.14824 0
M  V30 34 H 0.1401 -1.37645 4.05896 0
M  V30 35 H 4.3241 -0.854047 4.88896 0
M  V30 36 H -0.4199 -0.146378 6.11225 0
M  V30 37 H 3.7541 0.369311 6.9542 0
M  V30 38 H 1.3811 0.729098 7.56696 0
M  V30 39 N 2.9562 -1.48159 -0.537278 0
M  V30 40 C 3.9032 -1.62138 -1.64256 0
M  V30 41 C 4.8732 -0.463668 -1.59497 0
M  V30 42 O 6.0582 -0.686241 -1.78032 0
M  V30 43 C 3.1982 -1.66028 -3.02537 0
M  V30 44 C 2.3112 -2.92855 -3.17585 0
M  V30 45 C 1.4462 -2.87952 -4.46382 0
M  V30 46 C 0.4852 -4.09516 -4.54932 0
M  V30 47 N -0.3778 -4.02733 -5.75109 0
M  V30 48 H 4.4622 -2.56529 -1.51647 0
M  V30 49 H 1.9992 -1.27224 -0.738414 0
M  V30 50 H 3.9572 -1.66265 -3.82638 0
M  V30 51 H 2.5872 -0.751331 -3.13934 0
M  V30 52 H 1.6392 -3.02395 -2.30784 0
M  V30 53 H 2.9512 -3.82822 -3.19764 0
M  V30 54 H 2.1052 -2.8655 -5.34765 0
M  V30 55 H 0.8442 -1.95702 -4.46712 0
M  V30 56 H -0.1508 -4.11201 -3.64957 0
M  V30 57 H 1.0742 -5.02917 -4.56346 0
M  V30 58 H -0.9798 -3.13299 -5.76351 0
M  V30 59 H -1.0628 -4.86397 -5.78752 0
M  V30 60 H 0.2052 -4.05379 -6.65799 0
M  V30 61 N 4.4343 0.785586 -1.36625 0
M  V30 62 C 5.3843 1.88822 -1.27789 0
M  V30 63 C 6.3683 1.60014 -0.168579 0
M  V30 64 O 7.5603 1.72381 -0.401737 0
M  V30 65 C 4.6893 3.26092 -1.07327 0
M  V30 66 C 3.7753 3.60897 -2.22743 0
M  V30 67 N 4.1663 3.66982 -3.48077 0
M  V30 68 C 2.4643 3.90981 -2.14593 0
M  V30 69 C 3.1653 3.98137 -4.24101 0
M  V30 70 N 2.1413 4.13319 -3.53084 0
M  V30 71 H 5.9433 1.91759 -2.22723 0
M  V30 72 H 3.4573 0.981311 -1.29399 0
M  V30 73 H 5.4543 4.04954 -0.990842 0
M  V30 74 H 4.1143 3.24428 -0.132977 0
M  V30 75 H 5.1253 3.49531 -3.82163 0
M  V30 76 H 1.8023 3.9722 -1.2854 0
M  V30 77 H 3.1923 4.09737 -5.32509 0
M  V30 78 N 5.9124 1.20967 1.01018 0
M  V30 79 C 7.1404 1.04956 1.78303 0
M  V30 80 C 7.5554 -0.400915 1.84494 0
M  V30 81 O 6.9124 -1.27826 1.30257 0
M  V30 82 C 6.9634 1.63403 3.22462 0
M  V30 83 O 6.6844 3.02775 3.16637 0
M  V30 84 C 8.1854 1.52432 4.16268 0
M  V30 85 H 5.4054 0.368858 0.560522 0
M  V30 86 H 7.9494 1.60193 1.27116 0
M  V30 87 H 6.1044 1.1227 3.70775 0
M  V30 88 H 6.5184 3.30626 4.07169 0
M  V30 89 H 7.9924 1.98078 5.15237 0
M  V30 90 H 8.4694 0.477875 4.36592 0
M  V30 91 H 9.0754 2.02787 3.73841 0
M  V30 92 N 7.3905 -1.2043 1.01659 0
M  V30 93 C 8.3205 -2.25466 0.607226 0
M  V30 94 C 9.3015 -1.65853 -0.377716 0
M  V30 95 O 10.4865 -1.92409 -0.263149 0
M  V30 96 C 7.6165 -3.47256 -0.0552949 0
M  V30 97 C 6.5705 -4.19462 0.850632 0
M  V30 98 C 5.8965 -5.34673 0.0538859 0
M  V30 99 C 7.1965 -4.75603 2.15868 0
M  V30 100 H 8.8905 -2.59962 1.48526 0
M  V30 101 H 6.4365 -1.2496 0.715605 0
M  V30 102 H 8.3895 -4.19917 -0.353233 0
M  V30 103 H 7.1135 -3.11924 -0.968045 0
M  V30 104 H 5.7725 -3.48667 1.13257 0
M  V30 105 H 5.4205 -4.95585 -0.860514 0
M  V30 106 H 5.1205 -5.83913 0.657192 0
M  V30 107 H 6.6445 -6.10138 -0.237598 0
M  V30 108 H 8.0585 -5.40083 1.92311 0
M  V30 109 H 6.4555 -5.3528 2.71284 0
M  V30 110 H 7.5255 -3.94346 2.82169 0
M  V30 111 N 8.8686 -0.792821 -1.36206 0
M  V30 112 C 10.1176 -0.363353 -1.984 0
M  V30 113 C 10.4306 1.07172 -1.63626 0
M  V30 114 O 11.6366 1.60362 -2.19081 0
M  V30 115 C 10.0926 -0.59872 -3.54885 0
M  V30 116 C 9.7006 -2.04543 -3.9858 0
M  V30 117 C 11.4446 -0.233926 -4.23855 0
M  V30 118 C 9.3516 -2.22727 -5.47856 0
M  V30 119 H 8.2816 -0.13212 -0.742334 0
M  V30 120 H 10.9326 -0.974935 -1.55458 0
M  V30 121 H 9.3146 0.0826222 -3.95914 0
M  V30 122 H 10.4886 -2.76345 -3.68741 0
M  V30 123 H 8.8036 -2.36879 -3.42458 0
M  V30 124 H 11.4006 -0.348027 -5.33566 0
M  V30 125 H 11.7436 0.818351 -4.08177 0
M  V30 126 H 12.2766 -0.868639 -3.882 0
M  V30 127 H 9.0156 -3.2635 -5.68486 0
M  V30 128 H 8.5356 -1.55434 -5.7931 0
M  V30 129 H 10.2146 -2.03607 -6.14128 0
M  V30 130 N 10.3467 1.47872 -0.545128 0
M  V30 131 C 11.3097 2.28337 0.198717 0
M  V30 132 C 12.3097 1.36255 0.853888 0
M  V30 133 O 13.4997 1.59003 0.711606 0
M  V30 134 C 10.6317 3.15585 1.28915 0
M  V30 135 H 11.8247 2.95567 -0.507941 0
M  V30 136 H 9.3777 1.53362 -0.301616 0
M  V30 137 H 10.1127 2.53019 2.02859 0
M  V30 138 H 9.8977 3.83337 0.824309 0
M  V30 139 H 11.3877 3.76243 1.81194 0
M  V30 140 N 11.8248 0.280983 1.55075 0
M  V30 141 C 12.7548 -0.597469 2.25727 0
M  V30 142 C 13.7358 -1.15417 1.24952 0
M  V30 143 O 14.9208 -1.18722 1.53684 0
M  V30 144 C 12.0508 -1.7789 2.98283 0
M  V30 145 C 11.0048 -1.35347 4.06036 0
M  V30 146 C 10.3308 -2.61846 4.66198 0
M  V30 147 C 11.6308 -0.499354 5.19907 0
M  V30 148 H 13.3248 -0.00824265 2.99399 0
M  V30 149 H 10.8708 -0.0025244 1.44 0
M  V30 150 H 12.8238 -2.39937 3.46422 0
M  V30 151 H 11.5478 -2.39405 2.22155 0
M  V30 152 H 10.2068 -0.756156 3.58717 0
M  V30 153 H 9.8548 -3.21632 3.86732 0
M  V30 154 H 9.5548 -2.3409 5.38958 0
M  V30 155 H 11.0788 -3.24732 5.1709 0
M  V30 156 H 12.4928 -1.02498 5.64063 0
M  V30 157 H 10.8898 -0.316424 5.99265 0
M  V30 158 H 11.9598 0.480459 4.82514 0
M  V30 159 N 13.3029 -1.57598 0.00835791 0
M  V30 160 C 14.5309 -1.95214 -0.68549 0
M  V30 161 C 14.9459 -0.883706 -1.66841 0
M  V30 162 O 14.3029 0.136565 -1.81988 0
M  V30 163 C 14.3539 -3.32865 -1.41007 0
M  V30 164 O 14.0749 -4.35609 -0.466552 0
M  V30 165 C 15.5759 -3.84991 -2.19765 0
M  V30 166 H 12.7959 -0.643422 -0.190392 0
M  V30 167 H 15.3399 -2.04406 0.0619607 0
M  V30 168 H 13.4949 -3.24956 -2.10908 0
M  V30 169 H 13.9089 -5.15288 -0.978699 0
M  V30 170 H 15.3829 -4.8371 -2.65948 0
M  V30 171 H 15.8599 -3.18137 -3.02796 0
M  V30 172 H 16.4659 -3.96103 -1.54864 0
M  V30 173 N 14.781 0.264519 -1.55364 0
M  V30 174 C 15.711 1.33121 -1.91836 0
M  V30 175 C 16.692 1.51101 -0.781192 0
M  V30 176 O 17.877 1.64003 -1.04003 0
M  V30 177 C 15.007 2.68921 -2.19769 0
M  V30 178 C 13.961 2.65661 -3.35571 0
M  V30 179 C 13.287 4.05093 -3.49004 0
M  V30 180 C 14.587 2.24187 -4.71739 0
M  V30 181 H 16.281 1.02844 -2.81182 0
M  V30 182 H 13.827 0.493286 -1.35287 0
M  V30 183 H 15.78 3.43663 -2.43872 0
M  V30 184 H 14.504 3.00799 -1.27231 0
M  V30 185 H 13.163 1.93377 -3.1145 0
M  V30 186 H 12.811 4.34206 -2.53917 0
M  V30 187 H 12.511 4.03804 -4.26868 0
M  V30 188 H 14.035 4.81561 -3.75408 0
M  V30 189 H 15.449 2.88654 -4.9533 0
M  V30 190 H 13.846 2.34044 -5.52579 0
M  V30 191 H 14.916 1.19327 -4.69988 0
M  V30 192 N 16.2591 1.48442 0.529413 0
M  V30 193 C 17.1891 1.65902 1.64313 0
M  V30 194 C 18.1701 0.507897 1.6234 0
M  V30 195 O 19.3551 0.740503 1.79528 0
M  V30 196 C 16.4851 1.69911 3.02898 0
M  V30 197 C 15.4391 2.8453 3.19729 0
M  V30 198 C 14.7651 2.73629 4.59381 0
M  V30 199 C 16.0651 4.25821 3.02447 0
M  V30 200 H 17.7591 2.5914 1.49955 0
M  V30 201 H 15.3051 1.24709 0.719982 0
M  V30 202 H 17.2581 1.80715 3.80684 0
M  V30 203 H 15.9821 0.732524 3.18279 0
M  V30 204 H 14.6411 2.73283 2.44361 0
M  V30 205 H 14.2891 1.74938 4.71599 0
M  V30 206 H 13.9891 3.50541 4.71588 0
M  V30 207 H 15.5131 2.86401 5.39265 0
M  V30 208 H 16.9271 4.37898 3.70024 0
M  V30 209 H 15.3241 5.03735 3.26146 0
M  V30 210 H 16.3941 4.42244 1.98867 0
M  V30 211 N 17.7372 -0.778329 1.37039 0
M  V30 212 C 18.7002 -1.87301 1.32102 0
M  V30 213 C 19.7002 -1.59198 0.226405 0
M  V30 214 O 20.8902 -1.67403 0.481861 0
M  V30 215 C 18.0222 -3.24309 1.05055 0
M  V30 216 H 19.2152 -1.93093 2.29467 0
M  V30 217 H 16.7682 -0.977358 1.21973 0
M  V30 218 H 17.5032 -3.24196 0.0819373 0
M  V30 219 H 17.2882 -3.46098 1.84279 0
M  V30 220 H 18.7782 -4.04382 1.04234 0
M  V30 221 N 19.2153 -1.21501 -1.00376 0
M  V30 222 C 20.1783 -0.976927 -2.07337 0
M  V30 223 C 21.1783 0.0525322 -1.60714 0
M  V30 224 O 22.3683 -0.184869 -1.73216 0
M  V30 225 C 19.5003 -0.473423 -3.37597 0
M  V30 226 H 20.6933 -1.92587 -2.29892 0
M  V30 227 H 18.2463 -1.03217 -1.17371 0
M  V30 228 H 18.9813 0.480379 -3.20722 0
M  V30 229 H 18.7663 -1.216 -3.72768 0
M  V30 230 H 20.2563 -0.32675 -4.1632 0
M  V30 231 N 20.6934 1.19889 -1.02296 0
M  V30 232 C 21.6564 2.21116 -0.603351 0
M  V30 233 C 22.6564 1.5738 0.329884 0
M  V30 234 O 23.8464 1.73802 0.117702 0
M  V30 235 C 20.9784 3.40696 0.117992 0
M  V30 236 H 22.1714 2.59754 -1.49893 0
M  V30 237 H 19.7244 1.33463 -0.813468 0
M  V30 238 H 20.4594 3.07569 1.0282 0
M  V30 239 H 20.2444 3.88188 -0.552511 0
M  V30 240 H 21.7344 4.15692 0.398696 0
M  V30 241 N 22.1715 0.800033 1.35784 0
M  V30 242 C 23.3995 0.389606 2.03199 0
M  V30 243 C 23.8145 -0.997375 1.60306 0
M  V30 244 O 23.1715 -1.64154 0.797481 0
M  V30 245 C 23.2225 0.455855 3.58614 0
M  V30 246 O 22.9435 1.78815 3.99946 0
M  V30 247 C 24.4445 0.0374032 4.43284 0
M  V30 248 H 21.6645 0.159132 0.651857 0
M  V30 249 H 24.2085 1.08183 1.73541 0
M  V30 250 H 22.3635 -0.188057 3.86943 0
M  V30 251 H 22.7775 1.74636 4.94573 0
M  V30 252 H 24.2515 0.134882 5.51835 0
M  V30 253 H 24.7285 -1.01651 4.27275 0
M  V30 254 H 25.3345 0.654215 4.20238 0
M  V30 255 N 23.6496 -1.47581 0.552962 0
M  V30 256 C 24.5796 -2.32762 -0.185451 0
M  V30 257 C 25.5606 -1.43527 -0.912905 0
M  V30 258 O 26.7456 -1.72388 -0.894201 0
M  V30 259 C 23.8756 -3.25219 -1.21859 0
M  V30 260 C 22.8296 -4.23661 -0.607864 0
M  V30 261 C 22.1556 -5.05413 -1.74533 0
M  V30 262 C 23.4556 -5.20481 0.435582 0
M  V30 263 H 25.1496 -2.94749 0.525684 0
M  V30 264 H 22.6956 -1.41738 0.254251 0
M  V30 265 H 24.6486 -3.8365 -1.7433 0
M  V30 266 H 23.3726 -2.61279 -1.95961 0
M  V30 267 H 22.0316 -3.66451 -0.104489 0
M  V30 268 H 21.6796 -4.3788 -2.47529 0
M  V30 269 H 21.3796 -5.72059 -1.34249 0
M  V30 270 H 22.9036 -5.66701 -2.27338 0
M  V30 271 H 24.3176 -5.733 -0.00290157 0
M  V30 272 H 22.7146 -5.95305 0.757067 0
M  V30 273 H 23.7846 -4.66217 1.33303 0
M  V30 274 N 25.1277 -0.289203 -1.54924 0
M  V30 275 C 26.3747 0.323519 -1.99899 0
M  V30 276 C 26.7027 1.54797 -1.17762 0
M  V30 277 O 25.9577 1.94237 -0.238835 0
M  V30 278 C 26.2567 0.736119 -3.49737 0
M  V30 279 C 25.9227 -0.385276 -4.49251 0
M  V30 280 C 24.5847 -0.693156 -4.76181 0
M  V30 281 C 26.9367 -1.14021 -5.08575 0
M  V30 282 C 24.2647 -1.7593 -5.59701 0
M  V30 283 C 26.6167 -2.19619 -5.93254 0
M  V30 284 C 25.2807 -2.51026 -6.185 0
M  V30 285 H 24.5507 0.118384 -0.731482 0
M  V30 286 H 27.1977 -0.405847 -1.8715 0
M  V30 287 H 25.5027 1.54539 -3.60035 0
M  V30 288 H 27.1997 1.22118 -3.81953 0
M  V30 289 H 23.7897 -0.135202 -4.28387 0
M  V30 290 H 27.9737 -0.915611 -4.87781 0
M  V30 291 H 23.2297 -2.0075 -5.77503 0
M  V30 292 H 27.4037 -2.78581 -6.38252 0
M  V30 293 H 25.0307 -3.33772 -6.83008 0
M  V30 294 N 26.6058 1.57591 -0.0167156 0
M  V30 295 C 27.8308 1.9598 0.67872 0
M  V30 296 C 28.2558 0.892546 1.65575 0
M  V30 297 O 27.6138 -0.147772 1.80697 0
M  V30 298 C 27.6618 3.33468 1.37227 0
M  V30 299 O 26.7658 3.28954 2.48722 0
M  V30 300 H 26.1068 0.639339 0.17928 0
M  V30 301 H 28.6368 2.04463 -0.0748802 0
M  V30 302 H 28.6468 3.69417 1.7319 0
M  V30 303 H 27.3218 4.10694 0.656007 0
M  V30 304 H 25.8988 3.04705 2.14963 0
M  V30 305 N 28.0839 -0.256276 1.55502 0
M  V30 306 C 29.0139 -1.32102 1.92539 0
M  V30 307 C 29.9949 -1.50684 0.789194 0
M  V30 308 O 31.1799 -1.63449 1.04872 0
M  V30 309 C 28.3099 -2.67752 2.21192 0
M  V30 310 C 27.2639 -2.63878 3.36975 0
M  V30 311 C 26.5899 -4.03236 3.51147 0
M  V30 312 C 27.8899 -2.21682 4.72921 0
M  V30 313 H 29.5839 -1.01351 2.81724 0
M  V30 314 H 27.1299 -0.486105 1.35547 0
M  V30 315 H 29.0829 -3.42365 2.45691 0
M  V30 316 H 27.8069 -3.0012 1.28824 0
M  V30 317 H 26.4659 -1.91722 3.12471 0
M  V30 318 H 26.1139 -4.32854 2.56216 0
M  V30 319 H 25.8139 -4.01535 4.29003 0
M  V30 320 H 27.3379 -4.79563 3.77957 0
M  V30 321 H 28.7519 -2.86023 4.96854 0
M  V30 322 H 27.1489 -2.3111 5.53812 0
M  V30 323 H 28.2189 -1.16833 4.70615 0
M  V30 324 N 29.562 -1.4872 -0.521534 0
M  V30 325 C 30.973 -1.50607 -1.10337 0
M  V30 326 C 31.324 -0.280612 -1.94183 0
M  V30 327 O 30.449 0.611507 -2.0758 0
M  V30 328 C 31.044 -2.72903 -2.00772 0
M  V30 329 C 29.603 -2.77634 -2.54158 0
M  V30 330 C 28.75 -2.44241 -1.31307 0
M  V30 331 H 31.701 -1.55714 -0.306388 0
M  V30 332 H 31.722 -2.519 -2.85178 0
M  V30 333 H 31.234 -3.62077 -1.39721 0
M  V30 334 H 29.335 -1.92689 -3.18907 0
M  V30 335 H 29.448 -3.79283 -2.92714 0
M  V30 336 H 27.812 -1.95577 -1.63161 0
M  V30 337 H 28.595 -3.35666 -0.719943 0
M  V30 338 N 31.0401 0.771051 -1.3745 0
M  V30 339 C 32.0031 1.86598 -1.33093 0
M  V30 340 C 33.0031 1.59076 -0.234845 0
M  V30 341 O 34.1931 1.67145 -0.490732 0
M  V30 342 C 31.3251 3.23747 -1.06773 0
M  V30 343 H 32.5181 1.91873 -2.30488 0
M  V30 344 H 30.0711 0.970876 -1.2249 0
M  V30 345 H 30.8061 3.24148 -0.099129 0
M  V30 346 H 30.5911 3.45115 -1.86112 0
M  V30 347 H 32.0811 4.03824 -1.06377 0
M  V30 348 N 32.5182 1.22032 0.997298 0
M  V30 349 C 33.7652 1.04222 1.73621 0
M  V30 350 C 34.0932 -0.423264 1.89839 0
M  V30 351 O 33.3482 -1.3302 1.43542 0
M  V30 352 C 33.6472 1.69345 3.14733 0
M  V30 353 C 33.3132 3.19226 3.18442 0
M  V30 354 C 31.9752 3.60124 3.19161 0
M  V30 355 C 34.3272 4.15181 3.15078 0
M  V30 356 C 31.6552 4.95467 3.14212 0
M  V30 357 C 34.0072 5.50495 3.1167 0
M  V30 358 C 32.6712 5.90779 3.10703 0
M  V30 359 H 31.9412 0.381374 0.635323 0
M  V30 360 H 34.5882 1.51732 1.16831 0
M  V30 361 H 32.8932 1.14147 3.74803 0
M  V30 362 H 34.5902 1.53059 3.7064 0
M  V30 363 H 31.1802 2.86659 3.18629 0
M  V30 364 H 35.3642 3.84605 3.13676 0
M  V30 365 H 30.6202 5.25916 3.11805 0
M  V30 366 H 34.7942 6.24576 3.08022 0
M  V30 367 H 32.4212 6.9562 3.06622 0
M  V30 368 N 33.9963 -1.19345 1.0293 0
M  V30 369 C 35.2213 -1.93538 0.745511 0
M  V30 370 C 35.6463 -1.75007 -0.689511 0
M  V30 371 O 35.0043 -1.05265 -1.47611 0
M  V30 372 C 35.0523 -3.43336 1.10239 0
M  V30 373 O 34.1563 -4.11806 0.221289 0
M  V30 374 H 33.4973 -0.604193 0.275404 0
M  V30 375 H 36.0273 -1.5141 1.37609 0
M  V30 376 H 36.0373 -3.94004 1.05947 0
M  V30 377 H 34.7123 -3.56146 2.14786 0
M  V30 378 H 33.2893 -3.715 0.322842 0
M  V30 379 N 35.4744 -0.807222 -1.35358 0
M  V30 380 C 36.4064 -0.175717 -2.28525 0
M  V30 381 C 37.4194 0.625354 -1.5031 0
M  V30 382 O 38.6084 0.457611 -1.72535 0
M  V30 383 C 35.7084 0.773471 -3.29956 0
M  V30 384 C 34.8814 0.0186296 -4.37396 0
M  V30 385 C 33.9404 0.886395 -5.18681 0
M  V30 386 O 32.9664 0.337106 -5.68201 0
M  V30 387 N 34.1684 2.20839 -5.36852 0
M  V30 388 H 36.9334 -0.976091 -2.83359 0
M  V30 389 H 34.4944 -0.662737 -1.47714 0
M  V30 390 H 36.4864 1.35824 -3.81227 0
M  V30 391 H 35.0564 1.47465 -2.75632 0
M  V30 392 H 34.2764 -0.747349 -3.87051 0
M  V30 393 H 35.5644 -0.501577 -5.06322 0
M  V30 394 H 34.9624 2.67858 -4.98265 0
M  V30 395 H 33.5194 2.74237 -5.91301 0
M  V30 396 N 36.9525 1.47285 -0.560781 0
M  V30 397 C 37.8625 2.33846 0.187954 0
M  V30 398 C 38.8785 1.48412 0.908293 0
M  V30 399 O 40.0545 1.81332 0.876388 0
M  V30 400 C 37.1195 3.25178 1.2025 0
M  V30 401 C 36.1805 4.26504 0.489208 0
M  V30 402 C 35.4135 5.13472 1.45542 0
M  V30 403 O 35.6365 5.02959 2.6905 0
M  V30 404 O 34.5705 5.93902 0.977963 0
M  V30 405 H 38.3965 2.99177 -0.522177 0
M  V30 406 H 35.9815 1.45903 -0.321364 0
M  V30 407 H 37.8635 3.81584 1.78805 0
M  V30 408 H 36.5385 2.6247 1.89449 0
M  V30 409 H 35.4455 3.73847 -0.137627 0
M  V30 410 H 36.7785 4.91935 -0.161399 0
M  V30 411 N 38.4306 0.297415 1.54768 0
M  V30 412 C 39.7076 -0.365847 1.92148 0
M  V30 413 C 40.0876 -1.71975 1.22424 0
M  V30 414 O 39.4356 -2.25666 0.358739 0
M  V30 415 C 39.6456 -0.484056 3.45627 0
M  V30 416 C 40.9936 -0.756594 4.17805 0
M  V30 417 O 42.0176 -0.568007 3.51642 0
M  V30 418 O 40.8766 -1.11863 5.34929 0
M  V30 419 H 37.9706 -0.203919 0.801465 0
M  V30 420 H 40.5166 0.34521 1.66152 0
M  V30 421 H 39.2886 0.467865 3.88493 0
M  V30 422 H 38.9116 -1.24372 3.77647 0
M  V30 423 N 39.9087 -1.5758 0.0250728 0
M  V30 424 C 40.8417 -2.05473 -0.992777 0
M  V30 425 C 41.8197 -0.949661 -1.31986 0
M  V30 426 O 43.0037 -1.21969 -1.43722 0
M  V30 427 C 40.1307 -2.4734 -2.31389 0
M  V30 428 C 39.1767 -3.68827 -2.1417 0
M  V30 429 S 40.0097 -5.15655 -1.44429 0
M  V30 430 C 41.1657 -5.60814 -2.77918 0
M  V30 431 H 41.3987 -2.91486 -0.585078 0
M  V30 432 H 38.9317 -1.53269 -0.186507 0
M  V30 433 H 40.8897 -2.72127 -3.07339 0
M  V30 434 H 39.5507 -1.6168 -2.69292 0
M  V30 435 H 38.7437 -3.95955 -3.11826 0
M  V30 436 H 38.3457 -3.44172 -1.46362 0
M  V30 437 H 40.6377 -5.64806 -3.74166 0
M  V30 438 H 41.5807 -6.60414 -2.55459 0
M  V30 439 H 41.9887 -4.8845 -2.82979 0
M  V30 440 N 41.3868 0.248026 -1.55636 0
M  V30 441 C 42.6148 0.993808 -1.81469 0
M  V30 442 C 43.0298 1.78991 -0.60064 0
M  V30 443 O 42.3868 1.77345 0.430682 0
M  V30 444 C 42.4378 1.93258 -3.05506 0
M  V30 445 O 42.1588 1.16869 -4.22224 0
M  V30 446 C 43.6598 2.79444 -3.4413 0
M  V30 447 H 40.8798 0.292486 -0.603898 0
M  V30 448 H 43.4238 0.271253 -2.02693 0
M  V30 449 H 41.5788 2.60943 -2.86335 0
M  V30 450 H 41.9928 1.80359 -4.92515 0
M  V30 451 H 43.4668 3.41066 -4.34026 0
M  V30 452 H 43.9438 3.50499 -2.64665 0
M  V30 453 H 44.5498 2.17214 -3.65648 0
M  V30 454 N 42.8649 1.48995 0.513639 0
M  V30 455 C 43.8149 1.61127 1.61314 0
M  V30 456 C 44.7989 0.467521 1.53958 0
M  V30 457 O 45.9909 0.719826 1.61702 0
M  V30 458 C 43.1199 1.66937 2.99978 0
M  V30 459 C 42.2059 2.86847 3.12377 0
M  V30 460 N 42.5969 4.11078 2.94701 0
M  V30 461 C 40.8949 2.84521 3.43459 0
M  V30 462 C 41.5959 4.91615 3.10949 0
M  V30 463 N 40.5719 4.24739 3.3926 0
M  V30 464 H 44.3739 2.54909 1.46282 0
M  V30 465 H 41.8879 1.45593 0.719483 0
M  V30 466 H 43.8849 1.73725 3.78979 0
M  V30 467 H 42.5449 0.742831 3.16089 0
M  V30 468 H 43.5559 4.41258 2.71131 0
M  V30 469 H 40.2329 2.01192 3.65825 0
M  V30 470 H 41.6229 6.00264 3.01882 0
M  V30 471 N 44.343 -0.763751 1.37857 0
M  V30 472 C 45.589 -1.52483 1.33704 0
M  V30 473 C 45.922 -1.94051 -0.0759612 0
M  V30 474 O 45.197 -1.64675 -1.03501 0
M  V30 475 C 45.48 -2.78441 2.28348 0
M  V30 476 C 45.333 -2.43075 3.78463 0
M  V30 477 C 46.652 -3.80415 2.21298 0
M  V30 478 H 43.771 -0.553169 0.487005 0
M  V30 479 H 46.413 -0.875562 1.68624 0
M  V30 480 H 44.563 -3.33842 1.987 0
M  V30 481 H 46.235 -1.93527 4.18742 0
M  V30 482 H 44.478 -1.75666 3.96641 0
M  V30 483 H 45.149 -3.33149 4.40132 0
M  V30 484 H 47.625 -3.34527 2.47449 0
M  V30 485 H 46.501 -4.66257 2.89647 0
M  V30 486 H 46.762 -4.25262 1.20849 0
M  V30 487 N 45.8211 -1.22559 -0.990812 0
M  V30 488 C 47.2321 -1.04791 -1.54518 0
M  V30 489 C 47.5831 0.387998 -1.92325 0
M  V30 490 O 46.7081 1.27328 -1.74976 0
M  V30 491 C 47.3031 -1.896 -2.80779 0
M  V30 492 C 45.8621 -1.76124 -3.32652 0
M  V30 493 C 45.0091 -1.8594 -2.05722 0
M  V30 494 H 47.9601 -1.36374 -0.811662 0
M  V30 495 H 47.9811 -1.41464 -3.53225 0
M  V30 496 H 47.4931 -2.94101 -2.53231 0
M  V30 497 H 45.5941 -0.743643 -3.65104 0
M  V30 498 H 45.7071 -2.58913 -4.03114 0
M  V30 499 H 44.0711 -1.29403 -2.19379 0
M  V30 500 H 44.8541 -2.91976 -1.80568 0
M  V30 501 N 47.2992 1.18797 -1.03562 0
M  V30 502 C 48.5272 1.92599 -0.755869 0
M  V30 503 C 48.9422 1.75886 0.686271 0
M  V30 504 O 48.2992 1.08517 1.46732 0
M  V30 505 C 48.3502 3.44159 -1.10619 0
M  V30 506 O 48.0712 3.60341 -2.4917 0
M  V30 507 C 49.5722 4.3507 -0.850214 0
M  V30 508 H 46.7922 0.611587 -0.276048 0
M  V30 509 H 49.3362 1.50742 -1.38192 0
M  V30 510 H 47.4912 3.83823 -0.525194 0
M  V30 511 H 47.9052 4.54128 -2.62427 0
M  V30 512 H 49.3792 5.39989 -1.14523 0
M  V30 513 H 49.8562 4.38673 0.215176 0
M  V30 514 H 50.4622 4.01097 -1.41426 0
M  V30 515 N 48.7773 0.814389 1.34928 0
M  V30 516 C 50.0543 0.321363 1.92942 0
M  V30 517 C 50.4343 -1.19014 1.74353 0
M  V30 518 O 49.7823 -1.99328 1.11716 0
M  V30 519 C 49.9923 0.741323 3.41036 0
M  V30 520 C 51.3403 0.735266 4.18185 0
M  V30 521 O 52.3643 0.68336 3.49584 0
M  V30 522 O 51.2233 0.800703 5.40602 0
M  V30 523 H 48.3173 0.0858893 0.822528 0
M  V30 524 H 50.8633 0.898609 1.43955 0
M  V30 525 H 49.6353 1.78276 3.4833 0
M  V30 526 H 49.2583 0.139307 3.97356 0
M  V30 527 N 50.2554 -1.46986 0.568584 0
M  V30 528 C 51.2184 -2.28624 -0.162366 0
M  V30 529 C 52.2184 -1.37596 -0.832103 0
M  V30 530 O 53.4084 -1.60115 -0.68622 0
M  V30 531 C 50.5404 -3.17596 -1.23878 0
M  V30 532 H 51.7334 -2.94722 0.554899 0
M  V30 533 H 49.2864 -1.52863 0.325976 0
M  V30 534 H 50.0214 -2.56214 -1.98808 0
M  V30 535 H 49.8064 -3.846 -0.763219 0
M  V30 536 H 51.2964 -3.79078 -1.75185 0
M  V30 537 N 51.7335 -0.305618 -1.54608 0
M  V30 538 C 52.9805 0.302298 -2.00231 0
M  V30 539 C 53.3085 1.5354 -1.19398 0
M  V30 540 O 52.5635 1.93973 -0.259423 0
M  V30 541 C 52.8625 0.698983 -3.50498 0
M  V30 542 C 52.5285 -0.432903 -4.48817 0
M  V30 543 C 51.1905 -0.743622 -4.75419 0
M  V30 544 C 53.5425 -1.19409 -5.07337 0
M  V30 545 C 50.8705 -1.81857 -5.57804 0
M  V30 546 C 53.2225 -2.25899 -5.90891 0
M  V30 547 C 51.8865 -2.57572 -6.15803 0
M  V30 548 H 51.1565 0.110619 -0.732697 0
M  V30 549 H 53.8035 -0.425674 -1.86709 0
M  V30 550 H 52.1085 1.50711 -3.61654 0
M  V30 551 H 53.8055 1.1806 -3.83227 0
M  V30 552 H 50.3955 -0.18063 -4.28219 0
M  V30 553 H 54.5795 -0.967295 -4.86782 0
M  V30 554 H 49.8355 -2.06864 -5.75341 0
M  V30 555 H 54.0095 -2.85335 -6.35261 0
M  V30 556 H 51.6365 -3.40998 -6.7943 0
M  V30 557 N 53.2116 1.57565 -0.0334293 0
M  V30 558 C 54.4596 1.91598 0.642999 0
M  V30 559 C 54.7806 0.910847 1.7242 0
M  V30 560 O 54.0506 -0.0469931 1.95844 0
M  V30 561 H 52.6306 0.707228 0.240496 0
M  V30 562 H 55.2926 1.94726 -0.0822488 0
M  V30 563 H 54.3886 2.92336 1.09298 0
M  V30 564 N 54.6897 -0.239769 1.55765 0
M  V30 565 C 55.6367 -1.29696 1.90913 0
M  V30 566 C 56.6067 -1.47478 0.764164 0
M  V30 567 O 57.7917 -1.61345 1.01845 0
M  V30 568 C 54.9317 -2.64598 2.21544 0
M  V30 569 C 54.0447 -2.54765 3.48882 0
M  V30 570 C 53.1797 -3.82069 3.69049 0
M  V30 571 C 52.2187 -3.66883 4.89963 0
M  V30 572 N 51.3557 -4.86094 5.06614 0
M  V30 573 H 56.1957 -0.990224 2.81067 0
M  V30 574 H 53.7327 -0.477684 1.39128 0
M  V30 575 H 55.6907 -3.43132 2.3731 0
M  V30 576 H 54.3207 -2.93405 1.34585 0
M  V30 577 H 53.3727 -1.67763 3.41409 0
M  V30 578 H 54.6847 -2.39457 4.37563 0
M  V30 579 H 53.8387 -4.69046 3.84812 0
M  V30 580 H 52.5777 -4.00282 2.78614 0
M  V30 581 H 51.5827 -2.78289 4.74168 0
M  V30 582 H 52.8077 -3.50157 5.81865 0
M  V30 583 H 50.7537 -5.04655 4.19117 0
M  V30 584 H 50.6707 -4.73443 5.89396 0
M  V30 585 H 51.9387 -5.74549 5.26795 0
M  V30 586 N 56.1678 -1.49265 -0.50573 0
M  V30 587 C 57.0978 -1.68495 -1.61653 0
M  V30 588 C 58.0788 -0.53366 -1.61512 0
M  V30 589 O 59.2638 -0.76897 -1.78327 0
M  V30 590 C 56.3938 -1.74709 -3.00157 0
M  V30 591 C 55.3478 -2.89581 -3.15162 0
M  V30 592 C 54.6738 -2.80903 -4.5497 0
M  V30 593 C 55.9738 -4.30578 -2.95634 0
M  V30 594 H 57.6678 -2.61493 -1.45814 0
M  V30 595 H 55.2138 -1.25838 -0.70005 0
M  V30 596 H 57.1668 -1.86748 -3.77761 0
M  V30 597 H 55.8908 -0.783067 -3.17074 0
M  V30 598 H 54.5498 -2.77136 -2.39982 0
M  V30 599 H 54.1978 -1.82419 -4.68756 0
M  V30 600 H 53.8978 -3.57999 -4.65951 0
M  V30 601 H 55.4218 -2.94944 -5.34641 0
M  V30 602 H 56.8358 -4.4373 -3.63011 0
M  V30 603 H 55.2328 -5.0886 -3.18091 0
M  V30 604 H 56.3028 -4.45352 -1.91806 0
M  V30 605 N 57.6459 0.756429 -1.3826 0
M  V30 606 C 58.5559 1.9009 -1.37488 0
M  V30 607 C 59.5719 1.71855 -0.272366 0
M  V30 608 O 60.7479 1.94827 -0.510318 0
M  V30 609 C 57.8129 3.25421 -1.19592 0
M  V30 610 C 56.8739 3.56202 -2.39622 0
M  V30 611 C 56.1069 4.85075 -2.2257 0
M  V30 612 O 56.3299 5.57246 -1.21793 0
M  V30 613 O 55.2639 5.15269 -3.11098 0
M  V30 614 H 59.0899 1.93695 -2.33914 0
M  V30 615 H 56.6749 0.901313 -1.1915 0
M  V30 616 H 58.5569 4.06337 -1.11661 0
M  V30 617 H 57.2319 3.22634 -0.262486 0
M  V30 618 H 56.1389 2.75458 -2.53128 0
M  V30 619 H 57.4719 3.63747 -3.31586 0
M  V30 620 N 59.124 1.23083 0.984299 0
M  V30 621 C 60.54 0.992637 1.24975 0
M  V30 622 C 60.74 -0.308618 1.99123 0
M  V30 623 O 59.796 -1.02905 2.30579 0
M  V30 624 C 61.109 2.19698 2.05312 0
M  V30 625 C 62.657 2.24147 2.18465 0
M  V30 626 C 63.132 3.44157 3.02192 0
M  V30 627 N 64.623 3.44372 3.09777 0
M  V30 628 C 65.358 4.33886 3.74874 0
M  V30 629 N 64.854 5.3363 4.41827 0
M  V30 630 N 66.647 4.21639 3.71721 0
M  V30 631 H 58.798 2.06731 0.487453 0
M  V30 632 H 61.061 0.906339 0.277944 0
M  V30 633 H 60.767 3.1411 1.58201 0
M  V30 634 H 60.641 2.20465 3.06064 0
M  V30 635 H 63.028 1.30277 2.64786 0
M  V30 636 H 63.109 2.27415 1.17115 0
M  V30 637 H 62.753 4.38332 2.56568 0
M  V30 638 H 62.683 3.3813 4.03702 0
M  V30 639 H 65.174 2.72201 2.62135 0
M  V30 640 H 65.487 5.98196 4.89266 0
M  V30 641 H 63.832 5.37534 4.40548 0
M  V30 642 H 67.023 3.42962 3.18582 0
M  V30 643 H 67.196 4.91604 4.22173 0
M  V30 644 N 60.6021 -1.18246 1.0419 0
M  V30 645 C 62.0131 -1.69914 0.773698 0
M  V30 646 C 62.3641 -1.83085 -0.705297 0
M  V30 647 O 61.4891 -1.51123 -1.5489 0
M  V30 648 C 62.0841 -3.08619 1.39784 0
M  V30 649 C 60.6431 -3.57494 1.17792 0
M  V30 650 C 59.7901 -2.34013 1.48773 0
M  V30 651 H 62.7411 -1.02904 1.20816 0
M  V30 652 H 62.7621 -3.71958 0.801714 0
M  V30 653 H 62.2741 -2.99001 2.47426 0
M  V30 654 H 60.3751 -3.72406 0.120295 0
M  V30 655 H 60.4881 -4.40852 1.87581 0
M  V30 656 H 58.8521 -2.37986 0.907463 0
M  V30 657 H 59.6351 -2.27013 2.57527 0
M  V30 658 N 62.0802 -0.821533 -1.34494 0
M  V30 659 C 63.0432 -0.247847 -2.27856 0
M  V30 660 C 64.0432 0.573453 -1.50227 0
M  V30 661 O 65.2332 0.389759 -1.69784 0
M  V30 662 C 62.3652 0.652698 -3.34593 0
M  V30 663 H 63.5582 -1.07146 -2.80107 0
M  V30 664 H 61.1112 -0.593291 -1.44602 0
M  V30 665 H 61.8462 1.49943 -2.87555 0
M  V30 666 H 61.6312 0.065292 -3.92046 0
M  V30 667 H 63.1212 1.04793 -4.04238 0
M  V30 668 N 63.5583 1.46682 -0.576371 0
M  V30 669 C 64.5213 2.28707 0.150239 0
M  V30 670 C 65.5213 1.38035 0.824794 0
M  V30 671 O 66.7113 1.60476 0.677719 0
M  V30 672 C 63.8433 3.18248 1.22192 0
M  V30 673 H 65.0363 2.94423 -0.570521 0
M  V30 674 H 62.5893 1.52688 -0.334078 0
M  V30 675 H 63.3243 2.57265 1.97447 0
M  V30 676 H 63.1093 3.85 0.742812 0
M  V30 677 H 64.5993 3.80001 1.73172 0
M  V30 678 N 65.0364 0.313813 1.54444 0
M  V30 679 C 66.2824 -0.292108 2.00685 0
M  V30 680 C 66.6154 -1.52548 1.20177 0
M  V30 681 O 65.8904 -1.92452 0.281531 0
M  V30 682 C 66.1734 -0.635968 3.5444 0
M  V30 683 C 66.0264 0.607437 4.4568 0
M  V30 684 C 67.3454 -1.45747 4.15266 0
M  V30 685 H 64.4644 -0.104697 0.729526 0
M  V30 686 H 67.1064 0.428457 1.85106 0
M  V30 687 H 65.2564 -1.24986 3.67846 0
M  V30 688 H 66.9284 1.24581 4.44159 0
M  V30 689 H 65.1714 1.23822 4.15753 0
M  V30 690 H 65.8424 0.322515 5.51057 0
M  V30 691 H 68.3184 -0.938645 4.05375 0
M  V30 692 H 67.1944 -1.66683 5.2298 0
M  V30 693 H 67.4554 -2.45063 3.67963 0
M  V30 694 N 66.5145 -1.57545 0.0417849 0
M  V30 695 C 67.7615 -1.92317 -0.634082 0
M  V30 696 C 68.0895 -0.919334 -1.71402 0
M  V30 697 O 67.3445 0.0698253 -1.95575 0
M  V30 698 C 67.6435 -3.33794 -1.27735 0
M  V30 699 C 67.3095 -4.49716 -0.326543 0
M  V30 700 C 65.9715 -4.81156 -0.0648814 0
M  V30 701 C 68.3235 -5.20182 0.325623 0
M  V30 702 C 65.6515 -5.80414 0.856539 0
M  V30 703 C 68.0035 -6.20424 1.23518 0
M  V30 704 C 66.6675 -6.50298 1.5056 0
M  V30 705 H 65.9375 -0.703736 -0.232027 0
M  V30 706 H 68.5845 -1.91205 0.106259 0
M  V30 707 H 66.8895 -3.31228 -2.09274 0
M  V30 708 H 68.5865 -3.57975 -1.80707 0
M  V30 709 H 65.1765 -4.25176 -0.540665 0
M  V30 710 H 69.3605 -4.96112 0.136546 0
M  V30 711 H 64.6165 -6.019 1.07363 0
M  V30 712 H 68.7905 -6.74141 1.74664 0
M  V30 713 H 66.4175 -7.27025 2.22123 0
M  V30 714 N 67.9926 0.231505 -1.5589 0
M  V30 715 C 68.9406 1.30649 -1.92441 0
M  V30 716 C 69.9346 1.49037 -0.805254 0
M  V30 717 O 71.1406 1.50329 -0.990007 0
M  V30 718 H 67.5156 0.437812 -0.611412 0
M  V30 719 H 69.4866 0.970973 -2.82161 0
M  V30 720 C 68.2356 2.65179 -2.24889 0
M  V30 721 H 67.5586 2.51835 -3.10514 0
M  V30 722 H 68.9986 3.39234 -2.54355 0
M  V30 723 C 67.4576 3.19439 -1.07054 0
M  V30 724 O 67.9876 4.00371 -0.326499 0
M  V30 725 N 66.1936 2.77675 -0.85703 0
M  V30 726 H 65.7406 2.11969 -1.46379 0
M  V30 727 H 65.6986 3.14321 -0.0703223 0
M  V30 728 N 69.4707 1.49531 0.497807 0
M  V30 729 C 70.4207 1.62829 1.59596 0
M  V30 730 C 71.4047 0.483824 1.53453 0
M  V30 731 O 72.5967 0.736937 1.60929 0
M  V30 732 C 69.7257 1.7011 2.98191 0
M  V30 733 C 68.8117 2.90144 3.09317 0
M  V30 734 N 69.2027 4.1418 2.90324 0
M  V30 735 C 67.5007 2.88148 3.40422 0
M  V30 736 C 68.2017 4.94886 3.05717 0
M  V30 737 N 67.1777 4.28314 3.34736 0
M  V30 738 H 70.9797 2.56446 1.4357 0
M  V30 739 H 68.4937 1.46347 0.704001 0
M  V30 740 H 70.4907 1.77735 3.77115 0
M  V30 741 H 69.1507 0.776315 3.15283 0
M  V30 742 H 70.1617 4.44109 2.66436 0
M  V30 743 H 66.8387 2.05061 3.63671 0
M  V30 744 H 68.2287 6.03432 2.95499 0
M  V30 745 N 70.9488 -0.749086 1.3866 0
M  V30 746 C 72.2258 -1.4992 1.25632 0
M  V30 747 C 72.6058 -2.10633 -0.140317 0
M  V30 748 O 71.9538 -1.97437 -1.15025 0
M  V30 749 C 72.1638 -2.56195 2.36992 0
M  V30 750 C 73.5118 -3.22972 2.75634 0
M  V30 751 O 74.5358 -2.66502 2.36337 0
M  V30 752 O 73.3948 -4.25122 3.43415 0
M  V30 753 H 70.4888 -0.665067 0.491544 0
M  V30 754 H 73.0348 -0.784113 1.50498 0
M  V30 755 H 71.8068 -2.09612 3.30422 0
M  V30 756 H 71.4298 -3.35279 2.13714 0
M  V30 757 N 72.4269 -1.23603 -0.977757 0
M  V30 758 C 73.3369 -1.03632 -2.1047 0
M  V30 759 C 74.3529 0.0199435 -1.73989 0
M  V30 760 O 75.5289 -0.176076 -2.00629 0
M  V30 761 C 72.5939 -0.63276 -3.40877 0
M  V30 762 C 71.6549 -1.76437 -3.91367 0
M  V30 763 C 70.8879 -1.37997 -5.15551 0
M  V30 764 O 71.1109 -0.265357 -5.69782 0
M  V30 765 O 70.0449 -2.20201 -5.60174 0
M  V30 766 H 73.8709 -1.98086 -2.30208 0
M  V30 767 H 71.4559 -1.02332 -1.08851 0
M  V30 768 H 73.3379 -0.418761 -4.19314 0
M  V30 769 H 72.0129 0.282754 -3.22463 0
M  V30 770 H 70.9199 -2.03304 -3.14036 0
M  V30 771 H 72.2529 -2.6583 -4.14241 0
M  V30 772 N 73.905 1.17692 -1.04816 0
M  V30 773 C 74.855 2.1952 -0.616042 0
M  V30 774 C 75.839 1.57147 0.345485 0
M  V30 775 O 77.031 1.76245 0.163325 0
M  V30 776 C 74.16 3.43298 0.0116917 0
M  V30 777 C 73.246 4.12777 -0.973435 0
M  V30 778 N 73.637 4.5814 -2.14339 0
M  V30 779 C 71.935 4.38747 -0.80108 0
M  V30 780 C 72.636 5.11713 -2.7663 0
M  V30 781 N 71.612 5.03686 -2.04453 0
M  V30 782 H 75.414 2.52293 -1.5075 0
M  V30 783 H 72.928 1.3398 -0.917776 0
M  V30 784 H 74.925 4.15519 0.339006 0
M  V30 785 H 73.585 3.12018 0.898593 0
M  V30 786 H 74.596 4.52349 -2.52191 0
M  V30 787 H 71.273 4.17485 0.0350934 0
M  V30 788 H 72.663 5.56962 -3.75823 0
M  V30 789 N 75.3831 0.828654 1.34056 0
M  V30 790 C 76.3311 0.242973 2.31327 0
M  V30 791 C 77.3251 -0.61944 1.57668 0
M  V30 792 O 78.5311 -0.51014 1.7262 0
M  V30 793 H 74.9061 0.059834 0.749616 0
M  V30 794 H 76.8771 1.07809 2.78244 0
M  V30 795 C 75.6261 -0.575733 3.429 0
M  V30 796 H 74.9491 0.0785582 3.99723 0
M  V30 797 H 76.3891 -0.951547 4.13185 0
M  V30 798 C 74.8481 -1.75044 2.87856 0
M  V30 799 O 75.3781 -2.84882 2.83205 0
M  V30 800 N 73.5841 -1.56903 2.44602 0
M  V30 801 H 73.1311 -0.675547 2.48584 0
M  V30 802 H 73.0891 -2.35652 2.08124 0
M  V30 803 N 76.8612 -1.46375 0.584142 0
M  V30 804 C 77.7712 -2.34115 -0.150728 0
M  V30 805 C 78.7872 -1.49838 -0.884567 0
M  V30 806 O 79.9632 -1.82704 -0.847429 0
M  V30 807 C 77.0282 -3.2705 -1.15062 0
M  V30 808 C 76.0892 -4.27228 -0.421293 0
M  V30 809 C 75.3222 -5.15722 -1.37355 0
M  V30 810 O 75.5452 -5.07176 -2.61014 0
M  V30 811 O 74.4792 -5.95383 -0.883355 0
M  V30 812 H 78.3052 -2.98309 0.569708 0
M  V30 813 H 75.8902 -1.45373 0.344535 0
M  V30 814 H 77.7722 -3.84381 -1.72712 0
M  V30 815 H 76.4472 -2.65451 -1.8525 0
M  V30 816 H 75.3542 -3.7358 0.197085 0
M  V30 817 H 76.6872 -4.91616 0.239641 0
M  V30 818 N 78.3393 -0.321999 -1.54275 0
M  V30 819 C 79.2863 0.544664 -2.24281 0
M  V30 820 C 80.2563 1.1129 -1.23303 0
M  V30 821 O 81.4413 1.15354 -1.51981 0
M  V30 822 C 78.5813 1.70045 -3.00298 0
M  V30 823 C 77.6943 1.16159 -4.1609 0
M  V30 824 C 76.8293 2.28293 -4.79641 0
M  V30 825 C 75.8683 1.71648 -5.8754 0
M  V30 826 N 75.0053 2.77438 -6.44959 0
M  V30 827 H 79.8453 -0.0588907 -2.97942 0
M  V30 828 H 77.3823 -0.0408345 -1.47043 0
M  V30 829 H 79.3403 2.38054 -3.42616 0
M  V30 830 H 77.9703 2.27531 -2.28975 0
M  V30 831 H 77.0223 0.373092 -3.78566 0
M  V30 832 H 78.3343 0.707087 -4.93763 0
M  V30 833 H 77.4883 3.0421 -5.2492 0
M  V30 834 H 76.2273 2.77079 -4.01346 0
M  V30 835 H 75.2323 0.942282 -5.41665 0
M  V30 836 H 76.4573 1.23741 -6.67731 0
M  V30 837 H 74.4033 3.25519 -5.69538 0
M  V30 838 H 74.3203 2.36547 -7.1804 0
M  V30 839 H 75.5883 3.53189 -6.94894 0
M  V30 840 N 79.8174 1.5752 -0.0501392 0
M  V30 841 C 80.7804 2.1037 0.909786 0
M  V30 842 C 81.7804 1.02308 1.24056 0
M  V30 843 O 82.9704 1.28385 1.17741 0
M  V30 844 C 80.1024 2.58708 2.21998 0
M  V30 845 H 81.2954 2.96479 0.451665 0
M  V30 846 H 78.8484 1.55038 0.198248 0
M  V30 847 H 79.5834 1.75989 2.72394 0
M  V30 848 H 79.3684 3.37675 1.99295 0
M  V30 849 H 80.8584 2.99747 2.9076 0
M  V30 850 N 81.2955 -0.223234 1.56011 0
M  V30 851 C 82.5435 -0.946003 1.78592 0
M  V30 852 C 82.8645 -1.84936 0.618349 0
M  V30 853 O 82.1345 -1.92473 -0.364833 0
M  V30 854 H 80.7145 -0.352298 0.658707 0
M  V30 855 H 83.3765 -0.235494 1.93472 0
M  V30 856 H 82.4725 -1.55381 2.70672 0
M  V30 857 N 82.7736 -1.49793 -0.48987 0
M  V30 858 C 84.0226 -1.59085 -1.23995 0
M  V30 859 C 84.3356 -0.287907 -1.9347 0
M  V30 860 O 85.5416 -0.259506 -2.70257 0
M  V30 861 C 83.9976 -2.80736 -2.252 0
M  V30 862 C 83.6056 -4.17833 -1.61614 0
M  V30 863 C 85.3496 -2.99364 -3.00967 0
M  V30 864 C 83.2566 -5.30693 -2.60996 0
M  V30 865 H 82.1866 -0.592372 -0.466488 0
M  V30 866 H 84.8376 -1.76197 -0.51252 0
M  V30 867 H 83.2196 -2.57142 -3.01154 0
M  V30 868 H 84.3936 -4.51608 -0.915774 0
M  V30 869 H 82.7086 -4.04656 -0.981977 0
M  V30 870 H 85.3056 -3.80851 -3.75308 0
M  V30 871 H 85.6486 -2.10356 -3.59244 0
M  V30 872 H 86.1816 -3.2305 -2.32128 0
M  V30 873 H 82.9206 -6.21796 -2.07485 0
M  V30 874 H 82.4406 -5.01359 -3.2924 0
M  V30 875 H 84.1196 -5.6049 -3.23202 0
M  V30 876 N 84.2517 0.741722 -1.39055 0
M  V30 877 C 85.1617 1.88621 -1.39496 0
M  V30 878 C 86.1777 1.71557 -0.290578 0
M  V30 879 O 87.3537 1.94275 -0.530954 0
M  V30 880 C 84.4187 3.24134 -1.23037 0
M  V30 881 C 83.4797 3.5364 -2.43387 0
M  V30 882 C 82.7127 4.82687 -2.27703 0
M  V30 883 O 82.9357 5.55922 -1.27696 0
M  V30 884 O 81.8697 5.1194 -3.16545 0
M  V30 885 H 85.6957 1.91203 -2.35956 0
M  V30 886 H 83.2807 0.888625 -1.20099 0
M  V30 887 H 85.1627 4.0513 -1.15964 0
M  V30 888 H 83.8377 3.22337 -0.296691 0
M  V30 889 H 82.7447 2.72758 -2.56035 0
M  V30 890 H 84.0777 3.60209 -3.35425 0
M  V30 891 N 85.7298 1.2412 0.971189 0
M  V30 892 C 86.9548 1.10667 1.75407 0
M  V30 893 C 87.3798 -0.337048 1.85056 0
M  V30 894 O 86.7378 -1.24396 1.31892 0
M  V30 895 C 86.7858 1.74726 3.15441 0
M  V30 896 O 85.8898 1.01566 3.99697 0
M  V30 897 H 85.2308 0.387341 0.539317 0
M  V30 898 H 87.7608 1.64358 1.2185 0
M  V30 899 H 87.7708 1.80341 3.6598 0
M  V30 900 H 86.4458 2.79773 3.07734 0
M  V30 901 H 85.0228 1.03713 3.58187 0
M  V30 902 N 87.2079 -1.17134 1.05439 0
M  V30 903 C 88.4479 -1.89137 0.77502 0
M  V30 904 C 88.8119 -1.79345 -0.685526 0
M  V30 905 O 90.0129 -2.46188 -1.0791 0
M  V30 906 C 88.2839 -3.35003 1.2453 0
M  V30 907 S 89.8429 -4.24952 1.09367 0
M  V30 908 H 86.6609 -0.652949 0.281387 0
M  V30 909 H 89.2629 -1.4145 1.34953 0
M  V30 910 H 87.9669 -3.39666 2.30338 0
M  V30 911 H 87.4979 -3.87736 0.665166 0
M  V30 912 H 89.5129 -4.96196 0.0193397 0
M  V30 913 N 88.686 -0.835752 -1.33615 0
M  V30 914 C 89.634 -0.255238 -2.31195 0
M  V30 915 C 90.628 0.61107 -1.57995 0
M  V30 916 O 91.834 0.500979 -1.72888 0
M  V30 917 H 88.209 -0.0638085 -0.749288 0
M  V30 918 H 90.18 -1.09283 -2.77669 0
M  V30 919 C 88.929 0.55754 -3.43201 0
M  V30 920 H 88.252 -0.0997553 -3.99676 0
M  V30 921 H 89.692 0.929622 -4.13683 0
M  V30 922 C 88.151 1.73515 -2.88781 0
M  V30 923 O 88.681 2.83376 -2.84712 0
M  V30 924 N 86.887 1.55603 -2.4543 0
M  V30 925 H 86.434 0.662354 -2.48939 0
M  V30 926 H 86.392 2.34545 -2.09371 0
M  V30 927 N 90.1641 1.46063 -0.591896 0
M  V30 928 C 91.1271 2.28854 0.125973 0
M  V30 929 C 92.1271 1.38903 0.810107 0
M  V30 930 O 93.3171 1.61186 0.66066 0
M  V30 931 C 90.4491 3.19526 1.1881 0
M  V30 932 H 91.6421 2.93802 -0.601717 0
M  V30 933 H 89.1951 1.52325 -0.350254 0
M  V30 934 H 89.9301 2.59345 1.94707 0
M  V30 935 H 89.7151 3.85766 0.701936 0
M  V30 936 H 91.2051 3.81817 1.69132 0
M  V30 937 N 91.6422 0.330177 1.54103 0
M  V30 938 C 92.8822 -0.270916 2.02597 0
M  V30 939 C 93.2462 -1.48826 1.21304 0
M  V30 940 O 94.4472 -2.16266 1.59633 0
M  V30 941 C 92.7182 -0.590328 3.52491 0
M  V30 942 S 94.2772 -1.17014 4.2291 0
M  V30 943 H 91.0952 -0.0815379 0.706309 0
M  V30 944 H 93.6972 0.464835 1.89893 0
M  V30 945 H 92.4012 0.303691 4.09275 0
M  V30 946 H 91.9322 -1.3561 3.69288 0
M  V30 947 H 93.9472 -2.45662 4.3112 0
M  V30 948 N 93.1203 -1.57491 0.0584922 0
M  V30 949 C 94.0703 -2.08474 -0.923188 0
M  V30 950 C 95.0543 -0.991479 -1.26722 0
M  V30 951 O 96.2463 -1.25473 -1.24842 0
M  V30 952 C 93.3753 -2.6392 -2.19548 0
M  V30 953 C 92.4613 -3.80227 -1.87852 0
M  V30 954 N 92.8523 -4.89714 -1.26546 0
M  V30 955 C 91.1503 -3.89271 -2.17679 0
M  V30 956 C 91.8513 -5.70689 -1.12644 0
M  V30 957 N 90.8273 -5.18531 -1.63176 0
M  V30 958 H 94.6293 -2.90517 -0.444653 0
M  V30 959 H 92.1433 -1.61745 -0.145764 0
M  V30 960 H 94.1403 -2.98752 -2.9078 0
M  V30 961 H 92.8003 -1.83318 -2.68001 0
M  V30 962 H 93.8113 -5.09358 -0.936757 0
M  V30 963 H 90.4883 -3.19623 -2.68602 0
M  V30 964 H 91.8783 -6.6875 -0.6499 0
M  V30 965 N 94.5984 0.214957 -1.56127 0
M  V30 966 C 95.5484 1.27006 -1.8935 0
M  V30 967 C 96.5324 1.41969 -0.757202 0
M  V30 968 O 97.7244 1.44673 -1.01973 0
M  V30 969 C 94.8534 2.61911 -2.2194 0
M  V30 970 C 93.9394 2.50822 -3.41978 0
M  V30 971 N 94.3304 2.09391 -4.60423 0
M  V30 972 C 92.6284 2.81765 -3.45723 0
M  V30 973 C 93.3294 2.09712 -5.42582 0
M  V30 974 N 92.3054 2.50454 -4.82466 0
M  V30 975 H 96.1074 0.940734 -2.78437 0
M  V30 976 H 93.6214 0.423492 -1.56781 0
M  V30 977 H 95.6184 3.38096 -2.43919 0
M  V30 978 H 94.2784 2.95684 -1.34169 0
M  V30 979 H 95.2894 1.80416 -4.85459 0
M  V30 980 H 91.9664 3.19865 -2.68314 0
M  V30 981 H 93.3564 1.79748 -6.4741 0
M  V30 982 N 96.0765 1.50051 0.48192 0
M  V30 983 C 97.3225 1.60736 1.2366 0
M  V30 984 C 97.6555 0.301786 1.91841 0
M  V30 985 O 96.9305 -0.696025 1.8162 0
M  V30 986 C 97.2135 2.78009 2.28874 0
M  V30 987 C 97.0665 4.18416 1.65069 0
M  V30 988 C 98.3855 2.90867 3.30279 0
M  V30 989 H 95.5045 0.585031 0.448228 0
M  V30 990 H 98.1465 1.82402 0.531946 0
M  V30 991 H 96.2965 2.59667 2.88973 0
M  V30 992 H 97.9685 4.48322 1.0865 0
M  V30 993 H 96.2115 4.23177 0.954148 0
M  V30 994 H 96.8825 4.96381 2.41474 0
M  V30 995 H 99.3585 3.07623 2.80191 0
M  V30 996 H 98.2345 3.74566 4.01238 0
M  V30 997 H 98.4955 2.01021 3.93755 0
M  V30 998 N 97.5546 -0.734337 1.39446 0
M  V30 999 C 98.8006 -1.49505 1.37913 0
M  V30 1000 C 99.1556 -1.92384 -0.0248416 0
M  V30 1001 O 98.4486 -1.6395 -0.991506 0
M  V30 1002 C 98.6426 -2.74711 2.28623 0
M  V30 1003 C 98.4716 -2.44075 3.777 0
M  V30 1004 C 97.2416 -2.36338 4.46623 0
M  V30 1005 C 99.4396 -2.09574 4.69663 0
M  V30 1006 N 97.4216 -1.9818 5.81032 0
M  V30 1007 C 98.7926 -1.81865 5.92727 0
M  V30 1008 C 100.848 -1.96048 4.57678 0
M  V30 1009 C 99.5506 -1.41992 7.05146 0
M  V30 1010 C 101.577 -1.57579 5.7002 0
M  V30 1011 C 100.939 -1.30754 6.92158 0
M  V30 1012 H 97.0376 -0.545896 0.55993 0
M  V30 1013 H 99.6216 -0.853373 1.75002 0
M  V30 1014 H 97.7926 -3.36657 1.93692 0
M  V30 1015 H 99.5246 -3.40916 2.18078 0
M  V30 1016 H 96.2796 -2.53456 4.00071 0
M  V30 1017 H 96.7036 -1.81691 6.52163 0
M  V30 1018 H 101.346 -2.15455 3.63784 0
M  V30 1019 H 99.0636 -1.21327 7.9894 0
M  V30 1020 H 102.65 -1.47718 5.62735 0
M  V30 1021 H 101.53 -1.01432 7.77612 0
M  V30 1022 N 99.0327 -1.24633 -0.964593 0
M  V30 1023 C 100.279 -1.08949 -1.71049 0
M  V30 1024 C 100.612 0.370302 -1.90637 0
M  V30 1025 O 99.8867 1.27349 -1.47011 0
M  V30 1026 C 100.17 -1.83329 -3.0994 0
M  V30 1027 C 100.023 -3.37077 -2.97824 0
M  V30 1028 C 101.342 -1.60846 -4.09654 0
M  V30 1029 H 98.4607 -0.397178 -0.620821 0
M  V30 1030 H 101.103 -1.5334 -1.12191 0
M  V30 1031 H 99.2527 -1.45597 -3.60186 0
M  V30 1032 H 100.925 -3.84425 -2.5498 0
M  V30 1033 H 99.1677 -3.65298 -2.33965 0
M  V30 1034 H 99.8387 -3.84324 -3.96231 0
M  V30 1035 H 102.315 -1.93674 -3.68279 0
M  V30 1036 H 101.191 -2.1534 -5.04896 0
M  V30 1037 H 101.452 -0.547434 -4.38698 0
M  V30 1038 N 100.511 1.16574 -1.06058 0
M  V30 1039 C 101.459 2.22941 -0.663343 0
M  V30 1040 C 102.453 1.66358 0.319593 0
M  V30 1041 O 103.659 1.7905 0.184713 0
M  V30 1042 H 100.034 0.725907 -0.196376 0
M  V30 1043 H 102.005 2.53736 -1.57037 0
M  V30 1044 C 100.754 3.47642 -0.0632808 0
M  V30 1045 H 100.077 3.91493 -0.810733 0
M  V30 1046 H 101.517 4.2363 0.177177 0
M  V30 1047 C 99.9758 3.1509 1.19248 0
M  V30 1048 O 100.506 3.30673 2.28075 0
M  V30 1049 N 98.7118 2.6924 1.09353 0
M  V30 1050 H 98.2588 2.5676 0.207912 0
M  V30 1051 H 98.2168 2.47833 1.93458 0
M  V30 1052 N 101.989 0.842826 1.3317 0
M  V30 1053 C 103.237 0.439577 1.97262 0
M  V30 1054 C 103.558 -1.00548 1.67078 0
M  V30 1055 O 102.828 -1.70098 0.971779 0
M  V30 1056 H 101.408 0.159558 0.72976 0
M  V30 1057 H 104.07 1.07665 1.62463 0
M  V30 1058 H 103.166 0.574886 3.0676 0
M  V30 1059 N 103.467 -1.45747 0.599634 0
M  V30 1060 C 104.713 -2.02592 0.0918643 0
M  V30 1061 C 105.046 -1.46806 -1.27128 0
M  V30 1062 O 104.321 -0.639658 -1.83681 0
M  V30 1063 C 104.604 -3.60073 0.0443398 0
M  V30 1064 C 104.457 -4.26208 1.43759 0
M  V30 1065 C 105.776 -4.35309 -0.647608 0
M  V30 1066 H 102.895 -0.736175 0.034857 0
M  V30 1067 H 105.537 -1.73694 0.770081 0
M  V30 1068 H 103.687 -3.84823 -0.533224 0
M  V30 1069 H 105.359 -4.12668 2.06162 0
M  V30 1070 H 103.602 -3.84916 2.00056 0
M  V30 1071 H 104.273 -5.35069 1.35665 0
M  V30 1072 H 106.749 -4.15805 -0.156776 0
M  V30 1073 H 105.625 -5.45038 -0.649942 0
M  V30 1074 H 105.886 -4.07598 -1.71219 0
M  V30 1075 N 104.945 -0.338344 -1.53925 0
M  V30 1076 C 105.875 0.51328 -2.27789 0
M  V30 1077 C 106.856 1.107 -1.29149 0
M  V30 1078 O 108.041 1.12937 -1.57984 0
M  V30 1079 C 105.171 1.66697 -3.04679 0
M  V30 1080 C 104.125 1.20183 -4.1078 0
M  V30 1081 C 103.451 2.44363 -4.75595 0
M  V30 1082 C 104.751 0.30605 -5.21403 0
M  V30 1083 H 106.445 -0.102883 -2.99223 0
M  V30 1084 H 103.991 -0.0509219 -1.4391 0
M  V30 1085 H 105.944 2.26915 -3.55088 0
M  V30 1086 H 104.668 2.30995 -2.30887 0
M  V30 1087 H 103.327 0.622499 -3.61276 0
M  V30 1088 H 102.975 3.07057 -3.98403 0
M  V30 1089 H 102.675 2.13925 -5.47275 0
M  V30 1090 H 104.199 3.05317 -5.28786 0
M  V30 1091 H 105.613 0.814929 -5.67478 0
M  V30 1092 H 104.01 0.0937929 -6.00027 0
M  V30 1093 H 105.08 -0.65921 -4.80398 0
M  V30 1094 N 106.423 1.57458 -0.0668435 0
M  V30 1095 C 107.386 2.11323 0.887422 0
M  V30 1096 C 108.386 1.03618 1.22964 0
M  V30 1097 O 109.576 1.29626 1.16373 0
M  V30 1098 C 106.708 2.61048 2.19242 0
M  V30 1099 H 107.901 2.96942 0.420194 0
M  V30 1100 H 105.454 1.55239 0.181793 0
M  V30 1101 H 106.189 1.78868 2.70512 0
M  V30 1102 H 105.974 3.39769 1.95702 0
M  V30 1103 H 107.464 3.02814 2.87565 0
M  V30 1104 N 107.901 -0.206675 1.56239 0
M  V30 1105 C 108.811 -1.27686 1.96808 0
M  V30 1106 C 109.827 -1.50455 0.874035 0
M  V30 1107 O 111.003 -1.63295 1.17884 0
M  V30 1108 C 108.068 -2.60358 2.28942 0
M  V30 1109 C 107.129 -2.45762 3.51994 0
M  V30 1110 C 106.362 -3.72108 3.82585 0
M  V30 1111 O 106.585 -4.75776 3.14631 0
M  V30 1112 O 105.519 -3.6833 4.76043 0
M  V30 1113 H 109.345 -0.962593 2.88041 0
M  V30 1114 H 106.93 -0.410746 1.43643 0
M  V30 1115 H 108.812 -3.38687 2.50737 0
M  V30 1116 H 107.487 -2.91435 1.4088 0
M  V30 1117 H 106.394 -1.65584 3.35459 0
M  V30 1118 H 107.727 -2.19621 4.40486 0
M  V30 1119 N 109.379 -1.50304 -0.473955 0
M  V30 1120 C 110.656 -1.51667 -1.23518 0
M  V30 1121 C 111.036 -0.259701 -2.09496 0
M  V30 1122 O 110.384 0.756986 -2.15597 0
M  V30 1123 C 110.594 -2.81082 -2.06868 0
M  V30 1124 C 111.942 -3.31631 -2.65153 0
M  V30 1125 O 112.966 -2.82384 -2.17113 0
M  V30 1126 O 111.825 -4.17471 -3.52675 0
M  V30 1127 H 108.919 -0.60822 -0.560355 0
M  V30 1128 H 111.465 -1.62592 -0.486011 0
M  V30 1129 H 110.237 -3.64041 -1.4349 0
M  V30 1130 H 109.86 -2.73146 -2.88924 0
M  V30 1131 N 110.857 0.726932 -1.39834 0
M  V30 1132 C 111.767 1.87131 -1.41489 0
M  V30 1133 C 112.783 1.71239 -0.308757 0
M  V30 1134 O 113.959 1.93701 -0.551529 0
M  V30 1135 C 111.024 3.22811 -1.26468 0
M  V30 1136 C 110.085 3.51039 -2.47124 0
M  V30 1137 C 109.318 4.80245 -2.3281 0
M  V30 1138 O 109.541 5.54537 -1.33585 0
M  V30 1139 O 108.475 5.08554 -3.21957 0
M  V30 1140 H 112.301 1.8869 -2.3797 0
M  V30 1141 H 109.886 0.875837 -1.21035 0
M  V30 1142 H 111.768 4.03877 -1.20255 0
M  V30 1143 H 110.443 3.22005 -0.330862 0
M  V30 1144 H 109.35 2.70027 -2.58914 0
M  V30 1145 H 110.683 3.56632 -3.39227 0
M  V30 1146 N 112.336 1.25143 0.95797 0
M  V30 1147 C 113.613 1.00472 1.67823 0
M  V30 1148 C 113.993 -0.470056 2.058 0
M  V30 1149 O 113.341 -1.44663 1.76875 0
M  V30 1150 C 113.551 1.9372 2.90299 0
M  V30 1151 C 114.899 2.21371 3.62326 0
M  V30 1152 O 115.923 1.91451 3.00375 0
M  V30 1153 O 114.782 2.72231 4.7387 0
M  V30 1154 H 111.876 0.380752 0.734137 0
M  V30 1155 H 114.422 1.36283 1.01119 0
M  V30 1156 H 113.194 2.93316 2.59001 0
M  V30 1157 H 112.817 1.58286 3.64735 0
M  V30 1158 N 113.814 -1.1601 1.06675 0
M  V30 1159 C 115.039 -1.91068 0.806706 0
M  V30 1160 C 115.464 -1.77112 -0.633485 0
M  V30 1161 O 114.822 -1.09908 -1.44187 0
M  V30 1162 C 114.87 -3.39655 1.21106 0
M  V30 1163 O 113.974 -4.10893 0.352189 0
M  V30 1164 H 113.315 -0.595125 0.294486 0
M  V30 1165 H 115.845 -1.46955 1.42356 0
M  V30 1166 H 115.855 -3.90434 1.18428 0
M  V30 1167 H 114.53 -3.49132 2.26008 0
M  V30 1168 H 113.107 -3.70285 0.440868 0
M  V30 1169 N 115.292 -0.849877 -1.32721 0
M  V30 1170 C 116.538 -0.451591 -1.97708 0
M  V30 1171 C 116.871 0.989175 -1.6712 0
M  V30 1172 O 116.146 1.69334 -0.956891 0
M  V30 1173 C 116.429 -0.685598 -3.53513 0
M  V30 1174 C 116.282 -2.17444 -3.93749 0
M  V30 1175 C 117.601 -0.138874 -4.39881 0
M  V30 1176 H 114.72 -0.16555 -0.718166 0
M  V30 1177 H 117.362 -1.06742 -1.57182 0
M  V30 1178 H 115.512 -0.161416 -3.88165 0
M  V30 1179 H 117.184 -2.76433 -3.693 0
M  V30 1180 H 115.427 -2.65476 -3.43081 0
M  V30 1181 H 116.098 -2.28888 -5.02309 0
M  V30 1182 H 118.574 -0.587068 -4.11938 0
M  V30 1183 H 117.45 -0.332213 -5.47894 0
M  V30 1184 H 117.711 0.95806 -4.31594 0
M  V30 1185 N 116.77 1.45427 -0.607355 0
M  V30 1186 C 118.018 2.01841 -0.102253 0
M  V30 1187 C 118.339 1.47832 1.27164 0
M  V30 1188 O 117.609 0.672497 1.83995 0
M  V30 1189 H 116.189 0.746188 -0.0348101 0
M  V30 1190 H 118.851 1.78229 -0.7887 0
M  V30 1191 H 117.947 3.12057 -0.0518585 0
M  V30 1192 N 118.248 0.346503 1.53744 0
M  V30 1193 C 119.476 -0.25041 2.05379 0
M  V30 1194 C 119.891 -1.43979 1.22129 0
M  V30 1195 O 119.248 -1.80677 0.257321 0
M  V30 1196 C 119.299 -0.662575 3.55376 0
M  V30 1197 O 119.02 0.479515 4.35468 0
M  V30 1198 C 120.521 -1.31989 4.23195 0
M  V30 1199 H 117.741 -0.0478198 0.669294 0
M  V30 1200 H 120.285 0.499346 1.9831 0
M  V30 1201 H 118.44 -1.36227 3.62658 0
M  V30 1202 H 118.854 0.15037 5.24284 0
M  V30 1203 H 120.328 -1.55902 5.29527 0
M  V30 1204 H 120.805 -2.27436 3.75725 0
M  V30 1205 H 121.411 -0.662154 4.20114 0
M  V30 1206 N 119.726 -1.57421 0.075193 0
M  V30 1207 C 121.137 -1.81021 -0.456964 0
M  V30 1208 C 121.488 -0.98936 -1.69429 0
M  V30 1209 O 120.613 -0.212865 -2.15351 0
M  V30 1210 C 121.208 -3.28329 -0.83581 0
M  V30 1211 C 119.767 -3.52764 -1.31281 0
M  V30 1212 C 118.914 -2.75676 -0.299648 0
M  V30 1213 H 121.865 -1.55822 0.300856 0
M  V30 1214 H 121.886 -3.40564 -1.69696 0
M  V30 1215 H 121.398 -3.88046 0.0649238 0
M  V30 1216 H 119.499 -2.98355 -2.23193 0
M  V30 1217 H 119.612 -4.61451 -1.28839 0
M  V30 1218 H 117.976 -2.42538 -0.777641 0
M  V30 1219 H 118.759 -3.38132 0.593417 0
M  V30 1220 N 121.204 0.198386 -1.56346 0
M  V30 1221 C 122.444 0.92609 -1.82217 0
M  V30 1222 C 122.808 1.80584 -0.652195 0
M  V30 1223 O 124.009 2.56907 -0.790716 0
M  V30 1224 C 122.28 1.72354 -3.13096 0
M  V30 1225 S 123.839 2.50371 -3.6036 0
M  V30 1226 H 120.657 0.310677 -0.639532 0
M  V30 1227 H 123.259 0.189755 -1.94577 0
M  V30 1228 H 121.963 1.0678 -3.96265 0
M  V30 1229 H 121.494 2.50175 -3.03605 0
M  V30 1230 H 123.509 3.74488 -3.25535 0
M  V30 1231 N 122.682 1.50554 0.465978 0
M  V30 1232 C 123.907 1.65838 1.24549 0
M  V30 1233 C 124.332 0.343486 1.84937 0
M  V30 1234 O 123.69 -0.69324 1.67523 0
M  V30 1235 C 123.738 2.75533 2.32624 0
M  V30 1236 O 122.842 2.37142 3.37398 0
M  V30 1237 H 122.183 0.553893 0.366194 0
M  V30 1238 H 124.713 1.96959 0.553927 0
M  V30 1239 H 124.723 2.98763 2.77857 0
M  V30 1240 H 123.398 3.70962 1.88043 0
M  V30 1241 H 121.975 2.24377 2.97841 0
M  V30 1242 N 124.16 -0.719506 1.40217 0
M  V30 1243 C 125.437 -1.47221 1.28784 0
M  V30 1244 C 125.817 -2.10883 -0.0956067 0
M  V30 1245 O 125.165 -1.99833 -1.10811 0
M  V30 1246 C 125.375 -2.5111 2.42373 0
M  V30 1247 C 126.723 -3.17053 2.82423 0
M  V30 1248 O 127.747 -2.61429 2.41937 0
M  V30 1249 O 126.606 -4.17742 3.52355 0
M  V30 1250 H 123.7 -0.654491 0.50554 0
M  V30 1251 H 126.246 -0.752014 1.52128 0
M  V30 1252 H 125.018 -2.02556 3.34793 0
M  V30 1253 H 124.641 -3.3067 2.20778 0
M  V30 1254 N 125.638 -1.25649 -0.95132 0
M  V30 1255 C 126.878 -1.11802 -1.71113 0
M  V30 1256 C 127.242 0.334758 -1.89059 0
M  V30 1257 O 128.443 0.595121 -2.62129 0
M  V30 1258 C 126.714 -1.85512 -3.05483 0
M  V30 1259 S 128.273 -1.87597 -3.96677 0
M  V30 1260 H 125.091 -0.399552 -0.588115 0
M  V30 1261 H 127.693 -1.59222 -1.1344 0
M  V30 1262 H 126.397 -2.90299 -2.90094 0
M  V30 1263 H 125.928 -1.38493 -3.68216 0
M  V30 1264 H 127.943 -0.955389 -4.86916 0
M  V30 1265 N 127.117 1.15442 -1.07289 0
M  V30 1266 C 128.067 2.18164 -0.662467 0
M  V30 1267 C 129.051 1.57845 0.312074 0
M  V30 1268 O 130.243 1.76552 0.125905 0
M  V30 1269 C 127.372 3.43246 -0.0611295 0
M  V30 1270 C 126.458 4.1062 -1.06077 0
M  V30 1271 N 126.849 4.53491 -2.24008 0
M  V30 1272 C 125.147 4.36949 -0.893964 0
M  V30 1273 C 125.848 5.05731 -2.87422 0
M  V30 1274 N 124.824 4.99236 -2.15091 0
M  V30 1275 H 128.626 2.49038 -1.56068 0
M  V30 1276 H 126.14 1.32003 -0.945988 0
M  V30 1277 H 128.137 4.16145 0.250792 0
M  V30 1278 H 126.797 3.13854 0.832207 0
M  V30 1279 H 127.808 4.46898 -2.6173 0
M  V30 1280 H 124.485 4.17466 -0.0534693 0
M  V30 1281 H 125.875 5.48865 -3.87553 0
M  V30 1282 N 128.595 0.856903 1.32268 0
M  V30 1283 C 129.558 0.308171 2.27119 0
M  V30 1284 C 130.558 -0.533421 1.51695 0
M  V30 1285 O 131.748 -0.344607 1.70757 0
M  V30 1286 C 128.88 -0.563757 3.36206 0
M  V30 1287 H 130.073 1.14535 2.77167 0
M  V30 1288 H 127.626 0.631421 1.42978 0
M  V30 1289 H 128.361 -1.42266 2.91429 0
M  V30 1290 H 128.146 0.0386749 3.92081 0
M  V30 1291 H 129.636 -0.940386 4.06874 0
M  V30 1292 N 130.073 -1.45103 0.615059 0
M  V30 1293 C 131.003 -2.33339 -0.0865619 0
M  V30 1294 C 131.984 -1.4727 -0.851209 0
M  V30 1295 O 133.169 -1.76026 -0.820281 0
M  V30 1296 C 130.299 -3.30095 -1.07956 0
M  V30 1297 C 129.253 -4.25858 -0.427628 0
M  V30 1298 C 128.579 -5.12361 -1.5294 0
M  V30 1299 C 129.879 -5.18165 0.655944 0
M  V30 1300 H 131.573 -2.92254 0.650224 0
M  V30 1301 H 129.119 -1.40532 0.314138 0
M  V30 1302 H 131.072 -3.90698 -1.57901 0
M  V30 1303 H 129.796 -2.69355 -1.84703 0
M  V30 1304 H 128.455 -3.66564 0.0510292 0
M  V30 1305 H 128.103 -4.47984 -2.28734 0
M  V30 1306 H 127.803 -5.77238 -1.09865 0
M  V30 1307 H 129.327 -5.75833 -2.03098 0
M  V30 1308 H 130.741 -5.72796 0.240257 0
M  V30 1309 H 129.138 -5.91559 1.00888 0
M  V30 1310 H 130.208 -4.60144 1.52957 0
M  V30 1311 N 131.551 -0.354651 -1.53558 0
M  V30 1312 C 132.461 0.50515 -2.29097 0
M  V30 1313 C 133.477 1.10223 -1.34636 0
M  V30 1314 O 134.653 1.11553 -1.67684 0
M  V30 1315 C 131.718 1.63479 -3.05738 0
M  V30 1316 C 130.779 1.06636 -4.15845 0
M  V30 1317 C 130.012 2.14217 -4.88822 0
M  V30 1318 O 130.235 3.35137 -4.61562 0
M  V30 1319 O 129.169 1.77887 -5.75013 0
M  V30 1320 H 132.995 -0.109237 -3.03503 0
M  V30 1321 H 130.58 -0.119357 -1.48922 0
M  V30 1322 H 132.462 2.2918 -3.5363 0
M  V30 1323 H 131.137 2.23478 -2.34178 0
M  V30 1324 H 130.044 0.373565 -3.7223 0
M  V30 1325 H 131.377 0.511081 -4.89539 0
M  V30 1326 N 133.029 1.57378 -0.0835403 0
M  V30 1327 C 133.961 2.10389 0.909338 0
M  V30 1328 C 134.974 1.03858 1.25369 0
M  V30 1329 O 136.163 1.31338 1.20882 0
M  V30 1330 C 133.263 2.55908 2.2218 0
M  V30 1331 C 132.436 3.86145 2.05453 0
M  V30 1332 C 131.495 4.17633 3.20108 0
M  V30 1333 O 130.521 4.87043 2.94581 0
M  V30 1334 N 131.723 3.72113 4.45547 0
M  V30 1335 H 134.488 2.962 0.456657 0
M  V30 1336 H 132.049 1.61579 0.101877 0
M  V30 1337 H 134.041 2.74027 2.97811 0
M  V30 1338 H 132.611 1.75171 2.58909 0
M  V30 1339 H 131.831 3.7729 1.1422 0
M  V30 1340 H 133.119 4.7137 1.91541 0
M  V30 1341 H 132.517 3.16062 4.69171 0
M  V30 1342 H 131.074 3.95409 5.18165 0
M  V30 1343 N 134.507 -0.190092 1.56449 0
M  V30 1344 C 135.784 -0.935886 1.71757 0
M  V30 1345 C 136.164 -2.01173 0.639726 0
M  V30 1346 O 135.512 -2.25827 -0.348502 0
M  V30 1347 C 135.722 -1.51775 3.1427 0
M  V30 1348 C 137.07 -1.99794 3.74656 0
M  V30 1349 O 138.094 -1.61607 3.1743 0
M  V30 1350 O 136.953 -2.70079 4.751 0
M  V30 1351 H 134.047 -0.439229 0.700719 0
M  V30 1352 H 136.593 -0.179395 1.68749 0
M  V30 1353 H 135.365 -0.742505 3.84191 0
M  V30 1354 H 134.988 -2.33894 3.21527 0
M  V30 1355 N 135.985 -1.50799 -0.457987 0
M  V30 1356 C 137.233 -1.62121 -1.2067 0
M  V30 1357 C 137.554 -0.329793 -1.92191 0
M  V30 1358 O 136.824 0.653409 -1.84682 0
M  V30 1359 H 135.404 -0.597441 -0.448411 0
M  V30 1360 H 138.066 -1.87637 -0.527096 0
M  V30 1361 H 137.162 -2.43882 -1.94751 0
M  V30 1362 N 137.463 0.71206 -1.40597 0
M  V30 1363 C 138.74 1.46536 -1.29563 0
M  V30 1364 C 139.12 2.10931 0.0844217 0
M  V30 1365 O 138.468 2.00418 1.0975 0
M  V30 1366 C 138.678 2.49821 -2.43701 0
M  V30 1367 C 140.026 3.15551 -2.841 0
M  V30 1368 O 141.05 2.60142 -2.4332 0
M  V30 1369 O 139.909 4.15867 -3.54566 0
M  V30 1370 H 137.003 0.651801 -0.509004 0
M  V30 1371 H 139.549 0.743935 -1.52524 0
M  V30 1372 H 138.321 2.00778 -3.35863 0
M  V30 1373 H 137.944 3.29495 -2.22528 0
M  V30 1374 N 138.941 1.26152 0.944643 0
M  V30 1375 C 140.169 1.14259 1.72489 0
M  V30 1376 C 140.584 -0.302555 1.8636 0
M  V30 1377 O 139.941 -1.20741 1.36849 0
M  V30 1378 C 139.992 1.80266 3.13347 0
M  V30 1379 O 139.713 3.19133 3.00143 0
M  V30 1380 C 141.214 1.74283 4.07603 0
M  V30 1381 H 138.434 0.398051 0.540181 0
M  V30 1382 H 140.978 1.66706 1.18446 0
M  V30 1383 H 139.133 1.31766 3.64303 0
M  V30 1384 H 139.547 3.51744 3.89071 0
M  V30 1385 H 141.021 2.25111 5.04013 0
M  V30 1386 H 141.498 0.708631 4.33446 0
M  V30 1387 H 142.104 2.22319 3.62567 0
M  V30 1388 N 140.419 -1.14872 1.07899 0
M  V30 1389 C 141.83 -1.67367 0.827363 0
M  V30 1390 C 142.181 -1.85236 -0.646693 0
M  V30 1391 O 141.306 -1.55974 -1.50004 0
M  V30 1392 C 141.901 -3.04016 1.49532 0
M  V30 1393 C 140.46 -3.53566 1.29106 0
M  V30 1394 C 139.607 -2.29161 1.56143 0
M  V30 1395 H 142.558 -0.990083 1.24028 0
M  V30 1396 H 142.579 -3.69219 0.919643 0
M  V30 1397 H 142.091 -2.90978 2.56814 0
M  V30 1398 H 140.192 -3.71835 0.238713 0
M  V30 1399 H 140.305 -4.34661 2.01511 0
M  V30 1400 H 138.669 -2.34978 0.982717 0
M  V30 1401 H 139.452 -2.18705 2.64619 0
M  V30 1402 N 141.898 -0.863906 -1.31812 0
M  V30 1403 C 143.146 -0.470904 -1.96537 0
M  V30 1404 C 143.467 0.978771 -1.68657 0
M  V30 1405 O 142.737 1.6853 -0.998717 0
M  V30 1406 H 141.317 -0.171148 -0.72713 0
M  V30 1407 H 143.979 -1.10236 -1.60729 0
M  V30 1408 H 143.075 -0.623616 -3.05806 0
M  V30 1409 N 143.376 1.44774 -0.622745 0
M  V30 1410 C 144.306 2.33382 0.0741861 0
M  V30 1411 C 145.287 1.47719 0.843387 0
M  V30 1412 O 146.472 1.76458 0.810934 0
M  V30 1413 C 143.602 3.30663 1.06204 0
M  V30 1414 C 142.556 4.26079 0.405037 0
M  V30 1415 C 141.882 5.13165 1.5022 0
M  V30 1416 C 143.182 5.1781 -0.683414 0
M  V30 1417 H 144.876 2.91905 -0.665713 0
M  V30 1418 H 142.422 1.40363 -0.321587 0
M  V30 1419 H 144.375 3.9153 1.55827 0
M  V30 1420 H 143.099 2.70331 1.83272 0
M  V30 1421 H 141.758 3.66532 -0.0704683 0
M  V30 1422 H 141.406 4.49191 2.26355 0
M  V30 1423 H 141.106 5.77812 1.06803 0
M  V30 1424 H 142.63 5.76902 2.00041 0
M  V30 1425 H 144.044 5.72661 -0.270631 0
M  V30 1426 H 142.441 5.91015 -1.04023 0
M  V30 1427 H 143.511 4.59326 -1.55395 0
M  V30 1428 N 144.854 0.36279 1.53368 0
M  V30 1429 C 145.786 -0.519668 2.23231 0
M  V30 1430 C 146.799 -1.04844 1.24546 0
M  V30 1431 O 147.988 -0.955296 1.50786 0
M  V30 1432 C 145.088 -1.72995 2.9142 0
M  V30 1433 C 144.261 -1.33316 4.16588 0
M  V30 1434 C 143.32 -2.40521 4.68013 0
M  V30 1435 O 142.346 -2.03027 5.3176 0
M  V30 1436 N 143.548 -3.72065 4.45587 0
M  V30 1437 H 146.313 0.078751 2.99597 0
M  V30 1438 H 143.874 0.187833 1.60807 0
M  V30 1439 H 145.866 -2.44184 3.22733 0
M  V30 1440 H 144.436 -2.2353 2.18525 0
M  V30 1441 H 143.656 -0.451236 3.91609 0
M  V30 1442 H 144.944 -1.04432 4.97967 0
M  V30 1443 H 144.342 -4.05304 3.94646 0
M  V30 1444 H 142.899 -4.39366 4.81457 0
M  V30 1445 N 146.332 -1.57332 0.0918853 0
M  V30 1446 C 147.609 -1.85691 -0.614668 0
M  V30 1447 C 147.989 -0.988146 -1.86545 0
M  V30 1448 O 147.337 -0.0597055 -2.28422 0
M  V30 1449 C 147.547 -3.36294 -0.933126 0
M  V30 1450 C 148.895 -4.04275 -1.29796 0
M  V30 1451 O 149.919 -3.41157 -1.02424 0
M  V30 1452 O 148.778 -5.1564 -1.81047 0
M  V30 1453 H 145.872 -0.767802 -0.307261 0
M  V30 1454 H 148.418 -1.69244 0.12434 0
M  V30 1455 H 147.19 -3.91273 -0.0456404 0
M  V30 1456 H 146.813 -3.58076 -1.72822 0
M  V30 1457 N 147.81 0.181792 -1.56548 0
M  V30 1458 C 148.773 1.20894 -1.94724 0
M  V30 1459 C 149.773 1.37738 -0.829747 0
M  V30 1460 O 150.963 1.35323 -1.09697 0
M  V30 1461 C 148.095 2.57593 -2.23291 0
M  V30 1462 H 149.288 0.882275 -2.86629 0
M  V30 1463 H 146.841 0.423838 -1.50444 0
M  V30 1464 H 147.576 2.95291 -1.34067 0
M  V30 1465 H 147.361 2.46735 -3.04736 0
M  V30 1466 H 148.851 3.31637 -2.53785 0
M  V30 1467 N 149.288 1.51039 0.449983 0
M  V30 1468 C 150.518 1.66627 1.22143 0
M  V30 1469 C 150.926 0.357776 1.85786 0
M  V30 1470 O 150.269 -0.672424 1.70951 0
M  V30 1471 C 150.331 2.71562 2.35573 0
M  V30 1472 C 149.995 4.14526 1.92399 0
M  V30 1473 C 150.992 4.99717 1.43453 0
M  V30 1474 C 148.677 4.60559 2.00475 0
M  V30 1475 C 150.671 6.28998 1.03155 0
M  V30 1476 C 148.358 5.8984 1.59788 0
M  V30 1477 C 149.356 6.73886 1.11208 0
M  V30 1478 O 149.044 8.0075 0.710935 0
M  V30 1479 H 148.776 0.562635 0.374724 0
M  V30 1480 H 151.33 1.98146 0.541036 0
M  V30 1481 H 149.56 2.3533 3.06849 0
M  V30 1482 H 151.249 2.76156 2.97478 0
M  V30 1483 H 152.015 4.65361 1.36618 0
M  V30 1484 H 147.894 3.95273 2.37235 0
M  V30 1485 H 151.438 6.9455 0.651663 0
M  V30 1486 H 147.335 6.23713 1.66289 0
M  V30 1487 H 148.103 8.142 0.837913 0
M  V30 1488 N 150.766 -0.704594 1.40972 0
M  V30 1489 C 151.716 -1.81051 1.38581 0
M  V30 1490 C 152.7 -1.58759 0.261585 0
M  V30 1491 O 153.892 -1.69745 0.501556 0
M  V30 1492 C 151.021 -3.19279 1.26157 0
M  V30 1493 C 150.107 -3.47296 2.43405 0
M  V30 1494 N 150.498 -3.46064 3.68881 0
M  V30 1495 C 148.796 -3.77804 2.37023 0
M  V30 1496 C 149.497 -3.72733 4.46592 0
M  V30 1497 N 148.473 -3.9203 3.76581 0
M  V30 1498 H 152.275 -1.78448 2.33525 0
M  V30 1499 H 149.789 -0.904198 1.349 0
M  V30 1500 H 151.786 -3.98488 1.22526 0
M  V30 1501 H 150.446 -3.231 0.321902 0
M  V30 1502 H 151.457 -3.26656 4.01891 0
M  V30 1503 H 148.134 -3.8905 1.51481 0
M  V30 1504 H 149.524 -3.77993 5.55492 0
M  V30 1505 N 152.244 -1.26651 -0.937939 0
M  V30 1506 C 153.176 -1.04283 -2.04102 0
M  V30 1507 C 154.189 -0.00221014 -1.628 0
M  V30 1508 O 155.378 -0.242645 -1.76843 0
M  V30 1509 C 152.478 -0.557846 -3.34277 0
M  V30 1510 C 151.651 -1.66843 -4.04329 0
M  V30 1511 C 150.71 -1.18095 -5.12777 0
M  V30 1512 O 149.736 -1.87865 -5.37304 0
M  V30 1513 N 150.938 -0.0311006 -5.80492 0
M  V30 1514 H 153.703 -1.9927 -2.23856 0
M  V30 1515 H 151.264 -1.1808 -1.10764 0
M  V30 1516 H 153.256 -0.215836 -4.04124 0
M  V30 1517 H 151.826 0.298523 -3.11171 0
M  V30 1518 H 151.046 -2.18123 -3.28353 0
M  V30 1519 H 152.334 -2.41408 -4.47883 0
M  V30 1520 H 151.732 0.551486 -5.63005 0
M  V30 1521 H 150.289 0.251809 -6.51313 0
M  V30 1522 N 153.722 1.14298 -1.08507 0
M  V30 1523 C 154.654 2.1907 -0.673859 0
M  V30 1524 C 155.667 1.60381 0.279577 0
M  V30 1525 O 156.856 1.78374 0.0670754 0
M  V30 1526 C 153.956 3.38888 0.0290979 0
M  V30 1527 C 153.129 4.27103 -0.943494 0
M  V30 1528 C 152.188 5.25477 -0.275676 0
M  V30 1529 O 151.214 5.61709 -0.920401 0
M  V30 1530 N 152.416 5.7227 0.974013 0
M  V30 1531 H 155.181 2.54965 -1.57521 0
M  V30 1532 H 152.742 1.29528 -0.971287 0
M  V30 1533 H 154.734 4.01761 0.48683 0
M  V30 1534 H 153.304 3.01309 0.832555 0
M  V30 1535 H 152.524 3.61149 -1.58004 0
M  V30 1536 H 153.812 4.82905 -1.60251 0
M  V30 1537 H 153.21 5.44965 1.51755 0
M  V30 1538 H 151.767 6.37127 1.37522 0
M  V30 1539 N 155.201 0.870884 1.31352 0
M  V30 1540 C 156.441 0.488783 1.9847 0
M  V30 1541 C 156.805 -0.941536 1.67329 0
M  V30 1542 O 158.006 -1.42903 2.27667 0
M  V30 1543 C 156.277 0.739688 3.49662 0
M  V30 1544 S 157.836 0.457582 4.36408 0
M  V30 1545 H 154.654 0.18242 0.6872 0
M  V30 1546 H 157.256 1.12711 1.59739 0
M  V30 1547 H 155.96 1.77944 3.69816 0
M  V30 1548 H 155.491 0.0883905 3.93301 0
M  V30 1549 H 157.506 -0.709752 4.91098 0
M  V30 1550 N 156.679 -1.44442 0.630414 0
M  V30 1551 C 157.925 -2.02894 0.143332 0
M  V30 1552 C 158.28 -1.48697 -1.22094 0
M  V30 1553 O 157.573 -0.661171 -1.79831 0
M  V30 1554 C 157.767 -3.57332 0.0697835 0
M  V30 1555 C 157.596 -4.26512 1.42539 0
M  V30 1556 C 156.366 -4.63516 2.01198 0
M  V30 1557 C 158.564 -4.57004 2.35907 0
M  V30 1558 N 156.546 -5.17661 3.30001 0
M  V30 1559 C 157.917 -5.12223 3.49324 0
M  V30 1560 C 159.972 -4.38955 2.34995 0
M  V30 1561 C 158.675 -5.51295 4.62024 0
M  V30 1562 C 160.701 -4.79075 3.46758 0
M  V30 1563 C 160.063 -5.34407 4.58899 0
M  V30 1564 H 156.162 -0.776041 0.0963523 0
M  V30 1565 H 158.746 -1.75945 0.833752 0
M  V30 1566 H 156.917 -3.83894 -0.589915 0
M  V30 1567 H 158.649 -4.02451 -0.42606 0
M  V30 1568 H 155.404 -4.47811 1.54151 0
M  V30 1569 H 155.828 -5.4921 3.95851 0
M  V30 1570 H 160.47 -3.95469 1.49545 0
M  V30 1571 H 158.188 -5.93736 5.48182 0
M  V30 1572 H 161.774 -4.66824 3.47227 0
M  V30 1573 H 160.654 -5.64878 5.4395 0
M  V30 1574 N 158.157 -0.370918 -1.53173 0
M  V30 1575 C 159.405 0.216673 -2.00935 0
M  V30 1576 C 159.726 1.48845 -1.25977 0
M  V30 1577 O 158.996 1.92286 -0.374551 0
M  V30 1578 H 157.576 0.0830565 -0.742368 0
M  V30 1579 H 160.238 -0.49838 -1.8842 0
M  V30 1580 H 159.334 0.439893 -3.08984 0
M  V30 1581 N 159.635 1.57281 -0.100228 0
M  V30 1582 C 160.875 1.96419 0.56558 0
M  V30 1583 C 161.239 0.981265 1.65031 0
M  V30 1584 O 162.44 1.26133 2.37369 0
M  V30 1585 C 160.711 3.39996 1.10171 0
M  V30 1586 S 162.27 4.01134 1.77867 0
M  V30 1587 H 159.088 0.68667 0.184406 0
M  V30 1588 H 161.69 1.94662 -0.180851 0
M  V30 1589 H 160.394 4.09296 0.300803 0
M  V30 1590 H 159.925 3.45361 1.88385 0
M  V30 1591 H 161.94 3.90358 3.06326 0
M  V30 1592 N 161.113 -0.173488 1.56642 0
M  V30 1593 C 162.063 -1.21941 1.92651 0
M  V30 1594 C 163.047 -1.39912 0.794577 0
M  V30 1595 O 164.239 -1.41919 1.05773 0
M  V30 1596 C 161.368 -2.55935 2.28806 0
M  V30 1597 C 160.454 -2.41667 3.48508 0
M  V30 1598 N 160.845 -1.9711 4.65813 0
M  V30 1599 C 159.143 -2.72499 3.53072 0
M  V30 1600 C 159.844 -1.95253 5.47952 0
M  V30 1601 N 158.82 -2.37575 4.88937 0
M  V30 1602 H 162.622 -0.866581 2.80834 0
M  V30 1603 H 160.136 -0.381776 1.57849 0
M  V30 1604 H 162.133 -3.31511 2.52797 0
M  V30 1605 H 160.793 -2.92022 1.41961 0
M  V30 1606 H 161.804 -1.67481 4.90072 0
M  V30 1607 H 158.481 -3.12639 2.767 0
M  V30 1608 H 159.871 -1.6252 6.51948 0
M  V30 1609 N 162.591 -1.51276 -0.441967 0
M  V30 1610 C 163.501 -1.75092 -1.56141 0
M  V30 1611 C 164.517 -0.634963 -1.62001 0
M  V30 1612 O 165.693 -0.916686 -1.79329 0
M  V30 1613 C 162.758 -1.86666 -2.92158 0
M  V30 1614 C 161.819 -3.10506 -2.96453 0
M  V30 1615 C 161.052 -3.21519 -4.25982 0
M  V30 1616 O 161.275 -2.38586 -5.18105 0
M  V30 1617 O 160.209 -4.14465 -4.36466 0
M  V30 1618 H 164.035 -2.70044 -1.38961 0
M  V30 1619 H 161.62 -1.35722 -0.624499 0
M  V30 1620 H 163.502 -1.96292 -3.72891 0
M  V30 1621 H 162.177 -0.949014 -3.09476 0
M  V30 1622 H 161.084 -3.06363 -2.14692 0
M  V30 1623 H 162.417 -4.01945 -2.84079 0
M  V30 1624 N 164.069 0.697108 -1.41344 0
M  V30 1625 C 165.016 1.81106 -1.43071 0
M  V30 1626 C 165.986 1.63632 -0.285275 0
M  V30 1627 O 167.171 1.84504 -0.486091 0
M  V30 1628 C 164.311 3.18975 -1.31715 0
M  V30 1629 C 163.424 3.47892 -2.56115 0
M  V30 1630 C 162.559 4.75367 -2.37064 0
M  V30 1631 C 161.598 4.97247 -3.56948 0
M  V30 1632 N 160.735 6.15947 -3.36977 0
M  V30 1633 H 165.575 1.78965 -2.38276 0
M  V30 1634 H 163.112 0.873975 -1.18322 0
M  V30 1635 H 165.07 3.98615 -1.23133 0
M  V30 1636 H 163.7 3.20297 -0.401183 0
M  V30 1637 H 162.752 2.62669 -2.75153 0
M  V30 1638 H 164.064 3.59962 -3.45295 0
M  V30 1639 H 163.218 5.63059 -2.25941 0
M  V30 1640 H 161.957 4.65541 -1.45338 0
M  V30 1641 H 160.962 4.08004 -3.68527 0
M  V30 1642 H 162.187 5.08934 -4.49626 0
M  V30 1643 H 160.133 6.07336 -2.47949 0
M  V30 1644 H 160.05 6.28777 -4.19732 0
M  V30 1645 H 161.318 7.06377 -3.29623 0
M  V30 1646 N 165.547 1.27147 0.931209 0
M  V30 1647 C 166.479 1.05364 2.03546 0
M  V30 1648 C 167.492 0.0108438 1.62796 0
M  V30 1649 O 168.681 0.25202 1.76712 0
M  V30 1650 C 165.781 0.575566 3.33977 0
M  V30 1651 C 164.954 1.68985 4.03439 0
M  V30 1652 C 164.013 1.20813 5.12143 0
M  V30 1653 O 163.039 1.90712 5.363 0
M  V30 1654 N 164.241 0.0618851 5.80467 0
M  V30 1655 H 167.006 2.00454 2.22796 0
M  V30 1656 H 164.567 1.18666 1.10136 0
M  V30 1657 H 166.559 0.237264 4.04004 0
M  V30 1658 H 165.129 -0.282016 3.11325 0
M  V30 1659 H 164.349 2.19861 3.27192 0
M  V30 1660 H 165.637 2.4378 4.46597 0
M  V30 1661 H 165.035 -0.521621 5.6329 0
M  V30 1662 H 163.592 -0.217264 6.51438 0
M  V30 1663 N 167.025 -1.13721 1.09112 0
M  V30 1664 C 167.988 -2.17222 0.731241 0
M  V30 1665 C 168.988 -1.59035 -0.237566 0
M  V30 1666 O 170.178 -1.74192 -0.0161704 0
M  V30 1667 C 167.31 -3.40804 0.0808443 0
M  V30 1668 H 168.503 -2.50573 1.64783 0
M  V30 1669 H 166.056 -1.28493 0.889897 0
M  V30 1670 H 166.791 -3.1304 -0.847127 0
M  V30 1671 H 166.576 -3.84306 0.777896 0
M  V30 1672 H 168.066 -4.1731 -0.155657 0
M  V30 1673 N 168.503 -0.877838 -1.30888 0
M  V30 1674 C 169.45 -0.337538 -2.28318 0
M  V30 1675 C 170.42 0.568346 -1.56074 0
M  V30 1676 O 171.605 0.498298 -1.84178 0
M  V30 1677 C 168.745 0.448142 -3.42178 0
M  V30 1678 C 167.858 -0.48615 -4.29256 0
M  V30 1679 C 166.993 0.314427 -5.30269 0
M  V30 1680 C 166.032 -0.615791 -6.08995 0
M  V30 1681 N 165.169 0.14902 -7.01942 0
M  V30 1682 H 170.009 -1.17356 -2.73919 0
M  V30 1683 H 167.546 -0.590094 -1.34745 0
M  V30 1684 H 169.504 0.919517 -4.06941 0
M  V30 1685 H 168.134 1.24879 -2.97666 0
M  V30 1686 H 167.186 -1.076 -3.64865 0
M  V30 1687 H 168.498 -1.19909 -4.84173 0
M  V30 1688 H 167.652 0.847969 -6.00745 0
M  V30 1689 H 166.391 1.06062 -4.76027 0
M  V30 1690 H 165.396 -1.16102 -5.37401 0
M  V30 1691 H 166.621 -1.36097 -6.65323 0
M  V30 1692 H 164.567 0.877884 -6.50099 0
M  V30 1693 H 164.484 -0.504433 -7.54315 0
M  V30 1694 H 165.752 0.663537 -7.76671 0
M  V30 1695 N 169.982 1.44106 -0.638065 0
M  V30 1696 C 171.23 2.01579 -0.145043 0
M  V30 1697 C 171.551 1.50496 1.24 0
M  V30 1698 O 170.821 0.711374 1.82527 0
M  V30 1699 H 169.401 0.745282 -0.05063 0
M  V30 1700 H 172.063 1.76516 -0.826327 0
M  V30 1701 H 171.159 3.11877 -0.118039 0
M  V30 1702 N 171.46 0.379036 1.52974 0
M  V30 1703 C 172.871 -0.0972525 1.86447 0
M  V30 1704 C 173.222 -1.47027 1.29914 0
M  V30 1705 O 172.347 -2.07135 0.626433 0
M  V30 1706 C 172.942 -0.183248 3.38304 0
M  V30 1707 C 171.501 -0.603812 3.71525 0
M  V30 1708 C 170.648 0.240632 2.76254 0
M  V30 1709 H 173.599 0.597316 1.4703 0
M  V30 1710 H 173.62 -1.00432 3.67006 0
M  V30 1711 H 173.132 0.816191 3.79421 0
M  V30 1712 H 171.233 -1.61099 3.35973 0
M  V30 1713 H 171.346 -0.369086 4.77676 0
M  V30 1714 H 169.71 -0.292548 2.53014 0
M  V30 1715 H 170.493 1.23786 3.20206 0
M  V30 1716 N 172.938 -1.57226 0.108567 0
M  V30 1717 C 174.184 -1.95121 -0.552761 0
M  V30 1718 C 174.517 -0.991345 -1.66991 0
M  V30 1719 O 173.792 -0.0267211 -1.94482 0
M  V30 1720 C 174.075 -3.43039 -1.09528 0
M  V30 1721 C 173.928 -4.49797 0.0177332 0
M  V30 1722 C 175.247 -3.92567 -1.98945 0
M  V30 1723 H 172.366 -0.709496 -0.199461 0
M  V30 1724 H 175.008 -1.89126 0.182011 0
M  V30 1725 H 173.158 -3.48279 -1.72146 0
M  V30 1726 H 174.83 -4.56661 0.652584 0
M  V30 1727 H 173.073 -4.284 0.682309 0
M  V30 1728 H 173.744 -5.50528 -0.402919 0
M  V30 1729 H 176.22 -3.89565 -1.46214 0
M  V30 1730 H 175.096 -4.96605 -2.33827 0
M  V30 1731 H 175.357 -3.32648 -2.91201 0
M  V30 1732 N 174.416 0.165178 -1.56732 0
M  V30 1733 C 175.349 1.23336 -1.91998 0
M  V30 1734 C 176.327 1.42476 -0.783531 0
M  V30 1735 O 177.511 1.57384 -1.03743 0
M  V30 1736 C 174.638 2.59533 -2.17625 0
M  V30 1737 C 173.684 2.57093 -3.40302 0
M  V30 1738 S 174.517 2.05571 -4.9447 0
M  V30 1739 C 175.673 3.43532 -5.23198 0
M  V30 1740 H 175.906 0.932387 -2.82301 0
M  V30 1741 H 173.439 0.370013 -1.49901 0
M  V30 1742 H 175.397 3.37918 -2.3307 0
M  V30 1743 H 174.058 2.86827 -1.28019 0
M  V30 1744 H 173.251 3.57308 -3.55453 0
M  V30 1745 H 172.853 1.86806 -3.24005 0
M  V30 1746 H 175.145 4.39559 -5.15552 0
M  V30 1747 H 176.088 3.33251 -6.2478 0
M  V30 1748 H 176.496 3.39828 -4.50752 0
M  V30 1749 N 175.894 1.51508 0.433938 0
M  V30 1750 C 177.134 1.66006 1.19253 0
M  V30 1751 C 177.498 0.369868 1.88404 0
M  V30 1752 O 178.699 0.39066 2.65946 0
M  V30 1753 C 176.97 2.83229 2.17981 0
M  V30 1754 S 178.529 3.18075 3.02281 0
M  V30 1755 H 175.347 0.584821 0.404358 0
M  V30 1756 H 177.949 1.89425 0.48357 0
M  V30 1757 H 176.653 3.75407 1.65824 0
M  V30 1758 H 176.184 2.6201 2.93453 0
M  V30 1759 H 178.199 2.64772 4.19655 0
M  V30 1760 N 177.372 -0.689602 1.41712 0
M  V30 1761 C 178.62 -1.4468 1.4111 0
M  V30 1762 C 178.941 -1.94986 0.0232196 0
M  V30 1763 O 178.211 -1.72097 -0.935913 0
M  V30 1764 H 176.791 -0.536847 0.519427 0
M  V30 1765 H 179.453 -0.815825 1.77004 0
M  V30 1766 H 178.549 -2.30706 2.10193 0
M  V30 1767 N 178.85 -1.27639 -0.924453 0
M  V30 1768 C 179.76 -1.12466 -2.05885 0
M  V30 1769 C 180.776 -0.053869 -1.73917 0
M  V30 1770 O 181.952 -0.261012 -1.99702 0
M  V30 1771 C 179.017 -0.776768 -3.37886 0
M  V30 1772 C 178.078 -1.92878 -3.83532 0
M  V30 1773 C 177.311 -1.59739 -5.09234 0
M  V30 1774 O 177.534 -0.506782 -5.68144 0
M  V30 1775 O 176.468 -2.43761 -5.50331 0
M  V30 1776 H 180.294 -2.07671 -2.21599 0
M  V30 1777 H 177.879 -1.06857 -1.04413 0
M  V30 1778 H 179.761 -0.596229 -4.17161 0
M  V30 1779 H 178.436 0.145732 -3.23372 0
M  V30 1780 H 177.343 -2.1644 -3.0513 0
M  V30 1781 H 178.676 -2.8316 -4.02593 0
M  V30 1782 N 180.328 1.1314 -1.09713 0
M  V30 1783 C 181.568 1.8613 -0.844683 0
M  V30 1784 C 181.932 1.81765 0.618491 0
M  V30 1785 O 183.133 2.50024 0.98699 0
M  V30 1786 C 181.404 3.30151 -1.36877 0
M  V30 1787 S 182.963 4.206 -1.25064 0
M  V30 1788 H 179.781 0.642056 -0.305427 0
M  V30 1789 H 182.383 1.36343 -1.4011 0
M  V30 1790 H 181.087 3.30883 -2.42786 0
M  V30 1791 H 180.618 3.85 -0.808614 0
M  V30 1792 H 182.633 4.95783 -0.203486 0
M  V30 1793 N 181.806 0.884767 1.30421 0
M  V30 1794 C 182.756 0.322846 2.25703 0
M  V30 1795 C 183.74 -0.548582 1.51259 0
M  V30 1796 O 184.932 -0.39304 1.72581 0
M  V30 1797 C 182.061 -0.461787 3.4018 0
M  V30 1798 C 181.147 0.423717 4.21978 0
M  V30 1799 N 181.538 1.52408 4.82292 0
M  V30 1800 C 179.836 0.218795 4.45463 0
M  V30 1801 C 180.537 2.07136 5.43571 0
M  V30 1802 N 179.513 1.36635 5.26148 0
M  V30 1803 H 183.315 1.16363 2.69883 0
M  V30 1804 H 180.829 0.73415 1.44859 0
M  V30 1805 H 182.826 -0.880985 4.07485 0
M  V30 1806 H 181.486 -1.30001 2.9754 0
M  V30 1807 H 182.497 1.90693 4.81515 0
M  V30 1808 H 179.174 -0.582275 4.1342 0
M  V30 1809 H 180.564 2.99538 6.01437 0
M  V30 1810 N 183.284 -1.43765 0.645699 0
M  V30 1811 C 184.53 -2.02197 0.156271 0
M  V30 1812 C 184.863 -1.50776 -1.22393 0
M  V30 1813 O 184.138 -0.697771 -1.81553 0
M  V30 1814 C 184.421 -3.59749 0.158872 0
M  V30 1815 C 184.274 -4.21419 1.57245 0
M  V30 1816 C 185.593 -4.37149 -0.50879 0
M  V30 1817 H 182.712 -0.734694 0.0582602 0
M  V30 1818 H 185.354 -1.71157 0.824951 0
M  V30 1819 H 183.504 -3.86325 -0.410525 0
M  V30 1820 H 185.176 -4.059 2.19186 0
M  V30 1821 H 183.419 -3.78356 2.122 0
M  V30 1822 H 184.09 -5.30482 1.52619 0
M  V30 1823 H 186.566 -4.16093 -0.024412 0
M  V30 1824 H 185.442 -5.4683 -0.476213 0
M  V30 1825 H 185.703 -4.12839 -1.58165 0
M  V30 1826 N 184.763 -0.387143 -1.52771 0
M  V30 1827 C 185.71 0.449048 -2.26389 0
M  V30 1828 C 186.68 1.05961 -1.27912 0
M  V30 1829 O 187.865 1.08804 -1.56737 0
M  V30 1830 C 185.005 1.57155 -3.0724 0
M  V30 1831 C 184.118 0.984066 -4.20643 0
M  V30 1832 C 183.253 2.07745 -4.88892 0
M  V30 1833 C 182.292 1.46574 -5.94292 0
M  V30 1834 N 181.429 2.49834 -6.56146 0
M  V30 1835 H 186.269 -0.185205 -2.97424 0
M  V30 1836 H 183.806 -0.103164 -1.46738 0
M  V30 1837 H 185.764 2.23309 -3.52405 0
M  V30 1838 H 184.394 2.17615 -2.38419 0
M  V30 1839 H 183.446 0.212193 -3.79808 0
M  V30 1840 H 184.758 0.497029 -4.96318 0
M  V30 1841 H 183.912 2.81673 -5.3735 0
M  V30 1842 H 182.651 2.59807 -4.12737 0
M  V30 1843 H 181.656 0.711696 -5.45174 0
M  V30 1844 H 182.881 0.953088 -6.72379 0
M  V30 1845 H 180.827 3.0107 -5.82832 0
M  V30 1846 H 180.744 2.05879 -7.27427 0
M  V30 1847 H 182.012 3.23399 -7.09249 0
M  V30 1848 N 186.241 1.57166 -0.116904 0
M  V30 1849 C 187.189 2.16457 0.851418 0
M  V30 1850 C 188.183 1.11323 1.27686 0
M  V30 1851 O 189.389 1.2963 1.24884 0
M  V30 1852 H 185.764 0.69271 0.292672 0
M  V30 1853 H 187.735 2.96605 0.32685 0
M  V30 1854 C 186.484 2.77689 2.09246 0
M  V30 1855 H 185.807 3.58285 1.77402 0
M  V30 1856 H 187.247 3.22716 2.7501 0
M  V30 1857 C 185.706 1.74667 2.88085 0
M  V30 1858 O 186.236 1.19877 3.83396 0
M  V30 1859 N 184.442 1.44656 2.52038 0
M  V30 1860 H 183.989 1.89402 1.74599 0
M  V30 1861 H 183.947 0.759675 3.05084 0
M  V30 1862 O 187.758 -0.0225413 1.61484 0
M  V30 1863 H 188.449 -0.642234 1.82743 0
M  V30 END ATOM
M  V30 BEGIN BOND
M  V30 END BOND
M  V30 END CTAB
M  END
$$$$
