drugbank_target|P94622 Endo-1,4-beta glucanase EngF (DB02379)
 OpenBabel12092120293D

  0  0  0     0  0            999 V3000
M  V30 BEGIN CTAB
M  V30 COUNTS 8321 8417 0 0 0
M  V30 BEGIN ATOM
M  V30 1 H -0.908 1.98254 -0.117106 0
M  V30 2 N 0 1.576 0 0
M  V30 3 C 0.933 2.03868 1.02534 0
M  V30 4 C 1.911 0.928543 1.3348 0
M  V30 5 O 3.095 1.19667 1.45644 0
M  V30 6 C 0.222 2.43627 2.35294 0
M  V30 7 C -0.732 3.65373 2.2001 0
M  V30 8 S 0.101 5.13292 1.52614 0
M  V30 9 C 1.257 5.56322 2.86805 0
M  V30 10 H 1.49 2.90518 0.631377 0
M  V30 11 H -0.977 1.52953 0.210867 0
M  V30 12 H 0.981 2.67203 3.11629 0
M  V30 13 H -0.358 1.57376 2.7183 0
M  V30 14 H -1.165 3.90944 3.18086 0
M  V30 15 H -1.563 3.418 1.51819 0
M  V30 16 H 0.729 5.58782 3.83104 0
M  V30 17 H 1.672 6.56266 2.65933 0
M  V30 18 H 2.08 4.83886 2.90714 0
M  V30 19 N 1.4781 -0.272755 1.55222 0
M  V30 20 C 2.7251 -1.00433 1.7584 0
M  V30 21 C 3.0531 -1.86275 0.559629 0
M  V30 22 O 2.3081 -1.90269 -0.457857 0
M  V30 23 C 2.6071 -1.91642 3.01675 0
M  V30 24 C 2.2731 -1.21548 4.34208 0
M  V30 25 C 0.9351 -1.02166 4.70229 0
M  V30 26 C 3.2871 -0.716684 5.16249 0
M  V30 27 C 0.6151 -0.316334 5.85847 0
M  V30 28 C 2.9671 -0.0249476 6.32595 0
M  V30 29 C 1.6311 0.180579 6.67256 0
M  V30 30 H 0.9011 -0.367509 0.643443 0
M  V30 31 H 3.5481 -0.276596 1.89492 0
M  V30 32 H 1.8531 -2.71037 2.82924 0
M  V30 33 H 3.5501 -2.48369 3.14824 0
M  V30 34 H 0.1401 -1.37645 4.05896 0
M  V30 35 H 4.3241 -0.854047 4.88896 0
M  V30 36 H -0.4199 -0.146378 6.11225 0
M  V30 37 H 3.7541 0.369311 6.9542 0
M  V30 38 H 1.3811 0.729098 7.56696 0
M  V30 39 N 2.9562 -1.48159 -0.537278 0
M  V30 40 C 3.9042 -1.62573 -1.66352 0
M  V30 41 C 4.8982 -0.492366 -1.62087 0
M  V30 42 O 6.1042 -0.670847 -1.67032 0
M  V30 43 H 2.4792 -0.511992 -0.550789 0
M  V30 44 H 4.4502 -2.57176 -1.51337 0
M  V30 45 C 3.1992 -1.67583 -3.04649 0
M  V30 46 H 2.5222 -2.54151 -3.08622 0
M  V30 47 H 3.9622 -1.81713 -3.83088 0
M  V30 48 C 2.4212 -0.413039 -3.34358 0
M  V30 49 O 2.9512 0.477259 -3.98855 0
M  V30 50 N 1.1572 -0.286961 -2.8918 0
M  V30 51 H 0.7042 -1.01241 -2.36871 0
M  V30 52 H 0.6622 0.556963 -3.09427 0
M  V30 53 N 4.4343 0.785586 -1.36625 0
M  V30 54 C 5.3823 1.91978 -1.31329 0
M  V30 55 C 6.3763 1.68162 -0.204416 0
M  V30 56 O 7.5823 1.76122 -0.371645 0
M  V30 57 H 3.9573 0.631087 -0.408942 0
M  V30 58 H 5.9283 1.93562 -2.27104 0
M  V30 59 C 4.6773 3.29055 -1.12329 0
M  V30 60 H 4.0003 3.4795 -1.96903 0
M  V30 61 H 5.4403 4.08756 -1.12671 0
M  V30 62 C 3.8993 3.36461 0.171861 0
M  V30 63 O 4.4293 3.84576 1.16035 0
M  V30 64 N 2.6353 2.89782 0.217846 0
M  V30 65 H 2.1823 2.50819 -0.587183 0
M  V30 66 H 2.1403 2.95119 1.08408 0
M  V30 67 N 5.9124 1.20967 1.01018 0
M  V30 68 C 7.1584 1.02526 1.74975 0
M  V30 69 C 7.4914 -0.4408 1.89131 0
M  V30 70 O 6.7664 -1.32718 1.42184 0
M  V30 71 C 7.0494 1.71699 3.1653 0
M  V30 72 C 6.9024 3.25791 3.10129 0
M  V30 73 C 8.2214 1.45531 4.15342 0
M  V30 74 H 5.3404 0.373863 0.635134 0
M  V30 75 H 7.9824 1.49071 1.17805 0
M  V30 76 H 6.1324 1.32128 3.65341 0
M  V30 77 H 7.8044 3.74697 2.69072 0
M  V30 78 H 6.0474 3.56363 2.47362 0
M  V30 79 H 6.7184 3.69353 4.10222 0
M  V30 80 H 9.1944 1.79872 3.75213 0
M  V30 81 H 8.0704 1.96453 5.1254 0
M  V30 82 H 8.3314 0.384237 4.40427 0
M  V30 83 N 7.3905 -1.2043 1.01659 0
M  V30 84 C 8.3375 -2.23215 0.586822 0
M  V30 85 C 9.3075 -1.61382 -0.393085 0
M  V30 86 O 10.4925 -1.88544 -0.292525 0
M  V30 87 C 7.6325 -3.45032 -0.0687464 0
M  V30 88 C 6.7455 -4.21296 0.955724 0
M  V30 89 C 5.8805 -5.30507 0.271208 0
M  V30 90 C 4.9195 -5.98515 1.28244 0
M  V30 91 N 4.0565 -6.99316 0.62459 0
M  V30 92 H 8.8965 -2.59336 1.46796 0
M  V30 93 H 6.4335 -1.27431 0.734836 0
M  V30 94 H 8.3915 -4.1459 -0.465965 0
M  V30 95 H 7.0215 -3.09604 -0.913529 0
M  V30 96 H 6.0735 -3.50803 1.4711 0
M  V30 97 H 7.3855 -4.6803 1.72479 0
M  V30 98 H 6.5395 -6.06428 -0.18151 0
M  V30 99 H 5.2785 -4.8481 -0.530163 0
M  V30 100 H 4.2835 -5.21355 1.74554 0
M  V30 101 H 5.5085 -6.46298 2.08509 0
M  V30 102 H 3.4545 -6.55812 -0.156914 0
M  V30 103 H 3.3715 -7.44178 1.33172 0
M  V30 104 H 4.6395 -7.79255 0.195462 0
M  V30 105 N 8.8686 -0.792821 -1.36206 0
M  V30 106 C 9.8156 -0.191653 -2.30003 0
M  V30 107 C 10.7856 0.666453 -1.52143 0
M  V30 108 O 11.9706 0.61442 -1.80636 0
M  V30 109 C 9.1106 0.664848 -3.38635 0
M  V30 110 C 8.2236 -0.212175 -4.31479 0
M  V30 111 C 7.3586 0.651022 -5.27196 0
M  V30 112 C 6.3976 -0.227247 -6.11678 0
M  V30 113 N 5.5346 0.595127 -6.99573 0
M  V30 114 H 10.3746 -0.996978 -2.80828 0
M  V30 115 H 7.9116 -0.503206 -1.38225 0
M  V30 116 H 9.8696 1.17645 -4.00269 0
M  V30 117 H 8.4996 1.43557 -2.89122 0
M  V30 118 H 7.5516 -0.841777 -3.70969 0
M  V30 119 H 8.8636 -0.888751 -4.90818 0
M  V30 120 H 8.0176 1.2283 -5.94136 0
M  V30 121 H 6.7566 1.36121 -4.68319 0
M  V30 122 H 5.7616 -0.816904 -5.43697 0
M  V30 123 H 6.9866 -0.93509 -6.72631 0
M  V30 124 H 4.9326 1.28955 -6.432 0
M  V30 125 H 4.8496 -0.0236952 -7.55996 0
M  V30 126 H 6.1176 1.15613 -7.70879 0
M  V30 127 N 10.3467 1.47872 -0.545128 0
M  V30 128 C 11.2937 2.29849 0.2093 0
M  V30 129 C 12.2637 1.38313 0.919707 0
M  V30 130 O 13.4487 1.67277 0.917772 0
M  V30 131 C 10.5887 3.22019 1.24088 0
M  V30 132 C 9.7017 4.2864 0.537778 0
M  V30 133 C 8.8367 5.07973 1.5536 0
M  V30 134 C 7.8757 6.06381 0.8348 0
M  V30 135 N 7.0127 6.78717 1.79688 0
M  V30 136 H 11.8527 2.93845 -0.49591 0
M  V30 137 H 9.3897 1.44848 -0.256389 0
M  V30 138 H 11.3477 3.73868 1.85144 0
M  V30 139 H 9.9777 2.59914 1.91428 0
M  V30 140 H 9.0297 3.7994 -0.187046 0
M  V30 141 H 10.3417 4.98793 -0.0258907 0
M  V30 142 H 9.4957 5.63912 2.23803 0
M  V30 143 H 8.2347 4.37693 2.15118 0
M  V30 144 H 7.2397 5.49631 0.136388 0
M  V30 145 H 8.4647 6.78665 0.24313 0
M  V30 146 H 6.4107 6.11177 2.38326 0
M  V30 147 H 6.3277 7.44998 1.28505 0
M  V30 148 H 7.5957 7.39237 2.47282 0
M  V30 149 N 11.8248 0.280983 1.55075 0
M  V30 150 C 13.0738 -0.334784 1.98902 0
M  V30 151 C 13.3868 -1.56534 1.17288 0
M  V30 152 O 14.5928 -2.25443 1.51287 0
M  V30 153 C 13.0488 -0.646994 3.54037 0
M  V30 154 C 12.6568 0.564085 4.44435 0
M  V30 155 C 14.4008 -1.22506 4.06439 0
M  V30 156 C 12.3078 0.226137 5.90967 0
M  V30 157 H 11.2378 -0.128866 0.742906 0
M  V30 158 H 13.8888 0.386556 1.79382 0
M  V30 159 H 12.2708 -1.42739 3.6938 0
M  V30 160 H 13.4448 1.34082 4.40861 0
M  V30 161 H 11.7598 1.0594 4.02698 0
M  V30 162 H 14.3568 -1.49182 5.13468 0
M  V30 163 H 14.6998 -2.16085 3.55827 0
M  V30 164 H 15.2328 -0.50682 3.94558 0
M  V30 165 H 11.9718 1.12996 6.45687 0
M  V30 166 H 11.4918 -0.513717 5.97596 0
M  V30 167 H 13.1708 -0.179539 6.46751 0
M  V30 168 N 13.3029 -1.57598 0.00835791 0
M  V30 169 C 14.2329 -2.1198 -0.979113 0
M  V30 170 C 15.2139 -1.03091 -1.35301 0
M  V30 171 O 16.3989 -1.30818 -1.43528 0
M  V30 172 C 13.5289 -2.62995 -2.26828 0
M  V30 173 C 12.4829 -3.76485 -2.03576 0
M  V30 174 C 11.8089 -4.13846 -3.38579 0
M  V30 175 C 13.1089 -5.0342 -1.39161 0
M  V30 176 H 14.8029 -2.94738 -0.526281 0
M  V30 177 H 12.3489 -1.41783 -0.251704 0
M  V30 178 H 14.3019 -2.99669 -2.96271 0
M  V30 179 H 13.0259 -1.7737 -2.7424 0
M  V30 180 H 11.6849 -3.40217 -1.36557 0
M  V30 181 H 11.3329 -3.25232 -3.83709 0
M  V30 182 H 11.0329 -4.90312 -3.23834 0
M  V30 183 H 12.5569 -4.53086 -4.09323 0
M  V30 184 H 13.9709 -5.37812 -1.98573 0
M  V30 185 H 12.3679 -5.84746 -1.34878 0
M  V30 186 H 13.4379 -4.83548 -0.361868 0
M  V30 187 N 14.781 0.264519 -1.55364 0
M  V30 188 C 16.006 1.01726 -1.80739 0
M  V30 189 C 16.431 1.78836 -0.583044 0
M  V30 190 O 15.789 1.75167 0.467566 0
M  V30 191 C 15.837 1.94482 -3.03659 0
M  V30 192 O 14.941 3.03386 -2.7934 0
M  V30 193 H 14.282 0.290395 -0.597132 0
M  V30 194 H 16.812 0.290854 -2.02522 0
M  V30 195 H 16.822 2.36278 -3.32621 0
M  V30 196 H 15.497 1.37772 -3.92418 0
M  V30 197 H 14.074 2.65844 -2.61498 0
M  V30 198 N 16.2591 1.48442 0.529413 0
M  V30 199 C 17.5081 1.55742 1.28169 0
M  V30 200 C 17.8211 0.236511 1.94165 0
M  V30 201 O 19.0271 0.187761 2.7085 0
M  V30 202 C 17.4831 2.74667 2.32564 0
M  V30 203 C 17.0911 4.13402 1.72636 0
M  V30 204 C 18.8351 2.9128 3.08798 0
M  V30 205 C 16.7421 5.23587 2.74975 0
M  V30 206 H 15.6721 0.579796 0.48203 0
M  V30 207 H 18.3231 1.74776 0.559056 0
M  V30 208 H 16.7051 2.49067 3.07866 0
M  V30 209 H 17.8791 4.49022 1.03519 0
M  V30 210 H 16.1941 4.0191 1.08892 0
M  V30 211 H 18.7911 3.70767 3.85274 0
M  V30 212 H 19.1341 2.00757 3.64695 0
M  V30 213 H 19.6671 3.16782 2.40611 0
M  V30 214 H 16.4061 6.16076 2.23897 0
M  V30 215 H 15.9261 4.92454 3.42417 0
M  V30 216 H 17.6051 5.51724 3.37949 0
M  V30 217 N 17.7372 -0.778329 1.37039 0
M  V30 218 C 18.9832 -1.53892 1.32079 0
M  V30 219 C 19.3162 -1.9396 -0.0965386 0
M  V30 220 O 18.5912 -1.63568 -1.05242 0
M  V30 221 C 18.8742 -2.80847 2.25382 0
M  V30 222 C 18.7272 -2.47076 3.75864 0
M  V30 223 C 20.0462 -3.82741 2.1725 0
M  V30 224 H 17.1652 -0.558303 0.48111 0
M  V30 225 H 19.8072 -0.893397 1.67685 0
M  V30 226 H 17.9572 -3.35931 1.95148 0
M  V30 227 H 19.6292 -1.97957 4.16666 0
M  V30 228 H 17.8722 -1.79863 3.94755 0
M  V30 229 H 18.5432 -3.37798 4.36574 0
M  V30 230 H 21.0192 -3.37133 2.43887 0
M  V30 231 H 19.8952 -4.69303 2.84686 0
M  V30 232 H 20.1562 -4.2652 1.16331 0
M  V30 233 N 19.2153 -1.21501 -1.00376 0
M  V30 234 C 20.1783 -0.976927 -2.07337 0
M  V30 235 C 21.1783 0.0525322 -1.60714 0
M  V30 236 O 22.3683 -0.184869 -1.73216 0
M  V30 237 C 19.5003 -0.473423 -3.37597 0
M  V30 238 H 20.6933 -1.92587 -2.29892 0
M  V30 239 H 18.2463 -1.03217 -1.17371 0
M  V30 240 H 18.9813 0.480379 -3.20722 0
M  V30 241 H 18.7663 -1.216 -3.72768 0
M  V30 242 H 20.2563 -0.32675 -4.1632 0
M  V30 243 N 20.6934 1.19889 -1.02296 0
M  V30 244 C 21.6564 2.21116 -0.603351 0
M  V30 245 C 22.6564 1.5738 0.329884 0
M  V30 246 O 23.8464 1.73802 0.117702 0
M  V30 247 C 20.9784 3.40696 0.117992 0
M  V30 248 H 22.1714 2.59754 -1.49893 0
M  V30 249 H 19.7244 1.33463 -0.813468 0
M  V30 250 H 20.4594 3.07569 1.0282 0
M  V30 251 H 20.2444 3.88188 -0.552511 0
M  V30 252 H 21.7344 4.15692 0.398696 0
M  V30 253 N 22.1715 0.800033 1.35784 0
M  V30 254 C 23.4195 0.376597 1.9856 0
M  V30 255 C 23.7405 -1.05812 1.63795 0
M  V30 256 O 23.0105 -1.73103 0.917171 0
M  V30 257 H 21.5905 0.136261 0.734467 0
M  V30 258 H 24.2525 1.02442 1.65806 0
M  V30 259 H 23.3485 0.477002 3.08433 0
M  V30 260 N 23.6496 -1.47581 0.552962 0
M  V30 261 C 24.6126 -2.28439 -0.186605 0
M  V30 262 C 25.6126 -1.36706 -0.84665 0
M  V30 263 O 26.8026 -1.59378 -0.703164 0
M  V30 264 C 23.9346 -3.16264 -1.2724 0
M  V30 265 H 25.1276 -2.95294 0.523609 0
M  V30 266 H 22.6806 -1.532 0.309745 0
M  V30 267 H 23.4156 -2.54091 -2.01514 0
M  V30 268 H 23.2006 -3.83769 -0.803968 0
M  V30 269 H 24.6906 -3.77198 -1.79196 0
M  V30 270 N 25.1277 -0.289203 -1.54924 0
M  V30 271 C 26.0607 0.633823 -2.19221 0
M  V30 272 C 27.0387 1.14174 -1.15772 0
M  V30 273 O 28.2227 1.21211 -1.44361 0
M  V30 274 C 25.3497 1.86592 -2.82668 0
M  V30 275 C 24.3957 1.49227 -3.99542 0
M  V30 276 S 25.2287 0.558312 -5.32582 0
M  V30 277 C 26.3847 1.79847 -5.99505 0
M  V30 278 H 26.6177 0.0875416 -2.97171 0
M  V30 279 H 24.1507 -0.0733899 -1.54225 0
M  V30 280 H 26.1087 2.57305 -3.19851 0
M  V30 281 H 24.7697 2.38335 -2.04585 0
M  V30 282 H 23.9627 2.40945 -4.42676 0
M  V30 283 H 23.5647 0.865193 -3.63855 0
M  V30 284 H 25.8567 2.7406 -6.19595 0
M  V30 285 H 26.7997 1.4099 -6.93922 0
M  V30 286 H 27.2077 1.96982 -5.29016 0
M  V30 287 N 26.6058 1.57591 -0.0167156 0
M  V30 288 C 27.5358 2.12496 0.967858 0
M  V30 289 C 28.5168 1.03807 1.34752 0
M  V30 290 O 29.7018 1.31577 1.42833 0
M  V30 291 C 26.8318 2.64194 2.25431 0
M  V30 292 C 25.7858 3.77559 2.01576 0
M  V30 293 C 25.1118 4.15636 3.36379 0
M  V30 294 C 26.4118 5.04151 1.36489 0
M  V30 295 H 28.1058 2.95013 0.510643 0
M  V30 296 H 25.6518 1.41915 0.244181 0
M  V30 297 H 27.6048 3.01236 2.94678 0
M  V30 298 H 26.3288 1.78821 2.73296 0
M  V30 299 H 24.9878 3.40937 1.34751 0
M  V30 300 H 24.6358 3.27263 3.81979 0
M  V30 301 H 24.3358 4.92022 3.21229 0
M  V30 302 H 25.8598 4.5525 4.06915 0
M  V30 303 H 27.2738 5.38857 1.95718 0
M  V30 304 H 25.6708 5.85453 1.31776 0
M  V30 305 H 26.7408 4.83733 0.336219 0
M  V30 306 N 28.0839 -0.256276 1.55502 0
M  V30 307 C 29.0169 -1.34321 1.84481 0
M  V30 308 C 29.9949 -1.46802 0.699131 0
M  V30 309 O 31.1789 -1.63165 0.943904 0
M  V30 310 C 28.3059 -2.71779 2.02123 0
M  V30 311 C 27.3519 -2.76496 3.24734 0
M  V30 312 S 28.1849 -2.3405 4.81644 0
M  V30 313 C 29.3409 -3.73452 5.02279 0
M  V30 314 H 29.5739 -1.09539 2.76385 0
M  V30 315 H 27.1069 -0.45678 1.47489 0
M  V30 316 H 29.0649 -3.50932 2.12972 0
M  V30 317 H 27.7259 -2.93803 1.11078 0
M  V30 318 H 26.9189 -3.77424 3.34016 0
M  V30 319 H 26.5209 -2.05379 3.12563 0
M  V30 320 H 28.8129 -4.6887 4.89047 0
M  V30 321 H 29.7559 -3.6911 6.04287 0
M  V30 322 H 30.1639 -3.6553 4.30172 0
M  V30 323 N 29.562 -1.4872 -0.521534 0
M  V30 324 C 30.525 -1.63379 -1.60748 0
M  V30 325 C 31.525 -0.50661 -1.52611 0
M  V30 326 O 32.715 -0.772601 -1.5613 0
M  V30 327 C 29.847 -1.61192 -3.00383 0
M  V30 328 H 31.04 -2.60217 -1.49087 0
M  V30 329 H 28.593 -1.37444 -0.744235 0
M  V30 330 H 29.328 -0.65863 -3.17541 0
M  V30 331 H 29.113 -2.43032 -3.07698 0
M  V30 332 H 30.603 -1.7466 -3.7932 0
M  V30 333 N 31.0401 0.771051 -1.3745 0
M  V30 334 C 31.9701 1.89827 -1.3597 0
M  V30 335 C 32.9511 1.68562 -0.228216 0
M  V30 336 O 34.1361 1.8941 -0.428675 0
M  V30 337 C 31.2661 3.2712 -1.16662 0
M  V30 338 C 30.2201 3.6295 -2.2683 0
M  V30 339 C 29.5461 4.98791 -1.92644 0
M  V30 340 C 30.8461 3.69627 -3.69017 0
M  V30 341 H 32.5401 1.91323 -2.30295 0
M  V30 342 H 30.0861 0.919082 -1.10855 0
M  V30 343 H 32.0391 4.05615 -1.14256 0
M  V30 344 H 30.7631 3.26059 -0.187926 0
M  V30 345 H 29.4221 2.86763 -2.28392 0
M  V30 346 H 29.0701 4.94271 -0.933021 0
M  V30 347 H 28.7701 5.23733 -2.66416 0
M  V30 348 H 30.2941 5.79685 -1.91826 0
M  V30 349 H 31.7081 4.38273 -3.69581 0
M  V30 350 H 30.1051 4.06067 -4.41848 0
M  V30 351 H 31.1751 2.70273 -4.02592 0
M  V30 352 N 32.5182 1.22032 0.997298 0
M  V30 353 C 33.7642 1.04376 1.73878 0
M  V30 354 C 34.0972 -0.420716 1.89588 0
M  V30 355 O 33.3722 -1.31202 1.43583 0
M  V30 356 C 33.6552 1.75047 3.14691 0
M  V30 357 C 33.5082 3.29062 3.06656 0
M  V30 358 C 34.8272 1.49928 4.13775 0
M  V30 359 H 31.9462 0.380578 0.631133 0
M  V30 360 H 34.5882 1.50312 1.16217 0
M  V30 361 H 32.7382 1.35996 3.63919 0
M  V30 362 H 34.4102 3.7753 2.65083 0
M  V30 363 H 32.6532 3.58967 2.43568 0
M  V30 364 H 33.3242 3.73683 4.06282 0
M  V30 365 H 35.8002 1.83842 3.73285 0
M  V30 366 H 34.6762 2.01878 5.10428 0
M  V30 367 H 34.9372 0.430929 4.39995 0
M  V30 368 N 33.9963 -1.19345 1.0293 0
M  V30 369 C 35.4073 -1.70725 0.755633 0
M  V30 370 C 35.7583 -1.82326 -0.724676 0
M  V30 371 O 34.8833 -1.49471 -1.56484 0
M  V30 372 C 35.4783 -3.10084 1.36503 0
M  V30 373 C 34.0373 -3.58723 1.13994 0
M  V30 374 C 33.1843 -2.35577 1.46283 0
M  V30 375 H 36.1353 -1.0418 1.19718 0
M  V30 376 H 36.1563 -3.72787 0.762217 0
M  V30 377 H 35.6683 -3.01609 2.44241 0
M  V30 378 H 33.7693 -3.72512 0.0807901 0
M  V30 379 H 33.8823 -4.42816 1.82894 0
M  V30 380 H 32.2463 -2.38935 0.88217 0
M  V30 381 H 33.0293 -2.29731 2.55105 0
M  V30 382 N 35.4744 -0.807222 -1.35358 0
M  V30 383 C 36.4224 -0.20614 -2.31685 0
M  V30 384 C 37.4164 0.644445 -1.56663 0
M  V30 385 O 38.6224 0.537538 -1.71786 0
M  V30 386 H 34.9974 -0.0479006 -0.750473 0
M  V30 387 H 36.9684 -1.03369 -2.79924 0
M  V30 388 C 35.7174 0.630212 -3.41941 0
M  V30 389 H 35.0404 -0.0149558 -3.99797 0
M  V30 390 H 36.4804 1.01716 -4.11619 0
M  V30 391 C 34.9394 1.79601 -2.85035 0
M  V30 392 O 35.4694 2.89351 -2.78637 0
M  V30 393 N 33.6754 1.60774 -2.42074 0
M  V30 394 H 33.2224 0.715009 -2.47478 0
M  V30 395 H 33.1804 2.38933 -2.04349 0
M  V30 396 N 36.9525 1.47285 -0.560781 0
M  V30 397 C 38.2015 2.01668 -0.035895 0
M  V30 398 C 38.5145 1.44021 1.32353 0
M  V30 399 O 39.7205 1.90088 1.93853 0
M  V30 400 C 38.1765 3.59897 -0.0136659 0
M  V30 401 C 37.7845 4.26536 -1.37006 0
M  V30 402 C 39.5285 4.22017 0.458425 0
M  V30 403 C 37.4355 5.76782 -1.30675 0
M  V30 404 H 36.3655 0.753938 -0.00964879 0
M  V30 405 H 39.0165 1.69243 -0.709166 0
M  V30 406 H 37.3985 3.89301 0.725325 0
M  V30 407 H 38.5725 4.0877 -2.12705 0
M  V30 408 H 36.8875 3.76419 -1.78038 0
M  V30 409 H 39.4845 5.32124 0.524247 0
M  V30 410 H 39.8275 3.89437 1.4712 0
M  V30 411 H 40.3605 3.97159 -0.225818 0
M  V30 412 H 37.0995 6.13988 -2.29564 0
M  V30 413 H 36.6195 5.96875 -0.591622 0
M  V30 414 H 38.2985 6.39063 -1.01033 0
M  V30 415 N 38.4306 0.297415 1.54768 0
M  V30 416 C 39.3786 -0.596051 2.24833 0
M  V30 417 C 40.3726 -1.13992 1.25308 0
M  V30 418 O 41.5786 -1.09098 1.4317 0
M  V30 419 H 37.9536 -0.210814 0.721846 0
M  V30 420 H 39.9246 0.0174667 2.98395 0
M  V30 421 C 38.6736 -1.75818 2.99972 0
M  V30 422 H 37.9966 -1.3489 3.76357 0
M  V30 423 H 39.4366 -2.35949 3.52284 0
M  V30 424 C 37.8956 -2.66014 2.06732 0
M  V30 425 O 38.4256 -3.67009 1.63302 0
M  V30 426 N 36.6316 -2.33669 1.72763 0
M  V30 427 H 36.1786 -1.51586 2.08277 0
M  V30 428 H 36.1366 -2.94285 1.10652 0
M  V30 429 N 39.9087 -1.5758 0.0250728 0
M  V30 430 C 41.1547 -1.91917 -0.655413 0
M  V30 431 C 41.4877 -0.901433 -1.72011 0
M  V30 432 O 40.7627 0.0764069 -1.9435 0
M  V30 433 C 41.0457 -3.36751 -1.27558 0
M  V30 434 C 40.8987 -4.49258 -0.220719 0
M  V30 435 C 42.2177 -3.81469 -2.19475 0
M  V30 436 H 39.3367 -0.697925 -0.23679 0
M  V30 437 H 41.9787 -1.89825 0.0815036 0
M  V30 438 H 40.1287 -3.38664 -1.90365 0
M  V30 439 H 41.8007 -4.59478 0.409601 0
M  V30 440 H 40.0437 -4.31415 0.454264 0
M  V30 441 H 40.7147 -5.47618 -0.694175 0
M  V30 442 H 43.1907 -3.81266 -1.66659 0
M  V30 443 H 42.0667 -4.83512 -2.59822 0
M  V30 444 H 42.3277 -3.16744 -3.08424 0
M  V30 445 N 41.3868 0.248026 -1.55636 0
M  V30 446 C 42.3498 1.29044 -1.89421 0
M  V30 447 C 43.3498 1.41134 -0.770581 0
M  V30 448 O 44.5398 1.39854 -1.03858 0
M  V30 449 C 41.6718 2.66831 -2.12165 0
M  V30 450 H 42.8648 1.00305 -2.82629 0
M  V30 451 H 40.4178 0.487265 -1.48511 0
M  V30 452 H 41.1528 3.00711 -1.21422 0
M  V30 453 H 40.9378 2.59438 -2.93997 0
M  V30 454 H 42.4278 3.42103 -2.3949 0
M  V30 455 N 42.8649 1.48995 0.513639 0
M  V30 456 C 43.8279 1.64229 1.59879 0
M  V30 457 C 44.8279 0.514696 1.5234 0
M  V30 458 O 46.0179 0.78087 1.55718 0
M  V30 459 C 43.1499 1.62783 2.99524 0
M  V30 460 H 44.3429 2.61004 1.47705 0
M  V30 461 H 41.8959 1.37837 0.736936 0
M  V30 462 H 42.6309 0.675461 3.17188 0
M  V30 463 H 42.4159 2.4466 3.06404 0
M  V30 464 H 43.9059 1.76669 3.78388 0
M  V30 465 N 44.343 -0.763751 1.37857 0
M  V30 466 C 45.253 -1.90817 1.36478 0
M  V30 467 C 46.269 -1.71997 0.263248 0
M  V30 468 O 47.445 -1.95095 0.499979 0
M  V30 469 C 44.51 -3.2605 1.17864 0
M  V30 470 C 43.571 -3.57467 2.3773 0
M  V30 471 C 42.804 -4.86249 2.19995 0
M  V30 472 O 43.027 -5.57884 1.18836 0
M  V30 473 O 41.961 -5.16911 3.08361 0
M  V30 474 H 45.787 -1.94933 2.32884 0
M  V30 475 H 43.372 -0.907619 1.1867 0
M  V30 476 H 45.254 -4.06924 1.09504 0
M  V30 477 H 43.929 -3.22769 0.245372 0
M  V30 478 H 42.836 -2.76796 2.51664 0
M  V30 479 H 44.169 -3.655 3.29652 0
M  V30 480 N 45.8211 -1.22559 -0.990812 0
M  V30 481 C 47.0491 -1.07779 -1.76611 0
M  V30 482 C 47.4641 0.371513 -1.85109 0
M  V30 483 O 46.8211 1.25737 -1.32274 0
M  V30 484 C 46.8721 -1.68512 -3.19822 0
M  V30 485 O 46.5931 -3.07774 -3.1178 0
M  V30 486 C 48.0941 -1.59035 -4.13791 0
M  V30 487 H 45.3141 -0.377729 -0.554583 0
M  V30 488 H 47.8581 -1.62195 -1.24551 0
M  V30 489 H 46.0131 -1.18154 -3.68942 0
M  V30 490 H 46.4271 -3.37062 -4.01858 0
M  V30 491 H 47.9011 -2.0625 -5.1202 0
M  V30 492 H 48.3781 -0.547273 -4.35777 0
M  V30 493 H 48.9841 -2.08709 -3.70568 0
M  V30 494 N 47.2992 1.18797 -1.03562 0
M  V30 495 C 48.5272 1.92599 -0.755869 0
M  V30 496 C 48.9422 1.75886 0.686271 0
M  V30 497 O 48.2992 1.08517 1.46732 0
M  V30 498 C 48.3502 3.44159 -1.10619 0
M  V30 499 O 48.0712 3.60341 -2.4917 0
M  V30 500 C 49.5722 4.3507 -0.850214 0
M  V30 501 H 46.7922 0.611587 -0.276048 0
M  V30 502 H 49.3362 1.50742 -1.38192 0
M  V30 503 H 47.4912 3.83823 -0.525194 0
M  V30 504 H 47.9052 4.54128 -2.62427 0
M  V30 505 H 49.3792 5.39989 -1.14523 0
M  V30 506 H 49.8562 4.38673 0.215176 0
M  V30 507 H 50.4622 4.01097 -1.41426 0
M  V30 508 N 48.7773 0.814389 1.34928 0
M  V30 509 C 50.0073 0.41054 2.0248 0
M  V30 510 C 50.4153 -0.985625 1.61499 0
M  V30 511 O 49.7583 -1.64781 0.811976 0
M  V30 512 C 49.8203 0.423384 3.56998 0
M  V30 513 C 49.4843 1.77141 4.21272 0
M  V30 514 C 50.4813 2.73093 4.42398 0
M  V30 515 C 48.1663 2.05755 4.58225 0
M  V30 516 C 50.1603 3.95838 4.9959 0
M  V30 517 C 47.8473 3.28762 5.1513 0
M  V30 518 C 48.8453 4.23621 5.35755 0
M  V30 519 O 48.5333 5.44456 5.91458 0
M  V30 520 H 48.2653 0.163997 0.655806 0
M  V30 521 H 50.8193 1.10155 1.73364 0
M  V30 522 H 49.0493 -0.324276 3.85338 0
M  V30 523 H 50.7383 0.0407683 4.0588 0
M  V30 524 H 51.5043 2.5228 4.14222 0
M  V30 525 H 47.3833 1.32727 4.4148 0
M  V30 526 H 50.9273 4.69891 5.15605 0
M  V30 527 H 46.8243 3.49443 5.42734 0
M  V30 528 H 47.5923 5.4586 6.09901 0
M  V30 529 N 50.2554 -1.46986 0.568584 0
M  V30 530 C 51.4804 -2.07335 0.0520528 0
M  V30 531 C 51.9054 -1.41675 -1.23733 0
M  V30 532 O 51.2634 -0.495623 -1.74394 0
M  V30 533 C 51.3114 -3.60417 -0.11501 0
M  V30 534 O 50.4154 -3.95309 -1.17492 0
M  V30 535 H 49.7564 -0.661597 0.0564385 0
M  V30 536 H 52.2864 -1.88837 0.787507 0
M  V30 537 H 52.2964 -4.06698 -0.325644 0
M  V30 538 H 50.9714 -4.07601 0.826675 0
M  V30 539 H 49.5484 -3.60757 -0.943869 0
M  V30 540 N 51.7335 -0.305618 -1.54608 0
M  V30 541 C 52.6815 0.584119 -2.25146 0
M  V30 542 C 53.6755 1.13326 -1.25911 0
M  V30 543 O 54.8815 1.08337 -1.43747 0
M  V30 544 H 51.2565 0.206983 -0.722954 0
M  V30 545 H 53.2275 -0.033291 -2.98381 0
M  V30 546 C 51.9765 1.74225 -3.009 0
M  V30 547 H 51.2995 1.32892 -3.77067 0
M  V30 548 H 52.7395 2.34077 -3.53531 0
M  V30 549 C 51.1985 2.64914 -2.0814 0
M  V30 550 O 51.7285 3.66137 -1.65246 0
M  V30 551 N 49.9345 2.3275 -1.74 0
M  V30 552 H 49.4815 1.50479 -2.09078 0
M  V30 553 H 49.4395 2.93694 -1.12211 0
M  V30 554 N 53.2116 1.57565 -0.0334293 0
M  V30 555 C 54.1416 2.13511 0.945265 0
M  V30 556 C 55.1226 1.05231 1.33643 0
M  V30 557 O 56.3076 1.33084 1.41429 0
M  V30 558 C 53.4376 2.6657 2.22616 0
M  V30 559 C 52.3916 3.79676 1.97561 0
M  V30 560 C 51.7176 4.1918 3.31952 0
M  V30 561 C 53.0176 5.0557 1.31135 0
M  V30 562 H 54.7116 2.95538 0.479325 0
M  V30 563 H 52.2576 1.42166 0.229115 0
M  V30 564 H 54.2106 3.04344 2.91466 0
M  V30 565 H 52.9346 1.8171 2.71384 0
M  V30 566 H 51.5936 3.42347 1.31127 0
M  V30 567 H 51.2416 3.31296 3.78487 0
M  V30 568 H 50.9416 4.95402 3.15992 0
M  V30 569 H 52.4656 4.59541 4.02063 0
M  V30 570 H 53.8796 5.40903 1.89992 0
M  V30 571 H 52.2766 5.86818 1.25559 0
M  V30 572 H 53.3466 4.84062 0.284894 0
M  V30 573 N 54.6897 -0.239769 1.55765 0
M  V30 574 C 55.9177 -0.98417 1.81994 0
M  V30 575 C 56.3327 -1.7867 0.610124 0
M  V30 576 O 55.6897 -1.77571 -0.421271 0
M  V30 577 C 55.7407 -1.91635 3.06526 0
M  V30 578 O 55.4617 -1.14629 4.22838 0
M  V30 579 C 56.9627 -2.77616 3.45607 0
M  V30 580 H 54.1827 -0.28928 0.605441 0
M  V30 581 H 56.7267 -0.260499 2.02834 0
M  V30 582 H 54.8817 -2.5942 2.87715 0
M  V30 583 H 55.2957 -1.77745 4.93464 0
M  V30 584 H 56.7697 -3.38759 4.35828 0
M  V30 585 H 57.2467 -3.4909 2.6652 0
M  V30 586 H 57.8527 -2.15271 3.66795 0
M  V30 587 N 56.1678 -1.49265 -0.50573 0
M  V30 588 C 57.4158 -1.582 -1.25766 0
M  V30 589 C 57.7368 -0.268482 -1.93143 0
M  V30 590 O 57.0068 0.711833 -1.8251 0
M  V30 591 H 55.5868 -0.582873 -0.467191 0
M  V30 592 H 58.2488 -1.85865 -0.586525 0
M  V30 593 H 57.3448 -2.37563 -2.02412 0
M  V30 594 N 57.6459 0.756429 -1.3826 0
M  V30 595 C 58.5939 1.89149 -1.35372 0
M  V30 596 C 59.5879 1.67691 -0.24004 0
M  V30 597 O 60.7939 1.75294 -0.408919 0
M  V30 598 H 57.1689 0.622271 -0.422236 0
M  V30 599 H 59.1399 1.88701 -2.31159 0
M  V30 600 C 57.8889 3.26599 -1.19284 0
M  V30 601 H 57.2119 3.43695 -2.0424 0
M  V30 602 H 58.6519 4.06274 -1.21316 0
M  V30 603 C 57.1109 3.3675 0.100454 0
M  V30 604 O 57.6409 3.86951 1.07851 0
M  V30 605 N 55.8469 2.90179 0.15633 0
M  V30 606 H 55.3939 2.49517 -0.640253 0
M  V30 607 H 55.3519 2.97352 1.02123 0
M  V30 608 N 59.124 1.23083 0.984299 0
M  V30 609 C 60.087 1.00979 2.05757 0
M  V30 610 C 61.087 -0.0269573 1.60777 0
M  V30 611 O 62.277 0.212403 1.729 0
M  V30 612 C 59.409 0.527072 3.36801 0
M  V30 613 H 60.602 1.9622 2.26799 0
M  V30 614 H 58.155 1.05072 1.15714 0
M  V30 615 H 58.89 -0.429294 3.21446 0
M  V30 616 H 58.675 1.27515 3.70786 0
M  V30 617 H 60.165 0.392942 4.15747 0
M  V30 618 N 60.6021 -1.18246 1.0419 0
M  V30 619 C 61.5501 -2.23968 0.627792 0
M  V30 620 C 62.5441 -1.65828 -0.346019 0
M  V30 621 O 63.7501 -1.78733 -0.213175 0
M  V30 622 H 60.1251 -0.728939 0.184802 0
M  V30 623 H 62.0961 -2.56202 1.52981 0
M  V30 624 C 60.8451 -3.47699 0.00796591 0
M  V30 625 H 60.1681 -3.92734 0.748347 0
M  V30 626 H 61.6081 -4.23294 -0.24455 0
M  V30 627 C 60.0671 -3.13153 -1.24246 0
M  V30 628 O 60.5971 -3.27003 -2.33307 0
M  V30 629 N 58.8031 -2.67467 -1.13622 0
M  V30 630 H 58.3501 -2.56396 -0.248734 0
M  V30 631 H 58.3081 -2.44724 -1.97377 0
M  V30 632 N 62.0802 -0.821533 -1.34494 0
M  V30 633 C 63.3262 -0.409552 -1.98622 0
M  V30 634 C 63.6592 1.0244 -1.64984 0
M  V30 635 O 62.9342 1.71325 -0.920758 0
M  V30 636 C 63.2172 -0.610458 -3.54888 0
M  V30 637 C 63.0702 -2.09043 -3.98273 0
M  V30 638 C 64.3892 -0.0455379 -4.40076 0
M  V30 639 H 61.5082 -0.15028 -0.721516 0
M  V30 640 H 64.1502 -1.03384 -1.59411 0
M  V30 641 H 62.3002 -0.079044 -3.8842 0
M  V30 642 H 63.9722 -2.68537 -3.75081 0
M  V30 643 H 62.2152 -2.58139 -3.48635 0
M  V30 644 H 62.8862 -2.18182 -5.07051 0
M  V30 645 H 65.3622 -0.499557 -4.1309 0
M  V30 646 H 64.2382 -0.215922 -5.48475 0
M  V30 647 H 64.4992 1.04939 -4.29465 0
M  V30 648 N 63.5583 1.46682 -0.576371 0
M  V30 649 C 64.5053 2.30241 0.160499 0
M  V30 650 C 65.4753 1.40233 0.890162 0
M  V30 651 O 66.6603 1.69186 0.882084 0
M  V30 652 C 63.8003 3.24578 1.1723 0
M  V30 653 C 62.9133 4.29684 0.446736 0
M  V30 654 C 62.0483 5.11154 1.44551 0
M  V30 655 C 61.0873 6.08015 0.70599 0
M  V30 656 N 60.2243 6.82376 1.65251 0
M  V30 657 H 65.0643 2.92727 -0.558127 0
M  V30 658 H 62.6013 1.44272 -0.287056 0
M  V30 659 H 64.5593 3.77711 1.77172 0
M  V30 660 H 63.1893 2.63916 1.85872 0
M  V30 661 H 62.2413 3.79458 -0.267594 0
M  V30 662 H 63.5533 4.98626 -0.131686 0
M  V30 663 H 62.7073 5.68533 2.11791 0
M  V30 664 H 61.4463 4.42158 2.05786 0
M  V30 665 H 60.4513 5.49796 0.0197725 0
M  V30 666 H 61.6763 6.79028 0.09912 0
M  V30 667 H 59.6223 6.16094 2.25308 0
M  V30 668 H 59.5393 7.47556 1.12673 0
M  V30 669 H 60.8073 7.44316 2.31546 0
M  V30 670 N 65.0364 0.313813 1.54444 0
M  V30 671 C 65.9834 -0.55655 2.23989 0
M  V30 672 C 66.9534 -1.11943 1.22711 0
M  V30 673 O 68.1384 -1.16158 1.51367 0
M  V30 674 C 65.2784 -1.71635 2.99392 0
M  V30 675 C 64.3914 -1.18364 4.15468 0
M  V30 676 C 63.5264 -2.30834 4.78424 0
M  V30 677 C 62.5654 -1.74762 5.86622 0
M  V30 678 N 61.7024 -2.80855 6.43479 0
M  V30 679 H 66.5424 0.0430893 2.97969 0
M  V30 680 H 64.0794 0.0330359 1.47063 0
M  V30 681 H 66.0374 -2.39868 3.41349 0
M  V30 682 H 64.6674 -2.28742 2.27765 0
M  V30 683 H 63.7194 -0.393163 3.78363 0
M  V30 684 H 65.0314 -0.733262 4.93381 0
M  V30 685 H 64.1854 -3.0699 5.23299 0
M  V30 686 H 62.9244 -2.79204 3.99871 0
M  V30 687 H 61.9294 -0.970995 5.41158 0
M  V30 688 H 63.1544 -1.2728 6.67066 0
M  V30 689 H 61.1004 -3.28535 5.67804 0
M  V30 690 H 61.0174 -2.40351 7.16776 0
M  V30 691 H 62.2854 -3.5687 6.93011 0
M  V30 692 N 66.5145 -1.57545 0.0417849 0
M  V30 693 C 67.9255 -1.80011 -0.495259 0
M  V30 694 C 68.2765 -0.953199 -1.71489 0
M  V30 695 O 67.4015 -0.167138 -2.15754 0
M  V30 696 C 67.9965 -3.26482 -0.905265 0
M  V30 697 C 66.5555 -3.499 -1.38734 0
M  V30 698 C 65.7025 -2.74979 -0.358056 0
M  V30 699 H 68.6535 -1.56425 0.267736 0
M  V30 700 H 68.6745 -3.36887 -1.76882 0
M  V30 701 H 68.1865 -3.88096 -0.017401 0
M  V30 702 H 66.2875 -2.93553 -2.29471 0
M  V30 703 H 66.4005 -4.58615 -1.38598 0
M  V30 704 H 64.7645 -2.40834 -0.828912 0
M  V30 705 H 65.5475 -3.39315 0.521561 0
M  V30 706 N 67.9926 0.231505 -1.5589 0
M  V30 707 C 69.2176 0.978689 -1.82856 0
M  V30 708 C 69.6426 1.77559 -0.620846 0
M  V30 709 O 69.0006 1.76119 0.430305 0
M  V30 710 C 69.0486 1.87997 -3.07716 0
M  V30 711 O 68.1526 2.97393 -2.85712 0
M  V30 712 H 67.4936 0.277663 -0.603158 0
M  V30 713 H 70.0236 0.24783 -2.03093 0
M  V30 714 H 70.0336 2.2917 -3.37558 0
M  V30 715 H 68.7086 1.29417 -3.95252 0
M  V30 716 H 67.2856 2.60238 -2.67078 0
M  V30 717 N 69.4707 1.49531 0.497807 0
M  V30 718 C 70.7167 1.59415 1.25358 0
M  V30 719 C 71.0497 0.281422 1.9215 0
M  V30 720 O 70.3247 -0.715249 1.80871 0
M  V30 721 C 70.6077 2.75566 2.3181 0
M  V30 722 C 70.4607 4.16642 1.69498 0
M  V30 723 C 71.7797 2.87347 3.33346 0
M  V30 724 H 68.8987 0.580244 0.454408 0
M  V30 725 H 71.5407 1.81827 0.551262 0
M  V30 726 H 69.6907 2.56587 2.91711 0
M  V30 727 H 71.3627 4.47145 1.13399 0
M  V30 728 H 69.6057 4.22141 0.998978 0
M  V30 729 H 70.2767 4.93792 2.46725 0
M  V30 730 H 72.7527 3.04634 2.83438 0
M  V30 731 H 71.6287 3.70289 4.05188 0
M  V30 732 H 71.8897 1.96834 3.95865 0
M  V30 733 N 70.9488 -0.749086 1.3866 0
M  V30 734 C 72.1968 -1.50535 1.34847 0
M  V30 735 C 72.5178 -1.94909 -0.0595016 0
M  V30 736 O 71.7878 -1.67973 -1.00806 0
M  V30 737 H 70.3678 -0.558395 0.49619 0
M  V30 738 H 73.0298 -0.890165 1.73384 0
M  V30 739 H 72.1258 -2.39413 2.00219 0
M  V30 740 N 72.4269 -1.23603 -0.977757 0
M  V30 741 C 73.6749 -1.06759 -1.71601 0
M  V30 742 C 73.9959 0.395929 -1.90938 0
M  V30 743 O 73.2659 1.28356 -1.47992 0
M  V30 744 H 71.8459 -0.392062 -0.635843 0
M  V30 745 H 74.5079 -1.55362 -1.1768 0
M  V30 746 H 73.6039 -1.55763 -2.70452 0
M  V30 747 N 73.905 1.17692 -1.04816 0
M  V30 748 C 74.852 2.21581 -0.645797 0
M  V30 749 C 75.822 1.62367 0.350159 0
M  V30 750 O 77.007 1.89254 0.242433 0
M  V30 751 C 74.147 3.45092 -0.0227568 0
M  V30 752 C 73.26 4.18613 -1.06709 0
M  V30 753 C 72.395 5.29602 -0.411767 0
M  V30 754 C 71.434 5.94904 -1.44067 0
M  V30 755 N 70.571 6.97414 -0.809781 0
M  V30 756 H 75.411 2.55353 -1.5362 0
M  V30 757 H 72.948 1.25438 -0.768364 0
M  V30 758 H 74.906 4.15679 0.35588 0
M  V30 759 H 73.536 3.11917 0.831122 0
M  V30 760 H 72.588 3.46779 -1.5636 0
M  V30 761 H 73.9 4.63293 -1.84827 0
M  V30 762 H 73.054 6.06696 0.0206623 0
M  V30 763 H 71.793 4.86045 0.401438 0
M  V30 764 H 70.798 5.16544 -1.88316 0
M  V30 765 H 72.023 6.40542 -2.25571 0
M  V30 766 H 69.969 6.55998 -0.0170186 0
M  V30 767 H 69.886 7.40386 -1.52856 0
M  V30 768 H 71.154 7.78463 -0.401999 0
M  V30 769 N 75.3831 0.828654 1.34056 0
M  V30 770 C 76.3131 0.269443 2.3194 0
M  V30 771 C 77.2941 -0.617247 1.58506 0
M  V30 772 O 78.4791 -0.542931 1.86456 0
M  V30 773 C 75.6091 -0.564793 3.42677 0
M  V30 774 C 74.5631 0.225241 4.27407 0
M  V30 775 C 73.8891 -0.7321 5.29664 0
M  V30 776 C 75.1891 1.43663 5.02154 0
M  V30 777 H 76.8831 1.08728 2.7896 0
M  V30 778 H 74.4291 0.524283 1.34117 0
M  V30 779 H 76.3821 -0.966233 4.10173 0
M  V30 780 H 75.1061 -1.41574 2.9432 0
M  V30 781 H 73.7651 0.608117 3.61521 0
M  V30 782 H 73.4131 -1.57916 4.77568 0
M  V30 783 H 73.1131 -0.20767 5.87233 0
M  V30 784 H 74.6371 -1.13128 6.00029 0
M  V30 785 H 76.0511 1.1089 5.62473 0
M  V30 786 H 74.4481 1.89711 5.69324 0
M  V30 787 H 75.5181 2.21181 4.31517 0
M  V30 788 N 76.8612 -1.46375 0.584142 0
M  V30 789 C 77.7932 -2.28443 -0.186119 0
M  V30 790 C 78.8062 -1.38596 -0.854115 0
M  V30 791 O 79.9952 -1.63183 -0.723438 0
M  V30 792 C 77.0952 -3.13671 -1.28311 0
M  V30 793 C 76.2682 -4.31652 -0.706758 0
M  V30 794 C 75.3272 -4.98267 -1.69163 0
M  V30 795 O 74.3532 -5.55815 -1.22712 0
M  V30 796 N 75.5552 -4.95408 -3.02575 0
M  V30 797 H 78.3202 -2.9519 0.517986 0
M  V30 798 H 75.8812 -1.56303 0.42201 0
M  V30 799 H 77.8732 -3.55101 -1.94128 0
M  V30 800 H 76.4432 -2.48989 -1.89005 0
M  V30 801 H 75.6632 -3.93989 0.128908 0
M  V30 802 H 76.9512 -5.07906 -0.301506 0
M  V30 803 H 76.3492 -4.49902 -3.42936 0
M  V30 804 H 74.9062 -5.40774 -3.63877 0
M  V30 805 N 78.3393 -0.321999 -1.54275 0
M  V30 806 C 79.2693 0.537411 -2.27231 0
M  V30 807 C 80.2503 1.12064 -1.27968 0
M  V30 808 O 81.4353 1.14606 -1.56777 0
M  V30 809 C 78.5653 1.69919 -3.02894 0
M  V30 810 C 77.5193 1.24534 -4.09482 0
M  V30 811 C 76.8453 2.49394 -4.72977 0
M  V30 812 C 78.1453 0.361335 -5.21049 0
M  V30 813 H 79.8393 -0.0711406 -2.99315 0
M  V30 814 H 77.3853 -0.0356555 -1.43956 0
M  V30 815 H 79.3383 2.30668 -3.52662 0
M  V30 816 H 78.0623 2.33431 -2.28424 0
M  V30 817 H 76.7213 0.660782 -3.60596 0
M  V30 818 H 76.3693 3.11265 -3.95124 0
M  V30 819 H 76.0693 2.19718 -5.44975 0
M  V30 820 H 77.5933 3.10908 -5.25517 0
M  V30 821 H 79.0073 0.875072 -5.66582 0
M  V30 822 H 77.4043 0.157428 -5.99893 0
M  V30 823 H 78.4743 -0.60822 -4.8107 0
M  V30 824 N 79.8174 1.5752 -0.0501392 0
M  V30 825 C 80.7474 2.14502 0.922566 0
M  V30 826 C 81.7284 1.06642 1.3252 0
M  V30 827 O 82.9134 1.34577 1.4001 0
M  V30 828 C 80.0434 2.68916 2.19776 0
M  V30 829 C 78.9974 3.8175 1.93523 0
M  V30 830 C 78.3234 4.22677 3.27487 0
M  V30 831 C 79.6234 5.06932 1.25765 0
M  V30 832 H 81.3174 2.9603 0.447952 0
M  V30 833 H 78.8634 1.42401 0.214024 0
M  V30 834 H 80.8164 3.07419 2.88222 0
M  V30 835 H 79.5404 1.84578 2.69441 0
M  V30 836 H 78.1994 3.43718 1.27489 0
M  V30 837 H 77.8474 3.35291 3.74952 0
M  V30 838 H 77.5474 4.98725 3.1072 0
M  V30 839 H 79.0714 4.63779 3.97166 0
M  V30 840 H 80.4854 5.42888 1.84244 0
M  V30 841 H 78.8824 5.88116 1.19328 0
M  V30 842 H 79.9524 4.84337 0.233536 0
M  V30 843 N 81.2955 -0.223234 1.56011 0
M  V30 844 C 82.2435 -1.29627 1.93131 0
M  V30 845 C 83.2375 -1.48608 0.813146 0
M  V30 846 O 84.4435 -1.49802 0.997966 0
M  V30 847 H 80.8185 -0.434563 0.613726 0
M  V30 848 H 82.7895 -0.955995 2.82672 0
M  V30 849 C 81.5385 -2.63983 2.26292 0
M  V30 850 H 80.8615 -2.50185 3.11846 0
M  V30 851 H 82.3015 -3.3788 2.56151 0
M  V30 852 C 80.7605 -3.18866 1.08747 0
M  V30 853 O 81.2905 -4.00192 0.347727 0
M  V30 854 N 79.4965 -2.77217 0.871743 0
M  V30 855 H 79.0435 -2.1119 1.47501 0
M  V30 856 H 79.0015 -3.1428 0.0869905 0
M  V30 857 N 82.7736 -1.49793 -0.48987 0
M  V30 858 C 83.7206 -1.67281 -1.59014 0
M  V30 859 C 84.6906 -0.514177 -1.57941 0
M  V30 860 O 85.8756 -0.742533 -1.75759 0
M  V30 861 C 83.0156 -1.75569 -2.97102 0
M  V30 862 C 82.1286 -3.0281 -3.08107 0
M  V30 863 C 81.2636 -3.02008 -4.36995 0
M  V30 864 C 80.3026 -4.23782 -4.41673 0
M  V30 865 N 79.4396 -4.20826 -5.62005 0
M  V30 866 H 84.2796 -2.61224 -1.43409 0
M  V30 867 H 81.8166 -1.29508 -0.697565 0
M  V30 868 H 83.7746 -1.78354 -3.77155 0
M  V30 869 H 82.4046 -0.850827 -3.11385 0
M  V30 870 H 81.4566 -3.09584 -2.21047 0
M  V30 871 H 82.7686 -3.92801 -3.07423 0
M  V30 872 H 81.9226 -3.03418 -5.25378 0
M  V30 873 H 80.6616 -2.09815 -4.4026 0
M  V30 874 H 79.6666 -4.22604 -3.5169 0
M  V30 875 H 80.8916 -5.17181 -4.40115 0
M  V30 876 H 78.8376 -3.31476 -5.66091 0
M  V30 877 H 78.7546 -5.04564 -5.62984 0
M  V30 878 H 80.0226 -4.26355 -6.52565 0
M  V30 879 N 84.2517 0.741722 -1.39055 0
M  V30 880 C 85.1997 1.87702 -1.3737 0
M  V30 881 C 86.1937 1.67427 -0.257812 0
M  V30 882 O 87.3997 1.7485 -0.427489 0
M  V30 883 H 83.7747 0.617757 -0.428812 0
M  V30 884 H 85.7457 1.86239 -2.33147 0
M  V30 885 C 84.4947 3.25315 -1.22741 0
M  V30 886 H 83.8177 3.41509 -2.07873 0
M  V30 887 H 85.2577 4.04964 -1.25618 0
M  V30 888 C 83.7167 3.36838 0.0647316 0
M  V30 889 O 84.2467 3.88073 1.03741 0
M  V30 890 N 82.4527 2.90329 0.125544 0
M  V30 891 H 81.9997 2.48823 -0.666682 0
M  V30 892 H 81.9577 2.98418 0.989639 0
M  V30 893 N 85.7298 1.2412 0.971189 0
M  V30 894 C 86.9778 1.07668 1.71032 0
M  V30 895 C 87.2988 -0.385797 1.91146 0
M  V30 896 O 86.5688 -1.27569 1.4867 0
M  V30 897 H 85.1488 0.395429 0.633755 0
M  V30 898 H 87.8108 1.55984 1.16855 0
M  V30 899 H 86.9068 1.57195 2.69622 0
M  V30 900 N 87.2079 -1.17134 1.05439 0
M  V30 901 C 88.4569 -1.86791 0.761049 0
M  V30 902 C 88.7699 -1.82072 -0.714795 0
M  V30 903 O 89.9759 -2.47223 -1.12218 0
M  V30 904 C 88.4319 -3.35166 1.31117 0
M  V30 905 C 88.0399 -3.48381 2.81664 0
M  V30 906 C 89.7839 -4.10134 1.09499 0
M  V30 907 C 87.6909 -4.90793 3.29964 0
M  V30 908 H 86.6209 -0.699681 0.281002 0
M  V30 909 H 89.2719 -1.3226 1.27199 0
M  V30 910 H 87.6539 -3.8925 0.72803 0
M  V30 911 H 88.8279 -3.04502 3.45855 0
M  V30 912 H 87.1429 -2.86836 3.01851 0
M  V30 913 H 89.7399 -5.152 1.43084 0
M  V30 914 H 90.0829 -4.16287 0.0328772 0
M  V30 915 H 90.6159 -3.62264 1.64346 0
M  V30 916 H 87.3549 -4.89816 4.35616 0
M  V30 917 H 86.8749 -5.35333 2.70516 0
M  V30 918 H 88.5539 -5.59573 3.24787 0
M  V30 919 N 88.686 -0.835752 -1.33615 0
M  V30 920 C 89.633 -0.26473 -2.29277 0
M  V30 921 C 90.603 0.617712 -1.54187 0
M  V30 922 O 91.788 0.556641 -1.825 0
M  V30 923 C 88.928 0.556777 -3.40579 0
M  V30 924 C 88.041 -0.349339 -4.30585 0
M  V30 925 C 87.176 0.482969 -5.29 0
M  V30 926 C 86.215 -0.421732 -6.10645 0
M  V30 927 N 85.352 0.372262 -7.01112 0
M  V30 928 H 90.192 -1.08582 -2.77514 0
M  V30 929 H 87.729 -0.546927 -1.36554 0
M  V30 930 H 89.687 1.04852 -4.03809 0
M  V30 931 H 88.317 1.34286 -2.93542 0
M  V30 932 H 87.369 -0.959372 -3.68104 0
M  V30 933 H 88.681 -1.04445 -4.87742 0
M  V30 934 H 87.835 1.03866 -5.97743 0
M  V30 935 H 86.574 1.21153 -4.72412 0
M  V30 936 H 85.579 -0.989464 -5.40823 0
M  V30 937 H 86.804 -1.14861 -6.69316 0
M  V30 938 H 84.75 1.08426 -6.46977 0
M  V30 939 H 84.667 -0.264198 -7.55538 0
M  V30 940 H 85.935 0.910293 -7.74167 0
M  V30 941 N 90.1641 1.46063 -0.591896 0
M  V30 942 C 91.3921 2.06717 -0.0868936 0
M  V30 943 C 91.8071 1.43916 1.22203 0
M  V30 944 O 91.1641 0.547698 1.74088 0
M  V30 945 C 91.2151 3.6142 0.0758725 0
M  V30 946 O 90.9361 4.21874 -1.18126 0
M  V30 947 C 92.4371 4.39025 0.61416 0
M  V30 948 H 89.6571 0.668162 -0.0616518 0
M  V30 949 H 92.2011 1.8755 -0.815175 0
M  V30 950 H 90.3561 3.79983 0.754413 0
M  V30 951 H 90.7701 5.14861 -1.00092 0
M  V30 952 H 92.2441 5.4783 0.677193 0
M  V30 953 H 92.7211 4.07708 1.63312 0
M  V30 954 H 93.3271 4.2529 -0.0298142 0
M  V30 955 N 91.6422 0.330177 1.54103 0
M  V30 956 C 92.5722 -0.525353 2.27513 0
M  V30 957 C 93.5532 -1.11383 1.2856 0
M  V30 958 O 94.7382 -1.13773 1.57383 0
M  V30 959 C 91.8682 -1.6831 3.03791 0
M  V30 960 C 90.8222 -1.2236 4.10137 0
M  V30 961 C 90.1482 -2.46882 4.74293 0
M  V30 962 C 91.4482 -0.333697 5.21233 0
M  V30 963 H 93.1422 0.087013 2.99274 0
M  V30 964 H 90.6882 0.0432893 1.43935 0
M  V30 965 H 92.6412 -2.28795 3.5388 0
M  V30 966 H 91.3652 -2.32216 2.29659 0
M  V30 967 H 90.0242 -0.64165 3.60941 0
M  V30 968 H 89.6722 -3.09165 3.96769 0
M  V30 969 H 89.3722 -2.16825 5.46133 0
M  V30 970 H 90.8962 -3.08117 5.27159 0
M  V30 971 H 92.3102 -0.845013 5.67038 0
M  V30 972 H 90.7072 -0.125612 5.99969 0
M  V30 973 H 91.7772 0.633724 4.80741 0
M  V30 974 N 93.1203 -1.57491 0.0584922 0
M  V30 975 C 94.3603 -1.94851 -0.617458 0
M  V30 976 C 94.7243 -0.937165 -1.67575 0
M  V30 977 O 95.9253 -1.19795 -2.40629 0
M  V30 978 C 94.1963 -3.36955 -1.19147 0
M  V30 979 S 95.7553 -3.96277 -1.8844 0
M  V30 980 H 92.5733 -0.681539 -0.202547 0
M  V30 981 H 95.1753 -1.95073 0.129176 0
M  V30 982 H 93.8793 -4.08355 -0.409215 0
M  V30 983 H 93.4103 -3.40245 -1.97476 0
M  V30 984 H 95.4253 -3.82099 -3.16568 0
M  V30 985 N 94.5984 0.214957 -1.56127 0
M  V30 986 C 95.8754 0.963093 -1.70247 0
M  V30 987 C 96.2554 2.02166 -0.60764 0
M  V30 988 O 95.6034 2.25244 0.384385 0
M  V30 989 C 95.8134 1.56756 -3.11815 0
M  V30 990 C 97.1614 2.0573 -3.7143 0
M  V30 991 O 98.1854 1.66637 -3.14818 0
M  V30 992 O 97.0444 2.77603 -4.70743 0
M  V30 993 H 94.1384 0.450321 -0.693643 0
M  V30 994 H 96.6844 0.206219 -1.68442 0
M  V30 995 H 95.4564 0.803533 -3.82961 0
M  V30 996 H 95.0794 2.3898 -3.17765 0
M  V30 997 N 96.0765 1.50051 0.48192 0
M  V30 998 C 97.0235 1.68122 1.58125 0
M  V30 999 C 97.9935 0.522545 1.57666 0
M  V30 1000 O 99.1785 0.751844 1.75362 0
M  V30 1001 C 96.3185 1.77142 2.96167 0
M  V30 1002 C 95.4315 3.0444 3.06497 0
M  V30 1003 C 94.5665 3.04321 4.35387 0
M  V30 1004 C 93.6055 4.26118 4.3942 0
M  V30 1005 N 92.7425 4.238 5.59766 0
M  V30 1006 H 97.5825 2.6198 1.42022 0
M  V30 1007 H 95.1195 1.29877 0.690687 0
M  V30 1008 H 97.0775 1.80352 3.76203 0
M  V30 1009 H 95.7075 0.867329 3.1093 0
M  V30 1010 H 94.7595 3.10752 2.19402 0
M  V30 1011 H 96.0715 3.94426 3.05336 0
M  V30 1012 H 95.2255 3.062 5.23762 0
M  V30 1013 H 93.9645 2.12147 4.39141 0
M  V30 1014 H 92.9695 4.24463 3.49444 0
M  V30 1015 H 94.1945 5.19507 4.37366 0
M  V30 1016 H 92.1405 3.34474 5.64326 0
M  V30 1017 H 92.0575 5.07542 5.60301 0
M  V30 1018 H 93.3255 4.2981 6.50295 0
M  V30 1019 N 97.5546 -0.734337 1.39446 0
M  V30 1020 C 98.8316 -1.48579 1.27215 0
M  V30 1021 C 99.2116 -2.1077 -0.117968 0
M  V30 1022 O 98.5596 -1.98646 -1.12924 0
M  V30 1023 C 98.7696 -2.53667 2.39696 0
M  V30 1024 C 100.118 -3.20031 2.79044 0
M  V30 1025 O 101.142 -2.6398 2.39151 0
M  V30 1026 O 100.001 -4.21455 3.47905 0
M  V30 1027 H 97.0946 -0.659816 0.49857 0
M  V30 1028 H 99.6406 -0.768106 1.51322 0
M  V30 1029 H 98.4126 -2.06096 3.32626 0
M  V30 1030 H 98.0356 -3.32994 2.17258 0
M  V30 1031 N 99.0327 -1.24633 -0.964593 0
M  V30 1032 C 100.281 -1.08573 -1.70459 0
M  V30 1033 C 100.602 0.375655 -1.91347 0
M  V30 1034 O 99.8717 1.26779 -1.49345 0
M  V30 1035 H 98.4517 -0.398784 -0.631649 0
M  V30 1036 H 101.114 -1.56601 -1.16026 0
M  V30 1037 H 100.21 -1.58623 -2.68785 0
M  V30 1038 N 100.511 1.16574 -1.06058 0
M  V30 1039 C 101.459 2.22941 -0.663343 0
M  V30 1040 C 102.453 1.66358 0.319593 0
M  V30 1041 O 103.659 1.7905 0.184713 0
M  V30 1042 H 100.034 0.725907 -0.196376 0
M  V30 1043 H 102.005 2.53736 -1.57037 0
M  V30 1044 C 100.754 3.47642 -0.0632808 0
M  V30 1045 H 100.077 3.91493 -0.810733 0
M  V30 1046 H 101.517 4.2363 0.177177 0
M  V30 1047 C 99.9758 3.1509 1.19248 0
M  V30 1048 O 100.506 3.30673 2.28075 0
M  V30 1049 N 98.7118 2.6924 1.09353 0
M  V30 1050 H 98.2588 2.5676 0.207912 0
M  V30 1051 H 98.2168 2.47833 1.93458 0
M  V30 1052 N 101.989 0.842826 1.3317 0
M  V30 1053 C 103.4 0.496651 1.79973 0
M  V30 1054 C 103.751 -0.984641 1.69703 0
M  V30 1055 O 102.876 -1.76743 1.24863 0
M  V30 1056 C 103.471 0.894727 3.26772 0
M  V30 1057 C 102.03 0.600629 3.71577 0
M  V30 1058 C 101.177 1.10091 2.5451 0
M  V30 1059 H 104.128 1.03116 1.20635 0
M  V30 1060 H 104.149 0.206347 3.7994 0
M  V30 1061 H 103.661 1.97287 3.34215 0
M  V30 1062 H 101.762 -0.467284 3.69658 0
M  V30 1063 H 101.875 1.15863 4.64879 0
M  V30 1064 H 100.239 0.52162 2.49301 0
M  V30 1065 H 101.022 2.18591 2.64713 0
M  V30 1066 N 103.467 -1.45747 0.599634 0
M  V30 1067 C 104.716 -2.01502 0.0893511 0
M  V30 1068 C 105.029 -1.4748 -1.28488 0
M  V30 1069 O 106.235 -1.95161 -1.88745 0
M  V30 1070 C 104.691 -3.59735 0.109082 0
M  V30 1071 C 104.299 -4.22754 1.48267 0
M  V30 1072 C 106.043 -4.23085 -0.346374 0
M  V30 1073 C 103.95 -5.73115 1.45921 0
M  V30 1074 H 102.88 -0.753417 0.0296347 0
M  V30 1075 H 105.531 -1.67303 0.753788 0
M  V30 1076 H 103.913 -3.91087 -0.621854 0
M  V30 1077 H 105.087 -4.02987 2.23468 0
M  V30 1078 H 103.402 -3.71567 1.87955 0
M  V30 1079 H 105.999 -5.33327 -0.38298 0
M  V30 1080 H 106.342 -3.93201 -1.36743 0
M  V30 1081 H 106.875 -3.9642 0.331038 0
M  V30 1082 H 103.614 -6.07685 2.45762 0
M  V30 1083 H 103.134 -5.95097 0.749665 0
M  V30 1084 H 104.813 -6.3616 1.17941 0
M  V30 1085 N 104.945 -0.338344 -1.53925 0
M  V30 1086 C 105.877 0.555117 -2.22376 0
M  V30 1087 C 106.89 1.06812 -1.22862 0
M  V30 1088 O 108.079 0.979163 -1.49247 0
M  V30 1089 C 105.179 1.77609 -2.88631 0
M  V30 1090 C 104.352 1.39927 -4.14414 0
M  V30 1091 C 103.411 2.47936 -4.64127 0
M  V30 1092 O 102.437 2.11461 -5.28463 0
M  V30 1093 N 103.639 3.79107 -4.39612 0
M  V30 1094 H 106.404 -0.0310778 -2.99684 0
M  V30 1095 H 103.965 -0.162226 -1.61085 0
M  V30 1096 H 105.957 2.49287 -3.18807 0
M  V30 1097 H 104.527 2.26978 -2.14941 0
M  V30 1098 H 103.747 0.513481 -3.90841 0
M  V30 1099 H 105.035 1.12341 -4.96243 0
M  V30 1100 H 104.433 4.11531 -3.88148 0
M  V30 1101 H 102.99 4.4697 -4.74406 0
M  V30 1102 N 106.423 1.57458 -0.0668435 0
M  V30 1103 C 107.353 2.15468 0.899764 0
M  V30 1104 C 108.334 1.08042 1.31381 0
M  V30 1105 O 109.519 1.36054 1.38574 0
M  V30 1106 C 106.649 2.71232 2.16911 0
M  V30 1107 C 105.603 3.83781 1.89463 0
M  V30 1108 C 104.929 4.26127 3.22986 0
M  V30 1109 C 106.229 5.08238 1.20381 0
M  V30 1110 H 107.923 2.96488 0.416529 0
M  V30 1111 H 105.469 1.4262 0.198908 0
M  V30 1112 H 107.422 3.10458 2.84945 0
M  V30 1113 H 106.146 1.87426 2.67468 0
M  V30 1114 H 104.805 3.45051 1.23836 0
M  V30 1115 H 104.453 3.39249 3.71374 0
M  V30 1116 H 104.153 5.01993 3.05413 0
M  V30 1117 H 105.677 4.67966 3.92225 0
M  V30 1118 H 107.091 5.44811 1.78475 0
M  V30 1119 H 105.488 5.89349 1.13083 0
M  V30 1120 H 106.558 4.84558 0.182153 0
M  V30 1121 N 107.901 -0.206675 1.56239 0
M  V30 1122 C 109.317 -0.557025 1.49564 0
M  V30 1123 C 109.517 -1.86424 0.764735 0
M  V30 1124 O 108.573 -2.50584 0.310491 0
M  V30 1125 C 109.886 -0.622478 2.94186 0
M  V30 1126 C 111.434 -0.712099 3.04792 0
M  V30 1127 C 111.909 -0.808767 4.50803 0
M  V30 1128 N 113.4 -0.8726 4.54907 0
M  V30 1129 C 114.135 -0.967365 5.65181 0
M  V30 1130 N 113.631 -1.02515 6.85173 0
M  V30 1131 N 115.424 -1.00366 5.53067 0
M  V30 1132 H 107.575 0.650943 2.02179 0
M  V30 1133 H 109.838 0.230387 0.919579 0
M  V30 1134 H 109.544 0.268727 3.50672 0
M  V30 1135 H 109.418 -1.4811 3.46905 0
M  V30 1136 H 111.805 -1.59374 2.48363 0
M  V30 1137 H 111.886 0.172489 2.55218 0
M  V30 1138 H 111.53 0.0684754 5.07854 0
M  V30 1139 H 111.46 -1.70899 4.98098 0
M  V30 1140 H 113.951 -0.837657 3.68499 0
M  V30 1141 H 114.264 -1.09765 7.64965 0
M  V30 1142 H 112.609 -0.994026 6.87855 0
M  V30 1143 H 115.8 -0.95527 4.58249 0
M  V30 1144 H 115.973 -1.07405 6.39037 0
M  V30 1145 N 109.379 -1.50304 -0.473955 0
M  V30 1146 C 110.627 -1.60832 -1.22382 0
M  V30 1147 C 110.948 -0.30939 -1.9253 0
M  V30 1148 O 110.218 0.67296 -1.83978 0
M  V30 1149 H 108.798 -0.592652 -0.454723 0
M  V30 1150 H 111.46 -1.87068 -0.546968 0
M  V30 1151 H 110.556 -2.41803 -1.97327 0
M  V30 1152 N 110.857 0.726932 -1.39834 0
M  V30 1153 C 111.79 1.8501 -1.33592 0
M  V30 1154 C 112.768 1.61262 -0.208191 0
M  V30 1155 O 113.952 1.84422 -0.389981 0
M  V30 1156 C 111.079 3.21143 -1.07633 0
M  V30 1157 C 110.125 3.63737 -2.22705 0
M  V30 1158 S 110.958 3.72167 -3.85035 0
M  V30 1159 C 112.114 5.11077 -3.61318 0
M  V30 1160 H 112.347 1.90022 -2.28646 0
M  V30 1161 H 109.88 0.892595 -1.25985 0
M  V30 1162 H 111.838 3.99747 -0.933415 0
M  V30 1163 H 110.499 3.13776 -0.142526 0
M  V30 1164 H 109.692 4.62551 -2.00155 0
M  V30 1165 H 109.294 2.9236 -2.33242 0
M  V30 1166 H 111.586 5.97656 -3.19083 0
M  V30 1167 H 112.529 5.38658 -4.59623 0
M  V30 1168 H 112.937 4.81135 -2.95245 0
M  V30 1169 N 112.336 1.25143 0.95797 0
M  V30 1170 C 113.561 1.12521 1.74223 0
M  V30 1171 C 113.986 -0.317402 1.85403 0
M  V30 1172 O 113.344 -1.2299 1.33204 0
M  V30 1173 C 113.392 1.78062 3.1357 0
M  V30 1174 O 112.496 1.058 3.98598 0
M  V30 1175 H 111.837 0.39304 0.535178 0
M  V30 1176 H 114.367 1.65641 1.201 0
M  V30 1177 H 114.377 1.84213 3.64046 0
M  V30 1178 H 113.052 2.83021 3.04749 0
M  V30 1179 H 111.629 1.07506 3.57067 0
M  V30 1180 N 113.814 -1.1601 1.06675 0
M  V30 1181 C 115.042 -1.90527 0.806667 0
M  V30 1182 C 115.457 -1.77643 -0.639396 0
M  V30 1183 O 114.814 -1.12369 -1.43803 0
M  V30 1184 C 114.865 -3.41106 1.19705 0
M  V30 1185 O 114.586 -3.53608 2.58636 0
M  V30 1186 C 116.087 -4.32663 0.965266 0
M  V30 1187 H 113.307 -0.604053 0.292166 0
M  V30 1188 H 115.851 -1.47026 1.4214 0
M  V30 1189 H 114.006 -3.82296 0.626774 0
M  V30 1190 H 114.42 -4.47011 2.74375 0
M  V30 1191 H 115.894 -5.36763 1.288 0
M  V30 1192 H 116.371 -4.39089 -0.0987936 0
M  V30 1193 H 116.977 -3.97206 1.52011 0
M  V30 1194 N 115.292 -0.849877 -1.32721 0
M  V30 1195 C 116.242 -0.262892 -2.26479 0
M  V30 1196 C 117.226 0.588493 -1.49752 0
M  V30 1197 O 118.418 0.438659 -1.71478 0
M  V30 1198 C 115.547 0.551818 -3.38836 0
M  V30 1199 C 114.633 -0.311689 -4.22953 0
M  V30 1200 N 115.024 -1.39567 -4.86163 0
M  V30 1201 C 113.322 -0.100611 -4.45887 0
M  V30 1202 C 114.023 -1.92651 -5.48872 0
M  V30 1203 N 112.999 -1.22637 -5.29586 0
M  V30 1204 H 116.801 -1.09166 -2.72873 0
M  V30 1205 H 114.315 -0.695486 -1.46754 0
M  V30 1206 H 116.312 0.988713 -4.05006 0
M  V30 1207 H 114.972 1.37844 -2.93988 0
M  V30 1208 H 115.983 -1.77859 -4.86402 0
M  V30 1209 H 112.66 0.691681 -4.11731 0
M  V30 1210 H 114.05 -2.83487 -6.09167 0
M  V30 1211 N 116.77 1.45427 -0.607355 0
M  V30 1212 C 118.018 2.01841 -0.102253 0
M  V30 1213 C 118.339 1.47832 1.27164 0
M  V30 1214 O 117.609 0.672497 1.83995 0
M  V30 1215 H 116.189 0.746188 -0.0348101 0
M  V30 1216 H 118.851 1.78229 -0.7887 0
M  V30 1217 H 117.947 3.12057 -0.0518585 0
M  V30 1218 N 118.248 0.346503 1.53744 0
M  V30 1219 C 119.178 -0.501193 2.28058 0
M  V30 1220 C 120.159 -1.10014 1.29734 0
M  V30 1221 O 121.344 -1.12097 1.58581 0
M  V30 1222 C 118.474 -1.65078 3.05559 0
M  V30 1223 C 117.428 -1.18003 4.11411 0
M  V30 1224 C 116.754 -2.41837 4.76884 0
M  V30 1225 C 118.054 -0.278394 5.21558 0
M  V30 1226 H 119.748 0.11875 2.99164 0
M  V30 1227 H 117.294 0.0585531 1.43881 0
M  V30 1228 H 119.247 -2.25028 3.56287 0
M  V30 1229 H 117.971 -2.29767 2.32109 0
M  V30 1230 H 116.63 -0.603331 3.61601 0
M  V30 1231 H 116.278 -3.0494 4.00026 0
M  V30 1232 H 115.978 -2.1102 5.48402 0
M  V30 1233 H 117.502 -3.02508 5.30397 0
M  V30 1234 H 118.916 -0.784823 5.67903 0
M  V30 1235 H 117.313 -0.0619707 6.00068 0
M  V30 1236 H 118.383 0.684677 4.80042 0
M  V30 1237 N 119.726 -1.57421 0.075193 0
M  V30 1238 C 120.658 -2.09904 -0.920483 0
M  V30 1239 C 121.671 -1.03191 -1.25918 0
M  V30 1240 O 122.86 -1.30695 -1.21577 0
M  V30 1241 C 119.96 -2.54726 -2.23534 0
M  V30 1242 C 119.133 -3.8505 -2.07498 0
M  V30 1243 C 118.192 -4.15929 -3.22319 0
M  V30 1244 O 117.218 -4.85474 -2.9716 0
M  V30 1245 N 118.42 -3.69745 -4.47514 0
M  V30 1246 H 121.185 -2.95954 -0.472359 0
M  V30 1247 H 118.746 -1.61523 -0.110444 0
M  V30 1248 H 120.738 -2.72443 -2.9926 0
M  V30 1249 H 119.308 -1.73795 -2.59835 0
M  V30 1250 H 118.528 -3.76679 -1.16219 0
M  V30 1251 H 119.816 -4.70348 -1.94038 0
M  V30 1252 H 119.214 -3.13569 -4.7084 0
M  V30 1253 H 117.771 -3.92655 -5.20255 0
M  V30 1254 N 121.204 0.198386 -1.56346 0
M  V30 1255 C 122.45 0.916115 -1.81601 0
M  V30 1256 C 122.805 1.81025 -0.651744 0
M  V30 1257 O 122.098 1.88316 0.353229 0
M  V30 1258 C 122.292 1.77031 -3.10475 0
M  V30 1259 C 122.121 0.960365 -4.39326 0
M  V30 1260 C 120.891 0.646093 -5.01152 0
M  V30 1261 C 123.089 0.314628 -5.13337 0
M  V30 1262 N 121.071 -0.182828 -6.13628 0
M  V30 1263 C 122.442 -0.37664 -6.18855 0
M  V30 1264 C 124.497 0.230019 -4.97368 0
M  V30 1265 C 123.2 -1.14445 -7.10137 0
M  V30 1266 C 125.226 -0.524389 -5.89071 0
M  V30 1267 C 124.588 -1.20412 -6.94032 0
M  V30 1268 H 120.687 0.314732 -0.715868 0
M  V30 1269 H 123.271 0.185102 -1.93818 0
M  V30 1270 H 121.442 2.47295 -2.99499 0
M  V30 1271 H 123.174 2.42727 -3.2383 0
M  V30 1272 H 119.929 0.969724 -4.63566 0
M  V30 1273 H 120.353 -0.586802 -6.74452 0
M  V30 1274 H 124.995 0.741184 -4.16253 0
M  V30 1275 H 122.713 -1.66706 -7.90718 0
M  V30 1276 H 126.299 -0.591167 -5.78789 0
M  V30 1277 H 125.179 -1.77853 -7.63766 0
M  V30 1278 N 122.682 1.50554 0.465978 0
M  V30 1279 C 123.929 1.61798 1.21768 0
M  V30 1280 C 124.257 0.320696 1.91838 0
M  V30 1281 O 123.512 -0.693724 1.82992 0
M  V30 1282 C 123.811 2.75152 2.28093 0
M  V30 1283 C 123.477 4.15454 1.75239 0
M  V30 1284 C 122.139 4.53628 1.60546 0
M  V30 1285 C 124.491 5.03121 1.36083 0
M  V30 1286 C 121.819 5.77204 1.05128 0
M  V30 1287 C 124.171 6.27249 0.821056 0
M  V30 1288 C 122.835 6.64221 0.660795 0
M  V30 1289 H 122.105 0.592063 0.445582 0
M  V30 1290 H 124.752 1.84503 0.512927 0
M  V30 1291 H 123.057 2.46556 3.04496 0
M  V30 1292 H 124.754 2.81055 2.86023 0
M  V30 1293 H 121.344 3.85341 1.87644 0
M  V30 1294 H 125.528 4.74257 1.46267 0
M  V30 1295 H 120.784 6.0452 0.91462 0
M  V30 1296 H 124.958 6.94537 0.509018 0
M  V30 1297 H 122.585 7.59854 0.229226 0
M  V30 1298 N 124.16 -0.719506 1.40217 0
M  V30 1299 C 125.571 -1.29848 1.34151 0
M  V30 1300 C 125.922 -1.96196 0.0131349 0
M  V30 1301 O 125.047 -1.973 -0.88892 0
M  V30 1302 C 125.642 -2.36118 2.42968 0
M  V30 1303 C 124.201 -2.8965 2.40374 0
M  V30 1304 C 123.348 -1.63393 2.24049 0
M  V30 1305 H 126.299 -0.51591 1.5008 0
M  V30 1306 H 126.32 -3.16871 2.10649 0
M  V30 1307 H 125.832 -1.878 3.39636 0
M  V30 1308 H 123.933 -3.42208 1.47392 0
M  V30 1309 H 124.046 -3.4171 3.35814 0
M  V30 1310 H 122.41 -1.88312 1.71495 0
M  V30 1311 H 123.193 -1.17104 3.2271 0
M  V30 1312 N 125.638 -1.25649 -0.95132 0
M  V30 1313 C 126.886 -1.10375 -1.69298 0
M  V30 1314 C 127.207 0.355339 -1.91735 0
M  V30 1315 O 126.477 1.25188 -1.50681 0
M  V30 1316 H 125.057 -0.405461 -0.627384 0
M  V30 1317 H 127.719 -1.57823 -1.14358 0
M  V30 1318 H 126.815 -1.61465 -2.67087 0
M  V30 1319 N 127.117 1.15442 -1.07289 0
M  V30 1320 C 128.363 1.86489 -0.796846 0
M  V30 1321 C 128.696 1.82078 0.675371 0
M  V30 1322 O 127.971 1.24346 1.4956 0
M  V30 1323 C 128.254 3.35626 -1.30489 0
M  V30 1324 C 128.107 3.48673 -2.84161 0
M  V30 1325 C 129.426 4.30357 -0.920907 0
M  V30 1326 H 126.545 0.677144 -0.290939 0
M  V30 1327 H 129.187 1.35633 -1.33056 0
M  V30 1328 H 127.337 3.79068 -0.850883 0
M  V30 1329 H 129.009 3.14099 -3.37846 0
M  V30 1330 H 127.252 2.90253 -3.22391 0
M  V30 1331 H 127.923 4.53453 -3.14777 0
M  V30 1332 H 130.399 3.94871 -1.3121 0
M  V30 1333 H 129.275 5.33193 -1.30372 0
M  V30 1334 H 129.536 4.4176 0.173226 0
M  V30 1335 N 128.595 0.856903 1.32268 0
M  V30 1336 C 129.841 0.462069 1.97466 0
M  V30 1337 C 130.174 -0.980298 1.67642 0
M  V30 1338 O 129.449 -1.68824 0.965858 0
M  V30 1339 C 129.732 0.704336 3.53145 0
M  V30 1340 C 129.585 2.19529 3.9259 0
M  V30 1341 C 130.904 0.1622 4.39801 0
M  V30 1342 H 128.023 0.169357 0.717278 0
M  V30 1343 H 130.665 1.07574 1.56614 0
M  V30 1344 H 128.815 0.181999 3.88073 0
M  V30 1345 H 130.487 2.78387 3.67829 0
M  V30 1346 H 128.73 2.67292 3.41668 0
M  V30 1347 H 129.401 2.31549 5.01088 0
M  V30 1348 H 131.877 0.608905 4.11621 0
M  V30 1349 H 130.753 0.361265 5.4771 0
M  V30 1350 H 131.014 -0.935158 4.32096 0
M  V30 1351 N 130.073 -1.45103 0.615059 0
M  V30 1352 C 131.021 -2.32331 -0.111791 0
M  V30 1353 C 132.015 -1.46409 -0.852102 0
M  V30 1354 O 133.221 -1.62849 -0.766821 0
M  V30 1355 H 129.596 -0.749993 -0.0549072 0
M  V30 1356 H 131.567 -2.91407 0.642225 0
M  V30 1357 C 130.316 -3.3015 -1.09071 0
M  V30 1358 H 129.639 -3.96265 -0.530485 0
M  V30 1359 H 131.079 -3.93898 -1.56908 0
M  V30 1360 C 129.538 -2.57875 -2.168 0
M  V30 1361 O 130.068 -2.36567 -3.24652 0
M  V30 1362 N 128.274 -2.17884 -1.92289 0
M  V30 1363 H 127.821 -2.35413 -1.04587 0
M  V30 1364 H 127.779 -1.6985 -2.64572 0
M  V30 1365 N 131.551 -0.354651 -1.53558 0
M  V30 1366 C 132.499 0.512195 -2.26891 0
M  V30 1367 C 133.493 1.09263 -1.29452 0
M  V30 1368 O 134.699 1.03709 -1.47121 0
M  V30 1369 H 131.074 0.183878 -0.729173 0
M  V30 1370 H 133.045 -0.128202 -2.98124 0
M  V30 1371 C 131.794 1.64563 -3.06291 0
M  V30 1372 H 131.117 1.20829 -3.81104 0
M  V30 1373 H 132.557 2.22711 -3.60799 0
M  V30 1374 C 131.016 2.58158 -2.16462 0
M  V30 1375 O 131.546 3.60695 -1.76811 0
M  V30 1376 N 129.752 2.27096 -1.81317 0
M  V30 1377 H 129.299 1.43751 -2.1376 0
M  V30 1378 H 129.257 2.89975 -1.21498 0
M  V30 1379 N 133.029 1.57378 -0.0835403 0
M  V30 1380 C 133.977 2.14602 0.89714 0
M  V30 1381 C 134.971 1.08589 1.30018 0
M  V30 1382 O 136.177 1.26952 1.27606 0
M  V30 1383 H 132.552 0.686346 0.3073 0
M  V30 1384 H 134.523 2.95845 0.38969 0
M  V30 1385 C 133.272 2.73188 2.15089 0
M  V30 1386 H 132.595 3.54442 1.84962 0
M  V30 1387 H 134.035 3.1681 2.81793 0
M  V30 1388 C 132.494 1.68517 2.91725 0
M  V30 1389 O 133.024 1.11718 3.85852 0
M  V30 1390 N 131.23 1.39277 2.55049 0
M  V30 1391 H 130.777 1.85655 1.78577 0
M  V30 1392 H 130.735 0.694791 3.06627 0
M  V30 1393 N 134.507 -0.190092 1.56449 0
M  V30 1394 C 135.47 -1.21925 1.9408 0
M  V30 1395 C 136.47 -1.38176 0.822431 0
M  V30 1396 O 137.66 -1.35903 1.08977 0
M  V30 1397 C 134.792 -2.58773 2.21922 0
M  V30 1398 H 135.985 -0.897464 2.86157 0
M  V30 1399 H 133.538 -0.43181 1.50217 0
M  V30 1400 H 134.273 -2.95998 1.32499 0
M  V30 1401 H 134.058 -2.48348 3.03424 0
M  V30 1402 H 135.548 -3.32978 2.52022 0
M  V30 1403 N 135.985 -1.50799 -0.457987 0
M  V30 1404 C 137.232 -1.62442 -1.20908 0
M  V30 1405 C 137.56 -0.330865 -1.91665 0
M  V30 1406 O 136.815 0.68401 -1.83357 0
M  V30 1407 C 137.114 -2.76358 -2.2663 0
M  V30 1408 C 136.78 -4.16378 -1.73033 0
M  V30 1409 C 135.442 -4.54473 -1.58138 0
M  V30 1410 C 137.794 -5.03836 -1.33413 0
M  V30 1411 C 135.122 -5.77754 -1.02065 0
M  V30 1412 C 137.474 -6.27676 -0.78778 0
M  V30 1413 C 136.138 -6.64562 -0.625561 0
M  V30 1414 H 135.408 -0.594417 -0.442435 0
M  V30 1415 H 138.055 -1.84772 -0.503136 0
M  V30 1416 H 136.36 -2.48167 -3.03184 0
M  V30 1417 H 138.057 -2.82568 -2.84528 0
M  V30 1418 H 134.647 -3.86331 -1.85598 0
M  V30 1419 H 138.831 -4.75026 -1.4375 0
M  V30 1420 H 134.087 -6.04997 -0.882547 0
M  V30 1421 H 138.261 -6.94797 -0.472177 0
M  V30 1422 H 135.888 -7.59965 -0.188926 0
M  V30 1423 N 137.463 0.71206 -1.40597 0
M  V30 1424 C 138.426 1.80785 -1.40888 0
M  V30 1425 C 139.426 1.57937 -0.302103 0
M  V30 1426 O 140.616 1.64913 -0.561182 0
M  V30 1427 C 137.748 3.18927 -1.20409 0
M  V30 1428 H 138.941 1.81924 -2.38419 0
M  V30 1429 H 136.494 0.91805 -1.26497 0
M  V30 1430 H 137.229 3.23436 -0.236522 0
M  V30 1431 H 137.014 3.36911 -2.00582 0
M  V30 1432 H 138.504 3.98949 -1.23408 0
M  V30 1433 N 138.941 1.26152 0.944643 0
M  V30 1434 C 139.904 1.07474 2.0244 0
M  V30 1435 C 140.904 0.0242064 1.60782 0
M  V30 1436 O 142.094 0.267302 1.72137 0
M  V30 1437 C 139.226 0.633956 3.34953 0
M  V30 1438 H 140.419 2.03336 2.20442 0
M  V30 1439 H 137.972 1.087 1.12312 0
M  V30 1440 H 138.707 -0.326811 3.22649 0
M  V30 1441 H 138.492 1.39247 3.66542 0
M  V30 1442 H 139.982 0.52501 4.14287 0
M  V30 1443 N 140.419 -1.14872 1.07899 0
M  V30 1444 C 141.349 -2.2193 0.725887 0
M  V30 1445 C 142.33 -1.67622 -0.28927 0
M  V30 1446 O 143.515 -1.93533 -0.160787 0
M  V30 1447 C 140.645 -3.47061 0.128856 0
M  V30 1448 C 139.599 -4.14363 1.07178 0
M  V30 1449 C 138.925 -5.33636 0.337229 0
M  V30 1450 C 140.225 -4.63492 2.40775 0
M  V30 1451 H 141.919 -2.51724 1.62097 0
M  V30 1452 H 139.465 -1.20991 0.780838 0
M  V30 1453 H 141.418 -4.21199 -0.130147 0
M  V30 1454 H 140.142 -3.16617 -0.80134 0
M  V30 1455 H 138.801 -3.42173 1.3158 0
M  V30 1456 H 138.449 -4.99449 -0.596606 0
M  V30 1457 H 138.149 -5.79609 0.965788 0
M  V30 1458 H 139.673 -6.10539 0.0861567 0
M  V30 1459 H 141.087 -5.2913 2.20669 0
M  V30 1460 H 139.484 -5.20148 2.99276 0
M  V30 1461 H 140.554 -3.78834 3.02676 0
M  V30 1462 N 141.898 -0.863906 -1.31812 0
M  V30 1463 C 143.123 -0.48527 -2.01643 0
M  V30 1464 C 143.548 0.913058 -1.64453 0
M  V30 1465 O 142.906 1.6014 -0.849985 0
M  V30 1466 C 142.954 -0.642625 -3.54828 0
M  V30 1467 O 142.058 0.320659 -4.11151 0
M  V30 1468 H 141.399 -0.193793 -0.635091 0
M  V30 1469 H 143.929 -1.16565 -1.68148 0
M  V30 1470 H 143.939 -0.533628 -4.04495 0
M  V30 1471 H 142.614 -1.66227 -3.81237 0
M  V30 1472 H 141.191 0.167126 -3.72525 0
M  V30 1473 N 143.376 1.44774 -0.622745 0
M  V30 1474 C 144.324 2.32387 0.0994683 0
M  V30 1475 C 145.318 1.46859 0.844326 0
M  V30 1476 O 146.524 1.63254 0.758174 0
M  V30 1477 H 142.899 0.750273 0.0509291 0
M  V30 1478 H 144.87 2.91062 -0.65767 0
M  V30 1479 C 143.619 3.30723 1.07319 0
M  V30 1480 H 142.942 3.96541 0.509462 0
M  V30 1481 H 144.382 3.94725 1.54817 0
M  V30 1482 C 142.841 2.59021 2.15429 0
M  V30 1483 O 143.371 2.38286 3.23393 0
M  V30 1484 N 141.577 2.189 1.91131 0
M  V30 1485 H 141.124 2.35964 1.03337 0
M  V30 1486 H 141.082 1.71251 2.63668 0
M  V30 1487 N 144.854 0.36279 1.53368 0
M  V30 1488 C 146.131 -0.284021 1.93527 0
M  V30 1489 C 146.511 -1.66628 1.29608 0
M  V30 1490 O 145.859 -2.23942 0.45413 0
M  V30 1491 C 146.069 -0.337028 3.47369 0
M  V30 1492 C 147.417 -0.578708 4.20638 0
M  V30 1493 O 148.441 -0.418352 3.53735 0
M  V30 1494 O 147.3 -0.89074 5.39192 0
M  V30 1495 H 144.394 -0.169743 0.809393 0
M  V30 1496 H 146.94 0.41537 1.64538 0
M  V30 1497 H 145.712 0.632217 3.86159 0
M  V30 1498 H 145.335 -1.08243 3.82582 0
M  V30 1499 N 146.332 -1.57332 0.0918853 0
M  V30 1500 C 147.578 -1.95328 -0.567313 0
M  V30 1501 C 147.933 -0.972866 -1.65991 0
M  V30 1502 O 147.226 0.00166256 -1.916 0
M  V30 1503 C 147.42 -3.37689 -1.17051 0
M  V30 1504 C 147.249 -4.49489 -0.137875 0
M  V30 1505 C 146.019 -5.04498 0.284515 0
M  V30 1506 C 148.217 -5.10393 0.63271 0
M  V30 1507 N 146.199 -5.99853 1.30576 0
M  V30 1508 C 147.57 -6.01435 1.50587 0
M  V30 1509 C 149.625 -4.93143 0.68658 0
M  V30 1510 C 148.328 -6.77077 2.42815 0
M  V30 1511 C 150.354 -5.69445 1.59645 0
M  V30 1512 C 149.716 -6.60151 2.45725 0
M  V30 1513 H 145.815 -0.761467 -0.178023 0
M  V30 1514 H 148.399 -1.93924 0.173706 0
M  V30 1515 H 146.57 -3.39793 -1.88136 0
M  V30 1516 H 148.302 -3.62872 -1.79181 0
M  V30 1517 H 145.057 -4.73489 -0.102593 0
M  V30 1518 H 145.481 -6.52231 1.81449 0
M  V30 1519 H 150.123 -4.22785 0.035244 0
M  V30 1520 H 147.841 -7.46699 3.08975 0
M  V30 1521 H 151.427 -5.58112 1.64323 0
M  V30 1522 H 150.307 -7.18159 3.14987 0
M  V30 1523 N 147.81 0.181792 -1.56548 0
M  V30 1524 C 148.758 1.24461 -1.965 0
M  V30 1525 C 149.752 1.464 -0.852261 0
M  V30 1526 O 150.958 1.47103 -1.03733 0
M  V30 1527 H 147.333 0.418138 -0.625031 0
M  V30 1528 H 149.304 0.880714 -2.85107 0
M  V30 1529 C 148.053 2.57891 -2.33212 0
M  V30 1530 H 147.376 2.41829 -3.18369 0
M  V30 1531 H 148.816 3.3097 -2.65019 0
M  V30 1532 C 147.275 3.15871 -1.17163 0
M  V30 1533 O 147.805 3.9913 -0.453708 0
M  V30 1534 N 146.011 2.74808 -0.944936 0
M  V30 1535 H 145.558 2.07205 -1.53049 0
M  V30 1536 H 145.516 3.13939 -0.170286 0
M  V30 1537 N 149.288 1.51039 0.449983 0
M  V30 1538 C 150.513 1.6715 1.22783 0
M  V30 1539 C 150.938 0.363081 1.84563 0
M  V30 1540 O 150.296 -0.675433 1.68249 0
M  V30 1541 C 150.344 2.77985 2.29689 0
M  V30 1542 O 149.448 2.40707 3.34864 0
M  V30 1543 H 148.789 0.557746 0.360299 0
M  V30 1544 H 151.319 1.97535 0.533005 0
M  V30 1545 H 151.329 3.01693 2.74673 0
M  V30 1546 H 150.004 3.72935 1.84098 0
M  V30 1547 H 148.581 2.27523 2.95445 0
M  V30 1548 N 150.766 -0.704594 1.40972 0
M  V30 1549 C 151.714 -1.83994 1.42299 0
M  V30 1550 C 152.708 -1.66684 0.302111 0
M  V30 1551 O 153.914 -1.73655 0.473697 0
M  V30 1552 H 150.289 -0.606171 0.44504 0
M  V30 1553 H 152.26 -1.79992 2.38003 0
M  V30 1554 C 151.009 -3.21946 1.31323 0
M  V30 1555 H 150.332 -3.35878 2.16855 0
M  V30 1556 H 151.772 -4.01491 1.36311 0
M  V30 1557 C 150.231 -3.36891 0.0245977 0
M  V30 1558 O 150.761 -3.90687 -0.934153 0
M  V30 1559 N 148.967 -2.90559 -0.0485243 0
M  V30 1560 H 148.514 -2.46968 0.732419 0
M  V30 1561 H 148.472 -3.00937 -0.910171 0
M  V30 1562 N 152.244 -1.26651 -0.937939 0
M  V30 1563 C 153.49 -1.12553 -1.687 0
M  V30 1564 C 153.823 0.329782 -1.91379 0
M  V30 1565 O 153.098 1.24202 -1.4968 0
M  V30 1566 C 153.381 -1.89862 -3.05981 0
M  V30 1567 C 153.234 -3.43318 -2.90607 0
M  V30 1568 C 154.553 -1.69499 -4.0615 0
M  V30 1569 H 151.672 -0.410257 -0.612257 0
M  V30 1570 H 154.314 -1.55685 -1.08913 0
M  V30 1571 H 152.464 -1.53204 -3.57017 0
M  V30 1572 H 154.136 -3.89747 -2.46769 0
M  V30 1573 H 152.379 -3.70179 -2.26164 0
M  V30 1574 H 153.05 -3.92642 -3.8799 0
M  V30 1575 H 155.526 -2.01442 -3.64088 0
M  V30 1576 H 154.402 -2.26002 -5.00214 0
M  V30 1577 H 154.663 -0.640365 -4.37438 0
M  V30 1578 N 153.722 1.14298 -1.08507 0
M  V30 1579 C 154.971 1.84708 -0.810305 0
M  V30 1580 C 155.284 1.83903 0.666271 0
M  V30 1581 O 156.49 2.50112 1.05624 0
M  V30 1582 C 154.946 3.31572 -1.39957 0
M  V30 1583 C 154.554 3.40791 -2.90801 0
M  V30 1584 C 156.298 4.07087 -1.20334 0
M  V30 1585 C 154.205 4.81872 -3.4286 0
M  V30 1586 H 153.135 0.691985 -0.299454 0
M  V30 1587 H 155.786 1.28841 -1.30661 0
M  V30 1588 H 154.168 3.87183 -0.830976 0
M  V30 1589 H 155.342 2.95225 -3.53806 0
M  V30 1590 H 153.657 2.78732 -3.0935 0
M  V30 1591 H 156.254 5.11225 -1.56693 0
M  V30 1592 H 156.597 4.16054 -0.143237 0
M  V30 1593 H 157.13 3.57779 -1.73893 0
M  V30 1594 H 153.869 4.78094 -4.48449 0
M  V30 1595 H 153.389 5.27972 -2.84615 0
M  V30 1596 H 155.068 5.50765 -3.39509 0
M  V30 1597 N 155.201 0.870884 1.31352 0
M  V30 1598 C 156.617 0.562932 1.49343 0
M  V30 1599 C 156.817 -0.902725 1.80148 0
M  V30 1600 O 155.873 -1.68484 1.88067 0
M  V30 1601 C 157.186 1.46393 2.62659 0
M  V30 1602 C 158.734 1.46607 2.76542 0
M  V30 1603 C 159.209 2.35266 3.92955 0
M  V30 1604 N 160.7 2.33151 4.00243 0
M  V30 1605 C 161.435 2.98471 4.89594 0
M  V30 1606 N 160.931 3.72964 5.8384 0
M  V30 1607 N 162.724 2.87775 4.82848 0
M  V30 1608 H 154.875 1.81923 1.09626 0
M  V30 1609 H 157.138 0.777934 0.541777 0
M  V30 1610 H 156.844 2.50689 2.46674 0
M  V30 1611 H 156.718 1.16314 3.58819 0
M  V30 1612 H 159.105 0.43069 2.9194 0
M  V30 1613 H 159.186 1.8071 1.81046 0
M  V30 1614 H 158.83 3.38881 3.78315 0
M  V30 1615 H 158.76 1.98487 4.87761 0
M  V30 1616 H 161.251 1.79006 3.32814 0
M  V30 1617 H 161.564 4.19932 6.4875 0
M  V30 1618 H 159.909 3.77073 5.83816 0
M  V30 1619 H 163.1 2.29116 4.08195 0
M  V30 1620 H 163.273 3.38961 5.52277 0
M  V30 1621 N 156.679 -1.44442 0.630414 0
M  V30 1622 C 157.609 -2.33418 -0.0618083 0
M  V30 1623 C 158.59 -1.48165 -0.835541 0
M  V30 1624 O 159.775 -1.76886 -0.801564 0
M  V30 1625 C 156.905 -3.31222 -1.04449 0
M  V30 1626 C 155.859 -4.26288 -0.382436 0
M  V30 1627 C 155.185 -5.13954 -1.47497 0
M  V30 1628 C 156.485 -5.1744 0.710865 0
M  V30 1629 H 158.179 -2.91548 0.681184 0
M  V30 1630 H 155.725 -1.40191 0.329026 0
M  V30 1631 H 157.678 -3.92351 -1.53748 0
M  V30 1632 H 156.402 -2.71299 -1.81836 0
M  V30 1633 H 155.061 -3.6649 0.0899054 0
M  V30 1634 H 154.709 -4.50385 -2.2397 0
M  V30 1635 H 154.409 -5.7837 -1.03737 0
M  V30 1636 H 155.933 -5.77955 -1.96979 0
M  V30 1637 H 157.347 -5.72509 0.300996 0
M  V30 1638 H 155.744 -5.90455 1.07156 0
M  V30 1639 H 156.814 -4.58496 1.57829 0
M  V30 1640 N 158.157 -0.370918 -1.53173 0
M  V30 1641 C 159.12 0.460778 -2.24521 0
M  V30 1642 C 160.12 1.00536 -1.25496 0
M  V30 1643 O 161.31 0.890266 -1.49733 0
M  V30 1644 C 158.442 1.64457 -2.98608 0
M  V30 1645 H 159.635 -0.163613 -2.99453 0
M  V30 1646 H 157.188 -0.122699 -1.55818 0
M  V30 1647 H 157.923 2.30691 -2.2793 0
M  V30 1648 H 157.708 1.26099 -3.7127 0
M  V30 1649 H 159.198 2.23384 -3.5283 0
M  V30 1650 N 159.635 1.57281 -0.100228 0
M  V30 1651 C 160.568 2.09976 0.893612 0
M  V30 1652 C 161.546 1.01155 1.27304 0
M  V30 1653 O 162.73 1.28687 1.37739 0
M  V30 1654 C 159.857 2.58098 2.19324 0
M  V30 1655 C 158.903 3.78626 1.96328 0
M  V30 1656 S 159.736 5.21959 1.19662 0
M  V30 1657 C 160.892 5.73435 2.50844 0
M  V30 1658 H 161.125 2.93946 0.44534 0
M  V30 1659 H 158.658 1.53985 0.113167 0
M  V30 1660 H 160.616 2.8648 2.94005 0
M  V30 1661 H 159.277 1.74344 2.61272 0
M  V30 1662 H 158.47 4.10382 2.92579 0
M  V30 1663 H 158.072 3.50763 1.29775 0
M  V30 1664 H 160.364 5.82015 3.46792 0
M  V30 1665 H 161.307 6.7185 2.23659 0
M  V30 1666 H 161.715 5.01395 2.59352 0
M  V30 1667 N 161.113 -0.173488 1.56642 0
M  V30 1668 C 162.343 -0.904781 1.85734 0
M  V30 1669 C 162.751 -1.76431 0.68328 0
M  V30 1670 O 162.094 -1.802 -0.356865 0
M  V30 1671 C 162.156 -1.83382 3.09211 0
M  V30 1672 C 161.82 -1.15411 4.42187 0
M  V30 1673 C 162.817 -0.520609 5.17287 0
M  V30 1674 C 160.502 -1.15151 4.88923 0
M  V30 1675 C 162.496 0.106412 6.37311 0
M  V30 1676 C 160.183 -0.520664 6.08878 0
M  V30 1677 C 161.181 0.107196 6.82916 0
M  V30 1678 O 160.869 0.728102 8.00596 0
M  V30 1679 H 160.601 -0.268408 0.62043 0
M  V30 1680 H 163.155 -0.179096 2.04618 0
M  V30 1681 H 161.385 -2.59976 2.86268 0
M  V30 1682 H 163.074 -2.43476 3.24768 0
M  V30 1683 H 163.84 -0.514606 4.82262 0
M  V30 1684 H 159.719 -1.62961 4.31236 0
M  V30 1685 H 163.263 0.597081 6.9504 0
M  V30 1686 H 159.16 -0.524242 6.43368 0
M  V30 1687 H 159.928 0.627138 8.16094 0
M  V30 1688 N 162.591 -1.51276 -0.441967 0
M  V30 1689 C 163.837 -1.63958 -1.19355 0
M  V30 1690 C 164.17 -0.352543 -1.90973 0
M  V30 1691 O 163.445 0.647627 -1.83401 0
M  V30 1692 C 163.728 -2.83979 -2.21422 0
M  V30 1693 C 163.581 -4.22646 -1.53918 0
M  V30 1694 C 164.9 -2.99521 -3.22451 0
M  V30 1695 H 162.019 -0.596709 -0.432559 0
M  V30 1696 H 164.661 -1.83748 -0.483398 0
M  V30 1697 H 162.811 -2.67237 -2.81987 0
M  V30 1698 H 164.483 -4.51045 -0.967256 0
M  V30 1699 H 162.726 -4.25558 -0.841615 0
M  V30 1700 H 163.397 -5.02609 -2.28229 0
M  V30 1701 H 165.873 -3.14944 -2.71937 0
M  V30 1702 H 164.749 -3.85072 -3.91166 0
M  V30 1703 H 165.01 -2.11391 -3.88287 0
M  V30 1704 N 164.069 0.697108 -1.41344 0
M  V30 1705 C 165.032 1.79281 -1.42797 0
M  V30 1706 C 166.032 1.57607 -0.318837 0
M  V30 1707 O 167.222 1.64309 -0.578642 0
M  V30 1708 C 164.354 3.17632 -1.23785 0
M  V30 1709 H 165.547 1.79385 -2.40335 0
M  V30 1710 H 163.1 0.904582 -1.27464 0
M  V30 1711 H 163.835 3.23167 -0.270814 0
M  V30 1712 H 163.62 3.34765 -2.04144 0
M  V30 1713 H 165.11 3.97617 -1.27633 0
M  V30 1714 N 165.547 1.27147 0.931209 0
M  V30 1715 C 166.457 1.11372 2.06478 0
M  V30 1716 C 167.473 0.044645 1.73943 0
M  V30 1717 O 168.649 0.250417 1.99837 0
M  V30 1718 C 165.714 0.758838 3.38294 0
M  V30 1719 C 164.775 1.90841 3.84549 0
M  V30 1720 C 164.008 1.57036 5.10074 0
M  V30 1721 O 164.231 0.476645 5.68405 0
M  V30 1722 O 163.165 2.40839 5.51616 0
M  V30 1723 H 166.991 2.06493 2.22698 0
M  V30 1724 H 164.576 1.06301 1.04978 0
M  V30 1725 H 166.458 0.574098 4.17471 0
M  V30 1726 H 165.133 -0.162879 3.2329 0
M  V30 1727 H 164.04 2.14819 3.06274 0
M  V30 1728 H 165.373 2.81021 4.04089 0
M  V30 1729 N 167.025 -1.13721 1.09112 0
M  V30 1730 C 168.273 -1.84559 0.823562 0
M  V30 1731 C 168.594 -1.83754 -0.652658 0
M  V30 1732 O 167.864 -1.29102 -1.47342 0
M  V30 1733 H 166.444 -0.683376 0.301673 0
M  V30 1734 H 169.106 -1.37771 1.37859 0
M  V30 1735 H 168.202 -2.8917 1.17419 0
M  V30 1736 N 168.503 -0.877838 -1.30888 0
M  V30 1737 C 169.751 -0.491723 -1.96027 0
M  V30 1738 C 170.072 0.960827 -1.69685 0
M  V30 1739 O 169.342 1.67462 -1.01654 0
M  V30 1740 H 167.922 -0.17885 -0.725273 0
M  V30 1741 H 170.584 -1.11935 -1.59551 0
M  V30 1742 H 169.68 -0.656016 -3.05128 0
M  V30 1743 N 169.982 1.44106 -0.638065 0
M  V30 1744 C 171.212 2.06037 -0.152394 0
M  V30 1745 C 171.62 1.47808 1.18108 0
M  V30 1746 O 170.963 0.598092 1.73691 0
M  V30 1747 C 171.025 3.59488 0.0293714 0
M  V30 1748 C 170.689 4.4022 -1.22702 0
M  V30 1749 C 171.686 4.73256 -2.15232 0
M  V30 1750 C 169.371 4.8048 -1.46437 0
M  V30 1751 C 171.365 5.45444 -3.29802 0
M  V30 1752 C 169.052 5.52417 -2.61303 0
M  V30 1753 C 170.05 5.84819 -3.52811 0
M  V30 1754 O 169.738 6.55289 -4.65673 0
M  V30 1755 H 169.47 0.671233 -0.0801401 0
M  V30 1756 H 172.024 1.85851 -0.874563 0
M  V30 1757 H 170.254 3.78191 0.806758 0
M  V30 1758 H 171.943 4.03164 0.470475 0
M  V30 1759 H 172.709 4.42684 -1.98131 0
M  V30 1760 H 168.588 4.54676 -0.760977 0
M  V30 1761 H 172.132 5.70653 -4.01249 0
M  V30 1762 H 168.029 5.82404 -2.78344 0
M  V30 1763 H 168.797 6.73762 -4.64744 0
M  V30 1764 N 171.46 0.379036 1.52974 0
M  V30 1765 C 172.423 -0.448865 2.24762 0
M  V30 1766 C 173.423 -0.998689 1.26027 0
M  V30 1767 O 174.613 -0.882313 1.50203 0
M  V30 1768 C 171.745 -1.62872 2.99476 0
M  V30 1769 H 172.938 0.179491 2.99362 0
M  V30 1770 H 170.491 0.13096 1.5575 0
M  V30 1771 H 171.226 -2.29479 2.29151 0
M  V30 1772 H 171.011 -1.24128 3.71934 0
M  V30 1773 H 172.501 -2.2151 3.5401 0
M  V30 1774 N 172.938 -1.57226 0.108567 0
M  V30 1775 C 174.166 -1.99179 -0.559954 0
M  V30 1776 C 174.581 -0.988022 -1.60884 0
M  V30 1777 O 173.938 0.0205512 -1.82488 0
M  V30 1778 C 173.989 -3.41159 -1.19552 0
M  V30 1779 O 173.71 -4.37694 -0.188577 0
M  V30 1780 C 175.211 -3.98188 -1.94837 0
M  V30 1781 H 172.431 -0.654228 -0.149088 0
M  V30 1782 H 174.975 -2.03598 0.19183 0
M  V30 1783 H 173.13 -3.37711 -1.89815 0
M  V30 1784 H 173.544 -5.20469 -0.649014 0
M  V30 1785 H 175.018 -4.99644 -2.34648 0
M  V30 1786 H 175.495 -3.3675 -2.81951 0
M  V30 1787 H 176.101 -4.0515 -1.2936 0
M  V30 1788 N 174.416 0.165178 -1.56732 0
M  V30 1789 C 175.364 1.22369 -1.97809 0
M  V30 1790 C 176.358 1.45488 -0.867741 0
M  V30 1791 O 177.564 1.45995 -1.05288 0
M  V30 1792 H 173.939 0.411486 -0.629431 0
M  V30 1793 H 175.91 0.850425 -2.86025 0
M  V30 1794 C 174.659 2.55403 -2.35934 0
M  V30 1795 H 173.982 2.38438 -3.20916 0
M  V30 1796 H 175.422 3.2814 -2.68514 0
M  V30 1797 C 173.881 3.14611 -1.20506 0
M  V30 1798 O 174.411 3.98626 -0.496016 0
M  V30 1799 N 172.617 2.7379 -0.97403 0
M  V30 1800 H 172.164 2.0557 -1.55238 0
M  V30 1801 H 172.122 3.1374 -0.203573 0
M  V30 1802 N 175.894 1.51508 0.433938 0
M  V30 1803 C 177.305 1.56784 1.01369 0
M  V30 1804 C 177.656 0.393349 1.92217 0
M  V30 1805 O 176.781 -0.489441 2.10792 0
M  V30 1806 C 177.376 2.84144 1.8452 0
M  V30 1807 C 175.935 2.9198 2.37539 0
M  V30 1808 C 175.082 2.51482 1.16843 0
M  V30 1809 H 178.033 1.57236 0.215081 0
M  V30 1810 H 178.054 2.68098 2.70007 0
M  V30 1811 H 177.566 3.69607 1.18373 0
M  V30 1812 H 175.667 2.10955 3.0713 0
M  V30 1813 H 175.78 3.95704 2.70103 0
M  V30 1814 H 174.144 2.04758 1.51481 0
M  V30 1815 H 174.927 3.39293 0.523015 0
M  V30 1816 N 177.372 -0.689602 1.41712 0
M  V30 1817 C 178.597 -1.48329 1.44959 0
M  V30 1818 C 179.022 -1.8801 0.0581283 0
M  V30 1819 O 178.38 -1.55026 -0.940035 0
M  V30 1820 C 178.428 -2.71835 2.36935 0
M  V30 1821 O 177.532 -3.69549 1.8305 0
M  V30 1822 H 176.873 -0.446199 0.491734 0
M  V30 1823 H 179.403 -0.847127 1.86239 0
M  V30 1824 H 179.413 -3.20076 2.53013 0
M  V30 1825 H 178.088 -2.42291 3.38035 0
M  V30 1826 H 176.665 -3.2851 1.76452 0
M  V30 1827 N 178.85 -1.27639 -0.924453 0
M  V30 1828 C 180.096 -1.14336 -1.67497 0
M  V30 1829 C 180.429 0.309465 -1.91718 0
M  V30 1830 O 179.704 1.22608 -1.50989 0
M  V30 1831 C 179.987 -1.93096 -3.0395 0
M  V30 1832 C 179.84 -3.46381 -2.8695 0
M  V30 1833 C 181.159 -1.73798 -4.0433 0
M  V30 1834 H 178.278 -0.416728 -0.607871 0
M  V30 1835 H 180.92 -1.56832 -1.07256 0
M  V30 1836 H 179.07 -1.56982 -3.55372 0
M  V30 1837 H 180.742 -3.92343 -2.42621 0
M  V30 1838 H 178.985 -3.72557 -2.22225 0
M  V30 1839 H 179.656 -3.96735 -3.83804 0
M  V30 1840 H 182.132 -2.05293 -3.61931 0
M  V30 1841 H 181.008 -2.31294 -4.97789 0
M  V30 1842 H 181.269 -0.686725 -4.36734 0
M  V30 1843 N 180.328 1.1314 -1.09713 0
M  V30 1844 C 181.275 2.18642 -0.739196 0
M  V30 1845 C 182.245 1.63706 0.280978 0
M  V30 1846 O 183.43 1.90111 0.161946 0
M  V30 1847 C 180.57 3.44685 -0.169102 0
M  V30 1848 C 179.683 4.13711 -1.24367 0
M  V30 1849 C 178.818 5.27379 -0.636019 0
M  V30 1850 C 177.857 5.88259 -1.69169 0
M  V30 1851 N 176.994 6.93352 -1.10485 0
M  V30 1852 H 181.834 2.48607 -1.64312 0
M  V30 1853 H 179.371 1.22066 -0.820875 0
M  V30 1854 H 181.329 4.16815 0.179256 0
M  V30 1855 H 179.959 3.15161 0.698079 0
M  V30 1856 H 179.011 3.39835 -1.70927 0
M  V30 1857 H 180.323 4.55037 -2.04311 0
M  V30 1858 H 179.477 6.06238 -0.236677 0
M  V30 1859 H 178.216 4.8731 0.194928 0
M  V30 1860 H 177.221 5.08092 -2.10055 0
M  V30 1861 H 178.446 6.30399 -2.52536 0
M  V30 1862 H 176.392 6.55335 -0.295234 0
M  V30 1863 H 176.309 7.33236 -1.84121 0
M  V30 1864 H 177.577 7.76057 -0.73181 0
M  V30 1865 N 181.806 0.884767 1.30421 0
M  V30 1866 C 182.738 0.308655 2.27112 0
M  V30 1867 C 183.751 -0.536655 1.53701 0
M  V30 1868 O 184.94 -0.35624 1.74909 0
M  V30 1869 C 182.04 -0.579782 3.33904 0
M  V30 1870 C 181.213 0.236417 4.36761 0
M  V30 1871 C 180.272 -0.582482 5.22966 0
M  V30 1872 O 179.298 -0.00525502 5.692 0
M  V30 1873 N 180.5 -1.89163 5.48815 0
M  V30 1874 H 183.265 1.13964 2.77186 0
M  V30 1875 H 180.826 0.747731 1.43599 0
M  V30 1876 H 182.818 -1.13366 3.88497 0
M  V30 1877 H 181.388 -1.31144 2.83761 0
M  V30 1878 H 180.608 0.97174 3.82035 0
M  V30 1879 H 181.896 0.795924 5.02536 0
M  V30 1880 H 181.294 -2.38352 5.13035 0
M  V30 1881 H 179.851 -2.39296 6.06284 0
M  V30 1882 N 183.284 -1.43765 0.645699 0
M  V30 1883 C 184.512 -2.06253 0.163556 0
M  V30 1884 C 184.927 -1.48352 -1.16778 0
M  V30 1885 O 184.284 -0.611932 -1.71935 0
M  V30 1886 C 184.335 -3.61453 0.0583186 0
M  V30 1887 O 184.056 -4.172 1.33702 0
M  V30 1888 C 185.557 -4.41002 -0.450795 0
M  V30 1889 H 182.777 -0.665413 0.0864077 0
M  V30 1890 H 185.321 -1.84396 0.884222 0
M  V30 1891 H 183.476 -3.82522 -0.612865 0
M  V30 1892 H 183.89 -5.10791 1.19131 0
M  V30 1893 H 185.364 -5.49966 -0.473403 0
M  V30 1894 H 185.841 -4.13488 -1.48068 0
M  V30 1895 H 186.447 -4.24886 0.187637 0
M  V30 1896 N 184.763 -0.387143 -1.52771 0
M  V30 1897 C 186.009 0.196025 -2.0185 0
M  V30 1898 C 186.342 1.46641 -1.27319 0
M  V30 1899 O 185.617 1.90889 -0.373032 0
M  V30 1900 C 185.9 0.466136 -3.5707 0
M  V30 1901 C 185.753 -0.819385 -4.42274 0
M  V30 1902 C 187.072 1.25768 -4.21747 0
M  V30 1903 H 184.191 0.0697708 -0.73369 0
M  V30 1904 H 186.833 -0.516286 -1.82851 0
M  V30 1905 H 184.983 1.07293 -3.7339 0
M  V30 1906 H 186.655 -1.4563 -4.37709 0
M  V30 1907 H 184.898 -1.43517 -4.09372 0
M  V30 1908 H 185.569 -0.585065 -5.48891 0
M  V30 1909 H 188.045 0.744167 -4.09391 0
M  V30 1910 H 186.921 1.41541 -5.30337 0
M  V30 1911 H 187.182 2.27228 -3.79236 0
M  V30 1912 N 186.241 1.57166 -0.116904 0
M  V30 1913 C 187.49 1.94298 0.541407 0
M  V30 1914 C 187.803 1.00236 1.67964 0
M  V30 1915 O 189.009 1.26826 2.40057 0
M  V30 1916 C 187.465 3.45306 1.01449 0
M  V30 1917 C 187.073 4.47899 -0.0951738 0
M  V30 1918 C 188.817 3.91361 1.6443 0
M  V30 1919 C 186.724 5.90083 0.394491 0
M  V30 1920 H 185.654 0.725308 0.206019 0
M  V30 1921 H 188.305 1.82446 -0.196419 0
M  V30 1922 H 186.687 3.52385 1.80667 0
M  V30 1923 H 187.861 4.52486 -0.871374 0
M  V30 1924 H 186.176 4.11583 -0.631505 0
M  V30 1925 H 188.773 4.95004 2.02176 0
M  V30 1926 H 189.116 3.3122 2.52189 0
M  V30 1927 H 189.649 3.87073 0.917559 0
M  V30 1928 H 186.388 6.53974 -0.447004 0
M  V30 1929 H 185.908 5.88921 1.13722 0
M  V30 1930 H 187.587 6.41307 0.856399 0
M  V30 1931 N 187.719 -0.156864 1.56817 0
M  V30 1932 C 188.667 -1.21319 1.98455 0
M  V30 1933 C 189.661 -1.45025 0.875444 0
M  V30 1934 O 190.867 -1.45435 1.0606 0
M  V30 1935 H 187.242 -0.408142 0.631605 0
M  V30 1936 H 189.213 -0.835244 2.86472 0
M  V30 1937 C 187.962 -2.54148 2.37285 0
M  V30 1938 H 187.285 -2.36733 3.22176 0
M  V30 1939 H 188.725 -3.26712 2.70251 0
M  V30 1940 C 187.184 -3.13967 1.22173 0
M  V30 1941 O 187.714 -3.98357 0.517149 0
M  V30 1942 N 185.92 -2.7327 0.988536 0
M  V30 1943 H 185.467 -2.04744 1.56326 0
M  V30 1944 H 185.425 -3.13628 0.220209 0
M  V30 1945 N 189.197 -1.51736 -0.425897 0
M  V30 1946 C 190.445 -1.64644 -1.17204 0
M  V30 1947 C 190.766 -0.370486 -1.91448 0
M  V30 1948 O 190.036 0.614088 -1.86026 0
M  V30 1949 H 188.616 -0.606819 -0.435638 0
M  V30 1950 H 191.278 -1.88713 -0.487177 0
M  V30 1951 H 190.374 -2.47958 -1.89534 0
M  V30 1952 N 190.675 0.682077 -1.42076 0
M  V30 1953 C 191.924 1.43786 -1.41451 0
M  V30 1954 C 192.237 1.95574 -0.0317074 0
M  V30 1955 O 193.443 2.71326 0.0971462 0
M  V30 1956 C 191.899 2.60071 -2.48779 0
M  V30 1957 C 191.507 2.15013 -3.93031 0
M  V30 1958 C 193.251 3.37626 -2.57311 0
M  V30 1959 C 191.158 3.28336 -4.91883 0
M  V30 1960 H 190.088 0.540143 -0.526082 0
M  V30 1961 H 192.739 0.739157 -1.67955 0
M  V30 1962 H 191.121 3.32275 -2.15429 0
M  V30 1963 H 192.295 1.5001 -4.35699 0
M  V30 1964 H 190.61 1.50416 -3.88284 0
M  V30 1965 H 193.207 4.22012 -3.28345 0
M  V30 1966 H 193.55 3.83727 -1.61429 0
M  V30 1967 H 194.083 2.72488 -2.89819 0
M  V30 1968 H 190.822 2.87234 -5.89217 0
M  V30 1969 H 190.342 3.92145 -4.53853 0
M  V30 1970 H 192.021 3.93913 -5.13265 0
M  V30 1971 N 192.153 1.28127 0.917671 0
M  V30 1972 C 193.101 1.11569 2.04096 0
M  V30 1973 C 194.095 0.0360242 1.69362 0
M  V30 1974 O 195.301 0.194501 1.78946 0
M  V30 1975 H 191.676 0.344097 0.668656 0
M  V30 1976 H 193.647 2.06711 2.15205 0
M  V30 1977 C 192.396 0.790197 3.38602 0
M  V30 1978 H 191.719 1.61293 3.6582 0
M  V30 1979 H 193.159 0.714271 4.1794 0
M  V30 1980 C 191.618 -0.505897 3.3308 0
M  V30 1981 O 192.148 -1.53736 3.71117 0
M  V30 1982 N 190.354 -0.505193 2.86175 0
M  V30 1983 H 189.901 0.334621 2.55417 0
M  V30 1984 H 189.859 -1.37243 2.82863 0
M  V30 1985 N 193.631 -1.12557 1.10312 0
M  V30 1986 C 194.861 -1.87592 0.865617 0
M  V30 1987 C 195.269 -1.79851 -0.587389 0
M  V30 1988 O 194.612 -1.16949 -1.41664 0
M  V30 1989 C 194.674 -3.37665 1.23381 0
M  V30 1990 C 194.338 -3.69181 2.69359 0
M  V30 1991 C 195.335 -3.67652 3.67597 0
M  V30 1992 C 193.02 -3.98555 3.05711 0
M  V30 1993 C 195.014 -3.95053 5.00212 0
M  V30 1994 C 192.701 -4.25616 4.38514 0
M  V30 1995 C 193.699 -4.23851 5.35574 0
M  V30 1996 O 193.387 -4.50242 6.65986 0
M  V30 1997 H 193.119 -0.600442 0.310557 0
M  V30 1998 H 195.673 -1.4335 1.47105 0
M  V30 1999 H 193.903 -3.82454 0.571467 0
M  V30 2000 H 195.592 -3.94041 0.973994 0
M  V30 2001 H 196.358 -3.45024 3.40857 0
M  V30 2002 H 192.237 -3.99071 2.30789 0
M  V30 2003 H 195.781 -3.93591 5.75962 0
M  V30 2004 H 191.678 -4.47718 4.64994 0
M  V30 2005 H 192.446 -4.67867 6.71597 0
M  V30 2006 N 195.109 -0.891671 -1.2995 0
M  V30 2007 C 196.072 -0.36828 -2.26222 0
M  V30 2008 C 197.072 0.493014 -1.53056 0
M  V30 2009 O 198.262 0.299213 -1.71611 0
M  V30 2010 C 195.394 0.47442 -3.37583 0
M  V30 2011 H 196.587 -1.21844 -2.74033 0
M  V30 2012 H 194.14 -0.669107 -1.41254 0
M  V30 2013 H 194.875 1.34489 -2.95099 0
M  V30 2014 H 194.66 -0.142615 -3.91841 0
M  V30 2015 H 196.15 0.83218 -4.09224 0
M  V30 2016 N 196.587 1.43421 -0.653314 0
M  V30 2017 C 197.836 2.01032 -0.164076 0
M  V30 2018 C 198.149 1.52147 1.22926 0
M  V30 2019 O 199.355 2.02031 1.81371 0
M  V30 2020 C 197.811 3.59082 -0.24252 0
M  V30 2021 C 197.419 4.1696 -1.63855 0
M  V30 2022 C 199.163 4.24079 0.18911 0
M  V30 2023 C 197.07 5.67304 -1.67092 0
M  V30 2024 H 196 0.751798 -0.0575769 0
M  V30 2025 H 198.651 1.6439 -0.815362 0
M  V30 2026 H 197.033 3.93125 0.476276 0
M  V30 2027 H 198.207 3.94416 -2.38271 0
M  V30 2028 H 196.522 3.64335 -2.01616 0
M  V30 2029 H 199.119 5.34381 0.184775 0
M  V30 2030 H 199.462 3.98005 1.22056 0
M  V30 2031 H 199.995 3.94918 -0.477938 0
M  V30 2032 H 196.734 5.98145 -2.68146 0
M  V30 2033 H 196.254 5.91904 -0.970014 0
M  V30 2034 H 197.933 6.31344 -1.4147 0
M  V30 2035 N 198.065 0.39524 1.52563 0
M  V30 2036 C 199.028 -0.425001 2.25225 0
M  V30 2037 C 200.028 -0.985266 1.27079 0
M  V30 2038 O 201.218 -0.866332 1.5113 0
M  V30 2039 C 198.35 -1.59686 3.01186 0
M  V30 2040 H 199.543 0.211233 2.99155 0
M  V30 2041 H 197.096 0.147472 1.55603 0
M  V30 2042 H 197.831 -2.27035 2.31572 0
M  V30 2043 H 197.616 -1.20176 3.73229 0
M  V30 2044 H 199.106 -2.17743 3.5634 0
M  V30 2045 N 199.544 -1.57102 0.125237 0
M  V30 2046 C 200.492 -2.16905 -0.839927 0
M  V30 2047 C 201.486 -1.11998 -1.27094 0
M  V30 2048 O 202.692 -1.3029 -1.24195 0
M  V30 2049 H 199.067 -0.694252 -0.288995 0
M  V30 2050 H 201.038 -2.96774 -0.311115 0
M  V30 2051 C 199.787 -2.78795 -2.07771 0
M  V30 2052 H 199.11 -3.59221 -1.755 0
M  V30 2053 H 200.55 -3.2417 -2.73295 0
M  V30 2054 C 199.009 -1.76193 -2.87155 0
M  V30 2055 O 199.539 -1.21909 -3.82755 0
M  V30 2056 N 197.745 -1.45991 -2.51267 0
M  V30 2057 H 197.292 -1.90325 -1.73592 0
M  V30 2058 H 197.25 -0.775844 -3.04677 0
M  V30 2059 N 201.022 0.148545 -1.56898 0
M  V30 2060 C 202.299 0.890019 -1.74178 0
M  V30 2061 C 202.679 1.99407 -0.692839 0
M  V30 2062 O 202.027 2.26671 0.288505 0
M  V30 2063 C 202.237 1.43389 -3.18183 0
M  V30 2064 C 203.585 1.89791 -3.79822 0
M  V30 2065 O 204.609 1.53134 -3.21603 0
M  V30 2066 O 203.468 2.57387 -4.82093 0
M  V30 2067 H 200.562 0.420496 -0.712118 0
M  V30 2068 H 203.108 0.134591 -1.69165 0
M  V30 2069 H 201.88 0.640383 -3.86024 0
M  V30 2070 H 201.503 2.25287 -3.27615 0
M  V30 2071 N 202.5 1.5196 0.417844 0
M  V30 2072 C 203.433 1.69387 1.52916 0
M  V30 2073 C 204.411 0.541419 1.53321 0
M  V30 2074 O 205.595 0.767695 1.72159 0
M  V30 2075 C 202.722 1.72525 2.91467 0
M  V30 2076 C 201.768 2.93967 3.09008 0
M  V30 2077 S 202.601 4.54461 2.83242 0
M  V30 2078 C 203.757 4.60372 4.24038 0
M  V30 2079 H 203.99 2.63382 1.37903 0
M  V30 2080 H 201.523 1.41889 0.608845 0
M  V30 2081 H 203.481 1.75018 3.7132 0
M  V30 2082 H 202.142 0.796733 3.03827 0
M  V30 2083 H 201.335 2.92619 4.10353 0
M  V30 2084 H 200.937 2.89316 2.37007 0
M  V30 2085 H 203.229 4.37213 5.17544 0
M  V30 2086 H 204.172 5.62273 4.30412 0
M  V30 2087 H 204.58 3.89492 4.08602 0
M  V30 2088 N 203.978 -0.674533 1.42435 0
M  V30 2089 C 205.208 -1.46071 1.46105 0
M  V30 2090 C 205.616 -1.89067 0.0709605 0
M  V30 2091 O 204.959 -1.58731 -0.924677 0
M  V30 2092 C 205.021 -2.74145 2.32561 0
M  V30 2093 C 204.685 -2.53224 3.8043 0
M  V30 2094 C 205.682 -2.17809 4.72075 0
M  V30 2095 C 203.367 -2.6821 4.24698 0
M  V30 2096 C 205.361 -1.97648 6.05982 0
M  V30 2097 C 203.048 -2.47665 5.58664 0
M  V30 2098 C 204.046 -2.12437 6.49122 0
M  V30 2099 O 203.734 -1.9209 7.80613 0
M  V30 2100 H 203.466 -0.455959 0.499076 0
M  V30 2101 H 206.02 -0.836193 1.87609 0
M  V30 2102 H 204.25 -3.3908 1.85908 0
M  V30 2103 H 205.939 -3.36028 2.27683 0
M  V30 2104 H 206.705 -2.05826 4.39159 0
M  V30 2105 H 202.584 -2.94609 3.54579 0
M  V30 2106 H 206.128 -1.70075 6.7655 0
M  V30 2107 H 202.025 -2.59244 5.91154 0
M  V30 2108 H 202.793 -2.06686 7.91974 0
M  V30 2109 N 205.456 -1.28612 -0.910864 0
M  V30 2110 C 206.702 -1.16106 -1.66274 0
M  V30 2111 C 207.035 0.289113 -1.92036 0
M  V30 2112 O 206.31 1.21 -1.52281 0
M  V30 2113 C 206.593 -1.96309 -3.01885 0
M  V30 2114 C 206.446 -3.49405 -2.8326 0
M  V30 2115 C 207.765 -1.78076 -4.02463 0
M  V30 2116 H 204.884 -0.423152 -0.603417 0
M  V30 2117 H 207.526 -1.57961 -1.05586 0
M  V30 2118 H 205.676 -1.60742 -3.53687 0
M  V30 2119 H 207.348 -3.94894 -2.38446 0
M  V30 2120 H 205.591 -3.74893 -2.18261 0
M  V30 2121 H 206.262 -4.00784 -3.79574 0
M  V30 2122 H 208.738 -2.0912 -3.59733 0
M  V30 2123 H 207.614 -2.36561 -4.95308 0
M  V30 2124 H 207.875 -0.733008 -4.35981 0
M  V30 2125 N 206.934 1.1197 -1.10907 0
M  V30 2126 C 208.183 1.82947 -0.849302 0
M  V30 2127 C 208.496 1.85275 0.627112 0
M  V30 2128 O 209.702 2.52296 1.00295 0
M  V30 2129 C 208.158 3.28529 -1.46959 0
M  V30 2130 C 207.766 3.34546 -2.97965 0
M  V30 2131 C 209.51 4.04443 -1.28942 0
M  V30 2132 C 207.417 4.74491 -3.53004 0
M  V30 2133 H 206.347 0.685477 -0.314065 0
M  V30 2134 H 208.998 1.2604 -1.33365 0
M  V30 2135 H 207.38 3.85333 -0.912917 0
M  V30 2136 H 208.554 2.87654 -3.59989 0
M  V30 2137 H 206.869 2.72108 -3.15192 0
M  V30 2138 H 209.466 5.07787 -1.67502 0
M  V30 2139 H 209.809 4.15656 -0.231456 0
M  V30 2140 H 210.342 3.5401 -1.81443 0
M  V30 2141 H 207.081 4.68474 -4.58489 0
M  V30 2142 H 206.601 5.21816 -2.9575 0
M  V30 2143 H 208.28 5.4344 -3.51115 0
M  V30 2144 N 208.412 0.89855 1.29475 0
M  V30 2145 C 209.658 0.524658 1.95896 0
M  V30 2146 C 209.991 -0.926468 1.70676 0
M  V30 2147 O 209.266 -1.65665 1.01908 0
M  V30 2148 C 209.549 0.81633 3.50725 0
M  V30 2149 C 209.402 2.31907 3.85408 0
M  V30 2150 C 210.721 0.302038 4.39062 0
M  V30 2151 H 207.84 0.19209 0.711527 0
M  V30 2152 H 210.482 1.12502 1.53112 0
M  V30 2153 H 208.632 0.305369 3.87298 0
M  V30 2154 H 210.304 2.89949 3.58786 0
M  V30 2155 H 208.547 2.78027 3.32992 0
M  V30 2156 H 209.218 2.47373 4.93468 0
M  V30 2157 H 211.694 0.739551 4.09475 0
M  V30 2158 H 210.57 0.535331 5.46283 0
M  V30 2159 H 210.831 -0.797216 4.34853 0
M  V30 2160 N 209.89 -1.43072 0.660911 0
M  V30 2161 C 211.167 -1.95307 0.107017 0
M  V30 2162 C 211.547 -1.60192 -1.37484 0
M  V30 2163 O 210.895 -0.890949 -2.10415 0
M  V30 2164 C 211.105 -3.47124 0.361402 0
M  V30 2165 C 212.453 -4.23738 0.270455 0
M  V30 2166 O 213.477 -3.54981 0.294382 0
M  V30 2167 O 212.336 -5.46131 0.200737 0
M  V30 2168 H 209.43 -0.826984 -0.00517729 0
M  V30 2169 H 211.976 -1.52972 0.734681 0
M  V30 2170 H 210.748 -3.65837 1.38848 0
M  V30 2171 H 210.371 -3.96475 -0.298953 0
M  V30 2172 N 211.368 -0.403325 -1.52352 0
M  V30 2173 C 212.614 0.167015 -2.02713 0
M  V30 2174 C 212.969 1.43296 -1.28391 0
M  V30 2175 O 212.262 1.87796 -0.379885 0
M  V30 2176 C 212.456 0.474665 -3.54234 0
M  V30 2177 C 212.285 -0.759909 -4.43233 0
M  V30 2178 C 211.055 -1.28338 -4.88731 0
M  V30 2179 C 213.253 -1.63634 -4.87574 0
M  V30 2180 N 211.235 -2.47404 -5.6184 0
M  V30 2181 C 212.606 -2.67329 -5.59406 0
M  V30 2182 C 214.661 -1.65478 -4.69597 0
M  V30 2183 C 213.364 -3.72773 -6.15169 0
M  V30 2184 C 215.39 -2.69837 -5.26253 0
M  V30 2185 C 214.752 -3.72253 -5.98002 0
M  V30 2186 H 210.851 0.0228343 -0.781667 0
M  V30 2187 H 213.435 -0.556368 -1.86581 0
M  V30 2188 H 211.606 1.16709 -3.7045 0
M  V30 2189 H 213.338 1.03338 -3.91284 0
M  V30 2190 H 210.093 -0.842273 -4.6605 0
M  V30 2191 H 210.517 -3.07688 -6.0304 0
M  V30 2192 H 215.159 -0.876389 -4.13617 0
M  V30 2193 H 212.877 -4.51471 -6.70223 0
M  V30 2194 H 216.463 -2.72164 -5.14216 0
M  V30 2195 H 215.343 -4.51679 -6.41058 0
M  V30 2196 N 212.846 1.57033 -0.133567 0
M  V30 2197 C 213.796 2.12641 0.822671 0
M  V30 2198 C 214.78 1.05081 1.21847 0
M  V30 2199 O 215.972 1.31287 1.18713 0
M  V30 2200 C 213.101 2.74094 2.06706 0
M  V30 2201 C 212.187 3.88757 1.69497 0
M  V30 2202 N 212.578 4.95194 1.03037 0
M  V30 2203 C 210.876 3.99213 1.98859 0
M  V30 2204 C 211.577 5.75414 0.852873 0
M  V30 2205 N 210.553 5.25726 1.3825 0
M  V30 2206 H 214.355 2.92308 0.305537 0
M  V30 2207 H 211.869 1.62256 0.0684276 0
M  V30 2208 H 213.866 3.12285 2.76195 0
M  V30 2209 H 212.526 1.95896 2.5895 0
M  V30 2210 H 213.537 5.13247 0.692669 0
M  V30 2211 H 210.214 3.32075 2.53047 0
M  V30 2212 H 211.604 6.71089 0.330091 0
M  V30 2213 N 214.325 -0.140222 1.56975 0
M  V30 2214 C 215.258 -1.20266 1.93936 0
M  V30 2215 C 216.236 -1.41212 0.806099 0
M  V30 2216 O 217.42 -1.55713 1.06234 0
M  V30 2217 C 214.547 -2.56037 2.21726 0
M  V30 2218 C 213.593 -2.51646 3.44349 0
M  V30 2219 S 214.426 -1.97678 4.97678 0
M  V30 2220 C 215.582 -3.35165 5.28597 0
M  V30 2221 H 215.815 -0.887358 2.83749 0
M  V30 2222 H 213.348 -0.346119 1.50471 0
M  V30 2223 H 215.306 -3.34167 2.38416 0
M  V30 2224 H 213.967 -2.84755 1.32566 0
M  V30 2225 H 213.16 -3.51608 3.61092 0
M  V30 2226 H 212.762 -1.81628 3.26936 0
M  V30 2227 H 215.054 -4.31302 5.2248 0
M  V30 2228 H 215.997 -3.23269 6.30002 0
M  V30 2229 H 216.405 -3.32614 4.56101 0
M  V30 2230 N 215.803 -1.52179 -0.40978 0
M  V30 2231 C 216.736 -1.70196 -1.52015 0
M  V30 2232 C 217.714 -0.549542 -1.53032 0
M  V30 2233 O 218.898 -0.776815 -1.71749 0
M  V30 2234 C 216.025 -1.74069 -2.90547 0
M  V30 2235 C 215.071 -2.95601 -3.07445 0
M  V30 2236 S 215.904 -4.55956 -2.80827 0
M  V30 2237 C 217.06 -4.62614 -4.21591 0
M  V30 2238 H 217.293 -2.64109 -1.36504 0
M  V30 2239 H 214.826 -1.4221 -0.601312 0
M  V30 2240 H 216.784 -1.76985 -3.70387 0
M  V30 2241 H 215.445 -0.812835 -3.034 0
M  V30 2242 H 214.638 -2.94791 -4.08796 0
M  V30 2243 H 214.24 -2.90569 -2.35469 0
M  V30 2244 H 216.532 -4.39951 -5.15218 0
M  V30 2245 H 217.475 -5.64548 -4.27424 0
M  V30 2246 H 217.883 -3.91654 -4.06531 0
M  V30 2247 N 217.281 0.66697 -1.42791 0
M  V30 2248 C 218.229 1.80157 -1.47127 0
M  V30 2249 C 219.223 1.65825 -0.346199 0
M  V30 2250 O 220.429 1.72338 -0.519572 0
M  V30 2251 H 216.804 0.594158 -0.460956 0
M  V30 2252 H 218.775 1.73619 -2.42692 0
M  V30 2253 C 217.524 3.18351 -1.39813 0
M  V30 2254 H 216.847 3.3001 -2.25684 0
M  V30 2255 H 218.287 3.97736 -1.46908 0
M  V30 2256 C 216.746 3.36707 -0.11391 0
M  V30 2257 O 217.276 3.93027 0.830241 0
M  V30 2258 N 215.482 2.90586 -0.0285295 0
M  V30 2259 H 215.029 2.4494 -0.79764 0
M  V30 2260 H 214.987 3.03245 0.830063 0
M  V30 2261 N 218.759 1.29093 0.90403 0
M  V30 2262 C 220.17 1.15186 1.46932 0
M  V30 2263 C 220.521 -0.254587 1.94541 0
M  V30 2264 O 219.646 -1.14972 1.83332 0
M  V30 2265 C 220.241 2.08492 2.67051 0
M  V30 2266 C 218.8 1.98621 3.19729 0
M  V30 2267 C 217.947 1.9967 1.92425 0
M  V30 2268 H 220.898 1.41641 0.715789 0
M  V30 2269 H 220.919 1.65461 3.42641 0
M  V30 2270 H 220.431 3.10847 2.3237 0
M  V30 2271 H 218.532 0.993389 3.59114 0
M  V30 2272 H 218.645 2.86068 3.8432 0
M  V30 2273 H 217.009 1.44208 2.09943 0
M  V30 2274 H 217.792 3.03721 1.60026 0
M  V30 2275 N 220.237 -1.11381 1.11499 0
M  V30 2276 C 221.485 -1.8277 0.862524 0
M  V30 2277 C 221.806 -1.85097 -0.613534 0
M  V30 2278 O 221.076 -1.32198 -1.4457 0
M  V30 2279 H 219.656 -0.676823 0.316101 0
M  V30 2280 H 222.318 -1.34816 1.4075 0
M  V30 2281 H 221.414 -2.86614 1.23527 0
M  V30 2282 N 221.715 -0.905404 -1.28997 0
M  V30 2283 C 222.992 -0.453513 -1.9027 0
M  V30 2284 C 223.372 1.06721 -1.82137 0
M  V30 2285 O 222.72 1.91159 -1.25182 0
M  V30 2286 C 222.93 -0.974494 -3.35119 0
M  V30 2287 C 224.278 -1.0216 -4.12127 0
M  V30 2288 O 225.302 -0.922557 -3.44046 0
M  V30 2289 O 224.161 -1.17121 -5.33802 0
M  V30 2290 H 221.255 -0.142347 -0.814657 0
M  V30 2291 H 223.801 -0.995642 -1.37423 0
M  V30 2292 H 222.573 -2.01848 -3.35221 0
M  V30 2293 H 222.196 -0.412706 -3.95452 0
M  V30 2294 N 223.193 1.4272 -0.668489 0
M  V30 2295 C 224.604 1.84793 -0.266151 0
M  V30 2296 C 224.955 1.55959 1.19043 0
M  V30 2297 O 224.08 1.01622 1.91055 0
M  V30 2298 C 224.675 3.35436 -0.476271 0
M  V30 2299 C 223.234 3.76182 -0.128113 0
M  V30 2300 C 222.381 2.66344 -0.771777 0
M  V30 2301 H 225.332 1.32656 -0.871098 0
M  V30 2302 H 225.353 3.79515 0.273561 0
M  V30 2303 H 224.865 3.5639 -1.53647 0
M  V30 2304 H 222.966 3.60836 0.928891 0
M  V30 2305 H 223.079 4.75766 -0.564231 0
M  V30 2306 H 221.443 2.53885 -0.203652 0
M  V30 2307 H 222.226 2.90123 -1.83531 0
M  V30 2308 N 224.671 0.411399 1.52136 0
M  V30 2309 C 225.619 -0.427633 2.28635 0
M  V30 2310 C 226.613 -1.04383 1.33419 0
M  V30 2311 O 227.819 -0.981772 1.50868 0
M  V30 2312 H 224.194 -0.156689 0.735495 0
M  V30 2313 H 226.165 0.238761 2.97443 0
M  V30 2314 C 224.914 -1.53082 3.12188 0
M  V30 2315 H 224.237 -1.06601 3.85326 0
M  V30 2316 H 225.677 -2.09167 3.68816 0
M  V30 2317 C 224.136 -2.49946 2.25895 0
M  V30 2318 O 224.666 -3.53884 1.90076 0
M  V30 2319 N 222.872 -2.2021 1.8962 0
M  V30 2320 H 222.419 -1.35719 2.18948 0
M  V30 2321 H 222.377 -2.85266 1.32176 0
M  V30 2322 N 226.149 -1.5696 0.141893 0
M  V30 2323 C 227.112 -2.15316 -0.785587 0
M  V30 2324 C 228.112 -1.09366 -1.1788 0
M  V30 2325 O 229.302 -1.35031 -1.10056 0
M  V30 2326 C 226.434 -2.71211 -2.06537 0
M  V30 2327 H 227.627 -2.98608 -0.278041 0
M  V30 2328 H 225.18 -1.5593 -0.107519 0
M  V30 2329 H 225.915 -1.91571 -2.6167 0
M  V30 2330 H 225.7 -3.4872 -1.79268 0
M  V30 2331 H 227.19 -3.16189 -2.72789 0
M  V30 2332 N 227.627 0.131896 -1.57047 0
M  V30 2333 C 228.852 0.860418 -1.8871 0
M  V30 2334 C 229.277 1.73251 -0.73251 0
M  V30 2335 O 228.635 1.785 0.317429 0
M  V30 2336 C 228.683 1.68047 -3.19049 0
M  V30 2337 O 227.787 2.7862 -3.04047 0
M  V30 2338 H 227.128 0.238743 -0.619595 0
M  V30 2339 H 229.658 0.118169 -2.04258 0
M  V30 2340 H 229.668 2.07238 -3.51449 0
M  V30 2341 H 228.343 1.04018 -4.02682 0
M  V30 2342 H 226.92 2.42726 -2.83088 0
M  V30 2343 N 229.106 1.52395 0.401703 0
M  V30 2344 C 230.352 1.67065 1.14966 0
M  V30 2345 C 230.685 0.403052 1.89971 0
M  V30 2346 O 229.96 -0.598774 1.85054 0
M  V30 2347 C 230.243 2.8975 2.13815 0
M  V30 2348 C 230.096 4.26578 1.42658 0
M  V30 2349 C 231.415 3.07965 3.14397 0
M  V30 2350 H 228.534 0.607968 0.416587 0
M  V30 2351 H 231.176 1.84965 0.434511 0
M  V30 2352 H 229.326 2.74619 2.74803 0
M  V30 2353 H 230.998 4.53451 0.847329 0
M  V30 2354 H 229.241 4.27639 0.72849 0
M  V30 2355 H 229.912 5.08483 2.14823 0
M  V30 2356 H 232.388 3.22043 2.63491 0
M  V30 2357 H 231.264 3.95308 3.80819 0
M  V30 2358 H 231.525 2.21611 3.82545 0
M  V30 2359 N 230.584 -0.659388 1.43143 0
M  V30 2360 C 231.814 -1.44513 1.47646 0
M  V30 2361 C 232.222 -1.88981 0.0910095 0
M  V30 2362 O 231.565 -1.59702 -0.907789 0
M  V30 2363 C 231.627 -2.71663 2.35456 0
M  V30 2364 C 231.291 -2.49175 3.83094 0
M  V30 2365 C 232.288 -2.1279 4.74359 0
M  V30 2366 C 229.973 -2.63691 4.27519 0
M  V30 2367 C 231.967 -1.9121 6.08044 0
M  V30 2368 C 229.654 -2.41726 5.61259 0
M  V30 2369 C 230.652 -2.0554 6.51339 0
M  V30 2370 O 230.34 -1.838 7.82606 0
M  V30 2371 H 230.072 -0.45064 0.503884 0
M  V30 2372 H 232.626 -0.816248 1.88485 0
M  V30 2373 H 230.856 -3.37089 1.89493 0
M  V30 2374 H 232.545 -3.33595 2.31235 0
M  V30 2375 H 233.311 -2.01157 4.41317 0
M  V30 2376 H 229.19 -2.90832 3.57684 0
M  V30 2377 H 232.734 -1.62889 6.78316 0
M  V30 2378 H 228.631 -2.52959 5.9387 0
M  V30 2379 H 229.399 -1.98275 7.94122 0
M  V30 2380 N 232.062 -1.29571 -0.897171 0
M  V30 2381 C 233.287 -1.20705 -1.68656 0
M  V30 2382 C 233.712 0.228582 -1.86706 0
M  V30 2383 O 233.07 1.16494 -1.3892 0
M  V30 2384 C 233.118 -1.9282 -3.04717 0
M  V30 2385 O 232.222 -1.24697 -3.93096 0
M  V30 2386 H 231.563 -0.418126 -0.515816 0
M  V30 2387 H 234.093 -1.71183 -1.12061 0
M  V30 2388 H 234.103 -2.01372 -3.54843 0
M  V30 2389 H 232.778 -2.97239 -2.90899 0
M  V30 2390 H 231.355 -1.2442 -3.51531 0
M  V30 2391 N 233.54 1.10788 -1.12088 0
M  V30 2392 C 234.788 1.8231 -0.872205 0
M  V30 2393 C 235.109 1.85419 0.603709 0
M  V30 2394 O 234.379 1.32963 1.43867 0
M  V30 2395 H 232.959 0.675137 -0.319686 0
M  V30 2396 H 235.621 1.34068 -1.41463 0
M  V30 2397 H 234.717 2.85955 -1.25045 0
M  V30 2398 N 235.018 0.912232 1.28515 0
M  V30 2399 C 235.981 0.404223 2.25607 0
M  V30 2400 C 236.981 -0.468602 1.53821 0
M  V30 2401 O 238.171 -0.271873 1.72065 0
M  V30 2402 C 235.303 -0.420653 3.38295 0
M  V30 2403 H 236.496 1.26188 2.7206 0
M  V30 2404 H 234.049 0.691495 1.40171 0
M  V30 2405 H 234.784 -1.29777 2.97201 0
M  V30 2406 H 234.569 0.204935 3.91564 0
M  V30 2407 H 236.059 -0.766971 4.10496 0
M  V30 2408 N 236.496 -1.42363 0.676048 0
M  V30 2409 C 237.428 -2.29164 -0.0404605 0
M  V30 2410 C 238.441 -1.43747 -0.764245 0
M  V30 2411 O 239.63 -1.67453 -0.618195 0
M  V30 2412 C 236.73 -3.21196 -1.08103 0
M  V30 2413 C 235.903 -4.35273 -0.430812 0
M  V30 2414 C 234.962 -5.08017 -1.37133 0
M  V30 2415 O 233.988 -5.62494 -0.87116 0
M  V30 2416 N 235.19 -5.13647 -2.70456 0
M  V30 2417 H 237.955 -2.91298 0.704667 0
M  V30 2418 H 235.516 -1.53303 0.520559 0
M  V30 2419 H 237.508 -3.66728 -1.71152 0
M  V30 2420 H 236.078 -2.60505 -1.72788 0
M  V30 2421 H 235.298 -3.92372 0.379209 0
M  V30 2422 H 236.586 -5.08795 0.0221132 0
M  V30 2423 H 235.984 -4.708 -3.1363 0
M  V30 2424 H 234.541 -5.62821 -3.28749 0
M  V30 2425 N 237.974 -0.419461 -1.51915 0
M  V30 2426 C 239.199 0.154572 -2.06823 0
M  V30 2427 C 239.624 1.3722 -1.28656 0
M  V30 2428 O 238.982 1.78461 -0.319583 0
M  V30 2429 C 239.03 0.473172 -3.57482 0
M  V30 2430 O 238.134 1.56255 -3.81652 0
M  V30 2431 H 237.475 0.0096924 -0.663929 0
M  V30 2432 H 240.005 -0.595642 -1.95738 0
M  V30 2433 H 240.015 0.728825 -4.01438 0
M  V30 2434 H 238.69 -0.416873 -4.13805 0
M  V30 2435 H 237.267 1.29825 -3.49571 0
M  V30 2436 N 239.452 1.56882 -0.150215 0
M  V30 2437 C 240.699 1.96228 0.500093 0
M  V30 2438 C 241.027 1.03522 1.64661 0
M  V30 2439 O 240.282 0.0650683 1.95592 0
M  V30 2440 C 240.581 3.41801 1.04437 0
M  V30 2441 C 240.247 4.50897 0.0159671 0
M  V30 2442 C 238.909 4.8046 -0.266731 0
M  V30 2443 C 241.261 5.16703 -0.683192 0
M  V30 2444 C 238.589 5.73135 -1.25434 0
M  V30 2445 C 240.941 6.10441 -1.65964 0
M  V30 2446 C 239.605 6.38382 -1.95 0
M  V30 2447 H 238.875 0.718048 0.182997 0
M  V30 2448 H 241.522 1.90019 -0.237724 0
M  V30 2449 H 239.827 3.44857 1.85959 0
M  V30 2450 H 241.524 3.69573 1.55618 0
M  V30 2451 H 238.114 4.27891 0.246485 0
M  V30 2452 H 242.298 4.93993 -0.477983 0
M  V30 2453 H 237.554 5.93074 -1.48571 0
M  V30 2454 H 241.728 6.60507 -2.20689 0
M  V30 2455 H 239.355 7.09996 -2.71679 0
M  V30 2456 N 240.93 -0.123565 1.57115 0
M  V30 2457 C 242.177 -0.832153 1.84612 0
M  V30 2458 C 242.505 -1.80093 0.734627 0
M  V30 2459 O 241.76 -1.93766 -0.27442 0
M  V30 2460 C 242.059 -1.62016 3.18568 0
M  V30 2461 C 241.725 -0.796084 4.43817 0
M  V30 2462 C 240.387 -0.568816 4.77826 0
M  V30 2463 C 242.739 -0.221364 5.2073 0
M  V30 2464 C 240.067 0.243499 5.86194 0
M  V30 2465 C 242.419 0.578117 6.29953 0
M  V30 2466 C 241.083 0.815744 6.62497 0
M  V30 2467 H 240.353 -0.304507 0.675542 0
M  V30 2468 H 243 -0.0947248 1.91266 0
M  V30 2469 H 241.305 -2.42837 3.0747 0
M  V30 2470 H 243.002 -2.17231 3.37064 0
M  V30 2471 H 239.592 -0.983307 4.17168 0
M  V30 2472 H 243.776 -0.384173 4.94811 0
M  V30 2473 H 239.032 0.436871 6.09837 0
M  V30 2474 H 243.206 1.03046 6.88734 0
M  V30 2475 H 240.833 1.44701 7.46301 0
M  V30 2476 N 242.408 -1.52605 -0.393616 0
M  V30 2477 C 243.356 -1.77688 -1.50099 0
M  V30 2478 C 244.35 -0.644615 -1.56656 0
M  V30 2479 O 245.556 -0.826997 -1.59877 0
M  V30 2480 H 241.931 -0.562159 -0.499481 0
M  V30 2481 H 243.902 -2.7043 -1.26135 0
M  V30 2482 C 242.651 -1.95858 -2.87289 0
M  V30 2483 H 241.974 -2.8241 -2.82992 0
M  V30 2484 H 243.414 -2.174 -3.64024 0
M  V30 2485 C 241.873 -0.729848 -3.28899 0
M  V30 2486 O 242.403 0.0949217 -4.01588 0
M  V30 2487 N 240.609 -0.561283 -2.85128 0
M  V30 2488 H 240.156 -1.23357 -2.26143 0
M  V30 2489 H 240.114 0.2595 -3.13327 0
M  V30 2490 N 243.887 0.651787 -1.4349 0
M  V30 2491 C 245.164 1.40909 -1.35661 0
M  V30 2492 C 245.544 2.11099 -0.00511733 0
M  V30 2493 O 244.892 2.04892 1.0115 0
M  V30 2494 C 245.102 2.3926 -2.54078 0
M  V30 2495 C 246.45 3.03217 -2.97228 0
M  V30 2496 O 247.474 2.49588 -2.54135 0
M  V30 2497 O 246.333 4.00455 -3.71885 0
M  V30 2498 H 243.427 0.629625 -0.536191 0
M  V30 2499 H 245.973 0.678575 -1.55542 0
M  V30 2500 H 244.745 1.86352 -3.44076 0
M  V30 2501 H 244.368 3.1976 -2.36303 0
M  V30 2502 N 245.365 1.30045 0.890287 0
M  V30 2503 C 246.614 1.17929 1.63633 0
M  V30 2504 C 246.927 -0.266204 1.9378 0
M  V30 2505 O 248.133 -0.508804 2.6669 0
M  V30 2506 C 246.589 2.06317 2.94892 0
M  V30 2507 C 246.197 3.55745 2.72305 0
M  V30 2508 C 247.941 2.0295 3.72843 0
M  V30 2509 C 245.848 4.36205 3.99348 0
M  V30 2510 H 244.778 0.437782 0.613892 0
M  V30 2511 H 247.429 1.54754 0.986075 0
M  V30 2512 H 245.811 1.6237 3.61182 0
M  V30 2513 H 246.985 4.07805 2.1455 0
M  V30 2514 H 245.3 3.6088 2.07737 0
M  V30 2515 H 247.897 2.60319 4.67053 0
M  V30 2516 H 248.24 1.0117 4.0382 0
M  V30 2517 H 248.773 2.4499 3.13408 0
M  V30 2518 H 245.512 5.38659 3.73533 0
M  V30 2519 H 245.032 3.8891 4.56628 0
M  V30 2520 H 246.711 4.47362 4.67415 0
M  V30 2521 N 246.843 -1.10192 1.12674 0
M  V30 2522 C 248.068 -1.86523 0.906853 0
M  V30 2523 C 248.493 -1.80221 -0.538711 0
M  V30 2524 O 247.851 -1.17396 -1.38158 0
M  V30 2525 C 247.899 -3.32758 1.3894 0
M  V30 2526 O 247.003 -4.08449 0.5695 0
M  V30 2527 H 246.344 -0.578678 0.325619 0
M  V30 2528 H 248.874 -1.39203 1.49946 0
M  V30 2529 H 248.884 -3.83608 1.38958 0
M  V30 2530 H 247.559 -3.36661 2.44197 0
M  V30 2531 H 246.136 -3.67427 0.636528 0
M  V30 2532 N 248.321 -0.919034 -1.28029 0
M  V30 2533 C 249.549 -0.570971 -1.98866 0
M  V30 2534 C 249.964 0.848996 -1.68634 0
M  V30 2535 O 249.321 1.56307 -0.942036 0
M  V30 2536 C 249.372 -0.776876 -3.53054 0
M  V30 2537 O 249.093 -2.14097 -3.82222 0
M  V30 2538 C 250.594 -0.436356 -4.41147 0
M  V30 2539 H 247.814 -0.217175 -0.634883 0
M  V30 2540 H 250.358 -1.23368 -1.63097 0
M  V30 2541 H 248.513 -0.161085 -3.87065 0
M  V30 2542 H 248.927 -2.18455 -4.76841 0
M  V30 2543 H 250.401 -0.63117 -5.4838 0
M  V30 2544 H 250.878 0.627686 -4.34692 0
M  V30 2545 H 251.484 -1.02991 -4.12641 0
M  V30 2546 N 249.799 1.42003 -0.683588 0
M  V30 2547 C 250.729 2.33487 -0.024866 0
M  V30 2548 C 251.71 1.51163 0.779975 0
M  V30 2549 O 252.895 1.79739 0.735362 0
M  V30 2550 C 250.025 3.3487 0.920836 0
M  V30 2551 C 248.979 4.27414 0.223958 0
M  V30 2552 C 248.305 5.19074 1.2832 0
M  V30 2553 C 249.605 5.14445 -0.90242 0
M  V30 2554 H 251.299 2.88819 -0.788921 0
M  V30 2555 H 248.845 1.38873 -0.38083 0
M  V30 2556 H 250.798 3.97787 1.39081 0
M  V30 2557 H 249.522 2.77861 1.71642 0
M  V30 2558 H 248.181 3.65904 -0.225864 0
M  V30 2559 H 247.829 4.58387 2.071 0
M  V30 2560 H 247.529 5.81822 0.821995 0
M  V30 2561 H 249.053 5.84867 1.75392 0
M  V30 2562 H 250.467 5.70998 -0.513272 0
M  V30 2563 H 248.864 5.86072 -1.28997 0
M  V30 2564 H 249.934 4.52322 -1.74737 0
M  V30 2565 N 251.277 0.427512 1.51691 0
M  V30 2566 C 252.507 -0.140986 2.06118 0
M  V30 2567 C 252.915 -1.37854 1.29588 0
M  V30 2568 O 252.258 -1.80411 0.346036 0
M  V30 2569 C 252.32 -0.538276 3.55447 0
M  V30 2570 C 251.984 0.591095 4.53161 0
M  V30 2571 C 252.981 1.46027 4.98971 0
M  V30 2572 C 250.666 0.769028 4.96378 0
M  V30 2573 C 252.66 2.49216 5.8666 0
M  V30 2574 C 250.347 1.80421 5.83859 0
M  V30 2575 C 251.345 2.66417 6.28897 0
M  V30 2576 O 251.033 3.68159 7.14643 0
M  V30 2577 H 250.765 -0.0157455 0.675817 0
M  V30 2578 H 253.319 0.602495 1.96365 0
M  V30 2579 H 251.549 -1.33432 3.6295 0
M  V30 2580 H 253.238 -1.0368 3.92435 0
M  V30 2581 H 254.004 1.33429 4.66285 0
M  V30 2582 H 249.883 0.109273 4.6087 0
M  V30 2583 H 253.427 3.16372 6.21735 0
M  V30 2584 H 249.324 1.93042 6.15959 0
M  V30 2585 H 250.092 3.64622 7.32798 0
M  V30 2586 N 252.755 -1.56801 0.158532 0
M  V30 2587 C 254.166 -1.83189 -0.360366 0
M  V30 2588 C 254.517 -1.07778 -1.63946 0
M  V30 2589 O 253.642 -0.326718 -2.13919 0
M  V30 2590 C 254.237 -3.32297 -0.660595 0
M  V30 2591 C 252.796 -3.59227 -1.12398 0
M  V30 2592 C 251.943 -2.76877 -0.153097 0
M  V30 2593 H 254.894 -1.54008 0.383031 0
M  V30 2594 H 254.915 -3.4908 -1.51405 0
M  V30 2595 H 254.427 -3.87156 0.270527 0
M  V30 2596 H 252.528 -3.09766 -2.07064 0
M  V30 2597 H 252.641 -4.67632 -1.04197 0
M  V30 2598 H 251.005 -2.46319 -0.647983 0
M  V30 2599 H 251.788 -3.34511 0.77182 0
M  V30 2600 N 254.233 0.115231 -1.57178 0
M  V30 2601 C 255.181 1.16014 -2.01602 0
M  V30 2602 C 256.175 1.42653 -0.913587 0
M  V30 2603 O 257.381 1.42571 -1.09879 0
M  V30 2604 H 253.756 0.391252 -0.642204 0
M  V30 2605 H 255.727 0.758998 -2.88586 0
M  V30 2606 C 254.476 2.47767 -2.4394 0
M  V30 2607 H 253.799 2.28108 -3.28339 0
M  V30 2608 H 255.239 3.19432 -2.78818 0
M  V30 2609 C 253.698 3.10617 -1.30455 0
M  V30 2610 O 254.228 3.96846 -0.622585 0
M  V30 2611 N 252.434 2.70553 -1.06064 0
M  V30 2612 H 251.981 2.00527 -1.61699 0
M  V30 2613 H 251.939 3.12934 -0.303284 0
M  V30 2614 N 255.711 1.52812 0.385517 0
M  V30 2615 C 256.659 1.78482 1.49155 0
M  V30 2616 C 257.653 0.652914 1.56312 0
M  V30 2617 O 258.859 0.835464 1.59436 0
M  V30 2618 H 255.234 0.5648 0.496493 0
M  V30 2619 H 257.205 2.71095 1.24699 0
M  V30 2620 C 255.954 1.97378 2.86247 0
M  V30 2621 H 255.277 2.83907 2.81491 0
M  V30 2622 H 256.717 2.19327 3.62866 0
M  V30 2623 C 255.176 0.74728 3.28508 0
M  V30 2624 O 255.706 -0.0736232 4.01633 0
M  V30 2625 N 253.912 0.576396 2.84826 0
M  V30 2626 H 253.459 1.24555 2.25486 0
M  V30 2627 H 253.417 -0.24288 3.1346 0
M  V30 2628 N 257.189 -0.644168 1.43834 0
M  V30 2629 C 258.136 -1.75671 1.49694 0
M  V30 2630 C 259.106 -1.6246 0.345809 0
M  V30 2631 O 260.291 -1.82573 0.554234 0
M  V30 2632 C 257.431 -3.13867 1.43463 0
M  V30 2633 C 256.544 -3.38147 2.6885 0
M  V30 2634 C 255.679 -4.66241 2.54544 0
M  V30 2635 C 254.718 -4.83657 3.75157 0
M  V30 2636 N 253.855 -6.03016 3.59605 0
M  V30 2637 H 258.695 -1.69998 2.44754 0
M  V30 2638 H 256.232 -0.829458 1.21484 0
M  V30 2639 H 258.19 -3.9377 1.37843 0
M  V30 2640 H 256.82 -3.18588 0.519783 0
M  V30 2641 H 255.872 -2.52276 2.84712 0
M  V30 2642 H 257.184 -3.46899 3.58417 0
M  V30 2643 H 256.338 -5.54285 2.46683 0
M  V30 2644 H 255.077 -4.59826 1.62516 0
M  V30 2645 H 254.082 -3.94046 3.83416 0
M  V30 2646 H 255.307 -4.91896 4.68204 0
M  V30 2647 H 253.253 -5.97715 2.7032 0
M  V30 2648 H 253.17 -6.12766 4.42779 0
M  V30 2649 H 254.438 -6.93657 3.55613 0
M  V30 2650 N 258.668 -1.30515 -0.883378 0
M  V30 2651 C 259.616 -1.16941 -2.01066 0
M  V30 2652 C 260.61 -0.0809148 -1.69207 0
M  V30 2653 O 261.816 -0.241877 -1.78367 0
M  V30 2654 H 258.191 -0.361705 -0.659298 0
M  V30 2655 H 260.162 -2.12344 -2.09649 0
M  V30 2656 C 258.911 -0.879694 -3.36388 0
M  V30 2657 H 258.234 -1.70936 -3.61415 0
M  V30 2658 H 259.674 -0.82483 -4.159 0
M  V30 2659 C 258.133 0.417409 -3.34304 0
M  V30 2660 O 258.663 1.43843 -3.75063 0
M  V30 2661 N 256.869 0.429141 -2.87414 0
M  V30 2662 H 256.416 -0.402222 -2.5444 0
M  V30 2663 H 256.374 1.29696 -2.86403 0
M  V30 2664 N 260.146 1.09593 -1.13257 0
M  V30 2665 C 261.395 1.81105 -0.887917 0
M  V30 2666 C 261.708 1.86563 0.587672 0
M  V30 2667 O 262.914 2.54367 0.949204 0
M  V30 2668 C 261.37 3.25338 -1.53895 0
M  V30 2669 C 260.978 3.28151 -3.04994 0
M  V30 2670 C 262.722 4.01617 -1.37492 0
M  V30 2671 C 260.629 4.66897 -3.6299 0
M  V30 2672 H 259.559 0.678661 -0.328534 0
M  V30 2673 H 262.21 1.23183 -1.36008 0
M  V30 2674 H 260.592 3.8331 -0.994446 0
M  V30 2675 H 261.766 2.79953 -3.66009 0
M  V30 2676 H 260.081 2.65361 -3.20893 0
M  V30 2677 H 262.678 5.04119 -1.78235 0
M  V30 2678 H 263.021 4.15072 -0.31957 0
M  V30 2679 H 263.554 3.50082 -1.88912 0
M  V30 2680 H 260.293 4.58643 -4.68323 0
M  V30 2681 H 259.813 5.15426 -3.06752 0
M  V30 2682 H 261.492 5.3587 -3.62563 0
M  V30 2683 N 261.624 0.925811 1.2754 0
M  V30 2684 C 262.873 0.561084 1.93739 0
M  V30 2685 C 263.186 -0.901685 1.73577 0
M  V30 2686 O 264.392 -1.37511 2.34101 0
M  V30 2687 C 262.848 0.952668 3.47062 0
M  V30 2688 C 262.456 2.43599 3.75983 0
M  V30 2689 C 264.2 0.659103 4.19352 0
M  V30 2690 C 262.107 2.76707 5.22673 0
M  V30 2691 H 261.037 0.206122 0.725279 0
M  V30 2692 H 263.688 1.12637 1.44863 0
M  V30 2693 H 262.07 0.316053 3.94737 0
M  V30 2694 H 263.244 3.12035 3.39073 0
M  V30 2695 H 261.559 2.70125 3.16893 0
M  V30 2696 H 264.156 0.882985 5.27359 0
M  V30 2697 H 264.499 -0.403607 4.14339 0
M  V30 2698 H 265.032 1.25473 3.77494 0
M  V30 2699 H 261.771 3.8188 5.32774 0
M  V30 2700 H 261.291 2.12919 5.60737 0
M  V30 2701 H 262.97 2.6435 5.90532 0
M  V30 2702 N 263.102 -1.41638 0.69111 0
M  V30 2703 C 264.332 -2.0533 0.228758 0
M  V30 2704 C 264.74 -1.52089 -1.12541 0
M  V30 2705 O 264.083 -0.662145 -1.71351 0
M  V30 2706 C 264.145 -3.59349 0.10407 0
M  V30 2707 C 263.809 -4.35362 1.38956 0
M  V30 2708 C 264.806 -4.64942 2.32648 0
M  V30 2709 C 262.491 -4.74714 1.64169 0
M  V30 2710 C 264.485 -5.32828 3.49818 0
M  V30 2711 C 262.172 -5.42338 2.81625 0
M  V30 2712 C 263.17 -5.71322 3.74273 0
M  V30 2713 O 262.858 -6.37554 4.89673 0
M  V30 2714 H 262.59 -0.667796 0.104997 0
M  V30 2715 H 265.144 -1.82477 0.942938 0
M  V30 2716 H 263.374 -3.80924 -0.665839 0
M  V30 2717 H 265.063 -4.04633 -0.320519 0
M  V30 2718 H 265.829 -4.35025 2.14425 0
M  V30 2719 H 261.708 -4.51538 0.929202 0
M  V30 2720 H 265.252 -5.55368 4.22152 0
M  V30 2721 H 261.149 -5.71673 2.99768 0
M  V30 2722 H 261.917 -6.56049 4.8943 0
M  V30 2723 N 264.58 -0.43555 -1.51462 0
M  V30 2724 C 265.49 0.383001 -2.31453 0
M  V30 2725 C 266.506 1.02931 -1.4029 0
M  V30 2726 O 267.682 1.02507 -1.73362 0
M  V30 2727 C 264.747 1.47043 -3.13973 0
M  V30 2728 C 263.808 0.844433 -4.20913 0
M  V30 2729 C 263.041 1.88004 -4.9949 0
M  V30 2730 O 263.264 3.10199 -4.78678 0
M  V30 2731 O 262.198 1.47157 -5.83634 0
M  V30 2732 H 266.024 -0.269964 -3.02498 0
M  V30 2733 H 263.609 -0.19813 -1.4808 0
M  V30 2734 H 265.491 2.10113 -3.65281 0
M  V30 2735 H 264.166 2.10751 -2.45695 0
M  V30 2736 H 263.073 0.175729 -3.73687 0
M  V30 2737 H 264.406 0.250869 -4.9156 0
M  V30 2738 N 266.058 1.56714 -0.166846 0
M  V30 2739 C 266.988 2.20754 0.760913 0
M  V30 2740 C 267.969 1.16178 1.24244 0
M  V30 2741 O 269.154 1.44592 1.29641 0
M  V30 2742 C 266.284 2.84478 1.99223 0
M  V30 2743 C 265.238 3.95053 1.64672 0
M  V30 2744 C 264.564 4.45805 2.95232 0
M  V30 2745 C 265.864 5.14865 0.878155 0
M  V30 2746 H 267.558 2.98537 0.22713 0
M  V30 2747 H 265.104 1.43596 0.107805 0
M  V30 2748 H 267.057 3.27951 2.64624 0
M  V30 2749 H 265.781 2.04056 2.55007 0
M  V30 2750 H 264.44 3.52228 1.01641 0
M  V30 2751 H 264.088 3.62181 3.49047 0
M  V30 2752 H 263.788 5.204 2.7287 0
M  V30 2753 H 265.312 4.91962 3.6167 0
M  V30 2754 H 266.726 5.55059 1.43466 0
M  V30 2755 H 265.123 5.95348 0.753738 0
M  V30 2756 H 266.193 4.84735 -0.126377 0
M  V30 2757 N 267.536 -0.106894 1.57237 0
M  V30 2758 C 268.776 -0.818277 1.87306 0
M  V30 2759 C 269.14 -1.76474 0.756371 0
M  V30 2760 O 270.341 -2.5186 0.939155 0
M  V30 2761 C 268.612 -1.53806 3.22612 0
M  V30 2762 S 270.171 -2.28935 3.74345 0
M  V30 2763 H 266.989 -0.272862 0.656557 0
M  V30 2764 H 269.591 -0.075988 1.95352 0
M  V30 2765 H 268.295 -0.834951 4.01817 0
M  V30 2766 H 267.826 -2.32049 3.17674 0
M  V30 2767 H 269.841 -3.54871 3.46815 0
M  V30 2768 N 269.014 -1.53014 -0.377408 0
M  V30 2769 C 269.962 -1.7927 -1.48206 0
M  V30 2770 C 270.956 -0.661195 -1.55963 0
M  V30 2771 O 272.162 -0.843908 -1.58991 0
M  V30 2772 H 268.537 -0.567425 -0.493491 0
M  V30 2773 H 270.508 -2.71753 -1.2326 0
M  V30 2774 C 269.257 -1.98894 -2.85196 0
M  V30 2775 H 268.58 -2.85395 -2.79981 0
M  V30 2776 H 270.02 -2.21249 -3.61698 0
M  V30 2777 C 268.479 -0.764691 -3.28107 0
M  V30 2778 O 269.009 0.0523226 -4.01666 0
M  V30 2779 N 267.215 -0.591493 -2.84517 0
M  V30 2780 H 266.762 -1.25749 -2.24822 0
M  V30 2781 H 266.72 0.226253 -3.13585 0
M  V30 2782 N 270.492 0.636531 -1.44174 0
M  V30 2783 C 271.402 1.77754 -1.53103 0
M  V30 2784 C 272.418 1.68928 -0.417034 0
M  V30 2785 O 273.594 1.89801 -0.6736 0
M  V30 2786 C 270.659 3.14115 -1.46741 0
M  V30 2787 C 269.72 3.34612 -2.68948 0
M  V30 2788 C 268.953 4.64467 -2.6288 0
M  V30 2789 O 269.176 5.44919 -1.68581 0
M  V30 2790 O 268.11 4.87049 -3.53648 0
M  V30 2791 H 271.936 1.73174 -2.49489 0
M  V30 2792 H 269.521 0.79709 -1.2636 0
M  V30 2793 H 271.403 3.95412 -1.45696 0
M  V30 2794 H 270.078 3.19249 -0.534975 0
M  V30 2795 H 268.985 2.53014 -2.75562 0
M  V30 2796 H 270.318 3.34336 -3.61221 0
M  V30 2797 N 271.97 1.30982 0.876444 0
M  V30 2798 C 273.381 1.18277 1.44456 0
M  V30 2799 C 273.732 -0.213265 1.95037 0
M  V30 2800 O 272.857 -1.11057 1.85729 0
M  V30 2801 C 273.452 2.1411 2.62569 0
M  V30 2802 C 272.011 2.05358 3.15444 0
M  V30 2803 C 271.158 2.03706 1.88146 0
M  V30 2804 H 274.109 1.43127 0.685584 0
M  V30 2805 H 274.13 1.72692 3.39054 0
M  V30 2806 H 273.642 3.15706 2.25724 0
M  V30 2807 H 271.743 1.06934 3.56926 0
M  V30 2808 H 271.856 2.94156 3.78166 0
M  V30 2809 H 270.22 1.48629 2.06837 0
M  V30 2810 H 271.003 3.07047 1.53547 0
M  V30 2811 N 273.449 -1.08991 1.13837 0
M  V30 2812 C 274.397 -2.17841 0.815347 0
M  V30 2813 C 275.391 -1.68164 -0.204233 0
M  V30 2814 O 276.597 -1.79897 -0.0609304 0
M  V30 2815 H 272.972 -0.710654 0.245915 0
M  V30 2816 H 274.943 -2.42315 1.74143 0
M  V30 2817 C 273.692 -3.46381 0.302614 0
M  V30 2818 H 273.015 -3.84979 1.0785 0
M  V30 2819 H 274.455 -4.23844 0.115074 0
M  V30 2820 C 272.914 -3.22556 -0.972591 0
M  V30 2821 O 273.444 -3.45599 -2.04754 0
M  V30 2822 N 271.65 -2.76134 -0.905455 0
M  V30 2823 H 271.197 -2.57582 -0.0305421 0
M  V30 2824 H 271.155 -2.60571 -1.75926 0
M  V30 2825 N 274.927 -0.932562 -1.27047 0
M  V30 2826 C 276.175 -0.574422 -1.93765 0
M  V30 2827 C 276.496 0.887993 -1.73608 0
M  V30 2828 O 275.766 1.62999 -1.08665 0
M  V30 2829 H 274.346 -0.209451 -0.717035 0
M  V30 2830 H 277.008 -1.18601 -1.5466 0
M  V30 2831 H 276.104 -0.784841 -3.02071 0
M  V30 2832 N 276.405 1.4127 -0.698611 0
M  V30 2833 C 277.315 2.34573 -0.0357891 0
M  V30 2834 C 278.331 1.56393 0.762701 0
M  V30 2835 O 279.507 1.8886 0.699564 0
M  V30 2836 C 276.572 3.35159 0.887089 0
M  V30 2837 C 275.633 4.29225 0.0804634 0
M  V30 2838 C 274.866 5.25006 0.959387 0
M  V30 2839 O 275.089 5.26314 2.19886 0
M  V30 2840 O 274.023 6.00519 0.407439 0
M  V30 2841 H 277.849 2.92838 -0.804957 0
M  V30 2842 H 275.434 1.42175 -0.458966 0
M  V30 2843 H 277.316 3.9689 1.41621 0
M  V30 2844 H 275.991 2.79333 1.6357 0
M  V30 2845 H 274.898 3.70833 -0.493328 0
M  V30 2846 H 276.231 4.88157 -0.629547 0
M  V30 2847 N 277.883 0.443576 1.51229 0
M  V30 2848 C 278.831 -0.37904 2.29491 0
M  V30 2849 C 279.825 -1.0153 1.35603 0
M  V30 2850 O 281.031 -0.94955 1.52917 0
M  V30 2851 H 277.406 -0.141053 0.738653 0
M  V30 2852 H 279.377 0.301799 2.9687 0
M  V30 2853 C 278.126 -1.46426 3.15364 0
M  V30 2854 H 277.449 -0.984037 3.87501 0
M  V30 2855 H 278.889 -2.01297 3.7317 0
M  V30 2856 C 277.348 -2.45099 2.31146 0
M  V30 2857 O 277.878 -3.49773 1.9754 0
M  V30 2858 N 276.084 -2.16139 1.94249 0
M  V30 2859 H 275.631 -1.31044 2.21777 0
M  V30 2860 H 275.589 -2.82398 1.38198 0
M  V30 2861 N 279.361 -1.56624 0.175154 0
M  V30 2862 C 280.609 -1.96609 -0.467885 0
M  V30 2863 C 280.93 -1.06238 -1.63519 0
M  V30 2864 O 280.2 -0.129523 -1.95471 0
M  V30 2865 H 278.78 -0.726008 -0.175845 0
M  V30 2866 H 281.442 -1.93195 0.257234 0
M  V30 2867 H 280.538 -3.00989 -0.825342 0
M  V30 2868 N 280.839 0.0985539 -1.57292 0
M  V30 2869 C 282.087 0.801092 -1.85545 0
M  V30 2870 C 282.408 1.79438 -0.763353 0
M  V30 2871 O 281.678 1.94763 0.21073 0
M  V30 2872 H 280.258 0.29884 -0.684619 0
M  V30 2873 H 282.92 0.0810064 -1.94732 0
M  V30 2874 H 282.016 1.3338 -2.82163 0
M  V30 2875 N 282.317 1.53212 0.369288 0
M  V30 2876 C 283.563 1.69466 1.11397 0
M  V30 2877 C 283.896 0.443257 1.89074 0
M  V30 2878 O 283.171 -0.559386 1.86282 0
M  V30 2879 C 283.454 2.9422 2.07621 0
M  V30 2880 C 283.307 4.29508 1.33577 0
M  V30 2881 C 284.626 3.14565 3.07794 0
M  V30 2882 H 281.745 0.616667 0.403597 0
M  V30 2883 H 284.387 1.85845 0.395179 0
M  V30 2884 H 282.537 2.80387 2.68916 0
M  V30 2885 H 284.209 4.55147 0.750955 0
M  V30 2886 H 282.452 4.29088 0.637618 0
M  V30 2887 H 283.123 5.12926 2.03989 0
M  V30 2888 H 285.599 3.2756 2.56601 0
M  V30 2889 H 284.475 4.03297 3.72348 0
M  V30 2890 H 284.736 2.29675 3.77759 0
M  V30 2891 N 283.795 -0.628877 1.44509 0
M  V30 2892 C 285.023 -1.41554 1.50897 0
M  V30 2893 C 285.438 -1.8832 0.134564 0
M  V30 2894 O 284.795 -1.60969 -0.859965 0
M  V30 2895 C 284.846 -2.63435 2.47556 0
M  V30 2896 O 284.567 -2.18619 3.79654 0
M  V30 2897 C 286.068 -3.56537 2.63431 0
M  V30 2898 H 283.288 -0.434044 0.511709 0
M  V30 2899 H 285.832 -0.768895 1.89495 0
M  V30 2900 H 283.987 -3.24187 2.12089 0
M  V30 2901 H 284.401 -2.97652 4.31861 0
M  V30 2902 H 285.875 -4.38657 3.35088 0
M  V30 2903 H 286.352 -4.05493 1.68738 0
M  V30 2904 H 286.958 -3.01653 2.9981 0
M  V30 2905 N 285.273 -1.31445 -0.869486 0
M  V30 2906 C 286.221 -1.19067 -1.99814 0
M  V30 2907 C 287.215 -0.0988569 -1.69111 0
M  V30 2908 O 288.421 -0.260781 -1.78101 0
M  V30 2909 H 284.796 -0.368677 -0.655425 0
M  V30 2910 H 286.767 -2.14555 -2.07385 0
M  V30 2911 C 285.516 -0.915323 -3.35436 0
M  V30 2912 H 284.839 -1.74759 -3.59582 0
M  V30 2913 H 286.279 -0.868895 -4.15001 0
M  V30 2914 C 284.738 0.381928 -3.34728 0
M  V30 2915 O 285.268 1.39857 -3.76567 0
M  V30 2916 N 283.474 0.398633 -2.87853 0
M  V30 2917 H 283.021 -0.429186 -2.54 0
M  V30 2918 H 282.979 1.26651 -2.87762 0
M  V30 2919 N 286.751 1.08385 -1.14413 0
M  V30 2920 C 288.028 1.77429 -0.823297 0
M  V30 2921 C 288.408 1.9974 0.683163 0
M  V30 2922 O 287.756 1.60739 1.62405 0
M  V30 2923 C 287.966 3.09004 -1.62227 0
M  V30 2924 C 289.314 3.83532 -1.82177 0
M  V30 2925 O 290.338 3.18786 -1.58915 0
M  V30 2926 O 289.197 4.99792 -2.21067 0
M  V30 2927 H 286.291 0.769999 -0.301712 0
M  V30 2928 H 288.837 1.14846 -1.24934 0
M  V30 2929 H 287.609 2.88316 -2.64555 0
M  V30 2930 H 287.232 3.79316 -1.19187 0
M  V30 2931 N 288.23 0.939286 1.26551 0
M  V30 2932 C 289.193 0.451987 2.24699 0
M  V30 2933 C 290.193 -0.435869 1.5478 0
M  V30 2934 O 291.383 -0.235314 1.72603 0
M  V30 2935 C 288.515 -0.348801 3.39111 0
M  V30 2936 H 289.708 1.3193 2.69322 0
M  V30 2937 H 287.261 0.721072 1.38673 0
M  V30 2938 H 287.996 -1.23444 2.99887 0
M  V30 2939 H 287.781 0.287945 3.91041 0
M  V30 2940 H 289.271 -0.679726 4.12031 0
M  V30 2941 N 289.708 -1.40897 0.706093 0
M  V30 2942 C 290.936 -2.05373 0.250887 0
M  V30 2943 C 291.351 -1.53172 -1.10381 0
M  V30 2944 O 290.708 -0.684305 -1.69185 0
M  V30 2945 C 290.759 -3.6088 0.211571 0
M  V30 2946 O 290.48 -4.11153 1.51276 0
M  V30 2947 C 291.981 -4.42517 -0.263346 0
M  V30 2948 H 289.201 -0.66115 0.114552 0
M  V30 2949 H 291.745 -1.80479 0.961635 0
M  V30 2950 H 289.9 -3.84777 -0.450073 0
M  V30 2951 H 290.314 -5.05279 1.40689 0
M  V30 2952 H 291.788 -5.51479 -0.239718 0
M  V30 2953 H 292.265 -4.19396 -1.30397 0
M  V30 2954 H 292.871 -4.23708 0.367677 0
M  V30 2955 N 291.186 -0.45159 -1.50991 0
M  V30 2956 C 292.434 0.109857 -2.01801 0
M  V30 2957 C 292.755 1.41958 -1.3369 0
M  V30 2958 O 292.025 1.9003 -0.475951 0
M  V30 2959 H 290.605 0.0435884 -0.745727 0
M  V30 2960 H 293.267 -0.597557 -1.85514 0
M  V30 2961 H 292.363 0.275489 -3.10882 0
M  V30 2962 N 292.664 1.56529 -0.183458 0
M  V30 2963 C 293.91 1.98304 0.452466 0
M  V30 2964 C 294.265 1.06799 1.60037 0
M  V30 2965 O 293.558 0.110049 1.91284 0
M  V30 2966 C 293.752 3.43939 0.971637 0
M  V30 2967 C 293.581 4.49528 -0.124425 0
M  V30 2968 C 292.351 5.01981 -0.578168 0
M  V30 2969 C 294.549 5.05836 -0.929207 0
M  V30 2970 N 292.531 5.91219 -1.65327 0
M  V30 2971 C 293.902 5.91632 -1.85396 0
M  V30 2972 C 295.957 4.88302 -0.972929 0
M  V30 2973 C 294.66 6.61768 -2.81878 0
M  V30 2974 C 296.686 5.59168 -1.92574 0
M  V30 2975 C 296.048 6.44701 -2.83795 0
M  V30 2976 H 292.147 0.770551 0.133324 0
M  V30 2977 H 294.731 1.92581 -0.286473 0
M  V30 2978 H 292.902 3.50184 1.68006 0
M  V30 2979 H 294.634 3.72702 1.5772 0
M  V30 2980 H 291.389 4.73282 -0.173639 0
M  V30 2981 H 291.813 6.40543 -2.19167 0
M  V30 2982 H 296.455 4.21861 -0.28168 0
M  V30 2983 H 294.173 7.27415 -3.51984 0
M  V30 2984 H 297.759 5.47582 -1.96583 0
M  V30 2985 H 296.639 6.98573 -3.56322 0
M  V30 2986 N 294.142 -0.090211 1.57342 0
M  V30 2987 C 295.105 -1.09335 2.01441 0
M  V30 2988 C 296.105 -1.32666 0.908641 0
M  V30 2989 O 297.295 -1.28697 1.174 0
M  V30 2990 C 294.427 -2.44136 2.3793 0
M  V30 2991 H 295.62 -0.713662 2.91285 0
M  V30 2992 H 293.173 -0.335404 1.52659 0
M  V30 2993 H 293.908 -2.86972 1.51055 0
M  V30 2994 H 293.693 -2.28548 3.18603 0
M  V30 2995 H 295.183 -3.16277 2.72688 0
M  V30 2996 N 295.62 -1.53406 -0.361157 0
M  V30 2997 C 296.552 -1.76446 -1.46286 0
M  V30 2998 C 297.565 -0.645322 -1.49464 0
M  V30 2999 O 298.754 -0.921681 -1.52864 0
M  V30 3000 C 295.854 -1.83332 -2.85031 0
M  V30 3001 C 295.027 -3.13033 -3.05498 0
M  V30 3002 C 294.086 -3.11104 -4.24383 0
M  V30 3003 O 293.112 -3.84888 -4.19344 0
M  V30 3004 N 294.314 -2.32234 -5.32022 0
M  V30 3005 H 297.079 -2.71508 -1.26899 0
M  V30 3006 H 294.64 -1.52238 -0.550915 0
M  V30 3007 H 296.632 -1.79514 -3.62708 0
M  V30 3008 H 295.202 -0.955342 -2.97644 0
M  V30 3009 H 294.422 -3.30119 -2.15442 0
M  V30 3010 H 295.71 -3.9874 -3.16044 0
M  V30 3011 H 295.108 -1.71807 -5.38979 0
M  V30 3012 H 293.665 -2.3423 -6.08259 0
M  V30 3013 N 297.098 0.621204 -1.44841 0
M  V30 3014 C 298.344 1.3826 -1.48365 0
M  V30 3015 C 298.677 1.93831 -0.119624 0
M  V30 3016 O 297.952 1.74251 0.864111 0
M  V30 3017 C 298.235 2.54058 -2.55199 0
M  V30 3018 C 298.088 2.03772 -4.00995 0
M  V30 3019 C 299.407 3.56225 -2.58442 0
M  V30 3020 H 296.526 0.501374 -0.540179 0
M  V30 3021 H 299.168 0.7015 -1.76576 0
M  V30 3022 H 297.318 3.12162 -2.31274 0
M  V30 3023 H 298.99 1.50423 -4.36086 0
M  V30 3024 H 297.233 1.34876 -4.12299 0
M  V30 3025 H 297.904 2.87185 -4.71411 0
M  V30 3026 H 300.38 3.07939 -2.79844 0
M  V30 3027 H 299.256 4.34756 -3.3508 0
M  V30 3028 H 299.517 4.10949 -1.63013 0
M  V30 3029 N 298.576 1.31904 0.862503 0
M  V30 3030 C 299.523 1.20182 1.9704 0
M  V30 3031 C 300.493 0.0858247 1.65878 0
M  V30 3032 O 301.678 0.26 1.8902 0
M  V30 3033 C 298.818 0.922797 3.32533 0
M  V30 3034 C 297.931 2.12284 3.76244 0
M  V30 3035 C 297.066 1.77996 5.00491 0
M  V30 3036 C 296.105 2.94366 5.36671 0
M  V30 3037 N 295.242 2.60223 6.52095 0
M  V30 3038 H 300.082 2.14951 2.06398 0
M  V30 3039 H 297.619 1.06917 1.01031 0
M  V30 3040 H 299.577 0.741548 4.10557 0
M  V30 3041 H 298.207 0.0119227 3.22798 0
M  V30 3042 H 297.259 2.41461 2.9394 0
M  V30 3043 H 298.571 2.99357 3.98982 0
M  V30 3044 H 297.725 1.56377 5.862 0
M  V30 3045 H 296.464 0.881252 4.79672 0
M  V30 3046 H 295.469 3.16625 4.49476 0
M  V30 3047 H 296.694 3.84957 5.59451 0
M  V30 3048 H 294.64 1.72884 6.32809 0
M  V30 3049 H 294.557 3.40827 6.74814 0
M  V30 3050 H 295.825 2.42016 7.40978 0
M  V30 3051 N 300.054 -1.07777 1.14986 0
M  V30 3052 C 301.279 -1.84558 0.946213 0
M  V30 3053 C 301.704 -1.81323 -0.500362 0
M  V30 3054 O 301.062 -1.20301 -1.35637 0
M  V30 3055 C 301.11 -3.29736 1.45968 0
M  V30 3056 O 300.214 -4.07149 0.65601 0
M  V30 3057 H 299.555 -0.571641 0.33782 0
M  V30 3058 H 302.085 -1.35991 1.52865 0
M  V30 3059 H 302.095 -3.80574 1.47063 0
M  V30 3060 H 300.77 -3.31406 2.51283 0
M  V30 3061 H 299.347 -3.65994 0.714322 0
M  V30 3062 N 301.532 -0.945985 -1.26051 0
M  V30 3063 C 302.762 -0.612136 -1.97323 0
M  V30 3064 C 303.17 0.818171 -1.70595 0
M  V30 3065 O 302.513 1.55777 -0.973613 0
M  V30 3066 C 302.575 -0.780347 -3.50929 0
M  V30 3067 C 302.239 -2.18619 -4.01317 0
M  V30 3068 C 303.236 -3.16209 -4.12683 0
M  V30 3069 C 300.921 -2.50805 -4.35203 0
M  V30 3070 C 302.915 -4.44085 -4.57238 0
M  V30 3071 C 300.602 -3.78912 -4.79446 0
M  V30 3072 C 301.6 -4.75365 -4.90425 0
M  V30 3073 O 301.288 -6.01191 -5.3369 0
M  V30 3074 H 301.02 -0.229134 -0.635982 0
M  V30 3075 H 303.574 -1.27036 -1.61404 0
M  V30 3076 H 301.804 -0.0649864 -3.86645 0
M  V30 3077 H 303.493 -0.448842 -4.03411 0
M  V30 3078 H 304.259 -2.92668 -3.86744 0
M  V30 3079 H 300.138 -1.76463 -4.2589 0
M  V30 3080 H 303.682 -5.19373 -4.65723 0
M  V30 3081 H 299.579 -4.02265 -5.0483 0
M  V30 3082 H 300.347 -6.04442 -5.51899 0
M  V30 3083 N 303.011 1.40521 -0.713556 0
M  V30 3084 C 303.974 2.29098 -0.0684347 0
M  V30 3085 C 304.974 1.45268 0.689472 0
M  V30 3086 O 306.164 1.66205 0.521677 0
M  V30 3087 C 303.296 3.28446 0.913024 0
M  V30 3088 H 304.489 2.87645 -0.84855 0
M  V30 3089 H 302.042 1.48809 -0.47809 0
M  V30 3090 H 302.777 2.74913 1.72027 0
M  V30 3091 H 302.562 3.90327 0.372472 0
M  V30 3092 H 304.052 3.94777 1.36165 0
M  V30 3093 N 304.489 0.459591 1.5075 0
M  V30 3094 C 305.717 -0.0973749 2.06671 0
M  V30 3095 C 306.132 -1.34524 1.32472 0
M  V30 3096 O 305.489 -1.7827 0.390634 0
M  V30 3097 C 305.54 -0.39714 3.59312 0
M  V30 3098 O 305.261 0.801214 4.30711 0
M  V30 3099 C 306.762 -1.00234 4.31819 0
M  V30 3100 H 303.982 0.00195854 0.670997 0
M  V30 3101 H 306.526 0.645072 1.94059 0
M  V30 3102 H 304.681 -1.08951 3.71764 0
M  V30 3103 H 305.095 0.538857 5.21725 0
M  V30 3104 H 306.569 -1.16193 5.39632 0
M  V30 3105 H 307.046 -1.98939 3.91561 0
M  V30 3106 H 307.652 -0.348699 4.23868 0
M  V30 3107 N 305.967 -1.56429 0.191757 0
M  V30 3108 C 307.378 -1.83912 -0.321428 0
M  V30 3109 C 307.729 -1.11231 -1.61623 0
M  V30 3110 O 306.854 -0.37202 -2.13178 0
M  V30 3111 C 307.449 -3.33624 -0.589961 0
M  V30 3112 C 306.008 -3.6153 -1.04753 0
M  V30 3113 C 305.155 -2.7714 -0.0943327 0
M  V30 3114 H 308.106 -1.53161 0.415612 0
M  V30 3115 H 308.127 -3.52213 -1.43966 0
M  V30 3116 H 307.639 -3.86495 0.352588 0
M  V30 3117 H 305.74 -3.14089 -2.00447 0
M  V30 3118 H 305.853 -4.69737 -0.942549 0
M  V30 3119 H 304.217 -2.47638 -0.595589 0
M  V30 3120 H 305 -3.32799 0.842601 0
M  V30 3121 N 307.445 0.0818655 -1.57387 0
M  V30 3122 C 308.694 0.781681 -1.85937 0
M  V30 3123 C 309.007 1.79246 -0.782957 0
M  V30 3124 O 310.213 2.54112 -0.955987 0
M  V30 3125 C 308.669 1.44109 -3.29789 0
M  V30 3126 C 308.277 0.469396 -4.45534 0
M  V30 3127 C 310.021 2.12386 -3.67549 0
M  V30 3128 C 307.928 1.13415 -5.80423 0
M  V30 3129 H 306.858 0.295682 -0.693605 0
M  V30 3130 H 309.509 0.0348051 -1.83467 0
M  V30 3131 H 307.891 2.23588 -3.2684 0
M  V30 3132 H 309.065 -0.294856 -4.59856 0
M  V30 3133 H 307.38 -0.108383 -4.16259 0
M  V30 3134 H 309.977 2.62878 -4.65617 0
M  V30 3135 H 310.32 2.91877 -2.96839 0
M  V30 3136 H 310.853 1.39751 -3.72444 0
M  V30 3137 H 307.592 0.379771 -6.54399 0
M  V30 3138 H 307.112 1.8695 -5.69921 0
M  V30 3139 H 308.791 1.65686 -6.25426 0
M  V30 3140 N 308.923 1.53595 0.353017 0
M  V30 3141 C 310.169 1.70638 1.09593 0
M  V30 3142 C 310.502 0.463286 1.88593 0
M  V30 3143 O 309.777 -0.539597 1.86865 0
M  V30 3144 C 310.06 2.96406 2.04489 0
M  V30 3145 C 309.913 4.30901 1.29014 0
M  V30 3146 C 311.232 3.17812 3.0444 0
M  V30 3147 H 308.351 0.620913 0.397034 0
M  V30 3148 H 310.993 1.86254 0.375446 0
M  V30 3149 H 309.143 2.83223 2.65927 0
M  V30 3150 H 310.815 4.55917 0.702638 0
M  V30 3151 H 309.058 4.29741 0.592071 0
M  V30 3152 H 309.729 5.1506 1.98537 0
M  V30 3153 H 312.205 3.30263 2.53112 0
M  V30 3154 H 311.081 4.07223 3.6805 0
M  V30 3155 H 311.342 2.33669 3.75301 0
M  V30 3156 N 310.401 -0.613514 1.45168 0
M  V30 3157 C 311.333 -1.73825 1.4939 0
M  V30 3158 C 312.346 -1.58175 0.385304 0
M  V30 3159 O 313.535 -1.66165 0.652036 0
M  V30 3160 C 310.635 -3.11758 1.32891 0
M  V30 3161 C 309.808 -3.53704 2.57317 0
M  V30 3162 C 308.867 -4.70579 2.35462 0
M  V30 3163 O 307.893 -4.77996 3.09044 0
M  V30 3164 N 309.095 -5.63454 1.39644 0
M  V30 3165 H 311.86 -1.70669 2.46358 0
M  V30 3166 H 309.421 -0.79862 1.40832 0
M  V30 3167 H 311.413 -3.87692 1.1609 0
M  V30 3168 H 309.983 -3.09456 0.442218 0
M  V30 3169 H 309.203 -2.67794 2.89275 0
M  V30 3170 H 310.491 -3.78486 3.40038 0
M  V30 3171 H 309.889 -5.6017 0.789062 0
M  V30 3172 H 308.446 -6.38944 1.28816 0
M  V30 3173 N 311.879 -1.3236 -0.855495 0
M  V30 3174 C 312.809 -1.23833 -1.97958 0
M  V30 3175 C 313.79 -0.122361 -1.69659 0
M  V30 3176 O 314.975 -0.30939 -1.9172 0
M  V30 3177 C 312.105 -0.959772 -3.33775 0
M  V30 3178 C 311.059 -2.03689 -3.76424 0
M  V30 3179 C 310.385 -1.61075 -5.09862 0
M  V30 3180 C 311.685 -3.4518 -3.9198 0
M  V30 3181 H 313.379 -2.1788 -2.0535 0
M  V30 3182 H 310.925 -1.04891 -0.986605 0
M  V30 3183 H 312.878 -0.886678 -4.11966 0
M  V30 3184 H 311.602 0.0163404 -3.26596 0
M  V30 3185 H 310.261 -2.10012 -3.00484 0
M  V30 3186 H 309.909 -0.622107 -4.99138 0
M  V30 3187 H 309.609 -2.33143 -5.39368 0
M  V30 3188 H 311.133 -1.55201 -5.90546 0
M  V30 3189 H 312.547 -3.4145 -4.60526 0
M  V30 3190 H 310.944 -4.1559 -4.32903 0
M  V30 3191 H 312.014 -3.84903 -2.94919 0
M  V30 3192 N 313.357 1.07166 -1.15556 0
M  V30 3193 C 314.287 2.16403 -0.877046 0
M  V30 3194 C 315.268 1.69217 0.173111 0
M  V30 3195 O 316.453 1.94181 0.027084 0
M  V30 3196 C 313.583 3.45349 -0.367632 0
M  V30 3197 C 312.537 4.05995 -1.35468 0
M  V30 3198 C 311.863 5.30045 -0.704038 0
M  V30 3199 C 313.163 4.45804 -2.72132 0
M  V30 3200 H 314.857 2.39959 -1.79053 0
M  V30 3201 H 312.403 1.15325 -0.862331 0
M  V30 3202 H 314.356 4.21095 -0.160317 0
M  V30 3203 H 313.08 3.21385 0.581326 0
M  V30 3204 H 311.739 3.32296 -1.54839 0
M  V30 3205 H 311.387 5.02373 0.251128 0
M  V30 3206 H 311.087 5.71579 -1.36277 0
M  V30 3207 H 312.611 6.08495 -0.50654 0
M  V30 3208 H 314.025 5.12671 -2.56595 0
M  V30 3209 H 312.422 4.98296 -3.34397 0
M  V30 3210 H 313.492 3.57083 -3.28054 0
M  V30 3211 N 314.835 0.952656 1.25548 0
M  V30 3212 C 316.251 0.656769 1.4546 0
M  V30 3213 C 316.451 -0.78633 1.85524 0
M  V30 3214 O 315.507 -1.56183 1.98402 0
M  V30 3215 C 316.82 1.62801 2.52817 0
M  V30 3216 C 318.368 1.63897 2.66659 0
M  V30 3217 C 318.843 2.5978 3.77198 0
M  V30 3218 N 320.334 2.58133 3.84606 0
M  V30 3219 C 321.069 3.29003 4.69621 0
M  V30 3220 N 320.565 4.09339 5.58939 0
M  V30 3221 N 322.358 3.179 4.63569 0
M  V30 3222 H 314.509 1.88526 0.978344 0
M  V30 3223 H 316.772 0.810815 0.491206 0
M  V30 3224 H 316.478 2.65869 2.30232 0
M  V30 3225 H 316.352 1.38898 3.50695 0
M  V30 3226 H 318.739 0.615481 2.8861 0
M  V30 3227 H 318.82 1.91858 1.69187 0
M  V30 3228 H 318.464 3.62254 3.55997 0
M  V30 3229 H 318.394 2.29105 4.7415 0
M  V30 3230 H 320.885 1.99809 3.20757 0
M  V30 3231 H 321.198 4.6034 6.20731 0
M  V30 3232 H 319.543 4.13438 5.58654 0
M  V30 3233 H 322.734 2.54612 3.92798 0
M  V30 3234 H 322.907 3.73398 5.29602 0
M  V30 3235 N 316.313 -1.40141 0.720998 0
M  V30 3236 C 317.261 -2.3252 0.0608547 0
M  V30 3237 C 318.255 -1.52326 -0.741152 0
M  V30 3238 O 319.461 -1.68089 -0.643911 0
M  V30 3239 H 315.836 -0.751999 0.000876664 0
M  V30 3240 H 317.807 -2.8584 0.856614 0
M  V30 3241 C 316.556 -3.37331 -0.842809 0
M  V30 3242 H 315.879 -3.99108 -0.235084 0
M  V30 3243 H 317.319 -4.04452 -1.27257 0
M  V30 3244 C 315.778 -2.73246 -1.97074 0
M  V30 3245 O 316.308 -2.59998 -3.06209 0
M  V30 3246 N 314.514 -2.31547 -1.75597 0
M  V30 3247 H 314.061 -2.42522 -0.868368 0
M  V30 3248 H 314.019 -1.89007 -2.51244 0
M  V30 3249 N 317.792 -0.46758 -1.50504 0
M  V30 3250 C 318.739 0.328413 -2.28452 0
M  V30 3251 C 319.709 0.990313 -1.33349 0
M  V30 3252 O 320.894 1.00343 -1.62284 0
M  V30 3253 C 318.034 1.40648 -3.15138 0
M  V30 3254 C 317.147 0.759709 -4.25267 0
M  V30 3255 C 316.282 1.81537 -4.99217 0
M  V30 3256 C 315.321 1.14866 -6.01226 0
M  V30 3257 N 314.458 2.14702 -6.68467 0
M  V30 3258 H 319.298 -0.342603 -2.96024 0
M  V30 3259 H 316.835 -0.180801 -1.45985 0
M  V30 3260 H 318.793 2.04315 -3.63746 0
M  V30 3261 H 317.423 2.04671 -2.49619 0
M  V30 3262 H 316.475 0.0105671 -3.80399 0
M  V30 3263 H 317.787 0.233243 -4.98254 0
M  V30 3264 H 316.941 2.52793 -5.51526 0
M  V30 3265 H 315.68 2.37564 -4.25928 0
M  V30 3266 H 314.685 0.42171 -5.4818 0
M  V30 3267 H 315.91 0.595334 -6.76485 0
M  V30 3268 H 313.856 2.69752 -5.97972 0
M  V30 3269 H 313.773 1.6703 -7.37317 0
M  V30 3270 H 315.041 2.85348 -7.25394 0
M  V30 3271 N 319.27 1.56325 -0.20005 0
M  V30 3272 C 320.518 1.97329 0.436547 0
M  V30 3273 C 320.839 1.08826 1.61808 0
M  V30 3274 O 320.109 0.160604 1.95241 0
M  V30 3275 H 318.689 0.728714 0.164272 0
M  V30 3276 H 321.351 1.92761 -0.287937 0
M  V30 3277 H 320.447 3.02264 0.777353 0
M  V30 3278 N 320.748 -0.0735177 1.57428 0
M  V30 3279 C 321.696 -1.10628 2.04607 0
M  V30 3280 C 322.69 -1.40181 0.951088 0
M  V30 3281 O 323.896 -1.39608 1.1362 0
M  V30 3282 H 320.271 -0.374088 0.652351 0
M  V30 3283 H 322.242 -0.682218 2.90497 0
M  V30 3284 C 320.991 -2.41212 2.50423 0
M  V30 3285 H 320.314 -2.19322 3.34272 0
M  V30 3286 H 321.754 -3.11927 2.87189 0
M  V30 3287 C 320.213 -3.0705 1.38644 0
M  V30 3288 O 320.743 -3.95056 0.727582 0
M  V30 3289 N 318.949 -2.67645 1.132 0
M  V30 3290 H 318.496 -1.96169 1.66959 0
M  V30 3291 H 318.454 -3.1202 0.386147 0
M  V30 3292 N 322.226 -1.5378 -0.344866 0
M  V30 3293 C 323.136 -1.84667 -1.4469 0
M  V30 3294 C 324.152 -0.736704 -1.57635 0
M  V30 3295 O 325.328 -1.02888 -1.73136 0
M  V30 3296 C 322.393 -2.04869 -2.79696 0
M  V30 3297 C 321.454 -3.28731 -2.76106 0
M  V30 3298 C 320.687 -3.4796 -4.04673 0
M  V30 3299 O 320.91 -2.71052 -5.01883 0
M  V30 3300 O 319.844 -4.41383 -4.09224 0
M  V30 3301 H 323.67 -2.78334 -1.21506 0
M  V30 3302 H 321.255 -1.39418 -0.536921 0
M  V30 3303 H 323.137 -2.19609 -3.59652 0
M  V30 3304 H 321.812 -1.14391 -3.02814 0
M  V30 3305 H 320.719 -3.19396 -1.94774 0
M  V30 3306 H 322.052 -4.19198 -2.57941 0
M  V30 3307 N 323.704 0.605807 -1.45491 0
M  V30 3308 C 324.652 1.73754 -1.54636 0
M  V30 3309 C 325.646 1.64207 -0.416219 0
M  V30 3310 O 326.852 1.69979 -0.592199 0
M  V30 3311 H 323.227 0.574073 -0.485741 0
M  V30 3312 H 325.198 1.63169 -2.49837 0
M  V30 3313 C 323.947 3.12135 -1.53189 0
M  V30 3314 H 323.27 3.20141 -2.39478 0
M  V30 3315 H 324.71 3.91147 -1.63645 0
M  V30 3316 C 323.169 3.35921 -0.256616 0
M  V30 3317 O 323.699 3.96194 0.662798 0
M  V30 3318 N 321.905 2.90204 -0.151751 0
M  V30 3319 H 321.452 2.41336 -0.90081 0
M  V30 3320 H 321.41 3.06492 0.700699 0
M  V30 3321 N 325.182 1.32811 0.848464 0
M  V30 3322 C 326.112 1.24882 1.97299 0
M  V30 3323 C 327.093 0.131357 1.69592 0
M  V30 3324 O 328.278 0.319553 1.91553 0
M  V30 3325 C 325.408 0.97746 3.33261 0
M  V30 3326 C 324.362 2.05682 3.75338 0
M  V30 3327 C 323.688 1.63777 5.09 0
M  V30 3328 C 324.988 3.47254 3.90144 0
M  V30 3329 H 326.682 2.18966 2.04191 0
M  V30 3330 H 324.228 1.05413 0.981029 0
M  V30 3331 H 326.181 0.908513 4.1149 0
M  V30 3332 H 324.905 0.000980011 3.266 0
M  V30 3333 H 323.564 2.11603 2.99366 0
M  V30 3334 H 323.212 0.648569 4.98801 0
M  V30 3335 H 322.912 2.36 5.38124 0
M  V30 3336 H 324.436 1.5833 5.89715 0
M  V30 3337 H 325.85 3.43888 4.58709 0
M  V30 3338 H 324.247 4.1788 4.30693 0
M  V30 3339 H 325.317 3.86462 2.92874 0
M  V30 3340 N 326.66 -1.06551 1.16123 0
M  V30 3341 C 327.909 -1.78687 0.935622 0
M  V30 3342 C 328.222 -1.88056 -0.538001 0
M  V30 3343 O 329.428 -2.56794 -0.88143 0
M  V30 3344 C 327.884 -3.21143 1.62466 0
M  V30 3345 C 327.492 -3.19949 3.13587 0
M  V30 3346 C 329.236 -3.9783 1.48092 0
M  V30 3347 C 327.143 -4.57108 3.75241 0
M  V30 3348 H 326.073 -0.669712 0.346412 0
M  V30 3349 H 328.724 -1.19534 1.39226 0
M  V30 3350 H 327.106 -3.80539 1.09572 0
M  V30 3351 H 328.28 -2.70151 3.73303 0
M  V30 3352 H 326.595 -2.5676 3.27816 0
M  V30 3353 H 329.192 -4.99217 1.91538 0
M  V30 3354 H 329.535 -4.14078 0.429507 0
M  V30 3355 H 330.068 -3.4495 1.98127 0
M  V30 3356 H 326.807 -4.46065 4.80319 0
M  V30 3357 H 326.327 -5.07111 3.20309 0
M  V30 3358 H 328.006 -5.26069 3.76644 0
M  V30 3359 N 328.138 -0.959301 -1.25041 0
M  V30 3360 C 329.387 -0.612254 -1.92183 0
M  V30 3361 C 329.7 0.855347 -1.75907 0
M  V30 3362 O 330.906 1.31256 -2.37664 0
M  V30 3363 C 329.362 -1.04435 -3.44414 0
M  V30 3364 C 328.97 -2.53482 -3.69393 0
M  V30 3365 C 330.714 -0.770055 -4.17457 0
M  V30 3366 C 328.621 -2.90468 -5.15153 0
M  V30 3367 H 327.551 -0.225279 -0.719559 0
M  V30 3368 H 330.202 -1.16438 -1.41825 0
M  V30 3369 H 328.584 -0.4206 -3.9376 0
M  V30 3370 H 329.758 -3.20916 -3.30681 0
M  V30 3371 H 328.073 -2.78432 -3.0962 0
M  V30 3372 H 330.67 -1.02249 -5.24832 0
M  V30 3373 H 331.013 0.293611 -4.15263 0
M  V30 3374 H 331.546 -1.35437 -3.74034 0
M  V30 3375 H 328.285 -3.95871 -5.22462 0
M  V30 3376 H 327.805 -2.27711 -5.54894 0
M  V30 3377 H 329.484 -2.79914 -5.83315 0
M  V30 3378 N 329.616 1.39756 -0.72842 0
M  V30 3379 C 330.862 2.00942 -0.273892 0
M  V30 3380 C 331.195 1.57656 1.13394 0
M  V30 3381 O 330.47 0.802434 1.77176 0
M  V30 3382 C 330.753 3.58211 -0.368346 0
M  V30 3383 C 330.606 4.11534 -1.81548 0
M  V30 3384 C 331.925 4.39372 0.253054 0
M  V30 3385 H 329.044 0.730047 -0.100996 0
M  V30 3386 H 331.686 1.66056 -0.923337 0
M  V30 3387 H 329.836 3.88061 0.184588 0
M  V30 3388 H 331.508 3.92431 -2.42478 0
M  V30 3389 H 329.751 3.65341 -2.33898 0
M  V30 3390 H 330.422 5.20682 -1.83288 0
M  V30 3391 H 332.898 4.15527 -0.218224 0
M  V30 3392 H 331.774 5.48677 0.156585 0
M  V30 3393 H 332.035 4.21358 1.33826 0
M  V30 3394 N 331.094 0.475555 1.50254 0
M  V30 3395 C 332.342 -0.077738 2.0195 0
M  V30 3396 C 332.663 -1.39813 1.35931 0
M  V30 3397 O 331.933 -1.89249 0.506123 0
M  V30 3398 H 330.513 -0.031719 0.746326 0
M  V30 3399 H 333.175 0.626995 1.84539 0
M  V30 3400 H 332.271 -0.225995 3.11281 0
M  V30 3401 N 332.573 -1.56217 0.208337 0
M  V30 3402 C 333.521 -2.21053 -0.723769 0
M  V30 3403 C 334.515 -1.18578 -1.20978 0
M  V30 3404 O 335.721 -1.36691 -1.17114 0
M  V30 3405 H 332.096 -0.708595 -0.251788 0
M  V30 3406 H 334.067 -2.98006 -0.153365 0
M  V30 3407 C 332.816 -2.89417 -1.927 0
M  V30 3408 H 332.139 -3.68019 -1.56212 0
M  V30 3409 H 333.579 -3.38201 -2.55727 0
M  V30 3410 C 332.038 -1.91166 -2.77411 0
M  V30 3411 O 332.568 -1.42026 -3.75754 0
M  V30 3412 N 330.774 -1.59105 -2.43175 0
M  V30 3413 H 330.321 -1.99259 -1.63259 0
M  V30 3414 H 330.279 -0.936255 -3.00136 0
M  V30 3415 N 334.051 0.0651679 -1.57465 0
M  V30 3416 C 335.462 0.616213 -1.76238 0
M  V30 3417 C 335.813 1.7756 -0.834689 0
M  V30 3418 O 334.938 2.1639 -0.0204156 0
M  V30 3419 C 335.533 1.12462 -3.1959 0
M  V30 3420 C 334.092 1.62147 -3.39684 0
M  V30 3421 C 333.239 0.543739 -2.71917 0
M  V30 3422 H 336.19 -0.161022 -1.57881 0
M  V30 3423 H 336.211 1.99324 -3.24114 0
M  V30 3424 H 335.723 0.280592 -3.87084 0
M  V30 3425 H 333.824 2.48854 -2.77313 0
M  V30 3426 H 333.937 1.69385 -4.48158 0
M  V30 3427 H 332.301 0.990352 -2.34657 0
M  V30 3428 H 333.084 -0.290216 -3.42071 0
M  V30 3429 N 335.529 1.53961 0.336706 0
M  V30 3430 C 336.776 1.71536 1.07618 0
M  V30 3431 C 337.104 0.482125 1.8843 0
M  V30 3432 O 336.359 -0.536142 1.88213 0
M  V30 3433 C 336.658 2.93493 2.03953 0
M  V30 3434 C 336.324 4.28811 1.39399 0
M  V30 3435 C 334.986 4.65602 1.21523 0
M  V30 3436 C 337.338 5.12844 0.929541 0
M  V30 3437 C 334.666 5.84037 0.558312 0
M  V30 3438 C 337.018 6.31951 0.286505 0
M  V30 3439 C 335.682 6.67432 0.0954869 0
M  V30 3440 H 334.952 0.627696 0.393801 0
M  V30 3441 H 337.599 1.88186 0.354715 0
M  V30 3442 H 335.904 2.71475 2.82504 0
M  V30 3443 H 337.601 3.04285 2.61174 0
M  V30 3444 H 334.191 3.99858 1.54311 0
M  V30 3445 H 338.375 4.84947 1.05548 0
M  V30 3446 H 333.631 6.10097 0.398995 0
M  V30 3447 H 337.805 6.96352 -0.0814376 0
M  V30 3448 H 335.432 7.59063 -0.415579 0
M  V30 3449 N 337.007 -0.598083 1.45811 0
M  V30 3450 C 338.253 -1.35679 1.51535 0
M  V30 3451 C 338.608 -1.91745 0.15864 0
M  V30 3452 O 337.901 -1.72654 -0.830724 0
M  V30 3453 C 338.095 -2.51669 2.53766 0
M  V30 3454 C 337.924 -2.06963 3.99245 0
M  V30 3455 C 336.694 -1.92693 4.67116 0
M  V30 3456 C 338.892 -1.63855 4.875 0
M  V30 3457 N 336.874 -1.41897 5.97276 0
M  V30 3458 C 338.245 -1.24541 6.07363 0
M  V30 3459 C 340.3 -1.51533 4.74281 0
M  V30 3460 C 339.003 -0.741354 7.15469 0
M  V30 3461 C 341.029 -1.0253 5.82444 0
M  V30 3462 C 340.391 -0.641869 7.01469 0
M  V30 3463 H 336.49 -0.490042 0.609412 0
M  V30 3464 H 339.074 -0.682687 1.82339 0
M  V30 3465 H 337.245 -3.16663 2.24898 0
M  V30 3466 H 338.977 -3.18578 2.4958 0
M  V30 3467 H 335.732 -2.1417 4.22408 0
M  V30 3468 H 336.156 -1.18704 6.66512 0
M  V30 3469 H 340.798 -1.798 3.82664 0
M  V30 3470 H 338.516 -0.446243 8.06867 0
M  V30 3471 H 342.102 -0.934088 5.74253 0
M  V30 3472 H 340.982 -0.268531 7.8374 0
M  V30 3473 N 338.485 -1.33259 -0.841409 0
M  V30 3474 C 339.71 -1.2775 -1.63385 0
M  V30 3475 C 340.135 0.149188 -1.87507 0
M  V30 3476 O 339.493 1.10498 -1.43736 0
M  V30 3477 C 339.541 -2.05571 -2.96265 0
M  V30 3478 O 338.645 -1.41257 -3.87453 0
M  V30 3479 H 337.986 -0.439627 -0.497618 0
M  V30 3480 H 340.516 -1.75782 -1.04699 0
M  V30 3481 H 340.526 -2.16241 -3.45982 0
M  V30 3482 H 339.201 -3.09309 -2.7803 0
M  V30 3483 H 337.778 -1.39217 -3.45938 0
M  V30 3484 N 339.963 1.05934 -1.16686 0
M  V30 3485 C 340.895 2.13468 -0.834503 0
M  V30 3486 C 341.908 1.62013 0.15984 0
M  V30 3487 O 343.097 1.7838 -0.0654228 0
M  V30 3488 C 340.197 3.3817 -0.222361 0
M  V30 3489 C 339.37 4.18928 -1.25771 0
M  V30 3490 C 338.429 5.21985 -0.664703 0
M  V30 3491 O 337.455 5.53334 -1.33453 0
M  V30 3492 N 338.657 5.77919 0.546834 0
M  V30 3493 H 341.422 2.42578 -1.75999 0
M  V30 3494 H 338.983 1.21967 -1.06469 0
M  V30 3495 H 340.975 4.04266 0.187472 0
M  V30 3496 H 339.545 3.06655 0.606758 0
M  V30 3497 H 338.765 3.48433 -1.84358 0
M  V30 3498 H 340.053 4.69687 -1.95631 0
M  V30 3499 H 339.451 5.54721 1.10912 0
M  V30 3500 H 338.008 6.45573 0.898829 0
M  V30 3501 N 341.441 0.965919 1.2453 0
M  V30 3502 C 342.857 0.67216 1.44756 0
M  V30 3503 C 343.057 -0.766609 1.86347 0
M  V30 3504 O 342.113 -1.5407 2.00047 0
M  V30 3505 C 343.426 1.65473 2.51076 0
M  V30 3506 C 344.974 1.66716 2.64905 0
M  V30 3507 C 345.449 2.63766 3.74421 0
M  V30 3508 N 346.94 2.62198 3.81846 0
M  V30 3509 C 347.675 3.33966 4.66106 0
M  V30 3510 N 347.171 4.15245 5.54566 0
M  V30 3511 N 348.964 3.22799 4.60171 0
M  V30 3512 H 341.115 1.89553 0.958293 0
M  V30 3513 H 343.378 0.815979 0.482579 0
M  V30 3514 H 343.084 2.68296 2.27399 0
M  V30 3515 H 342.958 1.4261 3.49202 0
M  V30 3516 H 345.345 0.646057 2.87941 0
M  V30 3517 H 345.426 1.93642 1.67142 0
M  V30 3518 H 345.07 3.6601 3.52135 0
M  V30 3519 H 345 2.34121 4.71694 0
M  V30 3520 H 347.491 2.032 3.18619 0
M  V30 3521 H 347.804 4.66898 6.15814 0
M  V30 3522 H 346.149 4.1934 5.54237 0
M  V30 3523 H 349.34 2.58764 3.90075 0
M  V30 3524 H 349.513 3.78994 5.25612 0
M  V30 3525 N 342.919 -1.39368 0.735821 0
M  V30 3526 C 344.33 -1.83313 0.354015 0
M  V30 3527 C 344.681 -1.61461 -1.11466 0
M  V30 3528 O 343.806 -1.10621 -1.85989 0
M  V30 3529 C 344.401 -3.32781 0.635769 0
M  V30 3530 C 342.96 -3.75142 0.307448 0
M  V30 3531 C 342.107 -2.62358 0.897974 0
M  V30 3532 H 345.058 -1.28349 0.933398 0
M  V30 3533 H 345.079 -3.80388 -0.0921773 0
M  V30 3534 H 344.591 -3.48654 1.70476 0
M  V30 3535 H 342.692 -3.64857 -0.755674 0
M  V30 3536 H 342.805 -4.72532 0.790583 0
M  V30 3537 H 341.169 -2.52624 0.324551 0
M  V30 3538 H 341.952 -2.81036 1.97164 0
M  V30 3539 N 344.397 -0.483516 -1.5 0
M  V30 3540 C 345.674 0.129337 -1.95172 0
M  V30 3541 C 346.054 1.55802 -1.4244 0
M  V30 3542 O 345.402 2.19625 -0.630649 0
M  V30 3543 C 345.612 0.0599251 -3.48949 0
M  V30 3544 C 346.96 0.242617 -4.23906 0
M  V30 3545 O 347.984 0.135933 -3.55941 0
M  V30 3546 O 346.843 0.459454 -5.44565 0
M  V30 3547 H 343.937 0.104887 -0.820322 0
M  V30 3548 H 346.483 -0.544807 -1.60717 0
M  V30 3549 H 345.255 -0.937079 -3.79914 0
M  V30 3550 H 344.878 0.774984 -3.89974 0
M  V30 3551 N 345.875 1.56104 -0.216619 0
M  V30 3552 C 346.805 2.23063 0.690296 0
M  V30 3553 C 347.786 1.20072 1.20485 0
M  V30 3554 O 348.971 1.48643 1.24976 0
M  V30 3555 C 346.101 2.90672 1.90072 0
M  V30 3556 C 345.055 4.00092 1.5202 0
M  V30 3557 C 344.381 4.54972 2.80899 0
M  V30 3558 C 345.681 5.17398 0.71391 0
M  V30 3559 H 347.375 2.99109 0.132038 0
M  V30 3560 H 344.921 1.43866 0.0620664 0
M  V30 3561 H 346.874 3.36204 2.54057 0
M  V30 3562 H 345.598 2.12066 2.48386 0
M  V30 3563 H 344.257 3.55283 0.903839 0
M  V30 3564 H 343.905 3.73102 3.37348 0
M  V30 3565 H 343.605 5.28817 2.56176 0
M  V30 3566 H 345.129 5.0322 3.45836 0
M  V30 3567 H 346.543 5.59342 1.25735 0
M  V30 3568 H 344.94 5.97444 0.563951 0
M  V30 3569 H 346.01 4.84088 -0.280527 0
M  V30 3570 N 347.353 -0.0568162 1.57498 0
M  V30 3571 C 348.316 -1.05038 2.03715 0
M  V30 3572 C 349.316 -1.30709 0.936577 0
M  V30 3573 O 350.506 -1.26178 1.20103 0
M  V30 3574 C 347.638 -2.39034 2.43055 0
M  V30 3575 H 348.831 -0.651715 2.92733 0
M  V30 3576 H 346.384 -0.302947 1.53336 0
M  V30 3577 H 347.119 -2.83703 1.57108 0
M  V30 3578 H 346.904 -2.21739 3.2338 0
M  V30 3579 H 348.394 -3.10421 2.79336 0
M  V30 3580 N 348.832 -1.54138 -0.328536 0
M  V30 3581 C 349.795 -1.82462 -1.38709 0
M  V30 3582 C 350.795 -0.696229 -1.44946 0
M  V30 3583 O 351.985 -0.964535 -1.4506 0
M  V30 3584 C 349.117 -1.98018 -2.77492 0
M  V30 3585 H 350.31 -2.77037 -1.14851 0
M  V30 3586 H 347.863 -1.45779 -0.563751 0
M  V30 3587 H 348.598 -1.05637 -3.06613 0
M  V30 3588 H 348.383 -2.80124 -2.74359 0
M  V30 3589 H 349.873 -2.21396 -3.54081 0
M  V30 3590 N 350.31 0.590341 -1.46126 0
M  V30 3591 C 351.587 1.35029 -1.41515 0
M  V30 3592 C 351.967 2.10888 -0.0946472 0
M  V30 3593 O 351.315 2.08998 0.923693 0
M  V30 3594 C 351.525 2.28269 -2.63997 0
M  V30 3595 C 352.873 2.90338 -3.09821 0
M  V30 3596 O 353.897 2.38585 -2.64492 0
M  V30 3597 O 352.756 3.84321 -3.88535 0
M  V30 3598 H 349.85 0.606317 -0.562413 0
M  V30 3599 H 352.396 0.611994 -1.58281 0
M  V30 3600 H 351.168 1.71591 -3.51671 0
M  V30 3601 H 350.791 3.0945 -2.49652 0
M  V30 3602 N 351.788 1.33704 0.83433 0
M  V30 3603 C 352.736 1.24323 1.96587 0
M  V30 3604 C 353.73 0.143659 1.6879 0
M  V30 3605 O 354.936 0.30791 1.77347 0
M  V30 3606 H 351.311 0.385925 0.645419 0
M  V30 3607 H 353.282 2.19978 2.01624 0
M  V30 3608 C 352.031 1.00394 3.32891 0
M  V30 3609 H 351.354 1.84231 3.54822 0
M  V30 3610 H 352.794 0.97862 4.12552 0
M  V30 3611 C 351.253 -0.293047 3.35623 0
M  V30 3612 O 351.783 -1.29823 3.80143 0
M  V30 3613 N 349.989 -0.322174 2.88809 0
M  V30 3614 H 349.536 0.496379 2.52772 0
M  V30 3615 H 349.494 -1.18977 2.91019 0
M  V30 3616 N 353.266 -1.05314 1.17247 0
M  V30 3617 C 354.677 -1.59753 0.96623 0
M  V30 3618 C 355.028 -1.9005 -0.487378 0
M  V30 3619 O 354.153 -1.68126 -1.36245 0
M  V30 3620 C 354.748 -2.90249 1.74759 0
M  V30 3621 C 353.307 -3.41352 1.58606 0
M  V30 3622 C 352.454 -2.15103 1.75002 0
M  V30 3623 H 355.405 -0.881406 1.31973 0
M  V30 3624 H 355.426 -3.60097 1.22925 0
M  V30 3625 H 354.938 -2.68166 2.8055 0
M  V30 3626 H 353.039 -3.68474 0.552985 0
M  V30 3627 H 353.152 -4.16019 2.37624 0
M  V30 3628 H 351.516 -2.25804 1.17833 0
M  V30 3629 H 352.299 -1.95491 2.82202 0
M  V30 3630 N 354.744 -0.972509 -1.24016 0
M  V30 3631 C 355.993 -0.632603 -1.91523 0
M  V30 3632 C 356.306 0.836641 -1.76804 0
M  V30 3633 O 357.512 1.28728 -2.39043 0
M  V30 3634 C 355.968 -1.08082 -3.43287 0
M  V30 3635 C 355.576 -2.57386 -3.66683 0
M  V30 3636 C 357.32 -0.814288 -4.16617 0
M  V30 3637 C 355.227 -2.95915 -5.12043 0
M  V30 3638 H 354.157 -0.232898 -0.717129 0
M  V30 3639 H 356.808 -1.17936 -1.40582 0
M  V30 3640 H 355.19 -0.462339 -3.93292 0
M  V30 3641 H 356.364 -3.24405 -3.27258 0
M  V30 3642 H 354.679 -2.81701 -3.06649 0
M  V30 3643 H 357.276 -1.0781 -5.23718 0
M  V30 3644 H 357.619 0.24955 -4.15551 0
M  V30 3645 H 358.152 -1.39397 -3.72577 0
M  V30 3646 H 354.891 -4.0139 -5.18234 0
M  V30 3647 H 354.411 -2.33584 -5.52448 0
M  V30 3648 H 356.09 -2.86086 -5.80314 0
M  V30 3649 N 356.222 1.38976 -0.743202 0
M  V30 3650 C 357.17 2.32394 -0.0978389 0
M  V30 3651 C 358.164 1.53486 0.716824 0
M  V30 3652 O 359.37 1.69092 0.617088 0
M  V30 3653 H 355.745 0.75189 -0.0128402 0
M  V30 3654 H 357.716 2.84441 -0.901981 0
M  V30 3655 C 356.465 3.38629 0.789036 0
M  V30 3656 H 355.788 3.99432 0.171559 0
M  V30 3657 H 357.228 4.06426 1.20807 0
M  V30 3658 C 355.687 2.76347 1.92702 0
M  V30 3659 O 356.217 2.64836 3.02034 0
M  V30 3660 N 354.423 2.34311 1.71891 0
M  V30 3661 H 353.97 2.43873 0.829675 0
M  V30 3662 H 353.928 1.9298 2.48205 0
M  V30 3663 N 357.7 0.491464 1.49741 0
M  V30 3664 C 358.977 -0.118984 1.95238 0
M  V30 3665 C 359.357 -1.55044 1.43264 0
M  V30 3666 O 358.705 -2.19287 0.642287 0
M  V30 3667 C 358.915 -0.0414187 3.48975 0
M  V30 3668 C 360.263 -0.220133 4.24029 0
M  V30 3669 O 361.287 -0.117055 3.56008 0
M  V30 3670 O 360.146 -0.430567 5.44801 0
M  V30 3671 H 357.24 -0.100536 0.820866 0
M  V30 3672 H 359.786 0.553322 1.60426 0
M  V30 3673 H 358.558 0.957214 3.79412 0
M  V30 3674 H 358.181 -0.754292 3.9038 0
M  V30 3675 N 359.178 -1.55987 0.224894 0
M  V30 3676 C 360.403 -2.03232 -0.41369 0
M  V30 3677 C 360.828 -1.10359 -1.52323 0
M  V30 3678 O 360.186 -0.092395 -1.81064 0
M  V30 3679 C 360.234 -3.48682 -0.919405 0
M  V30 3680 O 359.338 -3.58947 -2.03054 0
M  V30 3681 H 358.679 -0.657428 -0.0931903 0
M  V30 3682 H 361.209 -2.01679 0.34451 0
M  V30 3683 H 361.219 -3.8907 -1.22835 0
M  V30 3684 H 359.894 -4.15761 -0.107339 0
M  V30 3685 H 358.471 -3.30448 -1.72796 0
M  V30 3686 N 360.656 0.0484629 -1.57525 0
M  V30 3687 C 361.604 1.07359 -2.06341 0
M  V30 3688 C 362.598 1.3865 -0.973269 0
M  V30 3689 O 363.804 1.37783 -1.15827 0
M  V30 3690 H 360.179 0.363662 -0.65822 0
M  V30 3691 H 362.15 0.635916 -2.91545 0
M  V30 3692 C 360.899 2.37198 -2.54229 0
M  V30 3693 H 360.222 2.13977 -3.37719 0
M  V30 3694 H 361.662 3.07319 -2.92115 0
M  V30 3695 C 360.121 3.04805 -1.43511 0
M  V30 3696 O 360.651 3.93848 -0.79034 0
M  V30 3697 N 358.857 2.65811 -1.17444 0
M  V30 3698 H 358.404 1.93488 -1.70059 0
M  V30 3699 H 358.362 3.11366 -0.435737 0
M  V30 3700 N 362.134 1.5431 0.320358 0
M  V30 3701 C 363.362 1.76636 1.07738 0
M  V30 3702 C 363.777 0.51649 1.81598 0
M  V30 3703 O 363.134 -0.512942 1.75143 0
M  V30 3704 C 363.185 2.96158 2.07299 0
M  V30 3705 O 362.906 4.16313 1.36438 0
M  V30 3706 C 364.407 3.3072 2.95193 0
M  V30 3707 H 361.627 0.589597 0.320339 0
M  V30 3708 H 364.171 2.01207 0.36551 0
M  V30 3709 H 362.326 2.73851 2.74016 0
M  V30 3710 H 362.74 4.83565 2.03138 0
M  V30 3711 H 364.214 4.17643 3.60941 0
M  V30 3712 H 364.691 2.48026 3.62463 0
M  V30 3713 H 365.297 3.55117 2.34034 0
M  V30 3714 N 363.613 -0.582584 1.46437 0
M  V30 3715 C 364.546 -1.70633 1.51524 0
M  V30 3716 C 365.524 -1.58349 0.369351 0
M  V30 3717 O 366.708 -1.79563 0.573516 0
M  V30 3718 C 363.835 -3.08687 1.39392 0
M  V30 3719 C 362.881 -3.3949 2.58164 0
M  V30 3720 S 363.714 -3.31548 4.20519 0
M  V30 3721 C 364.87 -4.72139 4.10896 0
M  V30 3722 H 365.103 -1.66058 2.46601 0
M  V30 3723 H 362.636 -0.761337 1.34324 0
M  V30 3724 H 364.594 -3.8833 1.33079 0
M  V30 3725 H 363.255 -3.10751 0.457436 0
M  V30 3726 H 362.448 -4.40071 2.45669 0
M  V30 3727 H 362.05 -2.67415 2.61468 0
M  V30 3728 H 364.342 -5.62527 3.77584 0
M  V30 3729 H 365.285 -4.89692 5.11476 0
M  V30 3730 H 365.693 -4.48995 3.42146 0
M  V30 3731 N 365.091 -1.34144 -0.827227 0
M  V30 3732 C 366.321 -1.29138 -1.61267 0
M  V30 3733 C 366.729 0.137597 -1.88699 0
M  V30 3734 O 366.072 1.09379 -1.47587 0
M  V30 3735 C 366.134 -2.0097 -2.9808 0
M  V30 3736 C 365.798 -3.50242 -2.93563 0
M  V30 3737 C 366.795 -4.4523 -2.68452 0
M  V30 3738 C 364.48 -3.92592 -3.13331 0
M  V30 3739 C 366.474 -5.80542 -2.63154 0
M  V30 3740 C 364.161 -5.28005 -3.07658 0
M  V30 3741 C 365.159 -6.21792 -2.82602 0
M  V30 3742 O 364.847 -7.54723 -2.76853 0
M  V30 3743 H 364.579 -0.445851 -0.508127 0
M  V30 3744 H 367.133 -1.77263 -1.03763 0
M  V30 3745 H 365.363 -1.47451 -3.57484 0
M  V30 3746 H 367.052 -1.89309 -3.5905 0
M  V30 3747 H 367.818 -4.13832 -2.52919 0
M  V30 3748 H 363.697 -3.19994 -3.31851 0
M  V30 3749 H 367.241 -6.53717 -2.43516 0
M  V30 3750 H 363.138 -5.59023 -3.22743 0
M  V30 3751 H 363.906 -7.64409 -2.92611 0
M  V30 3752 N 366.569 1.04691 -1.17803 0
M  V30 3753 C 367.794 1.81984 -0.994813 0
M  V30 3754 C 368.219 1.82586 0.452112 0
M  V30 3755 O 367.577 1.23854 1.324 0
M  V30 3756 C 367.625 3.2575 -1.54659 0
M  V30 3757 O 366.729 4.05267 -0.763728 0
M  V30 3758 H 366.07 0.562483 -0.352857 0
M  V30 3759 H 368.6 1.3189 -1.56417 0
M  V30 3760 H 368.61 3.76541 -1.57102 0
M  V30 3761 H 367.285 3.24627 -2.59981 0
M  V30 3762 H 365.862 3.63972 -0.811108 0
M  V30 3763 N 368.047 0.979072 1.23499 0
M  V30 3764 C 369.293 0.648178 1.92163 0
M  V30 3765 C 369.626 -0.816049 1.76222 0
M  V30 3766 O 368.901 -1.58849 1.12237 0
M  V30 3767 C 369.184 1.03773 3.44824 0
M  V30 3768 C 369.037 2.55948 3.69879 0
M  V30 3769 C 370.356 0.580653 4.36253 0
M  V30 3770 H 367.475 0.236952 0.69787 0
M  V30 3771 H 370.117 1.22012 1.45647 0
M  V30 3772 H 368.267 0.551058 3.84572 0
M  V30 3773 H 369.939 3.12179 3.3962 0
M  V30 3774 H 368.182 2.98641 3.14636 0
M  V30 3775 H 368.853 2.78255 4.76737 0
M  V30 3776 H 371.329 0.998465 4.03943 0
M  V30 3777 H 370.205 0.881663 5.41773 0
M  V30 3778 H 370.466 -0.519052 4.39042 0
M  V30 3779 N 369.525 -1.3858 0.750561 0
M  V30 3780 C 370.475 -2.27795 0.0965949 0
M  V30 3781 C 371.459 -1.45048 -0.696411 0
M  V30 3782 O 372.651 -1.67812 -0.562863 0
M  V30 3783 C 369.78 -3.33894 -0.798085 0
M  V30 3784 C 368.866 -4.241 0.0016067 0
M  V30 3785 N 369.257 -4.95067 1.03647 0
M  V30 3786 C 367.555 -4.45429 -0.225674 0
M  V30 3787 C 368.256 -5.61489 1.52004 0
M  V30 3788 N 367.232 -5.37135 0.835874 0
M  V30 3789 H 371.034 -2.80125 0.889228 0
M  V30 3790 H 368.548 -1.51446 0.586323 0
M  V30 3791 H 370.545 -3.96693 -1.28219 0
M  V30 3792 H 369.205 -2.83123 -1.5897 0
M  V30 3793 H 370.216 -4.98104 1.41819 0
M  V30 3794 H 366.893 -4.05571 -0.990872 0
M  V30 3795 H 368.283 -6.28264 2.38188 0
M  V30 3796 N 371.003 -0.499398 -1.49478 0
M  V30 3797 C 372.25 0.0456899 -2.02448 0
M  V30 3798 C 372.578 1.37142 -1.37921 0
M  V30 3799 O 371.833 1.89111 -0.503544 0
M  V30 3800 C 372.132 0.248424 -3.56536 0
M  V30 3801 C 371.798 -0.999107 -4.39692 0
M  V30 3802 C 370.46 -1.34108 -4.62135 0
M  V30 3803 C 372.812 -1.82842 -4.88076 0
M  V30 3804 C 370.14 -2.51191 -5.30208 0
M  V30 3805 C 372.492 -2.99076 -5.57437 0
M  V30 3806 C 371.156 -3.33655 -5.78127 0
M  V30 3807 H 370.426 0.0167191 -0.740811 0
M  V30 3808 H 373.073 -0.65923 -1.79795 0
M  V30 3809 H 371.378 1.03586 -3.77859 0
M  V30 3810 H 373.075 0.684605 -3.95113 0
M  V30 3811 H 369.665 -0.722729 -4.22463 0
M  V30 3812 H 373.849 -1.57737 -4.70566 0
M  V30 3813 H 369.105 -2.78221 -5.44429 0
M  V30 3814 H 373.279 -3.63664 -5.93904 0
M  V30 3815 H 370.906 -4.24483 -6.30649 0
M  V30 3816 N 372.481 1.55866 -0.233164 0
M  V30 3817 C 373.711 2.02704 0.399325 0
M  V30 3818 C 374.119 1.11204 1.53069 0
M  V30 3819 O 373.462 0.116182 1.83332 0
M  V30 3820 C 373.524 3.45844 0.981429 0
M  V30 3821 C 373.188 4.56997 -0.0159561 0
M  V30 3822 C 374.185 5.13384 -0.820552 0
M  V30 3823 C 371.87 5.0211 -0.138072 0
M  V30 3824 C 373.864 6.13365 -1.73386 0
M  V30 3825 C 371.551 6.01926 -1.0549 0
M  V30 3826 C 372.549 6.57431 -1.85132 0
M  V30 3827 O 372.237 7.55302 -2.75272 0
M  V30 3828 H 371.969 0.668459 0.100692 0
M  V30 3829 H 374.523 2.02387 -0.35052 0
M  V30 3830 H 372.753 3.43267 1.78058 0
M  V30 3831 H 374.442 3.76262 1.52255 0
M  V30 3832 H 375.208 4.79372 -0.736721 0
M  V30 3833 H 371.087 4.5858 0.471737 0
M  V30 3834 H 374.631 6.56614 -2.35592 0
M  V30 3835 H 370.528 6.35359 -1.1397 0
M  V30 3836 H 371.296 7.72867 -2.69477 0
M  V30 3837 N 373.959 -0.0401083 1.57549 0
M  V30 3838 C 375.184 -0.748931 1.93406 0
M  V30 3839 C 375.609 -1.68686 0.832274 0
M  V30 3840 O 374.967 -1.80047 -0.212818 0
M  V30 3841 C 375.015 -1.4916 3.28304 0
M  V30 3842 O 374.119 -2.6042 3.19774 0
M  V30 3843 H 373.46 -0.202212 0.63246 0
M  V30 3844 H 375.99 0.00112086 2.046 0
M  V30 3845 H 376 -1.86395 3.62934 0
M  V30 3846 H 374.675 -0.80364 4.08062 0
M  V30 3847 H 373.252 -2.25808 2.96758 0
M  V30 3848 N 375.437 -1.54477 -0.31217 0
M  V30 3849 C 376.685 -1.72884 -1.04668 0
M  V30 3850 C 377.006 -0.511477 -1.88173 0
M  V30 3851 O 376.276 0.474407 -1.90069 0
M  V30 3852 H 374.856 -0.637461 -0.389425 0
M  V30 3853 H 377.518 -1.91807 -0.345852 0
M  V30 3854 H 376.614 -2.61334 -1.70619 0
M  V30 3855 N 376.915 0.57481 -1.46744 0
M  V30 3856 C 378.143 1.35856 -1.56047 0
M  V30 3857 C 378.558 1.87691 -0.204365 0
M  V30 3858 O 377.915 1.64049 0.79963 0
M  V30 3859 C 377.966 2.54066 -2.57163 0
M  V30 3860 O 377.687 2.04377 -3.87507 0
M  V30 3861 C 379.188 3.46514 -2.76483 0
M  V30 3862 H 376.408 0.414754 -0.527466 0
M  V30 3863 H 378.952 0.698035 -1.92218 0
M  V30 3864 H 377.107 3.16092 -2.23974 0
M  V30 3865 H 377.521 2.81419 -4.4261 0
M  V30 3866 H 378.995 4.25919 -3.51137 0
M  V30 3867 H 379.472 3.98951 -1.83671 0
M  V30 3868 H 380.078 2.90318 -3.10799 0
M  V30 3869 N 378.394 1.34581 0.820102 0
M  V30 3870 C 379.342 1.26401 1.95258 0
M  V30 3871 C 380.336 0.161553 1.68628 0
M  V30 3872 O 381.542 0.326703 1.7701 0
M  V30 3873 H 377.917 0.392749 0.64129 0
M  V30 3874 H 379.888 2.22105 1.99279 0
M  V30 3875 C 378.637 1.03919 3.31807 0
M  V30 3876 H 377.96 1.87984 3.52848 0
M  V30 3877 H 379.4 1.02232 4.11491 0
M  V30 3878 C 377.859 -0.257433 3.35915 0
M  V30 3879 O 378.389 -1.25784 3.81499 0
M  V30 3880 N 376.595 -0.291524 2.89134 0
M  V30 3881 H 376.142 0.523161 2.52232 0
M  V30 3882 H 376.1 -1.15883 2.92264 0
M  V30 3883 N 379.872 -1.04064 1.18357 0
M  V30 3884 C 381.283 -1.58719 0.98312 0
M  V30 3885 C 381.634 -1.90556 -0.467193 0
M  V30 3886 O 380.759 -1.69561 -1.34454 0
M  V30 3887 C 381.354 -2.88379 1.77828 0
M  V30 3888 C 379.913 -3.3965 1.62218 0
M  V30 3889 C 379.06 -2.13235 1.77274 0
M  V30 3890 H 382.011 -0.867359 1.32901 0
M  V30 3891 H 382.032 -3.58773 1.26737 0
M  V30 3892 H 381.544 -2.65176 2.83379 0
M  V30 3893 H 379.645 -3.67866 0.592036 0
M  V30 3894 H 379.758 -4.13475 2.42023 0
M  V30 3895 H 378.122 -2.24542 1.20221 0
M  V30 3896 H 378.905 -1.92487 2.8426 0
M  V30 3897 N 381.35 -0.985608 -1.22978 0
M  V30 3898 C 382.599 -0.652881 -1.90841 0
M  V30 3899 C 382.912 0.817842 -1.77681 0
M  V30 3900 O 384.118 1.26185 -2.40395 0
M  V30 3901 C 382.574 -1.11717 -3.42122 0
M  V30 3902 C 382.182 -2.6126 -3.63933 0
M  V30 3903 C 383.926 -0.85843 -4.1573 0
M  V30 3904 C 381.833 -3.0133 -5.08876 0
M  V30 3905 H 380.763 -0.240491 -0.714619 0
M  V30 3906 H 383.414 -1.1942 -1.39324 0
M  V30 3907 H 381.796 -0.504027 -3.92779 0
M  V30 3908 H 382.97 -3.27858 -3.23799 0
M  V30 3909 H 381.285 -2.84937 -3.03644 0
M  V30 3910 H 383.882 -1.13359 -5.22546 0
M  V30 3911 H 384.225 0.205461 -4.15793 0
M  V30 3912 H 384.758 -1.43341 -3.71077 0
M  V30 3913 H 381.497 -4.06864 -5.13947 0
M  V30 3914 H 381.017 -2.3943 -5.49939 0
M  V30 3915 H 382.696 -2.92224 -5.77247 0
M  V30 3916 N 382.828 1.3818 -0.7579 0
M  V30 3917 C 384.053 2.04827 -0.325679 0
M  V30 3918 C 384.478 1.56788 1.03919 0
M  V30 3919 O 383.836 0.721811 1.66312 0
M  V30 3920 C 383.884 3.58774 -0.362447 0
M  V30 3921 O 382.988 4.07372 0.642033 0
M  V30 3922 H 382.329 0.64833 -0.143402 0
M  V30 3923 H 384.859 1.7677 -1.03023 0
M  V30 3924 H 384.869 4.07434 -0.214844 0
M  V30 3925 H 383.544 3.93096 -1.35824 0
M  V30 3926 H 382.121 3.70068 0.458688 0
M  V30 3927 N 384.306 0.507319 1.49211 0
M  V30 3928 C 385.534 -0.0315749 2.06876 0
M  V30 3929 C 385.949 -1.30241 1.36685 0
M  V30 3930 O 385.306 -1.76937 0.447152 0
M  V30 3931 C 385.357 -0.282627 3.60393 0
M  V30 3932 O 385.078 0.937835 4.27944 0
M  V30 3933 C 386.579 -0.864453 4.3479 0
M  V30 3934 H 383.799 0.0233048 0.670595 0
M  V30 3935 H 386.343 0.706484 1.91909 0
M  V30 3936 H 384.498 -0.97068 3.75042 0
M  V30 3937 H 384.912 0.704567 5.19746 0
M  V30 3938 H 386.386 -0.989664 5.43056 0
M  V30 3939 H 386.863 -1.86382 3.97692 0
M  V30 3940 H 387.469 -0.213672 4.24763 0
M  V30 3941 N 385.784 -1.5574 0.241426 0
M  V30 3942 C 387.03 -1.99104 -0.385406 0
M  V30 3943 C 387.363 -1.1293 -1.57988 0
M  V30 3944 O 386.638 -0.191449 -1.93555 0
M  V30 3945 C 386.921 -3.51087 -0.800616 0
M  V30 3946 C 386.774 -4.48028 0.398874 0
M  V30 3947 C 388.093 -4.08015 -1.64959 0
M  V30 3948 H 385.212 -0.723848 -0.138614 0
M  V30 3949 H 387.854 -1.86903 0.341642 0
M  V30 3950 H 386.004 -3.61615 -1.4201 0
M  V30 3951 H 387.676 -4.49487 1.03726 0
M  V30 3952 H 385.919 -4.21077 1.04293 0
M  V30 3953 H 386.59 -5.51962 0.0651056 0
M  V30 3954 H 389.066 -4.00555 -1.12672 0
M  V30 3955 H 387.942 -5.14635 -1.90898 0
M  V30 3956 H 388.203 -3.56131 -2.61961 0
M  V30 3957 N 387.262 0.0317525 -1.57568 0
M  V30 3958 C 388.539 0.758366 -1.803 0
M  V30 3959 C 388.919 1.93718 -0.838845 0
M  V30 3960 O 388.267 2.28187 0.119571 0
M  V30 3961 C 388.477 1.19392 -3.27943 0
M  V30 3962 C 389.825 1.61094 -3.92854 0
M  V30 3963 O 390.849 1.28857 -3.32076 0
M  V30 3964 O 389.708 2.20918 -4.99858 0
M  V30 3965 H 386.802 0.366514 -0.741348 0
M  V30 3966 H 389.348 0.00873765 -1.69698 0
M  V30 3967 H 388.12 0.352275 -3.89711 0
M  V30 3968 H 387.743 2.00365 -3.43424 0
M  V30 3969 N 388.74 1.54641 0.303973 0
M  V30 3970 C 389.968 1.77768 1.05858 0
M  V30 3971 C 390.383 0.535722 1.8104 0
M  V30 3972 O 389.74 -0.494337 1.75677 0
M  V30 3973 C 389.791 2.9834 2.04146 0
M  V30 3974 O 389.512 4.17736 1.32015 0
M  V30 3975 C 391.013 3.33832 2.91669 0
M  V30 3976 H 388.233 0.592961 0.314067 0
M  V30 3977 H 390.777 2.01583 0.344149 0
M  V30 3978 H 388.932 2.76742 2.71096 0
M  V30 3979 H 389.346 4.85693 1.97998 0
M  V30 3980 H 390.82 4.21448 3.56491 0
M  V30 3981 H 391.297 2.51857 3.59812 0
M  V30 3982 H 391.903 3.57579 2.30254 0
M  V30 3983 N 390.218 -0.567019 1.47046 0
M  V30 3984 C 391.166 -1.69593 1.59188 0
M  V30 3985 C 392.16 -1.63046 0.459609 0
M  V30 3986 O 393.366 -1.6835 0.637058 0
M  V30 3987 H 389.741 -0.560993 0.500791 0
M  V30 3988 H 391.712 -1.56488 2.54075 0
M  V30 3989 C 390.461 -3.07964 1.61411 0
M  V30 3990 H 389.784 -3.13679 2.47881 0
M  V30 3991 H 391.224 -3.86671 1.73958 0
M  V30 3992 C 389.683 -3.35123 0.34559 0
M  V30 3993 O 390.213 -3.97812 -0.557521 0
M  V30 3994 N 388.419 -2.89699 0.22864 0
M  V30 3995 H 387.966 -2.38863 0.964479 0
M  V30 3996 H 387.924 -3.08242 -0.619192 0
M  V30 3997 N 391.696 -1.35014 -0.812953 0
M  V30 3998 C 393.112 -1.14914 -1.10757 0
M  V30 3999 C 393.312 0.0426818 -2.01455 0
M  V30 4000 O 392.368 0.715212 -2.42159 0
M  V30 4001 C 393.681 -2.44911 -1.74468 0
M  V30 4002 C 395.229 -2.5106 -1.86917 0
M  V30 4003 C 395.704 -3.81085 -2.54044 0
M  V30 4004 N 397.195 -3.82301 -2.61535 0
M  V30 4005 C 397.93 -4.79634 -3.14227 0
M  V30 4006 N 397.426 -5.87353 -3.67407 0
M  V30 4007 N 399.219 -4.67078 -3.12721 0
M  V30 4008 H 391.37 -2.1136 -0.20989 0
M  V30 4009 H 393.633 -0.935128 -0.155692 0
M  V30 4010 H 393.339 -3.32267 -1.15289 0
M  V30 4011 H 393.213 -2.58989 -2.74234 0
M  V30 4012 H 395.6 -1.64137 -2.45241 0
M  V30 4013 H 395.681 -2.40901 -0.860242 0
M  V30 4014 H 395.325 -4.68402 -1.96372 0
M  V30 4015 H 395.255 -3.88529 -3.55461 0
M  V30 4016 H 397.746 -3.04465 -2.23851 0
M  V30 4017 H 398.059 -6.57624 -4.05894 0
M  V30 4018 H 396.404 -5.91054 -3.65623 0
M  V30 4019 H 399.595 -3.82067 -2.70449 0
M  V30 4020 H 399.768 -5.43098 -3.53481 0
M  V30 4021 N 393.175 1.03435 -1.18907 0
M  V30 4022 C 394.452 1.73778 -0.89781 0
M  V30 4023 C 394.832 2.02458 0.597832 0
M  V30 4024 O 394.18 1.67482 1.55441 0
M  V30 4025 C 394.39 3.01845 -1.75187 0
M  V30 4026 C 395.738 3.7546 -1.9828 0
M  V30 4027 O 396.762 3.11759 -1.72293 0
M  V30 4028 O 395.621 4.89966 -2.42065 0
M  V30 4029 H 392.715 0.75651 -0.334098 0
M  V30 4030 H 395.261 1.09444 -1.29693 0
M  V30 4031 H 394.033 2.76836 -2.76545 0
M  V30 4032 H 393.656 3.73919 -1.35167 0
M  V30 4033 N 394.653 0.992116 1.22453 0
M  V30 4034 C 395.601 0.534644 2.26372 0
M  V30 4035 C 396.595 -0.414293 1.64256 0
M  V30 4036 O 397.801 -0.286899 1.77699 0
M  V30 4037 H 394.176 0.154502 0.735957 0
M  V30 4038 H 396.147 1.42256 2.62309 0
M  V30 4039 C 394.896 -0.135815 3.47435 0
M  V30 4040 H 394.219 0.585311 3.95492 0
M  V30 4041 H 395.659 -0.419374 4.21921 0
M  V30 4042 C 394.118 -1.37089 3.07747 0
M  V30 4043 O 394.648 -2.46629 3.17076 0
M  V30 4044 N 392.854 -1.24585 2.62539 0
M  V30 4045 H 392.401 -0.354542 2.55149 0
M  V30 4046 H 392.359 -2.07327 2.36353 0
M  V30 4047 N 396.131 -1.37776 0.765217 0
M  V30 4048 C 397.094 -2.28686 0.153416 0
M  V30 4049 C 398.094 -1.47727 -0.635081 0
M  V30 4050 O 399.284 -1.68027 -0.459632 0
M  V30 4051 C 396.416 -3.31608 -0.790495 0
M  V30 4052 H 397.609 -2.84297 0.954723 0
M  V30 4053 H 395.162 -1.46932 0.53299 0
M  V30 4054 H 395.897 -2.81109 -1.61705 0
M  V30 4055 H 395.682 -3.9144 -0.227348 0
M  V30 4056 H 397.172 -3.99559 -1.21419 0
M  V30 4057 N 397.609 -0.515225 -1.4894 0
M  V30 4058 C 398.542 0.302518 -2.26186 0
M  V30 4059 C 399.52 0.957895 -1.31389 0
M  V30 4060 O 400.704 0.985198 -1.60705 0
M  V30 4061 C 397.831 1.42719 -3.07163 0
M  V30 4062 C 396.877 0.884736 -4.17223 0
M  V30 4063 S 397.71 -0.235767 -5.34981 0
M  V30 4064 C 398.866 0.891731 -6.19515 0
M  V30 4065 H 399.099 -0.353076 -2.95196 0
M  V30 4066 H 396.632 -0.300753 -1.51443 0
M  V30 4067 H 398.59 2.07152 -3.54398 0
M  V30 4068 H 397.251 2.05445 -2.37595 0
M  V30 4069 H 396.444 1.72801 -4.73451 0
M  V30 4070 H 396.046 0.317362 -3.72651 0
M  V30 4071 H 398.338 1.79377 -6.53322 0
M  V30 4072 H 399.281 0.367751 -7.07144 0
M  V30 4073 H 399.689 1.16548 -5.52338 0
M  V30 4074 N 399.087 1.5561 -0.249682 0
M  V30 4075 C 400.312 2.03865 0.381305 0
M  V30 4076 C 400.737 1.12769 1.50548 0
M  V30 4077 O 400.095 0.121189 1.80895 0
M  V30 4078 C 400.143 3.50101 0.863816 0
M  V30 4079 O 399.247 3.62132 1.97318 0
M  V30 4080 H 398.588 0.658827 0.0827194 0
M  V30 4081 H 401.118 2.01105 -0.376552 0
M  V30 4082 H 401.128 3.90975 1.1663 0
M  V30 4083 H 399.803 4.1588 0.0411816 0
M  V30 4084 H 398.38 3.33155 1.67517 0
M  V30 4085 N 400.565 -0.0233959 1.57583 0
M  V30 4086 C 401.513 -1.04063 2.08023 0
M  V30 4087 C 402.507 -1.37084 0.995204 0
M  V30 4088 O 403.713 -1.35923 1.18004 0
M  V30 4089 H 400.088 -0.353144 0.663922 0
M  V30 4090 H 402.059 -0.589453 2.9252 0
M  V30 4091 C 400.808 -2.33123 2.57971 0
M  V30 4092 H 400.131 -2.08577 3.4108 0
M  V30 4093 H 401.571 -3.02632 2.96967 0
M  V30 4094 C 400.03 -3.02483 1.48342 0
M  V30 4095 O 400.56 -3.92541 0.852898 0
M  V30 4096 N 398.766 -2.63909 1.21658 0
M  V30 4097 H 398.313 -1.90758 1.73116 0
M  V30 4098 H 398.271 -3.10633 0.485218 0
M  V30 4099 N 402.043 -1.548 -0.295768 0
M  V30 4100 C 403.289 -1.74588 -1.03184 0
M  V30 4101 C 403.622 -0.532962 -1.86744 0
M  V30 4102 O 402.897 0.469872 -1.88739 0
M  V30 4103 C 403.18 -3.03791 -1.93347 0
M  V30 4104 C 403.033 -4.35392 -1.12933 0
M  V30 4105 C 404.352 -3.28892 -2.92435 0
M  V30 4106 H 401.471 -0.635221 -0.373715 0
M  V30 4107 H 404.113 -1.87519 -0.30606 0
M  V30 4108 H 402.263 -2.92898 -2.55232 0
M  V30 4109 H 403.935 -4.58211 -0.532943 0
M  V30 4110 H 402.178 -4.31642 -0.432168 0
M  V30 4111 H 402.849 -5.22074 -1.79284 0
M  V30 4112 H 405.325 -3.39429 -2.4068 0
M  V30 4113 H 404.201 -4.20603 -3.52682 0
M  V30 4114 H 404.462 -2.47437 -3.6637 0
M  V30 4115 N 403.521 0.559213 -1.47345 0
M  V30 4116 C 404.937 0.884943 -1.32819 0
M  V30 4117 C 405.137 1.98988 -0.317173 0
M  V30 4118 O 404.193 2.51031 0.272011 0
M  V30 4119 C 405.506 1.28007 -2.72093 0
M  V30 4120 C 407.054 1.39161 -2.80363 0
M  V30 4121 C 407.529 1.82031 -4.20272 0
M  V30 4122 N 409.02 1.89185 -4.22804 0
M  V30 4123 C 409.755 2.2368 -5.27973 0
M  V30 4124 N 409.251 2.56802 -6.43447 0
M  V30 4125 N 411.044 2.24436 -5.15349 0
M  V30 4126 H 403.195 -0.170304 -2.11716 0
M  V30 4127 H 405.458 -0.0135247 -0.947904 0
M  V30 4128 H 405.164 0.542027 -3.47498 0
M  V30 4129 H 405.038 2.23665 -3.03733 0
M  V30 4130 H 407.425 2.12048 -2.05231 0
M  V30 4131 H 407.506 0.41696 -2.52379 0
M  V30 4132 H 407.15 1.09715 -4.95908 0
M  V30 4133 H 407.08 2.80495 -4.45679 0
M  V30 4134 H 409.571 1.65982 -3.39497 0
M  V30 4135 H 409.884 2.82144 -7.19454 0
M  V30 4136 H 408.229 2.54387 -6.46771 0
M  V30 4137 H 411.42 1.97998 -4.24163 0
M  V30 4138 H 411.593 2.50989 -5.97418 0
M  V30 4139 N 404.999 1.35443 0.805782 0
M  V30 4140 C 406.229 1.31687 1.59192 0
M  V30 4141 C 406.637 -0.10756 1.88894 0
M  V30 4142 O 405.98 -1.07017 1.49309 0
M  V30 4143 C 406.042 2.05686 2.94845 0
M  V30 4144 C 405.706 3.54868 2.87954 0
M  V30 4145 C 406.703 4.49444 2.61335 0
M  V30 4146 C 404.388 3.97528 3.07046 0
M  V30 4147 C 406.382 5.84655 2.53885 0
M  V30 4148 C 404.069 5.32833 2.99219 0
M  V30 4149 C 405.067 6.26209 2.72674 0
M  V30 4150 O 404.755 7.59032 2.64811 0
M  V30 4151 H 404.487 0.453878 0.50097 0
M  V30 4152 H 407.041 1.78892 1.0093 0
M  V30 4153 H 405.271 1.5312 3.55093 0
M  V30 4154 H 406.96 1.94998 3.55993 0
M  V30 4155 H 407.726 4.17804 2.46303 0
M  V30 4156 H 403.605 3.25233 3.26718 0
M  V30 4157 H 407.149 6.57508 2.33086 0
M  V30 4158 H 403.046 5.64087 3.13809 0
M  V30 4159 H 403.814 7.68967 2.80413 0
M  V30 4160 N 406.477 -1.02803 1.19454 0
M  V30 4161 C 407.44 -2.09264 0.934955 0
M  V30 4162 C 408.44 -1.60576 -0.0849015 0
M  V30 4163 O 409.63 -1.73554 0.149933 0
M  V30 4164 C 406.762 -3.38482 0.40531 0
M  V30 4165 H 407.955 -2.33726 1.87916 0
M  V30 4166 H 405.508 -1.19426 1.00832 0
M  V30 4167 H 406.243 -3.19689 -0.544899 0
M  V30 4168 H 406.028 -3.75142 1.14065 0
M  V30 4169 H 407.518 -4.16894 0.242806 0
M  V30 4170 N 407.956 -0.998596 -1.21925 0
M  V30 4171 C 408.886 -0.573688 -2.26343 0
M  V30 4172 C 409.867 0.402296 -1.65274 0
M  V30 4173 O 411.052 0.291683 -1.91997 0
M  V30 4174 C 408.182 0.106839 -3.47136 0
M  V30 4175 C 407.136 -0.788269 -4.20678 0
M  V30 4176 C 406.462 0.0254927 -5.34694 0
M  V30 4177 C 407.762 -2.08784 -4.78755 0
M  V30 4178 H 409.456 -1.44651 -2.62138 0
M  V30 4179 H 407.002 -0.696975 -1.26009 0
M  V30 4180 H 408.955 0.415531 -4.19346 0
M  V30 4181 H 407.679 1.01424 -3.10452 0
M  V30 4182 H 406.338 -1.08069 -3.50309 0
M  V30 4183 H 405.986 0.933989 -4.94253 0
M  V30 4184 H 405.686 -0.570437 -5.84825 0
M  V30 4185 H 407.21 0.328147 -6.09718 0
M  V30 4186 H 408.624 -1.84272 -5.42878 0
M  V30 4187 H 407.021 -2.63307 -5.39249 0
M  V30 4188 H 408.091 -2.76284 -3.98491 0
M  V30 4189 N 409.434 1.37368 -0.772513 0
M  V30 4190 C 410.382 2.32134 -0.147111 0
M  V30 4191 C 411.376 1.54972 0.684106 0
M  V30 4192 O 412.582 1.70363 0.581083 0
M  V30 4193 H 408.957 0.751449 -0.028786 0
M  V30 4194 H 410.928 2.82464 -0.962112 0
M  V30 4195 C 409.677 3.40226 0.71703 0
M  V30 4196 H 409 3.99706 0.0867951 0
M  V30 4197 H 410.44 4.08897 1.12159 0
M  V30 4198 C 408.899 2.80372 1.86797 0
M  V30 4199 O 409.429 2.71183 2.96349 0
M  V30 4200 N 407.635 2.37904 1.66883 0
M  V30 4201 H 407.182 2.45578 0.777759 0
M  V30 4202 H 407.14 1.98202 2.44056 0
M  V30 4203 N 410.912 0.523116 1.48665 0
M  V30 4204 C 411.862 -0.263106 2.26477 0
M  V30 4205 C 412.846 -0.916005 1.32281 0
M  V30 4206 O 414.038 -0.819946 1.56863 0
M  V30 4207 C 411.167 -1.31361 3.17174 0
M  V30 4208 C 410.253 -0.665849 4.1884 0
M  V30 4209 N 410.644 0.244434 5.05209 0
M  V30 4210 C 408.942 -0.923863 4.36326 0
M  V30 4211 C 409.643 0.617443 5.78414 0
M  V30 4212 N 408.619 -0.0198686 5.43596 0
M  V30 4213 H 412.421 0.437295 2.90629 0
M  V30 4214 H 409.935 0.340675 1.58787 0
M  V30 4215 H 411.932 -1.89052 3.71571 0
M  V30 4216 H 410.592 -2.01546 2.54576 0
M  V30 4217 H 411.603 0.616621 5.14216 0
M  V30 4218 H 408.28 -1.6168 3.84923 0
M  V30 4219 H 409.67 1.36346 6.57921 0
M  V30 4220 N 412.39 -1.55475 0.257931 0
M  V30 4221 C 413.638 -1.98813 -0.363009 0
M  V30 4222 C 413.959 -1.14757 -1.57657 0
M  V30 4223 O 413.229 -0.232956 -1.9451 0
M  V30 4224 H 411.809 -0.734308 -0.137113 0
M  V30 4225 H 414.471 -1.9156 0.359281 0
M  V30 4226 H 413.567 -3.04941 -0.664634 0
M  V30 4227 N 413.868 0.0150385 -1.57593 0
M  V30 4228 C 414.831 0.995996 -2.06428 0
M  V30 4229 C 415.831 1.2818 -0.970903 0
M  V30 4230 O 417.021 1.22949 -1.23406 0
M  V30 4231 C 414.153 2.32506 -2.49307 0
M  V30 4232 H 415.346 0.573873 -2.94358 0
M  V30 4233 H 412.899 0.262186 -1.54085 0
M  V30 4234 H 413.634 2.79438 -1.64575 0
M  V30 4235 H 413.419 2.13087 -3.29145 0
M  V30 4236 H 414.909 3.02906 -2.87468 0
M  V30 4237 N 415.346 1.54954 0.287554 0
M  V30 4238 C 416.309 1.86076 1.33823 0
M  V30 4239 C 417.309 0.734414 1.43049 0
M  V30 4240 O 418.499 1.00266 1.42452 0
M  V30 4241 C 415.631 2.05305 2.72144 0
M  V30 4242 H 416.824 2.79984 1.07465 0
M  V30 4243 H 414.377 1.47223 0.524902 0
M  V30 4244 H 415.112 1.1373 3.03704 0
M  V30 4245 H 414.897 2.873 2.66836 0
M  V30 4246 H 416.387 2.30706 3.48087 0
M  V30 4247 N 416.824 -0.551391 1.4764 0
M  V30 4248 C 418.07 -1.31024 1.54792 0
M  V30 4249 C 418.403 -1.9304 0.211967 0
M  V30 4250 O 417.678 -1.78175 -0.77999 0
M  V30 4251 C 417.961 -2.41593 2.67029 0
M  V30 4252 C 417.814 -1.84408 4.10261 0
M  V30 4253 C 419.133 -3.43488 2.75143 0
M  V30 4254 H 416.252 -0.475031 0.563485 0
M  V30 4255 H 418.894 -0.616454 1.79722 0
M  V30 4256 H 417.044 -3.00772 2.45904 0
M  V30 4257 H 418.716 -1.29445 4.42766 0
M  V30 4258 H 416.959 -1.15051 4.18265 0
M  V30 4259 H 417.63 -2.64367 4.84576 0
M  V30 4260 H 420.106 -2.94236 2.94218 0
M  V30 4261 H 418.982 -4.18274 3.55441 0
M  V30 4262 H 419.243 -4.02703 1.82435 0
M  V30 4263 N 418.302 -1.35869 -0.798587 0
M  V30 4264 C 419.549 -1.29588 -1.55606 0
M  V30 4265 C 419.877 0.127456 -1.94082 0
M  V30 4266 O 419.132 1.09461 -1.62225 0
M  V30 4267 C 419.431 -2.1556 -2.85077 0
M  V30 4268 C 419.097 -3.6424 -2.65781 0
M  V30 4269 C 417.759 -4.04766 -2.60227 0
M  V30 4270 C 420.111 -4.58547 -2.47758 0
M  V30 4271 C 417.439 -5.37753 -2.34603 0
M  V30 4272 C 419.791 -5.91742 -2.23662 0
M  V30 4273 C 418.455 -6.31402 -2.16534 0
M  V30 4274 H 417.725 -0.474197 -0.569402 0
M  V30 4275 H 420.372 -1.67839 -0.922086 0
M  V30 4276 H 418.677 -1.70216 -3.52893 0
M  V30 4277 H 420.374 -2.08031 -3.42818 0
M  V30 4278 H 416.964 -3.32086 -2.70956 0
M  V30 4279 H 421.148 -4.28117 -2.51056 0
M  V30 4280 H 416.404 -5.67474 -2.2756 0
M  V30 4281 H 420.578 -6.6439 -2.08708 0
M  V30 4282 H 418.205 -7.34381 -1.96441 0
M  V30 4283 N 419.78 1.02168 -1.19998 0
M  V30 4284 C 420.743 2.08765 -0.94604 0
M  V30 4285 C 421.743 1.60618 0.0763846 0
M  V30 4286 O 422.933 1.73472 -0.159135 0
M  V30 4287 C 420.065 3.38262 -0.423255 0
M  V30 4288 H 421.258 2.32726 -1.89153 0
M  V30 4289 H 418.811 1.1889 -1.01464 0
M  V30 4290 H 419.546 3.19974 0.527938 0
M  V30 4291 H 419.331 3.74532 -1.16053 0
M  V30 4292 H 420.821 4.16759 -0.264911 0
M  V30 4293 N 421.258 1.00505 1.21394 0
M  V30 4294 C 422.486 0.706609 1.9446 0
M  V30 4295 C 422.901 -0.73081 1.74082 0
M  V30 4296 O 422.258 -1.49446 1.04747 0
M  V30 4297 C 422.309 1.01824 3.46863 0
M  V30 4298 O 422.03 2.39919 3.66566 0
M  V30 4299 C 423.531 0.739216 4.37093 0
M  V30 4300 H 420.751 0.260394 0.618414 0
M  V30 4301 H 423.295 1.34311 1.54211 0
M  V30 4302 H 421.45 0.427343 3.85036 0
M  V30 4303 H 421.864 2.50784 4.6066 0
M  V30 4304 H 423.338 1.00744 5.42729 0
M  V30 4305 H 423.815 -0.326746 4.37983 0
M  V30 4306 H 424.421 1.31173 4.04566 0
M  V30 4307 N 422.737 -1.36956 0.779787 0
M  V30 4308 C 423.647 -2.33965 0.172491 0
M  V30 4309 C 424.663 -1.60574 -0.670222 0
M  V30 4310 O 425.839 -1.92617 -0.588263 0
M  V30 4311 C 422.904 -3.39761 -0.690173 0
M  V30 4312 C 421.965 -4.28964 0.169924 0
M  V30 4313 C 421.198 -5.29707 -0.651662 0
M  V30 4314 O 421.421 -5.38238 -1.88827 0
M  V30 4315 O 420.355 -6.01873 -0.0566264 0
M  V30 4316 H 424.181 -2.87647 0.974321 0
M  V30 4317 H 421.766 -1.39258 0.541078 0
M  V30 4318 H 423.648 -4.04471 -1.1824 0
M  V30 4319 H 422.323 -2.88394 -1.47006 0
M  V30 4320 H 421.23 -3.67326 0.708696 0
M  V30 4321 H 422.563 -4.83656 0.913085 0
M  V30 4322 N 424.215 -0.530993 -1.48385 0
M  V30 4323 C 425.461 -0.00538653 -2.03399 0
M  V30 4324 C 425.816 1.31899 -1.40073 0
M  V30 4325 O 425.109 1.83901 -0.537676 0
M  V30 4326 C 425.303 0.172742 -3.56982 0
M  V30 4327 C 425.132 -1.13282 -4.35198 0
M  V30 4328 C 423.902 -1.69296 -4.76096 0
M  V30 4329 C 426.1 -2.04367 -4.71952 0
M  V30 4330 N 424.082 -2.9413 -5.38851 0
M  V30 4331 C 425.453 -3.13777 -5.34737 0
M  V30 4332 C 427.508 -2.04681 -4.53883 0
M  V30 4333 C 426.211 -4.23567 -5.81363 0
M  V30 4334 C 428.237 -3.13466 -5.01491 0
M  V30 4335 C 427.599 -4.21595 -5.64302 0
M  V30 4336 H 423.698 -0.0434945 -0.780789 0
M  V30 4337 H 426.282 -0.712495 -1.81195 0
M  V30 4338 H 424.453 0.848937 -3.79009 0
M  V30 4339 H 426.185 0.698046 -3.98634 0
M  V30 4340 H 422.94 -1.23422 -4.57235 0
M  V30 4341 H 423.364 -3.57689 -5.74794 0
M  V30 4342 H 428.006 -1.22378 -4.04702 0
M  V30 4343 H 425.724 -5.06648 -6.2955 0
M  V30 4344 H 429.31 -3.14765 -4.893 0
M  V30 4345 H 428.19 -5.04384 -6.00472 0
M  V30 4346 N 425.693 1.55336 -0.266172 0
M  V30 4347 C 426.941 1.99003 0.35246 0
M  V30 4348 C 427.262 1.15591 1.57047 0
M  V30 4349 O 426.532 0.243268 1.94384 0
M  V30 4350 H 425.112 0.735025 0.133217 0
M  V30 4351 H 427.774 1.91367 -0.369434 0
M  V30 4352 H 426.87 3.05289 0.648453 0
M  V30 4353 N 427.171 -0.0066808 1.57599 0
M  V30 4354 C 428.399 -0.704087 1.94551 0
M  V30 4355 C 428.814 -1.67677 0.867746 0
M  V30 4356 O 428.171 -1.8185 -0.153925 0
M  V30 4357 C 428.222 -1.44177 3.31505 0
M  V30 4358 O 427.943 -0.508097 4.35144 0
M  V30 4359 C 429.444 -2.23429 3.82876 0
M  V30 4360 H 426.664 -0.196523 0.641576 0
M  V30 4361 H 429.208 0.042453 2.04456 0
M  V30 4362 H 427.363 -2.13999 3.22929 0
M  V30 4363 H 427.777 -1.02782 5.14331 0
M  V30 4364 H 429.251 -2.70552 4.8115 0
M  V30 4365 H 429.728 -3.05818 3.15233 0
M  V30 4366 H 430.334 -1.58636 3.94607 0
M  V30 4367 N 428.649 -1.55105 -0.279332 0
M  V30 4368 C 429.874 -1.7976 -1.03446 0
M  V30 4369 C 430.299 -0.565952 -1.79384 0
M  V30 4370 O 429.657 0.484259 -1.74713 0
M  V30 4371 C 429.705 -3.0179 -1.97371 0
M  V30 4372 O 428.809 -2.76432 -3.06038 0
M  V30 4373 H 428.15 -0.594334 -0.29608 0
M  V30 4374 H 430.68 -2.02235 -0.310165 0
M  V30 4375 H 430.69 -3.30351 -2.39441 0
M  V30 4376 H 429.365 -3.91085 -1.4151 0
M  V30 4377 H 427.942 -2.58949 -2.68328 0
M  V30 4378 N 430.127 0.543554 -1.4793 0
M  V30 4379 C 431.057 1.65888 -1.64327 0
M  V30 4380 C 432.038 1.62818 -0.492383 0
M  V30 4381 O 433.223 1.80226 -0.723338 0
M  V30 4382 C 430.353 3.04506 -1.67013 0
M  V30 4383 C 429.307 3.2243 -2.81466 0
M  V30 4384 C 428.633 4.61972 -2.69233 0
M  V30 4385 C 429.933 3.06496 -4.22915 0
M  V30 4386 H 431.627 1.52421 -2.57698 0
M  V30 4387 H 429.173 0.731849 -1.24016 0
M  V30 4388 H 431.126 3.82391 -1.77074 0
M  V30 4389 H 429.85 3.18964 -0.70212 0
M  V30 4390 H 428.509 2.46957 -2.70938 0
M  V30 4391 H 428.157 4.73247 -1.7043 0
M  V30 4392 H 427.857 4.74911 -3.46025 0
M  V30 4393 H 429.381 5.41974 -2.81242 0
M  V30 4394 H 430.795 3.74186 -4.34348 0
M  V30 4395 H 429.192 3.30938 -5.006 0
M  V30 4396 H 430.262 2.03077 -4.40327 0
M  V30 4397 N 431.605 1.3629 0.791371 0
M  V30 4398 C 432.568 1.30309 1.88553 0
M  V30 4399 C 433.568 0.211204 1.59407 0
M  V30 4400 O 434.758 0.465865 1.67855 0
M  V30 4401 C 431.89 1.01956 3.25297 0
M  V30 4402 H 433.083 2.27614 1.95273 0
M  V30 4403 H 430.636 1.21035 0.988953 0
M  V30 4404 H 431.371 0.050998 3.2426 0
M  V30 4405 H 431.156 1.80968 3.4784 0
M  V30 4406 H 432.646 1.0037 4.05359 0
M  V30 4407 N 433.083 -1.0153 1.20538 0
M  V30 4408 C 434.311 -1.78746 1.04199 0
M  V30 4409 C 434.726 -1.84323 -0.408733 0
M  V30 4410 O 434.083 -1.29714 -1.28377 0
M  V30 4411 C 434.134 -3.23152 1.62035 0
M  V30 4412 O 433.855 -3.17918 3.0143 0
M  V30 4413 C 435.356 -4.16911 1.50666 0
M  V30 4414 H 432.576 -0.56208 0.366479 0
M  V30 4415 H 435.12 -1.27794 1.59653 0
M  V30 4416 H 433.275 -3.71248 1.10697 0
M  V30 4417 H 433.689 -4.08567 3.28897 0
M  V30 4418 H 435.163 -5.16072 1.95892 0
M  V30 4419 H 435.64 -4.36791 0.459363 0
M  V30 4420 H 436.246 -3.74698 2.01201 0
M  V30 4421 N 434.561 -1.01147 -1.20859 0
M  V30 4422 C 435.809 -0.696486 -1.89719 0
M  V30 4423 C 436.13 0.775788 -1.78904 0
M  V30 4424 O 435.4 1.55759 -1.18811 0
M  V30 4425 H 433.98 -0.254628 -0.702263 0
M  V30 4426 H 436.642 -1.28197 -1.46804 0
M  V30 4427 H 435.738 -0.975357 -2.96468 0
M  V30 4428 N 436.039 1.36541 -0.78704 0
M  V30 4429 C 437.267 2.03561 -0.370199 0
M  V30 4430 C 437.682 1.59347 1.01263 0
M  V30 4431 O 437.039 0.781781 1.64907 0
M  V30 4432 C 437.09 3.59033 -0.421614 0
M  V30 4433 O 436.811 4.01634 -1.7499 0
M  V30 4434 C 438.312 4.433 0.00489763 0
M  V30 4435 H 435.532 0.653346 -0.152904 0
M  V30 4436 H 438.076 1.74566 -1.06522 0
M  V30 4437 H 436.231 3.86746 0.224971 0
M  V30 4438 H 436.645 4.96217 -1.69909 0
M  V30 4439 H 438.119 5.51939 -0.0822184 0
M  V30 4440 H 438.596 4.26285 1.05723 0
M  V30 4441 H 439.202 4.20843 -0.614085 0
M  V30 4442 N 437.518 0.538854 1.48102 0
M  V30 4443 C 438.746 0.0123136 2.06896 0
M  V30 4444 C 439.161 -1.27312 1.39417 0
M  V30 4445 O 438.518 -1.75949 0.484582 0
M  V30 4446 C 438.569 -0.206118 3.60912 0
M  V30 4447 O 438.29 1.0284 4.25859 0
M  V30 4448 C 439.791 -0.772033 4.36526 0
M  V30 4449 H 437.011 0.0375239 0.66995 0
M  V30 4450 H 439.555 0.747032 1.90367 0
M  V30 4451 H 437.71 -0.89091 3.77017 0
M  V30 4452 H 438.124 0.814654 5.18135 0
M  V30 4453 H 439.598 -0.874251 5.45033 0
M  V30 4454 H 440.075 -1.77904 4.01555 0
M  V30 4455 H 440.681 -0.123526 4.25121 0
M  V30 4456 N 438.996 -1.55193 0.274407 0
M  V30 4457 C 440.244 -1.99187 -0.341902 0
M  V30 4458 C 440.565 -1.16422 -1.56431 0
M  V30 4459 O 439.835 -0.253573 -1.94252 0
M  V30 4460 H 438.415 -0.735721 -0.129317 0
M  V30 4461 H 441.077 -1.91168 0.379578 0
M  V30 4462 H 440.173 -3.05629 -0.632253 0
M  V30 4463 N 440.474 -0.00167713 -1.576 0
M  V30 4464 C 441.885 0.54091 -1.78693 0
M  V30 4465 C 442.236 1.7386 -0.909247 0
M  V30 4466 O 441.361 2.16109 -0.112176 0
M  V30 4467 C 441.956 0.98806 -3.24072 0
M  V30 4468 C 440.515 1.47594 -3.46256 0
M  V30 4469 C 439.662 0.42792 -2.73978 0
M  V30 4470 H 442.613 -0.22784 -1.57056 0
M  V30 4471 H 442.634 1.85398 -3.32277 0
M  V30 4472 H 442.146 0.116164 -3.87926 0
M  V30 4473 H 440.247 2.36868 -2.87618 0
M  V30 4474 H 440.36 1.50225 -4.54939 0
M  V30 4475 H 438.724 0.889934 -2.38647 0
M  V30 4476 H 439.507 -0.435038 -3.40532 0
M  V30 4477 N 441.952 1.55251 0.271103 0
M  V30 4478 C 443.182 1.79713 1.01916 0
M  V30 4479 C 443.59 0.571613 1.80359 0
M  V30 4480 O 442.933 -0.468853 1.77616 0
M  V30 4481 C 442.995 2.97138 2.02359 0
M  V30 4482 C 442.659 4.34104 1.42837 0
M  V30 4483 C 443.656 5.13019 0.843071 0
M  V30 4484 C 441.341 4.80765 1.455 0
M  V30 4485 C 443.335 6.36729 0.292333 0
M  V30 4486 C 441.022 6.0443 0.900402 0
M  V30 4487 C 442.02 6.8225 0.32007 0
M  V30 4488 O 441.708 8.03582 -0.226031 0
M  V30 4489 H 441.44 0.602431 0.306681 0
M  V30 4490 H 443.994 2.03097 0.306701 0
M  V30 4491 H 442.224 2.6945 2.77369 0
M  V30 4492 H 443.913 3.08907 2.63309 0
M  V30 4493 H 444.679 4.781 0.815178 0
M  V30 4494 H 440.558 4.20202 1.89609 0
M  V30 4495 H 444.102 6.97414 -0.161274 0
M  V30 4496 H 439.999 6.3883 0.925541 0
M  V30 4497 H 440.767 8.18418 -0.115572 0
M  V30 4498 N 443.43 -0.535701 1.48216 0
M  V30 4499 C 444.36 -1.65014 1.65204 0
M  V30 4500 C 445.341 -1.62554 0.501011 0
M  V30 4501 O 446.526 -1.7984 0.732886 0
M  V30 4502 C 443.656 -3.03616 1.68626 0
M  V30 4503 C 442.61 -3.20932 2.83172 0
M  V30 4504 C 441.936 -4.60537 2.71679 0
M  V30 4505 C 443.236 -3.04249 4.24535 0
M  V30 4506 H 444.93 -1.51053 2.58502 0
M  V30 4507 H 442.476 -0.725262 1.24402 0
M  V30 4508 H 444.429 -3.81446 1.79099 0
M  V30 4509 H 443.153 -3.18587 0.719026 0
M  V30 4510 H 441.812 -2.45517 2.72244 0
M  V30 4511 H 441.46 -4.72336 1.72937 0
M  V30 4512 H 441.16 -4.73069 3.48538 0
M  V30 4513 H 442.684 -5.40475 2.84112 0
M  V30 4514 H 444.098 -3.71877 4.36326 0
M  V30 4515 H 442.495 -3.28278 5.02348 0
M  V30 4516 H 443.565 -2.00739 4.41397 0
M  V30 4517 N 444.908 -1.36708 -0.784132 0
M  V30 4518 C 445.871 -1.31307 -1.87859 0
M  V30 4519 C 446.871 -0.219654 -1.59293 0
M  V30 4520 O 448.061 -0.47476 -1.67606 0
M  V30 4521 C 445.193 -1.03679 -3.24751 0
M  V30 4522 H 446.386 -2.28647 -1.94064 0
M  V30 4523 H 443.939 -1.21558 -0.98252 0
M  V30 4524 H 444.674 -0.0681936 -3.24228 0
M  V30 4525 H 444.459 -1.82811 -3.46876 0
M  V30 4526 H 445.949 -1.02518 -4.04821 0
M  V30 4527 N 446.386 1.0089 -1.21074 0
M  V30 4528 C 447.333 2.09588 -0.966512 0
M  V30 4529 C 448.303 1.65761 0.106089 0
M  V30 4530 O 449.488 1.90758 -0.0402287 0
M  V30 4531 C 446.628 3.40958 -0.533058 0
M  V30 4532 C 445.741 3.9822 -1.67467 0
M  V30 4533 C 444.876 5.17682 -1.19076 0
M  V30 4534 C 443.915 5.67043 -2.30496 0
M  V30 4535 N 443.052 6.77759 -1.83267 0
M  V30 4536 H 447.892 2.29815 -1.89708 0
M  V30 4537 H 445.429 1.12689 -0.945489 0
M  V30 4538 H 447.387 4.1637 -0.263019 0
M  V30 4539 H 446.017 3.20781 0.360505 0
M  V30 4540 H 445.069 3.1983 -2.05944 0
M  V30 4541 H 446.381 4.3085 -2.51336 0
M  V30 4542 H 445.535 6.00326 -0.877151 0
M  V30 4543 H 444.274 4.86635 -0.322066 0
M  V30 4544 H 443.279 4.82999 -2.62664 0
M  V30 4545 H 444.504 6.00121 -3.17855 0
M  V30 4546 H 442.45 6.48527 -0.987356 0
M  V30 4547 H 442.367 7.09624 -2.60711 0
M  V30 4548 H 443.635 7.63949 -1.54928 0
M  V30 4549 N 447.864 1.01787 1.20321 0
M  V30 4550 C 448.827 0.593972 2.2137 0
M  V30 4551 C 449.827 -0.336553 1.57239 0
M  V30 4552 O 451.017 -0.125069 1.7375 0
M  V30 4553 C 448.149 -0.132433 3.40643 0
M  V30 4554 H 449.342 1.48791 2.60387 0
M  V30 4555 H 446.895 0.807803 1.33807 0
M  V30 4556 H 447.63 -1.04123 3.0713 0
M  V30 4557 H 447.415 0.53605 3.88418 0
M  V30 4558 H 448.905 -0.416314 4.1552 0
M  V30 4559 N 449.342 -1.36122 0.79427 0
M  V30 4560 C 450.619 -1.93398 0.292685 0
M  V30 4561 C 450.999 -1.72567 -1.21589 0
M  V30 4562 O 450.347 -1.08745 -2.00965 0
M  V30 4563 C 450.557 -3.42099 0.690614 0
M  V30 4564 C 451.905 -4.19231 0.673105 0
M  V30 4565 O 452.929 -3.50559 0.631389 0
M  V30 4566 O 451.788 -5.41732 0.720362 0
M  V30 4567 H 448.882 -0.823712 0.0736693 0
M  V30 4568 H 451.428 -1.45273 0.87714 0
M  V30 4569 H 450.2 -3.50938 1.73085 0
M  V30 4570 H 449.823 -3.97519 0.0803036 0
M  V30 4571 N 450.82 -0.546701 -1.47814 0
M  V30 4572 C 451.783 0.196287 -2.28358 0
M  V30 4573 C 452.783 0.852437 -1.36346 0
M  V30 4574 O 453.973 0.709913 -1.59078 0
M  V30 4575 C 451.105 1.28579 -3.15722 0
M  V30 4576 H 452.298 -0.511086 -2.95513 0
M  V30 4577 H 449.851 -0.303248 -1.5333 0
M  V30 4578 H 450.586 2.0259 -2.53235 0
M  V30 4579 H 450.371 0.820229 -3.83425 0
M  V30 4580 H 451.861 1.80793 -3.76435 0
M  V30 4581 N 452.299 1.55045 -0.282633 0
M  V30 4582 C 453.545 2.0078 0.325436 0
M  V30 4583 C 453.9 1.1676 1.52921 0
M  V30 4584 O 453.193 0.231475 1.90197 0
M  V30 4585 C 453.387 3.49422 0.750938 0
M  V30 4586 C 453.216 4.47827 -0.410056 0
M  V30 4587 C 451.986 4.97288 -0.896239 0
M  V30 4588 C 454.184 4.98903 -1.24902 0
M  V30 4589 N 452.166 5.79508 -2.02591 0
M  V30 4590 C 453.537 5.78644 -2.22646 0
M  V30 4591 C 455.592 4.81126 -1.2815 0
M  V30 4592 C 454.295 6.42502 -3.23393 0
M  V30 4593 C 456.321 5.45789 -2.27745 0
M  V30 4594 C 455.683 6.25348 -3.24222 0
M  V30 4595 H 451.782 0.77747 0.08405 0
M  V30 4596 H 454.366 1.90369 -0.408368 0
M  V30 4597 H 452.537 3.60159 1.45395 0
M  V30 4598 H 454.269 3.81978 1.33698 0
M  V30 4599 H 451.024 4.71219 -0.474277 0
M  V30 4600 H 451.448 6.25308 -2.59459 0
M  V30 4601 H 456.09 4.19215 -0.549397 0
M  V30 4602 H 453.808 7.03558 -3.97533 0
M  V30 4603 H 457.394 5.33972 -2.31009 0
M  V30 4604 H 456.274 6.74498 -4.00027 0
M  V30 4605 N 453.777 0.010035 1.57597 0
M  V30 4606 C 454.707 -0.976857 2.12084 0
M  V30 4607 C 455.688 -1.35191 1.03235 0
M  V30 4608 O 456.873 -1.43389 1.3097 0
M  V30 4609 C 454.003 -2.26548 2.63236 0
M  V30 4610 C 452.957 -2.03175 3.76701 0
M  V30 4611 C 452.283 -3.38138 4.14206 0
M  V30 4612 C 453.583 -1.38625 5.03568 0
M  V30 4613 H 455.277 -0.523145 2.94794 0
M  V30 4614 H 452.823 -0.250195 1.4181 0
M  V30 4615 H 454.776 -2.95952 2.99984 0
M  V30 4616 H 453.5 -2.74051 1.77661 0
M  V30 4617 H 452.159 -1.36195 3.40362 0
M  V30 4618 H 451.807 -3.83363 3.25641 0
M  V30 4619 H 451.507 -3.23312 4.90656 0
M  V30 4620 H 453.031 -4.08841 4.53521 0
M  V30 4621 H 454.445 -1.98 5.38023 0
M  V30 4622 H 452.842 -1.34256 5.84889 0
M  V30 4623 H 453.912 -0.356722 4.83586 0
M  V30 4624 N 455.255 -1.55392 -0.262866 0
M  V30 4625 C 456.532 -1.67204 -1.01499 0
M  V30 4626 C 456.912 -0.545186 -2.03939 0
M  V30 4627 O 456.26 0.453467 -2.23955 0
M  V30 4628 C 456.47 -3.06847 -1.6627 0
M  V30 4629 C 457.818 -3.64928 -2.17054 0
M  V30 4630 O 458.842 -3.09545 -1.76239 0
M  V30 4631 O 457.701 -4.61984 -2.91947 0
M  V30 4632 H 454.795 -0.679467 -0.471438 0
M  V30 4633 H 457.341 -1.67729 -0.257918 0
M  V30 4634 H 456.113 -3.80309 -0.920915 0
M  V30 4635 H 455.736 -3.10266 -2.48638 0
M  V30 4636 N 456.733 0.527833 -1.48498 0
M  V30 4637 C 457.98 1.28354 -1.56625 0
M  V30 4638 C 458.308 1.93 -0.241096 0
M  V30 4639 O 457.563 1.79967 0.768798 0
M  V30 4640 C 457.862 2.39275 -2.65485 0
M  V30 4641 C 457.528 1.92268 -4.07853 0
M  V30 4642 C 456.19 1.79166 -4.46602 0
M  V30 4643 C 458.542 1.56771 -4.97064 0
M  V30 4644 C 455.87 1.28905 -5.72364 0
M  V30 4645 C 458.222 1.07972 -6.23318 0
M  V30 4646 C 456.886 0.934887 -6.60921 0
M  V30 4647 H 456.156 0.469682 -0.573131 0
M  V30 4648 H 458.803 0.588781 -1.82224 0
M  V30 4649 H 457.108 3.1443 -2.33754 0
M  V30 4650 H 458.805 2.974 -2.68988 0
M  V30 4651 H 455.395 2.03417 -3.77252 0
M  V30 4652 H 459.579 1.65753 -4.67803 0
M  V30 4653 H 454.835 1.16381 -6.00221 0
M  V30 4654 H 459.009 0.795775 -6.91838 0
M  V30 4655 H 456.636 0.543231 -7.58257 0
M  V30 4656 N 458.211 1.37122 0.776871 0
M  V30 4657 C 459.141 1.35164 1.90402 0
M  V30 4658 C 460.122 0.221069 1.68657 0
M  V30 4659 O 461.307 0.420642 1.8959 0
M  V30 4660 C 458.437 1.15274 3.27611 0
M  V30 4661 C 457.391 2.25289 3.63908 0
M  V30 4662 C 456.717 1.90527 4.99603 0
M  V30 4663 C 458.017 3.67446 3.71188 0
M  V30 4664 H 459.711 2.29482 1.92297 0
M  V30 4665 H 457.257 1.10465 0.923773 0
M  V30 4666 H 459.21 1.12536 4.06096 0
M  V30 4667 H 457.934 0.174102 3.26136 0
M  V30 4668 H 456.593 2.27174 2.87728 0
M  V30 4669 H 456.241 0.91206 4.94662 0
M  V30 4670 H 455.941 2.64193 5.24858 0
M  V30 4671 H 457.465 1.89367 5.80493 0
M  V30 4672 H 458.879 3.67719 4.39836 0
M  V30 4673 H 457.276 4.40123 4.07936 0
M  V30 4674 H 458.346 4.01443 2.71977 0
M  V30 4675 N 459.689 -1.00246 1.21608 0
M  V30 4676 C 460.637 -2.11193 0.97469 0
M  V30 4677 C 461.631 -1.69216 -0.0789303 0
M  V30 4678 O 462.837 -1.79853 0.0726806 0
M  V30 4679 H 459.212 -0.690455 0.297953 0
M  V30 4680 H 461.183 -2.2873 1.91638 0
M  V30 4681 C 459.932 -3.43182 0.558717 0
M  V30 4682 H 459.255 -3.75918 1.3611 0
M  V30 4683 H 460.695 -4.21823 0.429154 0
M  V30 4684 C 459.154 -3.28882 -0.730648 0
M  V30 4685 O 459.684 -3.59835 -1.78554 0
M  V30 4686 N 457.89 -2.8209 -0.698131 0
M  V30 4687 H 457.437 -2.57099 0.16061 0
M  V30 4688 H 457.395 -2.72903 -1.56113 0
M  V30 4689 N 461.167 -1.02423 -1.1978 0
M  V30 4690 C 462.415 -0.716569 -1.8897 0
M  V30 4691 C 462.736 0.756769 -1.79716 0
M  V30 4692 O 462.006 1.5449 -1.20456 0
M  V30 4693 H 460.586 -0.262062 -0.699523 0
M  V30 4694 H 463.248 -1.29747 -1.45436 0
M  V30 4695 H 462.344 -1.00675 -2.95417 0
M  V30 4696 N 462.645 1.35699 -0.801477 0
M  V30 4697 C 463.593 2.3177 -0.196317 0
M  V30 4698 C 464.587 1.56388 0.651081 0
M  V30 4699 O 465.793 1.71557 0.544815 0
M  V30 4700 H 462.168 0.750669 -0.0447189 0
M  V30 4701 H 464.139 2.8036 -1.02181 0
M  V30 4702 C 462.888 3.41671 0.644702 0
M  V30 4703 H 462.211 3.998 0.0019921 0
M  V30 4704 H 463.651 4.11184 1.0346 0
M  V30 4705 C 462.11 2.84271 1.80808 0
M  V30 4706 O 462.64 2.77408 2.9053 0
M  V30 4707 N 460.846 2.41391 1.61799 0
M  V30 4708 H 460.393 2.47173 0.725493 0
M  V30 4709 H 460.351 2.03334 2.39797 0
M  V30 4710 N 464.123 0.554532 1.47522 0
M  V30 4711 C 465.071 -0.207765 2.3167 0
M  V30 4712 C 466.065 -0.911914 1.4276 0
M  V30 4713 O 467.271 -0.833504 1.59539 0
M  V30 4714 H 463.646 -0.0858726 0.747081 0
M  V30 4715 H 465.617 0.521178 2.93813 0
M  V30 4716 C 464.366 -1.2263 3.25357 0
M  V30 4717 H 463.689 -0.693887 3.93732 0
M  V30 4718 H 465.129 -1.73062 3.87073 0
M  V30 4719 C 463.588 -2.27278 2.4869 0
M  V30 4720 O 464.118 -3.34156 2.22941 0
M  V30 4721 N 462.324 -2.01134 2.09746 0
M  V30 4722 H 461.871 -1.14232 2.30887 0
M  V30 4723 H 461.829 -2.71369 1.58765 0
M  V30 4724 N 465.601 -1.54893 0.290851 0
M  V30 4725 C 466.85 -1.99111 -0.322113 0
M  V30 4726 C 467.163 -1.18283 -1.55784 0
M  V30 4727 O 468.369 -1.5272 -2.24475 0
M  V30 4728 C 466.825 -3.54442 -0.624438 0
M  V30 4729 C 466.433 -4.44066 0.592373 0
M  V30 4730 C 468.177 -4.07211 -1.19916 0
M  V30 4731 C 466.084 -5.90812 0.263762 0
M  V30 4732 H 465.014 -0.743712 -0.124133 0
M  V30 4733 H 467.665 -1.79132 0.39797 0
M  V30 4734 H 466.047 -3.70281 -1.40384 0
M  V30 4735 H 467.221 -4.39999 1.36886 0
M  V30 4736 H 465.536 -4.02015 1.08502 0
M  V30 4737 H 468.133 -5.14407 -1.45909 0
M  V30 4738 H 468.476 -3.57196 -2.13815 0
M  V30 4739 H 469.009 -3.94873 -0.481687 0
M  V30 4740 H 465.748 -6.44955 1.17105 0
M  V30 4741 H 465.268 -5.97911 -0.475655 0
M  V30 4742 H 466.947 -6.46852 -0.138354 0
M  V30 4743 N 467.08 -0.0183926 -1.57589 0
M  V30 4744 C 468.305 0.676634 -1.96052 0
M  V30 4745 C 468.73 1.6548 -0.894307 0
M  V30 4746 O 468.088 1.80712 0.145849 0
M  V30 4747 C 468.136 1.36872 -3.33614 0
M  V30 4748 O 467.24 2.48372 -3.29219 0
M  V30 4749 H 466.581 0.1786 -0.63953 0
M  V30 4750 H 469.111 -0.077056 -2.04455 0
M  V30 4751 H 469.121 1.72797 -3.69601 0
M  V30 4752 H 467.796 0.651636 -4.10763 0
M  V30 4753 H 466.373 2.14639 -3.04934 0
M  V30 4754 N 468.558 1.5553 0.254621 0
M  V30 4755 C 469.804 1.7818 0.980989 0
M  V30 4756 C 470.159 0.586059 1.83257 0
M  V30 4757 O 469.452 -0.420889 1.8692 0
M  V30 4758 C 469.646 3.03891 1.88109 0
M  V30 4759 C 469.475 4.35578 1.11812 0
M  V30 4760 C 468.245 4.98497 0.826343 0
M  V30 4761 C 470.443 5.11869 0.499486 0
M  V30 4762 N 468.425 6.13888 0.0385095 0
M  V30 4763 C 469.796 6.1981 -0.153292 0
M  V30 4764 C 471.851 4.96216 0.409175 0
M  V30 4765 C 470.554 7.13801 -0.8877 0
M  V30 4766 C 472.58 5.90578 -0.311683 0
M  V30 4767 C 471.942 6.97922 -0.953129 0
M  V30 4768 H 468.041 0.704057 0.340335 0
M  V30 4769 H 470.625 1.93025 0.254855 0
M  V30 4770 H 468.796 2.90389 2.57932 0
M  V30 4771 H 470.528 3.14869 2.54244 0
M  V30 4772 H 467.283 4.59769 1.13621 0
M  V30 4773 H 467.707 6.76129 -0.343275 0
M  V30 4774 H 472.349 4.1331 0.890765 0
M  V30 4775 H 470.067 7.96214 -1.38092 0
M  V30 4776 H 473.653 5.80544 -0.382125 0
M  V30 4777 H 472.533 7.69681 -1.50203 0
M  V30 4778 N 470.036 -0.519951 1.48776 0
M  V30 4779 C 471.276 -1.2856 1.58908 0
M  V30 4780 C 471.64 -1.90212 0.261418 0
M  V30 4781 O 472.841 -2.67746 0.237791 0
M  V30 4782 C 471.112 -2.33836 2.70288 0
M  V30 4783 S 472.671 -3.19992 3.0025 0
M  V30 4784 H 469.489 -0.43717 0.560717 0
M  V30 4785 H 472.091 -0.591205 1.86346 0
M  V30 4786 H 470.795 -1.87041 3.653 0
M  V30 4787 H 470.326 -3.07969 2.44783 0
M  V30 4788 H 472.341 -4.34122 2.40317 0
M  V30 4789 N 471.514 -1.37532 -0.769588 0
M  V30 4790 C 472.462 -1.33561 -1.90432 0
M  V30 4791 C 473.456 -0.224027 -1.67912 0
M  V30 4792 O 474.662 -0.392174 -1.75676 0
M  V30 4793 H 471.037 -0.416279 -0.626271 0
M  V30 4794 H 473.008 -2.29348 -1.90899 0
M  V30 4795 C 471.757 -1.16162 -3.27722 0
M  V30 4796 H 471.08 -2.00951 -3.45628 0
M  V30 4797 H 472.52 -1.17434 -4.07413 0
M  V30 4798 C 470.979 0.132583 -3.36639 0
M  V30 4799 O 471.509 1.11539 -3.85904 0
M  V30 4800 N 469.715 0.184013 -2.90017 0
M  V30 4801 H 469.262 -0.616415 -2.50116 0
M  V30 4802 H 469.22 1.04956 -2.96364 0
M  V30 4803 N 472.992 0.995999 -1.22138 0
M  V30 4804 C 474.239 1.7351 -1.04406 0
M  V30 4805 C 474.567 1.89884 0.421244 0
M  V30 4806 O 473.822 1.43683 1.32867 0
M  V30 4807 C 474.121 3.14553 -1.6968 0
M  V30 4808 C 473.787 3.18102 -3.19565 0
M  V30 4809 C 472.449 3.18778 -3.60464 0
M  V30 4810 C 474.801 3.14636 -4.15516 0
M  V30 4811 C 472.129 3.13684 -4.95801 0
M  V30 4812 C 474.481 3.11084 -5.50826 0
M  V30 4813 C 473.145 3.10074 -5.91109 0
M  V30 4814 H 472.415 0.634916 -0.38205 0
M  V30 4815 H 475.062 1.1667 -1.51857 0
M  V30 4816 H 473.367 3.74682 -1.14546 0
M  V30 4817 H 475.064 3.70477 -1.53454 0
M  V30 4818 H 471.654 3.18324 -2.86998 0
M  V30 4819 H 475.838 3.13266 -3.84939 0
M  V30 4820 H 471.094 3.11245 -5.26247 0
M  V30 4821 H 475.268 3.07357 -6.24904 0
M  V30 4822 H 472.895 3.05882 -6.95946 0
M  V30 4823 N 474.47 1.03057 1.19235 0
M  V30 4824 C 475.695 0.74757 1.93458 0
M  V30 4825 C 476.12 -0.687648 1.7508 0
M  V30 4826 O 475.478 -1.47499 1.05422 0
M  V30 4827 C 475.526 1.10604 3.43219 0
M  V30 4828 O 474.63 0.225671 4.11782 0
M  V30 4829 H 473.971 0.276047 0.603899 0
M  V30 4830 H 476.501 1.3777 1.51263 0
M  V30 4831 H 476.511 1.06366 3.93891 0
M  V30 4832 H 475.186 2.15165 3.55917 0
M  V30 4833 H 473.763 0.326795 3.71465 0
M  V30 4834 N 475.948 -1.35272 0.808662 0
M  V30 4835 C 477.197 -1.97963 0.386483 0
M  V30 4836 C 477.51 -1.64866 -1.05255 0
M  V30 4837 O 478.716 -2.20937 -1.57794 0
M  V30 4838 C 477.172 -3.54162 0.640096 0
M  V30 4839 C 476.78 -3.96166 2.0918 0
M  V30 4840 C 478.524 -4.23553 0.283376 0
M  V30 4841 C 476.431 -5.4522 2.29106 0
M  V30 4842 H 475.361 -0.740742 0.140774 0
M  V30 4843 H 478.012 -1.5431 0.993012 0
M  V30 4844 H 476.394 -3.95983 -0.0364117 0
M  V30 4845 H 477.568 -3.65491 2.80629 0
M  V30 4846 H 475.883 -3.3967 2.40859 0
M  V30 4847 H 478.48 -5.33124 0.410273 0
M  V30 4848 H 478.823 -4.09105 -0.770659 0
M  V30 4849 H 479.356 -3.8716 0.913884 0
M  V30 4850 H 476.095 -5.64638 3.32962 0
M  V30 4851 H 475.615 -5.77457 1.62184 0
M  V30 4852 H 477.294 -6.1171 2.1076 0
M  V30 4853 N 477.426 -0.562348 -1.47226 0
M  V30 4854 C 478.651 -0.0432632 -2.07355 0
M  V30 4855 C 479.076 1.24332 -1.41149 0
M  V30 4856 O 478.434 1.74603 -0.488226 0
M  V30 4857 C 478.482 0.130288 -3.60365 0
M  V30 4858 O 477.586 1.19166 -3.94808 0
M  V30 4859 H 476.927 -0.0536334 -0.66183 0
M  V30 4860 H 479.457 -0.779495 -1.89169 0
M  V30 4861 H 479.467 0.342881 -4.06557 0
M  V30 4862 H 478.142 -0.809389 -4.07948 0
M  V30 4863 H 476.719 0.959153 -3.60354 0
M  V30 4864 N 478.904 1.54736 -0.299062 0
M  V30 4865 C 479.852 2.24897 0.593658 0
M  V30 4866 C 480.846 1.25429 1.13859 0
M  V30 4867 O 482.052 1.43286 1.08945 0
M  V30 4868 H 478.427 0.72207 0.210046 0
M  V30 4869 H 480.398 2.98393 -0.0206421 0
M  V30 4870 C 479.147 3.00159 1.75499 0
M  V30 4871 H 478.47 3.76501 1.34489 0
M  V30 4872 H 479.91 3.52535 2.35574 0
M  V30 4873 C 478.369 2.07015 2.65794 0
M  V30 4874 O 478.899 1.63692 3.66835 0
M  V30 4875 N 477.105 1.73012 2.33485 0
M  V30 4876 H 476.652 2.08439 1.51364 0
M  V30 4877 H 476.61 1.10965 2.94167 0
M  V30 4878 N 480.382 0.0267497 1.57577 0
M  V30 4879 C 481.329 -0.955894 2.10075 0
M  V30 4880 C 482.299 -1.32453 1.00226 0
M  V30 4881 O 483.484 -1.41826 1.27632 0
M  V30 4882 C 480.624 -2.2338 2.6305 0
M  V30 4883 C 479.737 -1.92183 3.86898 0
M  V30 4884 C 478.872 -3.14251 4.28275 0
M  V30 4885 C 477.911 -2.78862 5.44888 0
M  V30 4886 N 477.048 -3.93548 5.81433 0
M  V30 4887 H 481.888 -0.501303 2.93753 0
M  V30 4888 H 479.425 -0.235847 1.45197 0
M  V30 4889 H 481.383 -2.98124 2.91853 0
M  V30 4890 H 480.013 -2.6646 1.82205 0
M  V30 4891 H 479.065 -1.07692 3.64838 0
M  V30 4892 H 480.377 -1.62117 4.7172 0
M  V30 4893 H 479.531 -3.97317 4.58502 0
M  V30 4894 H 478.27 -3.47476 3.42215 0
M  V30 4895 H 477.275 -1.94208 5.14357 0
M  V30 4896 H 478.5 -2.46855 6.32645 0
M  V30 4897 H 476.446 -4.2662 4.98328 0
M  V30 4898 H 476.363 -3.67098 6.6089 0
M  V30 4899 H 477.631 -4.77325 6.16264 0
M  V30 4900 N 481.861 -1.55662 -0.24637 0
M  V30 4901 C 483.138 -1.68272 -0.997198 0
M  V30 4902 C 483.518 -0.566785 -2.03349 0
M  V30 4903 O 482.866 0.429688 -2.24424 0
M  V30 4904 C 483.076 -3.08594 -1.63006 0
M  V30 4905 C 484.424 -3.6721 -2.13171 0
M  V30 4906 O 485.448 -3.11397 -1.72946 0
M  V30 4907 O 484.307 -4.65054 -2.87031 0
M  V30 4908 H 481.401 -0.684429 -0.464205 0
M  V30 4909 H 483.947 -1.67993 -0.240114 0
M  V30 4910 H 482.719 -3.81264 -0.880527 0
M  V30 4911 H 482.342 -3.12886 -2.45333 0
M  V30 4912 N 483.339 0.512053 -1.4905 0
M  V30 4913 C 484.249 1.64139 -1.67617 0
M  V30 4914 C 485.265 1.64786 -0.558701 0
M  V30 4915 O 486.441 1.8341 -0.832034 0
M  V30 4916 C 483.506 3.00548 -1.72835 0
M  V30 4917 C 482.567 3.10615 -2.96339 0
M  V30 4918 C 481.8 4.40517 -3.01298 0
M  V30 4919 O 482.023 5.28671 -2.14157 0
M  V30 4920 O 480.957 4.55325 -3.93653 0
M  V30 4921 H 484.783 1.51407 -2.63267 0
M  V30 4922 H 482.368 0.687131 -1.32661 0
M  V30 4923 H 484.25 3.81641 -1.78683 0
M  V30 4924 H 482.925 3.13566 -0.803616 0
M  V30 4925 H 481.832 2.2875 -2.96014 0
M  V30 4926 H 483.165 3.0252 -3.88256 0
M  V30 4927 N 484.817 1.37938 0.762283 0
M  V30 4928 C 485.764 1.34467 1.87583 0
M  V30 4929 C 486.734 0.208633 1.64785 0
M  V30 4930 O 487.919 0.399494 1.86571 0
M  V30 4931 C 485.059 1.16692 3.24772 0
M  V30 4932 C 484.172 2.39608 3.59461 0
M  V30 4933 C 483.307 2.14631 4.85908 0
M  V30 4934 C 482.346 3.33364 5.13357 0
M  V30 4935 N 481.483 3.07877 6.30996 0
M  V30 4936 H 486.323 2.29669 1.89885 0
M  V30 4937 H 483.86 1.14116 0.928219 0
M  V30 4938 H 485.818 1.04405 4.03925 0
M  V30 4939 H 484.448 0.251333 3.2182 0
M  V30 4940 H 483.5 2.626 2.75219 0
M  V30 4941 H 484.812 3.28128 3.75678 0
M  V30 4942 H 483.966 1.99429 5.72986 0
M  V30 4943 H 482.705 1.23463 4.71814 0
M  V30 4944 H 481.71 3.49094 4.24751 0
M  V30 4945 H 482.935 4.25395 5.29354 0
M  V30 4946 H 480.881 2.19348 6.18241 0
M  V30 4947 H 480.798 3.89944 6.47673 0
M  V30 4948 H 482.066 2.96313 7.20985 0
M  V30 4949 N 486.295 -0.989507 1.22664 0
M  V30 4950 C 487.258 -2.06183 1.00106 0
M  V30 4951 C 488.258 -1.60765 -0.0337726 0
M  V30 4952 O 489.448 -1.72989 0.205072 0
M  V30 4953 C 486.58 -3.37021 0.51279 0
M  V30 4954 H 487.773 -2.27629 1.95256 0
M  V30 4955 H 485.326 -1.16158 1.0458 0
M  V30 4956 H 486.061 -3.21261 -0.442917 0
M  V30 4957 H 485.846 -3.71323 1.25942 0
M  V30 4958 H 487.336 -4.1591 0.375315 0
M  V30 4959 N 487.773 -1.03688 -1.18687 0
M  V30 4960 C 488.736 -0.629115 -2.20397 0
M  V30 4961 C 489.736 0.311495 -1.57754 0
M  V30 4962 O 490.926 0.0974107 -1.73927 0
M  V30 4963 C 488.058 0.0782231 -3.4081 0
M  V30 4964 H 489.251 -1.52915 -2.57987 0
M  V30 4965 H 486.804 -0.828988 -1.32505 0
M  V30 4966 H 487.539 0.992233 -3.08748 0
M  V30 4967 H 487.324 -0.597776 -3.87517 0
M  V30 4968 H 488.814 0.350156 -4.16129 0
M  V30 4969 N 489.251 1.34841 -0.815825 0
M  V30 4970 C 490.214 2.27959 -0.238185 0
M  V30 4971 C 491.214 1.49983 0.579816 0
M  V30 4972 O 492.404 1.69617 0.396953 0
M  V30 4973 C 489.536 3.34314 0.666876 0
M  V30 4974 H 490.729 2.80558 -1.05958 0
M  V30 4975 H 488.282 1.44852 -0.587156 0
M  V30 4976 H 489.017 2.86916 1.5116 0
M  V30 4977 H 488.802 3.92014 0.0819106 0
M  V30 4978 H 490.292 4.0379 1.06506 0
M  V30 4979 N 490.729 0.570148 1.46925 0
M  V30 4980 C 491.659 -0.158274 2.32963 0
M  V30 4981 C 492.64 -0.896093 1.44583 0
M  V30 4982 O 493.825 -0.874022 1.7342 0
M  V30 4983 C 490.955 -1.18055 3.26619 0
M  V30 4984 C 489.909 -0.558379 4.24342 0
M  V30 4985 C 489.235 -1.68623 5.07415 0
M  V30 4986 C 490.535 0.496295 5.19937 0
M  V30 4987 H 492.229 0.560046 2.94115 0
M  V30 4988 H 489.775 0.270775 1.41431 0
M  V30 4989 H 491.728 -1.69841 3.85658 0
M  V30 4990 H 490.452 -1.92899 2.63548 0
M  V30 4991 H 489.111 -0.0617157 3.66548 0
M  V30 4992 H 488.759 -2.42402 4.40738 0
M  V30 4993 H 488.459 -1.27564 5.73586 0
M  V30 4994 H 489.983 -2.20709 5.69315 0
M  V30 4995 H 491.397 0.0640052 5.73264 0
M  V30 4996 H 489.794 0.82649 5.94381 0
M  V30 4997 H 490.864 1.38735 4.6463 0
M  V30 4998 N 492.207 -1.54576 0.307264 0
M  V30 4999 C 493.155 -2.25208 -0.581723 0
M  V30 5000 C 494.149 -1.26031 -1.13192 0
M  V30 5001 O 495.355 -1.43862 -1.08184 0
M  V30 5002 H 491.73 -0.723173 -0.206214 0
M  V30 5003 H 493.701 -2.98378 0.0364663 0
M  V30 5004 C 492.45 -3.01086 -1.73904 0
M  V30 5005 H 491.773 -3.77208 -1.32491 0
M  V30 5006 H 493.213 -3.5378 -2.33701 0
M  V30 5007 C 491.672 -2.08422 -2.64692 0
M  V30 5008 O 492.202 -1.65636 -3.65961 0
M  V30 5009 N 490.408 -1.74247 -2.32564 0
M  V30 5010 H 489.955 -2.09238 -1.50257 0
M  V30 5011 H 489.913 -1.12524 -2.93574 0
M  V30 5012 N 493.685 -0.035106 -1.57561 0
M  V30 5013 C 494.91 0.655802 -1.96759 0
M  V30 5014 C 495.335 1.64523 -0.911809 0
M  V30 5015 O 494.693 1.80857 0.126673 0
M  V30 5016 C 494.741 1.33326 -3.35047 0
M  V30 5017 O 493.845 2.44866 -3.31835 0
M  V30 5018 H 493.186 0.171807 -0.641388 0
M  V30 5019 H 495.716 -0.0987369 -2.04362 0
M  V30 5020 H 495.726 1.68867 -3.71413 0
M  V30 5021 H 494.401 0.608033 -4.11431 0
M  V30 5022 H 492.978 2.11392 -3.07193 0
M  V30 5023 N 495.163 1.55791 0.238111 0
M  V30 5024 C 496.093 1.94068 1.29846 0
M  V30 5025 C 497.074 0.806726 1.49753 0
M  V30 5026 O 498.259 1.06772 1.62214 0
M  V30 5027 C 495.389 2.24302 2.65153 0
M  V30 5028 C 494.343 3.40032 2.59927 0
M  V30 5029 C 493.669 3.55829 3.99111 0
M  V30 5030 C 494.969 4.75476 2.16148 0
M  V30 5031 H 496.663 2.82887 0.980563 0
M  V30 5032 H 494.209 1.36105 0.470253 0
M  V30 5033 H 496.162 2.4967 3.39475 0
M  V30 5034 H 494.886 1.32318 2.98596 0
M  V30 5035 H 493.545 3.14687 1.88063 0
M  V30 5036 H 493.193 2.6125 4.29834 0
M  V30 5037 H 492.893 4.3366 3.96501 0
M  V30 5038 H 494.417 3.83528 4.7512 0
M  V30 5039 H 495.831 5.00158 2.80205 0
M  V30 5040 H 494.228 5.56472 2.24631 0
M  V30 5041 H 495.298 4.71946 1.11333 0
M  V30 5042 N 496.642 -0.504142 1.49319 0
M  V30 5043 C 497.87 -1.28256 1.62351 0
M  V30 5044 C 498.285 -1.86502 0.293682 0
M  V30 5045 O 497.642 -1.67678 -0.720449 0
M  V30 5046 C 497.693 -2.41507 2.68992 0
M  V30 5047 O 497.414 -1.85656 3.96817 0
M  V30 5048 C 498.915 -3.32929 2.927 0
M  V30 5049 H 496.135 -0.389115 0.546654 0
M  V30 5050 H 498.679 -0.605531 1.95329 0
M  V30 5051 H 496.834 -3.05046 2.38801 0
M  V30 5052 H 497.248 -2.59981 4.55533 0
M  V30 5053 H 498.722 -4.0868 3.71058 0
M  V30 5054 H 499.199 -3.89733 2.02496 0
M  V30 5055 H 499.805 -2.75158 3.24296 0
M  V30 5056 N 498.12 -1.38341 -0.754957 0
M  V30 5057 C 499.345 -1.37882 -1.5493 0
M  V30 5058 C 499.77 0.0296385 -1.88077 0
M  V30 5059 O 499.128 1.01133 -1.50472 0
M  V30 5060 C 499.176 -2.23996 -2.82592 0
M  V30 5061 O 498.28 -1.65612 -3.77686 0
M  V30 5062 H 497.621 -0.470384 -0.468652 0
M  V30 5063 H 500.151 -1.82084 -0.933082 0
M  V30 5064 H 500.161 -2.37806 -3.3153 0
M  V30 5065 H 498.836 -3.26365 -2.57796 0
M  V30 5066 H 497.413 -1.60936 -3.36384 0
M  V30 5067 N 499.598 0.982988 -1.23187 0
M  V30 5068 C 500.528 2.09301 -1.03515 0
M  V30 5069 C 501.509 1.70035 0.0471136 0
M  V30 5070 O 502.694 1.93847 -0.117029 0
M  V30 5071 C 499.824 3.4167 -0.622791 0
M  V30 5072 C 498.778 3.94828 -1.65211 0
M  V30 5073 C 498.104 5.23362 -1.09527 0
M  V30 5074 C 499.404 4.2439 -3.04451 0
M  V30 5075 H 501.098 2.26016 -1.96359 0
M  V30 5076 H 498.644 1.08611 -0.945501 0
M  V30 5077 H 500.597 4.18746 -0.472233 0
M  V30 5078 H 499.321 3.24811 0.341329 0
M  V30 5079 H 497.98 3.19895 -1.79061 0
M  V30 5080 H 497.628 5.02852 -0.122211 0
M  V30 5081 H 497.328 5.59895 -1.783 0
M  V30 5082 H 498.852 6.03062 -0.956511 0
M  V30 5083 H 500.266 4.92225 -2.93917 0
M  V30 5084 H 498.663 4.72118 -3.70438 0
M  V30 5085 H 499.733 3.31765 -3.53638 0
M  V30 5086 N 501.076 1.04316 1.18135 0
M  V30 5087 C 502.353 0.662166 1.84051 0
M  V30 5088 C 502.733 -0.858169 1.9287 0
M  V30 5089 O 502.081 -1.76062 1.45652 0
M  V30 5090 C 502.291 1.3409 3.22212 0
M  V30 5091 C 503.639 1.4733 3.9822 0
M  V30 5092 O 504.663 1.29921 3.31661 0
M  V30 5093 O 503.522 1.75722 5.17479 0
M  V30 5094 H 500.616 0.232005 0.79379 0
M  V30 5095 H 503.162 1.1422 1.25506 0
M  V30 5096 H 501.934 2.37853 3.10711 0
M  V30 5097 H 501.557 0.849649 3.88416 0
M  V30 5098 N 502.554 -1.34406 0.822964 0
M  V30 5099 C 503.965 -1.8069 0.469879 0
M  V30 5100 C 504.316 -1.68223 -1.00972 0
M  V30 5101 O 503.441 -1.22226 -1.78577 0
M  V30 5102 C 504.036 -3.28064 0.846118 0
M  V30 5103 C 502.595 -3.72428 0.545402 0
M  V30 5104 C 501.742 -2.56116 1.06301 0
M  V30 5105 H 504.693 -1.22153 1.01313 0
M  V30 5106 H 504.714 -3.80205 0.149922 0
M  V30 5107 H 504.226 -3.37107 1.92304 0
M  V30 5108 H 502.327 -3.68924 -0.522109 0
M  V30 5109 H 502.44 -4.66548 1.0895 0
M  V30 5110 H 500.804 -2.50048 0.484554 0
M  V30 5111 H 501.587 -2.67928 2.14638 0
M  V30 5112 N 504.032 -0.577932 -1.46621 0
M  V30 5113 C 505.28 -0.061566 -2.02006 0
M  V30 5114 C 505.601 1.30117 -1.4524 0
M  V30 5115 O 504.871 1.85313 -0.63529 0
M  V30 5116 H 503.451 -0.0197692 -0.746738 0
M  V30 5117 H 506.113 -0.752631 -1.79782 0
M  V30 5118 H 505.209 0.0110238 -3.12098 0
M  V30 5119 N 505.51 1.54411 -0.315457 0
M  V30 5120 C 506.735 2.05299 0.294496 0
M  V30 5121 C 507.16 1.19052 1.4563 0
M  V30 5122 O 506.518 0.197804 1.80218 0
M  V30 5123 C 506.566 3.5345 0.714549 0
M  V30 5124 O 505.67 3.70175 1.81781 0
M  V30 5125 H 505.011 0.661743 0.0547019 0
M  V30 5126 H 507.541 1.99327 -0.461508 0
M  V30 5127 H 507.551 3.9557 0.999426 0
M  V30 5128 H 506.226 4.1568 -0.135244 0
M  V30 5129 H 504.803 3.3996 1.53236 0
M  V30 5130 N 506.988 0.0434614 1.5754 0
M  V30 5131 C 508.265 -0.671479 1.83713 0
M  V30 5132 C 508.645 -1.89495 0.930315 0
M  V30 5133 O 507.993 -2.28498 -0.0105639 0
M  V30 5134 C 508.203 -1.0361 3.33266 0
M  V30 5135 C 509.551 -1.42167 4.00092 0
M  V30 5136 O 510.575 -1.12866 3.37846 0
M  V30 5137 O 509.434 -1.96817 5.09829 0
M  V30 5138 H 506.528 -0.330726 0.75799 0
M  V30 5139 H 509.074 0.0722373 1.69546 0
M  V30 5140 H 507.846 -0.165938 3.90948 0
M  V30 5141 H 507.469 -1.83751 3.52592 0
M  V30 5142 N 508.466 -1.55915 -0.229846 0
M  V30 5143 C 509.413 -1.91734 -1.28478 0
M  V30 5144 C 510.383 -0.773539 -1.46988 0
M  V30 5145 O 511.568 -1.02871 -1.60693 0
M  V30 5146 C 508.708 -2.23224 -2.63182 0
M  V30 5147 C 507.821 -3.50497 -2.52539 0
M  V30 5148 C 506.956 -3.71474 -3.79711 0
M  V30 5149 C 505.995 -4.92289 -3.63755 0
M  V30 5150 N 505.132 -5.09698 -4.82858 0
M  V30 5151 H 509.972 -2.81692 -0.972308 0
M  V30 5152 H 507.509 -1.39429 -0.468815 0
M  V30 5153 H 509.467 -2.3949 -3.41614 0
M  V30 5154 H 508.097 -1.36451 -2.92542 0
M  V30 5155 H 507.149 -3.4247 -1.65585 0
M  V30 5156 H 508.461 -4.39079 -2.36666 0
M  V30 5157 H 507.615 -3.87791 -4.66586 0
M  V30 5158 H 506.354 -2.81157 -3.985 0
M  V30 5159 H 505.359 -4.7593 -2.75264 0
M  V30 5160 H 506.584 -5.84083 -3.46445 0
M  V30 5161 H 504.53 -4.22322 -5.01976 0
M  V30 5162 H 504.447 -5.92399 -4.69681 0
M  V30 5163 H 505.715 -5.30443 -5.71183 0
M  V30 5164 N 509.944 0.496216 -1.49584 0
M  V30 5165 C 510.874 1.60576 -1.69521 0
M  V30 5166 C 511.855 1.61169 -0.543933 0
M  V30 5167 O 513.04 1.77834 -0.78031 0
M  V30 5168 C 510.17 2.99038 -1.76616 0
M  V30 5169 C 509.124 3.13312 -2.91581 0
M  V30 5170 C 508.45 4.53172 -2.83794 0
M  V30 5171 C 509.75 2.92886 -4.32452 0
M  V30 5172 H 511.444 1.44146 -2.62416 0
M  V30 5173 H 508.99 0.692024 -1.26282 0
M  V30 5174 H 510.943 3.76564 -1.8915 0
M  V30 5175 H 509.667 3.16568 -0.80324 0
M  V30 5176 H 508.326 2.38213 -2.78658 0
M  V30 5177 H 507.974 4.67585 -1.854 0
M  V30 5178 H 507.674 4.63662 -3.60958 0
M  V30 5179 H 509.198 5.32752 -2.98342 0
M  V30 5180 H 510.612 3.60178 -4.46032 0
M  V30 5181 H 509.009 3.14844 -5.10875 0
M  V30 5182 H 510.079 1.88966 -4.46565 0
M  V30 5183 N 511.423 1.38739 0.74761 0
M  V30 5184 C 512.669 1.3648 1.50814 0
M  V30 5185 C 513.024 -0.0431982 1.92351 0
M  V30 5186 O 512.317 -1.0071 1.62997 0
M  V30 5187 C 512.511 2.25992 2.7688 0
M  V30 5188 C 512.34 3.75354 2.47668 0
M  V30 5189 C 511.11 4.44348 2.40589 0
M  V30 5190 C 513.308 4.67642 2.14046 0
M  V30 5191 N 511.29 5.79114 2.03715 0
M  V30 5192 C 512.661 5.90965 1.87512 0
M  V30 5193 C 514.716 4.55787 2.00407 0
M  V30 5194 C 513.419 7.03759 1.48714 0
M  V30 5195 C 515.445 5.68491 1.63011 0
M  V30 5196 C 514.807 6.90879 1.37353 0
M  V30 5197 H 510.906 0.554695 0.551214 0
M  V30 5198 H 513.49 1.7418 0.870033 0
M  V30 5199 H 511.661 1.9047 3.3849 0
M  V30 5200 H 513.393 2.14815 3.42982 0
M  V30 5201 H 510.148 3.97634 2.57262 0
M  V30 5202 H 510.572 6.504 1.87906 0
M  V30 5203 H 515.214 3.61712 2.18916 0
M  V30 5204 H 512.932 7.97746 1.28945 0
M  V30 5205 H 516.518 5.613 1.53081 0
M  V30 5206 H 515.398 7.76609 1.08848 0
M  V30 5207 N 512.901 -0.976442 1.23707 0
M  V30 5208 C 513.864 -2.0511 1.02287 0
M  V30 5209 C 514.864 -1.60791 -0.0167195 0
M  V30 5210 O 516.054 -1.72761 0.223408 0
M  V30 5211 C 513.186 -3.36458 0.548507 0
M  V30 5212 H 514.379 -2.25545 1.9766 0
M  V30 5213 H 511.932 -1.15042 1.05806 0
M  V30 5214 H 512.667 -3.21713 -0.408818 0
M  V30 5215 H 512.452 -3.69967 1.29874 0
M  V30 5216 H 513.942 -4.15489 0.419406 0
M  V30 5217 N 514.379 -1.04941 -1.1758 0
M  V30 5218 C 515.656 -0.671918 -1.83697 0
M  V30 5219 C 516.036 0.847929 -1.93322 0
M  V30 5220 O 515.384 1.75287 -1.46583 0
M  V30 5221 C 515.594 -1.35797 -3.21497 0
M  V30 5222 C 516.942 -1.4944 -3.97433 0
M  V30 5223 O 517.966 -1.31678 -3.30967 0
M  V30 5224 O 516.825 -1.78463 -5.1654 0
M  V30 5225 H 513.919 -0.236212 -0.792548 0
M  V30 5226 H 516.465 -1.14884 -1.24899 0
M  V30 5227 H 515.237 -2.39498 -3.09446 0
M  V30 5228 H 514.86 -0.870236 -3.8796 0
M  V30 5229 N 515.857 1.33968 -0.830081 0
M  V30 5230 C 516.805 2.31301 -0.245435 0
M  V30 5231 C 517.799 1.57734 0.617762 0
M  V30 5232 O 519.005 1.72674 0.508303 0
M  V30 5233 H 515.38 0.749552 -0.0606316 0
M  V30 5234 H 517.351 2.78129 -1.08105 0
M  V30 5235 C 516.1 3.42961 0.572084 0
M  V30 5236 H 515.423 3.99714 -0.0828118 0
M  V30 5237 H 516.863 4.13286 0.94715 0
M  V30 5238 C 515.322 2.88043 1.74737 0
M  V30 5239 O 515.852 2.83508 2.8458 0
M  V30 5240 N 514.058 2.44768 1.56642 0
M  V30 5241 H 513.605 2.48656 0.672901 0
M  V30 5242 H 513.563 2.08375 2.3543 0
M  V30 5243 N 517.335 0.585699 1.46312 0
M  V30 5244 C 518.245 -0.148236 2.34131 0
M  V30 5245 C 519.261 -0.882972 1.49932 0
M  V30 5246 O 520.437 -0.845484 1.82794 0
M  V30 5247 C 517.502 -1.14714 3.27172 0
M  V30 5248 C 516.563 -0.416746 4.27272 0
M  V30 5249 C 515.796 -1.36806 5.15868 0
M  V30 5250 O 516.019 -2.60475 5.07454 0
M  V30 5251 O 514.953 -0.877018 5.95476 0
M  V30 5252 H 518.779 0.572882 2.98248 0
M  V30 5253 H 516.364 0.346082 1.45336 0
M  V30 5254 H 518.246 -1.72303 3.84564 0
M  V30 5255 H 516.921 -1.84967 2.65648 0
M  V30 5256 H 515.828 0.201061 3.73559 0
M  V30 5257 H 517.161 0.244872 4.9159 0
M  V30 5258 N 518.813 -1.54241 0.323641 0
M  V30 5259 C 519.743 -2.27289 -0.534993 0
M  V30 5260 C 520.724 -1.28087 -1.11927 0
M  V30 5261 O 521.909 -1.56899 -1.14439 0
M  V30 5262 C 519.039 -3.03075 -1.69596 0
M  V30 5263 C 517.993 -4.09614 -1.24098 0
M  V30 5264 C 517.319 -4.73242 -2.4889 0
M  V30 5265 C 518.619 -5.21087 -0.355789 0
M  V30 5266 H 520.313 -2.99308 0.0743257 0
M  V30 5267 H 517.859 -1.43952 0.0371874 0
M  V30 5268 H 519.812 -3.52907 -2.30293 0
M  V30 5269 H 518.536 -2.28673 -2.33187 0
M  V30 5270 H 517.195 -3.60666 -0.656945 0
M  V30 5271 H 516.843 -3.95455 -3.10845 0
M  V30 5272 H 516.543 -5.45209 -2.19138 0
M  V30 5273 H 518.067 -5.25848 -3.10348 0
M  V30 5274 H 519.481 -5.66675 -0.869042 0
M  V30 5275 H 517.878 -5.9991 -0.151045 0
M  V30 5276 H 518.948 -4.81005 0.613339 0
M  V30 5277 N 520.291 -0.0518155 -1.57515 0
M  V30 5278 C 521.519 0.631395 -1.9703 0
M  V30 5279 C 521.934 1.64341 -0.92938 0
M  V30 5280 O 521.291 1.82296 0.0863266 0
M  V30 5281 C 521.342 1.31774 -3.36627 0
M  V30 5282 O 521.063 0.346247 -4.3673 0
M  V30 5283 C 522.564 2.09065 -3.90905 0
M  V30 5284 H 519.784 0.172576 -0.648428 0
M  V30 5285 H 522.328 -0.118306 -2.04158 0
M  V30 5286 H 520.483 2.01867 -3.30649 0
M  V30 5287 H 520.897 0.836226 -5.17791 0
M  V30 5288 H 522.371 2.52508 -4.9086 0
M  V30 5289 H 522.848 2.93908 -3.26366 0
M  V30 5290 H 523.454 1.43882 -4.00223 0
M  V30 5291 N 521.769 1.56035 0.221574 0
M  V30 5292 C 522.997 1.8313 0.962864 0
M  V30 5293 C 523.412 0.630934 1.77946 0
M  V30 5294 O 522.769 -0.400519 1.78051 0
M  V30 5295 C 522.82 3.08742 1.88045 0
M  V30 5296 O 522.541 4.24147 1.09686 0
M  V30 5297 C 524.042 3.48824 2.73563 0
M  V30 5298 H 521.262 0.608775 0.282194 0
M  V30 5299 H 523.806 2.03124 0.23681 0
M  V30 5300 H 521.961 2.90723 2.56045 0
M  V30 5301 H 522.375 4.95505 1.71974 0
M  V30 5302 H 523.849 4.39752 3.3365 0
M  V30 5303 H 524.326 2.70575 3.45956 0
M  V30 5304 H 524.932 3.69282 2.10976 0
M  V30 5305 N 523.247 -0.488276 1.49845 0
M  V30 5306 C 524.472 -1.26997 1.63971 0
M  V30 5307 C 524.897 -1.85427 0.315994 0
M  V30 5308 O 524.255 -1.66475 -0.718032 0
M  V30 5309 C 524.303 -2.36689 2.72049 0
M  V30 5310 O 523.407 -3.40882 2.32107 0
M  V30 5311 H 522.748 -0.374376 0.548396 0
M  V30 5312 H 525.278 -0.583104 1.96115 0
M  V30 5313 H 525.288 -2.82262 2.94605 0
M  V30 5314 H 523.963 -1.93529 3.68129 0
M  V30 5315 H 522.54 -3.01139 2.19931 0
M  V30 5316 N 524.725 -1.39134 -0.740242 0
M  V30 5317 C 525.973 -1.35803 -1.49673 0
M  V30 5318 C 526.294 0.0470897 -1.94943 0
M  V30 5319 O 525.564 0.997347 -1.68611 0
M  V30 5320 H 524.144 -0.499736 -0.555224 0
M  V30 5321 H 526.806 -1.73947 -0.879107 0
M  V30 5322 H 525.902 -2.0174 -2.38133 0
M  V30 5323 N 526.204 0.969867 -1.24223 0
M  V30 5324 C 527.136 2.0669 -0.99055 0
M  V30 5325 C 528.149 1.62753 0.0392222 0
M  V30 5326 O 529.338 1.77403 -0.197561 0
M  V30 5327 C 526.438 3.35589 -0.472594 0
M  V30 5328 C 525.611 4.08444 -1.56499 0
M  V30 5329 C 524.67 5.15616 -1.05007 0
M  V30 5330 O 523.696 5.41911 -1.7413 0
M  V30 5331 N 524.898 5.80383 0.116641 0
M  V30 5332 H 527.663 2.28855 -1.93508 0
M  V30 5333 H 525.224 1.13733 -1.15223 0
M  V30 5334 H 527.216 4.04542 -0.112919 0
M  V30 5335 H 525.786 3.10311 0.377617 0
M  V30 5336 H 525.006 3.33798 -2.09696 0
M  V30 5337 H 526.294 4.53882 -2.29932 0
M  V30 5338 H 525.692 5.6142 0.694589 0
M  V30 5339 H 524.249 6.50462 0.417483 0
M  V30 5340 N 527.682 1.05563 1.17022 0
M  V30 5341 C 528.912 0.787307 1.91011 0
M  V30 5342 C 529.32 -0.661256 1.77268 0
M  V30 5343 O 528.663 -1.46379 1.10991 0
M  V30 5344 C 528.725 1.09313 3.42478 0
M  V30 5345 C 528.389 2.53863 3.80004 0
M  V30 5346 C 529.386 3.52081 3.82538 0
M  V30 5347 C 527.071 2.88969 4.10855 0
M  V30 5348 C 529.065 4.83449 4.15399 0
M  V30 5349 C 526.752 4.2054 4.43384 0
M  V30 5350 C 527.75 5.17589 4.45635 0
M  V30 5351 O 527.438 6.46799 4.77395 0
M  V30 5352 H 527.17 0.285463 0.61277 0
M  V30 5353 H 529.724 1.41051 1.49311 0
M  V30 5354 H 527.954 0.412833 3.8449 0
M  V30 5355 H 529.643 0.810224 3.97731 0
M  V30 5356 H 530.409 3.26299 3.58823 0
M  V30 5357 H 526.288 2.1409 4.08272 0
M  V30 5358 H 529.832 5.59194 4.1707 0
M  V30 5359 H 525.729 4.46083 4.66563 0
M  V30 5360 H 526.497 6.51677 4.95237 0
M  V30 5361 N 529.16 -1.33526 0.837174 0
M  V30 5362 C 530.406 -1.9813 0.432704 0
M  V30 5363 C 530.739 -1.66168 -1.00508 0
M  V30 5364 O 530.014 -0.94069 -1.70239 0
M  V30 5365 C 530.297 -3.54151 0.651834 0
M  V30 5366 C 530.15 -3.95806 2.13676 0
M  V30 5367 C 531.469 -4.39993 0.0968937 0
M  V30 5368 H 528.588 -0.719713 0.15869 0
M  V30 5369 H 531.23 -1.58193 1.05237 0
M  V30 5370 H 529.38 -3.88301 0.124369 0
M  V30 5371 H 531.052 -3.71921 2.72896 0
M  V30 5372 H 529.295 -3.45599 2.62191 0
M  V30 5373 H 529.966 -5.0447 2.24084 0
M  V30 5374 H 532.442 -4.12479 0.547733 0
M  V30 5375 H 531.318 -5.48186 0.279917 0
M  V30 5376 H 531.579 -4.3066 -0.9992 0
M  V30 5377 N 530.638 -0.59345 -1.46 0
M  V30 5378 C 532.054 -0.255965 -1.57534 0
M  V30 5379 C 532.254 1.24167 -1.58697 0
M  V30 5380 O 531.31 2.02398 -1.50968 0
M  V30 5381 C 532.623 -0.91466 -2.86451 0
M  V30 5382 C 534.171 -0.889253 -3.00102 0
M  V30 5383 C 534.646 -1.52769 -4.3177 0
M  V30 5384 N 536.137 -1.49253 -4.38495 0
M  V30 5385 C 536.872 -1.9558 -5.39014 0
M  V30 5386 N 536.368 -2.49929 -6.46148 0
M  V30 5387 N 538.161 -1.86432 -5.30282 0
M  V30 5388 H 530.312 -1.56604 -1.43489 0
M  V30 5389 H 532.575 -0.655207 -0.685133 0
M  V30 5390 H 532.281 -1.96861 -2.91442 0
M  V30 5391 H 532.155 -0.429356 -3.74748 0
M  V30 5392 H 534.542 0.156111 -2.94687 0
M  V30 5393 H 534.623 -1.41268 -2.13253 0
M  V30 5394 H 534.267 -2.57231 -4.37944 0
M  V30 5395 H 534.197 -0.979398 -5.17412 0
M  V30 5396 H 536.688 -1.09536 -3.61677 0
M  V30 5397 H 537.001 -2.83109 -7.19075 0
M  V30 5398 H 535.346 -2.53961 -6.46938 0
M  V30 5399 H 538.537 -1.43722 -4.4549 0
M  V30 5400 H 538.71 -2.22852 -6.08474 0
M  V30 5401 N 532.116 1.54067 -0.331816 0
M  V30 5402 C 533.079 2.23275 0.517768 0
M  V30 5403 C 534.079 1.22897 1.03697 0
M  V30 5404 O 535.269 1.47419 0.928084 0
M  V30 5405 C 532.401 2.94326 1.72004 0
M  V30 5406 H 533.594 2.99773 -0.0873507 0
M  V30 5407 H 531.147 1.56079 -0.0830042 0
M  V30 5408 H 531.882 2.21986 2.36417 0
M  V30 5409 H 531.667 3.67941 1.35507 0
M  V30 5410 H 533.157 3.47031 2.32291 0
M  V30 5411 N 533.594 0.0601682 1.57485 0
M  V30 5412 C 535.01 -0.296422 1.56823 0
M  V30 5413 C 535.21 -1.70831 1.0686 0
M  V30 5414 O 534.266 -2.4174 0.729245 0
M  V30 5415 C 535.579 -0.116681 3.00474 0
M  V30 5416 C 537.127 -0.187103 3.1244 0
M  V30 5417 C 537.602 -0.035783 4.57986 0
M  V30 5418 N 539.093 -0.0917676 4.63109 0
M  V30 5419 C 539.828 0.00107251 5.734 0
M  V30 5420 N 539.324 0.146773 6.92645 0
M  V30 5421 N 541.117 -0.0551577 5.62073 0
M  V30 5422 H 533.268 0.983055 1.88281 0
M  V30 5423 H 535.531 0.382386 0.867459 0
M  V30 5424 H 535.237 0.85712 3.41096 0
M  V30 5425 H 535.111 -0.873929 3.66936 0
M  V30 5426 H 537.498 -1.15138 2.71712 0
M  V30 5427 H 537.579 0.601052 2.48638 0
M  V30 5428 H 537.223 0.925212 4.99402 0
M  V30 5429 H 537.153 -0.843196 5.19806 0
M  V30 5430 H 539.644 -0.203261 3.77353 0
M  V30 5431 H 539.957 0.210076 7.72514 0
M  V30 5432 H 538.302 0.181979 6.94762 0
M  V30 5433 H 541.493 -0.167605 4.678 0
M  V30 5434 H 541.666 0.020652 6.47997 0
M  V30 5435 N 535.072 -1.5615 -0.213296 0
M  V30 5436 C 536.321 -1.78743 -0.93455 0
M  V30 5437 C 536.634 -0.630199 -1.8517 0
M  V30 5438 O 537.84 -0.739966 -2.61222 0
M  V30 5439 C 536.296 -3.16571 -1.71203 0
M  V30 5440 C 535.904 -4.40043 -0.840617 0
M  V30 5441 C 537.648 -3.48485 -2.42401 0
M  V30 5442 C 535.555 -5.68895 -1.61592 0
M  V30 5443 H 534.485 -0.666426 -0.352692 0
M  V30 5444 H 537.136 -1.82532 -0.188227 0
M  V30 5445 H 535.518 -3.06981 -2.50157 0
M  V30 5446 H 536.692 -4.6071 -0.0910326 0
M  V30 5447 H 535.007 -4.15706 -0.240365 0
M  V30 5448 H 537.604 -4.41983 -3.00924 0
M  V30 5449 H 537.947 -2.71371 -3.15695 0
M  V30 5450 H 538.48 -3.59442 -1.7043 0
M  V30 5451 H 535.219 -6.48925 -0.926106 0
M  V30 5452 H 534.739 -5.52275 -2.33991 0
M  V30 5453 H 536.418 -6.09365 -2.17447 0
M  V30 5454 N 536.55 0.480323 -1.50102 0
M  V30 5455 C 537.497 1.57946 -1.6829 0
M  V30 5456 C 538.467 1.57611 -0.524223 0
M  V30 5457 O 539.652 1.75282 -0.753709 0
M  V30 5458 C 536.792 2.95978 -1.77457 0
M  V30 5459 C 535.905 3.06173 -3.04766 0
M  V30 5460 C 535.04 4.35063 -3.04784 0
M  V30 5461 C 534.079 4.38966 -4.26586 0
M  V30 5462 N 533.216 5.59314 -4.24396 0
M  V30 5463 H 538.056 1.41743 -2.62131 0
M  V30 5464 H 535.593 0.689304 -1.2995 0
M  V30 5465 H 537.551 3.76011 -1.80752 0
M  V30 5466 H 536.181 3.10837 -0.870637 0
M  V30 5467 H 535.233 2.19071 -3.10986 0
M  V30 5468 H 536.545 3.04916 -3.9475 0
M  V30 5469 H 535.699 5.23436 -3.06757 0
M  V30 5470 H 534.438 4.38915 -2.12614 0
M  V30 5471 H 533.443 3.48992 -4.24835 0
M  V30 5472 H 534.668 4.36813 -5.19972 0
M  V30 5473 H 532.614 5.63969 -3.35074 0
M  V30 5474 H 532.531 5.5976 -5.08138 0
M  V30 5475 H 533.799 6.49837 -4.30502 0
M  V30 5476 N 538.028 1.39524 0.732853 0
M  V30 5477 C 539.276 1.36594 1.48951 0
M  V30 5478 C 539.597 -0.0367507 1.94965 0
M  V30 5479 O 538.867 -0.988391 1.69138 0
M  V30 5480 H 537.447 0.502673 0.552566 0
M  V30 5481 H 540.109 1.74411 0.869869 0
M  V30 5482 H 539.205 2.03 2.3706 0
M  V30 5483 N 539.506 -0.963266 1.24736 0
M  V30 5484 C 540.469 -2.04013 1.04457 0
M  V30 5485 C 541.469 -1.608 0.000335555 0
M  V30 5486 O 542.659 -1.72515 0.241719 0
M  V30 5487 C 539.791 -3.35858 0.584162 0
M  V30 5488 H 540.984 -2.23436 2.00041 0
M  V30 5489 H 538.537 -1.13914 1.07021 0
M  V30 5490 H 539.272 -3.22128 -0.374673 0
M  V30 5491 H 539.057 -3.68568 1.3379 0
M  V30 5492 H 540.547 -4.1502 0.463451 0
M  V30 5493 N 540.985 -1.06182 -1.16461 0
M  V30 5494 C 542.215 -0.797425 -1.9059 0
M  V30 5495 C 542.623 0.651845 -1.77616 0
M  V30 5496 O 541.966 1.45788 -1.11766 0
M  V30 5497 C 542.028 -1.11128 -3.41893 0
M  V30 5498 C 541.692 -2.55874 -3.78652 0
M  V30 5499 C 542.689 -3.54104 -3.80665 0
M  V30 5500 C 540.374 -2.91144 -4.09317 0
M  V30 5501 C 542.368 -4.85645 -4.12829 0
M  V30 5502 C 540.055 -4.22885 -4.41148 0
M  V30 5503 C 541.053 -5.19945 -4.42883 0
M  V30 5504 O 540.741 -6.49322 -4.73959 0
M  V30 5505 H 540.473 -0.288709 -0.611247 0
M  V30 5506 H 543.027 -1.41841 -1.4856 0
M  V30 5507 H 541.257 -0.433217 -3.84266 0
M  V30 5508 H 542.946 -0.831306 -3.97296 0
M  V30 5509 H 543.712 -3.28197 -3.57088 0
M  V30 5510 H 539.591 -2.16252 -4.07131 0
M  V30 5511 H 543.135 -5.61398 -4.14099 0
M  V30 5512 H 539.032 -4.48551 -4.6419 0
M  V30 5513 H 539.8 -6.54294 -4.91774 0
M  V30 5514 N 542.463 1.3308 -0.844243 0
M  V30 5515 C 543.693 2.01515 -0.455541 0
M  V30 5516 C 544.101 1.63655 0.949406 0
M  V30 5517 O 543.444 0.84848 1.62931 0
M  V30 5518 C 543.506 3.55967 -0.502801 0
M  V30 5519 C 543.17 4.17222 -1.86481 0
M  V30 5520 C 544.167 4.36205 -2.8288 0
M  V30 5521 C 541.852 4.53528 -2.15911 0
M  V30 5522 C 543.846 4.90649 -4.06869 0
M  V30 5523 C 541.533 5.07679 -3.40155 0
M  V30 5524 C 542.531 5.26186 -4.35451 0
M  V30 5525 O 542.219 5.79183 -5.57496 0
M  V30 5526 H 541.951 0.65199 -0.178565 0
M  V30 5527 H 544.505 1.70867 -1.1399 0
M  V30 5528 H 542.735 3.85965 0.23836 0
M  V30 5529 H 544.424 4.05688 -0.131169 0
M  V30 5530 H 545.19 4.085 -2.61444 0
M  V30 5531 H 541.069 4.38414 -1.42528 0
M  V30 5532 H 544.613 5.0501 -4.81259 0
M  V30 5533 H 540.51 5.34815 -3.61446 0
M  V30 5534 H 541.278 5.97591 -5.5931 0
M  V30 5535 N 543.941 0.601185 1.45683 0
M  V30 5536 C 544.904 -0.111398 2.28929 0
M  V30 5537 C 545.904 -0.801246 1.39416 0
M  V30 5538 O 547.094 -0.650383 1.61603 0
M  V30 5539 C 544.226 -1.16773 3.20276 0
M  V30 5540 H 545.419 0.620412 2.93413 0
M  V30 5541 H 542.972 0.359946 1.52099 0
M  V30 5542 H 543.707 -1.93051 2.60579 0
M  V30 5543 H 543.492 -0.677358 3.86205 0
M  V30 5544 H 544.982 -1.66698 3.82886 0
M  V30 5545 N 545.419 -1.53889 0.339982 0
M  V30 5546 C 546.647 -2.05271 -0.259114 0
M  V30 5547 C 547.062 -1.21517 -1.44496 0
M  V30 5548 O 546.419 -0.24966 -1.80784 0
M  V30 5549 C 546.47 -3.55092 -0.677634 0
M  V30 5550 O 546.191 -4.35667 0.461051 0
M  V30 5551 C 547.692 -4.22631 -1.33782 0
M  V30 5552 H 544.912 -0.669085 -0.0506566 0
M  V30 5553 H 547.456 -1.9852 0.490935 0
M  V30 5554 H 545.611 -3.62077 -1.37763 0
M  V30 5555 H 546.025 -5.24343 0.128144 0
M  V30 5556 H 547.499 -5.28861 -1.58145 0
M  V30 5557 H 547.976 -3.74758 -2.29027 0
M  V30 5558 H 548.582 -4.19829 -0.679957 0
M  V30 5559 N 546.897 -0.0685191 -1.57451 0
M  V30 5560 C 548.308 0.464634 -1.80826 0
M  V30 5561 C 548.659 1.69847 -0.982169 0
M  V30 5562 O 547.784 2.15439 -0.203734 0
M  V30 5563 C 548.379 0.849721 -3.27971 0
M  V30 5564 C 546.938 1.32776 -3.52204 0
M  V30 5565 C 546.085 0.311332 -2.75547 0
M  V30 5566 H 549.036 -0.294248 -1.55948 0
M  V30 5567 H 549.057 1.71138 -3.39841 0
M  V30 5568 H 548.569 -0.0484736 -3.8807 0
M  V30 5569 H 546.67 2.24456 -2.97406 0
M  V30 5570 H 546.783 1.30794 -4.60901 0
M  V30 5571 H 545.147 0.787915 -2.42206 0
M  V30 5572 H 545.93 -0.579078 -3.38381 0
M  V30 5573 N 548.375 1.56261 0.205012 0
M  V30 5574 C 549.621 1.80306 0.9283 0
M  V30 5575 C 549.954 0.640932 1.83319 0
M  V30 5576 O 549.229 -0.359032 1.91158 0
M  V30 5577 C 549.512 3.14547 1.75306 0
M  V30 5578 C 549.365 4.41236 0.873562 0
M  V30 5579 C 550.684 3.45382 2.72762 0
M  V30 5580 H 547.803 0.655929 0.336044 0
M  V30 5581 H 550.445 1.88984 0.196211 0
M  V30 5582 H 548.595 3.0728 2.37721 0
M  V30 5583 H 550.267 4.60539 0.264887 0
M  V30 5584 H 548.51 4.33427 0.179773 0
M  V30 5585 H 549.181 5.31639 1.48541 0
M  V30 5586 H 551.657 3.52884 2.20481 0
M  V30 5587 H 550.533 4.40449 3.2756 0
M  V30 5588 H 550.794 2.68377 3.51321 0
M  V30 5589 N 549.853 -0.472356 1.50355 0
M  V30 5590 C 551.13 -1.23356 1.51798 0
M  V30 5591 C 551.51 -2.09469 0.26193 0
M  V30 5592 O 550.858 -2.15677 -0.754691 0
M  V30 5593 C 551.068 -2.06568 2.81302 0
M  V30 5594 C 552.416 -2.648 3.31913 0
M  V30 5595 O 553.44 -2.16812 2.82614 0
M  V30 5596 O 552.299 -3.52231 4.17846 0
M  V30 5597 H 549.393 -0.559707 0.608816 0
M  V30 5598 H 551.939 -0.48428 1.62643 0
M  V30 5599 H 550.711 -1.43103 3.64194 0
M  V30 5600 H 550.334 -2.88633 2.73454 0
M  V30 5601 N 551.331 -1.39911 -0.725443 0
M  V30 5602 C 552.742 -1.33599 -1.30415 0
M  V30 5603 C 553.093 -0.00481792 -1.96199 0
M  V30 5604 O 552.218 0.897275 -1.96921 0
M  V30 5605 C 552.813 -2.41965 -2.37146 0
M  V30 5606 C 551.372 -2.39144 -2.90667 0
M  V30 5607 C 550.519 -2.23355 -1.64341 0
M  V30 5608 H 553.47 -1.4986 -0.522267 0
M  V30 5609 H 553.491 -2.09304 -3.17761 0
M  V30 5610 H 553.003 -3.38837 -1.89238 0
M  V30 5611 H 551.104 -1.4594 -3.4283 0
M  V30 5612 H 551.217 -3.34362 -3.43131 0
M  V30 5613 H 549.581 -1.70696 -1.89037 0
M  V30 5614 H 550.364 -3.2221 -1.18471 0
M  V30 5615 N 552.809 0.956637 -1.25245 0
M  V30 5616 C 554.055 1.70352 -1.10036 0
M  V30 5617 C 554.388 1.90869 0.358156 0
M  V30 5618 O 553.663 1.47819 1.26411 0
M  V30 5619 C 553.946 3.08766 -1.85298 0
M  V30 5620 C 553.799 2.95672 -3.38966 0
M  V30 5621 C 555.118 4.08622 -1.63451 0
M  V30 5622 H 552.237 0.618279 -0.401123 0
M  V30 5623 H 554.879 1.11212 -1.54051 0
M  V30 5624 H 553.029 3.59252 -1.47887 0
M  V30 5625 H 554.701 2.52527 -3.86041 0
M  V30 5626 H 552.944 2.31634 -3.6678 0
M  V30 5627 H 553.615 3.93776 -3.86839 0
M  V30 5628 H 556.091 3.67038 -1.96015 0
M  V30 5629 H 554.967 5.03514 -2.18551 0
M  V30 5630 H 555.228 4.3834 -0.575357 0
M  V30 5631 N 554.287 1.06798 1.15896 0
M  V30 5632 C 555.515 0.808694 1.90441 0
M  V30 5633 C 555.93 -0.637506 1.77711 0
M  V30 5634 O 555.287 -1.43684 1.12522 0
M  V30 5635 C 555.338 1.20068 3.40978 0
M  V30 5636 O 555.059 2.59013 3.53333 0
M  V30 5637 C 556.56 0.96987 4.3256 0
M  V30 5638 H 553.78 0.292809 0.603742 0
M  V30 5639 H 556.324 1.42296 1.46874 0
M  V30 5640 H 554.479 0.630842 3.82229 0
M  V30 5641 H 554.893 2.7485 4.46719 0
M  V30 5642 H 556.367 1.29371 5.36626 0
M  V30 5643 H 556.844 -0.0941209 4.39099 0
M  V30 5644 H 557.45 1.52433 3.97044 0
M  V30 5645 N 555.766 -1.3263 0.851289 0
M  V30 5646 C 556.714 -2.30882 0.282202 0
M  V30 5647 C 557.708 -1.58697 -0.592589 0
M  V30 5648 O 558.914 -1.73461 -0.480768 0
M  V30 5649 H 555.289 -0.748492 0.0725487 0
M  V30 5650 H 557.26 -2.76374 1.12516 0
M  V30 5651 C 556.009 -3.43828 -0.517449 0
M  V30 5652 H 555.332 -3.99532 0.146392 0
M  V30 5653 H 556.772 -4.1474 -0.88128 0
M  V30 5654 C 555.231 -2.90786 -1.70133 0
M  V30 5655 O 555.761 -2.88 -2.80034 0
M  V30 5656 N 553.967 -2.4723 -1.52728 0
M  V30 5657 H 553.514 -2.49695 -0.633257 0
M  V30 5658 H 553.472 -2.12094 -2.32085 0
M  V30 5659 N 557.244 -0.608902 -1.45362 0
M  V30 5660 C 558.176 0.147318 -2.28726 0
M  V30 5661 C 559.189 0.830468 -1.40025 0
M  V30 5662 O 560.378 0.695636 -1.64387 0
M  V30 5663 C 557.478 1.22968 -3.15804 0
M  V30 5664 C 556.651 0.633391 -4.3279 0
M  V30 5665 C 555.71 1.60682 -5.01067 0
M  V30 5666 O 554.736 1.13261 -5.57818 0
M  V30 5667 N 555.938 2.94123 -5.00472 0
M  V30 5668 H 558.703 -0.568014 -2.94268 0
M  V30 5669 H 556.264 -0.448479 -1.55564 0
M  V30 5670 H 558.256 1.88072 -3.58345 0
M  V30 5671 H 556.826 1.84752 -2.52162 0
M  V30 5672 H 556.046 -0.195762 -3.93714 0
M  V30 5673 H 557.334 0.215255 -5.08344 0
M  V30 5674 H 556.732 3.3525 -4.55657 0
M  V30 5675 H 555.289 3.54646 -5.46872 0
M  V30 5676 N 558.722 1.53707 -0.348139 0
M  V30 5677 C 560.133 1.86213 0.134797 0
M  V30 5678 C 560.484 1.26925 1.49614 0
M  V30 5679 O 559.609 0.584573 2.08355 0
M  V30 5680 C 560.204 3.37866 0.251371 0
M  V30 5681 C 558.763 3.70233 0.678543 0
M  V30 5682 C 557.91 2.76683 -0.184925 0
M  V30 5683 H 560.861 1.48204 -0.567571 0
M  V30 5684 H 560.882 3.64908 1.07806 0
M  V30 5685 H 560.394 3.80988 -0.739581 0
M  V30 5686 H 558.495 3.32659 1.67835 0
M  V30 5687 H 558.608 4.76836 0.465251 0
M  V30 5688 H 556.972 2.52374 0.343465 0
M  V30 5689 H 557.755 3.22635 -1.1731 0
M  V30 5690 N 560.2 0.0768682 1.57412 0
M  V30 5691 C 561.428 -0.59997 1.9801 0
M  V30 5692 C 561.843 -1.62842 0.955408 0
M  V30 5693 O 561.2 -1.8241 -0.057314 0
M  V30 5694 C 561.251 -1.26401 3.38681 0
M  V30 5695 O 560.972 -0.276723 4.37225 0
M  V30 5696 C 562.473 -2.0282 3.94182 0
M  V30 5697 H 559.693 -0.162239 0.651091 0
M  V30 5698 H 562.237 0.150771 2.03943 0
M  V30 5699 H 560.392 -1.96581 3.33819 0
M  V30 5700 H 560.806 -0.753744 5.19056 0
M  V30 5701 H 562.28 -2.44667 4.94815 0
M  V30 5702 H 562.757 -2.88678 3.31001 0
M  V30 5703 H 563.363 -1.37496 4.02461 0
M  V30 5704 N 561.678 -1.56367 -0.196722 0
M  V30 5705 C 562.641 -1.93561 -1.22746 0
M  V30 5706 C 563.641 -0.816566 -1.38524 0
M  V30 5707 O 564.831 -1.084 -1.36363 0
M  V30 5708 C 561.963 -2.20823 -2.59712 0
M  V30 5709 H 563.156 -2.85774 -0.909586 0
M  V30 5710 H 560.709 -1.50032 -0.438174 0
M  V30 5711 H 561.444 -1.31243 -2.96557 0
M  V30 5712 H 561.229 -3.02368 -2.49632 0
M  V30 5713 H 562.719 -2.50608 -3.34044 0
M  V30 5714 N 563.156 0.464375 -1.50603 0
M  V30 5715 C 564.567 1.04507 -1.5471 0
M  V30 5716 C 564.918 1.9297 -0.354542 0
M  V30 5717 O 564.043 2.09763 0.531812 0
M  V30 5718 C 564.638 1.90207 -2.80369 0
M  V30 5719 C 563.197 2.43373 -2.87135 0
M  V30 5720 C 562.344 1.21886 -2.49076 0
M  V30 5721 H 565.295 0.246716 -1.56771 0
M  V30 5722 H 565.316 2.75353 -2.62604 0
M  V30 5723 H 564.828 1.25796 -3.67147 0
M  V30 5724 H 562.929 3.11318 -2.04724 0
M  V30 5725 H 563.042 2.7802 -3.90181 0
M  V30 5726 H 561.406 1.55575 -2.01664 0
M  V30 5727 H 562.189 0.591268 -3.3817 0
M  V30 5728 N 564.634 1.40294 0.718013 0
M  V30 5729 C 565.581 1.40367 1.8321 0
M  V30 5730 C 566.551 0.260952 1.64037 0
M  V30 5731 O 567.736 0.458648 1.85205 0
M  V30 5732 C 564.876 1.26965 3.20895 0
M  V30 5733 C 563.989 2.50922 3.51656 0
M  V30 5734 C 563.124 2.29981 4.78834 0
M  V30 5735 C 562.163 3.49527 5.02491 0
M  V30 5736 N 561.3 3.27796 6.20882 0
M  V30 5737 H 566.14 2.35593 1.82482 0
M  V30 5738 H 563.677 1.17012 0.891444 0
M  V30 5739 H 565.635 1.17202 4.00399 0
M  V30 5740 H 564.265 0.353591 3.20858 0
M  V30 5741 H 563.317 2.71223 2.66725 0
M  V30 5742 H 564.629 3.39913 3.65048 0
M  V30 5743 H 563.783 2.17558 5.66351 0
M  V30 5744 H 562.522 1.38411 4.67647 0
M  V30 5745 H 561.527 3.6243 4.1343 0
M  V30 5746 H 562.752 4.42021 5.15553 0
M  V30 5747 H 560.698 2.38906 6.1095 0
M  V30 5748 H 560.615 4.10351 6.34939 0
M  V30 5749 H 561.883 3.19101 7.11193 0
M  V30 5750 N 566.112 -0.949982 1.2575 0
M  V30 5751 C 567.389 -1.6718 1.01539 0
M  V30 5752 C 567.769 -2.06095 -0.456942 0
M  V30 5753 O 567.117 -1.77792 -1.43534 0
M  V30 5754 C 567.327 -2.8906 1.95564 0
M  V30 5755 C 568.675 -3.60909 2.23673 0
M  V30 5756 O 569.699 -2.9915 1.9336 0
M  V30 5757 O 568.558 -4.72127 2.75243 0
M  V30 5758 H 565.652 -0.731697 0.385419 0
M  V30 5759 H 568.198 -1.00249 1.36924 0
M  V30 5760 H 566.97 -2.57128 2.94959 0
M  V30 5761 H 566.593 -3.63719 1.60605 0
M  V30 5762 N 567.59 -1.07411 -1.15328 0
M  V30 5763 C 568.837 -0.797649 -1.86128 0
M  V30 5764 C 569.165 0.676298 -1.82364 0
M  V30 5765 O 568.42 1.51223 -1.24218 0
M  V30 5766 C 568.719 -1.25191 -3.34757 0
M  V30 5767 C 568.385 -2.73191 -3.58716 0
M  V30 5768 C 567.047 -3.13616 -3.64964 0
M  V30 5769 C 569.399 -3.68718 -3.6837 0
M  V30 5770 C 566.727 -4.48383 -3.78377 0
M  V30 5771 C 569.079 -5.03248 -3.83306 0
M  V30 5772 C 567.743 -5.43293 -3.878 0
M  V30 5773 H 567.013 -0.29188 -0.681092 0
M  V30 5774 H 569.66 -1.34524 -1.36292 0
M  V30 5775 H 567.965 -0.623712 -3.86804 0
M  V30 5776 H 569.662 -1.01489 -3.87945 0
M  V30 5777 H 566.252 -2.40898 -3.54494 0
M  V30 5778 H 570.436 -3.38614 -3.62842 0
M  V30 5779 H 565.692 -4.78877 -3.80114 0
M  V30 5780 H 569.866 -5.77142 -3.89718 0
M  V30 5781 H 567.493 -6.47721 -3.97946 0
M  V30 5782 N 569.068 1.32177 -0.85831 0
M  V30 5783 C 570.293 2.01847 -0.476718 0
M  V30 5784 C 570.718 1.64065 0.920021 0
M  V30 5785 O 570.076 0.843189 1.60499 0
M  V30 5786 C 570.124 3.55097 -0.627578 0
M  V30 5787 O 569.228 4.11012 0.338086 0
M  V30 5788 H 568.569 0.635907 -0.191099 0
M  V30 5789 H 571.099 1.68641 -1.15851 0
M  V30 5790 H 571.109 4.04718 -0.516476 0
M  V30 5791 H 569.784 3.81938 -1.64609 0
M  V30 5792 H 568.361 3.72451 0.182917 0
M  V30 5793 N 570.547 0.616602 1.45037 0
M  V30 5794 C 571.772 0.120192 2.07051 0
M  V30 5795 C 572.197 -1.19008 1.45666 0
M  V30 5796 O 571.555 -1.7267 0.552692 0
M  V30 5797 C 571.603 0.00354901 3.606 0
M  V30 5798 O 570.707 -1.04431 3.98958 0
M  V30 5799 H 570.048 0.0781599 0.659384 0
M  V30 5800 H 572.578 0.849167 1.86146 0
M  V30 5801 H 572.588 -0.191754 4.07549 0
M  V30 5802 H 571.263 0.960239 4.04663 0
M  V30 5803 H 569.84 -0.824749 3.63665 0
M  V30 5804 N 572.025 -1.5352 0.356285 0
M  V30 5805 C 573.273 -2.00719 -0.235837 0
M  V30 5806 C 573.594 -1.24551 -1.5004 0
M  V30 5807 O 572.864 -0.356185 -1.92635 0
M  V30 5808 H 571.444 -0.741542 -0.0901366 0
M  V30 5809 H 574.106 -1.88887 0.480378 0
M  V30 5810 H 573.202 -3.08551 -0.469357 0
M  V30 5811 N 573.503 -0.0852151 -1.57369 0
M  V30 5812 C 574.75 0.580806 -1.93992 0
M  V30 5813 C 575.078 1.68801 -0.966252 0
M  V30 5814 O 574.333 1.95694 0.0158649 0
M  V30 5815 C 574.632 1.18482 -3.3719 0
M  V30 5816 C 574.298 0.2024 -4.50446 0
M  V30 5817 C 572.96 -0.0678318 -4.81152 0
M  V30 5818 C 575.312 -0.46895 -5.19086 0
M  V30 5819 C 572.64 -1.01627 -5.77831 0
M  V30 5820 C 574.992 -1.4058 -6.16782 0
M  V30 5821 C 573.656 -1.68436 -6.45899 0
M  V30 5822 H 572.926 0.212532 -0.709867 0
M  V30 5823 H 575.573 -0.158947 -1.90839 0
M  V30 5824 H 573.878 2.0006 -3.36873 0
M  V30 5825 H 575.575 1.70767 -3.62822 0
M  V30 5826 H 572.165 0.423208 -4.26505 0
M  V30 5827 H 576.349 -0.273307 -4.95547 0
M  V30 5828 H 571.605 -1.2392 -5.9871 0
M  V30 5829 H 575.779 -1.93188 -6.69068 0
M  V30 5830 H 573.406 -2.42088 -7.20623 0
M  V30 5831 N 574.981 1.5647 0.188427 0
M  V30 5832 C 576.227 1.82181 0.904534 0
M  V30 5833 C 576.582 0.663258 1.80606 0
M  V30 5834 O 575.875 -0.341231 1.88537 0
M  V30 5835 C 576.069 3.11596 1.7505 0
M  V30 5836 C 575.898 4.39928 0.932372 0
M  V30 5837 C 574.668 5.01554 0.61417 0
M  V30 5838 C 576.866 5.13527 0.281936 0
M  V30 5839 N 574.848 6.13499 -0.221896 0
M  V30 5840 C 576.219 6.18603 -0.416037 0
M  V30 5841 C 578.274 4.97505 0.198345 0
M  V30 5842 C 576.977 7.09394 -1.18965 0
M  V30 5843 C 579.003 5.88725 -0.561887 0
M  V30 5844 C 578.365 6.93251 -1.24828 0
M  V30 5845 H 574.464 0.717858 0.310168 0
M  V30 5846 H 577.048 1.93932 0.172757 0
M  V30 5847 H 575.219 3.01068 2.45383 0
M  V30 5848 H 576.951 3.25369 2.4066 0
M  V30 5849 H 573.706 4.64174 0.940187 0
M  V30 5850 H 574.13 6.74065 -0.629735 0
M  V30 5851 H 578.772 4.16716 0.714665 0
M  V30 5852 H 576.49 7.8964 -1.71737 0
M  V30 5853 H 580.076 5.78401 -0.628009 0
M  V30 5854 H 578.956 7.62618 -1.82712 0
M  V30 5855 N 576.459 -0.456382 1.50847 0
M  V30 5856 C 577.736 -1.21739 1.53098 0
M  V30 5857 C 578.116 -2.09179 0.284132 0
M  V30 5858 O 577.464 -2.16466 -0.731773 0
M  V30 5859 C 577.674 -2.03573 2.83477 0
M  V30 5860 C 579.022 -2.61264 3.34703 0
M  V30 5861 O 580.046 -2.13802 2.84898 0
M  V30 5862 O 578.905 -3.47779 4.21559 0
M  V30 5863 H 575.999 -0.553219 0.614718 0
M  V30 5864 H 578.545 -0.467003 1.63148 0
M  V30 5865 H 577.317 -1.39232 3.65691 0
M  V30 5866 H 576.94 -2.85716 2.76499 0
M  V30 5867 N 577.937 -1.40673 -0.710563 0
M  V30 5868 C 579.184 -1.39222 -1.47049 0
M  V30 5869 C 579.512 0.0037691 -1.945 0
M  V30 5870 O 578.767 0.989224 -1.68857 0
M  V30 5871 C 579.066 -2.33253 -2.70791 0
M  V30 5872 C 578.732 -3.80406 -2.42079 0
M  V30 5873 C 577.394 -4.20496 -2.33959 0
M  V30 5874 C 579.746 -4.73375 -2.18094 0
M  V30 5875 C 577.074 -5.51584 -1.99929 0
M  V30 5876 C 579.426 -6.04768 -1.85576 0
M  V30 5877 C 578.09 -6.43895 -1.75941 0
M  V30 5878 H 577.36 -0.509449 -0.538092 0
M  V30 5879 H 580.007 -1.73363 -0.81348 0
M  V30 5880 H 578.312 -1.92314 -3.41354 0
M  V30 5881 H 580.009 -2.29412 -3.28894 0
M  V30 5882 H 576.599 -3.48645 -2.49288 0
M  V30 5883 H 580.783 -4.43217 -2.23321 0
M  V30 5884 H 576.039 -5.80797 -1.91011 0
M  V30 5885 H 580.213 -6.76318 -1.66033 0
M  V30 5886 H 577.84 -7.45387 -1.4934 0
M  V30 5887 N 579.415 0.9433 -1.26252 0
M  V30 5888 C 580.363 2.06302 -1.07434 0
M  V30 5889 C 581.357 1.694 -0.00189471 0
M  V30 5890 O 582.563 1.79302 -0.158408 0
M  V30 5891 H 578.938 0.675453 -0.330556 0
M  V30 5892 H 580.909 2.19326 -2.02333 0
M  V30 5893 C 579.658 3.40125 -0.721817 0
M  V30 5894 H 578.981 3.68996 -1.5389 0
M  V30 5895 H 580.421 4.19295 -0.629922 0
M  V30 5896 C 578.88 3.31993 0.572902 0
M  V30 5897 O 579.41 3.67945 1.61182 0
M  V30 5898 N 577.616 2.85099 0.562748 0
M  V30 5899 H 577.163 2.5604 -0.283092 0
M  V30 5900 H 577.121 2.80041 1.42915 0
M  V30 5901 N 580.893 1.08022 1.14757 0
M  V30 5902 C 582.17 0.720386 1.81851 0
M  V30 5903 C 582.55 -0.796375 1.95502 0
M  V30 5904 O 581.898 -1.71339 1.51179 0
M  V30 5905 C 582.108 1.44273 3.17783 0
M  V30 5906 C 583.456 1.59925 3.93331 0
M  V30 5907 O 584.48 1.40407 3.2736 0
M  V30 5908 O 583.339 1.92096 5.11626 0
M  V30 5909 H 580.433 0.257142 0.786007 0
M  V30 5910 H 582.979 1.18155 1.21809 0
M  V30 5911 H 581.751 2.47618 3.02987 0
M  V30 5912 H 581.374 0.97279 3.85516 0
M  V30 5913 N 582.371 -1.3172 0.865308 0
M  V30 5914 C 583.619 -1.96487 0.472995 0
M  V30 5915 C 583.94 -1.68761 -0.976975 0
M  V30 5916 O 583.21 -1.00051 -1.68424 0
M  V30 5917 H 581.79 -0.726947 0.171922 0
M  V30 5918 H 584.452 -1.60612 1.10407 0
M  V30 5919 H 583.548 -3.0574 0.62687 0
M  V30 5920 N 583.85 -0.624285 -1.44708 0
M  V30 5921 C 585.077 -0.132919 -2.06473 0
M  V30 5922 C 585.493 1.18967 -1.46602 0
M  V30 5923 O 584.85 1.72824 -0.586341 0
M  V30 5924 C 584.901 -0.00465418 -3.615 0
M  V30 5925 O 584.622 -1.27494 -4.19138 0
M  V30 5926 C 586.123 0.516213 -4.40284 0
M  V30 5927 H 583.343 -0.0765201 -0.666623 0
M  V30 5928 H 585.887 -0.856751 -1.85688 0
M  V30 5929 H 584.042 0.669583 -3.8157 0
M  V30 5930 H 584.456 -1.11536 -5.12504 0
M  V30 5931 H 585.93 0.554994 -5.49203 0
M  V30 5932 H 586.407 1.5419 -4.11245 0
M  V30 5933 H 587.013 -0.124542 -4.25118 0
M  V30 5934 N 585.328 1.53329 -0.364422 0
M  V30 5935 C 586.556 2.05657 0.226424 0
M  V30 5936 C 586.971 1.23801 1.42544 0
M  V30 5937 O 586.328 0.27839 1.80364 0
M  V30 5938 C 586.379 3.56125 0.621056 0
M  V30 5939 O 586.1 4.34879 -0.530304 0
M  V30 5940 C 587.601 4.24706 1.27041 0
M  V30 5941 H 584.821 0.669806 0.0400056 0
M  V30 5942 H 587.365 1.97714 -0.522456 0
M  V30 5943 H 585.52 3.64223 1.31985 0
M  V30 5944 H 585.934 5.24073 -0.211546 0
M  V30 5945 H 587.408 5.3131 1.49711 0
M  V30 5946 H 587.885 3.78354 2.23036 0
M  V30 5947 H 588.491 4.20858 0.613079 0
M  V30 5948 N 586.806 0.0935595 1.57322 0
M  V30 5949 C 587.738 -0.895923 2.10964 0
M  V30 5950 C 588.751 -1.24705 1.04654 0
M  V30 5951 O 589.94 -1.20044 1.32105 0
M  V30 5952 C 587.04 -2.20546 2.57318 0
M  V30 5953 C 586.213 -2.0299 3.87445 0
M  V30 5954 C 585.272 -3.17443 4.19662 0
M  V30 5955 O 584.298 -2.91474 4.88909 0
M  V30 5956 N 585.5 -4.43168 3.74943 0
M  V30 5957 H 588.265 -0.437788 2.96485 0
M  V30 5958 H 585.826 -0.0915863 1.61641 0
M  V30 5959 H 587.818 -2.9606 2.75917 0
M  V30 5960 H 586.388 -2.57789 1.76816 0
M  V30 5961 H 585.608 -1.11815 3.78009 0
M  V30 5962 H 586.896 -1.88535 4.7258 0
M  V30 5963 H 586.294 -4.67149 3.19043 0
M  V30 5964 H 584.851 -5.15637 3.987 0
M  V30 5965 N 588.284 -1.56567 -0.180126 0
M  V30 5966 C 589.532 -1.81133 -0.896392 0
M  V30 5967 C 589.853 -0.669114 -1.83161 0
M  V30 5968 O 589.123 0.311616 -1.93406 0
M  V30 5969 H 587.703 -0.668172 -0.333999 0
M  V30 5970 H 590.365 -1.94048 -0.182051 0
M  V30 5971 H 589.461 -2.74854 -1.47857 0
M  V30 5972 N 589.762 0.448376 -1.51087 0
M  V30 5973 C 591.009 1.19872 -1.63209 0
M  V30 5974 C 591.337 1.91451 -0.343062 0
M  V30 5975 O 590.592 1.83789 0.672321 0
M  V30 5976 C 590.891 2.24866 -2.77795 0
M  V30 5977 C 590.557 1.70378 -4.17471 0
M  V30 5978 C 589.219 1.55241 -4.55471 0
M  V30 5979 C 591.571 1.30203 -5.04675 0
M  V30 5980 C 588.899 0.983844 -5.78392 0
M  V30 5981 C 591.251 0.747798 -6.28165 0
M  V30 5982 C 589.915 0.583233 -6.64947 0
M  V30 5983 H 589.185 0.438642 -0.597222 0
M  V30 5984 H 591.832 0.49136 -1.85089 0
M  V30 5985 H 590.137 3.01598 -2.50092 0
M  V30 5986 H 591.834 2.82723 -2.84374 0
M  V30 5987 H 588.424 1.83134 -3.87505 0
M  V30 5988 H 592.608 1.40723 -4.75932 0
M  V30 5989 H 587.864 0.844007 -6.05546 0
M  V30 5990 H 592.038 0.427927 -6.95084 0
M  V30 5991 H 589.665 0.140532 -7.6007 0
M  V30 5992 N 591.24 1.41047 0.703093 0
M  V30 5993 C 592.488 1.39723 1.4602 0
M  V30 5994 C 592.809 0.00461257 1.94999 0
M  V30 5995 O 592.079 -0.952292 1.71196 0
M  V30 5996 H 590.659 0.514281 0.541779 0
M  V30 5997 H 593.321 1.76217 0.832678 0
M  V30 5998 H 592.417 2.07982 2.32701 0
M  V30 5999 N 592.718 -0.936591 1.26751 0
M  V30 6000 C 593.964 -1.6858 1.12733 0
M  V30 6001 C 594.297 -1.91414 -0.327745 0
M  V30 6002 O 593.572 -1.49812 -1.24043 0
M  V30 6003 C 593.855 -3.05779 1.90187 0
M  V30 6004 C 593.708 -2.90242 3.43627 0
M  V30 6005 C 595.027 -4.0597 1.69931 0
M  V30 6006 H 592.146 -0.61182 0.410908 0
M  V30 6007 H 594.788 -1.08747 1.55801 0
M  V30 6008 H 592.938 -3.56853 1.53584 0
M  V30 6009 H 594.61 -2.46354 3.9001 0
M  V30 6010 H 592.853 -2.2577 3.70419 0
M  V30 6011 H 593.524 -3.87572 3.93055 0
M  V30 6012 H 596 -3.63874 2.0183 0
M  V30 6013 H 594.876 -4.99974 2.26534 0
M  V30 6014 H 595.137 -4.37369 0.64502 0
M  V30 6015 N 594.196 -1.08629 -1.14182 0
M  V30 6016 C 595.144 -0.71284 -2.21408 0
M  V30 6017 C 596.138 0.282457 -1.67029 0
M  V30 6018 O 597.344 0.144783 -1.79417 0
M  V30 6019 H 593.719 -0.212497 -0.721352 0
M  V30 6020 H 595.69 -1.6265 -2.50175 0
M  V30 6021 C 594.439 -0.140704 -3.47415 0
M  V30 6022 H 593.762 -0.897739 -3.8959 0
M  V30 6023 H 595.202 0.0827677 -4.23919 0
M  V30 6024 C 593.661 1.122 -3.17668 0
M  V30 6025 O 594.191 2.20652 -3.35672 0
M  V30 6026 N 592.397 1.03328 -2.71609 0
M  V30 6027 H 591.944 0.150666 -2.57159 0
M  V30 6028 H 591.902 1.8789 -2.52081 0
M  V30 6029 N 595.674 1.31259 -0.872281 0
M  V30 6030 C 597.085 1.78822 -0.536617 0
M  V30 6031 C 597.436 1.71855 0.946594 0
M  V30 6032 O 596.561 1.28769 1.73918 0
M  V30 6033 C 597.156 3.24698 -0.967294 0
M  V30 6034 C 595.715 3.70147 -0.683251 0
M  V30 6035 C 594.862 2.51994 -1.15733 0
M  V30 6036 H 597.813 1.18308 -1.05777 0
M  V30 6037 H 597.834 3.79386 -0.290929 0
M  V30 6038 H 597.346 3.29737 -2.04683 0
M  V30 6039 H 595.447 3.70607 0.384825 0
M  V30 6040 H 595.56 4.62183 -1.2619 0
M  V30 6041 H 593.924 2.48078 -0.577024 0
M  V30 6042 H 594.707 2.59778 -2.24434 0
M  V30 6043 N 597.152 0.631951 1.44375 0
M  V30 6044 C 598.429 0.067646 1.95483 0
M  V30 6045 C 598.809 -1.40683 1.57389 0
M  V30 6046 O 598.157 -2.12167 0.848375 0
M  V30 6047 C 598.367 0.291392 3.47781 0
M  V30 6048 C 599.715 0.185028 4.24197 0
M  V30 6049 O 600.739 0.222803 3.55503 0
M  V30 6050 O 599.598 0.0906642 5.46425 0
M  V30 6051 H 596.692 -0.0218379 0.826712 0
M  V30 6052 H 599.238 0.703711 1.54421 0
M  V30 6053 H 598.01 1.31449 3.68561 0
M  V30 6054 H 597.633 -0.378772 3.95792 0
M  V30 6055 N 598.631 -1.53133 0.372548 0
M  V30 6056 C 599.856 -2.0625 -0.218098 0
M  V30 6057 C 600.281 -1.24375 -1.41111 0
M  V30 6058 O 599.639 -0.264554 -1.79359 0
M  V30 6059 C 599.687 -3.55858 -0.582876 0
M  V30 6060 O 598.791 -3.76667 -1.67917 0
M  V30 6061 H 598.132 -0.663317 -0.030104 0
M  V30 6062 H 600.662 -1.97477 0.535169 0
M  V30 6063 H 600.672 -3.99007 -0.851925 0
M  V30 6064 H 599.347 -4.14892 0.289428 0
M  V30 6065 H 597.924 -3.45413 -1.40513 0
M  V30 6066 N 600.109 -0.101901 -1.5727 0
M  V30 6067 C 601.52 0.426173 -1.81771 0
M  V30 6068 C 601.871 1.67725 -1.01797 0
M  V30 6069 O 600.996 2.14958 -0.249386 0
M  V30 6070 C 601.591 0.779962 -3.297 0
M  V30 6071 C 600.15 1.25275 -3.54941 0
M  V30 6072 C 599.297 0.252814 -2.76145 0
M  V30 6073 H 602.248 -0.32726 -1.55289 0
M  V30 6074 H 602.269 1.63891 -3.43395 0
M  V30 6075 H 601.781 -0.130778 -3.8788 0
M  V30 6076 H 599.882 2.18097 -3.021 0
M  V30 6077 H 599.995 1.20988 -4.63572 0
M  V30 6078 H 598.359 0.736362 -2.43823 0
M  V30 6079 H 599.142 -0.650724 -3.37076 0
M  V30 6080 N 601.587 1.56661 0.17182 0
M  V30 6081 C 602.836 1.81158 0.886831 0
M  V30 6082 C 603.149 0.679072 1.83434 0
M  V30 6083 O 604.355 0.808964 2.59168 0
M  V30 6084 C 602.811 3.20999 1.6275 0
M  V30 6085 C 602.419 4.42117 0.723652 0
M  V30 6086 C 604.163 3.5479 2.33076 0
M  V30 6087 C 602.07 5.7298 1.46452 0
M  V30 6088 H 601 0.675543 0.334899 0
M  V30 6089 H 603.651 1.82967 0.139765 0
M  V30 6090 H 602.033 3.13506 2.4193 0
M  V30 6091 H 603.207 4.60789 -0.0311485 0
M  V30 6092 H 601.522 4.16197 0.130063 0
M  V30 6093 H 604.119 4.49806 2.89099 0
M  V30 6094 H 604.462 2.79646 3.08389 0
M  V30 6095 H 604.995 3.63834 1.6084 0
M  V30 6096 H 601.734 6.51152 0.753729 0
M  V30 6097 H 601.254 5.58285 2.19266 0
M  V30 6098 H 602.933 6.14916 2.01214 0
M  V30 6099 N 603.065 -0.440357 1.51323 0
M  V30 6100 C 604.293 -1.21255 1.67645 0
M  V30 6101 C 604.708 -1.85088 0.37252 0
M  V30 6102 O 604.065 -1.70582 -0.648683 0
M  V30 6103 C 604.116 -2.29881 2.78993 0
M  V30 6104 O 603.837 -1.68659 4.04334 0
M  V30 6105 C 605.338 -3.20214 3.06558 0
M  V30 6106 H 602.558 -0.36558 0.562666 0
M  V30 6107 H 605.102 -0.52214 1.97722 0
M  V30 6108 H 603.257 -2.94643 2.51524 0
M  V30 6109 H 603.671 -2.40426 4.6615 0
M  V30 6110 H 605.145 -3.92575 3.88058 0
M  V30 6111 H 605.622 -3.80794 2.18844 0
M  V30 6112 H 606.228 -2.61156 3.35675 0
M  V30 6113 N 604.543 -1.41418 -0.695603 0
M  V30 6114 C 605.506 -1.42988 -1.79129 0
M  V30 6115 C 606.506 -0.320514 -1.57573 0
M  V30 6116 O 607.696 -0.58039 -1.64247 0
M  V30 6117 C 604.828 -1.24122 -3.175 0
M  V30 6118 H 606.021 -2.40526 -1.7913 0
M  V30 6119 H 603.574 -1.2756 -0.903225 0
M  V30 6120 H 604.309 -0.274253 -3.23138 0
M  V30 6121 H 604.094 -2.045 -3.34547 0
M  V30 6122 H 605.584 -1.28056 -3.97481 0
M  V30 6123 N 606.021 0.929856 -1.27246 0
M  V30 6124 C 607.27 1.67182 -1.12842 0
M  V30 6125 C 607.583 1.9287 0.325666 0
M  V30 6126 O 608.789 2.64999 0.590572 0
M  V30 6127 C 607.245 3.01097 -1.97151 0
M  V30 6128 C 606.853 2.83115 -3.47203 0
M  V30 6129 C 608.597 3.78907 -1.91389 0
M  V30 6130 C 606.504 4.12573 -4.23719 0
M  V30 6131 H 605.434 0.627064 -0.418697 0
M  V30 6132 H 608.085 1.0332 -1.51649 0
M  V30 6133 H 606.467 3.66004 -1.51186 0
M  V30 6134 H 607.641 2.26989 -4.01015 0
M  V30 6135 H 605.956 2.18736 -3.54321 0
M  V30 6136 H 608.553 4.74837 -2.45834 0
M  V30 6137 H 608.896 4.0674 -0.887047 0
M  V30 6138 H 609.429 3.20794 -2.35237 0
M  V30 6139 H 606.168 3.8992 -5.26918 0
M  V30 6140 H 605.688 4.68371 -3.74685 0
M  V30 6141 H 607.367 4.8095 -4.32777 0
M  V30 6142 N 607.499 1.09233 1.13605 0
M  V30 6143 C 608.447 0.724572 2.21027 0
M  V30 6144 C 609.441 -0.273595 1.67176 0
M  V30 6145 O 610.647 -0.135266 1.79491 0
M  V30 6146 H 607.022 0.216319 0.720215 0
M  V30 6147 H 608.993 1.63975 2.49309 0
M  V30 6148 C 607.742 0.159126 3.47336 0
M  V30 6149 H 607.065 0.918387 3.89109 0
M  V30 6150 H 608.505 -0.0602851 4.23957 0
M  V30 6151 C 606.964 -1.10514 3.18258 0
M  V30 6152 O 607.494 -2.18869 3.36837 0
M  V30 6153 N 605.7 -1.01886 2.72154 0
M  V30 6154 H 605.247 -0.137027 2.57235 0
M  V30 6155 H 605.205 -1.8655 2.53074 0
M  V30 6156 N 608.977 -1.30795 0.87923 0
M  V30 6157 C 610.223 -1.96653 0.495519 0
M  V30 6158 C 610.556 -1.69282 -0.951703 0
M  V30 6159 O 609.831 -0.994374 -1.6716 0
M  V30 6160 C 610.114 -3.51898 0.764174 0
M  V30 6161 C 609.967 -3.88808 2.2616 0
M  V30 6162 C 611.286 -4.39462 0.236825 0
M  V30 6163 H 608.405 -0.7143 0.181507 0
M  V30 6164 H 611.047 -1.54765 1.10217 0
M  V30 6165 H 609.197 -3.87709 0.247841 0
M  V30 6166 H 610.869 -3.63051 2.8459 0
M  V30 6167 H 609.112 -3.37082 2.73053 0
M  V30 6168 H 609.783 -4.97086 2.4002 0
M  V30 6169 H 612.259 -4.10528 0.678683 0
M  V30 6170 H 611.135 -5.47018 0.454176 0
M  V30 6171 H 611.396 -4.33621 -0.861683 0
M  V30 6172 N 610.455 -0.639598 -1.44038 0
M  V30 6173 C 611.365 0.0612377 -2.3452 0
M  V30 6174 C 612.381 0.826717 -1.53106 0
M  V30 6175 O 613.557 0.777059 -1.85806 0
M  V30 6176 C 610.622 1.02492 -3.31204 0
M  V30 6177 C 609.683 0.25788 -4.28525 0
M  V30 6178 C 608.916 1.17566 -5.2059 0
M  V30 6179 O 609.139 2.41461 -5.16771 0
M  V30 6180 O 608.073 0.655407 -5.98321 0
M  V30 6181 H 611.899 -0.68318 -2.95916 0
M  V30 6182 H 609.484 -0.399784 -1.43952 0
M  V30 6183 H 611.366 1.57911 -3.90694 0
M  V30 6184 H 610.041 1.7498 -2.7233 0
M  V30 6185 H 608.948 -0.339566 -3.72556 0
M  V30 6186 H 610.281 -0.427154 -4.90343 0
M  V30 6187 N 611.933 1.52934 -0.380664 0
M  V30 6188 C 612.881 2.27727 0.47361 0
M  V30 6189 C 613.875 1.31288 1.0705 0
M  V30 6190 O 615.081 1.4886 1.01197 0
M  V30 6191 H 611.456 0.732189 0.171475 0
M  V30 6192 H 613.427 2.97864 -0.178785 0
M  V30 6193 C 612.176 3.0904 1.59341 0
M  V30 6194 H 611.499 3.831 1.14343 0
M  V30 6195 H 612.939 3.64527 2.16555 0
M  V30 6196 C 611.398 2.20813 2.54447 0
M  V30 6197 O 611.928 1.82907 3.57642 0
M  V30 6198 N 610.134 1.85145 2.23986 0
M  V30 6199 H 609.681 2.16169 1.40103 0
M  V30 6200 H 609.639 1.26402 2.87871 0
M  V30 6201 N 613.412 0.11024 1.57214 0
M  V30 6202 C 614.375 -0.828808 2.1369 0
M  V30 6203 C 615.375 -1.20059 1.06969 0
M  V30 6204 O 616.565 -1.12754 1.32786 0
M  V30 6205 C 613.697 -2.11959 2.66994 0
M  V30 6206 H 614.89 -0.338146 2.97988 0
M  V30 6207 H 612.443 -0.138913 1.55681 0
M  V30 6208 H 613.178 -2.65476 1.8626 0
M  V30 6209 H 612.963 -1.86258 3.45037 0
M  V30 6210 H 614.453 -2.79105 3.10629 0
M  V30 6211 N 614.89 -1.56749 -0.16351 0
M  V30 6212 C 615.838 -1.97939 -1.22159 0
M  V30 6213 C 616.832 -0.869288 -1.45395 0
M  V30 6214 O 618.038 -1.05443 -1.45883 0
M  V30 6215 H 614.413 -0.629869 -0.410815 0
M  V30 6216 H 616.384 -2.86115 -0.847381 0
M  V30 6217 C 615.133 -2.36206 -2.55151 0
M  V30 6218 H 614.456 -3.2117 -2.38097 0
M  V30 6219 H 615.896 -2.68863 -3.27854 0
M  V30 6220 C 614.355 -1.20841 -3.14482 0
M  V30 6221 O 614.885 -0.500258 -3.98573 0
M  V30 6222 N 613.091 -0.976943 -2.73686 0
M  V30 6223 H 612.638 -1.55457 -2.05404 0
M  V30 6224 H 612.596 -0.206912 -3.13718 0
M  V30 6225 N 616.368 0.432326 -1.51554 0
M  V30 6226 C 617.316 1.54572 -1.73811 0
M  V30 6227 C 618.31 1.58246 -0.604539 0
M  V30 6228 O 619.516 1.6193 -0.786041 0
M  V30 6229 H 615.891 0.513626 -0.549265 0
M  V30 6230 H 617.862 1.32977 -2.67132 0
M  V30 6231 C 616.611 2.92181 -1.88483 0
M  V30 6232 H 615.934 2.90088 -2.75116 0
M  V30 6233 H 617.374 3.69439 -2.08065 0
M  V30 6234 C 615.833 3.3065 -0.645909 0
M  V30 6235 O 616.363 4.01216 0.197093 0
M  V30 6236 N 614.569 2.86464 -0.488538 0
M  V30 6237 H 614.116 2.29209 -1.17562 0
M  V30 6238 H 614.074 3.12565 0.339156 0
M  V30 6239 N 617.846 1.41785 0.688094 0
M  V30 6240 C 618.809 1.43936 1.78368 0
M  V30 6241 C 619.809 0.328866 1.57401 0
M  V30 6242 O 620.999 0.589093 1.63937 0
M  V30 6243 C 618.131 1.25804 3.16838 0
M  V30 6244 H 619.324 2.41472 1.77852 0
M  V30 6245 H 616.877 1.28037 0.896448 0
M  V30 6246 H 617.612 0.291386 3.22988 0
M  V30 6247 H 617.397 2.06272 3.33458 0
M  V30 6248 H 618.887 1.30162 3.96797 0
M  V30 6249 N 619.324 -0.923095 1.27737 0
M  V30 6250 C 620.254 -2.04124 1.13383 0
M  V30 6251 C 621.235 -1.70066 0.0340658 0
M  V30 6252 O 622.42 -1.93068 0.209383 0
M  V30 6253 C 619.55 -3.3831 0.785097 0
M  V30 6254 C 618.504 -3.86496 1.8386 0
M  V30 6255 C 617.83 -5.1754 1.34373 0
M  V30 6256 C 619.13 -4.09381 3.24353 0
M  V30 6257 H 620.824 -2.1639 2.06919 0
M  V30 6258 H 618.37 -1.03976 0.996243 0
M  V30 6259 H 620.323 -4.16016 0.671485 0
M  V30 6260 H 619.047 -3.2607 -0.185969 0
M  V30 6261 H 617.706 -3.10987 1.9412 0
M  V30 6262 H 617.354 -5.01696 0.361989 0
M  V30 6263 H 617.054 -5.50751 2.04811 0
M  V30 6264 H 618.578 -5.97811 1.24315 0
M  V30 6265 H 619.992 -4.77641 3.17067 0
M  V30 6266 H 618.389 -4.53906 3.92542 0
M  V30 6267 H 619.459 -3.14515 3.69064 0
M  V30 6268 N 620.802 -1.09834 -1.13024 0
M  V30 6269 C 621.749 -0.741522 -2.18564 0
M  V30 6270 C 622.719 0.279236 -1.63736 0
M  V30 6271 O 623.904 0.159923 -1.90129 0
M  V30 6272 C 621.044 -0.17277 -3.44667 0
M  V30 6273 C 620.157 -1.24808 -4.13578 0
M  V30 6274 C 619.292 -0.641631 -5.27311 0
M  V30 6275 C 618.331 -1.69795 -5.88078 0
M  V30 6276 N 617.468 -1.11223 -6.93234 0
M  V30 6277 H 622.308 -1.64576 -2.48432 0
M  V30 6278 H 619.845 -0.822174 -1.21978 0
M  V30 6279 H 621.803 0.17482 -4.16834 0
M  V30 6280 H 620.433 0.694725 -3.15235 0
M  V30 6281 H 619.485 -1.71288 -3.39653 0
M  V30 6282 H 620.797 -2.04795 -4.54819 0
M  V30 6283 H 619.951 -0.243128 -6.06213 0
M  V30 6284 H 618.69 0.189742 -4.87331 0
M  V30 6285 H 617.695 -2.10595 -5.07868 0
M  V30 6286 H 618.92 -2.53206 -6.3013 0
M  V30 6287 H 616.866 -0.302208 -6.55304 0
M  V30 6288 H 616.783 -1.84901 -7.3304 0
M  V30 6289 H 618.051 -0.740068 -7.75979 0
M  V30 6290 N 622.28 1.30327 -0.886154 0
M  V30 6291 C 623.529 1.95373 -0.501243 0
M  V30 6292 C 623.842 1.70722 0.954634 0
M  V30 6293 O 625.048 2.29761 1.44644 0
M  V30 6294 C 623.504 3.49828 -0.845493 0
M  V30 6295 C 623.112 3.83296 -2.31922 0
M  V30 6296 C 624.856 4.2118 -0.529838 0
M  V30 6297 C 622.763 5.30935 -2.60504 0
M  V30 6298 H 621.693 0.731274 -0.183722 0
M  V30 6299 H 624.344 1.48258 -1.08129 0
M  V30 6300 H 622.726 3.95522 -0.19452 0
M  V30 6301 H 623.9 3.48508 -3.01461 0
M  V30 6302 H 622.215 3.2505 -2.60253 0
M  V30 6303 H 624.812 5.29825 -0.720401 0
M  V30 6304 H 625.155 4.12902 0.530828 0
M  V30 6305 H 625.688 3.81173 -1.13806 0
M  V30 6306 H 622.427 5.44265 -3.65316 0
M  V30 6307 H 621.947 5.67019 -1.95575 0
M  V30 6308 H 623.626 5.98381 -2.46066 0
M  V30 6309 N 623.758 0.647228 1.43697 0
M  V30 6310 C 624.983 0.164083 2.0675 0
M  V30 6311 C 625.408 -1.15892 1.48158 0
M  V30 6312 O 624.766 -1.71459 0.589194 0
M  V30 6313 C 624.814 0.0800368 3.60511 0
M  V30 6314 O 623.918 -0.959453 4.01084 0
M  V30 6315 H 623.259 0.0921288 0.657578 0
M  V30 6316 H 625.789 0.88846 1.84303 0
M  V30 6317 H 625.799 -0.105263 4.07864 0
M  V30 6318 H 624.474 1.04586 4.02535 0
M  V30 6319 H 623.051 -0.747425 3.65333 0
M  V30 6320 N 625.236 -1.5273 0.388769 0
M  V30 6321 C 626.184 -2.27975 -0.461527 0
M  V30 6322 C 627.178 -1.31854 -1.06352 0
M  V30 6323 O 628.384 -1.49394 -1.00406 0
M  V30 6324 H 624.759 -0.733088 -0.16759 0
M  V30 6325 H 626.73 -2.97765 0.194579 0
M  V30 6326 C 625.479 -3.09881 -1.577 0
M  V30 6327 H 624.802 -3.83701 -1.12309 0
M  V30 6328 H 626.242 -3.6567 -2.14619 0
M  V30 6329 C 624.701 -2.22159 -2.53272 0
M  V30 6330 O 625.231 -1.84802 -3.56667 0
M  V30 6331 N 623.437 -1.8633 -2.23001 0
M  V30 6332 H 622.984 -2.16909 -1.38954 0
M  V30 6333 H 622.942 -1.27927 -2.87197 0
M  V30 6334 N 626.714 -0.118576 -1.57153 0
M  V30 6335 C 627.644 0.828436 -2.1831 0
M  V30 6336 C 628.625 1.27758 -1.12303 0
M  V30 6337 O 629.81 1.34026 -1.40537 0
M  V30 6338 C 626.94 2.07876 -2.78217 0
M  V30 6339 C 625.894 1.76742 -3.89803 0
M  V30 6340 C 625.22 3.08801 -4.36516 0
M  V30 6341 C 626.52 1.03606 -5.11921 0
M  V30 6342 H 628.214 0.318824 -2.97698 0
M  V30 6343 H 625.76 0.151911 -1.43196 0
M  V30 6344 H 627.713 2.74584 -3.19659 0
M  V30 6345 H 626.437 2.61161 -1.96118 0
M  V30 6346 H 625.096 1.12424 -3.48936 0
M  V30 6347 H 624.744 3.6002 -3.51276 0
M  V30 6348 H 624.444 2.88743 -5.11763 0
M  V30 6349 H 625.968 3.76627 -4.80608 0
M  V30 6350 H 627.382 1.60467 -5.50385 0
M  V30 6351 H 625.779 0.936454 -5.92748 0
M  V30 6352 H 626.849 0.0227421 -4.84895 0
M  V30 6353 N 628.193 1.56834 0.155195 0
M  V30 6354 C 629.141 1.98584 1.21107 0
M  V30 6355 C 630.135 0.876987 1.44932 0
M  V30 6356 O 631.341 1.06215 1.45322 0
M  V30 6357 H 627.716 0.632039 0.407469 0
M  V30 6358 H 629.687 2.86561 0.832195 0
M  V30 6359 C 628.436 2.37555 2.53895 0
M  V30 6360 H 627.759 3.22428 2.3639 0
M  V30 6361 H 629.199 2.70598 3.26424 0
M  V30 6362 C 627.658 1.22507 3.13837 0
M  V30 6363 O 628.188 0.521388 3.98302 0
M  V30 6364 N 626.394 0.991444 2.73164 0
M  V30 6365 H 625.941 1.56544 2.04577 0
M  V30 6366 H 625.899 0.223546 3.13604 0
M  V30 6367 N 629.671 -0.424282 1.51781 0
M  V30 6368 C 630.896 -1.19928 1.6921 0
M  V30 6369 C 631.321 -1.8392 0.394355 0
M  V30 6370 O 630.679 -1.69371 -0.646778 0
M  V30 6371 C 630.727 -2.24937 2.81843 0
M  V30 6372 O 629.831 -3.3073 2.46356 0
M  V30 6373 H 629.172 -0.35078 0.563781 0
M  V30 6374 H 631.702 -0.499401 1.98412 0
M  V30 6375 H 631.712 -2.69512 3.06312 0
M  V30 6376 H 630.387 -1.77742 3.76006 0
M  V30 6377 H 628.964 -2.9154 2.32505 0
M  V30 6378 N 631.149 -1.42148 -0.680565 0
M  V30 6379 C 632.096 -1.45175 -1.79424 0
M  V30 6380 C 633.066 -0.304352 -1.63288 0
M  V30 6381 O 634.251 -0.507591 -1.83924 0
M  V30 6382 C 631.391 -1.35429 -3.17416 0
M  V30 6383 C 630.504 -2.60158 -3.4488 0
M  V30 6384 C 629.639 -2.42596 -4.72568 0
M  V30 6385 C 628.678 -3.62727 -4.93047 0
M  V30 6386 N 627.815 -3.44143 -6.11973 0
M  V30 6387 H 632.655 -2.40349 -1.76172 0
M  V30 6388 H 630.192 -1.19334 -0.860107 0
M  V30 6389 H 632.15 -1.27777 -3.97151 0
M  V30 6390 H 630.78 -0.438536 -3.19807 0
M  V30 6391 H 629.832 -2.78199 -2.5944 0
M  V30 6392 H 631.144 -3.49473 -3.55908 0
M  V30 6393 H 630.298 -2.32497 -5.60384 0
M  V30 6394 H 629.037 -1.50761 -4.63813 0
M  V30 6395 H 628.042 -3.73264 -4.03676 0
M  V30 6396 H 629.267 -4.55534 -5.03652 0
M  V30 6397 H 627.213 -2.5502 -6.04401 0
M  V30 6398 H 627.13 -4.27041 -6.23836 0
M  V30 6399 H 628.398 -3.37845 -7.02482 0
M  V30 6400 N 632.627 0.916307 -1.28225 0
M  V30 6401 C 633.875 1.6619 -1.15002 0
M  V30 6402 C 634.196 1.92642 0.302329 0
M  V30 6403 O 633.466 1.54076 1.20985 0
M  V30 6404 H 632.046 0.615964 -0.422608 0
M  V30 6405 H 634.708 1.09963 -1.60917 0
M  V30 6406 H 633.804 2.62533 -1.68769 0
M  V30 6407 N 634.105 1.10431 1.1244 0
M  V30 6408 C 635.33 0.869089 1.88313 0
M  V30 6409 C 635.755 -0.574912 1.79099 0
M  V30 6410 O 635.113 -1.40496 1.14589 0
M  V30 6411 C 635.161 1.32208 3.3549 0
M  V30 6412 O 634.265 0.487092 4.09513 0
M  V30 6413 H 633.606 0.313894 0.585121 0
M  V30 6414 H 636.136 1.47111 1.42195 0
M  V30 6415 H 636.146 1.31201 3.86329 0
M  V30 6416 H 634.821 2.37364 3.41513 0
M  V30 6417 H 633.398 0.562372 3.68635 0
M  V30 6418 N 635.583 -1.29855 0.893053 0
M  V30 6419 C 636.531 -2.29867 0.355512 0
M  V30 6420 C 637.525 -1.60502 -0.541801 0
M  V30 6421 O 638.731 -1.74902 -0.425339 0
M  V30 6422 H 635.106 -0.745805 0.0963247 0
M  V30 6423 H 637.077 -2.72655 1.21252 0
M  V30 6424 C 635.826 -3.453 -0.407801 0
M  V30 6425 H 635.149 -3.98864 0.273426 0
M  V30 6426 H 636.589 -4.17334 -0.748887 0
M  V30 6427 C 635.048 -2.96051 -1.60795 0
M  V30 6428 O 635.578 -2.96763 -2.7073 0
M  V30 6429 N 633.784 -2.51963 -1.44786 0
M  V30 6430 H 633.331 -2.51583 -0.553498 0
M  V30 6431 H 633.289 -2.1937 -2.2522 0
M  V30 6432 N 637.061 -0.65484 -1.43351 0
M  V30 6433 C 638.338 -0.0987371 -1.95351 0
M  V30 6434 C 638.718 1.38161 -1.59608 0
M  V30 6435 O 638.066 2.10791 -0.882021 0
M  V30 6436 C 638.276 -0.346684 -3.47274 0
M  V30 6437 C 639.624 -0.25249 -4.23849 0
M  V30 6438 O 640.648 -0.279332 -3.55103 0
M  V30 6439 O 639.507 -0.177584 -5.46211 0
M  V30 6440 H 636.601 0.0086829 -0.826954 0
M  V30 6441 H 639.147 -0.728189 -1.53282 0
M  V30 6442 H 637.919 -1.37296 -3.66423 0
M  V30 6443 H 637.542 0.315757 -3.96344 0
M  V30 6444 N 638.539 1.52521 -0.396863 0
M  V30 6445 C 639.469 2.29582 0.425941 0
M  V30 6446 C 640.45 1.33281 1.05689 0
M  V30 6447 O 641.635 1.62181 1.06823 0
M  V30 6448 C 638.765 3.10821 1.54943 0
M  V30 6449 C 637.719 4.15069 1.04413 0
M  V30 6450 C 637.045 4.84578 2.26028 0
M  V30 6451 C 638.345 5.22191 0.106767 0
M  V30 6452 H 640.039 2.98612 -0.217045 0
M  V30 6453 H 637.585 1.43611 -0.105826 0
M  V30 6454 H 639.538 3.63492 2.13193 0
M  V30 6455 H 638.262 2.39538 2.22011 0
M  V30 6456 H 636.921 3.63389 0.484118 0
M  V30 6457 H 636.569 4.09835 2.91623 0
M  V30 6458 H 636.269 5.55043 1.92876 0
M  V30 6459 H 637.793 5.40056 2.84906 0
M  V30 6460 H 639.207 5.70176 0.597685 0
M  V30 6461 H 637.604 5.99947 -0.135352 0
M  V30 6462 H 638.674 4.77531 -0.842134 0
M  V30 6463 N 640.017 0.126909 1.57088 0
M  V30 6464 C 641.242 -0.53997 2.00248 0
M  V30 6465 C 641.667 -1.58927 1.00618 0
M  V30 6466 O 641.025 -1.81288 -0.0210131 0
M  V30 6467 C 641.073 -1.13565 3.4225 0
M  V30 6468 O 640.177 -2.25103 3.45547 0
M  V30 6469 H 639.518 -0.13412 0.650314 0
M  V30 6470 H 642.048 0.217718 2.03438 0
M  V30 6471 H 642.058 -1.46925 3.80627 0
M  V30 6472 H 640.733 -0.367122 4.14277 0
M  V30 6473 H 639.31 -1.93123 3.18995 0
M  V30 6474 N 641.495 -1.56914 -0.146875 0
M  V30 6475 C 642.405 -2.0154 -1.20079 0
M  V30 6476 C 643.421 -0.930838 -1.47008 0
M  V30 6477 O 644.597 -1.24032 -1.58676 0
M  V30 6478 C 641.662 -2.38715 -2.51428 0
M  V30 6479 C 640.723 -3.6112 -2.32145 0
M  V30 6480 C 639.956 -3.96512 -3.57231 0
M  V30 6481 O 640.179 -3.32566 -4.63418 0
M  V30 6482 O 639.113 -4.89758 -3.49887 0
M  V30 6483 H 642.939 -2.91506 -0.851924 0
M  V30 6484 H 640.524 -1.45106 -0.355607 0
M  V30 6485 H 642.406 -2.63485 -3.28867 0
M  V30 6486 H 641.081 -1.51903 -2.85845 0
M  V30 6487 H 639.988 -3.41536 -1.52656 0
M  V30 6488 H 641.321 -4.48549 -2.02644 0
M  V30 6489 N 642.974 0.416227 -1.52004 0
M  V30 6490 C 644.222 1.16153 -1.65387 0
M  V30 6491 C 644.543 1.91208 -0.382669 0
M  V30 6492 O 643.813 1.86413 0.602231 0
M  V30 6493 H 642.393 0.431765 -0.60958 0
M  V30 6494 H 645.055 0.475151 -1.89019 0
M  V30 6495 H 644.151 1.87952 -2.4916 0
M  V30 6496 N 644.452 1.42507 0.673017 0
M  V30 6497 C 645.4 1.46362 1.80779 0
M  V30 6498 C 646.394 0.339166 1.6597 0
M  V30 6499 O 647.6 0.512262 1.72557 0
M  V30 6500 H 643.975 0.458433 0.596107 0
M  V30 6501 H 645.946 2.41953 1.74646 0
M  V30 6502 C 644.695 1.38462 3.18941 0
M  V30 6503 H 644.018 2.24283 3.30964 0
M  V30 6504 H 645.458 1.45221 3.98355 0
M  V30 6505 C 643.917 0.0996354 3.36753 0
M  V30 6506 O 644.447 -0.846894 3.92671 0
M  V30 6507 N 642.653 0.016211 2.90595 0
M  V30 6508 H 642.2 0.78725 2.45276 0
M  V30 6509 H 642.158 -0.84291 3.0289 0
M  V30 6510 N 645.93 -0.909495 1.28709 0
M  V30 6511 C 647.177 -1.65905 1.16111 0
M  V30 6512 C 647.505 -1.92334 -0.289436 0
M  V30 6513 O 646.76 -1.52495 -1.22653 0
M  V30 6514 C 647.059 -3.02117 1.90945 0
M  V30 6515 C 646.725 -2.95332 3.40719 0
M  V30 6516 C 645.387 -2.93189 3.81567 0
M  V30 6517 C 647.739 -2.85264 4.36204 0
M  V30 6518 C 645.067 -2.78784 5.16233 0
M  V30 6519 C 647.419 -2.724 5.70948 0
M  V30 6520 C 646.083 -2.68617 6.11066 0
M  V30 6521 H 645.353 -0.60709 0.42488 0
M  V30 6522 H 648 -1.05932 1.59533 0
M  V30 6523 H 646.305 -3.65901 1.40085 0
M  V30 6524 H 648.002 -3.59026 1.7861 0
M  V30 6525 H 644.592 -2.97797 3.08245 0
M  V30 6526 H 648.776 -2.86005 4.05605 0
M  V30 6527 H 644.032 -2.74254 5.46438 0
M  V30 6528 H 648.206 -2.63579 6.44592 0
M  V30 6529 H 645.833 -2.57213 7.15364 0
M  V30 6530 N 647.408 -1.11026 -1.11852 0
M  V30 6531 C 648.654 -0.867633 -1.83967 0
M  V30 6532 C 649.009 0.600309 -1.82795 0
M  V30 6533 O 648.302 1.43731 -1.26696 0
M  V30 6534 C 648.496 -1.35777 -3.30604 0
M  V30 6535 C 648.325 -2.87183 -3.46058 0
M  V30 6536 C 647.095 -3.55256 -3.59334 0
M  V30 6537 C 649.293 -3.85258 -3.40706 0
M  V30 6538 N 647.275 -4.94923 -3.63215 0
M  V30 6539 C 648.646 -5.1097 -3.51155 0
M  V30 6540 C 650.701 -3.77879 -3.2421 0
M  V30 6541 C 649.404 -6.30171 -3.46809 0
M  V30 6542 C 651.43 -4.96586 -3.2118 0
M  V30 6543 C 650.792 -6.21149 -3.32196 0
M  V30 6544 H 646.891 -0.370574 -0.688621 0
M  V30 6545 H 649.475 -1.41379 -1.33865 0
M  V30 6546 H 647.646 -0.83885 -3.79233 0
M  V30 6547 H 649.378 -1.05874 -3.90606 0
M  V30 6548 H 646.133 -3.05714 -3.61713 0
M  V30 6549 H 646.557 -5.67726 -3.68804 0
M  V30 6550 H 651.199 -2.82485 -3.14582 0
M  V30 6551 H 648.917 -7.25847 -3.55206 0
M  V30 6552 H 652.503 -4.92591 -3.09589 0
M  V30 6553 H 651.383 -7.11463 -3.29834 0
M  V30 6554 N 648.886 1.2938 -0.899927 0
M  V30 6555 C 649.849 2.25983 -0.382677 0
M  V30 6556 C 650.849 1.53366 0.483259 0
M  V30 6557 O 652.039 1.71798 0.28828 0
M  V30 6558 C 649.171 3.37878 0.452915 0
M  V30 6559 H 650.364 2.73252 -1.23586 0
M  V30 6560 H 647.917 1.40825 -0.678088 0
M  V30 6561 H 648.652 2.95949 1.32608 0
M  V30 6562 H 648.437 3.91742 -0.167562 0
M  V30 6563 H 649.927 4.09746 0.806107 0
M  V30 6564 N 650.364 0.662433 1.43002 0
M  V30 6565 C 651.312 -0.035345 2.32573 0
M  V30 6566 C 652.306 -0.803505 1.49131 0
M  V30 6567 O 653.512 -0.712865 1.65282 0
M  V30 6568 H 649.887 -0.0302194 0.751393 0
M  V30 6569 H 651.858 0.737686 2.89138 0
M  V30 6570 C 650.607 -0.981575 3.33557 0
M  V30 6571 H 649.93 -0.399914 3.97795 0
M  V30 6572 H 651.37 -1.43873 3.98844 0
M  V30 6573 C 649.829 -2.08204 2.64863 0
M  V30 6574 O 650.359 -3.16698 2.47113 0
M  V30 6575 N 648.565 -1.85022 2.24088 0
M  V30 6576 H 648.112 -0.967909 2.38724 0
M  V30 6577 H 648.07 -2.58845 1.78457 0
M  V30 6578 N 651.842 -1.52309 0.404946 0
M  V30 6579 C 653.088 -2.02065 -0.172455 0
M  V30 6580 C 653.421 -1.29022 -1.45145 0
M  V30 6581 O 652.696 -0.395284 -1.90441 0
M  V30 6582 C 652.979 -3.5759 -0.424433 0
M  V30 6583 C 652.832 -4.41287 0.870945 0
M  V30 6584 C 654.151 -4.23186 -1.20837 0
M  V30 6585 H 651.27 -0.734454 -0.0612035 0
M  V30 6586 H 653.912 -1.82236 0.53759 0
M  V30 6587 H 652.062 -3.74617 -1.02929 0
M  V30 6588 H 653.734 -4.3598 1.50729 0
M  V30 6589 H 651.977 -4.07669 1.48284 0
M  V30 6590 H 652.648 -5.48171 0.649083 0
M  V30 6591 H 655.124 -4.10232 -0.696338 0
M  V30 6592 H 654 -5.31953 -1.35343 0
M  V30 6593 H 654.261 -3.81862 -2.22786 0
M  V30 6594 N 653.32 -0.135238 -1.57019 0
M  V30 6595 C 654.736 0.221262 -1.58059 0
M  V30 6596 C 654.936 1.65538 -1.14889 0
M  V30 6597 O 653.992 2.37985 -0.843751 0
M  V30 6598 C 655.305 -0.0268114 -3.00688 0
M  V30 6599 C 656.853 0.0378206 -3.12977 0
M  V30 6600 C 657.328 -0.182769 -4.57635 0
M  V30 6601 N 658.819 -0.129292 -4.6302 0
M  V30 6602 C 659.554 -0.274648 -5.72742 0
M  V30 6603 N 659.05 -0.477075 -6.91155 0
M  V30 6604 N 660.843 -0.213077 -5.61696 0
M  V30 6605 H 652.994 -1.07177 -1.83376 0
M  V30 6606 H 655.257 -0.423338 -0.848227 0
M  V30 6607 H 654.963 -1.01889 -3.36618 0
M  V30 6608 H 654.837 0.697863 -3.70688 0
M  V30 6609 H 657.224 1.02043 -2.76896 0
M  V30 6610 H 657.305 -0.718996 -2.45487 0
M  V30 6611 H 656.949 -1.16243 -4.94419 0
M  V30 6612 H 656.879 0.59423 -5.23237 0
M  V30 6613 H 659.37 0.0229896 -3.77893 0
M  V30 6614 H 659.683 -0.578413 -7.70632 0
M  V30 6615 H 658.028 -0.513252 -6.93102 0
M  V30 6616 H 661.219 -0.0557796 -4.68067 0
M  V30 6617 H 661.392 -0.329796 -6.4716 0
M  V30 6618 N 654.798 1.5699 0.138552 0
M  V30 6619 C 656.047 1.82998 0.848205 0
M  V30 6620 C 656.36 0.717829 1.81952 0
M  V30 6621 O 657.566 0.863756 2.57394 0
M  V30 6622 C 656.022 3.24379 1.55904 0
M  V30 6623 C 655.63 4.43552 0.62971 0
M  V30 6624 C 657.374 3.59654 2.25498 0
M  V30 6625 C 655.281 5.75957 1.34266 0
M  V30 6626 H 654.211 0.682495 0.320495 0
M  V30 6627 H 656.862 1.83222 0.100924 0
M  V30 6628 H 655.244 3.18567 2.35226 0
M  V30 6629 H 656.418 4.6062 -0.128882 0
M  V30 6630 H 654.733 4.16379 0.0417526 0
M  V30 6631 H 657.33 4.55837 2.79493 0
M  V30 6632 H 657.673 2.86124 3.02388 0
M  V30 6633 H 658.206 3.67164 1.53087 0
M  V30 6634 H 654.945 6.52604 0.615441 0
M  V30 6635 H 654.465 5.62811 2.07375 0
M  V30 6636 H 656.144 6.19046 1.88126 0
M  V30 6637 N 656.276 -0.40816 1.52223 0
M  V30 6638 C 657.501 -1.18127 1.70472 0
M  V30 6639 C 657.926 -1.83491 0.41384 0
M  V30 6640 O 657.284 -1.70047 -0.628778 0
M  V30 6641 C 657.332 -2.21935 2.84213 0
M  V30 6642 O 656.436 -3.28099 2.4985 0
M  V30 6643 H 655.777 -0.344781 0.56747 0
M  V30 6644 H 658.307 -0.478328 1.9893 0
M  V30 6645 H 658.317 -2.66248 3.09153 0
M  V30 6646 H 656.992 -1.73744 3.7787 0
M  V30 6647 H 655.569 -2.89058 2.35584 0
M  V30 6648 N 657.755 -1.42862 -0.66545 0
M  V30 6649 C 658.718 -1.46756 -1.76055 0
M  V30 6650 C 659.718 -0.353866 -1.56858 0
M  V30 6651 O 660.908 -0.615099 -1.62979 0
M  V30 6652 C 658.04 -1.30829 -3.14796 0
M  V30 6653 H 659.233 -2.44271 -1.73987 0
M  V30 6654 H 656.786 -1.29447 -0.875965 0
M  V30 6655 H 657.521 -0.342733 -3.22484 0
M  V30 6656 H 657.306 -2.11551 -3.30134 0
M  V30 6657 H 658.796 -1.36458 -3.94676 0
M  V30 6658 N 659.233 0.902656 -1.29189 0
M  V30 6659 C 660.51 1.63296 -1.07674 0
M  V30 6660 C 660.89 2.07649 0.380137 0
M  V30 6661 O 660.238 1.82997 1.36837 0
M  V30 6662 C 660.448 2.81603 -2.06158 0
M  V30 6663 C 661.796 3.52359 -2.36914 0
M  V30 6664 O 662.82 2.91767 -2.04329 0
M  V30 6665 O 661.679 4.61586 -2.92576 0
M  V30 6666 H 658.773 0.716889 -0.41231 0
M  V30 6667 H 661.319 0.950984 -1.4055 0
M  V30 6668 H 660.091 2.46004 -3.04299 0
M  V30 6669 H 659.714 3.57508 -1.73993 0
M  V30 6670 N 660.711 1.11618 1.11262 0
M  V30 6671 C 661.96 0.860934 1.82403 0
M  V30 6672 C 662.273 -0.615303 1.8567 0
M  V30 6673 O 663.479 -0.986861 2.52929 0
M  V30 6674 C 661.935 1.49048 3.27586 0
M  V30 6675 C 661.543 3.00089 3.32642 0
M  V30 6676 C 663.287 1.31515 4.03614 0
M  V30 6677 C 661.194 3.56019 4.72234 0
M  V30 6678 H 660.124 0.318423 0.683464 0
M  V30 6679 H 662.775 1.34165 1.25188 0
M  V30 6680 H 661.157 0.937434 3.84744 0
M  V30 6681 H 662.331 3.61813 2.85356 0
M  V30 6682 H 660.646 3.16919 2.70096 0
M  V30 6683 H 663.243 1.70732 5.0671 0
M  V30 6684 H 663.586 0.257917 4.155 0
M  V30 6685 H 664.119 1.83694 3.52848 0
M  V30 6686 H 660.858 4.61463 4.65545 0
M  V30 6687 H 660.378 2.99066 5.19923 0
M  V30 6688 H 662.057 3.54568 5.41193 0
M  V30 6689 N 662.189 -1.289 0.906776 0
M  V30 6690 C 663.435 -1.95919 0.546551 0
M  V30 6691 C 663.79 -1.70126 -0.8986 0
M  V30 6692 O 663.083 -1.00775 -1.62957 0
M  V30 6693 C 663.277 -3.48704 0.783617 0
M  V30 6694 C 663.106 -3.8935 2.25026 0
M  V30 6695 C 661.876 -4.13864 2.89905 0
M  V30 6696 C 664.074 -4.00535 3.22608 0
M  V30 6697 N 662.056 -4.41131 4.26939 0
M  V30 6698 C 663.427 -4.31936 4.44783 0
M  V30 6699 C 665.482 -3.83035 3.18102 0
M  V30 6700 C 664.185 -4.47659 5.63022 0
M  V30 6701 C 666.211 -3.99971 4.35634 0
M  V30 6702 C 665.573 -4.31738 5.5658 0
M  V30 6703 H 661.672 -0.74105 0.249737 0
M  V30 6704 H 664.256 -1.55696 1.16906 0
M  V30 6705 H 662.427 -3.87933 0.190437 0
M  V30 6706 H 664.159 -4.02835 0.38812 0
M  V30 6707 H 660.914 -4.07893 2.40666 0
M  V30 6708 H 661.338 -4.5886 4.97771 0
M  V30 6709 H 665.98 -3.57533 2.25677 0
M  V30 6710 H 663.698 -4.71995 6.55932 0
M  V30 6711 H 667.284 -3.87874 4.33641 0
M  V30 6712 H 666.164 -4.44568 6.4601 0
M  V30 6713 N 663.667 -0.670007 -1.42649 0
M  V30 6714 C 664.915 -0.18991 -2.01206 0
M  V30 6715 C 665.236 1.20617 -1.53221 0
M  V30 6716 O 664.506 1.80898 -0.751856 0
M  V30 6717 H 663.086 -0.0672189 -0.743969 0
M  V30 6718 H 665.748 -0.865442 -1.74631 0
M  V30 6719 H 664.844 -0.187481 -3.11536 0
M  V30 6720 N 665.145 1.52092 -0.413018 0
M  V30 6721 C 666.077 2.24819 0.445994 0
M  V30 6722 C 667.09 1.27925 1.00692 0
M  V30 6723 O 668.279 1.53845 0.905204 0
M  V30 6724 C 665.379 2.96951 1.6332 0
M  V30 6725 C 664.552 4.20746 1.19548 0
M  V30 6726 C 663.611 4.75668 2.25003 0
M  V30 6727 O 662.637 5.38148 1.85434 0
M  V30 6728 N 663.839 4.57579 3.57214 0
M  V30 6729 H 666.604 2.99176 -0.177209 0
M  V30 6730 H 664.165 1.60102 -0.240601 0
M  V30 6731 H 666.157 3.30586 2.33441 0
M  V30 6732 H 664.727 2.25756 2.16225 0
M  V30 6733 H 663.947 3.92881 0.32224 0
M  V30 6734 H 665.235 5.01132 0.880033 0
M  V30 6735 H 664.633 4.07758 3.92109 0
M  V30 6736 H 663.19 4.95642 4.23299 0
M  V30 6737 N 666.623 0.143563 1.56945 0
M  V30 6738 C 667.848 -0.518701 2.00809 0
M  V30 6739 C 668.273 -1.5785 1.02298 0
M  V30 6740 O 667.631 -1.813 -0.0017839 0
M  V30 6741 C 667.679 -1.09929 3.43436 0
M  V30 6742 O 666.783 -2.21425 3.47915 0
M  V30 6743 H 666.124 -0.127215 0.6517 0
M  V30 6744 H 668.654 0.239283 2.03196 0
M  V30 6745 H 668.664 -1.4288 3.82164 0
M  V30 6746 H 667.339 -0.323162 4.14643 0
M  V30 6747 H 665.916 -1.89728 3.21026 0
M  V30 6748 N 668.101 -1.57061 -0.130224 0
M  V30 6749 C 669.35 -1.83446 -0.838488 0
M  V30 6750 C 669.663 -0.727468 -1.81569 0
M  V30 6751 O 670.869 -0.877394 -2.56932 0
M  V30 6752 C 669.325 -3.25201 -1.54182 0
M  V30 6753 C 668.933 -4.4388 -0.606178 0
M  V30 6754 C 670.677 -3.60844 -2.23588 0
M  V30 6755 C 668.584 -5.76661 -1.31209 0
M  V30 6756 H 667.514 -0.684185 -0.316871 0
M  V30 6757 H 670.165 -1.83273 -0.0912059 0
M  V30 6758 H 668.547 -3.1981 -2.33533 0
M  V30 6759 H 669.721 -4.60545 0.153308 0
M  V30 6760 H 668.036 -4.16395 -0.0196705 0
M  V30 6761 H 670.633 -4.57313 -2.77072 0
M  V30 6762 H 670.976 -2.87724 -3.00867 0
M  V30 6763 H 671.509 -3.67971 -1.51137 0
M  V30 6764 H 668.248 -6.52922 -0.580823 0
M  V30 6765 H 667.768 -5.63902 -2.04387 0
M  V30 6766 H 669.447 -6.20035 -1.8484 0
M  V30 6767 N 669.579 0.400081 -1.52437 0
M  V30 6768 C 670.527 1.50851 -1.7705 0
M  V30 6769 C 671.521 1.56928 -0.637969 0
M  V30 6770 O 672.727 1.60226 -0.820212 0
M  V30 6771 H 669.102 0.50186 -0.560036 0
M  V30 6772 H 671.073 1.27281 -2.69893 0
M  V30 6773 C 669.822 2.88117 -1.94638 0
M  V30 6774 H 669.145 2.84187 -2.81208 0
M  V30 6775 H 670.585 3.64942 -2.15855 0
M  V30 6776 C 669.044 3.29206 -0.715899 0
M  V30 6777 O 669.574 4.01544 0.111944 0
M  V30 6778 N 667.78 2.85363 -0.549191 0
M  V30 6779 H 667.327 2.26664 -1.22397 0
M  V30 6780 H 667.285 3.13214 0.27278 0
M  V30 6781 N 671.057 1.43213 0.657864 0
M  V30 6782 C 672.306 1.43871 1.41365 0
M  V30 6783 C 672.619 0.064898 1.95492 0
M  V30 6784 O 673.825 -0.0510796 2.71452 0
M  V30 6785 C 672.281 2.53158 2.55811 0
M  V30 6786 C 671.889 3.96624 2.08311 0
M  V30 6787 C 673.633 2.63004 3.3321 0
M  V30 6788 C 671.54 4.97385 3.1994 0
M  V30 6789 H 670.47 0.535174 0.531136 0
M  V30 6790 H 673.121 1.69185 0.710543 0
M  V30 6791 H 671.503 2.21037 3.2857 0
M  V30 6792 H 672.677 4.38182 1.42593 0
M  V30 6793 H 670.992 3.90781 1.43804 0
M  V30 6794 H 673.589 3.3546 4.16378 0
M  V30 6795 H 673.932 1.67918 3.80932 0
M  V30 6796 H 674.465 2.94403 2.67529 0
M  V30 6797 H 671.204 5.94007 2.77192 0
M  V30 6798 H 670.724 4.60444 3.84385 0
M  V30 6799 H 672.403 5.19877 3.85145 0
M  V30 6800 N 672.536 -0.895792 1.29666 0
M  V30 6801 C 673.766 -1.67757 1.20586 0
M  V30 6802 C 674.174 -1.87729 -0.235432 0
M  V30 6803 O 673.517 -1.41706 -1.16898 0
M  V30 6804 C 673.579 -3.08117 1.85215 0
M  V30 6805 C 673.243 -3.1136 3.3452 0
M  V30 6806 C 674.24 -2.91217 4.30684 0
M  V30 6807 C 671.925 -3.33302 3.75786 0
M  V30 6808 C 673.919 -2.92955 5.66089 0
M  V30 6809 C 671.606 -3.3467 5.11311 0
M  V30 6810 C 672.604 -3.14519 6.06273 0
M  V30 6811 O 672.292 -3.15684 7.39323 0
M  V30 6812 H 672.024 -0.530601 0.418854 0
M  V30 6813 H 674.578 -1.12831 1.71634 0
M  V30 6814 H 672.808 -3.64661 1.28683 0
M  V30 6815 H 674.497 -3.68399 1.70403 0
M  V30 6816 H 675.263 -2.74074 4.00136 0
M  V30 6817 H 671.142 -3.48025 3.02324 0
M  V30 6818 H 674.686 -2.77145 6.40185 0
M  V30 6819 H 670.583 -3.51346 5.41504 0
M  V30 6820 H 671.351 -3.31924 7.48177 0
M  V30 6821 N 674.014 -1.12206 -1.10668 0
M  V30 6822 C 675.262 -0.874144 -1.82217 0
M  V30 6823 C 675.583 0.601736 -1.85484 0
M  V30 6824 O 674.853 1.43725 -1.33116 0
M  V30 6825 H 673.433 -0.320404 -0.674797 0
M  V30 6826 H 676.095 -1.41606 -1.33917 0
M  V30 6827 H 675.191 -1.25349 -2.85822 0
M  V30 6828 N 675.492 1.28418 -0.913599 0
M  V30 6829 C 676.769 1.89977 -0.465619 0
M  V30 6830 C 677.149 1.82813 1.05559 0
M  V30 6831 O 676.497 1.26397 1.90358 0
M  V30 6832 C 676.707 3.34492 -0.995813 0
M  V30 6833 C 678.055 4.11468 -1.04782 0
M  V30 6834 O 679.079 3.43451 -0.944445 0
M  V30 6835 O 677.938 5.33046 -1.20518 0
M  V30 6836 H 675.032 0.813734 -0.147532 0
M  V30 6837 H 677.578 1.36786 -1.00437 0
M  V30 6838 H 676.35 3.33929 -2.03978 0
M  V30 6839 H 675.973 3.95181 -0.437878 0
M  V30 6840 N 676.97 0.677563 1.42291 0
M  V30 6841 C 678.198 0.209459 2.05837 0
M  V30 6842 C 678.613 -1.13444 1.50917 0
M  V30 6843 O 677.97 -1.70529 0.65008 0
M  V30 6844 C 678.021 0.138819 3.61233 0
M  V30 6845 O 677.742 1.42962 4.14118 0
M  V30 6846 C 679.243 -0.352449 4.41897 0
M  V30 6847 H 676.463 0.101209 0.663323 0
M  V30 6848 H 679.007 0.925077 1.8238 0
M  V30 6849 H 677.162 -0.527505 3.83792 0
M  V30 6850 H 677.576 1.3048 5.08011 0
M  V30 6851 H 679.05 -0.350778 5.50884 0
M  V30 6852 H 679.527 -1.3882 4.16684 0
M  V30 6853 H 680.133 0.282236 4.24362 0
M  V30 6854 N 678.448 -1.51871 0.421078 0
M  V30 6855 C 679.395 -2.27334 -0.398508 0
M  V30 6856 C 680.365 -1.30241 -1.03085 0
M  V30 6857 O 681.55 -1.59121 -1.05285 0
M  V30 6858 C 678.69 -3.10664 -1.50272 0
M  V30 6859 C 677.803 -4.2273 -0.890122 0
M  V30 6860 C 676.938 -4.93399 -1.96803 0
M  V30 6861 C 675.977 -5.97409 -1.333 0
M  V30 6862 N 675.114 -6.61548 -2.35156 0
M  V30 6863 H 679.954 -2.96938 0.251411 0
M  V30 6864 H 677.491 -1.46472 0.135825 0
M  V30 6865 H 679.449 -3.57292 -2.15403 0
M  V30 6866 H 678.079 -2.43207 -2.1225 0
M  V30 6867 H 677.131 -3.80186 -0.127537 0
M  V30 6868 H 678.443 -4.97302 -0.386349 0
M  V30 6869 H 677.597 -5.43491 -2.69633 0
M  V30 6870 H 676.336 -4.18421 -2.50549 0
M  V30 6871 H 675.341 -5.46624 -0.59008 0
M  V30 6872 H 676.566 -6.74335 -0.803076 0
M  V30 6873 H 674.512 -5.89394 -2.88012 0
M  V30 6874 H 674.429 -7.31832 -1.89624 0
M  V30 6875 H 675.697 -7.16276 -3.0752 0
M  V30 6876 N 679.926 -0.151884 -1.56866 0
M  V30 6877 C 680.856 0.781943 -2.20018 0
M  V30 6878 C 681.837 1.25347 -1.14987 0
M  V30 6879 O 683.022 1.31015 -1.43348 0
M  V30 6880 C 680.152 2.01928 -2.82564 0
M  V30 6881 C 679.106 1.68434 -3.93464 0
M  V30 6882 C 678.432 2.99472 -4.42968 0
M  V30 6883 C 679.732 0.927244 -5.14003 0
M  V30 6884 H 681.426 0.255607 -2.98307 0
M  V30 6885 H 678.972 0.121502 -1.43486 0
M  V30 6886 H 680.925 2.67741 -3.25411 0
M  V30 6887 H 679.649 2.56943 -2.01614 0
M  V30 6888 H 678.308 1.04998 -3.51242 0
M  V30 6889 H 677.956 3.52488 -3.58834 0
M  V30 6890 H 677.656 2.77823 -5.17772 0
M  V30 6891 H 679.18 3.66348 -4.88489 0
M  V30 6892 H 680.594 1.48756 -5.53665 0
M  V30 6893 H 678.991 0.810513 -5.94601 0
M  V30 6894 H 680.061 -0.0801163 -4.84834 0
M  V30 6895 N 681.404 1.57128 0.121893 0
M  V30 6896 C 682.632 1.88883 0.844451 0
M  V30 6897 C 683.047 0.742824 1.73573 0
M  V30 6898 O 682.404 -0.286475 1.80238 0
M  V30 6899 C 682.455 3.20076 1.68029 0
M  V30 6900 O 682.176 4.30264 0.824898 0
M  V30 6901 C 683.677 3.65515 2.50826 0
M  V30 6902 H 680.897 0.62549 0.242907 0
M  V30 6903 H 683.441 2.04219 0.107151 0
M  V30 6904 H 681.596 3.06418 2.37038 0
M  V30 6905 H 682.01 5.05439 1.40113 0
M  V30 6906 H 683.484 4.60081 3.05008 0
M  V30 6907 H 683.961 2.92029 3.28048 0
M  V30 6908 H 684.567 3.81952 1.87064 0
M  V30 6909 N 682.882 -0.391992 1.52647 0
M  V30 6910 C 683.815 -1.50019 1.71958 0
M  V30 6911 C 684.793 -1.5238 0.567365 0
M  V30 6912 O 685.977 -1.70831 0.796806 0
M  V30 6913 C 683.104 -2.88496 1.77447 0
M  V30 6914 C 682.15 -3.03974 2.99169 0
M  V30 6915 S 682.983 -2.75487 4.59203 0
M  V30 6916 C 684.139 -4.16163 4.67503 0
M  V30 6917 H 684.372 -1.33413 2.65685 0
M  V30 6918 H 681.905 -0.584674 1.42902 0
M  V30 6919 H 683.863 -3.68296 1.81296 0
M  V30 6920 H 682.524 -3.02431 0.848188 0
M  V30 6921 H 681.717 -4.05328 2.99542 0
M  V30 6922 H 681.319 -2.32062 2.93297 0
M  V30 6923 H 683.611 -5.10048 4.45934 0
M  V30 6924 H 684.554 -4.20806 5.69498 0
M  V30 6925 H 684.962 -4.01933 3.96371 0
M  V30 6926 N 684.36 -1.4356 -0.65026 0
M  V30 6927 C 685.637 -1.35811 -1.40765 0
M  V30 6928 C 686.017 -0.00736379 -2.11099 0
M  V30 6929 O 685.365 1.00932 -2.05 0
M  V30 6930 C 685.575 -2.54332 -2.3899 0
M  V30 6931 C 686.923 -2.97551 -3.02901 0
M  V30 6932 O 687.947 -2.544 -2.49317 0
M  V30 6933 O 686.806 -3.72311 -4.00059 0
M  V30 6934 H 683.9 -0.536861 -0.629054 0
M  V30 6935 H 686.446 -1.55615 -0.676919 0
M  V30 6936 H 685.218 -3.44274 -1.85986 0
M  V30 6937 H 684.841 -2.36643 -3.19509 0
M  V30 6938 N 685.838 0.888903 -1.30139 0
M  V30 6939 C 687.084 1.6428 -1.18912 0
M  V30 6940 C 687.417 1.92499 0.256477 0
M  V30 6941 O 686.692 1.54312 1.18397 0
M  V30 6942 C 686.975 2.9851 -2.01405 0
M  V30 6943 C 686.828 2.77288 -3.54163 0
M  V30 6944 C 688.147 3.99383 -1.84882 0
M  V30 6945 H 685.266 0.596148 -0.433333 0
M  V30 6946 H 687.908 1.0289 -1.5973 0
M  V30 6947 H 686.058 3.50907 -1.66722 0
M  V30 6948 H 687.73 2.31709 -3.98884 0
M  V30 6949 H 685.973 2.11867 -3.78543 0
M  V30 6950 H 686.644 3.72717 -4.07168 0
M  V30 6951 H 689.12 3.56132 -2.15196 0
M  V30 6952 H 687.996 4.91222 -2.44934 0
M  V30 6953 H 688.257 4.34674 -0.806902 0
M  V30 6954 N 687.317 1.12792 1.10072 0
M  V30 6955 C 688.566 0.880232 1.81479 0
M  V30 6956 C 688.879 -0.595575 1.86312 0
M  V30 6957 O 690.085 -0.959979 2.53962 0
M  V30 6958 C 688.541 1.52514 3.25987 0
M  V30 6959 C 688.149 3.036 3.29441 0
M  V30 6960 C 689.893 1.35788 4.02196 0
M  V30 6961 C 687.8 3.61007 4.68431 0
M  V30 6962 H 686.73 0.325654 0.680048 0
M  V30 6963 H 689.381 1.35485 1.23758 0
M  V30 6964 H 687.763 0.978188 3.83728 0
M  V30 6965 H 688.937 3.64819 2.81502 0
M  V30 6966 H 687.252 3.19765 2.66719 0
M  V30 6967 H 689.849 1.76096 5.0487 0
M  V30 6968 H 690.192 0.301972 4.15203 0
M  V30 6969 H 690.725 1.87426 3.50879 0
M  V30 6970 H 687.464 4.66375 4.60625 0
M  V30 6971 H 686.984 3.04564 5.16721 0
M  V30 6972 H 688.663 3.60289 5.37402 0
M  V30 6973 N 688.795 -1.27931 0.920396 0
M  V30 6974 C 689.758 -2.25345 0.41858 0
M  V30 6975 C 690.758 -1.54116 -0.458798 0
M  V30 6976 O 691.948 -1.72235 -0.260912 0
M  V30 6977 C 689.08 -3.38556 -0.399104 0
M  V30 6978 H 690.273 -2.71251 1.27918 0
M  V30 6979 H 687.826 -1.39728 0.700406 0
M  V30 6980 H 688.561 -2.98021 -1.27882 0
M  V30 6981 H 688.346 -3.91426 0.229863 0
M  V30 6982 H 689.836 -4.10976 -0.740817 0
M  V30 6983 N 690.273 -0.685099 -1.4193 0
M  V30 6984 C 691.684 -0.287699 -1.8447 0
M  V30 6985 C 692.035 1.17215 -1.57338 0
M  V30 6986 O 691.16 1.89856 -1.03845 0
M  V30 6987 C 691.755 -0.515385 -3.34857 0
M  V30 6988 C 690.314 -0.172006 -3.76007 0
M  V30 6989 C 689.461 -0.802808 -2.65425 0
M  V30 6990 H 692.412 -0.88652 -1.3163 0
M  V30 6991 H 692.433 0.229251 -3.79809 0
M  V30 6992 H 691.945 -1.57796 -3.54573 0
M  V30 6993 H 690.046 0.886716 -3.61895 0
M  V30 6994 H 690.159 -0.619717 -4.75075 0
M  V30 6995 H 688.523 -0.233267 -2.5363 0
M  V30 6996 H 689.306 -1.86904 -2.87961 0
M  V30 6997 N 691.751 1.51645 -0.429126 0
M  V30 6998 C 692.979 2.06433 0.138994 0
M  V30 6999 C 693.394 1.29735 1.37165 0
M  V30 7000 O 692.751 0.354638 1.79021 0
M  V30 7001 C 692.802 3.58439 0.469452 0
M  V30 7002 O 692.523 4.32238 -0.714273 0
M  V30 7003 C 694.024 4.29712 1.08914 0
M  V30 7004 H 691.244 0.6709 0.0115608 0
M  V30 7005 H 693.788 1.9532 -0.605843 0
M  V30 7006 H 691.943 3.69494 1.16419 0
M  V30 7007 H 692.357 5.22704 -0.433633 0
M  V30 7008 H 693.831 5.37182 1.27042 0
M  V30 7009 H 694.308 3.87473 2.06788 0
M  V30 7010 H 694.914 4.2308 0.434028 0
M  V30 7011 N 693.229 0.160201 1.56784 0
M  V30 7012 C 694.64 -0.358417 1.83227 0
M  V30 7013 C 694.991 -1.63831 1.07952 0
M  V30 7014 O 694.116 -2.13885 0.328995 0
M  V30 7015 C 694.711 -0.657058 3.32368 0
M  V30 7016 C 693.27 -1.12015 3.59346 0
M  V30 7017 C 692.417 -0.15015 2.76893 0
M  V30 7018 H 695.368 0.384669 1.53967 0
M  V30 7019 H 695.389 -1.51033 3.49241 0
M  V30 7020 H 694.901 0.274647 3.87127 0
M  V30 7021 H 693.002 -2.06734 3.09987 0
M  V30 7022 H 693.115 -1.037 4.67743 0
M  V30 7023 H 691.479 -0.645361 2.46388 0
M  V30 7024 H 692.262 0.775379 3.34429 0
M  V30 7025 N 694.707 -1.5719 -0.113559 0
M  V30 7026 C 695.953 -1.85412 -0.821597 0
M  V30 7027 C 696.286 -0.746722 -1.7927 0
M  V30 7028 O 695.561 0.246971 -1.92926 0
M  V30 7029 C 695.844 -3.24233 -1.56669 0
M  V30 7030 C 695.697 -4.45578 -0.614823 0
M  V30 7031 C 697.016 -3.60697 -2.52161 0
M  V30 7032 H 694.135 -0.674406 -0.29723 0
M  V30 7033 H 696.777 -1.89807 -0.085694 0
M  V30 7034 H 694.927 -3.20617 -2.19401 0
M  V30 7035 H 696.599 -4.613 0.00407137 0
M  V30 7036 H 694.842 -4.33738 0.0732332 0
M  V30 7037 H 695.513 -5.39395 -1.17292 0
M  V30 7038 H 697.989 -3.65139 -1.99532 0
M  V30 7039 H 696.865 -4.58798 -3.01323 0
M  V30 7040 H 697.126 -2.88403 -3.35076 0
M  V30 7041 N 696.185 0.383891 -1.52853 0
M  V30 7042 C 697.133 1.48965 -1.7864 0
M  V30 7043 C 698.127 1.56242 -0.654577 0
M  V30 7044 O 699.333 1.59347 -0.83716 0
M  V30 7045 H 695.708 0.495892 -0.565328 0
M  V30 7046 H 697.679 1.24411 -2.71228 0
M  V30 7047 C 696.428 2.86036 -1.97683 0
M  V30 7048 H 695.751 2.81188 -2.84206 0
M  V30 7049 H 697.191 3.62632 -2.19713 0
M  V30 7050 C 695.65 3.28428 -0.750776 0
M  V30 7051 O 696.18 4.0164 0.0693491 0
M  V30 7052 N 694.386 2.84765 -0.579427 0
M  V30 7053 H 693.933 2.25353 -1.24795 0
M  V30 7054 H 693.891 3.13486 0.239544 0
M  V30 7055 N 697.663 1.43903 0.642637 0
M  V30 7056 C 698.909 1.46296 1.40447 0
M  V30 7057 C 699.242 0.0908361 1.93987 0
M  V30 7058 O 698.517 -0.889884 1.72949 0
M  V30 7059 C 698.8 2.51399 2.57819 0
M  V30 7060 C 698.653 3.97926 2.09702 0
M  V30 7061 C 699.972 2.53125 3.60022 0
M  V30 7062 H 697.091 0.532676 0.509338 0
M  V30 7063 H 699.733 1.75515 0.727635 0
M  V30 7064 H 697.883 2.26614 3.1556 0
M  V30 7065 H 699.555 4.33804 1.5688 0
M  V30 7066 H 697.798 4.10252 1.40982 0
M  V30 7067 H 698.469 4.67096 2.94152 0
M  V30 7068 H 700.945 2.75242 3.12059 0
M  V30 7069 H 699.821 3.28589 4.39682 0
M  V30 7070 H 700.082 1.56895 4.13324 0
M  V30 7071 N 699.141 -0.881989 1.30609 0
M  V30 7072 C 700.366 -1.67236 1.22665 0
M  V30 7073 C 700.791 -1.8696 -0.206777 0
M  V30 7074 O 700.149 -1.4027 -1.14865 0
M  V30 7075 C 700.197 -3.02446 1.96363 0
M  V30 7076 O 699.301 -3.91614 1.29276 0
M  V30 7077 H 698.642 -0.510902 0.424117 0
M  V30 7078 H 701.172 -1.10055 1.72479 0
M  V30 7079 H 701.182 -3.52468 2.055 0
M  V30 7080 H 699.857 -2.8741 3.00613 0
M  V30 7081 H 698.434 -3.50055 1.28514 0
M  V30 7082 N 700.619 -1.13374 -1.09472 0
M  V30 7083 C 701.868 -0.889844 -1.8101 0
M  V30 7084 C 702.181 0.585686 -1.86625 0
M  V30 7085 O 703.387 0.946497 -2.54467 0
M  V30 7086 C 701.843 -1.54241 -3.25174 0
M  V30 7087 C 701.451 -3.05343 -3.27826 0
M  V30 7088 C 703.195 -1.37919 -4.0147 0
M  V30 7089 C 701.102 -3.63486 -4.6651 0
M  V30 7090 H 700.032 -0.329256 -0.678311 0
M  V30 7091 H 702.683 -1.36139 -1.23038 0
M  V30 7092 H 701.065 -0.998525 -3.83204 0
M  V30 7093 H 702.239 -3.66307 -2.79563 0
M  V30 7094 H 700.554 -3.21175 -2.65019 0
M  V30 7095 H 703.151 -1.78771 -5.03929 0
M  V30 7096 H 703.494 -0.323987 -4.15037 0
M  V30 7097 H 704.027 -1.89284 -3.49881 0
M  V30 7098 H 700.766 -4.68811 -4.58145 0
M  V30 7099 H 700.286 -3.073 -5.15099 0
M  V30 7100 H 701.965 -3.63134 -5.35484 0
M  V30 7101 N 702.098 1.27442 -0.927168 0
M  V30 7102 C 703.061 2.2512 -0.430525 0
M  V30 7103 C 704.061 1.54357 0.450619 0
M  V30 7104 O 705.251 1.72371 0.251774 0
M  V30 7105 C 702.383 3.38763 0.381144 0
M  V30 7106 H 703.576 2.70569 -1.29354 0
M  V30 7107 H 701.129 1.39355 -0.707806 0
M  V30 7108 H 701.864 2.98695 1.263 0
M  V30 7109 H 701.649 3.91298 -0.250618 0
M  V30 7110 H 703.139 4.11364 0.719012 0
M  V30 7111 N 703.576 0.692616 1.41565 0
M  V30 7112 C 704.539 0.0344174 2.29174 0
M  V30 7113 C 705.539 -0.710961 1.44229 0
M  V30 7114 O 706.729 -0.546293 1.65412 0
M  V30 7115 C 703.861 -0.961682 3.27054 0
M  V30 7116 H 705.054 0.805755 2.88873 0
M  V30 7117 H 702.607 0.455947 1.49502 0
M  V30 7118 H 703.342 -1.76089 2.72329 0
M  V30 7119 H 703.127 -0.430375 3.89731 0
M  V30 7120 H 704.617 -1.4201 3.92712 0
M  V30 7121 N 705.054 -1.51416 0.437162 0
M  V30 7122 C 706.303 -2.01275 -0.130865 0
M  V30 7123 C 706.616 -1.32593 -1.438 0
M  V30 7124 O 707.822 -1.7342 -2.08897 0
M  V30 7125 C 706.278 -3.5878 -0.283763 0
M  V30 7126 C 705.886 -4.36399 1.01293 0
M  V30 7127 C 707.63 -4.16786 -0.805569 0
M  V30 7128 C 705.537 -5.85608 0.825687 0
M  V30 7129 H 704.467 -0.752157 -0.0526818 0
M  V30 7130 H 707.118 -1.74524 0.566896 0
M  V30 7131 H 705.5 -3.81976 -1.04452 0
M  V30 7132 H 706.674 -4.24948 1.78201 0
M  V30 7133 H 704.989 -3.89843 1.46326 0
M  V30 7134 H 707.586 -5.25972 -0.962146 0
M  V30 7135 H 707.929 -3.75949 -1.78796 0
M  V30 7136 H 708.462 -3.97666 -0.103125 0
M  V30 7137 H 705.201 -6.30857 1.78045 0
M  V30 7138 H 704.721 -5.99723 0.0964029 0
M  V30 7139 H 706.4 -6.45226 0.478815 0
M  V30 7140 N 706.532 -0.168513 -1.56696 0
M  V30 7141 C 707.943 0.348694 -1.83415 0
M  V30 7142 C 708.294 1.63257 -1.0882 0
M  V30 7143 O 707.419 2.13707 -0.340333 0
M  V30 7144 C 708.014 0.639423 -3.32711 0
M  V30 7145 C 706.573 1.10108 -3.59935 0
M  V30 7146 C 705.72 0.135464 -2.76969 0
M  V30 7147 H 708.671 -0.392829 -1.53761 0
M  V30 7148 H 708.692 1.49179 -3.50037 0
M  V30 7149 H 708.204 -0.295173 -3.86976 0
M  V30 7150 H 706.305 2.05088 -3.11079 0
M  V30 7151 H 706.418 1.01218 -4.68286 0
M  V30 7152 H 704.782 0.632286 -2.46727 0
M  V30 7153 H 705.565 -0.793104 -3.34013 0
M  V30 7154 N 708.01 1.57248 0.105221 0
M  V30 7155 C 708.942 1.98008 1.15436 0
M  V30 7156 C 709.955 0.881236 1.36887 0
M  V30 7157 O 711.144 1.15943 1.35718 0
M  V30 7158 C 708.244 2.27509 2.51183 0
M  V30 7159 C 707.417 3.58811 2.50147 0
M  V30 7160 C 706.476 3.76365 3.67745 0
M  V30 7161 O 705.502 4.48329 3.50699 0
M  V30 7162 N 706.704 3.16174 4.86841 0
M  V30 7163 H 709.469 2.88616 0.807519 0
M  V30 7164 H 707.03 1.59202 0.29433 0
M  V30 7165 H 709.022 2.36455 3.28438 0
M  V30 7166 H 707.592 1.42959 2.77995 0
M  V30 7167 H 706.812 3.60927 1.5851 0
M  V30 7168 H 708.1 4.45088 2.46524 0
M  V30 7169 H 707.498 2.57701 5.03594 0
M  V30 7170 H 706.055 3.30621 5.61723 0
M  V30 7171 N 709.488 -0.375779 1.53054 0
M  V30 7172 C 710.713 -1.14484 1.7294 0
M  V30 7173 C 711.138 -1.82572 0.452668 0
M  V30 7174 O 710.496 -1.71343 -0.592567 0
M  V30 7175 C 710.544 -2.15857 2.88857 0
M  V30 7176 O 709.648 -3.22725 2.56753 0
M  V30 7177 H 708.989 -0.332666 0.574656 0
M  V30 7178 H 711.519 -0.436025 1.999 0
M  V30 7179 H 711.529 -2.59631 3.14731 0
M  V30 7180 H 710.204 -1.65689 3.81471 0
M  V30 7181 H 708.781 -2.83996 2.41663 0
M  V30 7182 N 710.966 -1.44241 -0.634997 0
M  V30 7183 C 712.191 -1.50516 -1.42687 0
M  V30 7184 C 712.616 -0.129864 -1.87651 0
M  V30 7185 O 711.974 0.880164 -1.58502 0
M  V30 7186 C 712.022 -2.4714 -2.62591 0
M  V30 7187 O 711.126 -1.97025 -3.62291 0
M  V30 7188 H 710.467 -0.50841 -0.427101 0
M  V30 7189 H 712.997 -1.89337 -0.775408 0
M  V30 7190 H 713.007 -2.65048 -3.10183 0
M  V30 7191 H 711.682 -3.47039 -2.29209 0
M  V30 7192 H 710.259 -1.88866 -3.21534 0
M  V30 7193 N 712.444 0.87505 -1.31075 0
M  V30 7194 C 713.672 1.66058 -1.23419 0
M  V30 7195 C 714.087 1.87723 0.201347 0
M  V30 7196 O 713.444 1.43178 1.13165 0
M  V30 7197 C 713.495 3.03142 -1.96945 0
M  V30 7198 O 713.216 2.82448 -3.34895 0
M  V30 7199 C 714.717 3.97583 -1.96067 0
M  V30 7200 H 711.937 0.517868 -0.426677 0
M  V30 7201 H 714.481 1.09258 -1.72867 0
M  V30 7202 H 712.636 3.56645 -1.51271 0
M  V30 7203 H 713.05 3.69483 -3.72267 0
M  V30 7204 H 714.524 4.91104 -2.52034 0
M  V30 7205 H 715.001 4.2898 -0.941961 0
M  V30 7206 H 715.607 3.50015 -2.41597 0
M  V30 7207 N 713.922 1.13953 1.08869 0
M  V30 7208 C 714.872 0.790812 2.13846 0
M  V30 7209 C 715.856 -0.217819 1.59419 0
M  V30 7210 O 717.048 -0.0208723 1.76988 0
M  V30 7211 C 714.177 0.26479 3.42277 0
M  V30 7212 C 713.263 1.30267 4.03598 0
M  V30 7213 N 713.654 2.50535 4.39393 0
M  V30 7214 C 711.952 1.15178 4.30871 0
M  V30 7215 C 712.653 3.16938 4.87776 0
M  V30 7216 N 711.629 2.44349 4.85587 0
M  V30 7217 H 715.431 1.70577 2.39334 0
M  V30 7218 H 712.945 1.02268 1.26154 0
M  V30 7219 H 714.942 -0.00330398 4.169 0
M  V30 7220 H 713.602 -0.644419 3.18241 0
M  V30 7221 H 714.613 2.87798 4.30572 0
M  V30 7222 H 711.29 0.301204 4.16412 0
M  V30 7223 H 712.68 4.19453 5.2489 0
M  V30 7224 N 715.4 -1.26948 0.933913 0
M  V30 7225 C 716.648 -1.93704 0.576484 0
M  V30 7226 C 716.969 -1.73702 -0.886145 0
M  V30 7227 O 716.239 -1.08838 -1.62884 0
M  V30 7228 H 714.819 -0.716812 0.210214 0
M  V30 7229 H 717.481 -1.54534 1.18766 0
M  V30 7230 H 716.577 -3.01987 0.788055 0
M  V30 7231 N 716.879 -0.700114 -1.41195 0
M  V30 7232 C 718.125 -0.242122 -2.01954 0
M  V30 7233 C 718.48 1.14697 -1.54475 0
M  V30 7234 O 717.773 1.76392 -0.748095 0
M  V30 7235 C 717.967 -0.243986 -3.56566 0
M  V30 7236 C 717.796 -1.63172 -4.19053 0
M  V30 7237 C 716.566 -2.23566 -4.53152 0
M  V30 7238 C 718.764 -2.57916 -4.44954 0
M  V30 7239 N 716.746 -3.54856 -5.00949 0
M  V30 7240 C 718.117 -3.73892 -4.94576 0
M  V30 7241 C 720.172 -2.56125 -4.26971 0
M  V30 7242 C 718.875 -4.88363 -5.28104 0
M  V30 7243 C 720.901 -3.69712 -4.61592 0
M  V30 7244 C 720.263 -4.84418 -5.11389 0
M  V30 7245 H 716.362 -0.134088 -0.770418 0
M  V30 7246 H 718.946 -0.918576 -1.71669 0
M  V30 7247 H 717.117 0.401971 -3.86314 0
M  V30 7248 H 718.849 0.229261 -4.0405 0
M  V30 7249 H 715.604 -1.75809 -4.39759 0
M  V30 7250 H 716.028 -4.22167 -5.29249 0
M  V30 7251 H 720.67 -1.68656 -3.87705 0
M  V30 7252 H 718.388 -5.76488 -5.66292 0
M  V30 7253 H 721.974 -3.69583 -4.49332 0
M  V30 7254 H 720.854 -5.70855 -5.37675 0
M  V30 7255 N 718.357 1.51182 -0.445186 0
M  V30 7256 C 719.605 2.01753 0.11841 0
M  V30 7257 C 719.926 1.33087 1.42523 0
M  V30 7258 O 719.196 0.467891 1.9023 0
M  V30 7259 H 717.776 0.745536 0.0467492 0
M  V30 7260 H 720.438 1.85765 -0.589688 0
M  V30 7261 H 719.534 3.10762 0.288665 0
M  V30 7262 N 719.835 0.176821 1.56605 0
M  V30 7263 C 720.783 -0.768159 2.1955 0
M  V30 7264 C 721.777 -1.23343 1.16116 0
M  V30 7265 O 722.983 -1.19844 1.34303 0
M  V30 7266 H 719.358 -0.266013 0.703378 0
M  V30 7267 H 721.329 -0.213374 2.97636 0
M  V30 7268 C 720.078 -1.98492 2.85475 0
M  V30 7269 H 719.401 -1.63595 3.64797 0
M  V30 7270 H 720.841 -2.62489 3.3298 0
M  V30 7271 C 719.3 -2.81207 1.85538 0
M  V30 7272 O 719.83 -3.7854 1.34427 0
M  V30 7273 N 718.036 -2.46331 1.54173 0
M  V30 7274 H 717.583 -1.67241 1.95929 0
M  V30 7275 H 717.541 -3.01961 0.875595 0
M  V30 7276 N 721.313 -1.57302 -0.09688 0
M  V30 7277 C 722.724 -1.7496 -0.651595 0
M  V30 7278 C 723.075 -0.798746 -1.79205 0
M  V30 7279 O 722.2 0.0231858 -2.16388 0
M  V30 7280 C 722.795 -3.17259 -1.18878 0
M  V30 7281 C 721.354 -3.36348 -1.68958 0
M  V30 7282 C 720.501 -2.70766 -0.598413 0
M  V30 7283 H 723.452 -1.58173 0.12918 0
M  V30 7284 H 723.473 -3.20033 -2.05814 0
M  V30 7285 H 722.985 -3.8644 -0.358523 0
M  V30 7286 H 721.086 -2.72243 -2.5439 0
M  V30 7287 H 721.199 -4.44654 -1.7838 0
M  V30 7288 H 719.563 -2.32615 -1.03743 0
M  V30 7289 H 720.346 -3.42586 0.221238 0
M  V30 7290 N 722.791 0.367657 -1.53252 0
M  V30 7291 C 724.019 1.13119 -1.73239 0
M  V30 7292 C 724.434 1.831 -0.460404 0
M  V30 7293 O 723.791 1.73483 0.566557 0
M  V30 7294 C 723.842 2.16308 -2.89643 0
M  V30 7295 O 723.563 1.49175 -4.1192 0
M  V30 7296 C 725.064 3.05224 -3.21486 0
M  V30 7297 H 722.284 0.338318 -0.579467 0
M  V30 7298 H 724.828 0.42721 -1.99988 0
M  V30 7299 H 722.983 2.82307 -2.65295 0
M  V30 7300 H 723.397 2.17912 -4.7709 0
M  V30 7301 H 724.871 3.73613 -4.06346 0
M  V30 7302 H 725.348 3.69919 -2.36763 0
M  V30 7303 H 725.954 2.44843 -3.47753 0
M  V30 7304 N 724.269 1.44576 0.627338 0
M  V30 7305 C 725.685 1.28546 0.945938 0
M  V30 7306 C 725.885 0.224003 2.00251 0
M  V30 7307 O 724.941 -0.388817 2.49488 0
M  V30 7308 C 726.254 2.65825 1.40561 0
M  V30 7309 C 727.802 2.73566 1.52088 0
M  V30 7310 C 728.277 4.11323 2.01438 0
M  V30 7311 N 729.768 4.13519 2.08702 0
M  V30 7312 C 730.503 5.16964 2.48065 0
M  V30 7313 N 729.999 6.30768 2.86538 0
M  V30 7314 N 731.792 5.04319 2.48232 0
M  V30 7315 H 723.943 2.1228 -0.0713567 0
M  V30 7316 H 726.206 0.947503 0.0307081 0
M  V30 7317 H 725.912 3.44591 0.703539 0
M  V30 7318 H 725.786 2.92969 2.37591 0
M  V30 7319 H 728.173 1.95116 2.21391 0
M  V30 7320 H 728.254 2.50159 0.534237 0
M  V30 7321 H 727.898 4.9025 1.32729 0
M  V30 7322 H 727.828 4.32109 3.0098 0
M  V30 7323 H 730.319 3.31385 1.81638 0
M  V30 7324 H 730.632 7.0551 3.15398 0
M  V30 7325 H 728.977 6.342 2.84281 0
M  V30 7326 H 732.168 4.14465 2.17569 0
M  V30 7327 H 732.341 5.85059 2.78585 0
M  V30 7328 N 725.747 -0.868086 1.31537 0
M  V30 7329 C 726.71 -1.95703 1.19302 0
M  V30 7330 C 727.71 -1.60355 0.119612 0
M  V30 7331 O 728.9 -1.70247 0.36902 0
M  V30 7332 C 726.032 -3.30599 0.831684 0
M  V30 7333 H 727.225 -2.07982 2.16064 0
M  V30 7334 H 724.778 -1.05661 1.15176 0
M  V30 7335 H 725.513 -3.2402 -0.134694 0
M  V30 7336 H 725.298 -3.57629 1.60761 0
M  V30 7337 H 726.788 -4.10439 0.770026 0
M  V30 7338 N 727.225 -1.14528 -1.08264 0
M  V30 7339 C 728.474 -0.908992 -1.80056 0
M  V30 7340 C 728.787 0.565859 -1.87236 0
M  V30 7341 O 729.993 0.919454 -2.55457 0
M  V30 7342 C 728.449 -1.57681 -3.23519 0
M  V30 7343 C 728.057 -3.08803 -3.24569 0
M  V30 7344 C 729.801 -1.4217 -3.99985 0
M  V30 7345 C 727.708 -3.68414 -4.62629 0
M  V30 7346 H 726.638 -0.336432 -0.674781 0
M  V30 7347 H 729.289 -1.37437 -1.21587 0
M  V30 7348 H 727.671 -1.03911 -3.82124 0
M  V30 7349 H 728.845 -3.69252 -2.75663 0
M  V30 7350 H 727.16 -3.23968 -2.61598 0
M  V30 7351 H 729.757 -1.84106 -5.02005 0
M  V30 7352 H 730.1 -0.367989 -4.1467 0
M  V30 7353 H 730.633 -1.92984 -3.47853 0
M  V30 7354 H 727.372 -4.73644 -4.53147 0
M  V30 7355 H 726.892 -3.12746 -5.11811 0
M  V30 7356 H 728.571 -3.68793 -5.31602 0
M  V30 7357 N 728.703 1.26451 -0.940633 0
M  V30 7358 C 730.119 1.4608 -0.642859 0
M  V30 7359 C 730.319 1.84765 0.803998 0
M  V30 7360 O 729.375 1.96902 1.58069 0
M  V30 7361 C 730.688 2.54359 -1.60381 0
M  V30 7362 C 732.236 2.6821 -1.61345 0
M  V30 7363 C 732.711 3.79659 -2.56169 0
M  V30 7364 N 734.202 3.87051 -2.54452 0
M  V30 7365 C 734.937 4.72739 -3.24507 0
M  V30 7366 N 734.433 5.6282 -4.03987 0
M  V30 7367 N 736.226 4.66581 -3.13462 0
M  V30 7368 H 728.377 0.996289 -1.87584 0
M  V30 7369 H 730.64 0.498921 -0.80609 0
M  V30 7370 H 730.346 2.32758 -2.6366 0
M  V30 7371 H 730.22 3.52005 -1.35545 0
M  V30 7372 H 732.607 2.89184 -0.587913 0
M  V30 7373 H 732.688 1.7101 -1.90235 0
M  V30 7374 H 732.332 3.59438 -3.58841 0
M  V30 7375 H 732.262 4.76315 -2.2457 0
M  V30 7376 H 734.753 3.22649 -1.96739 0
M  V30 7377 H 735.066 6.25095 -4.54396 0
M  V30 7378 H 733.411 5.62574 -4.08088 0
M  V30 7379 H 736.602 3.9521 -2.50852 0
M  V30 7380 H 736.775 5.33141 -3.68327 0
M  V30 7381 N 730.181 0.707592 1.40822 0
M  V30 7382 C 731.427 0.244031 2.01326 0
M  V30 7383 C 731.76 -1.15722 1.55955 0
M  V30 7384 O 731.035 -1.78347 0.776044 0
M  V30 7385 C 731.318 0.315128 3.58718 0
M  V30 7386 C 731.171 1.75419 4.14184 0
M  V30 7387 C 732.49 -0.318251 4.38948 0
M  V30 7388 H 729.609 0.0901471 0.731466 0
M  V30 7389 H 732.251 0.898584 1.67408 0
M  V30 7390 H 730.401 -0.242176 3.87744 0
M  V30 7391 H 732.073 2.36626 3.95987 0
M  V30 7392 H 730.316 2.28449 3.68773 0
M  V30 7393 H 730.987 1.75538 5.23345 0
M  V30 7394 H 733.463 0.156514 4.15806 0
M  V30 7395 H 732.339 -0.238019 5.48384 0
M  V30 7396 H 732.6 -1.40067 4.19325 0
M  V30 7397 N 731.66 -1.50943 0.453197 0
M  V30 7398 C 732.906 -2.03153 -0.100277 0
M  V30 7399 C 733.261 -1.33032 -1.38997 0
M  V30 7400 O 732.554 -0.441423 -1.86446 0
M  V30 7401 C 732.748 -3.55603 -0.357944 0
M  V30 7402 C 732.577 -4.40495 0.905223 0
M  V30 7403 C 731.347 -4.84247 1.44337 0
M  V30 7404 C 733.545 -4.81931 1.79575 0
M  V30 7405 N 731.527 -5.53403 2.65742 0
M  V30 7406 C 732.898 -5.50314 2.85577 0
M  V30 7407 C 734.953 -4.63903 1.80828 0
M  V30 7408 C 733.656 -6.02581 3.92797 0
M  V30 7409 C 735.682 -5.17097 2.86993 0
M  V30 7410 C 735.044 -5.8544 3.91713 0
M  V30 7411 H 731.143 -0.781995 0.00287755 0
M  V30 7412 H 733.727 -1.84651 0.617411 0
M  V30 7413 H 731.898 -3.74087 -1.04467 0
M  V30 7414 H 733.63 -3.9447 -0.904175 0
M  V30 7415 H 730.385 -4.63029 0.995045 0
M  V30 7416 H 730.809 -5.92598 3.27348 0
M  V30 7417 H 735.451 -4.10512 1.0119 0
M  V30 7418 H 733.169 -6.55018 4.73262 0
M  V30 7419 H 736.755 -5.0499 2.88923 0
M  V30 7420 H 735.635 -6.25861 4.72512 0
M  V30 7421 N 733.138 -0.185124 -1.56509 0
M  V30 7422 C 734.366 0.462139 -2.01673 0
M  V30 7423 C 734.781 1.55873 -1.06532 0
M  V30 7424 O 734.138 1.82371 -0.0684805 0
M  V30 7425 C 734.189 1.0277 -3.46584 0
M  V30 7426 O 733.91 -0.0251296 -4.38093 0
M  V30 7427 C 735.411 1.75183 -4.07217 0
M  V30 7428 H 732.631 0.117001 -0.660721 0
M  V30 7429 H 735.175 -0.290905 -2.0242 0
M  V30 7430 H 733.33 1.73118 -3.46568 0
M  V30 7431 H 733.744 0.394387 -5.23015 0
M  V30 7432 H 735.218 2.09999 -5.10494 0
M  V30 7433 H 735.695 2.6519 -3.50101 0
M  V30 7434 H 736.301 1.09445 -4.10977 0
M  V30 7435 N 734.616 1.57351 0.0885366 0
M  V30 7436 C 735.564 2.03542 1.12576 0
M  V30 7437 C 736.558 0.937668 1.41082 0
M  V30 7438 O 737.764 1.12283 1.40686 0
M  V30 7439 H 734.139 0.648752 0.380296 0
M  V30 7440 H 736.11 2.89833 0.709906 0
M  V30 7441 C 734.859 2.4811 2.43591 0
M  V30 7442 H 734.182 3.32164 2.22502 0
M  V30 7443 H 735.622 2.842 3.14653 0
M  V30 7444 C 734.081 1.35708 3.08359 0
M  V30 7445 O 734.611 0.689852 3.95732 0
M  V30 7446 N 732.817 1.10641 2.68713 0
M  V30 7447 H 732.364 1.6508 1.97753 0
M  V30 7448 H 732.322 0.356355 3.12374 0
M  V30 7449 N 736.094 -0.359525 1.53444 0
M  V30 7450 C 737.042 -1.46104 1.80987 0
M  V30 7451 C 738.036 -1.55181 0.679351 0
M  V30 7452 O 739.242 -1.57995 0.862405 0
M  V30 7453 H 735.617 -0.486835 0.573145 0
M  V30 7454 H 737.588 -1.2008 2.73173 0
M  V30 7455 C 736.337 -2.82855 2.02208 0
M  V30 7456 H 735.66 -2.76631 2.88644 0
M  V30 7457 H 737.1 -3.59091 2.25455 0
M  V30 7458 C 735.559 -3.27192 0.802931 0
M  V30 7459 O 736.089 -4.017 -0.00544286 0
M  V30 7460 N 734.295 -2.83807 0.624657 0
M  V30 7461 H 733.842 -2.23339 1.28364 0
M  V30 7462 H 733.8 -3.13828 -0.189641 0
M  V30 7463 N 737.572 -1.44907 -0.619662 0
M  V30 7464 C 738.819 -1.48292 -1.37898 0
M  V30 7465 C 739.147 -0.119933 -1.9413 0
M  V30 7466 O 738.402 0.879834 -1.74807 0
M  V30 7467 C 738.701 -2.50002 -2.55409 0
M  V30 7468 C 738.367 -3.95031 -2.17397 0
M  V30 7469 C 737.029 -4.34524 -2.06743 0
M  V30 7470 C 739.381 -4.86287 -1.87548 0
M  V30 7471 C 736.709 -5.63183 -1.64445 0
M  V30 7472 C 739.061 -6.15346 -1.4674 0
M  V30 7473 C 737.725 -6.53781 -1.34636 0
M  V30 7474 H 736.995 -0.542638 -0.504603 0
M  V30 7475 H 739.642 -1.78186 -0.701581 0
M  V30 7476 H 737.947 -2.13634 -3.28433 0
M  V30 7477 H 739.644 -2.49864 -3.13639 0
M  V30 7478 H 736.234 -3.63793 -2.26611 0
M  V30 7479 H 740.418 -4.56522 -1.94682 0
M  V30 7480 H 735.674 -5.91769 -1.53687 0
M  V30 7481 H 739.848 -6.85508 -1.22685 0
M  V30 7482 H 737.475 -7.53375 -1.01634 0
M  V30 7483 N 739.05 0.861098 -1.31996 0
M  V30 7484 C 740.296 1.61721 -1.22369 0
M  V30 7485 C 740.629 1.93 0.215587 0
M  V30 7486 O 739.904 1.56789 1.15098 0
M  V30 7487 C 740.187 2.9417 -2.07691 0
M  V30 7488 C 740.04 2.69714 -3.59965 0
M  V30 7489 C 741.359 3.95372 -1.93312 0
M  V30 7490 H 738.478 0.586822 -0.44588 0
M  V30 7491 H 741.12 0.994788 -1.61876 0
M  V30 7492 H 739.27 3.47292 -1.74128 0
M  V30 7493 H 740.942 2.23196 -4.03709 0
M  V30 7494 H 739.185 2.03789 -3.82952 0
M  V30 7495 H 739.856 3.63996 -4.14983 0
M  V30 7496 H 742.332 3.51487 -2.22701 0
M  V30 7497 H 741.208 4.85916 -2.55298 0
M  V30 7498 H 741.469 4.32865 -0.898922 0
M  V30 7499 N 740.528 1.15101 1.07655 0
M  V30 7500 C 741.491 0.847625 2.12951 0
M  V30 7501 C 742.491 -0.151227 1.60087 0
M  V30 7502 O 743.681 0.0780399 1.74025 0
M  V30 7503 C 740.813 0.265 3.39868 0
M  V30 7504 H 742.006 1.7809 2.41296 0
M  V30 7505 H 739.559 0.958072 1.23494 0
M  V30 7506 H 740.294 -0.676625 3.17163 0
M  V30 7507 H 740.079 0.984554 3.79538 0
M  V30 7508 H 741.569 0.0702121 4.17541 0
M  V30 7509 N 742.006 -1.2595 0.947325 0
M  V30 7510 C 742.938 -2.25336 0.41906 0
M  V30 7511 C 743.951 -1.56135 -0.461051 0
M  V30 7512 O 745.14 -1.76438 -0.270505 0
M  V30 7513 C 742.24 -3.36334 -0.416233 0
M  V30 7514 C 741.413 -4.35088 0.449162 0
M  V30 7515 C 740.472 -5.25185 -0.326716 0
M  V30 7516 O 739.498 -5.68548 0.272374 0
M  V30 7517 N 740.7 -5.57388 -1.6217 0
M  V30 7518 H 743.465 -2.71298 1.27348 0
M  V30 7519 H 741.026 -1.39781 0.81688 0
M  V30 7520 H 743.018 -3.93564 -0.942826 0
M  V30 7521 H 741.588 -2.89819 -1.17148 0
M  V30 7522 H 740.808 -3.76841 1.15692 0
M  V30 7523 H 742.096 -4.98056 1.04008 0
M  V30 7524 H 741.494 -5.2405 -2.13046 0
M  V30 7525 H 740.051 -6.17234 -2.0944 0
M  V30 7526 N 743.484 -0.715051 -1.40445 0
M  V30 7527 C 744.712 -0.263959 -2.05209 0
M  V30 7528 C 745.127 1.09403 -1.53871 0
M  V30 7529 O 744.484 1.68746 -0.695064 0
M  V30 7530 C 744.535 -0.234545 -3.60738 0
M  V30 7531 O 744.256 -1.53891 -4.10182 0
M  V30 7532 C 745.757 0.235164 -4.42676 0
M  V30 7533 H 742.977 -0.11876 -0.660407 0
M  V30 7534 H 745.521 -0.973107 -1.79864 0
M  V30 7535 H 743.676 0.425563 -3.85055 0
M  V30 7536 H 744.09 -1.43903 -5.04373 0
M  V30 7537 H 745.564 0.204598 -5.51621 0
M  V30 7538 H 746.041 1.27724 -4.20218 0
M  V30 7539 H 746.647 -0.394649 -4.23465 0
M  V30 7540 N 744.962 1.50701 -0.461195 0
M  V30 7541 C 746.239 1.94958 0.158296 0
M  V30 7542 C 746.619 1.40111 1.57899 0
M  V30 7543 O 745.967 0.597976 2.20537 0
M  V30 7544 C 746.177 3.48821 0.11172 0
M  V30 7545 C 747.525 4.23499 0.30552 0
M  V30 7546 O 748.549 3.557 0.188758 0
M  V30 7547 O 747.408 5.43823 0.540244 0
M  V30 7548 H 744.502 0.818674 0.117054 0
M  V30 7549 H 747.048 1.61508 -0.520888 0
M  V30 7550 H 745.82 3.81263 -0.880577 0
M  V30 7551 H 745.443 3.88781 0.832791 0
M  V30 7552 N 746.441 0.193421 1.56409 0
M  V30 7553 C 747.689 -0.444908 1.97142 0
M  V30 7554 C 748.01 -1.62268 1.08139 0
M  V30 7555 O 747.28 -1.95307 0.152326 0
M  V30 7556 H 745.86 -0.16736 0.728011 0
M  V30 7557 H 748.522 0.279763 1.92882 0
M  V30 7558 H 747.618 -0.790159 3.01932 0
M  V30 7559 N 747.919 -1.57396 -0.0801906 0
M  V30 7560 C 749.147 -1.91055 -0.794075 0
M  V30 7561 C 749.562 -0.788583 -1.71542 0
M  V30 7562 O 748.919 0.238587 -1.80934 0
M  V30 7563 C 748.97 -3.24418 -1.59484 0
M  V30 7564 O 748.691 -4.323 -0.710532 0
M  V30 7565 C 750.192 -3.72037 -2.41046 0
M  V30 7566 H 747.412 -0.63171 -0.226238 0
M  V30 7567 H 749.956 -2.04431 -0.0529685 0
M  V30 7568 H 748.111 -3.12595 -2.2883 0
M  V30 7569 H 748.525 -5.08976 -1.26663 0
M  V30 7570 H 749.999 -4.68006 -2.92702 0
M  V30 7571 H 750.476 -3.00624 -3.2019 0
M  V30 7572 H 751.082 -3.86777 -1.76871 0
M  V30 7573 N 749.397 0.351382 -1.53633 0
M  V30 7574 C 750.627 1.11113 -1.74176 0
M  V30 7575 C 751.035 1.83084 -0.477154 0
M  V30 7576 O 750.378 1.74941 0.560483 0
M  V30 7577 C 750.44 2.17521 -2.86225 0
M  V30 7578 C 750.104 1.65193 -4.26099 0
M  V30 7579 C 751.101 1.10842 -5.07947 0
M  V30 7580 C 748.786 1.70277 -4.72558 0
M  V30 7581 C 750.78 0.622689 -6.34351 0
M  V30 7582 C 748.467 1.21316 -5.98937 0
M  V30 7583 C 749.465 0.674033 -6.79666 0
M  V30 7584 O 749.153 0.191696 -8.03671 0
M  V30 7585 H 748.885 0.33756 -0.585687 0
M  V30 7586 H 751.439 0.411786 -2.0123 0
M  V30 7587 H 749.669 2.90991 -2.54678 0
M  V30 7588 H 751.358 2.78999 -2.94812 0
M  V30 7589 H 752.124 1.06243 -4.7322 0
M  V30 7590 H 748.003 2.11181 -4.09785 0
M  V30 7591 H 751.547 0.201216 -6.9731 0
M  V30 7592 H 747.444 1.25613 -6.3316 0
M  V30 7593 H 748.212 0.309712 -8.17914 0
M  V30 7594 N 750.875 1.45233 0.611969 0
M  V30 7595 C 751.822 1.5357 1.72293 0
M  V30 7596 C 752.792 0.381912 1.6165 0
M  V30 7597 O 753.977 0.594765 1.81293 0
M  V30 7598 C 751.117 1.50419 3.10593 0
M  V30 7599 C 750.23 2.76316 3.32074 0
M  V30 7600 C 749.365 2.64866 4.60456 0
M  V30 7601 C 748.404 3.85838 4.7518 0
M  V30 7602 N 747.541 3.72949 5.94856 0
M  V30 7603 H 752.381 2.4848 1.64504 0
M  V30 7604 H 749.918 1.23302 0.802191 0
M  V30 7605 H 751.876 1.4658 3.90602 0
M  V30 7606 H 750.506 0.590621 3.17351 0
M  V30 7607 H 749.558 2.90261 2.45872 0
M  V30 7608 H 750.87 3.66055 3.38829 0
M  V30 7609 H 750.024 2.58969 5.48653 0
M  V30 7610 H 748.763 1.72719 4.56092 0
M  V30 7611 H 747.768 3.92099 3.85407 0
M  V30 7612 H 748.993 4.79045 4.81344 0
M  V30 7613 H 746.939 2.83567 5.91545 0
M  V30 7614 H 746.856 4.56319 6.02751 0
M  V30 7615 H 748.124 3.70976 6.85563 0
M  V30 7616 N 752.353 -0.854086 1.3245 0
M  V30 7617 C 753.316 -1.94427 1.21371 0
M  V30 7618 C 754.316 -1.60219 0.136613 0
M  V30 7619 O 755.506 -1.69846 0.387057 0
M  V30 7620 C 752.638 -3.29698 0.866701 0
M  V30 7621 H 753.831 -2.05679 2.18257 0
M  V30 7622 H 751.384 -1.04434 1.1629 0
M  V30 7623 H 752.119 -3.24145 -0.100319 0
M  V30 7624 H 751.904 -3.55903 1.64545 0
M  V30 7625 H 753.394 -4.09599 0.813515 0
M  V30 7626 N 753.831 -1.1567 -1.07043 0
M  V30 7627 C 755.059 -0.957471 -1.83412 0
M  V30 7628 C 755.474 0.494271 -1.82215 0
M  V30 7629 O 754.831 1.34288 -1.23584 0
M  V30 7630 C 754.882 -1.46784 -3.30359 0
M  V30 7631 O 754.603 -2.86271 -3.31633 0
M  V30 7632 C 756.104 -1.31054 -4.23485 0
M  V30 7633 H 753.324 -0.33986 -0.578564 0
M  V30 7634 H 755.868 -1.53518 -1.35102 0
M  V30 7635 H 754.023 -0.932586 -3.76007 0
M  V30 7636 H 754.437 -3.0948 -4.23465 0
M  V30 7637 H 755.911 -1.71605 -5.24648 0
M  V30 7638 H 756.388 -0.255107 -4.38458 0
M  V30 7639 H 756.994 -1.83503 -3.83676 0
M  V30 7640 N 755.309 1.25446 -0.953992 0
M  V30 7641 C 756.239 2.28264 -0.491717 0
M  V30 7642 C 757.22 1.63717 0.461617 0
M  V30 7643 O 758.405 1.90821 0.36071 0
M  V30 7644 C 755.535 3.46525 0.231915 0
M  V30 7645 C 754.489 4.23247 -0.636098 0
M  V30 7646 C 753.815 5.34254 0.218238 0
M  V30 7647 C 755.115 4.85971 -1.91389 0
M  V30 7648 H 756.809 2.67183 -1.35106 0
M  V30 7649 H 754.355 1.2844 -0.651095 0
M  V30 7650 H 756.308 4.17576 0.566439 0
M  V30 7651 H 755.032 3.06594 1.12551 0
M  V30 7652 H 753.691 3.53978 -0.953696 0
M  V30 7653 H 753.339 4.90564 1.11156 0
M  V30 7654 H 753.039 5.86501 -0.359232 0
M  V30 7655 H 754.563 6.08138 0.547743 0
M  V30 7656 H 755.977 5.49168 -1.64581 0
M  V30 7657 H 754.374 5.48391 -2.43696 0
M  V30 7658 H 755.444 4.08192 -2.61738 0
M  V30 7659 N 756.787 0.722489 1.40064 0
M  V30 7660 C 758.015 0.274838 2.05066 0
M  V30 7661 C 758.43 -1.08586 1.54449 0
M  V30 7662 O 757.787 -1.68375 0.704003 0
M  V30 7663 C 757.838 0.253673 3.60609 0
M  V30 7664 O 757.559 1.56064 4.0936 0
M  V30 7665 C 759.06 -0.211684 4.42794 0
M  V30 7666 H 756.28 0.12226 0.659768 0
M  V30 7667 H 758.824 0.982632 1.79345 0
M  V30 7668 H 756.979 -0.405137 3.85276 0
M  V30 7669 H 757.393 1.46576 5.03603 0
M  V30 7670 H 758.867 -0.175341 5.51721 0
M  V30 7671 H 759.344 -1.25493 4.2089 0
M  V30 7672 H 759.95 0.4171 4.2325 0
M  V30 7673 N 758.265 -1.50454 0.469181 0
M  V30 7674 C 759.514 -2.01507 -0.0881425 0
M  V30 7675 C 759.827 -1.35613 -1.40956 0
M  V30 7676 O 761.033 -1.77812 -2.05171 0
M  V30 7677 C 759.489 -3.59301 -0.207596 0
M  V30 7678 C 759.097 -4.34152 1.10527 0
M  V30 7679 C 760.841 -4.18401 -0.716981 0
M  V30 7680 C 758.748 -5.83725 0.949717 0
M  V30 7681 H 757.678 -0.753106 -0.0367156 0
M  V30 7682 H 760.329 -1.73282 0.603788 0
M  V30 7683 H 758.711 -3.84106 -0.963265 0
M  V30 7684 H 759.885 -4.21073 1.87175 0
M  V30 7685 H 758.2 -3.86652 1.54562 0
M  V30 7686 H 760.797 -5.27895 -0.850363 0
M  V30 7687 H 761.14 -3.79657 -1.70782 0
M  V30 7688 H 761.673 -3.97796 -0.0187511 0
M  V30 7689 H 758.412 -6.26938 1.91387 0
M  V30 7690 H 757.932 -5.99383 0.223591 0
M  V30 7691 H 759.611 -6.44065 0.61557 0
M  V30 7692 N 759.743 -0.201713 -1.56304 0
M  V30 7693 C 760.968 0.443815 -2.02596 0
M  V30 7694 C 761.393 1.53945 -1.08086 0
M  V30 7695 O 760.751 1.81182 -0.0655056 0
M  V30 7696 C 760.799 0.971066 -3.47279 0
M  V30 7697 O 759.903 2.0836 -3.55893 0
M  V30 7698 H 759.244 0.10294 -0.655972 0
M  V30 7699 H 761.774 -0.314533 -2.02168 0
M  V30 7700 H 761.784 1.28598 -3.87204 0
M  V30 7701 H 760.459 0.169048 -4.15556 0
M  V30 7702 H 759.036 1.77683 -3.27846 0
M  V30 7703 N 761.222 1.57436 0.0718424 0
M  V30 7704 C 762.45 1.91474 0.783932 0
M  V30 7705 C 762.865 0.797669 1.71122 0
M  V30 7706 O 762.222 -0.228989 1.81058 0
M  V30 7707 C 762.273 3.25259 1.57761 0
M  V30 7708 O 761.994 4.3267 0.687596 0
M  V30 7709 C 763.495 3.7331 2.3907 0
M  V30 7710 H 760.715 0.632901 0.222885 0
M  V30 7711 H 763.259 2.04457 0.0421262 0
M  V30 7712 H 761.414 3.13804 2.27169 0
M  V30 7713 H 761.828 5.09641 1.23962 0
M  V30 7714 H 763.302 4.69551 2.90216 0
M  V30 7715 H 763.779 3.02318 3.18591 0
M  V30 7716 H 764.385 3.8771 1.74818 0
M  V30 7717 N 762.7 -0.34323 1.53817 0
M  V30 7718 C 763.648 -1.44176 1.82527 0
M  V30 7719 C 764.642 -1.54452 0.695772 0
M  V30 7720 O 765.848 -1.57072 0.879114 0
M  V30 7721 H 762.223 -0.480729 0.578277 0
M  V30 7722 H 764.194 -1.17176 2.74431 0
M  V30 7723 C 762.943 -2.80695 2.05197 0
M  V30 7724 H 762.266 -2.73554 2.91561 0
M  V30 7725 H 763.706 -3.56679 2.29251 0
M  V30 7726 C 762.165 -3.26322 0.837589 0
M  V30 7727 O 762.695 -4.01683 0.0371631 0
M  V30 7728 N 760.901 -2.83128 0.654724 0
M  V30 7729 H 760.448 -2.21965 1.30725 0
M  V30 7730 H 760.406 -3.14011 -0.156345 0
M  V30 7731 N 764.178 -1.45556 -0.604258 0
M  V30 7732 C 765.455 -1.40221 -1.36373 0
M  V30 7733 C 765.835 -0.0745195 -2.10968 0
M  V30 7734 O 765.183 0.943594 -2.08107 0
M  V30 7735 C 765.393 -2.61807 -2.30777 0
M  V30 7736 C 766.741 -3.07037 -2.93281 0
M  V30 7737 O 767.765 -2.62203 -2.41097 0
M  V30 7738 O 766.624 -3.8485 -3.88011 0
M  V30 7739 H 763.718 -0.556602 -0.611656 0
M  V30 7740 H 766.264 -1.57689 -0.627069 0
M  V30 7741 H 765.036 -3.50017 -1.74939 0
M  V30 7742 H 764.659 -2.46688 -3.11818 0
M  V30 7743 N 765.656 0.84705 -1.32902 0
M  V30 7744 C 766.881 1.63925 -1.27056 0
M  V30 7745 C 767.306 1.87443 0.157136 0
M  V30 7746 O 766.664 1.43266 1.11106 0
M  V30 7747 C 766.712 2.97134 -2.04313 0
M  V30 7748 O 765.816 3.88049 -1.39614 0
M  V30 7749 H 765.157 0.499477 -0.437514 0
M  V30 7750 H 767.687 1.05443 -1.75336 0
M  V30 7751 H 767.697 3.46896 -2.14772 0
M  V30 7752 H 766.372 2.79339 -3.08128 0
M  V30 7753 H 764.949 3.46525 -1.3775 0
M  V30 7754 N 767.134 1.16236 1.06428 0
M  V30 7755 C 768.545 0.950942 1.60667 0
M  V30 7756 C 768.896 -0.505491 1.89576 0
M  V30 7757 O 768.021 -1.37843 1.66818 0
M  V30 7758 C 768.616 1.71982 2.91904 0
M  V30 7759 C 767.175 1.55342 3.4285 0
M  V30 7760 C 766.322 1.72942 2.16763 0
M  V30 7761 H 769.273 1.31126 0.893959 0
M  V30 7762 H 769.294 1.19483 3.61253 0
M  V30 7763 H 768.806 2.77978 2.70831 0
M  V30 7764 H 766.907 0.5178 3.68985 0
M  V30 7765 H 767.02 2.33643 4.18267 0
M  V30 7766 H 765.384 1.15673 2.26918 0
M  V30 7767 H 766.167 2.80324 1.98175 0
M  V30 7768 N 768.612 -1.24939 0.960631 0
M  V30 7769 C 769.56 -2.27659 0.47686 0
M  V30 7770 C 770.554 -1.63148 -0.455961 0
M  V30 7771 O 771.76 -1.76911 -0.332029 0
M  V30 7772 H 768.135 -0.739651 0.135723 0
M  V30 7773 H 770.106 -2.65844 1.35534 0
M  V30 7774 C 768.855 -3.46976 -0.224191 0
M  V30 7775 H 768.178 -3.96854 0.484471 0
M  V30 7776 H 769.618 -4.20717 -0.526615 0
M  V30 7777 C 768.077 -3.04159 -1.44876 0
M  V30 7778 O 768.607 -3.10697 -2.54618 0
M  V30 7779 N 766.813 -2.59284 -1.31226 0
M  V30 7780 H 766.36 -2.54164 -0.419361 0
M  V30 7781 H 766.318 -2.31 -2.13275 0
M  V30 7782 N 770.09 -0.729906 -1.39679 0
M  V30 7783 C 771.337 -0.275622 -2.00615 0
M  V30 7784 C 771.665 1.13559 -1.57907 0
M  V30 7785 O 770.92 1.78745 -0.796789 0
M  V30 7786 C 771.219 -0.319564 -3.55968 0
M  V30 7787 C 770.885 -1.68308 -4.1831 0
M  V30 7788 C 769.547 -2.05629 -4.35052 0
M  V30 7789 C 771.899 -2.57857 -4.52945 0
M  V30 7790 C 769.227 -3.32018 -4.83716 0
M  V30 7791 C 771.579 -3.83613 -5.03015 0
M  V30 7792 C 770.243 -4.21033 -5.17965 0
M  V30 7793 H 769.513 -0.100857 -0.734104 0
M  V30 7794 H 772.16 -0.93575 -1.67081 0
M  V30 7795 H 770.465 0.42414 -3.89497 0
M  V30 7796 H 772.162 0.0499905 -4.00969 0
M  V30 7797 H 768.752 -1.3829 -4.05677 0
M  V30 7798 H 772.936 -2.30295 -4.39634 0
M  V30 7799 H 768.192 -3.6096 -4.93475 0
M  V30 7800 H 772.366 -4.53162 -5.28788 0
M  V30 7801 H 769.993 -5.19034 -5.55435 0
M  V30 7802 N 771.568 1.50203 -0.477153 0
M  V30 7803 C 772.516 2.30278 0.327826 0
M  V30 7804 C 773.51 1.37831 0.984839 0
M  V30 7805 O 774.716 1.54994 0.915251 0
M  V30 7806 H 771.091 0.741612 0.124564 0
M  V30 7807 H 773.062 2.96124 -0.367853 0
M  V30 7808 C 771.811 3.18548 1.39365 0
M  V30 7809 H 771.134 3.89596 0.897475 0
M  V30 7810 H 772.574 3.77561 1.92934 0
M  V30 7811 C 771.033 2.36548 2.39889 0
M  V30 7812 O 771.563 2.05282 3.45286 0
M  V30 7813 N 769.769 1.99015 2.11758 0
M  V30 7814 H 769.316 2.24641 1.26071 0
M  V30 7815 H 769.274 1.44454 2.7925 0
M  V30 7816 N 773.046 0.209999 1.56195 0
M  V30 7817 C 774.274 -0.429996 2.02382 0
M  V30 7818 C 774.689 -1.54159 1.08998 0
M  V30 7819 O 774.046 -1.82239 0.0974856 0
M  V30 7820 C 774.097 -0.972433 3.48175 0
M  V30 7821 O 773.818 0.0948231 4.37997 0
M  V30 7822 C 775.319 -1.68683 4.09952 0
M  V30 7823 H 772.539 -0.106475 0.662498 0
M  V30 7824 H 775.083 0.323072 2.01932 0
M  V30 7825 H 773.238 -1.67582 3.49278 0
M  V30 7826 H 773.652 -0.31113 5.23576 0
M  V30 7827 H 775.126 -2.01851 5.13771 0
M  V30 7828 H 775.603 -2.59587 3.54276 0
M  V30 7829 H 776.209 -1.02893 4.12666 0
M  V30 7830 N 774.524 -1.57472 -0.0634922 0
M  V30 7831 C 775.773 -1.86837 -0.759928 0
M  V30 7832 C 776.086 -0.803823 -1.7832 0
M  V30 7833 O 777.292 -0.985578 -2.52979 0
M  V30 7834 C 775.748 -3.31448 -1.4025 0
M  V30 7835 C 775.356 -4.46052 -0.417368 0
M  V30 7836 C 777.1 -3.70003 -2.08082 0
M  V30 7837 C 775.007 -5.81707 -1.06633 0
M  V30 7838 H 773.937 -0.697009 -0.287567 0
M  V30 7839 H 776.588 -1.83495 -0.0133914 0
M  V30 7840 H 774.97 -3.29427 -2.19759 0
M  V30 7841 H 776.144 -4.5948 0.348503 0
M  V30 7842 H 774.459 -4.16104 0.156955 0
M  V30 7843 H 777.056 -4.68653 -2.57426 0
M  V30 7844 H 777.399 -3.00226 -2.88393 0
M  V30 7845 H 777.932 -3.7405 -1.35394 0
M  V30 7846 H 774.671 -6.54798 -0.303374 0
M  V30 7847 H 774.191 -5.72064 -1.80286 0
M  V30 7848 H 775.87 -6.27317 -1.58376 0
M  V30 7849 N 776.003 0.335068 -1.53997 0
M  V30 7850 C 776.966 1.39481 -1.81872 0
M  V30 7851 C 777.966 1.4524 -0.690078 0
M  V30 7852 O 779.156 1.45467 -0.958377 0
M  V30 7853 C 776.288 2.78329 -1.9684 0
M  V30 7854 H 777.481 1.16024 -2.76547 0
M  V30 7855 H 775.034 0.569926 -1.45539 0
M  V30 7856 H 775.769 3.07058 -1.04337 0
M  V30 7857 H 775.554 2.75544 -2.78958 0
M  V30 7858 H 777.044 3.55016 -2.19894 0
M  V30 7859 N 777.481 1.45874 0.596531 0
M  V30 7860 C 778.709 1.54013 1.38158 0
M  V30 7861 C 779.124 0.17648 1.87973 0
M  V30 7862 O 778.481 -0.823895 1.62844 0
M  V30 7863 C 778.532 2.53363 2.57855 0
M  V30 7864 O 778.253 3.8443 2.10108 0
M  V30 7865 C 779.754 2.71308 3.50581 0
M  V30 7866 H 776.974 0.521251 0.422538 0
M  V30 7867 H 779.518 1.9116 0.726493 0
M  V30 7868 H 777.673 2.19257 3.19382 0
M  V30 7869 H 778.087 4.38384 2.87958 0
M  V30 7870 H 779.561 3.44776 4.31084 0
M  V30 7871 H 780.038 1.77728 4.01633 0
M  V30 7872 H 780.644 3.06455 2.94899 0
M  V30 7873 N 778.959 -0.83999 1.33349 0
M  V30 7874 C 780.236 -1.57973 1.15342 0
M  V30 7875 C 780.616 -2.09226 -0.280632 0
M  V30 7876 O 779.964 -1.89317 -1.2795 0
M  V30 7877 C 780.174 -2.71446 2.19359 0
M  V30 7878 C 781.522 -3.40654 2.53456 0
M  V30 7879 O 782.546 -2.81686 2.18017 0
M  V30 7880 O 781.405 -4.47101 3.14266 0
M  V30 7881 H 778.499 -0.6964 0.446044 0
M  V30 7882 H 781.045 -0.882843 1.44927 0
M  V30 7883 H 779.817 -2.31205 3.1569 0
M  V30 7884 H 779.44 -3.488 1.90852 0
M  V30 7885 N 780.437 -1.16799 -1.0581 0
M  V30 7886 C 781.4 -0.881396 -2.11575 0
M  V30 7887 C 782.4 0.12574 -1.60308 0
M  V30 7888 O 783.59 -0.105716 -1.73879 0
M  V30 7889 C 780.722 -0.319037 -3.39404 0
M  V30 7890 H 781.915 -1.81907 -2.38432 0
M  V30 7891 H 779.468 -0.977597 -1.21954 0
M  V30 7892 H 780.203 0.626082 -3.18199 0
M  V30 7893 H 779.988 -1.04481 -3.77923 0
M  V30 7894 H 781.478 -0.13663 -4.17376 0
M  V30 7895 N 781.915 1.24427 -0.967243 0
M  V30 7896 C 782.878 2.23637 -0.501927 0
M  V30 7897 C 783.878 1.55712 0.401283 0
M  V30 7898 O 785.068 1.73085 0.196808 0
M  V30 7899 C 782.2 3.39804 0.273176 0
M  V30 7900 H 783.393 2.66317 -1.37897 0
M  V30 7901 H 780.946 1.37033 -0.751783 0
M  V30 7902 H 781.681 3.02562 1.16733 0
M  V30 7903 H 781.466 3.90303 -0.37498 0
M  V30 7904 H 782.956 4.13443 0.587776 0
M  V30 7905 N 783.393 0.737304 1.3929 0
M  V30 7906 C 784.67 0.212464 1.94443 0
M  V30 7907 C 785.05 -1.28621 1.67391 0
M  V30 7908 O 784.398 -2.0529 1.00342 0
M  V30 7909 C 784.608 0.548565 3.44662 0
M  V30 7910 C 785.956 0.499177 4.21656 0
M  V30 7911 O 786.98 0.485892 3.5287 0
M  V30 7912 O 785.839 0.495739 5.44247 0
M  V30 7913 H 782.933 0.0395457 0.826054 0
M  V30 7914 H 785.479 0.816319 1.48776 0
M  V30 7915 H 784.251 1.58426 3.57795 0
M  V30 7916 H 783.874 -0.0841399 3.97511 0
M  V30 7917 N 784.871 -1.49948 0.485112 0
M  V30 7918 C 786.096 -2.073 -0.0645059 0
M  V30 7919 C 786.521 -1.345 -1.31497 0
M  V30 7920 O 785.879 -0.39687 -1.76903 0
M  V30 7921 C 785.927 -3.59201 -0.317304 0
M  V30 7922 O 785.031 -3.88085 -1.39514 0
M  V30 7923 H 784.372 -0.663723 0.0191822 0
M  V30 7924 H 786.902 -1.92963 0.680179 0
M  V30 7925 H 786.912 -4.04227 -0.553604 0
M  V30 7926 H 785.587 -4.11602 0.596387 0
M  V30 7927 H 784.164 -3.54885 -1.14504 0
M  V30 7928 N 786.349 -0.21828 -1.56081 0
M  V30 7929 C 787.595 0.414921 -1.9851 0
M  V30 7930 C 787.928 1.59648 -1.10573 0
M  V30 7931 O 787.203 1.93818 -0.162695 0
M  V30 7932 C 787.486 0.852647 -3.4986 0
M  V30 7933 C 787.339 -0.33232 -4.48571 0
M  V30 7934 C 788.658 1.70998 -4.05521 0
M  V30 7935 H 785.777 0.149344 -0.72171 0
M  V30 7936 H 788.419 -0.313858 -1.8739 0
M  V30 7937 H 786.569 1.47362 -3.59467 0
M  V30 7938 H 788.241 -0.970418 -4.50977 0
M  V30 7939 H 786.484 -0.980302 -4.22578 0
M  V30 7940 H 787.155 0.0168407 -5.51997 0
M  V30 7941 H 789.631 1.18606 -3.98838 0
M  V30 7942 H 788.507 1.98517 -5.11744 0
M  V30 7943 H 788.768 2.67219 -3.52202 0
M  V30 7944 N 787.827 1.57504 0.0551401 0
M  V30 7945 C 789.073 1.88334 0.752216 0
M  V30 7946 C 789.406 0.812742 1.76375 0
M  V30 7947 O 788.681 -0.175198 1.93709 0
M  V30 7948 C 788.964 3.29824 1.44528 0
M  V30 7949 C 788.817 4.47553 0.449026 0
M  V30 7950 C 790.136 3.69808 2.38601 0
M  V30 7951 H 787.255 0.684973 0.271995 0
M  V30 7952 H 789.897 1.89994 0.0151895 0
M  V30 7953 H 788.047 3.28539 2.07351 0
M  V30 7954 H 789.719 4.60967 -0.175277 0
M  V30 7955 H 787.962 4.33168 -0.234162 0
M  V30 7956 H 788.633 5.43376 0.971917 0
M  V30 7957 H 791.109 3.72293 1.85842 0
M  V30 7958 H 789.985 4.69665 2.84088 0
M  V30 7959 H 790.246 3.00641 3.24141 0
M  V30 7960 N 789.305 -0.326896 1.54172 0
M  V30 7961 C 790.533 -1.08486 1.76177 0
M  V30 7962 C 790.948 -1.81815 0.508788 0
M  V30 7963 O 790.305 -1.74924 -0.520362 0
M  V30 7964 C 790.356 -2.08552 2.95276 0
M  V30 7965 O 790.077 -1.38202 4.15731 0
M  V30 7966 C 791.578 -2.96593 3.29466 0
M  V30 7967 H 788.798 -0.322835 0.588233 0
M  V30 7968 H 791.342 -0.374036 2.0105 0
M  V30 7969 H 789.497 -2.75174 2.72687 0
M  V30 7970 H 789.911 -2.05186 4.827 0
M  V30 7971 H 791.385 -3.62708 4.16109 0
M  V30 7972 H 791.862 -3.63511 2.46487 0
M  V30 7973 H 792.468 -2.35537 3.54122 0
M  V30 7974 N 790.784 -1.46188 -0.588786 0
M  V30 7975 C 791.732 -1.56653 -1.71938 0
M  V30 7976 C 792.726 -0.435354 -1.6371 0
M  V30 7977 O 793.932 -0.611996 -1.69277 0
M  V30 7978 H 790.307 -0.492408 -0.568365 0
M  V30 7979 H 792.278 -2.51724 -1.60242 0
M  V30 7980 C 791.027 -1.56822 -3.10326 0
M  V30 7981 H 790.35 -2.43198 -3.17325 0
M  V30 7982 H 791.79 -1.68199 -3.89211 0
M  V30 7983 C 790.249 -0.295802 -3.35599 0
M  V30 7984 O 790.779 0.616515 -3.96941 0
M  V30 7985 N 788.985 -0.185609 -2.90007 0
M  V30 7986 H 788.532 -0.928914 -2.40269 0
M  V30 7987 H 788.49 0.664883 -3.07289 0
M  V30 7988 N 792.262 0.832906 -1.33792 0
M  V30 7989 C 793.195 1.94788 -1.18882 0
M  V30 7990 C 794.173 1.62389 -0.0828426 0
M  V30 7991 O 795.357 1.86886 -0.246175 0
M  V30 7992 C 792.484 3.28506 -0.824728 0
M  V30 7993 C 791.53 3.79872 -1.93905 0
M  V30 7994 S 792.363 4.00832 -3.55097 0
M  V30 7995 C 793.519 5.37492 -3.20708 0
M  V30 7996 H 793.752 2.07137 -2.13264 0
M  V30 7997 H 791.285 0.987362 -1.18704 0
M  V30 7998 H 793.243 4.05769 -0.621442 0
M  V30 7999 H 791.904 3.13939 0.100587 0
M  V30 8000 H 791.097 4.76647 -1.6378 0
M  V30 8001 H 790.699 3.09524 -2.09931 0
M  V30 8002 H 792.991 6.20544 -2.71903 0
M  V30 8003 H 793.934 5.72593 -4.16584 0
M  V30 8004 H 794.342 5.02529 -2.57148 0
M  V30 8005 N 793.74 1.17359 1.05189 0
M  V30 8006 C 794.989 0.956412 1.77583 0
M  V30 8007 C 795.302 -0.516018 1.88671 0
M  V30 8008 O 796.508 -0.851401 2.57805 0
M  V30 8009 C 794.964 1.66203 3.19225 0
M  V30 8010 C 794.572 3.17299 3.16267 0
M  V30 8011 C 796.316 1.52725 3.96075 0
M  V30 8012 C 794.223 3.8055 4.52698 0
M  V30 8013 H 793.153 0.354204 0.665624 0
M  V30 8014 H 795.804 1.40612 1.17901 0
M  V30 8015 H 794.186 1.14006 3.79234 0
M  V30 8016 H 795.36 3.76431 2.65776 0
M  V30 8017 H 793.675 3.3079 2.52917 0
M  V30 8018 H 796.272 1.97351 4.96947 0
M  V30 8019 H 796.615 0.477803 4.13549 0
M  V30 8020 H 797.148 2.02139 3.42614 0
M  V30 8021 H 793.887 4.85492 4.4043 0
M  V30 8022 H 793.407 3.26206 5.03339 0
M  V30 8023 H 795.086 3.82757 5.21638 0
M  V30 8024 N 795.218 -1.23913 0.973828 0
M  V30 8025 C 796.148 -2.27453 0.527969 0
M  V30 8026 C 797.129 -1.6443 -0.435513 0
M  V30 8027 O 798.314 -1.9137 -0.330306 0
M  V30 8028 C 795.444 -3.4685 -0.176757 0
M  V30 8029 C 794.398 -4.22181 0.703352 0
M  V30 8030 C 793.724 -5.34534 -0.133215 0
M  V30 8031 C 795.024 -4.82865 1.99096 0
M  V30 8032 H 796.718 -2.65 1.3934 0
M  V30 8033 H 794.264 -1.27388 0.671446 0
M  V30 8034 H 796.217 -4.18424 -0.499934 0
M  V30 8035 H 794.941 -3.08346 -1.07659 0
M  V30 8036 H 793.6 -3.52416 1.00989 0
M  V30 8037 H 793.248 -4.92271 -1.03338 0
M  V30 8038 H 792.948 -5.85855 0.452494 0
M  V30 8039 H 794.472 -6.08933 -0.450924 0
M  V30 8040 H 795.886 -5.46481 1.73297 0
M  V30 8041 H 794.283 -5.44444 2.52389 0
M  V30 8042 H 795.353 -4.03977 2.68199 0
M  V30 8043 N 796.696 -0.74468 -1.38897 0
M  V30 8044 C 797.943 -0.296884 -2.00312 0
M  V30 8045 C 798.271 1.11878 -1.59102 0
M  V30 8046 O 797.526 1.7789 -0.815702 0
M  V30 8047 C 797.825 -0.357302 -3.55609 0
M  V30 8048 C 797.491 -1.72736 -4.16501 0
M  V30 8049 C 796.153 -2.10232 -4.32846 0
M  V30 8050 C 798.505 -2.62647 -4.50184 0
M  V30 8051 C 795.833 -3.3713 -4.80167 0
M  V30 8052 C 798.185 -3.88926 -4.98918 0
M  V30 8053 C 796.849 -4.26503 -5.1347 0
M  V30 8054 H 796.119 -0.108638 -0.732993 0
M  V30 8055 H 798.766 -0.953419 -1.66079 0
M  V30 8056 H 797.071 0.382805 -3.89925 0
M  V30 8057 H 798.768 0.0074596 -4.00999 0
M  V30 8058 H 795.358 -1.42585 -4.04187 0
M  V30 8059 H 799.542 -2.34945 -4.37166 0
M  V30 8060 H 794.798 -3.66174 -4.89619 0
M  V30 8061 H 798.972 -4.58745 -5.23952 0
M  V30 8062 H 796.599 -5.24896 -5.49898 0
M  V30 8063 N 798.174 1.49689 -0.493057 0
M  V30 8064 C 799.42 2.02727 0.0543518 0
M  V30 8065 C 799.753 1.37264 1.37376 0
M  V30 8066 O 799.028 0.505644 1.87812 0
M  V30 8067 C 799.311 3.59456 0.215226 0
M  V30 8068 C 799.164 4.35459 -1.12675 0
M  V30 8069 C 800.483 4.29511 0.959586 0
M  V30 8070 H 797.602 0.736773 0.0182786 0
M  V30 8071 H 800.244 1.78792 -0.642924 0
M  V30 8072 H 798.394 3.79981 0.809122 0
M  V30 8073 H 800.066 4.2645 -1.75891 0
M  V30 8074 H 798.309 3.9833 -1.71801 0
M  V30 8075 H 798.98 5.43454 -0.967578 0
M  V30 8076 H 801.456 4.13594 0.455977 0
M  V30 8077 H 800.332 5.38939 1.04098 0
M  V30 8078 H 800.593 3.94202 2.00144 0
M  V30 8079 N 799.652 0.226554 1.55963 0
M  V30 8080 C 800.9 -0.402991 1.98041 0
M  V30 8081 C 801.221 -1.59938 1.11557 0
M  V30 8082 O 800.491 -1.9494 0.193719 0
M  V30 8083 H 799.071 -0.15188 0.731397 0
M  V30 8084 H 801.733 0.320613 1.92245 0
M  V30 8085 H 800.829 -0.725937 3.0354 0
M  V30 8086 N 801.13 -1.57531 -0.0467866 0
M  V30 8087 C 802.355 -1.93087 -0.757123 0
M  V30 8088 C 802.78 -0.825116 -1.69037 0
M  V30 8089 O 802.138 0.220449 -1.79955 0
M  V30 8090 C 802.186 -3.27669 -1.5055 0
M  V30 8091 O 801.29 -3.18667 -2.61773 0
M  V30 8092 H 800.631 -0.631597 -0.204892 0
M  V30 8093 H 803.161 -2.04599 -0.00755232 0
M  V30 8094 H 803.171 -3.6214 -1.87932 0
M  V30 8095 H 801.846 -4.07717 -0.820931 0
M  V30 8096 H 800.423 -2.95798 -2.27064 0
M  V30 8097 N 802.608 0.318715 -1.54344 0
M  V30 8098 C 803.556 1.41254 -1.84798 0
M  V30 8099 C 804.55 1.53325 -0.720256 0
M  V30 8100 O 805.756 1.55653 -0.903992 0
M  V30 8101 H 802.131 0.471468 -0.585851 0
M  V30 8102 H 804.102 1.12795 -2.7626 0
M  V30 8103 C 802.851 2.77395 -2.09637 0
M  V30 8104 H 802.174 2.68881 -2.95876 0
M  V30 8105 H 803.614 3.52987 -2.34896 0
M  V30 8106 C 802.073 3.24948 -0.889398 0
M  V30 8107 O 802.603 4.01573 -0.101063 0
M  V30 8108 N 800.809 2.82051 -0.699684 0
M  V30 8109 H 800.356 2.19858 -1.3424 0
M  V30 8110 H 800.314 3.1422 0.106368 0
M  V30 8111 N 804.086 1.46499 0.581025 0
M  V30 8112 C 805.311 1.55708 1.37002 0
M  V30 8113 C 805.736 0.19942 1.8704 0
M  V30 8114 O 805.094 -0.820731 1.61659 0
M  V30 8115 C 805.142 2.56716 2.53238 0
M  V30 8116 O 804.246 2.10336 3.54729 0
M  V30 8117 H 803.587 0.523912 0.407937 0
M  V30 8118 H 806.117 1.92085 0.704602 0
M  V30 8119 H 806.127 2.76378 3.00132 0
M  V30 8120 H 804.802 3.55307 2.16171 0
M  V30 8121 H 803.379 2.00669 3.14303 0
M  V30 8122 N 805.565 -0.825799 1.34232 0
M  V30 8123 C 806.842 -1.56741 1.17011 0
M  V30 8124 C 807.222 -2.09512 -0.258425 0
M  V30 8125 O 806.57 -1.90664 -1.25935 0
M  V30 8126 C 806.78 -2.69104 2.22225 0
M  V30 8127 C 808.128 -3.37947 2.57055 0
M  V30 8128 O 809.152 -2.79358 2.20992 0
M  V30 8129 O 808.011 -4.43743 3.1899 0
M  V30 8130 H 805.105 -0.69163 0.453405 0
M  V30 8131 H 807.651 -0.867422 1.45856 0
M  V30 8132 H 806.423 -2.27844 3.18124 0
M  V30 8133 H 806.046 -3.46756 1.94541 0
M  V30 8134 N 807.043 -1.17915 -1.04565 0
M  V30 8135 C 807.991 -0.897919 -2.1457 0
M  V30 8136 C 808.985 0.139883 -1.68821 0
M  V30 8137 O 810.191 -0.00779463 -1.79998 0
M  V30 8138 H 806.566 -0.272867 -0.700748 0
M  V30 8139 H 808.537 -1.83268 -2.3549 0
M  V30 8140 C 807.286 -0.434634 -3.44973 0
M  V30 8141 H 806.609 -1.22469 -3.8058 0
M  V30 8142 H 808.049 -0.276804 -4.23095 0
M  V30 8143 C 806.508 0.848738 -3.26034 0
M  V30 8144 O 807.038 1.9141 -3.53164 0
M  V30 8145 N 805.244 0.799373 -2.79389 0
M  V30 8146 H 804.791 -0.0678192 -2.57511 0
M  V30 8147 H 804.749 1.6585 -2.67098 0
M  V30 8148 N 808.521 1.23394 -0.980386 0
M  V30 8149 C 809.77 1.91116 -0.644785 0
M  V30 8150 C 810.083 1.77333 0.825367 0
M  V30 8151 O 811.289 2.39858 1.27203 0
M  V30 8152 C 809.745 3.42592 -1.10266 0
M  V30 8153 C 809.353 3.65037 -2.59715 0
M  V30 8154 C 811.097 4.1609 -0.8408 0
M  V30 8155 C 809.004 5.10148 -2.9917 0
M  V30 8156 H 807.934 0.715632 -0.23746 0
M  V30 8157 H 810.585 1.39829 -1.18828 0
M  V30 8158 H 808.967 3.92989 -0.487372 0
M  V30 8159 H 810.141 3.25186 -3.26482 0
M  V30 8160 H 808.456 3.04849 -2.83647 0
M  V30 8161 H 811.053 5.23021 -1.11143 0
M  V30 8162 H 811.396 4.15702 0.223085 0
M  V30 8163 H 811.929 3.71681 -1.41767 0
M  V30 8164 H 808.668 5.15668 -4.04682 0
M  V30 8165 H 808.188 5.50949 -2.37097 0
M  V30 8166 H 809.867 5.7848 -2.89775 0
M  V30 8167 N 809.999 0.752036 1.385 0
M  V30 8168 C 811.224 0.316993 2.04963 0
M  V30 8169 C 811.649 -1.04582 1.56346 0
M  V30 8170 O 811.007 -1.66616 0.714755 0
M  V30 8171 C 811.055 0.347235 3.58924 0
M  V30 8172 O 810.159 -0.659296 4.07096 0
M  V30 8173 H 809.5 0.140652 0.648932 0
M  V30 8174 H 812.03 1.02272 1.77205 0
M  V30 8175 H 812.04 0.19757 4.07521 0
M  V30 8176 H 810.715 1.34157 3.93668 0
M  V30 8177 H 809.292 -0.474371 3.6987 0
M  V30 8178 N 811.477 -1.49425 0.500989 0
M  V30 8179 C 812.407 -2.31971 -0.266775 0
M  V30 8180 C 813.388 -1.40245 -0.962563 0
M  V30 8181 O 814.573 -1.69154 -0.953968 0
M  V30 8182 C 811.703 -3.20757 -1.33163 0
M  V30 8183 C 810.657 -4.21275 -0.75572 0
M  V30 8184 C 809.983 -4.98997 -1.92109 0
M  V30 8185 C 811.283 -5.21686 0.253213 0
M  V30 8186 H 812.977 -2.96408 0.422237 0
M  V30 8187 H 810.523 -1.4254 0.204505 0
M  V30 8188 H 812.476 -3.77315 -1.87646 0
M  V30 8189 H 811.2 -2.54263 -2.04983 0
M  V30 8190 H 809.859 -3.65861 -0.232637 0
M  V30 8191 H 809.507 -4.28951 -2.62698 0
M  V30 8192 H 809.207 -5.67011 -1.54182 0
M  V30 8193 H 810.731 -5.584 -2.47026 0
M  V30 8194 H 812.145 -5.72939 -0.203483 0
M  V30 8195 H 810.542 -5.9759 0.548322 0
M  V30 8196 H 811.612 -4.70596 1.16909 0
M  V30 8197 N 812.955 -0.234822 -1.55841 0
M  V30 8198 C 814.232 0.442961 -1.90518 0
M  V30 8199 C 814.612 1.76768 -1.15397 0
M  V30 8200 O 813.96 2.26928 -0.267534 0
M  V30 8201 C 814.17 0.622905 -3.43396 0
M  V30 8202 C 815.518 0.9243 -4.14417 0
M  V30 8203 O 816.542 0.709211 -3.49068 0
M  V30 8204 O 815.401 1.33323 -5.29988 0
M  V30 8205 H 812.495 0.236042 -0.792599 0
M  V30 8206 H 815.041 -0.277992 -1.67408 0
M  V30 8207 H 813.813 -0.310973 -3.90062 0
M  V30 8208 H 813.436 1.39485 -3.7233 0
M  V30 8209 N 814.433 1.57553 0.0384317 0
M  V30 8210 C 815.381 2.07021 1.06043 0
M  V30 8211 C 816.375 0.982078 1.38028 0
M  V30 8212 O 817.581 1.16702 1.37042 0
M  V30 8213 H 813.956 0.660522 0.359464 0
M  V30 8214 H 815.927 2.91944 0.617339 0
M  V30 8215 C 814.676 2.55734 2.35574 0
M  V30 8216 H 813.999 3.39074 2.11822 0
M  V30 8217 H 815.439 2.94066 3.05452 0
M  V30 8218 C 813.898 1.45449 3.03885 0
M  V30 8219 O 814.428 0.815402 3.93337 0
M  V30 8220 N 812.634 1.19134 2.65058 0
M  V30 8221 H 812.181 1.71288 1.92401 0
M  V30 8222 H 812.139 0.455554 3.11082 0
M  V30 8223 N 815.911 -0.310526 1.54511 0
M  V30 8224 C 817.16 -1.0445 1.72549 0
M  V30 8225 C 817.473 -1.88748 0.513172 0
M  V30 8226 O 818.679 -2.65338 0.575165 0
M  V30 8227 C 817.135 -1.90665 3.05246 0
M  V30 8228 C 816.743 -1.11415 4.33925 0
M  V30 8229 C 818.487 -2.63719 3.32645 0
M  V30 8230 C 816.394 -1.96852 5.57677 0
M  V30 8231 H 815.324 -0.393676 0.643067 0
M  V30 8232 H 817.975 -0.302003 1.80998 0
M  V30 8233 H 816.357 -2.68864 2.90737 0
M  V30 8234 H 817.531 -0.378956 4.59239 0
M  V30 8235 H 815.846 -0.499853 4.13389 0
M  V30 8236 H 818.443 -3.27974 4.223 0
M  V30 8237 H 818.786 -3.32047 2.51098 0
M  V30 8238 H 819.319 -1.92574 3.48081 0
M  V30 8239 H 816.058 -1.33009 6.41864 0
M  V30 8240 H 815.578 -2.68069 5.36562 0
M  V30 8241 H 817.257 -2.55127 5.94575 0
M  V30 8242 N 817.389 -1.46805 -0.573248 0
M  V30 8243 C 818.336 -1.58084 -1.68161 0
M  V30 8244 C 819.306 -0.424636 -1.6058 0
M  V30 8245 O 820.491 -0.642623 -1.79652 0
M  V30 8246 C 817.631 -1.58601 -3.06496 0
M  V30 8247 C 816.744 -2.85023 -3.24632 0
M  V30 8248 C 815.879 -2.76981 -4.53271 0
M  V30 8249 C 814.918 -3.983 -4.64783 0
M  V30 8250 N 814.055 -3.88589 -5.84759 0
M  V30 8251 H 818.895 -2.52755 -1.57858 0
M  V30 8252 H 816.432 -1.25385 -0.769218 0
M  V30 8253 H 818.39 -1.56885 -3.86579 0
M  V30 8254 H 817.02 -0.674553 -3.15673 0
M  V30 8255 H 816.072 -2.96678 -2.38089 0
M  V30 8256 H 817.384 -3.7491 -3.29004 0
M  V30 8257 H 816.538 -2.73424 -5.41594 0
M  V30 8258 H 815.277 -1.84751 -4.51352 0
M  V30 8259 H 814.282 -4.02179 -3.74876 0
M  V30 8260 H 815.507 -4.91639 -4.68474 0
M  V30 8261 H 813.453 -2.99151 -5.83819 0
M  V30 8262 H 813.37 -4.7214 -5.90441 0
M  V30 8263 H 814.638 -3.89022 -6.75486 0
M  V30 8264 N 818.867 0.818669 -1.34668 0
M  V30 8265 C 820.114 1.57512 -1.27264 0
M  V30 8266 C 820.442 1.93871 0.156254 0
M  V30 8267 O 819.697 1.60582 1.11857 0
M  V30 8268 C 819.996 2.88245 -2.11304 0
M  V30 8269 C 819.662 2.71159 -3.60255 0
M  V30 8270 C 818.324 2.66207 -4.00858 0
M  V30 8271 C 820.676 2.54538 -4.54819 0
M  V30 8272 C 818.004 2.4256 -5.34211 0
M  V30 8273 C 820.356 2.32421 -5.88356 0
M  V30 8274 C 819.02 2.25884 -6.28118 0
M  V30 8275 H 818.29 0.576378 -0.465692 0
M  V30 8276 H 820.937 0.9469 -1.66451 0
M  V30 8277 H 819.242 3.55381 -1.64958 0
M  V30 8278 H 820.939 3.45869 -2.02919 0
M  V30 8279 H 817.529 2.75856 -3.28027 0
M  V30 8280 H 821.713 2.57384 -4.24343 0
M  V30 8281 H 816.969 2.35959 -5.64033 0
M  V30 8282 H 821.143 2.18548 -6.61218 0
M  V30 8283 H 818.77 2.07322 -7.31383 0
M  V30 8284 N 820.346 1.18468 1.03938 0
M  V30 8285 C 821.574 1.00576 1.80809 0
M  V30 8286 C 821.989 -0.445786 1.83462 0
M  V30 8287 O 821.346 -1.30964 1.27101 0
M  V30 8288 C 821.397 1.55491 3.26351 0
M  V30 8289 O 821.118 2.94963 3.23926 0
M  V30 8290 C 822.619 1.42236 4.19862 0
M  V30 8291 H 819.839 0.35508 0.56935 0
M  V30 8292 H 822.383 1.57046 1.30984 0
M  V30 8293 H 820.538 1.03195 3.73403 0
M  V30 8294 H 820.952 3.20598 4.15111 0
M  V30 8295 H 822.426 1.85455 5.19914 0
M  V30 8296 H 822.903 0.371267 4.37628 0
M  V30 8297 H 823.509 1.9361 3.78675 0
M  V30 8298 N 821.824 -1.22873 0.986916 0
M  V30 8299 C 822.771 -2.2458 0.532215 0
M  V30 8300 C 823.741 -1.60375 -0.432322 0
M  V30 8301 O 824.926 -1.87775 -0.338416 0
M  V30 8302 C 822.066 -3.44761 -0.152864 0
M  V30 8303 C 821.179 -4.23501 0.852704 0
M  V30 8304 C 820.314 -5.31011 0.14176 0
M  V30 8305 C 819.353 -6.01464 1.1361 0
M  V30 8306 N 818.49 -7.00631 0.453871 0
M  V30 8307 H 823.33 -2.62838 1.40428 0
M  V30 8308 H 820.867 -1.29185 0.703543 0
M  V30 8309 H 822.825 -4.1333 -0.566926 0
M  V30 8310 H 821.455 -3.07284 -0.988756 0
M  V30 8311 H 820.507 -3.54286 1.38512 0
M  V30 8312 H 821.819 -4.72097 1.61014 0
M  V30 8313 H 820.973 -6.05805 -0.329337 0
M  V30 8314 H 819.712 -4.83373 -0.648229 0
M  V30 8315 H 818.717 -5.25456 1.61789 0
M  V30 8316 H 819.942 -6.5119 1.92686 0
M  V30 8317 H 817.888 -6.55235 -0.316791 0
M  V30 8318 H 817.805 -7.47204 1.14986 0
M  V30 8319 H 819.073 -7.795 0.00537823 0
M  V30 8320 O 823.341 -0.896491 -1.34333 0
M  V30 8321 H 824.032 -0.506358 -1.86964 0
M  V30 END ATOM
M  V30 BEGIN BOND
M  V30 END BOND
M  V30 END CTAB
M  END
$$$$
