drugbank_target|P95673 Light-harvesting protein B-800/850 beta 1 chain (DB07646)
 OpenBabel12092120453D

742754  0  0  0  0  0  0  0  0999 V2000
   -0.9080    1.9825   -0.1171 H   0  0  0  0  0 15  0  0  0  0  0  0
    0.0000    1.5760    0.0000 N   0  0  0  0  0 15  0  0  0  0  0  0
    0.9330    2.0387    1.0253 C   0  0  0  0  0 15  0  0  0  0  0  0
    1.9110    0.9285    1.3348 C   0  0  0  0  0 15  0  0  0  0  0  0
    3.0950    1.1967    1.4564 O   0  0  0  0  0 15  0  0  0  0  0  0
    0.2220    2.4363    2.3529 C   0  0  0  0  0 15  0  0  0  0  0  0
   -0.7320    3.6537    2.2001 C   0  0  0  0  0 15  0  0  0  0  0  0
    0.1010    5.1329    1.5261 S   0  0  0  0  0 15  0  0  0  0  0  0
    1.2570    5.5632    2.8680 C   0  0  0  0  0 15  0  0  0  0  0  0
    1.4900    2.9052    0.6314 H   0  0  0  0  0 15  0  0  0  0  0  0
   -0.9770    1.5295    0.2109 H   0  0  0  0  0 15  0  0  0  0  0  0
    0.9810    2.6720    3.1163 H   0  0  0  0  0 15  0  0  0  0  0  0
   -0.3580    1.5738    2.7183 H   0  0  0  0  0 15  0  0  0  0  0  0
   -1.1650    3.9094    3.1809 H   0  0  0  0  0 15  0  0  0  0  0  0
   -1.5630    3.4180    1.5182 H   0  0  0  0  0 15  0  0  0  0  0  0
    0.7290    5.5878    3.8310 H   0  0  0  0  0 15  0  0  0  0  0  0
    1.6720    6.5627    2.6593 H   0  0  0  0  0 15  0  0  0  0  0  0
    2.0800    4.8389    2.9071 H   0  0  0  0  0 15  0  0  0  0  0  0
    1.4781   -0.2728    1.5522 N   0  0  0  0  0 15  0  0  0  0  0  0
    2.4411   -1.3204    1.8734 C   0  0  0  0  0 15  0  0  0  0  0  0
    3.4411   -1.4234    0.7480 C   0  0  0  0  0 15  0  0  0  0  0  0
    4.6311   -1.4149    1.0162 O   0  0  0  0  0 15  0  0  0  0  0  0
    1.7631   -2.7017    2.0789 C   0  0  0  0  0 15  0  0  0  0  0  0
    2.9561   -1.0479    2.8100 H   0  0  0  0  0 15  0  0  0  0  0  0
    0.5091   -0.5108    1.4772 H   0  0  0  0  0 15  0  0  0  0  0  0
    1.2441   -3.0260    1.1662 H   0  0  0  0  0 15  0  0  0  0  0  0
    1.0291   -2.6408    2.8983 H   0  0  0  0  0 15  0  0  0  0  0  0
    2.5191   -3.4587    2.3402 H   0  0  0  0  0 15  0  0  0  0  0  0
    2.9562   -1.4816   -0.5373 N   0  0  0  0  0 15  0  0  0  0  0  0
    3.8662   -1.6481   -1.6696 C   0  0  0  0  0 15  0  0  0  0  0  0
    4.8822   -0.5307   -1.6571 C   0  0  0  0  0 15  0  0  0  0  0  0
    6.0582   -0.8008   -1.8480 O   0  0  0  0  0 15  0  0  0  0  0  0
    3.1232   -1.6771   -3.0344 C   0  0  0  0  0 15  0  0  0  0  0  0
    2.1842   -2.9102   -3.1560 C   0  0  0  0  0 15  0  0  0  0  0  0
    1.4172   -2.9378   -4.4557 C   0  0  0  0  0 15  0  0  0  0  0  0
    1.6402   -2.0515   -5.3223 O   0  0  0  0  0 15  0  0  0  0  0  0
    0.5742   -3.8587   -4.6194 O   0  0  0  0  0 15  0  0  0  0  0  0
    4.4002   -2.6066   -1.5585 H   0  0  0  0  0 15  0  0  0  0  0  0
    1.9852   -1.3148   -0.7095 H   0  0  0  0  0 15  0  0  0  0  0  0
    3.8672   -1.7218   -3.8462 H   0  0  0  0  0 15  0  0  0  0  0  0
    2.5422   -0.7503   -3.1488 H   0  0  0  0  0 15  0  0  0  0  0  0
    1.4492   -2.9209   -2.3374 H   0  0  0  0  0 15  0  0  0  0  0  0
    2.7822   -3.8307   -3.0907 H   0  0  0  0  0 15  0  0  0  0  0  0
    4.4343    0.7856   -1.3662 N   0  0  0  0  0 15  0  0  0  0  0  0
    5.8503    1.0842   -1.1712 C   0  0  0  0  0 15  0  0  0  0  0  0
    6.0503    2.0150    0.0021 C   0  0  0  0  0 15  0  0  0  0  0  0
    5.1063    2.4355    0.6663 O   0  0  0  0  0 15  0  0  0  0  0  0
    6.4193    1.6950   -2.4838 C   0  0  0  0  0 15  0  0  0  0  0  0
    7.9673    1.8182   -2.5477 C   0  0  0  0  0 15  0  0  0  0  0  0
    8.4423    2.4631   -3.8613 C   0  0  0  0  0 15  0  0  0  0  0  0
    9.9333    2.5378   -3.8749 N   0  0  0  0  0 15  0  0  0  0  0  0
   10.6683    3.0450   -4.8587 C   0  0  0  0  0 15  0  0  0  0  0  0
   10.1643    3.5550   -5.9464 N   0  0  0  0  0 15  0  0  0  0  0  0
   11.9573    3.0325   -4.7328 N   0  0  0  0  0 15  0  0  0  0  0  0
    4.1083    0.1673   -2.1174 H   0  0  0  0  0 15  0  0  0  0  0  0
    6.3713    0.1368   -0.9381 H   0  0  0  0  0 15  0  0  0  0  0  0
    6.0773    1.0857   -3.3452 H   0  0  0  0  0 15  0  0  0  0  0  0
    5.9513    2.6896   -2.6446 H   0  0  0  0  0 15  0  0  0  0  0  0
    8.3383    2.4188   -1.6904 H   0  0  0  0  0 15  0  0  0  0  0  0
    8.4193    0.8115   -2.4259 H   0  0  0  0  0 15  0  0  0  0  0  0
    8.0633    1.8689   -4.7226 H   0  0  0  0  0 15  0  0  0  0  0  0
    7.9933    3.4756   -3.9561 H   0  0  0  0  0 15  0  0  0  0  0  0
   10.4843    2.1767   -3.0891 H   0  0  0  0  0 15  0  0  0  0  0  0
   10.7973    3.9256   -6.6567 H   0  0  0  0  0 15  0  0  0  0  0  0
    9.1423    3.5364   -5.9830 H   0  0  0  0  0 15  0  0  0  0  0  0
   12.3333    2.6270   -3.8744 H   0  0  0  0  0 15  0  0  0  0  0  0
   12.5063    3.4247   -5.5011 H   0  0  0  0  0 15  0  0  0  0  0  0
    5.9124    1.2097    1.0102 N   0  0  0  0  0 15  0  0  0  0  0  0
    7.1374    1.0503    1.7884 C   0  0  0  0  0 15  0  0  0  0  0  0
    7.5624   -0.3958    1.8389 C   0  0  0  0  0 15  0  0  0  0  0  0
    6.9204   -1.2853    1.2787 O   0  0  0  0  0 15  0  0  0  0  0  0
    6.9684    1.6460    3.2084 C   0  0  0  0  0 15  0  0  0  0  0  0
    6.0724    0.8880    4.0273 O   0  0  0  0  0 15  0  0  0  0  0  0
    5.4134    0.3700    0.5514 H   0  0  0  0  0 15  0  0  0  0  0  0
    7.9434    1.6040    1.2702 H   0  0  0  0  0 15  0  0  0  0  0  0
    7.9534    1.6861    3.7153 H   0  0  0  0  0 15  0  0  0  0  0  0
    6.6284    2.6984    3.1648 H   0  0  0  0  0 15  0  0  0  0  0  0
    5.2054    0.9226    3.6131 H   0  0  0  0  0 15  0  0  0  0  0  0
    7.3905   -1.2043    1.0166 N   0  0  0  0  0 15  0  0  0  0  0  0
    8.3205   -2.2547    0.6072 C   0  0  0  0  0 15  0  0  0  0  0  0
    9.3015   -1.6585   -0.3777 C   0  0  0  0  0 15  0  0  0  0  0  0
   10.4865   -1.9241   -0.2631 O   0  0  0  0  0 15  0  0  0  0  0  0
    7.6165   -3.4726   -0.0553 C   0  0  0  0  0 15  0  0  0  0  0  0
    6.5705   -4.1946    0.8506 C   0  0  0  0  0 15  0  0  0  0  0  0
    5.8965   -5.3467    0.0539 C   0  0  0  0  0 15  0  0  0  0  0  0
    7.1965   -4.7560    2.1587 C   0  0  0  0  0 15  0  0  0  0  0  0
    8.8905   -2.5996    1.4853 H   0  0  0  0  0 15  0  0  0  0  0  0
    6.4365   -1.2496    0.7156 H   0  0  0  0  0 15  0  0  0  0  0  0
    8.3895   -4.1992   -0.3532 H   0  0  0  0  0 15  0  0  0  0  0  0
    7.1135   -3.1192   -0.9680 H   0  0  0  0  0 15  0  0  0  0  0  0
    5.7725   -3.4867    1.1326 H   0  0  0  0  0 15  0  0  0  0  0  0
    5.4205   -4.9558   -0.8605 H   0  0  0  0  0 15  0  0  0  0  0  0
    5.1205   -5.8391    0.6572 H   0  0  0  0  0 15  0  0  0  0  0  0
    6.6445   -6.1014   -0.2376 H   0  0  0  0  0 15  0  0  0  0  0  0
    8.0585   -5.4008    1.9231 H   0  0  0  0  0 15  0  0  0  0  0  0
    6.4555   -5.3528    2.7128 H   0  0  0  0  0 15  0  0  0  0  0  0
    7.5255   -3.9435    2.8217 H   0  0  0  0  0 15  0  0  0  0  0  0
    8.8686   -0.7928   -1.3621 N   0  0  0  0  0 15  0  0  0  0  0  0
   10.0936   -0.3777   -2.0393 C   0  0  0  0  0 15  0  0  0  0  0  0
   10.5186    0.9989   -1.5938 C   0  0  0  0  0 15  0  0  0  0  0  0
    9.8766    1.6442   -0.7639 O   0  0  0  0  0 15  0  0  0  0  0  0
    9.9246   -0.4536   -3.5774 C   0  0  0  0  0 15  0  0  0  0  0  0
    9.0286    0.5382   -4.0887 O   0  0  0  0  0 15  0  0  0  0  0  0
    8.3696   -0.1599   -0.6445 H   0  0  0  0  0 15  0  0  0  0  0  0
   10.8996   -1.0749   -1.7409 H   0  0  0  0  0 15  0  0  0  0  0  0
   10.9096   -0.3185   -4.0676 H   0  0  0  0  0 15  0  0  0  0  0  0
    9.5846   -1.4578   -3.8951 H   0  0  0  0  0 15  0  0  0  0  0  0
    8.1616    0.3644   -3.7112 H   0  0  0  0  0 15  0  0  0  0  0  0
   10.3467    1.4787   -0.5451 N   0  0  0  0  0 15  0  0  0  0  0  0
   11.5947    2.0209   -0.0166 C   0  0  0  0  0 15  0  0  0  0  0  0
   11.9157    1.4231    1.3332 C   0  0  0  0  0 15  0  0  0  0  0  0
   11.1857    0.5939    1.8668 O   0  0  0  0  0 15  0  0  0  0  0  0
    9.7657    0.7470   -0.0031 H   0  0  0  0  0 15  0  0  0  0  0  0
   12.4277    1.8141   -0.7124 H   0  0  0  0  0 15  0  0  0  0  0  0
   11.5237    3.1200    0.0805 H   0  0  0  0  0 15  0  0  0  0  0  0
   11.8248    0.2810    1.5507 N   0  0  0  0  0 15  0  0  0  0  0  0
   12.7548   -0.5975    2.2573 C   0  0  0  0  0 15  0  0  0  0  0  0
   13.7358   -1.1542    1.2495 C   0  0  0  0  0 15  0  0  0  0  0  0
   14.9208   -1.1872    1.5368 O   0  0  0  0  0 15  0  0  0  0  0  0
   12.0508   -1.7789    2.9828 C   0  0  0  0  0 15  0  0  0  0  0  0
   11.0048   -1.3535    4.0604 C   0  0  0  0  0 15  0  0  0  0  0  0
   10.3308   -2.6185    4.6620 C   0  0  0  0  0 15  0  0  0  0  0  0
   11.6308   -0.4994    5.1991 C   0  0  0  0  0 15  0  0  0  0  0  0
   13.3248   -0.0082    2.9940 H   0  0  0  0  0 15  0  0  0  0  0  0
   10.8708   -0.0025    1.4400 H   0  0  0  0  0 15  0  0  0  0  0  0
   12.8238   -2.3994    3.4642 H   0  0  0  0  0 15  0  0  0  0  0  0
   11.5478   -2.3940    2.2216 H   0  0  0  0  0 15  0  0  0  0  0  0
   10.2068   -0.7562    3.5872 H   0  0  0  0  0 15  0  0  0  0  0  0
    9.8548   -3.2163    3.8673 H   0  0  0  0  0 15  0  0  0  0  0  0
    9.5548   -2.3409    5.3896 H   0  0  0  0  0 15  0  0  0  0  0  0
   11.0788   -3.2473    5.1709 H   0  0  0  0  0 15  0  0  0  0  0  0
   12.4928   -1.0250    5.6406 H   0  0  0  0  0 15  0  0  0  0  0  0
   10.8898   -0.3164    5.9927 H   0  0  0  0  0 15  0  0  0  0  0  0
   11.9598    0.4805    4.8251 H   0  0  0  0  0 15  0  0  0  0  0  0
   13.3029   -1.5760    0.0084 N   0  0  0  0  0 15  0  0  0  0  0  0
   14.5309   -1.9521   -0.6855 C   0  0  0  0  0 15  0  0  0  0  0  0
   14.9459   -0.8837   -1.6684 C   0  0  0  0  0 15  0  0  0  0  0  0
   14.3029    0.1366   -1.8199 O   0  0  0  0  0 15  0  0  0  0  0  0
   14.3539   -3.3287   -1.4101 C   0  0  0  0  0 15  0  0  0  0  0  0
   14.0749   -4.3561   -0.4666 O   0  0  0  0  0 15  0  0  0  0  0  0
   15.5759   -3.8499   -2.1977 C   0  0  0  0  0 15  0  0  0  0  0  0
   12.7959   -0.6434   -0.1904 H   0  0  0  0  0 15  0  0  0  0  0  0
   15.3399   -2.0441    0.0620 H   0  0  0  0  0 15  0  0  0  0  0  0
   13.4949   -3.2496   -2.1091 H   0  0  0  0  0 15  0  0  0  0  0  0
   13.9089   -5.1529   -0.9787 H   0  0  0  0  0 15  0  0  0  0  0  0
   15.3829   -4.8371   -2.6595 H   0  0  0  0  0 15  0  0  0  0  0  0
   15.8599   -3.1814   -3.0280 H   0  0  0  0  0 15  0  0  0  0  0  0
   16.4659   -3.9610   -1.5486 H   0  0  0  0  0 15  0  0  0  0  0  0
   14.7810    0.2645   -1.5536 N   0  0  0  0  0 15  0  0  0  0  0  0
   15.6910    1.3490   -1.9193 C   0  0  0  0  0 15  0  0  0  0  0  0
   16.7070    1.5359   -0.8176 C   0  0  0  0  0 15  0  0  0  0  0  0
   17.8830    1.6756   -1.1174 O   0  0  0  0  0 15  0  0  0  0  0  0
   14.9480    2.6868   -2.1912 C   0  0  0  0  0 15  0  0  0  0  0  0
   14.0090    2.5866   -3.4263 C   0  0  0  0  0 15  0  0  0  0  0  0
   13.2420    3.8605   -3.6851 C   0  0  0  0  0 15  0  0  0  0  0  0
   13.4650    4.8713   -2.9676 O   0  0  0  0  0 15  0  0  0  0  0  0
   12.3990    3.8574   -4.6204 O   0  0  0  0  0 15  0  0  0  0  0  0
   16.2250    1.0688   -2.8427 H   0  0  0  0  0 15  0  0  0  0  0  0
   13.8100    0.4638   -1.4202 H   0  0  0  0  0 15  0  0  0  0  0  0
   15.6920    3.4776   -2.3799 H   0  0  0  0  0 15  0  0  0  0  0  0
   14.3670    2.9646   -1.2997 H   0  0  0  0  0 15  0  0  0  0  0  0
   13.2740    1.7792   -3.2908 H   0  0  0  0  0 15  0  0  0  0  0  0
   14.6070    2.3582   -4.3203 H   0  0  0  0  0 15  0  0  0  0  0  0
   16.2591    1.4844    0.5294 N   0  0  0  0  0 15  0  0  0  0  0  0
   17.1691    1.6569    1.6608 C   0  0  0  0  0 15  0  0  0  0  0  0
   18.1851    0.5394    1.6543 C   0  0  0  0  0 15  0  0  0  0  0  0
   19.3611    0.8106    1.8437 O   0  0  0  0  0 15  0  0  0  0  0  0
   16.4261    1.6932    3.0254 C   0  0  0  0  0 15  0  0  0  0  0  0
   15.4871    2.9269    3.1405 C   0  0  0  0  0 15  0  0  0  0  0  0
   14.7201    2.9614    4.4400 C   0  0  0  0  0 15  0  0  0  0  0  0
   14.9431    2.0797    5.3113 O   0  0  0  0  0 15  0  0  0  0  0  0
   13.8771    3.8831    4.5989 O   0  0  0  0  0 15  0  0  0  0  0  0
   17.7031    2.6148    1.5447 H   0  0  0  0  0 15  0  0  0  0  0  0
   15.2881    1.3185    0.7026 H   0  0  0  0  0 15  0  0  0  0  0  0
   17.1701    1.7422    3.8370 H   0  0  0  0  0 15  0  0  0  0  0  0
   15.8451    0.7670    3.1448 H   0  0  0  0  0 15  0  0  0  0  0  0
   14.7521    2.9332    2.3219 H   0  0  0  0  0 15  0  0  0  0  0  0
   16.0851    3.8470    3.0703 H   0  0  0  0  0 15  0  0  0  0  0  0
   17.7372   -0.7783    1.3704 N   0  0  0  0  0 15  0  0  0  0  0  0
   18.6472   -1.9225    1.3445 C   0  0  0  0  0 15  0  0  0  0  0  0
   19.6632   -1.7227    0.2450 C   0  0  0  0  0 15  0  0  0  0  0  0
   20.8392   -1.9561    0.4793 O   0  0  0  0  0 15  0  0  0  0  0  0
   17.9042   -3.2728    1.1440 C   0  0  0  0  0 15  0  0  0  0  0  0
   16.9652   -3.5997    2.3393 C   0  0  0  0  0 15  0  0  0  0  0  0
   16.1982   -4.8855    2.1483 C   0  0  0  0  0 15  0  0  0  0  0  0
   16.4212   -5.5911    1.1291 O   0  0  0  0  0 15  0  0  0  0  0  0
   15.3552   -5.2015    3.0286 O   0  0  0  0  0 15  0  0  0  0  0  0
   19.1812   -1.9739    2.3080 H   0  0  0  0  0 15  0  0  0  0  0  0
   16.7662   -0.9202    1.1770 H   0  0  0  0  0 15  0  0  0  0  0  0
   18.6482   -4.0806    1.0518 H   0  0  0  0  0 15  0  0  0  0  0  0
   17.3232   -3.2301    0.2111 H   0  0  0  0  0 15  0  0  0  0  0  0
   16.2302   -2.7945    2.4871 H   0  0  0  0  0 15  0  0  0  0  0  0
   17.5632   -3.6898    3.2576 H   0  0  0  0  0 15  0  0  0  0  0  0
   19.2153   -1.2150   -1.0038 N   0  0  0  0  0 15  0  0  0  0  0  0
   20.1783   -0.9769   -2.0734 C   0  0  0  0  0 15  0  0  0  0  0  0
   21.1783    0.0525   -1.6071 C   0  0  0  0  0 15  0  0  0  0  0  0
   22.3683   -0.1849   -1.7322 O   0  0  0  0  0 15  0  0  0  0  0  0
   19.5003   -0.4734   -3.3760 C   0  0  0  0  0 15  0  0  0  0  0  0
   20.6933   -1.9259   -2.2989 H   0  0  0  0  0 15  0  0  0  0  0  0
   18.2463   -1.0322   -1.1737 H   0  0  0  0  0 15  0  0  0  0  0  0
   18.9813    0.4804   -3.2072 H   0  0  0  0  0 15  0  0  0  0  0  0
   18.7663   -1.2160   -3.7277 H   0  0  0  0  0 15  0  0  0  0  0  0
   20.2563   -0.3268   -4.1632 H   0  0  0  0  0 15  0  0  0  0  0  0
   20.6934    1.1989   -1.0230 N   0  0  0  0  0 15  0  0  0  0  0  0
   21.9424    1.8874   -0.7113 C   0  0  0  0  0 15  0  0  0  0  0  0
   22.2554    1.8011    0.7628 C   0  0  0  0  0 15  0  0  0  0  0  0
   23.4614    2.4416    1.1873 O   0  0  0  0  0 15  0  0  0  0  0  0
   21.9174    3.3852   -1.2218 C   0  0  0  0  0 15  0  0  0  0  0  0
   21.5254    3.5573   -2.7233 C   0  0  0  0  0 15  0  0  0  0  0  0
   23.2694    4.1289   -0.9859 C   0  0  0  0  0 15  0  0  0  0  0  0
   21.1764    4.9937   -3.1684 C   0  0  0  0  0 15  0  0  0  0  0  0
   20.1064    0.7069   -0.2624 H   0  0  0  0  0 15  0  0  0  0  0  0
   22.7574    1.3559   -1.2365 H   0  0  0  0  0 15  0  0  0  0  0  0
   21.1394    3.9104   -0.6246 H   0  0  0  0  0 15  0  0  0  0  0  0
   22.3134    3.1356   -3.3766 H   0  0  0  0  0 15  0  0  0  0  0  0
   20.6284    2.9474   -2.9414 H   0  0  0  0  0 15  0  0  0  0  0  0
   23.2254    5.1881   -1.2937 H   0  0  0  0  0 15  0  0  0  0  0  0
   23.5684    4.1623    0.0775 H   0  0  0  0  0 15  0  0  0  0  0  0
   24.1014    3.6649   -1.5468 H   0  0  0  0  0 15  0  0  0  0  0  0
   20.8404    5.0119   -4.2248 H   0  0  0  0  0 15  0  0  0  0  0  0
   20.3604    5.4232   -2.5623 H   0  0  0  0  0 15  0  0  0  0  0  0
   22.0394    5.6799   -3.0984 H   0  0  0  0  0 15  0  0  0  0  0  0
   22.1715    0.8000    1.3578 N   0  0  0  0  0 15  0  0  0  0  0  0
   23.1345    0.2116    2.2822 C   0  0  0  0  0 15  0  0  0  0  0  0
   24.1345   -0.5973    1.4930 C   0  0  0  0  0 15  0  0  0  0  0  0
   25.3245   -0.4167    1.6914 O   0  0  0  0  0 15  0  0  0  0  0  0
   22.4565   -0.7058    3.3351 C   0  0  0  0  0 15  0  0  0  0  0  0
   23.6495    1.0268    2.8178 H   0  0  0  0  0 15  0  0  0  0  0  0
   21.2025    0.5702    1.4553 H   0  0  0  0  0 15  0  0  0  0  0  0
   21.9375   -1.5450    2.8513 H   0  0  0  0  0 15  0  0  0  0  0  0
   21.7225   -0.1277    3.9189 H   0  0  0  0  0 15  0  0  0  0  0  0
   23.2125   -1.1121    4.0252 H   0  0  0  0  0 15  0  0  0  0  0  0
   23.6496   -1.4758    0.5530 N   0  0  0  0  0 15  0  0  0  0  0  0
   24.8956   -2.0278    0.0274 C   0  0  0  0  0 15  0  0  0  0  0  0
   25.2286   -1.4269   -1.3173 C   0  0  0  0  0 15  0  0  0  0  0  0
   24.5036   -0.5809   -1.8562 O   0  0  0  0  0 15  0  0  0  0  0  0
   24.7866   -3.6003   -0.0702 C   0  0  0  0  0 15  0  0  0  0  0  0
   24.6396   -4.3057    1.3013 C   0  0  0  0  0 15  0  0  0  0  0  0
   25.9586   -4.3303   -0.7858 C   0  0  0  0  0 15  0  0  0  0  0  0
   23.0776   -0.7369    0.0114 H   0  0  0  0  0 15  0  0  0  0  0  0
   25.7196   -1.7606    0.7144 H   0  0  0  0  0 15  0  0  0  0  0  0
   23.8696   -3.8293   -0.6554 H   0  0  0  0  0 15  0  0  0  0  0  0
   25.5416   -4.1902    1.9293 H   0  0  0  0  0 15  0  0  0  0  0  0
   23.7846   -3.9109    1.8771 H   0  0  0  0  0 15  0  0  0  0  0  0
   24.4556   -5.3911    1.1857 H   0  0  0  0  0 15  0  0  0  0  0  0
   26.9316   -4.1510   -0.2890 H   0  0  0  0  0 15  0  0  0  0  0  0
   25.8076   -5.4269   -0.8230 H   0  0  0  0  0 15  0  0  0  0  0  0
   26.0686   -4.0194   -1.8410 H   0  0  0  0  0 15  0  0  0  0  0  0
   25.1277   -0.2892   -1.5492 N   0  0  0  0  0 15  0  0  0  0  0  0
   26.0777    0.6069   -2.1977 C   0  0  0  0  0 15  0  0  0  0  0  0
   27.0617    1.1078   -1.1669 C   0  0  0  0  0 15  0  0  0  0  0  0
   28.2537    1.0506   -1.4245 O   0  0  0  0  0 15  0  0  0  0  0  0
   25.3827    1.7840   -2.9331 C   0  0  0  0  0 15  0  0  0  0  0  0
   24.4687    1.2996   -4.0370 C   0  0  0  0  0 15  0  0  0  0  0  0
   24.8597    0.5324   -5.0299 N   0  0  0  0  0 15  0  0  0  0  0  0
   23.1577    1.5814   -4.1702 C   0  0  0  0  0 15  0  0  0  0  0  0
   23.8587    0.2759   -5.8105 C   0  0  0  0  0 15  0  0  0  0  0  0
   22.8347    0.8524   -5.3688 N   0  0  0  0  0 15  0  0  0  0  0  0
   26.6367    0.0131   -2.9390 H   0  0  0  0  0 15  0  0  0  0  0  0
   24.1507   -0.0934   -1.6213 H   0  0  0  0  0 15  0  0  0  0  0  0
   26.1477    2.4374   -3.3822 H   0  0  0  0  0 15  0  0  0  0  0  0
   24.8077    2.3817   -2.2070 H   0  0  0  0  0 15  0  0  0  0  0  0
   25.8187    0.1784   -5.1759 H   0  0  0  0  0 15  0  0  0  0  0  0
   22.4957    2.1874   -3.5561 H   0  0  0  0  0 15  0  0  0  0  0  0
   23.8857   -0.3395   -6.7104 H   0  0  0  0  0 15  0  0  0  0  0  0
   26.6058    1.5759   -0.0167 N   0  0  0  0  0 15  0  0  0  0  0  0
   27.8828    1.8255    0.7026 C   0  0  0  0  0 15  0  0  0  0  0  0
   28.2628    0.8980    1.9105 C   0  0  0  0  0 15  0  0  0  0  0  0
   27.6108   -0.0493    2.2845 O   0  0  0  0  0 15  0  0  0  0  0  0
   27.8208    3.3146    1.0925 C   0  0  0  0  0 15  0  0  0  0  0  0
   29.1688    3.9762    1.4894 C   0  0  0  0  0 15  0  0  0  0  0  0
   30.1928    3.3588    1.1858 O   0  0  0  0  0 15  0  0  0  0  0  0
   29.0518    5.0641    2.0544 O   0  0  0  0  0 15  0  0  0  0  0  0
   26.1458    0.7523    0.3435 H   0  0  0  0  0 15  0  0  0  0  0  0
   28.6918    1.6964   -0.0434 H   0  0  0  0  0 15  0  0  0  0  0  0
   27.4638    3.9061    0.2323 H   0  0  0  0  0 15  0  0  0  0  0  0
   27.0868    3.4942    1.8971 H   0  0  0  0  0 15  0  0  0  0  0  0
   28.0839   -0.2563    1.5550 N   0  0  0  0  0 15  0  0  0  0  0  0
   29.0159   -1.3398    1.8596 C   0  0  0  0  0 15  0  0  0  0  0  0
   30.0289   -1.4474    0.7452 C   0  0  0  0  0 15  0  0  0  0  0  0
   31.2179   -1.4626    1.0232 O   0  0  0  0  0 15  0  0  0  0  0  0
   28.3179   -2.7194    2.0224 C   0  0  0  0  0 15  0  0  0  0  0  0
   27.4909   -2.8356    3.3303 C   0  0  0  0  0 15  0  0  0  0  0  0
   26.5499   -4.0230    3.3917 C   0  0  0  0  0 15  0  0  0  0  0  0
   25.5759   -3.9227    4.1244 O   0  0  0  0  0 15  0  0  0  0  0  0
   26.7779   -5.1505    2.6778 N   0  0  0  0  0 15  0  0  0  0  0  0
   29.5429   -1.0819    2.7949 H   0  0  0  0  0 15  0  0  0  0  0  0
   27.1039   -0.4464    1.5562 H   0  0  0  0  0 15  0  0  0  0  0  0
   29.0959   -3.4970    2.0370 H   0  0  0  0  0 15  0  0  0  0  0  0
   27.6659   -2.9048    1.1550 H   0  0  0  0  0 15  0  0  0  0  0  0
   26.8859   -1.9256    3.4397 H   0  0  0  0  0 15  0  0  0  0  0  0
   28.1739   -2.8827    4.1926 H   0  0  0  0  0 15  0  0  0  0  0  0
   27.5719   -5.2609    2.0797 H   0  0  0  0  0 15  0  0  0  0  0  0
   26.1289   -5.9097    2.7495 H   0  0  0  0  0 15  0  0  0  0  0  0
   29.5620   -1.4872   -0.5215 N   0  0  0  0  0 15  0  0  0  0  0  0
   30.8090   -1.5717   -1.2769 C   0  0  0  0  0 15  0  0  0  0  0  0
   31.1370   -0.2493   -1.9290 C   0  0  0  0  0 15  0  0  0  0  0  0
   30.3920    0.7612   -1.8029 O   0  0  0  0  0 15  0  0  0  0  0  0
   30.6910   -2.6650   -2.3815 C   0  0  0  0  0 15  0  0  0  0  0  0
   30.3570   -4.0866   -1.9054 C   0  0  0  0  0 15  0  0  0  0  0  0
   29.0190   -4.4736   -1.7727 C   0  0  0  0  0 15  0  0  0  0  0  0
   31.3710   -4.9772   -1.5466 C   0  0  0  0  0 15  0  0  0  0  0  0
   28.6990   -5.7291   -1.2648 C   0  0  0  0  0 15  0  0  0  0  0  0
   31.0510   -6.2377   -1.0533 C   0  0  0  0  0 15  0  0  0  0  0  0
   29.7150   -6.6131   -0.9069 C   0  0  0  0  0 15  0  0  0  0  0  0
   28.9850   -0.5751   -0.4672 H   0  0  0  0  0 15  0  0  0  0  0  0
   31.6320   -1.8247   -0.5811 H   0  0  0  0  0 15  0  0  0  0  0  0
   29.9370   -2.3508   -3.1344 H   0  0  0  0  0 15  0  0  0  0  0  0
   31.6340   -2.7025   -2.9626 H   0  0  0  0  0 15  0  0  0  0  0  0
   28.2240   -3.7811   -2.0182 H   0  0  0  0  0 15  0  0  0  0  0  0
   32.4080   -4.6850   -1.6377 H   0  0  0  0  0 15  0  0  0  0  0  0
   27.6640   -6.0071   -1.1384 H   0  0  0  0  0 15  0  0  0  0  0  0
   31.8380   -6.9217   -0.7664 H   0  0  0  0  0 15  0  0  0  0  0  0
   29.4650   -7.5848   -0.5111 H   0  0  0  0  0 15  0  0  0  0  0  0
   31.0401    0.7711   -1.3745 N   0  0  0  0  0 15  0  0  0  0  0  0
   31.9871    1.8844   -1.3327 C   0  0  0  0  0 15  0  0  0  0  0  0
   32.9571    1.6491   -0.1981 C   0  0  0  0  0 15  0  0  0  0  0  0
   34.1421    1.8682   -0.3876 O   0  0  0  0  0 15  0  0  0  0  0  0
   31.2821    3.2551   -1.1462 C   0  0  0  0  0 15  0  0  0  0  0  0
   30.3951    3.6098   -2.3731 C   0  0  0  0  0 15  0  0  0  0  0  0
   29.5301    4.8727   -2.1153 C   0  0  0  0  0 15  0  0  0  0  0  0
   28.5691    5.1547   -3.3009 C   0  0  0  0  0 15  0  0  0  0  0  0
   27.7061    6.3294   -3.0385 N   0  0  0  0  0 15  0  0  0  0  0  0
   32.5461    1.9134   -2.2845 H   0  0  0  0  0 15  0  0  0  0  0  0
   30.0831    0.9355   -1.1352 H   0  0  0  0  0 15  0  0  0  0  0  0
   32.0411    4.0458   -1.0183 H   0  0  0  0  0 15  0  0  0  0  0  0
   30.6711    3.2197   -0.2308 H   0  0  0  0  0 15  0  0  0  0  0  0
   29.7231    2.7689   -2.6084 H   0  0  0  0  0 15  0  0  0  0  0  0
   31.0351    3.7776   -3.2573 H   0  0  0  0  0 15  0  0  0  0  0  0
   30.1891    5.7424   -1.9578 H   0  0  0  0  0 15  0  0  0  0  0  0
   28.9281    4.7259   -1.2046 H   0  0  0  0  0 15  0  0  0  0  0  0
   27.9331    4.2697   -3.4638 H   0  0  0  0  0 15  0  0  0  0  0  0
   29.1581    5.3205   -4.2202 H   0  0  0  0  0 15  0  0  0  0  0  0
   27.1041    6.1963   -2.1541 H   0  0  0  0  0 15  0  0  0  0  0  0
   27.0211    6.5014   -3.8581 H   0  0  0  0  0 15  0  0  0  0  0  0
   28.2891    7.2286   -2.9172 H   0  0  0  0  0 15  0  0  0  0  0  0
   32.5182    1.2203    0.9973 N   0  0  0  0  0 15  0  0  0  0  0  0
   33.7462    1.0684    1.7718 C   0  0  0  0  0 15  0  0  0  0  0  0
   34.1612   -0.3813    1.8491 C   0  0  0  0  0 15  0  0  0  0  0  0
   33.5182   -1.2644    1.3161 O   0  0  0  0  0 15  0  0  0  0  0  0
   33.5692    1.6681    3.2071 C   0  0  0  0  0 15  0  0  0  0  0  0
   33.2902    3.0612    3.1341 O   0  0  0  0  0 15  0  0  0  0  0  0
   34.7912    1.5684    4.1463 C   0  0  0  0  0 15  0  0  0  0  0  0
   32.0112    0.3748    0.5566 H   0  0  0  0  0 15  0  0  0  0  0  0
   34.5552    1.6153    1.2541 H   0  0  0  0  0 15  0  0  0  0  0  0
   32.7102    1.1620    3.6956 H   0  0  0  0  0 15  0  0  0  0  0  0
   33.1242    3.3493    4.0364 H   0  0  0  0  0 15  0  0  0  0  0  0
   34.5982    2.0353    5.1311 H   0  0  0  0  0 15  0  0  0  0  0  0
   35.0752    0.5242    4.3606 H   0  0  0  0  0 15  0  0  0  0  0  0
   35.6812    2.0674    3.7167 H   0  0  0  0  0 15  0  0  0  0  0  0
   33.9963   -1.1934    1.0293 N   0  0  0  0  0 15  0  0  0  0  0  0
   35.2243   -1.9300    0.7456 C   0  0  0  0  0 15  0  0  0  0  0  0
   35.6393   -1.7552   -0.6956 C   0  0  0  0  0 15  0  0  0  0  0  0
   34.9963   -1.0774   -1.4731 O   0  0  0  0  0 15  0  0  0  0  0  0
   35.0473   -3.4474    1.0879 C   0  0  0  0  0 15  0  0  0  0  0  0
   34.7683   -3.6166    2.4726 O   0  0  0  0  0 15  0  0  0  0  0  0
   36.2693   -4.3552    0.8271 C   0  0  0  0  0 15  0  0  0  0  0  0
   33.4893   -0.6130    0.2728 H   0  0  0  0  0 15  0  0  0  0  0  0
   36.0333   -1.5147    1.3739 H   0  0  0  0  0 15  0  0  0  0  0  0
   34.1883   -3.8410    0.5048 H   0  0  0  0  0 15  0  0  0  0  0  0
   34.6023   -4.5551    2.6001 H   0  0  0  0  0 15  0  0  0  0  0  0
   36.0763   -5.4059    1.1166 H   0  0  0  0  0 15  0  0  0  0  0  0
   36.5533   -4.3855   -0.2384 H   0  0  0  0  0 15  0  0  0  0  0  0
   37.1593   -4.0184    1.3930 H   0  0  0  0  0 15  0  0  0  0  0  0
   35.4744   -0.8072   -1.3536 N   0  0  0  0  0 15  0  0  0  0  0  0
   36.7214   -0.3879   -1.9875 C   0  0  0  0  0 15  0  0  0  0  0  0
   37.0494    1.0451   -1.6404 C   0  0  0  0  0 15  0  0  0  0  0  0
   36.3044    1.7399   -0.8959 O   0  0  0  0  0 15  0  0  0  0  0  0
   36.6034   -0.5190   -3.5361 C   0  0  0  0  0 15  0  0  0  0  0  0
   36.2694   -1.9154   -4.0819 C   0  0  0  0  0 15  0  0  0  0  0  0
   34.9314   -2.2974   -4.2281 C   0  0  0  0  0 15  0  0  0  0  0  0
   37.2834   -2.8290   -4.3774 C   0  0  0  0  0 15  0  0  0  0  0  0
   34.6114   -3.5867   -4.6430 C   0  0  0  0  0 15  0  0  0  0  0  0
   36.9634   -4.1127   -4.8067 C   0  0  0  0  0 15  0  0  0  0  0  0
   35.6274   -4.4947   -4.9349 C   0  0  0  0  0 15  0  0  0  0  0  0
   34.8974   -0.1419   -0.7273 H   0  0  0  0  0 15  0  0  0  0  0  0
   37.5444   -1.0281   -1.6156 H   0  0  0  0  0 15  0  0  0  0  0  0
   35.8494    0.2047   -3.9127 H   0  0  0  0  0 15  0  0  0  0  0  0
   37.5464   -0.1753   -4.0062 H   0  0  0  0  0 15  0  0  0  0  0  0
   34.1364   -1.6086   -3.9727 H   0  0  0  0  0 15  0  0  0  0  0  0
   38.3204   -2.5463   -4.2600 H   0  0  0  0  0 15  0  0  0  0  0  0
   33.5764   -3.8811   -4.7242 H   0  0  0  0  0 15  0  0  0  0  0  0
   37.7504   -4.8215   -5.0250 H   0  0  0  0  0 15  0  0  0  0  0  0
   35.3774   -5.4942   -5.2540 H   0  0  0  0  0 15  0  0  0  0  0  0
   36.9525    1.4729   -0.5608 N   0  0  0  0  0 15  0  0  0  0  0  0
   38.1775    2.0736   -0.0411 C   0  0  0  0  0 15  0  0  0  0  0  0
   38.6025    1.4102    1.2448 C   0  0  0  0  0 15  0  0  0  0  0  0
   37.9605    0.4864    1.7465 O   0  0  0  0  0 15  0  0  0  0  0  0
   38.0085    3.6035    0.1341 C   0  0  0  0  0 15  0  0  0  0  0  0
   37.1125    3.9468    1.1959 O   0  0  0  0  0 15  0  0  0  0  0  0
   36.4535    0.6619   -0.0529 H   0  0  0  0  0 15  0  0  0  0  0  0
   38.9835    1.8925   -0.7775 H   0  0  0  0  0 15  0  0  0  0  0  0
   38.9935    4.0652    0.3472 H   0  0  0  0  0 15  0  0  0  0  0  0
   37.6685    4.0803   -0.8050 H   0  0  0  0  0 15  0  0  0  0  0  0
   36.2455    3.6025    0.9630 H   0  0  0  0  0 15  0  0  0  0  0  0
   38.4306    0.2974    1.5477 N   0  0  0  0  0 15  0  0  0  0  0  0
   39.3936   -0.5674    2.2207 C   0  0  0  0  0 15  0  0  0  0  0  0
   40.3936   -1.0641    1.2056 C   0  0  0  0  0 15  0  0  0  0  0  0
   41.5836   -0.9607    1.4531 O   0  0  0  0  0 15  0  0  0  0  0  0
   38.7156   -1.7852    2.9042 C   0  0  0  0  0 15  0  0  0  0  0  0
   39.9086    0.0206    2.9989 H   0  0  0  0  0 15  0  0  0  0  0  0
   37.4616    0.0482    1.5623 H   0  0  0  0  0 15  0  0  0  0  0  0
   38.1966   -2.4130    2.1666 H   0  0  0  0  0 15  0  0  0  0  0  0
   37.9816   -1.4367    3.6483 H   0  0  0  0  0 15  0  0  0  0  0  0
   39.4716   -2.3996    3.4177 H   0  0  0  0  0 15  0  0  0  0  0  0
   39.9087   -1.5758    0.0251 N   0  0  0  0  0 15  0  0  0  0  0  0
   41.1557   -1.9163   -0.6544 C   0  0  0  0  0 15  0  0  0  0  0  0
   41.4837   -0.9011   -1.7237 C   0  0  0  0  0 15  0  0  0  0  0  0
   40.7387    0.0906   -1.9549 O   0  0  0  0  0 15  0  0  0  0  0  0
   41.0377   -3.3242   -1.3127 C   0  0  0  0  0 15  0  0  0  0  0  0
   40.7037   -4.4934   -0.3742 C   0  0  0  0  0 15  0  0  0  0  0  0
   39.3657   -4.8106   -0.1159 C   0  0  0  0  0 15  0  0  0  0  0  0
   41.7177   -5.2050    0.2704 C   0  0  0  0  0 15  0  0  0  0  0  0
   39.0457   -5.8129    0.7949 C   0  0  0  0  0 15  0  0  0  0  0  0
   41.3977   -6.2170    1.1693 C   0  0  0  0  0 15  0  0  0  0  0  0
   40.0617   -6.5186    1.4365 C   0  0  0  0  0 15  0  0  0  0  0  0
   39.3317   -0.7012   -0.2395 H   0  0  0  0  0 15  0  0  0  0  0  0
   41.9787   -1.9131    0.0860 H   0  0  0  0  0 15  0  0  0  0  0  0
   40.2837   -3.2899   -2.1278 H   0  0  0  0  0 15  0  0  0  0  0  0
   41.9807   -3.5604   -1.8449 H   0  0  0  0  0 15  0  0  0  0  0  0
   38.5707   -4.2458   -0.5857 H   0  0  0  0  0 15  0  0  0  0  0  0
   42.7547   -4.9623    0.0839 H   0  0  0  0  0 15  0  0  0  0  0  0
   38.0107   -6.0300    1.0097 H   0  0  0  0  0 15  0  0  0  0  0  0
   42.1847   -6.7596    1.6750 H   0  0  0  0  0 15  0  0  0  0  0  0
   39.8117   -7.2934    2.1440 H   0  0  0  0  0 15  0  0  0  0  0  0
   41.3868    0.2480   -1.5564 N   0  0  0  0  0 15  0  0  0  0  0  0
   42.6358    0.9741   -1.7662 C   0  0  0  0  0 15  0  0  0  0  0  0
   42.9488    1.8653   -0.5888 C   0  0  0  0  0 15  0  0  0  0  0  0
   44.1548    2.6281   -0.6816 O   0  0  0  0  0 15  0  0  0  0  0  0
   42.6108    1.7821   -3.1268 C   0  0  0  0  0 15  0  0  0  0  0  0
   42.2188    0.9384   -4.3806 C   0  0  0  0  0 15  0  0  0  0  0  0
   43.9628    2.5010   -3.4300 C   0  0  0  0  0 15  0  0  0  0  0  0
   41.8698    1.7422   -5.6515 C   0  0  0  0  0 15  0  0  0  0  0  0
   40.7998    0.3674   -0.6584 H   0  0  0  0  0 15  0  0  0  0  0  0
   43.4508    0.2288   -1.8207 H   0  0  0  0  0 15  0  0  0  0  0  0
   41.8328    2.5693   -3.0133 H   0  0  0  0  0 15  0  0  0  0  0  0
   43.0068    0.1936   -4.6039 H   0  0  0  0  0 15  0  0  0  0  0  0
   41.3218    0.3329   -4.1507 H   0  0  0  0  0 15  0  0  0  0  0  0
   43.9188    3.1069   -4.3517 H   0  0  0  0  0 15  0  0  0  0  0  0
   44.2618    3.2166   -2.6427 H   0  0  0  0  0 15  0  0  0  0  0  0
   44.7948    1.7839   -3.5556 H   0  0  0  0  0 15  0  0  0  0  0  0
   41.5338    1.0704   -6.4670 H   0  0  0  0  0 15  0  0  0  0  0  0
   41.0538    2.4624   -5.4693 H   0  0  0  0  0 15  0  0  0  0  0  0
   42.7328    2.3097   -6.0437 H   0  0  0  0  0 15  0  0  0  0  0  0
   42.8649    1.4899    0.5136 N   0  0  0  0  0 15  0  0  0  0  0  0
   44.1139    1.5709    1.2651 C   0  0  0  0  0 15  0  0  0  0  0  0
   44.4269    0.2571    1.9390 C   0  0  0  0  0 15  0  0  0  0  0  0
   45.6329    0.2165    2.7064 O   0  0  0  0  0 15  0  0  0  0  0  0
   44.0889    2.7712    2.2964 C   0  0  0  0  0 15  0  0  0  0  0  0
   43.6969    4.1521    1.6824 C   0  0  0  0  0 15  0  0  0  0  0  0
   45.4409    2.9454    3.0569 C   0  0  0  0  0 15  0  0  0  0  0  0
   43.3479    5.2647    2.6941 C   0  0  0  0  0 15  0  0  0  0  0  0
   42.2779    0.5849    0.4759 H   0  0  0  0  0 15  0  0  0  0  0  0
   44.9289    1.7536    0.5405 H   0  0  0  0  0 15  0  0  0  0  0  0
   43.3109    2.5232    3.0521 H   0  0  0  0  0 15  0  0  0  0  0  0
   44.4849    4.5009    0.9875 H   0  0  0  0  0 15  0  0  0  0  0  0
   42.7999    4.0304    1.0462 H   0  0  0  0  0 15  0  0  0  0  0  0
   45.3969    3.7483    3.8132 H   0  0  0  0  0 15  0  0  0  0  0  0
   45.7399    2.0461    3.6254 H   0  0  0  0  0 15  0  0  0  0  0  0
   46.2729    3.1932    2.3724 H   0  0  0  0  0 15  0  0  0  0  0  0
   43.0119    6.1842    2.1735 H   0  0  0  0  0 15  0  0  0  0  0  0
   42.5319    4.9606    3.3717 H   0  0  0  0  0 15  0  0  0  0  0  0
   44.2109    5.5528    3.3208 H   0  0  0  0  0 15  0  0  0  0  0  0
   44.3430   -0.7638    1.3786 N   0  0  0  0  0 15  0  0  0  0  0  0
   45.2730   -1.8910    1.3698 C   0  0  0  0  0 15  0  0  0  0  0  0
   46.2540   -1.6844    0.2372 C   0  0  0  0  0 15  0  0  0  0  0  0
   47.4390   -1.8918    0.4387 O   0  0  0  0  0 15  0  0  0  0  0  0
   44.5690   -3.2650    1.1839 C   0  0  0  0  0 15  0  0  0  0  0  0
   43.5230   -3.6174    2.2875 C   0  0  0  0  0 15  0  0  0  0  0  0
   42.8490   -4.9776    1.9529 C   0  0  0  0  0 15  0  0  0  0  0  0
   44.1490   -3.6766    3.7097 C   0  0  0  0  0 15  0  0  0  0  0  0
   45.8430   -1.9010    2.3131 H   0  0  0  0  0 15  0  0  0  0  0  0
   43.3890   -0.9132    1.1134 H   0  0  0  0  0 15  0  0  0  0  0  0
   45.3420   -4.0500    1.1641 H   0  0  0  0  0 15  0  0  0  0  0  0
   44.0660   -3.2595    0.2052 H   0  0  0  0  0 15  0  0  0  0  0  0
   42.7250   -2.8555    2.2991 H   0  0  0  0  0 15  0  0  0  0  0  0
   42.3730   -4.9377    0.9592 H   0  0  0  0  0 15  0  0  0  0  0  0
   42.0730   -5.2231    2.6919 H   0  0  0  0  0 15  0  0  0  0  0  0
   43.5970   -5.7866    1.9490 H   0  0  0  0  0 15  0  0  0  0  0  0
   45.0110   -4.3631    3.7190 H   0  0  0  0  0 15  0  0  0  0  0  0
   43.4080   -4.0372    4.4400 H   0  0  0  0  0 15  0  0  0  0  0  0
   44.4780   -2.6813    4.0402 H   0  0  0  0  0 15  0  0  0  0  0  0
   45.8211   -1.2256   -0.9908 N   0  0  0  0  0 15  0  0  0  0  0  0
   46.7841   -0.9989   -2.0629 C   0  0  0  0  0 15  0  0  0  0  0  0
   47.7841    0.0355   -1.6076 C   0  0  0  0  0 15  0  0  0  0  0  0
   48.9741   -0.2032   -1.7301 O   0  0  0  0  0 15  0  0  0  0  0  0
   46.1061   -0.5092   -3.3708 C   0  0  0  0  0 15  0  0  0  0  0  0
   47.2991   -1.9501   -2.2784 H   0  0  0  0  0 15  0  0  0  0  0  0
   44.8521   -1.0446   -1.1627 H   0  0  0  0  0 15  0  0  0  0  0  0
   45.5871    0.4463   -3.2121 H   0  0  0  0  0 15  0  0  0  0  0  0
   45.3721   -1.2555   -3.7146 H   0  0  0  0  0 15  0  0  0  0  0  0
   46.8621   -0.3709   -4.1595 H   0  0  0  0  0 15  0  0  0  0  0  0
   47.2992    1.1880   -1.0356 N   0  0  0  0  0 15  0  0  0  0  0  0
   48.2622    2.2046   -0.6268 C   0  0  0  0  0 15  0  0  0  0  0  0
   49.2622    1.5772    0.3132 C   0  0  0  0  0 15  0  0  0  0  0  0
   50.4522    1.7392    0.0993 O   0  0  0  0  0 15  0  0  0  0  0  0
   47.5842    3.4080    0.0818 C   0  0  0  0  0 15  0  0  0  0  0  0
   48.7772    2.5815   -1.5264 H   0  0  0  0  0 15  0  0  0  0  0  0
   46.3302    1.3259   -0.8276 H   0  0  0  0  0 15  0  0  0  0  0  0
   47.0652    3.0864    0.9955 H   0  0  0  0  0 15  0  0  0  0  0  0
   46.8502    3.8758   -0.5937 H   0  0  0  0  0 15  0  0  0  0  0  0
   48.3402    4.1609    0.3546 H   0  0  0  0  0 15  0  0  0  0  0  0
   48.7773    0.8144    1.3493 N   0  0  0  0  0 15  0  0  0  0  0  0
   50.0233    0.3990    1.9884 C   0  0  0  0  0 15  0  0  0  0  0  0
   50.3563   -1.0331    1.6444 C   0  0  0  0  0 15  0  0  0  0  0  0
   49.6313   -1.7181    0.9117 O   0  0  0  0  0 15  0  0  0  0  0  0
   49.9143    0.5916    3.5521 C   0  0  0  0  0 15  0  0  0  0  0  0
   49.7673    2.0693    3.9938 C   0  0  0  0  0 15  0  0  0  0  0  0
   51.0863    0.0222    4.4009 C   0  0  0  0  0 15  0  0  0  0  0  0
   48.2053    0.1465    0.7223 H   0  0  0  0  0 15  0  0  0  0  0  0
   50.8473    1.0254    1.5996 H   0  0  0  0  0 15  0  0  0  0  0  0
   48.9973    0.0584    3.8846 H   0  0  0  0  0 15  0  0  0  0  0  0
   50.6693    2.6654    3.7650 H   0  0  0  0  0 15  0  0  0  0  0  0
   48.9123    2.5629    3.5000 H   0  0  0  0  0 15  0  0  0  0  0  0
   49.5833    2.1549    5.0820 H   0  0  0  0  0 15  0  0  0  0  0  0
   52.0593    0.4776    4.1335 H   0  0  0  0  0 15  0  0  0  0  0  0
   50.9353    0.1868    5.4858 H   0  0  0  0  0 15  0  0  0  0  0  0
   51.1963   -1.0722    4.2890 H   0  0  0  0  0 15  0  0  0  0  0  0
   50.2554   -1.4699    0.5686 N   0  0  0  0  0 15  0  0  0  0  0  0
   51.2184   -2.2862   -0.1624 C   0  0  0  0  0 15  0  0  0  0  0  0
   52.2184   -1.3760   -0.8321 C   0  0  0  0  0 15  0  0  0  0  0  0
   53.4084   -1.6011   -0.6862 O   0  0  0  0  0 15  0  0  0  0  0  0
   50.5404   -3.1760   -1.2388 C   0  0  0  0  0 15  0  0  0  0  0  0
   51.7334   -2.9472    0.5549 H   0  0  0  0  0 15  0  0  0  0  0  0
   49.2864   -1.5286    0.3260 H   0  0  0  0  0 15  0  0  0  0  0  0
   50.0214   -2.5621   -1.9881 H   0  0  0  0  0 15  0  0  0  0  0  0
   49.8064   -3.8460   -0.7632 H   0  0  0  0  0 15  0  0  0  0  0  0
   51.2964   -3.7908   -1.7519 H   0  0  0  0  0 15  0  0  0  0  0  0
   51.7335   -0.3056   -1.5461 N   0  0  0  0  0 15  0  0  0  0  0  0
   52.6835    0.5836   -2.2040 C   0  0  0  0  0 15  0  0  0  0  0  0
   53.6675    1.0954   -1.1786 C   0  0  0  0  0 15  0  0  0  0  0  0
   54.8595    1.0354   -1.4356 O   0  0  0  0  0 15  0  0  0  0  0  0
   51.9885    1.7528   -2.9518 C   0  0  0  0  0 15  0  0  0  0  0  0
   51.0745    1.2567   -4.0505 C   0  0  0  0  0 15  0  0  0  0  0  0
   51.4655    0.4790   -5.0353 N   0  0  0  0  0 15  0  0  0  0  0  0
   49.7635    1.5370   -4.1868 C   0  0  0  0  0 15  0  0  0  0  0  0
   50.4645    0.2143   -5.8131 C   0  0  0  0  0 15  0  0  0  0  0  0
   49.4405    0.7954   -5.3775 N   0  0  0  0  0 15  0  0  0  0  0  0
   53.2425   -0.0181   -2.9389 H   0  0  0  0  0 15  0  0  0  0  0  0
   50.7565   -0.1106   -1.6202 H   0  0  0  0  0 15  0  0  0  0  0  0
   52.7535    2.4014   -3.4079 H   0  0  0  0  0 15  0  0  0  0  0  0
   51.4135    2.3581   -2.2321 H   0  0  0  0  0 15  0  0  0  0  0  0
   52.4245    0.1235   -5.1775 H   0  0  0  0  0 15  0  0  0  0  0  0
   49.1015    2.1495   -3.5791 H   0  0  0  0  0 15  0  0  0  0  0  0
   50.4915   -0.4107   -6.7064 H   0  0  0  0  0 15  0  0  0  0  0  0
   53.2116    1.5756   -0.0334 N   0  0  0  0  0 15  0  0  0  0  0  0
   54.4576    1.9226    0.6452 C   0  0  0  0  0 15  0  0  0  0  0  0
   54.7906    0.9105    1.7153 C   0  0  0  0  0 15  0  0  0  0  0  0
   54.0656   -0.0661    1.9439 O   0  0  0  0  0 15  0  0  0  0  0  0
   54.3486    3.3742    1.2577 C   0  0  0  0  0 15  0  0  0  0  0  0
   54.2016    4.4937    0.1969 C   0  0  0  0  0 15  0  0  0  0  0  0
   55.5206    3.8263    2.1745 C   0  0  0  0  0 15  0  0  0  0  0  0
   52.6396    0.6992    0.2331 H   0  0  0  0  0 15  0  0  0  0  0  0
   55.2816    1.8978   -0.0916 H   0  0  0  0  0 15  0  0  0  0  0  0
   53.4316    3.3967    1.8857 H   0  0  0  0  0 15  0  0  0  0  0  0
   55.1036    4.5925   -0.4340 H   0  0  0  0  0 15  0  0  0  0  0  0
   53.3466    4.3117   -0.4771 H   0  0  0  0  0 15  0  0  0  0  0  0
   54.0176    5.4798    0.6651 H   0  0  0  0  0 15  0  0  0  0  0  0
   56.4936    3.8214    1.6463 H   0  0  0  0  0 15  0  0  0  0  0  0
   55.3696    4.8488    2.5725 H   0  0  0  0  0 15  0  0  0  0  0  0
   55.6306    3.1838    3.0674 H   0  0  0  0  0 15  0  0  0  0  0  0
   54.6897   -0.2398    1.5577 N   0  0  0  0  0 15  0  0  0  0  0  0
   55.6197   -1.3005    1.9393 C   0  0  0  0  0 15  0  0  0  0  0  0
   56.6007   -1.4984    0.8051 C   0  0  0  0  0 15  0  0  0  0  0  0
   57.7857   -1.6233    1.0660 O   0  0  0  0  0 15  0  0  0  0  0  0
   54.9157   -2.6539    2.2402 C   0  0  0  0  0 15  0  0  0  0  0  0
   53.8697   -2.6029    3.3976 C   0  0  0  0  0 15  0  0  0  0  0  0
   53.1957   -3.9949    3.5540 C   0  0  0  0  0 15  0  0  0  0  0  0
   54.4957   -2.1665    4.7525 C   0  0  0  0  0 15  0  0  0  0  0  0
   56.1897   -0.9836    2.8278 H   0  0  0  0  0 15  0  0  0  0  0  0
   53.7357   -0.4717    1.3606 H   0  0  0  0  0 15  0  0  0  0  0  0
   55.6887   -3.3974    2.4931 H   0  0  0  0  0 15  0  0  0  0  0  0
   54.4127   -2.9874    1.3200 H   0  0  0  0  0 15  0  0  0  0  0  0
   53.0717   -1.8840    3.1449 H   0  0  0  0  0 15  0  0  0  0  0  0
   52.7197   -4.3011    2.6079 H   0  0  0  0  0 15  0  0  0  0  0  0
   52.4197   -3.9696    4.3324 H   0  0  0  0  0 15  0  0  0  0  0  0
   53.9437   -4.7553    3.8302 H   0  0  0  0  0 15  0  0  0  0  0  0
   55.3577   -2.8074    4.9986 H   0  0  0  0  0 15  0  0  0  0  0  0
   53.7547   -2.2522    5.5623 H   0  0  0  0  0 15  0  0  0  0  0  0
   54.8247   -1.1184    4.7183 H   0  0  0  0  0 15  0  0  0  0  0  0
   56.1678   -1.4927   -0.5057 N   0  0  0  0  0 15  0  0  0  0  0  0
   57.4138   -1.5875   -1.2620 C   0  0  0  0  0 15  0  0  0  0  0  0
   57.7468   -0.2712   -1.9230 C   0  0  0  0  0 15  0  0  0  0  0  0
   57.0218    0.7248   -1.8049 O   0  0  0  0  0 15  0  0  0  0  0  0
   57.3048   -2.7433   -2.3327 C   0  0  0  0  0 15  0  0  0  0  0  0
   57.1578   -4.1574   -1.7171 C   0  0  0  0  0 15  0  0  0  0  0  0
   58.4768   -2.8558   -3.3487 C   0  0  0  0  0 15  0  0  0  0  0  0
   55.5958   -0.5778   -0.4575 H   0  0  0  0  0 15  0  0  0  0  0  0
   58.2378   -1.8153   -0.5609 H   0  0  0  0  0 15  0  0  0  0  0  0
   56.3878   -2.5504   -2.9307 H   0  0  0  0  0 15  0  0  0  0  0  0
   58.0598   -4.4654   -1.1577 H   0  0  0  0  0 15  0  0  0  0  0  0
   56.3028   -4.2161   -1.0214 H   0  0  0  0  0 15  0  0  0  0  0  0
   56.9738   -4.9248   -2.4934 H   0  0  0  0  0 15  0  0  0  0  0  0
   59.4498   -3.0313   -2.8505 H   0  0  0  0  0 15  0  0  0  0  0  0
   58.3258   -3.6813   -4.0715 H   0  0  0  0  0 15  0  0  0  0  0  0
   58.5868   -1.9473   -3.9690 H   0  0  0  0  0 15  0  0  0  0  0  0
   57.6459    0.7564   -1.3826 N   0  0  0  0  0 15  0  0  0  0  0  0
   58.8919    1.5168   -1.3552 C   0  0  0  0  0 15  0  0  0  0  0  0
   59.2469    1.9232    0.0554 C   0  0  0  0  0 15  0  0  0  0  0  0
   58.5399    1.6235    1.0175 O   0  0  0  0  0 15  0  0  0  0  0  0
   58.7339    2.7831   -2.2422 C   0  0  0  0  0 15  0  0  0  0  0  0
   58.5629    2.5005   -3.7377 C   0  0  0  0  0 15  0  0  0  0  0  0
   57.3329    2.4341   -4.4281 C   0  0  0  0  0 15  0  0  0  0  0  0
   59.5309    2.1702   -4.6627 C   0  0  0  0  0 15  0  0  0  0  0  0
   57.5129    2.0740   -5.7781 N   0  0  0  0  0 15  0  0  0  0  0  0
   58.8839    1.9127   -5.8976 C   0  0  0  0  0 15  0  0  0  0  0  0
   60.9389    2.0330   -4.5450 C   0  0  0  0  0 15  0  0  0  0  0  0
   59.6419    1.5319   -7.0280 C   0  0  0  0  0 15  0  0  0  0  0  0
   61.6679    1.6663   -5.6744 C   0  0  0  0  0 15  0  0  0  0  0  0
   61.0299    1.4175   -6.8999 C   0  0  0  0  0 15  0  0  0  0  0  0
   57.1289    0.5547   -0.5512 H   0  0  0  0  0 15  0  0  0  0  0  0
   59.7129    0.8811   -1.7362 H   0  0  0  0  0 15  0  0  0  0  0  0
   57.8839    3.3970   -1.8831 H   0  0  0  0  0 15  0  0  0  0  0  0
   59.6159    3.4434   -2.1263 H   0  0  0  0  0 15  0  0  0  0  0  0
   56.3709    2.5979   -3.9599 H   0  0  0  0  0 15  0  0  0  0  0  0
   56.7949    1.9204   -6.4919 H   0  0  0  0  0 15  0  0  0  0  0  0
   61.4369    2.2121   -3.6031 H   0  0  0  0  0 15  0  0  0  0  0  0
   59.1549    1.3402   -7.9691 H   0  0  0  0  0 15  0  0  0  0  0  0
   62.7409    1.5665   -5.6031 H   0  0  0  0  0 15  0  0  0  0  0  0
   61.6209    1.1379   -7.7590 H   0  0  0  0  0 15  0  0  0  0  0  0
   59.1240    1.2308    0.9843 N   0  0  0  0  0 15  0  0  0  0  0  0
   60.3700    1.0621    1.7276 C   0  0  0  0  0 15  0  0  0  0  0  0
   60.7030   -0.4006    1.9002 C   0  0  0  0  0 15  0  0  0  0  0  0
   59.9780   -1.2967    1.4497 O   0  0  0  0  0 15  0  0  0  0  0  0
   60.2610    1.7837    3.1282 C   0  0  0  0  0 15  0  0  0  0  0  0
   60.1140    3.3230    3.0315 C   0  0  0  0  0 15  0  0  0  0  0  0
   61.4330    1.5431    4.1216 C   0  0  0  0  0 15  0  0  0  0  0  0
   58.5520    0.3873    0.6271 H   0  0  0  0  0 15  0  0  0  0  0  0
   61.1940    1.5154    1.1462 H   0  0  0  0  0 15  0  0  0  0  0  0
   59.3440    1.3985    3.6246 H   0  0  0  0  0 15  0  0  0  0  0  0
   61.0160    3.8032    2.6106 H   0  0  0  0  0 15  0  0  0  0  0  0
   59.2590    3.6153    2.3975 H   0  0  0  0  0 15  0  0  0  0  0  0
   59.9300    3.7797    4.0230 H   0  0  0  0  0 15  0  0  0  0  0  0
   62.4060    1.8779    3.7131 H   0  0  0  0  0 15  0  0  0  0  0  0
   61.2820    2.0728    5.0826 H   0  0  0  0  0 15  0  0  0  0  0  0
   61.5430    0.4776    4.3951 H   0  0  0  0  0 15  0  0  0  0  0  0
   60.6021   -1.1825    1.0419 N   0  0  0  0  0 15  0  0  0  0  0  0
   61.8481   -1.8879    0.7569 C   0  0  0  0  0 15  0  0  0  0  0  0
   62.2031   -1.7891   -0.7078 C   0  0  0  0  0 15  0  0  0  0  0  0
   61.4961   -1.1794   -1.5100 O   0  0  0  0  0 15  0  0  0  0  0  0
   61.6901   -3.3808    1.1591 C   0  0  0  0  0 15  0  0  0  0  0  0
   61.5191   -3.6250    2.6613 C   0  0  0  0  0 15  0  0  0  0  0  0
   60.2891   -3.7979    3.3330 C   0  0  0  0  0 15  0  0  0  0  0  0
   62.4871   -3.6298    3.6435 C   0  0  0  0  0 15  0  0  0  0  0  0
   60.4691   -3.9196    4.7249 N   0  0  0  0  0 15  0  0  0  0  0  0
   61.8401   -3.8087    4.8922 C   0  0  0  0  0 15  0  0  0  0  0  0
   63.8951   -3.4607    3.5797 C   0  0  0  0  0 15  0  0  0  0  0  0
   62.5981   -3.8361    6.0847 C   0  0  0  0  0 15  0  0  0  0  0  0
   64.6241   -3.5009    4.7664 C   0  0  0  0  0 15  0  0  0  0  0  0
   63.9861   -3.6848    6.0033 C   0  0  0  0  0 15  0  0  0  0  0  0
   60.0851   -0.7094    0.3290 H   0  0  0  0  0 15  0  0  0  0  0  0
   62.6691   -1.4202    1.3318 H   0  0  0  0  0 15  0  0  0  0  0  0
   60.8401   -3.8354    0.6122 H   0  0  0  0  0 15  0  0  0  0  0  0
   62.5721   -3.9620    0.8250 H   0  0  0  0  0 15  0  0  0  0  0  0
   59.3271   -3.7922    2.8370 H   0  0  0  0  0 15  0  0  0  0  0  0
   59.7511   -4.0186    5.4483 H   0  0  0  0  0 15  0  0  0  0  0  0
   64.3931   -3.3080    2.6331 H   0  0  0  0  0 15  0  0  0  0  0  0
   62.1111   -3.9767    7.0348 H   0  0  0  0  0 15  0  0  0  0  0  0
   65.6971   -3.3829    4.7334 H   0  0  0  0  0 15  0  0  0  0  0  0
   64.5771   -3.7149    6.9063 H   0  0  0  0  0 15  0  0  0  0  0  0
   62.0802   -0.8215   -1.3449 N   0  0  0  0  0 15  0  0  0  0  0  0
   63.0272   -0.2404   -2.2954 C   0  0  0  0  0 15  0  0  0  0  0  0
   63.9972    0.6340   -1.5352 C   0  0  0  0  0 15  0  0  0  0  0  0
   65.1822    0.5760   -1.8190 O   0  0  0  0  0 15  0  0  0  0  0  0
   62.3222    0.5929   -3.3997 C   0  0  0  0  0 15  0  0  0  0  0  0
   61.4352   -0.3036   -4.3093 C   0  0  0  0  0 15  0  0  0  0  0  0
   60.5702    0.5390   -5.2846 C   0  0  0  0  0 15  0  0  0  0  0  0
   59.6092   -0.3569   -6.1106 C   0  0  0  0  0 15  0  0  0  0  0  0
   58.7462    0.4466   -7.0068 N   0  0  0  0  0 15  0  0  0  0  0  0
   63.5862   -1.0563   -2.7865 H   0  0  0  0  0 15  0  0  0  0  0  0
   61.1232   -0.5324   -1.3713 H   0  0  0  0  0 15  0  0  0  0  0  0
   63.0812    1.0913   -4.0267 H   0  0  0  0  0 15  0  0  0  0  0  0
   61.7112    1.3739   -2.9210 H   0  0  0  0  0 15  0  0  0  0  0  0
   60.7632   -0.9203   -3.6910 H   0  0  0  0  0 15  0  0  0  0  0  0
   62.0752   -0.9927   -4.8882 H   0  0  0  0  0 15  0  0  0  0  0  0
   61.2292    1.1020   -5.9661 H   0  0  0  0  0 15  0  0  0  0  0  0
   59.9682    1.2616   -4.7110 H   0  0  0  0  0 15  0  0  0  0  0  0
   58.9732   -0.9320   -5.4184 H   0  0  0  0  0 15  0  0  0  0  0  0
   60.1982   -1.0776   -6.7050 H   0  0  0  0  0 15  0  0  0  0  0  0
   58.1442    1.1528   -6.4579 H   0  0  0  0  0 15  0  0  0  0  0  0
   58.0612   -0.1840   -7.5578 H   0  0  0  0  0 15  0  0  0  0  0  0
   59.3292    0.9924   -7.7316 H   0  0  0  0  0 15  0  0  0  0  0  0
   63.5583    1.4668   -0.5764 N   0  0  0  0  0 15  0  0  0  0  0  0
   64.9693    1.8611   -0.1481 C   0  0  0  0  0 15  0  0  0  0  0  0
   65.3203    1.4807    1.2872 C   0  0  0  0  0 15  0  0  0  0  0  0
   64.4453    0.8927    1.9713 O   0  0  0  0  0 15  0  0  0  0  0  0
   65.0403    3.3779   -0.2620 C   0  0  0  0  0 15  0  0  0  0  0  0
   63.5993    3.7624    0.1114 C   0  0  0  0  0 15  0  0  0  0  0  0
   62.7463    2.7071   -0.6008 C   0  0  0  0  0 15  0  0  0  0  0  0
   65.6973    1.3793   -0.7850 H   0  0  0  0  0 15  0  0  0  0  0  0
   65.7183    3.7701    0.5144 H   0  0  0  0  0 15  0  0  0  0  0  0
   65.2303    3.6544   -1.3067 H   0  0  0  0  0 15  0  0  0  0  0  0
   63.3313    3.5420    1.1565 H   0  0  0  0  0 15  0  0  0  0  0  0
   63.4443    4.7839   -0.2605 H   0  0  0  0  0 15  0  0  0  0  0  0
   61.8083    2.5467   -0.0418 H   0  0  0  0  0 15  0  0  0  0  0  0
   62.5913    3.0121   -1.6471 H   0  0  0  0  0 15  0  0  0  0  0  0
   65.0364    0.3138    1.5444 N   0  0  0  0  0 15  0  0  0  0  0  0
   66.2824   -0.2849    2.0139 C   0  0  0  0  0 15  0  0  0  0  0  0
   66.6374   -1.5054    1.1982 C   0  0  0  0  0 15  0  0  0  0  0  0
   65.9304   -1.8969    0.2697 O   0  0  0  0  0 15  0  0  0  0  0  0
   66.1244   -0.6804    3.5086 C   0  0  0  0  0 15  0  0  0  0  0  0
   65.9534    0.5002    4.4691 C   0  0  0  0  0 15  0  0  0  0  0  0
   64.7234    0.9962    4.9538 C   0  0  0  0  0 15  0  0  0  0  0  0
   66.9214    1.3493    4.9629 C   0  0  0  0  0 15  0  0  0  0  0  0
   64.9034    2.1423    5.7531 N   0  0  0  0  0 15  0  0  0  0  0  0
   66.2744    2.3426    5.7404 C   0  0  0  0  0 15  0  0  0  0  0  0
   68.3294    1.3782    4.7845 C   0  0  0  0  0 15  0  0  0  0  0  0
   67.0324    3.3627    6.3586 C   0  0  0  0  0 15  0  0  0  0  0  0
   69.0584    2.3870    5.4109 C   0  0  0  0  0 15  0  0  0  0  0  0
   68.4204    3.3675    6.1869 C   0  0  0  0  0 15  0  0  0  0  0  0
   64.5194   -0.0684    0.7790 H   0  0  0  0  0 15  0  0  0  0  0  0
   67.1034    0.4466    1.8951 H   0  0  0  0  0 15  0  0  0  0  0  0
   65.2744   -1.3811    3.6302 H   0  0  0  0  0 15  0  0  0  0  0  0
   67.0064   -1.2598    3.8459 H   0  0  0  0  0 15  0  0  0  0  0  0
   63.7614    0.5691    4.7017 H   0  0  0  0  0 15  0  0  0  0  0  0
   64.1854    2.7201    6.1995 H   0  0  0  0  0 15  0  0  0  0  0  0
   68.8274    0.6337    4.1802 H   0  0  0  0  0 15  0  0  0  0  0  0
   66.5454    4.1163    6.9541 H   0  0  0  0  0 15  0  0  0  0  0  0
   70.1314    2.4172    5.2921 H   0  0  0  0  0 15  0  0  0  0  0  0
   69.0114    4.1354    6.6630 H   0  0  0  0  0 15  0  0  0  0  0  0
   66.5145   -1.5754    0.0418 N   0  0  0  0  0 15  0  0  0  0  0  0
   67.7615   -1.9232   -0.6341 C   0  0  0  0  0 15  0  0  0  0  0  0
   68.0895   -0.9193   -1.7140 C   0  0  0  0  0 15  0  0  0  0  0  0
   67.3445    0.0698   -1.9558 O   0  0  0  0  0 15  0  0  0  0  0  0
   67.6435   -3.3379   -1.2774 C   0  0  0  0  0 15  0  0  0  0  0  0
   67.3095   -4.4972   -0.3265 C   0  0  0  0  0 15  0  0  0  0  0  0
   65.9715   -4.8116   -0.0649 C   0  0  0  0  0 15  0  0  0  0  0  0
   68.3235   -5.2018    0.3256 C   0  0  0  0  0 15  0  0  0  0  0  0
   65.6515   -5.8041    0.8565 C   0  0  0  0  0 15  0  0  0  0  0  0
   68.0035   -6.2042    1.2352 C   0  0  0  0  0 15  0  0  0  0  0  0
   66.6675   -6.5030    1.5056 C   0  0  0  0  0 15  0  0  0  0  0  0
   65.9375   -0.7037   -0.2320 H   0  0  0  0  0 15  0  0  0  0  0  0
   68.5845   -1.9120    0.1063 H   0  0  0  0  0 15  0  0  0  0  0  0
   66.8895   -3.3123   -2.0927 H   0  0  0  0  0 15  0  0  0  0  0  0
   68.5865   -3.5797   -1.8071 H   0  0  0  0  0 15  0  0  0  0  0  0
   65.1765   -4.2518   -0.5407 H   0  0  0  0  0 15  0  0  0  0  0  0
   69.3605   -4.9611    0.1365 H   0  0  0  0  0 15  0  0  0  0  0  0
   64.6165   -6.0190    1.0736 H   0  0  0  0  0 15  0  0  0  0  0  0
   68.7905   -6.7414    1.7466 H   0  0  0  0  0 15  0  0  0  0  0  0
   66.4175   -7.2703    2.2212 H   0  0  0  0  0 15  0  0  0  0  0  0
   68.0315    0.0996   -1.6119 O   0  0  0  0  0 15  0  0  0  0  0  0
   68.7225    0.7287   -1.7947 H   0  0  0  0  0 15  0  0  0  0  0  0
M  END
$$$$
