drugbank_target|P96558 dTDP-epi-vancosaminyltransferase (DB04529)
 OpenBabel12092120253D

  0  0  0     0  0            999 V3000
M  V30 BEGIN CTAB
M  V30 COUNTS 5857 5916 0 0 0
M  V30 BEGIN ATOM
M  V30 1 H -0.908 1.98254 -0.117106 0
M  V30 2 N 0 1.576 0 0
M  V30 3 C 0.933 2.03868 1.02534 0
M  V30 4 C 1.911 0.928543 1.3348 0
M  V30 5 O 3.095 1.19667 1.45644 0
M  V30 6 C 0.222 2.43627 2.35294 0
M  V30 7 C -0.732 3.65373 2.2001 0
M  V30 8 S 0.101 5.13292 1.52614 0
M  V30 9 C 1.257 5.56322 2.86805 0
M  V30 10 H 1.49 2.90518 0.631377 0
M  V30 11 H -0.977 1.52953 0.210867 0
M  V30 12 H 0.981 2.67203 3.11629 0
M  V30 13 H -0.358 1.57376 2.7183 0
M  V30 14 H -1.165 3.90944 3.18086 0
M  V30 15 H -1.563 3.418 1.51819 0
M  V30 16 H 0.729 5.58782 3.83104 0
M  V30 17 H 1.672 6.56266 2.65933 0
M  V30 18 H 2.08 4.83886 2.90714 0
M  V30 19 N 1.4781 -0.272755 1.55222 0
M  V30 20 C 2.8941 -0.619959 1.47067 0
M  V30 21 C 3.0941 -1.895 0.684978 0
M  V30 22 O 2.1501 -2.51675 0.203931 0
M  V30 23 C 3.4631 -0.746693 2.91282 0
M  V30 24 C 5.0111 -0.840731 3.01497 0
M  V30 25 C 5.4861 -0.99924 4.46967 0
M  V30 26 N 6.9771 -1.06476 4.50796 0
M  V30 27 C 7.7121 -1.20621 5.6057 0
M  V30 28 N 7.2081 -1.31483 6.80209 0
M  V30 29 N 9.0011 -1.23733 5.48312 0
M  V30 30 H 1.1521 0.564606 2.04758 0
M  V30 31 H 3.4151 0.191177 0.928523 0
M  V30 32 H 3.1211 0.119753 3.51496 0
M  V30 33 H 2.9951 -1.6269 3.40311 0
M  V30 34 H 5.3821 -1.69764 2.41379 0
M  V30 35 H 5.4631 0.0640874 2.5572 0
M  V30 36 H 5.1071 -0.146984 5.07687 0
M  V30 37 H 5.0371 -1.91871 4.90401 0
M  V30 38 H 7.5281 -0.993196 3.64615 0
M  V30 39 H 7.8411 -1.42111 7.59621 0
M  V30 40 H 6.1861 -1.28487 6.8302 0
M  V30 41 H 9.3771 -1.14877 4.53785 0
M  V30 42 H 9.5501 -1.34412 6.33906 0
M  V30 43 N 2.9562 -1.48159 -0.537278 0
M  V30 44 C 4.2022 -1.56035 -1.29541 0
M  V30 45 C 4.5352 -0.230377 -1.92829 0
M  V30 46 O 3.8102 0.762952 -1.78911 0
M  V30 47 C 4.0932 -2.69323 -2.39034 0
M  V30 48 C 3.9462 -4.12002 -1.80485 0
M  V30 49 C 5.2652 -2.78408 -3.40847 0
M  V30 50 H 2.3842 -0.567992 -0.469632 0
M  V30 51 H 5.0262 -1.80302 -0.599277 0
M  V30 52 H 3.1762 -2.48763 -2.98412 0
M  V30 53 H 4.8482 -4.43981 -1.25215 0
M  V30 54 H 3.0912 -4.19344 -1.11055 0
M  V30 55 H 3.7622 -4.87077 -2.59731 0
M  V30 56 H 6.2382 -2.97012 -2.91416 0
M  V30 57 H 5.1142 -3.59416 -4.14863 0
M  V30 58 H 5.3752 -1.86269 -4.00944 0
M  V30 59 N 4.4343 0.785586 -1.36625 0
M  V30 60 C 5.3643 1.91259 -1.33949 0
M  V30 61 C 6.3453 1.68795 -0.210325 0
M  V30 62 O 7.5303 1.89854 -0.408561 0
M  V30 63 C 4.6603 3.28339 -1.13186 0
M  V30 64 C 3.6143 3.65335 -2.22967 0
M  V30 65 C 2.9403 5.00806 -1.87342 0
M  V30 66 C 4.2403 3.7352 -3.65075 0
M  V30 67 H 5.9343 1.93755 -2.28253 0
M  V30 68 H 3.4803 0.930788 -1.09874 0
M  V30 69 H 5.4333 4.06804 -1.09948 0
M  V30 70 H 4.1573 3.2624 -0.153332 0
M  V30 71 H 2.8163 2.89169 -2.25337 0
M  V30 72 H 2.4643 4.95233 -0.880545 0
M  V30 73 H 2.1643 5.26529 -2.60846 0
M  V30 74 H 3.6883 5.81687 -1.85667 0
M  V30 75 H 5.1023 4.42168 -3.64911 0
M  V30 76 H 3.4993 4.10731 -4.37516 0
M  V30 77 H 4.5693 2.74527 -3.99703 0
M  V30 78 N 5.9124 1.20967 1.01018 0
M  V30 79 C 7.1614 1.01796 1.74128 0
M  V30 80 C 7.4744 -0.449691 1.90361 0
M  V30 81 O 8.6804 -0.76068 2.60626 0
M  V30 82 C 7.1364 1.7727 3.13215 0
M  V30 83 C 6.7444 3.28171 3.04972 0
M  V30 84 C 8.4884 1.66489 3.90489 0
M  V30 85 C 6.3954 3.96156 4.39107 0
M  V30 86 H 5.3254 0.377276 0.652824 0
M  V30 87 H 7.9764 1.44651 1.12909 0
M  V30 88 H 6.3584 1.27205 3.75013 0
M  V30 89 H 7.5324 3.85499 2.52443 0
M  V30 90 H 5.8474 3.39437 2.41188 0
M  V30 91 H 8.4444 2.14617 4.89738 0
M  V30 92 H 8.7874 0.6222 4.11624 0
M  V30 93 H 9.3204 2.14003 3.35332 0
M  V30 94 H 6.0594 5.00604 4.23174 0
M  V30 95 H 5.5794 3.43617 4.91617 0
M  V30 96 H 7.2584 4.00774 5.07926 0
M  V30 97 N 7.3905 -1.2043 1.01659 0
M  V30 98 C 8.6185 -1.93777 0.725132 0
M  V30 99 C 9.0335 -1.74772 -0.714166 0
M  V30 100 O 8.3905 -1.06169 -1.4844 0
M  V30 101 C 8.4415 -3.45876 1.05129 0
M  V30 102 O 8.1625 -3.6426 2.43406 0
M  V30 103 C 9.6635 -4.36368 0.780891 0
M  V30 104 H 6.8835 -0.615901 0.266284 0
M  V30 105 H 9.4275 -1.52922 1.35776 0
M  V30 106 H 7.5825 -3.8461 0.464065 0
M  V30 107 H 7.9965 -4.58246 2.55169 0
M  V30 108 H 9.4705 -5.41743 1.05918 0
M  V30 109 H 9.9475 -4.38275 -0.284937 0
M  V30 110 H 10.5535 -4.03296 1.35027 0
M  V30 111 N 8.8686 -0.792821 -1.36206 0
M  V30 112 C 10.1166 -0.366062 -1.98757 0
M  V30 113 C 10.4376 1.0668 -1.63231 0
M  V30 114 O 9.7076 1.73587 -0.907978 0
M  V30 115 H 8.2876 -0.132364 -0.735179 0
M  V30 116 H 10.9496 -1.01562 -1.66347 0
M  V30 117 H 10.0456 -0.460638 -3.08682 0
M  V30 118 N 10.3467 1.47872 -0.545128 0
M  V30 119 C 11.5867 2.04391 -0.0187854 0
M  V30 120 C 11.9507 1.41162 1.30144 0
M  V30 121 O 13.1517 1.88656 1.91474 0
M  V30 122 C 11.4227 3.57299 0.0850867 0
M  V30 123 S 12.9817 4.35221 0.559302 0
M  V30 124 H 9.7997 0.710737 -0.0193301 0
M  V30 125 H 12.4017 1.81395 -0.729125 0
M  V30 126 H 11.1057 4.00847 -0.880351 0
M  V30 127 H 10.6367 3.84773 0.819348 0
M  V30 128 H 12.6517 4.61571 1.82118 0
M  V30 129 N 11.8248 0.280983 1.55075 0
M  V30 130 C 13.0728 -0.333455 1.9933 0
M  V30 131 C 13.3938 -1.55937 1.17085 0
M  V30 132 O 12.6638 -1.94143 0.261805 0
M  V30 133 H 11.2438 -0.126197 0.736263 0
M  V30 134 H 13.9058 0.387678 1.91005 0
M  V30 135 H 13.0018 -0.619292 3.05894 0
M  V30 136 N 13.3029 -1.57598 0.00835791 0
M  V30 137 C 14.5279 -1.95617 -0.689103 0
M  V30 138 C 14.9529 -0.883753 -1.66046 0
M  V30 139 O 14.3109 0.157352 -1.80616 0
M  V30 140 C 14.3589 -3.32736 -1.38994 0
M  V30 141 O 13.4629 -3.27631 -2.50463 0
M  V30 142 H 12.8039 -0.638379 -0.182668 0
M  V30 143 H 15.3339 -2.045 0.064036 0
M  V30 144 H 15.3439 -3.68494 -1.75147 0
M  V30 145 H 14.0189 -4.1034 -0.677778 0
M  V30 146 H 12.5959 -3.03561 -2.16576 0
M  V30 147 N 14.781 0.264519 -1.55364 0
M  V30 148 C 16.197 0.61215 -1.47394 0
M  V30 149 C 16.397 1.89134 -0.695018 0
M  V30 150 O 15.453 2.51563 -0.217275 0
M  V30 151 C 16.766 0.731235 -2.91674 0
M  V30 152 C 18.314 0.82473 -3.01939 0
M  V30 153 C 18.789 0.975522 -4.4749 0
M  V30 154 N 20.28 1.04083 -4.51354 0
M  V30 155 C 21.015 1.17646 -5.61201 0
M  V30 156 N 20.511 1.27874 -6.80896 0
M  V30 157 N 22.304 1.20823 -5.48961 0
M  V30 158 H 14.455 -0.575456 -2.04456 0
M  V30 159 H 16.718 -0.196099 -0.927496 0
M  V30 160 H 16.424 -0.138392 -3.51428 0
M  V30 161 H 16.298 1.60883 -3.41169 0
M  V30 162 H 18.685 1.68482 -2.42276 0
M  V30 163 H 18.766 -0.0776479 -2.55682 0
M  V30 164 H 18.41 0.120058 -5.07758 0
M  V30 165 H 18.34 1.89268 -4.91412 0
M  V30 166 H 20.831 0.973846 -3.65136 0
M  V30 167 H 21.144 1.38081 -7.60364 0
M  V30 168 H 19.489 1.24863 -6.83692 0
M  V30 169 H 22.68 1.12469 -4.54388 0
M  V30 170 H 22.853 1.31049 -6.3461 0
M  V30 171 N 16.2591 1.48442 0.529413 0
M  V30 172 C 17.5071 1.56179 1.28267 0
M  V30 173 C 17.8281 0.237721 1.93546 0
M  V30 174 O 17.0981 -0.740779 1.81354 0
M  V30 175 H 15.6781 0.575367 0.476405 0
M  V30 176 H 18.3401 1.84909 0.61602 0
M  V30 177 H 17.4361 2.34312 2.06165 0
M  V30 178 N 17.7372 -0.778329 1.37039 0
M  V30 179 C 19.0142 -1.52551 1.22424 0
M  V30 180 C 19.3942 -2.10288 -0.184964 0
M  V30 181 O 18.7422 -1.94953 -1.19187 0
M  V30 182 C 18.9522 -2.61164 2.31504 0
M  V30 183 C 20.3002 -3.28746 2.68721 0
M  V30 184 O 21.3242 -2.71455 2.30631 0
M  V30 185 O 20.1832 -4.3231 3.3432 0
M  V30 186 H 17.2772 -0.675343 0.477326 0
M  V30 187 H 19.8232 -0.815859 1.48801 0
M  V30 188 H 18.5952 -2.16574 3.25901 0
M  V30 189 H 18.2182 -3.39737 2.06554 0
M  V30 190 N 19.2153 -1.21501 -1.00376 0
M  V30 191 C 20.4433 -1.059 -1.77744 0
M  V30 192 C 20.8583 0.391125 -1.84704 0
M  V30 193 O 20.2153 1.27133 -1.30933 0
M  V30 194 C 20.2663 -1.65111 -3.21591 0
M  V30 195 O 19.9873 -3.0445 -3.15027 0
M  V30 196 C 21.4883 -1.54637 -4.15454 0
M  V30 197 H 18.7083 -0.371825 -0.558558 0
M  V30 198 H 21.2523 -1.60865 -1.26264 0
M  V30 199 H 19.4073 -1.14235 -3.70175 0
M  V30 200 H 19.8213 -3.3278 -4.0541 0
M  V30 201 H 21.2953 -2.00808 -5.14179 0
M  V30 202 H 21.7723 -0.501022 -4.36333 0
M  V30 203 H 22.3783 -2.04767 -3.72761 0
M  V30 204 N 20.6934 1.19889 -1.02296 0
M  V30 205 C 21.6034 2.26571 -0.608508 0
M  V30 206 C 22.6194 1.70299 0.356964 0
M  V30 207 O 23.7954 2.00235 0.216326 0
M  V30 208 C 20.8604 3.46677 0.0402814 0
M  V30 209 C 19.9214 4.18153 -0.97194 0
M  V30 210 C 19.1544 5.32525 -0.354016 0
M  V30 211 O 19.3774 5.64112 0.844604 0
M  V30 212 O 18.3114 5.92242 -1.07391 0
M  V30 213 H 22.1374 2.64251 -1.49684 0
M  V30 214 H 19.7224 1.26629 -0.792809 0
M  V30 215 H 21.6044 4.19475 0.402324 0
M  V30 216 H 20.2794 3.10858 0.902707 0
M  V30 217 H 19.1864 3.47499 -1.38546 0
M  V30 218 H 20.5194 4.57927 -1.80454 0
M  V30 219 N 22.1715 0.800033 1.35784 0
M  V30 220 C 23.5825 0.439142 1.81462 0
M  V30 221 C 23.9335 -1.03813 1.66485 0
M  V30 222 O 23.0585 -1.80626 1.19177 0
M  V30 223 C 23.6535 0.790314 3.29453 0
M  V30 224 C 22.2125 0.482111 3.733 0
M  V30 225 C 21.3595 1.01938 2.57883 0
M  V30 226 H 24.3105 0.992254 1.23855 0
M  V30 227 H 24.3315 0.0853677 3.80404 0
M  V30 228 H 23.8435 1.86554 3.40322 0
M  V30 229 H 21.9445 -0.584652 3.67984 0
M  V30 230 H 22.0575 1.01015 4.6833 0
M  V30 231 H 20.4215 0.442043 2.50835 0
M  V30 232 H 21.2045 2.10059 2.71533 0
M  V30 233 N 23.6496 -1.47581 0.552962 0
M  V30 234 C 24.5796 -2.32762 -0.185451 0
M  V30 235 C 25.5606 -1.43527 -0.912905 0
M  V30 236 O 26.7456 -1.72388 -0.894201 0
M  V30 237 C 23.8756 -3.25219 -1.21859 0
M  V30 238 C 22.8296 -4.23661 -0.607864 0
M  V30 239 C 22.1556 -5.05413 -1.74533 0
M  V30 240 C 23.4556 -5.20481 0.435582 0
M  V30 241 H 25.1496 -2.94749 0.525684 0
M  V30 242 H 22.6956 -1.41738 0.254251 0
M  V30 243 H 24.6486 -3.8365 -1.7433 0
M  V30 244 H 23.3726 -2.61279 -1.95961 0
M  V30 245 H 22.0316 -3.66451 -0.104489 0
M  V30 246 H 21.6796 -4.3788 -2.47529 0
M  V30 247 H 21.3796 -5.72059 -1.34249 0
M  V30 248 H 22.9036 -5.66701 -2.27338 0
M  V30 249 H 24.3176 -5.733 -0.00290157 0
M  V30 250 H 22.7146 -5.95305 0.757067 0
M  V30 251 H 23.7846 -4.66217 1.33303 0
M  V30 252 N 25.1277 -0.289203 -1.54924 0
M  V30 253 C 26.3737 0.323998 -2.00195 0
M  V30 254 C 26.7067 1.54441 -1.17735 0
M  V30 255 O 25.9817 1.92875 -0.250878 0
M  V30 256 C 26.2647 0.692276 -3.53383 0
M  V30 257 C 26.1177 -0.536457 -4.46589 0
M  V30 258 C 27.4367 1.52335 -4.12895 0
M  V30 259 H 24.5557 0.116289 -0.727768 0
M  V30 260 H 27.1977 -0.398954 -1.85764 0
M  V30 261 H 25.3477 1.30822 -3.65811 0
M  V30 262 H 27.0197 -1.17499 -4.46085 0
M  V30 263 H 25.2627 -1.17192 -4.1767 0
M  V30 264 H 25.9337 -0.234806 -5.515 0
M  V30 265 H 28.4097 1.00302 -4.0383 0
M  V30 266 H 27.2857 1.74982 -5.20262 0
M  V30 267 H 27.5467 2.50886 -3.64018 0
M  V30 268 N 26.6058 1.57591 -0.0167156 0
M  V30 269 C 27.5688 2.08393 0.954204 0
M  V30 270 C 28.5688 0.996531 1.26198 0
M  V30 271 O 29.7588 1.25858 1.20438 0
M  V30 272 C 26.8908 2.5394 2.27436 0
M  V30 273 H 28.0838 2.95455 0.514451 0
M  V30 274 H 25.6368 1.54582 0.231089 0
M  V30 275 H 26.3718 1.70171 2.76066 0
M  V30 276 H 26.1568 3.33371 2.06412 0
M  V30 277 H 27.6468 2.93512 2.97053 0
M  V30 278 N 28.0839 -0.256276 1.55502 0
M  V30 279 C 29.0139 -1.32102 1.92539 0
M  V30 280 C 29.9949 -1.50684 0.789194 0
M  V30 281 O 31.1799 -1.63449 1.04872 0
M  V30 282 C 28.3099 -2.67752 2.21192 0
M  V30 283 C 27.2639 -2.63878 3.36975 0
M  V30 284 C 26.5899 -4.03236 3.51147 0
M  V30 285 C 27.8899 -2.21682 4.72921 0
M  V30 286 H 29.5839 -1.01351 2.81724 0
M  V30 287 H 27.1299 -0.486105 1.35547 0
M  V30 288 H 29.0829 -3.42365 2.45691 0
M  V30 289 H 27.8069 -3.0012 1.28824 0
M  V30 290 H 26.4659 -1.91722 3.12471 0
M  V30 291 H 26.1139 -4.32854 2.56216 0
M  V30 292 H 25.8139 -4.01535 4.29003 0
M  V30 293 H 27.3379 -4.79563 3.77957 0
M  V30 294 H 28.7519 -2.86023 4.96854 0
M  V30 295 H 27.1489 -2.3111 5.53812 0
M  V30 296 H 28.2189 -1.16833 4.70615 0
M  V30 297 N 29.562 -1.4872 -0.521534 0
M  V30 298 C 30.525 -1.63379 -1.60748 0
M  V30 299 C 31.525 -0.50661 -1.52611 0
M  V30 300 O 32.715 -0.772601 -1.5613 0
M  V30 301 C 29.847 -1.61192 -3.00383 0
M  V30 302 H 31.04 -2.60217 -1.49087 0
M  V30 303 H 28.593 -1.37444 -0.744235 0
M  V30 304 H 29.328 -0.65863 -3.17541 0
M  V30 305 H 29.113 -2.43032 -3.07698 0
M  V30 306 H 30.603 -1.7466 -3.7932 0
M  V30 307 N 31.0401 0.771051 -1.3745 0
M  V30 308 C 32.0031 1.86598 -1.33093 0
M  V30 309 C 33.0031 1.59076 -0.234845 0
M  V30 310 O 34.1931 1.67145 -0.490732 0
M  V30 311 C 31.3251 3.23747 -1.06773 0
M  V30 312 H 32.5181 1.91873 -2.30488 0
M  V30 313 H 30.0711 0.970876 -1.2249 0
M  V30 314 H 30.8061 3.24148 -0.099129 0
M  V30 315 H 30.5911 3.45115 -1.86112 0
M  V30 316 H 32.0811 4.03824 -1.06377 0
M  V30 317 N 32.5182 1.22032 0.997298 0
M  V30 318 C 33.9342 0.979326 1.26021 0
M  V30 319 C 34.1342 -0.32972 1.98784 0
M  V30 320 O 33.1902 -1.05345 2.29475 0
M  V30 321 C 34.5032 2.17509 2.07631 0
M  V30 322 C 36.0512 2.21817 2.2083 0
M  V30 323 C 36.5262 3.40933 3.05825 0
M  V30 324 N 38.0172 3.41067 3.13412 0
M  V30 325 C 38.7522 4.29885 3.79455 0
M  V30 326 N 38.2482 5.28914 4.47462 0
M  V30 327 N 40.0412 4.17673 3.76173 0
M  V30 328 H 32.1922 2.06202 0.509352 0
M  V30 329 H 34.4552 0.90334 0.287541 0
M  V30 330 H 34.1612 3.12415 1.61524 0
M  V30 331 H 34.0352 2.17206 3.08385 0
M  V30 332 H 36.4222 1.27462 2.66153 0
M  V30 333 H 36.5032 2.2616 1.1952 0
M  V30 334 H 36.1472 4.35586 2.61203 0
M  V30 335 H 36.0772 3.33829 4.07266 0
M  V30 336 H 38.5682 2.69406 2.65007 0
M  V30 337 H 38.8812 5.92973 4.95583 0
M  V30 338 H 37.2262 5.32831 4.46224 0
M  V30 339 H 40.4172 3.39564 3.22202 0
M  V30 340 H 40.5902 4.87098 4.27363 0
M  V30 341 N 33.9963 -1.19345 1.0293 0
M  V30 342 C 34.9263 -2.2481 0.631105 0
M  V30 343 C 35.9073 -1.66245 -0.360104 0
M  V30 344 O 37.0923 -1.92677 -0.242726 0
M  V30 345 C 34.2223 -3.47295 -0.0184607 0
M  V30 346 C 33.1763 -4.18536 0.895073 0
M  V30 347 C 32.5023 -5.34586 0.110592 0
M  V30 348 C 33.8023 -4.73287 2.209 0
M  V30 349 H 35.4963 -2.58372 1.51275 0
M  V30 350 H 33.0423 -1.24194 0.728818 0
M  V30 351 H 34.9953 -4.20268 -0.308675 0
M  V30 352 H 33.7193 -3.12933 -0.934907 0
M  V30 353 H 32.3783 -3.47446 1.16949 0
M  V30 354 H 32.0263 -4.96469 -0.807902 0
M  V30 355 H 31.7263 -5.83183 0.719087 0
M  V30 356 H 33.2503 -6.10355 -0.172871 0
M  V30 357 H 34.6643 -5.38013 1.98028 0
M  V30 358 H 33.0613 -5.32373 2.76946 0
M  V30 359 H 34.1313 -3.91331 2.86336 0
M  V30 360 N 35.4744 -0.807222 -1.35358 0
M  V30 361 C 36.8904 -0.491038 -1.51858 0
M  V30 362 C 37.0904 0.987648 -1.75635 0
M  V30 363 O 36.1464 1.77265 -1.79815 0
M  V30 364 C 37.4594 -1.33695 -2.69344 0
M  V30 365 C 39.0074 -1.33246 -2.83222 0
M  V30 366 C 39.4824 -2.1625 -4.03733 0
M  V30 367 N 40.9734 -2.1379 -4.10911 0
M  V30 368 C 41.7084 -2.74772 -5.03277 0
M  V30 369 N 41.2044 -3.44684 -6.0097 0
M  V30 370 N 42.9974 -2.6441 -4.96028 0
M  V30 371 H 35.1484 -1.76485 -1.18181 0
M  V30 372 H 37.4114 -0.751199 -0.578276 0
M  V30 373 H 37.1174 -2.38634 -2.58354 0
M  V30 374 H 36.9914 -0.990618 -3.6396 0
M  V30 375 H 39.3784 -0.290911 -2.93663 0
M  V30 376 H 39.4594 -1.71866 -1.89461 0
M  V30 377 H 39.1034 -3.20445 -3.94052 0
M  V30 378 H 39.0334 -1.74989 -4.96675 0
M  V30 379 H 41.5244 -1.62923 -3.40976 0
M  V30 380 H 41.8374 -3.88501 -6.68047 0
M  V30 381 H 40.1824 -3.48788 -6.01142 0
M  V30 382 H 43.3734 -2.0938 -4.18662 0
M  V30 383 H 43.5464 -3.12225 -5.6782 0
M  V30 384 N 36.9525 1.47285 -0.560781 0
M  V30 385 C 37.8625 2.33846 0.187954 0
M  V30 386 C 38.8785 1.48412 0.908293 0
M  V30 387 O 40.0545 1.81332 0.876388 0
M  V30 388 C 37.1195 3.25178 1.2025 0
M  V30 389 C 36.1805 4.26504 0.489208 0
M  V30 390 C 35.4135 5.13472 1.45542 0
M  V30 391 O 35.6365 5.02959 2.6905 0
M  V30 392 O 34.5705 5.93902 0.977963 0
M  V30 393 H 38.3965 2.99177 -0.522177 0
M  V30 394 H 35.9815 1.45903 -0.321364 0
M  V30 395 H 37.8635 3.81584 1.78805 0
M  V30 396 H 36.5385 2.6247 1.89449 0
M  V30 397 H 35.4455 3.73847 -0.137627 0
M  V30 398 H 36.7785 4.91935 -0.161399 0
M  V30 399 N 38.4306 0.297415 1.54768 0
M  V30 400 C 39.3606 -0.573494 2.26348 0
M  V30 401 C 40.3416 -1.14085 1.26169 0
M  V30 402 O 41.5266 -1.17086 1.54934 0
M  V30 403 C 38.6566 -1.74716 3.00153 0
M  V30 404 C 37.6106 -1.31032 4.07449 0
M  V30 405 C 36.9366 -2.56887 4.68949 0
M  V30 406 C 38.2366 -0.444183 5.20408 0
M  V30 407 H 39.9306 0.0235131 2.99391 0
M  V30 408 H 37.4766 0.0127488 1.43994 0
M  V30 409 H 39.4296 -2.3625 3.48947 0
M  V30 410 H 38.1536 -2.37035 2.24682 0
M  V30 411 H 36.8126 -0.718066 3.59499 0
M  V30 412 H 36.4606 -3.17512 3.90122 0
M  V30 413 H 36.1606 -2.2836 5.41411 0
M  V30 414 H 37.6846 -3.19229 5.20505 0
M  V30 415 H 39.0986 -0.9651 5.65118 0
M  V30 416 H 37.4956 -0.252846 5.99567 0
M  V30 417 H 38.5656 0.531609 4.81977 0
M  V30 418 N 39.9087 -1.5758 0.0250728 0
M  V30 419 C 41.1567 -1.91255 -0.653151 0
M  V30 420 C 41.4777 -0.901691 -1.729 0
M  V30 421 O 40.7477 0.0573785 -1.95816 0
M  V30 422 H 39.3277 -0.705942 -0.244243 0
M  V30 423 H 41.9897 -1.94767 0.0719209 0
M  V30 424 H 41.0857 -2.91752 -1.10847 0
M  V30 425 N 41.3868 0.248026 -1.55636 0
M  V30 426 C 42.3498 1.29044 -1.89421 0
M  V30 427 C 43.3498 1.41134 -0.770581 0
M  V30 428 O 44.5398 1.39854 -1.03858 0
M  V30 429 C 41.6718 2.66831 -2.12165 0
M  V30 430 H 42.8648 1.00305 -2.82629 0
M  V30 431 H 40.4178 0.487265 -1.48511 0
M  V30 432 H 41.1528 3.00711 -1.21422 0
M  V30 433 H 40.9378 2.59438 -2.93997 0
M  V30 434 H 42.4278 3.42103 -2.3949 0
M  V30 435 N 42.8649 1.48995 0.513639 0
M  V30 436 C 44.1419 1.48338 1.27495 0
M  V30 437 C 44.5219 0.204065 2.10111 0
M  V30 438 O 43.8699 -0.813881 2.13514 0
M  V30 439 C 44.0799 2.75498 2.14247 0
M  V30 440 C 45.4279 3.24484 2.73852 0
M  V30 441 O 46.4519 2.76528 2.24523 0
M  V30 442 O 45.3109 4.07974 3.6362 0
M  V30 443 H 42.4049 0.593149 0.576284 0
M  V30 444 H 44.9509 1.61246 0.528948 0
M  V30 445 H 43.7229 3.60109 1.53092 0
M  V30 446 H 43.3459 2.6539 2.96064 0
M  V30 447 N 44.343 -0.763751 1.37857 0
M  V30 448 C 45.306 -1.85889 1.34081 0
M  V30 449 C 46.306 -1.58949 0.243277 0
M  V30 450 O 47.496 -1.66882 0.499589 0
M  V30 451 C 44.628 -3.23176 1.08489 0
M  V30 452 H 45.821 -1.90648 2.31502 0
M  V30 453 H 43.374 -0.964367 1.23003 0
M  V30 454 H 44.109 -3.24091 0.116318 0
M  V30 455 H 43.894 -3.44124 1.8794 0
M  V30 456 H 45.384 -4.03254 1.08517 0
M  V30 457 N 45.8211 -1.22559 -0.990812 0
M  V30 458 C 47.2371 -0.985996 -1.255 0
M  V30 459 C 47.4371 0.319173 -1.98956 0
M  V30 460 O 46.4931 1.04127 -2.3003 0
M  V30 461 C 47.8061 -2.18607 -2.06474 0
M  V30 462 C 49.3541 -2.22985 -2.19651 0
M  V30 463 C 49.8291 -3.4255 -3.04012 0
M  V30 464 N 51.3201 -3.42725 -3.11599 0
M  V30 465 C 52.0551 -4.31892 -3.7717 0
M  V30 466 N 51.5511 -5.31279 -4.44651 0
M  V30 467 N 53.3441 -4.19662 -3.73952 0
M  V30 468 H 45.4951 -2.06469 -0.49841 0
M  V30 469 H 47.7581 -0.904853 -0.282747 0
M  V30 470 H 47.4641 -3.13267 -1.59865 0
M  V30 471 H 47.3381 -2.18838 -3.07229 0
M  V30 472 H 49.7251 -1.28871 -2.65474 0
M  V30 473 H 49.8061 -2.26791 -1.18319 0
M  V30 474 H 49.4501 -4.36965 -2.58889 0
M  V30 475 H 49.3801 -3.35984 -4.0549 0
M  V30 476 H 51.8711 -2.70807 -2.63575 0
M  V30 477 H 52.1841 -5.95593 -4.92431 0
M  V30 478 H 50.5291 -5.3519 -4.43392 0
M  V30 479 H 53.7201 -3.41268 -3.20396 0
M  V30 480 H 53.8931 -4.89358 -4.24774 0
M  V30 481 N 47.2992 1.18797 -1.03562 0
M  V30 482 C 48.2322 2.2105 -0.56676 0
M  V30 483 C 49.2102 1.57704 0.395993 0
M  V30 484 O 50.3942 1.85908 0.311498 0
M  V30 485 C 47.5212 3.38259 0.172704 0
M  V30 486 C 46.5672 4.19987 -0.74252 0
M  V30 487 S 47.4002 4.87199 -2.22254 0
M  V30 488 C 48.5562 6.07813 -1.49379 0
M  V30 489 H 48.7892 2.60478 -1.43312 0
M  V30 490 H 46.3222 1.29151 -0.846133 0
M  V30 491 H 48.2802 4.06191 0.593191 0
M  V30 492 H 46.9412 2.97252 1.01488 0
M  V30 493 H 46.1342 5.03709 -0.171265 0
M  V30 494 H 45.7362 3.57408 -1.10163 0
M  V30 495 H 48.0282 6.72948 -0.784056 0
M  V30 496 H 48.9712 6.69435 -2.30786 0
M  V30 497 H 49.3792 5.55781 -0.988331 0
M  V30 498 N 48.7773 0.814389 1.34928 0
M  V30 499 C 50.0173 0.404165 2.00364 0
M  V30 500 C 50.3813 -1.01166 1.63185 0
M  V30 501 O 51.5823 -1.52431 2.21401 0
M  V30 502 C 49.8533 0.590718 3.52484 0
M  V30 503 S 51.4123 0.272075 4.37956 0
M  V30 504 H 48.2303 0.15311 0.694319 0
M  V30 505 H 50.8323 1.05834 1.64376 0
M  V30 506 H 49.5363 1.62099 3.77031 0
M  V30 507 H 49.0673 -0.0785013 3.93322 0
M  V30 508 H 51.0823 -0.917405 4.87645 0
M  V30 509 N 50.2554 -1.46986 0.568584 0
M  V30 510 C 51.1854 -2.32946 -0.160753 0
M  V30 511 C 52.1664 -1.44487 -0.897631 0
M  V30 512 O 53.3514 -1.73327 -0.875867 0
M  V30 513 C 50.4814 -3.26494 -1.18403 0
M  V30 514 C 49.4354 -4.24282 -0.562895 0
M  V30 515 C 48.7614 -5.07236 -1.69163 0
M  V30 516 C 50.0614 -5.19989 0.490761 0
M  V30 517 H 51.7554 -2.94175 0.556916 0
M  V30 518 H 49.3014 -1.4146 0.26927 0
M  V30 519 H 51.2544 -3.85477 -1.70251 0
M  V30 520 H 49.9784 -2.63343 -1.93179 0
M  V30 521 H 48.6374 -3.66541 -0.0656164 0
M  V30 522 H 48.2854 -4.4048 -2.42871 0
M  V30 523 H 47.9854 -5.7345 -1.28174 0
M  V30 524 H 49.5094 -5.6908 -2.21314 0
M  V30 525 H 50.9234 -5.73271 0.0579047 0
M  V30 526 H 49.3204 -5.94469 0.820165 0
M  V30 527 H 50.3904 -4.64777 1.3824 0
M  V30 528 N 51.7335 -0.305618 -1.54608 0
M  V30 529 C 53.1445 0.186098 -1.8577 0
M  V30 530 C 53.4955 1.53058 -1.22751 0
M  V30 531 O 52.6205 2.09888 -0.526893 0
M  V30 532 C 53.2155 0.344449 -3.37044 0
M  V30 533 C 51.7745 0.780384 -3.68221 0
M  V30 534 C 50.9215 -0.108554 -2.77087 0
M  V30 535 H 53.8725 -0.526485 -1.49712 0
M  V30 536 H 53.8935 1.17828 -3.61796 0
M  V30 537 H 53.4055 -0.634235 -3.82883 0
M  V30 538 H 51.5065 1.76945 -3.27904 0
M  V30 539 H 51.6195 0.596572 -4.75371 0
M  V30 540 H 49.9835 0.412931 -2.5133 0
M  V30 541 H 50.7665 -1.08368 -3.25747 0
M  V30 542 N 53.2116 1.57565 -0.0334293 0
M  V30 543 C 54.6226 1.79746 0.504798 0
M  V30 544 C 54.9736 0.944091 1.71992 0
M  V30 545 O 54.0986 0.155694 2.15839 0
M  V30 546 C 54.6936 3.25997 0.922567 0
M  V30 547 C 53.2526 3.49159 1.40588 0
M  V30 548 C 52.3996 2.74785 0.372633 0
M  V30 549 H 55.3506 1.56565 -0.259436 0
M  V30 550 H 55.3716 3.35945 1.78666 0
M  V30 551 H 54.8836 3.88081 0.0379825 0
M  V30 552 H 52.9846 2.92332 2.31025 0
M  V30 553 H 53.0976 4.57873 1.41028 0
M  V30 554 H 51.4616 2.40391 0.841672 0
M  V30 555 H 52.2446 3.39587 -0.503559 0
M  V30 556 N 54.6897 -0.239769 1.55765 0
M  V30 557 C 55.9667 -0.990056 1.68693 0
M  V30 558 C 56.3467 -2.03107 0.5754 0
M  V30 559 O 55.6947 -2.24604 -0.42017 0
M  V30 560 C 55.9047 -1.61696 3.09282 0
M  V30 561 C 57.2527 -2.11613 3.6811 0
M  V30 562 O 58.2767 -1.71624 3.12127 0
M  V30 563 O 57.1357 -2.85057 4.66267 0
M  V30 564 H 54.2297 -0.461299 0.686391 0
M  V30 565 H 56.7757 -0.232991 1.68093 0
M  V30 566 H 55.5477 -0.864357 3.81634 0
M  V30 567 H 55.1707 -2.44005 3.13923 0
M  V30 568 N 56.1678 -1.49265 -0.50573 0
M  V30 569 C 57.3978 -1.61979 -1.28243 0
M  V30 570 C 57.8058 -0.288576 -1.86986 0
M  V30 571 O 57.1488 0.735408 -1.68337 0
M  V30 572 C 57.2108 -2.62632 -2.45489 0
M  V30 573 C 56.8748 -4.071 -2.07651 0
M  V30 574 C 57.8718 -4.94049 -1.61901 0
M  V30 575 C 55.5568 -4.52801 -2.17431 0
M  V30 576 C 57.5508 -6.24736 -1.26428 0
M  V30 577 C 55.2378 -5.83503 -1.8157 0
M  V30 578 C 56.2358 -6.69294 -1.36142 0
M  V30 579 O 55.9238 -7.9756 -1.00764 0
M  V30 580 H 55.6558 -0.54834 -0.395347 0
M  V30 581 H 58.2098 -1.96002 -0.614204 0
M  V30 582 H 56.4398 -2.2378 -3.15372 0
M  V30 583 H 58.1288 -2.64925 -3.07522 0
M  V30 584 H 58.8948 -4.5997 -1.53795 0
M  V30 585 H 54.7738 -3.86196 -2.51742 0
M  V30 586 H 58.3178 -6.91652 -0.908992 0
M  V30 587 H 54.2148 -6.17112 -1.89324 0
M  V30 588 H 54.9828 -8.10529 -1.13952 0
M  V30 589 N 57.6459 0.756429 -1.3826 0
M  V30 590 C 58.8919 1.51772 -1.34511 0
M  V30 591 C 59.2249 1.94089 0.0656691 0
M  V30 592 O 58.4999 1.65221 1.02626 0
M  V30 593 C 58.7829 2.77226 -2.29821 0
M  V30 594 C 58.6359 2.41065 -3.79747 0
M  V30 595 C 59.9549 3.79236 -2.23312 0
M  V30 596 H 57.0739 0.550578 -0.489931 0
M  V30 597 H 59.7159 0.866607 -1.69086 0
M  V30 598 H 57.8659 3.32784 -2.00467 0
M  V30 599 H 59.5379 1.91303 -4.19763 0
M  V30 600 H 57.7809 1.7356 -3.97567 0
M  V30 601 H 58.4519 3.3081 -4.41892 0
M  V30 602 H 60.9279 3.3321 -2.49219 0
M  V30 603 H 59.8039 4.64714 -2.92116 0
M  V30 604 H 60.0649 4.24615 -1.23102 0
M  V30 605 N 59.124 1.23083 0.984299 0
M  V30 606 C 60.034 1.02515 2.11016 0
M  V30 607 C 61.05 -0.0291702 1.73976 0
M  V30 608 O 62.226 0.165434 2.00719 0
M  V30 609 C 59.291 0.614673 3.41208 0
M  V30 610 C 58.352 1.74359 3.92297 0
M  V30 611 C 57.585 1.35261 5.16275 0
M  V30 612 O 57.808 0.235136 5.69915 0
M  V30 613 O 56.742 2.17227 5.61334 0
M  V30 614 H 60.568 1.96862 2.31255 0
M  V30 615 H 58.153 1.01753 1.09392 0
M  V30 616 H 60.035 0.396518 4.1953 0
M  V30 617 H 58.71 -0.299851 3.22308 0
M  V30 618 H 57.617 2.01635 3.1511 0
M  V30 619 H 58.95 2.63629 4.15645 0
M  V30 620 N 60.6021 -1.18246 1.0419 0
M  V30 621 C 62.0181 -1.40269 0.761366 0
M  V30 622 C 62.2181 -1.90777 -0.648578 0
M  V30 623 O 61.2741 -2.0929 -1.41258 0
M  V30 624 C 62.5871 -2.40237 1.8085 0
M  V30 625 C 64.1351 -2.53961 1.82955 0
M  V30 626 C 64.6101 -3.57194 2.86664 0
M  V30 627 N 66.1011 -3.64702 2.85563 0
M  V30 628 C 66.8361 -4.44309 3.6246 0
M  V30 629 N 66.3321 -5.27514 4.49111 0
M  V30 630 N 68.1251 -4.39084 3.50944 0
M  V30 631 H 60.2761 -0.837882 1.95175 0
M  V30 632 H 62.5391 -0.430608 0.84456 0
M  V30 633 H 62.2451 -2.10176 2.81991 0
M  V30 634 H 62.1191 -3.39601 1.64168 0
M  V30 635 H 64.5061 -2.83338 0.824855 0
M  V30 636 H 64.5871 -1.54706 2.03715 0
M  V30 637 H 64.2311 -3.28558 3.87314 0
M  V30 638 H 64.1611 -4.5613 2.6316 0
M  V30 639 H 66.6521 -3.05289 2.22727 0
M  V30 640 H 66.9651 -5.85411 5.04493 0
M  V30 641 H 65.3101 -5.2693 4.53178 0
M  V30 642 H 68.5011 -3.7313 2.82651 0
M  V30 643 H 68.6741 -5.00883 4.11121 0
M  V30 644 N 62.0802 -0.821533 -1.34494 0
M  V30 645 C 63.3202 -0.414785 -2.00147 0
M  V30 646 C 63.6842 1.00299 -1.6372 0
M  V30 647 O 64.8852 1.51255 -2.22206 0
M  V30 648 C 63.1562 -0.609403 -3.52166 0
M  V30 649 S 64.7152 -0.295297 -4.37805 0
M  V30 650 H 61.5332 -0.15679 -0.693497 0
M  V30 651 H 64.1352 -1.06705 -1.63812 0
M  V30 652 H 62.8392 -1.64096 -3.76166 0
M  V30 653 H 62.3702 0.0576414 -3.93358 0
M  V30 654 H 64.3852 0.891531 -4.88125 0
M  V30 655 N 63.5583 1.46682 -0.576371 0
M  V30 656 C 64.5213 2.28707 0.150239 0
M  V30 657 C 65.5213 1.38035 0.824794 0
M  V30 658 O 66.7113 1.60476 0.677719 0
M  V30 659 C 63.8433 3.18248 1.22192 0
M  V30 660 H 65.0363 2.94423 -0.570521 0
M  V30 661 H 62.5893 1.52688 -0.334078 0
M  V30 662 H 63.3243 2.57265 1.97447 0
M  V30 663 H 63.1093 3.85 0.742812 0
M  V30 664 H 64.5993 3.80001 1.73172 0
M  V30 665 N 65.0364 0.313813 1.54444 0
M  V30 666 C 65.9464 -0.565714 2.27677 0
M  V30 667 C 66.9624 -1.13754 1.31666 0
M  V30 668 O 68.1384 -1.15959 1.64668 0
M  V30 669 C 65.2034 -1.71528 3.01296 0
M  V30 670 C 64.2644 -1.17624 4.12872 0
M  V30 671 C 63.4974 -2.27102 4.8297 0
M  V30 672 O 63.7204 -3.47256 4.52514 0
M  V30 673 O 62.6544 -1.9307 5.70094 0
M  V30 674 H 66.4804 0.0287296 3.03686 0
M  V30 675 H 64.0654 0.0798312 1.49187 0
M  V30 676 H 65.9474 -2.38476 3.4743 0
M  V30 677 H 64.6224 -2.29608 2.2817 0
M  V30 678 H 63.5294 -0.472124 3.71109 0
M  V30 679 H 64.8624 -0.640695 4.88012 0
M  V30 680 N 66.5145 -1.57545 0.0417849 0
M  V30 681 C 67.7605 -1.92601 -0.635021 0
M  V30 682 C 68.0935 -0.919627 -1.71045 0
M  V30 683 O 67.3685 0.0557892 -1.9442 0
M  V30 684 C 67.6515 -3.38085 -1.23979 0
M  V30 685 C 67.5045 -4.49467 -0.173057 0
M  V30 686 C 68.8235 -3.83776 -2.15416 0
M  V30 687 H 65.9425 -0.700397 -0.229374 0
M  V30 688 H 68.5845 -1.89728 0.101633 0
M  V30 689 H 66.7345 -3.40664 -1.86762 0
M  V30 690 H 68.4065 -4.59018 0.458312 0
M  V30 691 H 66.6495 -4.30909 0.499996 0
M  V30 692 H 67.3205 -5.48323 -0.636054 0
M  V30 693 H 69.7965 -3.83013 -1.62605 0
M  V30 694 H 68.6725 -4.8624 -2.54679 0
M  V30 695 H 68.9335 -3.19998 -3.05047 0
M  V30 696 N 67.9926 0.231505 -1.5589 0
M  V30 697 C 69.2406 0.955461 -1.78088 0
M  V30 698 C 69.5616 1.85262 -0.608533 0
M  V30 699 O 68.8316 1.92277 0.375035 0
M  V30 700 H 67.4116 0.355787 -0.656829 0
M  V30 701 H 70.0736 0.245751 -1.93344 0
M  V30 702 H 69.1696 1.56814 -2.69844 0
M  V30 703 N 69.4707 1.49531 0.497807 0
M  V30 704 C 70.7167 1.59415 1.25358 0
M  V30 705 C 71.0497 0.281422 1.9215 0
M  V30 706 O 70.3247 -0.715249 1.80871 0
M  V30 707 C 70.6077 2.75566 2.3181 0
M  V30 708 C 70.4607 4.16642 1.69498 0
M  V30 709 C 71.7797 2.87347 3.33346 0
M  V30 710 H 68.8987 0.580244 0.454408 0
M  V30 711 H 71.5407 1.81827 0.551262 0
M  V30 712 H 69.6907 2.56587 2.91711 0
M  V30 713 H 71.3627 4.47145 1.13399 0
M  V30 714 H 69.6057 4.22141 0.998978 0
M  V30 715 H 70.2767 4.93792 2.46725 0
M  V30 716 H 72.7527 3.04634 2.83438 0
M  V30 717 H 71.6287 3.70289 4.05188 0
M  V30 718 H 71.8897 1.96834 3.95865 0
M  V30 719 N 70.9488 -0.749086 1.3866 0
M  V30 720 C 72.3598 -1.32664 1.31366 0
M  V30 721 C 72.7108 -1.96179 -0.028484 0
M  V30 722 O 71.8358 -1.9537 -0.93057 0
M  V30 723 C 72.4308 -2.41219 2.37905 0
M  V30 724 C 70.9898 -2.94684 2.34176 0
M  V30 725 C 70.1368 -1.68108 2.20533 0
M  V30 726 H 73.0878 -0.547628 1.48952 0
M  V30 727 H 73.1088 -3.21268 2.0388 0
M  V30 728 H 72.6208 -1.94962 3.35576 0
M  V30 729 H 70.7218 -3.45258 1.401 0
M  V30 730 H 70.8348 -3.48757 3.2849 0
M  V30 731 H 69.1988 -1.91907 1.67463 0
M  V30 732 H 69.9818 -1.23923 3.20153 0
M  V30 733 N 72.4269 -1.23603 -0.977757 0
M  V30 734 C 73.3599 -0.962772 -2.06896 0
M  V30 735 C 74.3379 0.0998743 -1.62293 0
M  V30 736 O 75.5219 -0.0349421 -1.88468 0
M  V30 737 C 72.6489 -0.45095 -3.35685 0
M  V30 738 C 71.6949 -1.50061 -3.99229 0
M  V30 739 S 72.5279 -3.07884 -4.38142 0
M  V30 740 C 73.6839 -2.58378 -5.7008 0
M  V30 741 H 73.9169 -1.88677 -2.29757 0
M  V30 742 H 71.4499 -1.06876 -1.11431 0
M  V30 743 H 73.4079 -0.162261 -4.10179 0
M  V30 744 H 72.0689 0.452179 -3.10828 0
M  V30 745 H 71.2619 -1.09269 -4.92013 0
M  V30 746 H 70.8639 -1.73878 -3.31123 0
M  V30 747 H 73.1559 -2.00563 -6.47133 0
M  V30 748 H 74.0989 -3.49711 -6.15717 0
M  V30 749 H 74.5069 -1.99143 -5.28207 0
M  V30 750 N 73.905 1.17692 -1.04816 0
M  V30 751 C 75.151 1.88137 -0.75711 0
M  V30 752 C 75.484 1.80604 0.713841 0
M  V30 753 O 74.759 1.21146 1.52164 0
M  V30 754 C 75.042 3.38318 -1.2334 0
M  V30 755 C 74.895 3.54622 -2.76701 0
M  V30 756 C 76.214 4.32214 -0.829415 0
M  V30 757 H 73.333 0.683163 -0.27651 0
M  V30 758 H 75.975 1.38424 -1.30149 0
M  V30 759 H 74.125 3.80787 -0.770286 0
M  V30 760 H 75.797 3.21194 -3.31107 0
M  V30 761 H 74.04 2.97026 -3.16161 0
M  V30 762 H 74.711 4.60028 -3.05088 0
M  V30 763 H 77.187 3.97565 -1.22805 0
M  V30 764 H 76.063 5.35838 -1.19033 0
M  V30 765 H 76.324 4.41294 0.266891 0
M  V30 766 N 75.3831 0.828654 1.34056 0
M  V30 767 C 76.7941 0.477534 1.8049 0
M  V30 768 C 77.1451 -1.00258 1.6865 0
M  V30 769 O 76.2701 -1.78057 1.22982 0
M  V30 770 C 76.8651 0.860018 3.27703 0
M  V30 771 C 75.4241 0.561185 3.72193 0
M  V30 772 C 74.5711 1.07385 2.55663 0
M  V30 773 H 77.5221 1.0183 1.21722 0
M  V30 774 H 77.5431 0.166038 3.80138 0
M  V30 775 H 77.0551 1.93731 3.36288 0
M  V30 776 H 75.1561 -0.506465 3.69142 0
M  V30 777 H 75.2691 1.10926 4.66082 0
M  V30 778 H 73.6331 0.495149 2.49841 0
M  V30 779 H 74.4161 2.15771 2.67016 0
M  V30 780 N 76.8612 -1.46375 0.584142 0
M  V30 781 C 78.1072 -2.02678 0.0703716 0
M  V30 782 C 78.4402 -1.4545 -1.28678 0
M  V30 783 O 77.7152 -0.62014 -1.84349 0
M  V30 784 C 77.9982 -3.60099 0.00614674 0
M  V30 785 C 77.8512 -4.27709 1.3923 0
M  V30 786 C 79.1702 -4.34598 -0.693742 0
M  V30 787 H 76.2892 -0.736504 0.027047 0
M  V30 788 H 78.9312 -1.74501 0.751615 0
M  V30 789 H 77.0812 -3.84236 -0.574009 0
M  V30 790 H 78.7532 -4.14832 2.01773 0
M  V30 791 H 76.9962 -3.87016 1.95962 0
M  V30 792 H 77.6672 -5.36478 1.29982 0
M  V30 793 H 80.1432 -4.15615 -0.200869 0
M  V30 794 H 79.0192 -5.44318 -0.707714 0
M  V30 795 H 79.2802 -4.05759 -1.75533 0
M  V30 796 N 78.3393 -0.321999 -1.54275 0
M  V30 797 C 79.5873 0.280489 -2.00144 0
M  V30 798 C 79.9083 1.52777 -1.21178 0
M  V30 799 O 79.1783 1.9338 -0.313187 0
M  V30 800 H 77.7583 0.106632 -0.73935 0
M  V30 801 H 80.4203 -0.438184 -1.8991 0
M  V30 802 H 79.5163 0.537972 -3.07428 0
M  V30 803 N 79.8174 1.5752 -0.0501392 0
M  V30 804 C 81.2334 1.56631 0.306402 0
M  V30 805 C 81.4334 1.0577 1.71508 0
M  V30 806 O 80.4894 0.713837 2.422 0
M  V30 807 C 81.8024 3.00393 0.135811 0
M  V30 808 C 83.3504 3.12315 0.206993 0
M  V30 809 C 83.8254 4.57954 0.064944 0
M  V30 810 N 85.3164 4.63041 0.121254 0
M  V30 811 C 86.0514 5.73389 0.0354381 0
M  V30 812 N 85.5474 6.92724 -0.102666 0
M  V30 813 N 87.3404 5.62026 0.090946 0
M  V30 814 H 79.4914 1.88903 -0.971046 0
M  V30 815 H 81.7544 0.869876 -0.376855 0
M  V30 816 H 81.4604 3.41635 -0.835384 0
M  V30 817 H 81.3344 3.66373 0.897275 0
M  V30 818 H 83.7214 2.70973 1.16866 0
M  V30 819 H 83.8024 2.49016 -0.585208 0
M  V30 820 H 83.4464 4.99981 -0.893394 0
M  V30 821 H 83.3764 5.19258 0.876277 0
M  V30 822 H 85.8674 3.77216 0.227284 0
M  V30 823 H 86.1804 7.72633 -0.160882 0
M  V30 824 H 84.5254 6.94864 -0.137737 0
M  V30 825 H 87.7164 4.67684 0.197388 0
M  V30 826 H 87.8894 6.47997 0.0206089 0
M  V30 827 N 81.2955 -0.223234 1.56011 0
M  V30 828 C 82.2585 -1.26014 1.9145 0
M  V30 829 C 83.2585 -1.3989 0.792937 0
M  V30 830 O 84.4485 -1.38184 1.0607 0
M  V30 831 C 81.5805 -2.63422 2.16383 0
M  V30 832 H 82.7735 -0.95796 2.84189 0
M  V30 833 H 80.3265 -0.463576 1.49267 0
M  V30 834 H 81.0615 -2.98741 1.2619 0
M  V30 835 H 80.8465 -2.54728 2.98088 0
M  V30 836 H 82.3365 -3.38249 2.44903 0
M  V30 837 N 82.7736 -1.49793 -0.48987 0
M  V30 838 C 84.0196 -1.60078 -1.24511 0
M  V30 839 C 84.3526 -0.291608 -1.91998 0
M  V30 840 O 83.6276 0.705647 -1.81248 0
M  V30 841 C 83.9106 -2.76791 -2.30345 0
M  V30 842 C 83.7636 -4.17535 -1.67286 0
M  V30 843 C 85.0826 -2.89111 -3.31817 0
M  V30 844 H 82.2016 -0.582645 -0.451324 0
M  V30 845 H 84.8436 -1.82117 -0.541612 0
M  V30 846 H 82.9936 -2.5813 -2.90346 0
M  V30 847 H 84.6656 -4.4774 -1.11026 0
M  V30 848 H 82.9086 -4.22665 -0.976577 0
M  V30 849 H 83.5796 -4.95094 -2.44103 0
M  V30 850 H 86.0556 -3.06133 -2.81819 0
M  V30 851 H 84.9316 -3.72433 -4.03219 0
M  V30 852 H 85.1926 -1.9893 -3.94815 0
M  V30 853 N 84.2517 0.741722 -1.39055 0
M  V30 854 C 85.6677 1.04638 -1.20512 0
M  V30 855 C 85.8677 2.01405 -0.0620218 0
M  V30 856 O 84.9237 2.45547 0.588457 0
M  V30 857 C 86.2367 1.6151 -2.53643 0
M  V30 858 C 87.7847 1.73623 -2.6043 0
M  V30 859 C 88.2597 2.33906 -3.93767 0
M  V30 860 N 89.7507 2.41323 -3.9537 0
M  V30 861 C 90.4857 2.88888 -4.95309 0
M  V30 862 N 89.9817 3.36401 -6.05645 0
M  V30 863 N 91.7747 2.88037 -4.82692 0
M  V30 864 H 83.9257 0.0998155 -2.12165 0
M  V30 865 H 86.1887 0.106907 -0.941953 0
M  V30 866 H 85.8947 0.978739 -3.37807 0
M  V30 867 H 85.7687 2.60411 -2.72885 0
M  V30 868 H 88.1557 2.36384 -1.76655 0
M  V30 869 H 88.2367 0.733945 -2.45045 0
M  V30 870 H 87.8807 1.71776 -4.7797 0
M  V30 871 H 87.8107 3.34799 -4.06469 0
M  V30 872 H 90.3017 2.07734 -3.15682 0
M  V30 873 H 90.6147 3.71186 -6.77821 0
M  V30 874 H 88.9597 3.34427 -6.09248 0
M  V30 875 H 92.1507 2.50237 -3.95599 0
M  V30 876 H 92.3237 3.24792 -5.60726 0
M  V30 877 N 85.7298 1.2412 0.971189 0
M  V30 878 C 86.6928 1.03156 2.04674 0
M  V30 879 C 87.6928 -0.00990322 1.60797 0
M  V30 880 O 88.8828 0.230729 1.72665 0
M  V30 881 C 86.0148 0.562765 3.36223 0
M  V30 882 H 87.2078 1.98614 2.24705 0
M  V30 883 H 84.7608 1.06293 1.14593 0
M  V30 884 H 85.4958 -0.395176 3.21883 0
M  V30 885 H 85.2808 1.31441 3.69413 0
M  V30 886 H 86.7708 0.437015 4.15307 0
M  V30 887 N 87.2079 -1.17134 1.05439 0
M  V30 888 C 88.4559 -1.87085 0.764429 0
M  V30 889 C 88.7769 -1.81584 -0.710787 0
M  V30 890 O 88.0469 -1.24349 -1.51374 0
M  V30 891 H 86.6269 -0.692627 0.279779 0
M  V30 892 H 89.2889 -1.42087 1.33406 0
M  V30 893 H 88.3849 -2.92759 1.0816 0
M  V30 894 N 88.686 -0.835752 -1.33615 0
M  V30 895 C 89.649 -0.272 -2.2758 0
M  V30 896 C 90.649 0.557487 -1.50827 0
M  V30 897 O 91.839 0.37173 -1.70188 0
M  V30 898 C 88.971 0.617173 -3.35267 0
M  V30 899 H 90.164 -1.10111 -2.78954 0
M  V30 900 H 87.717 -0.608594 -1.43965 0
M  V30 901 H 88.452 1.46884 -2.89129 0
M  V30 902 H 88.237 0.0237066 -3.92093 0
M  V30 903 H 89.727 1.005 -4.05326 0
M  V30 904 N 90.1641 1.46063 -0.591896 0
M  V30 905 C 91.5801 1.57561 -0.254288 0
M  V30 906 C 91.7801 1.58565 1.24336 0
M  V30 907 O 90.8361 1.50753 2.02558 0
M  V30 908 C 92.1491 2.86549 -0.911611 0
M  V30 909 C 93.6971 3.00197 -0.886059 0
M  V30 910 C 94.1721 4.31933 -1.5231 0
M  V30 911 N 95.6631 4.38654 -1.48786 0
M  V30 912 C 96.3981 5.39222 -1.95006 0
M  V30 913 N 95.8941 6.46414 -2.49241 0
M  V30 914 N 97.6871 5.3048 -1.85868 0
M  V30 915 H 89.8381 1.43655 -1.56451 0
M  V30 916 H 92.1011 0.68583 -0.654478 0
M  V30 917 H 91.8071 2.91651 -1.96551 0
M  V30 918 H 91.6811 3.74794 -0.425368 0
M  V30 919 H 94.0681 2.9467 0.159246 0
M  V30 920 H 94.1491 2.13403 -1.41041 0
M  V30 921 H 93.7931 4.38217 -2.56765 0
M  V30 922 H 93.7231 5.17516 -0.973891 0
M  V30 923 H 96.2141 3.61793 -1.09151 0
M  V30 924 H 96.5271 7.19376 -2.82344 0
M  V30 925 H 94.8721 6.47208 -2.53272 0
M  V30 926 H 98.0631 4.45643 -1.43248 0
M  V30 927 H 98.2361 6.08711 -2.22204 0
M  V30 928 N 91.6422 0.330177 1.54103 0
M  V30 929 C 92.5522 -0.541534 2.28264 0
M  V30 930 C 93.5682 -1.12351 1.32866 0
M  V30 931 O 94.7442 -1.14206 1.65888 0
M  V30 932 C 91.8092 -1.68322 3.03098 0
M  V30 933 C 90.8702 -1.13238 4.14096 0
M  V30 934 C 90.1032 -2.21966 4.85352 0
M  V30 935 O 90.3262 -3.42437 4.56172 0
M  V30 936 O 89.2602 -1.87013 5.7211 0
M  V30 937 H 93.0862 0.060938 3.03639 0
M  V30 938 H 90.6712 0.09565 1.49093 0
M  V30 939 H 92.5532 -2.34777 3.49939 0
M  V30 940 H 91.2282 -2.27176 2.30593 0
M  V30 941 H 90.1352 -0.432736 3.71589 0
M  V30 942 H 91.4682 -0.588898 4.88664 0
M  V30 943 N 93.1203 -1.57491 0.0584922 0
M  V30 944 C 94.5313 -1.80526 -0.476138 0
M  V30 945 C 94.8823 -0.971334 -1.70469 0
M  V30 946 O 94.0073 -0.190012 -2.15564 0
M  V30 947 C 94.6023 -3.27424 -0.870587 0
M  V30 948 C 93.1613 -3.51351 -1.35015 0
M  V30 949 C 92.3083 -2.75343 -0.32887 0
M  V30 950 H 95.2593 -1.56133 0.284312 0
M  V30 951 H 95.2803 -3.38745 -1.73299 0
M  V30 952 H 94.7923 -3.88093 0.0237627 0
M  V30 953 H 92.8933 -2.95971 -2.26345 0
M  V30 954 H 93.0063 -4.60059 -1.33726 0
M  V30 955 H 91.3703 -2.417 -0.803321 0
M  V30 956 H 92.1533 -3.38743 0.557521 0
M  V30 957 N 94.5984 0.214957 -1.56127 0
M  V30 958 C 95.8464 0.936518 -1.79091 0
M  V30 959 C 96.1674 1.84606 -0.628148 0
M  V30 960 O 95.4374 1.92664 0.35462 0
M  V30 961 H 94.0174 0.3488 -0.660566 0
M  V30 962 H 96.6794 0.22523 -1.93594 0
M  V30 963 H 95.7754 1.53943 -2.71492 0
M  V30 964 N 96.0765 1.50051 0.48192 0
M  V30 965 C 96.9865 1.7089 1.60728 0
M  V30 966 C 98.0025 0.591788 1.63627 0
M  V30 967 O 99.1785 0.868817 1.81696 0
M  V30 968 C 96.2435 1.78855 2.97005 0
M  V30 969 C 95.3045 3.02537 3.04581 0
M  V30 970 C 94.5375 3.10112 4.34357 0
M  V30 971 O 94.7605 2.24765 5.24249 0
M  V30 972 O 93.6945 4.02747 4.47301 0
M  V30 973 H 97.5205 2.66264 1.46072 0
M  V30 974 H 95.1055 1.34018 0.660264 0
M  V30 975 H 96.9875 1.86336 3.77964 0
M  V30 976 H 95.6625 0.866628 3.11883 0
M  V30 977 H 94.5695 3.00563 2.22739 0
M  V30 978 H 95.9025 3.94272 2.94636 0
M  V30 979 N 97.5546 -0.734337 1.39446 0
M  V30 980 C 98.4846 -1.86155 1.40955 0
M  V30 981 C 99.4656 -1.67898 0.272827 0
M  V30 982 O 100.651 -1.88207 0.478743 0
M  V30 983 C 97.7806 -3.23912 1.25294 0
M  V30 984 C 96.7346 -3.56808 2.36373 0
M  V30 985 C 96.0606 -4.93508 2.058 0
M  V30 986 C 97.3606 -3.59713 3.78687 0
M  V30 987 H 99.0546 -1.8515 2.35287 0
M  V30 988 H 96.6006 -0.889367 1.13253 0
M  V30 989 H 98.5536 -4.02443 1.2497 0
M  V30 990 H 97.2776 -3.25446 0.274308 0
M  V30 991 H 95.9366 -2.80606 2.35914 0
M  V30 992 H 95.5846 -4.91623 1.06374 0
M  V30 993 H 95.2846 -5.16486 2.80208 0
M  V30 994 H 96.8086 -5.74396 2.07128 0
M  V30 995 H 98.2226 -4.2832 3.81071 0
M  V30 996 H 96.6196 -3.94209 4.52459 0
M  V30 997 H 97.6896 -2.59504 4.09617 0
M  V30 998 N 99.0327 -1.24633 -0.964593 0
M  V30 999 C 100.444 -1.08045 -1.5226 0
M  V30 1000 C 100.795 0.347116 -1.93105 0
M  V30 1001 O 99.9197 1.23588 -1.77637 0
M  V30 1002 C 100.515 -1.95514 -2.76695 0
M  V30 1003 C 99.0737 -1.8314 -3.28841 0
M  V30 1004 C 98.2207 -1.90262 -2.01732 0
M  V30 1005 H 101.172 -1.38064 -0.782553 0
M  V30 1006 H 101.193 -1.48925 -3.50145 0
M  V30 1007 H 100.705 -2.99407 -2.46936 0
M  V30 1008 H 98.8057 -0.82092 -3.63444 0
M  V30 1009 H 98.9187 -2.67406 -3.97531 0
M  V30 1010 H 97.2827 -1.34027 -2.16584 0
M  V30 1011 H 98.0657 -2.9574 -1.74334 0
M  V30 1012 N 100.511 1.16574 -1.06058 0
M  V30 1013 C 101.922 1.68662 -0.800632 0
M  V30 1014 C 102.273 1.84184 0.67608 0
M  V30 1015 O 101.398 1.53568 1.52466 0
M  V30 1016 C 101.993 3.06356 -1.44676 0
M  V30 1017 C 100.552 3.55575 -1.23465 0
M  V30 1018 C 99.6988 2.31616 -1.52477 0
M  V30 1019 H 102.65 1.00969 -1.22438 0
M  V30 1020 H 102.671 3.70636 -0.860788 0
M  V30 1021 H 102.183 2.95027 -2.52152 0
M  V30 1022 H 100.284 3.72167 -0.179527 0
M  V30 1023 H 100.397 4.37812 -1.94571 0
M  V30 1024 H 98.7608 2.36512 -0.945209 0
M  V30 1025 H 99.5438 2.22887 -2.61106 0
M  V30 1026 N 101.989 0.842826 1.3317 0
M  V30 1027 C 103.237 0.439577 1.97262 0
M  V30 1028 C 103.558 -1.00548 1.67078 0
M  V30 1029 O 102.828 -1.70098 0.971779 0
M  V30 1030 H 101.408 0.159558 0.72976 0
M  V30 1031 H 104.07 1.07665 1.62463 0
M  V30 1032 H 103.166 0.574886 3.0676 0
M  V30 1033 N 103.467 -1.45747 0.599634 0
M  V30 1034 C 104.43 -2.28917 -0.113835 0
M  V30 1035 C 105.43 -1.3933 -0.802729 0
M  V30 1036 O 106.62 -1.61534 -0.652103 0
M  V30 1037 C 103.752 -3.20152 -1.17114 0
M  V30 1038 H 104.945 -2.93478 0.617289 0
M  V30 1039 H 102.498 -1.52137 0.358327 0
M  V30 1040 H 103.233 -2.60374 -1.93329 0
M  V30 1041 H 103.018 -3.86133 -0.681468 0
M  V30 1042 H 104.508 -3.82708 -1.67105 0
M  V30 1043 N 104.945 -0.338344 -1.53925 0
M  V30 1044 C 105.908 0.508299 -2.23493 0
M  V30 1045 C 106.908 1.03175 -1.23335 0
M  V30 1046 O 108.098 0.921826 -1.47811 0
M  V30 1047 C 105.23 1.70754 -2.95052 0
M  V30 1048 H 106.423 -0.100058 -2.99733 0
M  V30 1049 H 103.976 -0.0896198 -1.56043 0
M  V30 1050 H 104.711 2.35474 -2.22986 0
M  V30 1051 H 104.496 1.33946 -3.68512 0
M  V30 1052 H 105.986 2.30818 -3.48013 0
M  V30 1053 N 106.423 1.57458 -0.0668435 0
M  V30 1054 C 107.333 2.15937 0.916975 0
M  V30 1055 C 108.349 1.12123 1.33058 0
M  V30 1056 O 109.525 1.44366 1.40429 0
M  V30 1057 C 106.59 2.70547 2.16807 0
M  V30 1058 C 105.651 3.89215 1.81135 0
M  V30 1059 C 104.884 4.41211 3.0028 0
M  V30 1060 O 105.107 3.92225 4.14144 0
M  V30 1061 O 104.041 5.32605 2.80384 0
M  V30 1062 H 107.867 3.00354 0.449561 0
M  V30 1063 H 105.452 1.48584 0.155949 0
M  V30 1064 H 107.334 3.0557 2.90181 0
M  V30 1065 H 106.009 1.89192 2.62656 0
M  V30 1066 H 104.916 3.59054 1.05028 0
M  V30 1067 H 106.249 4.71848 1.40073 0
M  V30 1068 N 107.901 -0.206675 1.56239 0
M  V30 1069 C 109.147 -0.930218 1.80208 0
M  V30 1070 C 109.48 -1.83387 0.638981 0
M  V30 1071 O 108.755 -1.91119 -0.361066 0
M  V30 1072 C 109.038 -1.75641 3.1436 0
M  V30 1073 C 108.891 -0.878257 4.41142 0
M  V30 1074 C 110.21 -2.73129 3.45092 0
M  V30 1075 H 107.329 -0.336742 0.655571 0
M  V30 1076 H 109.971 -0.198222 1.88963 0
M  V30 1077 H 108.121 -2.38048 3.07027 0
M  V30 1078 H 109.793 -0.269787 4.6051 0
M  V30 1079 H 108.036 -0.184385 4.33408 0
M  V30 1080 H 108.707 -1.49106 5.3148 0
M  V30 1081 H 111.183 -2.20856 3.52649 0
M  V30 1082 H 110.059 -3.28028 4.40101 0
M  V30 1083 H 110.32 -3.51606 2.68003 0
M  V30 1084 N 109.379 -1.50304 -0.473955 0
M  V30 1085 C 110.625 -1.61389 -1.22806 0
M  V30 1086 C 110.958 -0.311955 -1.91678 0
M  V30 1087 O 110.233 0.686384 -1.81986 0
M  V30 1088 C 110.516 -2.79219 -2.27396 0
M  V30 1089 C 110.369 -4.19286 -1.62848 0
M  V30 1090 C 111.688 -2.92614 -3.28732 0
M  V30 1091 H 108.807 -0.587399 -0.445119 0
M  V30 1092 H 111.449 -1.82681 -0.522265 0
M  V30 1093 H 109.599 -2.61195 -2.87592 0
M  V30 1094 H 111.271 -4.48892 -1.06271 0
M  V30 1095 H 109.514 -4.23677 -0.931693 0
M  V30 1096 H 110.185 -4.97655 -2.38838 0
M  V30 1097 H 112.661 -3.09105 -2.78556 0
M  V30 1098 H 111.537 -3.76688 -3.99246 0
M  V30 1099 H 111.798 -2.03107 -3.92683 0
M  V30 1100 N 110.857 0.726932 -1.39834 0
M  V30 1101 C 112.085 1.51613 -1.40787 0
M  V30 1102 C 112.5 1.88799 -0.00451505 0
M  V30 1103 O 111.857 1.54662 0.968809 0
M  V30 1104 C 111.908 2.79863 -2.28821 0
M  V30 1105 O 111.629 2.44253 -3.63692 0
M  V30 1106 C 113.13 3.73837 -2.38245 0
M  V30 1107 H 110.35 0.468264 -0.480593 0
M  V30 1108 H 112.894 0.897607 -1.83748 0
M  V30 1109 H 111.049 3.38027 -1.89252 0
M  V30 1110 H 111.463 3.26695 -4.1033 0
M  V30 1111 H 112.937 4.60699 -3.04073 0
M  V30 1112 H 113.414 4.16153 -1.40403 0
M  V30 1113 H 114.02 3.21589 -2.78317 0
M  V30 1114 N 112.336 1.25143 0.95797 0
M  V30 1115 C 113.246 1.06968 2.08794 0
M  V30 1116 C 114.262 0.00773911 1.73998 0
M  V30 1117 O 115.438 0.207972 2.00323 0
M  V30 1118 C 112.503 0.68691 3.39827 0
M  V30 1119 C 111.564 1.82641 3.88511 0
M  V30 1120 C 110.797 1.46181 5.1329 0
M  V30 1121 O 111.02 0.355971 5.69288 0
M  V30 1122 O 109.954 2.29085 5.566 0
M  V30 1123 H 113.78 2.01723 2.27027 0
M  V30 1124 H 111.365 1.04051 1.07209 0
M  V30 1125 H 113.247 0.485417 4.18595 0
M  V30 1126 H 111.922 -0.231417 3.22872 0
M  V30 1127 H 110.829 2.08274 3.10762 0
M  V30 1128 H 112.162 2.72386 4.09959 0
M  V30 1129 N 113.814 -1.1601 1.06675 0
M  V30 1130 C 115.06 -1.86909 0.786945 0
M  V30 1131 C 115.393 -1.81717 -0.685018 0
M  V30 1132 O 114.668 -1.23551 -1.50218 0
M  V30 1133 C 114.951 -3.36313 1.28707 0
M  V30 1134 C 114.804 -3.50175 2.82308 0
M  V30 1135 C 116.123 -4.3084 0.898071 0
M  V30 1136 H 113.242 -0.678677 0.287343 0
M  V30 1137 H 115.884 -1.36336 1.32334 0
M  V30 1138 H 114.034 -3.79513 0.830768 0
M  V30 1139 H 115.706 -3.15886 3.36175 0
M  V30 1140 H 113.949 -2.91959 3.20847 0
M  V30 1141 H 114.62 -4.55116 3.12368 0
M  V30 1142 H 117.096 -3.95561 1.29114 0
M  V30 1143 H 115.972 -5.33876 1.27543 0
M  V30 1144 H 116.233 -4.41662 -0.196651 0
M  V30 1145 N 115.292 -0.849877 -1.32721 0
M  V30 1146 C 116.538 -0.451591 -1.97708 0
M  V30 1147 C 116.871 0.989175 -1.6712 0
M  V30 1148 O 116.146 1.69334 -0.956891 0
M  V30 1149 C 116.429 -0.685598 -3.53513 0
M  V30 1150 C 116.282 -2.17444 -3.93749 0
M  V30 1151 C 117.601 -0.138874 -4.39881 0
M  V30 1152 H 114.72 -0.16555 -0.718166 0
M  V30 1153 H 117.362 -1.06742 -1.57182 0
M  V30 1154 H 115.512 -0.161416 -3.88165 0
M  V30 1155 H 117.184 -2.76433 -3.693 0
M  V30 1156 H 115.427 -2.65476 -3.43081 0
M  V30 1157 H 116.098 -2.28888 -5.02309 0
M  V30 1158 H 118.574 -0.587068 -4.11938 0
M  V30 1159 H 117.45 -0.332213 -5.47894 0
M  V30 1160 H 117.711 0.95806 -4.31594 0
M  V30 1161 N 116.77 1.45427 -0.607355 0
M  V30 1162 C 117.733 2.28974 0.101693 0
M  V30 1163 C 118.733 1.39754 0.795329 0
M  V30 1164 O 119.923 1.61878 0.643527 0
M  V30 1165 C 117.055 3.20768 1.15414 0
M  V30 1166 H 118.248 2.93147 -0.632844 0
M  V30 1167 H 115.801 1.51945 -0.366391 0
M  V30 1168 H 116.536 2.61395 1.91945 0
M  V30 1169 H 116.321 3.86489 0.66098 0
M  V30 1170 H 117.811 3.83589 1.65073 0
M  V30 1171 N 118.248 0.346503 1.53744 0
M  V30 1172 C 119.158 -0.517293 2.28826 0
M  V30 1173 C 120.174 -1.10935 1.3405 0
M  V30 1174 O 121.35 -1.1244 1.6709 0
M  V30 1175 C 118.415 -1.65098 3.04866 0
M  V30 1176 C 117.476 -1.0884 4.15274 0
M  V30 1177 C 116.709 -2.16806 4.87679 0
M  V30 1178 O 116.932 -3.3758 4.59778 0
M  V30 1179 O 115.866 -1.80934 5.74061 0
M  V30 1180 H 119.692 0.0931396 3.03557 0
M  V30 1181 H 117.277 0.111458 1.48984 0
M  V30 1182 H 119.159 -2.31053 3.5241 0
M  V30 1183 H 117.834 -2.24717 2.32989 0
M  V30 1184 H 116.741 -0.3933 3.72027 0
M  V30 1185 H 118.074 -0.537036 4.89261 0
M  V30 1186 N 119.726 -1.57421 0.075193 0
M  V30 1187 C 120.972 -1.94716 -0.587998 0
M  V30 1188 C 121.327 -0.955205 -1.67014 0
M  V30 1189 O 120.62 0.0219842 -1.91587 0
M  V30 1190 C 120.814 -3.36428 -1.20626 0
M  V30 1191 C 120.643 -4.49317 -0.185541 0
M  V30 1192 C 119.413 -5.04772 0.23099 0
M  V30 1193 C 121.611 -5.11036 0.57854 0
M  V30 1194 N 119.593 -6.01204 1.24206 0
M  V30 1195 C 120.964 -6.02998 1.44199 0
M  V30 1196 C 123.019 -4.93844 0.634237 0
M  V30 1197 C 121.722 -6.79614 2.3562 0
M  V30 1198 C 123.748 -5.71106 1.53597 0
M  V30 1199 C 123.11 -6.6272 2.38709 0
M  V30 1200 H 119.209 -0.759536 -0.186089 0
M  V30 1201 H 121.793 -1.94097 0.153128 0
M  V30 1202 H 119.964 -3.37778 -1.9173 0
M  V30 1203 H 121.696 -3.60951 -1.8302 0
M  V30 1204 H 118.451 -4.73353 -0.152807 0
M  V30 1205 H 118.875 -6.54119 1.74521 0
M  V30 1206 H 123.517 -4.22799 -0.00960004 0
M  V30 1207 H 121.235 -7.49934 3.01038 0
M  V30 1208 H 124.821 -5.59824 1.58394 0
M  V30 1209 H 123.701 -7.2146 3.07352 0
M  V30 1210 N 121.204 0.198386 -1.56346 0
M  V30 1211 C 122.451 0.919286 -1.80431 0
M  V30 1212 C 122.779 1.83393 -0.647866 0
M  V30 1213 O 122.034 1.92236 0.366556 0
M  V30 1214 C 122.333 1.77031 -3.10475 0
M  V30 1215 C 121.999 1.00693 -4.39513 0
M  V30 1216 C 120.661 0.796145 -4.74568 0
M  V30 1217 C 123.013 0.469559 -5.19081 0
M  V30 1218 C 120.341 0.0364588 -5.86689 0
M  V30 1219 C 122.693 -0.2769 -6.31994 0
M  V30 1220 C 121.357 -0.49873 -6.65634 0
M  V30 1221 H 120.627 0.336391 -0.660244 0
M  V30 1222 H 123.274 0.185872 -1.90596 0
M  V30 1223 H 121.579 2.5723 -2.95533 0
M  V30 1224 H 123.276 2.33065 -3.26315 0
M  V30 1225 H 119.866 1.18122 -4.12001 0
M  V30 1226 H 124.05 0.619816 -4.92414 0
M  V30 1227 H 119.306 -0.145412 -6.11227 0
M  V30 1228 H 123.48 -0.700684 -6.92866 0
M  V30 1229 H 121.107 -1.0893 -7.52355 0
M  V30 1230 N 122.682 1.50554 0.465978 0
M  V30 1231 C 123.959 1.5232 1.22712 0
M  V30 1232 C 124.339 0.270807 2.09356 0
M  V30 1233 O 123.687 -0.745541 2.15995 0
M  V30 1234 C 123.897 2.82175 2.05374 0
M  V30 1235 C 125.245 3.33033 2.6339 0
M  V30 1236 O 126.269 2.83531 2.15612 0
M  V30 1237 O 125.128 4.19336 3.50456 0
M  V30 1238 H 122.222 0.611183 0.557122 0
M  V30 1239 H 124.768 1.62847 0.477381 0
M  V30 1240 H 123.54 3.64797 1.41558 0
M  V30 1241 H 123.163 2.74675 2.87471 0
M  V30 1242 N 124.16 -0.719506 1.40217 0
M  V30 1243 C 125.107 -1.83359 1.40172 0
M  V30 1244 C 126.077 -1.64065 0.259206 0
M  V30 1245 O 127.262 -1.85254 0.456677 0
M  V30 1246 C 124.402 -3.2103 1.26624 0
M  V30 1247 C 123.515 -3.51923 2.50548 0
M  V30 1248 C 122.65 -4.79079 2.29471 0
M  V30 1249 C 121.689 -5.02863 3.48992 0
M  V30 1250 N 120.826 -6.2123 3.27135 0
M  V30 1251 H 125.666 -1.82733 2.35399 0
M  V30 1252 H 123.203 -0.892688 1.16917 0
M  V30 1253 H 125.161 -4.00524 1.16776 0
M  V30 1254 H 123.791 -3.20895 0.350176 0
M  V30 1255 H 122.843 -2.67014 2.70939 0
M  V30 1256 H 124.155 -3.6541 3.39525 0
M  V30 1257 H 123.309 -5.66582 2.16955 0
M  V30 1258 H 122.048 -4.67794 1.37913 0
M  V30 1259 H 121.053 -4.13816 3.6199 0
M  V30 1260 H 122.278 -5.16023 4.41472 0
M  V30 1261 H 120.224 -6.11204 2.38256 0
M  V30 1262 H 120.141 -6.35375 4.09675 0
M  V30 1263 H 121.409 -7.11532 3.18344 0
M  V30 1264 N 125.638 -1.25649 -0.95132 0
M  V30 1265 C 126.884 -1.10757 -1.69884 0
M  V30 1266 C 127.217 0.350061 -1.91019 0
M  V30 1267 O 126.492 1.25783 -1.48354 0
M  V30 1268 C 126.775 -1.86606 -3.07978 0
M  V30 1269 C 126.628 -3.40217 -2.94232 0
M  V30 1270 C 127.947 -1.65182 -4.07925 0
M  V30 1271 H 125.066 -0.40374 -0.616574 0
M  V30 1272 H 127.708 -1.54521 -1.10558 0
M  V30 1273 H 125.858 -1.49409 -3.58621 0
M  V30 1274 H 127.53 -3.87108 -2.50889 0
M  V30 1275 H 125.773 -3.67759 -2.30078 0
M  V30 1276 H 126.444 -3.88505 -3.92133 0
M  V30 1277 H 128.92 -1.9757 -3.66204 0
M  V30 1278 H 127.796 -2.20683 -5.02583 0
M  V30 1279 H 128.057 -0.593933 -4.38092 0
M  V30 1280 N 127.117 1.15442 -1.07289 0
M  V30 1281 C 128.528 1.67803 -0.818475 0
M  V30 1282 C 128.879 1.8489 0.656507 0
M  V30 1283 O 128.004 1.55176 1.50829 0
M  V30 1284 C 128.599 3.04805 -1.47917 0
M  V30 1285 C 127.158 3.54245 -1.27229 0
M  V30 1286 C 126.305 2.29986 -1.54925 0
M  V30 1287 H 129.256 0.996646 -1.23502 0
M  V30 1288 H 129.277 3.69702 -0.90005 0
M  V30 1289 H 128.789 2.92336 -2.55267 0
M  V30 1290 H 126.89 3.71956 -0.21899 0
M  V30 1291 H 127.003 4.35723 -1.99203 0
M  V30 1292 H 125.367 2.35496 -0.970242 0
M  V30 1293 H 126.15 2.20105 -2.63455 0
M  V30 1294 N 128.595 0.856903 1.32268 0
M  V30 1295 C 129.558 0.308171 2.27119 0
M  V30 1296 C 130.558 -0.533421 1.51695 0
M  V30 1297 O 131.748 -0.344607 1.70757 0
M  V30 1298 C 128.88 -0.563757 3.36206 0
M  V30 1299 H 130.073 1.14535 2.77167 0
M  V30 1300 H 127.626 0.631421 1.42978 0
M  V30 1301 H 128.361 -1.42266 2.91429 0
M  V30 1302 H 128.146 0.0386749 3.92081 0
M  V30 1303 H 129.636 -0.940386 4.06874 0
M  V30 1304 N 130.073 -1.45103 0.615059 0
M  V30 1305 C 131.036 -2.29025 -0.0895485 0
M  V30 1306 C 132.036 -1.40174 -0.787906 0
M  V30 1307 O 133.226 -1.62217 -0.634933 0
M  V30 1308 C 130.358 -3.21376 -1.13711 0
M  V30 1309 H 131.551 -2.92807 0.648382 0
M  V30 1310 H 129.104 -1.51749 0.374444 0
M  V30 1311 H 129.839 -2.6241 -1.90556 0
M  V30 1312 H 129.624 -3.86834 -0.640475 0
M  V30 1313 H 131.114 -3.84459 -1.63036 0
M  V30 1314 N 131.551 -0.354651 -1.53558 0
M  V30 1315 C 132.8 0.239504 -2.00273 0
M  V30 1316 C 133.113 1.50759 -1.24623 0
M  V30 1317 O 134.319 2.17968 -1.61871 0
M  V30 1318 C 132.775 0.477341 -3.5672 0
M  V30 1319 C 132.383 -0.775488 -4.41237 0
M  V30 1320 C 134.127 1.02975 -4.11821 0
M  V30 1321 C 132.034 -0.507838 -5.89216 0
M  V30 1322 H 130.964 0.0932743 -0.748208 0
M  V30 1323 H 133.615 -0.471701 -1.77334 0
M  V30 1324 H 131.997 1.24953 -3.7577 0
M  V30 1325 H 133.171 -1.54963 -4.33962 0
M  V30 1326 H 131.486 -1.25033 -3.97185 0
M  V30 1327 H 134.083 1.24513 -5.2 0
M  V30 1328 H 134.426 1.98862 -3.65731 0
M  V30 1329 H 134.959 0.317994 -3.96527 0
M  V30 1330 H 131.698 -1.43674 -6.39561 0
M  V30 1331 H 131.218 0.228011 -5.99366 0
M  V30 1332 H 132.897 -0.129238 -6.46871 0
M  V30 1333 N 133.029 1.57378 -0.0835403 0
M  V30 1334 C 133.939 2.16897 0.894021 0
M  V30 1335 C 134.955 1.13528 1.31861 0
M  V30 1336 O 136.131 1.45848 1.3889 0
M  V30 1337 C 133.196 2.72831 2.13925 0
M  V30 1338 C 132.257 3.91115 1.76997 0
M  V30 1339 C 131.49 4.44371 2.95584 0
M  V30 1340 O 131.713 3.96596 4.09961 0
M  V30 1341 O 130.647 5.35549 2.74719 0
M  V30 1342 H 134.473 3.00814 0.417679 0
M  V30 1343 H 132.058 1.48741 0.140181 0
M  V30 1344 H 133.94 3.0863 2.86924 0
M  V30 1345 H 132.615 1.91967 2.60635 0
M  V30 1346 H 131.522 3.60148 1.01214 0
M  V30 1347 H 132.855 4.73307 1.3506 0
M  V30 1348 N 134.507 -0.190092 1.56449 0
M  V30 1349 C 135.755 -0.907908 1.80559 0
M  V30 1350 C 136.076 -1.83583 0.657438 0
M  V30 1351 O 135.346 -1.93203 -0.323924 0
M  V30 1352 H 133.926 -0.338247 0.666032 0
M  V30 1353 H 136.588 -0.194403 1.93928 0
M  V30 1354 H 135.684 -1.49604 2.73907 0
M  V30 1355 N 135.985 -1.50799 -0.457987 0
M  V30 1356 C 137.225 -1.64088 -1.21879 0
M  V30 1357 C 137.589 -0.339848 -1.88968 0
M  V30 1358 O 138.79 -0.348301 -2.66534 0
M  V30 1359 C 137.061 -2.79726 -2.2246 0
M  V30 1360 S 138.62 -3.13225 -3.07303 0
M  V30 1361 H 135.438 -0.578314 -0.41361 0
M  V30 1362 H 138.04 -1.88632 -0.513645 0
M  V30 1363 H 136.744 -3.72722 -1.71775 0
M  V30 1364 H 136.275 -2.57308 -2.97584 0
M  V30 1365 H 138.29 -2.58062 -4.23814 0
M  V30 1366 N 137.463 0.71206 -1.40597 0
M  V30 1367 C 138.74 1.46536 -1.29563 0
M  V30 1368 C 139.12 2.10931 0.0844217 0
M  V30 1369 O 138.468 2.00418 1.0975 0
M  V30 1370 C 138.678 2.49821 -2.43701 0
M  V30 1371 C 140.026 3.15551 -2.841 0
M  V30 1372 O 141.05 2.60142 -2.4332 0
M  V30 1373 O 139.909 4.15867 -3.54566 0
M  V30 1374 H 137.003 0.651801 -0.509004 0
M  V30 1375 H 139.549 0.743935 -1.52524 0
M  V30 1376 H 138.321 2.00778 -3.35863 0
M  V30 1377 H 137.944 3.29495 -2.22528 0
M  V30 1378 N 138.941 1.26152 0.944643 0
M  V30 1379 C 139.904 1.07474 2.0244 0
M  V30 1380 C 140.904 0.0242064 1.60782 0
M  V30 1381 O 142.094 0.267302 1.72137 0
M  V30 1382 C 139.226 0.633956 3.34953 0
M  V30 1383 H 140.419 2.03336 2.20442 0
M  V30 1384 H 137.972 1.087 1.12312 0
M  V30 1385 H 138.707 -0.326811 3.22649 0
M  V30 1386 H 138.492 1.39247 3.66542 0
M  V30 1387 H 139.982 0.52501 4.14287 0
M  V30 1388 N 140.419 -1.14872 1.07899 0
M  V30 1389 C 141.665 -1.86064 0.806725 0
M  V30 1390 C 141.998 -1.82434 -0.665706 0
M  V30 1391 O 141.273 -1.25138 -1.48899 0
M  V30 1392 C 141.556 -3.34929 1.32267 0
M  V30 1393 C 141.409 -3.47161 2.86006 0
M  V30 1394 C 142.728 -4.29863 0.943717 0
M  V30 1395 H 139.847 -0.675591 0.294526 0
M  V30 1396 H 142.489 -1.34925 1.33773 0
M  V30 1397 H 140.639 -3.78611 0.870974 0
M  V30 1398 H 142.311 -3.12302 3.39507 0
M  V30 1399 H 140.554 -2.88539 3.23925 0
M  V30 1400 H 141.225 -4.51777 3.17177 0
M  V30 1401 H 143.701 -3.9417 1.33302 0
M  V30 1402 H 142.577 -5.32494 1.33198 0
M  V30 1403 H 142.838 -4.41846 -0.149796 0
M  V30 1404 N 141.898 -0.863906 -1.31812 0
M  V30 1405 C 143.144 -0.472535 -1.97218 0
M  V30 1406 C 143.477 0.971394 -1.68159 0
M  V30 1407 O 142.752 1.68309 -0.974798 0
M  V30 1408 C 143.035 -0.723054 -3.52766 0
M  V30 1409 C 142.888 -2.21608 -3.91421 0
M  V30 1410 C 144.207 -0.185522 -4.39709 0
M  V30 1411 H 141.326 -0.173158 -0.71637 0
M  V30 1412 H 143.968 -1.08403 -1.56041 0
M  V30 1413 H 142.118 -0.202577 -3.87971 0
M  V30 1414 H 143.79 -2.80334 -3.66347 0
M  V30 1415 H 142.033 -2.691 -3.40246 0
M  V30 1416 H 142.704 -2.34203 -4.99853 0
M  V30 1417 H 145.18 -0.630726 -4.11292 0
M  V30 1418 H 144.056 -0.390306 -5.47511 0
M  V30 1419 H 144.317 0.912229 -4.32586 0
M  V30 1420 N 143.376 1.44774 -0.622745 0
M  V30 1421 C 144.604 2.06487 -0.130722 0
M  V30 1422 C 145.019 1.46476 1.19123 0
M  V30 1423 O 144.376 0.584502 1.72887 0
M  V30 1424 C 144.427 3.615 -0.000807207 0
M  V30 1425 O 144.148 4.19274 -1.27048 0
M  V30 1426 C 145.649 4.40229 0.520898 0
M  V30 1427 H 142.869 0.666704 -0.0758106 0
M  V30 1428 H 145.413 1.85779 -0.854774 0
M  V30 1429 H 143.568 3.81498 0.673643 0
M  V30 1430 H 143.982 5.12622 -1.1099 0
M  V30 1431 H 145.456 5.49144 0.560838 0
M  V30 1432 H 145.933 4.1108 1.54627 0
M  V30 1433 H 146.539 4.25131 -0.120018 0
M  V30 1434 N 144.854 0.36279 1.53368 0
M  V30 1435 C 146.082 -0.228613 2.05633 0
M  V30 1436 C 146.497 -1.42676 1.23649 0
M  V30 1437 O 145.854 -1.80394 0.27647 0
M  V30 1438 C 145.905 -0.624845 3.56059 0
M  V30 1439 O 145.626 0.525675 4.34935 0
M  V30 1440 C 147.127 -1.27493 4.24571 0
M  V30 1441 H 144.347 -0.0407183 0.669763 0
M  V30 1442 H 146.891 0.520352 1.97769 0
M  V30 1443 H 145.046 -1.32373 3.64083 0
M  V30 1444 H 145.46 0.205969 5.24095 0
M  V30 1445 H 146.934 -1.50277 5.31151 0
M  V30 1446 H 147.411 -2.23439 3.78116 0
M  V30 1447 H 148.017 -0.617558 4.20792 0
M  V30 1448 N 146.332 -1.57332 0.0918853 0
M  V30 1449 C 147.58 -1.93853 -0.571446 0
M  V30 1450 C 147.901 -0.974212 -1.6892 0
M  V30 1451 O 147.171 -0.0257254 -1.95883 0
M  V30 1452 H 145.751 -0.715666 -0.214082 0
M  V30 1453 H 148.413 -1.94287 0.154464 0
M  V30 1454 H 147.509 -2.96191 -0.983729 0
M  V30 1455 N 147.81 0.181792 -1.56548 0
M  V30 1456 C 148.74 1.22765 -1.98623 0
M  V30 1457 C 149.721 1.46747 -0.860189 0
M  V30 1458 O 150.906 1.58259 -1.12551 0
M  V30 1459 C 148.036 2.56894 -2.33715 0
M  V30 1460 C 146.99 2.475 -3.49182 0
M  V30 1461 C 146.316 3.86023 -3.69986 0
M  V30 1462 C 147.616 1.98866 -4.82959 0
M  V30 1463 H 149.31 0.877942 -2.86239 0
M  V30 1464 H 146.856 0.42088 -1.37712 0
M  V30 1465 H 148.809 3.30253 -2.61746 0
M  V30 1466 H 147.533 2.93632 -1.42997 0
M  V30 1467 H 146.192 1.76596 -3.21262 0
M  V30 1468 H 145.84 4.20136 -2.76576 0
M  V30 1469 H 145.54 3.80609 -4.47672 0
M  V30 1470 H 147.064 4.60984 -4.00407 0
M  V30 1471 H 148.478 2.61992 -5.09934 0
M  V30 1472 H 146.875 2.04424 -5.64208 0
M  V30 1473 H 147.945 0.942465 -4.75653 0
M  V30 1474 N 149.288 1.51039 0.449983 0
M  V30 1475 C 150.218 1.74379 1.55288 0
M  V30 1476 C 151.199 0.593236 1.5942 0
M  V30 1477 O 152.384 0.834625 1.7535 0
M  V30 1478 C 149.514 1.85728 2.93466 0
M  V30 1479 C 148.468 3.01078 3.04197 0
M  V30 1480 C 147.794 2.97595 4.44231 0
M  V30 1481 C 149.094 4.41254 2.7945 0
M  V30 1482 H 150.788 2.66725 1.36008 0
M  V30 1483 H 148.334 1.2835 0.652864 0
M  V30 1484 H 150.287 2.0064 3.70569 0
M  V30 1485 H 149.011 0.900207 3.13949 0
M  V30 1486 H 147.67 2.85851 2.29531 0
M  V30 1487 H 147.318 1.99691 4.61663 0
M  V30 1488 H 147.018 3.75046 4.52343 0
M  V30 1489 H 148.542 3.14583 5.23326 0
M  V30 1490 H 149.956 4.56897 3.46292 0
M  V30 1491 H 148.353 5.20315 2.98985 0
M  V30 1492 H 149.423 4.52164 1.75144 0
M  V30 1493 N 150.766 -0.704594 1.40972 0
M  V30 1494 C 152.177 -1.28418 1.3552 0
M  V30 1495 C 152.528 -1.96171 0.0339434 0
M  V30 1496 O 151.653 -1.98231 -0.867944 0
M  V30 1497 C 152.248 -2.33528 2.45459 0
M  V30 1498 C 150.807 -2.87085 2.43433 0
M  V30 1499 C 149.954 -1.61007 2.2577 0
M  V30 1500 H 152.905 -0.499963 1.50619 0
M  V30 1501 H 152.926 -3.14619 2.13998 0
M  V30 1502 H 152.438 -1.84187 3.41609 0
M  V30 1503 H 150.539 -3.40626 1.51013 0
M  V30 1504 H 150.652 -3.3813 3.39419 0
M  V30 1505 H 149.016 -1.86482 1.73483 0
M  V30 1506 H 149.799 -1.13675 3.23933 0
M  V30 1507 N 152.244 -1.26651 -0.937939 0
M  V30 1508 C 153.207 -1.08546 -2.01867 0
M  V30 1509 C 154.207 -0.0327327 -1.60767 0
M  V30 1510 O 155.397 -0.276427 -1.71993 0
M  V30 1511 C 152.529 -0.651711 -3.34613 0
M  V30 1512 H 153.722 -2.04502 -2.1936 0
M  V30 1513 H 151.275 -1.09294 -1.11734 0
M  V30 1514 H 152.01 0.309696 -3.22818 0
M  V30 1515 H 151.795 -1.41189 -3.65798 0
M  V30 1516 H 153.285 -0.546973 -4.14002 0
M  V30 1517 N 153.722 1.14298 -1.08507 0
M  V30 1518 C 154.685 2.17607 -0.719711 0
M  V30 1519 C 155.685 1.58907 0.245997 0
M  V30 1520 O 156.875 1.74181 0.0254081 0
M  V30 1521 C 154.007 3.40842 -0.0627695 0
M  V30 1522 H 155.2 2.51443 -1.63452 0
M  V30 1523 H 152.753 1.28963 -0.88307 0
M  V30 1524 H 153.488 3.12587 0.863716 0
M  V30 1525 H 153.273 3.84713 -0.757504 0
M  V30 1526 H 154.763 4.17221 0.177786 0
M  V30 1527 N 155.201 0.870884 1.31352 0
M  V30 1528 C 156.447 0.482987 1.96965 0
M  V30 1529 C 156.78 -0.962462 1.68672 0
M  V30 1530 O 156.055 -1.6779 0.98371 0
M  V30 1531 C 156.338 0.741752 3.52378 0
M  V30 1532 C 156.191 2.2368 3.9024 0
M  V30 1533 C 157.51 0.208838 4.39604 0
M  V30 1534 H 154.629 0.176955 0.715441 0
M  V30 1535 H 157.271 1.09229 1.55464 0
M  V30 1536 H 155.421 0.223149 3.87859 0
M  V30 1537 H 157.093 2.82273 3.64856 0
M  V30 1538 H 155.336 2.70901 3.38814 0
M  V30 1539 H 156.007 2.3685 4.98604 0
M  V30 1540 H 158.483 0.652529 4.10952 0
M  V30 1541 H 157.359 0.419336 5.47296 0
M  V30 1542 H 157.62 -0.889275 4.33064 0
M  V30 1543 N 156.679 -1.44442 0.630414 0
M  V30 1544 C 157.642 -2.29107 -0.0652523 0
M  V30 1545 C 158.642 -1.41002 -0.772995 0
M  V30 1546 O 159.832 -1.62881 -0.617692 0
M  V30 1547 C 156.964 -3.22564 -1.10296 0
M  V30 1548 H 158.157 -2.92103 0.679401 0
M  V30 1549 H 155.71 -1.51343 0.390517 0
M  V30 1550 H 156.445 -2.64416 -1.87762 0
M  V30 1551 H 156.23 -3.87491 -0.59941 0
M  V30 1552 H 157.72 -3.86167 -1.5895 0
M  V30 1553 N 158.157 -0.370918 -1.53173 0
M  V30 1554 C 159.403 0.217423 -2.01631 0
M  V30 1555 C 159.736 1.47983 -1.25756 0
M  V30 1556 O 159.011 1.91274 -0.352764 0
M  V30 1557 C 159.294 0.503982 -3.56556 0
M  V30 1558 C 159.147 -0.77243 -4.43118 0
M  V30 1559 C 160.466 1.30234 -4.20389 0
M  V30 1560 H 157.585 0.0775486 -0.732909 0
M  V30 1561 H 160.227 -0.496863 -1.83388 0
M  V30 1562 H 158.377 1.11248 -3.72231 0
M  V30 1563 H 160.049 -1.4098 -4.39229 0
M  V30 1564 H 158.292 -1.39167 -4.10871 0
M  V30 1565 H 158.963 -0.526815 -5.4948 0
M  V30 1566 H 161.439 0.787546 -4.08579 0
M  V30 1567 H 160.315 1.47158 -5.28806 0
M  V30 1568 H 160.576 2.31237 -3.76805 0
M  V30 1569 N 159.635 1.57281 -0.100228 0
M  V30 1570 C 161.051 1.57527 0.256416 0
M  V30 1571 C 161.251 1.11173 1.68056 0
M  V30 1572 O 160.307 0.79053 2.39806 0
M  V30 1573 C 161.62 3.00673 0.0401747 0
M  V30 1574 C 163.168 3.12815 0.107528 0
M  V30 1575 C 163.643 4.57929 -0.0807834 0
M  V30 1576 N 165.134 4.63193 -0.0261207 0
M  V30 1577 C 165.869 5.73212 -0.146999 0
M  V30 1578 N 165.365 6.92047 -0.322999 0
M  V30 1579 N 167.158 5.62031 -0.0879044 0
M  V30 1580 H 159.309 1.85718 -1.03065 0
M  V30 1581 H 161.572 0.857446 -0.404339 0
M  V30 1582 H 161.278 3.38804 -0.943649 0
M  V30 1583 H 161.152 3.69042 0.780262 0
M  V30 1584 H 163.539 2.74554 1.08186 0
M  V30 1585 H 163.62 2.47028 -0.664134 0
M  V30 1586 H 163.264 4.96886 -1.05201 0
M  V30 1587 H 163.194 5.21783 0.710635 0
M  V30 1588 H 165.685 3.77748 0.107161 0
M  V30 1589 H 165.998 7.7173 -0.406608 0
M  V30 1590 H 164.343 6.94074 -0.358733 0
M  V30 1591 H 167.534 4.68075 0.048498 0
M  V30 1592 H 167.707 6.47734 -0.185557 0
M  V30 1593 N 161.113 -0.173488 1.56642 0
M  V30 1594 C 162.338 -0.910149 1.86363 0
M  V30 1595 C 162.763 -1.75132 0.686318 0
M  V30 1596 O 162.121 -1.77595 -0.364643 0
M  V30 1597 C 162.169 -1.76447 3.14482 0
M  V30 1598 O 161.273 -2.86584 2.96553 0
M  V30 1599 H 160.614 -0.255086 0.613047 0
M  V30 1600 H 163.144 -0.172283 2.03873 0
M  V30 1601 H 163.154 -2.16483 3.45831 0
M  V30 1602 H 161.829 -1.14658 3.99783 0
M  V30 1603 H 160.406 -2.50146 2.76553 0
M  V30 1604 N 162.591 -1.51276 -0.441967 0
M  V30 1605 C 163.524 -1.66933 -1.55591 0
M  V30 1606 C 164.502 -0.516958 -1.54163 0
M  V30 1607 O 165.686 -0.740209 -1.73358 0
M  V30 1608 C 162.813 -1.67866 -2.94174 0
M  V30 1609 C 161.859 -2.89013 -3.13646 0
M  V30 1610 S 162.692 -4.49897 -2.90436 0
M  V30 1611 C 163.848 -4.53568 -4.31308 0
M  V30 1612 H 164.081 -2.61155 -1.42076 0
M  V30 1613 H 161.614 -1.40902 -0.631341 0
M  V30 1614 H 163.572 -1.69089 -3.74058 0
M  V30 1615 H 162.233 -0.748296 -3.05056 0
M  V30 1616 H 161.426 -2.86054 -4.14957 0
M  V30 1617 H 161.028 -2.85509 -2.4158 0
M  V30 1618 H 163.32 -4.28924 -5.24434 0
M  V30 1619 H 164.263 -5.55355 -4.39303 0
M  V30 1620 H 164.671 -3.82943 -4.14747 0
M  V30 1621 N 164.069 0.697108 -1.41344 0
M  V30 1622 C 165.032 1.79281 -1.42797 0
M  V30 1623 C 166.032 1.57607 -0.318837 0
M  V30 1624 O 167.222 1.64309 -0.578642 0
M  V30 1625 C 164.354 3.17632 -1.23785 0
M  V30 1626 H 165.547 1.79385 -2.40335 0
M  V30 1627 H 163.1 0.904582 -1.27464 0
M  V30 1628 H 163.835 3.23167 -0.270814 0
M  V30 1629 H 163.62 3.34765 -2.04144 0
M  V30 1630 H 165.11 3.97617 -1.27633 0
M  V30 1631 N 165.547 1.27147 0.931209 0
M  V30 1632 C 166.457 1.11372 2.06478 0
M  V30 1633 C 167.473 0.044645 1.73943 0
M  V30 1634 O 168.649 0.250417 1.99837 0
M  V30 1635 C 165.714 0.758838 3.38294 0
M  V30 1636 C 164.775 1.90841 3.84549 0
M  V30 1637 C 164.008 1.57036 5.10074 0
M  V30 1638 O 164.231 0.476645 5.68405 0
M  V30 1639 O 163.165 2.40839 5.51616 0
M  V30 1640 H 166.991 2.06493 2.22698 0
M  V30 1641 H 164.576 1.06301 1.04978 0
M  V30 1642 H 166.458 0.574098 4.17471 0
M  V30 1643 H 165.133 -0.162879 3.2329 0
M  V30 1644 H 164.04 2.14819 3.06274 0
M  V30 1645 H 165.373 2.81021 4.04089 0
M  V30 1646 N 167.025 -1.13721 1.09112 0
M  V30 1647 C 167.972 -2.19031 0.727591 0
M  V30 1648 C 168.942 -1.63555 -0.289656 0
M  V30 1649 O 170.127 -1.90023 -0.172026 0
M  V30 1650 C 167.267 -3.4477 0.15082 0
M  V30 1651 C 166.38 -4.14365 1.22172 0
M  V30 1652 C 165.515 -5.27709 0.608042 0
M  V30 1653 C 164.554 -5.89147 1.66047 0
M  V30 1654 N 163.691 -6.93929 1.06806 0
M  V30 1655 H 168.531 -2.49475 1.62991 0
M  V30 1656 H 166.068 -1.22499 0.81439 0
M  V30 1657 H 168.026 -4.16714 -0.201358 0
M  V30 1658 H 166.656 -3.14787 -0.714783 0
M  V30 1659 H 165.708 -3.40737 1.69122 0
M  V30 1660 H 167.02 -4.56114 2.01895 0
M  V30 1661 H 166.174 -6.06355 0.204523 0
M  V30 1662 H 164.913 -4.872 -0.220769 0
M  V30 1663 H 163.918 -5.09198 2.07357 0
M  V30 1664 H 165.143 -6.31729 2.49189 0
M  V30 1665 H 163.089 -6.55483 0.260476 0
M  V30 1666 H 163.006 -7.34202 1.8023 0
M  V30 1667 H 164.274 -7.76434 0.690644 0
M  V30 1668 N 168.503 -0.877838 -1.30888 0
M  V30 1669 C 169.433 -0.35534 -2.3078 0
M  V30 1670 C 170.414 0.557994 -1.60687 0
M  V30 1671 O 171.599 0.473355 -1.88343 0
M  V30 1672 C 168.729 0.437221 -3.44537 0
M  V30 1673 C 167.683 -0.383715 -4.26276 0
M  V30 1674 C 167.009 0.535014 -5.32017 0
M  V30 1675 C 168.309 -1.62201 -4.96476 0
M  V30 1676 H 170.003 -1.19007 -2.74732 0
M  V30 1677 H 167.549 -0.573698 -1.32078 0
M  V30 1678 H 169.502 0.813334 -4.13477 0
M  V30 1679 H 168.226 1.30553 -2.99372 0
M  V30 1680 H 166.885 -0.741874 -3.59015 0
M  V30 1681 H 166.533 1.40083 -4.831 0
M  V30 1682 H 166.233 -0.0104211 -5.87599 0
M  V30 1683 H 167.757 0.907799 -6.03814 0
M  V30 1684 H 169.171 -1.31689 -5.5797 0
M  V30 1685 H 167.568 -2.10711 -5.61891 0
M  V30 1686 H 168.638 -2.37044 -4.23011 0
M  V30 1687 N 169.982 1.44106 -0.638065 0
M  V30 1688 C 171.23 2.01579 -0.145043 0
M  V30 1689 C 171.551 1.50496 1.24 0
M  V30 1690 O 170.821 0.711374 1.82527 0
M  V30 1691 H 169.401 0.745282 -0.05063 0
M  V30 1692 H 172.063 1.76516 -0.826327 0
M  V30 1693 H 171.159 3.11877 -0.118039 0
M  V30 1694 N 171.46 0.379036 1.52974 0
M  V30 1695 C 172.709 -0.207612 2.00629 0
M  V30 1696 C 173.022 -1.48758 1.27006 0
M  V30 1697 O 174.228 -2.15365 1.65318 0
M  V30 1698 C 172.684 -0.42053 3.57435 0
M  V30 1699 C 172.292 0.845587 4.39948 0
M  V30 1700 C 174.036 -0.964102 4.13407 0
M  V30 1701 C 171.943 0.601513 5.88333 0
M  V30 1702 H 170.873 -0.0813591 0.749598 0
M  V30 1703 H 173.524 0.499853 1.76561 0
M  V30 1704 H 171.906 -1.18959 3.7771 0
M  V30 1705 H 173.08 1.61848 4.31442 0
M  V30 1706 H 171.395 1.31336 3.95145 0
M  V30 1707 H 173.992 -1.16225 5.21916 0
M  V30 1708 H 174.335 -1.93019 3.68849 0
M  V30 1709 H 174.868 -0.25487 3.96983 0
M  V30 1710 H 171.607 1.53831 6.37194 0
M  V30 1711 H 171.127 -0.132628 5.99653 0
M  V30 1712 H 172.806 0.232134 6.46583 0
M  V30 1713 N 172.938 -1.57226 0.108567 0
M  V30 1714 C 174.349 -1.8195 -0.418464 0
M  V30 1715 C 174.7 -1.02508 -1.67292 0
M  V30 1716 O 173.825 -0.258496 -2.14851 0
M  V30 1717 C 174.42 -3.30028 -0.765979 0
M  V30 1718 C 172.979 -3.55469 -1.23769 0
M  V30 1719 C 172.126 -2.7625 -0.241106 0
M  V30 1720 H 175.077 -1.55149 0.33384 0
M  V30 1721 H 175.098 -3.44086 -1.62434 0
M  V30 1722 H 174.61 -3.87821 0.147219 0
M  V30 1723 H 172.711 -3.03022 -2.16814 0
M  V30 1724 H 172.824 -4.6408 -1.19022 0
M  V30 1725 H 171.188 -2.44133 -0.72602 0
M  V30 1726 H 171.971 -3.36797 0.665007 0
M  V30 1727 N 174.416 0.165178 -1.56732 0
M  V30 1728 C 175.646 0.894919 -1.86212 0
M  V30 1729 C 176.054 1.76066 -0.692627 0
M  V30 1730 O 175.397 1.80387 0.347303 0
M  V30 1731 C 175.459 1.8174 -3.10179 0
M  V30 1732 C 175.123 1.13064 -4.42793 0
M  V30 1733 C 176.12 0.493169 -5.17556 0
M  V30 1734 C 173.805 1.12556 -4.89527 0
M  V30 1735 C 175.799 -0.140209 -6.37246 0
M  V30 1736 C 173.486 0.488366 -6.09145 0
M  V30 1737 C 174.484 -0.143411 -6.82849 0
M  V30 1738 O 174.172 -0.77055 -8.00199 0
M  V30 1739 H 173.904 0.265114 -0.621844 0
M  V30 1740 H 176.458 0.168242 -2.0471 0
M  V30 1741 H 174.688 2.58455 -2.87642 0
M  V30 1742 H 176.377 2.4175 -3.26055 0
M  V30 1743 H 177.143 0.489023 -4.82528 0
M  V30 1744 H 173.022 1.60672 -4.32094 0
M  V30 1745 H 176.566 -0.633932 -6.94714 0
M  V30 1746 H 172.463 0.490116 -6.43637 0
M  V30 1747 H 173.231 -0.670408 -8.1575 0
M  V30 1748 N 175.894 1.51508 0.433938 0
M  V30 1749 C 177.31 1.39759 0.770682 0
M  V30 1750 C 177.51 0.482594 1.95636 0
M  V30 1751 O 176.566 -0.0609691 2.52426 0
M  V30 1752 C 177.879 2.81851 1.04787 0
M  V30 1753 C 179.427 2.91025 1.1521 0
M  V30 1754 C 179.902 4.34032 1.46219 0
M  V30 1755 N 181.393 4.37154 1.53136 0
M  V30 1756 C 182.128 5.4484 1.78709 0
M  V30 1757 N 181.624 6.62682 2.02051 0
M  V30 1758 N 183.417 5.32324 1.80519 0
M  V30 1759 H 175.568 2.09548 -0.346892 0
M  V30 1760 H 177.831 0.943446 -0.0928074 0
M  V30 1761 H 177.537 3.50815 0.249304 0
M  V30 1762 H 177.411 3.21386 1.97461 0
M  V30 1763 H 179.798 2.22257 1.94128 0
M  V30 1764 H 179.879 2.54983 0.204281 0
M  V30 1765 H 179.523 5.03351 0.678274 0
M  V30 1766 H 179.453 4.6759 2.42212 0
M  V30 1767 H 181.944 3.52197 1.36987 0
M  V30 1768 H 182.257 7.40543 2.20943 0
M  V30 1769 H 180.602 6.65791 1.99366 0
M  V30 1770 H 183.793 4.39246 1.61805 0
M  V30 1771 H 183.966 6.16328 2.00111 0
M  V30 1772 N 177.372 -0.689602 1.41712 0
M  V30 1773 C 178.602 -1.47613 1.44548 0
M  V30 1774 C 179.01 -1.89132 0.0509034 0
M  V30 1775 O 178.353 -1.57741 -0.94146 0
M  V30 1776 C 178.415 -2.76596 2.2964 0
M  V30 1777 C 178.079 -2.57245 3.77722 0
M  V30 1778 C 179.076 -2.22804 4.69739 0
M  V30 1779 C 176.761 -2.727 4.2183 0
M  V30 1780 C 178.755 -2.04064 6.03851 0
M  V30 1781 C 176.442 -2.53576 5.56006 0
M  V30 1782 C 177.44 -2.1931 6.46832 0
M  V30 1783 O 177.128 -2.00359 7.78532 0
M  V30 1784 H 176.86 -0.461227 0.494212 0
M  V30 1785 H 179.414 -0.856045 1.86711 0
M  V30 1786 H 177.644 -3.41033 1.82301 0
M  V30 1787 H 179.333 -3.38424 2.24107 0
M  V30 1788 H 180.099 -2.10473 4.36951 0
M  V30 1789 H 175.978 -2.98353 3.51435 0
M  V30 1790 H 179.522 -1.77241 6.74708 0
M  V30 1791 H 175.419 -2.65499 5.88371 0
M  V30 1792 H 176.187 -2.15075 7.89737 0
M  V30 1793 N 178.85 -1.27639 -0.924453 0
M  V30 1794 C 180.078 -1.16989 -1.70649 0
M  V30 1795 C 180.493 0.272869 -1.86818 0
M  V30 1796 O 179.85 1.18549 -1.38753 0
M  V30 1797 C 179.901 -1.85229 -3.10439 0
M  V30 1798 O 179.622 -3.23868 -2.95028 0
M  V30 1799 C 181.123 -1.80746 -4.04779 0
M  V30 1800 H 178.343 -0.406595 -0.53378 0
M  V30 1801 H 180.887 -1.68569 -1.15778 0
M  V30 1802 H 179.042 -1.37545 -3.6216 0
M  V30 1803 H 179.456 -3.57889 -3.83426 0
M  V30 1804 H 180.93 -2.33101 -5.00368 0
M  V30 1805 H 181.407 -0.777499 -4.32263 0
M  V30 1806 H 182.013 -2.28059 -3.58984 0
M  V30 1807 N 180.328 1.1314 -1.09713 0
M  V30 1808 C 181.574 1.84757 -0.836224 0
M  V30 1809 C 181.907 1.8347 0.636598 0
M  V30 1810 O 181.182 1.27491 1.46889 0
M  V30 1811 C 181.465 3.32782 -1.37578 0
M  V30 1812 C 181.318 3.42567 -2.91493 0
M  V30 1813 C 182.637 4.28307 -1.01198 0
M  V30 1814 H 179.756 0.67082 -0.305236 0
M  V30 1815 H 182.398 1.3278 -1.35903 0
M  V30 1816 H 180.548 3.77177 -0.931097 0
M  V30 1817 H 182.22 3.06862 -3.44432 0
M  V30 1818 H 180.463 2.83349 -3.28475 0
M  V30 1819 H 181.134 4.46674 -3.24324 0
M  V30 1820 H 183.61 3.91999 -1.39556 0
M  V30 1821 H 182.486 5.30307 -1.41653 0
M  V30 1822 H 182.747 4.42029 0.0794833 0
M  V30 1823 N 181.806 0.884767 1.30421 0
M  V30 1824 C 182.736 0.367574 2.30589 0
M  V30 1825 C 183.717 -0.549464 1.60981 0
M  V30 1826 O 184.902 -0.46336 1.88591 0
M  V30 1827 C 182.032 -0.418944 3.44764 0
M  V30 1828 C 180.986 0.406316 4.26067 0
M  V30 1829 C 180.312 -0.506793 5.32293 0
M  V30 1830 C 181.612 1.64832 4.95608 0
M  V30 1831 H 183.306 1.20462 2.74097 0
M  V30 1832 H 180.852 0.580695 1.31772 0
M  V30 1833 H 182.805 -0.791395 4.13902 0
M  V30 1834 H 181.529 -1.28964 3.0006 0
M  V30 1835 H 180.188 0.760903 3.58617 0
M  V30 1836 H 179.836 -1.37519 4.83836 0
M  V30 1837 H 179.536 0.0415828 5.87585 0
M  V30 1838 H 181.06 -0.875764 6.04287 0
M  V30 1839 H 182.474 1.34646 5.57264 0
M  V30 1840 H 180.871 2.13688 5.60765 0
M  V30 1841 H 181.941 2.39284 4.21748 0
M  V30 1842 N 183.284 -1.43765 0.645699 0
M  V30 1843 C 184.509 -2.06767 0.161883 0
M  V30 1844 C 184.934 -1.48034 -1.16049 0
M  V30 1845 O 184.292 -0.587369 -1.71522 0
M  V30 1846 C 184.34 -3.60519 0.0762003 0
M  V30 1847 O 183.444 -4.00982 -0.963721 0
M  V30 1848 H 182.785 -0.657675 0.091429 0
M  V30 1849 H 185.315 -1.84397 0.886499 0
M  V30 1850 H 185.325 -4.07853 -0.109604 0
M  V30 1851 H 184 -4.02646 1.04157 0
M  V30 1852 H 182.577 -3.65253 -0.751312 0
M  V30 1853 N 184.763 -0.387143 -1.52771 0
M  V30 1854 C 186.174 0.0873634 -1.86495 0
M  V30 1855 C 186.525 1.46336 -1.30691 0
M  V30 1856 O 185.65 2.068 -0.637409 0
M  V30 1857 C 186.245 0.165305 -3.38396 0
M  V30 1858 C 184.804 0.584101 -3.7184 0
M  V30 1859 C 183.951 -0.255279 -2.76122 0
M  V30 1860 H 186.902 -0.605104 -1.46711 0
M  V30 1861 H 186.923 0.984848 -3.67534 0
M  V30 1862 H 186.435 -0.836301 -3.78982 0
M  V30 1863 H 184.536 1.59315 -3.36823 0
M  V30 1864 H 184.649 0.343749 -4.77865 0
M  V30 1865 H 183.013 0.279126 -2.53166 0
M  V30 1866 H 183.796 -1.25482 -3.19545 0
M  V30 1867 N 186.241 1.57166 -0.116904 0
M  V30 1868 C 187.518 1.86645 0.585049 0
M  V30 1869 C 187.898 1.0177 1.84949 0
M  V30 1870 O 187.246 0.0960379 2.28298 0
M  V30 1871 C 187.456 3.37736 0.879507 0
M  V30 1872 C 188.804 4.06289 1.23348 0
M  V30 1873 O 189.828 3.42743 0.969836 0
M  V30 1874 O 188.687 5.18455 1.7282 0
M  V30 1875 H 185.781 0.772593 0.295007 0
M  V30 1876 H 188.327 1.69025 -0.151249 0
M  V30 1877 H 187.099 3.91296 -0.0166136 0
M  V30 1878 H 186.722 3.6078 1.67103 0
M  V30 1879 N 187.719 -0.156864 1.56817 0
M  V30 1880 C 188.669 -1.19891 1.93934 0
M  V30 1881 C 189.653 -1.39061 0.809372 0
M  V30 1882 O 190.845 -1.40789 1.07273 0
M  V30 1883 C 187.974 -2.53493 2.31508 0
M  V30 1884 C 187.06 -2.37957 3.51052 0
M  V30 1885 N 187.451 -1.92158 4.67877 0
M  V30 1886 C 185.749 -2.68739 3.55943 0
M  V30 1887 C 186.45 -1.8943 5.49992 0
M  V30 1888 N 185.426 -2.32375 4.91429 0
M  V30 1889 H 189.228 -0.836746 2.81737 0
M  V30 1890 H 186.742 -0.365012 1.58245 0
M  V30 1891 H 188.739 -3.28811 2.56299 0
M  V30 1892 H 187.399 -2.905 1.45051 0
M  V30 1893 H 188.41 -1.62274 4.91821 0
M  V30 1894 H 185.087 -3.09687 2.80001 0
M  V30 1895 H 186.477 -1.55596 6.53636 0
M  V30 1896 N 189.197 -1.51736 -0.425897 0
M  V30 1897 C 190.127 -1.76827 -1.52494 0
M  V30 1898 C 191.108 -0.618524 -1.58456 0
M  V30 1899 O 192.293 -0.862416 -1.74 0
M  V30 1900 C 189.423 -1.90374 -2.90474 0
M  V30 1901 C 188.377 -3.0588 -2.99369 0
M  V30 1902 C 187.703 -3.04625 -4.3944 0
M  V30 1903 C 189.003 -4.45644 -2.72394 0
M  V30 1904 H 190.697 -2.68855 -1.31748 0
M  V30 1905 H 188.243 -1.29372 -0.632362 0
M  V30 1906 H 190.196 -2.0651 -3.6733 0
M  V30 1907 H 188.92 -0.95004 -3.12477 0
M  V30 1908 H 187.579 -2.89467 -2.24954 0
M  V30 1909 H 187.227 -2.0701 -4.58428 0
M  V30 1910 H 186.927 -3.82195 -4.46319 0
M  V30 1911 H 188.451 -3.22869 -5.18255 0
M  V30 1912 H 189.865 -4.62348 -3.38979 0
M  V30 1913 H 188.262 -5.25006 -2.9067 0
M  V30 1914 H 189.332 -4.54893 -1.67929 0
M  V30 1915 N 190.675 0.682077 -1.42076 0
M  V30 1916 C 192.086 1.26246 -1.37546 0
M  V30 1917 C 192.437 1.96092 -0.0651481 0
M  V30 1918 O 191.562 1.99587 0.836297 0
M  V30 1919 C 192.157 2.29594 -2.49143 0
M  V30 1920 C 190.716 2.83175 -2.47969 0
M  V30 1921 C 189.863 1.57395 -2.28303 0
M  V30 1922 H 192.814 0.475937 -1.51395 0
M  V30 1923 H 192.835 3.11175 -2.18976 0
M  V30 1924 H 192.347 1.78729 -3.44496 0
M  V30 1925 H 190.448 3.3818 -1.56413 0
M  V30 1926 H 190.561 3.32687 -3.44755 0
M  V30 1927 H 188.925 1.83699 -1.76428 0
M  V30 1928 H 189.708 1.08507 -3.25701 0
M  V30 1929 N 192.153 1.28127 0.917671 0
M  V30 1930 C 193.378 1.18007 1.70555 0
M  V30 1931 C 193.803 -0.258257 1.86319 0
M  V30 1932 O 193.161 -1.1869 1.37049 0
M  V30 1933 C 193.209 1.87948 3.07746 0
M  V30 1934 O 192.313 1.18427 3.9503 0
M  V30 1935 H 191.654 0.409867 0.522403 0
M  V30 1936 H 194.184 1.69379 1.1477 0
M  V30 1937 H 194.194 1.95701 3.58001 0
M  V30 1938 H 192.869 2.92573 2.95591 0
M  V30 1939 H 191.446 1.18811 3.53466 0
M  V30 1940 N 193.631 -1.12557 1.10312 0
M  V30 1941 C 194.541 -2.21841 0.763142 0
M  V30 1942 C 195.557 -1.72354 -0.238801 0
M  V30 1943 O 196.733 -2.01249 -0.0778746 0
M  V30 1944 C 193.798 -3.46131 0.198632 0
M  V30 1945 C 192.859 -4.10464 1.25769 0
M  V30 1946 C 192.092 -5.28821 0.72002 0
M  V30 1947 O 192.315 -5.6859 -0.453993 0
M  V30 1948 O 191.249 -5.83437 1.47935 0
M  V30 1949 H 195.075 -2.53312 1.67532 0
M  V30 1950 H 192.66 -1.20867 0.878157 0
M  V30 1951 H 194.542 -4.2125 -0.112401 0
M  V30 1952 H 193.217 -3.16338 -0.686419 0
M  V30 1953 H 192.124 -3.3713 1.62156 0
M  V30 1954 H 193.457 -4.44408 2.11571 0
M  V30 1955 N 195.109 -0.891671 -1.2995 0
M  V30 1956 C 196.041 -0.320695 -2.26945 0
M  V30 1957 C 197.054 0.528497 -1.53983 0
M  V30 1958 O 198.243 0.346959 -1.75096 0
M  V30 1959 C 195.343 0.562066 -3.34207 0
M  V30 1960 C 194.516 -0.259576 -4.36629 0
M  V30 1961 C 193.575 0.554739 -5.23268 0
M  V30 1962 O 192.601 -0.0249311 -5.69195 0
M  V30 1963 N 193.803 1.8625 -5.4981 0
M  V30 1964 H 196.568 -1.15432 -2.76578 0
M  V30 1965 H 194.129 -0.755336 -1.432 0
M  V30 1966 H 196.121 1.11304 -3.89093 0
M  V30 1967 H 194.691 1.29637 -2.84452 0
M  V30 1968 H 193.911 -0.991986 -3.81514 0
M  V30 1969 H 195.199 -0.822564 -5.02107 0
M  V30 1970 H 194.597 2.35628 -5.14292 0
M  V30 1971 H 193.154 2.36078 -6.07545 0
M  V30 1972 N 196.587 1.43421 -0.653314 0
M  V30 1973 C 197.812 2.06678 -0.172846 0
M  V30 1974 C 198.237 1.48648 1.15262 0
M  V30 1975 O 197.595 0.596457 1.71208 0
M  V30 1976 C 197.643 3.60474 -0.0953184 0
M  V30 1977 O 196.747 4.01487 0.942442 0
M  V30 1978 H 196.088 0.657181 -0.0949155 0
M  V30 1979 H 198.618 1.83925 -0.896265 0
M  V30 1980 H 198.628 4.07905 0.0879728 0
M  V30 1981 H 197.303 4.02088 -1.06291 0
M  V30 1982 H 195.88 3.65646 0.731932 0
M  V30 1983 N 198.065 0.39524 1.52563 0
M  V30 1984 C 198.997 -0.472201 2.24283 0
M  V30 1985 C 200.01 -1.02178 1.26742 0
M  V30 1986 O 201.199 -0.923097 1.52778 0
M  V30 1987 C 198.299 -1.66775 2.95024 0
M  V30 1988 C 197.472 -1.2445 4.19322 0
M  V30 1989 C 196.531 -2.30539 4.7301 0
M  V30 1990 O 195.557 -1.91702 5.35947 0
M  V30 1991 N 196.759 -3.6253 4.53379 0
M  V30 1992 H 199.524 0.142282 2.99362 0
M  V30 1993 H 197.085 0.2219 1.60372 0
M  V30 1994 H 199.077 -2.37283 3.27839 0
M  V30 1995 H 197.647 -2.18845 2.23217 0
M  V30 1996 H 196.867 -0.368069 3.92478 0
M  V30 1997 H 198.155 -0.938457 5.0007 0
M  V30 1998 H 197.553 -3.96841 4.03154 0
M  V30 1999 H 196.11 -4.29055 4.90668 0
M  V30 2000 N 199.544 -1.57102 0.125237 0
M  V30 2001 C 200.507 -2.14471 -0.80838 0
M  V30 2002 C 201.507 -1.0811 -1.19033 0
M  V30 2003 O 202.697 -1.33856 -1.11482 0
M  V30 2004 C 199.829 -2.69005 -2.09402 0
M  V30 2005 H 201.022 -2.98297 -0.309696 0
M  V30 2006 H 198.575 -1.55807 -0.124051 0
M  V30 2007 H 199.31 -1.88785 -2.63687 0
M  V30 2008 H 199.095 -3.46799 -1.82957 0
M  V30 2009 H 200.585 -3.13278 -2.76128 0
M  V30 2010 N 201.022 0.148545 -1.56898 0
M  V30 2011 C 201.932 1.20293 -2.01412 0
M  V30 2012 C 202.948 1.47107 -0.929273 0
M  V30 2013 O 204.124 1.58807 -1.23863 0
M  V30 2014 C 201.189 2.51682 -2.38447 0
M  V30 2015 C 200.25 2.32529 -3.60872 0
M  V30 2016 C 199.483 3.57653 -3.96132 0
M  V30 2017 O 199.706 4.63771 -3.32073 0
M  V30 2018 O 198.64 3.50408 -4.89385 0
M  V30 2019 H 202.466 0.855025 -2.91416 0
M  V30 2020 H 200.051 0.357151 -1.45068 0
M  V30 2021 H 201.933 3.29147 -2.63135 0
M  V30 2022 H 200.608 2.86006 -1.51599 0
M  V30 2023 H 199.515 1.53019 -3.41373 0
M  V30 2024 H 200.848 2.03121 -4.48333 0
M  V30 2025 N 202.5 1.5196 0.417844 0
M  V30 2026 C 203.916 1.40569 0.755816 0
M  V30 2027 C 204.116 0.503316 1.95113 0
M  V30 2028 O 203.172 -0.0341925 2.52477 0
M  V30 2029 C 204.485 2.82947 1.01791 0
M  V30 2030 C 206.033 2.92231 1.12116 0
M  V30 2031 C 206.508 4.35559 1.41608 0
M  V30 2032 N 207.999 4.38753 1.48491 0
M  V30 2033 C 208.734 5.46705 1.7292 0
M  V30 2034 N 208.23 6.64788 1.95011 0
M  V30 2035 N 210.023 5.34209 1.74863 0
M  V30 2036 H 202.174 2.09168 -0.369098 0
M  V30 2037 H 204.437 0.942409 -0.102809 0
M  V30 2038 H 204.143 3.5106 0.212081 0
M  V30 2039 H 204.017 3.23462 1.94042 0
M  V30 2040 H 206.404 2.24304 1.9176 0
M  V30 2041 H 206.485 2.55185 0.177225 0
M  V30 2042 H 206.129 5.04042 0.624848 0
M  V30 2043 H 206.059 4.70133 2.37239 0
M  V30 2044 H 208.55 3.5363 1.33244 0
M  V30 2045 H 208.863 7.42845 2.13076 0
M  V30 2046 H 207.208 6.67869 1.92293 0
M  V30 2047 H 210.399 4.40937 1.57137 0
M  V30 2048 H 210.572 6.18415 1.93563 0
M  V30 2049 N 203.978 -0.674533 1.42435 0
M  V30 2050 C 205.255 -1.4305 1.33402 0
M  V30 2051 C 205.635 -2.11081 -0.0284674 0
M  V30 2052 O 204.983 -2.03257 -1.04397 0
M  V30 2053 C 205.193 -2.43272 2.50239 0
M  V30 2054 C 206.541 -3.07907 2.92367 0
M  V30 2055 O 207.565 -2.53599 2.50132 0
M  V30 2056 O 206.424 -4.0632 3.65467 0
M  V30 2057 H 203.518 -0.638076 0.526106 0
M  V30 2058 H 206.064 -0.703235 1.54443 0
M  V30 2059 H 204.836 -1.91803 3.41068 0
M  V30 2060 H 204.459 -3.23479 2.31186 0
M  V30 2061 N 205.456 -1.28612 -0.910864 0
M  V30 2062 C 206.389 -1.07109 -2.01502 0
M  V30 2063 C 207.367 0.013706 -1.62594 0
M  V30 2064 O 208.551 -0.134796 -1.88017 0
M  V30 2065 C 205.678 -0.628255 -3.32822 0
M  V30 2066 C 204.724 -1.71012 -3.90714 0
M  V30 2067 S 205.557 -3.30676 -4.21205 0
M  V30 2068 C 206.713 -2.88234 -5.55583 0
M  V30 2069 H 206.946 -2.00591 -2.19432 0
M  V30 2070 H 204.479 -1.12633 -1.05609 0
M  V30 2071 H 206.437 -0.37946 -4.08742 0
M  V30 2072 H 205.098 0.28678 -3.12788 0
M  V30 2073 H 204.291 -1.35195 -4.85529 0
M  V30 2074 H 203.893 -1.91186 -3.21441 0
M  V30 2075 H 206.185 -2.34584 -6.35591 0
M  V30 2076 H 207.128 -3.81857 -5.96314 0
M  V30 2077 H 207.536 -2.26862 -5.16908 0
M  V30 2078 N 206.934 1.1197 -1.10907 0
M  V30 2079 C 208.164 1.8713 -0.875553 0
M  V30 2080 C 208.572 1.8016 0.577843 0
M  V30 2081 O 207.915 1.17699 1.41042 0
M  V30 2082 C 207.977 3.37005 -1.2517 0
M  V30 2083 C 207.641 3.67748 -2.71313 0
M  V30 2084 C 208.638 3.65698 -3.69542 0
M  V30 2085 C 206.323 3.96928 -3.07821 0
M  V30 2086 C 208.317 3.92395 -5.023 0
M  V30 2087 C 206.004 4.23284 -4.40765 0
M  V30 2088 C 207.002 4.21005 -5.37814 0
M  V30 2089 O 206.69 4.46704 -6.68364 0
M  V30 2090 H 206.422 0.598786 -0.313737 0
M  V30 2091 H 208.976 1.42568 -1.47863 0
M  V30 2092 H 207.206 3.82146 -0.591741 0
M  V30 2093 H 208.895 3.93519 -0.994877 0
M  V30 2094 H 209.661 3.43211 -3.42682 0
M  V30 2095 H 205.54 3.97841 -2.32902 0
M  V30 2096 H 209.084 3.90531 -5.78041 0
M  V30 2097 H 204.981 4.45246 -4.67361 0
M  V30 2098 H 205.749 4.64299 -6.74069 0
M  V30 2099 N 208.412 0.89855 1.29475 0
M  V30 2100 C 209.36 0.365253 2.29714 0
M  V30 2101 C 210.354 -0.534993 1.6073 0
M  V30 2102 O 211.56 -0.417921 1.75081 0
M  V30 2103 H 207.935 0.0994853 0.74539 0
M  V30 2104 H 209.906 1.22406 2.72138 0
M  V30 2105 C 208.655 -0.393159 3.4547 0
M  V30 2106 H 207.978 0.290332 3.98744 0
M  V30 2107 H 209.418 -0.731189 4.17648 0
M  V30 2108 C 207.877 -1.59539 2.9673 0
M  V30 2109 O 208.407 -2.69469 2.97908 0
M  V30 2110 N 206.613 -1.43716 2.52575 0
M  V30 2111 H 206.16 -0.542828 2.51816 0
M  V30 2112 H 206.118 -2.24288 2.20323 0
M  V30 2113 N 209.89 -1.43072 0.660911 0
M  V30 2114 C 210.822 -2.29108 -0.0647641 0
M  V30 2115 C 211.835 -1.42928 -0.779448 0
M  V30 2116 O 213.024 -1.66788 -0.635921 0
M  V30 2117 C 210.124 -3.20032 -1.11503 0
M  V30 2118 C 209.297 -4.34792 -0.476955 0
M  V30 2119 C 208.356 -5.06534 -1.42513 0
M  V30 2120 O 207.382 -5.61538 -0.930771 0
M  V30 2121 N 208.584 -5.1075 -2.75889 0
M  V30 2122 H 211.349 -2.92029 0.673731 0
M  V30 2123 H 208.91 -1.53846 0.50427 0
M  V30 2124 H 210.902 -3.64892 -1.75032 0
M  V30 2125 H 209.472 -2.58658 -1.75541 0
M  V30 2126 H 208.692 -3.92752 0.337572 0
M  V30 2127 H 209.98 -5.0879 -0.0318525 0
M  V30 2128 H 209.378 -4.67447 -3.18606 0
M  V30 2129 H 207.935 -5.59302 -3.347 0
M  V30 2130 N 211.368 -0.403325 -1.52352 0
M  V30 2131 C 212.616 0.174003 -2.0135 0
M  V30 2132 C 212.937 1.46139 -1.29106 0
M  V30 2133 O 212.207 1.91448 -0.415253 0
M  V30 2134 H 210.787 0.0672911 -0.743963 0
M  V30 2135 H 213.449 -0.538235 -1.87321 0
M  V30 2136 H 212.545 0.374254 -3.09848 0
M  V30 2137 N 212.846 1.57033 -0.133567 0
M  V30 2138 C 213.809 2.14897 0.796995 0
M  V30 2139 C 214.809 1.0874 1.18458 0
M  V30 2140 O 215.999 1.34446 1.1077 0
M  V30 2141 C 213.131 2.70112 2.07973 0
M  V30 2142 H 214.324 2.98457 0.293873 0
M  V30 2143 H 211.877 1.55871 0.115787 0
M  V30 2144 H 212.612 1.9018 2.62682 0
M  V30 2145 H 212.397 3.47764 1.81115 0
M  V30 2146 H 213.887 3.14738 2.74462 0
M  V30 2147 N 214.325 -0.140222 1.56975 0
M  V30 2148 C 215.602 -0.880769 1.74648 0
M  V30 2149 C 215.982 -1.99036 0.703404 0
M  V30 2150 O 215.33 -2.26821 -0.27648 0
M  V30 2151 C 215.54 -1.417 3.18939 0
M  V30 2152 C 216.888 -1.87774 3.80823 0
M  V30 2153 O 217.912 -1.51427 3.2241 0
M  V30 2154 O 216.771 -2.54827 4.83452 0
M  V30 2155 H 213.865 -0.416713 0.714338 0
M  V30 2156 H 216.411 -0.125618 1.69234 0
M  V30 2157 H 215.183 -0.619902 3.86359 0
M  V30 2158 H 214.806 -2.23546 3.28805 0
M  V30 2159 N 215.803 -1.52179 -0.40978 0
M  V30 2160 C 217.219 -1.40968 -0.74835 0
M  V30 2161 C 217.419 -0.513657 -1.94843 0
M  V30 2162 O 216.475 0.0208026 -2.52491 0
M  V30 2163 C 217.788 -2.83483 -1.0029 0
M  V30 2164 C 219.336 -2.92821 -1.10565 0
M  V30 2165 C 219.811 -4.36303 -1.39296 0
M  V30 2166 N 221.302 -4.39535 -1.46162 0
M  V30 2167 C 222.037 -5.47614 -1.70018 0
M  V30 2168 N 221.533 -6.65812 -1.91483 0
M  V30 2169 N 223.326 -5.35129 -1.72027 0
M  V30 2170 H 215.477 -2.0897 0.380186 0
M  V30 2171 H 217.74 -0.94185 0.107805 0
M  V30 2172 H 217.446 -3.51168 -0.193461 0
M  V30 2173 H 217.32 -3.24487 -1.92323 0
M  V30 2174 H 219.707 -2.25318 -1.90568 0
M  V30 2175 H 219.788 -2.55276 -0.16369 0
M  V30 2176 H 219.432 -5.04366 -0.598109 0
M  V30 2177 H 219.362 -4.71385 -2.34743 0
M  V30 2178 H 221.853 -3.54332 -1.31367 0
M  V30 2179 H 222.166 -7.43964 -2.09134 0
M  V30 2180 H 220.511 -6.68879 -1.88749 0
M  V30 2181 H 223.702 -4.41764 -1.54796 0
M  V30 2182 H 223.875 -6.19433 -1.9028 0
M  V30 2183 N 217.281 0.66697 -1.42791 0
M  V30 2184 C 218.211 1.79218 -1.49677 0
M  V30 2185 C 219.192 1.66405 -0.352623 0
M  V30 2186 O 220.377 1.85708 -0.567993 0
M  V30 2187 C 217.507 3.17565 -1.40605 0
M  V30 2188 C 216.461 3.45124 -2.53127 0
M  V30 2189 C 215.787 4.83127 -2.29112 0
M  V30 2190 C 217.087 3.41236 -3.95418 0
M  V30 2191 H 218.781 1.73713 -2.43853 0
M  V30 2192 H 216.327 0.83432 -1.17367 0
M  V30 2193 H 218.28 3.96022 -1.44029 0
M  V30 2194 H 217.004 3.23767 -0.429271 0
M  V30 2195 H 215.663 2.69031 -2.49034 0
M  V30 2196 H 215.311 4.85988 -1.29709 0
M  V30 2197 H 215.011 5.02528 -3.04531 0
M  V30 2198 H 216.535 5.63859 -2.34297 0
M  V30 2199 H 217.949 4.09651 -4.01073 0
M  V30 2200 H 216.346 3.72173 -4.70752 0
M  V30 2201 H 217.416 2.39665 -4.21532 0
M  V30 2202 N 218.759 1.29093 0.90403 0
M  V30 2203 C 220.006 1.16813 1.65411 0
M  V30 2204 C 220.334 -0.28128 1.92455 0
M  V30 2205 O 219.589 -1.22006 1.53013 0
M  V30 2206 C 219.888 1.92224 3.01305 0
M  V30 2207 C 219.554 3.41968 2.93885 0
M  V30 2208 C 218.216 3.82807 2.91569 0
M  V30 2209 C 220.568 4.37409 2.83413 0
M  V30 2210 C 217.896 5.1741 2.76594 0
M  V30 2211 C 220.248 5.72097 2.69977 0
M  V30 2212 C 218.912 6.12199 2.66024 0
M  V30 2213 H 218.182 0.42745 0.605283 0
M  V30 2214 H 220.829 1.59981 1.05254 0
M  V30 2215 H 219.134 1.41635 3.65304 0
M  V30 2216 H 220.831 1.80131 3.58265 0
M  V30 2217 H 217.421 3.09504 2.96488 0
M  V30 2218 H 221.605 4.06813 2.84283 0
M  V30 2219 H 216.861 5.47596 2.71935 0
M  V30 2220 H 221.035 6.45704 2.60844 0
M  V30 2221 H 218.662 7.16448 2.54178 0
M  V30 2222 N 220.237 -1.11381 1.11499 0
M  V30 2223 C 221.485 -1.8277 0.862524 0
M  V30 2224 C 221.806 -1.85097 -0.613534 0
M  V30 2225 O 221.076 -1.32198 -1.4457 0
M  V30 2226 H 219.656 -0.676823 0.316101 0
M  V30 2227 H 222.318 -1.34816 1.4075 0
M  V30 2228 H 221.414 -2.86614 1.23527 0
M  V30 2229 N 221.715 -0.905404 -1.28997 0
M  V30 2230 C 222.992 -0.453513 -1.9027 0
M  V30 2231 C 223.372 1.06721 -1.82137 0
M  V30 2232 O 222.72 1.91159 -1.25182 0
M  V30 2233 C 222.93 -0.974494 -3.35119 0
M  V30 2234 C 224.278 -1.0216 -4.12127 0
M  V30 2235 O 225.302 -0.922557 -3.44046 0
M  V30 2236 O 224.161 -1.17121 -5.33802 0
M  V30 2237 H 221.255 -0.142347 -0.814657 0
M  V30 2238 H 223.801 -0.995642 -1.37423 0
M  V30 2239 H 222.573 -2.01848 -3.35221 0
M  V30 2240 H 222.196 -0.412706 -3.95452 0
M  V30 2241 N 223.193 1.4272 -0.668489 0
M  V30 2242 C 224.156 2.292 0.00448567 0
M  V30 2243 C 225.156 1.43001 0.735339 0
M  V30 2244 O 226.346 1.64461 0.57429 0
M  V30 2245 C 223.478 3.25375 1.01705 0
M  V30 2246 H 224.671 2.90199 -0.756608 0
M  V30 2247 H 222.224 1.50254 -0.430506 0
M  V30 2248 H 222.959 2.69301 1.80686 0
M  V30 2249 H 222.744 3.88944 0.496463 0
M  V30 2250 H 224.234 3.90245 1.48655 0
M  V30 2251 N 224.671 0.411399 1.52136 0
M  V30 2252 C 225.917 -0.163888 2.02137 0
M  V30 2253 C 226.25 -1.44597 1.29636 0
M  V30 2254 O 225.525 -1.90272 0.403353 0
M  V30 2255 C 225.808 -0.40927 3.57767 0
M  V30 2256 C 225.661 0.889643 4.40914 0
M  V30 2257 C 226.98 -1.19042 4.23694 0
M  V30 2258 H 224.099 -0.0580896 0.734707 0
M  V30 2259 H 226.741 0.54531 1.82007 0
M  V30 2260 H 224.891 -1.0134 3.7505 0
M  V30 2261 H 226.563 1.52575 4.35337 0
M  V30 2262 H 224.806 1.50011 4.07037 0
M  V30 2263 H 225.477 0.672314 5.4789 0
M  V30 2264 H 227.953 -0.678942 4.10524 0
M  V30 2265 H 226.829 -1.33086 5.32522 0
M  V30 2266 H 227.09 -2.21166 3.82803 0
M  V30 2267 N 226.149 -1.5696 0.141893 0
M  V30 2268 C 227.097 -2.17784 -0.816874 0
M  V30 2269 C 228.091 -1.1334 -1.25899 0
M  V30 2270 O 229.297 -1.316 -1.22806 0
M  V30 2271 H 225.672 -0.697278 -0.281615 0
M  V30 2272 H 227.643 -2.97087 -0.279621 0
M  V30 2273 C 226.392 -2.80983 -2.04802 0
M  V30 2274 H 225.715 -3.61062 -1.7168 0
M  V30 2275 H 227.155 -3.2705 -2.69841 0
M  V30 2276 C 225.614 -1.79228 -2.8527 0
M  V30 2277 O 226.144 -1.25962 -3.8144 0
M  V30 2278 N 224.35 -1.48647 -2.49704 0
M  V30 2279 H 223.897 -1.92155 -1.71564 0
M  V30 2280 H 223.855 -0.808115 -3.03837 0
M  V30 2281 N 227.627 0.131896 -1.57047 0
M  V30 2282 C 228.852 0.860418 -1.8871 0
M  V30 2283 C 229.277 1.73251 -0.73251 0
M  V30 2284 O 228.635 1.785 0.317429 0
M  V30 2285 C 228.683 1.68047 -3.19049 0
M  V30 2286 O 227.787 2.7862 -3.04047 0
M  V30 2287 H 227.128 0.238743 -0.619595 0
M  V30 2288 H 229.658 0.118169 -2.04258 0
M  V30 2289 H 229.668 2.07238 -3.51449 0
M  V30 2290 H 228.343 1.04018 -4.02682 0
M  V30 2291 H 226.92 2.42726 -2.83088 0
M  V30 2292 N 229.106 1.52395 0.401703 0
M  V30 2293 C 230.056 1.72649 1.48917 0
M  V30 2294 C 231.04 0.580436 1.50066 0
M  V30 2295 O 232.232 0.83779 1.55917 0
M  V30 2296 C 229.361 1.88729 2.86769 0
M  V30 2297 C 228.447 3.09228 2.90239 0
M  V30 2298 N 228.838 4.31805 2.63396 0
M  V30 2299 C 227.136 3.09214 3.21408 0
M  V30 2300 C 227.837 5.13326 2.73625 0
M  V30 2301 N 226.813 4.48735 3.06819 0
M  V30 2302 H 230.615 2.65058 1.26971 0
M  V30 2303 H 228.129 1.50528 0.609504 0
M  V30 2304 H 230.126 2.01358 3.65049 0
M  V30 2305 H 228.786 0.975252 3.09708 0
M  V30 2306 H 229.797 4.60154 2.37653 0
M  V30 2307 H 226.474 2.27774 3.49893 0
M  V30 2308 H 227.864 6.21003 2.56524 0
M  V30 2309 N 230.584 -0.659388 1.43143 0
M  V30 2310 C 232 -0.974337 1.26407 0
M  V30 2311 C 232.2 -2.007 0.179341 0
M  V30 2312 O 231.256 -2.4856 -0.444295 0
M  V30 2313 C 232.569 -1.46447 2.62628 0
M  V30 2314 C 234.117 -1.58144 2.7011 0
M  V30 2315 C 234.592 -2.1055 4.06734 0
M  V30 2316 N 236.083 -2.17861 4.08767 0
M  V30 2317 C 236.818 -2.59519 5.1131 0
M  V30 2318 N 236.314 -3.00518 6.24228 0
M  V30 2319 N 238.107 -2.59404 4.98664 0
M  V30 2320 H 230.258 0.0240528 2.12386 0
M  V30 2321 H 232.521 -0.0518065 0.946583 0
M  V30 2322 H 232.227 -0.780123 3.42939 0
M  V30 2323 H 232.101 -2.44058 2.87603 0
M  V30 2324 H 234.488 -2.25682 1.90136 0
M  V30 2325 H 234.569 -0.589828 2.48907 0
M  V30 2326 H 234.213 -1.43616 4.87172 0
M  V30 2327 H 234.143 -3.10531 4.25298 0
M  V30 2328 H 236.634 -1.88975 3.27257 0
M  V30 2329 H 236.947 -3.31036 6.98309 0
M  V30 2330 H 235.292 -2.98337 6.2771 0
M  V30 2331 H 238.483 -2.26747 4.09516 0
M  V30 2332 H 238.656 -2.91548 5.78709 0
M  V30 2333 N 232.062 -1.29571 -0.897171 0
M  V30 2334 C 233.025 -1.14913 -1.98312 0
M  V30 2335 C 234.025 -0.0838629 -1.60581 0
M  V30 2336 O 235.215 -0.331006 -1.71026 0
M  V30 2337 C 232.347 -0.757835 -3.3237 0
M  V30 2338 H 233.54 -2.11377 -2.12743 0
M  V30 2339 H 231.093 -1.12793 -1.08201 0
M  V30 2340 H 231.828 0.206837 -3.2364 0
M  V30 2341 H 231.613 -1.52755 -3.61121 0
M  V30 2342 H 233.103 -0.678408 -4.12053 0
M  V30 2343 N 233.54 1.10788 -1.12088 0
M  V30 2344 C 234.765 1.87002 -0.896949 0
M  V30 2345 C 235.19 1.79933 0.548261 0
M  V30 2346 O 234.548 1.16662 1.38779 0
M  V30 2347 C 234.596 3.3349 -1.37174 0
M  V30 2348 O 233.7 4.08745 -0.547831 0
M  V30 2349 H 233.041 0.580397 -0.322545 0
M  V30 2350 H 235.571 1.39996 -1.49206 0
M  V30 2351 H 235.581 3.84339 -1.36922 0
M  V30 2352 H 234.256 3.37951 -2.42408 0
M  V30 2353 H 232.833 3.6776 -0.617034 0
M  V30 2354 N 235.018 0.912232 1.28515 0
M  V30 2355 C 236.267 0.540504 1.94323 0
M  V30 2356 C 236.58 -0.920044 1.72611 0
M  V30 2357 O 237.786 -1.39986 2.32629 0
M  V30 2358 C 236.242 0.915803 3.48053 0
M  V30 2359 C 235.85 2.39598 3.78546 0
M  V30 2360 C 237.594 0.614588 4.20027 0
M  V30 2361 C 235.501 2.71148 5.25578 0
M  V30 2362 H 234.431 0.198418 0.727424 0
M  V30 2363 H 237.082 1.11094 1.46049 0
M  V30 2364 H 235.464 0.274168 3.9505 0
M  V30 2365 H 236.638 3.08422 3.42364 0
M  V30 2366 H 234.953 2.66749 3.1974 0
M  V30 2367 H 237.55 0.827002 5.28266 0
M  V30 2368 H 237.893 -0.447531 4.13887 0
M  V30 2369 H 238.426 1.21462 3.78803 0
M  V30 2370 H 235.165 3.76207 5.36794 0
M  V30 2371 H 234.685 2.0696 5.62963 0
M  V30 2372 H 236.364 2.58072 5.93302 0
M  V30 2373 N 236.496 -1.42363 0.676048 0
M  V30 2374 C 237.744 -2.01123 0.198437 0
M  V30 2375 C 238.065 -1.53731 -1.19966 0
M  V30 2376 O 237.335 -0.759518 -1.80577 0
M  V30 2377 H 235.915 -0.743678 0.0703721 0
M  V30 2378 H 238.577 -1.74263 0.872837 0
M  V30 2379 H 237.673 -3.11454 0.200686 0
M  V30 2380 N 237.974 -0.419461 -1.51915 0
M  V30 2381 C 238.904 0.391813 -2.30189 0
M  V30 2382 C 239.885 1.03699 -1.34836 0
M  V30 2383 O 241.07 1.04403 -1.63748 0
M  V30 2384 C 238.2 1.50312 -3.13087 0
M  V30 2385 C 237.154 0.9824 -4.16573 0
M  V30 2386 C 236.48 2.18809 -4.8788 0
M  V30 2387 C 237.78 0.0292356 -5.22292 0
M  V30 2388 H 239.474 -0.26135 -2.98257 0
M  V30 2389 H 237.02 -0.127134 -1.43438 0
M  V30 2390 H 238.973 2.07773 -3.66617 0
M  V30 2391 H 237.697 2.18431 -2.42807 0
M  V30 2392 H 236.356 0.430119 -3.64068 0
M  V30 2393 H 236.004 2.85507 -4.14119 0
M  V30 2394 H 235.704 1.84615 -5.57845 0
M  V30 2395 H 237.228 2.76858 -5.44226 0
M  V30 2396 H 238.642 0.512976 -5.71 0
M  V30 2397 H 237.039 -0.2244 -5.9968 0
M  V30 2398 H 238.109 -0.912931 -4.76228 0
M  V30 2399 N 239.452 1.56882 -0.150215 0
M  V30 2400 C 240.863 1.82995 0.370076 0
M  V30 2401 C 241.214 1.06907 1.64515 0
M  V30 2402 O 240.339 0.315369 2.1409 0
M  V30 2403 C 240.934 3.31942 0.678208 0
M  V30 2404 C 239.493 3.58625 1.14301 0
M  V30 2405 C 238.64 2.76792 0.167778 0
M  V30 2406 H 241.591 1.54209 -0.374858 0
M  V30 2407 H 241.612 3.48272 1.53254 0
M  V30 2408 H 241.124 3.87294 -0.249991 0
M  V30 2409 H 239.225 3.08664 2.08704 0
M  V30 2410 H 239.338 4.67073 1.06676 0
M  V30 2411 H 237.702 2.45972 0.661037 0
M  V30 2412 H 238.485 3.34916 -0.754069 0
M  V30 2413 N 240.93 -0.123565 1.57115 0
M  V30 2414 C 242.341 -0.681198 1.73829 0
M  V30 2415 C 242.692 -1.80535 0.768214 0
M  V30 2416 O 241.817 -2.16317 -0.0599103 0
M  V30 2417 C 242.412 -1.24246 3.15196 0
M  V30 2418 C 240.971 -1.74643 3.33432 0
M  V30 2419 C 240.118 -0.644284 2.69711 0
M  V30 2420 H 243.069 0.102315 1.5837 0
M  V30 2421 H 243.09 -2.11216 3.16493 0
M  V30 2422 H 242.602 -0.424062 3.85776 0
M  V30 2423 H 240.703 -2.58974 2.67886 0
M  V30 2424 H 240.816 -1.85902 4.41562 0
M  V30 2425 H 239.18 -1.07676 2.3082 0
M  V30 2426 H 239.963 0.163058 3.42913 0
M  V30 2427 N 242.408 -1.52605 -0.393616 0
M  V30 2428 C 243.654 -1.67672 -1.14079 0
M  V30 2429 C 243.987 -0.413121 -1.89755 0
M  V30 2430 O 243.262 0.588952 -1.85369 0
M  V30 2431 C 243.545 -2.9088 -2.12276 0
M  V30 2432 C 243.398 -4.27329 -1.40394 0
M  V30 2433 C 244.717 -3.09628 -3.12759 0
M  V30 2434 H 241.836 -0.610168 -0.413356 0
M  V30 2435 H 244.478 -1.85193 -0.424696 0
M  V30 2436 H 242.628 -2.76073 -2.73342 0
M  V30 2437 H 244.3 -4.53894 -0.82327 0
M  V30 2438 H 242.543 -4.2802 -0.705801 0
M  V30 2439 H 243.214 -5.09615 -2.12123 0
M  V30 2440 H 245.69 -3.23436 -2.61779 0
M  V30 2441 H 244.566 -3.97322 -3.78717 0
M  V30 2442 H 244.827 -2.23637 -3.81365 0
M  V30 2443 N 243.887 0.651787 -1.4349 0
M  V30 2444 C 244.797 1.79368 -1.5121 0
M  V30 2445 C 245.813 1.69361 -0.399093 0
M  V30 2446 O 246.989 1.90505 -0.653431 0
M  V30 2447 C 244.054 3.15653 -1.43401 0
M  V30 2448 C 243.115 3.37446 -2.65384 0
M  V30 2449 C 242.348 4.67229 -2.57939 0
M  V30 2450 O 242.571 5.46676 -1.62792 0
M  V30 2451 O 241.505 4.90773 -3.48462 0
M  V30 2452 H 245.331 1.7581 -2.47638 0
M  V30 2453 H 242.916 0.810447 -1.25507 0
M  V30 2454 H 244.798 3.96935 -1.41494 0
M  V30 2455 H 243.473 3.19798 -0.501085 0
M  V30 2456 H 242.38 2.55923 -2.72863 0
M  V30 2457 H 243.713 3.38148 -3.57654 0
M  V30 2458 N 245.365 1.30045 0.890287 0
M  V30 2459 C 246.315 1.12592 1.9826 0
M  V30 2460 C 247.299 0.0426021 1.60844 0
M  V30 2461 O 248.491 0.265346 1.75 0
M  V30 2462 C 245.62 0.814301 3.33503 0
M  V30 2463 C 244.706 1.93761 3.7725 0
M  V30 2464 N 245.097 3.18232 3.93143 0
M  V30 2465 C 243.395 1.83277 4.06602 0
M  V30 2466 C 244.096 3.9158 4.30163 0
M  V30 2467 N 243.072 3.19591 4.3973 0
M  V30 2468 H 246.874 2.07003 2.08631 0
M  V30 2469 H 244.388 1.21307 1.07974 0
M  V30 2470 H 246.385 0.67029 4.11476 0
M  V30 2471 H 245.045 -0.121797 3.24471 0
M  V30 2472 H 246.056 3.53581 3.78419 0
M  V30 2473 H 242.733 0.97001 4.06075 0
M  V30 2474 H 244.123 4.98744 4.50226 0
M  V30 2475 N 246.843 -1.10192 1.12674 0
M  V30 2476 C 247.773 -2.18652 0.819362 0
M  V30 2477 C 248.754 -1.68698 -0.217915 0
M  V30 2478 O 249.939 -1.94041 -0.0785581 0
M  V30 2479 C 247.069 -3.46202 0.27594 0
M  V30 2480 C 246.023 -4.09444 1.24656 0
M  V30 2481 C 245.349 -5.31725 0.563258 0
M  V30 2482 C 246.649 -4.52863 2.60217 0
M  V30 2483 H 248.343 -2.44622 1.72628 0
M  V30 2484 H 245.889 -1.17571 0.831451 0
M  V30 2485 H 247.842 -4.21372 0.0486149 0
M  V30 2486 H 246.566 -3.1973 -0.666331 0
M  V30 2487 H 245.225 -3.36284 1.45974 0
M  V30 2488 H 244.873 -5.0153 -0.384235 0
M  V30 2489 H 244.573 -5.74991 1.21075 0
M  V30 2490 H 246.097 -6.09624 0.34503 0
M  V30 2491 H 247.511 -5.19294 2.42913 0
M  V30 2492 H 245.908 -5.06986 3.21068 0
M  V30 2493 H 246.978 -3.65656 3.18471 0
M  V30 2494 N 248.321 -0.919034 -1.28029 0
M  V30 2495 C 249.551 -0.570143 -1.98577 0
M  V30 2496 C 249.959 0.854172 -1.68821 0
M  V30 2497 O 249.302 1.57807 -0.940351 0
M  V30 2498 C 249.364 -0.705734 -3.52505 0
M  V30 2499 C 249.028 -2.10057 -4.05863 0
M  V30 2500 C 250.025 -3.07385 -4.19298 0
M  V30 2501 C 247.71 -2.41517 -4.40426 0
M  V30 2502 C 249.704 -4.34287 -4.66555 0
M  V30 2503 C 247.391 -3.68657 -4.87376 0
M  V30 2504 C 248.389 -4.64856 -5.00398 0
M  V30 2505 O 248.077 -5.89735 -5.46322 0
M  V30 2506 H 247.809 -0.215592 -0.6407 0
M  V30 2507 H 250.363 -1.23583 -1.64062 0
M  V30 2508 H 248.593 0.0170414 -3.86696 0
M  V30 2509 H 250.282 -0.363172 -4.04272 0
M  V30 2510 H 251.048 -2.84398 -3.92865 0
M  V30 2511 H 246.927 -1.67389 -4.29537 0
M  V30 2512 H 250.471 -5.09377 -4.76635 0
M  V30 2513 H 246.368 -3.91466 -5.13249 0
M  V30 2514 H 247.136 -5.92599 -5.64596 0
M  V30 2515 N 249.799 1.42003 -0.683588 0
M  V30 2516 C 251.076 1.95112 -0.138075 0
M  V30 2517 C 251.456 1.62359 1.34918 0
M  V30 2518 O 250.804 0.924311 2.08971 0
M  V30 2519 C 251.014 3.46505 -0.416581 0
M  V30 2520 C 252.362 4.23254 -0.337834 0
M  V30 2521 O 253.386 3.54468 -0.35082 0
M  V30 2522 O 252.245 5.45743 -0.287596 0
M  V30 2523 H 249.339 0.826961 -0.00797996 0
M  V30 2524 H 251.885 1.51784 -0.758924 0
M  V30 2525 H 250.657 3.63582 -1.4465 0
M  V30 2526 H 250.28 3.969 0.235839 0
M  V30 2527 N 251.277 0.427512 1.51691 0
M  V30 2528 C 252.507 -0.140986 2.06118 0
M  V30 2529 C 252.915 -1.37854 1.29588 0
M  V30 2530 O 252.258 -1.80411 0.346036 0
M  V30 2531 C 252.32 -0.538276 3.55447 0
M  V30 2532 C 251.984 0.591095 4.53161 0
M  V30 2533 C 252.981 1.46027 4.98971 0
M  V30 2534 C 250.666 0.769028 4.96378 0
M  V30 2535 C 252.66 2.49216 5.8666 0
M  V30 2536 C 250.347 1.80421 5.83859 0
M  V30 2537 C 251.345 2.66417 6.28897 0
M  V30 2538 O 251.033 3.68159 7.14643 0
M  V30 2539 H 250.765 -0.0157455 0.675817 0
M  V30 2540 H 253.319 0.602495 1.96365 0
M  V30 2541 H 251.549 -1.33432 3.6295 0
M  V30 2542 H 253.238 -1.0368 3.92435 0
M  V30 2543 H 254.004 1.33429 4.66285 0
M  V30 2544 H 249.883 0.109273 4.6087 0
M  V30 2545 H 253.427 3.16372 6.21735 0
M  V30 2546 H 249.324 1.93042 6.15959 0
M  V30 2547 H 250.092 3.64622 7.32798 0
M  V30 2548 N 252.755 -1.56801 0.158532 0
M  V30 2549 C 254.003 -1.96102 -0.488712 0
M  V30 2550 C 254.324 -1.04498 -1.64636 0
M  V30 2551 O 253.594 -0.108783 -1.95598 0
M  V30 2552 H 252.174 -0.724102 -0.183535 0
M  V30 2553 H 254.836 -1.93457 0.236728 0
M  V30 2554 H 253.932 -3.00097 -0.857219 0
M  V30 2555 N 254.233 0.115231 -1.57178 0
M  V30 2556 C 255.463 0.835224 -1.88964 0
M  V30 2557 C 255.871 1.73774 -0.74829 0
M  V30 2558 O 255.214 1.81401 0.289739 0
M  V30 2559 C 255.276 1.7178 -3.15804 0
M  V30 2560 C 254.94 0.989198 -4.46166 0
M  V30 2561 C 255.937 0.328263 -5.18863 0
M  V30 2562 C 253.622 0.969256 -4.9286 0
M  V30 2563 C 255.616 -0.342873 -6.36477 0
M  V30 2564 C 253.303 0.294324 -6.10391 0
M  V30 2565 C 254.301 -0.360582 -6.82048 0
M  V30 2566 O 253.989 -1.02474 -7.97342 0
M  V30 2567 H 253.721 0.245197 -0.629964 0
M  V30 2568 H 256.275 0.10303 -2.05141 0
M  V30 2569 H 254.505 2.49173 -2.95719 0
M  V30 2570 H 256.194 2.31255 -3.33581 0
M  V30 2571 H 256.96 0.335263 -4.8384 0
M  V30 2572 H 252.839 1.46844 -4.36987 0
M  V30 2573 H 256.383 -0.854629 -6.92345 0
M  V30 2574 H 252.28 0.285099 -6.4487 0
M  V30 2575 H 253.048 -0.929594 -8.13204 0
M  V30 2576 N 255.711 1.52812 0.385517 0
M  V30 2577 C 256.939 1.71907 1.15133 0
M  V30 2578 C 257.354 0.439004 1.83625 0
M  V30 2579 O 256.711 -0.586765 1.7281 0
M  V30 2580 C 256.762 2.87099 2.19673 0
M  V30 2581 O 256.483 4.10151 1.53973 0
M  V30 2582 C 257.984 3.17902 3.08955 0
M  V30 2583 H 255.204 0.575479 0.345057 0
M  V30 2584 H 257.748 1.99476 0.45052 0
M  V30 2585 H 255.903 2.61982 2.85384 0
M  V30 2586 H 256.317 4.74514 2.23465 0
M  V30 2587 H 257.791 4.01959 3.7833 0
M  V30 2588 H 258.268 2.3243 3.72657 0
M  V30 2589 H 258.874 3.44871 2.48885 0
M  V30 2590 N 257.189 -0.644168 1.43834 0
M  V30 2591 C 258.466 -1.40188 1.36406 0
M  V30 2592 C 258.846 -2.11094 0.0163124 0
M  V30 2593 O 258.194 -2.05426 -1.00062 0
M  V30 2594 C 258.404 -2.3791 2.55343 0
M  V30 2595 C 259.752 -3.01637 2.98832 0
M  V30 2596 O 260.776 -2.48237 2.55455 0
M  V30 2597 O 259.635 -3.98477 3.74003 0
M  V30 2598 H 256.729 -0.626773 0.539523 0
M  V30 2599 H 259.275 -0.670317 1.559 0
M  V30 2600 H 258.047 -1.84525 3.4506 0
M  V30 2601 H 257.67 -3.18503 2.37995 0
M  V30 2602 N 258.668 -1.30515 -0.883378 0
M  V30 2603 C 259.6 -1.12846 -1.99496 0
M  V30 2604 C 260.613 -0.0712571 -1.62644 0
M  V30 2605 O 261.802 -0.317432 -1.75655 0
M  V30 2606 C 258.902 -0.699123 -3.3161 0
M  V30 2607 C 258.075 -1.83842 -3.96889 0
M  V30 2608 C 257.134 -1.39737 -5.07307 0
M  V30 2609 O 256.16 -2.10485 -5.28852 0
M  V30 2610 N 257.362 -0.277279 -5.79837 0
M  V30 2611 H 260.127 -2.08585 -2.15203 0
M  V30 2612 H 257.688 -1.22672 -1.05656 0
M  V30 2613 H 259.68 -0.387044 -4.02845 0
M  V30 2614 H 258.25 0.166276 -3.12157 0
M  V30 2615 H 257.47 -2.31853 -3.18807 0
M  V30 2616 H 258.758 -2.60187 -4.37241 0
M  V30 2617 H 258.156 0.3122 -5.64838 0
M  V30 2618 H 256.713 -0.0246623 -6.51795 0
M  V30 2619 N 260.146 1.09593 -1.13257 0
M  V30 2620 C 261.557 1.63229 -0.906274 0
M  V30 2621 C 261.908 1.8811 0.557578 0
M  V30 2622 O 261.033 1.62953 1.42391 0
M  V30 2623 C 261.628 2.96535 -1.63867 0
M  V30 2624 C 260.187 3.47003 -1.45828 0
M  V30 2625 C 259.334 2.2145 -1.66898 0
M  V30 2626 H 262.285 0.92978 -1.28611 0
M  V30 2627 H 262.306 3.64411 -1.09476 0
M  V30 2628 H 261.818 2.78394 -2.70404 0
M  V30 2629 H 259.919 3.70272 -0.415848 0
M  V30 2630 H 260.032 4.24551 -2.2202 0
M  V30 2631 H 258.396 2.30022 -1.09371 0
M  V30 2632 H 259.179 2.0583 -2.74752 0
M  V30 2633 N 261.624 0.925811 1.2754 0
M  V30 2634 C 262.87 0.575575 1.95086 0
M  V30 2635 C 263.225 -0.873246 1.71441 0
M  V30 2636 O 262.518 -1.61443 1.03183 0
M  V30 2637 C 262.712 0.835296 3.47502 0
M  V30 2638 C 262.541 2.30781 3.85967 0
M  V30 2639 C 261.311 2.96017 4.09514 0
M  V30 2640 C 263.509 3.28519 3.95702 0
M  V30 2641 N 261.491 4.3344 4.34744 0
M  V30 2642 C 262.862 4.51146 4.25285 0
M  V30 2643 C 264.917 3.23753 3.7827 0
M  V30 2644 C 263.62 5.69606 4.39251 0
M  V30 2645 C 265.646 4.41523 3.9346 0
M  V30 2646 C 265.008 5.62928 4.23428 0
M  V30 2647 H 261.107 0.260711 0.737261 0
M  V30 2648 H 263.691 1.19204 1.53943 0
M  V30 2649 H 261.862 0.248005 3.87607 0
M  V30 2650 H 263.594 0.447878 4.02214 0
M  V30 2651 H 260.349 2.46695 4.04275 0
M  V30 2652 H 260.773 5.04528 4.5142 0
M  V30 2653 H 265.415 2.3096 3.54143 0
M  V30 2654 H 263.133 6.62866 4.62205 0
M  V30 2655 H 266.719 4.39351 3.81394 0
M  V30 2656 H 265.599 6.52538 4.34929 0
M  V30 2657 N 263.102 -1.41638 0.69111 0
M  V30 2658 C 264.032 -2.3347 0.037248 0
M  V30 2659 C 265.013 -1.51575 -0.771947 0
M  V30 2660 O 266.198 -1.80126 -0.72582 0
M  V30 2661 C 263.328 -3.35354 -0.903064 0
M  V30 2662 C 262.282 -4.27526 -0.201288 0
M  V30 2663 C 261.608 -5.19747 -1.25565 0
M  V30 2664 C 262.908 -5.13959 0.929689 0
M  V30 2665 H 264.602 -2.88397 0.804227 0
M  V30 2666 H 262.148 -1.38669 0.388189 0
M  V30 2667 H 264.101 -3.98519 -1.36969 0
M  V30 2668 H 262.825 -2.78767 -1.70166 0
M  V30 2669 H 261.484 -3.65779 0.245265 0
M  V30 2670 H 261.132 -4.59479 -2.04666 0
M  V30 2671 H 260.832 -5.8225 -0.791128 0
M  V30 2672 H 262.356 -5.85789 -1.72288 0
M  V30 2673 H 263.77 -5.70718 0.543546 0
M  V30 2674 H 262.167 -5.85379 1.32103 0
M  V30 2675 H 263.237 -4.51389 1.77133 0
M  V30 2676 N 264.58 -0.43555 -1.51462 0
M  V30 2677 C 265.543 0.365137 -2.26273 0
M  V30 2678 C 266.543 0.951227 -1.29647 0
M  V30 2679 O 267.733 0.825958 -1.53374 0
M  V30 2680 C 264.865 1.51645 -3.05314 0
M  V30 2681 H 266.058 -0.290474 -2.9849 0
M  V30 2682 H 263.611 -0.188676 -1.55157 0
M  V30 2683 H 264.346 2.20816 -2.3751 0
M  V30 2684 H 264.131 1.10238 -3.76284 0
M  V30 2685 H 265.621 2.08218 -3.61987 0
M  V30 2686 N 266.058 1.56714 -0.166846 0
M  V30 2687 C 267.021 2.16539 0.751232 0
M  V30 2688 C 268.021 1.11228 1.16125 0
M  V30 2689 O 269.211 1.36765 1.07894 0
M  V30 2690 C 266.343 2.74462 2.02196 0
M  V30 2691 H 267.536 2.99013 0.230499 0
M  V30 2692 H 265.089 1.56081 0.0826982 0
M  V30 2693 H 265.824 1.95709 2.58589 0
M  V30 2694 H 265.609 3.51527 1.73698 0
M  V30 2695 H 267.099 3.20489 2.67725 0
M  V30 2696 N 267.536 -0.106894 1.57237 0
M  V30 2697 C 268.813 -0.843526 1.76477 0
M  V30 2698 C 269.193 -1.97499 0.745464 0
M  V30 2699 O 268.541 -2.27357 -0.228306 0
M  V30 2700 C 268.751 -1.34903 3.21873 0
M  V30 2701 C 270.099 -1.79654 3.8472 0
M  V30 2702 O 271.123 -1.44554 3.2555 0
M  V30 2703 O 269.982 -2.44515 4.88748 0
M  V30 2704 H 267.076 -0.401468 0.723016 0
M  V30 2705 H 269.622 -0.0896927 1.69463 0
M  V30 2706 H 268.394 -0.53781 3.87586 0
M  V30 2707 H 268.017 -2.16522 3.33473 0
M  V30 2708 N 269.014 -1.53014 -0.377408 0
M  V30 2709 C 270.425 -1.60438 -0.954798 0
M  V30 2710 C 270.776 -0.464418 -1.90624 0
M  V30 2711 O 269.901 0.41087 -2.12464 0
M  V30 2712 C 270.496 -2.90797 -1.73847 0
M  V30 2713 C 269.055 -3.00595 -2.26538 0
M  V30 2714 C 268.202 -2.55645 -1.07429 0
M  V30 2715 H 271.153 -1.57926 -0.156575 0
M  V30 2716 H 271.174 -2.77935 -2.5987 0
M  V30 2717 H 270.686 -3.73746 -1.04574 0
M  V30 2718 H 268.787 -2.22208 -2.99089 0
M  V30 2719 H 268.9 -4.05456 -2.5523 0
M  V30 2720 H 267.264 -2.10239 -1.43777 0
M  V30 2721 H 268.047 -3.41 -0.396728 0
M  V30 2722 N 270.492 0.636531 -1.44174 0
M  V30 2723 C 271.738 1.39826 -1.4689 0
M  V30 2724 C 272.071 1.93947 -0.0990585 0
M  V30 2725 O 271.346 1.73325 0.882544 0
M  V30 2726 C 271.629 2.56751 -2.5249 0
M  V30 2727 C 271.482 2.08014 -3.98811 0
M  V30 2728 C 272.801 3.58946 -2.54649 0
M  V30 2729 H 269.92 0.507075 -0.53483 0
M  V30 2730 H 272.562 0.720188 -1.75822 0
M  V30 2731 H 270.712 3.14597 -2.2795 0
M  V30 2732 H 272.384 1.5504 -4.34466 0
M  V30 2733 H 270.627 1.39242 -4.10846 0
M  V30 2734 H 271.298 2.92169 -4.68339 0
M  V30 2735 H 273.774 3.1089 -2.76563 0
M  V30 2736 H 272.65 4.38286 -3.3045 0
M  V30 2737 H 272.911 4.12655 -1.58646 0
M  V30 2738 N 271.97 1.30982 0.876444 0
M  V30 2739 C 272.9 1.20668 1.99903 0
M  V30 2740 C 273.881 0.095354 1.69833 0
M  V30 2741 O 275.066 0.27885 1.92188 0
M  V30 2742 C 272.196 0.90655 3.3526 0
M  V30 2743 C 271.15 1.97675 3.79617 0
M  V30 2744 C 270.476 1.52943 5.1236 0
M  V30 2745 C 271.776 3.389 3.97422 0
M  V30 2746 H 273.47 2.14586 2.0879 0
M  V30 2747 H 271.016 1.03308 1.00317 0
M  V30 2748 H 272.969 0.821025 4.13324 0
M  V30 2749 H 271.693 -0.0682969 3.26529 0
M  V30 2750 H 270.352 2.05205 3.03787 0
M  V30 2751 H 270 0.54262 5.00065 0
M  V30 2752 H 269.7 2.24532 5.43009 0
M  V30 2753 H 271.224 1.45786 5.92941 0
M  V30 2754 H 272.638 3.34081 4.659 0
M  V30 2755 H 271.035 4.0865 4.3946 0
M  V30 2756 H 272.105 3.80163 3.01006 0
M  V30 2757 N 273.449 -1.08991 1.13837 0
M  V30 2758 C 274.674 -1.85551 0.926585 0
M  V30 2759 C 275.099 -1.80782 -0.519566 0
M  V30 2760 O 274.457 -1.18855 -1.36906 0
M  V30 2761 C 274.505 -3.31266 1.42462 0
M  V30 2762 O 273.609 -4.07822 0.612789 0
M  V30 2763 H 272.95 -0.575192 0.331738 0
M  V30 2764 H 275.48 -1.37604 1.51414 0
M  V30 2765 H 275.49 -3.82112 1.43019 0
M  V30 2766 H 274.165 -3.34052 2.47754 0
M  V30 2767 H 272.742 -3.66731 0.675463 0
M  V30 2768 N 274.927 -0.932562 -1.27047 0
M  V30 2769 C 276.338 -0.619451 -1.76124 0
M  V30 2770 C 276.689 0.865397 -1.76083 0
M  V30 2771 O 275.814 1.67722 -1.36742 0
M  V30 2772 C 276.409 -1.11771 -3.19832 0
M  V30 2773 C 274.968 -0.855174 -3.66557 0
M  V30 2774 C 274.115 -1.27362 -2.46321 0
M  V30 2775 H 277.066 -1.11181 -1.13245 0
M  V30 2776 H 277.087 -0.46759 -3.77616 0
M  V30 2777 H 276.599 -2.19842 -3.1983 0
M  V30 2778 H 274.7 0.211524 -3.71999 0
M  V30 2779 H 274.813 -1.47613 -4.55793 0
M  V30 2780 H 273.177 -0.692119 -2.45116 0
M  V30 2781 H 273.96 -2.36307 -2.49025 0
M  V30 2782 N 276.405 1.4127 -0.698611 0
M  V30 2783 C 277.335 2.33447 -0.049629 0
M  V30 2784 C 278.316 1.51982 0.763898 0
M  V30 2785 O 279.501 1.80509 0.716257 0
M  V30 2786 C 276.631 3.35828 0.885267 0
M  V30 2787 C 275.585 4.27627 0.178613 0
M  V30 2788 C 274.911 5.20406 1.22807 0
M  V30 2789 C 276.211 5.13459 -0.956933 0
M  V30 2790 H 277.905 2.87966 -0.81951 0
M  V30 2791 H 275.451 1.38461 -0.395538 0
M  V30 2792 H 277.404 3.9924 1.34854 0
M  V30 2793 H 276.128 2.79666 1.68685 0
M  V30 2794 H 274.787 3.65643 -0.26466 0
M  V30 2795 H 274.435 4.60558 2.02226 0
M  V30 2796 H 274.135 5.82661 0.760239 0
M  V30 2797 H 275.659 5.86695 1.69179 0
M  V30 2798 H 277.073 5.70421 -0.573805 0
M  V30 2799 H 275.47 5.8467 -1.35205 0
M  V30 2800 H 276.54 4.50443 -1.79524 0
M  V30 2801 N 277.883 0.443576 1.51229 0
M  V30 2802 C 279.299 0.0962001 1.5931 0
M  V30 2803 C 279.499 -1.39501 1.45402 0
M  V30 2804 O 278.555 -2.16557 1.29843 0
M  V30 2805 C 279.868 0.621875 2.94199 0
M  V30 2806 C 281.416 0.582865 3.07525 0
M  V30 2807 C 281.891 1.08562 4.44948 0
M  V30 2808 N 283.382 1.04387 4.51284 0
M  V30 2809 C 284.117 1.40368 5.55954 0
M  V30 2810 N 283.613 1.83664 6.68011 0
M  V30 2811 N 285.406 1.32145 5.46346 0
M  V30 2812 H 277.557 1.41376 1.58514 0
M  V30 2813 H 279.82 0.582965 0.747567 0
M  V30 2814 H 279.526 1.66546 3.09767 0
M  V30 2815 H 279.4 0.0502125 3.77167 0
M  V30 2816 H 281.787 -0.451749 2.91622 0
M  V30 2817 H 281.868 1.191 2.26382 0
M  V30 2818 H 281.512 2.11873 4.61598 0
M  V30 2819 H 281.442 0.453956 5.2464 0
M  V30 2820 H 283.933 0.725986 3.70861 0
M  V30 2821 H 284.246 2.0934 7.43906 0
M  V30 2822 H 282.591 1.87596 6.69203 0
M  V30 2823 H 285.782 0.981808 4.57688 0
M  V30 2824 H 285.955 1.60514 6.27805 0
M  V30 2825 N 279.361 -1.56624 0.175154 0
M  V30 2826 C 280.772 -1.83561 -0.340916 0
M  V30 2827 C 281.123 -1.09511 -1.62794 0
M  V30 2828 O 280.248 -0.349389 -2.13561 0
M  V30 2829 C 280.843 -3.32979 -0.625313 0
M  V30 2830 C 279.402 -3.60399 -1.08581 0
M  V30 2831 C 278.549 -2.77024 -0.123722 0
M  V30 2832 H 281.5 -1.53593 0.399344 0
M  V30 2833 H 281.521 -3.50666 -1.47694 0
M  V30 2834 H 281.033 -3.86847 0.311575 0
M  V30 2835 H 279.134 -3.11945 -2.03767 0
M  V30 2836 H 279.247 -4.68711 -0.992317 0
M  V30 2837 H 277.611 -2.46993 -0.621821 0
M  V30 2838 H 278.394 -3.33674 0.807256 0
M  V30 2839 N 280.839 0.0985539 -1.57292 0
M  V30 2840 C 282.067 0.816318 -1.90115 0
M  V30 2841 C 282.482 1.72451 -0.768509 0
M  V30 2842 O 281.839 1.80643 0.259687 0
M  V30 2843 C 281.89 1.63259 -3.22535 0
M  V30 2844 O 281.611 0.760934 -4.31441 0
M  V30 2845 C 283.112 2.45372 -3.69199 0
M  V30 2846 H 280.332 0.233595 -0.629027 0
M  V30 2847 H 282.876 0.0768229 -2.04356 0
M  V30 2848 H 281.031 2.32463 -3.09903 0
M  V30 2849 H 281.445 1.32595 -5.07463 0
M  V30 2850 H 282.919 2.98144 -4.64558 0
M  V30 2851 H 283.396 3.23677 -2.96867 0
M  V30 2852 H 284.002 1.81373 -3.84687 0
M  V30 2853 N 282.317 1.53212 0.369288 0
M  V30 2854 C 283.594 1.59815 1.12776 0
M  V30 2855 C 283.974 0.403402 2.0721 0
M  V30 2856 O 283.322 -0.606667 2.20299 0
M  V30 2857 C 283.532 2.94664 1.87013 0
M  V30 2858 C 284.88 3.49109 2.41677 0
M  V30 2859 O 285.904 2.96669 1.97144 0
M  V30 2860 O 284.763 4.40775 3.23079 0
M  V30 2861 H 281.857 0.645376 0.517125 0
M  V30 2862 H 284.403 1.65553 0.37285 0
M  V30 2863 H 283.175 3.73061 1.18071 0
M  V30 2864 H 282.798 2.92401 2.69421 0
M  V30 2865 N 283.795 -0.628877 1.44509 0
M  V30 2866 C 284.725 -1.75187 1.54376 0
M  V30 2867 C 285.706 -1.65411 0.396618 0
M  V30 2868 O 286.891 -1.84137 0.617031 0
M  V30 2869 C 284.021 -3.13725 1.48976 0
M  V30 2870 C 282.975 -3.38291 2.62189 0
M  V30 2871 C 282.301 -4.76883 2.41841 0
M  V30 2872 C 283.601 -3.30632 4.04326 0
M  V30 2873 H 285.295 -1.67187 2.48373 0
M  V30 2874 H 282.841 -0.802909 1.19538 0
M  V30 2875 H 284.794 -3.92064 1.54478 0
M  V30 2876 H 283.518 -3.22515 0.514961 0
M  V30 2877 H 282.177 -2.62334 2.56079 0
M  V30 2878 H 281.825 -4.82378 1.42548 0
M  V30 2879 H 281.525 -4.94278 3.17747 0
M  V30 2880 H 283.049 -5.57449 2.49165 0
M  V30 2881 H 284.463 -3.98873 4.11793 0
M  V30 2882 H 282.86 -3.59561 4.80454 0
M  V30 2883 H 283.93 -2.28404 4.27738 0
M  V30 2884 N 285.273 -1.31445 -0.869486 0
M  V30 2885 C 286.521 -1.20918 -1.61936 0
M  V30 2886 C 286.842 0.232683 -1.93607 0
M  V30 2887 O 286.112 1.15352 -1.58338 0
M  V30 2888 H 284.692 -0.44454 -0.600328 0
M  V30 2889 H 287.354 -1.64776 -1.0409 0
M  V30 2890 H 286.45 -1.78124 -2.56278 0
M  V30 2891 N 286.751 1.08385 -1.14413 0
M  V30 2892 C 287.979 1.84517 -0.936001 0
M  V30 2893 C 288.394 1.81626 0.515503 0
M  V30 2894 O 287.751 1.22008 1.35721 0
M  V30 2895 C 287.802 3.32049 -1.42918 0
M  V30 2896 O 287.523 3.34951 -2.82381 0
M  V30 2897 C 289.024 4.24986 -1.26103 0
M  V30 2898 H 286.244 0.582491 -0.333084 0
M  V30 2899 H 288.788 1.36885 -1.5193 0
M  V30 2900 H 286.943 3.7707 -0.888641 0
M  V30 2901 H 287.357 4.27048 -3.04517 0
M  V30 2902 H 288.831 5.26615 -1.6547 0
M  V30 2903 H 289.308 4.38726 -0.20392 0
M  V30 2904 H 289.914 3.85791 -1.79012 0
M  V30 2905 N 288.23 0.939286 1.26551 0
M  V30 2906 C 289.476 0.586715 1.94128 0
M  V30 2907 C 289.809 -0.8717 1.73537 0
M  V30 2908 O 289.084 -1.62339 1.07127 0
M  V30 2909 C 289.367 0.927497 3.4795 0
M  V30 2910 C 289.22 2.44052 3.77834 0
M  V30 2911 C 290.539 0.441569 4.37879 0
M  V30 2912 H 287.658 0.21463 0.705055 0
M  V30 2913 H 290.3 1.17316 1.49455 0
M  V30 2914 H 288.45 0.428431 3.8613 0
M  V30 2915 H 290.122 3.01216 3.4938 0
M  V30 2916 H 288.365 2.8848 3.23978 0
M  V30 2917 H 289.036 2.62947 4.85348 0
M  V30 2918 H 291.512 0.869448 4.06915 0
M  V30 2919 H 290.388 0.708856 5.44304 0
M  V30 2920 H 290.649 -0.658467 4.37169 0
M  V30 2921 N 289.708 -1.40897 0.706093 0
M  V30 2922 C 290.64 -2.29199 0.00815776 0
M  V30 2923 C 291.653 -1.45336 -0.733582 0
M  V30 2924 O 292.842 -1.68727 -0.582537 0
M  V30 2925 C 289.942 -3.23417 -1.01265 0
M  V30 2926 C 289.115 -4.36089 -0.338387 0
M  V30 2927 C 288.174 -5.10811 -1.26326 0
M  V30 2928 O 287.2 -5.64215 -0.751651 0
M  V30 2929 N 288.402 -5.19269 -2.595 0
M  V30 2930 H 291.167 -2.89738 0.766297 0
M  V30 2931 H 288.728 -1.52164 0.55296 0
M  V30 2932 H 290.72 -3.70276 -1.63334 0
M  V30 2933 H 289.29 -2.64112 -1.67223 0
M  V30 2934 H 288.51 -3.91479 0.462352 0
M  V30 2935 H 289.798 -5.08634 0.130031 0
M  V30 2936 H 289.196 -4.77347 -3.03573 0
M  V30 2937 H 287.753 -5.69667 -3.16737 0
M  V30 2938 N 291.186 -0.45159 -1.50991 0
M  V30 2939 C 292.414 0.108334 -2.06616 0
M  V30 2940 C 292.829 1.35224 -1.31757 0
M  V30 2941 O 292.186 1.78475 -0.381174 0
M  V30 2942 C 292.237 0.41619 -3.59096 0
M  V30 2943 O 291.958 -0.778361 -4.3113 0
M  V30 2944 C 293.459 1.02523 -4.31282 0
M  V30 2945 H 290.679 0.00159995 -0.670998 0
M  V30 2946 H 293.223 -0.634771 -1.94399 0
M  V30 2947 H 291.378 1.10921 -3.71181 0
M  V30 2948 H 291.792 -0.511181 -5.22003 0
M  V30 2949 H 293.266 1.19053 -5.39009 0
M  V30 2950 H 293.743 2.01013 -3.905 0
M  V30 2951 H 294.349 0.371173 -4.23677 0
M  V30 2952 N 292.664 1.56529 -0.183458 0
M  V30 2953 C 293.912 1.96855 0.457452 0
M  V30 2954 C 294.233 1.07104 1.62953 0
M  V30 2955 O 293.503 0.139887 1.954 0
M  V30 2956 H 292.083 0.72693 0.171992 0
M  V30 2957 H 294.745 1.93056 -0.267476 0
M  V30 2958 H 293.841 3.01423 0.809368 0
M  V30 2959 N 294.142 -0.090211 1.57342 0
M  V30 2960 C 295.105 -1.09335 2.01441 0
M  V30 2961 C 296.105 -1.32666 0.908641 0
M  V30 2962 O 297.295 -1.28697 1.174 0
M  V30 2963 C 294.427 -2.44136 2.3793 0
M  V30 2964 H 295.62 -0.713662 2.91285 0
M  V30 2965 H 293.173 -0.335404 1.52659 0
M  V30 2966 H 293.908 -2.86972 1.51055 0
M  V30 2967 H 293.693 -2.28548 3.18603 0
M  V30 2968 H 295.183 -3.16277 2.72688 0
M  V30 2969 N 295.62 -1.53406 -0.361157 0
M  V30 2970 C 296.866 -1.70999 -1.1014 0
M  V30 2971 C 297.221 -0.458425 -1.86859 0
M  V30 2972 O 296.514 0.548654 -1.83577 0
M  V30 2973 C 296.708 -2.90211 -2.08596 0
M  V30 2974 C 296.537 -4.26841 -1.41553 0
M  V30 2975 C 295.307 -4.91621 -1.16778 0
M  V30 2976 C 297.505 -5.07212 -0.850915 0
M  V30 2977 N 295.487 -6.12164 -0.461312 0
M  V30 2978 C 296.858 -6.19394 -0.274046 0
M  V30 2979 C 298.913 -4.92218 -0.750036 0
M  V30 2980 C 297.616 -7.18221 0.393868 0
M  V30 2981 C 299.642 -5.91322 -0.095894 0
M  V30 2982 C 299.004 -7.0283 0.470081 0
M  V30 2983 H 295.103 -0.678939 -0.388028 0
M  V30 2984 H 297.687 -1.90811 -0.38722 0
M  V30 2985 H 295.858 -2.71931 -2.77323 0
M  V30 2986 H 297.59 -2.96606 -2.7533 0
M  V30 2987 H 294.345 -4.50849 -1.45024 0
M  V30 2988 H 294.769 -6.76888 -0.123312 0
M  V30 2989 H 299.411 -4.06192 -1.17337 0
M  V30 2990 H 297.129 -8.03835 0.82914 0
M  V30 2991 H 300.715 -5.81797 -0.0187075 0
M  V30 2992 H 299.595 -7.782 0.968241 0
M  V30 2993 N 297.098 0.621204 -1.44841 0
M  V30 2994 C 298.347 1.37658 -1.47422 0
M  V30 2995 C 298.66 1.95264 -0.114629 0
M  V30 2996 O 299.866 2.71494 -0.0180199 0
M  V30 2997 C 298.322 2.49285 -2.59586 0
M  V30 2998 C 297.93 1.98149 -4.01797 0
M  V30 2999 C 299.674 3.26409 -2.71399 0
M  V30 3000 C 297.581 3.07178 -5.05367 0
M  V30 3001 H 296.511 0.517344 -0.548517 0
M  V30 3002 H 299.162 0.667257 -1.70938 0
M  V30 3003 H 297.544 3.22839 -2.29328 0
M  V30 3004 H 298.718 1.31395 -4.41669 0
M  V30 3005 H 297.033 1.33812 -3.94314 0
M  V30 3006 H 299.63 4.07706 -3.45948 0
M  V30 3007 H 299.973 3.76535 -1.77559 0
M  V30 3008 H 300.506 2.5995 -3.01116 0
M  V30 3009 H 297.245 2.61985 -6.00869 0
M  V30 3010 H 296.765 3.72542 -4.70077 0
M  V30 3011 H 298.444 3.71789 -5.29511 0
M  V30 3012 N 298.576 1.31904 0.862503 0
M  V30 3013 C 299.506 1.22782 1.98612 0
M  V30 3014 C 300.487 0.113362 1.69722 0
M  V30 3015 O 301.672 0.299218 1.91881 0
M  V30 3016 C 298.802 0.942058 3.34279 0
M  V30 3017 C 297.756 2.0169 3.77499 0
M  V30 3018 C 297.082 1.58369 5.10709 0
M  V30 3019 C 298.382 3.43096 3.93805 0
M  V30 3020 H 300.076 2.16788 2.06502 0
M  V30 3021 H 297.622 1.04366 0.992154 0
M  V30 3022 H 299.575 0.864818 4.1243 0
M  V30 3023 H 298.299 -0.0336603 3.26583 0
M  V30 3024 H 296.958 2.08416 3.01593 0
M  V30 3025 H 296.606 0.595628 4.99461 0
M  V30 3026 H 296.306 2.30279 5.40597 0
M  V30 3027 H 297.83 1.52067 5.91361 0
M  V30 3028 H 299.244 3.39003 4.62331 0
M  V30 3029 H 297.641 4.13288 4.35101 0
M  V30 3030 H 298.711 3.83334 2.96957 0
M  V30 3031 N 300.054 -1.07777 1.14986 0
M  V30 3032 C 301.465 -1.61766 0.932127 0
M  V30 3033 C 301.816 -1.88974 -0.527581 0
M  V30 3034 O 300.941 -1.65198 -1.39781 0
M  V30 3035 C 301.536 -2.93891 1.68563 0
M  V30 3036 C 300.095 -3.44639 1.5133 0
M  V30 3037 C 299.242 -2.18767 1.704 0
M  V30 3038 H 302.193 -0.909201 1.30074 0
M  V30 3039 H 302.214 -3.62623 1.15259 0
M  V30 3040 H 301.726 -2.74057 2.74799 0
M  V30 3041 H 299.827 -3.69564 0.474702 0
M  V30 3042 H 299.94 -4.20966 2.28746 0
M  V30 3043 H 298.304 -2.28253 1.13016 0
M  V30 3044 H 299.087 -2.01433 2.77992 0
M  V30 3045 N 301.532 -0.945985 -1.26051 0
M  V30 3046 C 302.809 -0.513816 -1.88731 0
M  V30 3047 C 303.189 1.00872 -1.8544 0
M  V30 3048 O 302.537 1.8708 -1.312 0
M  V30 3049 C 302.747 -1.08062 -3.31849 0
M  V30 3050 C 304.095 -1.1522 -4.08668 0
M  V30 3051 O 305.119 -1.03155 -3.40936 0
M  V30 3052 O 303.978 -1.34044 -5.29806 0
M  V30 3053 H 301.072 -0.168193 -0.809716 0
M  V30 3054 H 303.618 -1.03886 -1.34186 0
M  V30 3055 H 302.39 -2.1241 -3.2863 0
M  V30 3056 H 302.013 -0.538307 -3.93939 0
M  V30 3057 N 303.011 1.40521 -0.713556 0
M  V30 3058 C 303.921 2.34522 -0.0606667 0
M  V30 3059 C 304.937 1.57193 0.74607 0
M  V30 3060 O 306.113 1.89591 0.679493 0
M  V30 3061 C 303.178 3.36081 0.851491 0
M  V30 3062 C 302.239 4.29286 0.0349339 0
M  V30 3063 C 301.472 5.25994 0.903649 0
M  V30 3064 O 301.695 5.28616 2.14292 0
M  V30 3065 O 300.629 6.00918 0.343723 0
M  V30 3066 H 304.455 2.91968 -0.835972 0
M  V30 3067 H 302.04 1.41681 -0.47402 0
M  V30 3068 H 303.922 3.98369 1.37404 0
M  V30 3069 H 302.597 2.81052 1.60598 0
M  V30 3070 H 301.504 3.70289 -0.532633 0
M  V30 3071 H 302.837 4.87462 -0.681287 0
M  V30 3072 N 304.489 0.459591 1.5075 0
M  V30 3073 C 305.905 0.113092 1.59199 0
M  V30 3074 C 306.105 -1.37951 1.46874 0
M  V30 3075 O 305.161 -2.15168 1.32132 0
M  V30 3076 C 306.474 0.653043 2.93523 0
M  V30 3077 C 308.022 0.615449 3.0689 0
M  V30 3078 C 308.497 1.13275 4.43771 0
M  V30 3079 N 309.988 1.09167 4.50152 0
M  V30 3080 C 310.723 1.46256 5.54434 0
M  V30 3081 N 310.219 1.90739 6.66026 0
M  V30 3082 N 312.012 1.37932 5.44914 0
M  V30 3083 H 304.163 1.43049 1.57005 0
M  V30 3084 H 306.426 0.590861 0.741341 0
M  V30 3085 H 306.132 1.69822 3.07983 0
M  V30 3086 H 306.006 0.0902132 3.77092 0
M  V30 3087 H 308.393 -0.420793 2.92084 0
M  V30 3088 H 308.474 1.21495 2.25106 0
M  V30 3089 H 308.118 2.16757 4.59324 0
M  V30 3090 H 308.048 0.509576 5.24129 0
M  V30 3091 H 310.539 0.76528 3.7007 0
M  V30 3092 H 310.852 2.17218 7.41644 0
M  V30 3093 H 309.197 1.94683 6.67176 0
M  V30 3094 H 312.388 1.0303 4.56621 0
M  V30 3095 H 312.561 1.67164 6.26067 0
M  V30 3096 N 305.967 -1.56429 0.191757 0
M  V30 3097 C 307.378 -1.83912 -0.321428 0
M  V30 3098 C 307.729 -1.11231 -1.61623 0
M  V30 3099 O 306.854 -0.37202 -2.13178 0
M  V30 3100 C 307.449 -3.33624 -0.589961 0
M  V30 3101 C 306.008 -3.6153 -1.04753 0
M  V30 3102 C 305.155 -2.7714 -0.0943327 0
M  V30 3103 H 308.106 -1.53161 0.415612 0
M  V30 3104 H 308.127 -3.52213 -1.43966 0
M  V30 3105 H 307.639 -3.86495 0.352588 0
M  V30 3106 H 305.74 -3.14089 -2.00447 0
M  V30 3107 H 305.853 -4.69737 -0.942549 0
M  V30 3108 H 304.217 -2.47638 -0.595589 0
M  V30 3109 H 305 -3.32799 0.842601 0
M  V30 3110 N 307.445 0.0818655 -1.57387 0
M  V30 3111 C 308.375 1.09885 -2.06028 0
M  V30 3112 C 309.356 1.4098 -0.951774 0
M  V30 3113 O 310.541 1.50781 -1.22387 0
M  V30 3114 C 307.671 2.4151 -2.4958 0
M  V30 3115 C 306.625 2.24792 -3.64215 0
M  V30 3116 C 305.951 3.61712 -3.93787 0
M  V30 3117 C 307.251 1.67749 -4.94629 0
M  V30 3118 H 308.945 0.694128 -2.91243 0
M  V30 3119 H 306.491 0.332448 -1.4011 0
M  V30 3120 H 308.444 3.12939 -2.82219 0
M  V30 3121 H 307.168 2.83943 -1.61381 0
M  V30 3122 H 305.827 1.55807 -3.31843 0
M  V30 3123 H 305.475 4.01697 -3.02735 0
M  V30 3124 H 305.175 3.51368 -4.70971 0
M  V30 3125 H 306.699 4.34587 -4.28913 0
M  V30 3126 H 308.113 2.29032 -5.25564 0
M  V30 3127 H 306.51 1.68128 -5.76067 0
M  V30 3128 H 307.58 0.638059 -4.80684 0
M  V30 3129 N 308.923 1.53595 0.353017 0
M  V30 3130 C 310.148 1.7462 1.11904 0
M  V30 3131 C 310.573 0.479721 1.8188 0
M  V30 3132 O 309.931 -0.567066 1.72204 0
M  V30 3133 C 309.979 2.92029 2.11545 0
M  V30 3134 O 309.083 2.61516 3.18878 0
M  V30 3135 H 308.424 0.579531 0.324099 0
M  V30 3136 H 310.954 2.00525 0.406301 0
M  V30 3137 H 310.964 3.18551 2.5493 0
M  V30 3138 H 309.639 3.83888 1.60008 0
M  V30 3139 H 308.216 2.45852 2.80377 0
M  V30 3140 N 310.401 -0.613514 1.45168 0
M  V30 3141 C 311.364 -1.7065 1.53007 0
M  V30 3142 C 312.364 -1.5548 0.410184 0
M  V30 3143 O 313.554 -1.60656 0.673455 0
M  V30 3144 C 310.686 -3.09875 1.42093 0
M  V30 3145 H 311.879 -1.65068 2.50385 0
M  V30 3146 H 309.432 -0.828728 1.32521 0
M  V30 3147 H 310.167 -3.21039 0.458769 0
M  V30 3148 H 309.952 -3.22293 2.23315 0
M  V30 3149 H 311.442 -3.895 1.50598 0
M  V30 3150 N 311.879 -1.3236 -0.855495 0
M  V30 3151 C 312.789 -1.23221 -1.99634 0
M  V30 3152 C 313.805 -0.145983 -1.73387 0
M  V30 3153 O 314.981 -0.366502 -1.98037 0
M  V30 3154 C 312.046 -0.954782 -3.33294 0
M  V30 3155 C 311.107 -2.12937 -3.72769 0
M  V30 3156 C 310.34 -1.86508 -5.00051 0
M  V30 3157 O 310.563 -0.807231 -5.64659 0
M  V30 3158 O 309.497 -2.72591 -5.36636 0
M  V30 3159 H 313.323 -2.19126 -2.1028 0
M  V30 3160 H 310.908 -1.12241 -0.986018 0
M  V30 3161 H 312.79 -0.816519 -4.13414 0
M  V30 3162 H 311.465 -0.0258854 -3.2369 0
M  V30 3163 H 310.372 -2.3231 -2.93228 0
M  V30 3164 H 311.705 -3.04102 -3.87018 0
M  V30 3165 N 313.357 1.07166 -1.15556 0
M  V30 3166 C 314.287 2.16403 -0.877046 0
M  V30 3167 C 315.268 1.69217 0.173111 0
M  V30 3168 O 316.453 1.94181 0.027084 0
M  V30 3169 C 313.583 3.45349 -0.367632 0
M  V30 3170 C 312.537 4.05995 -1.35468 0
M  V30 3171 C 311.863 5.30045 -0.704038 0
M  V30 3172 C 313.163 4.45804 -2.72132 0
M  V30 3173 H 314.857 2.39959 -1.79053 0
M  V30 3174 H 312.403 1.15325 -0.862331 0
M  V30 3175 H 314.356 4.21095 -0.160317 0
M  V30 3176 H 313.08 3.21385 0.581326 0
M  V30 3177 H 311.739 3.32296 -1.54839 0
M  V30 3178 H 311.387 5.02373 0.251128 0
M  V30 3179 H 311.087 5.71579 -1.36277 0
M  V30 3180 H 312.611 6.08495 -0.50654 0
M  V30 3181 H 314.025 5.12671 -2.56595 0
M  V30 3182 H 312.422 4.98296 -3.34397 0
M  V30 3183 H 313.492 3.57083 -3.28054 0
M  V30 3184 N 314.835 0.952656 1.25548 0
M  V30 3185 C 315.745 0.47782 2.29682 0
M  V30 3186 C 316.761 -0.453859 1.67977 0
M  V30 3187 O 317.937 -0.330587 1.98668 0
M  V30 3188 C 315.002 -0.238655 3.45878 0
M  V30 3189 C 314.063 0.730994 4.23031 0
M  V30 3190 C 313.296 0.0486165 5.33678 0
M  V30 3191 O 313.519 -1.16612 5.58353 0
M  V30 3192 O 312.453 0.733152 5.97418 0
M  V30 3193 H 316.279 1.34312 2.72386 0
M  V30 3194 H 313.864 0.719026 1.30959 0
M  V30 3195 H 315.746 -0.641774 4.16484 0
M  V30 3196 H 314.421 -1.07916 3.05181 0
M  V30 3197 H 313.328 1.18428 3.5486 0
M  V30 3198 H 314.661 1.53946 4.67506 0
M  V30 3199 N 316.313 -1.40141 0.720998 0
M  V30 3200 C 317.276 -2.29058 0.0805834 0
M  V30 3201 C 318.276 -1.45632 -0.681758 0
M  V30 3202 O 319.466 -1.6648 -0.512856 0
M  V30 3203 C 316.598 -3.28925 -0.895593 0
M  V30 3204 H 317.791 -2.87191 0.863793 0
M  V30 3205 H 315.344 -1.48553 0.485975 0
M  V30 3206 H 316.079 -2.75822 -1.70566 0
M  V30 3207 H 315.864 -3.90519 -0.351766 0
M  V30 3208 H 317.354 -3.95494 -1.34069 0
M  V30 3209 N 317.792 -0.46758 -1.50504 0
M  V30 3210 C 319.039 0.0886219 -2.02306 0
M  V30 3211 C 319.367 1.40037 -1.34981 0
M  V30 3212 O 318.622 1.90136 -0.463318 0
M  V30 3213 C 318.921 0.323995 -3.55928 0
M  V30 3214 C 318.587 -0.905618 -4.41712 0
M  V30 3215 C 317.249 -1.24275 -4.64875 0
M  V30 3216 C 319.601 -1.72448 -4.91845 0
M  V30 3217 C 316.929 -2.39888 -5.35417 0
M  V30 3218 C 319.281 -2.87185 -5.63656 0
M  V30 3219 C 317.945 -3.21317 -5.85074 0
M  V30 3220 H 317.215 0.0324291 -0.74029 0
M  V30 3221 H 319.862 -0.620945 -1.81153 0
M  V30 3222 H 318.167 1.11577 -3.75577 0
M  V30 3223 H 319.864 0.76826 -3.93572 0
M  V30 3224 H 316.454 -0.632956 -4.239 0
M  V30 3225 H 320.638 -1.4772 -4.73806 0
M  V30 3226 H 315.894 -2.66611 -5.50208 0
M  V30 3227 H 320.068 -3.50985 -6.01484 0
M  V30 3228 H 317.695 -4.1101 -6.39511 0
M  V30 3229 N 319.27 1.56325 -0.20005 0
M  V30 3230 C 320.2 2.22318 0.713916 0
M  V30 3231 C 321.181 1.18788 1.21752 0
M  V30 3232 O 322.366 1.47309 1.26545 0
M  V30 3233 C 319.496 2.88639 1.93144 0
M  V30 3234 C 318.45 3.98457 1.56255 0
M  V30 3235 C 317.776 4.51967 2.85709 0
M  V30 3236 C 319.076 5.16612 0.768747 0
M  V30 3237 H 320.77 2.98952 0.163755 0
M  V30 3238 H 318.316 1.43792 0.0773219 0
M  V30 3239 H 320.269 3.33491 2.57608 0
M  V30 3240 H 318.993 2.09419 2.50621 0
M  V30 3241 H 317.652 3.54305 0.941471 0
M  V30 3242 H 317.3 3.69503 3.41287 0
M  V30 3243 H 317 5.26071 2.6177 0
M  V30 3244 H 318.524 4.99523 3.51154 0
M  V30 3245 H 319.938 5.57977 1.3166 0
M  V30 3246 H 318.335 5.96812 0.627286 0
M  V30 3247 H 319.405 4.84358 -0.229168 0
M  V30 3248 N 320.748 -0.0735177 1.57428 0
M  V30 3249 C 321.711 -1.07192 2.02589 0
M  V30 3250 C 322.711 -1.31695 0.922661 0
M  V30 3251 O 323.901 -1.27445 1.18758 0
M  V30 3252 C 321.033 -2.41599 2.40506 0
M  V30 3253 H 322.226 -0.682727 2.92025 0
M  V30 3254 H 319.779 -0.319193 1.53006 0
M  V30 3255 H 320.514 -2.85354 1.5409 0
M  V30 3256 H 320.299 -2.25156 3.21009 0
M  V30 3257 H 321.789 -3.13367 2.76027 0
M  V30 3258 N 322.226 -1.5378 -0.344866 0
M  V30 3259 C 323.189 -1.80981 -1.40637 0
M  V30 3260 C 324.189 -0.680816 -1.45676 0
M  V30 3261 O 325.379 -0.949095 -1.46075 0
M  V30 3262 C 322.511 -1.95063 -2.79577 0
M  V30 3263 H 323.704 -2.75803 -1.17783 0
M  V30 3264 H 321.257 -1.45173 -0.579181 0
M  V30 3265 H 321.992 -1.02379 -3.07716 0
M  V30 3266 H 321.777 -2.77198 -2.77315 0
M  V30 3267 H 323.267 -2.17629 -3.56409 0
M  V30 3268 N 323.704 0.605807 -1.45491 0
M  V30 3269 C 324.952 1.36207 -1.49305 0
M  V30 3270 C 325.273 1.94519 -0.136863 0
M  V30 3271 O 324.543 1.77261 0.833983 0
M  V30 3272 H 323.123 0.50565 -0.549843 0
M  V30 3273 H 325.785 0.711239 -1.81459 0
M  V30 3274 H 324.881 2.18058 -2.23287 0
M  V30 3275 N 325.182 1.32811 0.848464 0
M  V30 3276 C 326.407 1.26882 1.6406 0
M  V30 3277 C 326.832 -0.15913 1.87426 0
M  V30 3278 O 326.19 -1.11258 1.43148 0
M  V30 3279 C 326.238 2.03997 2.97351 0
M  V30 3280 O 325.342 1.39201 3.88197 0
M  V30 3281 H 324.683 0.436982 0.499943 0
M  V30 3282 H 327.213 1.75224 1.0563 0
M  V30 3283 H 327.223 2.14403 3.47124 0
M  V30 3284 H 325.898 3.0783 2.79666 0
M  V30 3285 H 324.475 1.37381 3.46671 0
M  V30 3286 N 326.66 -1.06551 1.16123 0
M  V30 3287 C 327.888 -1.83005 0.965237 0
M  V30 3288 C 328.303 -1.82423 -0.486542 0
M  V30 3289 O 327.66 -1.24152 -1.33763 0
M  V30 3290 C 327.711 -3.29733 1.48183 0
M  V30 3291 O 327.432 -3.30416 2.87674 0
M  V30 3292 C 328.933 -4.22926 1.32848 0
M  V30 3293 H 326.153 -0.577118 0.342309 0
M  V30 3294 H 328.697 -1.3445 1.54089 0
M  V30 3295 H 326.852 -3.75609 0.948517 0
M  V30 3296 H 327.266 -4.22149 3.11272 0
M  V30 3297 H 328.74 -5.23916 1.73827 0
M  V30 3298 H 329.217 -4.38346 0.273692 0
M  V30 3299 H 329.823 -3.82894 1.85127 0
M  V30 3300 N 328.138 -0.959301 -1.25041 0
M  V30 3301 C 329.549 -0.65667 -1.74771 0
M  V30 3302 C 329.9 0.827852 -1.77879 0
M  V30 3303 O 329.025 1.64783 -1.40269 0
M  V30 3304 C 329.62 -1.1853 -3.1739 0
M  V30 3305 C 328.179 -0.932734 -3.6466 0
M  V30 3306 C 327.326 -1.32558 -2.43564 0
M  V30 3307 H 330.277 -1.13558 -1.10862 0
M  V30 3308 H 330.298 -0.547582 -3.76539 0
M  V30 3309 H 329.81 -2.26576 -3.15095 0
M  V30 3310 H 327.911 0.13257 -3.72364 0
M  V30 3311 H 328.024 -1.57248 -4.52559 0
M  V30 3312 H 326.388 -0.743956 -2.43593 0
M  V30 3313 H 327.171 -2.41537 -2.43957 0
M  V30 3314 N 329.616 1.39756 -0.72842 0
M  V30 3315 C 330.862 2.00942 -0.273892 0
M  V30 3316 C 331.195 1.57656 1.13394 0
M  V30 3317 O 330.47 0.802434 1.77176 0
M  V30 3318 C 330.753 3.58211 -0.368346 0
M  V30 3319 C 330.606 4.11534 -1.81548 0
M  V30 3320 C 331.925 4.39372 0.253054 0
M  V30 3321 H 329.044 0.730047 -0.100996 0
M  V30 3322 H 331.686 1.66056 -0.923337 0
M  V30 3323 H 329.836 3.88061 0.184588 0
M  V30 3324 H 331.508 3.92431 -2.42478 0
M  V30 3325 H 329.751 3.65341 -2.33898 0
M  V30 3326 H 330.422 5.20682 -1.83288 0
M  V30 3327 H 332.898 4.15527 -0.218224 0
M  V30 3328 H 331.774 5.48677 0.156585 0
M  V30 3329 H 332.035 4.21358 1.33826 0
M  V30 3330 N 331.094 0.475555 1.50254 0
M  V30 3331 C 332.324 -0.0753399 2.06463 0
M  V30 3332 C 332.732 -1.33661 1.33908 0
M  V30 3333 O 332.075 -1.79219 0.403257 0
M  V30 3334 C 332.137 -0.424921 3.5698 0
M  V30 3335 C 331.801 0.734965 4.51051 0
M  V30 3336 C 332.798 1.61827 4.94073 0
M  V30 3337 C 330.483 0.926557 4.9368 0
M  V30 3338 C 332.477 2.67754 5.78434 0
M  V30 3339 C 330.164 1.98904 5.77824 0
M  V30 3340 C 331.162 2.8629 6.20103 0
M  V30 3341 O 330.85 3.90708 7.02568 0
M  V30 3342 H 330.582 0.00576308 0.675975 0
M  V30 3343 H 333.136 0.664662 1.94349 0
M  V30 3344 H 331.366 -1.21817 3.67012 0
M  V30 3345 H 333.055 -0.911422 3.95535 0
M  V30 3346 H 333.821 1.48196 4.61804 0
M  V30 3347 H 329.7 0.25584 4.6029 0
M  V30 3348 H 333.244 3.35992 6.11355 0
M  V30 3349 H 329.141 2.12541 6.09505 0
M  V30 3350 H 329.909 3.87751 7.20827 0
M  V30 3351 N 332.573 -1.56217 0.208337 0
M  V30 3352 C 333.819 -1.98242 -0.427552 0
M  V30 3353 C 334.152 -1.09554 -1.60348 0
M  V30 3354 O 333.427 -0.15035 -1.93918 0
M  V30 3355 C 333.71 -3.4931 -0.874907 0
M  V30 3356 C 333.563 -4.48773 0.303751 0
M  V30 3357 C 334.882 -4.04424 -1.73577 0
M  V30 3358 H 332.001 -0.720744 -0.153936 0
M  V30 3359 H 334.643 -1.87586 0.30192 0
M  V30 3360 H 332.793 -3.58522 -1.49648 0
M  V30 3361 H 334.465 -4.51586 0.941682 0
M  V30 3362 H 332.708 -4.23194 0.953375 0
M  V30 3363 H 333.379 -5.51976 -0.0519883 0
M  V30 3364 H 335.855 -3.98075 -1.21143 0
M  V30 3365 H 334.731 -5.1047 -2.01771 0
M  V30 3366 H 334.992 -3.50494 -2.69456 0
M  V30 3367 N 334.051 0.0651679 -1.57465 0
M  V30 3368 C 335.299 0.761555 -1.87202 0
M  V30 3369 C 335.62 1.77778 -0.801243 0
M  V30 3370 O 334.89 1.95166 0.16937 0
M  V30 3371 H 333.47 0.284251 -0.690804 0
M  V30 3372 H 336.132 0.0396827 -1.9486 0
M  V30 3373 H 335.228 1.27365 -2.84929 0
M  V30 3374 N 335.529 1.53961 0.336706 0
M  V30 3375 C 336.776 1.71536 1.07618 0
M  V30 3376 C 337.104 0.482125 1.8843 0
M  V30 3377 O 336.359 -0.536142 1.88213 0
M  V30 3378 C 336.658 2.93493 2.03953 0
M  V30 3379 C 336.324 4.28811 1.39399 0
M  V30 3380 C 334.986 4.65602 1.21523 0
M  V30 3381 C 337.338 5.12844 0.929541 0
M  V30 3382 C 334.666 5.84037 0.558312 0
M  V30 3383 C 337.018 6.31951 0.286505 0
M  V30 3384 C 335.682 6.67432 0.0954869 0
M  V30 3385 H 334.952 0.627696 0.393801 0
M  V30 3386 H 337.599 1.88186 0.354715 0
M  V30 3387 H 335.904 2.71475 2.82504 0
M  V30 3388 H 337.601 3.04285 2.61174 0
M  V30 3389 H 334.191 3.99858 1.54311 0
M  V30 3390 H 338.375 4.84947 1.05548 0
M  V30 3391 H 333.631 6.10097 0.398995 0
M  V30 3392 H 337.805 6.96352 -0.0814376 0
M  V30 3393 H 335.432 7.59063 -0.415579 0
M  V30 3394 N 337.007 -0.598083 1.45811 0
M  V30 3395 C 338.255 -1.35413 1.50026 0
M  V30 3396 C 338.576 -1.94444 0.147177 0
M  V30 3397 O 337.846 -1.77701 -0.824571 0
M  V30 3398 H 336.426 -0.502727 0.552517 0
M  V30 3399 H 339.088 -0.701606 1.81834 0
M  V30 3400 H 338.184 -2.16871 2.2444 0
M  V30 3401 N 338.485 -1.33259 -0.841409 0
M  V30 3402 C 339.71 -1.2775 -1.63385 0
M  V30 3403 C 340.135 0.149188 -1.87507 0
M  V30 3404 O 339.493 1.10498 -1.43736 0
M  V30 3405 C 339.541 -2.05571 -2.96265 0
M  V30 3406 O 338.645 -1.41257 -3.87453 0
M  V30 3407 H 337.986 -0.439627 -0.497618 0
M  V30 3408 H 340.516 -1.75782 -1.04699 0
M  V30 3409 H 340.526 -2.16241 -3.45982 0
M  V30 3410 H 339.201 -3.09309 -2.7803 0
M  V30 3411 H 337.778 -1.39217 -3.45938 0
M  V30 3412 N 339.963 1.05934 -1.16686 0
M  V30 3413 C 341.188 1.83029 -0.975455 0
M  V30 3414 C 341.613 1.82096 0.471452 0
M  V30 3415 O 340.971 1.22443 1.33706 0
M  V30 3416 C 341.019 3.27372 -1.51195 0
M  V30 3417 O 340.123 4.06054 -0.720701 0
M  V30 3418 H 339.464 0.566194 -0.346872 0
M  V30 3419 H 341.994 1.33541 -1.55009 0
M  V30 3420 H 342.004 3.78186 -1.53099 0
M  V30 3421 H 340.679 3.27366 -2.56523 0
M  V30 3422 H 339.256 3.64812 -0.772458 0
M  V30 3423 N 341.441 0.965919 1.2453 0
M  V30 3424 C 342.666 0.643971 1.97149 0
M  V30 3425 C 343.091 -0.779487 1.71189 0
M  V30 3426 O 342.449 -1.5288 0.974553 0
M  V30 3427 C 342.497 0.922557 3.48599 0
M  V30 3428 O 341.601 0.00707672 4.12399 0
M  V30 3429 H 340.942 0.243647 0.617683 0
M  V30 3430 H 343.472 1.29558 1.58353 0
M  V30 3431 H 343.482 0.853373 3.98976 0
M  V30 3432 H 342.157 1.95996 3.66822 0
M  V30 3433 H 340.734 0.12943 3.72675 0
M  V30 3434 N 342.919 -1.39368 0.735821 0
M  V30 3435 C 344.335 -1.54204 0.411492 0
M  V30 3436 C 344.535 -1.70268 -1.07755 0
M  V30 3437 O 343.591 -1.70364 -1.86366 0
M  V30 3438 C 344.904 -2.75925 1.19523 0
M  V30 3439 C 346.452 -2.89761 1.18354 0
M  V30 3440 C 346.927 -4.14421 1.94986 0
M  V30 3441 N 348.418 -4.21462 1.92156 0
M  V30 3442 C 349.153 -5.16871 2.48258 0
M  V30 3443 N 348.649 -6.18063 3.13001 0
M  V30 3444 N 350.442 -5.09093 2.38287 0
M  V30 3445 H 342.593 -1.27189 1.70108 0
M  V30 3446 H 344.856 -0.616517 0.720147 0
M  V30 3447 H 344.562 -2.70401 2.24892 0
M  V30 3448 H 344.436 -3.68614 0.800222 0
M  V30 3449 H 346.823 -2.94777 0.137975 0
M  V30 3450 H 346.904 -1.98133 1.61793 0
M  V30 3451 H 346.548 -4.10166 2.99543 0
M  V30 3452 H 346.478 -5.05095 1.48953 0
M  V30 3453 H 348.969 -3.48979 1.44991 0
M  V30 3454 H 349.282 -6.87326 3.53275 0
M  V30 3455 H 347.627 -6.18448 3.17091 0
M  V30 3456 H 350.818 -4.28973 1.8735 0
M  V30 3457 H 350.991 -5.83272 2.82308 0
M  V30 3458 N 344.397 -0.483516 -1.5 0
M  V30 3459 C 345.808 -0.0314176 -1.86674 0
M  V30 3460 C 346.159 1.37728 -1.39733 0
M  V30 3461 O 345.284 2.02327 -0.767635 0
M  V30 3462 C 345.879 -0.0502376 -3.38763 0
M  V30 3463 C 344.438 0.346442 -3.74802 0
M  V30 3464 C 343.585 -0.430366 -2.7394 0
M  V30 3465 H 346.536 -0.697182 -1.42566 0
M  V30 3466 H 346.557 0.749116 -3.73053 0
M  V30 3467 H 346.069 -1.07563 -3.72897 0
M  V30 3468 H 344.17 1.37572 -3.46273 0
M  V30 3469 H 344.283 0.0391486 -4.79084 0
M  V30 3470 H 342.647 0.117557 -2.54429 0
M  V30 3471 H 343.43 -1.4555 -3.10918 0
M  V30 3472 N 345.875 1.56104 -0.216619 0
M  V30 3473 C 346.838 2.18819 0.681962 0
M  V30 3474 C 347.838 1.14866 1.12528 0
M  V30 3475 O 349.028 1.40128 1.03488 0
M  V30 3476 C 346.16 2.80756 1.93362 0
M  V30 3477 H 347.353 2.99595 0.135254 0
M  V30 3478 H 344.906 1.56265 0.0330003 0
M  V30 3479 H 345.641 2.03837 2.52232 0
M  V30 3480 H 345.426 3.56876 1.62426 0
M  V30 3481 H 346.916 3.28844 2.57393 0
M  V30 3482 N 347.353 -0.0568162 1.57498 0
M  V30 3483 C 348.581 -0.765626 1.92213 0
M  V30 3484 C 348.996 -1.70353 0.813961 0
M  V30 3485 O 348.353 -1.81268 -0.211701 0
M  V30 3486 C 348.404 -1.5465 3.2675 0
M  V30 3487 O 348.125 -0.646278 4.33307 0
M  V30 3488 C 349.626 -2.35497 3.75574 0
M  V30 3489 H 346.846 -0.216835 0.634999 0
M  V30 3490 H 349.39 -0.0226146 2.04487 0
M  V30 3491 H 347.545 -2.24165 3.15957 0
M  V30 3492 H 347.959 -1.19093 5.108 0
M  V30 3493 H 349.433 -2.85722 4.72299 0
M  V30 3494 H 349.91 -3.15692 3.05344 0
M  V30 3495 H 350.516 -1.7111 3.8936 0
M  V30 3496 N 348.832 -1.54138 -0.328536 0
M  V30 3497 C 349.795 -1.82462 -1.38709 0
M  V30 3498 C 350.795 -0.696229 -1.44946 0
M  V30 3499 O 351.985 -0.964535 -1.4506 0
M  V30 3500 C 349.117 -1.98018 -2.77492 0
M  V30 3501 H 350.31 -2.77037 -1.14851 0
M  V30 3502 H 347.863 -1.45779 -0.563751 0
M  V30 3503 H 348.598 -1.05637 -3.06613 0
M  V30 3504 H 348.383 -2.80124 -2.74359 0
M  V30 3505 H 349.873 -2.21396 -3.54081 0
M  V30 3506 N 350.31 0.590341 -1.46126 0
M  V30 3507 C 351.587 1.35029 -1.41515 0
M  V30 3508 C 351.967 2.10888 -0.0946472 0
M  V30 3509 O 351.315 2.08998 0.923693 0
M  V30 3510 C 351.525 2.28269 -2.63997 0
M  V30 3511 C 352.873 2.90338 -3.09821 0
M  V30 3512 O 353.897 2.38585 -2.64492 0
M  V30 3513 O 352.756 3.84321 -3.88535 0
M  V30 3514 H 349.85 0.606317 -0.562413 0
M  V30 3515 H 352.396 0.611994 -1.58281 0
M  V30 3516 H 351.168 1.71591 -3.51671 0
M  V30 3517 H 350.791 3.0945 -2.49652 0
M  V30 3518 N 351.788 1.33704 0.83433 0
M  V30 3519 C 352.751 1.24244 1.92603 0
M  V30 3520 C 353.751 0.160383 1.59998 0
M  V30 3521 O 354.941 0.412228 1.69252 0
M  V30 3522 C 352.073 0.91555 3.28376 0
M  V30 3523 H 353.266 2.21287 2.02416 0
M  V30 3524 H 350.819 1.17827 1.02696 0
M  V30 3525 H 351.554 -0.0521886 3.24258 0
M  V30 3526 H 351.339 1.69811 3.53422 0
M  V30 3527 H 352.829 0.874231 4.08347 0
M  V30 3528 N 353.266 -1.05314 1.17247 0
M  V30 3529 C 354.229 -2.112 0.890357 0
M  V30 3530 C 355.229 -1.60359 -0.118943 0
M  V30 3531 O 356.419 -1.73833 0.113086 0
M  V30 3532 C 353.551 -3.39266 0.333422 0
M  V30 3533 H 354.744 -2.37659 1.82916 0
M  V30 3534 H 352.297 -1.21538 0.982758 0
M  V30 3535 H 353.032 -3.18462 -0.612587 0
M  V30 3536 H 352.817 -3.77477 1.06082 0
M  V30 3537 H 354.307 -4.17315 0.154322 0
M  V30 3538 N 354.744 -0.972509 -1.24016 0
M  V30 3539 C 355.691 -0.505969 -2.25186 0
M  V30 3540 C 356.661 0.451009 -1.5986 0
M  V30 3541 O 357.846 0.360307 -1.87367 0
M  V30 3542 C 354.986 0.193089 -3.44559 0
M  V30 3543 C 354.099 -0.803222 -4.24467 0
M  V30 3544 C 353.234 -0.0797793 -5.3114 0
M  V30 3545 C 352.273 -1.06583 -6.02749 0
M  V30 3546 N 351.41 -0.372074 -7.01113 0
M  V30 3547 H 356.25 -1.37351 -2.64459 0
M  V30 3548 H 353.787 -0.688419 -1.29997 0
M  V30 3549 H 355.745 0.615125 -4.1264 0
M  V30 3550 H 354.375 1.02455 -3.06109 0
M  V30 3551 H 353.427 -1.34368 -3.55878 0
M  V30 3552 H 354.739 -1.55494 -4.73944 0
M  V30 3553 H 353.893 0.400015 -6.0538 0
M  V30 3554 H 352.632 0.704597 -4.82583 0
M  V30 3555 H 351.637 -1.55645 -5.27309 0
M  V30 3556 H 352.862 -1.85074 -6.53395 0
M  V30 3557 H 350.808 0.393238 -6.5482 0
M  V30 3558 H 350.725 -1.06258 -7.48495 0
M  V30 3559 H 351.993 0.0855932 -7.79453 0
M  V30 3560 N 356.222 1.38976 -0.743202 0
M  V30 3561 C 357.155 2.28128 -0.0572165 0
M  V30 3562 C 358.133 1.44827 0.739182 0
M  V30 3563 O 359.317 1.74207 0.720009 0
M  V30 3564 C 356.444 3.25796 0.926001 0
M  V30 3565 C 355.49 4.25947 0.217099 0
M  V30 3566 S 356.323 5.24604 -1.07477 0
M  V30 3567 C 357.479 6.25829 -0.0943545 0
M  V30 3568 H 357.712 2.85961 -0.813246 0
M  V30 3569 H 355.245 1.44822 -0.535341 0
M  V30 3570 H 357.203 3.82583 1.48797 0
M  V30 3571 H 355.864 2.66966 1.65493 0
M  V30 3572 H 355.057 4.94746 0.961372 0
M  V30 3573 H 354.659 3.73002 -0.273059 0
M  V30 3574 H 356.951 6.73411 0.743239 0
M  V30 3575 H 357.894 7.0412 -0.749713 0
M  V30 3576 H 358.302 5.63797 0.281706 0
M  V30 3577 N 357.7 0.491464 1.49741 0
M  V30 3578 C 358.663 -0.280906 2.27472 0
M  V30 3579 C 359.663 -0.902454 1.33088 0
M  V30 3580 O 360.853 -0.768465 1.56334 0
M  V30 3581 C 357.985 -1.40209 3.10732 0
M  V30 3582 H 359.178 0.401056 2.97206 0
M  V30 3583 H 356.731 0.246131 1.5435 0
M  V30 3584 H 357.466 -2.11849 2.45541 0
M  V30 3585 H 357.251 -0.961969 3.80117 0
M  V30 3586 H 358.741 -1.9464 3.69466 0
M  V30 3587 N 359.178 -1.55987 0.224894 0
M  V30 3588 C 360.427 -1.97566 -0.406273 0
M  V30 3589 C 360.74 -1.11569 -1.6066 0
M  V30 3590 O 361.946 -1.43062 -2.3075 0
M  V30 3591 C 360.402 -3.51474 -0.774207 0
M  V30 3592 C 360.01 -4.46179 0.403496 0
M  V30 3593 C 361.754 -4.01758 -1.37079 0
M  V30 3594 C 359.661 -5.91399 0.0129412 0
M  V30 3595 H 358.591 -0.737777 -0.155565 0
M  V30 3596 H 361.242 -1.80659 0.321635 0
M  V30 3597 H 359.624 -3.63994 -1.55963 0
M  V30 3598 H 360.798 -4.45409 1.18101 0
M  V30 3599 H 359.113 -4.06255 0.913536 0
M  V30 3600 H 361.71 -5.07756 -1.67596 0
M  V30 3601 H 362.053 -3.47805 -2.28773 0
M  V30 3602 H 362.586 -3.92475 -0.648733 0
M  V30 3603 H 359.325 -6.49341 0.896451 0
M  V30 3604 H 358.845 -5.95356 -0.728821 0
M  V30 3605 H 360.524 -6.45683 -0.412582 0
M  V30 3606 N 360.656 0.0484629 -1.57525 0
M  V30 3607 C 361.603 1.05504 -2.05275 0
M  V30 3608 C 362.573 1.37084 -0.937927 0
M  V30 3609 O 363.758 1.47754 -1.2072 0
M  V30 3610 C 360.898 2.35676 -2.52093 0
M  V30 3611 C 360.011 2.10423 -3.77288 0
M  V30 3612 C 359.146 3.34327 -4.12794 0
M  V30 3613 C 358.185 3.04542 -5.30962 0
M  V30 3614 N 357.322 4.20841 -5.61994 0
M  V30 3615 H 362.162 0.640885 -2.91027 0
M  V30 3616 H 359.699 0.304854 -1.43906 0
M  V30 3617 H 361.657 3.11709 -2.77297 0
M  V30 3618 H 360.287 2.7485 -1.69285 0
M  V30 3619 H 359.339 1.24976 -3.59284 0
M  V30 3620 H 360.651 1.84438 -4.63448 0
M  V30 3621 H 359.805 4.1874 -4.39024 0
M  V30 3622 H 358.544 3.63408 -3.25247 0
M  V30 3623 H 357.549 2.18528 -5.04505 0
M  V30 3624 H 358.774 2.76758 -6.20146 0
M  V30 3625 H 356.72 4.4991 -4.77406 0
M  V30 3626 H 356.637 3.98212 -6.42622 0
M  V30 3627 H 357.905 5.06184 -5.92789 0
M  V30 3628 N 362.134 1.5431 0.320358 0
M  V30 3629 C 363.097 1.83195 1.3774 0
M  V30 3630 C 364.097 0.703906 1.44575 0
M  V30 3631 O 365.287 0.972214 1.44546 0
M  V30 3632 C 362.419 1.99487 2.76438 0
M  V30 3633 H 363.612 2.77642 1.1338 0
M  V30 3634 H 361.165 1.46076 0.556012 0
M  V30 3635 H 361.9 1.07262 3.06048 0
M  V30 3636 H 361.685 2.81575 2.7287 0
M  V30 3637 H 363.175 2.23271 3.52902 0
M  V30 3638 N 363.613 -0.582584 1.46437 0
M  V30 3639 C 364.859 -1.34278 1.51978 0
M  V30 3640 C 365.192 -1.93446 0.170973 0
M  V30 3641 O 364.467 -1.76481 -0.817608 0
M  V30 3642 C 364.75 -2.47203 2.61845 0
M  V30 3643 C 364.603 -1.93069 4.06257 0
M  V30 3644 C 365.922 -3.49247 2.67795 0
M  V30 3645 H 363.041 -0.486876 0.553282 0
M  V30 3646 H 365.683 -0.654437 1.78374 0
M  V30 3647 H 363.833 -3.0592 2.39469 0
M  V30 3648 H 365.505 -1.38808 4.3992 0
M  V30 3649 H 363.748 -1.23898 4.1573 0
M  V30 3650 H 364.419 -2.74586 4.7886 0
M  V30 3651 H 366.895 -3.00411 2.8791 0
M  V30 3652 H 365.771 -4.25719 3.46489 0
M  V30 3653 H 366.032 -4.06482 1.73852 0
M  V30 3654 N 365.091 -1.34144 -0.827227 0
M  V30 3655 C 366.507 -1.13732 -1.11969 0
M  V30 3656 C 366.707 0.0640463 -2.01398 0
M  V30 3657 O 365.763 0.740856 -2.41387 0
M  V30 3658 C 367.076 -2.43047 -1.77055 0
M  V30 3659 C 368.624 -2.49063 -1.89569 0
M  V30 3660 C 369.099 -3.78369 -2.58072 0
M  V30 3661 N 370.59 -3.79505 -2.65575 0
M  V30 3662 C 371.325 -4.76274 -3.19297 0
M  V30 3663 N 370.821 -5.83424 -3.73616 0
M  V30 3664 N 372.614 -4.63735 -3.17658 0
M  V30 3665 H 364.765 -2.11126 -0.232296 0
M  V30 3666 H 367.028 -0.933424 -0.165602 0
M  V30 3667 H 366.734 -3.31025 -1.18807 0
M  V30 3668 H 366.608 -2.56066 -2.76966 0
M  V30 3669 H 368.995 -1.61527 -2.46968 0
M  V30 3670 H 369.076 -2.39975 -0.885745 0
M  V30 3671 H 368.72 -4.66293 -2.01329 0
M  V30 3672 H 368.65 -3.84737 -3.59562 0
M  V30 3673 H 371.141 -3.02074 -2.27068 0
M  V30 3674 H 371.454 -6.53282 -4.12846 0
M  V30 3675 H 369.799 -5.87143 -3.71871 0
M  V30 3676 H 372.99 -3.79177 -2.74486 0
M  V30 3677 H 373.163 -5.39318 -3.59221 0
M  V30 3678 N 366.569 1.04691 -1.17803 0
M  V30 3679 C 367.532 2.10724 -0.901545 0
M  V30 3680 C 368.532 1.6042 0.110437 0
M  V30 3681 O 369.722 1.7377 -0.122303 0
M  V30 3682 C 366.854 3.39084 -0.351409 0
M  V30 3683 H 368.047 2.36686 -1.84174 0
M  V30 3684 H 365.6 1.21015 -0.98919 0
M  V30 3685 H 366.335 3.18782 0.59569 0
M  V30 3686 H 366.12 3.76909 -1.08083 0
M  V30 3687 H 367.61 4.17227 -0.176451 0
M  V30 3688 N 368.047 0.979072 1.23499 0
M  V30 3689 C 369.272 0.664845 1.96455 0
M  V30 3690 C 369.697 -0.761287 1.72006 0
M  V30 3691 O 369.055 -1.51837 0.990713 0
M  V30 3692 C 369.103 0.959479 3.47601 0
M  V30 3693 O 368.207 0.0508168 4.12369 0
M  V30 3694 H 367.548 0.250185 0.615064 0
M  V30 3695 H 370.078 1.31231 1.5697 0
M  V30 3696 H 370.088 0.895642 3.98048 0
M  V30 3697 H 368.763 1.99876 3.64723 0
M  V30 3698 H 367.34 0.16895 3.72517 0
M  V30 3699 N 369.525 -1.3858 0.750561 0
M  V30 3700 C 370.773 -1.99789 0.30477 0
M  V30 3701 C 371.094 -1.59874 -1.11649 0
M  V30 3702 O 370.364 -0.85417 -1.76297 0
M  V30 3703 H 368.944 -0.738902 0.109694 0
M  V30 3704 H 371.606 -1.69391 0.963983 0
M  V30 3705 H 370.702 -3.09952 0.365499 0
M  V30 3706 N 371.003 -0.499398 -1.49478 0
M  V30 3707 C 372.419 -0.155261 -1.58843 0
M  V30 3708 C 372.619 1.34008 -1.50479 0
M  V30 3709 O 371.675 2.11589 -1.37791 0
M  V30 3710 C 372.988 -0.730636 -2.91689 0
M  V30 3711 C 374.536 -0.696599 -3.0515 0
M  V30 3712 C 375.011 -1.25001 -4.40612 0
M  V30 3713 N 376.502 -1.21064 -4.47099 0
M  V30 3714 C 377.237 -1.60905 -5.50361 0
M  V30 3715 N 376.733 -2.08331 -6.60735 0
M  V30 3716 N 378.526 -1.52331 -5.41065 0
M  V30 3717 H 370.677 -1.47162 -1.53158 0
M  V30 3718 H 372.94 -0.610309 -0.725415 0
M  V30 3719 H 372.646 -1.77928 -3.03372 0
M  V30 3720 H 372.52 -0.190161 -3.7672 0
M  V30 3721 H 374.907 0.343204 -2.93097 0
M  V30 3722 H 374.988 -1.2742 -2.21806 0
M  V30 3723 H 374.632 -2.28859 -4.53416 0
M  V30 3724 H 374.562 -0.64836 -5.22593 0
M  V30 3725 H 377.053 -0.863128 -3.67911 0
M  V30 3726 H 377.366 -2.36805 -7.35624 0
M  V30 3727 H 375.711 -2.12304 -6.6178 0
M  V30 3728 H 378.902 -1.151 -4.53729 0
M  V30 3729 H 379.075 -1.83704 -6.21415 0
M  V30 3730 N 372.481 1.55866 -0.233164 0
M  V30 3731 C 373.897 1.59133 0.121988 0
M  V30 3732 C 374.097 1.25016 1.58029 0
M  V30 3733 O 373.153 0.990922 2.32243 0
M  V30 3734 C 374.466 2.99932 -0.214792 0
M  V30 3735 C 376.014 3.12601 -0.157971 0
M  V30 3736 C 376.489 4.55597 -0.46859 0
M  V30 3737 N 377.98 4.61305 -0.418585 0
M  V30 3738 C 378.715 5.69903 -0.63227 0
M  V30 3739 N 378.211 6.86819 -0.90835 0
M  V30 3740 N 380.004 5.59264 -0.563913 0
M  V30 3741 H 372.155 1.76315 -1.18434 0
M  V30 3742 H 374.418 0.820093 -0.475553 0
M  V30 3743 H 374.124 3.29588 -1.22739 0
M  V30 3744 H 373.998 3.74327 0.464691 0
M  V30 3745 H 376.385 2.82735 0.845283 0
M  V30 3746 H 376.466 2.40511 -0.871102 0
M  V30 3747 H 376.11 4.86182 -1.46934 0
M  V30 3748 H 376.04 5.25928 0.265865 0
M  V30 3749 H 378.531 3.77297 -0.213368 0
M  V30 3750 H 378.844 7.65507 -1.05919 0
M  V30 3751 H 377.189 6.88536 -0.945673 0
M  V30 3752 H 380.38 4.66802 -0.348372 0
M  V30 3753 H 380.553 6.43831 -0.733847 0
M  V30 3754 N 373.959 -0.0401083 1.57549 0
M  V30 3755 C 375.208 -0.732108 1.87944 0
M  V30 3756 C 375.521 -1.77107 0.830206 0
M  V30 3757 O 376.727 -2.51488 1.02302 0
M  V30 3758 C 375.183 -1.35315 3.33494 0
M  V30 3759 C 374.791 -0.351105 4.46622 0
M  V30 3760 C 376.535 -2.02566 3.73051 0
M  V30 3761 C 374.442 -0.979859 5.83226 0
M  V30 3762 H 373.372 -0.277188 0.701201 0
M  V30 3763 H 376.023 0.0138501 1.83495 0
M  V30 3764 H 374.405 -2.14844 3.32653 0
M  V30 3765 H 375.579 0.416674 4.58912 0
M  V30 3766 H 373.894 0.218708 4.15825 0
M  V30 3767 H 376.491 -2.50441 4.72423 0
M  V30 3768 H 376.834 -2.83904 3.04474 0
M  V30 3769 H 377.367 -1.29827 3.76018 0
M  V30 3770 H 374.106 -0.206135 6.55176 0
M  V30 3771 H 373.626 -1.71774 5.74677 0
M  V30 3772 H 375.305 -1.49046 6.29599 0
M  V30 3773 N 375.437 -1.54477 -0.31217 0
M  V30 3774 C 376.683 -1.73483 -1.0503 0
M  V30 3775 C 377.016 -0.513125 -1.87298 0
M  V30 3776 O 376.291 0.489864 -1.8823 0
M  V30 3777 C 376.574 -3.01723 -1.96558 0
M  V30 3778 C 376.427 -4.3417 -1.17545 0
M  V30 3779 C 377.746 -3.25772 -2.95907 0
M  V30 3780 H 374.865 -0.631222 -0.380432 0
M  V30 3781 H 377.507 -1.87184 -0.325932 0
M  V30 3782 H 375.657 -2.90174 -2.58324 0
M  V30 3783 H 377.329 -4.5762 -0.581513 0
M  V30 3784 H 375.572 -4.31159 -0.477925 0
M  V30 3785 H 376.243 -5.20143 -1.84811 0
M  V30 3786 H 378.719 -3.36857 -2.44267 0
M  V30 3787 H 377.595 -4.16838 -3.57123 0
M  V30 3788 H 377.856 -2.43537 -3.68974 0
M  V30 3789 N 376.915 0.57481 -1.46744 0
M  V30 3790 C 377.845 1.69337 -1.60771 0
M  V30 3791 C 378.826 1.63825 -0.457736 0
M  V30 3792 O 380.011 1.8172 -0.684947 0
M  V30 3793 C 377.141 3.0798 -1.60517 0
M  V30 3794 C 376.095 3.28327 -2.74564 0
M  V30 3795 C 375.421 4.67578 -2.59373 0
M  V30 3796 C 376.721 3.15398 -4.16319 0
M  V30 3797 H 378.415 1.57853 -2.54407 0
M  V30 3798 H 375.961 0.75799 -1.22436 0
M  V30 3799 H 377.914 3.86061 -1.68923 0
M  V30 3800 H 376.638 3.20381 -0.634305 0
M  V30 3801 H 375.297 2.52649 -2.65639 0
M  V30 3802 H 374.945 4.76755 -1.60353 0
M  V30 3803 H 374.645 4.82144 -3.35873 0
M  V30 3804 H 376.169 5.47817 -2.69682 0
M  V30 3805 H 377.583 3.83315 -4.26313 0
M  V30 3806 H 375.98 3.41482 -4.93468 0
M  V30 3807 H 377.05 2.12372 -4.3592 0
M  V30 3808 N 378.394 1.34581 0.820102 0
M  V30 3809 C 379.619 1.30333 1.61332 0
M  V30 3810 C 380.044 -0.119339 1.87721 0
M  V30 3811 O 379.402 -1.08197 1.45475 0
M  V30 3812 C 379.45 2.10258 2.92957 0
M  V30 3813 O 378.554 1.47404 3.85157 0
M  V30 3814 H 377.895 0.447488 0.490561 0
M  V30 3815 H 380.425 1.77425 1.01889 0
M  V30 3816 H 380.435 2.21718 3.42498 0
M  V30 3817 H 379.11 3.13693 2.73074 0
M  V30 3818 H 377.687 1.44703 3.43679 0
M  V30 3819 N 379.872 -1.04064 1.18357 0
M  V30 3820 C 381.288 -1.2947 0.933258 0
M  V30 3821 C 381.488 -1.97466 -0.401169 0
M  V30 3822 O 380.544 -2.25528 -1.13549 0
M  V30 3823 C 381.857 -2.15337 2.09882 0
M  V30 3824 C 383.405 -2.28683 2.13712 0
M  V30 3825 C 383.88 -3.17917 3.29686 0
M  V30 3826 N 385.371 -3.25504 3.29547 0
M  V30 3827 C 386.106 -3.94706 4.15926 0
M  V30 3828 N 385.602 -4.66239 5.12439 0
M  V30 3829 N 387.395 -3.90986 4.0384 0
M  V30 3830 H 379.546 -0.583359 2.04232 0
M  V30 3831 H 381.809 -0.319921 0.892387 0
M  V30 3832 H 381.515 -1.72682 3.06389 0
M  V30 3833 H 381.389 -3.16015 2.05947 0
M  V30 3834 H 383.776 -2.70575 1.17784 0
M  V30 3835 H 383.857 -1.27596 2.21705 0
M  V30 3836 H 383.501 -2.76736 4.25887 0
M  V30 3837 H 383.431 -4.19036 3.1893 0
M  V30 3838 H 385.922 -2.74547 2.59677 0
M  V30 3839 H 386.235 -5.16638 5.74722 0
M  V30 3840 H 384.58 -4.65143 5.16398 0
M  V30 3841 H 387.771 -3.34234 3.27727 0
M  V30 3842 H 387.944 -4.44646 4.71375 0
M  V30 3843 N 381.35 -0.985608 -1.22978 0
M  V30 3844 C 382.598 -0.656087 -1.91154 0
M  V30 3845 C 382.919 0.813561 -1.77218 0
M  V30 3846 O 382.189 1.58244 -1.1548 0
M  V30 3847 H 380.769 -0.239674 -0.707506 0
M  V30 3848 H 383.431 -1.25054 -1.49491 0
M  V30 3849 H 382.527 -0.912253 -2.9847 0
M  V30 3850 N 382.828 1.3818 -0.7579 0
M  V30 3851 C 384.074 2.0078 -0.325423 0
M  V30 3852 C 384.429 1.59085 1.08211 0
M  V30 3853 O 383.722 0.820394 1.73148 0
M  V30 3854 C 383.916 3.55252 -0.391218 0
M  V30 3855 C 383.745 4.11947 -1.8036 0
M  V30 3856 C 382.515 4.43519 -2.42113 0
M  V30 3857 C 384.713 4.33908 -2.76095 0
M  V30 3858 N 382.695 4.85847 -3.75267 0
M  V30 3859 C 384.066 4.78692 -3.94023 0
M  V30 3860 C 386.121 4.16015 -2.73561 0
M  V30 3861 C 384.824 5.07459 -5.09782 0
M  V30 3862 C 386.85 4.45909 -3.88483 0
M  V30 3863 C 386.212 4.90921 -5.0515 0
M  V30 3864 H 382.311 0.764215 -0.165831 0
M  V30 3865 H 384.895 1.67724 -0.988776 0
M  V30 3866 H 383.066 3.87646 0.241886 0
M  V30 3867 H 384.798 4.04653 0.061989 0
M  V30 3868 H 381.553 4.32113 -1.93842 0
M  V30 3869 H 381.977 5.11339 -4.4369 0
M  V30 3870 H 386.619 3.80399 -1.84544 0
M  V30 3871 H 384.337 5.4197 -5.99412 0
M  V30 3872 H 387.923 4.33666 -3.87847 0
M  V30 3873 H 386.803 5.1361 -5.92599 0
M  V30 3874 N 384.306 0.507319 1.49211 0
M  V30 3875 C 385.269 -0.256763 2.27757 0
M  V30 3876 C 386.269 -0.888287 1.34038 0
M  V30 3877 O 387.459 -0.751841 1.5714 0
M  V30 3878 C 384.591 -1.36905 3.12202 0
M  V30 3879 H 385.784 0.432557 2.96764 0
M  V30 3880 H 383.337 0.262488 1.5408 0
M  V30 3881 H 384.072 -2.09233 2.47775 0
M  V30 3882 H 383.857 -0.921599 3.81115 0
M  V30 3883 H 385.347 -1.9071 3.7151 0
M  V30 3884 N 385.784 -1.5574 0.241426 0
M  V30 3885 C 387.061 -1.90704 -0.434881 0
M  V30 3886 C 387.441 -1.16145 -1.76277 0
M  V30 3887 O 386.789 -0.277152 -2.26813 0
M  V30 3888 C 386.999 -3.43657 -0.608343 0
M  V30 3889 C 388.347 -4.14806 -0.906725 0
M  V30 3890 O 389.371 -3.49366 -0.694408 0
M  V30 3891 O 388.23 -5.30548 -1.31075 0
M  V30 3892 H 385.324 -0.793592 -0.23268 0
M  V30 3893 H 387.87 -1.67288 0.285086 0
M  V30 3894 H 386.642 -3.89927 0.327505 0
M  V30 3895 H 386.265 -3.72918 -1.37906 0
M  V30 3896 N 387.262 0.0317525 -1.57568 0
M  V30 3897 C 388.192 1.03274 -2.0942 0
M  V30 3898 C 389.173 1.3788 -0.996143 0
M  V30 3899 O 390.358 1.46811 -1.27122 0
M  V30 3900 C 387.488 2.33448 -2.57137 0
M  V30 3901 C 386.442 2.13091 -3.71182 0
M  V30 3902 C 385.768 3.49001 -4.05095 0
M  V30 3903 C 387.068 1.51928 -4.99715 0
M  V30 3904 H 388.762 0.60112 -2.93303 0
M  V30 3905 H 386.308 0.287705 -1.41097 0
M  V30 3906 H 388.261 3.03802 -2.92032 0
M  V30 3907 H 386.985 2.78665 -1.70333 0
M  V30 3908 H 385.644 1.45171 -3.36632 0
M  V30 3909 H 385.292 3.91862 -3.15362 0
M  V30 3910 H 384.992 3.36207 -4.81911 0
M  V30 3911 H 386.516 4.20721 -4.42522 0
M  V30 3912 H 387.93 2.12196 -5.32584 0
M  V30 3913 H 386.327 1.49716 -5.81124 0
M  V30 3914 H 387.397 0.484811 -4.8247 0
M  V30 3915 N 388.74 1.54641 0.303973 0
M  V30 3916 C 389.986 1.74038 1.04109 0
M  V30 3917 C 390.319 0.523051 1.87024 0
M  V30 3918 O 389.594 -0.479874 1.88487 0
M  V30 3919 C 389.877 3.02761 1.94955 0
M  V30 3920 C 389.73 4.34787 1.1524 0
M  V30 3921 C 391.049 3.27336 2.94175 0
M  V30 3922 H 388.168 0.63323 0.377079 0
M  V30 3923 H 390.81 1.87354 0.316001 0
M  V30 3924 H 388.96 2.9154 2.56782 0
M  V30 3925 H 390.632 4.57922 0.557236 0
M  V30 3926 H 388.875 4.31407 0.455053 0
M  V30 3927 H 389.546 5.21116 1.8205 0
M  V30 3928 H 392.022 3.38148 2.42477 0
M  V30 3929 H 390.898 4.18726 3.54908 0
M  V30 3930 H 391.159 2.45491 3.67677 0
M  V30 3931 N 390.218 -0.567019 1.47046 0
M  V30 3932 C 391.148 -1.68482 1.61667 0
M  V30 3933 C 392.129 -1.6358 0.466418 0
M  V30 3934 O 393.314 -1.81354 0.694574 0
M  V30 3935 C 390.444 -3.07124 1.62148 0
M  V30 3936 C 389.398 -3.26867 2.76301 0
M  V30 3937 C 388.724 -4.66196 2.61849 0
M  V30 3938 C 390.024 -3.13186 4.17986 0
M  V30 3939 H 391.718 -1.56502 2.5524 0
M  V30 3940 H 389.264 -0.751486 1.22836 0
M  V30 3941 H 391.217 -3.8516 1.70968 0
M  V30 3942 H 389.941 -3.2004 0.651287 0
M  V30 3943 H 388.6 -2.51237 2.66975 0
M  V30 3944 H 388.248 -4.75898 1.62879 0
M  V30 3945 H 387.948 -4.80356 3.38425 0
M  V30 3946 H 389.472 -5.46379 2.72584 0
M  V30 3947 H 390.886 -3.81049 4.2834 0
M  V30 3948 H 389.283 -3.3886 4.95272 0
M  V30 3949 H 390.353 -2.10057 4.3704 0
M  V30 3950 N 391.696 -1.35014 -0.812953 0
M  V30 3951 C 393.107 -1.25035 -1.38648 0
M  V30 3952 C 393.458 0.119967 -1.95833 0
M  V30 3953 O 392.583 1.02069 -1.90816 0
M  V30 3954 C 393.178 -2.26394 -2.52054 0
M  V30 3955 C 391.737 -2.20175 -3.05287 0
M  V30 3956 C 390.884 -2.12451 -1.78213 0
M  V30 3957 H 393.835 -1.46235 -0.616516 0
M  V30 3958 H 393.856 -1.88672 -3.30429 0
M  V30 3959 H 393.368 -3.26116 -2.10404 0
M  V30 3960 H 391.469 -1.23841 -3.51417 0
M  V30 3961 H 391.582 -3.11863 -3.63701 0
M  V30 3962 H 389.946 -1.58328 -1.9951 0
M  V30 3963 H 390.729 -3.14024 -1.38723 0
M  V30 3964 N 393.175 1.03435 -1.18907 0
M  V30 3965 C 394.452 1.73778 -0.89781 0
M  V30 3966 C 394.832 2.02458 0.597832 0
M  V30 3967 O 394.18 1.67482 1.55441 0
M  V30 3968 C 394.39 3.01845 -1.75187 0
M  V30 3969 C 395.738 3.7546 -1.9828 0
M  V30 3970 O 396.762 3.11759 -1.72293 0
M  V30 3971 O 395.621 4.89966 -2.42065 0
M  V30 3972 H 392.715 0.75651 -0.334098 0
M  V30 3973 H 395.261 1.09444 -1.29693 0
M  V30 3974 H 394.033 2.76836 -2.76545 0
M  V30 3975 H 393.656 3.73919 -1.35167 0
M  V30 3976 N 394.653 0.992116 1.22453 0
M  V30 3977 C 395.93 0.583508 1.86694 0
M  V30 3978 C 396.31 -0.9392 1.89056 0
M  V30 3979 O 395.658 -1.82081 1.38053 0
M  V30 3980 C 395.868 1.20304 3.2761 0
M  V30 3981 C 397.216 1.30308 4.0411 0
M  V30 3982 O 398.24 1.15737 3.36873 0
M  V30 3983 O 397.099 1.53615 5.24466 0
M  V30 3984 H 394.193 0.198129 0.802916 0
M  V30 3985 H 396.739 1.08794 1.30238 0
M  V30 3986 H 395.511 2.24461 3.2052 0
M  V30 3987 H 395.134 0.684144 3.9167 0
M  V30 3988 N 396.131 -1.37776 0.765217 0
M  V30 3989 C 397.379 -1.99454 0.325943 0
M  V30 3990 C 397.7 -1.61049 -1.09947 0
M  V30 3991 O 396.97 -0.872821 -1.75381 0
M  V30 3992 H 395.55 -0.737697 0.117525 0
M  V30 3993 H 398.212 -1.68359 0.981895 0
M  V30 3994 H 397.308 -3.09547 0.398353 0
M  V30 3995 N 397.609 -0.515225 -1.4894 0
M  V30 3996 C 398.572 0.244681 -2.2789 0
M  V30 3997 C 399.572 0.881166 -1.34507 0
M  V30 3998 O 400.762 0.743497 -1.57537 0
M  V30 3999 C 397.894 1.35247 -3.12923 0
M  V30 4000 H 399.087 -0.448289 -2.96531 0
M  V30 4001 H 396.64 -0.270656 -1.53939 0
M  V30 4002 H 397.375 2.07916 -2.48881 0
M  V30 4003 H 397.16 0.901374 -3.81599 0
M  V30 4004 H 398.65 1.88737 -3.72516 0
M  V30 4005 N 399.087 1.5561 -0.249682 0
M  V30 4006 C 400.364 1.90932 0.424761 0
M  V30 4007 C 400.744 1.17078 1.75658 0
M  V30 4008 O 400.092 0.289176 2.26663 0
M  V30 4009 C 400.302 3.43975 0.590109 0
M  V30 4010 C 401.65 4.15281 0.884714 0
M  V30 4011 O 402.674 3.49729 0.67587 0
M  V30 4012 O 401.533 5.31236 1.28259 0
M  V30 4013 H 398.627 0.794815 0.228468 0
M  V30 4014 H 401.173 1.67135 -0.293954 0
M  V30 4015 H 399.945 3.89748 -0.34818 0
M  V30 4016 H 399.568 3.73644 1.35926 0
M  V30 4017 N 400.565 -0.0233959 1.57583 0
M  V30 4018 C 401.805 -0.71784 1.9138 0
M  V30 4019 C 402.169 -1.72216 0.848853 0
M  V30 4020 O 403.37 -2.46527 1.07134 0
M  V30 4021 C 401.641 -1.36489 3.30311 0
M  V30 4022 S 403.2 -2.0877 3.85954 0
M  V30 4023 H 400.018 -0.237676 0.670098 0
M  V30 4024 H 402.62 0.0276709 1.9548 0
M  V30 4025 H 401.324 -0.620782 4.05678 0
M  V30 4026 H 400.855 -2.14883 3.29528 0
M  V30 4027 H 402.87 -3.35988 3.65139 0
M  V30 4028 N 402.043 -1.548 -0.295768 0
M  V30 4029 C 403.29 -1.74329 -1.03032 0
M  V30 4030 C 403.618 -0.531915 -1.87085 0
M  V30 4031 O 402.873 0.486052 -1.89568 0
M  V30 4032 C 403.172 -2.98797 -1.961 0
M  V30 4033 C 402.838 -4.32356 -1.2798 0
M  V30 4034 C 401.5 -4.68661 -1.09135 0
M  V30 4035 C 403.852 -5.15128 -0.793243 0
M  V30 4036 C 401.18 -5.85312 -0.403269 0
M  V30 4037 C 403.532 -6.32488 -0.118854 0
M  V30 4038 C 402.196 -6.6745 0.0815043 0
M  V30 4039 H 401.466 -0.637916 -0.37702 0
M  V30 4040 H 404.113 -1.8906 -0.304696 0
M  V30 4041 H 402.418 -2.78869 -2.75207 0
M  V30 4042 H 404.115 -3.11102 -2.53015 0
M  V30 4043 H 400.705 -4.03808 -1.43655 0
M  V30 4044 H 404.889 -4.87575 -0.92653 0
M  V30 4045 H 400.145 -6.1094 -0.237098 0
M  V30 4046 H 404.319 -6.95892 0.266035 0
M  V30 4047 H 401.946 -7.57695 0.616685 0
M  V30 4048 N 403.521 0.559213 -1.47345 0
M  V30 4049 C 404.767 1.31843 -1.54095 0
M  V30 4050 C 405.1 1.93149 -0.201726 0
M  V30 4051 O 404.375 1.77759 0.789428 0
M  V30 4052 C 404.658 2.43006 -2.65744 0
M  V30 4053 C 404.511 1.86581 -4.09277 0
M  V30 4054 C 405.83 3.44943 -2.73318 0
M  V30 4055 H 402.949 0.478012 -0.560957 0
M  V30 4056 H 405.591 0.625977 -1.79392 0
M  V30 4057 H 403.741 3.02072 -2.44305 0
M  V30 4058 H 405.413 1.31792 -4.42073 0
M  V30 4059 H 403.656 1.17268 -4.17649 0
M  V30 4060 H 404.327 2.66933 -4.83168 0
M  V30 4061 H 406.803 2.95793 -2.92653 0
M  V30 4062 H 405.679 4.20153 -3.53218 0
M  V30 4063 H 405.94 4.03665 -1.80296 0
M  V30 4064 N 404.999 1.35443 0.805782 0
M  V30 4065 C 406.245 1.28952 1.56522 0
M  V30 4066 C 406.578 -0.135597 1.93726 0
M  V30 4067 O 405.853 -1.08516 1.61414 0
M  V30 4068 C 406.136 2.19678 2.85331 0
M  V30 4069 C 405.989 3.7081 2.54598 0
M  V30 4070 C 407.308 2.09495 3.8704 0
M  V30 4071 H 404.427 0.469764 0.567883 0
M  V30 4072 H 407.069 1.65851 0.927001 0
M  V30 4073 H 405.219 1.8834 3.39795 0
M  V30 4074 H 406.891 4.12593 2.06312 0
M  V30 4075 H 405.134 3.91051 1.8778 0
M  V30 4076 H 405.805 4.29679 3.46525 0
M  V30 4077 H 408.281 2.37045 3.41978 0
M  V30 4078 H 407.157 2.75173 4.74943 0
M  V30 4079 H 407.418 1.07714 4.28777 0
M  V30 4080 N 406.477 -1.02803 1.19454 0
M  V30 4081 C 407.725 -1.75869 0.995722 0
M  V30 4082 C 408.046 -1.89138 -0.474543 0
M  V30 4083 O 407.316 -1.42558 -1.34366 0
M  V30 4084 H 405.896 -0.651511 0.365435 0
M  V30 4085 H 408.558 -1.24004 1.50363 0
M  V30 4086 H 407.654 -2.76661 1.44447 0
M  V30 4087 N 407.956 -0.998596 -1.21925 0
M  V30 4088 C 408.866 -0.562736 -2.27751 0
M  V30 4089 C 409.882 0.391203 -1.69545 0
M  V30 4090 O 411.058 0.256625 -1.99758 0
M  V30 4091 C 408.123 0.11012 -3.46525 0
M  V30 4092 C 407.184 -0.887495 -4.20026 0
M  V30 4093 C 406.417 -0.246654 -5.3313 0
M  V30 4094 O 406.64 0.958088 -5.62296 0
M  V30 4095 O 405.574 -0.954374 -5.94286 0
M  V30 4096 H 409.4 -1.44329 -2.67213 0
M  V30 4097 H 406.985 -0.767135 -1.28201 0
M  V30 4098 H 408.867 0.486756 -4.18579 0
M  V30 4099 H 407.542 0.965154 -3.08976 0
M  V30 4100 H 406.449 -1.31517 -3.5022 0
M  V30 4101 H 407.782 -1.71191 -4.6147 0
M  V30 4102 N 409.434 1.37368 -0.772513 0
M  V30 4103 C 410.68 1.99969 -0.337681 0
M  V30 4104 C 411.013 1.61184 1.08321 0
M  V30 4105 O 410.288 0.858395 1.74533 0
M  V30 4106 C 410.571 3.56858 -0.482121 0
M  V30 4107 C 410.424 4.0555 -1.94549 0
M  V30 4108 C 411.743 4.39955 0.113143 0
M  V30 4109 H 408.862 0.726464 -0.124171 0
M  V30 4110 H 411.504 1.63034 -0.975699 0
M  V30 4111 H 409.654 3.88452 0.0610361 0
M  V30 4112 H 411.326 3.84518 -2.54841 0
M  V30 4113 H 409.569 3.57715 -2.45403 0
M  V30 4114 H 410.24 5.14587 -1.9976 0
M  V30 4115 H 412.716 4.14623 -0.35031 0
M  V30 4116 H 411.592 5.48897 -0.0180514 0
M  V30 4117 H 411.853 4.25403 1.20354 0
M  V30 4118 N 410.912 0.523116 1.48665 0
M  V30 4119 C 411.86 -0.256859 2.31177 0
M  V30 4120 C 412.854 -0.94199 1.40794 0
M  V30 4121 O 414.06 -0.867157 1.57735 0
M  V30 4122 H 410.435 -0.1017 0.745091 0
M  V30 4123 H 412.406 0.458739 2.94853 0
M  V30 4124 C 411.155 -1.29503 3.22683 0
M  V30 4125 H 410.478 -0.777248 3.92172 0
M  V30 4126 H 411.918 -1.81233 3.83315 0
M  V30 4127 C 410.377 -2.32501 2.43813 0
M  V30 4128 O 410.907 -3.3881 2.15803 0
M  V30 4129 N 409.113 -2.05538 2.05432 0
M  V30 4130 H 408.66 -1.19104 2.28412 0
M  V30 4131 H 408.618 -2.74676 1.52973 0
M  V30 4132 N 412.39 -1.55475 0.257931 0
M  V30 4133 C 413.32 -2.24815 -0.630912 0
M  V30 4134 C 414.301 -1.23224 -1.17259 0
M  V30 4135 O 415.486 -1.51904 -1.20991 0
M  V30 4136 C 412.616 -2.95609 -1.82298 0
M  V30 4137 C 411.57 -4.03982 -1.41359 0
M  V30 4138 C 410.896 -4.6226 -2.68738 0
M  V30 4139 C 412.196 -5.19109 -0.57648 0
M  V30 4140 H 413.89 -2.99354 -0.0526878 0
M  V30 4141 H 411.436 -1.4398 -0.023901 0
M  V30 4142 H 413.389 -3.42822 -2.45054 0
M  V30 4143 H 412.113 -2.18577 -2.42676 0
M  V30 4144 H 410.772 -3.57555 -0.809324 0
M  V30 4145 H 410.42 -3.81915 -3.27338 0
M  V30 4146 H 410.12 -5.35424 -2.42065 0
M  V30 4147 H 411.644 -5.12212 -3.32372 0
M  V30 4148 H 413.058 -5.62479 -1.10861 0
M  V30 4149 H 411.455 -5.98729 -0.405351 0
M  V30 4150 H 412.525 -4.83174 0.408776 0
M  V30 4151 N 413.868 0.0150385 -1.57593 0
M  V30 4152 C 414.8 1.03912 -2.04291 0
M  V30 4153 C 415.813 1.31618 -0.958146 0
M  V30 4154 O 417.002 1.28859 -1.23522 0
M  V30 4155 C 414.102 2.37749 -2.41514 0
M  V30 4156 C 413.275 2.29198 -3.72541 0
M  V30 4157 C 412.334 3.45598 -3.96797 0
M  V30 4158 O 411.36 3.24461 -4.67668 0
M  V30 4159 N 412.562 4.67945 -3.43523 0
M  V30 4160 H 415.327 0.64099 -2.92765 0
M  V30 4161 H 412.888 0.20272 -1.60626 0
M  V30 4162 H 414.88 3.14364 -2.54867 0
M  V30 4163 H 413.45 2.69357 -1.58637 0
M  V30 4164 H 412.67 1.3759 -3.69408 0
M  V30 4165 H 413.958 2.20642 -4.5847 0
M  V30 4166 H 413.356 4.88017 -2.86104 0
M  V30 4167 H 411.913 5.41878 -3.62232 0
M  V30 4168 N 415.346 1.54954 0.287554 0
M  V30 4169 C 416.256 1.8991 1.37736 0
M  V30 4170 C 417.272 0.794701 1.54792 0
M  V30 4171 O 418.448 1.09243 1.69198 0
M  V30 4172 C 415.513 2.15108 2.71899 0
M  V30 4173 C 414.574 3.38752 2.63715 0
M  V30 4174 C 413.807 3.62739 3.91479 0
M  V30 4175 O 414.03 2.89492 4.91478 0
M  V30 4176 O 412.964 4.56267 3.92561 0
M  V30 4177 H 416.79 2.82652 1.11092 0
M  V30 4178 H 414.375 1.41315 0.484807 0
M  V30 4179 H 416.257 2.32806 3.51254 0
M  V30 4180 H 414.932 1.25551 2.9836 0
M  V30 4181 H 413.839 3.26405 1.82786 0
M  V30 4182 H 415.172 4.28483 2.42205 0
M  V30 4183 N 416.824 -0.551391 1.4764 0
M  V30 4184 C 417.754 -1.66757 1.63445 0
M  V30 4185 C 418.735 -1.63077 0.483742 0
M  V30 4186 O 419.92 -1.80607 0.71377 0
M  V30 4187 C 417.05 -3.05387 1.65396 0
M  V30 4188 C 416.004 -3.23918 2.79752 0
M  V30 4189 C 415.33 -4.63393 2.66779 0
M  V30 4190 C 416.63 -3.08735 4.21284 0
M  V30 4191 H 418.324 -1.53786 2.56886 0
M  V30 4192 H 415.87 -0.738415 1.23626 0
M  V30 4193 H 417.823 -3.83325 1.75043 0
M  V30 4194 H 416.547 -3.19332 0.685195 0
M  V30 4195 H 415.206 -2.48391 2.69625 0
M  V30 4196 H 414.854 -4.74144 1.67918 0
M  V30 4197 H 414.554 -4.7674 3.43501 0
M  V30 4198 H 416.078 -5.43458 2.78364 0
M  V30 4199 H 417.492 -3.76484 4.32357 0
M  V30 4200 H 415.889 -3.33588 4.98838 0
M  V30 4201 H 416.959 -2.0541 4.39243 0
M  V30 4202 N 418.302 -1.35869 -0.798587 0
M  V30 4203 C 419.549 -1.29588 -1.55606 0
M  V30 4204 C 419.877 0.127456 -1.94082 0
M  V30 4205 O 419.132 1.09461 -1.62225 0
M  V30 4206 C 419.431 -2.1556 -2.85077 0
M  V30 4207 C 419.097 -3.6424 -2.65781 0
M  V30 4208 C 417.759 -4.04766 -2.60227 0
M  V30 4209 C 420.111 -4.58547 -2.47758 0
M  V30 4210 C 417.439 -5.37753 -2.34603 0
M  V30 4211 C 419.791 -5.91742 -2.23662 0
M  V30 4212 C 418.455 -6.31402 -2.16534 0
M  V30 4213 H 417.725 -0.474197 -0.569402 0
M  V30 4214 H 420.372 -1.67839 -0.922086 0
M  V30 4215 H 418.677 -1.70216 -3.52893 0
M  V30 4216 H 420.374 -2.08031 -3.42818 0
M  V30 4217 H 416.964 -3.32086 -2.70956 0
M  V30 4218 H 421.148 -4.28117 -2.51056 0
M  V30 4219 H 416.404 -5.67474 -2.2756 0
M  V30 4220 H 420.578 -6.6439 -2.08708 0
M  V30 4221 H 418.205 -7.34381 -1.96441 0
M  V30 4222 N 419.78 1.02168 -1.19998 0
M  V30 4223 C 421.028 1.75338 -1.00504 0
M  V30 4224 C 421.349 1.89387 0.464506 0
M  V30 4225 O 420.619 1.43268 1.33608 0
M  V30 4226 H 419.199 0.649564 -0.368885 0
M  V30 4227 H 421.861 1.23205 -1.51018 0
M  V30 4228 H 420.957 2.75892 -1.45912 0
M  V30 4229 N 421.258 1.00505 1.21394 0
M  V30 4230 C 422.674 0.717873 1.42544 0
M  V30 4231 C 422.874 -0.706936 1.88692 0
M  V30 4232 O 421.93 -1.47627 2.04847 0
M  V30 4233 C 423.243 1.73377 2.45684 0
M  V30 4234 C 424.791 1.75059 2.59467 0
M  V30 4235 C 425.266 2.75545 3.6584 0
M  V30 4236 N 426.757 2.74213 3.73311 0
M  V30 4237 C 427.492 3.48626 4.55245 0
M  V30 4238 N 426.988 4.32678 5.41075 0
M  V30 4239 N 428.781 3.37276 4.49668 0
M  V30 4240 H 420.932 1.92506 0.897503 0
M  V30 4241 H 423.195 0.830919 0.456375 0
M  V30 4242 H 422.901 2.75395 2.18748 0
M  V30 4243 H 422.775 1.53647 3.44489 0
M  V30 4244 H 425.162 0.737337 2.8574 0
M  V30 4245 H 425.243 1.98861 1.60897 0
M  V30 4246 H 424.887 3.77028 3.40313 0
M  V30 4247 H 424.817 2.49009 4.64007 0
M  V30 4248 H 427.308 2.13234 3.11993 0
M  V30 4249 H 427.621 4.86253 6.00648 0
M  V30 4250 H 425.966 4.3676 5.40616 0
M  V30 4251 H 429.157 2.71043 3.81646 0
M  V30 4252 H 429.33 3.95524 5.13288 0
M  V30 4253 N 422.737 -1.36956 0.779787 0
M  V30 4254 C 423.983 -1.99787 0.348281 0
M  V30 4255 C 424.316 -1.61756 -1.07465 0
M  V30 4256 O 423.591 -0.867639 -1.74075 0
M  V30 4257 C 423.874 -3.56597 0.50104 0
M  V30 4258 C 423.727 -4.04513 1.96697 0
M  V30 4259 C 425.046 -4.40008 -0.0898097 0
M  V30 4260 H 422.165 -0.725796 0.128022 0
M  V30 4261 H 424.807 -1.62514 0.984331 0
M  V30 4262 H 422.957 -3.88479 -0.0404347 0
M  V30 4263 H 424.629 -3.83161 2.56876 0
M  V30 4264 H 422.872 -3.56408 2.47297 0
M  V30 4265 H 423.543 -5.1352 2.02486 0
M  V30 4266 H 426.019 -4.14431 0.372293 0
M  V30 4267 H 424.895 -5.4888 0.0471605 0
M  V30 4268 H 425.156 -4.26035 -1.18096 0
M  V30 4269 N 424.215 -0.530993 -1.48385 0
M  V30 4270 C 425.178 0.220497 -2.28137 0
M  V30 4271 C 426.178 0.866851 -1.35434 0
M  V30 4272 O 427.368 0.726746 -1.58316 0
M  V30 4273 C 424.5 1.31921 -3.1434 0
M  V30 4274 H 425.693 -0.479714 -2.96038 0
M  V30 4275 H 423.246 -0.286968 -1.53643 0
M  V30 4276 H 423.981 2.05264 -2.51072 0
M  V30 4277 H 423.766 0.86085 -3.82533 0
M  V30 4278 H 425.256 1.84776 -3.74497 0
M  V30 4279 N 425.693 1.55336 -0.266172 0
M  V30 4280 C 426.656 2.20878 0.612001 0
M  V30 4281 C 427.656 1.18388 1.08816 0
M  V30 4282 O 428.846 1.4335 0.989774 0
M  V30 4283 C 425.978 2.86765 1.84332 0
M  V30 4284 H 427.171 2.99873 0.0398718 0
M  V30 4285 H 424.724 1.56291 -0.0167309 0
M  V30 4286 H 425.459 2.11759 2.45619 0
M  V30 4287 H 425.244 3.61862 1.5099 0
M  V30 4288 H 426.734 3.36867 2.46801 0
M  V30 4289 N 427.171 -0.0066808 1.57599 0
M  V30 4290 C 428.134 -0.985035 2.06953 0
M  V30 4291 C 429.134 -1.27663 0.977687 0
M  V30 4292 O 430.324 -1.22293 1.24057 0
M  V30 4293 C 427.456 -2.3118 2.50536 0
M  V30 4294 H 428.649 -0.558255 2.94658 0
M  V30 4295 H 426.202 -0.254011 1.54222 0
M  V30 4296 H 426.937 -2.78561 1.66054 0
M  V30 4297 H 426.722 -2.11338 3.3027 0
M  V30 4298 H 428.212 -3.01377 2.8907 0
M  V30 4299 N 428.649 -1.55105 -0.279332 0
M  V30 4300 C 429.898 -1.74618 -1.00952 0
M  V30 4301 C 430.211 -0.551096 -1.87676 0
M  V30 4302 O 431.417 -0.628507 -2.64125 0
M  V30 4303 C 429.873 -3.09025 -1.84476 0
M  V30 4304 C 429.481 -4.36081 -1.0265 0
M  V30 4305 C 431.225 -3.37891 -2.56963 0
M  V30 4306 C 429.132 -5.6153 -1.85576 0
M  V30 4307 H 428.062 -0.650868 -0.38064 0
M  V30 4308 H 430.713 -1.81569 -0.265475 0
M  V30 4309 H 429.095 -2.96095 -2.62952 0
M  V30 4310 H 430.269 -4.59909 -0.286354 0
M  V30 4311 H 428.584 -4.14312 -0.416464 0
M  V30 4312 H 431.181 -4.28822 -3.19399 0
M  V30 4313 H 431.524 -2.57737 -3.26921 0
M  V30 4314 H 432.057 -3.5189 -1.85522 0
M  V30 4315 H 428.796 -6.44413 -1.2005 0
M  V30 4316 H 428.316 -5.41854 -2.57204 0
M  V30 4317 H 429.995 -5.99594 -2.43096 0
M  V30 4318 N 430.127 0.543554 -1.4793 0
M  V30 4319 C 431.077 1.64527 -1.57844 0
M  V30 4320 C 432.061 1.54869 -0.436408 0
M  V30 4321 O 433.253 1.63119 -0.687101 0
M  V30 4322 C 430.382 3.03281 -1.6086 0
M  V30 4323 C 429.468 3.18093 -2.80495 0
M  V30 4324 N 429.859 3.02923 -4.05057 0
M  V30 4325 C 428.157 3.49121 -2.77543 0
M  V30 4326 C 428.858 3.20791 -4.85251 0
M  V30 4327 N 427.834 3.47749 -4.17818 0
M  V30 4328 H 431.636 1.51388 -2.5191 0
M  V30 4329 H 429.15 0.748671 -1.44113 0
M  V30 4330 H 431.147 3.82403 -1.66054 0
M  V30 4331 H 429.807 3.17521 -0.678996 0
M  V30 4332 H 430.818 2.79966 -4.35705 0
M  V30 4333 H 427.495 3.69804 -1.93781 0
M  V30 4334 H 428.885 3.13915 -5.9406 0
M  V30 4335 N 431.605 1.3629 0.791371 0
M  V30 4336 C 432.555 1.26988 1.89362 0
M  V30 4337 C 433.539 0.161795 1.60084 0
M  V30 4338 O 434.731 0.394426 1.72549 0
M  V30 4339 C 431.86 1.05944 3.26544 0
M  V30 4340 C 430.946 2.21211 3.61838 0
M  V30 4341 N 431.337 3.46518 3.68455 0
M  V30 4342 C 429.635 2.12933 3.91887 0
M  V30 4343 C 430.336 4.2241 3.99931 0
M  V30 4344 N 429.312 3.51329 4.14812 0
M  V30 4345 H 433.114 2.21908 1.92702 0
M  V30 4346 H 430.628 1.28982 0.986787 0
M  V30 4347 H 432.625 0.973666 4.05371 0
M  V30 4348 H 431.285 0.119223 3.24481 0
M  V30 4349 H 432.296 3.80677 3.51148 0
M  V30 4350 H 428.973 1.26855 3.97761 0
M  V30 4351 H 430.363 5.30767 4.1199 0
M  V30 4352 N 433.083 -1.0153 1.20538 0
M  V30 4353 C 434.36 -1.72327 0.925343 0
M  V30 4354 C 434.74 -2.03383 -0.565547 0
M  V30 4355 O 434.088 -1.69934 -1.52757 0
M  V30 4356 C 434.298 -2.9902 1.79967 0
M  V30 4357 C 435.646 -3.72258 2.04228 0
M  V30 4358 O 436.67 -3.08979 1.77231 0
M  V30 4359 O 435.529 -4.86053 2.4983 0
M  V30 4360 H 432.623 -0.751099 0.346092 0
M  V30 4361 H 435.169 -1.07366 1.31417 0
M  V30 4362 H 433.941 -2.72402 2.80915 0
M  V30 4363 H 433.564 -3.71721 1.41099 0
M  V30 4364 N 434.561 -1.01147 -1.20859 0
M  V30 4365 C 435.786 -0.716698 -1.94623 0
M  V30 4366 C 436.211 0.715415 -1.73964 0
M  V30 4367 O 435.569 1.49157 -1.03062 0
M  V30 4368 C 435.617 -1.0513 -3.44935 0
M  V30 4369 O 434.721 -0.160131 -4.12089 0
M  V30 4370 H 434.062 -0.266404 -0.608214 0
M  V30 4371 H 436.592 -1.35346 -1.53436 0
M  V30 4372 H 436.602 -1.00086 -3.95533 0
M  V30 4373 H 435.277 -2.09475 -3.59295 0
M  V30 4374 H 433.854 -0.267657 -3.71938 0
M  V30 4375 N 436.039 1.36541 -0.78704 0
M  V30 4376 C 437.002 2.28413 -0.189778 0
M  V30 4377 C 438.002 1.48719 0.611499 0
M  V30 4378 O 439.192 1.68737 0.432842 0
M  V30 4379 C 436.324 3.32824 0.737638 0
M  V30 4380 H 437.517 2.82743 -0.999831 0
M  V30 4381 H 435.07 1.46065 -0.556298 0
M  V30 4382 H 435.805 2.83646 1.57212 0
M  V30 4383 H 435.59 3.91752 0.165044 0
M  V30 4384 H 437.08 4.0144 1.15047 0
M  V30 4385 N 437.518 0.538854 1.48102 0
M  V30 4386 C 438.766 0.00798599 2.02098 0
M  V30 4387 C 439.087 -1.33922 1.41739 0
M  V30 4388 O 438.357 -1.86932 0.585934 0
M  V30 4389 H 436.937 -3.62179e-05 0.747 0
M  V30 4390 H 439.599 0.7047 1.81714 0
M  V30 4391 H 438.695 -0.0937672 3.11959 0
M  V30 4392 N 438.996 -1.55193 0.274407 0
M  V30 4393 C 440.224 -2.03987 -0.345943 0
M  V30 4394 C 440.639 -1.15279 -1.4952 0
M  V30 4395 O 439.996 -0.172759 -1.8168 0
M  V30 4396 C 440.047 -3.51898 -0.827631 0
M  V30 4397 O 439.768 -4.37231 0.275855 0
M  V30 4398 C 441.269 -4.16577 -1.51587 0
M  V30 4399 H 438.489 -0.666335 -0.0789892 0
M  V30 4400 H 441.033 -2.00423 0.406294 0
M  V30 4401 H 439.188 -3.55909 -1.52996 0
M  V30 4402 H 439.602 -5.24415 -0.0943638 0
M  V30 4403 H 441.076 -5.21678 -1.80433 0
M  V30 4404 H 441.553 -3.64707 -2.44716 0
M  V30 4405 H 442.159 -4.16568 -0.857409 0
M  V30 4406 N 440.474 -0.00167713 -1.576 0
M  V30 4407 C 441.702 0.693759 -1.94922 0
M  V30 4408 C 442.117 1.67215 -0.876626 0
M  V30 4409 O 441.474 1.81929 0.144279 0
M  V30 4410 C 441.525 1.42416 -3.32265 0
M  V30 4411 O 441.246 0.485014 -4.35407 0
M  V30 4412 C 442.747 2.21395 -3.84056 0
M  V30 4413 H 439.967 0.193118 -0.642609 0
M  V30 4414 H 442.511 -0.0532952 -2.04431 0
M  V30 4415 H 440.666 2.12284 -3.24059 0
M  V30 4416 H 441.08 1.00053 -5.14868 0
M  V30 4417 H 442.554 2.67996 -4.82578 0
M  V30 4418 H 443.031 3.04142 -3.16851 0
M  V30 4419 H 443.637 1.56542 -3.95443 0
M  V30 4420 N 441.952 1.55251 0.271103 0
M  V30 4421 C 442.882 1.9127 1.33933 0
M  V30 4422 C 443.863 0.77478 1.5143 0
M  V30 4423 O 445.048 1.03307 1.64442 0
M  V30 4424 C 442.178 2.18627 2.69851 0
M  V30 4425 C 441.132 3.34442 2.67081 0
M  V30 4426 C 440.458 3.47284 4.06569 0
M  V30 4427 C 441.758 4.70784 2.26185 0
M  V30 4428 H 443.452 2.80744 1.04035 0
M  V30 4429 H 440.998 1.35077 0.499017 0
M  V30 4430 H 442.951 2.42413 3.44694 0
M  V30 4431 H 441.675 1.25955 3.01335 0
M  V30 4432 H 440.334 3.10627 1.94695 0
M  V30 4433 H 439.982 2.52074 4.35279 0
M  V30 4434 H 439.682 4.25152 4.0561 0
M  V30 4435 H 441.206 3.73363 4.83148 0
M  V30 4436 H 442.62 4.94102 2.90751 0
M  V30 4437 H 441.017 5.51582 2.36384 0
M  V30 4438 H 442.087 4.69478 1.21319 0
M  V30 4439 N 443.43 -0.535701 1.48216 0
M  V30 4440 C 444.36 -1.65014 1.65204 0
M  V30 4441 C 445.341 -1.62554 0.501011 0
M  V30 4442 O 446.526 -1.7984 0.732886 0
M  V30 4443 C 443.656 -3.03616 1.68626 0
M  V30 4444 C 442.61 -3.20932 2.83172 0
M  V30 4445 C 441.936 -4.60537 2.71679 0
M  V30 4446 C 443.236 -3.04249 4.24535 0
M  V30 4447 H 444.93 -1.51053 2.58502 0
M  V30 4448 H 442.476 -0.725262 1.24402 0
M  V30 4449 H 444.429 -3.81446 1.79099 0
M  V30 4450 H 443.153 -3.18587 0.719026 0
M  V30 4451 H 441.812 -2.45517 2.72244 0
M  V30 4452 H 441.46 -4.72336 1.72937 0
M  V30 4453 H 441.16 -4.73069 3.48538 0
M  V30 4454 H 442.684 -5.40475 2.84112 0
M  V30 4455 H 444.098 -3.71877 4.36326 0
M  V30 4456 H 442.495 -3.28278 5.02348 0
M  V30 4457 H 443.565 -2.00739 4.41397 0
M  V30 4458 N 444.908 -1.36708 -0.784132 0
M  V30 4459 C 445.871 -1.31307 -1.87859 0
M  V30 4460 C 446.871 -0.219654 -1.59293 0
M  V30 4461 O 448.061 -0.47476 -1.67606 0
M  V30 4462 C 445.193 -1.03679 -3.24751 0
M  V30 4463 H 446.386 -2.28647 -1.94064 0
M  V30 4464 H 443.939 -1.21558 -0.98252 0
M  V30 4465 H 444.674 -0.0681936 -3.24228 0
M  V30 4466 H 444.459 -1.82811 -3.46876 0
M  V30 4467 H 445.949 -1.02518 -4.04821 0
M  V30 4468 N 446.386 1.0089 -1.21074 0
M  V30 4469 C 447.319 2.09279 -0.909806 0
M  V30 4470 C 448.297 1.61986 0.141145 0
M  V30 4471 O 449.481 1.88495 0.0130332 0
M  V30 4472 C 446.608 3.36723 -0.365374 0
M  V30 4473 C 445.654 4.02919 -1.39852 0
M  V30 4474 S 446.487 4.45835 -2.96633 0
M  V30 4475 C 447.643 5.76471 -2.43786 0
M  V30 4476 H 447.876 2.34484 -1.82769 0
M  V30 4477 H 445.409 1.14115 -1.04006 0
M  V30 4478 H 447.367 4.10459 -0.0578203 0
M  V30 4479 H 446.028 3.09577 0.531136 0
M  V30 4480 H 445.221 4.94634 -0.967117 0
M  V30 4481 H 444.823 3.35441 -1.65395 0
M  V30 4482 H 447.115 6.52027 -1.84029 0
M  V30 4483 H 448.058 6.24418 -3.33928 0
M  V30 4484 H 448.466 5.33104 -1.85636 0
M  V30 4485 N 447.864 1.01787 1.20321 0
M  V30 4486 C 449.28 0.732951 1.41774 0
M  V30 4487 C 449.48 -0.686883 1.89431 0
M  V30 4488 O 448.536 -1.45446 2.06402 0
M  V30 4489 C 449.849 1.75973 2.43832 0
M  V30 4490 C 451.397 1.77802 2.57596 0
M  V30 4491 C 451.872 2.7941 3.62897 0
M  V30 4492 N 453.363 2.78157 3.70382 0
M  V30 4493 C 454.098 3.53434 4.51521 0
M  V30 4494 N 453.594 4.38392 5.36455 0
M  V30 4495 N 455.387 3.42026 4.46066 0
M  V30 4496 H 447.538 1.93447 0.877035 0
M  V30 4497 H 449.801 0.835712 0.447536 0
M  V30 4498 H 449.507 2.77699 2.15815 0
M  V30 4499 H 449.381 1.57292 3.4284 0
M  V30 4500 H 451.768 0.767602 2.84942 0
M  V30 4501 H 451.849 2.00557 1.58779 0
M  V30 4502 H 451.493 3.80616 3.36295 0
M  V30 4503 H 451.423 2.53916 4.61339 0
M  V30 4504 H 453.914 2.16531 3.09714 0
M  V30 4505 H 454.227 4.92596 5.95457 0
M  V30 4506 H 452.572 4.4247 5.35953 0
M  V30 4507 H 455.763 2.75075 3.78749 0
M  V30 4508 H 455.936 4.00946 5.09064 0
M  V30 4509 N 449.342 -1.36122 0.79427 0
M  V30 4510 C 450.305 -2.28309 0.201889 0
M  V30 4511 C 451.305 -1.49041 -0.603603 0
M  V30 4512 O 452.495 -1.68964 -0.423888 0
M  V30 4513 C 449.627 -3.3321 -0.719978 0
M  V30 4514 H 450.82 -2.82208 1.01481 0
M  V30 4515 H 448.373 -1.45768 0.564037 0
M  V30 4516 H 449.108 -2.84475 -1.55706 0
M  V30 4517 H 448.893 -3.91835 -0.144266 0
M  V30 4518 H 450.383 -4.02044 -1.12916 0
M  V30 4519 N 450.82 -0.546701 -1.47814 0
M  V30 4520 C 452.068 -0.0187037 -2.02091 0
M  V30 4521 C 452.389 1.33168 -1.42447 0
M  V30 4522 O 451.659 1.86619 -0.595839 0
M  V30 4523 H 450.239 -0.00392531 -0.74699 0
M  V30 4524 H 452.901 -0.714327 -1.81338 0
M  V30 4525 H 451.997 0.0772219 -3.12004 0
M  V30 4526 N 452.299 1.55045 -0.282633 0
M  V30 4527 C 453.548 1.98938 0.332667 0
M  V30 4528 C 453.861 1.17455 1.56409 0
M  V30 4529 O 455.067 1.51527 2.25282 0
M  V30 4530 C 453.523 3.54105 0.643226 0
M  V30 4531 C 453.131 4.44374 -0.568814 0
M  V30 4532 C 454.875 4.06569 1.22074 0
M  V30 4533 C 452.782 5.90943 -0.232426 0
M  V30 4534 H 451.712 0.743043 0.128075 0
M  V30 4535 H 454.363 1.79341 -0.388464 0
M  V30 4536 H 452.745 3.69532 1.42346 0
M  V30 4537 H 453.919 4.40718 -1.34551 0
M  V30 4538 H 452.234 4.02585 -1.06369 0
M  V30 4539 H 454.831 5.13626 1.48635 0
M  V30 4540 H 455.174 3.56057 2.15707 0
M  V30 4541 H 455.707 3.94612 0.502621 0
M  V30 4542 H 452.446 6.45567 -1.13683 0
M  V30 4543 H 451.966 5.9765 0.507357 0
M  V30 4544 H 453.645 6.4677 0.172657 0
M  V30 4545 N 453.777 0.010035 1.57597 0
M  V30 4546 C 455.188 -0.531426 1.78977 0
M  V30 4547 C 455.539 -1.73375 0.918454 0
M  V30 4548 O 454.664 -2.16047 0.123635 0
M  V30 4549 C 455.259 -0.97086 3.24592 0
M  V30 4550 C 453.818 -1.45756 3.47033 0
M  V30 4551 C 452.965 -0.413384 2.74201 0
M  V30 4552 H 455.916 0.236166 1.56933 0
M  V30 4553 H 455.937 -1.83633 3.33255 0
M  V30 4554 H 455.449 -0.0955893 3.87982 0
M  V30 4555 H 453.55 -2.35339 2.88871 0
M  V30 4556 H 453.663 -1.4781 4.55729 0
M  V30 4557 H 452.027 -0.877266 2.39115 0
M  V30 4558 H 452.81 0.453092 3.40297 0
M  V30 4559 N 455.255 -1.55392 -0.262866 0
M  V30 4560 C 456.187 -1.85392 -1.34768 0
M  V30 4561 C 457.2 -0.739069 -1.45057 0
M  V30 4562 O 458.389 -1.01703 -1.46693 0
M  V30 4563 C 455.489 -2.01088 -2.72795 0
M  V30 4564 C 454.662 -3.31828 -2.84972 0
M  V30 4565 C 453.721 -3.37464 -4.03738 0
M  V30 4566 O 452.747 -4.10778 -3.94018 0
M  V30 4567 N 453.949 -2.65599 -5.16176 0
M  V30 4568 H 456.714 -2.79029 -1.09375 0
M  V30 4569 H 454.275 -1.55434 -0.452981 0
M  V30 4570 H 456.267 -2.02217 -3.50557 0
M  V30 4571 H 454.837 -1.1427 -2.90966 0
M  V30 4572 H 454.057 -3.43152 -1.94012 0
M  V30 4573 H 455.345 -4.18032 -2.90045 0
M  V30 4574 H 454.743 -2.05736 -5.26962 0
M  V30 4575 H 453.3 -2.72439 -5.92132 0
M  V30 4576 N 456.733 0.527833 -1.48498 0
M  V30 4577 C 457.982 1.28003 -1.55878 0
M  V30 4578 C 458.295 1.9414 -0.238577 0
M  V30 4579 O 459.501 2.7083 -0.190643 0
M  V30 4580 C 457.957 2.32272 -2.74914 0
M  V30 4581 C 457.565 1.72196 -4.13585 0
M  V30 4582 C 459.309 3.08488 -2.91608 0
M  V30 4583 C 457.216 2.74417 -5.23879 0
M  V30 4584 H 456.146 0.481413 -0.580308 0
M  V30 4585 H 458.797 0.557195 -1.74836 0
M  V30 4586 H 457.179 3.07601 -2.49395 0
M  V30 4587 H 458.353 1.03041 -4.49132 0
M  V30 4588 H 456.668 1.08464 -4.02025 0
M  V30 4589 H 459.265 3.84879 -3.71177 0
M  V30 4590 H 459.608 3.64481 -2.01145 0
M  V30 4591 H 460.141 2.40274 -3.17038 0
M  V30 4592 H 456.88 2.23242 -6.16314 0
M  V30 4593 H 456.4 3.41893 -4.92818 0
M  V30 4594 H 458.079 3.37362 -5.52083 0
M  V30 4595 N 458.211 1.37122 0.776871 0
M  V30 4596 C 459.457 1.32243 1.53752 0
M  V30 4597 C 459.79 -0.0944745 1.9397 0
M  V30 4598 O 459.065 -1.05068 1.6368 0
M  V30 4599 C 459.348 2.25681 2.80607 0
M  V30 4600 C 459.201 3.76127 2.46676 0
M  V30 4601 C 460.52 2.17657 3.82509 0
M  V30 4602 H 457.639 0.481704 0.557791 0
M  V30 4603 H 460.281 1.6778 0.891612 0
M  V30 4604 H 458.431 1.95505 3.35723 0
M  V30 4605 H 460.103 4.16877 1.97513 0
M  V30 4606 H 458.346 3.94946 1.79443 0
M  V30 4607 H 459.017 4.36933 3.37333 0
M  V30 4608 H 461.493 2.44245 3.36873 0
M  V30 4609 H 460.369 2.85185 4.69 0
M  V30 4610 H 460.63 1.16785 4.26396 0
M  V30 4611 N 459.689 -1.00246 1.21608 0
M  V30 4612 C 460.935 -1.74319 1.03638 0
M  V30 4613 C 461.268 -1.89408 -0.428749 0
M  V30 4614 O 460.543 -1.43026 -1.3181 0
M  V30 4615 C 460.826 -3.15431 1.73711 0
M  V30 4616 C 460.679 -3.08049 3.27759 0
M  V30 4617 C 461.998 -4.14407 1.48173 0
M  V30 4618 H 459.117 -0.632741 0.377899 0
M  V30 4619 H 461.759 -1.16853 1.49818 0
M  V30 4620 H 459.909 -3.64493 1.34452 0
M  V30 4621 H 461.581 -2.66681 3.76403 0
M  V30 4622 H 459.824 -2.45088 3.57931 0
M  V30 4623 H 460.495 -4.07862 3.71958 0
M  V30 4624 H 462.971 -3.74061 1.82258 0
M  V30 4625 H 461.847 -5.11279 1.99713 0
M  V30 4626 H 462.108 -4.40174 0.412273 0
M  V30 4627 N 461.167 -1.02423 -1.1978 0
M  V30 4628 C 462.583 -0.740459 -1.41384 0
M  V30 4629 C 462.783 0.676827 -1.89793 0
M  V30 4630 O 461.839 1.4435 -2.0717 0
M  V30 4631 C 463.152 -1.77264 -2.42895 0
M  V30 4632 C 464.7 -1.79165 -2.56649 0
M  V30 4633 C 465.175 -2.8133 -3.6141 0
M  V30 4634 N 466.666 -2.80118 -3.68901 0
M  V30 4635 C 467.401 -3.55824 -4.49641 0
M  V30 4636 N 466.897 -4.41231 -5.34123 0
M  V30 4637 N 468.69 -3.44387 -4.44246 0
M  V30 4638 H 460.841 -1.9391 -0.866764 0
M  V30 4639 H 463.104 -0.838074 -0.443098 0
M  V30 4640 H 462.81 -2.7884 -2.14339 0
M  V30 4641 H 462.684 -1.59108 -3.42001 0
M  V30 4642 H 465.071 -0.782702 -2.84531 0
M  V30 4643 H 465.152 -2.01396 -1.57713 0
M  V30 4644 H 464.796 -3.82394 -3.34271 0
M  V30 4645 H 464.726 -2.56359 -4.59986 0
M  V30 4646 H 467.217 -2.1817 -3.08562 0
M  V30 4647 H 467.53 -4.95747 -5.92836 0
M  V30 4648 H 465.875 -4.45306 -5.33599 0
M  V30 4649 H 469.066 -2.7708 -3.77285 0
M  V30 4650 H 469.239 -4.0364 -5.06931 0
M  V30 4651 N 462.645 1.35699 -0.801477 0
M  V30 4652 C 464.061 1.52065 -0.484596 0
M  V30 4653 C 464.261 1.75215 0.995084 0
M  V30 4654 O 463.317 1.79061 1.78026 0
M  V30 4655 C 464.63 2.69908 -1.32552 0
M  V30 4656 C 466.178 2.83784 -1.32044 0
M  V30 4657 C 466.653 4.04646 -2.14536 0
M  V30 4658 N 468.144 4.11814 -2.12046 0
M  V30 4659 C 468.879 5.04437 -2.72636 0
M  V30 4660 N 468.375 6.02426 -3.42133 0
M  V30 4661 N 470.168 4.97144 -2.62305 0
M  V30 4662 H 462.319 1.18928 -1.75983 0
M  V30 4663 H 464.582 0.581455 -0.748741 0
M  V30 4664 H 464.288 2.59363 -2.37537 0
M  V30 4665 H 464.162 3.64376 -0.975181 0
M  V30 4666 H 466.549 2.93783 -0.27846 0
M  V30 4667 H 466.63 1.90188 -1.71062 0
M  V30 4668 H 466.274 3.95407 -3.18772 0
M  V30 4669 H 466.204 4.97413 -1.72882 0
M  V30 4670 H 468.695 3.41664 -1.61476 0
M  V30 4671 H 469.008 6.69688 -3.85666 0
M  V30 4672 H 467.353 6.02615 -3.46237 0
M  V30 4673 H 470.544 4.19546 -2.07603 0
M  V30 4674 H 470.717 5.69138 -3.09815 0
M  V30 4675 N 464.123 0.554532 1.47522 0
M  V30 4676 C 465.369 0.0295227 2.02779 0
M  V30 4677 C 465.702 -1.31582 1.42828 0
M  V30 4678 O 464.977 -1.85561 0.582872 0
M  V30 4679 C 465.26 -0.0664057 3.60039 0
M  V30 4680 C 465.113 1.30585 4.30427 0
M  V30 4681 C 466.432 -0.781162 4.33112 0
M  V30 4682 H 463.551 0.0122027 0.736899 0
M  V30 4683 H 466.193 0.716305 1.7598 0
M  V30 4684 H 464.343 -0.651307 3.83002 0
M  V30 4685 H 466.015 1.93374 4.18813 0
M  V30 4686 H 464.258 1.88125 3.90886 0
M  V30 4687 H 464.929 1.19147 5.38988 0
M  V30 4688 H 467.405 -0.284565 4.15126 0
M  V30 4689 H 466.281 -0.817237 5.42782 0
M  V30 4690 H 466.542 -1.83672 4.0214 0
M  V30 4691 N 465.601 -1.54893 0.290851 0
M  V30 4692 C 466.847 -2.0023 -0.321867 0
M  V30 4693 C 467.18 -1.179 -1.54316 0
M  V30 4694 O 466.455 -0.25293 -1.92848 0
M  V30 4695 C 466.738 -3.53456 -0.688515 0
M  V30 4696 C 466.591 -4.46532 0.541209 0
M  V30 4697 C 467.91 -4.13057 -1.51895 0
M  V30 4698 H 465.029 -0.727891 -0.115515 0
M  V30 4699 H 467.671 -1.85722 0.400931 0
M  V30 4700 H 465.821 -3.6595 -1.30433 0
M  V30 4701 H 467.493 -4.4596 1.17973 0
M  V30 4702 H 465.736 -4.17545 1.17636 0
M  V30 4703 H 466.407 -5.51475 0.240675 0
M  V30 4704 H 468.883 -4.03937 -0.99872 0
M  V30 4705 H 467.759 -5.20448 -1.74429 0
M  V30 4706 H 468.02 -3.64284 -2.50498 0
M  V30 4707 N 467.08 -0.0183926 -1.57589 0
M  V30 4708 C 468.357 0.700621 -1.82622 0
M  V30 4709 C 468.737 1.90951 -0.90005 0
M  V30 4710 O 468.085 2.28452 0.0469145 0
M  V30 4711 C 468.295 1.08899 -3.31575 0
M  V30 4712 C 469.643 1.48514 -3.9778 0
M  V30 4713 O 470.667 1.18227 -3.36007 0
M  V30 4714 O 469.526 2.04903 -5.06633 0
M  V30 4715 H 466.62 0.342743 -0.752633 0
M  V30 4716 H 469.166 -0.0452548 -1.6964 0
M  V30 4717 H 467.938 0.228113 -3.90635 0
M  V30 4718 H 467.561 1.89338 -3.49624 0
M  V30 4719 N 468.558 1.5553 0.254621 0
M  V30 4720 C 469.506 1.9048 1.33492 0
M  V30 4721 C 470.5 0.78304 1.50216 0
M  V30 4722 O 471.706 0.967582 1.51782 0
M  V30 4723 H 468.081 0.604846 0.44684 0
M  V30 4724 H 470.052 2.80688 1.01275 0
M  V30 4725 C 468.801 2.20928 2.68489 0
M  V30 4726 H 468.124 3.06742 2.56417 0
M  V30 4727 H 469.564 2.49291 3.42972 0
M  V30 4728 C 468.023 1.023 3.20993 0
M  V30 4729 O 468.553 0.267027 4.00811 0
M  V30 4730 N 466.759 0.815714 2.78917 0
M  V30 4731 H 466.306 1.43217 2.14119 0
M  V30 4732 H 466.264 0.0236532 3.14391 0
M  V30 4733 N 470.036 -0.519951 1.48776 0
M  V30 4734 C 471.282 -1.27711 1.57536 0
M  V30 4735 C 471.615 -1.92547 0.252866 0
M  V30 4736 O 470.89 -1.7979 -0.742021 0
M  V30 4737 C 471.173 -2.35875 2.72094 0
M  V30 4738 C 471.026 -1.75664 4.1408 0
M  V30 4739 C 472.345 -3.37575 2.82367 0
M  V30 4740 H 469.464 -0.462971 0.573434 0
M  V30 4741 H 472.106 -0.578194 1.80989 0
M  V30 4742 H 470.256 -2.95488 2.52228 0
M  V30 4743 H 471.928 -1.20025 4.45412 0
M  V30 4744 H 470.171 -1.06154 4.20611 0
M  V30 4745 H 470.842 -2.54029 4.90075 0
M  V30 4746 H 473.318 -2.87929 3.00393 0
M  V30 4747 H 472.194 -4.1064 3.64233 0
M  V30 4748 H 472.455 -3.98743 1.90936 0
M  V30 4749 N 471.514 -1.37532 -0.769588 0
M  V30 4750 C 472.76 -1.33057 -1.53048 0
M  V30 4751 C 473.093 0.0841865 -1.94017 0
M  V30 4752 O 472.368 1.04198 -1.64235 0
M  V30 4753 C 472.651 -2.27166 -2.79406 0
M  V30 4754 C 472.504 -3.77429 -2.44677 0
M  V30 4755 C 473.823 -2.19683 -3.81349 0
M  V30 4756 H 470.942 -0.484655 -0.555228 0
M  V30 4757 H 473.584 -1.68251 -0.882702 0
M  V30 4758 H 471.734 -1.97283 -3.34682 0
M  V30 4759 H 473.406 -4.17918 -1.953 0
M  V30 4760 H 471.649 -3.95892 -1.77346 0
M  V30 4761 H 472.32 -4.38716 -3.35011 0
M  V30 4762 H 474.796 -2.46029 -3.35573 0
M  V30 4763 H 473.672 -2.87668 -4.67481 0
M  V30 4764 H 473.933 -1.19045 -4.25771 0
M  V30 4765 N 472.992 0.995999 -1.22138 0
M  V30 4766 C 473.902 2.11985 -1.00496 0
M  V30 4767 C 474.918 1.7394 0.0457701 0
M  V30 4768 O 476.094 2.00868 -0.146273 0
M  V30 4769 C 473.159 3.41779 -0.582086 0
M  V30 4770 C 472.22 3.93943 -1.70608 0
M  V30 4771 C 471.453 5.17542 -1.30328 0
M  V30 4772 O 471.676 5.70114 -0.180743 0
M  V30 4773 O 470.61 5.63382 -2.11861 0
M  V30 4774 H 474.436 2.33123 -1.94647 0
M  V30 4775 H 472.021 1.10358 -1.00705 0
M  V30 4776 H 473.903 4.1989 -0.356467 0
M  V30 4777 H 472.578 3.22007 0.330592 0
M  V30 4778 H 471.485 3.17019 -1.98619 0
M  V30 4779 H 472.818 4.18141 -2.59651 0
M  V30 4780 N 474.47 1.03057 1.19235 0
M  V30 4781 C 475.402 0.570932 2.21975 0
M  V30 4782 C 476.415 -0.354088 1.58903 0
M  V30 4783 O 477.604 -0.150211 1.77867 0
M  V30 4784 C 474.704 -0.187152 3.38383 0
M  V30 4785 C 473.877 0.743231 4.31039 0
M  V30 4786 C 472.936 0.0302493 5.26191 0
M  V30 4787 O 471.962 0.657371 5.65391 0
M  V30 4788 N 473.164 -1.23991 5.67104 0
M  V30 4789 H 475.929 1.45456 2.62036 0
M  V30 4790 H 473.49 0.909807 1.33918 0
M  V30 4791 H 475.482 -0.673715 3.99053 0
M  V30 4792 H 474.052 -0.972205 2.97098 0
M  V30 4793 H 473.272 1.40985 3.68126 0
M  V30 4794 H 474.56 1.3755 4.89854 0
M  V30 4795 H 473.958 -1.77011 5.37293 0
M  V30 4796 H 472.515 -1.67093 6.30018 0
M  V30 4797 N 475.948 -1.35272 0.808662 0
M  V30 4798 C 476.911 -2.28082 0.226093 0
M  V30 4799 C 477.911 -1.49673 -0.587762 0
M  V30 4800 O 479.101 -1.69404 -0.405943 0
M  V30 4801 C 476.233 -3.33955 -0.684596 0
M  V30 4802 H 477.426 -2.81116 1.04469 0
M  V30 4803 H 474.979 -1.45162 0.579466 0
M  V30 4804 H 475.714 -2.86111 -1.5268 0
M  V30 4805 H 475.499 -3.91965 -0.102699 0
M  V30 4806 H 476.989 -4.03219 -1.08646 0
M  V30 4807 N 477.426 -0.562348 -1.47226 0
M  V30 4808 C 478.656 -0.0451619 -2.06551 0
M  V30 4809 C 479.064 1.25626 -1.41473 0
M  V30 4810 O 478.407 1.76563 -0.507061 0
M  V30 4811 C 478.469 0.216068 -3.5885 0
M  V30 4812 C 478.133 -0.996691 -4.45999 0
M  V30 4813 C 479.13 -1.90358 -4.83797 0
M  V30 4814 C 476.815 -1.21281 -4.87438 0
M  V30 4815 C 478.809 -3.01023 -5.6184 0
M  V30 4816 C 476.496 -2.32255 -5.65244 0
M  V30 4817 C 477.494 -3.21956 -6.02356 0
M  V30 4818 O 477.182 -4.31005 -6.78594 0
M  V30 4819 H 476.914 -0.0451646 -0.67449 0
M  V30 4820 H 479.468 -0.776842 -1.90143 0
M  V30 4821 H 477.698 1.00212 -3.7349 0
M  V30 4822 H 479.387 0.679264 -4.00176 0
M  V30 4823 H 480.153 -1.74868 -4.52378 0
M  V30 4824 H 476.032 -0.523767 -4.58015 0
M  V30 4825 H 479.576 -3.71064 -5.90726 0
M  V30 4826 H 475.473 -2.47715 -5.96077 0
M  V30 4827 H 476.241 -4.29118 -6.96994 0
M  V30 4828 N 478.904 1.54736 -0.299062 0
M  V30 4829 C 479.854 2.20155 0.592932 0
M  V30 4830 C 480.838 1.1739 1.10038 0
M  V30 4831 O 482.03 1.43116 1.04147 0
M  V30 4832 C 479.159 2.94437 1.76527 0
M  V30 4833 C 478.245 4.04516 1.27388 0
M  V30 4834 N 478.636 5.03319 0.500339 0
M  V30 4835 C 476.934 4.18022 1.55478 0
M  V30 4836 C 477.635 5.81209 0.238909 0
M  V30 4837 N 476.611 5.37408 0.818163 0
M  V30 4838 H 480.413 2.93899 -0.00563596 0
M  V30 4839 H 477.927 1.62068 -0.103732 0
M  V30 4840 H 479.924 3.3977 2.41582 0
M  V30 4841 H 478.584 2.22209 2.36756 0
M  V30 4842 H 479.595 5.17696 0.145419 0
M  V30 4843 H 476.272 3.56998 2.16469 0
M  V30 4844 H 477.662 6.70812 -0.382223 0
M  V30 4845 N 480.382 0.0267497 1.57577 0
M  V30 4846 C 481.345 -0.940916 2.08996 0
M  V30 4847 C 482.345 -1.25561 1.00455 0
M  V30 4848 O 483.535 -1.19634 1.26623 0
M  V30 4849 C 480.667 -2.25814 2.55384 0
M  V30 4850 H 481.86 -0.495628 2.95776 0
M  V30 4851 H 479.413 -0.221241 1.54726 0
M  V30 4852 H 480.148 -2.74976 1.71926 0
M  V30 4853 H 479.933 -2.04285 3.34679 0
M  V30 4854 H 481.423 -2.95178 2.95398 0
M  V30 4855 N 481.861 -1.55662 -0.24637 0
M  V30 4856 C 483.138 -1.68272 -0.997198 0
M  V30 4857 C 483.518 -0.566785 -2.03349 0
M  V30 4858 O 482.866 0.429688 -2.24424 0
M  V30 4859 C 483.076 -3.08594 -1.63006 0
M  V30 4860 C 484.424 -3.6721 -2.13171 0
M  V30 4861 O 485.448 -3.11397 -1.72946 0
M  V30 4862 O 484.307 -4.65054 -2.87031 0
M  V30 4863 H 481.401 -0.684429 -0.464205 0
M  V30 4864 H 483.947 -1.67993 -0.240114 0
M  V30 4865 H 482.719 -3.81264 -0.880527 0
M  V30 4866 H 482.342 -3.12886 -2.45333 0
M  V30 4867 N 483.339 0.512053 -1.4905 0
M  V30 4868 C 484.755 0.84224 -1.35567 0
M  V30 4869 C 484.955 1.97878 -0.380319 0
M  V30 4870 O 484.011 2.51769 0.19201 0
M  V30 4871 C 485.324 1.19286 -2.76028 0
M  V30 4872 C 486.872 1.30171 -2.84648 0
M  V30 4873 C 487.347 1.68568 -4.25851 0
M  V30 4874 N 488.838 1.75638 -4.28609 0
M  V30 4875 C 489.573 2.06769 -5.34821 0
M  V30 4876 N 489.069 2.36201 -6.51292 0
M  V30 4877 N 490.862 2.07927 -5.22229 0
M  V30 4878 H 483.013 -0.237574 -2.11067 0
M  V30 4879 H 485.276 -0.0436747 -0.946993 0
M  V30 4880 H 484.982 0.431199 -3.49047 0
M  V30 4881 H 484.856 2.13889 -3.10695 0
M  V30 4882 H 487.243 2.05411 -2.11873 0
M  V30 4883 H 487.324 0.336457 -2.53578 0
M  V30 4884 H 486.968 0.938824 -4.99148 0
M  V30 4885 H 486.898 2.66174 -4.54377 0
M  V30 4886 H 489.389 1.55097 -3.44606 0
M  V30 4887 H 489.702 2.59112 -7.28066 0
M  V30 4888 H 488.047 2.33681 -6.54536 0
M  V30 4889 H 491.238 1.84403 -4.30248 0
M  V30 4890 H 491.411 2.31856 -6.05101 0
M  V30 4891 N 484.817 1.37938 0.762283 0
M  V30 4892 C 486.063 1.33866 1.52341 0
M  V30 4893 C 486.396 -0.0738961 1.94059 0
M  V30 4894 O 485.671 -1.03326 1.64785 0
M  V30 4895 C 485.954 2.28644 2.78197 0
M  V30 4896 C 485.807 3.78722 2.42672 0
M  V30 4897 C 487.126 2.21702 3.80179 0
M  V30 4898 H 484.245 0.487593 0.55265 0
M  V30 4899 H 486.887 1.68717 0.873767 0
M  V30 4900 H 485.037 1.99055 3.33631 0
M  V30 4901 H 486.709 4.18948 1.93081 0
M  V30 4902 H 484.952 3.96827 1.75244 0
M  V30 4903 H 485.623 4.40486 3.3268 0
M  V30 4904 H 488.099 2.47805 3.34263 0
M  V30 4905 H 486.975 2.90143 4.65949 0
M  V30 4906 H 487.236 1.21301 4.25133 0
M  V30 4907 N 486.295 -0.989507 1.22664 0
M  V30 4908 C 487.258 -2.06183 1.00106 0
M  V30 4909 C 488.258 -1.60765 -0.0337726 0
M  V30 4910 O 489.448 -1.72989 0.205072 0
M  V30 4911 C 486.58 -3.37021 0.51279 0
M  V30 4912 H 487.773 -2.27629 1.95256 0
M  V30 4913 H 485.326 -1.16158 1.0458 0
M  V30 4914 H 486.061 -3.21261 -0.442917 0
M  V30 4915 H 485.846 -3.71323 1.25942 0
M  V30 4916 H 487.336 -4.1591 0.375315 0
M  V30 4917 N 487.773 -1.03688 -1.18687 0
M  V30 4918 C 488.683 -0.634908 -2.25845 0
M  V30 4919 C 489.699 0.337065 -1.70704 0
M  V30 4920 O 490.875 0.192943 -2.00474 0
M  V30 4921 C 487.94 -0.000180054 -3.467 0
M  V30 4922 C 487.001 -1.02067 -4.1699 0
M  V30 4923 C 486.234 -0.41614 -5.32075 0
M  V30 4924 O 486.457 0.778712 -5.65059 0
M  V30 4925 O 485.391 -1.14296 -5.90948 0
M  V30 4926 H 489.217 -1.52757 -2.62486 0
M  V30 4927 H 486.802 -0.807533 -1.25695 0
M  V30 4928 H 488.684 0.353342 -4.19916 0
M  V30 4929 H 487.359 0.866367 -3.11891 0
M  V30 4930 H 486.266 -1.42592 -3.45859 0
M  V30 4931 H 487.599 -1.85786 -4.5579 0
M  V30 4932 N 489.251 1.34841 -0.815825 0
M  V30 4933 C 490.181 2.32187 -0.247298 0
M  V30 4934 C 491.162 1.5791 0.632344 0
M  V30 4935 O 492.347 1.8593 0.560698 0
M  V30 4936 C 489.477 3.42122 0.597466 0
M  V30 4937 C 488.431 4.27602 -0.184446 0
M  V30 4938 C 487.757 5.28942 0.782609 0
M  V30 4939 C 489.057 5.03502 -1.38865 0
M  V30 4940 H 490.751 2.79985 -1.06061 0
M  V30 4941 H 488.297 1.34611 -0.511461 0
M  V30 4942 H 490.25 4.09232 1.00533 0
M  V30 4943 H 488.974 2.92956 1.44376 0
M  V30 4944 H 487.633 3.62085 -0.573592 0
M  V30 4945 H 487.281 4.7604 1.62466 0
M  V30 4946 H 486.981 5.87008 0.263695 0
M  V30 4947 H 488.505 5.98922 1.18848 0
M  V30 4948 H 489.919 5.63506 -1.05518 0
M  V30 4949 H 488.316 5.71108 -1.8427 0
M  V30 4950 H 489.386 4.33608 -2.17054 0
M  V30 4951 N 490.729 0.570148 1.46925 0
M  V30 4952 C 491.977 0.0508523 2.02036 0
M  V30 4953 C 492.298 -1.30885 1.44548 0
M  V30 4954 O 491.568 -1.85647 0.625453 0
M  V30 4955 H 490.148 0.0158088 0.746833 0
M  V30 4956 H 492.81 0.743086 1.80178 0
M  V30 4957 H 491.906 -0.027575 3.12088 0
M  V30 4958 N 492.207 -1.54576 0.307264 0
M  V30 4959 C 493.453 -2.0056 -0.300612 0
M  V30 4960 C 493.786 -1.1953 -1.53057 0
M  V30 4961 O 493.061 -0.27337 -1.92569 0
M  V30 4962 C 493.344 -3.54167 -0.650987 0
M  V30 4963 C 493.197 -4.45933 0.588539 0
M  V30 4964 C 494.516 -4.14645 -1.47506 0
M  V30 4965 H 491.635 -0.729075 -0.107788 0
M  V30 4966 H 494.277 -1.85286 0.420606 0
M  V30 4967 H 492.427 -3.67313 -1.26544 0
M  V30 4968 H 494.099 -4.44683 1.22697 0
M  V30 4969 H 492.342 -4.16274 1.22058 0
M  V30 4970 H 493.013 -5.51189 0.299153 0
M  V30 4971 H 495.489 -4.04973 -0.955821 0
M  V30 4972 H 494.365 -5.22269 -1.68899 0
M  V30 4973 H 494.626 -3.66921 -2.4662 0
M  V30 4974 N 493.685 -0.035106 -1.57561 0
M  V30 4975 C 494.933 0.64096 -1.91667 0
M  V30 4976 C 495.254 1.72323 -0.912681 0
M  V30 4977 O 494.524 1.95849 0.0449089 0
M  V30 4978 H 493.104 0.239743 -0.707483 0
M  V30 4979 H 495.766 -0.084321 -1.94718 0
M  V30 4980 H 494.862 1.08987 -2.92452 0
M  V30 4981 N 495.163 1.55791 0.238111 0
M  V30 4982 C 496.409 1.78297 0.966337 0
M  V30 4983 C 496.742 0.601903 1.84637 0
M  V30 4984 O 496.017 -0.399499 1.90353 0
M  V30 4985 C 496.3 3.10758 1.81939 0
M  V30 4986 C 496.153 4.39283 0.966958 0
M  V30 4987 C 497.472 3.39519 2.80027 0
M  V30 4988 H 494.591 0.648654 0.349882 0
M  V30 4989 H 497.233 1.88525 0.236253 0
M  V30 4990 H 495.383 3.02168 2.44185 0
M  V30 4991 H 497.055 4.59873 0.362514 0
M  V30 4992 H 495.298 4.32948 0.271669 0
M  V30 4993 H 495.969 5.28368 1.59784 0
M  V30 4994 H 498.445 3.48128 2.27917 0
M  V30 4995 H 497.321 4.33402 3.36829 0
M  V30 4996 H 497.582 2.60864 3.56934 0
M  V30 4997 N 496.642 -0.504142 1.49319 0
M  V30 4998 C 497.605 -1.5883 1.65244 0
M  V30 4999 C 498.605 -1.52009 0.524386 0
M  V30 5000 O 499.795 -1.55218 0.79077 0
M  V30 5001 C 496.927 -2.98481 1.64687 0
M  V30 5002 H 498.12 -1.4604 2.61939 0
M  V30 5003 H 495.673 -0.728144 1.38303 0
M  V30 5004 H 496.408 -3.16751 0.695644 0
M  V30 5005 H 496.193 -3.0484 2.46607 0
M  V30 5006 H 497.683 -3.77256 1.79075 0
M  V30 5007 N 498.12 -1.38341 -0.754957 0
M  V30 5008 C 499.366 -1.34672 -1.51628 0
M  V30 5009 C 499.699 0.0636036 -1.94096 0
M  V30 5010 O 498.974 1.0245 -1.6533 0
M  V30 5011 C 499.257 -2.30116 -2.76981 0
M  V30 5012 C 499.11 -3.80003 -2.4066 0
M  V30 5013 C 500.429 -2.23715 -3.78998 0
M  V30 5014 H 497.548 -0.490517 -0.550056 0
M  V30 5015 H 500.19 -1.69178 -0.864807 0
M  V30 5016 H 498.34 -2.00821 -3.3257 0
M  V30 5017 H 500.012 -4.19966 -1.90856 0
M  V30 5018 H 498.255 -3.97751 -1.73137 0
M  V30 5019 H 498.926 -4.42244 -3.30339 0
M  V30 5020 H 501.402 -2.49574 -3.32945 0
M  V30 5021 H 500.278 -2.9261 -4.64403 0
M  V30 5022 H 500.539 -1.23554 -4.24484 0
M  V30 5023 N 499.598 0.982988 -1.23187 0
M  V30 5024 C 500.875 1.69814 -0.970707 0
M  V30 5025 C 501.255 2.04811 0.511424 0
M  V30 5026 O 500.603 1.73924 1.48198 0
M  V30 5027 C 500.813 2.94143 -1.87831 0
M  V30 5028 C 502.161 3.66712 -2.14026 0
M  V30 5029 O 503.185 3.04171 -1.8536 0
M  V30 5030 O 502.044 4.79258 -2.62629 0
M  V30 5031 H 499.138 0.741659 -0.365884 0
M  V30 5032 H 501.684 1.03844 -1.34218 0
M  V30 5033 H 500.456 2.64858 -2.88038 0
M  V30 5034 H 500.079 3.6785 -1.50905 0
M  V30 5035 N 501.076 1.04316 1.18135 0
M  V30 5036 C 502.324 0.746542 1.87806 0
M  V30 5037 C 502.645 -0.728082 1.80898 0
M  V30 5038 O 501.915 -1.52554 1.22899 0
M  V30 5039 H 500.495 0.273157 0.695265 0
M  V30 5040 H 503.157 1.32044 1.43354 0
M  V30 5041 H 502.253 1.05362 2.93778 0
M  V30 5042 N 502.554 -1.34406 0.822964 0
M  V30 5043 C 503.965 -1.8069 0.469879 0
M  V30 5044 C 504.316 -1.68223 -1.00972 0
M  V30 5045 O 503.441 -1.22226 -1.78577 0
M  V30 5046 C 504.036 -3.28064 0.846118 0
M  V30 5047 C 502.595 -3.72428 0.545402 0
M  V30 5048 C 501.742 -2.56116 1.06301 0
M  V30 5049 H 504.693 -1.22153 1.01313 0
M  V30 5050 H 504.714 -3.80205 0.149922 0
M  V30 5051 H 504.226 -3.37107 1.92304 0
M  V30 5052 H 502.327 -3.68924 -0.522109 0
M  V30 5053 H 502.44 -4.66548 1.0895 0
M  V30 5054 H 500.804 -2.50048 0.484554 0
M  V30 5055 H 501.587 -2.67928 2.14638 0
M  V30 5056 N 504.032 -0.577932 -1.46621 0
M  V30 5057 C 505.278 -0.0617793 -2.02706 0
M  V30 5058 C 505.611 1.29294 -1.44903 0
M  V30 5059 O 504.886 1.8461 -0.61232 0
M  V30 5060 C 505.169 0.00911824 -3.60099 0
M  V30 5061 C 505.022 -1.37416 -4.28295 0
M  V30 5062 C 506.341 0.712159 -4.343 0
M  V30 5063 H 503.46 -0.0239246 -0.736612 0
M  V30 5064 H 506.102 -0.744211 -1.74818 0
M  V30 5065 H 504.252 0.590292 -3.83989 0
M  V30 5066 H 505.924 -2.00013 -4.15683 0
M  V30 5067 H 504.167 -1.94319 -3.87843 0
M  V30 5068 H 504.838 -1.27707 -5.37024 0
M  V30 5069 H 507.314 0.218486 -4.15526 0
M  V30 5070 H 506.19 0.730782 -5.44014 0
M  V30 5071 H 506.451 1.77251 -4.05012 0
M  V30 5072 N 505.51 1.54411 -0.315457 0
M  V30 5073 C 506.921 1.85885 0.174265 0
M  V30 5074 C 507.272 1.23723 1.52273 0
M  V30 5075 O 506.397 0.540246 2.09548 0
M  V30 5076 C 506.992 3.37257 0.322981 0
M  V30 5077 C 505.551 3.68711 0.756922 0
M  V30 5078 C 504.698 2.77013 -0.126195 0
M  V30 5079 H 507.649 1.49374 -0.536007 0
M  V30 5080 H 507.67 3.62539 1.15522 0
M  V30 5081 H 507.182 3.82471 -0.658602 0
M  V30 5082 H 505.283 3.29024 1.74854 0
M  V30 5083 H 505.396 4.75741 0.566291 0
M  V30 5084 H 503.76 2.51588 0.39692 0
M  V30 5085 H 504.543 3.25051 -1.1044 0
M  V30 5086 N 506.988 0.0434614 1.5754 0
M  V30 5087 C 508.216 -0.641835 1.96693 0
M  V30 5088 C 508.631 -1.64832 0.920652 0
M  V30 5089 O 507.988 -1.82247 -0.095993 0
M  V30 5090 C 508.039 -1.33557 3.35924 0
M  V30 5091 O 507.76 -0.369403 4.3654 0
M  V30 5092 C 509.261 -2.11135 3.89791 0
M  V30 5093 H 506.481 -0.176013 0.647503 0
M  V30 5094 H 509.025 0.107478 2.04217 0
M  V30 5095 H 507.18 -2.03617 3.29574 0
M  V30 5096 H 507.594 -0.863674 5.1734 0
M  V30 5097 H 509.068 -2.55107 4.89514 0
M  V30 5098 H 509.545 -2.95634 3.24803 0
M  V30 5099 H 510.151 -1.46002 3.99454 0
M  V30 5100 N 508.466 -1.55915 -0.229846 0
M  V30 5101 C 509.715 -1.77742 -0.953455 0
M  V30 5102 C 510.028 -0.610524 -1.85828 0
M  V30 5103 O 511.234 -0.712219 -2.61992 0
M  V30 5104 C 509.69 -3.14738 -1.74551 0
M  V30 5105 C 509.298 -4.39126 -0.887242 0
M  V30 5106 C 511.042 -3.45895 -2.46084 0
M  V30 5107 C 508.949 -5.67149 -1.67617 0
M  V30 5108 H 507.879 -0.662648 -0.359741 0
M  V30 5109 H 510.53 -1.82322 -0.207576 0
M  V30 5110 H 508.912 -3.04311 -2.53399 0
M  V30 5111 H 510.086 -4.60588 -0.139892 0
M  V30 5112 H 508.401 -4.15427 -0.284443 0
M  V30 5113 H 510.998 -4.38767 -3.05594 0
M  V30 5114 H 511.341 -2.68007 -3.18556 0
M  V30 5115 H 511.874 -3.57614 -1.74233 0
M  V30 5116 H 508.613 -6.47906 -0.994881 0
M  V30 5117 H 508.133 -5.49763 -2.39836 0
M  V30 5118 H 509.812 -6.07025 -2.23898 0
M  V30 5119 N 509.944 0.496216 -1.49584 0
M  V30 5120 C 511.221 1.25755 -1.49816 0
M  V30 5121 C 511.601 2.09859 -0.228572 0
M  V30 5122 O 510.949 2.14449 0.788908 0
M  V30 5123 C 511.159 2.11017 -2.7798 0
M  V30 5124 C 512.507 2.70047 -3.27658 0
M  V30 5125 O 513.531 2.21281 -2.79129 0
M  V30 5126 O 512.39 3.58834 -4.1219 0
M  V30 5127 H 509.484 0.569322 -0.599834 0
M  V30 5128 H 512.03 0.510094 -1.61852 0
M  V30 5129 H 510.802 1.48879 -3.61871 0
M  V30 5130 H 510.425 2.92947 -2.68827 0
M  V30 5131 N 511.423 1.38739 0.74761 0
M  V30 5132 C 512.648 1.38702 1.54197 0
M  V30 5133 C 513.073 -0.019664 1.8809 0
M  V30 5134 O 512.431 -1.00333 1.51006 0
M  V30 5135 C 512.479 2.25492 2.814 0
M  V30 5136 O 511.583 1.67613 3.76802 0
M  V30 5137 H 510.924 0.472863 0.466151 0
M  V30 5138 H 513.454 1.82577 0.923413 0
M  V30 5139 H 513.464 2.39561 3.30264 0
M  V30 5140 H 512.139 3.27727 2.56062 0
M  V30 5141 H 510.716 1.62718 3.35526 0
M  V30 5142 N 512.901 -0.976442 1.23707 0
M  V30 5143 C 513.831 -2.08749 1.04624 0
M  V30 5144 C 514.812 -1.70057 -0.0380956 0
M  V30 5145 O 515.997 -1.93782 0.127308 0
M  V30 5146 C 513.127 -3.41335 0.640902 0
M  V30 5147 C 512.081 -3.93947 1.67302 0
M  V30 5148 C 511.407 -5.22774 1.12301 0
M  V30 5149 C 512.707 -4.22769 3.06697 0
M  V30 5150 H 514.401 -2.24972 1.97555 0
M  V30 5151 H 511.947 -1.08108 0.951247 0
M  V30 5152 H 513.9 -4.18489 0.494434 0
M  V30 5153 H 512.624 -3.24988 -0.324099 0
M  V30 5154 H 511.283 -3.18941 1.80755 0
M  V30 5155 H 510.931 -5.0278 0.148877 0
M  V30 5156 H 510.631 -5.58942 1.81267 0
M  V30 5157 H 512.155 -6.02546 0.988479 0
M  V30 5158 H 513.569 -4.90659 2.96524 0
M  V30 5159 H 511.966 -4.70147 3.72937 0
M  V30 5160 H 513.036 -3.29885 3.55392 0
M  V30 5161 N 514.379 -1.04941 -1.1758 0
M  V30 5162 C 515.604 -0.778253 -1.92245 0
M  V30 5163 C 516.029 0.659707 -1.76152 0
M  V30 5164 O 515.387 1.45803 -1.07755 0
M  V30 5165 C 515.435 -1.16051 -3.41416 0
M  V30 5166 O 514.539 -0.291153 -4.11371 0
M  V30 5167 H 513.88 -0.285619 -0.599431 0
M  V30 5168 H 516.41 -1.40159 -1.49052 0
M  V30 5169 H 516.42 -1.12619 -3.92149 0
M  V30 5170 H 515.095 -2.208 -3.52449 0
M  V30 5171 H 513.672 -0.385851 -3.70898 0
M  V30 5172 N 515.857 1.33968 -0.830081 0
M  V30 5173 C 516.82 2.27694 -0.26235 0
M  V30 5174 C 517.82 1.50589 0.563876 0
M  V30 5175 O 519.01 1.70028 0.378941 0
M  V30 5176 C 516.142 3.35002 0.63138 0
M  V30 5177 H 517.335 2.79419 -1.08928 0
M  V30 5178 H 514.888 1.44221 -0.602486 0
M  V30 5179 H 515.623 2.88504 1.48109 0
M  V30 5180 H 515.408 3.92079 0.0403276 0
M  V30 5181 H 516.898 4.04897 1.02217 0
M  V30 5182 N 517.335 0.585699 1.46312 0
M  V30 5183 C 518.298 -0.135673 2.28798 0
M  V30 5184 C 519.298 -0.815988 1.38558 0
M  V30 5185 O 520.488 -0.667487 1.60904 0
M  V30 5186 C 517.62 -1.20163 3.1902 0
M  V30 5187 H 518.813 0.589257 2.94054 0
M  V30 5188 H 516.366 0.343794 1.52472 0
M  V30 5189 H 517.101 -1.95804 2.58517 0
M  V30 5190 H 516.886 -0.718282 3.85465 0
M  V30 5191 H 518.376 -1.70749 3.81096 0
M  V30 5192 N 518.813 -1.54241 0.323641 0
M  V30 5193 C 519.743 -2.27289 -0.534993 0
M  V30 5194 C 520.724 -1.28087 -1.11927 0
M  V30 5195 O 521.909 -1.56899 -1.14439 0
M  V30 5196 C 519.039 -3.03075 -1.69596 0
M  V30 5197 C 517.993 -4.09614 -1.24098 0
M  V30 5198 C 517.319 -4.73242 -2.4889 0
M  V30 5199 C 518.619 -5.21087 -0.355789 0
M  V30 5200 H 520.313 -2.99308 0.0743257 0
M  V30 5201 H 517.859 -1.43952 0.0371874 0
M  V30 5202 H 519.812 -3.52907 -2.30293 0
M  V30 5203 H 518.536 -2.28673 -2.33187 0
M  V30 5204 H 517.195 -3.60666 -0.656945 0
M  V30 5205 H 516.843 -3.95455 -3.10845 0
M  V30 5206 H 516.543 -5.45209 -2.19138 0
M  V30 5207 H 518.067 -5.25848 -3.10348 0
M  V30 5208 H 519.481 -5.66675 -0.869042 0
M  V30 5209 H 517.878 -5.9991 -0.151045 0
M  V30 5210 H 518.948 -4.81005 0.613339 0
M  V30 5211 N 520.291 -0.0518155 -1.57515 0
M  V30 5212 C 521.568 0.661727 -1.84067 0
M  V30 5213 C 521.948 1.88999 -0.940351 0
M  V30 5214 O 521.296 2.285 -0.00155404 0
M  V30 5215 C 521.506 1.01841 -3.3381 0
M  V30 5216 C 522.854 1.40043 -4.00841 0
M  V30 5217 O 523.878 1.11073 -3.38439 0
M  V30 5218 O 522.737 1.94111 -5.10865 0
M  V30 5219 H 519.831 0.326702 -0.759733 0
M  V30 5220 H 522.377 -0.0812277 -1.69505 0
M  V30 5221 H 521.149 0.145202 -3.91031 0
M  V30 5222 H 520.772 1.81879 -3.53562 0
M  V30 5223 N 521.769 1.56035 0.221574 0
M  V30 5224 C 522.997 1.8313 0.962864 0
M  V30 5225 C 523.412 0.630934 1.77946 0
M  V30 5226 O 522.769 -0.400519 1.78051 0
M  V30 5227 C 522.82 3.08742 1.88045 0
M  V30 5228 O 522.541 4.24147 1.09686 0
M  V30 5229 C 524.042 3.48824 2.73563 0
M  V30 5230 H 521.262 0.608775 0.282194 0
M  V30 5231 H 523.806 2.03124 0.23681 0
M  V30 5232 H 521.961 2.90723 2.56045 0
M  V30 5233 H 522.375 4.95505 1.71974 0
M  V30 5234 H 523.849 4.39752 3.3365 0
M  V30 5235 H 524.326 2.70575 3.45956 0
M  V30 5236 H 524.932 3.69282 2.10976 0
M  V30 5237 N 523.247 -0.488276 1.49845 0
M  V30 5238 C 524.21 -1.57069 1.66919 0
M  V30 5239 C 525.21 -1.51445 0.540479 0
M  V30 5240 O 526.4 -1.5437 0.807188 0
M  V30 5241 C 523.532 -2.96718 1.67844 0
M  V30 5242 H 524.725 -1.43254 2.63474 0
M  V30 5243 H 522.278 -0.713435 1.39068 0
M  V30 5244 H 523.013 -3.15996 0.7292 0
M  V30 5245 H 522.798 -3.02208 2.49826 0
M  V30 5246 H 524.288 -3.75335 1.83066 0
M  V30 5247 N 524.725 -1.39134 -0.740242 0
M  V30 5248 C 525.655 -1.40165 -1.86751 0
M  V30 5249 C 526.636 -0.265708 -1.68012 0
M  V30 5250 O 527.821 -0.47076 -1.88408 0
M  V30 5251 C 524.951 -1.2392 -3.2444 0
M  V30 5252 C 523.905 -2.34858 -3.57807 0
M  V30 5253 C 523.231 -2.03707 -4.94376 0
M  V30 5254 C 524.531 -3.77159 -3.61315 0
M  V30 5255 H 526.225 -2.345 -1.86145 0
M  V30 5256 H 523.771 -1.12875 -0.89416 0
M  V30 5257 H 525.724 -1.23263 -4.02969 0
M  V30 5258 H 524.448 -0.26051 -3.25559 0
M  V30 5259 H 523.107 -2.34723 -2.81604 0
M  V30 5260 H 522.755 -1.04289 -4.9207 0
M  V30 5261 H 522.455 -2.78016 -5.17669 0
M  V30 5262 H 523.979 -2.04691 -5.75268 0
M  V30 5263 H 525.393 -3.79252 -4.29931 0
M  V30 5264 H 523.79 -4.50784 -3.96124 0
M  V30 5265 H 524.86 -4.08513 -2.61238 0
M  V30 5266 N 526.204 0.969867 -1.24223 0
M  V30 5267 C 527.167 2.04564 -1.03373 0
M  V30 5268 C 528.167 1.60798 0.00819206 0
M  V30 5269 O 529.357 1.72641 -0.232567 0
M  V30 5270 C 526.489 3.36163 -0.566343 0
M  V30 5271 H 527.682 2.24494 -1.98853 0
M  V30 5272 H 525.235 1.1448 -1.06415 0
M  V30 5273 H 525.97 3.21925 0.391751 0
M  V30 5274 H 525.755 3.69273 -1.31834 0
M  V30 5275 H 527.245 4.1526 -0.441435 0
M  V30 5276 N 527.682 1.05563 1.17022 0
M  V30 5277 C 529.093 0.793475 1.69 0
M  V30 5278 C 529.444 -0.683882 1.83895 0
M  V30 5279 O 528.569 -1.53116 1.5292 0
M  V30 5280 C 529.164 1.43376 3.06967 0
M  V30 5281 C 527.723 1.21956 3.56095 0
M  V30 5282 C 526.87 1.51494 2.3226 0
M  V30 5283 H 529.821 1.22008 1.01487 0
M  V30 5284 H 529.842 0.845068 3.70997 0
M  V30 5285 H 529.354 2.50899 2.96093 0
M  V30 5286 H 527.455 0.163749 3.7224 0
M  V30 5287 H 527.568 1.92713 4.38633 0
M  V30 5288 H 525.932 0.935175 2.3691 0
M  V30 5289 H 526.715 2.60159 2.23992 0
M  V30 5290 N 529.16 -1.33526 0.837174 0
M  V30 5291 C 530.07 -2.33023 0.271568 0
M  V30 5292 C 531.086 -1.63272 -0.601514 0
M  V30 5293 O 532.262 -1.94939 -0.506038 0
M  V30 5294 C 529.327 -3.42382 -0.545448 0
M  V30 5295 C 528.388 -4.27857 0.351709 0
M  V30 5296 C 527.621 -5.31994 -0.426409 0
M  V30 5297 O 527.844 -5.45763 -1.65828 0
M  V30 5298 O 526.778 -6.01572 0.1987 0
M  V30 5299 H 530.604 -2.83256 1.09545 0
M  V30 5300 H 528.189 -1.36837 0.599655 0
M  V30 5301 H 530.071 -4.09122 -1.00979 0
M  V30 5302 H 528.746 -2.94369 -1.34641 0
M  V30 5303 H 527.653 -3.6399 0.863853 0
M  V30 5304 H 528.986 -4.79349 1.1174 0
M  V30 5305 N 530.638 -0.59345 -1.46 0
M  V30 5306 C 531.887 -0.0808084 -2.01538 0
M  V30 5307 C 532.2 1.29112 -1.46934 0
M  V30 5308 O 533.406 1.8957 -1.94359 0
M  V30 5309 C 531.862 -0.0938311 -3.59778 0
M  V30 5310 C 531.47 -1.46474 -4.23379 0
M  V30 5311 C 533.214 0.364306 -4.22934 0
M  V30 5312 C 531.121 -1.4349 -5.73729 0
M  V30 5313 H 530.051 -0.0264407 -0.753536 0
M  V30 5314 H 532.702 -0.746689 -1.67621 0
M  V30 5315 H 531.084 0.638427 -3.9082 0
M  V30 5316 H 532.258 -2.21758 -4.03931 0
M  V30 5317 H 530.573 -1.86379 -3.7236 0
M  V30 5318 H 533.17 0.405584 -5.3316 0
M  V30 5319 H 533.513 1.38409 -3.92618 0
M  V30 5320 H 534.046 -0.31423 -3.96557 0
M  V30 5321 H 530.785 -2.43184 -6.08722 0
M  V30 5322 H 530.305 -0.724431 -5.95409 0
M  V30 5323 H 531.984 -1.15243 -6.36654 0
M  V30 5324 N 532.116 1.54067 -0.331816 0
M  V30 5325 C 533.532 1.59587 0.0205388 0
M  V30 5326 C 533.732 1.34813 1.49759 0
M  V30 5327 O 532.788 1.13661 2.25471 0
M  V30 5328 C 534.101 2.97959 -0.405103 0
M  V30 5329 C 535.649 3.10964 -0.356454 0
M  V30 5330 C 536.124 4.51694 -0.757384 0
M  V30 5331 N 537.615 4.57709 -0.71111 0
M  V30 5332 C 538.35 5.64729 -0.993427 0
M  V30 5333 N 537.846 6.79652 -1.3433 0
M  V30 5334 N 539.639 5.54546 -0.918442 0
M  V30 5335 H 531.79 1.68426 -1.29407 0
M  V30 5336 H 534.053 0.78819 -0.526745 0
M  V30 5337 H 533.759 3.21115 -1.43451 0
M  V30 5338 H 533.633 3.76524 0.225692 0
M  V30 5339 H 536.02 2.87538 0.663763 0
M  V30 5340 H 536.101 2.34484 -1.02229 0
M  V30 5341 H 535.745 4.75853 -1.77555 0
M  V30 5342 H 535.675 5.26555 -0.0691444 0
M  V30 5343 H 538.166 3.75176 -0.452883 0
M  V30 5344 H 538.479 7.57221 -1.54388 0
M  V30 5345 H 536.824 6.81128 -1.38164 0
M  V30 5346 H 540.015 4.63641 -0.644536 0
M  V30 5347 H 540.188 6.37861 -1.14181 0
M  V30 5348 N 533.594 0.0601682 1.57485 0
M  V30 5349 C 534.557 -0.896373 2.10945 0
M  V30 5350 C 535.557 -1.23402 1.03095 0
M  V30 5351 O 536.747 -1.16921 1.29132 0
M  V30 5352 C 533.879 -2.20346 2.60116 0
M  V30 5353 H 535.072 -0.432778 2.96761 0
M  V30 5354 H 532.625 -0.188372 1.55161 0
M  V30 5355 H 533.36 -2.71268 1.7772 0
M  V30 5356 H 533.145 -1.9714 3.38937 0
M  V30 5357 H 534.635 -2.88846 3.01592 0
M  V30 5358 N 535.072 -1.5615 -0.213296 0
M  V30 5359 C 536.488 -1.49327 -0.56336 0
M  V30 5360 C 536.688 -0.756826 -1.86747 0
M  V30 5361 O 535.744 -0.299866 -2.50713 0
M  V30 5362 C 537.057 -2.9392 -0.634944 0
M  V30 5363 C 538.605 -3.04487 -0.725013 0
M  V30 5364 C 539.08 -4.50456 -0.82787 0
M  V30 5365 N 540.571 -4.54533 -0.891876 0
M  V30 5366 C 541.306 -5.64766 -0.991315 0
M  V30 5367 N 540.802 -6.84733 -1.05419 0
M  V30 5368 N 542.595 -5.52637 -1.02709 0
M  V30 5369 H 534.746 -2.02453 0.642366 0
M  V30 5370 H 537.009 -0.920548 0.226487 0
M  V30 5371 H 536.715 -3.50783 0.253859 0
M  V30 5372 H 536.589 -3.46274 -1.49579 0
M  V30 5373 H 538.976 -2.47685 -1.60425 0
M  V30 5374 H 539.057 -2.55289 0.161669 0
M  V30 5375 H 538.701 -5.07878 0.0469464 0
M  V30 5376 H 538.631 -4.97369 -1.73009 0
M  V30 5377 H 541.122 -3.68141 -0.85327 0
M  V30 5378 H 541.435 -7.64493 -1.13007 0
M  V30 5379 H 539.78 -6.87427 -1.02318 0
M  V30 5380 H 542.971 -4.5784 -0.974687 0
M  V30 5381 H 543.144 -6.38576 -1.10113 0
M  V30 5382 N 536.55 0.480323 -1.50102 0
M  V30 5383 C 537.513 1.56181 -1.6775 0
M  V30 5384 C 538.513 1.51156 -0.548503 0
M  V30 5385 O 539.703 1.5394 -0.815363 0
M  V30 5386 C 536.835 2.95823 -1.69415 0
M  V30 5387 H 538.028 1.41855 -2.6423 0
M  V30 5388 H 535.581 0.70605 -1.39444 0
M  V30 5389 H 536.316 3.15604 -0.745948 0
M  V30 5390 H 536.101 3.00878 -2.51425 0
M  V30 5391 H 537.591 3.74359 -1.85054 0
M  V30 5392 N 538.028 1.39524 0.732853 0
M  V30 5393 C 539.256 1.40143 1.52209 0
M  V30 5394 C 539.671 -0.00348836 1.888 0
M  V30 5395 O 539.028 -0.975357 1.5425 0
M  V30 5396 C 539.079 2.27632 2.8083 0
M  V30 5397 O 538.8 3.62654 2.45792 0
M  V30 5398 C 540.301 2.36658 3.74844 0
M  V30 5399 H 537.521 0.478604 0.470297 0
M  V30 5400 H 540.065 1.83366 0.905388 0
M  V30 5401 H 538.22 1.87818 3.38826 0
M  V30 5402 H 538.634 4.08941 3.28431 0
M  V30 5403 H 540.108 3.02118 4.61984 0
M  V30 5404 H 540.585 1.38638 4.16745 0
M  V30 5405 H 541.191 2.76951 3.22766 0
M  V30 5406 N 539.506 -0.963266 1.24736 0
M  V30 5407 C 540.734 -1.74166 1.11686 0
M  V30 5408 C 541.149 -1.8589 -0.330187 0
M  V30 5409 O 540.506 -1.35042 -1.2276 0
M  V30 5410 C 540.557 -3.15989 1.75595 0
M  V30 5411 O 540.278 -3.04847 3.14642 0
M  V30 5412 C 541.779 -4.10145 1.68213 0
M  V30 5413 H 538.999 -0.546031 0.389989 0
M  V30 5414 H 541.543 -1.20907 1.64929 0
M  V30 5415 H 539.698 -3.66219 1.26343 0
M  V30 5416 H 540.112 -3.9425 3.4593 0
M  V30 5417 H 541.586 -5.07299 2.17604 0
M  V30 5418 H 542.063 -4.3445 0.644208 0
M  V30 5419 H 542.669 -3.65827 2.16912 0
M  V30 5420 N 540.985 -1.06182 -1.16461 0
M  V30 5421 C 542.231 -0.779015 -1.87241 0
M  V30 5422 C 542.564 0.692715 -1.81425 0
M  V30 5423 O 541.839 1.5074 -1.22913 0
M  V30 5424 C 542.122 -1.2728 -3.36856 0
M  V30 5425 C 541.975 -2.80821 -3.51368 0
M  V30 5426 C 543.294 -0.879799 -4.31216 0
M  V30 5427 H 540.413 -0.284464 -0.679889 0
M  V30 5428 H 543.055 -1.31755 -1.36896 0
M  V30 5429 H 541.205 -0.814673 -3.79862 0
M  V30 5430 H 542.877 -3.34833 -3.17308 0
M  V30 5431 H 541.12 -3.19606 -2.93316 0
M  V30 5432 H 541.791 -3.10435 -4.56436 0
M  V30 5433 H 544.267 -1.27436 -3.96105 0
M  V30 5434 H 543.143 -1.25278 -5.34412 0
M  V30 5435 H 543.404 0.215372 -4.41575 0
M  V30 5436 N 542.463 1.3308 -0.844243 0
M  V30 5437 C 543.426 2.27403 -0.286485 0
M  V30 5438 C 544.426 1.51179 0.547872 0
M  V30 5439 O 545.616 1.70421 0.360886 0
M  V30 5440 C 542.748 3.35653 0.595813 0
M  V30 5441 H 543.941 2.78248 -1.11885 0
M  V30 5442 H 541.494 1.43574 -0.617749 0
M  V30 5443 H 542.229 2.90058 1.4504 0
M  V30 5444 H 542.014 3.921 -0.00125994 0
M  V30 5445 H 543.504 4.05958 0.979168 0
M  V30 5446 N 543.941 0.601185 1.45683 0
M  V30 5447 C 545.218 0.0261659 1.95582 0
M  V30 5448 C 545.598 -1.4399 1.5437 0
M  V30 5449 O 544.946 -2.13919 0.80318 0
M  V30 5450 C 545.156 0.217557 3.48321 0
M  V30 5451 C 546.504 0.0950076 4.24494 0
M  V30 5452 O 547.528 0.147345 3.55895 0
M  V30 5453 O 546.387 -0.025261 5.46494 0
M  V30 5454 H 543.481 -0.0393688 0.826062 0
M  V30 5455 H 546.027 0.670798 1.55879 0
M  V30 5456 H 544.799 1.23601 3.71266 0
M  V30 5457 H 544.422 -0.46264 3.94899 0
M  V30 5458 N 545.419 -1.53889 0.339982 0
M  V30 5459 C 546.647 -2.05271 -0.259114 0
M  V30 5460 C 547.062 -1.21517 -1.44496 0
M  V30 5461 O 546.419 -0.24966 -1.80784 0
M  V30 5462 C 546.47 -3.55092 -0.677634 0
M  V30 5463 O 546.191 -4.35667 0.461051 0
M  V30 5464 C 547.692 -4.22631 -1.33782 0
M  V30 5465 H 544.912 -0.669085 -0.0506566 0
M  V30 5466 H 547.456 -1.9852 0.490935 0
M  V30 5467 H 545.611 -3.62077 -1.37763 0
M  V30 5468 H 546.025 -5.24343 0.128144 0
M  V30 5469 H 547.499 -5.28861 -1.58145 0
M  V30 5470 H 547.976 -3.74758 -2.29027 0
M  V30 5471 H 548.582 -4.19829 -0.679957 0
M  V30 5472 N 546.897 -0.0685191 -1.57451 0
M  V30 5473 C 548.146 0.600898 -1.92541 0
M  V30 5474 C 548.459 1.70967 -0.950239 0
M  V30 5475 O 549.665 2.43844 -1.19384 0
M  V30 5476 C 548.121 1.12019 -3.42023 0
M  V30 5477 C 547.729 0.0426028 -4.4798 0
M  V30 5478 C 549.473 1.76386 -3.86119 0
M  V30 5479 C 547.38 0.575759 -5.88591 0
M  V30 5480 H 546.31 0.228225 -0.71863 0
M  V30 5481 H 548.961 -0.140223 -1.82963 0
M  V30 5482 H 547.343 1.91418 -3.46663 0
M  V30 5483 H 548.517 -0.73182 -4.54952 0
M  V30 5484 H 546.832 -0.504642 -4.13331 0
M  V30 5485 H 549.429 2.17302 -4.88553 0
M  V30 5486 H 549.772 2.62255 -3.23308 0
M  V30 5487 H 550.305 1.03615 -3.84069 0
M  V30 5488 H 547.044 -0.245691 -6.55039 0
M  V30 5489 H 546.564 1.31778 -5.85145 0
M  V30 5490 H 548.243 1.0532 -6.3837 0
M  V30 5491 N 548.375 1.56261 0.205012 0
M  V30 5492 C 549.791 1.49623 0.555433 0
M  V30 5493 C 549.991 0.766719 1.86343 0
M  V30 5494 O 549.047 0.313158 2.50551 0
M  V30 5495 C 550.36 2.94253 0.619347 0
M  V30 5496 C 551.908 3.04868 0.708855 0
M  V30 5497 C 552.383 4.50888 0.803969 0
M  V30 5498 N 553.874 4.54999 0.867758 0
M  V30 5499 C 554.609 5.65284 0.96135 0
M  V30 5500 N 554.105 6.85282 1.01786 0
M  V30 5501 N 555.898 5.53174 0.997771 0
M  V30 5502 H 548.049 2.0211 -0.653094 0
M  V30 5503 H 550.312 0.919333 -0.231366 0
M  V30 5504 H 550.018 3.50643 -0.272458 0
M  V30 5505 H 549.892 3.47063 1.47741 0
M  V30 5506 H 552.279 2.48532 1.5911 0
M  V30 5507 H 552.36 2.55199 -0.175205 0
M  V30 5508 H 552.004 5.07846 -0.0738798 0
M  V30 5509 H 551.934 4.98279 1.70369 0
M  V30 5510 H 554.425 3.68588 0.833735 0
M  V30 5511 H 554.738 7.65081 1.08951 0
M  V30 5512 H 553.083 6.8796 0.986706 0
M  V30 5513 H 556.274 4.5835 0.950392 0
M  V30 5514 H 556.447 6.39151 1.06725 0
M  V30 5515 N 549.853 -0.472356 1.50355 0
M  V30 5516 C 550.816 -1.5529 1.68576 0
M  V30 5517 C 551.816 -1.50863 0.556511 0
M  V30 5518 O 553.006 -1.53505 0.823516 0
M  V30 5519 C 550.138 -2.94921 1.70981 0
M  V30 5520 H 551.331 -1.40451 2.64978 0
M  V30 5521 H 548.884 -0.698645 1.39816 0
M  V30 5522 H 549.619 -3.15204 0.762675 0
M  V30 5523 H 549.404 -2.99541 2.53017 0
M  V30 5524 H 550.894 -3.73372 1.87037 0
M  V30 5525 N 551.331 -1.39911 -0.725443 0
M  V30 5526 C 552.608 -1.28158 -1.47766 0
M  V30 5527 C 552.988 0.104545 -2.10841 0
M  V30 5528 O 552.336 1.11657 -1.99361 0
M  V30 5529 C 552.546 -2.41306 -2.52135 0
M  V30 5530 C 553.894 -2.81076 -3.18247 0
M  V30 5531 O 554.918 -2.40827 -2.62452 0
M  V30 5532 O 553.777 -3.50581 -4.19231 0
M  V30 5533 H 550.871 -0.502761 -0.656628 0
M  V30 5534 H 553.417 -1.51808 -0.758456 0
M  V30 5535 H 552.189 -3.33932 -2.03974 0
M  V30 5536 H 551.812 -2.19374 -3.31603 0
M  V30 5537 N 552.809 0.956637 -1.25245 0
M  V30 5538 C 554.057 1.69764 -1.09657 0
M  V30 5539 C 554.378 1.91583 0.363464 0
M  V30 5540 O 553.648 1.50149 1.25825 0
M  V30 5541 H 552.228 0.629097 -0.402798 0
M  V30 5542 H 554.89 1.15026 -1.57337 0
M  V30 5543 H 553.986 2.67769 -1.60331 0
M  V30 5544 N 554.287 1.06798 1.15896 0
M  V30 5545 C 555.515 0.808694 1.90441 0
M  V30 5546 C 555.93 -0.637506 1.77711 0
M  V30 5547 O 555.287 -1.43684 1.12522 0
M  V30 5548 C 555.338 1.20068 3.40978 0
M  V30 5549 O 555.059 2.59013 3.53333 0
M  V30 5550 C 556.56 0.96987 4.3256 0
M  V30 5551 H 553.78 0.292809 0.603742 0
M  V30 5552 H 556.324 1.42296 1.46874 0
M  V30 5553 H 554.479 0.630842 3.82229 0
M  V30 5554 H 554.893 2.7485 4.46719 0
M  V30 5555 H 556.367 1.29371 5.36626 0
M  V30 5556 H 556.844 -0.0941209 4.39099 0
M  V30 5557 H 557.45 1.52433 3.97044 0
M  V30 5558 N 555.766 -1.3263 0.851289 0
M  V30 5559 C 556.994 -2.01563 0.466899 0
M  V30 5560 C 557.409 -1.63996 -0.935447 0
M  V30 5561 O 556.766 -0.85957 -1.6099 0
M  V30 5562 C 556.817 -3.56613 0.592433 0
M  V30 5563 O 556.538 -3.92828 1.93954 0
M  V30 5564 C 558.039 -4.42818 0.206612 0
M  V30 5565 H 555.259 -0.645307 0.183902 0
M  V30 5566 H 557.803 -1.69285 1.1473 0
M  V30 5567 H 555.958 -3.87379 -0.0401936 0
M  V30 5568 H 556.372 -4.87545 1.9339 0
M  V30 5569 H 557.846 -5.50918 0.345462 0
M  V30 5570 H 558.323 -4.30844 -0.85264 0
M  V30 5571 H 558.929 -4.17434 0.814176 0
M  V30 5572 N 557.244 -0.608902 -1.45362 0
M  V30 5573 C 558.49 -0.104762 -2.02529 0
M  V30 5574 C 558.823 1.26191 -1.47613 0
M  V30 5575 O 558.098 1.8327 -0.65134 0
M  V30 5576 C 558.381 -0.0672661 -3.60037 0
M  V30 5577 C 558.234 -1.4647 -4.25284 0
M  V30 5578 C 559.553 0.619877 -4.35713 0
M  V30 5579 H 556.672 -0.0395438 -0.735938 0
M  V30 5580 H 559.314 -0.781126 -1.73201 0
M  V30 5581 H 557.464 0.50871 -3.85155 0
M  V30 5582 H 559.136 -2.08785 -4.11347 0
M  V30 5583 H 557.379 -2.02502 -3.83634 0
M  V30 5584 H 558.05 -1.39069 -5.34195 0
M  V30 5585 H 560.526 0.130297 -4.15896 0
M  V30 5586 H 559.402 0.615224 -5.45441 0
M  V30 5587 H 559.663 1.68621 -4.0868 0
M  V30 5588 N 558.722 1.53707 -0.348139 0
M  V30 5589 C 559.685 2.23812 0.494058 0
M  V30 5590 C 560.685 1.23989 1.02388 0
M  V30 5591 O 561.875 1.48395 0.912396 0
M  V30 5592 C 559.007 2.96133 1.68872 0
M  V30 5593 H 560.2 2.99663 -0.119141 0
M  V30 5594 H 557.753 1.55983 -0.0995539 0
M  V30 5595 H 558.488 2.24481 2.34049 0
M  V30 5596 H 558.273 3.69357 1.31596 0
M  V30 5597 H 559.763 3.49475 2.28597 0
M  V30 5598 N 560.2 0.0768682 1.57412 0
M  V30 5599 C 561.163 -0.873949 2.11884 0
M  V30 5600 C 562.163 -1.22301 1.04398 0
M  V30 5601 O 563.353 -1.15545 1.30365 0
M  V30 5602 C 560.485 -2.17575 2.62438 0
M  V30 5603 H 561.678 -0.401278 2.97203 0
M  V30 5604 H 559.231 -0.171904 1.55352 0
M  V30 5605 H 559.966 -2.69368 1.80587 0
M  V30 5606 H 559.751 -1.93534 3.41009 0
M  V30 5607 H 561.241 -2.85631 3.04639 0
M  V30 5608 N 561.678 -1.56367 -0.196722 0
M  V30 5609 C 562.61 -1.90941 -1.26784 0
M  V30 5610 C 563.623 -0.799928 -1.41792 0
M  V30 5611 O 564.812 -1.07833 -1.42247 0
M  V30 5612 C 561.912 -2.12477 -2.6402 0
M  V30 5613 C 561.085 -3.43616 -2.70641 0
M  V30 5614 C 560.144 -3.54284 -3.89062 0
M  V30 5615 O 559.17 -4.2712 -3.76241 0
M  V30 5616 N 560.372 -2.87252 -5.04447 0
M  V30 5617 H 563.137 -2.83417 -0.974417 0
M  V30 5618 H 560.698 -1.57215 -0.386649 0
M  V30 5619 H 562.69 -2.16904 -3.41665 0
M  V30 5620 H 561.26 -1.26508 -2.85857 0
M  V30 5621 H 560.48 -3.51072 -1.79283 0
M  V30 5622 H 561.768 -4.29958 -2.72054 0
M  V30 5623 H 561.166 -2.27901 -5.17762 0
M  V30 5624 H 559.723 -2.97308 -5.80044 0
M  V30 5625 N 563.156 0.464375 -1.50603 0
M  V30 5626 C 564.086 1.56944 -1.72889 0
M  V30 5627 C 565.067 1.59979 -0.577997 0
M  V30 5628 O 566.252 1.76138 -0.817855 0
M  V30 5629 C 563.382 2.95225 -1.8292 0
M  V30 5630 C 562.336 3.07056 -2.98162 0
M  V30 5631 C 561.662 4.47051 -2.93343 0
M  V30 5632 C 562.962 2.83648 -4.38567 0
M  V30 5633 H 564.656 1.38547 -2.65415 0
M  V30 5634 H 562.202 0.665082 -1.27721 0
M  V30 5635 H 564.155 3.72467 -1.97095 0
M  V30 5636 H 562.879 3.14793 -0.870209 0
M  V30 5637 H 561.538 2.32248 -2.83648 0
M  V30 5638 H 561.186 4.63547 -1.95276 0
M  V30 5639 H 560.886 4.55902 -3.70712 0
M  V30 5640 H 562.41 5.26304 -3.09575 0
M  V30 5641 H 563.824 3.50636 -4.53572 0
M  V30 5642 H 562.221 3.03937 -5.17438 0
M  V30 5643 H 563.291 1.79451 -4.50472 0
M  V30 5644 N 564.634 1.40294 0.718013 0
M  V30 5645 C 565.564 1.43118 1.84498 0
M  V30 5646 C 566.545 0.292403 1.67568 0
M  V30 5647 O 567.73 0.500675 1.87635 0
M  V30 5648 C 564.86 1.29065 3.22427 0
M  V30 5649 C 563.814 2.40521 3.54025 0
M  V30 5650 C 563.14 2.11546 4.91073 0
M  V30 5651 C 564.44 3.82859 3.55269 0
M  V30 5652 H 566.134 2.37432 1.82391 0
M  V30 5653 H 563.68 1.14283 0.87609 0
M  V30 5654 H 565.633 1.29658 4.00957 0
M  V30 5655 H 564.357 0.312271 3.25104 0
M  V30 5656 H 563.016 2.39173 2.77834 0
M  V30 5657 H 562.664 1.12104 4.90348 0
M  V30 5658 H 562.364 2.86216 5.1318 0
M  V30 5659 H 563.888 2.13817 5.71939 0
M  V30 5660 H 565.302 3.86044 4.23843 0
M  V30 5661 H 563.699 4.57029 3.88902 0
M  V30 5662 H 564.769 4.12617 2.54706 0
M  V30 5663 N 566.112 -0.949982 1.2575 0
M  V30 5664 C 567.359 -1.69515 1.10774 0
M  V30 5665 C 567.687 -1.91316 -0.350479 0
M  V30 5666 O 566.942 -1.48515 -1.27443 0
M  V30 5667 C 567.241 -3.08039 1.81237 0
M  V30 5668 C 566.907 -3.06023 3.31151 0
M  V30 5669 C 565.569 -3.0518 3.72047 0
M  V30 5670 C 567.921 -2.98998 4.26907 0
M  V30 5671 C 565.249 -2.95067 5.07102 0
M  V30 5672 C 567.601 -2.90426 5.61992 0
M  V30 5673 C 566.265 -2.87922 6.0221 0
M  V30 5674 H 565.535 -0.6203 0.405351 0
M  V30 5675 H 568.182 -1.10953 1.56082 0
M  V30 5676 H 566.487 -3.70172 1.28373 0
M  V30 5677 H 568.184 -3.64526 1.67098 0
M  V30 5678 H 564.774 -3.07453 2.98614 0
M  V30 5679 H 568.958 -2.98764 3.963 0
M  V30 5680 H 564.214 -2.915 5.37436 0
M  V30 5681 H 568.388 -2.83952 6.35881 0
M  V30 5682 H 566.015 -2.79841 7.06819 0
M  V30 5683 N 567.59 -1.07411 -1.15328 0
M  V30 5684 C 568.867 -0.710732 -1.82231 0
M  V30 5685 C 569.247 0.806732 -1.95077 0
M  V30 5686 O 568.595 1.72139 -1.50268 0
M  V30 5687 C 568.805 -1.42586 -3.18544 0
M  V30 5688 C 570.153 -1.57836 -3.94174 0
M  V30 5689 O 571.177 -1.38669 -3.281 0
M  V30 5690 O 570.036 -1.8938 -5.12638 0
M  V30 5691 H 567.13 -0.25297 -0.78736 0
M  V30 5692 H 569.676 -1.17508 -1.22434 0
M  V30 5693 H 568.448 -2.46008 -3.04296 0
M  V30 5694 H 568.071 -0.952332 -3.86026 0
M  V30 5695 N 569.068 1.32177 -0.85831 0
M  V30 5696 C 570.031 2.27086 -0.310588 0
M  V30 5697 C 571.031 1.51751 0.531806 0
M  V30 5698 O 572.221 1.70794 0.34279 0
M  V30 5699 C 569.353 3.36266 0.560179 0
M  V30 5700 H 570.546 2.77045 -1.1483 0
M  V30 5701 H 568.099 1.42911 -0.632942 0
M  V30 5702 H 568.834 2.9158 1.41956 0
M  V30 5703 H 568.619 3.92077 -0.0428473 0
M  V30 5704 H 570.109 4.06974 0.936056 0
M  V30 5705 N 570.547 0.616602 1.45037 0
M  V30 5706 C 571.793 0.115501 2.02471 0
M  V30 5707 C 572.126 -1.25406 1.4828 0
M  V30 5708 O 571.401 -1.82922 0.661051 0
M  V30 5709 C 571.684 0.0863588 3.59996 0
M  V30 5710 C 571.537 1.48723 4.24501 0
M  V30 5711 C 572.856 -0.596762 4.36035 0
M  V30 5712 H 569.975 0.0434461 0.735718 0
M  V30 5713 H 572.617 0.7903 1.72784 0
M  V30 5714 H 570.767 -0.488277 3.85419 0
M  V30 5715 H 572.439 2.10964 4.10234 0
M  V30 5716 H 570.682 2.04534 3.82555 0
M  V30 5717 H 571.353 1.419 5.3345 0
M  V30 5718 H 573.829 -0.10824 4.15959 0
M  V30 5719 H 572.705 -0.586289 5.4576 0
M  V30 5720 H 572.966 -1.66451 4.09569 0
M  V30 5721 N 572.025 -1.5352 0.356285 0
M  V30 5722 C 573.25 -2.06007 -0.239961 0
M  V30 5723 C 573.675 -1.22872 -1.42422 0
M  V30 5724 O 573.033 -0.245516 -1.7963 0
M  V30 5725 C 573.081 -3.5522 -0.620587 0
M  V30 5726 O 572.185 -3.74864 -1.71902 0
M  V30 5727 H 571.526 -0.662961 -0.0371377 0
M  V30 5728 H 574.056 -1.98033 0.514194 0
M  V30 5729 H 574.066 -3.98081 -0.894197 0
M  V30 5730 H 572.741 -4.15175 0.245407 0
M  V30 5731 H 571.318 -3.43904 -1.44169 0
M  V30 5732 N 573.503 -0.0852151 -1.57369 0
M  V30 5733 C 574.433 0.874556 -2.16503 0
M  V30 5734 C 575.414 1.30111 -1.09568 0
M  V30 5735 O 576.599 1.36977 -1.37662 0
M  V30 5736 C 573.729 2.13731 -2.73745 0
M  V30 5737 C 572.683 1.84971 -3.85966 0
M  V30 5738 C 572.009 3.17991 -4.29867 0
M  V30 5739 C 573.309 1.14442 -5.09608 0
M  V30 5740 H 575.003 0.381899 -2.96954 0
M  V30 5741 H 572.549 0.18225 -1.42842 0
M  V30 5742 H 574.502 2.81302 -3.13763 0
M  V30 5743 H 573.226 2.65263 -1.90534 0
M  V30 5744 H 571.885 1.19801 -3.46473 0
M  V30 5745 H 571.533 3.6739 -3.4356 0
M  V30 5746 H 571.233 2.99534 -5.05523 0
M  V30 5747 H 572.757 3.86737 -4.72511 0
M  V30 5748 H 574.171 1.72105 -5.46857 0
M  V30 5749 H 572.568 1.06197 -5.90629 0
M  V30 5750 H 573.638 0.12559 -4.84737 0
M  V30 5751 N 574.981 1.5647 0.188427 0
M  V30 5752 C 575.891 1.98285 1.2538 0
M  V30 5753 C 576.907 0.891535 1.49424 0
M  V30 5754 O 578.083 1.19782 1.61908 0
M  V30 5755 C 575.148 2.31965 2.57669 0
M  V30 5756 C 574.209 3.54838 2.41638 0
M  V30 5757 C 573.442 3.86901 3.67618 0
M  V30 5758 O 573.665 3.20163 4.72072 0
M  V30 5759 O 572.599 4.80309 3.62749 0
M  V30 5760 H 576.425 2.89145 0.928912 0
M  V30 5761 H 574.01 1.44112 0.393955 0
M  V30 5762 H 575.892 2.54673 3.35737 0
M  V30 5763 H 574.567 1.44271 2.89771 0
M  V30 5764 H 573.474 3.37369 1.61658 0
M  V30 5765 H 574.807 4.43019 2.14465 0
M  V30 5766 N 576.459 -0.456382 1.50847 0
M  V30 5767 C 577.406 -1.55249 1.70782 0
M  V30 5768 C 578.376 -1.56757 0.549231 0
M  V30 5769 O 579.561 -1.74061 0.7815 0
M  V30 5770 C 576.701 -2.93118 1.82143 0
M  V30 5771 C 575.814 -3.01285 3.09598 0
M  V30 5772 C 574.949 -4.30159 3.11667 0
M  V30 5773 C 573.988 -4.32124 4.33515 0
M  V30 5774 N 573.125 -5.52492 4.3324 0
M  V30 5775 H 577.965 -1.37555 2.64353 0
M  V30 5776 H 575.502 -0.668543 1.3103 0
M  V30 5777 H 577.46 -3.73088 1.86711 0
M  V30 5778 H 576.09 -3.09413 0.919978 0
M  V30 5779 H 575.142 -2.14096 3.14431 0
M  V30 5780 H 576.454 -2.98597 3.99551 0
M  V30 5781 H 575.608 -5.18489 3.15046 0
M  V30 5782 H 574.347 -4.35477 2.1957 0
M  V30 5783 H 573.352 -3.42189 4.30333 0
M  V30 5784 H 574.577 -4.28485 5.26856 0
M  V30 5785 H 572.523 -5.58567 3.44004 0
M  V30 5786 H 572.44 -5.51605 5.16979 0
M  V30 5787 H 573.708 -6.42906 4.40786 0
M  V30 5788 N 577.937 -1.40673 -0.710563 0
M  V30 5789 C 579.348 -1.34975 -1.28991 0
M  V30 5790 C 579.699 -0.0256272 -1.96183 0
M  V30 5791 O 578.824 0.876339 -1.97862 0
M  V30 5792 C 579.419 -2.44467 -2.34567 0
M  V30 5793 C 577.978 -2.42213 -2.88114 0
M  V30 5794 C 577.125 -2.25085 -1.61963 0
M  V30 5795 H 580.076 -1.50406 -0.506343 0
M  V30 5796 H 580.097 -2.12663 -3.15523 0
M  V30 5797 H 579.609 -3.40825 -1.85634 0
M  V30 5798 H 577.71 -1.49568 -3.41263 0
M  V30 5799 H 577.823 -3.37983 -3.39565 0
M  V30 5800 H 576.187 -1.72691 -1.87216 0
M  V30 5801 H 576.97 -3.23449 -1.15047 0
M  V30 5802 N 579.415 0.9433 -1.26252 0
M  V30 5803 C 580.643 1.72367 -1.14443 0
M  V30 5804 C 581.058 1.86392 0.300572 0
M  V30 5805 O 580.415 1.36978 1.20596 0
M  V30 5806 C 580.466 3.13155 -1.806 0
M  V30 5807 O 580.187 2.99803 -3.19452 0
M  V30 5808 C 581.688 4.07417 -1.74717 0
M  V30 5809 H 578.908 0.539758 -0.398626 0
M  V30 5810 H 581.452 1.18268 -1.66832 0
M  V30 5811 H 579.607 3.64162 -1.32154 0
M  V30 5812 H 580.021 3.88697 -3.52158 0
M  V30 5813 H 581.495 5.03773 -2.25647 0
M  V30 5814 H 581.972 4.3337 -0.713244 0
M  V30 5815 H 582.578 3.6233 -2.22704 0
M  V30 5816 N 580.893 1.08022 1.14757 0
M  V30 5817 C 582.139 0.808705 1.85978 0
M  V30 5818 C 582.472 -0.663764 1.82504 0
M  V30 5819 O 581.747 -1.48765 1.25296 0
M  V30 5820 C 582.03 1.32623 3.34788 0
M  V30 5821 C 581.883 2.86375 3.46856 0
M  V30 5822 C 583.202 0.948291 4.29762 0
M  V30 5823 H 580.321 0.295244 0.675278 0
M  V30 5824 H 582.963 1.33917 1.34783 0
M  V30 5825 H 581.113 0.875002 3.78518 0
M  V30 5826 H 582.785 3.39839 3.11941 0
M  V30 5827 H 581.028 3.24232 2.88194 0
M  V30 5828 H 581.699 3.17658 4.51439 0
M  V30 5829 H 584.175 1.33722 3.94028 0
M  V30 5830 H 583.051 1.33765 5.32352 0
M  V30 5831 H 583.312 -0.145094 4.41862 0
M  V30 5832 N 582.371 -1.3172 0.865308 0
M  V30 5833 C 583.782 -1.79104 0.527126 0
M  V30 5834 C 584.133 -1.7135 -0.955695 0
M  V30 5835 O 583.258 -1.27845 -1.74598 0
M  V30 5836 C 583.853 -3.25207 0.950061 0
M  V30 5837 C 582.412 -3.70504 0.663611 0
M  V30 5838 C 581.559 -2.52605 1.14395 0
M  V30 5839 H 584.51 -1.18868 1.05148 0
M  V30 5840 H 584.531 -3.79535 0.270805 0
M  V30 5841 H 584.043 -3.30818 2.02931 0
M  V30 5842 H 582.144 -3.70398 -0.404474 0
M  V30 5843 H 582.257 -4.62845 1.23737 0
M  V30 5844 H 580.621 -2.4838 0.563859 0
M  V30 5845 H 581.404 -2.60964 2.23053 0
M  V30 5846 N 583.85 -0.624285 -1.44708 0
M  V30 5847 C 584.812 0.0749638 -2.29077 0
M  V30 5848 C 585.812 0.778965 -1.40673 0
M  V30 5849 O 587.003 0.624591 -1.62618 0
M  V30 5850 C 584.135 1.11663 -3.22094 0
M  V30 5851 H 585.327 -0.667013 -2.92388 0
M  V30 5852 H 582.88 -0.384098 -1.51507 0
M  V30 5853 H 583.615 1.88881 -2.63618 0
M  V30 5854 H 583.401 0.61583 -3.87234 0
M  V30 5855 H 584.891 1.60585 -3.8549 0
M  V30 5856 O 585.367 1.53348 -0.50662 0
M  V30 5857 H 586.058 1.93698 0.00952266 0
M  V30 END ATOM
M  V30 BEGIN BOND
M  V30 END BOND
M  V30 END CTAB
M  END
$$$$
