drugbank_target|P96622 Endoribonuclease EndoA (DB02042)
 OpenBabel12092120243D

  0  0  0     0  0            999 V3000
M  V30 BEGIN CTAB
M  V30 COUNTS 1853 1864 0 0 0
M  V30 BEGIN ATOM
M  V30 1 H -0.908 1.98254 -0.117106 0
M  V30 2 N 0 1.576 0 0
M  V30 3 C 0.933 2.03868 1.02534 0
M  V30 4 C 1.911 0.928543 1.3348 0
M  V30 5 O 3.095 1.19667 1.45644 0
M  V30 6 C 0.222 2.43627 2.35294 0
M  V30 7 C -0.732 3.65373 2.2001 0
M  V30 8 S 0.101 5.13292 1.52614 0
M  V30 9 C 1.257 5.56322 2.86805 0
M  V30 10 H 1.49 2.90518 0.631377 0
M  V30 11 H -0.977 1.52953 0.210867 0
M  V30 12 H 0.981 2.67203 3.11629 0
M  V30 13 H -0.358 1.57376 2.7183 0
M  V30 14 H -1.165 3.90944 3.18086 0
M  V30 15 H -1.563 3.418 1.51819 0
M  V30 16 H 0.729 5.58782 3.83104 0
M  V30 17 H 1.672 6.56266 2.65933 0
M  V30 18 H 2.08 4.83886 2.90714 0
M  V30 19 N 1.4781 -0.272755 1.55222 0
M  V30 20 C 2.7271 -1.00211 1.75045 0
M  V30 21 C 3.0401 -1.87441 0.559046 0
M  V30 22 O 4.2461 -2.63856 0.639698 0
M  V30 23 C 2.7021 -1.83165 3.09804 0
M  V30 24 C 2.3101 -1.008 4.36513 0
M  V30 25 C 4.0541 -2.55529 3.38977 0
M  V30 26 C 1.9611 -1.83194 5.62311 0
M  V30 27 H 0.8911 -0.377878 0.652476 0
M  V30 28 H 3.5421 -0.257776 1.8168 0
M  V30 29 H 1.9241 -2.61694 2.97207 0
M  V30 30 H 3.0981 -0.266855 4.60027 0
M  V30 31 H 1.4131 -0.398897 4.14485 0
M  V30 32 H 4.0101 -3.17578 4.30172 0
M  V30 33 H 4.3531 -3.25825 2.59121 0
M  V30 34 H 4.8861 -1.84029 3.52673 0
M  V30 35 H 1.6251 -1.17318 6.44916 0
M  V30 36 H 1.1451 -2.54905 5.4294 0
M  V30 37 H 2.8241 -2.40552 6.00619 0
M  V30 38 N 2.9562 -1.48159 -0.537278 0
M  V30 39 C 4.2022 -1.56035 -1.29541 0
M  V30 40 C 4.5352 -0.230377 -1.92829 0
M  V30 41 O 3.8102 0.762952 -1.78911 0
M  V30 42 C 4.0932 -2.69323 -2.39034 0
M  V30 43 C 3.9462 -4.12002 -1.80485 0
M  V30 44 C 5.2652 -2.78408 -3.40847 0
M  V30 45 H 2.3842 -0.567992 -0.469632 0
M  V30 46 H 5.0262 -1.80302 -0.599277 0
M  V30 47 H 3.1762 -2.48763 -2.98412 0
M  V30 48 H 4.8482 -4.43981 -1.25215 0
M  V30 49 H 3.0912 -4.19344 -1.11055 0
M  V30 50 H 3.7622 -4.87077 -2.59731 0
M  V30 51 H 6.2382 -2.97012 -2.91416 0
M  V30 52 H 5.1142 -3.59416 -4.14863 0
M  V30 53 H 5.3752 -1.86269 -4.00944 0
M  V30 54 N 4.4343 0.785586 -1.36625 0
M  V30 55 C 5.3813 1.89838 -1.31264 0
M  V30 56 C 6.3513 1.65115 -0.180633 0
M  V30 57 O 7.5363 1.87222 -0.36777 0
M  V30 58 C 4.6763 3.26706 -1.11163 0
M  V30 59 C 3.7893 3.63476 -2.33472 0
M  V30 60 C 2.9243 4.89481 -2.06353 0
M  V30 61 C 1.9633 5.18941 -3.24602 0
M  V30 62 N 1.1003 6.36131 -2.97123 0
M  V30 63 H 5.9403 1.93756 -2.26413 0
M  V30 64 H 3.4773 0.947454 -1.12524 0
M  V30 65 H 5.4353 4.05639 -0.975337 0
M  V30 66 H 4.0653 3.222 -0.196674 0
M  V30 67 H 3.1173 2.79636 -2.57891 0
M  V30 68 H 4.4293 3.81193 -3.21704 0
M  V30 69 H 3.5833 5.76288 -1.89675 0
M  V30 70 H 2.3223 4.73841 -1.15437 0
M  V30 71 H 1.3273 4.30615 -3.41834 0
M  V30 72 H 2.5523 5.36498 -4.16349 0
M  V30 73 H 0.4983 6.21875 -2.08823 0
M  V30 74 H 0.4153 6.54198 -3.78894 0
M  V30 75 H 1.6833 7.2591 -2.84033 0
M  V30 76 N 5.9124 1.20967 1.01018 0
M  V30 77 C 7.3284 0.965905 1.27053 0
M  V30 78 C 7.5284 -0.350785 1.98423 0
M  V30 79 O 6.5844 -1.07773 2.28344 0
M  V30 80 C 7.8974 2.15294 2.09926 0
M  V30 81 C 9.4454 2.19463 2.23171 0
M  V30 82 C 9.9204 3.3767 3.09424 0
M  V30 83 N 11.4114 3.37724 3.17012 0
M  V30 84 C 12.1464 4.25837 3.83993 0
M  V30 85 N 11.6424 5.24138 4.53047 0
M  V30 86 N 13.4354 4.1366 3.80581 0
M  V30 87 H 5.5864 2.0565 0.531194 0
M  V30 88 H 7.8494 0.90024 0.297106 0
M  V30 89 H 7.5554 3.10684 1.64828 0
M  V30 90 H 7.4294 2.13923 3.10672 0
M  V30 91 H 9.8164 1.24632 2.6749 0
M  V30 92 H 9.8974 2.2488 1.21912 0
M  V30 93 H 9.5414 4.32791 2.65808 0
M  V30 94 H 9.4714 3.29491 4.10784 0
M  V30 95 H 11.9624 2.6658 2.6785 0
M  V30 96 H 12.2754 5.87684 5.01844 0
M  V30 97 H 10.6204 5.28068 4.5185 0
M  V30 98 H 13.8114 3.36127 3.25785 0
M  V30 99 H 13.9844 4.82538 4.32505 0
M  V30 100 N 7.3905 -1.2043 1.01659 0
M  V30 101 C 8.6385 -1.89423 0.704522 0
M  V30 102 C 8.9595 -1.79231 -0.768197 0
M  V30 103 O 8.2295 -1.1947 -1.55254 0
M  V30 104 H 6.8095 -0.701178 0.257602 0
M  V30 105 H 9.4715 -1.4626 1.28818 0
M  V30 106 H 8.5675 -2.96052 0.987916 0
M  V30 107 N 8.8686 -0.792821 -1.36206 0
M  V30 108 C 10.1456 -0.290627 -1.93429 0
M  V30 109 C 10.5256 1.21773 -1.72437 0
M  V30 110 O 9.8736 2.0108 -1.08531 0
M  V30 111 C 10.0836 -0.686973 -3.42172 0
M  V30 112 C 11.4316 -0.668643 -4.19302 0
M  V30 113 O 12.4556 -0.627658 -3.50626 0
M  V30 114 O 11.3146 -0.714597 -5.41808 0
M  V30 115 H 8.4086 -0.0727927 -0.82379 0
M  V30 116 H 10.9546 -0.875593 -1.45367 0
M  V30 117 H 9.7266 -1.72711 -3.51122 0
M  V30 118 H 9.3496 -0.0760733 -3.97527 0
M  V30 119 N 10.3467 1.47872 -0.545128 0
M  V30 120 C 11.5927 2.02793 -0.0166104 0
M  V30 121 C 11.9257 1.41987 1.32489 0
M  V30 122 O 11.2007 0.571045 1.85928 0
M  V30 123 C 11.4837 3.59989 0.0893294 0
M  V30 124 C 11.3367 4.3125 -1.27841 0
M  V30 125 C 12.6557 4.32606 0.808724 0
M  V30 126 H 9.7747 0.736962 -0.00751035 0
M  V30 127 H 12.4167 1.76433 -0.705085 0
M  V30 128 H 10.5667 3.82579 0.675681 0
M  V30 129 H 12.2387 4.20035 -1.90704 0
M  V30 130 H 10.4817 3.92076 -1.85632 0
M  V30 131 H 11.1527 5.39736 -1.15713 0
M  V30 132 H 13.6287 4.14936 0.310992 0
M  V30 133 H 12.5047 5.42251 0.851782 0
M  V30 134 H 12.7657 4.00963 1.86229 0
M  V30 135 N 11.8248 0.280983 1.55075 0
M  V30 136 C 13.0548 -0.336804 2.03836 0
M  V30 137 C 13.4628 -1.49577 1.15859 0
M  V30 138 O 12.8058 -1.82888 0.172503 0
M  V30 139 C 12.8678 -0.874616 3.48699 0
M  V30 140 C 12.5318 0.156478 4.56732 0
M  V30 141 C 13.5288 0.978032 5.10618 0
M  V30 142 C 11.2138 0.292409 5.01448 0
M  V30 143 C 13.2078 1.92165 6.07743 0
M  V30 144 C 10.8948 1.23949 5.98398 0
M  V30 145 C 11.8928 2.05261 6.51427 0
M  V30 146 O 11.5808 2.98367 7.4648 0
M  V30 147 H 11.3128 -0.0800885 0.671239 0
M  V30 148 H 13.8668 0.412589 2.01213 0
M  V30 149 H 12.0968 -1.67418 3.4858 0
M  V30 150 H 13.7858 -1.40612 3.80766 0
M  V30 151 H 14.5518 0.883782 4.7688 0
M  V30 152 H 10.4308 -0.330498 4.59814 0
M  V30 153 H 13.9748 2.55672 6.49059 0
M  V30 154 H 9.8718 1.33454 6.31554 0
M  V30 155 H 10.6398 2.93116 7.64215 0
M  V30 156 N 13.3029 -1.57598 0.00835791 0
M  V30 157 C 14.5499 -1.90928 -0.674732 0
M  V30 158 C 14.8779 -0.88277 -1.73313 0
M  V30 159 O 14.1329 0.111294 -1.95383 0
M  V30 160 C 14.4319 -3.3101 -1.34787 0
M  V30 161 C 14.0979 -4.48922 -0.421861 0
M  V30 162 C 12.7599 -4.8091 -0.166927 0
M  V30 163 C 15.1119 -5.20755 0.215211 0
M  V30 164 C 12.4399 -5.821 0.733232 0
M  V30 165 C 14.7919 -6.22905 1.1033 0
M  V30 166 C 13.4559 -6.53346 1.36733 0
M  V30 167 H 12.7259 -0.698656 -0.246902 0
M  V30 168 H 15.3729 -1.91387 0.0656779 0
M  V30 169 H 13.6779 -3.26714 -2.16253 0
M  V30 170 H 15.3749 -3.54061 -1.8826 0
M  V30 171 H 11.9649 -4.23934 -0.630729 0
M  V30 172 H 16.1489 -4.9629 0.0312829 0
M  V30 173 H 11.4049 -6.04042 0.945712 0
M  V30 174 H 15.5789 -6.77694 1.60325 0
M  V30 175 H 13.2059 -7.31573 2.06652 0
M  V30 176 N 14.781 0.264519 -1.55364 0
M  V30 177 C 15.744 1.31046 -1.88042 0
M  V30 178 C 16.744 1.41943 -0.755569 0
M  V30 179 O 17.934 1.40947 -1.02369 0
M  V30 180 C 15.066 2.69067 -2.09323 0
M  V30 181 H 16.259 1.03297 -2.81549 0
M  V30 182 H 13.812 0.502989 -1.47986 0
M  V30 183 H 14.547 3.01982 -1.18226 0
M  V30 184 H 14.332 2.62542 -2.91229 0
M  V30 185 H 15.822 3.44623 -2.35848 0
M  V30 186 N 16.2591 1.48442 0.529413 0
M  V30 187 C 17.5361 1.46978 1.29062 0
M  V30 188 C 17.9161 0.181769 2.10316 0
M  V30 189 O 17.2641 -0.836481 2.12639 0
M  V30 190 C 17.4741 2.7321 2.17157 0
M  V30 191 C 18.8221 3.21562 2.77278 0
M  V30 192 O 19.8461 2.74131 2.27444 0
M  V30 193 O 18.7051 4.04094 3.67927 0
M  V30 194 H 15.7991 0.587003 0.582543 0
M  V30 195 H 18.3451 1.60676 0.546021 0
M  V30 196 H 17.1171 3.58465 1.56903 0
M  V30 197 H 16.7401 2.62235 2.98862 0
M  V30 198 N 17.7372 -0.778329 1.37039 0
M  V30 199 C 18.6672 -1.90546 1.34962 0
M  V30 200 C 19.6482 -1.68681 0.219274 0
M  V30 201 O 20.8332 -1.89634 0.418624 0
M  V30 202 C 17.9632 -3.27734 1.14925 0
M  V30 203 C 16.9172 -3.64147 2.24902 0
M  V30 204 C 16.2432 -4.99806 1.89996 0
M  V30 205 C 17.5432 -3.71579 3.67051 0
M  V30 206 H 19.2372 -1.92541 2.29277 0
M  V30 207 H 16.7832 -0.924948 1.10366 0
M  V30 208 H 18.7362 -4.06215 1.12104 0
M  V30 209 H 17.4602 -3.26154 0.170631 0
M  V30 210 H 16.1192 -2.8797 2.26868 0
M  V30 211 H 15.7672 -4.94759 0.906796 0
M  V30 212 H 15.4672 -5.25139 2.63634 0
M  V30 213 H 16.9912 -5.80694 1.88749 0
M  V30 214 H 18.4052 -4.40227 3.67251 0
M  V30 215 H 16.8022 -4.08405 4.39688 0
M  V30 216 H 17.8722 -2.72404 4.01154 0
M  V30 217 N 19.2153 -1.21501 -1.00376 0
M  V30 218 C 20.4403 -1.05977 -1.78279 0
M  V30 219 C 20.8653 0.385994 -1.84097 0
M  V30 220 O 20.2233 1.27849 -1.28547 0
M  V30 221 C 20.2713 -1.66302 -3.19963 0
M  V30 222 O 19.3753 -0.909333 -4.0225 0
M  V30 223 H 18.7163 -0.372906 -0.549397 0
M  V30 224 H 21.2463 -1.6107 -1.26165 0
M  V30 225 H 21.2563 -1.70574 -3.70632 0
M  V30 226 H 19.9313 -2.71515 -3.15043 0
M  V30 227 H 18.5083 -0.941795 -3.60811 0
M  V30 228 N 20.6934 1.19889 -1.02296 0
M  V30 229 C 22.1044 1.71124 -0.746568 0
M  V30 230 C 22.4554 1.81939 0.734335 0
M  V30 231 O 21.5804 1.48639 1.57275 0
M  V30 232 C 22.1754 3.10804 -1.34857 0
M  V30 233 C 20.7344 3.59323 -1.1209 0
M  V30 234 C 19.8814 2.3635 -1.45031 0
M  V30 235 H 22.8324 1.04813 -1.19163 0
M  V30 236 H 22.8534 3.73186 -0.742437 0
M  V30 237 H 22.3654 3.029 -2.42638 0
M  V30 238 H 20.4664 3.7255 -0.0610337 0
M  V30 239 H 20.5794 4.4378 -1.80544 0
M  V30 240 H 18.9434 2.39399 -0.869487 0
M  V30 241 H 19.7264 2.31081 -2.53883 0
M  V30 242 N 22.1715 0.800033 1.35784 0
M  V30 243 C 23.4175 0.377901 1.99248 0
M  V30 244 C 23.7505 -1.05052 1.63333 0
M  V30 245 O 23.0255 -1.72768 0.893385 0
M  V30 246 C 23.3085 0.553922 3.55814 0
M  V30 247 C 23.1615 2.0268 4.01548 0
M  V30 248 C 24.4805 -0.0244802 4.40093 0
M  V30 249 H 21.5995 0.138782 0.723815 0
M  V30 250 H 24.2415 1.00835 1.61035 0
M  V30 251 H 22.3915 0.0172398 3.88496 0
M  V30 252 H 24.0635 2.62536 3.79305 0
M  V30 253 H 22.3065 2.5256 3.52698 0
M  V30 254 H 22.9775 2.10087 5.10458 0
M  V30 255 H 25.4535 0.433775 4.13833 0
M  V30 256 H 24.3295 0.128637 5.48749 0
M  V30 257 H 24.5905 -1.11758 4.27741 0
M  V30 258 N 23.6496 -1.47581 0.552962 0
M  V30 259 C 24.8956 -2.02782 0.0273648 0
M  V30 260 C 25.2286 -1.42687 -1.31734 0
M  V30 261 O 24.5036 -0.580897 -1.85623 0
M  V30 262 C 24.7866 -3.60031 -0.0702371 0
M  V30 263 C 24.6396 -4.30566 1.30126 0
M  V30 264 C 25.9586 -4.33028 -0.785771 0
M  V30 265 H 23.0776 -0.736912 0.0114185 0
M  V30 266 H 25.7196 -1.76056 0.714432 0
M  V30 267 H 23.8696 -3.82932 -0.655382 0
M  V30 268 H 25.5416 -4.19018 1.92929 0
M  V30 269 H 23.7846 -3.91086 1.87709 0
M  V30 270 H 24.4556 -5.39114 1.18573 0
M  V30 271 H 26.9316 -4.15095 -0.288982 0
M  V30 272 H 25.8076 -5.42695 -0.823013 0
M  V30 273 H 26.0686 -4.01945 -1.841 0
M  V30 274 N 25.1277 -0.289203 -1.54924 0
M  V30 275 C 26.3757 0.322879 -1.99504 0
M  V30 276 C 26.6967 1.55313 -1.1791 0
M  V30 277 O 25.9667 1.94001 -0.272097 0
M  V30 278 H 24.5467 0.122291 -0.736922 0
M  V30 279 H 27.2087 -0.397802 -1.90797 0
M  V30 280 H 26.3047 0.603061 -3.06218 0
M  V30 281 N 26.6058 1.57591 -0.0167156 0
M  V30 282 C 27.8308 1.9598 0.67872 0
M  V30 283 C 28.2558 0.892546 1.65575 0
M  V30 284 O 27.6138 -0.147772 1.80697 0
M  V30 285 C 27.6618 3.33468 1.37227 0
M  V30 286 O 26.7658 3.28954 2.48722 0
M  V30 287 H 26.1068 0.639339 0.17928 0
M  V30 288 H 28.6368 2.04463 -0.0748802 0
M  V30 289 H 28.6468 3.69417 1.7319 0
M  V30 290 H 27.3218 4.10694 0.656007 0
M  V30 291 H 25.8988 3.04705 2.14963 0
M  V30 292 N 28.0839 -0.256276 1.55502 0
M  V30 293 C 28.9939 -1.33882 1.92647 0
M  V30 294 C 30.0099 -1.53159 0.825727 0
M  V30 295 O 31.1859 -1.66963 1.12629 0
M  V30 296 C 28.2509 -2.6751 2.20543 0
M  V30 297 C 27.3119 -2.56836 3.43997 0
M  V30 298 C 26.5449 -3.84092 3.70553 0
M  V30 299 O 26.7679 -4.85545 2.99336 0
M  V30 300 O 25.7019 -3.83288 4.64084 0
M  V30 301 H 29.5279 -1.05374 2.84833 0
M  V30 302 H 27.1129 -0.456237 1.42263 0
M  V30 303 H 28.9949 -3.46492 2.39835 0
M  V30 304 H 27.6699 -2.9577 1.31536 0
M  V30 305 H 26.5769 -1.76172 3.30021 0
M  V30 306 H 27.9099 -2.33523 4.33275 0
M  V30 307 N 29.562 -1.4872 -0.521534 0
M  V30 308 C 30.494 -1.59968 -1.64143 0
M  V30 309 C 31.507 -0.483463 -1.55456 0
M  V30 310 O 32.696 -0.75467 -1.61762 0
M  V30 311 C 29.796 -1.52127 -3.02838 0
M  V30 312 C 28.969 -2.78932 -3.36921 0
M  V30 313 C 28.028 -2.64428 -4.54933 0
M  V30 314 O 27.054 -3.38331 -4.57735 0
M  V30 315 N 28.256 -1.74606 -5.53618 0
M  V30 316 H 31.021 -2.56548 -1.54929 0
M  V30 317 H 28.582 -1.45551 -0.708988 0
M  V30 318 H 30.574 -1.40106 -3.79674 0
M  V30 319 H 29.144 -0.634868 -3.06085 0
M  V30 320 H 28.364 -3.05455 -2.4918 0
M  V30 321 H 29.652 -3.63041 -3.56481 0
M  V30 322 H 29.05 -1.13782 -5.54139 0
M  V30 323 H 27.607 -1.6852 -6.29638 0
M  V30 324 N 31.0401 0.771051 -1.3745 0
M  V30 325 C 32.2881 1.52661 -1.32435 0
M  V30 326 C 32.6091 1.9479 0.0905024 0
M  V30 327 O 31.8791 1.66348 1.03466 0
M  V30 328 H 30.4591 0.566218 -0.487244 0
M  V30 329 H 33.1211 0.917636 -1.71946 0
M  V30 330 H 32.2171 2.42568 -1.96385 0
M  V30 331 N 32.5182 1.22032 0.997298 0
M  V30 332 C 33.7662 1.04016 1.73278 0
M  V30 333 C 34.0872 -0.426255 1.90284 0
M  V30 334 O 33.3572 -1.30694 1.45931 0
M  V30 335 H 31.9372 0.381897 0.642 0
M  V30 336 H 34.5992 1.5347 1.20137 0
M  V30 337 H 33.6952 1.51441 2.72896 0
M  V30 338 N 33.9963 -1.19345 1.0293 0
M  V30 339 C 35.2423 -1.89318 0.727083 0
M  V30 340 C 35.5753 -1.79446 -0.742483 0
M  V30 341 O 34.8503 -1.1871 -1.54072 0
M  V30 342 C 35.1333 -3.40238 1.17942 0
M  V30 343 C 34.9863 -3.58979 2.71024 0
M  V30 344 C 36.3053 -4.33479 0.760548 0
M  V30 345 H 33.4243 -0.687475 0.265606 0
M  V30 346 H 36.0663 -1.40477 1.2793 0
M  V30 347 H 34.2163 -3.81964 0.709608 0
M  V30 348 H 35.8883 -3.26421 3.25955 0
M  V30 349 H 34.1313 -3.02018 3.11396 0
M  V30 350 H 34.8023 -4.64823 2.9773 0
M  V30 351 H 37.2783 -3.99469 1.16464 0
M  V30 352 H 36.1543 -5.37664 1.10493 0
M  V30 353 H 36.4153 -4.40813 -0.337063 0
M  V30 354 N 35.4744 -0.807222 -1.35358 0
M  V30 355 C 36.8904 -0.491038 -1.51858 0
M  V30 356 C 37.0904 0.987648 -1.75635 0
M  V30 357 O 36.1464 1.77265 -1.79815 0
M  V30 358 C 37.4594 -1.33695 -2.69344 0
M  V30 359 C 39.0074 -1.33246 -2.83222 0
M  V30 360 C 39.4824 -2.1625 -4.03733 0
M  V30 361 N 40.9734 -2.1379 -4.10911 0
M  V30 362 C 41.7084 -2.74772 -5.03277 0
M  V30 363 N 41.2044 -3.44684 -6.0097 0
M  V30 364 N 42.9974 -2.6441 -4.96028 0
M  V30 365 H 35.1484 -1.76485 -1.18181 0
M  V30 366 H 37.4114 -0.751199 -0.578276 0
M  V30 367 H 37.1174 -2.38634 -2.58354 0
M  V30 368 H 36.9914 -0.990618 -3.6396 0
M  V30 369 H 39.3784 -0.290911 -2.93663 0
M  V30 370 H 39.4594 -1.71866 -1.89461 0
M  V30 371 H 39.1034 -3.20445 -3.94052 0
M  V30 372 H 39.0334 -1.74989 -4.96675 0
M  V30 373 H 41.5244 -1.62923 -3.40976 0
M  V30 374 H 41.8374 -3.88501 -6.68047 0
M  V30 375 H 40.1824 -3.48788 -6.01142 0
M  V30 376 H 43.3734 -2.0938 -4.18662 0
M  V30 377 H 43.5464 -3.12225 -5.6782 0
M  V30 378 N 36.9525 1.47285 -0.560781 0
M  V30 379 C 38.3635 1.86258 -0.128343 0
M  V30 380 C 38.7145 1.46699 1.30284 0
M  V30 381 O 37.8395 0.871698 1.98067 0
M  V30 382 C 38.4345 3.38044 -0.22614 0
M  V30 383 C 36.9935 3.76096 0.151283 0
M  V30 384 C 36.1405 2.71335 -0.572084 0
M  V30 385 H 39.0915 1.38752 -0.770297 0
M  V30 386 H 39.1125 3.76441 0.554322 0
M  V30 387 H 38.6245 3.66806 -1.26788 0
M  V30 388 H 36.7255 3.52951 1.19399 0
M  V30 389 H 36.8385 4.78641 -0.209765 0
M  V30 390 H 35.2025 2.54696 -0.0147653 0
M  V30 391 H 35.9855 3.02938 -1.61504 0
M  V30 392 N 38.4306 0.297415 1.54768 0
M  V30 393 C 39.6766 -0.313376 2.00364 0
M  V30 394 C 40.0096 -1.53815 1.18553 0
M  V30 395 O 39.2846 -1.92739 0.261103 0
M  V30 396 C 39.5676 -0.673525 3.53745 0
M  V30 397 C 39.4206 0.560133 4.46299 0
M  V30 398 C 40.7396 -1.50143 4.13697 0
M  V30 399 H 37.8586 -0.112428 0.728374 0
M  V30 400 H 40.5006 0.4088 1.8555 0
M  V30 401 H 38.6506 -1.28881 3.665 0
M  V30 402 H 40.3226 1.19863 4.45455 0
M  V30 403 H 38.5656 1.19405 4.17043 0
M  V30 404 H 39.2366 0.26405 5.51368 0
M  V30 405 H 41.7126 -0.981588 4.04356 0
M  V30 406 H 40.5886 -1.72221 5.21182 0
M  V30 407 H 40.8496 -2.48952 3.65343 0
M  V30 408 N 39.9087 -1.5758 0.0250728 0
M  V30 409 C 40.8387 -2.13007 -0.956575 0
M  V30 410 C 41.8197 -1.0452 -1.342 0
M  V30 411 O 43.0047 -1.32332 -1.42133 0
M  V30 412 C 40.1347 -2.65386 -2.24026 0
M  V30 413 C 39.0887 -3.78623 -1.99571 0
M  V30 414 C 38.4147 -4.17414 -3.3417 0
M  V30 415 C 39.7147 -5.04867 -1.33814 0
M  V30 416 H 41.4087 -2.9528 -0.494991 0
M  V30 417 H 38.9547 -1.42042 -0.236651 0
M  V30 418 H 40.9077 -3.02794 -2.93076 0
M  V30 419 H 39.6317 -1.80268 -2.72343 0
M  V30 420 H 38.2907 -3.41646 -1.32941 0
M  V30 421 H 37.9387 -3.29284 -3.80238 0
M  V30 422 H 37.6387 -4.93719 -3.18615 0
M  V30 423 H 39.1627 -4.57402 -4.04495 0
M  V30 424 H 40.5767 -5.39888 -1.92857 0
M  V30 425 H 38.9737 -5.86144 -1.28669 0
M  V30 426 H 40.0437 -4.83904 -0.310561 0
M  V30 427 N 41.3868 0.248026 -1.55636 0
M  V30 428 C 42.6328 0.97767 -1.77678 0
M  V30 429 C 42.9658 1.85016 -0.590135 0
M  V30 430 O 42.2408 1.90095 0.411611 0
M  V30 431 C 42.5238 1.83914 -3.09593 0
M  V30 432 C 42.3768 0.99491 -4.38659 0
M  V30 433 C 43.6958 2.82183 -3.37729 0
M  V30 434 H 40.8148 0.354005 -0.646413 0
M  V30 435 H 43.4568 0.248253 -1.88371 0
M  V30 436 H 41.6068 2.46104 -3.00608 0
M  V30 437 H 43.2788 0.391789 -4.59633 0
M  V30 438 H 41.5218 0.299231 -4.32767 0
M  V30 439 H 42.1928 1.63145 -5.2734 0
M  V30 440 H 44.6688 2.30129 -3.4667 0
M  V30 441 H 43.5448 3.39582 -4.31249 0
M  V30 442 H 43.8058 3.58588 -2.58586 0
M  V30 443 N 42.8649 1.48995 0.513639 0
M  V30 444 C 44.1139 1.57093 1.2651 0
M  V30 445 C 44.4269 0.257091 1.93903 0
M  V30 446 O 45.6329 0.216478 2.70636 0
M  V30 447 C 44.0889 2.77118 2.29638 0
M  V30 448 C 43.6969 4.15209 1.68241 0
M  V30 449 C 45.4409 2.94538 3.05692 0
M  V30 450 C 43.3479 5.26474 2.69406 0
M  V30 451 H 42.2779 0.584876 0.475854 0
M  V30 452 H 44.9289 1.7536 0.540487 0
M  V30 453 H 43.3109 2.52319 3.05207 0
M  V30 454 H 44.4849 4.50094 0.987505 0
M  V30 455 H 42.7999 4.03042 1.04623 0
M  V30 456 H 45.3969 3.74832 3.8132 0
M  V30 457 H 45.7399 2.04614 3.62545 0
M  V30 458 H 46.2729 3.19316 2.37238 0
M  V30 459 H 43.0119 6.18417 2.17351 0
M  V30 460 H 42.5319 4.96058 3.37175 0
M  V30 461 H 44.2109 5.55277 3.32078 0
M  V30 462 N 44.343 -0.763751 1.37857 0
M  V30 463 C 45.275 -1.88664 1.30148 0
M  V30 464 C 46.288 -1.61365 0.215685 0
M  V30 465 O 47.477 -1.72134 0.472459 0
M  V30 466 C 44.577 -3.24075 0.991396 0
M  V30 467 C 43.75 -3.78958 2.18426 0
M  V30 468 C 42.809 -4.92862 1.8432 0
M  V30 469 O 41.835 -5.08027 2.56704 0
M  V30 470 N 43.037 -5.75071 0.792081 0
M  V30 471 H 45.802 -1.95791 2.26905 0
M  V30 472 H 43.363 -0.943226 1.31586 0
M  V30 473 H 45.355 -3.97804 0.743935 0
M  V30 474 H 43.925 -3.12399 0.112122 0
M  V30 475 H 43.145 -2.96913 2.59299 0
M  V30 476 H 44.433 -4.12357 2.98058 0
M  V30 477 H 43.831 -5.65375 0.191595 0
M  V30 478 H 42.388 -6.48991 0.60449 0
M  V30 479 N 45.8211 -1.22559 -0.990812 0
M  V30 480 C 46.7691 -0.994798 -2.10253 0
M  V30 481 C 47.7631 0.0627798 -1.69284 0
M  V30 482 O 48.9691 -0.0898392 -1.79776 0
M  V30 483 H 45.3441 -0.304527 -0.687581 0
M  V30 484 H 47.3151 -1.93812 -2.26891 0
M  V30 485 C 46.0641 -0.591439 -3.42633 0
M  V30 486 H 45.3871 -1.3969 -3.74602 0
M  V30 487 H 46.8271 -0.469385 -4.21394 0
M  V30 488 C 45.2861 0.699232 -3.29564 0
M  V30 489 O 45.8161 1.75112 -3.61523 0
M  V30 490 N 44.0221 0.671182 -2.82743 0
M  V30 491 H 43.5691 -0.185136 -2.56934 0
M  V30 492 H 43.5271 1.53502 -2.7438 0
M  V30 493 N 47.2992 1.18797 -1.03562 0
M  V30 494 C 48.5762 1.84469 -0.650434 0
M  V30 495 C 48.9562 1.92319 0.870433 0
M  V30 496 O 48.3042 1.44528 1.76986 0
M  V30 497 C 48.5142 3.2306 -1.32036 0
M  V30 498 C 49.8622 3.9915 -1.44792 0
M  V30 499 O 50.8862 3.32481 -1.27806 0
M  V30 500 O 49.7452 5.18587 -1.72423 0
M  V30 501 H 46.8392 0.795251 -0.226946 0
M  V30 502 H 49.3852 1.26231 -1.13419 0
M  V30 503 H 48.1572 3.1222 -2.3587 0
M  V30 504 H 47.7802 3.88949 -0.8249 0
M  V30 505 N 48.7773 0.814389 1.34928 0
M  V30 506 C 50.0263 0.394871 1.97797 0
M  V30 507 C 50.3393 -1.04555 1.65311 0
M  V30 508 O 51.5453 -1.56856 2.21604 0
M  V30 509 C 50.0013 0.655103 3.53888 0
M  V30 510 C 49.6093 2.10858 3.95276 0
M  V30 511 C 51.3533 0.301329 4.23429 0
M  V30 512 C 49.2603 2.31415 5.44244 0
M  V30 513 H 48.1903 0.143913 0.740139 0
M  V30 514 H 50.8413 0.999544 1.53888 0
M  V30 515 H 49.2233 -0.0196253 3.95995 0
M  V30 516 H 50.3973 2.82176 3.64298 0
M  V30 517 H 48.7123 2.42297 3.38646 0
M  V30 518 H 51.3093 0.432869 5.32945 0
M  V30 519 H 51.6523 -0.75331 4.09428 0
M  V30 520 H 52.1853 0.930288 3.86769 0
M  V30 521 H 48.9243 3.35353 5.63222 0
M  V30 522 H 48.4443 1.6463 5.76764 0
M  V30 523 H 50.1233 2.13352 6.10811 0
M  V30 524 N 50.2554 -1.46986 0.568584 0
M  V30 525 C 51.5034 -2.02041 0.0487022 0
M  V30 526 C 51.8244 -1.44408 -1.31039 0
M  V30 527 O 51.0944 -0.623477 -1.85714 0
M  V30 528 H 49.6744 -0.746849 0.015014 0
M  V30 529 H 52.3364 -1.80257 0.741168 0
M  V30 530 H 51.4324 -3.12085 -0.0308961 0
M  V30 531 N 51.7335 -0.305618 -1.54608 0
M  V30 532 C 52.6815 0.584119 -2.25146 0
M  V30 533 C 53.6755 1.13326 -1.25911 0
M  V30 534 O 54.8815 1.08337 -1.43747 0
M  V30 535 H 51.2565 0.206983 -0.722954 0
M  V30 536 H 53.2275 -0.033291 -2.98381 0
M  V30 537 C 51.9765 1.74225 -3.009 0
M  V30 538 H 51.2995 1.32892 -3.77067 0
M  V30 539 H 52.7395 2.34077 -3.53531 0
M  V30 540 C 51.1985 2.64914 -2.0814 0
M  V30 541 O 51.7285 3.66137 -1.65246 0
M  V30 542 N 49.9345 2.3275 -1.74 0
M  V30 543 H 49.4815 1.50479 -2.09078 0
M  V30 544 H 49.4395 2.93694 -1.12211 0
M  V30 545 N 53.2116 1.57565 -0.0334293 0
M  V30 546 C 54.6276 1.56297 0.322997 0
M  V30 547 C 54.8276 1.03945 1.7262 0
M  V30 548 O 53.8836 0.688109 2.42943 0
M  V30 549 C 55.1966 3.00232 0.167664 0
M  V30 550 C 56.7446 3.12078 0.240107 0
M  V30 551 C 57.2196 4.57859 0.113513 0
M  V30 552 N 58.7106 4.62887 0.170359 0
M  V30 553 C 59.4456 5.73319 0.0962517 0
M  V30 554 N 58.9416 6.92794 -0.0291881 0
M  V30 555 N 60.7346 5.61898 0.150551 0
M  V30 556 H 52.8856 1.89923 -0.950956 0
M  V30 557 H 55.1486 0.873824 -0.367608 0
M  V30 558 H 54.8546 3.42501 -0.799102 0
M  V30 559 H 54.7286 3.654 0.936083 0
M  V30 560 H 57.1156 2.69718 1.19733 0
M  V30 561 H 57.1966 2.49623 -0.558763 0
M  V30 562 H 56.8406 5.009 -0.840314 0
M  V30 563 H 56.7706 5.18299 0.931302 0
M  V30 564 H 59.2616 3.76954 0.26728 0
M  V30 565 H 59.5746 7.7276 -0.0789252 0
M  V30 566 H 57.9196 6.94971 -0.0640299 0
M  V30 567 H 61.1106 4.67448 0.246981 0
M  V30 568 H 61.2836 6.47938 0.0893365 0
M  V30 569 N 54.6897 -0.239769 1.55765 0
M  V30 570 C 55.9367 -0.966801 1.7793 0
M  V30 571 C 56.2647 -1.85046 0.599015 0
M  V30 572 O 55.5197 -1.91197 -0.417395 0
M  V30 573 C 55.8187 -1.852 3.05672 0
M  V30 574 C 55.4847 -1.1231 4.36689 0
M  V30 575 C 54.1467 -0.921689 4.72291 0
M  V30 576 C 56.4987 -0.607019 5.17653 0
M  V30 577 C 53.8267 -0.191996 5.86386 0
M  V30 578 C 56.1787 0.109241 6.32506 0
M  V30 579 C 54.8427 0.322073 6.66723 0
M  V30 580 H 54.1127 -0.353778 0.651093 0
M  V30 581 H 56.7597 -0.23634 1.90036 0
M  V30 582 H 55.0647 -2.64975 2.8861 0
M  V30 583 H 56.7617 -2.41635 3.20021 0
M  V30 584 H 53.3517 -1.29004 4.08725 0
M  V30 585 H 57.5357 -0.750153 4.90598 0
M  V30 586 H 52.7917 -0.0166949 6.11398 0
M  V30 587 H 56.9657 0.516737 6.9448 0
M  V30 588 H 54.5927 0.88944 7.54979 0
M  V30 589 N 56.1678 -1.49265 -0.50573 0
M  V30 590 C 57.3928 -1.62478 -1.28902 0
M  V30 591 C 57.8178 -0.294332 -1.85783 0
M  V30 592 O 57.1758 0.737412 -1.65626 0
M  V30 593 C 57.2238 -2.69268 -2.39848 0
M  V30 594 O 56.3278 -2.28113 -3.43567 0
M  V30 595 H 55.6688 -0.54399 -0.380751 0
M  V30 596 H 58.1988 -1.95421 -0.605952 0
M  V30 597 H 58.2088 -2.91291 -2.85681 0
M  V30 598 H 56.8838 -3.65846 -1.97812 0
M  V30 599 H 55.4608 -2.16401 -3.03685 0
M  V30 600 N 57.6459 0.756429 -1.3826 0
M  V30 601 C 59.0569 1.33359 -1.30661 0
M  V30 602 C 59.4079 1.96161 0.0388875 0
M  V30 603 O 58.5329 1.94874 0.940918 0
M  V30 604 C 59.1279 2.42477 -2.36622 0
M  V30 605 C 57.6869 2.95922 -2.3261 0
M  V30 606 C 56.8339 1.69275 -2.19639 0
M  V30 607 H 59.7849 0.55552 -1.4866 0
M  V30 608 H 59.8059 3.22345 -2.02174 0
M  V30 609 H 59.3179 1.96739 -3.34538 0
M  V30 610 H 57.4189 3.45996 -1.38267 0
M  V30 611 H 57.5319 3.50494 -3.26636 0
M  V30 612 H 55.8959 1.92793 -1.66442 0
M  V30 613 H 56.6789 1.25619 -3.19491 0
M  V30 614 N 59.124 1.23083 0.984299 0
M  V30 615 C 60.352 1.08714 1.76037 0
M  V30 616 C 60.767 -0.361691 1.85303 0
M  V30 617 O 60.124 -1.25034 1.32939 0
M  V30 618 C 60.175 1.70206 3.18923 0
M  V30 619 O 59.896 3.09423 3.10144 0
M  V30 620 C 61.397 1.61227 4.12941 0
M  V30 621 H 58.617 0.380664 0.552572 0
M  V30 622 H 61.161 1.62853 1.23689 0
M  V30 623 H 59.316 1.20109 3.6831 0
M  V30 624 H 59.73 3.39188 4.00065 0
M  V30 625 H 61.204 2.08962 5.10919 0
M  V30 626 H 61.681 0.570375 4.35481 0
M  V30 627 H 62.287 2.10671 3.69456 0
M  V30 628 N 60.6021 -1.18246 1.0419 0
M  V30 629 C 61.5651 -2.20128 0.638452 0
M  V30 630 C 62.5651 -1.57885 -0.304805 0
M  V30 631 O 63.7551 -1.73967 -0.0900369 0
M  V30 632 C 60.8871 -3.4084 -0.0637751 0
M  V30 633 H 62.0801 -2.57336 1.54007 0
M  V30 634 H 59.6331 -1.32152 0.834598 0
M  V30 635 H 60.3681 -3.09166 -0.979136 0
M  V30 636 H 60.1531 -3.8726 0.614198 0
M  V30 637 H 61.6431 -4.16274 -0.332512 0
M  V30 638 N 62.0802 -0.821533 -1.34494 0
M  V30 639 C 63.3292 -0.405355 -1.97585 0
M  V30 640 C 63.6422 1.03677 -1.65863 0
M  V30 641 O 64.8482 1.55679 -2.22433 0
M  V30 642 C 63.3042 -0.673861 -3.53535 0
M  V30 643 C 62.9122 -2.12951 -3.94152 0
M  V30 644 C 64.6562 -0.32378 -4.23263 0
M  V30 645 C 62.5632 -2.34298 -5.43009 0
M  V30 646 H 61.4932 -0.147836 -0.739365 0
M  V30 647 H 64.1442 -1.00769 -1.53355 0
M  V30 648 H 62.5262 -0.00137554 -3.96 0
M  V30 649 H 63.7002 -2.84104 -3.62797 0
M  V30 650 H 62.0152 -2.44089 -3.37356 0
M  V30 651 H 64.6122 -0.461126 -5.32708 0
M  V30 652 H 64.9552 0.731586 -4.09821 0
M  V30 653 H 65.4882 -0.950786 -3.8627 0
M  V30 654 H 62.2272 -3.38335 -5.61435 0
M  V30 655 H 61.7472 -1.67687 -5.75883 0
M  V30 656 H 63.4262 -2.16588 -6.09671 0
M  V30 657 N 63.5583 1.46682 -0.576371 0
M  V30 658 C 64.8043 2.02712 -0.0596221 0
M  V30 659 C 65.1373 1.44765 1.29448 0
M  V30 660 O 64.4123 0.610355 1.84675 0
M  V30 661 C 64.6953 3.60098 0.0129503 0
M  V30 662 C 64.5483 4.28441 -1.3696 0
M  V30 663 C 65.8673 4.34224 0.71678 0
M  V30 664 H 62.9863 0.736637 -0.0231407 0
M  V30 665 H 65.6283 1.74898 -0.742351 0
M  V30 666 H 63.7783 3.83926 0.594378 0
M  V30 667 H 65.4503 4.15896 -1.9957 0
M  V30 668 H 63.6933 3.8805 -1.93907 0
M  V30 669 H 64.3643 5.3716 -1.27135 0
M  V30 670 H 66.8403 4.15503 0.222908 0
M  V30 671 H 65.7163 5.43936 0.73657 0
M  V30 672 H 65.9773 4.04823 1.77682 0
M  V30 673 N 65.0364 0.313813 1.54444 0
M  V30 674 C 65.9994 -0.54379 2.22656 0
M  V30 675 C 66.9994 -1.05124 1.21678 0
M  V30 676 O 68.1894 -0.945225 1.46325 0
M  V30 677 C 65.3214 -1.75427 2.92298 0
M  V30 678 H 66.5144 0.0523599 2.99854 0
M  V30 679 H 64.0674 0.0647834 1.56166 0
M  V30 680 H 64.8024 -2.38991 2.19211 0
M  V30 681 H 64.5874 -1.39791 3.66334 0
M  V30 682 H 66.0774 -2.36325 3.44297 0
M  V30 683 N 66.5145 -1.57545 0.0417849 0
M  V30 684 C 67.4775 -2.09885 -0.92093 0
M  V30 685 C 68.4775 -1.01648 -1.24596 0
M  V30 686 O 69.6675 -1.27759 -1.1842 0
M  V30 687 C 66.7995 -2.57527 -2.23367 0
M  V30 688 H 67.9925 -2.96236 -0.467382 0
M  V30 689 H 65.5455 -1.5493 -0.206467 0
M  V30 690 H 66.2805 -1.74542 -2.73323 0
M  V30 691 H 66.0655 -3.36613 -2.01083 0
M  V30 692 H 67.5555 -2.98201 -2.92346 0
M  V30 693 N 67.9926 0.231505 -1.5589 0
M  V30 694 C 69.2416 0.955346 -1.7764 0
M  V30 695 C 69.5546 1.85893 -0.608546 0
M  V30 696 O 70.7606 2.62067 -0.70943 0
M  V30 697 C 69.2166 1.74886 -3.14552 0
M  V30 698 C 68.8246 0.891915 -4.39032 0
M  V30 699 C 70.5686 2.46452 -3.45633 0
M  V30 700 C 68.4756 1.68221 -5.66971 0
M  V30 701 H 67.4056 0.360446 -0.662265 0
M  V30 702 H 70.0566 0.209516 -1.823 0
M  V30 703 H 68.4386 2.53723 -3.04041 0
M  V30 704 H 69.6126 0.144793 -4.60572 0
M  V30 705 H 67.9276 0.288863 -4.15397 0
M  V30 706 H 70.5246 3.06061 -4.38441 0
M  V30 707 H 70.8676 3.18841 -2.67668 0
M  V30 708 H 71.4006 1.74613 -3.57428 0
M  V30 709 H 68.1396 1.00178 -6.478 0
M  V30 710 H 67.6596 2.4042 -5.49507 0
M  V30 711 H 69.3386 2.24544 -6.06786 0
M  V30 712 N 69.4707 1.49531 0.497807 0
M  V30 713 C 70.6987 1.62893 1.27567 0
M  V30 714 C 71.1137 0.301585 1.86376 0
M  V30 715 O 70.4707 -0.713335 1.67982 0
M  V30 716 C 70.5217 2.70013 2.40364 0
M  V30 717 O 70.2427 3.976 1.83972 0
M  V30 718 C 71.7437 2.94109 3.31685 0
M  V30 719 H 68.9637 0.548298 0.386794 0
M  V30 720 H 71.5077 1.95584 0.597245 0
M  V30 721 H 69.6627 2.40092 3.04031 0
M  V30 722 H 70.0767 4.56631 2.58047 0
M  V30 723 H 71.5507 3.72788 4.07104 0
M  V30 724 H 72.0277 2.04147 3.88871 0
M  V30 725 H 72.6337 3.2546 2.73781 0
M  V30 726 N 70.9488 -0.749086 1.3866 0
M  V30 727 C 71.9118 -1.84457 1.36045 0
M  V30 728 C 72.9118 -1.58682 0.260122 0
M  V30 729 O 74.1018 -1.66343 0.517261 0
M  V30 730 C 71.2338 -3.22008 1.11911 0
M  V30 731 H 72.4268 -1.88182 2.33512 0
M  V30 732 H 69.9798 -0.951266 1.24019 0
M  V30 733 H 70.7148 -3.2395 0.150686 0
M  V30 734 H 70.4998 -3.42111 1.91579 0
M  V30 735 H 71.9898 -4.0208 1.12788 0
M  V30 736 N 72.4269 -1.23603 -0.977757 0
M  V30 737 C 73.3589 -0.977369 -2.07317 0
M  V30 738 C 74.3719 0.0495845 -1.62724 0
M  V30 739 O 75.5609 -0.186261 -1.77526 0
M  V30 740 C 72.6609 -0.451216 -3.35883 0
M  V30 741 C 71.8339 -1.53896 -4.09432 0
M  V30 742 C 70.8929 -1.01721 -5.16274 0
M  V30 743 O 69.9189 -1.70676 -5.43009 0
M  V30 744 N 71.1209 0.153594 -5.80297 0
M  V30 745 H 73.8859 -1.92047 -2.30082 0
M  V30 746 H 71.4469 -1.14497 -1.14465 0
M  V30 747 H 73.4389 -0.0871574 -4.04606 0
M  V30 748 H 72.0089 0.397368 -3.10064 0
M  V30 749 H 71.2289 -2.07566 -3.35127 0
M  V30 750 H 72.5169 -2.27037 -4.55337 0
M  V30 751 H 71.9149 0.730323 -5.60966 0
M  V30 752 H 70.4719 0.458892 -6.50183 0
M  V30 753 N 73.905 1.17692 -1.04816 0
M  V30 754 C 75.154 1.87192 -0.751132 0
M  V30 755 C 75.467 1.8169 0.724441 0
M  V30 756 O 76.673 2.46625 1.13527 0
M  V30 757 C 75.129 3.35857 -1.29338 0
M  V30 758 C 74.737 3.4987 -2.79812 0
M  V30 759 C 76.481 4.10709 -1.07322 0
M  V30 760 C 74.388 4.92536 -3.27356 0
M  V30 761 H 73.318 0.701162 -0.277288 0
M  V30 762 H 75.969 1.32932 -1.26496 0
M  V30 763 H 74.351 3.89631 -0.707376 0
M  V30 764 H 75.525 3.06332 -3.44235 0
M  V30 765 H 73.84 2.88433 -3.00325 0
M  V30 766 H 76.437 5.15952 -1.4035 0
M  V30 767 H 76.78 4.16299 -0.0108001 0
M  V30 768 H 77.313 3.6313 -1.62423 0
M  V30 769 H 74.052 4.92119 -4.33012 0
M  V30 770 H 73.572 5.3676 -2.67673 0
M  V30 771 H 75.251 5.61288 -3.21815 0
M  V30 772 N 75.3831 0.828654 1.34056 0
M  V30 773 C 76.3151 0.212052 2.28217 0
M  V30 774 C 77.3281 -0.601362 1.51286 0
M  V30 775 O 78.5171 -0.430104 1.73241 0
M  V30 776 C 75.6171 -0.72088 3.31144 0
M  V30 777 C 74.7901 0.0509587 4.3737 0
M  V30 778 C 73.8491 -0.803766 5.20025 0
M  V30 779 O 72.8751 -0.246667 5.68665 0
M  V30 780 N 74.0771 -2.1227 5.40298 0
M  V30 781 H 76.8421 1.02105 2.81771 0
M  V30 782 H 74.4031 0.686153 1.46641 0
M  V30 783 H 76.3951 -1.29742 3.8334 0
M  V30 784 H 74.9651 -1.43061 2.77943 0
M  V30 785 H 74.1851 0.808831 3.85813 0
M  V30 786 H 75.4731 0.582065 5.0546 0
M  V30 787 H 74.8711 -2.59898 5.02464 0
M  V30 788 H 73.4281 -2.64796 5.95589 0
M  V30 789 N 76.8612 -1.46375 0.584142 0
M  V30 790 C 77.8082 -2.30323 -0.148286 0
M  V30 791 C 78.7782 -1.40703 -0.882713 0
M  V30 792 O 79.9632 -1.69651 -0.873099 0
M  V30 793 C 77.1032 -3.25196 -1.15507 0
M  V30 794 C 76.2162 -4.29915 -0.423943 0
M  V30 795 C 75.3512 -5.11914 -1.41838 0
M  V30 796 C 74.3902 -6.08381 -0.673736 0
M  V30 797 N 73.5272 -6.83242 -1.6163 0
M  V30 798 H 78.3672 -2.92427 0.573644 0
M  V30 799 H 75.9042 -1.44118 0.294703 0
M  V30 800 H 77.8622 -3.78646 -1.75166 0
M  V30 801 H 76.4922 -2.64898 -1.8447 0
M  V30 802 H 75.5442 -3.7931 0.287714 0
M  V30 803 H 76.8562 -4.98549 0.158128 0
M  V30 804 H 76.0102 -5.69648 -2.08773 0
M  V30 805 H 74.7492 -4.43243 -2.03438 0
M  V30 806 H 73.7542 -5.49799 0.00938483 0
M  V30 807 H 74.9792 -6.79071 -0.0631082 0
M  V30 808 H 72.9252 -6.1728 -2.22038 0
M  V30 809 H 72.8422 -7.48144 -1.08707 0
M  V30 810 H 74.1102 -7.45534 -2.27596 0
M  V30 811 N 78.3393 -0.321999 -1.54275 0
M  V30 812 C 79.3023 0.531975 -2.22941 0
M  V30 813 C 80.3023 1.04478 -1.22234 0
M  V30 814 O 81.4923 0.937452 -1.46825 0
M  V30 815 C 78.6243 1.73874 -2.93224 0
M  V30 816 H 79.8173 -0.0682612 -2.99822 0
M  V30 817 H 77.3703 -0.0730644 -1.56129 0
M  V30 818 H 78.1053 2.37825 -2.20476 0
M  V30 819 H 77.8903 1.37847 -3.6707 0
M  V30 820 H 79.3803 2.34496 -3.45545 0
M  V30 821 N 79.8174 1.5752 -0.0501392 0
M  V30 822 C 80.7644 2.1147 0.924603 0
M  V30 823 C 81.7344 1.02182 1.30951 0
M  V30 824 O 82.9194 1.29723 1.39916 0
M  V30 825 C 80.0594 2.66337 2.19451 0
M  V30 826 C 79.1724 3.89708 1.86418 0
M  V30 827 C 78.3074 4.32893 3.07859 0
M  V30 828 C 77.3464 5.48967 2.70742 0
M  V30 829 N 76.4834 5.87211 3.84874 0
M  V30 830 H 81.3234 2.94465 0.457639 0
M  V30 831 H 78.8604 1.45531 0.214266 0
M  V30 832 H 80.8184 2.96247 2.93758 0
M  V30 833 H 79.4484 1.86141 2.63726 0
M  V30 834 H 78.5004 3.66396 1.02264 0
M  V30 835 H 79.8124 4.74074 1.55096 0
M  V30 836 H 78.9664 4.6435 3.90466 0
M  V30 837 H 77.7054 3.47336 3.42358 0
M  V30 838 H 76.7104 5.17183 1.86551 0
M  V30 839 H 77.9354 6.3624 2.37436 0
M  V30 840 H 75.8814 5.04607 4.19175 0
M  V30 841 H 75.7984 6.66266 3.57247 0
M  V30 842 H 77.0664 6.23282 4.68123 0
M  V30 843 N 81.2955 -0.223234 1.56011 0
M  V30 844 C 82.2255 -1.27988 1.95298 0
M  V30 845 C 83.2065 -1.48976 0.820979 0
M  V30 846 O 84.3915 -1.61188 1.08315 0
M  V30 847 C 81.5215 -2.63 2.26822 0
M  V30 848 C 80.4755 -2.56671 3.42497 0
M  V30 849 C 79.8015 -3.95697 3.59622 0
M  V30 850 C 81.1015 -2.11601 4.77517 0
M  V30 851 H 82.7955 -0.953525 2.8381 0
M  V30 852 H 80.3415 -0.457244 1.36548 0
M  V30 853 H 82.2945 -3.37077 2.52898 0
M  V30 854 H 81.0185 -2.9732 1.35161 0
M  V30 855 H 79.6775 -1.85051 3.16467 0
M  V30 856 H 79.3255 -4.27322 2.6534 0
M  V30 857 H 79.0255 -3.92345 4.37424 0
M  V30 858 H 80.5495 -4.71438 3.88044 0
M  V30 859 H 81.9635 -2.7542 5.02809 0
M  V30 860 H 80.3605 -2.19311 5.5859 0
M  V30 861 H 81.4305 -1.06824 4.72987 0
M  V30 862 N 82.7736 -1.49793 -0.48987 0
M  V30 863 C 84.1846 -1.52914 -1.07118 0
M  V30 864 C 84.5356 -0.321738 -1.93544 0
M  V30 865 O 83.6606 0.567338 -2.08831 0
M  V30 866 C 84.2556 -2.771 -1.94938 0
M  V30 867 C 82.8146 -2.82963 -2.48212 0
M  V30 868 C 81.9616 -2.46972 -1.26096 0
M  V30 869 H 84.9126 -1.56329 -0.273289 0
M  V30 870 H 84.9336 -2.57892 -2.79771 0
M  V30 871 H 84.4456 -3.64959 -1.32009 0
M  V30 872 H 82.5466 -1.99411 -3.14748 0
M  V30 873 H 82.6596 -3.85406 -2.84603 0
M  V30 874 H 81.0236 -1.98994 -1.58976 0
M  V30 875 H 81.8066 -3.37118 -0.648581 0
M  V30 876 N 84.2517 0.741722 -1.39055 0
M  V30 877 C 85.4797 1.53098 -1.39171 0
M  V30 878 C 85.8947 1.88794 0.0155099 0
M  V30 879 O 85.2517 1.53626 0.985159 0
M  V30 880 C 85.3027 2.82274 -2.2584 0
M  V30 881 O 85.0237 2.48097 -3.61081 0
M  V30 882 C 86.5247 3.76343 -2.34266 0
M  V30 883 H 83.7447 0.473335 -0.4756 0
M  V30 884 H 86.2887 0.917045 -1.82785 0
M  V30 885 H 84.4437 3.40015 -1.85656 0
M  V30 886 H 84.8577 3.31029 -4.06842 0
M  V30 887 H 86.3317 4.63898 -2.9917 0
M  V30 888 H 86.8087 4.17619 -1.35982 0
M  V30 889 H 87.4147 3.24523 -2.74891 0
M  V30 890 N 85.7298 1.2412 0.971189 0
M  V30 891 C 86.6798 0.997551 2.05019 0
M  V30 892 C 87.6638 -0.0597747 1.60789 0
M  V30 893 O 88.8558 0.153516 1.76333 0
M  V30 894 C 85.9848 0.600557 3.38006 0
M  V30 895 C 85.0708 1.69377 3.88809 0
M  V30 896 N 85.4618 2.92586 4.12586 0
M  V30 897 C 83.7598 1.57048 4.17435 0
M  V30 898 C 84.4608 3.63431 4.54195 0
M  V30 899 N 83.4368 2.90979 4.59165 0
M  V30 900 H 87.2388 1.93316 2.21374 0
M  V30 901 H 84.7528 1.14194 1.1547 0
M  V30 902 H 86.7498 0.40725 4.14906 0
M  V30 903 H 85.4098 -0.327903 3.2304 0
M  V30 904 H 86.4208 3.288 4.00139 0
M  V30 905 H 83.0978 0.709798 4.11422 0
M  V30 906 H 84.4878 4.69102 4.81033 0
M  V30 907 N 87.2079 -1.17134 1.05439 0
M  V30 908 C 88.4539 -1.87733 0.767077 0
M  V30 909 C 88.7869 -1.8098 -0.704253 0
M  V30 910 O 88.0619 -1.21951 -1.5152 0
M  V30 911 C 88.3449 -3.37659 1.25133 0
M  V30 912 C 88.1979 -3.53149 2.78578 0
M  V30 913 C 89.5169 -4.31768 0.852324 0
M  V30 914 H 86.6359 -0.681687 0.280129 0
M  V30 915 H 89.2779 -1.37732 1.30881 0
M  V30 916 H 87.4279 -3.80373 0.790469 0
M  V30 917 H 89.0999 -3.19434 3.32806 0
M  V30 918 H 87.3429 -2.95345 3.17732 0
M  V30 919 H 88.0139 -4.58403 3.07523 0
M  V30 920 H 90.4899 -3.96909 1.24911 0
M  V30 921 H 89.3659 -5.35199 1.21873 0
M  V30 922 H 89.6269 -4.41429 -0.243485 0
M  V30 923 N 88.686 -0.835752 -1.33615 0
M  V30 924 C 89.596 -0.269088 -2.33052 0
M  V30 925 C 90.612 0.603251 -1.63208 0
M  V30 926 O 91.788 0.508112 -1.94885 0
M  V30 927 C 88.853 0.549091 -3.42324 0
M  V30 928 C 87.914 -0.347156 -4.27894 0
M  V30 929 C 87.147 0.43207 -5.31948 0
M  V30 930 O 87.37 1.66409 -5.45586 0
M  V30 931 O 86.304 -0.192298 -6.01593 0
M  V30 932 H 90.13 -1.09243 -2.83372 0
M  V30 933 H 87.715 -0.598198 -1.36901 0
M  V30 934 H 89.597 1.01414 -4.09015 0
M  V30 935 H 88.272 1.34955 -2.94226 0
M  V30 936 H 87.179 -0.859979 -3.64081 0
M  V30 937 H 88.512 -1.1123 -4.79467 0
M  V30 938 N 90.1641 1.46063 -0.591896 0
M  V30 939 C 91.4131 2.01547 -0.0786637 0
M  V30 940 C 91.7261 1.46796 1.29268 0
M  V30 941 O 92.9321 1.94157 1.89777 0
M  V30 942 C 91.3881 3.59787 -0.0900024 0
M  V30 943 C 90.9961 4.23534 -1.46023 0
M  V30 944 C 92.7401 4.22895 0.368806 0
M  V30 945 C 90.6471 5.73881 -1.4288 0
M  V30 946 H 89.5771 0.753564 -0.0256388 0
M  V30 947 H 92.2281 1.677 -0.744905 0
M  V30 948 H 90.6101 3.90752 0.642586 0
M  V30 949 H 91.7841 4.04167 -2.21328 0
M  V30 950 H 90.0991 3.72558 -1.85982 0
M  V30 951 H 92.6961 5.33116 0.411258 0
M  V30 952 H 93.0391 3.9247 1.38827 0
M  V30 953 H 93.5721 3.9659 -0.31001 0
M  V30 954 H 90.3111 6.0898 -2.42536 0
M  V30 955 H 89.8311 5.95486 -0.718095 0
M  V30 956 H 91.5101 6.36776 -1.14565 0
M  V30 957 N 91.6422 0.330177 1.54103 0
M  V30 958 C 92.9192 -0.325007 1.92881 0
M  V30 959 C 93.2992 -1.6934 1.26045 0
M  V30 960 O 92.6472 -2.24855 0.406526 0
M  V30 961 C 92.8572 -0.410634 3.46576 0
M  V30 962 C 94.2052 -0.667801 4.19316 0
M  V30 963 O 95.2292 -0.49329 3.52768 0
M  V30 964 O 94.0882 -1.00491 5.37181 0
M  V30 965 H 91.1822 -0.186873 0.80561 0
M  V30 966 H 93.7282 0.380376 1.65382 0
M  V30 967 H 92.5002 0.550164 3.87413 0
M  V30 968 H 92.1232 -1.16333 3.802 0
M  V30 969 N 93.1203 -1.57491 0.0584922 0
M  V30 970 C 94.0833 -2.1085 -0.898617 0
M  V30 971 C 95.0833 -1.02964 -1.23511 0
M  V30 972 O 96.2733 -1.29007 -1.17059 0
M  V30 973 C 93.4053 -2.59881 -2.20623 0
M  V30 974 H 94.5983 -2.96715 -0.435936 0
M  V30 975 H 92.1513 -1.55141 -0.190023 0
M  V30 976 H 92.8863 -1.77431 -2.71457 0
M  V30 977 H 92.6713 -3.38727 -1.97501 0
M  V30 978 H 94.1613 -3.01285 -2.89166 0
M  V30 979 N 94.5984 0.214957 -1.56127 0
M  V30 980 C 95.5454 1.26642 -1.92952 0
M  V30 981 C 96.5154 1.46244 -0.78753 0
M  V30 982 O 97.7004 1.59704 -1.04399 0
M  V30 983 C 94.8404 2.6104 -2.25726 0
M  V30 984 C 93.9534 2.49183 -3.52891 0
M  V30 985 C 93.0884 3.76149 -3.7508 0
M  V30 986 C 92.1274 3.59041 -4.95738 0
M  V30 987 N 91.2644 4.77972 -5.14283 0
M  V30 988 H 96.1044 0.945384 -2.82607 0
M  V30 989 H 93.6414 0.455489 -1.3987 0
M  V30 990 H 95.5994 3.39313 -2.42739 0
M  V30 991 H 94.2294 2.91227 -1.39236 0
M  V30 992 H 93.2814 1.6231 -3.44034 0
M  V30 993 H 94.5934 2.32466 -4.41318 0
M  V30 994 H 93.7474 4.62865 -3.92226 0
M  V30 995 H 92.4864 3.95799 -2.84947 0
M  V30 996 H 91.4914 2.7071 -4.78535 0
M  V30 997 H 92.7164 3.40856 -5.87362 0
M  V30 998 H 90.6624 4.97923 -4.27093 0
M  V30 999 H 90.5794 4.64006 -5.96853 0
M  V30 1000 H 91.8474 5.66096 -5.35869 0
M  V30 1001 N 96.0765 1.50051 0.48192 0
M  V30 1002 C 97.4925 1.37237 0.814756 0
M  V30 1003 C 97.6925 0.420109 1.97072 0
M  V30 1004 O 96.7485 -0.141246 2.52105 0
M  V30 1005 C 98.0615 2.78375 1.13701 0
M  V30 1006 C 99.6095 2.87213 1.2441 0
M  V30 1007 C 100.084 4.29161 1.59954 0
M  V30 1008 N 101.575 4.32061 1.66967 0
M  V30 1009 C 102.31 5.38879 1.95952 0
M  V30 1010 N 101.806 6.55918 2.23031 0
M  V30 1011 N 103.599 5.26312 1.97363 0
M  V30 1012 H 95.7505 2.10546 -0.28005 0
M  V30 1013 H 98.0135 0.945921 -0.0627454 0
M  V30 1014 H 97.7195 3.49845 0.360787 0
M  V30 1015 H 97.5935 3.14941 2.07586 0
M  V30 1016 H 99.9805 2.15969 2.01101 0
M  V30 1017 H 100.061 2.54204 0.285299 0
M  V30 1018 H 99.7055 5.00938 0.838067 0
M  V30 1019 H 99.6355 4.59648 2.56966 0
M  V30 1020 H 102.126 3.47661 1.48123 0
M  V30 1021 H 102.439 7.33139 2.44391 0
M  V30 1022 H 100.784 6.59112 2.20447 0
M  V30 1023 H 103.975 4.33876 1.75697 0
M  V30 1024 H 104.148 6.09649 2.19618 0
M  V30 1025 N 97.5546 -0.734337 1.39446 0
M  V30 1026 C 98.7846 -1.52137 1.39778 0
M  V30 1027 C 99.1926 -1.89198 -0.00929312 0
M  V30 1028 O 98.5356 -1.54666 -0.991168 0
M  V30 1029 C 98.5976 -2.83762 2.20724 0
M  V30 1030 C 98.2616 -2.69131 3.69347 0
M  V30 1031 C 99.2586 -2.37635 4.62413 0
M  V30 1032 C 96.9436 -2.85982 4.1294 0
M  V30 1033 C 98.9376 -2.23172 5.97054 0
M  V30 1034 C 96.6246 -2.71137 5.47657 0
M  V30 1035 C 97.6226 -2.39777 6.39528 0
M  V30 1036 O 97.3106 -2.25026 7.71763 0
M  V30 1037 H 97.0426 -0.476717 0.479288 0
M  V30 1038 H 99.5966 -0.915012 1.83893 0
M  V30 1039 H 97.8266 -3.4666 1.71359 0
M  V30 1040 H 99.5156 -3.45383 2.13226 0
M  V30 1041 H 100.282 -2.24267 4.30034 0
M  V30 1042 H 96.1606 -3.09383 3.41765 0
M  V30 1043 H 99.7046 -1.98617 6.68728 0
M  V30 1044 H 95.6016 -2.84083 5.79626 0
M  V30 1045 H 96.3696 -2.40091 7.82495 0
M  V30 1046 N 99.0327 -1.24633 -0.964593 0
M  V30 1047 C 100.281 -1.08573 -1.70459 0
M  V30 1048 C 100.602 0.375655 -1.91347 0
M  V30 1049 O 99.8717 1.26779 -1.49345 0
M  V30 1050 H 98.4517 -0.398784 -0.631649 0
M  V30 1051 H 101.114 -1.56601 -1.16026 0
M  V30 1052 H 100.21 -1.58623 -2.68785 0
M  V30 1053 N 100.511 1.16574 -1.06058 0
M  V30 1054 C 101.758 1.87047 -0.775873 0
M  V30 1055 C 102.086 1.81562 0.697534 0
M  V30 1056 O 101.341 1.22445 1.52662 0
M  V30 1057 C 101.64 3.36195 -1.21275 0
M  V30 1058 C 101.306 3.6188 -2.68986 0
M  V30 1059 C 99.9678 3.68599 -3.09335 0
M  V30 1060 C 102.32 3.72648 -3.64394 0
M  V30 1061 C 99.6478 3.83584 -4.43937 0
M  V30 1062 C 102 3.89154 -4.98741 0
M  V30 1063 C 100.664 3.94114 -5.3873 0
M  V30 1064 H 99.9338 0.684452 -0.283912 0
M  V30 1065 H 102.581 1.37853 -1.32925 0
M  V30 1066 H 100.886 3.87505 -0.578528 0
M  V30 1067 H 102.583 3.89103 -0.969542 0
M  V30 1068 H 99.1728 3.57281 -2.36744 0
M  V30 1069 H 103.357 3.66769 -3.34356 0
M  V30 1070 H 98.6128 3.85677 -4.74409 0
M  V30 1071 H 102.787 3.96427 -5.72554 0
M  V30 1072 H 100.414 4.05478 -6.43033 0
M  V30 1073 N 101.989 0.842826 1.3317 0
M  V30 1074 C 102.899 0.281444 2.32906 0
M  V30 1075 C 103.915 -0.594587 1.63526 0
M  V30 1076 O 105.091 -0.49777 1.95152 0
M  V30 1077 C 102.156 -0.530929 3.42611 0
M  V30 1078 C 101.217 0.369843 4.27704 0
M  V30 1079 C 100.45 -0.403853 5.3217 0
M  V30 1080 O 100.673 -1.63513 5.46461 0
M  V30 1081 O 99.6069 0.224199 6.01482 0
M  V30 1082 H 103.433 1.10744 2.82789 0
M  V30 1083 H 101.018 0.60545 1.36582 0
M  V30 1084 H 102.9 -0.992437 4.09547 0
M  V30 1085 H 101.575 -1.33392 2.94938 0
M  V30 1086 H 100.482 0.879275 3.6362 0
M  V30 1087 H 101.815 1.13771 4.78871 0
M  V30 1088 N 103.467 -1.45747 0.599634 0
M  V30 1089 C 104.883 -1.57424 0.26264 0
M  V30 1090 C 105.083 -1.59222 -1.23493 0
M  V30 1091 O 104.139 -1.51825 -2.01756 0
M  V30 1092 C 105.452 -2.86061 0.926795 0
M  V30 1093 C 107 -2.99722 0.901967 0
M  V30 1094 C 107.475 -4.31119 1.54598 0
M  V30 1095 N 108.966 -4.37858 1.5111 0
M  V30 1096 C 109.701 -5.3818 1.97863 0
M  V30 1097 N 109.197 -6.45083 2.52666 0
M  V30 1098 N 110.99 -5.29487 1.88679 0
M  V30 1099 H 103.141 -1.42823 1.57211 0
M  V30 1100 H 105.404 -0.68235 0.658105 0
M  V30 1101 H 105.11 -2.90605 1.98095 0
M  V30 1102 H 104.984 -3.74563 0.445238 0
M  V30 1103 H 107.371 -2.9475 -0.143617 0
M  V30 1104 H 107.452 -2.12652 1.42171 0
M  V30 1105 H 107.096 -4.36849 2.59085 0
M  V30 1106 H 107.026 -5.16992 1.00132 0
M  V30 1107 H 109.517 -3.61209 1.11068 0
M  V30 1108 H 109.83 -7.17869 2.86155 0
M  V30 1109 H 108.175 -6.45856 2.56701 0
M  V30 1110 H 111.366 -4.44877 1.4561 0
M  V30 1111 H 111.539 -6.07524 2.25429 0
M  V30 1112 N 104.945 -0.338344 -1.53925 0
M  V30 1113 C 106.222 0.314774 -1.93051 0
M  V30 1114 C 106.602 1.68669 -1.26941 0
M  V30 1115 O 105.95 2.24636 -0.418445 0
M  V30 1116 C 106.16 0.392249 -3.46789 0
M  V30 1117 C 107.508 0.645554 -4.19664 0
M  V30 1118 O 108.532 0.474575 -3.53024 0
M  V30 1119 O 107.391 0.976408 -5.37707 0
M  V30 1120 H 104.485 0.182598 -0.80659 0
M  V30 1121 H 107.031 -0.389141 -1.65178 0
M  V30 1122 H 105.803 -0.570702 -3.87116 0
M  V30 1123 H 105.426 1.14316 -3.80812 0
M  V30 1124 N 106.423 1.57458 -0.0668435 0
M  V30 1125 C 107.648 1.9804 0.616027 0
M  V30 1126 C 108.073 0.944771 1.62652 0
M  V30 1127 O 107.431 -0.0902094 1.81075 0
M  V30 1128 C 107.479 3.37665 1.26549 0
M  V30 1129 O 106.583 3.36701 2.38131 0
M  V30 1130 H 105.924 0.644719 0.158849 0
M  V30 1131 H 108.454 2.04121 -0.139891 0
M  V30 1132 H 108.464 3.7474 1.6135 0
M  V30 1133 H 107.139 4.12573 0.525016 0
M  V30 1134 H 105.716 3.1139 2.0516 0
M  V30 1135 N 107.901 -0.206675 1.56239 0
M  V30 1136 C 109.147 -0.930218 1.80208 0
M  V30 1137 C 109.48 -1.83387 0.638981 0
M  V30 1138 O 108.755 -1.91119 -0.361066 0
M  V30 1139 C 109.038 -1.75641 3.1436 0
M  V30 1140 C 108.891 -0.878257 4.41142 0
M  V30 1141 C 110.21 -2.73129 3.45092 0
M  V30 1142 H 107.329 -0.336742 0.655571 0
M  V30 1143 H 109.971 -0.198222 1.88963 0
M  V30 1144 H 108.121 -2.38048 3.07027 0
M  V30 1145 H 109.793 -0.269787 4.6051 0
M  V30 1146 H 108.036 -0.184385 4.33408 0
M  V30 1147 H 108.707 -1.49106 5.3148 0
M  V30 1148 H 111.183 -2.20856 3.52649 0
M  V30 1149 H 110.059 -3.28028 4.40101 0
M  V30 1150 H 110.32 -3.51606 2.68003 0
M  V30 1151 N 109.379 -1.50304 -0.473955 0
M  V30 1152 C 110.628 -1.60392 -1.22301 0
M  V30 1153 C 110.941 -0.308411 -1.93153 0
M  V30 1154 O 112.147 -0.288156 -2.69966 0
M  V30 1155 C 110.603 -2.83109 -2.2221 0
M  V30 1156 C 110.211 -4.19524 -1.57173 0
M  V30 1157 C 111.955 -3.0254 -2.97775 0
M  V30 1158 C 109.862 -5.33431 -2.55353 0
M  V30 1159 H 108.792 -0.597286 -0.460179 0
M  V30 1160 H 111.443 -1.76731 -0.493803 0
M  V30 1161 H 109.825 -2.60322 -2.9841 0
M  V30 1162 H 110.999 -4.52554 -0.867824 0
M  V30 1163 H 109.314 -4.05674 -0.939002 0
M  V30 1164 H 111.911 -3.84811 -3.71248 0
M  V30 1165 H 112.254 -2.14154 -3.56992 0
M  V30 1166 H 112.787 -3.25494 -2.28688 0
M  V30 1167 H 109.526 -6.23962 -2.00878 0
M  V30 1168 H 109.046 -5.04823 -3.23904 0
M  V30 1169 H 110.725 -5.63887 -3.17239 0
M  V30 1170 N 110.857 0.726932 -1.39834 0
M  V30 1171 C 111.787 1.85405 -1.41941 0
M  V30 1172 C 112.768 1.67751 -0.281728 0
M  V30 1173 O 113.953 1.8795 -0.488717 0
M  V30 1174 C 111.083 3.23243 -1.2701 0
M  V30 1175 C 110.037 3.55549 -2.38262 0
M  V30 1176 C 109.363 4.9241 -2.08415 0
M  V30 1177 C 110.663 3.577 -3.80589 0
M  V30 1178 H 112.357 1.83899 -2.36266 0
M  V30 1179 H 109.903 0.883349 -1.13723 0
M  V30 1180 H 111.856 4.01775 -1.27103 0
M  V30 1181 H 110.58 3.25296 -0.291564 0
M  V30 1182 H 109.239 2.79351 -2.37399 0
M  V30 1183 H 108.887 4.91052 -1.0898 0
M  V30 1184 H 108.587 5.14992 -2.82943 0
M  V30 1185 H 110.111 5.73289 -2.10171 0
M  V30 1186 H 111.525 4.26293 -3.83337 0
M  V30 1187 H 109.922 3.91804 -4.54543 0
M  V30 1188 H 110.992 2.57328 -4.10987 0
M  V30 1189 N 112.336 1.25143 0.95797 0
M  V30 1190 C 113.266 1.07711 2.07173 0
M  V30 1191 C 114.247 -0.0128462 1.70095 0
M  V30 1192 O 115.432 0.156061 1.93572 0
M  V30 1193 C 112.562 0.691503 3.40346 0
M  V30 1194 C 111.516 1.73132 3.9142 0
M  V30 1195 C 110.842 1.20049 5.21049 0
M  V30 1196 C 112.142 3.1294 4.1817 0
M  V30 1197 H 113.836 2.00873 2.22014 0
M  V30 1198 H 111.382 0.967191 1.06684 0
M  V30 1199 H 113.335 0.556505 4.17709 0
M  V30 1200 H 112.059 -0.275819 3.25433 0
M  V30 1201 H 110.718 1.8547 3.16222 0
M  V30 1202 H 110.366 0.223499 5.02503 0
M  V30 1203 H 110.066 1.89545 5.56189 0
M  V30 1204 H 111.59 1.07782 6.01012 0
M  V30 1205 H 113.004 3.03775 4.86203 0
M  V30 1206 H 111.401 3.79875 4.64559 0
M  V30 1207 H 112.471 3.6025 3.24573 0
M  V30 1208 N 113.814 -1.1601 1.06675 0
M  V30 1209 C 114.724 -2.24156 0.692179 0
M  V30 1210 C 115.74 -1.71507 -0.293513 0
M  V30 1211 O 116.916 -2.009 -0.141861 0
M  V30 1212 C 113.981 -3.46587 0.0884131 0
M  V30 1213 C 113.042 -4.14257 1.12646 0
M  V30 1214 C 112.275 -5.30844 0.551416 0
M  V30 1215 O 112.498 -5.66858 -0.634656 0
M  V30 1216 O 111.432 -5.87848 1.29298 0
M  V30 1217 H 115.258 -2.58513 1.59388 0
M  V30 1218 H 112.843 -1.23599 0.83926 0
M  V30 1219 H 114.725 -4.20679 -0.246361 0
M  V30 1220 H 113.4 -3.13994 -0.786712 0
M  V30 1221 H 112.307 -3.42118 1.51348 0
M  V30 1222 H 113.64 -4.50914 1.97325 0
M  V30 1223 N 115.292 -0.849877 -1.32721 0
M  V30 1224 C 116.224 -0.248332 -2.27851 0
M  V30 1225 C 117.237 0.577218 -1.52224 0
M  V30 1226 O 118.426 0.402489 -1.73903 0
M  V30 1227 C 115.526 0.668107 -3.32249 0
M  V30 1228 C 114.699 -0.120534 -4.37234 0
M  V30 1229 C 113.758 0.720932 -5.21238 0
M  V30 1230 O 112.784 0.156166 -5.68986 0
M  V30 1231 N 113.986 2.03647 -5.43607 0
M  V30 1232 H 116.751 -1.06575 -2.80111 0
M  V30 1233 H 114.312 -0.709395 -1.45531 0
M  V30 1234 H 116.304 1.23627 -3.85355 0
M  V30 1235 H 114.874 1.38621 -2.80184 0
M  V30 1236 H 114.094 -0.870108 -3.84477 0
M  V30 1237 H 115.382 -0.662406 -5.0447 0
M  V30 1238 H 114.78 2.51871 -5.06535 0
M  V30 1239 H 113.337 2.55287 -5.99727 0
M  V30 1240 N 116.77 1.45427 -0.607355 0
M  V30 1241 C 118.019 2.01452 -0.100036 0
M  V30 1242 C 118.332 1.48159 1.27704 0
M  V30 1243 O 119.538 1.96159 1.87707 0
M  V30 1244 C 117.994 3.59672 -0.128158 0
M  V30 1245 C 117.602 4.21962 -1.50507 0
M  V30 1246 C 119.346 4.23262 0.323932 0
M  V30 1247 C 117.253 5.72333 -1.48959 0
M  V30 1248 H 116.183 0.75325 -0.0336299 0
M  V30 1249 H 118.834 1.66901 -0.76265 0
M  V30 1250 H 117.216 3.91411 0.601105 0
M  V30 1251 H 118.39 4.01796 -2.25602 0
M  V30 1252 H 116.705 3.70565 -1.89923 0
M  V30 1253 H 119.302 5.33522 0.354691 0
M  V30 1254 H 119.645 3.93921 1.34656 0
M  V30 1255 H 120.178 3.96239 -0.352056 0
M  V30 1256 H 116.917 6.06373 -2.48981 0
M  V30 1257 H 116.437 5.94691 -0.781214 0
M  V30 1258 H 118.116 6.35525 -1.21313 0
M  V30 1259 N 118.248 0.346503 1.53744 0
M  V30 1260 C 119.664 -0.00530975 1.59599 0
M  V30 1261 C 119.864 -1.48465 1.36236 0
M  V30 1262 O 118.92 -2.24376 1.15808 0
M  V30 1263 C 120.233 0.433516 2.97559 0
M  V30 1264 C 121.781 0.386111 3.10609 0
M  V30 1265 C 122.256 0.800451 4.50951 0
M  V30 1266 N 123.747 0.754753 4.5701 0
M  V30 1267 C 124.482 1.04727 5.63755 0
M  V30 1268 N 123.978 1.4081 6.7834 0
M  V30 1269 N 125.771 0.971316 5.53644 0
M  V30 1270 H 117.922 1.31009 1.67184 0
M  V30 1271 H 120.185 0.534242 0.783128 0
M  V30 1272 H 119.891 1.46509 3.19731 0
M  V30 1273 H 119.765 -0.189753 3.76722 0
M  V30 1274 H 122.152 -0.636295 2.88158 0
M  V30 1275 H 122.233 1.04462 2.33498 0
M  V30 1276 H 121.877 1.82088 4.74137 0
M  V30 1277 H 121.807 0.119386 5.26465 0
M  V30 1278 H 124.298 0.488662 3.74727 0
M  V30 1279 H 124.611 1.61607 7.55714 0
M  V30 1280 H 122.956 1.44657 6.79779 0
M  V30 1281 H 126.147 0.688748 4.63005 0
M  V30 1282 H 126.32 1.20263 6.36742 0
M  V30 1283 N 119.726 -1.57421 0.075193 0
M  V30 1284 C 120.954 -1.97946 -0.602076 0
M  V30 1285 C 121.369 -0.953674 -1.62943 0
M  V30 1286 O 120.726 0.0592551 -1.82404 0
M  V30 1287 C 120.777 -3.38546 -1.26762 0
M  V30 1288 O 120.498 -4.37195 -0.281376 0
M  V30 1289 C 121.999 -3.93966 -2.03239 0
M  V30 1290 H 119.219 -0.650918 -0.162931 0
M  V30 1291 H 121.763 -2.03959 0.148601 0
M  V30 1292 H 119.918 -3.33609 -1.96936 0
M  V30 1293 H 120.332 -5.18975 -0.759267 0
M  V30 1294 H 121.806 -4.94555 -2.45193 0
M  V30 1295 H 122.283 -3.30693 -2.8903 0
M  V30 1296 H 122.889 -4.02315 -1.37924 0
M  V30 1297 N 121.204 0.198386 -1.56346 0
M  V30 1298 C 122.453 0.917451 -1.79627 0
M  V30 1299 C 122.766 1.8456 -0.64784 0
M  V30 1300 O 123.972 2.60504 -0.764859 0
M  V30 1301 C 122.428 1.68175 -3.18191 0
M  V30 1302 C 122.036 0.798589 -4.40825 0
M  V30 1303 C 123.78 2.39065 -3.50782 0
M  V30 1304 C 121.687 1.56157 -5.70411 0
M  V30 1305 H 120.617 0.346317 -0.669762 0
M  V30 1306 H 123.268 0.170801 -1.82703 0
M  V30 1307 H 121.65 2.47216 -3.09354 0
M  V30 1308 H 122.824 0.0470665 -4.60776 0
M  V30 1309 H 121.139 0.200686 -4.15916 0
M  V30 1310 H 123.736 2.96692 -4.44835 0
M  V30 1311 H 124.079 3.13091 -2.74371 0
M  V30 1312 H 124.612 1.66993 -3.61052 0
M  V30 1313 H 121.351 0.864142 -6.49779 0
M  V30 1314 H 120.871 2.2871 -5.54483 0
M  V30 1315 H 122.55 2.11622 -6.11412 0
M  V30 1316 N 122.682 1.50554 0.465978 0
M  V30 1317 C 123.959 1.5232 1.22712 0
M  V30 1318 C 124.339 0.270807 2.09356 0
M  V30 1319 O 123.687 -0.745541 2.15995 0
M  V30 1320 C 123.897 2.82175 2.05374 0
M  V30 1321 C 125.245 3.33033 2.6339 0
M  V30 1322 O 126.269 2.83531 2.15612 0
M  V30 1323 O 125.128 4.19336 3.50456 0
M  V30 1324 H 122.222 0.611183 0.557122 0
M  V30 1325 H 124.768 1.62847 0.477381 0
M  V30 1326 H 123.54 3.64797 1.41558 0
M  V30 1327 H 123.163 2.74675 2.87471 0
M  V30 1328 N 124.16 -0.719506 1.40217 0
M  V30 1329 C 125.107 -1.83359 1.40172 0
M  V30 1330 C 126.077 -1.64065 0.259206 0
M  V30 1331 O 127.262 -1.85254 0.456677 0
M  V30 1332 C 124.402 -3.2103 1.26624 0
M  V30 1333 C 123.515 -3.51923 2.50548 0
M  V30 1334 C 122.65 -4.79079 2.29471 0
M  V30 1335 C 121.689 -5.02863 3.48992 0
M  V30 1336 N 120.826 -6.2123 3.27135 0
M  V30 1337 H 125.666 -1.82733 2.35399 0
M  V30 1338 H 123.203 -0.892688 1.16917 0
M  V30 1339 H 125.161 -4.00524 1.16776 0
M  V30 1340 H 123.791 -3.20895 0.350176 0
M  V30 1341 H 122.843 -2.67014 2.70939 0
M  V30 1342 H 124.155 -3.6541 3.39525 0
M  V30 1343 H 123.309 -5.66582 2.16955 0
M  V30 1344 H 122.048 -4.67794 1.37913 0
M  V30 1345 H 121.053 -4.13816 3.6199 0
M  V30 1346 H 122.278 -5.16023 4.41472 0
M  V30 1347 H 120.224 -6.11204 2.38256 0
M  V30 1348 H 120.141 -6.35375 4.09675 0
M  V30 1349 H 121.409 -7.11532 3.18344 0
M  V30 1350 N 125.638 -1.25649 -0.95132 0
M  V30 1351 C 126.57 -1.02112 -2.05197 0
M  V30 1352 C 127.583 0.0150571 -1.62793 0
M  V30 1353 O 128.772 -0.223874 -1.77091 0
M  V30 1354 C 125.872 -0.522361 -3.3485 0
M  V30 1355 C 125.045 -1.62546 -4.06076 0
M  V30 1356 C 124.104 -1.12649 -5.14001 0
M  V30 1357 O 123.13 -1.82156 -5.39266 0
M  V30 1358 N 124.332 0.03047 -5.80492 0
M  V30 1359 H 127.097 -1.96885 -2.25957 0
M  V30 1360 H 124.658 -1.16899 -1.1201 0
M  V30 1361 H 126.65 -0.172961 -4.0433 0
M  V30 1362 H 125.22 0.33151 -3.10837 0
M  V30 1363 H 124.44 -2.14628 -3.30649 0
M  V30 1364 H 125.728 -2.36644 -4.50419 0
M  V30 1365 H 125.126 0.611169 -5.62389 0
M  V30 1366 H 123.683 0.320875 -6.5101 0
M  V30 1367 N 127.117 1.15442 -1.07289 0
M  V30 1368 C 128.533 1.38201 -0.798288 0
M  V30 1369 C 128.733 1.92429 0.597769 0
M  V30 1370 O 127.789 2.12962 1.3566 0
M  V30 1371 C 129.102 2.35357 -1.87156 0
M  V30 1372 C 130.65 2.49021 -1.89624 0
M  V30 1373 C 131.125 3.49468 -2.96034 0
M  V30 1374 N 132.616 3.57003 -2.95132 0
M  V30 1375 C 133.351 4.34543 -3.74112 0
M  V30 1376 N 132.847 5.15421 -4.6294 0
M  V30 1377 N 134.64 4.29625 -3.62462 0
M  V30 1378 H 126.791 0.78584 -1.97328 0
M  V30 1379 H 129.054 0.408065 -0.855679 0
M  V30 1380 H 128.76 2.02626 -2.87464 0
M  V30 1381 H 128.634 3.35129 -1.73114 0
M  V30 1382 H 131.021 2.81051 -0.899687 0
M  V30 1383 H 131.102 1.4925 -2.07745 0
M  V30 1384 H 130.746 3.18173 -3.95889 0
M  V30 1385 H 130.676 4.48992 -2.75161 0
M  V30 1386 H 133.167 2.99276 -2.30743 0
M  V30 1387 H 133.48 5.7183 -5.19837 0
M  V30 1388 H 131.825 5.14729 -4.66989 0
M  V30 1389 H 135.016 3.65505 -2.92444 0
M  V30 1390 H 135.189 4.89807 -4.24256 0
M  V30 1391 N 128.595 0.856903 1.32268 0
M  V30 1392 C 129.525 0.31858 2.31316 0
M  V30 1393 C 130.506 -0.583487 1.59779 0
M  V30 1394 O 131.691 -0.503259 1.87566 0
M  V30 1395 C 128.821 -0.491979 3.43798 0
M  V30 1396 C 127.775 0.315849 4.26833 0
M  V30 1397 C 127.101 -0.619586 5.31098 0
M  V30 1398 C 128.401 1.54282 4.98993 0
M  V30 1399 H 130.095 1.14621 2.76591 0
M  V30 1400 H 127.641 0.552613 1.32974 0
M  V30 1401 H 129.594 -0.879012 4.1213 0
M  V30 1402 H 128.318 -1.35299 2.97257 0
M  V30 1403 H 126.977 0.684664 3.6015 0
M  V30 1404 H 126.625 -1.47751 4.8081 0
M  V30 1405 H 126.325 -0.0830621 5.87541 0
M  V30 1406 H 127.849 -1.00375 6.02293 0
M  V30 1407 H 129.263 1.22796 5.59995 0
M  V30 1408 H 127.66 2.01745 5.65172 0
M  V30 1409 H 128.73 2.30285 4.26728 0
M  V30 1410 N 130.073 -1.45103 0.615059 0
M  V30 1411 C 131.301 -2.06553 0.11977 0
M  V30 1412 C 131.716 -1.45842 -1.19898 0
M  V30 1413 O 131.073 -0.575325 -1.73194 0
M  V30 1414 C 131.124 -3.61495 -0.018364 0
M  V30 1415 O 130.845 -4.19942 1.24822 0
M  V30 1416 C 132.346 -4.39947 -0.544237 0
M  V30 1417 H 129.566 -0.667096 0.0722739 0
M  V30 1418 H 132.11 -1.8623 0.84491 0
M  V30 1419 H 130.265 -3.81135 -0.693865 0
M  V30 1420 H 130.679 -5.13204 1.0827 0
M  V30 1421 H 132.153 -5.48838 -0.589953 0
M  V30 1422 H 132.63 -4.10255 -1.56805 0
M  V30 1423 H 133.236 -4.25188 0.0974703 0
M  V30 1424 N 131.551 -0.354651 -1.53558 0
M  V30 1425 C 132.828 0.294281 -1.93374 0
M  V30 1426 C 133.208 1.67313 -1.28723 0
M  V30 1427 O 132.556 2.24179 -0.442247 0
M  V30 1428 C 132.766 0.355445 -3.47185 0
M  V30 1429 C 134.114 0.601007 -4.20325 0
M  V30 1430 O 135.138 0.437106 -3.53508 0
M  V30 1431 O 133.997 0.919322 -5.38712 0
M  V30 1432 H 131.091 0.174033 -0.808481 0
M  V30 1433 H 133.637 -0.406638 -1.64756 0
M  V30 1434 H 132.409 -0.611729 -3.86489 0
M  V30 1435 H 132.032 1.1027 -3.82003 0
M  V30 1436 N 133.029 1.57378 -0.0835403 0
M  V30 1437 C 133.976 2.13384 0.879539 0
M  V30 1438 C 134.946 1.04936 1.28754 0
M  V30 1439 O 136.131 1.32662 1.37133 0
M  V30 1440 C 133.271 2.70932 2.13752 0
M  V30 1441 C 132.384 3.93575 1.7811 0
M  V30 1442 C 131.519 4.39326 2.98607 0
M  V30 1443 C 130.558 5.54587 2.59037 0
M  V30 1444 N 129.695 5.95243 3.72331 0
M  V30 1445 H 134.535 2.9537 0.395076 0
M  V30 1446 H 132.072 1.45953 0.183349 0
M  V30 1447 H 134.03 3.02411 2.87408 0
M  V30 1448 H 132.66 1.91693 2.59718 0
M  V30 1449 H 131.712 3.68483 0.94469 0
M  V30 1450 H 133.024 4.77258 1.45005 0
M  V30 1451 H 132.178 4.72528 3.80529 0
M  V30 1452 H 130.917 3.5452 3.34913 0
M  V30 1453 H 129.922 5.21024 1.75539 0
M  V30 1454 H 131.147 6.41133 2.23887 0
M  V30 1455 H 129.093 5.13385 4.08378 0
M  V30 1456 H 129.01 6.73694 3.43034 0
M  V30 1457 H 130.278 6.33072 4.54797 0
M  V30 1458 N 134.507 -0.190092 1.56449 0
M  V30 1459 C 135.756 -0.907912 1.80111 0
M  V30 1460 C 136.069 -1.84214 0.657619 0
M  V30 1461 O 137.275 -2.60094 0.778663 0
M  V30 1462 C 135.731 -1.66485 3.19078 0
M  V30 1463 C 135.339 -0.7752 4.41242 0
M  V30 1464 C 137.083 -2.37201 3.52045 0
M  V30 1465 C 134.99 -1.53129 5.71231 0
M  V30 1466 H 133.92 -0.34276 0.671589 0
M  V30 1467 H 136.571 -0.161109 1.82791 0
M  V30 1468 H 134.953 -2.45572 3.10661 0
M  V30 1469 H 136.127 -0.0226298 4.60794 0
M  V30 1470 H 134.442 -0.178627 4.16017 0
M  V30 1471 H 137.039 -2.94329 4.46402 0
M  V30 1472 H 137.382 -3.11632 2.76028 0
M  V30 1473 H 137.915 -1.65075 3.61932 0
M  V30 1474 H 134.654 -0.82967 6.50228 0
M  V30 1475 H 134.174 -2.25767 5.55688 0
M  V30 1476 H 135.853 -2.08377 6.12526 0
M  V30 1477 N 135.985 -1.50799 -0.457987 0
M  V30 1478 C 137.213 -1.66218 -1.23203 0
M  V30 1479 C 137.628 -0.350894 -1.85511 0
M  V30 1480 O 136.985 0.668546 -1.69814 0
M  V30 1481 C 137.036 -2.76291 -2.33121 0
M  V30 1482 O 136.757 -4.02338 -1.73366 0
M  V30 1483 C 138.258 -3.028 -3.2377 0
M  V30 1484 H 135.478 -0.558361 -0.372121 0
M  V30 1485 H 138.022 -1.97099 -0.545179 0
M  V30 1486 H 136.177 -2.48068 -2.97558 0
M  V30 1487 H 136.591 -4.63312 -2.4585 0
M  V30 1488 H 138.065 -3.8345 -3.97077 0
M  V30 1489 H 138.542 -2.14385 -3.83322 0
M  V30 1490 H 139.148 -3.32604 -2.65056 0
M  V30 1491 N 137.463 0.71206 -1.40597 0
M  V30 1492 C 138.413 1.81783 -1.37619 0
M  V30 1493 C 139.397 1.58896 -0.253162 0
M  V30 1494 O 140.589 1.70009 -0.492547 0
M  V30 1495 C 137.718 3.19944 -1.24462 0
M  V30 1496 C 136.804 3.48582 -2.4156 0
M  V30 1497 N 137.195 3.48016 -3.67041 0
M  V30 1498 C 135.493 3.79056 -2.35016 0
M  V30 1499 C 136.194 3.75096 -4.44609 0
M  V30 1500 N 135.17 3.94022 -3.74497 0
M  V30 1501 H 138.972 1.79683 -2.32575 0
M  V30 1502 H 136.486 0.91134 -1.34419 0
M  V30 1503 H 138.483 3.99133 -1.20411 0
M  V30 1504 H 137.143 3.23267 -0.304762 0
M  V30 1505 H 138.154 3.28782 -4.00153 0
M  V30 1506 H 134.831 3.89848 -1.49415 0
M  V30 1507 H 136.221 3.80934 -5.53479 0
M  V30 1508 N 138.941 1.26152 0.944643 0
M  V30 1509 C 139.871 1.09902 2.06019 0
M  V30 1510 C 140.852 0.00519538 1.70099 0
M  V30 1511 O 142.037 0.176583 1.93396 0
M  V30 1512 C 139.167 0.727562 3.39594 0
M  V30 1513 C 138.121 1.77274 3.89561 0
M  V30 1514 C 137.447 1.25569 5.19747 0
M  V30 1515 C 138.747 3.17357 4.14827 0
M  V30 1516 H 140.441 2.03217 2.19871 0
M  V30 1517 H 137.987 0.978452 1.05652 0
M  V30 1518 H 139.94 0.600777 4.17095 0
M  V30 1519 H 138.664 -0.241287 3.25707 0
M  V30 1520 H 137.323 1.88814 3.14237 0
M  V30 1521 H 136.971 0.276783 5.02238 0
M  V30 1522 H 136.671 1.95433 5.54148 0
M  V30 1523 H 138.195 1.1415 5.99835 0
M  V30 1524 H 139.609 3.08914 4.82954 0
M  V30 1525 H 138.006 3.84781 4.60504 0
M  V30 1526 H 139.076 3.63673 3.20734 0
M  V30 1527 N 140.419 -1.14872 1.07899 0
M  V30 1528 C 141.696 -1.81928 0.71845 0
M  V30 1529 C 142.076 -1.95417 -0.798455 0
M  V30 1530 O 141.424 -1.50997 -1.715 0
M  V30 1531 C 141.634 -3.17937 1.43935 0
M  V30 1532 C 142.982 -3.93501 1.59506 0
M  V30 1533 O 144.006 -3.27509 1.40058 0
M  V30 1534 O 142.865 -5.1183 1.91551 0
M  V30 1535 H 139.959 -0.78628 0.256305 0
M  V30 1536 H 142.505 -1.21934 1.18026 0
M  V30 1537 H 141.277 -3.0325 2.47295 0
M  V30 1538 H 140.9 -3.85619 0.968687 0
M  V30 1539 N 141.898 -0.863906 -1.31812 0
M  V30 1540 C 143.175 -0.39275 -1.91616 0
M  V30 1541 C 143.555 1.12461 -1.7865 0
M  V30 1542 O 142.903 1.95045 -1.19037 0
M  V30 1543 C 143.113 -0.867385 -3.38049 0
M  V30 1544 C 144.461 -0.889966 -4.15168 0
M  V30 1545 O 145.485 -0.812635 -3.46806 0
M  V30 1546 O 144.344 -1.00079 -5.37258 0
M  V30 1547 H 141.438 -0.116358 -0.818773 0
M  V30 1548 H 143.984 -0.951418 -1.40521 0
M  V30 1549 H 142.756 -1.91081 -3.41473 0
M  V30 1550 H 142.379 -0.286687 -3.96565 0
M  V30 1551 N 143.376 1.44774 -0.622745 0
M  V30 1552 C 144.286 2.34433 0.0886031 0
M  V30 1553 C 145.302 1.52131 0.844529 0
M  V30 1554 O 146.478 1.84886 0.798691 0
M  V30 1555 C 143.543 3.29986 1.0635 0
M  V30 1556 C 142.604 4.28195 0.307873 0
M  V30 1557 C 141.837 5.19183 1.23633 0
M  V30 1558 O 142.06 5.13918 2.47476 0
M  V30 1559 O 140.994 5.97515 0.725189 0
M  V30 1560 H 144.82 2.96693 -0.648599 0
M  V30 1561 H 142.405 1.44408 -0.382957 0
M  V30 1562 H 144.287 3.88825 1.6246 0
M  V30 1563 H 142.962 2.70269 1.78146 0
M  V30 1564 H 141.869 3.72927 -0.296064 0
M  V30 1565 H 143.202 4.90808 -0.3699 0
M  V30 1566 N 144.854 0.36279 1.53368 0
M  V30 1567 C 145.787 -0.528507 2.21996 0
M  V30 1568 C 146.765 -1.0852 1.21087 0
M  V30 1569 O 147.949 -1.14186 1.4998 0
M  V30 1570 C 145.076 -1.72893 2.91249 0
M  V30 1571 C 144.122 -1.29994 4.06207 0
M  V30 1572 S 144.955 -0.303575 5.34639 0
M  V30 1573 C 146.111 -1.51039 6.07403 0
M  V30 1574 H 146.344 0.0543423 2.9725 0
M  V30 1575 H 143.877 0.146889 1.537 0
M  V30 1576 H 145.835 -2.41751 3.31763 0
M  V30 1577 H 144.496 -2.28303 2.15724 0
M  V30 1578 H 143.689 -2.19549 4.53667 0
M  V30 1579 H 143.291 -0.690608 3.67569 0
M  V30 1580 H 145.583 -2.44186 6.31965 0
M  V30 1581 H 146.526 -1.07721 6.99858 0
M  V30 1582 H 146.934 -1.71518 5.37812 0
M  V30 1583 N 146.332 -1.57332 0.0918853 0
M  V30 1584 C 147.265 -2.09499 -0.904735 0
M  V30 1585 C 148.243 -1.00479 -1.27839 0
M  V30 1586 O 149.427 -1.27954 -1.38419 0
M  V30 1587 C 146.554 -2.56931 -2.2069 0
M  V30 1588 C 145.6 -3.77579 -1.98334 0
M  V30 1589 S 146.433 -5.21317 -1.22428 0
M  V30 1590 C 147.589 -5.72097 -2.53882 0
M  V30 1591 H 147.822 -2.93705 -0.460922 0
M  V30 1592 H 145.355 -1.53923 -0.121332 0
M  V30 1593 H 147.313 -2.84917 -2.95521 0
M  V30 1594 H 145.974 -1.72956 -2.62192 0
M  V30 1595 H 145.167 -4.08824 -2.94752 0
M  V30 1596 H 144.769 -3.5007 -1.31633 0
M  V30 1597 H 147.061 -5.80168 -3.49874 0
M  V30 1598 H 148.004 -6.70654 -2.27219 0
M  V30 1599 H 148.412 -5.00012 -2.62007 0
M  V30 1600 N 147.81 0.181792 -1.56548 0
M  V30 1601 C 149.087 0.926765 -1.72251 0
M  V30 1602 C 149.467 2.00831 -0.650386 0
M  V30 1603 O 148.815 2.26008 0.336521 0
M  V30 1604 C 149.025 1.50106 -3.1507 0
M  V30 1605 C 150.373 1.97805 -3.75711 0
M  V30 1606 O 151.397 1.59922 -3.18282 0
M  V30 1607 O 150.256 2.67555 -4.76525 0
M  V30 1608 H 147.35 0.435506 -0.703039 0
M  V30 1609 H 149.896 0.170443 -1.68842 0
M  V30 1610 H 148.668 0.72212 -3.84579 0
M  V30 1611 H 148.291 2.32186 -3.22763 0
M  V30 1612 N 149.288 1.51039 0.449983 0
M  V30 1613 C 150.235 1.71439 1.54523 0
M  V30 1614 C 151.205 0.555871 1.56522 0
M  V30 1615 O 152.39 0.788871 1.73728 0
M  V30 1616 C 149.53 1.83384 2.92343 0
M  V30 1617 C 148.643 3.10873 2.9997 0
M  V30 1618 C 147.778 3.13488 4.28834 0
M  V30 1619 C 146.817 4.35343 4.30282 0
M  V30 1620 N 145.954 4.35579 5.5065 0
M  V30 1621 H 150.794 2.64934 1.36433 0
M  V30 1622 H 148.331 1.31312 0.662982 0
M  V30 1623 H 150.289 1.88291 3.72293 0
M  V30 1624 H 148.919 0.933086 3.0902 0
M  V30 1625 H 147.971 3.15336 2.12761 0
M  V30 1626 H 149.283 4.00814 2.96901 0
M  V30 1627 H 148.437 3.17241 5.17149 0
M  V30 1628 H 147.176 2.21414 4.34543 0
M  V30 1629 H 146.181 4.3178 3.40362 0
M  V30 1630 H 147.406 5.28668 4.26248 0
M  V30 1631 H 145.352 3.46369 5.57104 0
M  V30 1632 H 145.269 5.19313 5.49409 0
M  V30 1633 H 146.537 4.43507 6.41032 0
M  V30 1634 N 150.766 -0.704594 1.40972 0
M  V30 1635 C 152.012 -1.46675 1.40051 0
M  V30 1636 C 152.345 -1.94199 0.00641102 0
M  V30 1637 O 151.62 -1.68916 -0.964235 0
M  V30 1638 C 151.903 -2.68505 2.39952 0
M  V30 1639 C 151.756 -2.26805 3.88432 0
M  V30 1640 C 153.075 -3.70686 2.37233 0
M  V30 1641 H 150.194 -0.532015 0.510028 0
M  V30 1642 H 152.836 -0.803255 1.72185 0
M  V30 1643 H 150.986 -3.25114 2.1268 0
M  V30 1644 H 152.658 -1.75592 4.26574 0
M  V30 1645 H 150.901 -1.58685 4.03734 0
M  V30 1646 H 151.572 -3.14181 4.53866 0
M  V30 1647 H 154.048 -3.23731 2.61415 0
M  V30 1648 H 152.924 -4.53553 3.09162 0
M  V30 1649 H 153.185 -4.19754 1.38777 0
M  V30 1650 N 152.244 -1.26651 -0.937939 0
M  V30 1651 C 153.521 -1.0313 -1.66204 0
M  V30 1652 C 153.901 0.437256 -2.06522 0
M  V30 1653 O 153.249 1.41831 -1.79154 0
M  V30 1654 C 153.459 -1.98314 -2.87181 0
M  V30 1655 C 154.807 -2.27107 -3.58758 0
M  V30 1656 O 155.831 -1.96205 -2.97291 0
M  V30 1657 O 154.69 -2.79736 -4.69479 0
M  V30 1658 H 151.784 -0.392384 -0.727986 0
M  V30 1659 H 154.33 -1.37874 -0.989382 0
M  V30 1660 H 153.102 -2.97399 -2.54302 0
M  V30 1661 H 152.725 -1.64068 -3.6217 0
M  V30 1662 N 153.722 1.14298 -1.08507 0
M  V30 1663 C 154.632 2.23027 -0.727753 0
M  V30 1664 C 155.648 1.71952 0.26619 0
M  V30 1665 O 156.824 2.011 0.109882 0
M  V30 1666 C 153.889 3.46403 -0.143541 0
M  V30 1667 C 152.95 4.12413 -1.19223 0
M  V30 1668 C 152.183 5.29899 -0.635798 0
M  V30 1669 O 152.406 5.67796 0.544393 0
M  V30 1670 O 151.34 5.85717 -1.38634 0
M  V30 1671 H 155.166 2.55945 -1.63481 0
M  V30 1672 H 152.751 1.22248 -0.858817 0
M  V30 1673 H 154.633 4.21018 0.179404 0
M  V30 1674 H 153.308 3.15206 0.736659 0
M  V30 1675 H 152.215 3.39667 -1.56772 0
M  V30 1676 H 153.548 4.47718 -2.04474 0
M  V30 1677 N 155.201 0.870884 1.31352 0
M  V30 1678 C 156.164 0.332243 2.26779 0
M  V30 1679 C 157.164 -0.517302 1.52252 0
M  V30 1680 O 158.354 -0.326477 1.71113 0
M  V30 1681 C 155.486 -0.528066 3.36785 0
M  V30 1682 H 156.679 1.17469 2.75937 0
M  V30 1683 H 154.232 0.64655 1.423 0
M  V30 1684 H 154.967 -1.39167 2.92922 0
M  V30 1685 H 154.752 0.0802582 3.92018 0
M  V30 1686 H 156.242 -0.897179 4.07849 0
M  V30 1687 N 156.679 -1.44442 0.630414 0
M  V30 1688 C 157.609 -2.33418 -0.0618083 0
M  V30 1689 C 158.59 -1.48165 -0.835541 0
M  V30 1690 O 159.775 -1.76886 -0.801564 0
M  V30 1691 C 156.905 -3.31222 -1.04449 0
M  V30 1692 C 155.859 -4.26288 -0.382436 0
M  V30 1693 C 155.185 -5.13954 -1.47497 0
M  V30 1694 C 156.485 -5.1744 0.710865 0
M  V30 1695 H 158.179 -2.91548 0.681184 0
M  V30 1696 H 155.725 -1.40191 0.329026 0
M  V30 1697 H 157.678 -3.92351 -1.53748 0
M  V30 1698 H 156.402 -2.71299 -1.81836 0
M  V30 1699 H 155.061 -3.6649 0.0899054 0
M  V30 1700 H 154.709 -4.50385 -2.2397 0
M  V30 1701 H 154.409 -5.7837 -1.03737 0
M  V30 1702 H 155.933 -5.77955 -1.96979 0
M  V30 1703 H 157.347 -5.72509 0.300996 0
M  V30 1704 H 155.744 -5.90455 1.07156 0
M  V30 1705 H 156.814 -4.58496 1.57829 0
M  V30 1706 N 158.157 -0.370918 -1.53173 0
M  V30 1707 C 159.089 0.507823 -2.23503 0
M  V30 1708 C 160.102 1.04182 -1.251 0
M  V30 1709 O 161.291 0.947286 -1.5129 0
M  V30 1710 C 158.391 1.71447 -2.92334 0
M  V30 1711 C 157.564 1.31105 -4.17289 0
M  V30 1712 C 156.623 2.38035 -4.69282 0
M  V30 1713 O 155.649 2.00204 -5.32829 0
M  V30 1714 N 156.851 3.69697 -4.47554 0
M  V30 1715 H 159.616 -0.0946382 -2.99551 0
M  V30 1716 H 157.177 -0.196358 -1.60705 0
M  V30 1717 H 159.169 2.42469 -3.24023 0
M  V30 1718 H 157.739 2.22368 -2.19707 0
M  V30 1719 H 156.959 0.430462 -3.91843 0
M  V30 1720 H 158.247 1.0179 -4.98514 0
M  V30 1721 H 157.645 4.03205 -3.9679 0
M  V30 1722 H 156.202 4.36807 -4.8378 0
M  V30 1723 N 159.635 1.57281 -0.100228 0
M  V30 1724 C 160.884 1.93713 0.561984 0
M  V30 1725 C 161.197 0.984492 1.69018 0
M  V30 1726 O 162.403 1.24273 2.41389 0
M  V30 1727 C 160.859 3.4421 1.05106 0
M  V30 1728 C 160.467 4.47975 -0.0476628 0
M  V30 1729 C 162.211 3.89595 1.68571 0
M  V30 1730 C 160.118 5.89631 0.457055 0
M  V30 1731 H 159.048 0.723082 0.2137 0
M  V30 1732 H 161.699 1.82644 -0.177057 0
M  V30 1733 H 160.081 3.50449 1.84395 0
M  V30 1734 H 161.255 4.53385 -0.823333 0
M  V30 1735 H 159.57 4.1223 -0.587816 0
M  V30 1736 H 162.167 4.92832 2.07414 0
M  V30 1737 H 162.51 3.28526 2.55688 0
M  V30 1738 H 163.043 3.86078 0.958562 0
M  V30 1739 H 159.782 6.54411 -0.377616 0
M  V30 1740 H 159.302 5.87681 1.19962 0
M  V30 1741 H 160.981 6.40363 0.92437 0
M  V30 1742 N 161.113 -0.173488 1.56642 0
M  V30 1743 C 162.338 -0.910149 1.86363 0
M  V30 1744 C 162.763 -1.75132 0.686318 0
M  V30 1745 O 162.121 -1.77595 -0.364643 0
M  V30 1746 C 162.169 -1.76447 3.14482 0
M  V30 1747 O 161.273 -2.86584 2.96553 0
M  V30 1748 H 160.614 -0.255086 0.613047 0
M  V30 1749 H 163.144 -0.172283 2.03873 0
M  V30 1750 H 163.154 -2.16483 3.45831 0
M  V30 1751 H 161.829 -1.14658 3.99783 0
M  V30 1752 H 160.406 -2.50146 2.76553 0
M  V30 1753 N 162.591 -1.51276 -0.441967 0
M  V30 1754 C 163.521 -1.752 -1.54361 0
M  V30 1755 C 164.502 -0.601682 -1.59103 0
M  V30 1756 O 165.687 -0.843913 -1.74905 0
M  V30 1757 C 162.817 -1.87282 -2.92477 0
M  V30 1758 C 161.771 -3.02687 -3.02596 0
M  V30 1759 C 161.097 -2.99947 -4.42647 0
M  V30 1760 C 162.397 -4.4273 -2.77106 0
M  V30 1761 H 164.091 -2.67442 -1.34592 0
M  V30 1762 H 161.637 -1.28694 -0.646048 0
M  V30 1763 H 163.59 -2.02602 -3.695 0
M  V30 1764 H 162.314 -0.916844 -3.13467 0
M  V30 1765 H 160.973 -2.87065 -2.28012 0
M  V30 1766 H 160.621 -2.02136 -4.60597 0
M  V30 1767 H 160.321 -3.77439 -4.50348 0
M  V30 1768 H 161.845 -3.17354 -5.2165 0
M  V30 1769 H 163.259 -4.58727 -3.43864 0
M  V30 1770 H 161.656 -5.21893 -2.96222 0
M  V30 1771 H 162.726 -4.53087 -1.72744 0
M  V30 1772 N 164.069 0.697108 -1.41344 0
M  V30 1773 C 165.032 1.79281 -1.42797 0
M  V30 1774 C 166.032 1.57607 -0.318837 0
M  V30 1775 O 167.222 1.64309 -0.578642 0
M  V30 1776 C 164.354 3.17632 -1.23785 0
M  V30 1777 H 165.547 1.79385 -2.40335 0
M  V30 1778 H 163.1 0.904582 -1.27464 0
M  V30 1779 H 163.835 3.23167 -0.270814 0
M  V30 1780 H 163.62 3.34765 -2.04144 0
M  V30 1781 H 165.11 3.97617 -1.27633 0
M  V30 1782 N 165.547 1.27147 0.931209 0
M  V30 1783 C 166.477 1.12081 2.04842 0
M  V30 1784 C 167.458 0.0232364 1.70084 0
M  V30 1785 O 168.643 0.197085 1.93197 0
M  V30 1786 C 165.773 0.76354 3.38803 0
M  V30 1787 C 164.727 1.81396 3.87659 0
M  V30 1788 C 164.053 1.31075 5.18385 0
M  V30 1789 C 165.353 3.21739 4.11438 0
M  V30 1790 H 167.047 2.05537 2.17703 0
M  V30 1791 H 164.593 0.989603 1.04608 0
M  V30 1792 H 166.546 0.644982 4.16435 0
M  V30 1793 H 165.27 -0.206727 3.25945 0
M  V30 1794 H 163.929 1.92136 3.12217 0
M  V30 1795 H 163.577 0.330037 5.01916 0
M  V30 1796 H 163.277 2.013 5.52044 0
M  V30 1797 H 164.801 1.20506 5.98591 0
M  V30 1798 H 166.215 3.14019 4.79651 0
M  V30 1799 H 164.612 3.89644 4.56397 0
M  V30 1800 H 165.682 3.67054 3.16859 0
M  V30 1801 N 167.025 -1.13721 1.09112 0
M  V30 1802 C 168.274 -1.84275 0.82009 0
M  V30 1803 C 168.587 -1.84253 -0.656509 0
M  V30 1804 O 169.793 -2.50668 -1.04296 0
M  V30 1805 C 168.249 -3.30825 1.41714 0
M  V30 1806 C 167.857 -3.39244 2.92605 0
M  V30 1807 C 169.601 -4.06443 1.22492 0
M  V30 1808 C 167.508 -4.80047 3.45411 0
M  V30 1809 H 166.438 -0.690387 0.30312 0
M  V30 1810 H 169.089 -1.28146 1.31343 0
M  V30 1811 H 167.471 -3.86737 0.851498 0
M  V30 1812 H 168.645 -2.93344 3.55367 0
M  V30 1813 H 166.96 -2.77088 3.10823 0
M  V30 1814 H 169.557 -5.10387 1.59402 0
M  V30 1815 H 169.9 -4.15972 0.165299 0
M  V30 1816 H 170.433 -3.56852 1.75788 0
M  V30 1817 H 167.172 -4.75709 4.50978 0
M  V30 1818 H 166.692 -5.26455 2.87411 0
M  V30 1819 H 168.371 -5.48957 3.42425 0
M  V30 1820 N 168.503 -0.877838 -1.30888 0
M  V30 1821 C 169.78 -0.413052 -1.91189 0
M  V30 1822 C 170.16 1.1056 -1.79832 0
M  V30 1823 O 169.508 1.93771 -1.21099 0
M  V30 1824 C 169.718 -0.903191 -3.3711 0
M  V30 1825 C 171.066 -0.93395 -4.14201 0
M  V30 1826 O 172.09 -0.849373 -3.45925 0
M  V30 1827 O 170.949 -1.05772 -5.36167 0
M  V30 1828 H 168.043 -0.125035 -0.817493 0
M  V30 1829 H 170.589 -0.966269 -1.39504 0
M  V30 1830 H 169.361 -1.94692 -3.39427 0
M  V30 1831 H 168.984 -0.328732 -3.96239 0
M  V30 1832 N 169.982 1.44106 -0.638065 0
M  V30 1833 C 171.229 2.01978 -0.14533 0
M  V30 1834 C 171.557 1.50234 1.23532 0
M  V30 1835 O 170.812 0.679548 1.83523 0
M  V30 1836 C 171.111 3.5729 -0.0887327 0
M  V30 1837 C 170.777 4.28317 -1.40909 0
M  V30 1838 C 169.439 4.47437 -1.77069 0
M  V30 1839 C 171.791 4.6867 -2.28031 0
M  V30 1840 C 169.119 5.04171 -3.00047 0
M  V30 1841 C 171.471 5.26766 -3.50286 0
M  V30 1842 C 170.135 5.44104 -3.86661 0
M  V30 1843 H 169.405 0.739089 -0.0531801 0
M  V30 1844 H 172.052 1.72781 -0.825761 0
M  V30 1845 H 170.357 3.8594 0.675095 0
M  V30 1846 H 172.054 3.99807 0.309145 0
M  V30 1847 H 168.644 4.1377 -1.1177 0
M  V30 1848 H 172.828 4.53604 -2.01388 0
M  V30 1849 H 168.084 5.15782 -3.28298 0
M  V30 1850 H 172.258 5.56983 -4.18023 0
M  V30 1851 H 169.885 5.87832 -4.82034 0
M  V30 1852 O 171.499 0.52123 1.52858 0
M  V30 1853 H 172.19 0.00896083 1.93698 0
M  V30 END ATOM
M  V30 BEGIN BOND
M  V30 END BOND
M  V30 END CTAB
M  END
$$$$
