drugbank_target|P96618 Holo-[acyl-carrier-protein] synthase (DB01992; DB04447)
 OpenBabel12092120003D

  0  0  0     0  0            999 V3000
M  V30 BEGIN CTAB
M  V30 COUNTS 1958 1971 0 0 0
M  V30 BEGIN ATOM
M  V30 1 H -0.908 1.98254 -0.117106 0
M  V30 2 N 0 1.576 0 0
M  V30 3 C 0.933 2.03868 1.02534 0
M  V30 4 C 1.911 0.928543 1.3348 0
M  V30 5 O 3.095 1.19667 1.45644 0
M  V30 6 C 0.222 2.43627 2.35294 0
M  V30 7 C -0.732 3.65373 2.2001 0
M  V30 8 S 0.101 5.13292 1.52614 0
M  V30 9 C 1.257 5.56322 2.86805 0
M  V30 10 H 1.49 2.90518 0.631377 0
M  V30 11 H -0.977 1.52953 0.210867 0
M  V30 12 H 0.981 2.67203 3.11629 0
M  V30 13 H -0.358 1.57376 2.7183 0
M  V30 14 H -1.165 3.90944 3.18086 0
M  V30 15 H -1.563 3.418 1.51819 0
M  V30 16 H 0.729 5.58782 3.83104 0
M  V30 17 H 1.672 6.56266 2.65933 0
M  V30 18 H 2.08 4.83886 2.90714 0
M  V30 19 N 1.4781 -0.272755 1.55222 0
M  V30 20 C 2.7271 -1.00211 1.75045 0
M  V30 21 C 3.0401 -1.87441 0.559046 0
M  V30 22 O 4.2461 -2.63856 0.639698 0
M  V30 23 C 2.7021 -1.83165 3.09804 0
M  V30 24 C 2.3101 -1.008 4.36513 0
M  V30 25 C 4.0541 -2.55529 3.38977 0
M  V30 26 C 1.9611 -1.83194 5.62311 0
M  V30 27 H 0.8911 -0.377878 0.652476 0
M  V30 28 H 3.5421 -0.257776 1.8168 0
M  V30 29 H 1.9241 -2.61694 2.97207 0
M  V30 30 H 3.0981 -0.266855 4.60027 0
M  V30 31 H 1.4131 -0.398897 4.14485 0
M  V30 32 H 4.0101 -3.17578 4.30172 0
M  V30 33 H 4.3531 -3.25825 2.59121 0
M  V30 34 H 4.8861 -1.84029 3.52673 0
M  V30 35 H 1.6251 -1.17318 6.44916 0
M  V30 36 H 1.1451 -2.54905 5.4294 0
M  V30 37 H 2.8241 -2.40552 6.00619 0
M  V30 38 N 2.9562 -1.48159 -0.537278 0
M  V30 39 C 4.1862 -1.59223 -1.3165 0
M  V30 40 C 4.5942 -0.248849 -1.87556 0
M  V30 41 O 3.9372 0.770949 -1.6674 0
M  V30 42 C 3.9992 -2.57365 -2.51005 0
M  V30 43 C 3.6632 -4.02603 -2.16239 0
M  V30 44 C 4.6602 -4.90503 -1.72344 0
M  V30 45 C 2.3452 -4.48088 -2.26986 0
M  V30 46 C 4.3392 -6.21913 -1.39651 0
M  V30 47 C 2.0262 -5.7952 -1.93906 0
M  V30 48 C 3.0242 -6.66255 -1.50309 0
M  V30 49 O 2.7122 -7.95243 -1.17659 0
M  V30 50 H 2.4442 -0.539831 -0.406889 0
M  V30 51 H 4.9982 -1.94655 -0.655641 0
M  V30 52 H 3.2282 -2.1704 -3.20048 0
M  V30 53 H 4.9172 -2.58342 -3.13072 0
M  V30 54 H 5.6832 -4.56604 -1.63517 0
M  V30 55 H 1.5622 -3.80769 -2.59877 0
M  V30 56 H 5.1062 -6.89569 -1.0555 0
M  V30 57 H 1.0032 -6.12957 -2.02371 0
M  V30 58 H 1.7712 -8.0793 -1.31119 0
M  V30 59 N 4.4343 0.785586 -1.36625 0
M  V30 60 C 5.6823 1.54057 -1.30808 0
M  V30 61 C 6.0033 1.94683 0.111157 0
M  V30 62 O 5.2733 1.65241 1.05224 0
M  V30 63 H 3.8533 0.571354 -0.481211 0
M  V30 64 H 6.5153 0.935821 -1.70963 0
M  V30 65 H 5.6113 2.44637 -1.93801 0
M  V30 66 N 5.9124 1.20967 1.01018 0
M  V30 67 C 7.1614 1.01796 1.74128 0
M  V30 68 C 7.4744 -0.449691 1.90361 0
M  V30 69 O 8.6804 -0.76068 2.60626 0
M  V30 70 C 7.1364 1.7727 3.13215 0
M  V30 71 C 6.7444 3.28171 3.04972 0
M  V30 72 C 8.4884 1.66489 3.90489 0
M  V30 73 C 6.3954 3.96156 4.39107 0
M  V30 74 H 5.3254 0.377276 0.652824 0
M  V30 75 H 7.9764 1.44651 1.12909 0
M  V30 76 H 6.3584 1.27205 3.75013 0
M  V30 77 H 7.5324 3.85499 2.52443 0
M  V30 78 H 5.8474 3.39437 2.41188 0
M  V30 79 H 8.4444 2.14617 4.89738 0
M  V30 80 H 8.7874 0.6222 4.11624 0
M  V30 81 H 9.3204 2.14003 3.35332 0
M  V30 82 H 6.0594 5.00604 4.23174 0
M  V30 83 H 5.5794 3.43617 4.91617 0
M  V30 84 H 7.2584 4.00774 5.07926 0
M  V30 85 N 7.3905 -1.2043 1.01659 0
M  V30 86 C 8.6385 -1.89423 0.704522 0
M  V30 87 C 8.9595 -1.79231 -0.768197 0
M  V30 88 O 8.2295 -1.1947 -1.55254 0
M  V30 89 H 6.8095 -0.701178 0.257602 0
M  V30 90 H 9.4715 -1.4626 1.28818 0
M  V30 91 H 8.5675 -2.96052 0.987916 0
M  V30 92 N 8.8686 -0.792821 -1.36206 0
M  V30 93 C 9.7986 -0.207853 -2.32573 0
M  V30 94 C 10.7796 0.659055 -1.56813 0
M  V30 95 O 11.9646 0.592176 -1.84951 0
M  V30 96 C 9.0946 0.655449 -3.41059 0
M  V30 97 C 8.0486 -0.111842 -4.27854 0
M  V30 98 C 7.3746 0.872274 -5.27537 0
M  V30 99 C 8.6746 -1.30299 -5.05786 0
M  V30 100 H 10.3686 -1.01294 -2.81744 0
M  V30 101 H 7.9146 -0.48854 -1.3546 0
M  V30 102 H 9.8676 1.07464 -4.07467 0
M  V30 103 H 8.5916 1.49328 -2.90463 0
M  V30 104 H 7.2506 -0.512053 -3.63006 0
M  V30 105 H 6.8986 1.70523 -4.73214 0
M  V30 106 H 6.5986 0.363291 -5.86476 0
M  V30 107 H 8.1226 1.28996 -5.96818 0
M  V30 108 H 9.5366 -0.959379 -5.65216 0
M  V30 109 H 7.9336 -1.7455 -5.74154 0
M  V30 110 H 9.0036 -2.09663 -4.37229 0
M  V30 111 N 10.3467 1.47872 -0.545128 0
M  V30 112 C 11.6237 1.9554 0.0485222 0
M  V30 113 C 12.0037 1.4876 1.49779 0
M  V30 114 O 11.3517 0.720925 2.16829 0
M  V30 115 C 11.5617 3.48898 -0.084417 0
M  V30 116 C 12.9097 4.24547 0.0671239 0
M  V30 117 O 13.9337 3.56198 -0.0113649 0
M  V30 118 O 12.7927 5.45999 0.233882 0
M  V30 119 H 9.8867 0.823957 0.0708773 0
M  V30 120 H 12.4327 1.58327 -0.610798 0
M  V30 121 H 11.2047 3.75714 -1.09337 0
M  V30 122 H 10.8277 3.92845 0.613066 0
M  V30 123 N 11.8248 0.280983 1.55075 0
M  V30 124 C 13.0738 -0.334784 1.98902 0
M  V30 125 C 13.3868 -1.56534 1.17288 0
M  V30 126 O 14.5928 -2.25443 1.51287 0
M  V30 127 C 13.0488 -0.646994 3.54037 0
M  V30 128 C 12.6568 0.564085 4.44435 0
M  V30 129 C 14.4008 -1.22506 4.06439 0
M  V30 130 C 12.3078 0.226137 5.90967 0
M  V30 131 H 11.2378 -0.128866 0.742906 0
M  V30 132 H 13.8888 0.386556 1.79382 0
M  V30 133 H 12.2708 -1.42739 3.6938 0
M  V30 134 H 13.4448 1.34082 4.40861 0
M  V30 135 H 11.7598 1.0594 4.02698 0
M  V30 136 H 14.3568 -1.49182 5.13468 0
M  V30 137 H 14.6998 -2.16085 3.55827 0
M  V30 138 H 15.2328 -0.50682 3.94558 0
M  V30 139 H 11.9718 1.12996 6.45687 0
M  V30 140 H 11.4918 -0.513717 5.97596 0
M  V30 141 H 13.1708 -0.179539 6.46751 0
M  V30 142 N 13.3029 -1.57598 0.00835791 0
M  V30 143 C 14.5309 -1.95214 -0.68549 0
M  V30 144 C 14.9459 -0.883706 -1.66841 0
M  V30 145 O 14.3029 0.136565 -1.81988 0
M  V30 146 C 14.3539 -3.32865 -1.41007 0
M  V30 147 O 14.0749 -4.35609 -0.466552 0
M  V30 148 C 15.5759 -3.84991 -2.19765 0
M  V30 149 H 12.7959 -0.643422 -0.190392 0
M  V30 150 H 15.3399 -2.04406 0.0619607 0
M  V30 151 H 13.4949 -3.24956 -2.10908 0
M  V30 152 H 13.9089 -5.15288 -0.978699 0
M  V30 153 H 15.3829 -4.8371 -2.65948 0
M  V30 154 H 15.8599 -3.18137 -3.02796 0
M  V30 155 H 16.4659 -3.96103 -1.54864 0
M  V30 156 N 14.781 0.264519 -1.55364 0
M  V30 157 C 15.691 1.34902 -1.91934 0
M  V30 158 C 16.707 1.53595 -0.817593 0
M  V30 159 O 17.883 1.67558 -1.11742 0
M  V30 160 C 14.948 2.68676 -2.19121 0
M  V30 161 C 14.009 2.58657 -3.4263 0
M  V30 162 C 13.242 3.86051 -3.68511 0
M  V30 163 O 13.465 4.87126 -2.96757 0
M  V30 164 O 12.399 3.85744 -4.62045 0
M  V30 165 H 16.225 1.06883 -2.8427 0
M  V30 166 H 13.81 0.463775 -1.42019 0
M  V30 167 H 15.692 3.47759 -2.37995 0
M  V30 168 H 14.367 2.96463 -1.29966 0
M  V30 169 H 13.274 1.7792 -3.29082 0
M  V30 170 H 14.607 2.35818 -4.32031 0
M  V30 171 N 16.2591 1.48442 0.529413 0
M  V30 172 C 17.1891 1.65902 1.64313 0
M  V30 173 C 18.1701 0.507897 1.6234 0
M  V30 174 O 19.3551 0.740503 1.79528 0
M  V30 175 C 16.4851 1.69911 3.02898 0
M  V30 176 C 15.4391 2.8453 3.19729 0
M  V30 177 C 14.7651 2.73629 4.59381 0
M  V30 178 C 16.0651 4.25821 3.02447 0
M  V30 179 H 17.7591 2.5914 1.49955 0
M  V30 180 H 15.3051 1.24709 0.719982 0
M  V30 181 H 17.2581 1.80715 3.80684 0
M  V30 182 H 15.9821 0.732524 3.18279 0
M  V30 183 H 14.6411 2.73283 2.44361 0
M  V30 184 H 14.2891 1.74938 4.71599 0
M  V30 185 H 13.9891 3.50541 4.71588 0
M  V30 186 H 15.5131 2.86401 5.39265 0
M  V30 187 H 16.9271 4.37898 3.70024 0
M  V30 188 H 15.3241 5.03735 3.26146 0
M  V30 189 H 16.3941 4.42244 1.98867 0
M  V30 190 N 17.7372 -0.778329 1.37039 0
M  V30 191 C 18.6842 -1.89139 1.32269 0
M  V30 192 C 19.6542 -1.65017 0.189387 0
M  V30 193 O 20.8392 -1.87024 0.377693 0
M  V30 194 C 17.9792 -3.26112 1.12894 0
M  V30 195 C 17.0922 -3.62233 2.35396 0
M  V30 196 C 16.2272 -4.8838 2.08946 0
M  V30 197 C 15.2662 -5.17212 3.2735 0
M  V30 198 N 14.4032 -6.34546 3.00492 0
M  V30 199 H 19.2432 -1.92552 2.27437 0
M  V30 200 H 16.7802 -0.941473 1.13025 0
M  V30 201 H 18.7382 -4.05116 0.996835 0
M  V30 202 H 17.3682 -3.22091 0.213758 0
M  V30 203 H 16.4202 -2.78265 2.5937 0
M  V30 204 H 17.7322 -3.79481 3.23721 0
M  V30 205 H 16.8862 -5.75274 1.92729 0
M  V30 206 H 15.6252 -4.73222 1.17949 0
M  V30 207 H 14.6302 -4.28796 3.44113 0
M  V30 208 H 15.8552 -5.34283 4.19188 0
M  V30 209 H 13.8012 -6.20759 2.12118 0
M  V30 210 H 13.7182 -6.52179 3.82358 0
M  V30 211 H 14.9862 -7.24394 2.87879 0
M  V30 212 N 19.2153 -1.21501 -1.00376 0
M  V30 213 C 20.6313 -0.972629 -1.26539 0
M  V30 214 C 20.8313 0.340257 -1.98606 0
M  V30 215 O 19.8873 1.06561 -2.28913 0
M  V30 216 C 21.2003 -2.16404 -2.08781 0
M  V30 217 C 22.7483 -2.20643 -2.22004 0
M  V30 218 C 23.2233 -3.39306 -3.07629 0
M  V30 219 N 24.7143 -3.39401 -3.15217 0
M  V30 220 C 25.4493 -4.27867 -3.81729 0
M  V30 221 N 24.9453 -5.26533 -4.5026 0
M  V30 222 N 26.7383 -4.15672 -3.78382 0
M  V30 223 H 18.8893 -2.05929 -0.520281 0
M  V30 224 H 21.1523 -0.901803 -0.292328 0
M  V30 225 H 20.8583 -3.11554 -1.63178 0
M  V30 226 H 20.7323 -2.15567 -3.09533 0
M  V30 227 H 23.1193 -1.26048 -2.66825 0
M  V30 228 H 23.2003 -2.25523 -1.20718 0
M  V30 229 H 22.8443 -4.34195 -2.63509 0
M  V30 230 H 22.7743 -3.31665 -4.09031 0
M  V30 231 H 25.2653 -2.67997 -2.66432 0
M  V30 232 H 25.5783 -5.90337 -4.98721 0
M  V30 233 H 23.9233 -5.30457 -4.49044 0
M  V30 234 H 27.1143 -3.3785 -3.23998 0
M  V30 235 H 27.2873 -4.84825 -4.2994 0
M  V30 236 N 20.6934 1.19889 -1.02296 0
M  V30 237 C 21.9424 1.88743 -0.711257 0
M  V30 238 C 22.2554 1.80112 0.762817 0
M  V30 239 O 23.4614 2.44161 1.18733 0
M  V30 240 C 21.9174 3.38525 -1.22185 0
M  V30 241 C 21.5254 3.55727 -2.72328 0
M  V30 242 C 23.2694 4.12893 -0.985864 0
M  V30 243 C 21.1764 4.99369 -3.16835 0
M  V30 244 H 20.1064 0.706885 -0.262353 0
M  V30 245 H 22.7574 1.35586 -1.23648 0
M  V30 246 H 21.1394 3.91044 -0.624571 0
M  V30 247 H 22.3134 3.13564 -3.3766 0
M  V30 248 H 20.6284 2.94739 -2.9414 0
M  V30 249 H 23.2254 5.18813 -1.29374 0
M  V30 250 H 23.5684 4.16228 0.0775055 0
M  V30 251 H 24.1014 3.66494 -1.54684 0
M  V30 252 H 20.8404 5.01193 -4.22476 0
M  V30 253 H 20.3604 5.42317 -2.56228 0
M  V30 254 H 22.0394 5.67988 -3.09837 0
M  V30 255 N 22.1715 0.800033 1.35784 0
M  V30 256 C 23.1345 0.211565 2.28221 0
M  V30 257 C 24.1345 -0.59728 1.49296 0
M  V30 258 O 25.3245 -0.416721 1.69142 0
M  V30 259 C 22.4565 -0.705846 3.33513 0
M  V30 260 H 23.6495 1.02677 2.81776 0
M  V30 261 H 21.2025 0.570211 1.45528 0
M  V30 262 H 21.9375 -1.54498 2.85133 0
M  V30 263 H 21.7225 -0.127655 3.91892 0
M  V30 264 H 23.2125 -1.11211 4.02519 0
M  V30 265 N 23.6496 -1.47581 0.552962 0
M  V30 266 C 24.8746 -2.07378 0.0300593 0
M  V30 267 C 25.2996 -1.40355 -1.25229 0
M  V30 268 O 24.6576 -0.477099 -1.7491 0
M  V30 269 C 24.7056 -3.60274 -0.153231 0
M  V30 270 O 23.8096 -3.94041 -1.21678 0
M  V30 271 H 23.1506 -0.662158 0.0494182 0
M  V30 272 H 25.6806 -1.89662 0.767434 0
M  V30 273 H 25.6906 -4.0633 -0.368761 0
M  V30 274 H 24.3656 -4.08455 0.783397 0
M  V30 275 H 22.9426 -3.59735 -0.982079 0
M  V30 276 N 25.1277 -0.289203 -1.54924 0
M  V30 277 C 26.0607 0.633823 -2.19221 0
M  V30 278 C 27.0387 1.14174 -1.15772 0
M  V30 279 O 28.2227 1.21211 -1.44361 0
M  V30 280 C 25.3497 1.86592 -2.82668 0
M  V30 281 C 24.3957 1.49227 -3.99542 0
M  V30 282 S 25.2287 0.558312 -5.32582 0
M  V30 283 C 26.3847 1.79847 -5.99505 0
M  V30 284 H 26.6177 0.0875416 -2.97171 0
M  V30 285 H 24.1507 -0.0733899 -1.54225 0
M  V30 286 H 26.1087 2.57305 -3.19851 0
M  V30 287 H 24.7697 2.38335 -2.04585 0
M  V30 288 H 23.9627 2.40945 -4.42676 0
M  V30 289 H 23.5647 0.865193 -3.63855 0
M  V30 290 H 25.8567 2.7406 -6.19595 0
M  V30 291 H 26.7997 1.4099 -6.93922 0
M  V30 292 H 27.2077 1.96982 -5.29016 0
M  V30 293 N 26.6058 1.57591 -0.0167156 0
M  V30 294 C 27.5688 2.08393 0.954204 0
M  V30 295 C 28.5688 0.996531 1.26198 0
M  V30 296 O 29.7588 1.25858 1.20438 0
M  V30 297 C 26.8908 2.5394 2.27436 0
M  V30 298 H 28.0838 2.95455 0.514451 0
M  V30 299 H 25.6368 1.54582 0.231089 0
M  V30 300 H 26.3718 1.70171 2.76066 0
M  V30 301 H 26.1568 3.33371 2.06412 0
M  V30 302 H 27.6468 2.93512 2.97053 0
M  V30 303 N 28.0839 -0.256276 1.55502 0
M  V30 304 C 29.3319 -0.983672 1.76545 0
M  V30 305 C 29.6529 -1.86206 0.578982 0
M  V30 306 O 28.9229 -1.91656 -0.405577 0
M  V30 307 H 27.5029 -0.366191 0.651086 0
M  V30 308 H 30.1649 -0.276479 1.92929 0
M  V30 309 H 29.2609 -1.61087 2.67315 0
M  V30 310 N 29.562 -1.4872 -0.521534 0
M  V30 311 C 30.978 -1.35028 -0.850855 0
M  V30 312 C 31.178 -0.367712 -1.98116 0
M  V30 313 O 30.234 0.208037 -2.51642 0
M  V30 314 C 31.547 -2.75263 -1.21041 0
M  V30 315 C 33.095 -2.83813 -1.31981 0
M  V30 316 C 33.57 -4.24769 -1.71276 0
M  V30 317 N 35.061 -4.27482 -1.78363 0
M  V30 318 C 35.796 -5.33494 -2.1017 0
M  V30 319 N 35.292 -6.49775 -2.40343 0
M  V30 320 N 37.085 -5.20894 -2.11248 0
M  V30 321 H 29.236 -2.11214 0.22413 0
M  V30 322 H 31.499 -0.947252 0.0376439 0
M  V30 323 H 31.205 -3.48765 -0.453415 0
M  V30 324 H 31.079 -3.09327 -2.15863 0
M  V30 325 H 33.466 -2.10561 -2.06756 0
M  V30 326 H 33.547 -2.53358 -0.352596 0
M  V30 327 H 33.191 -4.9854 -0.970588 0
M  V30 328 H 33.121 -4.52673 -2.69062 0
M  V30 329 H 35.612 -3.43611 -1.57288 0
M  V30 330 H 35.925 -7.26402 -2.63743 0
M  V30 331 H 34.27 -6.53035 -2.37844 0
M  V30 332 H 37.461 -4.29065 -1.87139 0
M  V30 333 H 37.634 -6.03612 -2.35704 0
M  V30 334 N 31.0401 0.771051 -1.3745 0
M  V30 335 C 31.9721 1.89352 -1.29146 0
M  V30 336 C 32.9851 1.61477 -0.207124 0
M  V30 337 O 34.1741 1.72382 -0.463324 0
M  V30 338 C 31.2741 3.24596 -0.974195 0
M  V30 339 C 30.4471 3.80111 -2.16413 0
M  V30 340 C 29.5061 4.93832 -1.81703 0
M  V30 341 O 28.5321 5.09382 -2.54006 0
M  V30 342 N 29.7341 5.75483 -0.761573 0
M  V30 343 H 32.4991 1.96991 -2.25864 0
M  V30 344 H 30.0601 0.950191 -1.31084 0
M  V30 345 H 32.0521 3.98193 -0.722828 0
M  V30 346 H 30.6221 3.12454 -0.0955527 0
M  V30 347 H 29.8421 2.98284 -2.57721 0
M  V30 348 H 31.1301 4.13932 -2.95867 0
M  V30 349 H 30.5281 5.65469 -0.161609 0
M  V30 350 H 29.0851 6.49302 -0.570064 0
M  V30 351 N 32.5182 1.22032 0.997298 0
M  V30 352 C 33.4652 0.986467 2.08656 0
M  V30 353 C 34.4352 -0.0902671 1.65855 0
M  V30 354 O 35.6202 0.0584294 1.90711 0
M  V30 355 C 32.7602 0.565569 3.40434 0
M  V30 356 C 31.8732 1.71259 3.96604 0
M  V30 357 C 31.0082 1.24011 5.16522 0
M  V30 358 C 30.0472 2.35896 5.64818 0
M  V30 359 N 29.1842 1.89726 6.7598 0
M  V30 360 H 34.0242 1.91892 2.27994 0
M  V30 361 H 31.5612 0.956199 1.11782 0
M  V30 362 H 33.5192 0.302738 4.161 0
M  V30 363 H 32.1492 -0.329879 3.2111 0
M  V30 364 H 31.2012 2.08986 3.17851 0
M  V30 365 H 32.5132 2.55436 4.28432 0
M  V30 366 H 31.6672 0.934395 5.99461 0
M  V30 367 H 30.4062 0.368487 4.86306 0
M  V30 368 H 29.4112 2.67261 4.8047 0
M  V30 369 H 30.6362 3.23567 5.97061 0
M  V30 370 H 28.5822 1.0492 6.47555 0
M  V30 371 H 28.4992 2.67471 7.07103 0
M  V30 372 H 29.7672 1.62211 7.62435 0
M  V30 373 N 33.9963 -1.19345 1.0293 0
M  V30 374 C 35.4123 -1.41069 0.746446 0
M  V30 375 C 35.6123 -1.90078 -0.668776 0
M  V30 376 O 34.6683 -2.0778 -1.4347 0
M  V30 377 C 35.9813 -2.42141 1.78292 0
M  V30 378 C 37.5293 -2.55887 1.80252 0
M  V30 379 C 38.0043 -3.60214 2.8286 0
M  V30 380 N 39.4953 -3.67711 2.81679 0
M  V30 381 C 40.2303 -4.48128 3.57727 0
M  V30 382 N 39.7263 -5.32248 4.43491 0
M  V30 383 N 41.5193 -4.42782 3.46267 0
M  V30 384 H 33.6703 -0.858536 1.94275 0
M  V30 385 H 35.9333 -0.439541 0.839945 0
M  V30 386 H 35.6393 -2.13155 2.79746 0
M  V30 387 H 35.5133 -3.41323 1.60557 0
M  V30 388 H 37.9003 -2.84196 0.794757 0
M  V30 389 H 37.9813 -1.56858 2.02062 0
M  V30 390 H 37.6253 -3.32647 3.83807 0
M  V30 391 H 37.5553 -4.58895 2.58307 0
M  V30 392 H 40.0463 -3.07634 2.19476 0
M  V30 393 H 40.3593 -5.90729 4.98256 0
M  V30 394 H 38.7043 -5.31707 4.47564 0
M  V30 395 H 41.8953 -3.76107 2.78677 0
M  V30 396 H 42.0683 -5.05215 4.05785 0
M  V30 397 N 35.4744 -0.807222 -1.35358 0
M  V30 398 C 36.7214 -0.387888 -1.9875 0
M  V30 399 C 37.0494 1.04509 -1.64037 0
M  V30 400 O 36.3044 1.73986 -0.895946 0
M  V30 401 C 36.6034 -0.519036 -3.53611 0
M  V30 402 C 36.2694 -1.91542 -4.08194 0
M  V30 403 C 34.9314 -2.29745 -4.22813 0
M  V30 404 C 37.2834 -2.82896 -4.37744 0
M  V30 405 C 34.6114 -3.58668 -4.643 0
M  V30 406 C 36.9634 -4.11265 -4.8067 0
M  V30 407 C 35.6274 -4.49466 -4.93494 0
M  V30 408 H 34.8974 -0.141938 -0.727279 0
M  V30 409 H 37.5444 -1.02814 -1.6156 0
M  V30 410 H 35.8494 0.204658 -3.91265 0
M  V30 411 H 37.5464 -0.175345 -4.00616 0
M  V30 412 H 34.1364 -1.60862 -3.97268 0
M  V30 413 H 38.3204 -2.54629 -4.26002 0
M  V30 414 H 33.5764 -3.88113 -4.72418 0
M  V30 415 H 37.7504 -4.82153 -5.02496 0
M  V30 416 H 35.3774 -5.49418 -5.25399 0
M  V30 417 N 36.9525 1.47285 -0.560781 0
M  V30 418 C 37.9155 2.28535 0.174488 0
M  V30 419 C 38.9155 1.37153 0.839388 0
M  V30 420 O 40.1055 1.59748 0.694702 0
M  V30 421 C 37.2375 3.16934 1.25561 0
M  V30 422 H 38.4305 2.95012 -0.539262 0
M  V30 423 H 35.9835 1.53034 -0.317865 0
M  V30 424 H 36.7185 2.55157 2.00164 0
M  V30 425 H 36.5035 3.8419 0.783604 0
M  V30 426 H 37.9935 3.78143 1.77193 0
M  V30 427 N 38.4306 0.297415 1.54768 0
M  V30 428 C 39.3406 -0.58983 2.27064 0
M  V30 429 C 40.3566 -1.15144 1.30453 0
M  V30 430 O 41.5326 -1.17699 1.63428 0
M  V30 431 C 38.5976 -1.74714 2.9946 0
M  V30 432 C 37.6586 -1.21997 4.11601 0
M  V30 433 C 36.8916 -2.32212 4.80535 0
M  V30 434 O 37.1146 -3.52036 4.48806 0
M  V30 435 O 36.0486 -1.99106 5.68014 0
M  V30 436 H 39.8746 -0.00348199 3.037 0
M  V30 437 H 37.4596 0.0640035 1.49263 0
M  V30 438 H 39.3416 -2.42147 3.44881 0
M  V30 439 H 38.0166 -2.32016 2.25722 0
M  V30 440 H 36.9236 -0.511458 3.70587 0
M  V30 441 H 38.2566 -0.692419 4.87305 0
M  V30 442 N 39.9087 -1.5758 0.0250728 0
M  V30 443 C 41.3247 -1.56124 -0.331282 0
M  V30 444 C 41.5247 -1.03029 -1.73169 0
M  V30 445 O 40.5807 -0.675215 -2.43305 0
M  V30 446 C 41.8937 -3.00139 -0.183584 0
M  V30 447 C 43.4417 -3.11946 -0.256654 0
M  V30 448 C 43.9167 -4.57793 -0.137792 0
M  V30 449 N 45.4077 -4.6279 -0.194904 0
M  V30 450 C 46.1427 -5.7326 -0.126655 0
M  V30 451 N 45.6387 -6.928 -0.00755288 0
M  V30 452 N 47.4317 -5.61811 -0.180348 0
M  V30 453 H 39.5827 -1.90424 0.94087 0
M  V30 454 H 41.8457 -0.875761 0.362968 0
M  V30 455 H 41.5517 -3.4292 0.780927 0
M  V30 456 H 41.4257 -3.64899 -0.955448 0
M  V30 457 H 43.8127 -2.69079 -1.21162 0
M  V30 458 H 43.8937 -2.49915 0.545517 0
M  V30 459 H 43.5377 -5.01339 0.813739 0
M  V30 460 H 43.4677 -5.17798 -0.958775 0
M  V30 461 H 45.9587 -3.76807 -0.287267 0
M  V30 462 H 46.2717 -7.72791 0.0379428 0
M  V30 463 H 44.6167 -6.94995 0.0271731 0
M  V30 464 H 47.8077 -4.6731 -0.271767 0
M  V30 465 H 47.9807 -6.47882 -0.123697 0
M  V30 466 N 41.3868 0.248026 -1.55636 0
M  V30 467 C 42.6358 0.974134 -1.76617 0
M  V30 468 C 42.9488 1.86528 -0.588796 0
M  V30 469 O 44.1548 2.62805 -0.681594 0
M  V30 470 C 42.6108 1.78213 -3.12679 0
M  V30 471 C 42.2188 0.93843 -4.38061 0
M  V30 472 C 43.9628 2.50104 -3.42999 0
M  V30 473 C 41.8698 1.74225 -5.65155 0
M  V30 474 H 40.7998 0.36745 -0.658405 0
M  V30 475 H 43.4508 0.22884 -1.82067 0
M  V30 476 H 41.8328 2.56933 -3.01333 0
M  V30 477 H 43.0068 0.193635 -4.60393 0
M  V30 478 H 41.3218 0.332905 -4.15067 0
M  V30 479 H 43.9188 3.10694 -4.3517 0
M  V30 480 H 44.2618 3.21662 -2.64271 0
M  V30 481 H 44.7948 1.78395 -3.55556 0
M  V30 482 H 41.5338 1.07043 -6.46701 0
M  V30 483 H 41.0538 2.46235 -5.46926 0
M  V30 484 H 42.7328 2.30967 -6.0437 0
M  V30 485 N 42.8649 1.48995 0.513639 0
M  V30 486 C 43.7949 1.67636 1.62544 0
M  V30 487 C 44.7759 0.525087 1.61793 0
M  V30 488 O 45.9609 0.759502 1.78732 0
M  V30 489 C 43.0909 1.73114 3.01079 0
M  V30 490 C 42.0449 2.87905 3.16693 0
M  V30 491 C 41.3709 2.78486 4.56453 0
M  V30 492 C 42.6709 4.29005 2.97913 0
M  V30 493 H 44.3649 2.60716 1.47198 0
M  V30 494 H 41.9109 1.25465 0.706714 0
M  V30 495 H 43.8639 1.84742 3.78746 0
M  V30 496 H 42.5879 0.766241 3.17484 0
M  V30 497 H 41.2469 2.75859 2.41448 0
M  V30 498 H 40.8949 1.7993 4.69717 0
M  V30 499 H 40.5949 3.55523 4.67843 0
M  V30 500 H 42.1189 2.92104 5.36197 0
M  V30 501 H 43.5329 4.41798 3.65359 0
M  V30 502 H 41.9299 5.07166 3.20785 0
M  V30 503 H 42.9999 4.44329 1.94165 0
M  V30 504 N 44.343 -0.763751 1.37857 0
M  V30 505 C 45.571 -1.55293 1.36718 0
M  V30 506 C 45.986 -1.88745 -0.0455434 0
M  V30 507 O 45.343 -1.52039 -1.00947 0
M  V30 508 C 45.394 -2.85831 2.2132 0
M  V30 509 O 45.115 -2.5381 3.57089 0
M  V30 510 C 46.616 -3.80023 2.28249 0
M  V30 511 H 43.836 -0.480841 0.468009 0
M  V30 512 H 46.38 -0.946009 1.81303 0
M  V30 513 H 44.535 -3.42926 1.80223 0
M  V30 514 H 44.949 -3.37459 4.01524 0
M  V30 515 H 46.423 -4.68599 2.91752 0
M  V30 516 H 46.9 -4.1973 1.2932 0
M  V30 517 H 47.506 -3.28855 2.69693 0
M  V30 518 N 45.8211 -1.22559 -0.990812 0
M  V30 519 C 47.2371 -0.985996 -1.255 0
M  V30 520 C 47.4371 0.319173 -1.98956 0
M  V30 521 O 46.4931 1.04127 -2.3003 0
M  V30 522 C 47.8061 -2.18607 -2.06474 0
M  V30 523 C 49.3541 -2.22985 -2.19651 0
M  V30 524 C 49.8291 -3.4255 -3.04012 0
M  V30 525 N 51.3201 -3.42725 -3.11599 0
M  V30 526 C 52.0551 -4.31892 -3.7717 0
M  V30 527 N 51.5511 -5.31279 -4.44651 0
M  V30 528 N 53.3441 -4.19662 -3.73952 0
M  V30 529 H 45.4951 -2.06469 -0.49841 0
M  V30 530 H 47.7581 -0.904853 -0.282747 0
M  V30 531 H 47.4641 -3.13267 -1.59865 0
M  V30 532 H 47.3381 -2.18838 -3.07229 0
M  V30 533 H 49.7251 -1.28871 -2.65474 0
M  V30 534 H 49.8061 -2.26791 -1.18319 0
M  V30 535 H 49.4501 -4.36965 -2.58889 0
M  V30 536 H 49.3801 -3.35984 -4.0549 0
M  V30 537 H 51.8711 -2.70807 -2.63575 0
M  V30 538 H 52.1841 -5.95593 -4.92431 0
M  V30 539 H 50.5291 -5.3519 -4.43392 0
M  V30 540 H 53.7201 -3.41268 -3.20396 0
M  V30 541 H 53.8931 -4.89358 -4.24774 0
M  V30 542 N 47.2992 1.18797 -1.03562 0
M  V30 543 C 48.5242 1.9314 -0.755764 0
M  V30 544 C 48.9492 1.7537 0.68022 0
M  V30 545 O 48.3072 1.06046 1.47051 0
M  V30 546 C 48.3552 3.42747 -1.12058 0
M  V30 547 O 47.4592 4.11683 -0.243124 0
M  V30 548 H 46.8002 0.602724 -0.278604 0
M  V30 549 H 49.3302 1.50678 -1.3841 0
M  V30 550 H 49.3402 3.93437 -1.08035 0
M  V30 551 H 48.0152 3.55002 -2.16672 0
M  V30 552 H 46.5922 3.71323 -0.342539 0
M  V30 553 N 48.7773 0.814389 1.34928 0
M  V30 554 C 49.6873 0.231978 2.3345 0
M  V30 555 C 50.7033 -0.629139 1.62228 0
M  V30 556 O 51.8793 -0.539052 1.94052 0
M  V30 557 C 48.9443 -0.603482 3.41407 0
M  V30 558 C 48.0053 0.279037 4.28392 0
M  V30 559 C 47.2383 -0.516643 5.31193 0
M  V30 560 O 47.4613 -1.75068 5.4287 0
M  V30 561 O 46.3953 0.0965652 6.01823 0
M  V30 562 H 50.2213 1.04721 2.85074 0
M  V30 563 H 47.8063 0.576343 1.37836 0
M  V30 564 H 49.6883 -1.07908 4.0735 0
M  V30 565 H 48.3633 -1.39618 2.92042 0
M  V30 566 H 47.2703 0.801948 3.65403 0
M  V30 567 H 48.6033 1.03588 4.81176 0
M  V30 568 N 50.2554 -1.46986 0.568584 0
M  V30 569 C 51.1854 -2.32946 -0.160753 0
M  V30 570 C 52.1664 -1.44487 -0.897631 0
M  V30 571 O 53.3514 -1.73327 -0.875867 0
M  V30 572 C 50.4814 -3.26494 -1.18403 0
M  V30 573 C 49.4354 -4.24282 -0.562895 0
M  V30 574 C 48.7614 -5.07236 -1.69163 0
M  V30 575 C 50.0614 -5.19989 0.490761 0
M  V30 576 H 51.7554 -2.94175 0.556916 0
M  V30 577 H 49.3014 -1.4146 0.26927 0
M  V30 578 H 51.2544 -3.85477 -1.70251 0
M  V30 579 H 49.9784 -2.63343 -1.93179 0
M  V30 580 H 48.6374 -3.66541 -0.0656164 0
M  V30 581 H 48.2854 -4.4048 -2.42871 0
M  V30 582 H 47.9854 -5.7345 -1.28174 0
M  V30 583 H 49.5094 -5.6908 -2.21314 0
M  V30 584 H 50.9234 -5.73271 0.0579047 0
M  V30 585 H 49.3204 -5.94469 0.820165 0
M  V30 586 H 50.3904 -4.64777 1.3824 0
M  V30 587 N 51.7335 -0.305618 -1.54608 0
M  V30 588 C 53.0105 0.355652 -1.92339 0
M  V30 589 C 53.3905 1.71324 -1.23335 0
M  V30 590 O 52.7385 2.25473 -0.370702 0
M  V30 591 C 52.9485 0.46572 -3.45879 0
M  V30 592 C 54.2965 0.734426 -4.182 0
M  V30 593 O 55.3205 0.54935 -3.51938 0
M  V30 594 O 54.1795 1.09024 -5.35515 0
M  V30 595 H 51.2735 0.199666 -0.802535 0
M  V30 596 H 53.8195 -0.354017 -1.65966 0
M  V30 597 H 52.5915 -0.488461 -3.88239 0
M  V30 598 H 52.2145 1.22367 -3.78301 0
M  V30 599 N 53.2116 1.57565 -0.0334293 0
M  V30 600 C 54.1436 2.0739 0.975811 0
M  V30 601 C 55.1566 0.998166 1.2861 0
M  V30 602 O 56.3456 1.27426 1.25 0
M  V30 603 C 53.4456 2.4871 2.30209 0
M  V30 604 C 52.6186 3.79413 2.17634 0
M  V30 605 C 51.6776 4.07237 3.33233 0
M  V30 606 O 50.7036 4.77425 3.09927 0
M  V30 607 N 51.9056 3.5775 4.5716 0
M  V30 608 H 54.6706 2.94598 0.55066 0
M  V30 609 H 52.2316 1.61173 0.15323 0
M  V30 610 H 54.2236 2.64413 3.06378 0
M  V30 611 H 52.7936 1.66845 2.64351 0
M  V30 612 H 52.0136 3.73465 1.26165 0
M  V30 613 H 53.3016 4.65038 2.0644 0
M  V30 614 H 52.6996 3.00976 4.78989 0
M  V30 615 H 51.2566 3.78724 5.30482 0
M  V30 616 N 54.6897 -0.239769 1.55765 0
M  V30 617 C 55.9197 -0.982743 1.8173 0
M  V30 618 C 56.3277 -1.7917 0.607835 0
M  V30 619 O 55.6707 -1.78525 -0.432973 0
M  V30 620 C 55.7327 -1.96332 3.01155 0
M  V30 621 C 55.3967 -1.34062 4.36894 0
M  V30 622 C 56.3937 -0.739539 5.14613 0
M  V30 623 C 54.0787 -1.35784 4.83599 0
M  V30 624 C 56.0727 -0.163989 6.37189 0
M  V30 625 C 53.7597 -0.778441 6.06122 0
M  V30 626 C 54.7577 -0.182548 6.82756 0
M  V30 627 O 54.4457 0.387887 8.02964 0
M  V30 628 H 54.1777 -0.294481 0.608487 0
M  V30 629 H 56.7317 -0.26572 2.03674 0
M  V30 630 H 54.9617 -2.71884 2.74984 0
M  V30 631 H 56.6507 -2.57032 3.14149 0
M  V30 632 H 57.4167 -0.718687 4.79646 0
M  V30 633 H 53.2957 -1.81105 4.23936 0
M  V30 634 H 56.8397 0.301753 6.96947 0
M  V30 635 H 52.7367 -0.796645 6.40565 0
M  V30 636 H 53.5047 0.28044 8.18019 0
M  V30 637 N 56.1678 -1.49265 -0.50573 0
M  V30 638 C 57.3978 -1.61979 -1.28243 0
M  V30 639 C 57.8058 -0.288576 -1.86986 0
M  V30 640 O 57.1488 0.735408 -1.68337 0
M  V30 641 C 57.2108 -2.62632 -2.45489 0
M  V30 642 C 56.8748 -4.071 -2.07651 0
M  V30 643 C 57.8718 -4.94049 -1.61901 0
M  V30 644 C 55.5568 -4.52801 -2.17431 0
M  V30 645 C 57.5508 -6.24736 -1.26428 0
M  V30 646 C 55.2378 -5.83503 -1.8157 0
M  V30 647 C 56.2358 -6.69294 -1.36142 0
M  V30 648 O 55.9238 -7.9756 -1.00764 0
M  V30 649 H 55.6558 -0.54834 -0.395347 0
M  V30 650 H 58.2098 -1.96002 -0.614204 0
M  V30 651 H 56.4398 -2.2378 -3.15372 0
M  V30 652 H 58.1288 -2.64925 -3.07522 0
M  V30 653 H 58.8948 -4.5997 -1.53795 0
M  V30 654 H 54.7738 -3.86196 -2.51742 0
M  V30 655 H 58.3178 -6.91652 -0.908992 0
M  V30 656 H 54.2148 -6.17112 -1.89324 0
M  V30 657 H 54.9828 -8.10529 -1.13952 0
M  V30 658 N 57.6459 0.756429 -1.3826 0
M  V30 659 C 58.5559 1.9009 -1.37488 0
M  V30 660 C 59.5719 1.71855 -0.272366 0
M  V30 661 O 60.7479 1.94827 -0.510318 0
M  V30 662 C 57.8129 3.25421 -1.19592 0
M  V30 663 C 56.8739 3.56202 -2.39622 0
M  V30 664 C 56.1069 4.85075 -2.2257 0
M  V30 665 O 56.3299 5.57246 -1.21793 0
M  V30 666 O 55.2639 5.15269 -3.11098 0
M  V30 667 H 59.0899 1.93695 -2.33914 0
M  V30 668 H 56.6749 0.901313 -1.1915 0
M  V30 669 H 58.5569 4.06337 -1.11661 0
M  V30 670 H 57.2319 3.22634 -0.262486 0
M  V30 671 H 56.1389 2.75458 -2.53128 0
M  V30 672 H 57.4719 3.63747 -3.31586 0
M  V30 673 N 59.124 1.23083 0.984299 0
M  V30 674 C 60.054 1.03292 2.09411 0
M  V30 675 C 61.035 -0.048923 1.7003 0
M  V30 676 O 62.22 0.114967 1.93859 0
M  V30 677 C 59.35 0.619155 3.41736 0
M  V30 678 C 58.304 1.64791 3.95004 0
M  V30 679 C 57.63 1.0897 5.23478 0
M  V30 680 C 58.93 3.03999 4.24714 0
M  V30 681 H 60.624 1.96119 2.26225 0
M  V30 682 H 58.17 0.944344 1.08711 0
M  V30 683 H 60.123 0.467777 4.18796 0
M  V30 684 H 58.847 -0.344786 3.24775 0
M  V30 685 H 57.506 1.78721 3.20085 0
M  V30 686 H 57.154 0.11686 5.02864 0
M  V30 687 H 56.854 1.77704 5.60085 0
M  V30 688 H 58.378 0.950093 6.03163 0
M  V30 689 H 59.792 2.93393 4.92538 0
M  V30 690 H 58.189 3.69936 4.72512 0
M  V30 691 H 59.259 3.53285 3.32142 0
M  V30 692 N 60.6021 -1.18246 1.0419 0
M  V30 693 C 61.8271 -1.92736 0.765996 0
M  V30 694 C 62.2521 -1.75728 -0.67091 0
M  V30 695 O 61.6101 -1.06825 -1.46486 0
M  V30 696 C 61.6581 -3.42148 1.13875 0
M  V30 697 O 60.7621 -4.11548 0.264954 0
M  V30 698 H 60.1031 -0.601238 0.281797 0
M  V30 699 H 62.6331 -1.49942 1.39207 0
M  V30 700 H 62.6431 -3.92858 1.1012 0
M  V30 701 H 61.3181 -3.53848 2.18551 0
M  V30 702 H 59.8951 -3.71137 0.362226 0
M  V30 703 N 62.0802 -0.821533 -1.34494 0
M  V30 704 C 62.9902 -0.244355 -2.33324 0
M  V30 705 C 64.0062 0.620527 -1.62559 0
M  V30 706 O 65.1822 0.528754 -1.94335 0
M  V30 707 C 62.2472 0.585368 -3.41723 0
M  V30 708 C 61.3082 -0.301752 -4.28238 0
M  V30 709 C 60.5412 0.488466 -5.3146 0
M  V30 710 O 60.7642 1.72186 -5.4379 0
M  V30 711 O 59.6982 -0.12848 -6.01763 0
M  V30 712 H 63.5242 -1.06231 -2.84515 0
M  V30 713 H 61.1092 -0.583645 -1.37528 0
M  V30 714 H 62.9912 1.05747 -4.07916 0
M  V30 715 H 61.6662 1.38068 -2.92778 0
M  V30 716 H 60.5732 -0.821315 -3.64973 0
M  V30 717 H 61.9062 -1.06138 -4.8062 0
M  V30 718 N 63.5583 1.46682 -0.576371 0
M  V30 719 C 64.5053 2.30241 0.160499 0
M  V30 720 C 65.4753 1.40233 0.890162 0
M  V30 721 O 66.6603 1.69186 0.882084 0
M  V30 722 C 63.8003 3.24578 1.1723 0
M  V30 723 C 62.9133 4.29684 0.446736 0
M  V30 724 C 62.0483 5.11154 1.44551 0
M  V30 725 C 61.0873 6.08015 0.70599 0
M  V30 726 N 60.2243 6.82376 1.65251 0
M  V30 727 H 65.0643 2.92727 -0.558127 0
M  V30 728 H 62.6013 1.44272 -0.287056 0
M  V30 729 H 64.5593 3.77711 1.77172 0
M  V30 730 H 63.1893 2.63916 1.85872 0
M  V30 731 H 62.2413 3.79458 -0.267594 0
M  V30 732 H 63.5533 4.98626 -0.131686 0
M  V30 733 H 62.7073 5.68533 2.11791 0
M  V30 734 H 61.4463 4.42158 2.05786 0
M  V30 735 H 60.4513 5.49796 0.0197725 0
M  V30 736 H 61.6763 6.79028 0.09912 0
M  V30 737 H 59.6223 6.16094 2.25308 0
M  V30 738 H 59.5393 7.47556 1.12673 0
M  V30 739 H 60.8073 7.44316 2.31546 0
M  V30 740 N 65.0364 0.313813 1.54444 0
M  V30 741 C 66.4524 -0.0391619 1.59552 0
M  V30 742 C 66.6524 -1.51322 1.33056 0
M  V30 743 O 65.7084 -2.26782 1.11022 0
M  V30 744 C 67.0214 0.370302 2.98411 0
M  V30 745 C 68.5694 0.320139 3.11358 0
M  V30 746 C 69.0444 0.704617 4.52547 0
M  V30 747 N 70.5354 0.657645 4.58508 0
M  V30 748 C 71.2704 0.927453 5.6585 0
M  V30 749 N 70.7664 1.26389 6.81174 0
M  V30 750 N 72.5594 0.853662 5.5558 0
M  V30 751 H 64.7104 1.27433 1.69925 0
M  V30 752 H 66.9734 0.517511 0.794284 0
M  V30 753 H 66.6794 1.39694 3.22767 0
M  V30 754 H 66.5534 -0.269619 3.76235 0
M  V30 755 H 68.9404 -0.697275 2.86744 0
M  V30 756 H 69.0214 0.99486 2.35661 0
M  V30 757 H 68.6654 1.7199 4.77893 0
M  V30 758 H 68.5954 0.00768843 5.26599 0
M  V30 759 H 71.0864 0.409067 3.75679 0
M  V30 760 H 71.3994 1.4554 7.58972 0
M  V30 761 H 69.7444 1.30206 6.82694 0
M  V30 762 H 72.9354 0.590383 4.64362 0
M  V30 763 H 73.1084 1.0673 6.3915 0
M  V30 764 N 66.5145 -1.57545 0.0417849 0
M  V30 765 C 67.4615 -2.10977 -0.935805 0
M  V30 766 C 68.4315 -1.01486 -1.31491 0
M  V30 767 O 69.6165 -1.2898 -1.40602 0
M  V30 768 C 66.7565 -2.65169 -2.2086 0
M  V30 769 C 65.8695 -3.88714 -1.88482 0
M  V30 770 C 65.0045 -4.31254 -3.1015 0
M  V30 771 C 64.0435 -5.47524 -2.7365 0
M  V30 772 N 63.1805 -5.85162 -3.87982 0
M  V30 773 H 68.0205 -2.94218 -0.473249 0
M  V30 774 H 65.5575 -1.45415 -0.221981 0
M  V30 775 H 67.5155 -2.94685 -2.95325 0
M  V30 776 H 66.1455 -1.8474 -2.64709 0
M  V30 777 H 65.1975 -3.65849 -1.04205 0
M  V30 778 H 66.5095 -4.73245 -1.57608 0
M  V30 779 H 65.6635 -4.62273 -3.92923 0
M  V30 780 H 64.4025 -3.45516 -3.44195 0
M  V30 781 H 63.4075 -5.16187 -1.89291 0
M  V30 782 H 64.6325 -6.34971 -2.40807 0
M  V30 783 H 62.5785 -5.02377 -4.21846 0
M  V30 784 H 62.4955 -6.64362 -3.60775 0
M  V30 785 H 63.7635 -6.20791 -4.71422 0
M  V30 786 N 67.9926 0.231505 -1.5589 0
M  V30 787 C 68.9406 1.30649 -1.92441 0
M  V30 788 C 69.9346 1.49037 -0.805254 0
M  V30 789 O 71.1406 1.50329 -0.990007 0
M  V30 790 H 67.5156 0.437812 -0.611412 0
M  V30 791 H 69.4866 0.970973 -2.82161 0
M  V30 792 C 68.2356 2.65179 -2.24889 0
M  V30 793 H 67.5586 2.51835 -3.10514 0
M  V30 794 H 68.9986 3.39234 -2.54355 0
M  V30 795 C 67.4576 3.19439 -1.07054 0
M  V30 796 O 67.9876 4.00371 -0.326499 0
M  V30 797 N 66.1936 2.77675 -0.85703 0
M  V30 798 H 65.7406 2.11969 -1.46379 0
M  V30 799 H 65.6986 3.14321 -0.0703223 0
M  V30 800 N 69.4707 1.49531 0.497807 0
M  V30 801 C 70.3807 1.69176 1.62532 0
M  V30 802 C 71.3967 0.5744 1.64246 0
M  V30 803 O 72.5727 0.849497 1.82608 0
M  V30 804 C 69.6377 1.75695 2.98885 0
M  V30 805 C 68.6987 2.9929 3.07773 0
M  V30 806 C 67.9317 3.05488 4.37622 0
M  V30 807 O 68.1547 2.19192 5.26603 0
M  V30 808 O 67.0887 3.9798 4.51548 0
M  V30 809 H 70.9147 2.647 1.48887 0
M  V30 810 H 68.4997 1.3331 0.674441 0
M  V30 811 H 70.3817 1.82317 3.79919 0
M  V30 812 H 69.0567 0.8335 3.12785 0
M  V30 813 H 67.9637 2.98183 2.25915 0
M  V30 814 H 69.2967 3.91125 2.98801 0
M  V30 815 N 70.9488 -0.749086 1.3866 0
M  V30 816 C 72.1958 -1.50833 1.35114 0
M  V30 817 C 72.5238 -1.94415 -0.0574049 0
M  V30 818 O 71.7788 -1.66065 -1.03541 0
M  V30 819 C 72.0778 -2.7712 2.25697 0
M  V30 820 C 71.7438 -2.52477 3.73585 0
M  V30 821 C 70.4058 -2.45466 4.13884 0
M  V30 822 C 72.7578 -2.31066 4.67181 0
M  V30 823 C 70.0858 -2.15064 5.45861 0
M  V30 824 C 72.4378 -2.02183 5.9942 0
M  V30 825 C 71.1018 -1.93631 6.38798 0
M  V30 826 H 70.3718 -0.551936 0.494416 0
M  V30 827 H 73.0188 -0.860979 1.71054 0
M  V30 828 H 71.3238 -3.46528 1.82827 0
M  V30 829 H 73.0208 -3.35096 2.20254 0
M  V30 830 H 69.6108 -2.58807 3.41638 0
M  V30 831 H 73.7948 -2.35459 4.3689 0
M  V30 832 H 69.0508 -2.06954 5.75308 0
M  V30 833 H 73.2248 -1.8462 6.71482 0
M  V30 834 H 70.8518 -1.69839 7.40985 0
M  V30 835 N 72.4269 -1.23603 -0.977757 0
M  V30 836 C 73.3569 -1.04401 -2.0886 0
M  V30 837 C 74.3379 0.0399052 -1.70053 0
M  V30 838 O 75.5229 -0.125246 -1.93796 0
M  V30 839 C 72.6529 -0.637269 -3.41403 0
M  V30 840 C 71.6069 -1.66883 -3.94124 0
M  V30 841 C 70.9329 -1.11745 -5.22893 0
M  V30 842 C 72.2329 -3.06247 -4.23096 0
M  V30 843 H 73.9269 -1.97316 -2.25182 0
M  V30 844 H 71.4729 -0.950096 -1.08209 0
M  V30 845 H 73.4259 -0.48998 -4.18542 0
M  V30 846 H 72.1499 0.327557 -3.24953 0
M  V30 847 H 70.8089 -1.80416 -3.19133 0
M  V30 848 H 70.4569 -0.143527 -5.02795 0
M  V30 849 H 70.1569 -1.80672 -5.59134 0
M  V30 850 H 71.6809 -0.982067 -6.02651 0
M  V30 851 H 73.0949 -2.96001 -4.90975 0
M  V30 852 H 71.4919 -3.72436 -4.70544 0
M  V30 853 H 72.5619 -3.55041 -3.30263 0
M  V30 854 N 73.905 1.17692 -1.04816 0
M  V30 855 C 74.868 2.19787 -0.650117 0
M  V30 856 C 75.868 1.58044 0.296427 0
M  V30 857 O 77.058 1.74012 0.0808097 0
M  V30 858 C 74.19 3.40869 0.0456987 0
M  V30 859 H 75.383 2.56516 -1.5537 0
M  V30 860 H 72.936 1.31708 -0.841594 0
M  V30 861 H 73.671 3.09681 0.962726 0
M  V30 862 H 73.456 3.86928 -0.634727 0
M  V30 863 H 74.946 4.16445 0.310432 0
M  V30 864 N 75.3831 0.828654 1.34056 0
M  V30 865 C 76.6311 0.41863 1.97717 0
M  V30 866 C 76.9521 -1.02314 1.66002 0
M  V30 867 O 76.2221 -1.71119 0.953683 0
M  V30 868 H 74.8021 0.151809 0.731412 0
M  V30 869 H 77.4641 1.05936 1.63596 0
M  V30 870 H 76.5601 0.542318 3.07352 0
M  V30 871 N 76.8612 -1.46375 0.584142 0
M  V30 872 C 78.2772 -1.57694 0.245929 0
M  V30 873 C 78.4772 -1.57903 -1.25175 0
M  V30 874 O 77.5332 -1.49676 -2.03355 0
M  V30 875 C 78.8462 -2.87028 0.896402 0
M  V30 876 C 80.3942 -3.00662 0.870127 0
M  V30 877 C 80.8692 -4.32734 1.50017 0
M  V30 878 N 82.3602 -4.39436 1.46458 0
M  V30 879 C 83.0952 -5.40248 1.92144 0
M  V30 880 N 82.5912 -6.47726 2.4581 0
M  V30 881 N 84.3842 -5.31459 1.83052 0
M  V30 882 H 76.5352 -1.44483 1.55687 0
M  V30 883 H 78.7982 -0.689291 0.650831 0
M  V30 884 H 78.5042 -2.9269 1.95002 0
M  V30 885 H 78.3782 -3.75014 0.405486 0
M  V30 886 H 80.7652 -2.94581 -0.174871 0
M  V30 887 H 80.8462 -2.14148 1.39908 0
M  V30 888 H 80.4902 -4.39573 2.54437 0
M  V30 889 H 80.4202 -5.18025 0.946432 0
M  V30 890 H 82.9112 -3.62367 1.07231 0
M  V30 891 H 83.2242 -7.20863 2.78525 0
M  V30 892 H 81.5692 -6.48542 2.49836 0
M  V30 893 H 84.7602 -4.46396 1.40883 0
M  V30 894 H 84.9332 -6.09881 2.18973 0
M  V30 895 N 78.3393 -0.321999 -1.54275 0
M  V30 896 C 79.5863 0.281044 -2.0054 0
M  V30 897 C 79.9143 1.52265 -1.21019 0
M  V30 898 O 79.1693 1.93687 -0.279982 0
M  V30 899 C 79.4683 0.661769 -3.5122 0
M  V30 900 C 79.1343 -0.480482 -4.48333 0
M  V30 901 C 77.7963 -0.794005 -4.74604 0
M  V30 902 C 80.1483 -1.24783 -5.06042 0
M  V30 903 C 77.4763 -1.87763 -5.55844 0
M  V30 904 C 79.8283 -2.32153 -5.88462 0
M  V30 905 C 78.4923 -2.64089 -6.13036 0
M  V30 906 H 77.7623 0.102841 -0.733829 0
M  V30 907 H 80.4093 -0.445453 -1.86247 0
M  V30 908 H 78.7143 1.46867 -3.63232 0
M  V30 909 H 80.4113 1.13989 -3.84457 0
M  V30 910 H 77.0013 -0.226039 -4.28004 0
M  V30 911 H 81.1853 -1.01887 -4.85729 0
M  V30 912 H 76.4413 -2.12954 -5.73115 0
M  V30 913 H 80.6153 -2.92057 -6.32199 0
M  V30 914 H 78.2423 -3.48185 -6.75775 0
M  V30 915 N 79.8174 1.5752 -0.0501392 0
M  V30 916 C 80.7804 2.1037 0.909786 0
M  V30 917 C 81.7804 1.02308 1.24056 0
M  V30 918 O 82.9704 1.28385 1.17741 0
M  V30 919 C 80.1024 2.58708 2.21998 0
M  V30 920 H 81.2954 2.96479 0.451665 0
M  V30 921 H 78.8484 1.55038 0.198248 0
M  V30 922 H 79.5834 1.75989 2.72394 0
M  V30 923 H 79.3684 3.37675 1.99295 0
M  V30 924 H 80.8584 2.99747 2.9076 0
M  V30 925 N 81.2955 -0.223234 1.56011 0
M  V30 926 C 82.2585 -1.26014 1.9145 0
M  V30 927 C 83.2585 -1.3989 0.792937 0
M  V30 928 O 84.4485 -1.38184 1.0607 0
M  V30 929 C 81.5805 -2.63422 2.16383 0
M  V30 930 H 82.7735 -0.95796 2.84189 0
M  V30 931 H 80.3265 -0.463576 1.49267 0
M  V30 932 H 81.0615 -2.98741 1.2619 0
M  V30 933 H 80.8465 -2.54728 2.98088 0
M  V30 934 H 82.3365 -3.38249 2.44903 0
M  V30 935 N 82.7736 -1.49793 -0.48987 0
M  V30 936 C 83.7206 -1.67281 -1.59014 0
M  V30 937 C 84.6906 -0.514177 -1.57941 0
M  V30 938 O 85.8756 -0.742533 -1.75759 0
M  V30 939 C 83.0156 -1.75569 -2.97102 0
M  V30 940 C 82.1286 -3.0281 -3.08107 0
M  V30 941 C 81.2636 -3.02008 -4.36995 0
M  V30 942 C 80.3026 -4.23782 -4.41673 0
M  V30 943 N 79.4396 -4.20826 -5.62005 0
M  V30 944 H 84.2796 -2.61224 -1.43409 0
M  V30 945 H 81.8166 -1.29508 -0.697565 0
M  V30 946 H 83.7746 -1.78354 -3.77155 0
M  V30 947 H 82.4046 -0.850827 -3.11385 0
M  V30 948 H 81.4566 -3.09584 -2.21047 0
M  V30 949 H 82.7686 -3.92801 -3.07423 0
M  V30 950 H 81.9226 -3.03418 -5.25378 0
M  V30 951 H 80.6616 -2.09815 -4.4026 0
M  V30 952 H 79.6666 -4.22604 -3.5169 0
M  V30 953 H 80.8916 -5.17181 -4.40115 0
M  V30 954 H 78.8376 -3.31476 -5.66091 0
M  V30 955 H 78.7546 -5.04564 -5.62984 0
M  V30 956 H 80.0226 -4.26355 -6.52565 0
M  V30 957 N 84.2517 0.741722 -1.39055 0
M  V30 958 C 85.1617 1.88621 -1.39496 0
M  V30 959 C 86.1777 1.71557 -0.290578 0
M  V30 960 O 87.3537 1.94275 -0.530954 0
M  V30 961 C 84.4187 3.24134 -1.23037 0
M  V30 962 C 83.4797 3.5364 -2.43387 0
M  V30 963 C 82.7127 4.82687 -2.27703 0
M  V30 964 O 82.9357 5.55922 -1.27696 0
M  V30 965 O 81.8697 5.1194 -3.16545 0
M  V30 966 H 85.6957 1.91203 -2.35956 0
M  V30 967 H 83.2807 0.888625 -1.20099 0
M  V30 968 H 85.1627 4.0513 -1.15964 0
M  V30 969 H 83.8377 3.22337 -0.296691 0
M  V30 970 H 82.7447 2.72758 -2.56035 0
M  V30 971 H 84.0777 3.60209 -3.35425 0
M  V30 972 N 85.7298 1.2412 0.971189 0
M  V30 973 C 86.6928 1.03156 2.04674 0
M  V30 974 C 87.6928 -0.00990322 1.60797 0
M  V30 975 O 88.8828 0.230729 1.72665 0
M  V30 976 C 86.0148 0.562765 3.36223 0
M  V30 977 H 87.2078 1.98614 2.24705 0
M  V30 978 H 84.7608 1.06293 1.14593 0
M  V30 979 H 85.4958 -0.395176 3.21883 0
M  V30 980 H 85.2808 1.31441 3.69413 0
M  V30 981 H 86.7708 0.437015 4.15307 0
M  V30 982 N 87.2079 -1.17134 1.05439 0
M  V30 983 C 88.4549 -1.87456 0.765942 0
M  V30 984 C 88.7829 -1.81189 -0.707153 0
M  V30 985 O 88.0379 -1.21633 -1.5331 0
M  V30 986 C 88.3369 -3.36833 1.19491 0
M  V30 987 C 88.0029 -3.63301 2.67063 0
M  V30 988 C 86.6649 -3.70234 3.07376 0
M  V30 989 C 89.0169 -3.74575 3.62413 0
M  V30 990 C 86.3449 -3.85933 4.41896 0
M  V30 991 C 88.6969 -3.91793 4.9667 0
M  V30 992 C 87.3609 -3.96966 5.36633 0
M  V30 993 H 86.6309 -0.685948 0.280278 0
M  V30 994 H 89.2779 -1.38556 1.32192 0
M  V30 995 H 87.5829 -3.87807 0.557969 0
M  V30 996 H 89.2799 -3.89611 0.948893 0
M  V30 997 H 85.8699 -3.58532 2.34846 0
M  V30 998 H 90.0539 -3.68537 3.32406 0
M  V30 999 H 85.3099 -3.88187 4.72357 0
M  V30 1000 H 89.4839 -3.99458 5.70444 0
M  V30 1001 H 87.1109 -4.08883 6.40874 0
M  V30 1002 N 88.686 -0.835752 -1.33615 0
M  V30 1003 C 89.911 -0.442389 -2.02627 0
M  V30 1004 C 90.336 0.947735 -1.62479 0
M  V30 1005 O 89.694 1.61907 -0.815826 0
M  V30 1006 C 89.742 -0.567216 -3.56111 0
M  V30 1007 O 88.846 0.407799 -4.10379 0
M  V30 1008 H 88.187 -0.180278 -0.639059 0
M  V30 1009 H 90.717 -1.12972 -1.70583 0
M  V30 1010 H 90.727 -0.447708 -4.05536 0
M  V30 1011 H 89.402 -1.58103 -3.84677 0
M  V30 1012 H 87.979 0.246107 -3.72087 0
M  V30 1013 N 90.1641 1.46063 -0.591896 0
M  V30 1014 C 91.1111 2.30399 0.136069 0
M  V30 1015 C 92.0811 1.41169 0.875238 0
M  V30 1016 O 93.2661 1.70112 0.86409 0
M  V30 1017 C 90.4061 3.25804 1.13781 0
M  V30 1018 C 89.5191 4.30134 0.401137 0
M  V30 1019 C 88.6541 5.12659 1.39121 0
M  V30 1020 C 87.6931 6.0873 0.641462 0
M  V30 1021 N 86.8301 6.8409 1.58004 0
M  V30 1022 H 91.6701 2.92118 -0.589144 0
M  V30 1023 H 89.2071 1.43959 -0.302342 0
M  V30 1024 H 91.1651 3.79569 1.73156 0
M  V30 1025 H 89.7951 2.65872 1.83062 0
M  V30 1026 H 88.8471 3.79152 -0.307826 0
M  V30 1027 H 90.1591 4.98458 -0.184565 0
M  V30 1028 H 89.3131 5.70747 2.05749 0
M  V30 1029 H 88.0521 4.44316 2.01084 0
M  V30 1030 H 87.0571 5.49786 -0.0385419 0
M  V30 1031 H 88.2821 6.79095 0.0270945 0
M  V30 1032 H 86.2281 6.18449 2.18761 0
M  V30 1033 H 86.1451 7.48709 1.04738 0
M  V30 1034 H 87.4131 7.4673 2.23639 0
M  V30 1035 N 91.6422 0.330177 1.54103 0
M  V30 1036 C 92.6052 -0.520144 2.2322 0
M  V30 1037 C 93.6052 -1.03828 1.22786 0
M  V30 1038 O 94.7952 -0.929652 1.4732 0
M  V30 1039 C 91.9272 -1.72317 2.94142 0
M  V30 1040 H 93.1202 0.0841605 2.99782 0
M  V30 1041 H 90.6732 0.0813433 1.56088 0
M  V30 1042 H 91.4082 -2.36653 2.21734 0
M  V30 1043 H 91.1932 -1.35898 3.67796 0
M  V30 1044 H 92.6832 -2.3266 3.46784 0
M  V30 1045 N 93.1203 -1.57491 0.0584922 0
M  V30 1046 C 94.3673 -1.92978 -0.613648 0
M  V30 1047 C 94.6953 -0.937461 -1.70417 0
M  V30 1048 O 93.9503 0.049078 -1.95638 0
M  V30 1049 C 94.2493 -3.3513 -1.24188 0
M  V30 1050 C 93.9153 -4.50037 -0.278826 0
M  V30 1051 C 92.5773 -4.81198 -0.0138447 0
M  V30 1052 C 94.9293 -5.19807 0.380777 0
M  V30 1053 C 92.2573 -5.79473 0.918052 0
M  V30 1054 C 94.6093 -6.19079 1.30091 0
M  V30 1055 C 93.2733 -6.48665 1.57449 0
M  V30 1056 H 92.5433 -0.706157 -0.22455 0
M  V30 1057 H 95.1903 -1.91082 0.126533 0
M  V30 1058 H 93.4953 -3.33429 -2.05749 0
M  V30 1059 H 95.1923 -3.59871 -1.769 0
M  V30 1060 H 91.7823 -4.25726 -0.495539 0
M  V30 1061 H 95.9663 -4.95939 0.189158 0
M  V30 1062 H 91.2223 -6.00727 1.1374 0
M  V30 1063 H 95.3963 -6.7225 1.81804 0
M  V30 1064 H 93.0233 -7.24628 2.29822 0
M  V30 1065 N 94.5984 0.214957 -1.56127 0
M  V30 1066 C 95.8464 0.936518 -1.79091 0
M  V30 1067 C 96.1674 1.84606 -0.628148 0
M  V30 1068 O 95.4374 1.92664 0.35462 0
M  V30 1069 H 94.0174 0.3488 -0.660566 0
M  V30 1070 H 96.6794 0.22523 -1.93594 0
M  V30 1071 H 95.7754 1.53943 -2.71492 0
M  V30 1072 N 96.0765 1.50051 0.48192 0
M  V30 1073 C 97.3045 1.64237 1.25832 0
M  V30 1074 C 97.7195 0.321336 1.86045 0
M  V30 1075 O 97.0765 -0.695478 1.68729 0
M  V30 1076 C 97.1275 2.72548 2.37487 0
M  V30 1077 O 96.8485 3.99529 1.79745 0
M  V30 1078 C 98.3495 2.9761 3.28547 0
M  V30 1079 H 95.5695 0.55237 0.380957 0
M  V30 1080 H 98.1135 1.96207 0.576467 0
M  V30 1081 H 96.2685 2.43303 3.01467 0
M  V30 1082 H 96.6825 4.59342 2.5319 0
M  V30 1083 H 98.1565 3.77084 4.03127 0
M  V30 1084 H 98.6335 2.0826 3.86684 0
M  V30 1085 H 99.2395 3.28345 2.70314 0
M  V30 1086 N 97.5546 -0.734337 1.39446 0
M  V30 1087 C 98.8026 -1.49096 1.36436 0
M  V30 1088 C 99.1236 -1.94961 -0.0388255 0
M  V30 1089 O 98.3936 -1.69033 -0.990191 0
M  V30 1090 H 96.9736 -0.5531 0.502085 0
M  V30 1091 H 99.6356 -0.871725 1.74319 0
M  V30 1092 H 98.7316 -2.37276 2.02747 0
M  V30 1093 N 99.0327 -1.24633 -0.964593 0
M  V30 1094 C 100.282 -1.08188 -1.7023 0
M  V30 1095 C 100.595 0.37873 -1.91898 0
M  V30 1096 O 101.801 0.663427 -2.6327 0
M  V30 1097 C 100.257 -1.88773 -3.06419 0
M  V30 1098 C 99.8647 -3.39263 -2.92582 0
M  V30 1099 C 101.609 -1.80867 -3.84041 0
M  V30 1100 C 99.5157 -4.1218 -4.24101 0
M  V30 1101 H 98.4457 -0.401245 -0.638372 0
M  V30 1102 H 101.097 -1.48742 -1.07462 0
M  V30 1103 H 99.4787 -1.41035 -3.70034 0
M  V30 1104 H 100.653 -3.94603 -2.37961 0
M  V30 1105 H 98.9677 -3.48154 -2.28424 0
M  V30 1106 H 101.565 -2.32646 -4.81435 0
M  V30 1107 H 101.908 -0.774543 -4.09031 0
M  V30 1108 H 102.441 -2.26301 -3.27159 0
M  V30 1109 H 99.1797 -5.15965 -4.04303 0
M  V30 1110 H 98.6997 -3.61626 -4.78526 0
M  V30 1111 H 100.379 -4.19349 -4.92702 0
M  V30 1112 N 100.511 1.16574 -1.06058 0
M  V30 1113 C 101.759 1.86677 -0.77434 0
M  V30 1114 C 102.08 1.81959 0.701147 0
M  V30 1115 O 101.35 1.2515 1.50713 0
M  V30 1116 H 99.9298 0.691134 -0.283449 0
M  V30 1117 H 102.592 1.41378 -1.34158 0
M  V30 1118 H 101.688 2.92181 -1.09711 0
M  V30 1119 N 101.989 0.842826 1.3317 0
M  V30 1120 C 103.405 0.531128 1.50503 0
M  V30 1121 C 103.605 -0.940734 1.78192 0
M  V30 1122 O 102.661 -1.72436 1.84451 0
M  V30 1123 C 103.974 1.40789 2.65705 0
M  V30 1124 C 105.522 1.40708 2.79589 0
M  V30 1125 C 105.997 2.26878 3.97857 0
M  V30 1126 N 107.488 2.24609 4.05099 0
M  V30 1127 C 108.223 2.88019 4.95815 0
M  V30 1128 N 107.719 3.60496 5.9162 0
M  V30 1129 N 109.512 2.77469 4.88843 0
M  V30 1130 H 101.663 1.79557 1.1346 0
M  V30 1131 H 103.926 0.766267 0.558156 0
M  V30 1132 H 103.632 2.454 2.51936 0
M  V30 1133 H 103.506 1.08677 3.61205 0
M  V30 1134 H 105.893 0.368668 2.92788 0
M  V30 1135 H 105.974 1.76829 1.84838 0
M  V30 1136 H 105.618 3.3078 3.85418 0
M  V30 1137 H 105.548 1.88096 4.91861 0
M  V30 1138 H 108.039 1.71906 3.36536 0
M  V30 1139 H 108.352 4.06076 6.57512 0
M  V30 1140 H 106.697 3.64604 5.91683 0
M  V30 1141 H 109.888 2.20406 4.12963 0
M  V30 1142 H 110.061 3.2717 5.59342 0
M  V30 1143 N 103.467 -1.45747 0.599634 0
M  V30 1144 C 104.399 -2.28628 -0.161879 0
M  V30 1145 C 105.412 -1.39494 -0.839367 0
M  V30 1146 O 106.601 -1.63941 -0.706089 0
M  V30 1147 C 103.701 -3.15014 -1.24976 0
M  V30 1148 C 102.874 -4.32378 -0.660935 0
M  V30 1149 C 101.933 -5.00033 -1.63869 0
M  V30 1150 O 100.959 -5.57085 -1.1681 0
M  V30 1151 N 102.161 -4.98589 -2.97303 0
M  V30 1152 H 104.926 -2.94624 0.549265 0
M  V30 1153 H 102.487 -1.55847 0.438565 0
M  V30 1154 H 104.479 -3.5714 -1.9035 0
M  V30 1155 H 103.049 -2.5098 -1.86354 0
M  V30 1156 H 102.269 -3.9383 0.170688 0
M  V30 1157 H 103.557 -5.08197 -0.247619 0
M  V30 1158 H 102.955 -4.53514 -3.38145 0
M  V30 1159 H 101.512 -5.44603 -3.58121 0
M  V30 1160 N 104.945 -0.338344 -1.53925 0
M  V30 1161 C 105.875 0.51328 -2.27789 0
M  V30 1162 C 106.856 1.107 -1.29149 0
M  V30 1163 O 108.041 1.12937 -1.57984 0
M  V30 1164 C 105.171 1.66697 -3.04679 0
M  V30 1165 C 104.125 1.20183 -4.1078 0
M  V30 1166 C 103.451 2.44363 -4.75595 0
M  V30 1167 C 104.751 0.30605 -5.21403 0
M  V30 1168 H 106.445 -0.102883 -2.99223 0
M  V30 1169 H 103.991 -0.0509219 -1.4391 0
M  V30 1170 H 105.944 2.26915 -3.55088 0
M  V30 1171 H 104.668 2.30995 -2.30887 0
M  V30 1172 H 103.327 0.622499 -3.61276 0
M  V30 1173 H 102.975 3.07057 -3.98403 0
M  V30 1174 H 102.675 2.13925 -5.47275 0
M  V30 1175 H 104.199 3.05317 -5.28786 0
M  V30 1176 H 105.613 0.814929 -5.67478 0
M  V30 1177 H 104.01 0.0937929 -6.00027 0
M  V30 1178 H 105.08 -0.65921 -4.80398 0
M  V30 1179 N 106.423 1.57458 -0.0668435 0
M  V30 1180 C 107.648 1.9804 0.616027 0
M  V30 1181 C 108.073 0.944771 1.62652 0
M  V30 1182 O 107.431 -0.0902094 1.81075 0
M  V30 1183 C 107.479 3.37665 1.26549 0
M  V30 1184 O 106.583 3.36701 2.38131 0
M  V30 1185 H 105.924 0.644719 0.158849 0
M  V30 1186 H 108.454 2.04121 -0.139891 0
M  V30 1187 H 108.464 3.7474 1.6135 0
M  V30 1188 H 107.139 4.12573 0.525016 0
M  V30 1189 H 105.716 3.1139 2.0516 0
M  V30 1190 N 107.901 -0.206675 1.56239 0
M  V30 1191 C 109.148 -0.928842 1.79941 0
M  V30 1192 C 109.476 -1.83734 0.638131 0
M  V30 1193 O 108.731 -1.92039 -0.376746 0
M  V30 1194 C 109.03 -1.78675 3.09532 0
M  V30 1195 C 108.696 -1.03022 4.38973 0
M  V30 1196 C 107.358 -0.821302 4.74139 0
M  V30 1197 C 109.71 -0.497081 5.18824 0
M  V30 1198 C 107.038 -0.0675719 5.86661 0
M  V30 1199 C 109.39 0.24338 6.32132 0
M  V30 1200 C 108.054 0.463422 6.65889 0
M  V30 1201 H 107.324 -0.339887 0.658451 0
M  V30 1202 H 109.971 -0.195977 1.90495 0
M  V30 1203 H 108.276 -2.58794 2.94165 0
M  V30 1204 H 109.973 -2.34792 3.25075 0
M  V30 1205 H 106.563 -1.20306 4.11369 0
M  V30 1206 H 110.747 -0.645921 4.92079 0
M  V30 1207 H 106.003 0.112995 6.11296 0
M  V30 1208 H 110.177 0.66393 6.93228 0
M  V30 1209 H 107.804 1.04938 7.52922 0
M  V30 1210 N 109.379 -1.50304 -0.473955 0
M  V30 1211 C 110.311 -1.65109 -1.58971 0
M  V30 1212 C 111.324 -0.532676 -1.53839 0
M  V30 1213 O 112.513 -0.805751 -1.59279 0
M  V30 1214 C 109.613 -1.61684 -2.97845 0
M  V30 1215 C 108.786 -2.8951 -3.27876 0
M  V30 1216 C 107.845 -2.78768 -4.4629 0
M  V30 1217 O 106.871 -3.52722 -4.46739 0
M  V30 1218 N 108.073 -1.9213 -5.47783 0
M  V30 1219 H 110.838 -2.61347 -1.46689 0
M  V30 1220 H 108.399 -1.47732 -0.662324 0
M  V30 1221 H 110.391 -1.52114 -3.75024 0
M  V30 1222 H 108.961 -0.731925 -3.03911 0
M  V30 1223 H 108.181 -3.13228 -2.39336 0
M  V30 1224 H 109.469 -3.74199 -3.4475 0
M  V30 1225 H 108.867 -1.31353 -5.50239 0
M  V30 1226 H 107.424 -1.88466 -6.23958 0
M  V30 1227 N 110.857 0.726932 -1.39834 0
M  V30 1228 C 112.134 1.47902 -1.28001 0
M  V30 1229 C 112.514 2.1083 0.106789 0
M  V30 1230 O 111.862 1.99242 1.11869 0
M  V30 1231 C 112.072 2.52392 -2.41038 0
M  V30 1232 C 113.42 3.18546 -2.80737 0
M  V30 1233 O 114.444 2.62708 -2.40547 0
M  V30 1234 O 113.303 4.19604 -3.50135 0
M  V30 1235 H 110.397 0.657163 -0.502062 0
M  V30 1236 H 112.943 0.760071 -1.51727 0
M  V30 1237 H 111.715 2.04329 -3.33715 0
M  V30 1238 H 111.338 3.31837 -2.19021 0
M  V30 1239 N 112.336 1.25143 0.95797 0
M  V30 1240 C 113.585 1.0909 1.69654 0
M  V30 1241 C 113.898 -0.368548 1.92097 0
M  V30 1242 O 115.104 -0.649455 2.63618 0
M  V30 1243 C 113.56 1.90395 3.05414 0
M  V30 1244 C 113.168 3.4081 2.90779 0
M  V30 1245 C 114.912 1.82901 3.83076 0
M  V30 1246 C 112.819 4.14423 4.21909 0
M  V30 1247 H 111.749 0.404625 0.636235 0
M  V30 1248 H 114.4 1.4931 1.06672 0
M  V30 1249 H 112.782 1.42996 3.69281 0
M  V30 1250 H 113.956 3.95859 2.35865 0
M  V30 1251 H 112.271 3.49361 2.26575 0
M  V30 1252 H 114.868 2.35196 4.80195 0
M  V30 1253 H 115.211 0.796224 4.08615 0
M  V30 1254 H 115.744 2.28033 3.25954 0
M  V30 1255 H 112.483 5.18102 4.01561 0
M  V30 1256 H 112.003 3.64159 4.76601 0
M  V30 1257 H 113.682 4.21956 4.90471 0
M  V30 1258 N 113.814 -1.1601 1.06675 0
M  V30 1259 C 114.724 -2.24156 0.692179 0
M  V30 1260 C 115.74 -1.71507 -0.293513 0
M  V30 1261 O 116.916 -2.009 -0.141861 0
M  V30 1262 C 113.981 -3.46587 0.0884131 0
M  V30 1263 C 113.042 -4.14257 1.12646 0
M  V30 1264 C 112.275 -5.30844 0.551416 0
M  V30 1265 O 112.498 -5.66858 -0.634656 0
M  V30 1266 O 111.432 -5.87848 1.29298 0
M  V30 1267 H 115.258 -2.58513 1.59388 0
M  V30 1268 H 112.843 -1.23599 0.83926 0
M  V30 1269 H 114.725 -4.20679 -0.246361 0
M  V30 1270 H 113.4 -3.13994 -0.786712 0
M  V30 1271 H 112.307 -3.42118 1.51348 0
M  V30 1272 H 113.64 -4.50914 1.97325 0
M  V30 1273 N 115.292 -0.849877 -1.32721 0
M  V30 1274 C 116.541 -0.447175 -1.96681 0
M  V30 1275 C 116.854 1.00135 -1.68025 0
M  V30 1276 O 118.06 1.50926 -2.25685 0
M  V30 1277 C 116.516 -0.7487 -3.52026 0
M  V30 1278 C 116.124 -2.21264 -3.89546 0
M  V30 1279 C 117.868 -0.413487 -4.22481 0
M  V30 1280 C 115.775 -2.45763 -5.37917 0
M  V30 1281 H 114.705 -0.163486 -0.736063 0
M  V30 1282 H 117.356 -1.03999 -1.51183 0
M  V30 1283 H 115.738 -0.0853727 -3.95908 0
M  V30 1284 H 116.912 -2.91736 -3.56689 0
M  V30 1285 H 115.227 -2.5119 -3.32103 0
M  V30 1286 H 117.824 -0.574017 -5.3161 0
M  V30 1287 H 118.167 0.644492 -4.11281 0
M  V30 1288 H 118.7 -1.03251 -3.84167 0
M  V30 1289 H 115.439 -3.50168 -5.54132 0
M  V30 1290 H 114.959 -1.79864 -5.72197 0
M  V30 1291 H 116.638 -2.29471 -6.0494 0
M  V30 1292 N 116.77 1.45427 -0.607355 0
M  V30 1293 C 118.186 1.57283 -0.270985 0
M  V30 1294 C 118.386 1.59875 1.22647 0
M  V30 1295 O 117.442 1.52893 2.00948 0
M  V30 1296 C 118.755 2.85566 -0.941952 0
M  V30 1297 C 120.303 2.9924 -0.917849 0
M  V30 1298 C 120.778 4.30293 -1.56882 0
M  V30 1299 N 122.269 4.37051 -1.5343 0
M  V30 1300 C 123.004 5.37123 -2.00715 0
M  V30 1301 N 122.5 6.43734 -2.56084 0
M  V30 1302 N 124.293 5.28479 -1.91484 0
M  V30 1303 H 116.444 1.41988 -1.57966 0
M  V30 1304 H 118.707 0.67885 -0.661715 0
M  V30 1305 H 118.413 2.8955 -1.99633 0
M  V30 1306 H 118.287 3.74322 -0.465096 0
M  V30 1307 H 120.674 2.94822 0.127984 0
M  V30 1308 H 120.755 2.11895 -1.43297 0
M  V30 1309 H 120.399 4.35469 -2.61398 0
M  V30 1310 H 120.329 5.16454 -1.02873 0
M  V30 1311 H 122.82 3.60615 -1.12982 0
M  V30 1312 H 123.133 7.16341 -2.89958 0
M  V30 1313 H 121.478 6.44485 -2.60122 0
M  V30 1314 H 124.669 4.44098 -1.47967 0
M  V30 1315 H 124.842 6.0632 -2.28648 0
M  V30 1316 N 118.248 0.346503 1.53744 0
M  V30 1317 C 119.195 -0.508914 2.25119 0
M  V30 1318 C 120.165 -1.09315 1.25058 0
M  V30 1319 O 121.35 -1.12921 1.53797 0
M  V30 1320 C 118.49 -1.65246 3.02965 0
M  V30 1321 C 117.603 -1.09525 4.17886 0
M  V30 1322 C 116.738 -2.20634 4.83212 0
M  V30 1323 C 115.777 -1.62279 5.90196 0
M  V30 1324 N 114.914 -2.67143 6.49291 0
M  V30 1325 H 119.754 0.106283 2.9781 0
M  V30 1326 H 117.291 0.0642227 1.4696 0
M  V30 1327 H 119.249 -2.32574 3.4636 0
M  V30 1328 H 117.879 -2.2386 2.32565 0
M  V30 1329 H 116.931 -0.312818 3.79112 0
M  V30 1330 H 118.243 -0.628444 4.94825 0
M  V30 1331 H 117.397 -2.95821 5.29693 0
M  V30 1332 H 116.136 -2.70659 4.05703 0
M  V30 1333 H 115.141 -0.855989 5.43096 0
M  V30 1334 H 116.366 -1.13102 6.69615 0
M  V30 1335 H 114.312 -3.16417 5.74645 0
M  V30 1336 H 114.229 -2.25093 7.21713 0
M  V30 1337 H 115.497 -3.4209 7.00425 0
M  V30 1338 N 119.726 -1.57421 0.075193 0
M  V30 1339 C 121.003 -1.85029 -0.634329 0
M  V30 1340 C 121.383 -0.968305 -1.87582 0
M  V30 1341 O 120.731 -0.0354749 -2.28472 0
M  V30 1342 C 120.941 -3.35286 -0.968742 0
M  V30 1343 C 122.289 -4.02875 -1.34077 0
M  V30 1344 O 123.313 -3.40051 -1.06037 0
M  V30 1345 O 122.172 -5.13691 -1.86506 0
M  V30 1346 H 119.266 -0.7645 -0.315387 0
M  V30 1347 H 121.812 -1.69366 0.106382 0
M  V30 1348 H 120.584 -3.91203 -0.0871376 0
M  V30 1349 H 120.207 -3.56223 -1.7661 0
M  V30 1350 N 121.204 0.198386 -1.56346 0
M  V30 1351 C 122.136 1.26987 -1.90806 0
M  V30 1352 C 123.149 1.41877 -0.798419 0
M  V30 1353 O 124.338 1.42362 -1.07682 0
M  V30 1354 C 121.438 2.64246 -2.12196 0
M  V30 1355 C 120.611 2.71007 -3.43328 0
M  V30 1356 C 119.67 3.89439 -3.5387 0
M  V30 1357 O 118.696 3.76695 -4.26719 0
M  V30 1358 N 119.898 5.04752 -2.86715 0
M  V30 1359 H 122.663 0.977433 -2.83313 0
M  V30 1360 H 120.224 0.388322 -1.57174 0
M  V30 1361 H 122.216 3.41896 -2.1654 0
M  V30 1362 H 120.786 2.85992 -1.26204 0
M  V30 1363 H 120.006 1.79657 -3.50881 0
M  V30 1364 H 121.294 2.72512 -4.29668 0
M  V30 1365 H 120.692 5.18004 -2.2735 0
M  V30 1366 H 119.249 5.8036 -2.96691 0
M  V30 1367 N 122.682 1.50554 0.465978 0
M  V30 1368 C 123.63 1.70324 1.58406 0
M  V30 1369 C 124.624 0.569139 1.59553 0
M  V30 1370 O 125.83 0.749776 1.63641 0
M  V30 1371 H 122.205 0.537688 0.525734 0
M  V30 1372 H 124.176 2.64104 1.38894 0
M  V30 1373 C 122.925 1.81928 2.96307 0
M  V30 1374 H 122.248 2.68586 2.96144 0
M  V30 1375 H 123.688 1.99784 3.73982 0
M  V30 1376 C 122.147 0.572095 3.32007 0
M  V30 1377 O 122.677 -0.286416 4.00678 0
M  V30 1378 N 120.883 0.424606 2.87481 0
M  V30 1379 H 120.43 1.12427 2.31771 0
M  V30 1380 H 120.388 -0.408697 3.11732 0
M  V30 1381 N 124.16 -0.719506 1.40217 0
M  V30 1382 C 125.408 -1.47641 1.3801 0
M  V30 1383 C 125.729 -1.94992 -0.018145 0
M  V30 1384 O 124.999 -1.70073 -0.972207 0
M  V30 1385 H 123.579 -0.547744 0.507923 0
M  V30 1386 H 126.241 -0.853187 1.75233 0
M  V30 1387 H 125.337 -2.35112 2.05253 0
M  V30 1388 N 125.638 -1.25649 -0.95132 0
M  V30 1389 C 126.585 -1.06323 -2.04851 0
M  V30 1390 C 127.555 0.0286491 -1.66075 0
M  V30 1391 O 128.74 -0.12917 -1.90362 0
M  V30 1392 C 125.88 -0.691529 -3.381 0
M  V30 1393 C 124.993 -1.85861 -3.89974 0
M  V30 1394 C 124.128 -1.43096 -5.11563 0
M  V30 1395 C 123.167 -2.56696 -5.55674 0
M  V30 1396 N 122.304 -2.14684 -6.68472 0
M  V30 1397 H 127.144 -2.00222 -2.20715 0
M  V30 1398 H 124.681 -0.997027 -1.08156 0
M  V30 1399 H 126.639 -0.456963 -4.1469 0
M  V30 1400 H 125.269 0.210474 -3.22113 0
M  V30 1401 H 124.321 -2.20639 -3.09875 0
M  V30 1402 H 125.633 -2.71161 -4.18657 0
M  V30 1403 H 124.787 -1.15624 -5.9558 0
M  V30 1404 H 123.526 -0.548722 -4.84603 0
M  V30 1405 H 122.531 -2.84909 -4.7022 0
M  V30 1406 H 123.756 -3.45503 -5.8464 0
M  V30 1407 H 121.702 -1.28881 -6.43215 0
M  V30 1408 H 121.619 -2.9353 -6.96689 0
M  V30 1409 H 122.887 -1.90397 -7.5589 0
M  V30 1410 N 127.117 1.15442 -1.07289 0
M  V30 1411 C 128.528 1.67803 -0.818475 0
M  V30 1412 C 128.879 1.8489 0.656507 0
M  V30 1413 O 128.004 1.55176 1.50829 0
M  V30 1414 C 128.599 3.04805 -1.47917 0
M  V30 1415 C 127.158 3.54245 -1.27229 0
M  V30 1416 C 126.305 2.29986 -1.54925 0
M  V30 1417 H 129.256 0.996646 -1.23502 0
M  V30 1418 H 129.277 3.69702 -0.90005 0
M  V30 1419 H 128.789 2.92336 -2.55267 0
M  V30 1420 H 126.89 3.71956 -0.21899 0
M  V30 1421 H 127.003 4.35723 -1.99203 0
M  V30 1422 H 125.367 2.35496 -0.970242 0
M  V30 1423 H 126.15 2.20105 -2.63455 0
M  V30 1424 N 128.595 0.856903 1.32268 0
M  V30 1425 C 129.825 0.47475 2.01071 0
M  V30 1426 C 130.233 -0.933746 1.64553 0
M  V30 1427 O 129.576 -1.62114 0.863989 0
M  V30 1428 C 129.638 0.536746 3.55471 0
M  V30 1429 C 129.302 1.90453 4.15423 0
M  V30 1430 C 130.299 2.87029 4.33486 0
M  V30 1431 C 127.984 2.20229 4.51447 0
M  V30 1432 C 129.978 4.11532 4.86744 0
M  V30 1433 C 127.665 3.44984 5.0441 0
M  V30 1434 C 128.663 4.40452 5.22007 0
M  V30 1435 O 128.351 5.62998 5.73837 0
M  V30 1436 H 128.083 0.184778 0.650256 0
M  V30 1437 H 130.637 1.15615 1.69771 0
M  V30 1438 H 128.867 -0.20152 3.86175 0
M  V30 1439 H 130.556 0.169875 4.05544 0
M  V30 1440 H 131.322 2.6533 4.05986 0
M  V30 1441 H 127.201 1.46705 4.37034 0
M  V30 1442 H 130.745 4.86056 5.00395 0
M  V30 1443 H 126.642 3.66532 5.31342 0
M  V30 1444 H 127.41 5.64987 5.92226 0
M  V30 1445 N 130.073 -1.45103 0.615059 0
M  V30 1446 C 131.322 -2.01396 0.110718 0
M  V30 1447 C 131.635 -1.48834 -1.26916 0
M  V30 1448 O 132.841 -1.97152 -1.86664 0
M  V30 1449 C 131.297 -3.59599 0.14723 0
M  V30 1450 C 130.905 -4.21158 1.52743 0
M  V30 1451 C 132.649 -4.23428 -0.30148 0
M  V30 1452 C 130.556 -5.71535 1.51992 0
M  V30 1453 H 129.486 -0.753061 0.0376241 0
M  V30 1454 H 132.137 -1.66494 0.77149 0
M  V30 1455 H 130.519 -3.91724 -0.580339 0
M  V30 1456 H 131.693 -4.00594 2.2773 0
M  V30 1457 H 130.008 -3.69552 1.91886 0
M  V30 1458 H 132.605 -5.33703 -0.326392 0
M  V30 1459 H 132.948 -3.94629 -1.32565 0
M  V30 1460 H 133.481 -3.96047 0.373065 0
M  V30 1461 H 130.22 -6.05044 2.52193 0
M  V30 1462 H 129.74 -5.94268 0.81274 0
M  V30 1463 H 131.419 -6.34873 1.24681 0
M  V30 1464 N 131.551 -0.354651 -1.53558 0
M  V30 1465 C 132.8 0.239504 -2.00273 0
M  V30 1466 C 133.113 1.50759 -1.24623 0
M  V30 1467 O 134.319 2.17968 -1.61871 0
M  V30 1468 C 132.775 0.477341 -3.5672 0
M  V30 1469 C 132.383 -0.775488 -4.41237 0
M  V30 1470 C 134.127 1.02975 -4.11821 0
M  V30 1471 C 132.034 -0.507838 -5.89216 0
M  V30 1472 H 130.964 0.0932743 -0.748208 0
M  V30 1473 H 133.615 -0.471701 -1.77334 0
M  V30 1474 H 131.997 1.24953 -3.7577 0
M  V30 1475 H 133.171 -1.54963 -4.33962 0
M  V30 1476 H 131.486 -1.25033 -3.97185 0
M  V30 1477 H 134.083 1.24513 -5.2 0
M  V30 1478 H 134.426 1.98862 -3.65731 0
M  V30 1479 H 134.959 0.317994 -3.96527 0
M  V30 1480 H 131.698 -1.43674 -6.39561 0
M  V30 1481 H 131.218 0.228011 -5.99366 0
M  V30 1482 H 132.897 -0.129238 -6.46871 0
M  V30 1483 N 133.029 1.57378 -0.0835403 0
M  V30 1484 C 134.269 1.95808 0.586381 0
M  V30 1485 C 134.633 0.963706 1.66062 0
M  V30 1486 O 135.834 1.23608 2.38693 0
M  V30 1487 C 134.105 3.38808 1.13771 0
M  V30 1488 S 135.664 3.99225 1.82112 0
M  V30 1489 H 132.482 0.684675 0.191679 0
M  V30 1490 H 135.084 1.94843 -0.160194 0
M  V30 1491 H 133.788 4.08954 0.344197 0
M  V30 1492 H 133.319 3.43344 1.92038 0
M  V30 1493 H 135.334 3.87087 3.10449 0
M  V30 1494 N 134.507 -0.190092 1.56449 0
M  V30 1495 C 135.735 -0.925772 1.85033 0
M  V30 1496 C 136.15 -1.76638 0.666658 0
M  V30 1497 O 135.507 -1.78822 -0.364565 0
M  V30 1498 C 135.558 -1.81786 3.12468 0
M  V30 1499 O 135.279 -1.01118 4.26271 0
M  V30 1500 C 136.78 -2.6648 3.54265 0
M  V30 1501 H 134 -0.269872 0.614337 0
M  V30 1502 H 136.544 -0.195837 2.0356 0
M  V30 1503 H 134.699 -2.50136 2.95822 0
M  V30 1504 H 135.113 -1.61956 4.98869 0
M  V30 1505 H 136.587 -3.24722 4.46385 0
M  V30 1506 H 137.064 -3.40434 2.77491 0
M  V30 1507 H 137.67 -2.03493 3.73458 0
M  V30 1508 N 135.985 -1.50799 -0.457987 0
M  V30 1509 C 136.932 -1.70617 -1.5543 0
M  V30 1510 C 137.902 -0.547562 -1.56815 0
M  V30 1511 O 139.087 -0.779647 -1.74144 0
M  V30 1512 C 136.227 -1.81831 -2.93311 0
M  V30 1513 C 135.34 -3.09278 -3.01615 0
M  V30 1514 C 134.475 -3.11209 -4.30491 0
M  V30 1515 C 133.514 -4.33055 -4.32585 0
M  V30 1516 N 132.651 -4.32652 -5.52952 0
M  V30 1517 H 137.491 -2.64207 -1.37836 0
M  V30 1518 H 135.028 -1.30959 -0.669937 0
M  V30 1519 H 136.986 -1.86314 -3.73287 0
M  V30 1520 H 135.616 -0.916685 -3.0951 0
M  V30 1521 H 134.668 -3.14203 -2.1443 0
M  V30 1522 H 135.98 -3.99233 -2.99022 0
M  V30 1523 H 135.134 -3.14494 -5.18824 0
M  V30 1524 H 133.873 -2.19106 -4.35711 0
M  V30 1525 H 132.878 -4.29969 -3.42647 0
M  V30 1526 H 134.103 -5.264 -4.29046 0
M  V30 1527 H 132.049 -3.43409 -5.58933 0
M  V30 1528 H 131.966 -5.16392 -5.52155 0
M  V30 1529 H 133.234 -4.40101 -6.43375 0
M  V30 1530 N 137.463 0.71206 -1.40597 0
M  V30 1531 C 138.393 1.83889 -1.43899 0
M  V30 1532 C 139.374 1.67442 -0.299504 0
M  V30 1533 O 140.559 1.87421 -0.508624 0
M  V30 1534 C 137.689 3.21877 -1.30431 0
M  V30 1535 C 136.643 3.53002 -2.42019 0
M  V30 1536 C 135.969 4.90172 -2.13626 0
M  V30 1537 C 137.269 3.53643 -3.84362 0
M  V30 1538 H 138.963 1.81383 -2.38203 0
M  V30 1539 H 136.509 0.871237 -1.14654 0
M  V30 1540 H 138.462 4.00404 -1.31357 0
M  V30 1541 H 137.186 3.24968 -0.326049 0
M  V30 1542 H 135.845 2.76818 -2.40349 0
M  V30 1543 H 135.493 4.89869 -1.14182 0
M  V30 1544 H 135.193 5.11962 -2.88389 0
M  V30 1545 H 136.717 5.71028 -2.1624 0
M  V30 1546 H 138.131 4.22203 -3.87837 0
M  V30 1547 H 136.528 3.86961 -4.58673 0
M  V30 1548 H 137.598 2.52954 -4.13693 0
M  V30 1549 N 138.941 1.26152 0.944643 0
M  V30 1550 C 140.166 1.14363 1.7302 0
M  V30 1551 C 140.591 -0.29772 1.85729 0
M  V30 1552 O 139.949 -1.2157 1.34501 0
M  V30 1553 C 139.997 1.81378 3.11664 0
M  V30 1554 O 139.101 1.10022 3.97453 0
M  V30 1555 H 138.442 0.398694 0.53098 0
M  V30 1556 H 140.972 1.66906 1.18337 0
M  V30 1557 H 140.982 1.88064 3.62072 0
M  V30 1558 H 139.657 2.86237 3.0173 0
M  V30 1559 H 138.234 1.11287 3.55907 0
M  V30 1560 N 140.419 -1.14872 1.07899 0
M  V30 1561 C 141.351 -2.19425 0.662231 0
M  V30 1562 C 142.364 -1.60231 -0.288079 0
M  V30 1563 O 143.553 -1.78336 -0.076534 0
M  V30 1564 C 140.653 -3.38867 -0.0470695 0
M  V30 1565 C 139.826 -4.27597 0.920831 0
M  V30 1566 C 138.885 -5.25616 0.247805 0
M  V30 1567 O 137.911 -5.62189 0.890599 0
M  V30 1568 N 139.113 -5.71746 -1.00435 0
M  V30 1569 H 141.878 -2.55797 1.56166 0
M  V30 1570 H 139.439 -1.30042 0.964404 0
M  V30 1571 H 141.431 -4.01497 -0.50813 0
M  V30 1572 H 140.001 -3.00864 -0.848523 0
M  V30 1573 H 139.221 -3.61982 1.56087 0
M  V30 1574 H 140.509 -4.83748 1.57688 0
M  V30 1575 H 139.907 -5.44153 -1.54642 0
M  V30 1576 H 138.464 -6.36389 -1.40899 0
M  V30 1577 N 141.898 -0.863906 -1.31812 0
M  V30 1578 C 142.861 -0.320212 -2.26952 0
M  V30 1579 C 143.861 0.525369 -1.51975 0
M  V30 1580 O 145.051 0.335547 -1.70938 0
M  V30 1581 C 142.183 0.545919 -3.365 0
M  V30 1582 H 143.376 -1.16004 -2.76556 0
M  V30 1583 H 140.929 -0.638995 -1.42641 0
M  V30 1584 H 141.664 1.40718 -2.92179 0
M  V30 1585 H 141.449 -0.0594674 -3.92055 0
M  V30 1586 H 142.939 0.918796 -4.07367 0
M  V30 1587 N 143.376 1.44774 -0.622745 0
M  V30 1588 C 144.339 2.29069 0.0774015 0
M  V30 1589 C 145.339 1.4059 0.780461 0
M  V30 1590 O 146.529 1.62551 0.626322 0
M  V30 1591 C 143.661 3.21974 1.12006 0
M  V30 1592 H 144.854 2.92459 -0.663901 0
M  V30 1593 H 142.407 1.51548 -0.382486 0
M  V30 1594 H 143.142 2.63417 1.89162 0
M  V30 1595 H 142.927 3.87168 0.619951 0
M  V30 1596 H 144.417 3.85318 1.60995 0
M  V30 1597 N 144.854 0.36279 1.53368 0
M  V30 1598 C 146.1 -0.228113 2.01513 0
M  V30 1599 C 146.433 -1.48648 1.2497 0
M  V30 1600 O 145.708 -1.91459 0.342616 0
M  V30 1601 C 145.991 -0.522884 3.56284 0
M  V30 1602 C 145.844 0.74892 4.43521 0
M  V30 1603 C 147.163 -1.32461 4.19693 0
M  V30 1604 H 144.282 -0.0814343 0.732487 0
M  V30 1605 H 146.924 0.48713 1.83649 0
M  V30 1606 H 145.074 -1.1322 3.71636 0
M  V30 1607 H 146.746 1.38648 4.39971 0
M  V30 1608 H 144.989 1.36986 4.11603 0
M  V30 1609 H 145.66 0.497667 5.49752 0
M  V30 1610 H 148.136 -0.809203 4.08156 0
M  V30 1611 H 147.012 -1.49961 5.28018 0
M  V30 1612 H 147.273 -2.33232 3.75573 0
M  V30 1613 N 146.332 -1.57332 0.0918853 0
M  V30 1614 C 147.282 -2.10385 -0.87876 0
M  V30 1615 C 148.266 -1.01814 -1.24591 0
M  V30 1616 O 149.458 -1.28093 -1.22152 0
M  V30 1617 C 146.587 -2.68517 -2.13901 0
M  V30 1618 C 145.673 -3.84126 -1.79744 0
M  V30 1619 N 146.064 -4.92288 -1.1613 0
M  V30 1620 C 144.362 -3.93801 -2.09373 0
M  V30 1621 C 145.063 -5.7295 -1.00513 0
M  V30 1622 N 144.039 -5.21876 -1.5214 0
M  V30 1623 H 147.841 -2.91395 -0.38293 0
M  V30 1624 H 145.355 -1.62017 -0.111423 0
M  V30 1625 H 147.352 -3.04852 -2.84378 0
M  V30 1626 H 146.012 -1.88961 -2.64053 0
M  V30 1627 H 147.023 -5.1123 -0.828504 0
M  V30 1628 H 143.7 -3.25249 -2.61762 0
M  V30 1629 H 145.09 -6.69978 -0.507902 0
M  V30 1630 N 147.81 0.181792 -1.56548 0
M  V30 1631 C 149.056 0.901431 -1.81665 0
M  V30 1632 C 149.389 1.82347 -0.668075 0
M  V30 1633 O 148.664 1.91669 0.330615 0
M  V30 1634 C 148.947 1.70618 -3.17115 0
M  V30 1635 C 148.8 0.807964 -4.42484 0
M  V30 1636 C 150.119 2.67605 -3.49393 0
M  V30 1637 H 147.238 0.32627 -0.660846 0
M  V30 1638 H 149.88 0.168134 -1.89255 0
M  V30 1639 H 148.03 2.33133 -3.10775 0
M  V30 1640 H 149.702 0.19649 -4.60881 0
M  V30 1641 H 147.945 0.115411 -4.33646 0
M  V30 1642 H 148.616 1.40632 -5.33785 0
M  V30 1643 H 151.092 2.15218 -3.56118 0
M  V30 1644 H 149.968 3.20985 -4.45264 0
M  V30 1645 H 150.229 3.47298 -2.73563 0
M  V30 1646 N 149.288 1.51039 0.449983 0
M  V30 1647 C 150.513 1.6715 1.22783 0
M  V30 1648 C 150.938 0.363081 1.84563 0
M  V30 1649 O 150.296 -0.675433 1.68249 0
M  V30 1650 C 150.344 2.77985 2.29689 0
M  V30 1651 O 149.448 2.40707 3.34864 0
M  V30 1652 H 148.789 0.557746 0.360299 0
M  V30 1653 H 151.319 1.97535 0.533005 0
M  V30 1654 H 151.329 3.01693 2.74673 0
M  V30 1655 H 150.004 3.72935 1.84098 0
M  V30 1656 H 148.581 2.27523 2.95445 0
M  V30 1657 N 150.766 -0.704594 1.40972 0
M  V30 1658 C 152.015 -1.46018 1.39146 0
M  V30 1659 C 152.328 -1.956 0.000589254 0
M  V30 1660 O 153.534 -2.71137 -0.1403 0
M  V30 1661 C 151.99 -2.63996 2.4461 0
M  V30 1662 C 151.598 -2.21238 3.89561 0
M  V30 1663 C 153.342 -3.41677 2.51907 0
M  V30 1664 C 151.249 -3.3612 4.86598 0
M  V30 1665 H 150.179 -0.548444 0.517422 0
M  V30 1666 H 152.83 -0.765784 1.66757 0
M  V30 1667 H 151.212 -3.3566 2.10115 0
M  V30 1668 H 152.386 -1.56923 4.33257 0
M  V30 1669 H 150.701 -1.56574 3.85841 0
M  V30 1670 H 153.298 -4.27182 3.2159 0
M  V30 1671 H 153.641 -3.86247 1.55303 0
M  V30 1672 H 154.174 -2.77064 2.85448 0
M  V30 1673 H 150.913 -2.96572 5.84573 0
M  V30 1674 H 150.433 -3.99315 4.47557 0
M  V30 1675 H 152.112 -4.02029 5.06934 0
M  V30 1676 N 152.244 -1.26651 -0.937939 0
M  V30 1677 C 153.472 -1.15173 -1.7188 0
M  V30 1678 C 153.887 0.292668 -1.86518 0
M  V30 1679 O 153.244 1.20014 -1.37488 0
M  V30 1680 C 153.295 -1.81925 -3.12387 0
M  V30 1681 O 153.016 -3.2072 -2.98446 0
M  V30 1682 C 154.517 -1.76442 -4.06673 0
M  V30 1683 H 151.737 -0.400911 -0.538063 0
M  V30 1684 H 154.281 -1.67332 -1.1756 0
M  V30 1685 H 152.436 -1.33696 -3.63599 0
M  V30 1686 H 152.85 -3.53802 -3.872 0
M  V30 1687 H 154.324 -2.27781 -5.02812 0
M  V30 1688 H 154.801 -0.731608 -4.33064 0
M  V30 1689 H 155.407 -2.24238 -3.61382 0
M  V30 1690 N 153.722 1.14298 -1.08507 0
M  V30 1691 C 154.672 2.17449 -0.685569 0
M  V30 1692 C 155.656 1.58167 0.295315 0
M  V30 1693 O 156.848 1.76675 0.107172 0
M  V30 1694 C 153.977 3.43161 -0.0975318 0
M  V30 1695 C 153.063 4.09471 -1.10426 0
M  V30 1696 N 153.454 4.51089 -2.28806 0
M  V30 1697 C 151.752 4.35976 -0.940258 0
M  V30 1698 C 152.453 5.02654 -2.9277 0
M  V30 1699 N 151.429 4.96927 -2.20374 0
M  V30 1700 H 155.231 2.47369 -1.587 0
M  V30 1701 H 152.745 1.30992 -0.959936 0
M  V30 1702 H 154.742 4.16388 0.20664 0
M  V30 1703 H 153.402 3.14719 0.798872 0
M  V30 1704 H 154.413 4.44097 -2.66455 0
M  V30 1705 H 151.09 4.17386 -0.0977441 0
M  V30 1706 H 152.48 5.44723 -3.93352 0
M  V30 1707 N 155.201 0.870884 1.31352 0
M  V30 1708 C 156.429 0.49677 2.00848 0
M  V30 1709 C 156.844 -0.910998 1.65367 0
M  V30 1710 O 156.201 -1.59696 0.883374 0
M  V30 1711 C 156.252 0.645308 3.55694 0
M  V30 1712 O 155.973 1.99764 3.89905 0
M  V30 1713 C 157.474 0.272326 4.42463 0
M  V30 1714 H 154.694 0.193462 0.642506 0
M  V30 1715 H 157.238 1.1723 1.67563 0
M  V30 1716 H 155.393 0.0173176 3.87396 0
M  V30 1717 H 155.807 2.00607 4.84621 0
M  V30 1718 H 157.281 0.427208 5.50344 0
M  V30 1719 H 157.758 -0.788587 4.32062 0
M  V30 1720 H 158.364 0.876054 4.1618 0
M  V30 1721 N 156.679 -1.44442 0.630414 0
M  V30 1722 C 157.626 -2.30678 -0.0749355 0
M  V30 1723 C 158.596 -1.4344 -0.837502 0
M  V30 1724 O 159.781 -1.72343 -0.818684 0
M  V30 1725 C 156.921 -3.28706 -1.05103 0
M  V30 1726 C 156.034 -4.31046 -0.286954 0
M  V30 1727 C 155.169 -5.16167 -1.2548 0
M  V30 1728 C 154.208 -6.10216 -0.479843 0
M  V30 1729 N 153.345 -6.88039 -1.39811 0
M  V30 1730 H 158.185 -2.90454 0.666386 0
M  V30 1731 H 155.722 -1.43107 0.340404 0
M  V30 1732 H 157.68 -3.84027 -1.63031 0
M  V30 1733 H 156.31 -2.70632 -1.75949 0
M  V30 1734 H 155.362 -3.78203 0.408243 0
M  V30 1735 H 156.674 -4.97794 0.316657 0
M  V30 1736 H 155.828 -5.76002 -1.90544 0
M  V30 1737 H 154.567 -4.49491 -1.89233 0
M  V30 1738 H 153.572 -5.49491 0.184295 0
M  V30 1739 H 154.797 -6.78928 0.152965 0
M  V30 1740 H 152.743 -6.24032 -2.02287 0
M  V30 1741 H 152.66 -7.51223 -0.848508 0
M  V30 1742 H 153.928 -7.52397 -2.03762 0
M  V30 1743 N 158.157 -0.370918 -1.53173 0
M  V30 1744 C 159.067 0.480823 -2.2962 0
M  V30 1745 C 160.083 1.08789 -1.35798 0
M  V30 1746 O 161.259 1.09768 -1.68858 0
M  V30 1747 C 158.324 1.60227 -3.07454 0
M  V30 1748 C 157.385 1.0222 -4.16953 0
M  V30 1749 C 156.618 2.0902 -4.91066 0
M  V30 1750 O 156.841 3.30222 -4.65091 0
M  V30 1751 O 155.775 1.71778 -5.76867 0
M  V30 1752 H 159.601 -0.141421 -3.03371 0
M  V30 1753 H 157.186 -0.135146 -1.48787 0
M  V30 1754 H 159.068 2.25417 -3.56041 0
M  V30 1755 H 157.743 2.20982 -2.36535 0
M  V30 1756 H 156.65 0.334064 -3.72605 0
M  V30 1757 H 157.983 0.459131 -4.90054 0
M  V30 1758 N 159.635 1.57281 -0.100228 0
M  V30 1759 C 160.865 1.98591 0.569681 0
M  V30 1760 C 161.273 0.978315 1.61943 0
M  V30 1761 O 160.616 -0.0396108 1.83657 0
M  V30 1762 C 160.678 3.36282 1.271 0
M  V30 1763 C 160.342 4.55488 0.371409 0
M  V30 1764 C 161.339 5.18491 -0.382504 0
M  V30 1765 C 159.024 5.01474 0.287965 0
M  V30 1766 C 161.018 6.25852 -1.20779 0
M  V30 1767 C 158.705 6.08701 -0.540965 0
M  V30 1768 C 159.703 6.70755 -1.28749 0
M  V30 1769 O 159.391 7.75914 -2.10269 0
M  V30 1770 H 159.123 0.65752 0.156982 0
M  V30 1771 H 161.677 2.0463 -0.177734 0
M  V30 1772 H 159.907 3.26941 2.0651 0
M  V30 1773 H 161.596 3.62005 1.83595 0
M  V30 1774 H 162.362 4.83891 -0.3278 0
M  V30 1775 H 158.241 4.52932 0.858689 0
M  V30 1776 H 161.785 6.74218 -1.79096 0
M  V30 1777 H 157.682 6.42732 -0.597131 0
M  V30 1778 H 158.45 7.92925 -2.03007 0
M  V30 1779 N 161.113 -0.173488 1.56642 0
M  V30 1780 C 162.076 -1.19859 1.95362 0
M  V30 1781 C 163.076 -1.37296 0.83704 0
M  V30 1782 O 164.266 -1.34739 1.10413 0
M  V30 1783 C 161.398 -2.56405 2.24654 0
M  V30 1784 H 162.591 -0.867062 2.87092 0
M  V30 1785 H 160.144 -0.415853 1.50666 0
M  V30 1786 H 160.879 -2.94576 1.35631 0
M  V30 1787 H 160.664 -2.45115 3.06041 0
M  V30 1788 H 162.154 -3.30287 2.5554 0
M  V30 1789 N 162.591 -1.51276 -0.441967 0
M  V30 1790 C 163.554 -1.7167 -1.51862 0
M  V30 1791 C 164.554 -0.586793 -1.49711 0
M  V30 1792 O 165.744 -0.854276 -1.51815 0
M  V30 1793 C 162.876 -1.76889 -2.91416 0
M  V30 1794 H 164.069 -2.67754 -1.35084 0
M  V30 1795 H 161.622 -1.41196 -0.670333 0
M  V30 1796 H 162.357 -0.826026 -3.13604 0
M  V30 1797 H 162.142 -2.59001 -2.94382 0
M  V30 1798 H 163.632 -1.94522 -3.69528 0
M  V30 1799 N 164.069 0.697108 -1.41344 0
M  V30 1800 C 165.032 1.79281 -1.42797 0
M  V30 1801 C 166.032 1.57607 -0.318837 0
M  V30 1802 O 167.222 1.64309 -0.578642 0
M  V30 1803 C 164.354 3.17632 -1.23785 0
M  V30 1804 H 165.547 1.79385 -2.40335 0
M  V30 1805 H 163.1 0.904582 -1.27464 0
M  V30 1806 H 163.835 3.23167 -0.270814 0
M  V30 1807 H 163.62 3.34765 -2.04144 0
M  V30 1808 H 165.11 3.97617 -1.27633 0
M  V30 1809 N 165.547 1.27147 0.931209 0
M  V30 1810 C 166.479 1.05364 2.03546 0
M  V30 1811 C 167.492 0.0108438 1.62796 0
M  V30 1812 O 168.681 0.25202 1.76712 0
M  V30 1813 C 165.781 0.575566 3.33977 0
M  V30 1814 C 164.954 1.68985 4.03439 0
M  V30 1815 C 164.013 1.20813 5.12143 0
M  V30 1816 O 163.039 1.90712 5.363 0
M  V30 1817 N 164.241 0.0618851 5.80467 0
M  V30 1818 H 167.006 2.00454 2.22796 0
M  V30 1819 H 164.567 1.18666 1.10136 0
M  V30 1820 H 166.559 0.237264 4.04004 0
M  V30 1821 H 165.129 -0.282016 3.11325 0
M  V30 1822 H 164.349 2.19861 3.27192 0
M  V30 1823 H 165.637 2.4378 4.46597 0
M  V30 1824 H 165.035 -0.521621 5.6329 0
M  V30 1825 H 163.592 -0.217264 6.51438 0
M  V30 1826 N 167.025 -1.13721 1.09112 0
M  V30 1827 C 168.271 -1.85198 0.826414 0
M  V30 1828 C 168.604 -1.83129 -0.646319 0
M  V30 1829 O 167.879 -1.2671 -1.47563 0
M  V30 1830 C 168.162 -3.33507 1.35812 0
M  V30 1831 C 168.015 -3.44108 2.89672 0
M  V30 1832 C 169.334 -4.28838 0.989256 0
M  V30 1833 H 166.453 -0.67243 0.301675 0
M  V30 1834 H 169.095 -1.33499 1.35197 0
M  V30 1835 H 167.245 -3.77666 0.911082 0
M  V30 1836 H 168.917 -3.08684 3.428 0
M  V30 1837 H 167.16 -2.85087 3.26967 0
M  V30 1838 H 167.831 -4.48388 3.21951 0
M  V30 1839 H 170.307 -3.92734 1.37475 0
M  V30 1840 H 169.183 -5.31051 1.38838 0
M  V30 1841 H 169.444 -4.4198 -0.102924 0
M  V30 1842 N 168.503 -0.877838 -1.30888 0
M  V30 1843 C 169.749 -0.493426 -1.96706 0
M  V30 1844 C 170.082 0.953504 -1.6918 0
M  V30 1845 O 169.357 1.67266 -0.992594 0
M  V30 1846 C 169.64 -0.760429 -3.51979 0
M  V30 1847 C 169.493 -2.25747 -3.89048 0
M  V30 1848 C 170.812 -0.232148 -4.39487 0
M  V30 1849 H 167.931 -0.180746 -0.714493 0
M  V30 1850 H 170.573 -1.10052 -1.54882 0
M  V30 1851 H 168.723 -0.243715 -3.87735 0
M  V30 1852 H 170.395 -2.84204 -3.63354 0
M  V30 1853 H 168.638 -2.72694 -3.37373 0
M  V30 1854 H 169.309 -2.39491 -4.97341 0
M  V30 1855 H 171.785 -0.674314 -4.106 0
M  V30 1856 H 170.661 -0.448355 -5.47066 0
M  V30 1857 H 170.922 0.866297 -4.33529 0
M  V30 1858 N 169.982 1.44106 -0.638065 0
M  V30 1859 C 171.231 2.01194 -0.142744 0
M  V30 1860 C 171.544 1.50835 1.24532 0
M  V30 1861 O 172.75 2.00096 1.83504 0
M  V30 1862 C 171.206 3.59319 -0.20442 0
M  V30 1863 C 170.814 4.18674 -1.59423 0
M  V30 1864 C 172.558 4.23854 0.234079 0
M  V30 1865 C 170.465 5.69045 -1.61065 0
M  V30 1866 H 169.395 0.752367 -0.0495998 0
M  V30 1867 H 172.046 1.65246 -0.797881 0
M  V30 1868 H 170.428 3.92598 0.517946 0
M  V30 1869 H 171.602 3.96921 -2.34074 0
M  V30 1870 H 169.917 3.66453 -1.97741 0
M  V30 1871 H 172.514 5.34155 0.241443 0
M  V30 1872 H 172.857 3.96688 1.2627 0
M  V30 1873 H 173.39 3.95403 -0.436025 0
M  V30 1874 H 170.129 6.00956 -2.61787 0
M  V30 1875 H 169.649 5.929 -0.90718 0
M  V30 1876 H 171.328 6.32809 -1.34766 0
M  V30 1877 N 171.46 0.379036 1.52974 0
M  V30 1878 C 172.37 -0.468639 2.29872 0
M  V30 1879 C 173.386 -1.08067 1.36373 0
M  V30 1880 O 174.562 -1.08871 1.69438 0
M  V30 1881 C 171.627 -1.58594 3.083 0
M  V30 1882 C 170.688 -1.00007 4.17489 0
M  V30 1883 C 169.921 -2.06413 4.92168 0
M  V30 1884 O 170.144 -3.27751 4.66835 0
M  V30 1885 O 169.078 -1.68717 5.7777 0
M  V30 1886 H 172.904 0.157508 3.03291 0
M  V30 1887 H 170.489 0.143035 1.48714 0
M  V30 1888 H 172.371 -2.23525 3.57232 0
M  V30 1889 H 171.046 -2.19724 2.37703 0
M  V30 1890 H 169.953 -0.314299 3.72777 0
M  V30 1891 H 171.286 -0.433135 4.90291 0
M  V30 1892 N 172.938 -1.57226 0.108567 0
M  V30 1893 C 174.354 -1.5766 -0.248058 0
M  V30 1894 C 174.554 -1.12063 -1.67464 0
M  V30 1895 O 173.61 -0.803236 -2.39383 0
M  V30 1896 C 174.923 -3.0069 -0.0242287 0
M  V30 1897 C 176.471 -3.12868 -0.0909372 0
M  V30 1898 C 176.946 -4.57879 0.105067 0
M  V30 1899 N 178.437 -4.63172 0.0506846 0
M  V30 1900 C 179.172 -5.73126 0.177396 0
M  V30 1901 N 178.668 -6.91866 0.359696 0
M  V30 1902 N 180.461 -5.61977 0.117709 0
M  V30 1903 H 172.612 -1.85169 1.04049 0
M  V30 1904 H 174.875 -0.85529 0.40888 0
M  V30 1905 H 174.581 -3.38299 0.961604 0
M  V30 1906 H 174.455 -3.6945 -0.76068 0
M  V30 1907 H 176.842 -2.75124 -1.06729 0
M  V30 1908 H 176.923 -2.46672 0.677225 0
M  V30 1909 H 176.567 -4.96321 1.07834 0
M  V30 1910 H 176.497 -5.22153 -0.682954 0
M  V30 1911 H 178.988 -3.778 -0.0871266 0
M  V30 1912 H 179.301 -7.71503 0.447529 0
M  V30 1913 H 177.646 -6.93874 0.395536 0
M  V30 1914 H 180.837 -4.68094 -0.0236741 0
M  V30 1915 H 181.01 -6.47627 0.219905 0
M  V30 1916 N 174.416 0.165178 -1.56732 0
M  V30 1917 C 175.346 1.20651 -1.99914 0
M  V30 1918 C 176.327 1.45827 -0.875705 0
M  V30 1919 O 177.512 1.57057 -1.14223 0
M  V30 1920 C 174.642 2.54401 -2.36427 0
M  V30 1921 C 173.596 2.43782 -3.51787 0
M  V30 1922 C 172.922 3.82078 -3.7406 0
M  V30 1923 C 174.222 1.93732 -4.85041 0
M  V30 1924 H 175.916 0.847534 -2.87154 0
M  V30 1925 H 173.462 0.40625 -1.38151 0
M  V30 1926 H 175.415 3.27458 -2.65234 0
M  V30 1927 H 174.139 2.92098 -1.46103 0
M  V30 1928 H 172.798 1.73178 -3.23117 0
M  V30 1929 H 172.446 4.17179 -2.81017 0
M  V30 1930 H 172.146 3.7584 -4.51684 0
M  V30 1931 H 173.67 4.56712 -4.05274 0
M  V30 1932 H 175.084 2.56569 -5.12684 0
M  V30 1933 H 173.481 1.98428 -5.66345 0
M  V30 1934 H 174.551 0.891962 -4.76626 0
M  V30 1935 N 175.894 1.51508 0.433938 0
M  V30 1936 C 177.119 1.68443 1.21003 0
M  V30 1937 C 177.544 0.382636 1.84167 0
M  V30 1938 O 176.902 -0.65755 1.68956 0
M  V30 1939 C 176.95 2.80405 2.26727 0
M  V30 1940 O 176.054 2.44245 3.32292 0
M  V30 1941 H 175.395 0.561536 0.354363 0
M  V30 1942 H 177.925 1.9809 0.512024 0
M  V30 1943 H 177.935 3.0459 2.71457 0
M  V30 1944 H 176.61 3.74867 1.80132 0
M  V30 1945 H 175.187 2.30644 2.93015 0
M  V30 1946 N 177.372 -0.689602 1.41712 0
M  V30 1947 C 178.597 -1.48329 1.44959 0
M  V30 1948 C 179.022 -1.8801 0.0581283 0
M  V30 1949 O 178.38 -1.55026 -0.940035 0
M  V30 1950 C 178.428 -2.71835 2.36935 0
M  V30 1951 O 177.532 -3.69549 1.8305 0
M  V30 1952 H 176.873 -0.446199 0.491734 0
M  V30 1953 H 179.403 -0.847127 1.86239 0
M  V30 1954 H 179.413 -3.20076 2.53013 0
M  V30 1955 H 178.088 -2.42291 3.38035 0
M  V30 1956 H 176.665 -3.2851 1.76452 0
M  V30 1957 O 178.889 -1.38429 -0.831842 0
M  V30 1958 H 179.58 -1.25628 -1.47436 0
M  V30 END ATOM
M  V30 BEGIN BOND
M  V30 END BOND
M  V30 END CTAB
M  END
$$$$
