drugbank_target|P97084 Threonine-phosphate decarboxylase (DB02482; DB03433)
 OpenBabel12092119573D

  0  0  0     0  0            999 V3000
M  V30 BEGIN CTAB
M  V30 COUNTS 5743 5809 0 0 0
M  V30 BEGIN ATOM
M  V30 1 H -0.908 1.98254 -0.117106 0
M  V30 2 N 0 1.576 0 0
M  V30 3 C 0.933 2.03868 1.02534 0
M  V30 4 C 1.911 0.928543 1.3348 0
M  V30 5 O 3.095 1.19667 1.45644 0
M  V30 6 C 0.222 2.43627 2.35294 0
M  V30 7 C -0.732 3.65373 2.2001 0
M  V30 8 S 0.101 5.13292 1.52614 0
M  V30 9 C 1.257 5.56322 2.86805 0
M  V30 10 H 1.49 2.90518 0.631377 0
M  V30 11 H -0.977 1.52953 0.210867 0
M  V30 12 H 0.981 2.67203 3.11629 0
M  V30 13 H -0.358 1.57376 2.7183 0
M  V30 14 H -1.165 3.90944 3.18086 0
M  V30 15 H -1.563 3.418 1.51819 0
M  V30 16 H 0.729 5.58782 3.83104 0
M  V30 17 H 1.672 6.56266 2.65933 0
M  V30 18 H 2.08 4.83886 2.90714 0
M  V30 19 N 1.4781 -0.272755 1.55222 0
M  V30 20 C 2.4411 -1.32041 1.87344 0
M  V30 21 C 3.4411 -1.42342 0.74803 0
M  V30 22 O 4.6311 -1.41488 1.0162 0
M  V30 23 C 1.7631 -2.70173 2.07893 0
M  V30 24 H 2.9561 -1.04789 2.80997 0
M  V30 25 H 0.5091 -0.51083 1.47717 0
M  V30 26 H 1.2441 -3.02605 1.16622 0
M  V30 27 H 1.0291 -2.64082 2.89833 0
M  V30 28 H 2.5191 -3.45869 2.34017 0
M  V30 29 N 2.9562 -1.48159 -0.537278 0
M  V30 30 C 3.8862 -1.65029 -1.6519 0
M  V30 31 C 4.8672 -0.499281 -1.62607 0
M  V30 32 O 6.0522 -0.730972 -1.79918 0
M  V30 33 C 3.1822 -1.68303 -3.03795 0
M  V30 34 C 2.1362 -2.8283 -3.21234 0
M  V30 35 C 1.4622 -2.71189 -4.60826 0
M  V30 36 C 2.7622 -4.24211 -3.04701 0
M  V30 37 H 4.4562 -2.58341 -1.51328 0
M  V30 38 H 2.0022 -1.24325 -0.726585 0
M  V30 39 H 3.9552 -1.78693 -3.81637 0
M  V30 40 H 2.6792 -0.715635 -3.18663 0
M  V30 41 H 1.3382 -2.71983 -2.45807 0
M  V30 42 H 0.9862 -1.72435 -4.7252 0
M  V30 43 H 0.6862 -3.48035 -4.7344 0
M  V30 44 H 2.2102 -2.83537 -5.40777 0
M  V30 45 H 3.6242 -4.3593 -3.72341 0
M  V30 46 H 2.0212 -5.01998 -3.28813 0
M  V30 47 H 3.0912 -4.41184 -2.01209 0
M  V30 48 N 4.4343 0.785586 -1.36625 0
M  V30 49 C 5.6813 1.54362 -1.31067 0
M  V30 50 C 6.0093 1.94195 0.10893 0
M  V30 51 O 5.2643 1.63262 1.07908 0
M  V30 52 C 5.5633 2.83007 -2.1827 0
M  V30 53 C 5.2293 2.62294 -3.6676 0
M  V30 54 C 3.8913 2.56353 -4.0723 0
M  V30 55 C 6.2433 2.43371 -4.6089 0
M  V30 56 C 3.5713 2.29461 -5.39967 0
M  V30 57 C 5.9233 2.18005 -5.93849 0
M  V30 58 C 4.5873 2.105 -6.3344 0
M  V30 59 H 3.8573 0.564851 -0.479609 0
M  V30 60 H 6.5043 0.906028 -1.68711 0
M  V30 61 H 4.8093 3.51253 -1.73576 0
M  V30 62 H 6.5063 3.40817 -2.11292 0
M  V30 63 H 3.0963 2.67774 -3.34656 0
M  V30 64 H 7.2803 2.46959 -4.30494 0
M  V30 65 H 2.5363 2.22135 -5.69619 0
M  V30 66 H 6.7103 2.02359 -6.66351 0
M  V30 67 H 4.3373 1.89425 -7.36222 0
M  V30 68 N 5.9124 1.20967 1.01018 0
M  V30 69 C 6.8604 0.961223 2.1181 0
M  V30 70 C 7.8544 -0.0897034 1.69162 0
M  V30 71 O 9.0604 0.0612271 1.79896 0
M  V30 72 H 5.4354 0.29355 0.692338 0
M  V30 73 H 7.4064 1.90178 2.29946 0
M  V30 74 C 6.1554 0.536854 3.4353 0
M  V30 75 H 5.4784 1.33713 3.76777 0
M  V30 76 H 6.9184 0.402286 4.22087 0
M  V30 77 C 5.3774 -0.751574 3.2841 0
M  V30 78 O 5.9074 -1.80841 3.58691 0
M  V30 79 N 4.1134 -0.716079 2.81639 0
M  V30 80 H 3.6604 0.144236 2.57196 0
M  V30 81 H 3.6184 -1.57847 2.71904 0
M  V30 82 N 7.3905 -1.2043 1.01659 0
M  V30 83 C 8.6155 -1.94318 0.724942 0
M  V30 84 C 9.0405 -1.74266 -0.708034 0
M  V30 85 O 8.3985 -1.03694 -1.48719 0
M  V30 86 C 8.4465 -3.44486 1.06591 0
M  V30 87 O 7.5505 -4.12017 0.177599 0
M  V30 88 H 6.8915 -0.60708 0.26898 0
M  V30 89 H 9.4215 -1.52861 1.35995 0
M  V30 90 H 9.4315 -3.95106 1.01762 0
M  V30 91 H 8.1065 -3.58404 2.10997 0
M  V30 92 H 6.6835 -3.71821 0.283421 0
M  V30 93 N 8.8686 -0.792821 -1.36206 0
M  V30 94 C 9.8316 -0.199459 -2.2833 0
M  V30 95 C 10.8316 0.605189 -1.48977 0
M  V30 96 O 12.0216 0.425685 -1.68919 0
M  V30 97 C 9.1536 0.723523 -3.33134 0
M  V30 98 H 10.3466 -1.01181 -2.82316 0
M  V30 99 H 7.8996 -0.562485 -1.45828 0
M  V30 100 H 8.6346 1.56008 -2.84309 0
M  V30 101 H 8.4196 0.148436 -3.91819 0
M  V30 102 H 9.9096 1.13344 -4.01924 0
M  V30 103 N 10.3467 1.47872 -0.545128 0
M  V30 104 C 11.2967 2.26842 0.229456 0
M  V30 105 C 12.2807 1.33626 0.896267 0
M  V30 106 O 13.4727 1.58063 0.79657 0
M  V30 107 C 10.6017 3.19089 1.26638 0
M  V30 108 C 9.6877 4.19783 0.603598 0
M  V30 109 N 10.0787 5.0479 -0.319405 0
M  V30 110 C 8.3767 4.3765 0.858989 0
M  V30 111 C 9.0777 5.77433 -0.703241 0
M  V30 112 N 8.0537 5.43566 -0.0608309 0
M  V30 113 H 11.8557 2.89947 -0.480391 0
M  V30 114 H 9.3697 1.58263 -0.364209 0
M  V30 115 H 11.3667 3.74337 1.83515 0
M  V30 116 H 10.0267 2.5754 1.97745 0
M  V30 117 H 11.0377 5.13244 -0.692889 0
M  V30 118 H 7.7147 3.87281 1.55948 0
M  V30 119 H 9.1047 6.55824 -1.46098 0
M  V30 120 N 11.8248 0.280983 1.55075 0
M  V30 121 C 13.0728 -0.333455 1.9933 0
M  V30 122 C 13.3938 -1.55937 1.17085 0
M  V30 123 O 12.6638 -1.94143 0.261805 0
M  V30 124 H 11.2438 -0.126197 0.736263 0
M  V30 125 H 13.9058 0.387678 1.91005 0
M  V30 126 H 13.0018 -0.619292 3.05894 0
M  V30 127 N 13.3029 -1.57598 0.00835791 0
M  V30 128 C 14.5509 -1.90551 -0.6734 0
M  V30 129 C 14.8719 -0.883301 -1.73847 0
M  V30 130 O 14.1419 0.0781442 -1.95744 0
M  V30 131 H 12.7219 -0.703312 -0.251717 0
M  V30 132 H 15.3839 -1.94833 0.0512592 0
M  V30 133 H 14.4799 -2.9056 -1.13935 0
M  V30 134 N 14.781 0.264519 -1.55364 0
M  V30 135 C 15.729 1.34702 -1.89626 0
M  V30 136 C 16.723 1.50712 -0.773459 0
M  V30 137 O 17.929 1.52395 -0.957897 0
M  V30 138 H 14.304 0.450682 -0.601988 0
M  V30 139 H 16.275 1.0306 -2.80038 0
M  V30 140 C 15.024 2.6989 -2.19214 0
M  V30 141 H 14.347 2.58365 -3.05103 0
M  V30 142 H 15.787 3.44553 -2.47102 0
M  V30 143 C 14.246 3.21637 -1.00254 0
M  V30 144 O 14.776 4.00973 -0.241501 0
M  V30 145 N 12.982 2.7943 -0.797938 0
M  V30 146 H 12.529 2.15026 -1.4185 0
M  V30 147 H 12.487 3.144 -0.00363422 0
M  V30 148 N 16.2591 1.48442 0.529413 0
M  V30 149 C 17.5081 1.55742 1.28169 0
M  V30 150 C 17.8211 0.236511 1.94165 0
M  V30 151 O 19.0271 0.187761 2.7085 0
M  V30 152 C 17.4831 2.74667 2.32564 0
M  V30 153 C 17.0911 4.13402 1.72636 0
M  V30 154 C 18.8351 2.9128 3.08798 0
M  V30 155 C 16.7421 5.23587 2.74975 0
M  V30 156 H 15.6721 0.579796 0.48203 0
M  V30 157 H 18.3231 1.74776 0.559056 0
M  V30 158 H 16.7051 2.49067 3.07866 0
M  V30 159 H 17.8791 4.49022 1.03519 0
M  V30 160 H 16.1941 4.0191 1.08892 0
M  V30 161 H 18.7911 3.70767 3.85274 0
M  V30 162 H 19.1341 2.00757 3.64695 0
M  V30 163 H 19.6671 3.16782 2.40611 0
M  V30 164 H 16.4061 6.16076 2.23897 0
M  V30 165 H 15.9261 4.92454 3.42417 0
M  V30 166 H 17.6051 5.51724 3.37949 0
M  V30 167 N 17.7372 -0.778329 1.37039 0
M  V30 168 C 19.1532 -1.07796 1.17695 0
M  V30 169 C 19.3532 -2.01498 0.00860115 0
M  V30 170 O 18.4092 -2.43901 -0.653352 0
M  V30 171 C 19.7222 -1.68178 2.49272 0
M  V30 172 C 21.2702 -1.80467 2.55735 0
M  V30 173 C 21.7452 -2.44263 3.87427 0
M  V30 174 N 23.2362 -2.51721 3.88833 0
M  V30 175 C 23.9712 -3.01919 4.87476 0
M  V30 176 N 23.4672 -3.5234 5.96513 0
M  V30 177 N 25.2602 -3.00733 4.74885 0
M  V30 178 H 17.4112 -0.156032 2.11826 0
M  V30 179 H 19.6742 -0.131844 0.938787 0
M  V30 180 H 19.3802 -1.06796 3.35093 0
M  V30 181 H 19.2542 -2.67554 2.65885 0
M  V30 182 H 21.6412 -2.40984 1.70325 0
M  V30 183 H 21.7222 -0.798656 2.43013 0
M  V30 184 H 21.3662 -1.84388 4.73248 0
M  V30 185 H 21.2962 -3.45458 3.9745 0
M  V30 186 H 23.7872 -2.1603 3.10063 0
M  V30 187 H 24.1002 -3.89027 6.67741 0
M  V30 188 H 22.4452 -3.50462 6.00168 0
M  V30 189 H 25.6362 -2.60638 3.88826 0
M  V30 190 H 25.8092 -3.39545 5.51918 0
M  V30 191 N 19.2153 -1.21501 -1.00376 0
M  V30 192 C 20.1253 -0.991447 -2.12621 0
M  V30 193 C 21.1413 0.0568446 -1.73907 0
M  V30 194 O 22.3173 -0.13348 -2.00957 0
M  V30 195 C 19.3823 -0.560312 -3.42142 0
M  V30 196 C 18.4433 -1.68096 -3.95022 0
M  V30 197 C 17.6763 -1.2703 -5.18362 0
M  V30 198 O 17.8993 -0.144438 -5.70217 0
M  V30 199 O 16.8333 -2.08269 -5.64719 0
M  V30 200 H 20.6593 -1.93158 -2.34358 0
M  V30 201 H 18.2443 -0.999999 -1.10997 0
M  V30 202 H 20.1263 -0.329724 -4.20108 0
M  V30 203 H 18.8013 0.351089 -3.2179 0
M  V30 204 H 17.7083 -1.96597 -3.18278 0
M  V30 205 H 19.0413 -2.56983 -4.19786 0
M  V30 206 N 20.6934 1.19889 -1.02296 0
M  V30 207 C 21.6564 2.21116 -0.603351 0
M  V30 208 C 22.6564 1.5738 0.329884 0
M  V30 209 O 23.8464 1.73802 0.117702 0
M  V30 210 C 20.9784 3.40696 0.117992 0
M  V30 211 H 22.1714 2.59754 -1.49893 0
M  V30 212 H 19.7244 1.33463 -0.813468 0
M  V30 213 H 20.4594 3.07569 1.0282 0
M  V30 214 H 20.2444 3.88188 -0.552511 0
M  V30 215 H 21.7344 4.15692 0.398696 0
M  V30 216 N 22.1715 0.800033 1.35784 0
M  V30 217 C 23.1345 0.211565 2.28221 0
M  V30 218 C 24.1345 -0.59728 1.49296 0
M  V30 219 O 25.3245 -0.416721 1.69142 0
M  V30 220 C 22.4565 -0.705846 3.33513 0
M  V30 221 H 23.6495 1.02677 2.81776 0
M  V30 222 H 21.2025 0.570211 1.45528 0
M  V30 223 H 21.9375 -1.54498 2.85133 0
M  V30 224 H 21.7225 -0.127655 3.91892 0
M  V30 225 H 23.2125 -1.11211 4.02519 0
M  V30 226 N 23.6496 -1.47581 0.552962 0
M  V30 227 C 24.8776 -2.06875 0.0320556 0
M  V30 228 C 25.2926 -1.40625 -1.25976 0
M  V30 229 O 24.6496 -0.501349 -1.75479 0
M  V30 230 C 24.7006 -3.61092 -0.17167 0
M  V30 231 O 24.4216 -4.24858 1.06899 0
M  V30 232 C 25.9226 -4.37242 -0.730344 0
M  V30 233 H 23.1426 -0.669561 0.043915 0
M  V30 234 H 25.6866 -1.89646 0.765163 0
M  V30 235 H 23.8416 -3.7785 -0.854894 0
M  V30 236 H 24.2556 -5.17334 0.864059 0
M  V30 237 H 25.7296 -5.45842 -0.822203 0
M  V30 238 H 26.2066 -4.03235 -1.74064 0
M  V30 239 H 26.8126 -4.25219 -0.0829543 0
M  V30 240 N 25.1277 -0.289203 -1.54924 0
M  V30 241 C 26.3737 0.323998 -2.00195 0
M  V30 242 C 26.7067 1.54441 -1.17735 0
M  V30 243 O 25.9817 1.92875 -0.250878 0
M  V30 244 C 26.2647 0.692276 -3.53383 0
M  V30 245 C 26.1177 -0.536457 -4.46589 0
M  V30 246 C 27.4367 1.52335 -4.12895 0
M  V30 247 H 24.5557 0.116289 -0.727768 0
M  V30 248 H 27.1977 -0.398954 -1.85764 0
M  V30 249 H 25.3477 1.30822 -3.65811 0
M  V30 250 H 27.0197 -1.17499 -4.46085 0
M  V30 251 H 25.2627 -1.17192 -4.1767 0
M  V30 252 H 25.9337 -0.234806 -5.515 0
M  V30 253 H 28.4097 1.00302 -4.0383 0
M  V30 254 H 27.2857 1.74982 -5.20262 0
M  V30 255 H 27.5467 2.50886 -3.64018 0
M  V30 256 N 26.6058 1.57591 -0.0167156 0
M  V30 257 C 27.5358 2.12496 0.967858 0
M  V30 258 C 28.5168 1.03807 1.34752 0
M  V30 259 O 29.7018 1.31577 1.42833 0
M  V30 260 C 26.8318 2.64194 2.25431 0
M  V30 261 C 25.7858 3.77559 2.01576 0
M  V30 262 C 25.1118 4.15636 3.36379 0
M  V30 263 C 26.4118 5.04151 1.36489 0
M  V30 264 H 28.1058 2.95013 0.510643 0
M  V30 265 H 25.6518 1.41915 0.244181 0
M  V30 266 H 27.6048 3.01236 2.94678 0
M  V30 267 H 26.3288 1.78821 2.73296 0
M  V30 268 H 24.9878 3.40937 1.34751 0
M  V30 269 H 24.6358 3.27263 3.81979 0
M  V30 270 H 24.3358 4.92022 3.21229 0
M  V30 271 H 25.8598 4.5525 4.06915 0
M  V30 272 H 27.2738 5.38857 1.95718 0
M  V30 273 H 25.6708 5.85453 1.31776 0
M  V30 274 H 26.7408 4.83733 0.336219 0
M  V30 275 N 28.0839 -0.256276 1.55502 0
M  V30 276 C 29.3319 -0.983672 1.76545 0
M  V30 277 C 29.6529 -1.86206 0.578982 0
M  V30 278 O 28.9229 -1.91656 -0.405577 0
M  V30 279 H 27.5029 -0.366191 0.651086 0
M  V30 280 H 30.1649 -0.276479 1.92929 0
M  V30 281 H 29.2609 -1.61087 2.67315 0
M  V30 282 N 29.562 -1.4872 -0.521534 0
M  V30 283 C 30.811 -1.56419 -1.27341 0
M  V30 284 C 31.124 -0.246805 -1.94037 0
M  V30 285 O 32.33 -0.202122 -2.70747 0
M  V30 286 C 30.786 -2.75896 -2.31105 0
M  V30 287 C 30.394 -4.14311 -1.70441 0
M  V30 288 C 32.138 -2.92913 -3.07249 0
M  V30 289 C 30.045 -5.25038 -2.72194 0
M  V30 290 H 28.975 -0.582344 -0.478949 0
M  V30 291 H 31.626 -1.75071 -0.549779 0
M  V30 292 H 30.008 -2.50697 -3.06541 0
M  V30 293 H 31.182 -4.49564 -1.01136 0
M  V30 294 H 29.497 -4.02482 -1.06759 0
M  V30 295 H 32.094 -3.72805 -3.83302 0
M  V30 296 H 32.437 -2.02689 -3.63625 0
M  V30 297 H 32.97 -3.18054 -2.38928 0
M  V30 298 H 29.709 -6.17255 -2.20627 0
M  V30 299 H 29.229 -4.94263 -3.39801 0
M  V30 300 H 30.908 -5.53508 -3.35019 0
M  V30 301 N 31.0401 0.771051 -1.3745 0
M  V30 302 C 32.2651 1.56529 -1.36065 0
M  V30 303 C 32.6901 1.88029 0.0515859 0
M  V30 304 O 32.0481 1.49282 1.02882 0
M  V30 305 C 32.0961 2.85187 -2.20683 0
M  V30 306 O 31.2001 3.79593 -1.61193 0
M  V30 307 H 30.5411 0.47411 -0.464883 0
M  V30 308 H 33.0711 0.954269 -1.80983 0
M  V30 309 H 33.0811 3.34283 -2.33921 0
M  V30 310 H 31.7561 2.61588 -3.23334 0
M  V30 311 H 30.3331 3.38239 -1.56999 0
M  V30 312 N 32.5182 1.22032 0.997298 0
M  V30 313 C 33.9292 1.0397 1.55071 0
M  V30 314 C 34.2802 -0.398192 1.92117 0
M  V30 315 O 33.4052 -1.28254 1.74298 0
M  V30 316 C 34.0002 1.88109 2.81781 0
M  V30 317 C 32.5592 1.74357 3.33581 0
M  V30 318 C 31.7062 1.84846 2.06706 0
M  V30 319 H 34.6572 1.35941 0.818883 0
M  V30 320 H 34.6782 1.39589 3.53971 0
M  V30 321 H 34.1902 2.92754 2.54787 0
M  V30 322 H 32.2912 0.72427 3.65493 0
M  V30 323 H 32.4042 2.56772 4.04481 0
M  V30 324 H 30.7682 1.28238 2.20062 0
M  V30 325 H 31.5512 2.91014 1.82114 0
M  V30 326 N 33.9963 -1.19345 1.0293 0
M  V30 327 C 35.2733 -1.84811 0.640642 0
M  V30 328 C 35.6533 -1.91855 -0.88062 0
M  V30 329 O 35.0013 -1.43587 -1.7775 0
M  V30 330 C 35.2113 -3.23755 1.30321 0
M  V30 331 C 36.5593 -3.99912 1.42673 0
M  V30 332 O 37.5833 -3.33155 1.26041 0
M  V30 333 O 36.4423 -5.19494 1.6967 0
M  V30 334 H 33.5363 -0.796443 0.222726 0
M  V30 335 H 36.0823 -1.26831 1.12748 0
M  V30 336 H 34.8543 -3.13466 2.34211 0
M  V30 337 H 34.4773 -3.89381 0.804261 0
M  V30 338 N 35.4744 -0.807222 -1.35358 0
M  V30 339 C 36.4064 -0.175717 -2.28525 0
M  V30 340 C 37.4194 0.625354 -1.5031 0
M  V30 341 O 38.6084 0.457611 -1.72535 0
M  V30 342 C 35.7084 0.773471 -3.29956 0
M  V30 343 C 34.8814 0.0186296 -4.37396 0
M  V30 344 C 33.9404 0.886395 -5.18681 0
M  V30 345 O 32.9664 0.337106 -5.68201 0
M  V30 346 N 34.1684 2.20839 -5.36852 0
M  V30 347 H 36.9334 -0.976091 -2.83359 0
M  V30 348 H 34.4944 -0.662737 -1.47714 0
M  V30 349 H 36.4864 1.35824 -3.81227 0
M  V30 350 H 35.0564 1.47465 -2.75632 0
M  V30 351 H 34.2764 -0.747349 -3.87051 0
M  V30 352 H 35.5644 -0.501577 -5.06322 0
M  V30 353 H 34.9624 2.67858 -4.98265 0
M  V30 354 H 33.5194 2.74237 -5.91301 0
M  V30 355 N 36.9525 1.47285 -0.560781 0
M  V30 356 C 37.8825 2.32857 0.173105 0
M  V30 357 C 38.8635 1.44009 0.905281 0
M  V30 358 O 40.0485 1.7286 0.885046 0
M  V30 359 C 37.1785 3.25861 1.20133 0
M  V30 360 C 36.1325 4.23978 0.585388 0
M  V30 361 C 35.4585 5.06332 1.7185 0
M  V30 362 C 36.7585 5.20242 -0.463178 0
M  V30 363 H 38.4525 2.94466 -0.541307 0
M  V30 364 H 35.9985 1.41601 -0.261764 0
M  V30 365 H 37.9515 3.84569 1.72293 0
M  V30 366 H 36.6755 2.62315 1.94573 0
M  V30 367 H 35.3345 3.66501 0.085054 0
M  V30 368 H 34.9825 4.39186 2.45203 0
M  V30 369 H 34.6825 5.72762 1.31213 0
M  V30 370 H 36.2065 5.67899 2.24329 0
M  V30 371 H 37.6205 5.73293 -0.027502 0
M  V30 372 H 36.0175 5.94896 -0.788627 0
M  V30 373 H 37.0875 4.65504 -1.35773 0
M  V30 374 N 38.4306 0.297415 1.54768 0
M  V30 375 C 39.3606 -0.573494 2.26348 0
M  V30 376 C 40.3416 -1.14085 1.26169 0
M  V30 377 O 41.5266 -1.17086 1.54934 0
M  V30 378 C 38.6566 -1.74716 3.00153 0
M  V30 379 C 37.6106 -1.31032 4.07449 0
M  V30 380 C 36.9366 -2.56887 4.68949 0
M  V30 381 C 38.2366 -0.444183 5.20408 0
M  V30 382 H 39.9306 0.0235131 2.99391 0
M  V30 383 H 37.4766 0.0127488 1.43994 0
M  V30 384 H 39.4296 -2.3625 3.48947 0
M  V30 385 H 38.1536 -2.37035 2.24682 0
M  V30 386 H 36.8126 -0.718066 3.59499 0
M  V30 387 H 36.4606 -3.17512 3.90122 0
M  V30 388 H 36.1606 -2.2836 5.41411 0
M  V30 389 H 37.6846 -3.19229 5.20505 0
M  V30 390 H 39.0986 -0.9651 5.65118 0
M  V30 391 H 37.4956 -0.252846 5.99567 0
M  V30 392 H 38.5656 0.531609 4.81977 0
M  V30 393 N 39.9087 -1.5758 0.0250728 0
M  V30 394 C 41.1857 -1.82917 -0.692873 0
M  V30 395 C 41.5657 -0.908137 -1.90568 0
M  V30 396 O 40.9137 0.0372298 -2.2847 0
M  V30 397 C 41.1237 -3.32034 -1.07492 0
M  V30 398 C 42.4717 -3.98406 -1.46826 0
M  V30 399 O 43.4957 -3.36505 -1.16801 0
M  V30 400 O 42.3547 -5.07497 -2.02754 0
M  V30 401 H 39.4487 -0.754079 -0.33955 0
M  V30 402 H 41.9947 -1.69619 0.0524456 0
M  V30 403 H 40.7667 -3.90728 -0.211552 0
M  V30 404 H 40.3897 -3.50424 -1.87854 0
M  V30 405 N 41.3868 0.248026 -1.55636 0
M  V30 406 C 42.6338 0.976224 -1.77415 0
M  V30 407 C 42.9618 1.85361 -0.589193 0
M  V30 408 O 42.2168 1.90973 0.427529 0
M  V30 409 C 42.5158 1.86819 -3.04686 0
M  V30 410 C 42.1818 1.14625 -4.36087 0
M  V30 411 C 40.8438 0.946723 -4.71795 0
M  V30 412 C 43.1958 0.634463 -5.17324 0
M  V30 413 C 40.5238 0.223091 -5.86276 0
M  V30 414 C 42.8758 -0.0756959 -6.32555 0
M  V30 415 C 41.5398 -0.286711 -6.66884 0
M  V30 416 H 40.8098 0.357226 -0.649208 0
M  V30 417 H 43.4568 0.246415 -1.89908 0
M  V30 418 H 41.7618 2.66502 -2.872 0
M  V30 419 H 43.4588 2.43329 -3.18735 0
M  V30 420 H 40.0488 1.3117 -4.08035 0
M  V30 421 H 44.2328 0.77616 -4.90193 0
M  V30 422 H 39.4888 0.0491185 -6.1138 0
M  V30 423 H 43.6628 -0.479899 -6.94745 0
M  V30 424 H 41.2898 -0.849389 -7.5544 0
M  V30 425 N 42.8649 1.48995 0.513639 0
M  V30 426 C 44.0899 1.61792 1.29762 0
M  V30 427 C 44.5149 0.284475 1.85936 0
M  V30 428 O 43.8729 -0.746185 1.65232 0
M  V30 429 C 43.9209 2.67993 2.41272 0
M  V30 430 O 43.0249 2.26287 3.44772 0
M  V30 431 H 42.3659 0.541963 0.38363 0
M  V30 432 H 44.8959 1.95097 0.616307 0
M  V30 433 H 44.9059 2.89772 2.87221 0
M  V30 434 H 43.5809 3.64791 1.9975 0
M  V30 435 H 42.1579 2.14788 3.04829 0
M  V30 436 N 44.343 -0.763751 1.37857 0
M  V30 437 C 45.306 -1.85889 1.34081 0
M  V30 438 C 46.306 -1.58949 0.243277 0
M  V30 439 O 47.496 -1.66882 0.499589 0
M  V30 440 C 44.628 -3.23176 1.08489 0
M  V30 441 H 45.821 -1.90648 2.31502 0
M  V30 442 H 43.374 -0.964367 1.23003 0
M  V30 443 H 44.109 -3.24091 0.116318 0
M  V30 444 H 43.894 -3.44124 1.8794 0
M  V30 445 H 45.384 -4.03254 1.08517 0
M  V30 446 N 45.8211 -1.22559 -0.990812 0
M  V30 447 C 46.7691 -0.994798 -2.10253 0
M  V30 448 C 47.7631 0.0627798 -1.69284 0
M  V30 449 O 48.9691 -0.0898392 -1.79776 0
M  V30 450 H 45.3441 -0.304527 -0.687581 0
M  V30 451 H 47.3151 -1.93812 -2.26891 0
M  V30 452 C 46.0641 -0.591439 -3.42633 0
M  V30 453 H 45.3871 -1.3969 -3.74602 0
M  V30 454 H 46.8271 -0.469385 -4.21394 0
M  V30 455 C 45.2861 0.699232 -3.29564 0
M  V30 456 O 45.8161 1.75112 -3.61523 0
M  V30 457 N 44.0221 0.671182 -2.82743 0
M  V30 458 H 43.5691 -0.185136 -2.56934 0
M  V30 459 H 43.5271 1.53502 -2.7438 0
M  V30 460 N 47.2992 1.18797 -1.03562 0
M  V30 461 C 48.5482 1.87978 -0.731235 0
M  V30 462 C 48.8612 1.80911 0.743671 0
M  V30 463 O 50.0672 2.45407 1.16137 0
M  V30 464 C 48.5232 3.3721 -1.25768 0
M  V30 465 C 48.1312 3.52818 -2.76085 0
M  V30 466 C 49.8752 4.11825 -1.0296 0
M  V30 467 C 47.7822 4.9598 -3.22114 0
M  V30 468 H 46.7122 0.704063 -0.269835 0
M  V30 469 H 49.3632 1.34266 -1.25079 0
M  V30 470 H 47.7452 3.90359 -0.666011 0
M  V30 471 H 48.9192 3.09965 -3.40966 0
M  V30 472 H 47.2342 2.91602 -2.97249 0
M  V30 473 H 49.8312 5.17411 -1.34869 0
M  V30 474 H 50.1742 4.16287 0.0333546 0
M  V30 475 H 50.7072 3.64833 -1.58562 0
M  V30 476 H 47.4462 4.96684 -4.27768 0
M  V30 477 H 46.9662 5.39569 -2.61965 0
M  V30 478 H 48.6452 5.6467 -3.15844 0
M  V30 479 N 48.7773 0.814389 1.34928 0
M  V30 480 C 49.7253 0.218424 2.31572 0
M  V30 481 C 50.7193 -0.636128 1.57002 0
M  V30 482 O 51.9253 -0.52842 1.72069 0
M  V30 483 H 48.3003 0.0518799 0.750208 0
M  V30 484 H 50.2713 1.04852 2.79372 0
M  V30 485 C 49.0203 -0.61207 3.4227 0
M  V30 486 H 48.3433 0.0361578 3.99784 0
M  V30 487 H 49.7833 -0.995317 4.12152 0
M  V30 488 C 48.2423 -1.78087 2.85984 0
M  V30 489 O 48.7723 -2.8787 2.80168 0
M  V30 490 N 46.9783 -1.59488 2.42924 0
M  V30 491 H 46.5253 -0.701874 2.47854 0
M  V30 492 H 46.4833 -2.37846 2.05613 0
M  V30 493 N 50.2554 -1.46986 0.568584 0
M  V30 494 C 51.6664 -1.86188 0.138219 0
M  V30 495 C 52.0174 -1.47388 -1.29504 0
M  V30 496 O 51.1424 -0.88219 -1.97602 0
M  V30 497 C 51.7374 -3.3792 0.244065 0
M  V30 498 C 50.2964 -3.76171 -0.131335 0
M  V30 499 C 49.4434 -2.71027 0.586465 0
M  V30 500 H 52.3944 -1.38342 0.777645 0
M  V30 501 H 52.4154 -3.76729 -0.534351 0
M  V30 502 H 51.9274 -3.66128 1.28731 0
M  V30 503 H 50.0284 -3.5358 -1.17526 0
M  V30 504 H 50.1414 -4.78523 0.235146 0
M  V30 505 H 48.5054 -2.54684 0.0282722 0
M  V30 506 H 49.2884 -3.02077 1.63109 0
M  V30 507 N 51.7335 -0.305618 -1.54608 0
M  V30 508 C 52.6635 0.561482 -2.26649 0
M  V30 509 C 53.6445 1.13415 -1.26772 0
M  V30 510 O 54.8295 1.16262 -1.55553 0
M  V30 511 C 51.9595 1.73122 -3.01075 0
M  V30 512 C 50.9135 1.2887 -4.08138 0
M  V30 513 C 50.2395 2.54396 -4.70305 0
M  V30 514 C 51.5395 0.416578 -5.20636 0
M  V30 515 H 53.2335 -0.0393902 -2.99374 0
M  V30 516 H 50.7795 -0.020385 -1.43986 0
M  V30 517 H 52.7325 2.34396 -3.50195 0
M  V30 518 H 51.4565 2.3584 -2.25936 0
M  V30 519 H 50.1155 0.698991 -3.59875 0
M  V30 520 H 49.7635 3.15439 -3.918 0
M  V30 521 H 49.4635 2.25486 -5.42614 0
M  V30 522 H 50.9875 3.16464 -5.2219 0
M  V30 523 H 52.4015 0.935116 -5.65622 0
M  V30 524 H 50.7985 0.221046 -5.99693 0
M  V30 525 H 51.8685 -0.557162 -4.81688 0
M  V30 526 N 53.2116 1.57565 -0.0334293 0
M  V30 527 C 54.4596 1.91598 0.642999 0
M  V30 528 C 54.7806 0.910847 1.7242 0
M  V30 529 O 54.0506 -0.0469931 1.95844 0
M  V30 530 H 52.6306 0.707228 0.240496 0
M  V30 531 H 55.2926 1.94726 -0.0822488 0
M  V30 532 H 54.3886 2.92336 1.09298 0
M  V30 533 N 54.6897 -0.239769 1.55765 0
M  V30 534 C 55.6227 -1.32356 1.85895 0
M  V30 535 C 56.6007 -1.46053 0.714662 0
M  V30 536 O 57.7847 -1.62154 0.961157 0
M  V30 537 C 54.9117 -2.6962 2.04994 0
M  V30 538 C 53.9577 -2.73036 3.27648 0
M  V30 539 S 54.7907 -2.28929 4.84099 0
M  V30 540 C 55.9467 -3.68103 5.06212 0
M  V30 541 H 56.1797 -1.06601 2.77531 0
M  V30 542 H 53.7127 -0.441112 1.47965 0
M  V30 543 H 55.6707 -3.48653 2.16682 0
M  V30 544 H 54.3317 -2.92609 1.14188 0
M  V30 545 H 53.5247 -3.7386 3.38 0
M  V30 546 H 53.1267 -2.02052 3.14723 0
M  V30 547 H 55.4187 -4.63656 4.93993 0
M  V30 548 H 56.3617 -3.6268 6.08168 0
M  V30 549 H 56.7697 -3.60947 4.34025 0
M  V30 550 N 56.1678 -1.49265 -0.50573 0
M  V30 551 C 57.5788 -1.51769 -1.08734 0
M  V30 552 C 57.9298 -0.301192 -1.93874 0
M  V30 553 O 57.0548 0.589456 -2.08217 0
M  V30 554 C 57.6498 -2.75017 -1.97867 0
M  V30 555 C 56.2088 -2.80314 -2.51199 0
M  V30 556 C 55.3558 -2.4562 -1.28709 0
M  V30 557 H 58.3068 -1.56031 -0.289855 0
M  V30 558 H 58.3278 -2.5491 -2.82491 0
M  V30 559 H 57.8398 -3.63539 -1.35873 0
M  V30 560 H 55.9408 -1.96061 -3.16845 0
M  V30 561 H 56.0538 -3.82366 -2.88675 0
M  V30 562 H 54.4178 -1.97297 -1.61078 0
M  V30 563 H 55.2008 -3.36411 -0.6843 0
M  V30 564 N 57.6459 0.756429 -1.3826 0
M  V30 565 C 58.8919 1.51772 -1.34511 0
M  V30 566 C 59.2249 1.94089 0.0656691 0
M  V30 567 O 58.4999 1.65221 1.02626 0
M  V30 568 C 58.7829 2.77226 -2.29821 0
M  V30 569 C 58.6359 2.41065 -3.79747 0
M  V30 570 C 59.9549 3.79236 -2.23312 0
M  V30 571 H 57.0739 0.550578 -0.489931 0
M  V30 572 H 59.7159 0.866607 -1.69086 0
M  V30 573 H 57.8659 3.32784 -2.00467 0
M  V30 574 H 59.5379 1.91303 -4.19763 0
M  V30 575 H 57.7809 1.7356 -3.97567 0
M  V30 576 H 58.4519 3.3081 -4.41892 0
M  V30 577 H 60.9279 3.3321 -2.49219 0
M  V30 578 H 59.8039 4.64714 -2.92116 0
M  V30 579 H 60.0649 4.24615 -1.23102 0
M  V30 580 N 59.124 1.23083 0.984299 0
M  V30 581 C 60.349 1.088 1.76571 0
M  V30 582 C 60.774 -0.356657 1.84688 0
M  V30 583 O 60.132 -1.25788 1.30565 0
M  V30 584 C 60.18 1.71371 3.17277 0
M  V30 585 O 59.284 0.973213 4.00752 0
M  V30 586 H 58.625 0.381599 0.543395 0
M  V30 587 H 61.155 1.63057 1.23587 0
M  V30 588 H 61.165 1.76449 3.67872 0
M  V30 589 H 59.84 2.76493 3.10684 0
M  V30 590 H 58.417 0.999078 3.59267 0
M  V30 591 N 60.6021 -1.18246 1.0419 0
M  V30 592 C 61.8481 -1.88536 0.747122 0
M  V30 593 C 62.1811 -1.80223 -0.723409 0
M  V30 594 O 61.4561 -1.20337 -1.52804 0
M  V30 595 C 61.7391 -3.38968 1.21544 0
M  V30 596 C 61.5921 -3.56084 2.74816 0
M  V30 597 C 62.9111 -4.32648 0.806482 0
M  V30 598 H 60.0301 -0.684619 0.272883 0
M  V30 599 H 62.6721 -1.39113 1.29413 0
M  V30 600 H 60.8221 -3.8119 0.750081 0
M  V30 601 H 62.4941 -3.22946 3.29399 0
M  V30 602 H 60.7371 -2.98699 3.14582 0
M  V30 603 H 61.4081 -4.61639 3.02644 0
M  V30 604 H 63.8841 -3.98211 1.20695 0
M  V30 605 H 62.7601 -5.36462 1.1619 0
M  V30 606 H 63.0211 -4.41146 -0.29029 0
M  V30 607 N 62.0802 -0.821533 -1.34494 0
M  V30 608 C 63.0272 -0.240397 -2.29545 0
M  V30 609 C 63.9972 0.634031 -1.53523 0
M  V30 610 O 65.1822 0.575966 -1.81899 0
M  V30 611 C 62.3222 0.592869 -3.39969 0
M  V30 612 C 61.4352 -0.30365 -4.30932 0
M  V30 613 C 60.5702 0.539049 -5.28458 0
M  V30 614 C 59.6092 -0.356942 -6.11058 0
M  V30 615 N 58.7462 0.446603 -7.00678 0
M  V30 616 H 63.5862 -1.05632 -2.7865 0
M  V30 617 H 61.1232 -0.532413 -1.37127 0
M  V30 618 H 63.0812 1.09129 -4.02675 0
M  V30 619 H 61.7112 1.37392 -2.92102 0
M  V30 620 H 60.7632 -0.920276 -3.691 0
M  V30 621 H 62.0752 -0.992661 -4.88823 0
M  V30 622 H 61.2292 1.102 -5.96608 0
M  V30 623 H 59.9682 1.26157 -4.71101 0
M  V30 624 H 58.9732 -0.932047 -5.41842 0
M  V30 625 H 60.1982 -1.07755 -6.70497 0
M  V30 626 H 58.1442 1.15282 -6.45791 0
M  V30 627 H 58.0612 -0.184048 -7.55776 0
M  V30 628 H 59.3292 0.992352 -7.73158 0
M  V30 629 N 63.5583 1.46682 -0.576371 0
M  V30 630 C 64.9743 1.57822 -0.237562 0
M  V30 631 C 65.1743 1.57237 1.26011 0
M  V30 632 O 64.2303 1.48596 2.04146 0
M  V30 633 C 65.5433 2.87499 -0.881168 0
M  V30 634 C 67.0913 3.01119 -0.85417 0
M  V30 635 C 67.5663 4.33524 -1.4772 0
M  V30 636 N 69.0573 4.40207 -1.44125 0
M  V30 637 C 69.7923 5.4126 -1.89276 0
M  V30 638 N 69.2883 6.49021 -2.42371 0
M  V30 639 N 71.0813 5.32422 -1.80231 0
M  V30 640 H 63.2323 1.45306 -1.54919 0
M  V30 641 H 65.4953 0.692733 -0.647167 0
M  V30 642 H 65.2013 2.9372 -1.93447 0
M  V30 643 H 65.0753 3.75224 -0.385592 0
M  V30 644 H 67.4623 2.94485 0.190491 0
M  V30 645 H 67.5433 2.14887 -1.3877 0
M  V30 646 H 67.1873 4.40916 -2.52103 0
M  V30 647 H 67.1173 5.1852 -0.918947 0
M  V30 648 H 69.6083 3.62931 -1.05307 0
M  V30 649 H 69.9213 7.2233 -2.74698 0
M  V30 650 H 68.2663 6.49858 -2.46393 0
M  V30 651 H 71.4573 4.47137 -1.38514 0
M  V30 652 H 71.6303 6.11034 -2.15735 0
M  V30 653 N 65.0364 0.313813 1.54444 0
M  V30 654 C 65.9994 -0.54379 2.22656 0
M  V30 655 C 66.9994 -1.05124 1.21678 0
M  V30 656 O 68.1894 -0.945225 1.46325 0
M  V30 657 C 65.3214 -1.75427 2.92298 0
M  V30 658 H 66.5144 0.0523599 2.99854 0
M  V30 659 H 64.0674 0.0647834 1.56166 0
M  V30 660 H 64.8024 -2.38991 2.19211 0
M  V30 661 H 64.5874 -1.39791 3.66334 0
M  V30 662 H 66.0774 -2.36325 3.44297 0
M  V30 663 N 66.5145 -1.57545 0.0417849 0
M  V30 664 C 67.4445 -2.14009 -0.933929 0
M  V30 665 C 68.4255 -1.05938 -1.33083 0
M  V30 666 O 69.6105 -1.33833 -1.40721 0
M  V30 667 C 66.7405 -2.67747 -2.21199 0
M  V30 668 C 65.6945 -3.80718 -1.95544 0
M  V30 669 C 65.0205 -4.20935 -3.29724 0
M  V30 670 C 66.3205 -5.06258 -1.28452 0
M  V30 671 H 68.0145 -2.95788 -0.463645 0
M  V30 672 H 65.5605 -1.42285 -0.221573 0
M  V30 673 H 67.5135 -3.05886 -2.89848 0
M  V30 674 H 66.2375 -1.83147 -2.70416 0
M  V30 675 H 64.8965 -3.43037 -1.2931 0
M  V30 676 H 64.5445 -3.33298 -3.76724 0
M  V30 677 H 64.2445 -4.9707 -3.13361 0
M  V30 678 H 65.7685 -4.61666 -3.9962 0
M  V30 679 H 67.1825 -5.41903 -1.8712 0
M  V30 680 H 65.5795 -5.87475 -1.22445 0
M  V30 681 H 66.6495 -4.84207 -0.259219 0
M  V30 682 N 67.9926 0.231505 -1.5589 0
M  V30 683 C 69.2416 0.955346 -1.7764 0
M  V30 684 C 69.5546 1.85893 -0.608546 0
M  V30 685 O 70.7606 2.62067 -0.70943 0
M  V30 686 C 69.2166 1.74886 -3.14552 0
M  V30 687 C 68.8246 0.891915 -4.39032 0
M  V30 688 C 70.5686 2.46452 -3.45633 0
M  V30 689 C 68.4756 1.68221 -5.66971 0
M  V30 690 H 67.4056 0.360446 -0.662265 0
M  V30 691 H 70.0566 0.209516 -1.823 0
M  V30 692 H 68.4386 2.53723 -3.04041 0
M  V30 693 H 69.6126 0.144793 -4.60572 0
M  V30 694 H 67.9276 0.288863 -4.15397 0
M  V30 695 H 70.5246 3.06061 -4.38441 0
M  V30 696 H 70.8676 3.18841 -2.67668 0
M  V30 697 H 71.4006 1.74613 -3.57428 0
M  V30 698 H 68.1396 1.00178 -6.478 0
M  V30 699 H 67.6596 2.4042 -5.49507 0
M  V30 700 H 69.3386 2.24544 -6.06786 0
M  V30 701 N 69.4707 1.49531 0.497807 0
M  V30 702 C 70.7477 1.49682 1.25915 0
M  V30 703 C 71.1277 0.226339 2.09883 0
M  V30 704 O 70.4757 -0.791189 2.14365 0
M  V30 705 C 70.6857 2.77755 2.11313 0
M  V30 706 C 72.0337 3.27371 2.70395 0
M  V30 707 O 73.0577 2.78894 2.21578 0
M  V30 708 O 71.9167 4.11808 3.59272 0
M  V30 709 H 69.0107 0.599228 0.56996 0
M  V30 710 H 71.5567 1.61798 0.511816 0
M  V30 711 H 70.3287 3.61713 1.49264 0
M  V30 712 H 69.9517 2.68515 2.93233 0
M  V30 713 N 70.9488 -0.749086 1.3866 0
M  V30 714 C 71.8968 -1.88428 1.36373 0
M  V30 715 C 72.8908 -1.67561 0.248929 0
M  V30 716 O 74.0968 -1.75074 0.41821 0
M  V30 717 H 70.4718 -0.620023 0.42553 0
M  V30 718 H 72.4428 -1.87473 2.32156 0
M  V30 719 C 71.1918 -3.25961 1.21014 0
M  V30 720 H 70.5148 -3.42607 2.06059 0
M  V30 721 H 71.9548 -4.05625 1.23469 0
M  V30 722 C 70.4138 -3.36799 -0.0825941 0
M  V30 723 O 70.9438 -3.87517 -1.05797 0
M  V30 724 N 69.1498 -2.90258 -0.140939 0
M  V30 725 H 68.6968 -2.49174 0.653477 0
M  V30 726 H 68.6548 -2.97889 -1.00545 0
M  V30 727 N 72.4269 -1.23603 -0.977757 0
M  V30 728 C 73.3569 -1.04401 -2.0886 0
M  V30 729 C 74.3379 0.0399052 -1.70053 0
M  V30 730 O 75.5229 -0.125246 -1.93796 0
M  V30 731 C 72.6529 -0.637269 -3.41403 0
M  V30 732 C 71.6069 -1.66883 -3.94124 0
M  V30 733 C 70.9329 -1.11745 -5.22893 0
M  V30 734 C 72.2329 -3.06247 -4.23096 0
M  V30 735 H 73.9269 -1.97316 -2.25182 0
M  V30 736 H 71.4729 -0.950096 -1.08209 0
M  V30 737 H 73.4259 -0.48998 -4.18542 0
M  V30 738 H 72.1499 0.327557 -3.24953 0
M  V30 739 H 70.8089 -1.80416 -3.19133 0
M  V30 740 H 70.4569 -0.143527 -5.02795 0
M  V30 741 H 70.1569 -1.80672 -5.59134 0
M  V30 742 H 71.6809 -0.982067 -6.02651 0
M  V30 743 H 73.0949 -2.96001 -4.90975 0
M  V30 744 H 71.4919 -3.72436 -4.70544 0
M  V30 745 H 72.5619 -3.55041 -3.30263 0
M  V30 746 N 73.905 1.17692 -1.04816 0
M  V30 747 C 75.182 1.83768 -0.669963 0
M  V30 748 C 75.562 1.93232 0.849986 0
M  V30 749 O 74.91 1.46397 1.75443 0
M  V30 750 C 75.12 3.21641 -1.35455 0
M  V30 751 C 76.468 3.97592 -1.49017 0
M  V30 752 O 77.492 3.31107 -1.31326 0
M  V30 753 O 76.351 5.16729 -1.77914 0
M  V30 754 H 73.445 0.792799 -0.235368 0
M  V30 755 H 75.991 1.25021 -1.14751 0
M  V30 756 H 74.763 3.097 -2.39168 0
M  V30 757 H 74.386 3.88052 -0.866107 0
M  V30 758 N 75.3831 0.828654 1.34056 0
M  V30 759 C 76.6231 0.425394 1.99924 0
M  V30 760 C 76.9871 -0.994294 1.64249 0
M  V30 761 O 78.1881 -1.50074 2.23005 0
M  V30 762 C 76.4591 0.628071 3.51838 0
M  V30 763 S 78.0181 0.318511 4.37642 0
M  V30 764 H 74.8361 0.160465 0.692656 0
M  V30 765 H 77.4381 1.07572 1.63244 0
M  V30 766 H 76.1421 1.66089 3.7529 0
M  V30 767 H 75.6731 -0.0367799 3.93383 0
M  V30 768 H 77.6881 -0.865632 4.88591 0
M  V30 769 N 76.8612 -1.46375 0.584142 0
M  V30 770 C 78.1102 -2.01585 0.0679741 0
M  V30 771 C 78.4232 -1.46109 -1.30045 0
M  V30 772 O 79.6292 -1.93148 -1.90804 0
M  V30 773 C 78.0852 -3.5983 0.0709207 0
M  V30 774 C 77.6932 -4.24303 1.43775 0
M  V30 775 C 79.4372 -4.22693 -0.391228 0
M  V30 776 C 77.3442 -5.74631 1.39834 0
M  V30 777 H 76.2742 -0.753689 0.0216421 0
M  V30 778 H 78.9252 -1.68093 0.736001 0
M  V30 779 H 77.3072 -3.90405 -0.663299 0
M  V30 780 H 78.4812 -4.05335 2.19181 0
M  V30 781 H 76.7962 -3.73539 1.84004 0
M  V30 782 H 79.3932 -5.3289 -0.439524 0
M  V30 783 H 79.7362 -3.91728 -1.40906 0
M  V30 784 H 80.2692 -3.96749 0.288974 0
M  V30 785 H 77.0082 -6.10258 2.39303 0
M  V30 786 H 76.5282 -5.95858 0.686505 0
M  V30 787 H 78.2072 -6.37375 1.11187 0
M  V30 788 N 78.3393 -0.321999 -1.54275 0
M  V30 789 C 79.2493 0.553631 -2.27974 0
M  V30 790 C 80.2653 1.13054 -1.32268 0
M  V30 791 O 81.4413 1.15084 -1.6528 0
M  V30 792 C 78.5063 1.69927 -3.02201 0
M  V30 793 C 77.5673 1.15433 -4.1349 0
M  V30 794 C 76.8003 2.24537 -4.84168 0
M  V30 795 O 77.0233 3.44852 -4.5435 0
M  V30 796 O 75.9573 1.90044 -5.7111 0
M  V30 797 H 79.7833 -0.0448345 -3.03667 0
M  V30 798 H 77.3683 -0.0877418 -1.49142 0
M  V30 799 H 79.2503 2.3663 -3.48689 0
M  V30 800 H 77.9253 2.28395 -2.29385 0
M  V30 801 H 76.8323 0.452436 -3.71354 0
M  V30 802 H 78.1653 0.614805 -4.88345 0
M  V30 803 N 79.8174 1.5752 -0.0501392 0
M  V30 804 C 81.2334 1.56631 0.306402 0
M  V30 805 C 81.4334 1.0577 1.71508 0
M  V30 806 O 80.4894 0.713837 2.422 0
M  V30 807 C 81.8024 3.00393 0.135811 0
M  V30 808 C 83.3504 3.12315 0.206993 0
M  V30 809 C 83.8254 4.57954 0.064944 0
M  V30 810 N 85.3164 4.63041 0.121254 0
M  V30 811 C 86.0514 5.73389 0.0354381 0
M  V30 812 N 85.5474 6.92724 -0.102666 0
M  V30 813 N 87.3404 5.62026 0.090946 0
M  V30 814 H 79.4914 1.88903 -0.971046 0
M  V30 815 H 81.7544 0.869876 -0.376855 0
M  V30 816 H 81.4604 3.41635 -0.835384 0
M  V30 817 H 81.3344 3.66373 0.897275 0
M  V30 818 H 83.7214 2.70973 1.16866 0
M  V30 819 H 83.8024 2.49016 -0.585208 0
M  V30 820 H 83.4464 4.99981 -0.893394 0
M  V30 821 H 83.3764 5.19258 0.876277 0
M  V30 822 H 85.8674 3.77216 0.227284 0
M  V30 823 H 86.1804 7.72633 -0.160882 0
M  V30 824 H 84.5254 6.94864 -0.137737 0
M  V30 825 H 87.7164 4.67684 0.197388 0
M  V30 826 H 87.8894 6.47997 0.0206089 0
M  V30 827 N 81.2955 -0.223234 1.56011 0
M  V30 828 C 82.5255 -0.963413 1.82762 0
M  V30 829 C 82.9335 -1.78516 0.626804 0
M  V30 830 O 82.2765 -1.78974 -0.414014 0
M  V30 831 C 82.3385 -1.93126 3.0322 0
M  V30 832 C 82.0025 -1.2942 4.38291 0
M  V30 833 C 82.9995 -0.684916 5.15369 0
M  V30 834 C 80.6845 -1.30647 4.85012 0
M  V30 835 C 82.6785 -0.0963971 6.37327 0
M  V30 836 C 80.3655 -0.71411 6.06913 0
M  V30 837 C 81.3635 -0.110123 6.82911 0
M  V30 838 O 81.0515 0.47303 8.02507 0
M  V30 839 H 80.7835 -0.288011 0.611576 0
M  V30 840 H 83.3375 -0.244103 2.03944 0
M  V30 841 H 81.5675 -2.68952 2.77852 0
M  V30 842 H 83.2565 -2.53685 3.16857 0
M  V30 843 H 84.0225 -0.667774 4.80381 0
M  V30 844 H 79.9015 -1.76598 4.25833 0
M  V30 845 H 83.4455 0.375657 6.96588 0
M  V30 846 H 79.3425 -0.728659 6.41374 0
M  V30 847 H 80.1105 0.367186 8.17676 0
M  V30 848 N 82.7736 -1.49793 -0.48987 0
M  V30 849 C 84.1846 -1.52914 -1.07118 0
M  V30 850 C 84.5356 -0.321738 -1.93544 0
M  V30 851 O 83.6606 0.567338 -2.08831 0
M  V30 852 C 84.2556 -2.771 -1.94938 0
M  V30 853 C 82.8146 -2.82963 -2.48212 0
M  V30 854 C 81.9616 -2.46972 -1.26096 0
M  V30 855 H 84.9126 -1.56329 -0.273289 0
M  V30 856 H 84.9336 -2.57892 -2.79771 0
M  V30 857 H 84.4456 -3.64959 -1.32009 0
M  V30 858 H 82.5466 -1.99411 -3.14748 0
M  V30 859 H 82.6596 -3.85406 -2.84603 0
M  V30 860 H 81.0236 -1.98994 -1.58976 0
M  V30 861 H 81.8066 -3.37118 -0.648581 0
M  V30 862 N 84.2517 0.741722 -1.39055 0
M  V30 863 C 85.5287 1.49252 -1.26425 0
M  V30 864 C 85.9087 2.10705 0.129144 0
M  V30 865 O 85.2567 1.98045 1.13976 0
M  V30 866 C 85.4667 2.54934 -2.38347 0
M  V30 867 C 86.8147 3.21506 -2.77343 0
M  V30 868 O 87.8387 2.65245 -2.37747 0
M  V30 869 O 86.6977 4.23294 -3.45665 0
M  V30 870 H 83.7917 0.662451 -0.495064 0
M  V30 871 H 86.3377 0.776121 -1.50912 0
M  V30 872 H 85.1097 2.07857 -3.31529 0
M  V30 873 H 84.7327 3.34141 -2.15489 0
M  V30 874 N 85.7298 1.2412 0.971189 0
M  V30 875 C 86.6928 1.03156 2.04674 0
M  V30 876 C 87.6928 -0.00990322 1.60797 0
M  V30 877 O 88.8828 0.230729 1.72665 0
M  V30 878 C 86.0148 0.562765 3.36223 0
M  V30 879 H 87.2078 1.98614 2.24705 0
M  V30 880 H 84.7608 1.06293 1.14593 0
M  V30 881 H 85.4958 -0.395176 3.21883 0
M  V30 882 H 85.2808 1.31441 3.69413 0
M  V30 883 H 86.7708 0.437015 4.15307 0
M  V30 884 N 87.2079 -1.17134 1.05439 0
M  V30 885 C 88.4849 -1.83411 0.679699 0
M  V30 886 C 88.8649 -1.9368 -0.839726 0
M  V30 887 O 88.2129 -1.47325 -1.74664 0
M  V30 888 C 88.4229 -3.20918 1.37159 0
M  V30 889 C 89.7709 -3.96796 1.51123 0
M  V30 890 O 90.7949 -3.30406 1.3308 0
M  V30 891 O 89.6539 -5.15778 1.80651 0
M  V30 892 H 86.7479 -0.79154 0.239569 0
M  V30 893 H 89.2939 -1.24411 1.15413 0
M  V30 894 H 88.0659 -3.08428 2.40807 0
M  V30 895 H 87.6889 -3.87587 0.886674 0
M  V30 896 N 88.686 -0.835752 -1.33615 0
M  V30 897 C 89.916 -0.442701 -2.01801 0
M  V30 898 C 90.324 0.959807 -1.63047 0
M  V30 899 O 89.667 1.63468 -0.838088 0
M  V30 900 C 89.729 -0.480125 -3.56279 0
M  V30 901 C 89.393 -1.8382 -4.18401 0
M  V30 902 C 90.39 -2.80097 -4.37998 0
M  V30 903 C 88.075 -2.13019 -4.54894 0
M  V30 904 C 90.069 -4.03736 -4.9323 0
M  V30 905 C 87.756 -3.36916 -5.09834 0
M  V30 906 C 88.754 -4.32091 -5.28948 0
M  V30 907 O 88.442 -5.53797 -5.82721 0
M  V30 908 H 88.174 -0.17441 -0.653114 0
M  V30 909 H 90.728 -1.129 -1.71589 0
M  V30 910 H 88.958 0.262931 -3.85805 0
M  V30 911 H 90.647 -0.105335 -4.05763 0
M  V30 912 H 91.413 -2.58838 -4.10156 0
M  V30 913 H 87.292 -1.39733 -4.39313 0
M  V30 914 H 90.836 -4.78034 -5.08064 0
M  V30 915 H 86.733 -3.58033 -5.37106 0
M  V30 916 H 87.501 -5.55494 -6.0114 0
M  V30 917 N 90.1641 1.46063 -0.591896 0
M  V30 918 C 91.4111 2.02338 -0.0809991 0
M  V30 919 C 91.7391 1.46228 1.28249 0
M  V30 920 O 90.9941 0.620818 1.85592 0
M  V30 921 C 91.2931 3.57391 0.0249813 0
M  V30 922 C 90.9591 4.32583 -1.27211 0
M  V30 923 C 89.6211 4.52844 -1.62745 0
M  V30 924 C 91.9731 4.75687 -2.13005 0
M  V30 925 C 89.3011 5.13462 -2.83855 0
M  V30 926 C 91.6531 5.37644 -3.3335 0
M  V30 927 C 90.3171 5.5613 -3.69155 0
M  V30 928 H 89.5871 0.740407 -0.0296397 0
M  V30 929 H 92.2341 1.75321 -0.770374 0
M  V30 930 H 90.5391 3.83597 0.797537 0
M  V30 931 H 92.2361 3.98621 0.436184 0
M  V30 932 H 88.8261 4.17116 -0.985499 0
M  V30 933 H 93.0101 4.59782 -1.86855 0
M  V30 934 H 88.2661 5.25965 -3.11722 0
M  V30 935 H 92.4401 5.7 -4.00092 0
M  V30 936 H 90.0671 6.0287 -4.63089 0
M  V30 937 N 91.6422 0.330177 1.54103 0
M  V30 938 C 92.5922 -0.548456 2.21305 0
M  V30 939 C 93.5762 -1.07651 1.19583 0
M  V30 940 O 94.7682 -1.01243 1.45186 0
M  V30 941 C 91.8972 -1.70559 2.97934 0
M  V30 942 C 90.9832 -1.19212 4.07 0
M  V30 943 N 91.3742 -0.398831 5.04225 0
M  V30 944 C 89.6722 -1.47024 4.2107 0
M  V30 945 C 90.3732 -0.121761 5.81573 0
M  V30 946 N 89.3492 -0.709722 5.38947 0
M  V30 947 H 93.1512 0.0648483 2.93828 0
M  V30 948 H 90.6652 0.136363 1.61826 0
M  V30 949 H 92.6622 -2.34688 3.44568 0
M  V30 950 H 91.3222 -2.32231 2.26934 0
M  V30 951 H 92.3332 -0.0410869 5.17884 0
M  V30 952 H 89.0102 -2.09232 3.61287 0
M  V30 953 H 90.4002 0.517298 6.69906 0
M  V30 954 N 93.1203 -1.57491 0.0584922 0
M  V30 955 C 94.0503 -2.14988 -0.911178 0
M  V30 956 C 95.0313 -1.07343 -1.31952 0
M  V30 957 O 96.2163 -1.35318 -1.39294 0
M  V30 958 C 93.3463 -2.70078 -2.18347 0
M  V30 959 C 92.3003 -3.82771 -1.91495 0
M  V30 960 C 91.6263 -4.24408 -3.25241 0
M  V30 961 C 92.9263 -5.07592 -1.23075 0
M  V30 962 H 94.6203 -2.96263 -0.432246 0
M  V30 963 H 92.1663 -1.42512 -0.206469 0
M  V30 964 H 94.1193 -3.08943 -2.86587 0
M  V30 965 H 92.8433 -1.86005 -2.68458 0
M  V30 966 H 91.5023 -3.44389 -1.25664 0
M  V30 967 H 91.1503 -3.37275 -3.73168 0
M  V30 968 H 90.8503 -5.00366 -3.08071 0
M  V30 969 H 92.3743 -4.65879 -3.94701 0
M  V30 970 H 93.7883 -5.43857 -1.81362 0
M  V30 971 H 92.1853 -5.88741 -1.16207 0
M  V30 972 H 93.2553 -4.84454 -0.207847 0
M  V30 973 N 94.5984 0.214957 -1.56127 0
M  V30 974 C 95.5484 1.27006 -1.8935 0
M  V30 975 C 96.5324 1.41969 -0.757202 0
M  V30 976 O 97.7244 1.44673 -1.01973 0
M  V30 977 C 94.8534 2.61911 -2.2194 0
M  V30 978 C 93.9394 2.50822 -3.41978 0
M  V30 979 N 94.3304 2.09391 -4.60423 0
M  V30 980 C 92.6284 2.81765 -3.45723 0
M  V30 981 C 93.3294 2.09712 -5.42582 0
M  V30 982 N 92.3054 2.50454 -4.82466 0
M  V30 983 H 96.1074 0.940734 -2.78437 0
M  V30 984 H 93.6214 0.423492 -1.56781 0
M  V30 985 H 95.6184 3.38096 -2.43919 0
M  V30 986 H 94.2784 2.95684 -1.34169 0
M  V30 987 H 95.2894 1.80416 -4.85459 0
M  V30 988 H 91.9664 3.19865 -2.68314 0
M  V30 989 H 93.3564 1.79748 -6.4741 0
M  V30 990 N 96.0765 1.50051 0.48192 0
M  V30 991 C 97.0085 1.64263 1.59844 0
M  V30 992 C 98.0215 0.52451 1.54119 0
M  V30 993 O 99.2105 0.797293 1.59704 0
M  V30 994 C 96.3105 1.60102 2.98698 0
M  V30 995 C 95.4835 2.87767 3.29407 0
M  V30 996 C 94.5425 2.76397 4.47762 0
M  V30 997 O 93.5685 3.50348 4.48603 0
M  V30 998 N 94.7705 1.89222 5.48794 0
M  V30 999 H 97.5355 2.60566 1.48073 0
M  V30 1000 H 95.0965 1.47379 0.670149 0
M  V30 1001 H 97.0885 1.50123 3.75826 0
M  V30 1002 H 95.6585 0.715798 3.04294 0
M  V30 1003 H 94.8785 3.11954 2.40994 0
M  V30 1004 H 96.1665 3.72365 3.4673 0
M  V30 1005 H 95.5645 1.28434 5.50928 0
M  V30 1006 H 94.1215 1.85154 6.24949 0
M  V30 1007 N 97.5546 -0.734337 1.39446 0
M  V30 1008 C 98.5176 -1.83004 1.37994 0
M  V30 1009 C 99.5176 -1.58397 0.276938 0
M  V30 1010 O 100.708 -1.65785 0.534875 0
M  V30 1011 C 97.8396 -3.20802 1.1532 0
M  V30 1012 H 99.0326 -1.85694 2.35494 0
M  V30 1013 H 96.5856 -0.938059 1.25021 0
M  V30 1014 H 97.3206 -3.23772 0.185036 0
M  V30 1015 H 97.1056 -3.4006 1.95197 0
M  V30 1016 H 98.5956 -4.00862 1.17046 0
M  V30 1017 N 99.0327 -1.24633 -0.964593 0
M  V30 1018 C 99.9627 -1.06611 -2.07741 0
M  V30 1019 C 100.944 0.0218666 -1.70086 0
M  V30 1020 O 102.129 -0.145793 -1.93652 0
M  V30 1021 C 99.2587 -0.673444 -3.40708 0
M  V30 1022 C 98.2127 -1.71054 -3.92332 0
M  V30 1023 C 97.5387 -1.17285 -5.21678 0
M  V30 1024 C 98.8387 -3.10718 -4.19824 0
M  V30 1025 H 100.533 -1.99693 -2.23076 0
M  V30 1026 H 98.0787 -0.96152 -1.07195 0
M  V30 1027 H 100.032 -0.534345 -4.17998 0
M  V30 1028 H 98.7557 0.293073 -3.25282 0
M  V30 1029 H 97.4147 -1.83791 -3.17201 0
M  V30 1030 H 97.0627 -0.196847 -5.02615 0
M  V30 1031 H 96.7627 -1.86592 -5.57187 0
M  V30 1032 H 98.2867 -1.04593 -6.01575 0
M  V30 1033 H 99.7007 -3.01192 -4.87808 0
M  V30 1034 H 98.0977 -3.77406 -4.66567 0
M  V30 1035 H 99.1677 -3.58524 -3.26479 0
M  V30 1036 N 100.511 1.16574 -1.06058 0
M  V30 1037 C 101.474 2.19085 -0.673392 0
M  V30 1038 C 102.474 1.5835 0.279648 0
M  V30 1039 O 103.664 1.74088 0.0623488 0
M  V30 1040 C 100.796 3.40899 0.00954234 0
M  V30 1041 H 101.989 2.54853 -1.58081 0
M  V30 1042 H 99.5418 1.30808 -0.855516 0
M  V30 1043 H 100.277 3.10684 0.929826 0
M  V30 1044 H 100.062 3.86233 -0.67573 0
M  V30 1045 H 101.552 4.1675 0.266245 0
M  V30 1046 N 101.989 0.842826 1.3317 0
M  V30 1047 C 103.405 0.531128 1.50503 0
M  V30 1048 C 103.605 -0.940734 1.78192 0
M  V30 1049 O 102.661 -1.72436 1.84451 0
M  V30 1050 C 103.974 1.40789 2.65705 0
M  V30 1051 C 105.522 1.40708 2.79589 0
M  V30 1052 C 105.997 2.26878 3.97857 0
M  V30 1053 N 107.488 2.24609 4.05099 0
M  V30 1054 C 108.223 2.88019 4.95815 0
M  V30 1055 N 107.719 3.60496 5.9162 0
M  V30 1056 N 109.512 2.77469 4.88843 0
M  V30 1057 H 101.663 1.79557 1.1346 0
M  V30 1058 H 103.926 0.766267 0.558156 0
M  V30 1059 H 103.632 2.454 2.51936 0
M  V30 1060 H 103.506 1.08677 3.61205 0
M  V30 1061 H 105.893 0.368668 2.92788 0
M  V30 1062 H 105.974 1.76829 1.84838 0
M  V30 1063 H 105.618 3.3078 3.85418 0
M  V30 1064 H 105.548 1.88096 4.91861 0
M  V30 1065 H 108.039 1.71906 3.36536 0
M  V30 1066 H 108.352 4.06076 6.57512 0
M  V30 1067 H 106.697 3.64604 5.91683 0
M  V30 1068 H 109.888 2.20406 4.12963 0
M  V30 1069 H 110.061 3.2717 5.59342 0
M  V30 1070 N 103.467 -1.45747 0.599634 0
M  V30 1071 C 104.417 -2.27538 -0.145107 0
M  V30 1072 C 105.401 -1.3686 -0.846055 0
M  V30 1073 O 106.593 -1.6091 -0.737357 0
M  V30 1074 C 103.722 -3.23569 -1.14708 0
M  V30 1075 C 102.808 -4.21734 -0.447383 0
M  V30 1076 N 103.199 -5.03257 0.506535 0
M  V30 1077 C 101.497 -4.40536 -0.695966 0
M  V30 1078 C 102.198 -5.74426 0.917068 0
M  V30 1079 N 101.174 -5.42966 0.26253 0
M  V30 1080 H 104.976 -2.87965 0.587672 0
M  V30 1081 H 102.49 -1.56803 0.422697 0
M  V30 1082 H 104.487 -3.8089 -1.69495 0
M  V30 1083 H 103.147 -2.64702 -1.8805 0
M  V30 1084 H 104.158 -5.10319 0.882899 0
M  V30 1085 H 100.835 -3.92802 -1.41467 0
M  V30 1086 H 102.225 -6.4995 1.70338 0
M  V30 1087 N 104.945 -0.338344 -1.53925 0
M  V30 1088 C 105.895 0.536712 -2.21593 0
M  V30 1089 C 106.879 1.07015 -1.20153 0
M  V30 1090 O 108.071 1.00471 -1.45721 0
M  V30 1091 C 105.2 1.68977 -2.98834 0
M  V30 1092 C 104.286 1.17052 -4.07627 0
M  V30 1093 N 104.677 0.372085 -5.0443 0
M  V30 1094 C 102.975 1.44789 -4.21844 0
M  V30 1095 C 103.676 0.0909171 -5.81629 0
M  V30 1096 N 102.652 0.681131 -5.39316 0
M  V30 1097 H 106.454 -0.0804298 -2.9379 0
M  V30 1098 H 103.968 -0.144943 -1.61752 0
M  V30 1099 H 105.965 2.32857 -3.45808 0
M  V30 1100 H 104.625 2.31024 -2.28162 0
M  V30 1101 H 105.636 0.0136217 -5.17898 0
M  V30 1102 H 102.313 2.07313 -3.62391 0
M  V30 1103 H 103.703 -0.552817 -6.69622 0
M  V30 1104 N 106.423 1.57458 -0.0668435 0
M  V30 1105 C 107.355 2.09413 0.931601 0
M  V30 1106 C 108.368 1.02522 1.26464 0
M  V30 1107 O 109.557 1.30049 1.22269 0
M  V30 1108 C 106.657 2.53537 2.24882 0
M  V30 1109 C 105.83 3.83944 2.09537 0
M  V30 1110 C 104.889 4.14214 3.2452 0
M  V30 1111 O 103.915 4.83891 2.9973 0
M  V30 1112 N 105.117 3.67367 4.49469 0
M  V30 1113 H 107.882 2.95699 0.488048 0
M  V30 1114 H 105.443 1.61462 0.119009 0
M  V30 1115 H 107.435 2.70853 3.00701 0
M  V30 1116 H 106.005 1.72415 2.60753 0
M  V30 1117 H 105.225 3.76057 1.18215 0
M  V30 1118 H 106.513 4.69312 1.96529 0
M  V30 1119 H 105.911 3.11068 4.72497 0
M  V30 1120 H 104.468 3.89891 5.2233 0
M  V30 1121 N 107.901 -0.206675 1.56239 0
M  V30 1122 C 109.147 -0.930218 1.80208 0
M  V30 1123 C 109.48 -1.83387 0.638981 0
M  V30 1124 O 108.755 -1.91119 -0.361066 0
M  V30 1125 C 109.038 -1.75641 3.1436 0
M  V30 1126 C 108.891 -0.878257 4.41142 0
M  V30 1127 C 110.21 -2.73129 3.45092 0
M  V30 1128 H 107.329 -0.336742 0.655571 0
M  V30 1129 H 109.971 -0.198222 1.88963 0
M  V30 1130 H 108.121 -2.38048 3.07027 0
M  V30 1131 H 109.793 -0.269787 4.6051 0
M  V30 1132 H 108.036 -0.184385 4.33408 0
M  V30 1133 H 108.707 -1.49106 5.3148 0
M  V30 1134 H 111.183 -2.20856 3.52649 0
M  V30 1135 H 110.059 -3.28028 4.40101 0
M  V30 1136 H 110.32 -3.51606 2.68003 0
M  V30 1137 N 109.379 -1.50304 -0.473955 0
M  V30 1138 C 110.79 -1.54042 -1.0549 0
M  V30 1139 C 111.141 -0.342248 -1.93192 0
M  V30 1140 O 110.266 0.545157 -2.09421 0
M  V30 1141 C 110.861 -2.79152 -1.91989 0
M  V30 1142 C 109.42 -2.8558 -2.45196 0
M  V30 1143 C 108.567 -2.48295 -1.2347 0
M  V30 1144 H 111.518 -1.5661 -0.256693 0
M  V30 1145 H 111.539 -2.60845 -2.7702 0
M  V30 1146 H 111.051 -3.66339 -1.28131 0
M  V30 1147 H 109.152 -2.02738 -3.12615 0
M  V30 1148 H 109.265 -3.88403 -2.80499 0
M  V30 1149 H 107.629 -2.00669 -1.56856 0
M  V30 1150 H 108.412 -3.37787 -0.612789 0
M  V30 1151 N 110.857 0.726932 -1.39834 0
M  V30 1152 C 111.82 1.82269 -1.38962 0
M  V30 1153 C 112.82 1.58248 -0.285334 0
M  V30 1154 O 114.01 1.65499 -0.54366 0
M  V30 1155 C 111.142 3.20186 -1.17019 0
M  V30 1156 H 112.335 1.84443 -2.36476 0
M  V30 1157 H 109.888 0.931416 -1.25516 0
M  V30 1158 H 110.623 3.23669 -0.202204 0
M  V30 1159 H 110.408 3.3902 -1.96998 0
M  V30 1160 H 111.898 4.00235 -1.1917 0
M  V30 1161 N 112.336 1.25143 0.95797 0
M  V30 1162 C 113.561 1.12521 1.74223 0
M  V30 1163 C 113.986 -0.317402 1.85403 0
M  V30 1164 O 113.344 -1.2299 1.33204 0
M  V30 1165 C 113.392 1.78062 3.1357 0
M  V30 1166 O 112.496 1.058 3.98598 0
M  V30 1167 H 111.837 0.39304 0.535178 0
M  V30 1168 H 114.367 1.65641 1.201 0
M  V30 1169 H 114.377 1.84213 3.64046 0
M  V30 1170 H 113.052 2.83021 3.04749 0
M  V30 1171 H 111.629 1.07506 3.57067 0
M  V30 1172 N 113.814 -1.1601 1.06675 0
M  V30 1173 C 115.06 -1.87145 0.796766 0
M  V30 1174 C 115.415 -1.8037 -0.669658 0
M  V30 1175 O 114.708 -1.21116 -1.48463 0
M  V30 1176 C 114.902 -3.35547 1.23057 0
M  V30 1177 C 114.731 -3.56769 2.73762 0
M  V30 1178 C 113.501 -3.72635 3.41279 0
M  V30 1179 C 115.699 -3.55166 3.7197 0
M  V30 1180 N 113.681 -3.81845 4.80695 0
M  V30 1181 C 115.052 -3.70406 4.97191 0
M  V30 1182 C 117.107 -3.384 3.65226 0
M  V30 1183 C 115.81 -3.70615 6.16471 0
M  V30 1184 C 117.836 -3.39904 4.83962 0
M  V30 1185 C 117.198 -3.55667 6.08013 0
M  V30 1186 H 113.297 -0.702267 0.344014 0
M  V30 1187 H 115.881 -1.39165 1.36166 0
M  V30 1188 H 114.052 -3.82159 0.693456 0
M  V30 1189 H 115.784 -3.94363 0.908844 0
M  V30 1190 H 112.539 -3.73121 2.91681 0
M  V30 1191 H 112.963 -3.90209 5.53232 0
M  V30 1192 H 117.605 -3.25138 2.70269 0
M  V30 1193 H 115.323 -3.82658 7.11757 0
M  V30 1194 H 118.909 -3.28169 4.80413 0
M  V30 1195 H 117.789 -3.56755 6.98352 0
M  V30 1196 N 115.292 -0.849877 -1.32721 0
M  V30 1197 C 116.541 -0.447175 -1.96681 0
M  V30 1198 C 116.854 1.00135 -1.68025 0
M  V30 1199 O 118.06 1.50926 -2.25685 0
M  V30 1200 C 116.516 -0.7487 -3.52026 0
M  V30 1201 C 116.124 -2.21264 -3.89546 0
M  V30 1202 C 117.868 -0.413487 -4.22481 0
M  V30 1203 C 115.775 -2.45763 -5.37917 0
M  V30 1204 H 114.705 -0.163486 -0.736063 0
M  V30 1205 H 117.356 -1.03999 -1.51183 0
M  V30 1206 H 115.738 -0.0853727 -3.95908 0
M  V30 1207 H 116.912 -2.91736 -3.56689 0
M  V30 1208 H 115.227 -2.5119 -3.32103 0
M  V30 1209 H 117.824 -0.574017 -5.3161 0
M  V30 1210 H 118.167 0.644492 -4.11281 0
M  V30 1211 H 118.7 -1.03251 -3.84167 0
M  V30 1212 H 115.439 -3.50168 -5.54132 0
M  V30 1213 H 114.959 -1.79864 -5.72197 0
M  V30 1214 H 116.638 -2.29471 -6.0494 0
M  V30 1215 N 116.77 1.45427 -0.607355 0
M  V30 1216 C 117.7 2.3329 0.0989352 0
M  V30 1217 C 118.681 1.46816 0.859007 0
M  V30 1218 O 119.866 1.75588 0.829604 0
M  V30 1219 C 116.996 3.29518 1.09705 0
M  V30 1220 C 115.95 4.25626 0.450206 0
M  V30 1221 C 115.276 5.11542 1.55655 0
M  V30 1222 C 116.576 5.18505 -0.628455 0
M  V30 1223 H 118.27 2.92595 -0.634716 0
M  V30 1224 H 115.816 1.40696 -0.306681 0
M  V30 1225 H 117.769 3.89855 1.59971 0
M  V30 1226 H 116.493 2.68372 1.86129 0
M  V30 1227 H 115.152 3.66586 -0.0315886 0
M  V30 1228 H 114.8 4.46765 2.31107 0
M  V30 1229 H 114.5 5.76647 1.12925 0
M  V30 1230 H 116.024 5.74748 2.06148 0
M  V30 1231 H 117.438 5.72916 -0.209877 0
M  V30 1232 H 115.835 5.92085 -0.977489 0
M  V30 1233 H 116.905 4.60948 -1.50514 0
M  V30 1234 N 118.248 0.346503 1.53744 0
M  V30 1235 C 119.211 -0.496439 2.23759 0
M  V30 1236 C 120.211 -1.0252 1.2388 0
M  V30 1237 O 121.401 -0.913974 1.48297 0
M  V30 1238 C 118.533 -1.69187 2.95954 0
M  V30 1239 H 119.726 0.115952 2.99676 0
M  V30 1240 H 117.279 0.0978939 1.55993 0
M  V30 1241 H 118.014 -2.34288 2.24231 0
M  V30 1242 H 117.799 -1.31989 3.69217 0
M  V30 1243 H 119.289 -2.28969 3.49232 0
M  V30 1244 N 119.726 -1.57421 0.075193 0
M  V30 1245 C 120.974 -1.93236 -0.591974 0
M  V30 1246 C 121.295 -0.956241 -1.69944 0
M  V30 1247 O 120.565 -0.00494792 -1.95899 0
M  V30 1248 H 119.145 -0.713355 -0.22166 0
M  V30 1249 H 121.807 -1.9444 0.133848 0
M  V30 1250 H 120.903 -2.95131 -1.01509 0
M  V30 1251 N 121.204 0.198386 -1.56346 0
M  V30 1252 C 122.152 1.26538 -1.95169 0
M  V30 1253 C 123.146 1.47295 -0.836685 0
M  V30 1254 O 124.352 1.48195 -1.02167 0
M  V30 1255 H 120.727 0.424744 -0.620561 0
M  V30 1256 H 122.698 0.910904 -2.84157 0
M  V30 1257 C 121.447 2.6035 -2.30463 0
M  V30 1258 H 120.77 2.45192 -3.15786 0
M  V30 1259 H 122.21 3.33762 -2.61494 0
M  V30 1260 C 120.669 3.17096 -1.13806 0
M  V30 1261 O 121.199 3.99588 -0.41135 0
M  V30 1262 N 119.405 2.75795 -0.915736 0
M  V30 1263 H 118.952 2.08816 -1.50843 0
M  V30 1264 H 118.91 3.14101 -0.136979 0
M  V30 1265 N 122.682 1.50554 0.465978 0
M  V30 1266 C 123.93 1.61479 1.21528 0
M  V30 1267 C 124.251 0.319596 1.92363 0
M  V30 1268 O 123.521 -0.663194 1.84333 0
M  V30 1269 H 122.101 0.595055 0.451573 0
M  V30 1270 H 124.763 1.87355 0.53704 0
M  V30 1271 H 123.859 2.42846 1.96042 0
M  V30 1272 N 124.16 -0.719506 1.40217 0
M  V30 1273 C 125.07 -1.86378 1.42479 0
M  V30 1274 C 126.086 -1.71073 0.317834 0
M  V30 1275 O 127.262 -1.93406 0.561794 0
M  V30 1276 C 124.327 -3.22136 1.28178 0
M  V30 1277 C 123.388 -3.49723 2.48982 0
M  V30 1278 C 122.621 -4.79004 2.35353 0
M  V30 1279 O 122.844 -5.53821 1.36524 0
M  V30 1280 O 121.778 -5.06839 3.2465 0
M  V30 1281 H 125.604 -1.87425 2.38968 0
M  V30 1282 H 123.189 -0.869405 1.21498 0
M  V30 1283 H 125.071 -4.03234 1.22395 0
M  V30 1284 H 123.746 -3.21825 0.347934 0
M  V30 1285 H 122.653 -2.6865 2.60342 0
M  V30 1286 H 123.986 -3.54828 3.41113 0
M  V30 1287 N 125.638 -1.25649 -0.95132 0
M  V30 1288 C 126.866 -1.13343 -1.73092 0
M  V30 1289 C 127.281 0.312434 -1.86197 0
M  V30 1290 O 126.638 1.21465 -1.36207 0
M  V30 1291 C 126.689 -1.78602 -3.14299 0
M  V30 1292 O 126.41 -3.17537 -3.01831 0
M  V30 1293 C 127.911 -1.72119 -4.08522 0
M  V30 1294 H 125.131 -0.395181 -0.542285 0
M  V30 1295 H 127.675 -1.66076 -1.19328 0
M  V30 1296 H 125.83 -1.29832 -3.64996 0
M  V30 1297 H 126.244 -3.49676 -3.90931 0
M  V30 1298 H 127.718 -2.22435 -5.052 0
M  V30 1299 H 128.195 -0.685635 -4.33815 0
M  V30 1300 H 128.801 -2.20393 -3.63741 0
M  V30 1301 N 127.117 1.15442 -1.07289 0
M  V30 1302 C 128.027 2.23786 -0.704057 0
M  V30 1303 C 129.043 1.7166 0.284413 0
M  V30 1304 O 130.219 2.00972 0.131205 0
M  V30 1305 C 127.284 3.46535 -0.106792 0
M  V30 1306 C 126.345 4.13654 -1.14842 0
M  V30 1307 C 125.578 5.30544 -0.57956 0
M  V30 1308 O 125.801 5.67187 0.604585 0
M  V30 1309 O 124.735 5.87154 -1.32414 0
M  V30 1310 H 128.561 2.57664 -1.60757 0
M  V30 1311 H 126.146 1.23152 -0.845803 0
M  V30 1312 H 128.028 4.20804 0.224048 0
M  V30 1313 H 126.703 3.14407 0.770049 0
M  V30 1314 H 125.61 3.4131 -1.5316 0
M  V30 1315 H 126.943 4.49861 -1.99714 0
M  V30 1316 N 128.595 0.856903 1.32268 0
M  V30 1317 C 129.82 0.474569 2.01897 0
M  V30 1318 C 130.245 -0.921766 1.63967 0
M  V30 1319 O 129.603 -1.60589 0.84148 0
M  V30 1320 C 129.651 0.623799 3.55164 0
M  V30 1321 O 128.755 -0.342459 4.10976 0
M  V30 1322 H 128.096 0.190422 0.63611 0
M  V30 1323 H 130.626 1.15672 1.68764 0
M  V30 1324 H 130.636 0.512169 4.04773 0
M  V30 1325 H 129.311 1.64202 3.82113 0
M  V30 1326 H 127.888 -0.18688 3.72431 0
M  V30 1327 N 130.073 -1.45103 0.615059 0
M  V30 1328 C 131.322 -2.01396 0.110718 0
M  V30 1329 C 131.635 -1.48834 -1.26916 0
M  V30 1330 O 132.841 -1.97152 -1.86664 0
M  V30 1331 C 131.297 -3.59599 0.14723 0
M  V30 1332 C 130.905 -4.21158 1.52743 0
M  V30 1333 C 132.649 -4.23428 -0.30148 0
M  V30 1334 C 130.556 -5.71535 1.51992 0
M  V30 1335 H 129.486 -0.753061 0.0376241 0
M  V30 1336 H 132.137 -1.66494 0.77149 0
M  V30 1337 H 130.519 -3.91724 -0.580339 0
M  V30 1338 H 131.693 -4.00594 2.2773 0
M  V30 1339 H 130.008 -3.69552 1.91886 0
M  V30 1340 H 132.605 -5.33703 -0.326392 0
M  V30 1341 H 132.948 -3.94629 -1.32565 0
M  V30 1342 H 133.481 -3.96047 0.373065 0
M  V30 1343 H 130.22 -6.05044 2.52193 0
M  V30 1344 H 129.74 -5.94268 0.81274 0
M  V30 1345 H 131.419 -6.34873 1.24681 0
M  V30 1346 N 131.551 -0.354651 -1.53558 0
M  V30 1347 C 132.798 0.238443 -2.01091 0
M  V30 1348 C 133.126 1.49663 -1.24222 0
M  V30 1349 O 132.381 1.93049 -0.321003 0
M  V30 1350 C 132.68 0.587121 -3.52545 0
M  V30 1351 C 132.346 -0.575472 -4.47213 0
M  V30 1352 C 131.008 -0.894497 -4.72813 0
M  V30 1353 C 133.36 -1.35489 -5.03281 0
M  V30 1354 C 130.688 -1.99511 -5.51736 0
M  V30 1355 C 133.04 -2.44583 -5.83405 0
M  V30 1356 C 131.704 -2.77033 -6.07296 0
M  V30 1357 H 130.974 0.0872526 -0.735845 0
M  V30 1358 H 133.621 -0.484859 -1.8526 0
M  V30 1359 H 131.926 1.39129 -3.66265 0
M  V30 1360 H 133.623 1.05809 -3.86789 0
M  V30 1361 H 130.213 -0.316774 -4.27428 0
M  V30 1362 H 134.397 -1.12167 -4.83459 0
M  V30 1363 H 129.653 -2.25063 -5.68469 0
M  V30 1364 H 133.827 -3.05401 -6.25862 0
M  V30 1365 H 131.454 -3.6244 -6.68237 0
M  V30 1366 N 133.029 1.57378 -0.0835403 0
M  V30 1367 C 134.257 1.98263 0.59157 0
M  V30 1368 C 134.672 0.962302 1.62435 0
M  V30 1369 O 134.029 -0.049581 1.82433 0
M  V30 1370 C 134.08 3.39214 1.24965 0
M  V30 1371 O 133.801 4.37339 0.258186 0
M  V30 1372 C 135.302 3.95038 2.01147 0
M  V30 1373 H 132.522 0.651773 0.159477 0
M  V30 1374 H 135.066 2.03878 -0.159415 0
M  V30 1375 H 133.221 3.34649 1.95164 0
M  V30 1376 H 133.635 5.19371 0.731734 0
M  V30 1377 H 135.109 4.95848 2.42567 0
M  V30 1378 H 135.586 3.32222 2.87272 0
M  V30 1379 H 136.192 4.0304 1.35789 0
M  V30 1380 N 134.507 -0.190092 1.56449 0
M  V30 1381 C 135.753 -0.911052 1.81184 0
M  V30 1382 C 136.086 -1.82699 0.658396 0
M  V30 1383 O 135.361 -1.91491 -0.340775 0
M  V30 1384 C 135.644 -1.72297 3.16205 0
M  V30 1385 C 135.497 -0.831419 4.42049 0
M  V30 1386 C 136.816 -2.69454 3.47969 0
M  V30 1387 H 133.935 -0.32977 0.659106 0
M  V30 1388 H 136.577 -0.178169 1.89163 0
M  V30 1389 H 134.727 -2.34778 3.09534 0
M  V30 1390 H 136.399 -0.220929 4.60771 0
M  V30 1391 H 134.642 -0.138406 4.33579 0
M  V30 1392 H 135.313 -1.43461 5.33032 0
M  V30 1393 H 137.789 -2.17104 3.54972 0
M  V30 1394 H 136.665 -3.23342 4.43555 0
M  V30 1395 H 136.926 -3.48744 2.71717 0
M  V30 1396 N 135.985 -1.50799 -0.457987 0
M  V30 1397 C 136.948 -1.7005 -1.53674 0
M  V30 1398 C 137.948 -0.570881 -1.50325 0
M  V30 1399 O 139.138 -0.838126 -1.52712 0
M  V30 1400 C 136.27 -1.73788 -2.93276 0
M  V30 1401 H 137.463 -2.66306 -1.37917 0
M  V30 1402 H 135.016 -1.40477 -0.685271 0
M  V30 1403 H 135.751 -0.792717 -3.14462 0
M  V30 1404 H 135.536 -2.55864 -2.97113 0
M  V30 1405 H 137.026 -1.90591 -3.71571 0
M  V30 1406 N 137.463 0.71206 -1.40597 0
M  V30 1407 C 138.688 1.50617 -1.42581 0
M  V30 1408 C 139.113 1.88079 -0.0282102 0
M  V30 1409 O 138.471 1.53511 0.964579 0
M  V30 1410 C 138.519 2.7557 -2.3258 0
M  V30 1411 O 137.623 3.72414 -1.77148 0
M  V30 1412 H 136.964 0.453966 -0.484573 0
M  V30 1413 H 139.494 0.876649 -1.84868 0
M  V30 1414 H 139.504 3.2406 -2.47889 0
M  V30 1415 H 138.179 2.47639 -3.34138 0
M  V30 1416 H 136.756 3.31276 -1.71204 0
M  V30 1417 N 138.941 1.26152 0.944643 0
M  V30 1418 C 140.189 1.11271 1.6871 0
M  V30 1419 C 140.51 -0.345166 1.91921 0
M  V30 1420 O 139.78 -1.24387 1.51343 0
M  V30 1421 H 138.36 0.408783 0.625224 0
M  V30 1422 H 141.022 1.58427 1.1352 0
M  V30 1423 H 140.118 1.62879 2.66227 0
M  V30 1424 N 140.419 -1.14872 1.07899 0
M  V30 1425 C 141.349 -2.2193 0.725887 0
M  V30 1426 C 142.33 -1.67622 -0.28927 0
M  V30 1427 O 143.515 -1.93533 -0.160787 0
M  V30 1428 C 140.645 -3.47061 0.128856 0
M  V30 1429 C 139.599 -4.14363 1.07178 0
M  V30 1430 C 138.925 -5.33636 0.337229 0
M  V30 1431 C 140.225 -4.63492 2.40775 0
M  V30 1432 H 141.919 -2.51724 1.62097 0
M  V30 1433 H 139.465 -1.20991 0.780838 0
M  V30 1434 H 141.418 -4.21199 -0.130147 0
M  V30 1435 H 140.142 -3.16617 -0.80134 0
M  V30 1436 H 138.801 -3.42173 1.3158 0
M  V30 1437 H 138.449 -4.99449 -0.596606 0
M  V30 1438 H 138.149 -5.79609 0.965788 0
M  V30 1439 H 139.673 -6.10539 0.0861567 0
M  V30 1440 H 141.087 -5.2913 2.20669 0
M  V30 1441 H 139.484 -5.20148 2.99276 0
M  V30 1442 H 140.554 -3.78834 3.02676 0
M  V30 1443 N 141.898 -0.863906 -1.31812 0
M  V30 1444 C 142.845 -0.313303 -2.28664 0
M  V30 1445 C 143.815 0.584868 -1.55462 0
M  V30 1446 O 145 0.517805 -1.83639 0
M  V30 1447 C 142.14 0.48441 -3.41683 0
M  V30 1448 C 141.253 -0.440594 -4.29747 0
M  V30 1449 C 140.388 0.370652 -5.29905 0
M  V30 1450 C 139.427 -0.551164 -6.09613 0
M  V30 1451 N 138.564 0.223462 -7.01744 0
M  V30 1452 H 143.404 -1.14444 -2.75148 0
M  V30 1453 H 140.941 -0.575769 -1.35364 0
M  V30 1454 H 142.899 0.962627 -4.05943 0
M  V30 1455 H 141.529 1.28029 -2.96325 0
M  V30 1456 H 140.581 -1.03724 -3.65986 0
M  V30 1457 H 141.893 -1.14767 -4.85417 0
M  V30 1458 H 141.047 0.911638 -5.99812 0
M  V30 1459 H 139.786 1.11105 -4.74876 0
M  V30 1460 H 138.791 -1.10396 -5.38603 0
M  V30 1461 H 140.016 -1.29032 -6.66729 0
M  V30 1462 H 137.962 0.946787 -6.49132 0
M  V30 1463 H 137.879 -0.424399 -7.54808 0
M  V30 1464 H 139.147 0.745876 -7.75923 0
M  V30 1465 N 143.376 1.44774 -0.622745 0
M  V30 1466 C 144.787 1.85546 -0.207226 0
M  V30 1467 C 145.138 1.52093 1.23944 0
M  V30 1468 O 144.263 0.95492 1.94191 0
M  V30 1469 C 144.858 3.36781 -0.369313 0
M  V30 1470 C 143.417 3.76399 -0.00836847 0
M  V30 1471 C 142.564 2.68664 -0.686651 0
M  V30 1472 H 145.515 1.3536 -0.828454 0
M  V30 1473 H 145.536 3.78453 0.394162 0
M  V30 1474 H 145.048 3.61098 -1.42231 0
M  V30 1475 H 143.149 3.57698 1.04322 0
M  V30 1476 H 143.262 4.7732 -0.412584 0
M  V30 1477 H 141.626 2.54404 -0.122777 0
M  V30 1478 H 142.409 2.95815 -1.74208 0
M  V30 1479 N 144.854 0.36279 1.53368 0
M  V30 1480 C 146.27 0.0116182 1.59596 0
M  V30 1481 C 146.47 -1.47012 1.37803 0
M  V30 1482 O 145.526 -2.23136 1.18181 0
M  V30 1483 C 146.839 0.465052 2.97082 0
M  V30 1484 C 148.387 0.419033 3.10182 0
M  V30 1485 C 148.862 0.848235 4.50077 0
M  V30 1486 N 150.353 0.803183 4.56183 0
M  V30 1487 C 151.088 1.107 5.62613 0
M  V30 1488 N 150.584 1.47996 6.76808 0
M  V30 1489 N 152.377 1.02998 5.52583 0
M  V30 1490 H 144.528 1.32775 1.65785 0
M  V30 1491 H 146.791 0.542518 0.777417 0
M  V30 1492 H 146.497 1.49892 3.18159 0
M  V30 1493 H 146.371 -0.149786 3.76902 0
M  V30 1494 H 148.758 -0.605696 2.88817 0
M  V30 1495 H 148.839 1.06933 2.32377 0
M  V30 1496 H 148.483 1.87107 4.7218 0
M  V30 1497 H 148.413 0.175218 5.26308 0
M  V30 1498 H 150.904 0.52838 3.74188 0
M  V30 1499 H 151.217 1.69613 7.53957 0
M  V30 1500 H 149.562 1.51859 6.78206 0
M  V30 1501 H 152.753 0.737817 4.62249 0
M  V30 1502 H 152.926 1.2701 6.35431 0
M  V30 1503 N 146.332 -1.57332 0.0918853 0
M  V30 1504 C 147.748 -1.57389 -0.264766 0
M  V30 1505 C 147.948 -1.10281 -1.68643 0
M  V30 1506 O 147.004 -0.777801 -2.40222 0
M  V30 1507 C 148.317 -3.00648 -0.0561195 0
M  V30 1508 C 149.865 -3.12754 -0.124116 0
M  V30 1509 C 150.34 -4.57965 0.0564972 0
M  V30 1510 N 151.831 -4.632 0.00155611 0
M  V30 1511 C 152.566 -5.73281 0.116598 0
M  V30 1512 N 152.062 -6.92208 0.286294 0
M  V30 1513 N 153.855 -5.6207 0.0580973 0
M  V30 1514 H 146.006 -1.86262 1.02079 0
M  V30 1515 H 148.269 -0.859579 0.399786 0
M  V30 1516 H 147.975 -3.393 0.925669 0
M  V30 1517 H 147.849 -3.68623 -0.799823 0
M  V30 1518 H 150.236 -2.73976 -1.09641 0
M  V30 1519 H 150.317 -2.47377 0.651024 0
M  V30 1520 H 149.961 -4.97436 1.02564 0
M  V30 1521 H 149.891 -5.21399 -0.738297 0
M  V30 1522 H 152.382 -3.77686 -0.127192 0
M  V30 1523 H 152.695 -7.71934 0.365676 0
M  V30 1524 H 151.04 -6.94254 0.32192 0
M  V30 1525 H 154.231 -4.68043 -0.0733204 0
M  V30 1526 H 154.404 -6.47824 0.151203 0
M  V30 1527 N 147.81 0.181792 -1.56548 0
M  V30 1528 C 148.773 1.20894 -1.94724 0
M  V30 1529 C 149.773 1.37738 -0.829747 0
M  V30 1530 O 150.963 1.35323 -1.09697 0
M  V30 1531 C 148.095 2.57593 -2.23291 0
M  V30 1532 H 149.288 0.882275 -2.86629 0
M  V30 1533 H 146.841 0.423838 -1.50444 0
M  V30 1534 H 147.576 2.95291 -1.34067 0
M  V30 1535 H 147.361 2.46735 -3.04736 0
M  V30 1536 H 148.851 3.31637 -2.53785 0
M  V30 1537 N 149.288 1.51039 0.449983 0
M  V30 1538 C 150.221 1.66105 1.56474 0
M  V30 1539 C 151.199 0.508776 1.54435 0
M  V30 1540 O 152.383 0.731005 1.73749 0
M  V30 1541 C 149.51 1.66304 2.9506 0
M  V30 1542 C 148.556 2.87346 3.15174 0
M  V30 1543 S 149.389 4.4835 2.92818 0
M  V30 1544 C 150.545 4.51274 4.33708 0
M  V30 1545 H 150.778 2.60397 1.43459 0
M  V30 1546 H 148.311 1.40565 0.638805 0
M  V30 1547 H 150.269 1.67103 3.74949 0
M  V30 1548 H 148.93 0.732108 3.05449 0
M  V30 1549 H 148.123 2.83849 4.16468 0
M  V30 1550 H 147.725 2.84223 2.43091 0
M  V30 1551 H 150.017 4.26136 5.26701 0
M  V30 1552 H 150.96 5.53017 4.42242 0
M  V30 1553 H 151.368 3.80738 4.16772 0
M  V30 1554 N 150.766 -0.704594 1.40972 0
M  V30 1555 C 152.015 -1.46018 1.39146 0
M  V30 1556 C 152.328 -1.956 0.000589254 0
M  V30 1557 O 153.534 -2.71137 -0.1403 0
M  V30 1558 C 151.99 -2.63996 2.4461 0
M  V30 1559 C 151.598 -2.21238 3.89561 0
M  V30 1560 C 153.342 -3.41677 2.51907 0
M  V30 1561 C 151.249 -3.3612 4.86598 0
M  V30 1562 H 150.179 -0.548444 0.517422 0
M  V30 1563 H 152.83 -0.765784 1.66757 0
M  V30 1564 H 151.212 -3.3566 2.10115 0
M  V30 1565 H 152.386 -1.56923 4.33257 0
M  V30 1566 H 150.701 -1.56574 3.85841 0
M  V30 1567 H 153.298 -4.27182 3.2159 0
M  V30 1568 H 153.641 -3.86247 1.55303 0
M  V30 1569 H 154.174 -2.77064 2.85448 0
M  V30 1570 H 150.913 -2.96572 5.84573 0
M  V30 1571 H 150.433 -3.99315 4.47557 0
M  V30 1572 H 152.112 -4.02029 5.06934 0
M  V30 1573 N 152.244 -1.26651 -0.937939 0
M  V30 1574 C 153.49 -1.12553 -1.687 0
M  V30 1575 C 153.823 0.329782 -1.91379 0
M  V30 1576 O 153.098 1.24202 -1.4968 0
M  V30 1577 C 153.381 -1.89862 -3.05981 0
M  V30 1578 C 153.234 -3.43318 -2.90607 0
M  V30 1579 C 154.553 -1.69499 -4.0615 0
M  V30 1580 H 151.672 -0.410257 -0.612257 0
M  V30 1581 H 154.314 -1.55685 -1.08913 0
M  V30 1582 H 152.464 -1.53204 -3.57017 0
M  V30 1583 H 154.136 -3.89747 -2.46769 0
M  V30 1584 H 152.379 -3.70179 -2.26164 0
M  V30 1585 H 153.05 -3.92642 -3.8799 0
M  V30 1586 H 155.526 -2.01442 -3.64088 0
M  V30 1587 H 154.402 -2.26002 -5.00214 0
M  V30 1588 H 154.663 -0.640365 -4.37438 0
M  V30 1589 N 153.722 1.14298 -1.08507 0
M  V30 1590 C 154.95 1.89219 -0.836876 0
M  V30 1591 C 155.365 1.78638 0.611054 0
M  V30 1592 O 154.722 1.14643 1.41998 0
M  V30 1593 C 154.773 3.39158 -1.25116 0
M  V30 1594 O 154.494 3.49449 -2.64229 0
M  V30 1595 C 155.995 4.31073 -1.03398 0
M  V30 1596 H 153.215 0.599328 -0.301739 0
M  V30 1597 H 155.759 1.44746 -1.44461 0
M  V30 1598 H 153.914 3.81251 -0.687514 0
M  V30 1599 H 154.328 4.42589 -2.81452 0
M  V30 1600 H 155.802 5.34646 -1.37323 0
M  V30 1601 H 156.279 4.3919 0.0289259 0
M  V30 1602 H 156.885 3.94738 -1.58311 0
M  V30 1603 N 155.201 0.870884 1.31352 0
M  V30 1604 C 156.612 0.534714 1.78879 0
M  V30 1605 C 156.963 -0.948423 1.71754 0
M  V30 1606 O 156.088 -1.74055 1.28584 0
M  V30 1607 C 156.683 0.963839 3.24801 0
M  V30 1608 C 155.242 0.679311 3.70219 0
M  V30 1609 C 154.389 1.15465 2.52117 0
M  V30 1610 H 157.34 1.05651 1.18421 0
M  V30 1611 H 157.361 0.286892 3.79417 0
M  V30 1612 H 156.873 2.04332 3.29955 0
M  V30 1613 H 154.974 -0.388769 3.70566 0
M  V30 1614 H 155.087 1.25698 4.62317 0
M  V30 1615 H 153.451 0.574383 2.48139 0
M  V30 1616 H 154.234 2.24157 2.60016 0
M  V30 1617 N 156.679 -1.44442 0.630414 0
M  V30 1618 C 157.927 -2.01653 0.134351 0
M  V30 1619 C 158.248 -1.49836 -1.24796 0
M  V30 1620 O 157.518 -0.701684 -1.82902 0
M  V30 1621 H 156.098 -0.74554 0.0466769 0
M  V30 1622 H 158.76 -1.76952 0.816955 0
M  V30 1623 H 157.856 -3.11935 0.101498 0
M  V30 1624 N 158.157 -0.370918 -1.53173 0
M  V30 1625 C 159.404 0.217102 -2.01333 0
M  V30 1626 C 159.732 1.48338 -1.25802 0
M  V30 1627 O 158.987 1.92698 -0.34146 0
M  V30 1628 C 159.286 0.549696 -3.53147 0
M  V30 1629 C 158.952 -0.622872 -4.46577 0
M  V30 1630 C 157.614 -0.944595 -4.71838 0
M  V30 1631 C 159.966 -1.40819 -5.01816 0
M  V30 1632 C 157.294 -2.05351 -5.49589 0
M  V30 1633 C 159.646 -2.50757 -5.80778 0
M  V30 1634 C 158.31 -2.83458 -6.04324 0
M  V30 1635 H 157.58 0.0794431 -0.736729 0
M  V30 1636 H 160.227 -0.504481 -1.84736 0
M  V30 1637 H 158.532 1.35237 -3.6772 0
M  V30 1638 H 160.229 1.017 -3.87889 0
M  V30 1639 H 156.819 -0.36209 -4.27068 0
M  V30 1640 H 161.003 -1.17289 -4.82242 0
M  V30 1641 H 156.259 -2.3108 -5.6605 0
M  V30 1642 H 160.433 -3.12022 -6.22588 0
M  V30 1643 H 158.06 -3.69508 -6.64355 0
M  V30 1644 N 159.635 1.57281 -0.100228 0
M  V30 1645 C 160.598 2.13158 0.842398 0
M  V30 1646 C 161.598 1.06202 1.20738 0
M  V30 1647 O 162.788 1.32066 1.13597 0
M  V30 1648 C 159.92 2.65639 2.13655 0
M  V30 1649 H 161.113 2.97766 0.357114 0
M  V30 1650 H 158.666 1.5559 0.148823 0
M  V30 1651 H 159.401 1.84566 2.66657 0
M  V30 1652 H 159.186 3.43844 1.88451 0
M  V30 1653 H 160.676 3.08846 2.81077 0
M  V30 1654 N 161.113 -0.173488 1.56642 0
M  V30 1655 C 162.023 -1.23482 1.99473 0
M  V30 1656 C 163.039 -1.48567 0.905752 0
M  V30 1657 O 164.215 -1.60758 1.21321 0
M  V30 1658 C 161.28 -2.55444 2.34413 0
M  V30 1659 C 160.341 -2.38241 3.57127 0
M  V30 1660 C 159.574 -3.63909 3.90392 0
M  V30 1661 O 159.797 -4.68996 3.24653 0
M  V30 1662 O 158.731 -3.58149 4.83749 0
M  V30 1663 H 162.557 -0.901279 2.90018 0
M  V30 1664 H 160.142 -0.380185 1.44482 0
M  V30 1665 H 162.024 -3.33292 2.57865 0
M  V30 1666 H 160.699 -2.88382 1.4703 0
M  V30 1667 H 159.606 -1.58431 3.38896 0
M  V30 1668 H 160.939 -2.10228 4.45045 0
M  V30 1669 N 162.591 -1.51276 -0.441967 0
M  V30 1670 C 163.821 -1.67273 -1.21257 0
M  V30 1671 C 164.229 -0.367624 -1.85594 0
M  V30 1672 O 163.572 0.663349 -1.71305 0
M  V30 1673 C 163.634 -2.72807 -2.34129 0
M  V30 1674 C 163.298 -4.1554 -1.90198 0
M  V30 1675 C 164.295 -5.00471 -1.40801 0
M  V30 1676 C 161.98 -4.61616 -1.9803 0
M  V30 1677 C 163.974 -6.29536 -0.998174 0
M  V30 1678 C 161.661 -5.90679 -1.56658 0
M  V30 1679 C 162.659 -6.74466 -1.07633 0
M  V30 1680 O 162.347 -8.01116 -0.668459 0
M  V30 1681 H 162.079 -0.564614 -0.371734 0
M  V30 1682 H 164.633 -1.9843 -0.530521 0
M  V30 1683 H 162.863 -2.36954 -3.05597 0
M  V30 1684 H 164.552 -2.77729 -2.96009 0
M  V30 1685 H 165.318 -4.66079 -1.34148 0
M  V30 1686 H 161.197 -3.96526 -2.35135 0
M  V30 1687 H 164.741 -6.94885 -0.61482 0
M  V30 1688 H 160.638 -6.24586 -1.62979 0
M  V30 1689 H 161.406 -8.14633 -0.794722 0
M  V30 1690 N 164.069 0.697108 -1.41344 0
M  V30 1691 C 165.317 1.45426 -1.40341 0
M  V30 1692 C 165.638 1.94996 -0.0128787 0
M  V30 1693 O 164.908 1.71599 0.945027 0
M  V30 1694 H 163.488 0.539594 -0.516573 0
M  V30 1695 H 166.15 0.825201 -1.76569 0
M  V30 1696 H 165.246 2.31817 -2.08967 0
M  V30 1697 N 165.547 1.27147 0.931209 0
M  V30 1698 C 166.963 1.04475 1.20653 0
M  V30 1699 C 167.163 -0.223885 2.00252 0
M  V30 1700 O 166.219 -0.930332 2.34736 0
M  V30 1701 C 167.532 2.28209 1.95809 0
M  V30 1702 C 169.08 2.33211 2.08762 0
M  V30 1703 C 169.555 3.56665 2.87323 0
M  V30 1704 N 171.046 3.57201 2.94892 0
M  V30 1705 C 171.781 4.49395 3.56134 0
M  V30 1706 N 171.277 5.51889 4.18796 0
M  V30 1707 N 173.07 4.37026 3.53504 0
M  V30 1708 H 165.221 2.08612 0.399333 0
M  V30 1709 H 167.484 0.917312 0.239253 0
M  V30 1710 H 167.19 3.20538 1.44736 0
M  V30 1711 H 167.064 2.33247 2.96438 0
M  V30 1712 H 169.451 1.41391 2.59023 0
M  V30 1713 H 169.532 2.32178 1.07364 0
M  V30 1714 H 169.176 4.4882 2.37746 0
M  V30 1715 H 169.106 3.54948 3.88998 0
M  V30 1716 H 171.597 2.83074 2.50354 0
M  V30 1717 H 171.91 6.18409 4.63454 0
M  V30 1718 H 170.255 5.55735 4.17353 0
M  V30 1719 H 173.446 3.56166 3.03749 0
M  V30 1720 H 173.619 5.09067 4.00942 0
M  V30 1721 N 167.025 -1.13721 1.09112 0
M  V30 1722 C 167.988 -2.17222 0.731241 0
M  V30 1723 C 168.988 -1.59035 -0.237566 0
M  V30 1724 O 170.178 -1.74192 -0.0161704 0
M  V30 1725 C 167.31 -3.40804 0.0808443 0
M  V30 1726 H 168.503 -2.50573 1.64783 0
M  V30 1727 H 166.056 -1.28493 0.889897 0
M  V30 1728 H 166.791 -3.1304 -0.847127 0
M  V30 1729 H 166.576 -3.84306 0.777896 0
M  V30 1730 H 168.066 -4.1731 -0.155657 0
M  V30 1731 N 168.503 -0.877838 -1.30888 0
M  V30 1732 C 169.433 -0.35534 -2.3078 0
M  V30 1733 C 170.414 0.557994 -1.60687 0
M  V30 1734 O 171.599 0.473355 -1.88343 0
M  V30 1735 C 168.729 0.437221 -3.44537 0
M  V30 1736 C 167.683 -0.383715 -4.26276 0
M  V30 1737 C 167.009 0.535014 -5.32017 0
M  V30 1738 C 168.309 -1.62201 -4.96476 0
M  V30 1739 H 170.003 -1.19007 -2.74732 0
M  V30 1740 H 167.549 -0.573698 -1.32078 0
M  V30 1741 H 169.502 0.813334 -4.13477 0
M  V30 1742 H 168.226 1.30553 -2.99372 0
M  V30 1743 H 166.885 -0.741874 -3.59015 0
M  V30 1744 H 166.533 1.40083 -4.831 0
M  V30 1745 H 166.233 -0.0104211 -5.87599 0
M  V30 1746 H 167.757 0.907799 -6.03814 0
M  V30 1747 H 169.171 -1.31689 -5.5797 0
M  V30 1748 H 167.568 -2.10711 -5.61891 0
M  V30 1749 H 168.638 -2.37044 -4.23011 0
M  V30 1750 N 169.982 1.44106 -0.638065 0
M  V30 1751 C 170.945 2.29138 0.0531013 0
M  V30 1752 C 171.945 1.41409 0.765506 0
M  V30 1753 O 173.135 1.63206 0.609046 0
M  V30 1754 C 170.267 3.23144 1.08584 0
M  V30 1755 H 171.46 2.91739 -0.694883 0
M  V30 1756 H 169.013 1.51134 -0.398538 0
M  V30 1757 H 169.748 2.65408 1.86357 0
M  V30 1758 H 169.533 3.87804 0.578852 0
M  V30 1759 H 171.023 3.87004 1.56899 0
M  V30 1760 N 171.46 0.379036 1.52974 0
M  V30 1761 C 172.392 -0.495963 2.2377 0
M  V30 1762 C 173.405 -1.03517 1.25651 0
M  V30 1763 O 174.594 -0.939249 1.51791 0
M  V30 1764 C 171.694 -1.69894 2.93239 0
M  V30 1765 C 170.867 -1.2889 4.17979 0
M  V30 1766 C 169.926 -2.35543 4.70538 0
M  V30 1767 O 168.952 -1.97375 5.33883 0
M  V30 1768 N 170.154 -3.67318 4.49508 0
M  V30 1769 H 172.919 0.110523 2.99496 0
M  V30 1770 H 170.48 0.204878 1.60598 0
M  V30 1771 H 172.472 -2.40747 3.25304 0
M  V30 1772 H 171.042 -2.212 2.20883 0
M  V30 1773 H 170.262 -0.409676 3.92065 0
M  V30 1774 H 171.55 -0.991443 4.99047 0
M  V30 1775 H 170.948 -4.01095 3.98923 0
M  V30 1776 H 169.505 -4.34235 4.8609 0
M  V30 1777 N 172.938 -1.57226 0.108567 0
M  V30 1778 C 174.163 -1.99604 -0.563303 0
M  V30 1779 C 174.588 -0.987563 -1.6009 0
M  V30 1780 O 173.946 0.0421687 -1.81251 0
M  V30 1781 C 173.994 -3.40902 -1.17552 0
M  V30 1782 O 173.098 -3.42896 -2.2912 0
M  V30 1783 H 172.439 -0.648704 -0.1417 0
M  V30 1784 H 174.969 -2.03679 0.193961 0
M  V30 1785 H 174.979 -3.78886 -1.51357 0
M  V30 1786 H 173.654 -4.1382 -0.415445 0
M  V30 1787 H 172.231 -3.1672 -1.96832 0
M  V30 1788 N 174.416 0.165178 -1.56732 0
M  V30 1789 C 175.664 0.879068 -1.8198 0
M  V30 1790 C 175.985 1.82514 -0.686561 0
M  V30 1791 O 175.255 1.93694 0.293146 0
M  V30 1792 H 173.835 0.327608 -0.671329 0
M  V30 1793 H 176.497 0.163526 -1.94213 0
M  V30 1794 H 175.593 1.45228 -2.76252 0
M  V30 1795 N 175.894 1.51508 0.433938 0
M  V30 1796 C 177.134 1.66006 1.19253 0
M  V30 1797 C 177.498 0.369868 1.88404 0
M  V30 1798 O 178.699 0.39066 2.65946 0
M  V30 1799 C 176.97 2.83229 2.17981 0
M  V30 1800 S 178.529 3.18075 3.02281 0
M  V30 1801 H 175.347 0.584821 0.404358 0
M  V30 1802 H 177.949 1.89425 0.48357 0
M  V30 1803 H 176.653 3.75407 1.65824 0
M  V30 1804 H 176.184 2.6201 2.93453 0
M  V30 1805 H 178.199 2.64772 4.19655 0
M  V30 1806 N 177.372 -0.689602 1.41712 0
M  V30 1807 C 178.282 -1.83314 1.46401 0
M  V30 1808 C 179.298 -1.7036 0.35405 0
M  V30 1809 O 180.474 -1.92171 0.602692 0
M  V30 1810 C 177.539 -3.19344 1.34982 0
M  V30 1811 C 176.6 -3.44363 2.56344 0
M  V30 1812 C 175.833 -4.73904 2.45461 0
M  V30 1813 O 176.056 -5.508 1.48241 0
M  V30 1814 O 174.99 -4.99839 3.35328 0
M  V30 1815 H 178.816 -1.82314 2.42889 0
M  V30 1816 H 176.401 -0.843438 1.23315 0
M  V30 1817 H 178.283 -4.00547 1.3092 0
M  V30 1818 H 176.958 -3.21014 0.41612 0
M  V30 1819 H 175.865 -2.63067 2.65982 0
M  V30 1820 H 177.198 -3.47512 3.48563 0
M  V30 1821 N 178.85 -1.27639 -0.924453 0
M  V30 1822 C 180.099 -1.13549 -1.66702 0
M  V30 1823 C 180.412 0.317487 -1.93006 0
M  V30 1824 O 181.618 0.579333 -2.65247 0
M  V30 1825 C 180.074 -1.98426 -3.00259 0
M  V30 1826 C 179.682 -3.484 -2.81641 0
M  V30 1827 C 181.426 -1.92993 -3.78092 0
M  V30 1828 C 179.333 -4.25464 -4.10773 0
M  V30 1829 H 178.263 -0.421351 -0.625283 0
M  V30 1830 H 180.914 -1.52085 -1.02676 0
M  V30 1831 H 179.296 -1.52736 -3.6536 0
M  V30 1832 H 180.47 -4.01973 -2.25287 0
M  V30 1833 H 178.785 -3.55245 -2.17232 0
M  V30 1834 H 181.382 -2.47844 -4.7379 0
M  V30 1835 H 181.725 -0.904281 -4.0636 0
M  V30 1836 H 182.258 -2.36595 -3.19793 0
M  V30 1837 H 178.997 -5.28566 -3.87683 0
M  V30 1838 H 178.517 -3.76667 -4.66779 0
M  V30 1839 H 180.196 -4.34812 -4.79111 0
M  V30 1840 N 180.328 1.1314 -1.09713 0
M  V30 1841 C 181.744 1.36477 -0.827423 0
M  V30 1842 C 181.944 1.93654 0.556817 0
M  V30 1843 O 181 2.15791 1.31112 0
M  V30 1844 C 182.313 2.31334 -1.92106 0
M  V30 1845 C 183.861 2.44943 -1.94864 0
M  V30 1846 C 184.336 3.4311 -3.0338 0
M  V30 1847 N 185.827 3.50662 -3.02639 0
M  V30 1848 C 186.562 4.2651 -3.83246 0
M  V30 1849 N 186.058 5.05485 -4.73768 0
M  V30 1850 N 187.851 4.2184 -3.71493 0
M  V30 1851 H 180.002 0.743807 -1.9895 0
M  V30 1852 H 182.265 0.389823 -0.864143 0
M  V30 1853 H 181.971 1.96483 -2.91698 0
M  V30 1854 H 181.845 3.31381 -1.80184 0
M  V30 1855 H 184.232 2.79079 -0.959099 0
M  V30 1856 H 184.313 1.4481 -2.10864 0
M  V30 1857 H 183.957 3.09704 -4.02549 0
M  V30 1858 H 183.887 4.43055 -2.84622 0
M  V30 1859 H 186.378 2.94315 -2.37039 0
M  V30 1860 H 186.691 5.60675 -5.3185 0
M  V30 1861 H 185.036 5.04708 -4.77802 0
M  V30 1862 H 188.227 3.5922 -3.00131 0
M  V30 1863 H 188.4 4.80697 -4.3455 0
M  V30 1864 N 181.806 0.884767 1.30421 0
M  V30 1865 C 183.222 0.57874 1.48737 0
M  V30 1866 C 183.422 -0.883567 1.81095 0
M  V30 1867 O 182.478 -1.6648 1.89844 0
M  V30 1868 C 183.791 1.49171 2.61091 0
M  V30 1869 C 185.339 1.49532 2.74971 0
M  V30 1870 C 185.814 2.39421 3.90438 0
M  V30 1871 N 187.305 2.37383 3.97748 0
M  V30 1872 C 188.04 3.03647 4.86401 0
M  V30 1873 N 187.536 3.79136 5.79852 0
M  V30 1874 N 189.329 2.9288 4.79768 0
M  V30 1875 H 181.48 1.83075 1.0769 0
M  V30 1876 H 183.743 0.783637 0.533495 0
M  V30 1877 H 183.449 2.53291 2.44001 0
M  V30 1878 H 183.323 1.20113 3.57565 0
M  V30 1879 H 185.71 0.46163 2.91467 0
M  V30 1880 H 185.791 1.8262 1.79119 0
M  V30 1881 H 185.435 3.42874 3.74699 0
M  V30 1882 H 185.365 2.03649 4.85628 0
M  V30 1883 H 187.856 1.82525 3.30897 0
M  V30 1884 H 188.169 4.26789 6.4426 0
M  V30 1885 H 186.514 3.83243 5.79784 0
M  V30 1886 H 189.705 2.33433 4.05742 0
M  V30 1887 H 189.878 3.448 5.4865 0
M  V30 1888 N 183.284 -1.43765 0.645699 0
M  V30 1889 C 184.53 -2.02731 0.164844 0
M  V30 1890 C 184.885 -1.49983 -1.2051 0
M  V30 1891 O 184.178 -0.680208 -1.79119 0
M  V30 1892 C 184.372 -3.57238 0.107679 0
M  V30 1893 C 184.201 -4.24977 1.47054 0
M  V30 1894 C 182.971 -4.61356 2.06103 0
M  V30 1895 C 185.169 -4.54476 2.40741 0
M  V30 1896 N 183.151 -5.14132 3.35473 0
M  V30 1897 C 184.522 -5.08489 3.54737 0
M  V30 1898 C 186.577 -4.36438 2.39637 0
M  V30 1899 C 185.28 -5.46364 4.67845 0
M  V30 1900 C 187.306 -4.7537 3.5182 0
M  V30 1901 C 186.668 -5.2951 4.64541 0
M  V30 1902 H 182.767 -0.774976 0.104578 0
M  V30 1903 H 185.351 -1.75051 0.852367 0
M  V30 1904 H 183.522 -3.84498 -0.549165 0
M  V30 1905 H 185.254 -4.0288 -0.383351 0
M  V30 1906 H 182.009 -4.46151 1.58892 0
M  V30 1907 H 182.433 -5.4498 4.01654 0
M  V30 1908 H 187.075 -3.93861 1.53731 0
M  V30 1909 H 184.793 -5.87888 5.54448 0
M  V30 1910 H 188.379 -4.63115 3.52159 0
M  V30 1911 H 187.259 -5.59077 5.49911 0
M  V30 1912 N 184.763 -0.387143 -1.52771 0
M  V30 1913 C 185.988 0.198407 -2.06449 0
M  V30 1914 C 186.413 1.39918 -1.25716 0
M  V30 1915 O 185.771 1.79099 -0.281657 0
M  V30 1916 C 185.819 0.548893 -3.56398 0
M  V30 1917 O 184.923 1.64315 -3.78252 0
M  V30 1918 H 184.264 0.0237731 -0.663574 0
M  V30 1919 H 186.794 -0.553989 -1.96957 0
M  V30 1920 H 186.804 0.813812 -3.99801 0
M  V30 1921 H 185.479 -0.329005 -4.14597 0
M  V30 1922 H 184.056 1.37211 -3.46738 0
M  V30 1923 N 186.241 1.57166 -0.116904 0
M  V30 1924 C 187.171 2.18222 0.830759 0
M  V30 1925 C 188.152 1.12167 1.27877 0
M  V30 1926 O 189.337 1.40394 1.34176 0
M  V30 1927 C 186.467 2.77996 2.08172 0
M  V30 1928 C 185.421 3.89614 1.77157 0
M  V30 1929 C 184.747 4.36187 3.09265 0
M  V30 1930 C 186.047 5.1181 1.04151 0
M  V30 1931 H 187.741 2.97664 0.321992 0
M  V30 1932 H 185.287 1.4318 0.153434 0
M  V30 1933 H 187.24 3.19366 2.74924 0
M  V30 1934 H 185.964 1.9584 2.6137 0
M  V30 1935 H 184.623 3.48816 1.12796 0
M  V30 1936 H 184.271 3.50893 3.60393 0
M  V30 1937 H 183.971 5.11455 2.89288 0
M  V30 1938 H 185.495 4.80207 3.77139 0
M  V30 1939 H 186.909 5.50214 1.61052 0
M  V30 1940 H 185.306 5.92648 0.942762 0
M  V30 1941 H 186.376 4.84892 0.0279022 0
M  V30 1942 N 187.719 -0.156864 1.56817 0
M  V30 1943 C 189.135 -0.50916 1.5126 0
M  V30 1944 C 189.335 -1.83897 0.823658 0
M  V30 1945 O 188.391 -2.49469 0.390055 0
M  V30 1946 C 189.704 -0.52857 2.96018 0
M  V30 1947 C 191.252 -0.614771 3.06903 0
M  V30 1948 C 191.727 -0.664938 4.53147 0
M  V30 1949 N 193.218 -0.727433 4.57452 0
M  V30 1950 C 193.953 -0.787067 5.67973 0
M  V30 1951 N 193.449 -0.806649 6.88088 0
M  V30 1952 N 195.242 -0.827195 5.5598 0
M  V30 1953 H 187.393 0.714935 2.00006 0
M  V30 1954 H 189.656 0.259526 0.911784 0
M  V30 1955 H 189.362 0.380154 3.49639 0
M  V30 1956 H 189.236 -1.36998 3.51442 0
M  V30 1957 H 191.623 -1.51392 2.53307 0
M  V30 1958 H 191.704 0.253597 2.5454 0
M  V30 1959 H 191.348 0.230011 5.07379 0
M  V30 1960 H 191.278 -1.54966 5.03282 0
M  V30 1961 H 193.769 -0.719998 3.70978 0
M  V30 1962 H 194.082 -0.853727 7.6807 0
M  V30 1963 H 192.427 -0.774687 6.90669 0
M  V30 1964 H 195.618 -0.808998 4.61056 0
M  V30 1965 H 195.791 -0.870206 6.4213 0
M  V30 1966 N 189.197 -1.51736 -0.425897 0
M  V30 1967 C 190.107 -1.76738 -1.54275 0
M  V30 1968 C 191.123 -0.65211 -1.61318 0
M  V30 1969 O 192.299 -0.935654 -1.78346 0
M  V30 1970 C 189.364 -1.89755 -2.90162 0
M  V30 1971 C 188.425 -3.13633 -2.93143 0
M  V30 1972 C 187.658 -3.2602 -4.22548 0
M  V30 1973 O 187.881 -2.44067 -5.15546 0
M  V30 1974 O 186.815 -4.19071 -4.32046 0
M  V30 1975 H 190.641 -2.71502 -1.36089 0
M  V30 1976 H 188.226 -1.36376 -0.610069 0
M  V30 1977 H 190.108 -2.00236 -3.70788 0
M  V30 1978 H 188.783 -0.981785 -3.08452 0
M  V30 1979 H 187.69 -3.08622 -2.11431 0
M  V30 1980 H 189.023 -4.04936 -2.798 0
M  V30 1981 N 190.675 0.682077 -1.42076 0
M  V30 1982 C 191.638 1.77756 -1.44691 0
M  V30 1983 C 192.638 1.5726 -0.335535 0
M  V30 1984 O 193.828 1.63686 -0.596037 0
M  V30 1985 C 190.96 3.16301 -1.27146 0
M  V30 1986 H 192.153 1.76826 -2.42224 0
M  V30 1987 H 189.706 0.891012 -1.28416 0
M  V30 1988 H 190.441 3.22862 -0.305075 0
M  V30 1989 H 190.226 3.32581 -2.07683 0
M  V30 1990 H 191.716 3.96241 -1.31843 0
M  V30 1991 N 192.153 1.28127 0.917671 0
M  V30 1992 C 193.43 1.05761 1.64542 0
M  V30 1993 C 193.81 -0.404344 2.07191 0
M  V30 1994 O 193.158 -1.38963 1.81388 0
M  V30 1995 C 193.368 2.02857 2.83989 0
M  V30 1996 C 194.716 2.32786 3.551 0
M  V30 1997 O 195.74 2.0091 2.94132 0
M  V30 1998 O 194.599 2.87169 4.64969 0
M  V30 1999 H 191.693 0.403916 0.721652 0
M  V30 2000 H 194.239 1.39431 0.967322 0
M  V30 2001 H 193.011 3.01407 2.49538 0
M  V30 2002 H 192.634 1.69809 3.59514 0
M  V30 2003 N 193.631 -1.12557 1.10312 0
M  V30 2004 C 194.879 -1.83675 0.843091 0
M  V30 2005 C 195.2 -1.84435 -0.633131 0
M  V30 2006 O 194.47 -1.30657 -1.45964 0
M  V30 2007 H 193.05 -0.680138 0.308904 0
M  V30 2008 H 195.712 -1.36301 1.39313 0
M  V30 2009 H 194.808 -2.87908 1.2048 0
M  V30 2010 N 195.109 -0.891671 -1.2995 0
M  V30 2011 C 196.355 -0.523649 -1.96544 0
M  V30 2012 C 196.71 0.918394 -1.69066 0
M  V30 2013 O 196.003 1.64122 -0.988659 0
M  V30 2014 C 196.197 -0.742868 -3.49594 0
M  V30 2015 C 196.026 -2.20467 -3.9195 0
M  V30 2016 C 194.796 -2.85055 -4.17219 0
M  V30 2017 C 196.994 -3.17912 -4.04273 0
M  V30 2018 N 194.976 -4.21762 -4.46083 0
M  V30 2019 C 196.347 -4.39712 -4.37097 0
M  V30 2020 C 198.402 -3.1361 -3.86721 0
M  V30 2021 C 197.105 -5.5776 -4.54199 0
M  V30 2022 C 199.131 -4.30936 -4.05028 0
M  V30 2023 C 198.493 -5.51504 -4.38204 0
M  V30 2024 H 194.592 -0.241072 -0.743914 0
M  V30 2025 H 197.176 -1.15081 -1.5705 0
M  V30 2026 H 195.347 -0.14515 -3.88129 0
M  V30 2027 H 197.079 -0.341081 -4.0326 0
M  V30 2028 H 193.834 -2.35889 -4.10674 0
M  V30 2029 H 194.258 -4.92382 -4.64638 0
M  V30 2030 H 198.9 -2.21489 -3.60142 0
M  V30 2031 H 196.618 -6.50379 -4.79618 0
M  V30 2032 H 200.204 -4.29085 -3.92909 0
M  V30 2033 H 199.084 -6.40778 -4.52077 0
M  V30 2034 N 196.587 1.43421 -0.653314 0
M  V30 2035 C 197.519 2.29071 0.0769134 0
M  V30 2036 C 198.532 1.42513 0.787017 0
M  V30 2037 O 199.721 1.66449 0.644757 0
M  V30 2038 C 196.821 3.19436 1.13199 0
M  V30 2039 C 195.994 4.34533 0.500006 0
M  V30 2040 C 195.053 5.05771 1.45198 0
M  V30 2041 O 194.079 5.61037 0.960538 0
M  V30 2042 N 195.281 5.0928 2.78594 0
M  V30 2043 H 198.046 2.92382 -0.658235 0
M  V30 2044 H 195.607 1.54112 -0.496104 0
M  V30 2045 H 197.599 3.63958 1.76964 0
M  V30 2046 H 196.169 2.57724 1.7691 0
M  V30 2047 H 195.389 3.92925 -0.316738 0
M  V30 2048 H 196.677 5.08766 0.0588345 0
M  V30 2049 H 196.075 4.65751 3.2108 0
M  V30 2050 H 194.632 5.57519 3.37662 0
M  V30 2051 N 198.065 0.39524 1.52563 0
M  V30 2052 C 198.995 -0.428384 2.29537 0
M  V30 2053 C 199.976 -1.05831 1.33169 0
M  V30 2054 O 201.161 -1.06995 1.62067 0
M  V30 2055 C 198.291 -1.55274 3.10656 0
M  V30 2056 C 197.245 -1.04855 4.14957 0
M  V30 2057 C 196.571 -2.26543 4.84337 0
M  V30 2058 C 197.871 -0.112324 5.22179 0
M  V30 2059 H 199.565 0.213867 2.98635 0
M  V30 2060 H 197.111 0.104298 1.43622 0
M  V30 2061 H 199.064 -2.1358 3.63265 0
M  V30 2062 H 197.788 -2.22266 2.39302 0
M  V30 2063 H 196.447 -0.487985 3.63338 0
M  V30 2064 H 196.095 -2.92059 4.09525 0
M  V30 2065 H 195.795 -1.93466 5.54837 0
M  V30 2066 H 197.319 -2.85481 5.39753 0
M  V30 2067 H 198.733 -0.603752 5.70112 0
M  V30 2068 H 197.13 0.128968 5.99961 0
M  V30 2069 H 198.2 0.837052 4.77621 0
M  V30 2070 N 199.544 -1.57102 0.125237 0
M  V30 2071 C 200.772 -1.99761 -0.538797 0
M  V30 2072 C 201.187 -1.00503 -1.59827 0
M  V30 2073 O 200.544 0.00119474 -1.825 0
M  V30 2074 C 200.595 -3.42408 -1.15927 0
M  V30 2075 O 200.316 -4.37869 -0.142143 0
M  V30 2076 C 201.817 -4.00232 -1.90602 0
M  V30 2077 H 199.037 -0.655772 -0.14214 0
M  V30 2078 H 201.581 -2.03383 0.213413 0
M  V30 2079 H 199.736 -3.39706 -1.86223 0
M  V30 2080 H 200.15 -5.21128 -0.593775 0
M  V30 2081 H 201.624 -5.02105 -2.29335 0
M  V30 2082 H 202.101 -3.39721 -2.78363 0
M  V30 2083 H 202.707 -4.06499 -1.25055 0
M  V30 2084 N 201.022 0.148545 -1.56898 0
M  V30 2085 C 202.299 0.890019 -1.74178 0
M  V30 2086 C 202.679 1.99407 -0.692839 0
M  V30 2087 O 202.027 2.26671 0.288505 0
M  V30 2088 C 202.237 1.43389 -3.18183 0
M  V30 2089 C 203.585 1.89791 -3.79822 0
M  V30 2090 O 204.609 1.53134 -3.21603 0
M  V30 2091 O 203.468 2.57387 -4.82093 0
M  V30 2092 H 200.562 0.420496 -0.712118 0
M  V30 2093 H 203.108 0.134591 -1.69165 0
M  V30 2094 H 201.88 0.640383 -3.86024 0
M  V30 2095 H 201.503 2.25287 -3.27615 0
M  V30 2096 N 202.5 1.5196 0.417844 0
M  V30 2097 C 203.463 1.74065 1.49111 0
M  V30 2098 C 204.463 0.610537 1.48758 0
M  V30 2099 O 205.653 0.87832 1.50437 0
M  V30 2100 C 202.785 1.81502 2.88565 0
M  V30 2101 H 203.978 2.69869 1.30807 0
M  V30 2102 H 201.531 1.42244 0.647785 0
M  V30 2103 H 202.266 0.875813 3.1225 0
M  V30 2104 H 202.051 2.63651 2.90225 0
M  V30 2105 H 203.541 2.00376 3.66387 0
M  V30 2106 N 203.978 -0.674533 1.42435 0
M  V30 2107 C 205.227 -1.43034 1.42212 0
M  V30 2108 C 205.54 -1.95555 0.0420788 0
M  V30 2109 O 206.746 -2.71374 -0.0827558 0
M  V30 2110 C 205.202 -2.58748 2.50155 0
M  V30 2111 C 204.81 -2.12925 3.94166 0
M  V30 2112 C 206.554 -3.36257 2.59098 0
M  V30 2113 C 204.461 -3.25723 4.93618 0
M  V30 2114 H 203.391 -0.537345 0.528939 0
M  V30 2115 H 206.042 -0.73024 1.68344 0
M  V30 2116 H 204.424 -3.31128 2.17188 0
M  V30 2117 H 205.598 -1.47697 4.36488 0
M  V30 2118 H 203.913 -1.48354 3.89076 0
M  V30 2119 H 206.51 -4.20264 3.30578 0
M  V30 2120 H 206.853 -3.82866 1.63461 0
M  V30 2121 H 207.386 -2.70947 2.9126 0
M  V30 2122 H 204.125 -2.84105 5.90732 0
M  V30 2123 H 203.645 -3.89732 4.55926 0
M  V30 2124 H 205.324 -3.91186 5.15347 0
M  V30 2125 N 205.456 -1.28612 -0.910864 0
M  V30 2126 C 206.386 -1.15326 -2.03032 0
M  V30 2127 C 207.367 -0.0502924 -1.70026 0
M  V30 2128 O 208.552 -0.227797 -1.92859 0
M  V30 2129 C 205.682 -0.817343 -3.37545 0
M  V30 2130 C 204.636 -1.8754 -3.84724 0
M  V30 2131 C 203.962 -1.39305 -5.16235 0
M  V30 2132 C 205.262 -3.28244 -4.06267 0
M  V30 2133 H 206.956 -2.08975 -2.14406 0
M  V30 2134 H 204.502 -1.00612 -1.03021 0
M  V30 2135 H 206.455 -0.711151 -4.15356 0
M  V30 2136 H 205.179 0.154846 -3.26233 0
M  V30 2137 H 203.838 -1.97079 -3.09121 0
M  V30 2138 H 203.486 -0.409846 -5.01328 0
M  V30 2139 H 203.186 -2.10057 -5.48771 0
M  V30 2140 H 204.71 -1.30014 -5.96598 0
M  V30 2141 H 206.124 -3.21611 -4.74594 0
M  V30 2142 H 204.521 -3.96855 -4.5014 0
M  V30 2143 H 205.591 -3.72048 -3.10979 0
M  V30 2144 N 206.934 1.1197 -1.10907 0
M  V30 2145 C 207.844 2.21433 -0.774896 0
M  V30 2146 C 208.86 1.72478 0.229657 0
M  V30 2147 O 210.036 2.01288 0.0672008 0
M  V30 2148 C 207.101 3.4602 -0.216986 0
M  V30 2149 C 206.162 4.09791 -1.27944 0
M  V30 2150 C 205.395 5.28431 -0.748055 0
M  V30 2151 O 205.618 5.68823 0.423833 0
M  V30 2152 O 204.552 5.82644 -1.51027 0
M  V30 2153 H 208.378 2.5242 -1.68873 0
M  V30 2154 H 205.963 1.20399 -0.884555 0
M  V30 2155 H 207.845 4.21304 0.090059 0
M  V30 2156 H 206.52 3.16698 0.669633 0
M  V30 2157 H 205.427 3.36265 -1.63941 0
M  V30 2158 H 206.76 4.4328 -2.13925 0
M  V30 2159 N 208.412 0.89855 1.29475 0
M  V30 2160 C 209.375 0.380272 2.26023 0
M  V30 2161 C 210.375 -0.484891 1.53315 0
M  V30 2162 O 211.565 -0.290108 1.71767 0
M  V30 2163 C 208.697 -0.45651 3.3783 0
M  V30 2164 H 209.89 1.23295 2.73383 0
M  V30 2165 H 207.443 0.676589 1.40897 0
M  V30 2166 H 208.178 -1.32922 2.95808 0
M  V30 2167 H 207.963 0.163393 3.91759 0
M  V30 2168 H 209.453 -0.810466 4.0966 0
M  V30 2169 N 209.89 -1.43072 0.660911 0
M  V30 2170 C 210.82 -2.33497 -0.0122829 0
M  V30 2171 C 211.801 -1.49903 -0.803925 0
M  V30 2172 O 212.986 -1.78546 -0.763864 0
M  V30 2173 C 210.116 -3.33363 -0.973994 0
M  V30 2174 C 209.07 -4.27003 -0.291928 0
M  V30 2175 C 208.396 -5.16967 -1.36562 0
M  V30 2176 C 209.696 -5.15816 0.820462 0
M  V30 2177 H 211.39 -2.90038 0.742873 0
M  V30 2178 H 208.936 -1.39461 0.358688 0
M  V30 2179 H 210.889 -3.95524 -1.45392 0
M  V30 2180 H 209.613 -2.75095 -1.7604 0
M  V30 2181 H 208.272 -3.66217 0.167623 0
M  V30 2182 H 207.92 -4.55034 -2.14366 0
M  V30 2183 H 207.62 -5.80441 -0.914454 0
M  V30 2184 H 209.144 -5.82003 -1.84675 0
M  V30 2185 H 210.558 -5.71742 0.422366 0
M  V30 2186 H 208.955 -5.8805 1.19656 0
M  V30 2187 H 210.025 -4.55045 1.67518 0
M  V30 2188 N 211.368 -0.403325 -1.52352 0
M  V30 2189 C 212.596 0.174012 -2.06167 0
M  V30 2190 C 213.011 1.39347 -1.27388 0
M  V30 2191 O 212.368 1.79597 -0.324201 0
M  V30 2192 C 212.419 0.530223 -3.5759 0
M  V30 2193 O 212.14 -0.640806 -4.33388 0
M  V30 2194 C 213.641 1.16192 -4.27802 0
M  V30 2195 H 210.861 0.0229464 -0.670608 0
M  V30 2196 H 213.405 -0.572604 -1.9632 0
M  V30 2197 H 211.56 1.22673 -3.67464 0
M  V30 2198 H 211.974 -0.344851 -5.23365 0
M  V30 2199 H 213.448 1.36141 -5.34948 0
M  V30 2200 H 213.925 2.13335 -3.83907 0
M  V30 2201 H 214.531 0.505775 -4.22282 0
M  V30 2202 N 212.846 1.57033 -0.133567 0
M  V30 2203 C 214.257 1.82593 0.389464 0
M  V30 2204 C 214.608 1.05156 1.6564 0
M  V30 2205 O 213.733 0.292644 2.14412 0
M  V30 2206 C 214.328 3.31204 0.713377 0
M  V30 2207 C 212.887 3.57393 1.18098 0
M  V30 2208 C 212.034 2.76598 0.197126 0
M  V30 2209 H 214.985 1.54598 -0.358481 0
M  V30 2210 H 215.006 3.46627 1.56939 0
M  V30 2211 H 214.518 3.87537 -0.2089 0
M  V30 2212 H 212.619 3.06433 2.11966 0
M  V30 2213 H 212.732 4.65915 1.11624 0
M  V30 2214 H 211.096 2.45257 0.687088 0
M  V30 2215 H 211.879 3.35697 -0.718504 0
M  V30 2216 N 214.325 -0.140222 1.56975 0
M  V30 2217 C 215.602 -0.880769 1.74648 0
M  V30 2218 C 215.982 -1.99036 0.703404 0
M  V30 2219 O 215.33 -2.26821 -0.27648 0
M  V30 2220 C 215.54 -1.417 3.18939 0
M  V30 2221 C 216.888 -1.87774 3.80823 0
M  V30 2222 O 217.912 -1.51427 3.2241 0
M  V30 2223 O 216.771 -2.54827 4.83452 0
M  V30 2224 H 213.865 -0.416713 0.714338 0
M  V30 2225 H 216.411 -0.125618 1.69234 0
M  V30 2226 H 215.183 -0.619902 3.86359 0
M  V30 2227 H 214.806 -2.23546 3.28805 0
M  V30 2228 N 215.803 -1.52179 -0.40978 0
M  V30 2229 C 216.733 -1.78435 -1.5061 0
M  V30 2230 C 217.714 -0.635295 -1.57791 0
M  V30 2231 O 218.899 -0.880823 -1.73076 0
M  V30 2232 C 216.029 -1.93444 -2.88439 0
M  V30 2233 C 214.983 -3.09038 -2.96108 0
M  V30 2234 C 214.309 -3.09268 -4.36185 0
M  V30 2235 C 215.609 -4.48508 -2.67652 0
M  V30 2236 H 217.303 -2.70237 -1.28889 0
M  V30 2237 H 214.849 -1.30036 -0.618605 0
M  V30 2238 H 216.802 -2.10394 -3.65119 0
M  V30 2239 H 215.526 -0.983129 -3.11452 0
M  V30 2240 H 214.185 -2.91837 -2.21872 0
M  V30 2241 H 213.833 -2.11861 -4.56206 0
M  V30 2242 H 213.533 -3.86907 -4.42241 0
M  V30 2243 H 215.057 -3.28348 -5.14801 0
M  V30 2244 H 216.471 -4.65918 -3.34056 0
M  V30 2245 H 214.868 -5.28059 -2.85085 0
M  V30 2246 H 215.938 -4.56649 -1.63095 0
M  V30 2247 N 217.281 0.66697 -1.42791 0
M  V30 2248 C 218.558 1.4234 -1.34159 0
M  V30 2249 C 218.938 2.11093 0.0172729 0
M  V30 2250 O 218.286 2.03808 1.03318 0
M  V30 2251 C 218.496 2.41942 -2.51526 0
M  V30 2252 C 219.844 3.06353 -2.93995 0
M  V30 2253 O 220.868 2.52269 -2.51473 0
M  V30 2254 O 219.727 4.04376 -3.67617 0
M  V30 2255 H 216.821 0.635277 -0.529483 0
M  V30 2256 H 219.367 0.695034 -1.54814 0
M  V30 2257 H 218.139 1.89991 -3.42081 0
M  V30 2258 H 217.762 3.22249 -2.32898 0
M  V30 2259 N 218.759 1.29093 0.90403 0
M  V30 2260 C 219.999 1.18076 1.66845 0
M  V30 2261 C 220.363 -0.26436 1.90171 0
M  V30 2262 O 221.564 -0.497423 2.64157 0
M  V30 2263 C 219.835 1.96722 2.98388 0
M  V30 2264 S 221.394 2.0219 3.89441 0
M  V30 2265 H 218.212 0.421104 0.572881 0
M  V30 2266 H 220.814 1.63322 1.07453 0
M  V30 2267 H 219.518 3.00866 2.7912 0
M  V30 2268 H 219.049 1.52064 3.62823 0
M  V30 2269 H 221.064 1.13545 4.83034 0
M  V30 2270 N 220.237 -1.11381 1.11499 0
M  V30 2271 C 221.167 -2.19509 0.796125 0
M  V30 2272 C 222.148 -1.68458 -0.235796 0
M  V30 2273 O 223.333 -1.93947 -0.0991344 0
M  V30 2274 C 220.463 -3.46475 0.239205 0
M  V30 2275 C 219.417 -4.10744 1.20307 0
M  V30 2276 C 218.743 -5.32293 0.50683 0
M  V30 2277 C 220.043 -4.55597 2.55399 0
M  V30 2278 H 221.737 -2.46439 1.70024 0
M  V30 2279 H 219.283 -1.18446 0.818935 0
M  V30 2280 H 221.236 -4.214 0.00392006 0
M  V30 2281 H 219.96 -3.19006 -0.700206 0
M  V30 2282 H 218.619 -3.37813 1.42399 0
M  V30 2283 H 218.267 -5.01095 -0.437408 0
M  V30 2284 H 217.967 -5.76243 1.1497 0
M  V30 2285 H 219.491 -6.09956 0.280351 0
M  V30 2286 H 220.905 -5.21841 2.37391 0
M  V30 2287 H 219.302 -5.10363 3.15673 0
M  V30 2288 H 220.372 -3.69013 3.14575 0
M  V30 2289 N 221.715 -0.905404 -1.28997 0
M  V30 2290 C 222.962 -0.534248 -1.95325 0
M  V30 2291 C 223.29 0.920535 -1.71337 0
M  V30 2292 O 222.545 1.66861 -1.02254 0
M  V30 2293 C 222.844 -0.779906 -3.48787 0
M  V30 2294 C 222.51 -2.21293 -3.92861 0
M  V30 2295 C 221.172 -2.60475 -4.04606 0
M  V30 2296 C 223.524 -3.14587 -4.15553 0
M  V30 2297 C 220.852 -3.9212 -4.36416 0
M  V30 2298 C 223.204 -4.45787 -4.48839 0
M  V30 2299 C 221.868 -4.84834 -4.58794 0
M  V30 2300 H 221.138 -0.195495 -0.714747 0
M  V30 2301 H 223.785 -1.14514 -1.53488 0
M  V30 2302 H 222.09 -0.0861365 -3.91705 0
M  V30 2303 H 223.787 -0.472029 -3.98212 0
M  V30 2304 H 220.377 -1.89887 -3.84241 0
M  V30 2305 H 224.561 -2.85528 -4.0594 0
M  V30 2306 H 219.817 -4.22086 -4.42327 0
M  V30 2307 H 223.991 -5.18098 -4.65346 0
M  V30 2308 H 221.618 -5.86877 -4.83197 0
M  V30 2309 N 223.193 1.4272 -0.668489 0
M  V30 2310 C 224.123 2.335 -0.000100175 0
M  V30 2311 C 225.104 1.50328 0.795964 0
M  V30 2312 O 226.289 1.78949 0.754385 0
M  V30 2313 C 223.419 3.33874 0.956302 0
M  V30 2314 C 222.373 4.27152 0.269278 0
M  V30 2315 C 221.699 5.17684 1.33818 0
M  V30 2316 C 222.999 5.15373 -0.847805 0
M  V30 2317 H 224.693 2.89639 -0.758244 0
M  V30 2318 H 222.239 1.39269 -0.366079 0
M  V30 2319 H 224.192 3.9629 1.43292 0
M  V30 2320 H 222.916 2.76025 1.74579 0
M  V30 2321 H 221.575 3.66123 -0.187042 0
M  V30 2322 H 221.223 4.56165 2.1195 0
M  V30 2323 H 220.923 5.80918 0.883659 0
M  V30 2324 H 222.447 5.82974 1.81586 0
M  V30 2325 H 223.861 5.7151 -0.452681 0
M  V30 2326 H 222.258 5.87407 -1.22773 0
M  V30 2327 H 223.328 4.5415 -1.69929 0
M  V30 2328 N 224.671 0.411399 1.52136 0
M  V30 2329 C 225.911 -0.163143 2.03748 0
M  V30 2330 C 226.275 -1.42187 1.29022 0
M  V30 2331 O 227.476 -2.075 1.70872 0
M  V30 2332 C 225.747 -0.402651 3.55125 0
M  V30 2333 S 227.306 -0.944315 4.28519 0
M  V30 2334 H 224.124 -0.0439833 0.709638 0
M  V30 2335 H 226.726 0.56484 1.87163 0
M  V30 2336 H 225.43 0.520212 4.0709 0
M  V30 2337 H 224.961 -1.15844 3.75957 0
M  V30 2338 H 226.976 -2.22463 4.43536 0
M  V30 2339 N 226.149 -1.5696 0.141893 0
M  V30 2340 C 227.377 -2.00322 -0.517579 0
M  V30 2341 C 227.792 -1.02193 -1.58752 0
M  V30 2342 O 227.149 -0.0181619 -1.82491 0
M  V30 2343 C 227.2 -3.43618 -1.12289 0
M  V30 2344 O 226.921 -4.37995 -0.0956929 0
M  V30 2345 C 228.422 -4.02231 -1.86347 0
M  V30 2346 H 225.642 -0.657243 -0.135177 0
M  V30 2347 H 228.186 -2.03146 0.234973 0
M  V30 2348 H 226.341 -3.41662 -1.82609 0
M  V30 2349 H 226.755 -5.21729 -0.538469 0
M  V30 2350 H 228.229 -5.04509 -2.23997 0
M  V30 2351 H 228.706 -3.42655 -2.74744 0
M  V30 2352 H 229.312 -4.07802 -1.20737 0
M  V30 2353 N 227.627 0.131896 -1.57047 0
M  V30 2354 C 229.038 0.690407 -1.73465 0
M  V30 2355 C 229.389 1.8094 -0.758629 0
M  V30 2356 O 228.514 2.16282 0.0713813 0
M  V30 2357 C 229.109 1.25916 -3.14532 0
M  V30 2358 C 227.668 1.76409 -3.32501 0
M  V30 2359 C 226.815 0.658579 -2.69366 0
M  V30 2360 H 229.766 -0.0939144 -1.58422 0
M  V30 2361 H 229.787 2.12892 -3.15369 0
M  V30 2362 H 229.299 0.444515 -3.85546 0
M  V30 2363 H 227.4 2.60391 -2.66509 0
M  V30 2364 H 227.513 1.88241 -4.4057 0
M  V30 2365 H 225.877 1.08899 -2.30246 0
M  V30 2366 H 226.66 -0.14487 -3.42994 0
M  V30 2367 N 229.106 1.52395 0.401703 0
M  V30 2368 C 230.054 1.7689 1.51039 0
M  V30 2369 C 231.048 0.636298 1.56996 0
M  V30 2370 O 232.254 0.818507 1.60314 0
M  V30 2371 H 228.629 0.559502 0.502456 0
M  V30 2372 H 230.6 2.69757 1.27568 0
M  V30 2373 C 229.349 1.94331 2.88324 0
M  V30 2374 H 228.672 2.80905 2.84486 0
M  V30 2375 H 230.112 2.15466 3.65172 0
M  V30 2376 C 228.571 0.712396 3.29282 0
M  V30 2377 O 229.101 -0.116218 4.01532 0
M  V30 2378 N 227.307 0.546154 2.85422 0
M  V30 2379 H 226.854 1.22156 2.26794 0
M  V30 2380 H 226.812 -0.276113 3.13185 0
M  V30 2381 N 230.584 -0.659388 1.43143 0
M  V30 2382 C 231.532 -1.79374 1.4808 0
M  V30 2383 C 232.526 -1.65639 0.354988 0
M  V30 2384 O 233.732 -1.7206 0.528704 0
M  V30 2385 H 230.107 -0.591705 0.4641 0
M  V30 2386 H 232.078 -1.72329 2.43609 0
M  V30 2387 C 230.827 -3.17606 1.41499 0
M  V30 2388 H 230.15 -3.28809 2.27431 0
M  V30 2389 H 231.59 -3.96951 1.49015 0
M  V30 2390 C 230.049 -3.36642 0.131765 0
M  V30 2391 O 230.579 -3.93461 -0.809386 0
M  V30 2392 N 228.785 -2.90567 0.0439396 0
M  V30 2393 H 228.332 -2.44513 0.810619 0
M  V30 2394 H 228.29 -3.03681 -0.813969 0
M  V30 2395 N 232.062 -1.29571 -0.897171 0
M  V30 2396 C 233.473 -1.15964 -1.46319 0
M  V30 2397 C 233.824 0.244267 -1.94674 0
M  V30 2398 O 232.949 1.13998 -1.83939 0
M  V30 2399 C 233.544 -2.09906 -2.65942 0
M  V30 2400 C 232.103 -2.00314 -3.18671 0
M  V30 2401 C 231.25 -2.00687 -1.91363 0
M  V30 2402 H 234.201 -1.42019 -0.708268 0
M  V30 2403 H 234.222 -1.67276 -3.41759 0
M  V30 2404 H 233.734 -3.12075 -2.30718 0
M  V30 2405 H 231.835 -1.01242 -3.58582 0
M  V30 2406 H 231.948 -2.88102 -3.82798 0
M  V30 2407 H 230.312 -1.45319 -2.09175 0
M  V30 2408 H 231.095 -3.04566 -1.58413 0
M  V30 2409 N 233.54 1.10788 -1.12088 0
M  V30 2410 C 234.768 1.86461 -0.896651 0
M  V30 2411 C 235.183 1.80492 0.553912 0
M  V30 2412 O 234.54 1.19102 1.38278 0
M  V30 2413 C 234.591 3.35006 -1.35843 0
M  V30 2414 O 234.312 3.40866 -2.75213 0
M  V30 2415 C 235.813 4.27565 -1.1706 0
M  V30 2416 H 233.033 0.589425 -0.320654 0
M  V30 2417 H 235.577 1.40076 -1.48993 0
M  V30 2418 H 233.732 3.7887 -0.808458 0
M  V30 2419 H 234.146 4.33411 -2.9539 0
M  V30 2420 H 235.62 5.30007 -1.54263 0
M  V30 2421 H 236.097 4.3906 -0.110814 0
M  V30 2422 H 236.703 3.89501 -1.70789 0
M  V30 2423 N 235.018 0.912232 1.28515 0
M  V30 2424 C 236.266 0.543523 1.94654 0
M  V30 2425 C 236.587 -0.9155 1.72173 0
M  V30 2426 O 235.857 -1.64708 1.06058 0
M  V30 2427 H 234.437 0.198017 0.720277 0
M  V30 2428 H 237.099 1.16126 1.56527 0
M  V30 2429 H 236.195 0.736684 3.03281 0
M  V30 2430 N 236.496 -1.42363 0.676048 0
M  V30 2431 C 237.426 -2.33497 0.0124832 0
M  V30 2432 C 238.407 -1.50748 -0.787981 0
M  V30 2433 O 239.592 -1.79346 -0.744884 0
M  V30 2434 C 236.722 -3.34377 -0.938582 0
M  V30 2435 C 235.676 -4.27289 -0.246622 0
M  V30 2436 C 235.002 -5.18386 -1.31071 0
M  V30 2437 C 236.302 -5.14916 0.875125 0
M  V30 2438 H 237.996 -2.89233 0.773593 0
M  V30 2439 H 235.542 -1.39073 0.37346 0
M  V30 2440 H 237.495 -3.97044 -1.41188 0
M  V30 2441 H 236.219 -2.76947 -1.73113 0
M  V30 2442 H 234.878 -3.66018 0.206456 0
M  V30 2443 H 234.526 -4.57282 -2.09528 0
M  V30 2444 H 234.226 -5.81378 -0.852839 0
M  V30 2445 H 235.75 -5.83929 -1.78492 0
M  V30 2446 H 237.164 -5.71262 0.482983 0
M  V30 2447 H 235.561 -5.86747 1.25887 0
M  V30 2448 H 236.631 -4.53242 1.72335 0
M  V30 2449 N 237.974 -0.419461 -1.51915 0
M  V30 2450 C 238.904 0.391813 -2.30189 0
M  V30 2451 C 239.885 1.03699 -1.34836 0
M  V30 2452 O 241.07 1.04403 -1.63748 0
M  V30 2453 C 238.2 1.50312 -3.13087 0
M  V30 2454 C 237.154 0.9824 -4.16573 0
M  V30 2455 C 236.48 2.18809 -4.8788 0
M  V30 2456 C 237.78 0.0292356 -5.22292 0
M  V30 2457 H 239.474 -0.26135 -2.98257 0
M  V30 2458 H 237.02 -0.127134 -1.43438 0
M  V30 2459 H 238.973 2.07773 -3.66617 0
M  V30 2460 H 237.697 2.18431 -2.42807 0
M  V30 2461 H 236.356 0.430119 -3.64068 0
M  V30 2462 H 236.004 2.85507 -4.14119 0
M  V30 2463 H 235.704 1.84615 -5.57845 0
M  V30 2464 H 237.228 2.76858 -5.44226 0
M  V30 2465 H 238.642 0.512976 -5.71 0
M  V30 2466 H 237.039 -0.2244 -5.9968 0
M  V30 2467 H 238.109 -0.912931 -4.76228 0
M  V30 2468 N 239.452 1.56882 -0.150215 0
M  V30 2469 C 240.863 1.82995 0.370076 0
M  V30 2470 C 241.214 1.06907 1.64515 0
M  V30 2471 O 240.339 0.315369 2.1409 0
M  V30 2472 C 240.934 3.31942 0.678208 0
M  V30 2473 C 239.493 3.58625 1.14301 0
M  V30 2474 C 238.64 2.76792 0.167778 0
M  V30 2475 H 241.591 1.54209 -0.374858 0
M  V30 2476 H 241.612 3.48272 1.53254 0
M  V30 2477 H 241.124 3.87294 -0.249991 0
M  V30 2478 H 239.225 3.08664 2.08704 0
M  V30 2479 H 239.338 4.67073 1.06676 0
M  V30 2480 H 237.702 2.45972 0.661037 0
M  V30 2481 H 238.485 3.34916 -0.754069 0
M  V30 2482 N 240.93 -0.123565 1.57115 0
M  V30 2483 C 241.84 -1.17074 2.033 0
M  V30 2484 C 242.856 -1.4561 0.952559 0
M  V30 2485 O 244.032 -1.56817 1.26374 0
M  V30 2486 C 241.097 -2.47857 2.42421 0
M  V30 2487 C 240.158 -2.26758 3.64526 0
M  V30 2488 C 239.391 -3.51305 4.01771 0
M  V30 2489 O 239.614 -4.5843 3.39409 0
M  V30 2490 O 238.548 -3.42578 4.94898 0
M  V30 2491 H 242.374 -0.808555 2.92739 0
M  V30 2492 H 239.959 -0.334027 1.45618 0
M  V30 2493 H 241.841 -3.2492 2.68338 0
M  V30 2494 H 240.516 -2.83558 1.5613 0
M  V30 2495 H 239.423 -1.47569 3.43765 0
M  V30 2496 H 240.756 -1.95963 4.51508 0
M  V30 2497 N 242.408 -1.52605 -0.393616 0
M  V30 2498 C 243.824 -1.41753 -0.733357 0
M  V30 2499 C 244.024 -0.534293 -1.94287 0
M  V30 2500 O 243.08 -0.0059787 -2.52499 0
M  V30 2501 C 244.393 -2.84531 -0.972772 0
M  V30 2502 C 245.941 -2.93978 -1.07453 0
M  V30 2503 C 246.416 -4.37756 -1.3466 0
M  V30 2504 N 247.907 -4.4106 -1.41492 0
M  V30 2505 C 248.642 -5.49387 -1.642 0
M  V30 2506 N 248.138 -6.67806 -1.8441 0
M  V30 2507 N 249.931 -5.36923 -1.66342 0
M  V30 2508 H 242.082 -2.08555 0.402328 0
M  V30 2509 H 244.345 -0.940654 0.117789 0
M  V30 2510 H 244.051 -3.51353 -0.156204 0
M  V30 2511 H 243.925 -3.26508 -1.88871 0
M  V30 2512 H 246.312 -2.27326 -1.88167 0
M  V30 2513 H 246.393 -2.55435 -0.136605 0
M  V30 2514 H 246.037 -5.04972 -0.544581 0
M  V30 2515 H 245.967 -4.73848 -2.2973 0
M  V30 2516 H 248.458 -3.55705 -1.27601 0
M  V30 2517 H 248.771 -7.46141 -2.01231 0
M  V30 2518 H 247.116 -6.70843 -1.81644 0
M  V30 2519 H 250.307 -4.43381 -1.50102 0
M  V30 2520 H 250.48 -6.21416 -1.837 0
M  V30 2521 N 243.887 0.651787 -1.4349 0
M  V30 2522 C 245.298 1.233 -1.40193 0
M  V30 2523 C 245.649 1.9591 -0.106727 0
M  V30 2524 O 244.774 2.01316 0.793773 0
M  V30 2525 C 245.369 2.24257 -2.53957 0
M  V30 2526 C 243.928 2.77852 -2.5392 0
M  V30 2527 C 243.075 1.52517 -2.3159 0
M  V30 2528 H 246.026 0.443717 -1.52371 0
M  V30 2529 H 246.047 3.0646 -2.25528 0
M  V30 2530 H 245.559 1.71382 -3.4821 0
M  V30 2531 H 243.66 3.34786 -1.63551 0
M  V30 2532 H 243.773 3.25299 -3.51735 0
M  V30 2533 H 242.137 1.79915 -1.80285 0
M  V30 2534 H 242.92 1.01574 -3.27929 0
M  V30 2535 N 245.365 1.30045 0.890287 0
M  V30 2536 C 246.295 1.18541 2.01172 0
M  V30 2537 C 247.276 0.0773356 1.69924 0
M  V30 2538 O 248.461 0.25845 1.92473 0
M  V30 2539 C 245.591 0.870941 3.36202 0
M  V30 2540 C 244.545 1.93637 3.81692 0
M  V30 2541 C 243.871 1.475 5.13953 0
M  V30 2542 C 245.171 3.34666 4.00994 0
M  V30 2543 H 246.865 2.12359 2.11054 0
M  V30 2544 H 244.411 1.02238 1.01407 0
M  V30 2545 H 246.364 0.777141 4.14172 0
M  V30 2546 H 245.088 -0.102926 3.26438 0
M  V30 2547 H 243.747 2.01972 3.05946 0
M  V30 2548 H 243.395 0.489551 5.00612 0
M  V30 2549 H 243.095 2.1876 5.4536 0
M  V30 2550 H 244.619 1.39489 5.94454 0
M  V30 2551 H 246.033 3.2912 4.69417 0
M  V30 2552 H 244.43 4.03966 4.43769 0
M  V30 2553 H 245.5 3.76949 3.05021 0
M  V30 2554 N 246.843 -1.10192 1.12674 0
M  V30 2555 C 247.773 -2.18652 0.819362 0
M  V30 2556 C 248.754 -1.68698 -0.217915 0
M  V30 2557 O 249.939 -1.94041 -0.0785581 0
M  V30 2558 C 247.069 -3.46202 0.27594 0
M  V30 2559 C 246.023 -4.09444 1.24656 0
M  V30 2560 C 245.349 -5.31725 0.563258 0
M  V30 2561 C 246.649 -4.52863 2.60217 0
M  V30 2562 H 248.343 -2.44622 1.72628 0
M  V30 2563 H 245.889 -1.17571 0.831451 0
M  V30 2564 H 247.842 -4.21372 0.0486149 0
M  V30 2565 H 246.566 -3.1973 -0.666331 0
M  V30 2566 H 245.225 -3.36284 1.45974 0
M  V30 2567 H 244.873 -5.0153 -0.384235 0
M  V30 2568 H 244.573 -5.74991 1.21075 0
M  V30 2569 H 246.097 -6.09624 0.34503 0
M  V30 2570 H 247.511 -5.19294 2.42913 0
M  V30 2571 H 245.908 -5.06986 3.21068 0
M  V30 2572 H 246.978 -3.65656 3.18471 0
M  V30 2573 N 248.321 -0.919034 -1.28029 0
M  V30 2574 C 249.253 -0.368762 -2.26214 0
M  V30 2575 C 250.266 0.495716 -1.55069 0
M  V30 2576 O 251.455 0.30974 -1.75792 0
M  V30 2577 C 248.555 0.491049 -3.35324 0
M  V30 2578 C 247.728 -0.352133 -4.3598 0
M  V30 2579 C 246.787 0.443622 -5.24327 0
M  V30 2580 O 245.813 -0.14566 -5.69014 0
M  V30 2581 N 247.015 1.74545 -5.53637 0
M  V30 2582 H 249.78 -1.21273 -2.74068 0
M  V30 2583 H 247.341 -0.785541 -1.41566 0
M  V30 2584 H 249.333 1.03026 -3.91366 0
M  V30 2585 H 247.903 1.23574 -2.87138 0
M  V30 2586 H 247.123 -1.07269 -3.79324 0
M  V30 2587 H 248.411 -0.928883 -5.00249 0
M  V30 2588 H 247.809 2.24666 -5.19174 0
M  V30 2589 H 246.366 2.23138 -6.12416 0
M  V30 2590 N 249.799 1.42003 -0.683588 0
M  V30 2591 C 250.762 2.29191 -0.0198243 0
M  V30 2592 C 251.762 1.43773 0.72013 0
M  V30 2593 O 252.952 1.65061 0.556815 0
M  V30 2594 C 250.084 3.26435 0.982487 0
M  V30 2595 H 251.277 2.8938 -0.787345 0
M  V30 2596 H 248.83 1.49789 -0.446418 0
M  V30 2597 H 249.565 2.71203 1.77819 0
M  V30 2598 H 249.35 3.89449 0.455182 0
M  V30 2599 H 250.84 3.918 1.44508 0
M  V30 2600 N 251.277 0.427512 1.51691 0
M  V30 2601 C 252.526 -0.143679 2.01188 0
M  V30 2602 C 252.839 -1.44642 1.31674 0
M  V30 2603 O 254.045 -2.09997 1.72086 0
M  V30 2604 C 252.501 -0.306602 3.58592 0
M  V30 2605 C 252.109 0.985125 4.37035 0
M  V30 2606 C 253.853 -0.832091 4.16265 0
M  V30 2607 C 251.76 0.788382 5.86122 0
M  V30 2608 H 250.69 -0.0574701 0.751807 0
M  V30 2609 H 253.341 0.555772 1.74881 0
M  V30 2610 H 251.723 -1.06882 3.81303 0
M  V30 2611 H 252.897 1.75492 4.26074 0
M  V30 2612 H 251.212 1.4384 3.90767 0
M  V30 2613 H 253.809 -0.995617 5.25349 0
M  V30 2614 H 254.152 -1.81186 3.74803 0
M  V30 2615 H 254.685 -0.128444 3.97593 0
M  V30 2616 H 251.424 1.74025 6.31978 0
M  V30 2617 H 250.944 0.0582143 5.99772 0
M  V30 2618 H 252.623 0.437722 6.45518 0
M  V30 2619 N 252.755 -1.56801 0.158532 0
M  V30 2620 C 253.718 -2.16138 -0.762705 0
M  V30 2621 C 254.718 -1.1061 -1.16713 0
M  V30 2622 O 255.908 -1.36191 -1.08617 0
M  V30 2623 C 253.04 -2.73386 -2.03649 0
M  V30 2624 H 254.233 -2.98886 -0.246354 0
M  V30 2625 H 251.786 -1.56035 -0.0909744 0
M  V30 2626 H 252.521 -1.94335 -2.59623 0
M  V30 2627 H 252.306 -3.50601 -1.75559 0
M  V30 2628 H 253.796 -3.19065 -2.6942 0
M  V30 2629 N 254.233 0.115231 -1.57178 0
M  V30 2630 C 255.51 0.852873 -1.76027 0
M  V30 2631 C 255.89 1.97892 -0.73498 0
M  V30 2632 O 255.238 2.27232 0.24036 0
M  V30 2633 C 255.448 1.36608 -3.21153 0
M  V30 2634 C 256.796 1.81692 -3.83762 0
M  V30 2635 O 257.82 1.46278 -3.24779 0
M  V30 2636 O 256.679 2.47104 -4.87444 0
M  V30 2637 H 253.773 0.405296 -0.720877 0
M  V30 2638 H 256.319 0.0986785 -1.69413 0
M  V30 2639 H 255.091 0.558357 -3.87296 0
M  V30 2640 H 254.714 2.18287 -3.3232 0
M  V30 2641 N 255.711 1.52812 0.385517 0
M  V30 2642 C 257.127 1.4214 0.725829 0
M  V30 2643 C 257.327 0.544589 1.94001 0
M  V30 2644 O 256.383 0.0193693 2.52493 0
M  V30 2645 C 257.696 2.85042 0.957668 0
M  V30 2646 C 259.244 2.94543 1.05892 0
M  V30 2647 C 259.719 4.38464 1.32337 0
M  V30 2648 N 261.21 4.41804 1.39151 0
M  V30 2649 C 261.945 5.5025 1.61285 0
M  V30 2650 N 261.441 6.68775 1.80866 0
M  V30 2651 N 263.234 5.37798 1.63492 0
M  V30 2652 H 255.385 2.08338 -0.413383 0
M  V30 2653 H 257.648 0.940016 -0.122775 0
M  V30 2654 H 257.354 3.51431 0.137568 0
M  V30 2655 H 257.228 3.27505 1.87137 0
M  V30 2656 H 259.615 2.28321 1.86959 0
M  V30 2657 H 259.696 2.55504 0.123057 0
M  V30 2658 H 259.34 5.05254 0.517793 0
M  V30 2659 H 259.27 4.75059 2.27214 0
M  V30 2660 H 261.761 3.56377 1.25713 0
M  V30 2661 H 262.074 7.47197 1.97271 0
M  V30 2662 H 260.419 6.71797 1.78083 0
M  V30 2663 H 263.61 4.44171 1.47749 0
M  V30 2664 H 263.783 6.22382 1.80402 0
M  V30 2665 N 257.189 -0.644168 1.43834 0
M  V30 2666 C 258.429 -1.41565 1.47441 0
M  V30 2667 C 258.793 -1.91743 0.0992723 0
M  V30 2668 O 259.994 -2.68798 0.0100192 0
M  V30 2669 C 258.265 -2.55902 2.49498 0
M  V30 2670 S 259.824 -3.44287 2.72051 0
M  V30 2671 H 256.642 -0.483118 0.521649 0
M  V30 2672 H 259.244 -0.747008 1.80666 0
M  V30 2673 H 257.948 -2.17327 3.48134 0
M  V30 2674 H 257.479 -3.27607 2.17801 0
M  V30 2675 H 259.494 -4.52927 2.0266 0
M  V30 2676 N 258.668 -1.30515 -0.883378 0
M  V30 2677 C 259.615 -1.17032 -1.98927 0
M  V30 2678 C 260.585 -0.0594241 -1.65994 0
M  V30 2679 O 261.77 -0.229895 -1.8941 0
M  V30 2680 C 258.91 -0.869777 -3.33959 0
M  V30 2681 C 258.023 -2.06271 -3.79574 0
M  V30 2682 C 257.158 -1.70011 -5.03259 0
M  V30 2683 C 256.197 -2.8579 -5.41286 0
M  V30 2684 N 255.334 -2.49816 -6.56153 0
M  V30 2685 H 260.174 -2.1164 -2.09792 0
M  V30 2686 H 257.711 -1.05296 -1.02719 0
M  V30 2687 H 259.669 -0.676138 -4.11685 0
M  V30 2688 H 258.299 0.0394332 -3.22776 0
M  V30 2689 H 257.351 -2.36755 -2.97744 0
M  V30 2690 H 258.663 -2.92971 -4.03694 0
M  V30 2691 H 257.817 -1.47032 -5.88614 0
M  V30 2692 H 256.556 -0.804829 -4.81013 0
M  V30 2693 H 255.561 -3.09434 -4.54456 0
M  V30 2694 H 256.786 -3.76008 -5.65504 0
M  V30 2695 H 254.732 -1.62795 -6.35479 0
M  V30 2696 H 254.649 -3.30048 -6.8015 0
M  V30 2697 H 255.917 -2.30197 -7.44735 0
M  V30 2698 N 260.146 1.09593 -1.13257 0
M  V30 2699 C 261.371 1.8604 -0.916732 0
M  V30 2700 C 261.796 1.80504 0.529146 0
M  V30 2701 O 261.154 1.18127 1.37534 0
M  V30 2702 C 261.202 3.32017 -1.40703 0
M  V30 2703 O 260.306 4.08141 -0.591153 0
M  V30 2704 H 259.647 0.576943 -0.328683 0
M  V30 2705 H 262.177 1.38405 -1.50682 0
M  V30 2706 H 262.187 3.82865 -1.4099 0
M  V30 2707 H 260.862 3.35361 -2.45979 0
M  V30 2708 H 259.439 3.67084 -0.656005 0
M  V30 2709 N 261.624 0.925811 1.2754 0
M  V30 2710 C 262.554 0.440748 2.29303 0
M  V30 2711 C 263.535 -0.497971 1.62648 0
M  V30 2712 O 264.72 -0.403126 1.8997 0
M  V30 2713 C 261.85 -0.309048 3.45922 0
M  V30 2714 C 260.804 0.54166 4.24559 0
M  V30 2715 C 260.13 -0.337191 5.33636 0
M  V30 2716 C 261.43 1.80516 4.90114 0
M  V30 2717 H 263.124 1.29121 2.70126 0
M  V30 2718 H 260.67 0.622323 1.29858 0
M  V30 2719 H 262.623 -0.659315 4.1621 0
M  V30 2720 H 261.347 -1.19352 3.04011 0
M  V30 2721 H 260.006 0.874609 3.56014 0
M  V30 2722 H 259.654 -1.22056 4.87966 0
M  V30 2723 H 259.354 0.228497 5.87156 0
M  V30 2724 H 260.878 -0.683072 6.06767 0
M  V30 2725 H 262.292 1.52307 5.52698 0
M  V30 2726 H 260.689 2.3142 5.53683 0
M  V30 2727 H 261.759 2.52581 4.13921 0
M  V30 2728 N 263.102 -1.41638 0.69111 0
M  V30 2729 C 264.05 -2.32597 0.0115199 0
M  V30 2730 C 265.044 -1.5072 -0.773296 0
M  V30 2731 O 266.25 -1.66685 -0.67942 0
M  V30 2732 H 262.625 -0.751849 -0.0150746 0
M  V30 2733 H 264.596 -2.87593 0.795791 0
M  V30 2734 C 263.345 -3.35467 -0.914172 0
M  V30 2735 H 262.668 -3.9852 -0.319687 0
M  V30 2736 H 264.108 -4.01662 -1.35808 0
M  V30 2737 C 262.567 -2.69004 -2.02826 0
M  V30 2738 O 263.097 -2.53444 -3.11655 0
M  V30 2739 N 261.303 -2.2777 -1.80469 0
M  V30 2740 H 260.85 -2.40626 -0.919615 0
M  V30 2741 H 260.808 -1.83635 -2.55197 0
M  V30 2742 N 264.58 -0.43555 -1.51462 0
M  V30 2743 C 265.829 0.133007 -2.01261 0
M  V30 2744 C 266.142 1.43942 -1.32439 0
M  V30 2745 O 267.348 2.09081 -1.73198 0
M  V30 2746 C 265.804 0.287581 -3.58749 0
M  V30 2747 C 265.412 -1.00829 -4.36506 0
M  V30 2748 C 267.156 0.810004 -4.167 0
M  V30 2749 C 265.063 -0.819454 -5.85695 0
M  V30 2750 H 263.993 0.0534822 -0.752101 0
M  V30 2751 H 266.644 -0.565038 -1.74584 0
M  V30 2752 H 265.026 1.04859 -3.81865 0
M  V30 2753 H 266.2 -1.77749 -4.25138 0
M  V30 2754 H 264.515 -1.45911 -3.89999 0
M  V30 2755 H 267.112 0.967743 -5.2587 0
M  V30 2756 H 267.455 1.79196 -3.75758 0
M  V30 2757 H 267.988 0.107357 -3.97655 0
M  V30 2758 H 264.727 -1.77374 -6.31046 0
M  V30 2759 H 264.247 -0.0900208 -5.99732 0
M  V30 2760 H 265.926 -0.471949 -6.45276 0
M  V30 2761 N 266.058 1.56714 -0.166846 0
M  V30 2762 C 267.006 2.19056 0.782123 0
M  V30 2763 C 268 1.15328 1.24079 0
M  V30 2764 O 269.206 1.33537 1.20697 0
M  V30 2765 H 265.581 0.70167 0.270486 0
M  V30 2766 H 267.552 2.97494 0.232322 0
M  V30 2767 C 266.301 2.84206 2.00306 0
M  V30 2768 H 265.624 3.63748 1.65914 0
M  V30 2769 H 267.064 3.31302 2.64604 0
M  V30 2770 C 265.523 1.83744 2.82382 0
M  V30 2771 O 266.053 1.32014 3.79388 0
M  V30 2772 N 264.259 1.52601 2.47308 0
M  V30 2773 H 263.806 1.9486 1.68485 0
M  V30 2774 H 263.764 0.856351 3.02513 0
M  V30 2775 N 267.536 -0.106894 1.57237 0
M  V30 2776 C 268.466 -1.13148 2.04254 0
M  V30 2777 C 269.447 -1.42476 0.929224 0
M  V30 2778 O 270.632 -1.52709 1.19973 0
M  V30 2779 C 267.762 -2.4545 2.45706 0
M  V30 2780 C 266.716 -2.30558 3.60592 0
M  V30 2781 C 266.042 -3.67931 3.87983 0
M  V30 2782 C 267.342 -1.75597 4.91897 0
M  V30 2783 H 269.036 -0.740374 2.90101 0
M  V30 2784 H 266.582 -0.354696 1.39563 0
M  V30 2785 H 268.535 -3.17389 2.77205 0
M  V30 2786 H 267.259 -2.86475 1.56843 0
M  V30 2787 H 265.918 -1.61067 3.29322 0
M  V30 2788 H 265.566 -4.06462 2.96306 0
M  V30 2789 H 265.266 -3.58817 4.65322 0
M  V30 2790 H 266.79 -4.41356 4.21945 0
M  V30 2791 H 268.204 -2.37364 5.21854 0
M  V30 2792 H 266.601 -1.77272 5.73319 0
M  V30 2793 H 267.671 -0.714451 4.79608 0
M  V30 2794 N 269.014 -1.53014 -0.377408 0
M  V30 2795 C 270.263 -1.67845 -1.11853 0
M  V30 2796 C 270.576 -0.430625 -1.90801 0
M  V30 2797 O 271.782 -0.459261 -2.67587 0
M  V30 2798 C 270.238 -2.96668 -2.03756 0
M  V30 2799 C 269.846 -4.28671 -1.30175 0
M  V30 2800 C 271.59 -3.20865 -2.77932 0
M  V30 2801 C 269.497 -5.48591 -2.20911 0
M  V30 2802 H 268.427 -0.625343 -0.421263 0
M  V30 2803 H 271.078 -1.79514 -0.380409 0
M  V30 2804 H 269.46 -2.78773 -2.8125 0
M  V30 2805 H 270.634 -4.57157 -0.578259 0
M  V30 2806 H 268.949 -4.10825 -0.679108 0
M  V30 2807 H 271.546 -4.07642 -3.46024 0
M  V30 2808 H 271.889 -2.36424 -3.4265 0
M  V30 2809 H 272.422 -3.39379 -2.07525 0
M  V30 2810 H 269.161 -6.35474 -1.6079 0
M  V30 2811 H 268.681 -5.244 -2.91144 0
M  V30 2812 H 270.36 -5.8292 -2.80736 0
M  V30 2813 N 270.492 0.636531 -1.44174 0
M  V30 2814 C 271.422 1.76003 -1.53444 0
M  V30 2815 C 272.403 1.65619 -0.387841 0
M  V30 2816 O 273.588 1.84461 -0.607257 0
M  V30 2817 C 270.718 3.14511 -1.4731 0
M  V30 2818 C 269.672 3.39677 -2.60391 0
M  V30 2819 C 268.998 4.78159 -2.39308 0
M  V30 2820 C 270.298 3.32772 -4.02567 0
M  V30 2821 H 271.992 1.68501 -2.47483 0
M  V30 2822 H 269.538 0.809237 -1.19111 0
M  V30 2823 H 271.491 3.92878 -1.52397 0
M  V30 2824 H 270.215 3.22783 -0.49785 0
M  V30 2825 H 268.874 2.63688 -2.54684 0
M  V30 2826 H 268.522 4.83128 -1.39988 0
M  V30 2827 H 268.222 4.95956 -3.15122 0
M  V30 2828 H 269.746 5.58762 -2.46205 0
M  V30 2829 H 271.16 4.01051 -4.09672 0
M  V30 2830 H 269.557 3.62104 -4.7854 0
M  V30 2831 H 270.627 2.30669 -4.2652 0
M  V30 2832 N 271.97 1.30982 0.876444 0
M  V30 2833 C 273.247 1.10942 1.61094 0
M  V30 2834 C 273.627 -0.338223 2.08373 0
M  V30 2835 O 272.975 -1.33122 1.85717 0
M  V30 2836 C 273.185 2.11789 2.77392 0
M  V30 2837 C 274.533 2.43965 3.47514 0
M  V30 2838 O 275.557 2.10166 2.87591 0
M  V30 2839 O 274.416 3.01817 4.55597 0
M  V30 2840 H 271.51 0.42667 0.708436 0
M  V30 2841 H 274.056 1.42438 0.922474 0
M  V30 2842 H 272.828 3.09194 2.39823 0
M  V30 2843 H 272.451 1.81161 3.5393 0
M  V30 2844 N 273.449 -1.08991 1.13837 0
M  V30 2845 C 274.359 -2.19301 0.833333 0
M  V30 2846 C 275.375 -1.73026 -0.183847 0
M  V30 2847 O 276.551 -2.01395 -0.0138092 0
M  V30 2848 C 273.616 -3.45323 0.308651 0
M  V30 2849 C 272.677 -4.06255 1.38764 0
M  V30 2850 C 271.91 -5.26262 0.887896 0
M  V30 2851 O 272.133 -5.69747 -0.27287 0
M  V30 2852 O 271.067 -5.78435 1.66421 0
M  V30 2853 H 274.893 -2.47854 1.75506 0
M  V30 2854 H 272.478 -1.18012 0.916166 0
M  V30 2855 H 274.36 -4.21394 0.0216739 0
M  V30 2856 H 273.035 -3.18362 -0.585431 0
M  V30 2857 H 271.942 -3.318 1.72799 0
M  V30 2858 H 273.275 -4.37452 2.25602 0
M  V30 2859 N 274.927 -0.932562 -1.27047 0
M  V30 2860 C 275.89 -0.440064 -2.24936 0
M  V30 2861 C 276.89 0.444071 -1.54547 0
M  V30 2862 O 278.08 0.244465 -1.72476 0
M  V30 2863 C 275.212 0.36678 -3.38921 0
M  V30 2864 H 276.405 -1.305 -2.70018 0
M  V30 2865 H 273.958 -0.713707 -1.39054 0
M  V30 2866 H 274.693 1.25033 -2.99228 0
M  V30 2867 H 274.478 -0.267204 -3.91188 0
M  V30 2868 H 275.968 0.701567 -4.11665 0
M  V30 2869 N 276.405 1.4127 -0.698611 0
M  V30 2870 C 277.652 2.0118 -0.230865 0
M  V30 2871 C 277.98 1.55338 1.17049 0
M  V30 2872 O 277.235 0.756775 1.80475 0
M  V30 2873 C 277.534 3.56592 -0.240192 0
M  V30 2874 C 277.2 4.21955 -1.58948 0
M  V30 2875 C 275.862 4.39524 -1.95887 0
M  V30 2876 C 278.214 4.58576 -2.47704 0
M  V30 2877 C 275.542 4.90992 -3.2116 0
M  V30 2878 C 277.894 5.11435 -3.72313 0
M  V30 2879 C 276.558 5.27215 -4.0939 0
M  V30 2880 H 275.828 0.736169 -0.0844796 0
M  V30 2881 H 278.475 1.69124 -0.8983 0
M  V30 2882 H 276.78 3.88456 0.510797 0
M  V30 2883 H 278.477 4.00758 0.139296 0
M  V30 2884 H 275.067 4.08657 -1.29219 0
M  V30 2885 H 279.251 4.44654 -2.20445 0
M  V30 2886 H 274.507 5.01393 -3.49878 0
M  V30 2887 H 278.681 5.38752 -4.4127 0
M  V30 2888 H 276.308 5.66859 -5.06533 0
M  V30 2889 N 277.883 0.443576 1.51229 0
M  V30 2890 C 279.132 -0.122332 2.01329 0
M  V30 2891 C 279.445 -1.43237 1.33201 0
M  V30 2892 O 280.651 -2.0816 1.74304 0
M  V30 2893 C 279.107 -0.268551 3.58897 0
M  V30 2894 C 278.715 1.03142 4.35965 0
M  V30 2895 C 280.459 -0.787894 4.17124 0
M  V30 2896 C 278.366 0.850504 5.85252 0
M  V30 2897 H 277.296 -0.0494929 0.752374 0
M  V30 2898 H 279.947 0.574289 1.74282 0
M  V30 2899 H 278.329 -1.02832 3.82415 0
M  V30 2900 H 279.503 1.80001 4.24189 0
M  V30 2901 H 277.818 1.47977 3.89219 0
M  V30 2902 H 280.415 -0.939841 5.26375 0
M  V30 2903 H 280.758 -1.77201 3.76703 0
M  V30 2904 H 281.291 -0.0862669 3.97706 0
M  V30 2905 H 278.03 1.80718 6.30096 0
M  V30 2906 H 277.55 0.121825 5.99676 0
M  V30 2907 H 279.229 0.506163 6.45017 0
M  V30 2908 N 279.361 -1.56624 0.175154 0
M  V30 2909 C 280.638 -1.88688 -0.515373 0
M  V30 2910 C 281.018 -1.08564 -1.81044 0
M  V30 2911 O 280.366 -0.180703 -2.27784 0
M  V30 2912 C 280.576 -3.40768 -0.753552 0
M  V30 2913 C 281.924 -4.10587 -1.08184 0
M  V30 2914 O 282.948 -3.46106 -0.841961 0
M  V30 2915 O 281.807 -5.24512 -1.53459 0
M  V30 2916 H 278.901 -0.78301 -0.26613 0
M  V30 2917 H 281.447 -1.68347 0.213877 0
M  V30 2918 H 280.219 -3.90965 0.161829 0
M  V30 2919 H 279.842 -3.66733 -1.53598 0
M  V30 2920 N 280.839 0.0985539 -1.57292 0
M  V30 2921 C 282.086 0.802678 -1.85912 0
M  V30 2922 C 282.414 1.78901 -0.763186 0
M  V30 2923 O 281.669 1.94178 0.243559 0
M  V30 2924 C 281.968 1.56927 -3.21105 0
M  V30 2925 C 281.634 0.725376 -4.45027 0
M  V30 2926 C 280.296 0.492726 -4.78671 0
M  V30 2927 C 282.648 0.138493 -5.21016 0
M  V30 2928 C 279.976 -0.336727 -5.85733 0
M  V30 2929 C 282.328 -0.678264 -6.28953 0
M  V30 2930 C 280.992 -0.921039 -6.61115 0
M  V30 2931 H 280.262 0.293721 -0.680301 0
M  V30 2932 H 282.909 0.0642841 -1.91392 0
M  V30 2933 H 281.214 2.37914 -3.11294 0
M  V30 2934 H 282.911 2.11841 -3.40477 0
M  V30 2935 H 279.501 0.916815 -4.18679 0
M  V30 2936 H 283.685 0.305404 -4.95359 0
M  V30 2937 H 278.941 -0.533836 -6.09065 0
M  V30 2938 H 283.115 -1.1399 -6.87007 0
M  V30 2939 H 280.742 -1.56556 -7.43905 0
M  V30 2940 N 282.317 1.53212 0.369288 0
M  V30 2941 C 283.566 1.68436 1.10961 0
M  V30 2942 C 283.879 0.440738 1.9057 0
M  V30 2943 O 285.085 0.473446 2.6734 0
M  V30 2944 C 283.541 2.97744 2.0218 0
M  V30 2945 C 283.149 4.29355 1.279 0
M  V30 2946 C 284.893 3.22334 2.76226 0
M  V30 2947 C 282.8 5.49755 2.17999 0
M  V30 2948 H 281.73 0.627568 0.41794 0
M  V30 2949 H 284.381 1.79713 0.370884 0
M  V30 2950 H 282.763 2.8026 2.79768 0
M  V30 2951 H 283.937 4.57458 0.554007 0
M  V30 2952 H 282.252 4.11179 0.657311 0
M  V30 2953 H 284.849 4.09471 3.43857 0
M  V30 2954 H 285.192 2.38238 3.41392 0
M  V30 2955 H 285.725 3.40475 2.05723 0
M  V30 2956 H 282.464 6.36318 1.57417 0
M  V30 2957 H 281.984 5.25937 2.88359 0
M  V30 2958 H 283.663 5.84401 2.77641 0
M  V30 2959 N 283.795 -0.628877 1.44509 0
M  V30 2960 C 285.206 -1.21054 1.42137 0
M  V30 2961 C 285.557 -1.95715 0.137881 0
M  V30 2962 O 284.682 -2.02554 -0.761645 0
M  V30 2963 C 285.277 -2.20189 2.57493 0
M  V30 2964 C 283.836 -2.73777 2.58308 0
M  V30 2965 C 282.983 -1.48813 2.33987 0
M  V30 2966 H 285.934 -0.41942 1.53057 0
M  V30 2967 H 285.955 -3.02833 2.30375 0
M  V30 2968 H 285.467 -1.6582 3.50892 0
M  V30 2969 H 283.568 -3.32142 1.68856 0
M  V30 2970 H 283.681 -3.19662 3.56865 0
M  V30 2971 H 282.045 -1.77024 1.83124 0
M  V30 2972 H 282.828 -0.963442 3.29504 0
M  V30 2973 N 285.273 -1.31445 -0.869486 0
M  V30 2974 C 286.223 -1.15731 -1.96444 0
M  V30 2975 C 287.207 -0.0681855 -1.60755 0
M  V30 2976 O 288.399 -0.293154 -1.74555 0
M  V30 2977 C 285.528 -0.867255 -3.32165 0
M  V30 2978 C 284.614 -1.99738 -3.74119 0
M  V30 2979 N 285.005 -3.24447 -3.88031 0
M  V30 2980 C 283.303 -1.89723 -4.03635 0
M  V30 2981 C 284.004 -3.98374 -4.23879 0
M  V30 2982 N 282.98 -3.26547 -4.3459 0
M  V30 2983 H 286.782 -2.10296 -2.05312 0
M  V30 2984 H 284.296 -1.23009 -1.06031 0
M  V30 2985 H 286.293 -0.735668 -4.10358 0
M  V30 2986 H 284.953 0.0701614 -3.24624 0
M  V30 2987 H 285.964 -3.59557 -3.72746 0
M  V30 2988 H 282.641 -1.03449 -4.04481 0
M  V30 2989 H 284.031 -5.05844 -4.42235 0
M  V30 2990 N 286.751 1.08385 -1.14413 0
M  V30 2991 C 287.661 2.18856 -0.844951 0
M  V30 2992 C 288.677 1.73121 0.174668 0
M  V30 2993 O 289.853 2.014 0.00312857 0
M  V30 2994 C 286.918 3.45155 -0.32696 0
M  V30 2995 C 285.979 4.05513 -1.40916 0
M  V30 2996 C 285.212 5.25784 -0.915793 0
M  V30 2997 O 285.435 5.69884 0.242651 0
M  V30 2998 O 284.369 5.77545 -1.69487 0
M  V30 2999 H 288.195 2.46919 -1.76818 0
M  V30 3000 H 285.78 1.17524 -0.922411 0
M  V30 3001 H 287.662 4.21377 -0.0440211 0
M  V30 3002 H 286.337 3.18668 0.568539 0
M  V30 3003 H 285.244 3.30879 -1.74556 0
M  V30 3004 H 286.577 4.3625 -2.27919 0
M  V30 3005 N 288.23 0.939286 1.26551 0
M  V30 3006 C 289.458 0.602536 1.97932 0
M  V30 3007 C 289.873 -0.82206 1.69964 0
M  V30 3008 O 289.23 -1.54789 0.966784 0
M  V30 3009 C 289.281 0.832946 3.51773 0
M  V30 3010 O 289.002 2.20151 3.78768 0
M  V30 3011 C 290.503 0.506483 4.40397 0
M  V30 3012 H 287.723 0.227248 0.631347 0
M  V30 3013 H 290.267 1.25948 1.61113 0
M  V30 3014 H 288.422 0.222644 3.8676 0
M  V30 3015 H 288.836 2.26013 4.73306 0
M  V30 3016 H 290.31 0.718333 5.47306 0
M  V30 3017 H 290.787 -0.558451 4.35635 0
M  V30 3018 H 291.393 1.09543 4.10951 0
M  V30 3019 N 289.708 -1.40897 0.706093 0
M  V30 3020 C 290.956 -2.00657 0.241054 0
M  V30 3021 C 291.277 -1.56241 -1.16678 0
M  V30 3022 O 290.547 -0.79765 -1.78926 0
M  V30 3023 H 289.127 -0.742018 0.0861308 0
M  V30 3024 H 291.789 -1.72372 0.909604 0
M  V30 3025 H 290.885 -3.10958 0.266705 0
M  V30 3026 N 291.186 -0.45159 -1.50991 0
M  V30 3027 C 292.433 0.110074 -2.02201 0
M  V30 3028 C 292.761 1.4146 -1.33489 0
M  V30 3029 O 292.016 1.90617 -0.443125 0
M  V30 3030 C 292.315 0.361728 -3.55565 0
M  V30 3031 C 291.981 -0.858717 -4.42648 0
M  V30 3032 C 290.643 -1.19338 -4.66167 0
M  V30 3033 C 292.995 -1.67221 -4.93646 0
M  V30 3034 C 290.323 -2.34195 -5.37931 0
M  V30 3035 C 292.675 -2.8119 -5.6667 0
M  V30 3036 C 291.339 -3.15094 -5.88449 0
M  V30 3037 H 290.609 0.040279 -0.739904 0
M  V30 3038 H 293.256 -0.601696 -1.81802 0
M  V30 3039 H 291.561 1.15554 -3.74372 0
M  V30 3040 H 293.258 0.80996 -3.92735 0
M  V30 3041 H 289.848 -0.58796 -4.24548 0
M  V30 3042 H 294.032 -1.42686 -4.75347 0
M  V30 3043 H 289.288 -2.6076 -5.53005 0
M  V30 3044 H 293.462 -3.44585 -6.05173 0
M  V30 3045 H 291.089 -4.04204 -6.43835 0
M  V30 3046 N 292.664 1.56529 -0.183458 0
M  V30 3047 C 293.913 1.96419 0.458511 0
M  V30 3048 C 294.226 1.0727 1.63562 0
M  V30 3049 O 295.432 1.36893 2.34462 0
M  V30 3050 C 293.888 3.49298 0.867122 0
M  V30 3051 C 293.496 4.47092 -0.285057 0
M  V30 3052 C 295.24 3.97983 1.47683 0
M  V30 3053 C 293.147 5.91225 0.143862 0
M  V30 3054 H 292.077 0.733394 0.175071 0
M  V30 3055 H 294.728 1.81448 -0.273624 0
M  V30 3056 H 293.11 3.59731 1.65559 0
M  V30 3057 H 294.284 4.48383 -1.0625 0
M  V30 3058 H 292.599 4.08535 -0.805503 0
M  V30 3059 H 295.196 5.03134 1.80999 0
M  V30 3060 H 295.539 3.41618 2.37914 0
M  V30 3061 H 296.072 3.90617 0.752562 0
M  V30 3062 H 292.811 6.5149 -0.723974 0
M  V30 3063 H 292.331 5.93214 0.886413 0
M  V30 3064 H 294.01 6.44362 0.583628 0
M  V30 3065 N 294.142 -0.090211 1.57342 0
M  V30 3066 C 295.553 -0.644173 1.75235 0
M  V30 3067 C 295.904 -1.78865 0.806335 0
M  V30 3068 O 295.029 -2.16395 -0.0140128 0
M  V30 3069 C 295.624 -1.17532 3.1776 0
M  V30 3070 C 294.183 -1.67531 3.37061 0
M  V30 3071 C 293.33 -0.58693 2.71017 0
M  V30 3072 H 296.281 0.135884 1.58117 0
M  V30 3073 H 296.302 -2.04455 3.20902 0
M  V30 3074 H 295.814 -0.342138 3.86589 0
M  V30 3075 H 293.915 -2.53234 2.73319 0
M  V30 3076 H 294.028 -1.76493 4.45406 0
M  V30 3077 H 292.392 -1.02756 2.33052 0
M  V30 3078 H 293.175 0.235758 3.4249 0
M  V30 3079 N 295.62 -1.53406 -0.361157 0
M  V30 3080 C 296.583 -1.79479 -1.42548 0
M  V30 3081 C 297.583 -0.665327 -1.4639 0
M  V30 3082 O 298.773 -0.933549 -1.47073 0
M  V30 3083 C 295.905 -1.92087 -2.8163 0
M  V30 3084 H 297.098 -2.74538 -1.20701 0
M  V30 3085 H 294.651 -1.4455 -0.594546 0
M  V30 3086 H 295.386 -0.991099 -3.08784 0
M  V30 3087 H 295.171 -2.74241 -2.80239 0
M  V30 3088 H 296.661 -2.13836 -3.58697 0
M  V30 3089 N 297.098 0.621204 -1.44841 0
M  V30 3090 C 298.028 1.74366 -1.55303 0
M  V30 3091 C 299.009 1.65199 -0.405385 0
M  V30 3092 O 300.194 1.83807 -0.626787 0
M  V30 3093 C 297.324 3.12931 -1.50637 0
M  V30 3094 C 296.278 3.36896 -2.63979 0
M  V30 3095 C 295.604 4.75594 -2.44366 0
M  V30 3096 C 296.904 3.28483 -4.06074 0
M  V30 3097 H 298.598 1.65867 -2.49256 0
M  V30 3098 H 296.144 0.796558 -1.19962 0
M  V30 3099 H 298.097 3.9124 -1.56555 0
M  V30 3100 H 296.821 3.22237 -0.532057 0
M  V30 3101 H 295.48 2.60972 -2.57467 0
M  V30 3102 H 295.128 4.81616 -1.45105 0
M  V30 3103 H 294.828 4.92586 -3.20364 0
M  V30 3104 H 296.352 5.5612 -2.52117 0
M  V30 3105 H 297.766 3.96684 -4.13902 0
M  V30 3106 H 296.163 3.57008 -4.82354 0
M  V30 3107 H 297.233 2.26133 -4.28943 0
M  V30 3108 N 298.576 1.31904 0.862503 0
M  V30 3109 C 299.523 1.20182 1.9704 0
M  V30 3110 C 300.493 0.0858247 1.65878 0
M  V30 3111 O 301.678 0.26 1.8902 0
M  V30 3112 C 298.818 0.922797 3.32533 0
M  V30 3113 C 297.931 2.12284 3.76244 0
M  V30 3114 C 297.066 1.77996 5.00491 0
M  V30 3115 C 296.105 2.94366 5.36671 0
M  V30 3116 N 295.242 2.60223 6.52095 0
M  V30 3117 H 300.082 2.14951 2.06398 0
M  V30 3118 H 297.619 1.06917 1.01031 0
M  V30 3119 H 299.577 0.741548 4.10557 0
M  V30 3120 H 298.207 0.0119227 3.22798 0
M  V30 3121 H 297.259 2.41461 2.9394 0
M  V30 3122 H 298.571 2.99357 3.98982 0
M  V30 3123 H 297.725 1.56377 5.862 0
M  V30 3124 H 296.464 0.881252 4.79672 0
M  V30 3125 H 295.469 3.16625 4.49476 0
M  V30 3126 H 296.694 3.84957 5.59451 0
M  V30 3127 H 294.64 1.72884 6.32809 0
M  V30 3128 H 294.557 3.40827 6.74814 0
M  V30 3129 H 295.825 2.42016 7.40978 0
M  V30 3130 N 300.054 -1.07777 1.14986 0
M  V30 3131 C 301.331 -1.7699 0.832695 0
M  V30 3132 C 301.711 -2.001 -0.672561 0
M  V30 3133 O 301.059 -1.61598 -1.6155 0
M  V30 3134 C 301.269 -3.08139 1.63863 0
M  V30 3135 C 302.617 -3.8256 1.84208 0
M  V30 3136 O 303.641 -3.17939 1.60603 0
M  V30 3137 O 302.5 -4.98612 2.23714 0
M  V30 3138 H 299.594 -0.768389 0.305791 0
M  V30 3139 H 302.14 -1.14182 1.25541 0
M  V30 3140 H 300.912 -2.86909 2.6608 0
M  V30 3141 H 300.535 -3.78678 1.21197 0
M  V30 3142 N 301.532 -0.945985 -1.26051 0
M  V30 3143 C 302.48 -0.450259 -2.282 0
M  V30 3144 C 303.474 0.47497 -1.62605 0
M  V30 3145 O 304.68 0.352653 -1.76512 0
M  V30 3146 H 301.055 -0.127081 -0.741184 0
M  V30 3147 H 303.026 -1.32422 -2.67408 0
M  V30 3148 C 301.775 0.26467 -3.46691 0
M  V30 3149 H 301.098 -0.438123 -3.97392 0
M  V30 3150 H 302.538 0.575678 -4.20074 0
M  V30 3151 C 300.997 1.48416 -3.02447 0
M  V30 3152 O 301.527 2.58227 -3.07704 0
M  V30 3153 N 299.733 1.34243 -2.57735 0
M  V30 3154 H 299.28 0.448994 -2.53657 0
M  V30 3155 H 299.238 2.15957 -2.28495 0
M  V30 3156 N 303.011 1.40521 -0.713556 0
M  V30 3157 C 304.422 1.83853 -0.324807 0
M  V30 3158 C 304.773 1.59667 1.14021 0
M  V30 3159 O 303.898 1.07649 1.87725 0
M  V30 3160 C 304.493 3.33751 -0.582746 0
M  V30 3161 C 303.052 3.75584 -0.247727 0
M  V30 3162 C 302.199 2.63753 -0.856121 0
M  V30 3163 H 305.15 1.29817 -0.91286 0
M  V30 3164 H 305.171 3.80194 0.152682 0
M  V30 3165 H 304.683 3.51322 -1.64908 0
M  V30 3166 H 302.784 3.63608 0.813624 0
M  V30 3167 H 302.897 4.7373 -0.715307 0
M  V30 3168 H 301.261 2.53108 -0.28432 0
M  V30 3169 H 302.044 2.84137 -1.92668 0
M  V30 3170 N 304.489 0.459591 1.5075 0
M  V30 3171 C 305.439 -0.358926 2.25157 0
M  V30 3172 C 306.423 -0.971285 1.28276 0
M  V30 3173 O 307.615 -0.885739 1.53244 0
M  V30 3174 C 304.744 -1.44695 3.11317 0
M  V30 3175 C 303.83 -0.842894 4.15639 0
M  V30 3176 N 304.221 0.0299373 5.05791 0
M  V30 3177 C 302.519 -1.10809 4.32015 0
M  V30 3178 C 303.22 0.371563 5.80512 0
M  V30 3179 N 302.196 -0.250409 5.43023 0
M  V30 3180 H 305.998 0.313636 2.92222 0
M  V30 3181 H 303.512 0.273021 1.60089 0
M  V30 3182 H 305.509 -2.04641 3.63218 0
M  V30 3183 H 304.169 -2.12162 2.45799 0
M  V30 3184 H 305.18 0.39797 5.16369 0
M  V30 3185 H 301.857 -1.7786 3.77719 0
M  V30 3186 H 303.247 1.08319 6.63111 0
M  V30 3187 N 305.967 -1.56429 0.191757 0
M  V30 3188 C 307.216 -1.9666 -0.448088 0
M  V30 3189 C 307.529 -1.08136 -1.62991 0
M  V30 3190 O 308.735 -1.38135 -2.33733 0
M  V30 3191 C 307.191 -3.49753 -0.848585 0
M  V30 3192 C 306.799 -4.46935 0.308764 0
M  V30 3193 C 308.543 -3.9876 -1.4557 0
M  V30 3194 C 306.45 -5.91293 -0.112506 0
M  V30 3195 H 305.38 -0.734312 -0.171179 0
M  V30 3196 H 308.031 -1.81301 0.283242 0
M  V30 3197 H 306.413 -3.60604 -1.63649 0
M  V30 3198 H 307.587 -4.47813 1.08627 0
M  V30 3199 H 305.902 -4.08102 0.827158 0
M  V30 3200 H 308.499 -5.04086 -1.78328 0
M  V30 3201 H 308.842 -3.42875 -2.36099 0
M  V30 3202 H 309.375 -3.9101 -0.731836 0
M  V30 3203 H 306.114 -6.51097 0.758514 0
M  V30 3204 H 305.634 -5.93676 -0.854941 0
M  V30 3205 H 307.313 -6.44663 -0.549448 0
M  V30 3206 N 307.445 0.0818655 -1.57387 0
M  V30 3207 C 308.691 0.778884 -1.87896 0
M  V30 3208 C 309.046 1.75692 -0.784229 0
M  V30 3209 O 308.339 1.90417 0.212567 0
M  V30 3210 C 308.533 1.53513 -3.22752 0
M  V30 3211 C 308.362 0.631838 -4.45239 0
M  V30 3212 C 307.132 0.272571 -5.04564 0
M  V30 3213 C 309.33 -0.0670191 -5.14256 0
M  V30 3214 N 307.312 -0.637498 -6.10581 0
M  V30 3215 C 308.683 -0.834653 -6.14356 0
M  V30 3216 C 310.738 -0.139551 -4.97704 0
M  V30 3217 C 309.441 -1.66806 -6.99691 0
M  V30 3218 C 311.467 -0.959903 -5.83558 0
M  V30 3219 C 310.829 -1.71561 -6.83188 0
M  V30 3220 H 306.928 0.260764 -0.737242 0
M  V30 3221 H 309.512 0.0408227 -1.94657 0
M  V30 3222 H 307.683 2.24398 -3.17018 0
M  V30 3223 H 309.415 2.18038 -3.40942 0
M  V30 3224 H 306.17 0.62319 -4.69482 0
M  V30 3225 H 306.594 -1.08548 -6.68241 0
M  V30 3226 H 311.236 0.430376 -4.20604 0
M  V30 3227 H 308.954 -2.249 -7.76174 0
M  V30 3228 H 312.54 -1.01887 -5.72809 0
M  V30 3229 H 311.42 -2.34017 -7.48469 0
M  V30 3230 N 308.923 1.53595 0.353017 0
M  V30 3231 C 310.169 1.70638 1.09593 0
M  V30 3232 C 310.502 0.463286 1.88593 0
M  V30 3233 O 309.777 -0.539597 1.86865 0
M  V30 3234 C 310.06 2.96406 2.04489 0
M  V30 3235 C 309.913 4.30901 1.29014 0
M  V30 3236 C 311.232 3.17812 3.0444 0
M  V30 3237 H 308.351 0.620913 0.397034 0
M  V30 3238 H 310.993 1.86254 0.375446 0
M  V30 3239 H 309.143 2.83223 2.65927 0
M  V30 3240 H 310.815 4.55917 0.702638 0
M  V30 3241 H 309.058 4.29741 0.592071 0
M  V30 3242 H 309.729 5.1506 1.98537 0
M  V30 3243 H 312.205 3.30263 2.53112 0
M  V30 3244 H 311.081 4.07223 3.6805 0
M  V30 3245 H 311.342 2.33669 3.75301 0
M  V30 3246 N 310.401 -0.613514 1.45168 0
M  V30 3247 C 311.331 -1.7354 1.56225 0
M  V30 3248 C 312.312 -1.64981 0.41414 0
M  V30 3249 O 313.497 -1.83472 0.636526 0
M  V30 3250 C 310.627 -3.12128 1.52295 0
M  V30 3251 C 309.581 -3.35491 2.65762 0
M  V30 3252 C 308.907 -4.74291 2.46885 0
M  V30 3253 C 310.207 -3.26325 4.0781 0
M  V30 3254 H 311.901 -1.64543 2.50132 0
M  V30 3255 H 309.447 -0.790185 1.20383 0
M  V30 3256 H 311.4 -3.90404 1.58628 0
M  V30 3257 H 310.124 -3.2195 0.549139 0
M  V30 3258 H 308.783 -2.59603 2.58847 0
M  V30 3259 H 308.431 -4.80839 1.47657 0
M  V30 3260 H 308.131 -4.9088 3.22972 0
M  V30 3261 H 309.655 -5.54775 2.55063 0
M  V30 3262 H 311.069 -3.94483 4.16 0
M  V30 3263 H 309.466 -3.54445 4.8424 0
M  V30 3264 H 310.536 -2.23855 4.30136 0
M  V30 3265 N 311.879 -1.3236 -0.855495 0
M  V30 3266 C 313.295 -1.11332 -1.14356 0
M  V30 3267 C 313.495 0.106751 -2.01217 0
M  V30 3268 O 312.551 0.791891 -2.39761 0
M  V30 3269 C 313.864 -2.39237 -1.82171 0
M  V30 3270 C 315.412 -2.44986 -1.9481 0
M  V30 3271 C 315.887 -3.7281 -2.66039 0
M  V30 3272 N 317.378 -3.73787 -2.73565 0
M  V30 3273 C 318.113 -4.69394 -3.29327 0
M  V30 3274 N 317.609 -5.75367 -3.85907 0
M  V30 3275 N 319.402 -4.56893 -3.27423 0
M  V30 3276 H 311.553 -2.10586 -0.277027 0
M  V30 3277 H 313.816 -0.929701 -0.185364 0
M  V30 3278 H 313.522 -3.28431 -1.25802 0
M  V30 3279 H 313.396 -2.50134 -2.82335 0
M  V30 3280 H 315.783 -1.56252 -2.50338 0
M  V30 3281 H 315.864 -2.38043 -0.936448 0
M  V30 3282 H 315.508 -4.61918 -2.11174 0
M  V30 3283 H 315.438 -3.77024 -3.67642 0
M  V30 3284 H 317.929 -2.97189 -2.33424 0
M  V30 3285 H 318.242 -6.44378 -4.26611 0
M  V30 3286 H 316.587 -5.79123 -3.84242 0
M  V30 3287 H 319.778 -3.73269 -2.82467 0
M  V30 3288 H 319.951 -5.31577 -3.7058 0
M  V30 3289 N 313.357 1.07166 -1.15556 0
M  V30 3290 C 314.582 1.84053 -0.955988 0
M  V30 3291 C 315.007 1.81586 0.490739 0
M  V30 3292 O 314.365 1.21018 1.34997 0
M  V30 3293 C 314.413 3.28957 -1.47714 0
M  V30 3294 O 313.517 4.06795 -0.677593 0
M  V30 3295 H 312.858 0.569842 -0.340847 0
M  V30 3296 H 315.388 1.35178 -1.53584 0
M  V30 3297 H 315.398 3.79788 -1.4908 0
M  V30 3298 H 314.073 3.30068 -2.53037 0
M  V30 3299 H 312.65 3.6561 -0.733721 0
M  V30 3300 N 314.835 0.952656 1.25548 0
M  V30 3301 C 315.765 0.489287 2.28316 0
M  V30 3302 C 316.746 -0.463359 1.63667 0
M  V30 3303 O 317.931 -0.36274 1.90782 0
M  V30 3304 C 315.061 -0.235603 3.465 0
M  V30 3305 C 314.015 0.631593 4.23314 0
M  V30 3306 C 313.341 -0.223923 5.34231 0
M  V30 3307 C 314.641 1.90871 4.86174 0
M  V30 3308 H 316.335 1.34822 2.67326 0
M  V30 3309 H 313.881 0.649728 1.28509 0
M  V30 3310 H 315.834 -0.570882 4.17515 0
M  V30 3311 H 314.558 -1.12877 3.06474 0
M  V30 3312 H 313.217 0.949929 3.54079 0
M  V30 3313 H 312.865 -1.11678 4.90446 0
M  V30 3314 H 312.565 0.35299 5.86539 0
M  V30 3315 H 314.089 -0.554214 6.0808 0
M  V30 3316 H 315.503 1.63997 5.49343 0
M  V30 3317 H 313.9 2.43112 5.4865 0
M  V30 3318 H 314.97 2.61304 4.08471 0
M  V30 3319 N 316.313 -1.40141 0.720998 0
M  V30 3320 C 317.541 -2.05096 0.272656 0
M  V30 3321 C 317.956 -1.54334 -1.0875 0
M  V30 3322 O 317.313 -0.702211 -1.6845 0
M  V30 3323 C 317.364 -3.60636 0.249835 0
M  V30 3324 O 317.085 -4.09526 1.55629 0
M  V30 3325 C 318.586 -4.42772 -0.216396 0
M  V30 3326 H 315.806 -0.659897 0.121558 0
M  V30 3327 H 318.35 -1.79449 0.980723 0
M  V30 3328 H 316.505 -3.85232 -0.409237 0
M  V30 3329 H 316.919 -5.03758 1.4604 0
M  V30 3330 H 318.393 -5.51702 -0.181212 0
M  V30 3331 H 318.87 -4.20756 -1.25941 0
M  V30 3332 H 319.476 -4.23294 0.412596 0
M  V30 3333 N 317.792 -0.46758 -1.50504 0
M  V30 3334 C 318.739 0.328413 -2.28452 0
M  V30 3335 C 319.709 0.990313 -1.33349 0
M  V30 3336 O 320.894 1.00343 -1.62284 0
M  V30 3337 C 318.034 1.40648 -3.15138 0
M  V30 3338 C 317.147 0.759709 -4.25267 0
M  V30 3339 C 316.282 1.81537 -4.99217 0
M  V30 3340 C 315.321 1.14866 -6.01226 0
M  V30 3341 N 314.458 2.14702 -6.68467 0
M  V30 3342 H 319.298 -0.342603 -2.96024 0
M  V30 3343 H 316.835 -0.180801 -1.45985 0
M  V30 3344 H 318.793 2.04315 -3.63746 0
M  V30 3345 H 317.423 2.04671 -2.49619 0
M  V30 3346 H 316.475 0.0105671 -3.80399 0
M  V30 3347 H 317.787 0.233243 -4.98254 0
M  V30 3348 H 316.941 2.52793 -5.51526 0
M  V30 3349 H 315.68 2.37564 -4.25928 0
M  V30 3350 H 314.685 0.42171 -5.4818 0
M  V30 3351 H 315.91 0.595334 -6.76485 0
M  V30 3352 H 313.856 2.69752 -5.97972 0
M  V30 3353 H 313.773 1.6703 -7.37317 0
M  V30 3354 H 315.041 2.85348 -7.25394 0
M  V30 3355 N 319.27 1.56325 -0.20005 0
M  V30 3356 C 320.517 1.97719 0.437411 0
M  V30 3357 C 320.845 1.08709 1.61284 0
M  V30 3358 O 320.1 0.127261 1.95286 0
M  V30 3359 C 320.399 3.4495 0.935103 0
M  V30 3360 C 320.065 4.5072 -0.12749 0
M  V30 3361 C 318.727 4.79368 -0.419451 0
M  V30 3362 C 321.079 5.14268 -0.847231 0
M  V30 3363 C 318.407 5.68854 -1.43604 0
M  V30 3364 C 320.759 6.04852 -1.85301 0
M  V30 3365 C 319.423 6.31855 -2.15211 0
M  V30 3366 H 318.693 0.723507 0.16006 0
M  V30 3367 H 321.34 1.89166 -0.298056 0
M  V30 3368 H 319.645 3.50599 1.74894 0
M  V30 3369 H 321.342 3.74337 1.43781 0
M  V30 3370 H 317.932 4.28458 0.11023 0
M  V30 3371 H 322.116 4.92222 -0.634901 0
M  V30 3372 H 317.372 5.88047 -1.67364 0
M  V30 3373 H 321.546 6.53152 -2.41591 0
M  V30 3374 H 319.173 7.00994 -2.94129 0
M  V30 3375 N 320.748 -0.0735177 1.57428 0
M  V30 3376 C 321.978 -0.78483 1.91112 0
M  V30 3377 C 322.386 -1.71729 0.7941 0
M  V30 3378 O 321.729 -1.82105 -0.241542 0
M  V30 3379 C 321.791 -1.63346 3.20247 0
M  V30 3380 C 321.455 -0.870557 4.48632 0
M  V30 3381 C 322.452 -0.19058 5.19551 0
M  V30 3382 C 320.137 -0.838242 4.95256 0
M  V30 3383 C 322.131 0.511503 6.35344 0
M  V30 3384 C 319.818 -0.132386 6.10957 0
M  V30 3385 C 320.816 0.541288 6.80852 0
M  V30 3386 O 320.504 1.23578 7.94345 0
M  V30 3387 H 320.236 -0.228408 0.636244 0
M  V30 3388 H 322.79 -0.0486039 2.05342 0
M  V30 3389 H 321.02 -2.41245 3.02222 0
M  V30 3390 H 322.709 -2.22329 3.39595 0
M  V30 3391 H 323.475 -0.206864 4.84559 0
M  V30 3392 H 319.354 -1.35206 4.40727 0
M  V30 3393 H 322.898 1.03789 6.89836 0
M  V30 3394 H 318.795 -0.114023 6.45399 0
M  V30 3395 H 319.563 1.14487 8.10454 0
M  V30 3396 N 322.226 -1.5378 -0.344866 0
M  V30 3397 C 323.189 -1.80981 -1.40637 0
M  V30 3398 C 324.189 -0.680816 -1.45676 0
M  V30 3399 O 325.379 -0.949095 -1.46075 0
M  V30 3400 C 322.511 -1.95063 -2.79577 0
M  V30 3401 H 323.704 -2.75803 -1.17783 0
M  V30 3402 H 321.257 -1.45173 -0.579181 0
M  V30 3403 H 321.992 -1.02379 -3.07716 0
M  V30 3404 H 321.777 -2.77198 -2.77315 0
M  V30 3405 H 323.267 -2.17629 -3.56409 0
M  V30 3406 N 323.704 0.605807 -1.45491 0
M  V30 3407 C 324.953 1.36086 -1.48874 0
M  V30 3408 C 325.266 1.95131 -0.135333 0
M  V30 3409 O 326.472 2.7146 -0.0468144 0
M  V30 3410 C 324.928 2.46518 -2.62215 0
M  V30 3411 C 324.536 1.93877 -4.03876 0
M  V30 3412 C 326.28 3.23512 -2.74846 0
M  V30 3413 C 324.187 3.01801 -5.08596 0
M  V30 3414 H 323.117 0.511497 -0.553974 0
M  V30 3415 H 325.768 0.649089 -1.71636 0
M  V30 3416 H 324.15 3.20388 -2.32739 0
M  V30 3417 H 325.324 1.26704 -4.43038 0
M  V30 3418 H 323.639 1.29622 -3.95711 0
M  V30 3419 H 326.236 4.04013 -3.50253 0
M  V30 3420 H 326.579 3.74631 -1.81542 0
M  V30 3421 H 327.112 2.56742 -3.03856 0
M  V30 3422 H 323.851 2.55597 -6.03614 0
M  V30 3423 H 323.371 3.67535 -4.74002 0
M  V30 3424 H 325.05 3.66152 -5.33424 0
M  V30 3425 N 325.182 1.32811 0.848464 0
M  V30 3426 C 326.593 1.21315 1.41914 0
M  V30 3427 C 326.944 -0.171847 1.95446 0
M  V30 3428 O 326.069 -1.07093 1.88043 0
M  V30 3429 C 326.664 2.19631 2.57968 0
M  V30 3430 C 325.223 2.12003 3.11017 0
M  V30 3431 C 324.37 2.07651 1.83783 0
M  V30 3432 H 327.321 1.44549 0.655071 0
M  V30 3433 H 327.342 1.79845 3.35315 0
M  V30 3434 H 326.854 3.20423 2.18976 0
M  V30 3435 H 324.955 1.14481 3.54577 0
M  V30 3436 H 325.068 3.02111 3.71841 0
M  V30 3437 H 323.432 1.52983 2.03638 0
M  V30 3438 H 324.215 3.10235 1.47 0
M  V30 3439 N 326.66 -1.06551 1.16123 0
M  V30 3440 C 327.908 -1.78947 0.939267 0
M  V30 3441 C 328.229 -1.87532 -0.534476 0
M  V30 3442 O 327.499 -1.38211 -1.38833 0
M  V30 3443 H 326.079 -0.662807 0.344523 0
M  V30 3444 H 328.741 -1.28725 1.46342 0
M  V30 3445 H 327.837 -2.81117 1.35572 0
M  V30 3446 N 328.138 -0.959301 -1.25041 0
M  V30 3447 C 329.068 -0.501388 -2.28053 0
M  V30 3448 C 330.049 0.454673 -1.63911 0
M  V30 3449 O 331.234 0.352618 -1.90972 0
M  V30 3450 C 328.364 0.217224 -3.4662 0
M  V30 3451 C 327.318 -0.654034 -4.22973 0
M  V30 3452 C 326.644 0.195589 -5.34342 0
M  V30 3453 C 327.944 -1.93447 -4.85155 0
M  V30 3454 H 329.638 -1.36238 -2.66608 0
M  V30 3455 H 327.184 -0.656534 -1.28163 0
M  V30 3456 H 329.137 0.548732 -4.17812 0
M  V30 3457 H 327.861 1.1125 -3.07068 0
M  V30 3458 H 326.52 -0.968693 -3.5357 0
M  V30 3459 H 326.168 1.09076 -4.91031 0
M  V30 3460 H 325.868 -0.384091 -5.86343 0
M  V30 3461 H 327.392 0.521958 -6.08365 0
M  V30 3462 H 328.806 -1.66908 -5.48466 0
M  V30 3463 H 327.203 -2.46018 -5.47353 0
M  V30 3464 H 328.273 -2.63466 -4.07079 0
M  V30 3465 N 329.616 1.39756 -0.72842 0
M  V30 3466 C 331.032 1.5442 -0.403308 0
M  V30 3467 C 331.232 1.69694 1.08656 0
M  V30 3468 O 330.288 1.69373 1.87267 0
M  V30 3469 C 331.601 2.76555 -1.18058 0
M  V30 3470 C 333.149 2.90384 -1.16815 0
M  V30 3471 C 333.624 4.15449 -1.92785 0
M  V30 3472 N 335.115 4.22475 -1.89918 0
M  V30 3473 C 335.85 5.1818 -2.45514 0
M  V30 3474 N 335.346 6.19714 -3.09719 0
M  V30 3475 N 337.139 5.1035 -2.35584 0
M  V30 3476 H 329.29 1.28089 -1.69431 0
M  V30 3477 H 331.553 0.620327 -0.716867 0
M  V30 3478 H 331.259 2.7159 -2.23455 0
M  V30 3479 H 331.133 3.69033 -0.780662 0
M  V30 3480 H 333.52 2.94846 -0.12234 0
M  V30 3481 H 333.601 1.98988 -1.6074 0
M  V30 3482 H 333.245 4.11749 -2.97364 0
M  V30 3483 H 333.175 5.05877 -1.46272 0
M  V30 3484 H 335.666 3.49743 -1.43138 0
M  V30 3485 H 335.979 6.8919 -3.49625 0
M  V30 3486 H 334.324 6.20121 -3.13807 0
M  V30 3487 H 337.515 4.2996 -1.85072 0
M  V30 3488 H 337.688 5.84761 -2.79211 0
M  V30 3489 N 331.094 0.475555 1.50254 0
M  V30 3490 C 332.024 -0.30611 2.31485 0
M  V30 3491 C 333.005 -0.986228 1.38591 0
M  V30 3492 O 334.19 -0.982541 1.67511 0
M  V30 3493 C 331.32 -1.38588 3.1845 0
M  V30 3494 C 330.274 -0.827115 4.19932 0
M  V30 3495 C 329.6 -2.00551 4.95665 0
M  V30 3496 C 330.9 0.16463 5.2204 0
M  V30 3497 H 332.594 0.371866 2.97082 0
M  V30 3498 H 330.14 0.180282 1.42867 0
M  V30 3499 H 332.093 -1.94023 3.74076 0
M  V30 3500 H 330.817 -2.09269 2.50747 0
M  V30 3501 H 329.476 -0.294702 3.65414 0
M  V30 3502 H 329.124 -2.6994 4.2443 0
M  V30 3503 H 328.824 -1.63784 5.64313 0
M  V30 3504 H 330.348 -2.56468 5.54127 0
M  V30 3505 H 331.762 -0.300699 5.72511 0
M  V30 3506 H 330.159 0.446813 5.98434 0
M  V30 3507 H 331.229 1.08905 4.72512 0
M  V30 3508 N 332.573 -1.56217 0.208337 0
M  V30 3509 C 333.821 -1.97558 -0.426076 0
M  V30 3510 C 334.142 -1.09683 -1.61229 0
M  V30 3511 O 333.412 -0.170956 -1.95153 0
M  V30 3512 H 331.992 -0.729575 -0.160405 0
M  V30 3513 H 334.654 -1.92606 0.298155 0
M  V30 3514 H 333.75 -3.02672 -0.761312 0
M  V30 3515 N 334.051 0.0651679 -1.57465 0
M  V30 3516 C 335.281 0.774683 -1.91526 0
M  V30 3517 C 335.689 1.71305 -0.803196 0
M  V30 3518 O 335.032 1.82231 0.231881 0
M  V30 3519 C 335.094 1.61645 -3.21109 0
M  V30 3520 C 334.758 0.846753 -4.49087 0
M  V30 3521 C 335.755 0.163024 -5.19644 0
M  V30 3522 C 333.44 0.811966 -4.95694 0
M  V30 3523 C 335.434 -0.54519 -6.35064 0
M  V30 3524 C 333.121 0.0999836 -6.11018 0
M  V30 3525 C 334.119 -0.577388 -6.80555 0
M  V30 3526 O 333.807 -1.27789 -7.93678 0
M  V30 3527 H 333.539 0.225031 -0.637446 0
M  V30 3528 H 336.093 0.0377134 -2.05365 0
M  V30 3529 H 334.323 2.39638 -3.03497 0
M  V30 3530 H 336.012 2.20525 -3.40769 0
M  V30 3531 H 336.778 0.181163 -4.84662 0
M  V30 3532 H 332.657 1.32867 -4.41438 0
M  V30 3533 H 336.201 -1.07446 -6.89276 0
M  V30 3534 H 332.098 0.0797945 -6.45451 0
M  V30 3535 H 332.866 -1.18784 -8.09835 0
M  V30 3536 N 335.529 1.53961 0.336706 0
M  V30 3537 C 336.459 1.85417 1.41925 0
M  V30 3538 C 337.44 0.709856 1.5458 0
M  V30 3539 O 338.625 0.962396 1.68676 0
M  V30 3540 C 335.755 2.06985 2.78881 0
M  V30 3541 C 334.709 3.22813 2.81026 0
M  V30 3542 C 334.035 3.29727 4.20932 0
M  V30 3543 C 335.335 4.60767 2.45949 0
M  V30 3544 H 337.029 2.76079 1.15848 0
M  V30 3545 H 334.575 1.32839 0.555859 0
M  V30 3546 H 336.528 2.27575 3.54665 0
M  V30 3547 H 335.252 1.13061 3.06406 0
M  V30 3548 H 333.911 3.0209 2.07695 0
M  V30 3549 H 333.559 2.33385 4.45579 0
M  V30 3550 H 333.259 4.07566 4.23277 0
M  V30 3551 H 334.783 3.52536 4.98549 0
M  V30 3552 H 336.197 4.81325 3.11446 0
M  V30 3553 H 334.594 5.4106 2.59566 0
M  V30 3554 H 335.664 4.6391 1.41122 0
M  V30 3555 N 337.007 -0.598083 1.45811 0
M  V30 3556 C 338.253 -1.35882 1.50545 0
M  V30 3557 C 338.586 -1.93616 0.150445 0
M  V30 3558 O 337.861 -1.75604 -0.83628 0
M  V30 3559 C 338.144 -2.49966 2.59208 0
M  V30 3560 C 337.997 -1.97367 4.04186 0
M  V30 3561 C 339.316 -3.52068 2.64076 0
M  V30 3562 H 336.435 -0.492717 0.548087 0
M  V30 3563 H 339.077 -0.673319 1.77669 0
M  V30 3564 H 337.227 -3.08443 2.3621 0
M  V30 3565 H 338.899 -1.43466 4.38423 0
M  V30 3566 H 337.142 -1.283 4.14393 0
M  V30 3567 H 337.813 -2.79649 4.75921 0
M  V30 3568 H 340.289 -3.03448 2.84708 0
M  V30 3569 H 339.165 -4.2937 3.41954 0
M  V30 3570 H 339.426 -4.08304 1.69531 0
M  V30 3571 N 338.485 -1.33259 -0.841409 0
M  V30 3572 C 339.433 -1.23279 -1.97244 0
M  V30 3573 C 340.427 -0.134706 -1.68864 0
M  V30 3574 O 341.633 -0.298501 -1.77508 0
M  V30 3575 H 338.008 -0.382497 -0.647457 0
M  V30 3576 H 339.979 -2.18906 -2.02787 0
M  V30 3577 C 338.728 -0.986268 -3.33419 0
M  V30 3578 H 338.051 -1.82347 -3.55794 0
M  V30 3579 H 339.491 -0.956728 -4.13065 0
M  V30 3580 C 337.95 0.310842 -3.35463 0
M  V30 3581 O 338.48 1.31838 -3.79449 0
M  V30 3582 N 336.686 0.337485 -2.88634 0
M  V30 3583 H 336.233 -0.482967 -2.53032 0
M  V30 3584 H 336.191 1.20518 -2.90384 0
M  V30 3585 N 339.963 1.05934 -1.16686 0
M  V30 3586 C 341.188 1.83029 -0.975455 0
M  V30 3587 C 341.613 1.82096 0.471452 0
M  V30 3588 O 340.971 1.22443 1.33706 0
M  V30 3589 C 341.019 3.27372 -1.51195 0
M  V30 3590 O 340.123 4.06054 -0.720701 0
M  V30 3591 H 339.464 0.566194 -0.346872 0
M  V30 3592 H 341.994 1.33541 -1.55009 0
M  V30 3593 H 342.004 3.78186 -1.53099 0
M  V30 3594 H 340.679 3.27366 -2.56523 0
M  V30 3595 H 339.256 3.64812 -0.772458 0
M  V30 3596 N 341.441 0.965919 1.2453 0
M  V30 3597 C 342.718 0.543777 1.87889 0
M  V30 3598 C 343.098 -0.97909 1.87021 0
M  V30 3599 O 342.446 -1.84969 1.3416 0
M  V30 3600 C 342.656 1.13327 3.30088 0
M  V30 3601 C 344.004 1.21707 4.06783 0
M  V30 3602 O 345.028 1.08566 3.39252 0
M  V30 3603 O 343.887 1.42456 5.27606 0
M  V30 3604 H 340.981 0.181054 0.806938 0
M  V30 3605 H 343.527 1.06007 1.32516 0
M  V30 3606 H 342.299 2.17612 3.25209 0
M  V30 3607 H 341.922 0.600911 3.93033 0
M  V30 3608 N 342.919 -1.39368 0.735821 0
M  V30 3609 C 344.196 -1.94465 0.210395 0
M  V30 3610 C 344.576 -1.67254 -1.28799 0
M  V30 3611 O 343.924 -1.00123 -2.05396 0
M  V30 3612 C 344.134 -3.4472 0.544897 0
M  V30 3613 C 345.482 -4.21708 0.494689 0
M  V30 3614 O 346.506 -3.52922 0.482136 0
M  V30 3615 O 345.365 -5.44299 0.489947 0
M  V30 3616 H 342.459 -0.826096 0.0386666 0
M  V30 3617 H 345.005 -1.48863 0.814735 0
M  V30 3618 H 343.777 -3.57963 1.58045 0
M  V30 3619 H 343.4 -3.97502 -0.08837 0
M  V30 3620 N 344.397 -0.483516 -1.5 0
M  V30 3621 C 345.36 0.292965 -2.2732 0
M  V30 3622 C 346.36 0.909499 -1.32608 0
M  V30 3623 O 347.55 0.776745 -1.55924 0
M  V30 3624 C 344.682 1.41854 -3.09984 0
M  V30 3625 H 345.875 -0.385289 -2.97415 0
M  V30 3626 H 343.428 -0.237942 -1.54478 0
M  V30 3627 H 344.163 2.13148 -2.44414 0
M  V30 3628 H 343.948 0.982114 -3.79601 0
M  V30 3629 H 345.438 1.96597 -3.68429 0
M  V30 3630 N 345.875 1.56104 -0.216619 0
M  V30 3631 C 346.838 2.18819 0.681962 0
M  V30 3632 C 347.838 1.14866 1.12528 0
M  V30 3633 O 349.028 1.40128 1.03488 0
M  V30 3634 C 346.16 2.80756 1.93362 0
M  V30 3635 H 347.353 2.99595 0.135254 0
M  V30 3636 H 344.906 1.56265 0.0330003 0
M  V30 3637 H 345.641 2.03837 2.52232 0
M  V30 3638 H 345.426 3.56876 1.62426 0
M  V30 3639 H 346.916 3.28844 2.57393 0
M  V30 3640 N 347.353 -0.0568162 1.57498 0
M  V30 3641 C 348.286 -1.09817 2.00039 0
M  V30 3642 C 349.264 -1.3674 0.879819 0
M  V30 3643 O 350.448 -1.49863 1.14338 0
M  V30 3644 C 347.575 -2.43924 2.34986 0
M  V30 3645 C 346.621 -2.33039 3.57204 0
M  V30 3646 S 347.454 -1.7102 5.07457 0
M  V30 3647 C 348.61 -3.06674 5.45621 0
M  V30 3648 H 348.843 -0.735701 2.88053 0
M  V30 3649 H 346.376 -0.265871 1.52094 0
M  V30 3650 H 348.334 -3.2106 2.55795 0
M  V30 3651 H 346.995 -2.77327 1.47474 0
M  V30 3652 H 346.188 -3.31973 3.79223 0
M  V30 3653 H 345.79 -1.64043 3.36104 0
M  V30 3654 H 348.082 -4.03 5.44608 0
M  V30 3655 H 349.025 -2.8942 6.46252 0
M  V30 3656 H 349.433 -3.07969 4.73091 0
M  V30 3657 N 348.832 -1.54138 -0.328536 0
M  V30 3658 C 349.795 -1.82462 -1.38709 0
M  V30 3659 C 350.795 -0.696229 -1.44946 0
M  V30 3660 O 351.985 -0.964535 -1.4506 0
M  V30 3661 C 349.117 -1.98018 -2.77492 0
M  V30 3662 H 350.31 -2.77037 -1.14851 0
M  V30 3663 H 347.863 -1.45779 -0.563751 0
M  V30 3664 H 348.598 -1.05637 -3.06613 0
M  V30 3665 H 348.383 -2.80124 -2.74359 0
M  V30 3666 H 349.873 -2.21396 -3.54081 0
M  V30 3667 N 350.31 0.590341 -1.46126 0
M  V30 3668 C 351.726 0.912917 -1.30912 0
M  V30 3669 C 351.926 1.99616 -0.274893 0
M  V30 3670 O 350.982 2.50397 0.325197 0
M  V30 3671 C 352.295 1.3375 -2.69317 0
M  V30 3672 C 353.843 1.45077 -2.77348 0
M  V30 3673 C 354.318 1.90904 -4.16317 0
M  V30 3674 N 355.809 1.9811 -4.18696 0
M  V30 3675 C 356.544 2.34828 -5.23109 0
M  V30 3676 N 356.04 2.70393 -6.37856 0
M  V30 3677 N 357.833 2.35317 -5.10473 0
M  V30 3678 H 349.984 -0.125358 -2.1203 0
M  V30 3679 H 352.247 0.00658481 -0.947977 0
M  V30 3680 H 351.953 0.615614 -3.4627 0
M  V30 3681 H 351.827 2.30058 -2.9892 0
M  V30 3682 H 354.214 2.16353 -2.00687 0
M  V30 3683 H 354.295 0.4704 -2.51438 0
M  V30 3684 H 353.939 1.20209 -4.9347 0
M  V30 3685 H 353.869 2.89886 -4.39629 0
M  V30 3686 H 356.36 1.73146 -3.359 0
M  V30 3687 H 356.673 2.97341 -7.13308 0
M  V30 3688 H 355.018 2.68048 -6.41229 0
M  V30 3689 H 358.209 2.0695 -4.19868 0
M  V30 3690 H 358.382 2.63605 -5.9196 0
M  V30 3691 N 351.788 1.33704 0.83433 0
M  V30 3692 C 352.721 1.18675 1.94914 0
M  V30 3693 C 353.699 0.0811145 1.62398 0
M  V30 3694 O 354.883 0.244186 1.86912 0
M  V30 3695 C 352.01 0.821231 3.28593 0
M  V30 3696 C 351.056 1.93501 3.80079 0
M  V30 3697 S 351.889 3.54671 4.01209 0
M  V30 3698 C 353.045 3.20136 5.37833 0
M  V30 3699 H 353.278 2.13043 2.07364 0
M  V30 3700 H 350.811 1.18598 0.988624 0
M  V30 3701 H 352.769 0.617123 4.05835 0
M  V30 3702 H 351.43 -0.103927 3.13928 0
M  V30 3703 H 350.623 1.63273 4.76821 0
M  V30 3704 H 350.225 2.09601 3.09747 0
M  V30 3705 H 352.517 2.71242 6.20833 0
M  V30 3706 H 353.46 4.15975 5.73036 0
M  V30 3707 H 353.868 2.56613 5.02802 0
M  V30 3708 N 353.266 -1.05314 1.17247 0
M  V30 3709 C 354.682 -1.30452 0.919473 0
M  V30 3710 C 354.882 -1.9703 -0.42209 0
M  V30 3711 O 353.938 -2.24311 -1.15935 0
M  V30 3712 C 355.251 -2.17551 2.07586 0
M  V30 3713 C 356.799 -2.30937 2.11275 0
M  V30 3714 C 357.274 -3.21396 3.26296 0
M  V30 3715 N 358.765 -3.28981 3.26076 0
M  V30 3716 C 359.5 -3.99095 4.11716 0
M  V30 3717 N 358.996 -4.71648 5.07465 0
M  V30 3718 N 360.789 -3.95247 3.9967 0
M  V30 3719 H 352.94 -0.604988 2.03602 0
M  V30 3720 H 355.203 -0.329368 0.888944 0
M  V30 3721 H 354.909 -1.75921 3.0454 0
M  V30 3722 H 354.783 -3.18182 2.02584 0
M  V30 3723 H 357.17 -2.71809 1.14907 0
M  V30 3724 H 357.251 -1.2994 2.20339 0
M  V30 3725 H 356.895 -2.81238 4.22927 0
M  V30 3726 H 356.825 -4.22395 3.14467 0
M  V30 3727 H 359.316 -2.77286 2.5675 0
M  V30 3728 H 359.629 -5.22705 5.6921 0
M  V30 3729 H 357.974 -4.70594 5.11435 0
M  V30 3730 H 361.165 -3.37691 3.24164 0
M  V30 3731 H 361.338 -4.4962 4.66632 0
M  V30 3732 N 354.744 -0.972509 -1.24016 0
M  V30 3733 C 356.16 -0.679827 -1.44397 0
M  V30 3734 C 356.36 0.756716 -1.86751 0
M  V30 3735 O 355.416 1.53007 -2.00861 0
M  V30 3736 C 356.729 -1.66803 -2.50195 0
M  V30 3737 C 358.277 -1.68119 -2.64017 0
M  V30 3738 C 358.752 -2.65748 -3.73017 0
M  V30 3739 N 360.243 -2.64219 -3.8045 0
M  V30 3740 C 360.978 -3.36433 -4.64328 0
M  V30 3741 N 360.474 -4.1818 -5.52356 0
M  V30 3742 N 362.267 -3.25235 -4.58453 0
M  V30 3743 H 354.418 -1.90059 -0.948228 0
M  V30 3744 H 356.681 -0.818527 -0.478245 0
M  V30 3745 H 356.387 -2.69498 -2.25973 0
M  V30 3746 H 356.261 -1.4446 -3.48441 0
M  V30 3747 H 358.648 -0.661319 -2.87594 0
M  V30 3748 H 358.729 -1.94525 -1.66113 0
M  V30 3749 H 358.373 -3.67872 -3.50189 0
M  V30 3750 H 358.303 -2.36619 -4.70446 0
M  V30 3751 H 360.794 -2.04887 -3.17537 0
M  V30 3752 H 361.107 -4.70157 -6.13329 0
M  V30 3753 H 359.452 -4.22273 -5.52006 0
M  V30 3754 H 362.643 -2.60829 -3.88698 0
M  V30 3755 H 362.816 -3.81776 -5.23594 0
M  V30 3756 N 356.222 1.38976 -0.743202 0
M  V30 3757 C 357.154 2.29096 -0.0689228 0
M  V30 3758 C 358.167 1.47229 0.694791 0
M  V30 3759 O 359.356 1.70212 0.537597 0
M  V30 3760 C 356.456 3.25988 0.926548 0
M  V30 3761 C 355.629 4.36833 0.222647 0
M  V30 3762 C 354.688 5.13981 1.12739 0
M  V30 3763 O 353.714 5.6601 0.601795 0
M  V30 3764 N 354.916 5.25966 2.45641 0
M  V30 3765 H 357.681 2.87604 -0.842846 0
M  V30 3766 H 355.242 1.50645 -0.593109 0
M  V30 3767 H 357.234 3.74476 1.5346 0
M  V30 3768 H 355.804 2.68453 1.60162 0
M  V30 3769 H 355.024 3.90116 -0.565983 0
M  V30 3770 H 356.312 5.0811 -0.264841 0
M  V30 3771 H 355.71 4.85228 2.9081 0
M  V30 3772 H 354.267 5.77865 3.01522 0
M  V30 3773 N 357.7 0.491464 1.49741 0
M  V30 3774 C 358.632 -0.328609 2.26832 0
M  V30 3775 C 359.645 -0.939113 1.32983 0
M  V30 3776 O 360.834 -0.824067 1.58339 0
M  V30 3777 C 357.934 -1.47675 3.05033 0
M  V30 3778 C 357.107 -0.975305 4.26388 0
M  V30 3779 C 356.166 -1.99991 4.86714 0
M  V30 3780 O 355.192 -1.57229 5.47054 0
M  V30 3781 N 356.394 -3.32962 4.75517 0
M  V30 3782 H 359.159 0.332377 2.97851 0
M  V30 3783 H 356.72 0.323441 1.58636 0
M  V30 3784 H 358.712 -2.15954 3.42266 0
M  V30 3785 H 357.282 -2.04206 2.36683 0
M  V30 3786 H 356.502 -0.117723 3.94024 0
M  V30 3787 H 357.79 -0.618531 5.05026 0
M  V30 3788 H 357.188 -3.70399 4.27576 0
M  V30 3789 H 355.745 -3.96982 5.16961 0
M  V30 3790 N 359.178 -1.55987 0.224894 0
M  V30 3791 C 360.111 -2.16413 -0.723929 0
M  V30 3792 C 361.089 -1.10952 -1.18863 0
M  V30 3793 O 362.273 -1.39225 -1.27077 0
M  V30 3794 C 359.4 -2.74711 -1.98121 0
M  V30 3795 C 358.446 -3.9303 -1.6562 0
M  V30 3796 S 359.279 -5.29817 -0.778058 0
M  V30 3797 C 360.435 -5.91555 -2.04483 0
M  V30 3798 H 360.668 -2.96555 -0.210347 0
M  V30 3799 H 358.201 -1.54397 0.00955457 0
M  V30 3800 H 360.159 -3.08938 -2.70311 0
M  V30 3801 H 358.82 -1.94555 -2.46591 0
M  V30 3802 H 358.013 -4.32334 -2.59043 0
M  V30 3803 H 357.615 -3.59966 -1.01491 0
M  V30 3804 H 359.907 -6.07732 -2.99446 0
M  V30 3805 H 360.85 -6.87498 -1.69563 0
M  V30 3806 H 361.258 -5.20419 -2.18688 0
M  V30 3807 N 360.656 0.0484629 -1.57525 0
M  V30 3808 C 362.067 0.597486 -1.76881 0
M  V30 3809 C 362.418 1.76664 -0.853475 0
M  V30 3810 O 361.543 2.16357 -0.0433656 0
M  V30 3811 C 362.138 1.09066 -3.20765 0
M  V30 3812 C 360.697 1.58535 -3.41385 0
M  V30 3813 C 359.844 0.514868 -2.72478 0
M  V30 3814 H 362.795 -0.177758 -1.57701 0
M  V30 3815 H 362.816 1.95875 -3.2621 0
M  V30 3816 H 362.328 0.239521 -3.8736 0
M  V30 3817 H 360.429 2.45898 -2.79937 0
M  V30 3818 H 360.542 1.64622 -4.49929 0
M  V30 3819 H 358.906 0.965407 -2.35695 0
M  V30 3820 H 359.689 -0.32648 -3.41744 0
M  V30 3821 N 362.134 1.5431 0.320358 0
M  V30 3822 C 363.38 1.73859 1.05568 0
M  V30 3823 C 363.735 0.507807 1.85578 0
M  V30 3824 O 363.028 -0.499789 1.84967 0
M  V30 3825 C 363.222 2.95639 2.00828 0
M  V30 3826 C 363.051 4.30444 1.30186 0
M  V30 3827 C 361.821 4.94544 1.03703 0
M  V30 3828 C 364.019 5.0929 0.716138 0
M  V30 3829 N 362.001 6.13172 0.298846 0
M  V30 3830 C 363.372 6.19903 0.109729 0
M  V30 3831 C 365.427 4.94034 0.619269 0
M  V30 3832 C 364.13 7.16924 -0.584153 0
M  V30 3833 C 366.156 5.91369 -0.0609184 0
M  V30 3834 C 365.518 7.01336 -0.656258 0
M  V30 3835 H 361.617 0.688988 0.36989 0
M  V30 3836 H 364.201 1.9177 0.336494 0
M  V30 3837 H 362.372 2.79188 2.70016 0
M  V30 3838 H 364.104 3.03802 2.6737 0
M  V30 3839 H 360.859 4.54536 1.33019 0
M  V30 3840 H 361.283 6.76977 -0.0561964 0
M  V30 3841 H 365.925 4.0916 1.06526 0
M  V30 3842 H 363.643 8.01354 -1.04197 0
M  V30 3843 H 367.229 5.81642 -0.135552 0
M  V30 3844 H 366.109 7.75359 -1.17423 0
M  V30 3845 N 363.613 -0.582584 1.46437 0
M  V30 3846 C 364.838 -1.37168 1.55563 0
M  V30 3847 C 365.263 -1.87061 0.19743 0
M  V30 3848 O 364.621 -1.61572 -0.822451 0
M  V30 3849 C 364.669 -2.53511 2.56446 0
M  V30 3850 O 363.773 -3.54953 2.09958 0
M  V30 3851 H 363.114 -0.408494 0.523477 0
M  V30 3852 H 365.644 -0.706646 1.9201 0
M  V30 3853 H 365.654 -3.00426 2.76058 0
M  V30 3854 H 364.329 -2.16549 3.55076 0
M  V30 3855 H 362.906 -3.14516 2.00334 0
M  V30 3856 N 365.091 -1.34144 -0.827227 0
M  V30 3857 C 366.337 -1.26446 -1.58554 0
M  V30 3858 C 366.67 0.1664 -1.93486 0
M  V30 3859 O 365.945 1.1107 -1.59667 0
M  V30 3860 C 366.228 -2.15111 -2.8879 0
M  V30 3861 C 366.081 -3.66712 -2.60465 0
M  V30 3862 C 367.4 -2.03311 -3.90324 0
M  V30 3863 H 364.519 -0.46067 -0.575284 0
M  V30 3864 H 367.161 -1.64356 -0.953269 0
M  V30 3865 H 365.311 -1.8291 -3.42748 0
M  V30 3866 H 366.983 -4.09259 -2.1285 0
M  V30 3867 H 365.226 -3.88014 -1.93978 0
M  V30 3868 H 365.897 -4.24112 -3.53317 0
M  V30 3869 H 368.373 -2.31574 -3.45706 0
M  V30 3870 H 367.249 -2.67582 -4.79261 0
M  V30 3871 H 367.51 -1.00879 -4.30437 0
M  V30 3872 N 366.569 1.04691 -1.17803 0
M  V30 3873 C 367.517 2.14665 -0.895635 0
M  V30 3874 C 368.511 1.68806 0.141679 0
M  V30 3875 O 369.717 1.79999 -0.00587914 0
M  V30 3876 H 366.092 0.701038 -0.272121 0
M  V30 3877 H 368.063 2.35685 -1.83017 0
M  V30 3878 C 366.812 3.45019 -0.430962 0
M  V30 3879 H 366.135 3.8071 -1.22064 0
M  V30 3880 H 367.575 4.23125 -0.272301 0
M  V30 3881 C 366.034 3.25943 0.852207 0
M  V30 3882 O 366.564 3.5296 1.91786 0
M  V30 3883 N 364.77 2.79304 0.802346 0
M  V30 3884 H 364.317 2.57518 -0.0650788 0
M  V30 3885 H 364.275 2.66921 1.66134 0
M  V30 3886 N 368.047 0.979072 1.23499 0
M  V30 3887 C 369.01 0.523244 2.23147 0
M  V30 3888 C 370.01 -0.386406 1.56088 0
M  V30 3889 O 371.2 -0.180283 1.73265 0
M  V30 3890 C 368.332 -0.240739 3.40049 0
M  V30 3891 H 369.525 1.40432 2.64989 0
M  V30 3892 H 367.078 0.764824 1.36309 0
M  V30 3893 H 367.813 -1.13841 3.03662 0
M  V30 3894 H 367.598 0.412207 3.89927 0
M  V30 3895 H 369.088 -0.548297 4.13985 0
M  V30 3896 N 369.525 -1.3858 0.750561 0
M  V30 3897 C 370.455 -2.33102 0.136237 0
M  V30 3898 C 371.436 -1.54713 -0.706965 0
M  V30 3899 O 372.621 -1.83043 -0.648769 0
M  V30 3900 C 369.751 -3.38882 -0.760017 0
M  V30 3901 C 368.705 -4.27995 -0.0197785 0
M  V30 3902 C 368.031 -5.24605 -1.03408 0
M  V30 3903 C 369.331 -5.09554 1.14684 0
M  V30 3904 H 371.025 -2.84726 0.925822 0
M  V30 3905 H 368.571 -1.36898 0.446654 0
M  V30 3906 H 370.524 -4.0397 -1.19943 0
M  V30 3907 H 369.248 -2.85734 -1.58189 0
M  V30 3908 H 367.907 -3.64409 0.400184 0
M  V30 3909 H 367.555 -4.67746 -1.84994 0
M  V30 3910 H 367.255 -5.85081 -0.543464 0
M  V30 3911 H 368.779 -5.9257 -1.47288 0
M  V30 3912 H 370.193 -5.67899 0.785118 0
M  V30 3913 H 368.59 -5.7925 1.56812 0
M  V30 3914 H 369.66 -4.4347 1.96118 0
M  V30 3915 N 371.003 -0.499398 -1.49478 0
M  V30 3916 C 371.966 0.268838 -2.27618 0
M  V30 3917 C 372.966 0.895383 -1.33565 0
M  V30 3918 O 374.156 0.760164 -1.56739 0
M  V30 3919 C 371.288 1.38559 -3.11471 0
M  V30 3920 H 372.481 -0.416812 -2.96989 0
M  V30 3921 H 370.034 -0.254313 -1.54217 0
M  V30 3922 H 370.769 2.10544 -2.46661 0
M  V30 3923 H 370.554 0.941797 -3.80621 0
M  V30 3924 H 372.044 1.92678 -3.70493 0
M  V30 3925 N 372.481 1.55866 -0.233164 0
M  V30 3926 C 373.444 2.1953 0.658715 0
M  V30 3927 C 374.444 1.16053 1.11303 0
M  V30 3928 O 375.634 1.41218 1.01996 0
M  V30 3929 C 372.766 2.82791 1.90373 0
M  V30 3930 H 373.959 2.99721 0.10347 0
M  V30 3931 H 371.512 1.56291 0.0164245 0
M  V30 3932 H 372.247 2.06501 2.50056 0
M  V30 3933 H 372.032 3.58578 1.58632 0
M  V30 3934 H 373.522 3.31556 2.53891 0
M  V30 3935 N 373.959 -0.0401083 1.57549 0
M  V30 3936 C 374.889 -1.04384 2.08869 0
M  V30 3937 C 375.87 -1.38407 0.988817 0
M  V30 3938 O 377.055 -1.47483 1.26342 0
M  V30 3939 C 374.185 -2.34808 2.55895 0
M  V30 3940 C 373.139 -2.15057 3.70047 0
M  V30 3941 C 372.465 -3.51145 4.03239 0
M  V30 3942 C 373.765 -1.54576 4.98902 0
M  V30 3943 H 375.459 -0.616666 2.92981 0
M  V30 3944 H 373.005 -0.295184 1.40942 0
M  V30 3945 H 374.958 -3.05346 2.90417 0
M  V30 3946 H 373.682 -2.79565 1.68853 0
M  V30 3947 H 372.341 -1.46954 3.35857 0
M  V30 3948 H 371.989 -3.93529 3.13279 0
M  V30 3949 H 371.689 -3.38758 4.80122 0
M  V30 3950 H 373.213 -4.23062 4.40285 0
M  V30 3951 H 374.627 -2.15017 5.31451 0
M  V30 3952 H 373.024 -1.52796 5.80322 0
M  V30 3953 H 374.094 -0.51039 4.82206 0
M  V30 3954 N 375.437 -1.54477 -0.31217 0
M  V30 3955 C 376.4 -1.83923 -1.36766 0
M  V30 3956 C 377.4 -0.711563 -1.44199 0
M  V30 3957 O 378.59 -0.979866 -1.44029 0
M  V30 3958 C 375.722 -2.0095 -2.75376 0
M  V30 3959 H 376.915 -2.78239 -1.11906 0
M  V30 3960 H 374.468 -1.46369 -0.548257 0
M  V30 3961 H 375.203 -1.08883 -3.05475 0
M  V30 3962 H 374.988 -2.83018 -2.71373 0
M  V30 3963 H 376.478 -2.2514 -3.51713 0
M  V30 3964 N 376.915 0.57481 -1.46744 0
M  V30 3965 C 378.163 1.33009 -1.52161 0
M  V30 3966 C 378.484 1.94185 -0.178092 0
M  V30 3967 O 377.754 1.7899 0.796196 0
M  V30 3968 H 376.334 0.493873 -0.560445 0
M  V30 3969 H 378.996 0.672589 -1.82927 0
M  V30 3970 H 378.092 2.13273 -2.27862 0
M  V30 3971 N 378.394 1.34581 0.820102 0
M  V30 3972 C 379.304 1.28471 1.96297 0
M  V30 3973 C 380.32 0.191902 1.72939 0
M  V30 3974 O 381.496 0.418879 1.96996 0
M  V30 3975 C 378.561 1.04281 3.30645 0
M  V30 3976 C 377.622 2.22745 3.66992 0
M  V30 3977 C 376.855 1.997 4.9493 0
M  V30 3978 O 377.078 0.956656 5.6232 0
M  V30 3979 O 376.012 2.86723 5.2922 0
M  V30 3980 H 379.838 2.24624 2.04396 0
M  V30 3981 H 377.423 1.14816 0.955913 0
M  V30 3982 H 379.305 0.925841 4.11104 0
M  V30 3983 H 377.98 0.111697 3.23507 0
M  V30 3984 H 376.887 2.40003 2.86966 0
M  V30 3985 H 378.22 3.14257 3.78819 0
M  V30 3986 N 379.872 -1.04064 1.18357 0
M  V30 3987 C 381.118 -1.77528 0.980397 0
M  V30 3988 C 381.451 -1.87948 -0.48879 0
M  V30 3989 O 380.726 -1.3876 -1.36293 0
M  V30 3990 C 381.009 -3.20797 1.63588 0
M  V30 3991 C 380.862 -3.1832 3.17793 0
M  V30 3992 C 382.181 -4.18911 1.34914 0
M  V30 3993 H 379.3 -0.644443 0.357578 0
M  V30 3994 H 381.942 -1.2156 1.46024 0
M  V30 3995 H 380.092 -3.68586 1.22788 0
M  V30 3996 H 381.764 -2.78521 3.67728 0
M  V30 3997 H 380.007 -2.56351 3.49952 0
M  V30 3998 H 380.678 -4.19489 3.58794 0
M  V30 3999 H 383.154 -3.7967 1.70265 0
M  V30 4000 H 382.03 -5.17374 1.83346 0
M  V30 4001 H 382.291 -4.41262 0.272027 0
M  V30 4002 N 381.35 -0.985608 -1.22978 0
M  V30 4003 C 382.313 -0.535071 -2.22867 0
M  V30 4004 C 383.313 0.378123 -1.56291 0
M  V30 4005 O 384.503 0.171092 -1.73358 0
M  V30 4006 C 381.635 0.222702 -3.40172 0
M  V30 4007 H 382.828 -1.41835 -2.6424 0
M  V30 4008 H 380.381 -0.772042 -1.35901 0
M  V30 4009 H 381.116 1.12229 -3.04262 0
M  V30 4010 H 380.901 -0.43288 -3.89703 0
M  V30 4011 H 382.391 0.526335 -4.1427 0
M  V30 4012 N 382.828 1.3818 -0.7579 0
M  V30 4013 C 383.758 2.33027 -0.148597 0
M  V30 4014 C 384.739 1.55085 0.69875 0
M  V30 4015 O 385.924 1.83384 0.639053 0
M  V30 4016 C 383.054 3.3928 0.742034 0
M  V30 4017 C 382.008 4.28 -0.00291946 0
M  V30 4018 C 381.334 5.25146 1.00625 0
M  V30 4019 C 382.634 5.08938 -1.17385 0
M  V30 4020 H 384.328 2.84231 -0.940909 0
M  V30 4021 H 381.874 1.36659 -0.453908 0
M  V30 4022 H 383.827 4.046 1.17799 0
M  V30 4023 H 382.551 2.86569 1.56671 0
M  V30 4024 H 381.21 3.64192 -0.419504 0
M  V30 4025 H 380.858 4.68721 1.8251 0
M  V30 4026 H 380.558 5.85361 0.512428 0
M  V30 4027 H 382.082 5.93342 1.44143 0
M  V30 4028 H 383.496 5.67474 -0.815224 0
M  V30 4029 H 381.893 5.7841 -1.59882 0
M  V30 4030 H 382.963 4.42424 -1.98468 0
M  V30 4031 N 384.306 0.507319 1.49211 0
M  V30 4032 C 385.238 -0.304532 2.27168 0
M  V30 4033 C 386.251 -0.924956 1.33972 0
M  V30 4034 O 387.44 -0.807227 1.59205 0
M  V30 4035 C 384.54 -1.44431 3.06583 0
M  V30 4036 C 383.713 -0.930026 4.27398 0
M  V30 4037 C 382.772 -1.94817 4.88807 0
M  V30 4038 O 381.798 -1.51418 5.4869 0
M  V30 4039 N 383 -3.279 4.79022 0
M  V30 4040 H 385.765 0.36395 2.97482 0
M  V30 4041 H 383.326 0.340249 1.58284 0
M  V30 4042 H 385.318 -2.12311 3.44537 0
M  V30 4043 H 383.888 -2.01684 2.38835 0
M  V30 4044 H 383.108 -0.0759244 3.94127 0
M  V30 4045 H 384.396 -0.564932 5.05654 0
M  V30 4046 H 383.794 -3.65843 4.3148 0
M  V30 4047 H 382.351 -3.91476 5.21142 0
M  V30 4048 N 385.784 -1.5574 0.241426 0
M  V30 4049 C 387.061 -1.90704 -0.434881 0
M  V30 4050 C 387.441 -1.16145 -1.76277 0
M  V30 4051 O 386.789 -0.277152 -2.26813 0
M  V30 4052 C 386.999 -3.43657 -0.608343 0
M  V30 4053 C 388.347 -4.14806 -0.906725 0
M  V30 4054 O 389.371 -3.49366 -0.694408 0
M  V30 4055 O 388.23 -5.30548 -1.31075 0
M  V30 4056 H 385.324 -0.793592 -0.23268 0
M  V30 4057 H 387.87 -1.67288 0.285086 0
M  V30 4058 H 386.642 -3.89927 0.327505 0
M  V30 4059 H 386.265 -3.72918 -1.37906 0
M  V30 4060 N 387.262 0.0317525 -1.57568 0
M  V30 4061 C 388.487 0.738664 -1.938 0
M  V30 4062 C 388.912 1.68242 -0.841208 0
M  V30 4063 O 388.27 1.80157 0.203267 0
M  V30 4064 C 388.318 1.47417 -3.29091 0
M  V30 4065 O 387.422 2.5872 -3.2115 0
M  V30 4066 H 386.763 0.198856 -0.633524 0
M  V30 4067 H 389.293 -0.0119713 -2.04596 0
M  V30 4068 H 389.303 1.84468 -3.63917 0
M  V30 4069 H 387.978 0.781988 -4.08482 0
M  V30 4070 H 386.555 2.24231 -2.97951 0
M  V30 4071 N 388.74 1.54641 0.303973 0
M  V30 4072 C 389.703 1.84646 1.35789 0
M  V30 4073 C 390.703 0.7192 1.4382 0
M  V30 4074 O 391.893 0.987491 1.43507 0
M  V30 4075 C 389.025 2.02407 2.74307 0
M  V30 4076 H 390.218 2.78829 1.10429 0
M  V30 4077 H 387.771 1.46658 0.540487 0
M  V30 4078 H 388.506 1.10502 3.04893 0
M  V30 4079 H 388.291 2.84453 2.69868 0
M  V30 4080 H 389.781 2.27002 3.50514 0
M  V30 4081 N 390.218 -0.567019 1.47046 0
M  V30 4082 C 391.464 -1.32434 1.54379 0
M  V30 4083 C 391.819 -1.91365 0.199276 0
M  V30 4084 O 391.112 -1.74378 -0.793915 0
M  V30 4085 C 391.306 -2.4623 2.59047 0
M  V30 4086 C 391.135 -1.98448 4.03545 0
M  V30 4087 C 389.905 -1.82741 4.71098 0
M  V30 4088 C 392.103 -1.53477 4.90866 0
M  V30 4089 N 390.085 -1.29196 6.00151 0
M  V30 4090 C 391.456 -1.1163 6.09868 0
M  V30 4091 C 393.511 -1.41438 4.77388 0
M  V30 4092 C 392.214 -0.589425 7.16881 0
M  V30 4093 C 394.24 -0.901528 5.84488 0
M  V30 4094 C 393.602 -0.492932 7.02673 0
M  V30 4095 H 389.701 -0.477005 0.61967 0
M  V30 4096 H 392.285 -0.643856 1.83746 0
M  V30 4097 H 390.456 -3.11821 2.31564 0
M  V30 4098 H 392.188 -3.13213 2.56281 0
M  V30 4099 H 388.943 -2.05162 4.26855 0
M  V30 4100 H 389.367 -1.0454 6.6888 0
M  V30 4101 H 394.009 -1.71643 3.86392 0
M  V30 4102 H 391.727 -0.274994 8.07632 0
M  V30 4103 H 395.313 -0.812071 5.76105 0
M  V30 4104 H 394.193 -0.102227 7.84133 0
M  V30 4105 N 391.696 -1.35014 -0.812953 0
M  V30 4106 C 392.628 -1.23262 -1.93233 0
M  V30 4107 C 393.641 -0.157371 -1.62038 0
M  V30 4108 O 394.83 -0.410096 -1.73725 0
M  V30 4109 C 391.93 -0.87392 -3.27438 0
M  V30 4110 C 391.103 -2.04622 -3.86586 0
M  V30 4111 C 390.162 -1.66432 -4.99186 0
M  V30 4112 O 389.188 -2.38222 -5.16951 0
M  V30 4113 N 390.39 -0.584248 -5.77552 0
M  V30 4114 H 393.155 -2.19699 -2.03844 0
M  V30 4115 H 390.716 -1.281 -0.99005 0
M  V30 4116 H 392.708 -0.600039 -4.00227 0
M  V30 4117 H 391.278 0.00057392 -3.126 0
M  V30 4118 H 390.498 -2.48427 -3.06068 0
M  V30 4119 H 391.786 -2.82999 -4.22835 0
M  V30 4120 H 391.184 0.0123526 -5.65699 0
M  V30 4121 H 389.741 -0.37013 -6.50748 0
M  V30 4122 N 393.175 1.03435 -1.18907 0
M  V30 4123 C 394.107 2.1165 -0.879595 0
M  V30 4124 C 395.12 1.62316 0.125439 0
M  V30 4125 O 396.309 1.78201 -0.103245 0
M  V30 4126 C 393.409 3.37622 -0.294042 0
M  V30 4127 C 392.582 4.16166 -1.34629 0
M  V30 4128 C 391.641 5.20457 -0.775274 0
M  V30 4129 O 390.667 5.50379 -1.4516 0
M  V30 4130 N 391.869 5.78949 0.424126 0
M  V30 4131 H 394.634 2.38791 -1.81105 0
M  V30 4132 H 392.195 1.19681 -1.09032 0
M  V30 4133 H 394.187 4.04572 0.101679 0
M  V30 4134 H 392.757 3.07873 0.541575 0
M  V30 4135 H 391.977 3.44444 -1.91707 0
M  V30 4136 H 393.265 4.65432 -2.05549 0
M  V30 4137 H 392.663 5.56948 0.991209 0
M  V30 4138 H 391.22 6.47334 0.761691 0
M  V30 4139 N 394.653 0.992116 1.22453 0
M  V30 4140 C 395.616 0.546883 2.2258 0
M  V30 4141 C 396.616 -0.369829 1.56489 0
M  V30 4142 O 397.806 -0.161896 1.73446 0
M  V30 4143 C 394.938 -0.204659 3.40285 0
M  V30 4144 H 396.131 1.43234 2.63484 0
M  V30 4145 H 393.684 0.779239 1.3549 0
M  V30 4146 H 394.419 -1.10614 3.04853 0
M  V30 4147 H 394.204 0.45354 3.89468 0
M  V30 4148 H 395.694 -0.504358 4.14543 0
M  V30 4149 N 396.131 -1.37776 0.765217 0
M  V30 4150 C 397.359 -2.04124 0.337767 0
M  V30 4151 C 397.774 -1.57715 -1.03785 0
M  V30 4152 O 397.131 -0.755447 -1.6613 0
M  V30 4153 C 397.182 -3.59658 0.364442 0
M  V30 4154 O 396.903 -4.04367 1.68579 0
M  V30 4155 C 398.404 -4.43236 -0.0754221 0
M  V30 4156 H 395.624 -0.655696 0.142491 0
M  V30 4157 H 398.168 -1.76238 1.03732 0
M  V30 4158 H 396.323 -3.86339 -0.286471 0
M  V30 4159 H 396.737 -4.98857 1.61993 0
M  V30 4160 H 398.211 -5.52 -0.00560067 0
M  V30 4161 H 398.688 -4.2455 -1.12491 0
M  V30 4162 H 399.294 -4.21767 0.547055 0
M  V30 4163 N 397.609 -0.515225 -1.4894 0
M  V30 4164 C 398.855 0.016187 -2.03394 0
M  V30 4165 C 399.21 1.33377 -1.38666 0
M  V30 4166 O 398.503 1.84461 -0.518141 0
M  V30 4167 C 398.697 0.210595 -3.56779 0
M  V30 4168 C 398.526 -1.08659 -4.36375 0
M  V30 4169 C 397.296 -1.64237 -4.77864 0
M  V30 4170 C 399.494 -1.9935 -4.74093 0
M  V30 4171 N 397.476 -2.88398 -5.41941 0
M  V30 4172 C 398.847 -3.08088 -5.38035 0
M  V30 4173 C 400.902 -1.99856 -4.56029 0
M  V30 4174 C 399.605 -4.17377 -5.85823 0
M  V30 4175 C 401.631 -3.08129 -5.04787 0
M  V30 4176 C 400.993 -4.15586 -5.68742 0
M  V30 4177 H 397.092 -0.0352107 -0.781207 0
M  V30 4178 H 399.676 -0.693237 -1.8194 0
M  V30 4179 H 397.847 0.889088 -3.78087 0
M  V30 4180 H 399.579 0.740287 -3.97872 0
M  V30 4181 H 396.334 -1.18566 -4.58518 0
M  V30 4182 H 396.758 -3.51572 -5.78555 0
M  V30 4183 H 401.4 -1.18079 -4.05977 0
M  V30 4184 H 399.118 -4.99943 -6.34888 0
M  V30 4185 H 402.704 -3.09557 -4.92611 0
M  V30 4186 H 401.584 -4.97987 -6.05787 0
M  V30 4187 N 399.087 1.5561 -0.249682 0
M  V30 4188 C 400.037 2.18157 0.662673 0
M  V30 4189 C 401.021 1.1383 1.13717 0
M  V30 4190 O 402.213 1.39731 1.08648 0
M  V30 4191 C 399.342 2.88672 1.85805 0
M  V30 4192 C 398.428 4.00258 1.40193 0
M  V30 4193 N 398.819 5.01473 0.660213 0
M  V30 4194 C 397.117 4.12864 1.68698 0
M  V30 4195 C 397.818 5.80155 0.423695 0
M  V30 4196 N 396.794 5.34533 0.988721 0
M  V30 4197 H 400.596 2.93769 0.0878688 0
M  V30 4198 H 398.11 1.62316 -0.0521183 0
M  V30 4199 H 400.107 3.31912 2.5227 0
M  V30 4200 H 398.767 2.14564 2.43705 0
M  V30 4201 H 399.778 5.16971 0.310047 0
M  V30 4202 H 396.455 3.4993 2.27717 0
M  V30 4203 H 397.845 6.71688 -0.168616 0
M  V30 4204 N 400.565 -0.0233959 1.57583 0
M  V30 4205 C 401.811 -0.708611 1.90657 0
M  V30 4206 C 402.166 -1.7266 0.848895 0
M  V30 4207 O 401.459 -1.91075 -0.141749 0
M  V30 4208 C 401.653 -1.41428 3.28227 0
M  V30 4209 C 401.482 -0.466155 4.47277 0
M  V30 4210 C 400.252 -0.085117 5.05228 0
M  V30 4211 C 402.45 0.257836 5.13653 0
M  V30 4212 N 400.432 0.863672 6.07794 0
M  V30 4213 C 401.803 1.06209 6.10835 0
M  V30 4214 C 403.858 0.324174 4.96844 0
M  V30 4215 C 402.561 1.9266 6.93018 0
M  V30 4216 C 404.587 1.17583 5.79593 0
M  V30 4217 C 403.949 1.96799 6.7635 0
M  V30 4218 H 400.048 -0.233222 0.746412 0
M  V30 4219 H 402.632 0.0314512 1.94675 0
M  V30 4220 H 400.803 -2.12477 3.25128 0
M  V30 4221 H 402.535 -2.05233 3.488 0
M  V30 4222 H 399.29 -0.448516 4.71471 0
M  V30 4223 H 399.714 1.33274 6.63752 0
M  V30 4224 H 404.356 -0.273975 4.21911 0
M  V30 4225 H 402.074 2.53552 7.67292 0
M  V30 4226 H 405.66 1.23076 5.68633 0
M  V30 4227 H 404.54 2.61635 7.39268 0
M  V30 4228 N 402.043 -1.548 -0.295768 0
M  V30 4229 C 402.973 -1.89115 -1.36959 0
M  V30 4230 C 403.954 -0.75059 -1.52644 0
M  V30 4231 O 405.139 -1.00678 -1.66065 0
M  V30 4232 C 402.269 -2.14307 -2.73295 0
M  V30 4233 C 401.223 -3.30151 -2.72368 0
M  V30 4234 C 400.549 -3.40772 -4.12042 0
M  V30 4235 C 401.849 -4.67126 -2.33646 0
M  V30 4236 H 403.543 -2.79053 -1.08488 0
M  V30 4237 H 401.089 -1.34266 -0.520443 0
M  V30 4238 H 403.042 -2.36898 -3.48507 0
M  V30 4239 H 401.766 -1.21145 -3.03301 0
M  V30 4240 H 400.425 -3.0749 -1.99613 0
M  V30 4241 H 400.073 -2.45117 -4.39234 0
M  V30 4242 H 399.773 -4.18645 -4.12322 0
M  V30 4243 H 401.297 -3.6563 -4.89027 0
M  V30 4244 H 402.711 -4.89414 -2.98575 0
M  V30 4245 H 401.108 -5.47751 -2.45129 0
M  V30 4246 H 402.178 -4.67489 -1.28772 0
M  V30 4247 N 403.521 0.559213 -1.47345 0
M  V30 4248 C 404.937 0.884943 -1.32819 0
M  V30 4249 C 405.137 1.98988 -0.317173 0
M  V30 4250 O 404.193 2.51031 0.272011 0
M  V30 4251 C 405.506 1.28007 -2.72093 0
M  V30 4252 C 407.054 1.39161 -2.80363 0
M  V30 4253 C 407.529 1.82031 -4.20272 0
M  V30 4254 N 409.02 1.89185 -4.22804 0
M  V30 4255 C 409.755 2.2368 -5.27973 0
M  V30 4256 N 409.251 2.56802 -6.43447 0
M  V30 4257 N 411.044 2.24436 -5.15349 0
M  V30 4258 H 403.195 -0.170304 -2.11716 0
M  V30 4259 H 405.458 -0.0135247 -0.947904 0
M  V30 4260 H 405.164 0.542027 -3.47498 0
M  V30 4261 H 405.038 2.23665 -3.03733 0
M  V30 4262 H 407.425 2.12048 -2.05231 0
M  V30 4263 H 407.506 0.41696 -2.52379 0
M  V30 4264 H 407.15 1.09715 -4.95908 0
M  V30 4265 H 407.08 2.80495 -4.45679 0
M  V30 4266 H 409.571 1.65982 -3.39497 0
M  V30 4267 H 409.884 2.82144 -7.19454 0
M  V30 4268 H 408.229 2.54387 -6.46771 0
M  V30 4269 H 411.42 1.97998 -4.24163 0
M  V30 4270 H 411.593 2.50989 -5.97418 0
M  V30 4271 N 404.999 1.35443 0.805782 0
M  V30 4272 C 405.909 1.30546 1.94923 0
M  V30 4273 C 406.925 0.210233 1.72725 0
M  V30 4274 O 408.101 0.43975 1.9654 0
M  V30 4275 C 405.166 1.07782 3.29521 0
M  V30 4276 C 404.227 2.26625 3.64609 0
M  V30 4277 C 403.46 2.04938 4.92784 0
M  V30 4278 O 403.683 1.01624 5.61274 0
M  V30 4279 O 402.617 2.9232 5.26149 0
M  V30 4280 H 406.443 2.26779 2.02002 0
M  V30 4281 H 404.028 1.15823 0.943682 0
M  V30 4282 H 405.91 0.969392 4.10098 0
M  V30 4283 H 404.585 0.146003 3.23371 0
M  V30 4284 H 403.492 2.43033 2.84404 0
M  V30 4285 H 404.825 3.18257 3.75464 0
M  V30 4286 N 406.477 -1.02803 1.19454 0
M  V30 4287 C 407.387 -2.14575 0.948408 0
M  V30 4288 C 408.403 -1.73757 -0.091871 0
M  V30 4289 O 409.579 -2.01185 0.0929654 0
M  V30 4290 C 406.644 -3.43202 0.491265 0
M  V30 4291 C 405.705 -3.98328 1.60103 0
M  V30 4292 C 404.938 -5.20816 1.16561 0
M  V30 4293 O 405.161 -5.70392 0.0295238 0
M  V30 4294 O 404.095 -5.68801 1.96849 0
M  V30 4295 H 407.921 -2.38202 1.88397 0
M  V30 4296 H 405.506 -1.12989 0.977433 0
M  V30 4297 H 407.388 -4.20687 0.245015 0
M  V30 4298 H 406.063 -3.21018 -0.415851 0
M  V30 4299 H 404.97 -3.22174 1.90144 0
M  V30 4300 H 406.303 -4.24879 2.48473 0
M  V30 4301 N 407.956 -0.998596 -1.21925 0
M  V30 4302 C 409.204 -0.676325 -1.90448 0
M  V30 4303 C 409.525 0.794719 -1.78071 0
M  V30 4304 O 408.795 1.5701 -1.17152 0
M  V30 4305 H 407.375 -0.247165 -0.704925 0
M  V30 4306 H 410.037 -1.26633 -1.48156 0
M  V30 4307 H 409.133 -0.943858 -2.97486 0
M  V30 4308 N 409.434 1.37368 -0.772513 0
M  V30 4309 C 410.397 2.28601 -0.165541 0
M  V30 4310 C 411.397 1.48062 0.627238 0
M  V30 4311 O 412.587 1.68268 0.450715 0
M  V30 4312 C 409.719 3.32023 0.772897 0
M  V30 4313 H 410.912 2.83787 -0.969787 0
M  V30 4314 H 408.465 1.46647 -0.540775 0
M  V30 4315 H 409.2 2.81962 1.60212 0
M  V30 4316 H 408.985 3.91555 0.206585 0
M  V30 4317 H 410.475 4.00197 1.19298 0
M  V30 4318 N 410.912 0.523116 1.48665 0
M  V30 4319 C 412.328 0.180511 1.58576 0
M  V30 4320 C 412.528 -1.31597 1.52592 0
M  V30 4321 O 411.584 -2.0937 1.4114 0
M  V30 4322 C 412.897 0.776949 2.90489 0
M  V30 4323 C 414.445 0.745058 3.04003 0
M  V30 4324 C 414.92 1.31995 4.38567 0
M  V30 4325 N 416.411 1.28162 4.45117 0
M  V30 4326 C 417.146 1.6964 5.47731 0
M  V30 4327 N 416.642 2.18816 6.57337 0
M  V30 4328 N 418.435 1.6092 5.38573 0
M  V30 4329 H 410.586 1.4958 1.50797 0
M  V30 4330 H 412.849 0.621772 0.715614 0
M  V30 4331 H 412.555 1.82732 3.00503 0
M  V30 4332 H 412.429 0.25007 3.7637 0
M  V30 4333 H 414.816 -0.296532 2.93606 0
M  V30 4334 H 414.897 1.30933 2.1975 0
M  V30 4335 H 414.541 2.36043 4.49718 0
M  V30 4336 H 414.471 0.731418 5.21496 0
M  V30 4337 H 416.962 0.92155 3.66491 0
M  V30 4338 H 417.275 2.48478 7.31764 0
M  V30 4339 H 415.62 2.22805 6.58318 0
M  V30 4340 H 418.811 1.22304 4.5184 0
M  V30 4341 H 418.984 1.93567 6.18414 0
M  V30 4342 N 412.39 -1.55475 0.257931 0
M  V30 4343 C 413.637 -1.99207 -0.363728 0
M  V30 4344 C 413.965 -1.1462 -1.57139 0
M  V30 4345 O 413.22 -0.199653 -1.94679 0
M  V30 4346 C 413.519 -3.48183 -0.806433 0
M  V30 4347 C 413.185 -4.49936 0.294684 0
M  V30 4348 C 411.847 -4.77481 0.597076 0
M  V30 4349 C 414.199 -5.10769 1.03751 0
M  V30 4350 C 411.527 -5.63132 1.64618 0
M  V30 4351 C 413.879 -5.97558 2.07622 0
M  V30 4352 C 412.543 -6.23432 2.38514 0
M  V30 4353 H 411.813 -0.728949 -0.133097 0
M  V30 4354 H 414.46 -1.8793 0.368059 0
M  V30 4355 H 412.765 -3.56848 -1.61761 0
M  V30 4356 H 414.462 -3.79415 -1.29789 0
M  V30 4357 H 411.052 -4.28572 0.0488649 0
M  V30 4358 H 415.236 -4.89527 0.817149 0
M  V30 4359 H 410.492 -5.8143 1.89074 0
M  V30 4360 H 414.666 -6.43735 2.65666 0
M  V30 4361 H 412.293 -6.89594 3.19943 0
M  V30 4362 N 413.868 0.0150385 -1.57593 0
M  V30 4363 C 415.098 0.713359 -1.93894 0
M  V30 4364 C 415.506 1.68663 -0.857289 0
M  V30 4365 O 414.849 1.82876 0.173788 0
M  V30 4366 C 414.911 1.51348 -3.26089 0
M  V30 4367 C 414.575 0.703451 -4.51554 0
M  V30 4368 C 415.572 -0.00237924 -5.199 0
M  V30 4369 C 413.257 0.653854 -4.98026 0
M  V30 4370 C 415.251 -0.746955 -6.33008 0
M  V30 4371 C 412.938 -0.0944578 -6.11027 0
M  V30 4372 C 413.936 -0.793609 -6.78374 0
M  V30 4373 O 413.624 -1.52974 -7.89211 0
M  V30 4374 H 413.356 0.204637 -0.644282 0
M  V30 4375 H 415.91 -0.0276411 -2.05381 0
M  V30 4376 H 414.14 2.29862 -3.10967 0
M  V30 4377 H 415.829 2.09572 -3.47612 0
M  V30 4378 H 416.595 0.0268803 -4.84993 0
M  V30 4379 H 412.474 1.18756 -4.45441 0
M  V30 4380 H 416.018 -1.2932 -6.85509 0
M  V30 4381 H 411.915 -0.125591 -6.45378 0
M  V30 4382 H 412.683 -1.44488 -8.05646 0
M  V30 4383 N 415.346 1.54954 0.287554 0
M  V30 4384 C 416.278 1.83224 1.37701 0
M  V30 4385 C 417.291 0.715898 1.46215 0
M  V30 4386 O 418.48 0.993565 1.48292 0
M  V30 4387 C 415.58 1.96723 2.75959 0
M  V30 4388 C 414.753 3.27253 2.90215 0
M  V30 4389 C 413.812 3.30998 4.09056 0
M  V30 4390 O 412.838 4.04457 4.00503 0
M  V30 4391 N 414.04 2.57353 5.20336 0
M  V30 4392 H 416.805 2.77254 1.138 0
M  V30 4393 H 414.366 1.54694 0.477652 0
M  V30 4394 H 416.358 1.96615 3.5373 0
M  V30 4395 H 414.928 1.09626 2.92747 0
M  V30 4396 H 414.148 3.40022 1.99447 0
M  V30 4397 H 415.436 4.13365 2.96659 0
M  V30 4398 H 414.834 1.97327 5.30169 0
M  V30 4399 H 413.391 2.62984 5.96391 0
M  V30 4400 N 416.824 -0.551391 1.4764 0
M  V30 4401 C 417.787 -1.64007 1.60107 0
M  V30 4402 C 418.787 -1.53601 0.47576 0
M  V30 4403 O 419.977 -1.57655 0.740988 0
M  V30 4404 C 417.109 -3.03569 1.55108 0
M  V30 4405 H 418.302 -1.543 2.57161 0
M  V30 4406 H 415.855 -0.771776 1.35917 0
M  V30 4407 H 416.59 -3.18804 0.594519 0
M  V30 4408 H 416.375 -3.12532 2.36783 0
M  V30 4409 H 417.865 -3.82762 1.66982 0
M  V30 4410 N 418.302 -1.35869 -0.798587 0
M  V30 4411 C 419.232 -1.32118 -1.92528 0
M  V30 4412 C 420.213 -0.194209 -1.68988 0
M  V30 4413 O 421.398 -0.390426 -1.90235 0
M  V30 4414 C 418.528 -1.10047 -3.29404 0
M  V30 4415 C 417.482 -2.19471 -3.67446 0
M  V30 4416 C 416.808 -1.82555 -5.02571 0
M  V30 4417 C 418.108 -3.61495 -3.76987 0
M  V30 4418 H 419.802 -2.26394 -1.95924 0
M  V30 4419 H 417.348 -1.08981 -0.94123 0
M  V30 4420 H 419.301 -1.06061 -4.07835 0
M  V30 4421 H 418.025 -0.122195 -3.26371 0
M  V30 4422 H 416.684 -2.22568 -2.91306 0
M  V30 4423 H 416.332 -0.833249 -4.9605 0
M  V30 4424 H 416.032 -2.5581 -5.28995 0
M  V30 4425 H 417.556 -1.80108 -5.83432 0
M  V30 4426 H 418.97 -3.60676 -4.4563 0
M  V30 4427 H 417.367 -4.33577 -4.14887 0
M  V30 4428 H 418.437 -3.97065 -2.78329 0
M  V30 4429 N 419.78 1.02168 -1.19998 0
M  V30 4430 C 421.02 1.77232 -1.01825 0
M  V30 4431 C 421.384 1.86833 0.442428 0
M  V30 4432 O 422.585 2.58293 0.744189 0
M  V30 4433 C 420.856 3.15601 -1.67722 0
M  V30 4434 S 422.415 4.06765 -1.64584 0
M  V30 4435 H 419.233 0.610021 -0.365233 0
M  V30 4436 H 421.835 1.22368 -1.52467 0
M  V30 4437 H 420.539 3.06235 -2.73218 0
M  V30 4438 H 420.07 3.7554 -1.17189 0
M  V30 4439 H 422.085 4.91586 -0.67511 0
M  V30 4440 N 421.258 1.00505 1.21394 0
M  V30 4441 C 422.19 0.52372 2.23136 0
M  V30 4442 C 423.203 -0.387714 1.58116 0
M  V30 4443 O 424.392 -0.187905 1.77508 0
M  V30 4444 C 421.492 -0.258885 3.3791 0
M  V30 4445 C 420.665 0.651634 4.32519 0
M  V30 4446 C 419.724 -0.0813705 5.26137 0
M  V30 4447 O 418.75 0.537295 5.66658 0
M  V30 4448 N 419.952 -1.35992 5.64346 0
M  V30 4449 H 422.717 1.39865 2.65062 0
M  V30 4450 H 420.278 0.881196 1.35818 0
M  V30 4451 H 422.27 -0.758208 3.97534 0
M  V30 4452 H 420.84 -1.035 2.94968 0
M  V30 4453 H 420.06 1.33145 3.71034 0
M  V30 4454 H 421.348 1.27129 4.92662 0
M  V30 4455 H 420.746 -1.88368 5.33417 0
M  V30 4456 H 419.303 -1.8042 6.26332 0
M  V30 4457 N 422.737 -1.36956 0.779787 0
M  V30 4458 C 423.667 -2.32761 0.185651 0
M  V30 4459 C 424.648 -1.56177 -0.673989 0
M  V30 4460 O 425.833 -1.84378 -0.609797 0
M  V30 4461 C 422.963 -3.40418 -0.687964 0
M  V30 4462 C 421.917 -4.27941 0.0710102 0
M  V30 4463 C 421.243 -5.26681 -0.922573 0
M  V30 4464 C 422.543 -5.07006 1.25467 0
M  V30 4465 H 424.237 -2.82698 0.986008 0
M  V30 4466 H 421.783 -1.3592 0.475592 0
M  V30 4467 H 423.736 -4.06423 -1.11348 0
M  V30 4468 H 422.46 -2.89025 -1.52093 0
M  V30 4469 H 421.119 -3.63478 0.47739 0
M  V30 4470 H 420.767 -4.71565 -1.7503 0
M  V30 4471 H 420.467 -5.86103 -0.419237 0
M  V30 4472 H 421.991 -5.9556 -1.34686 0
M  V30 4473 H 423.405 -5.66105 0.905401 0
M  V30 4474 H 421.802 -5.75793 1.69063 0
M  V30 4475 H 422.872 -4.3921 2.05481 0
M  V30 4476 N 424.215 -0.530993 -1.48385 0
M  V30 4477 C 425.626 -0.0907905 -1.86479 0
M  V30 4478 C 425.977 1.33213 -1.44044 0
M  V30 4479 O 425.102 1.99783 -0.831615 0
M  V30 4480 C 425.697 -0.157987 -3.38431 0
M  V30 4481 C 424.256 0.227026 -3.75715 0
M  V30 4482 C 423.403 -0.5173 -2.72432 0
M  V30 4483 H 426.354 -0.742186 -1.40276 0
M  V30 4484 H 426.375 0.630053 -3.75247 0
M  V30 4485 H 425.887 -1.19372 -3.69286 0
M  V30 4486 H 423.988 1.26486 -3.50474 0
M  V30 4487 H 424.101 -0.113288 -4.78966 0
M  V30 4488 H 422.465 0.0365527 -2.54674 0
M  V30 4489 H 423.248 -1.55368 -3.0613 0
M  V30 4490 N 425.693 1.55336 -0.266172 0
M  V30 4491 C 426.623 2.25146 0.618981 0
M  V30 4492 C 427.604 1.23845 1.16604 0
M  V30 4493 O 428.789 1.52544 1.20183 0
M  V30 4494 C 425.919 2.96572 1.80728 0
M  V30 4495 C 424.873 4.04726 1.39215 0
M  V30 4496 C 424.199 4.63678 2.66283 0
M  V30 4497 C 425.499 5.19407 0.548942 0
M  V30 4498 H 427.193 2.99377 0.0368116 0
M  V30 4499 H 424.739 1.43991 0.0162651 0
M  V30 4500 H 426.692 3.44116 2.43232 0
M  V30 4501 H 425.416 2.19861 2.41514 0
M  V30 4502 H 424.075 3.57979 0.790351 0
M  V30 4503 H 423.723 3.83646 3.25308 0
M  V30 4504 H 423.423 5.367 2.39222 0
M  V30 4505 H 424.947 5.13967 3.29651 0
M  V30 4506 H 426.361 5.63059 1.07876 0
M  V30 4507 H 424.758 5.98936 0.373593 0
M  V30 4508 H 425.828 4.8295 -0.434394 0
M  V30 4509 N 427.171 -0.0066808 1.57599 0
M  V30 4510 C 428.101 -0.999296 2.11036 0
M  V30 4511 C 429.082 -1.36278 1.01795 0
M  V30 4512 O 430.267 -1.4477 1.29442 0
M  V30 4513 C 427.397 -2.29328 2.60818 0
M  V30 4514 C 426.351 -2.07159 3.74525 0
M  V30 4515 C 425.677 -3.42512 4.10596 0
M  V30 4516 C 426.977 -1.43959 5.02069 0
M  V30 4517 H 428.671 -0.554382 2.94223 0
M  V30 4518 H 426.217 -0.265221 1.41536 0
M  V30 4519 H 428.17 -2.99117 2.96828 0
M  V30 4520 H 426.894 -2.7592 1.74745 0
M  V30 4521 H 425.553 -1.39797 3.38899 0
M  V30 4522 H 425.201 -3.86795 3.21556 0
M  V30 4523 H 424.901 -3.28498 4.87199 0
M  V30 4524 H 426.425 -4.13628 4.4916 0
M  V30 4525 H 427.839 -2.03696 5.35893 0
M  V30 4526 H 426.236 -1.40452 5.83432 0
M  V30 4527 H 427.306 -0.407992 4.83181 0
M  V30 4528 N 428.649 -1.55105 -0.279332 0
M  V30 4529 C 429.877 -1.7943 -1.03017 0
M  V30 4530 C 430.292 -0.564456 -1.80165 0
M  V30 4531 O 429.649 0.466326 -1.76442 0
M  V30 4532 C 429.7 -3.0155 -1.99374 0
M  V30 4533 O 429.421 -4.19784 -1.25352 0
M  V30 4534 C 430.922 -3.3843 -2.86321 0
M  V30 4535 H 428.142 -0.597882 -0.304594 0
M  V30 4536 H 430.686 -2.02105 -0.312035 0
M  V30 4537 H 428.841 -2.81019 -2.66659 0
M  V30 4538 H 429.255 -4.88781 -1.90246 0
M  V30 4539 H 430.729 -4.27066 -3.49741 0
M  V30 4540 H 431.206 -2.57549 -3.5576 0
M  V30 4541 H 431.812 -3.61197 -2.24536 0
M  V30 4542 N 430.127 0.543554 -1.4793 0
M  V30 4543 C 431.373 1.30201 -1.55485 0
M  V30 4544 C 431.706 1.92925 -0.222201 0
M  V30 4545 O 430.981 1.78586 0.77053 0
M  V30 4546 C 431.264 2.40174 -2.68307 0
M  V30 4547 C 431.117 1.8223 -4.11233 0
M  V30 4548 C 432.436 3.42024 -2.76961 0
M  V30 4549 H 429.555 0.472036 -0.565996 0
M  V30 4550 H 432.197 0.606914 -1.80046 0
M  V30 4551 H 430.347 2.99463 -2.47495 0
M  V30 4552 H 432.019 1.27096 -4.43446 0
M  V30 4553 H 430.262 1.12832 -4.18869 0
M  V30 4554 H 430.933 2.61793 -4.85972 0
M  V30 4555 H 433.409 2.92672 -2.95774 0
M  V30 4556 H 432.285 4.16383 -3.57654 0
M  V30 4557 H 432.546 4.0173 -1.84568 0
M  V30 4558 N 431.605 1.3629 0.791371 0
M  V30 4559 C 432.835 1.33368 1.57786 0
M  V30 4560 C 433.243 -0.0875188 1.88997 0
M  V30 4561 O 432.586 -1.05427 1.50435 0
M  V30 4562 C 432.648 2.08802 2.92646 0
M  V30 4563 C 432.312 3.57903 2.84174 0
M  V30 4564 C 433.309 4.52191 2.56553 0
M  V30 4565 C 430.994 4.00762 3.02812 0
M  V30 4566 C 432.988 5.87315 2.47669 0
M  V30 4567 C 430.675 5.35977 2.93551 0
M  V30 4568 C 431.673 6.29066 2.66017 0
M  V30 4569 O 431.361 7.61798 2.56746 0
M  V30 4570 H 431.093 0.459166 0.496128 0
M  V30 4571 H 433.647 1.79952 0.990269 0
M  V30 4572 H 431.877 1.56878 3.53449 0
M  V30 4573 H 433.566 1.98762 3.53904 0
M  V30 4574 H 434.332 4.20393 2.41858 0
M  V30 4575 H 430.211 3.2868 3.2325 0
M  V30 4576 H 433.755 6.59943 2.26099 0
M  V30 4577 H 429.652 5.67384 3.07808 0
M  V30 4578 H 430.42 7.71898 2.72242 0
M  V30 4579 N 433.083 -1.0153 1.20538 0
M  V30 4580 C 434.494 -1.56598 1.01657 0
M  V30 4581 C 434.845 -1.91505 -0.426668 0
M  V30 4582 O 433.97 -1.72375 -1.30827 0
M  V30 4583 C 434.565 -2.84542 1.83905 0
M  V30 4584 C 433.124 -3.36133 1.69386 0
M  V30 4585 C 432.271 -2.09427 1.81757 0
M  V30 4586 H 435.222 -0.838974 1.34711 0
M  V30 4587 H 435.243 -3.56004 1.34319 0
M  V30 4588 H 434.755 -2.59105 2.8894 0
M  V30 4589 H 432.856 -3.66528 0.669933 0
M  V30 4590 H 432.969 -4.08248 2.50739 0
M  V30 4591 H 431.333 -2.21941 1.24957 0
M  V30 4592 H 432.116 -1.86414 2.88279 0
M  V30 4593 N 434.561 -1.01147 -1.20859 0
M  V30 4594 C 435.809 -0.696486 -1.89719 0
M  V30 4595 C 436.13 0.775788 -1.78904 0
M  V30 4596 O 435.4 1.55759 -1.18811 0
M  V30 4597 H 433.98 -0.254628 -0.702263 0
M  V30 4598 H 436.642 -1.28197 -1.46804 0
M  V30 4599 H 435.738 -0.975357 -2.96468 0
M  V30 4600 N 436.039 1.36541 -0.78704 0
M  V30 4601 C 437.455 1.52571 -0.46844 0
M  V30 4602 C 437.655 1.7415 1.01361 0
M  V30 4603 O 436.711 1.77163 1.79915 0
M  V30 4604 C 438.024 2.71299 -1.29682 0
M  V30 4605 C 439.572 2.85169 -1.29027 0
M  V30 4606 C 440.047 4.06898 -2.10233 0
M  V30 4607 N 441.538 4.1404 -2.07666 0
M  V30 4608 C 442.273 5.07301 -2.67271 0
M  V30 4609 N 441.769 6.06021 -3.35724 0
M  V30 4610 N 443.562 4.99898 -2.57018 0
M  V30 4611 H 435.713 1.20788 -1.74711 0
M  V30 4612 H 437.976 0.589364 -0.742532 0
M  V30 4613 H 437.682 2.61868 -2.34773 0
M  V30 4614 H 437.556 3.6539 -0.936479 0
M  V30 4615 H 439.943 2.94062 -0.247284 0
M  V30 4616 H 440.024 1.91992 -1.69035 0
M  V30 4617 H 439.668 3.98766 -3.1456 0
M  V30 4618 H 439.598 4.99218 -1.67597 0
M  V30 4619 H 442.089 3.43357 -1.57843 0
M  V30 4620 H 442.402 6.73741 -3.78541 0
M  V30 4621 H 440.747 6.06253 -3.39826 0
M  V30 4622 H 443.938 4.21724 -2.03142 0
M  V30 4623 H 444.111 5.72392 -3.03761 0
M  V30 4624 N 437.518 0.538854 1.48102 0
M  V30 4625 C 438.481 -0.208395 2.28251 0
M  V30 4626 C 439.481 -0.859656 1.35892 0
M  V30 4627 O 440.671 -0.71834 1.58699 0
M  V30 4628 C 437.803 -1.30252 3.15035 0
M  V30 4629 H 438.996 0.495407 2.9578 0
M  V30 4630 H 436.549 0.295112 1.53489 0
M  V30 4631 H 437.284 -2.0393 2.52157 0
M  V30 4632 H 437.069 -0.840551 3.82985 0
M  V30 4633 H 438.559 -1.82787 3.75471 0
M  V30 4634 N 438.996 -1.55193 0.274407 0
M  V30 4635 C 439.944 -2.23924 -0.629362 0
M  V30 4636 C 440.938 -1.23602 -1.1584 0
M  V30 4637 O 442.144 -1.41535 -1.11211 0
M  V30 4638 H 438.519 -0.718637 -0.221507 0
M  V30 4639 H 440.49 -2.98388 -0.0268322 0
M  V30 4640 C 439.239 -2.97329 -1.80252 0
M  V30 4641 H 438.562 -3.74313 -1.40462 0
M  V30 4642 H 440.002 -3.48743 -2.41152 0
M  V30 4643 C 438.461 -2.0276 -2.69054 0
M  V30 4644 O 438.991 -1.57836 -3.69392 0
M  V30 4645 N 437.197 -1.69275 -2.36208 0
M  V30 4646 H 436.744 -2.06004 -1.54661 0
M  V30 4647 H 436.702 -1.06271 -2.95895 0
M  V30 4648 N 440.474 -0.00167713 -1.576 0
M  V30 4649 C 441.704 0.692754 -1.94639 0
M  V30 4650 C 442.112 1.67744 -0.87513 0
M  V30 4651 O 441.455 1.8305 0.154382 0
M  V30 4652 C 441.517 1.47881 -3.27676 0
M  V30 4653 C 441.181 0.655518 -4.52274 0
M  V30 4654 C 442.178 -0.0575214 -5.19868 0
M  V30 4655 C 439.863 0.600994 -4.98692 0
M  V30 4656 C 441.857 -0.814052 -6.3218 0
M  V30 4657 C 439.544 -0.15926 -6.10892 0
M  V30 4658 C 440.542 -0.865515 -6.77494 0
M  V30 4659 O 440.23 -1.61336 -7.87544 0
M  V30 4660 H 439.962 0.197792 -0.646417 0
M  V30 4661 H 442.516 -0.049423 -2.05341 0
M  V30 4662 H 440.746 2.2655 -3.13388 0
M  V30 4663 H 442.435 2.05874 -3.49816 0
M  V30 4664 H 443.201 -0.0245611 -4.84994 0
M  V30 4665 H 439.08 1.14025 -4.46676 0
M  V30 4666 H 442.624 -1.36584 -6.84098 0
M  V30 4667 H 438.521 -0.194035 -6.45208 0
M  V30 4668 H 439.289 -1.53025 -8.04068 0
M  V30 4669 N 441.952 1.55251 0.271103 0
M  V30 4670 C 442.882 1.9127 1.33933 0
M  V30 4671 C 443.863 0.77478 1.5143 0
M  V30 4672 O 445.048 1.03307 1.64442 0
M  V30 4673 C 442.178 2.18627 2.69851 0
M  V30 4674 C 441.132 3.34442 2.67081 0
M  V30 4675 C 440.458 3.47284 4.06569 0
M  V30 4676 C 441.758 4.70784 2.26185 0
M  V30 4677 H 443.452 2.80744 1.04035 0
M  V30 4678 H 440.998 1.35077 0.499017 0
M  V30 4679 H 442.951 2.42413 3.44694 0
M  V30 4680 H 441.675 1.25955 3.01335 0
M  V30 4681 H 440.334 3.10627 1.94695 0
M  V30 4682 H 439.982 2.52074 4.35279 0
M  V30 4683 H 439.682 4.25152 4.0561 0
M  V30 4684 H 441.206 3.73363 4.83148 0
M  V30 4685 H 442.62 4.94102 2.90751 0
M  V30 4686 H 441.017 5.51582 2.36384 0
M  V30 4687 H 442.087 4.69478 1.21319 0
M  V30 4688 N 443.43 -0.535701 1.48216 0
M  V30 4689 C 444.36 -1.65014 1.65204 0
M  V30 4690 C 445.341 -1.62554 0.501011 0
M  V30 4691 O 446.526 -1.7984 0.732886 0
M  V30 4692 C 443.656 -3.03616 1.68626 0
M  V30 4693 C 442.61 -3.20932 2.83172 0
M  V30 4694 C 441.936 -4.60537 2.71679 0
M  V30 4695 C 443.236 -3.04249 4.24535 0
M  V30 4696 H 444.93 -1.51053 2.58502 0
M  V30 4697 H 442.476 -0.725262 1.24402 0
M  V30 4698 H 444.429 -3.81446 1.79099 0
M  V30 4699 H 443.153 -3.18587 0.719026 0
M  V30 4700 H 441.812 -2.45517 2.72244 0
M  V30 4701 H 441.46 -4.72336 1.72937 0
M  V30 4702 H 441.16 -4.73069 3.48538 0
M  V30 4703 H 442.684 -5.40475 2.84112 0
M  V30 4704 H 444.098 -3.71877 4.36326 0
M  V30 4705 H 442.495 -3.28278 5.02348 0
M  V30 4706 H 443.565 -2.00739 4.41397 0
M  V30 4707 N 444.908 -1.36708 -0.784132 0
M  V30 4708 C 445.838 -1.34153 -1.91116 0
M  V30 4709 C 446.819 -0.212121 -1.68772 0
M  V30 4710 O 448.004 -0.410581 -1.8981 0
M  V30 4711 C 445.134 -1.13535 -3.28218 0
M  V30 4712 C 444.088 -2.23356 -3.65097 0
M  V30 4713 C 443.414 -1.87875 -5.00607 0
M  V30 4714 C 444.714 -3.65473 -3.73131 0
M  V30 4715 H 446.408 -2.28459 -1.93512 0
M  V30 4716 H 443.954 -1.09973 -0.929618 0
M  V30 4717 H 445.907 -1.10381 -4.06687 0
M  V30 4718 H 444.631 -0.156804 -3.26223 0
M  V30 4719 H 443.29 -2.25645 -2.88929 0
M  V30 4720 H 442.938 -0.885814 -4.95139 0
M  V30 4721 H 442.638 -2.61406 -5.26252 0
M  V30 4722 H 444.162 -1.86286 -5.81489 0
M  V30 4723 H 445.576 -3.65382 -4.41779 0
M  V30 4724 H 443.973 -4.37953 -4.10265 0
M  V30 4725 H 445.043 -3.99995 -2.74102 0
M  V30 4726 N 446.386 1.0089 -1.21074 0
M  V30 4727 C 447.802 1.2695 -0.967257 0
M  V30 4728 C 448.002 1.9846 0.348673 0
M  V30 4729 O 447.058 2.28459 1.0753 0
M  V30 4730 C 448.371 2.09697 -2.15517 0
M  V30 4731 C 449.919 2.22937 -2.197 0
M  V30 4732 C 450.394 3.09064 -3.37999 0
M  V30 4733 N 451.885 3.16653 -3.38061 0
M  V30 4734 C 452.62 3.8354 -4.26245 0
M  V30 4735 N 452.116 4.52488 -5.2462 0
M  V30 4736 N 453.909 3.80141 -4.14064 0
M  V30 4737 H 446.06 0.529005 -2.05707 0
M  V30 4738 H 448.323 0.296148 -0.900556 0
M  V30 4739 H 448.029 1.64497 -3.10859 0
M  V30 4740 H 447.903 3.10444 -2.14253 0
M  V30 4741 H 450.29 2.67357 -1.24916 0
M  V30 4742 H 450.371 1.21673 -2.2501 0
M  V30 4743 H 450.015 2.65347 -4.33074 0
M  V30 4744 H 449.945 4.10433 -3.29928 0
M  V30 4745 H 452.436 2.67566 -2.66865 0
M  V30 4746 H 452.749 5.01219 -5.88217 0
M  V30 4747 H 451.094 4.51288 -5.28549 0
M  V30 4748 H 454.285 3.25427 -3.36474 0
M  V30 4749 H 454.458 4.31992 -4.82998 0
M  V30 4750 N 447.864 1.01787 1.20321 0
M  V30 4751 C 449.104 0.716493 1.91431 0
M  V30 4752 C 449.468 -0.740352 1.77152 0
M  V30 4753 O 450.669 -1.1543 2.42754 0
M  V30 4754 C 448.94 1.14169 3.38674 0
M  V30 4755 S 450.499 0.962482 4.28114 0
M  V30 4756 H 447.317 0.261175 0.661293 0
M  V30 4757 H 449.919 1.30539 1.45533 0
M  V30 4758 H 448.623 2.19784 3.46588 0
M  V30 4759 H 448.154 0.545621 3.89598 0
M  V30 4760 H 450.169 -0.133253 4.96021 0
M  V30 4761 N 449.342 -1.36122 0.79427 0
M  V30 4762 C 450.252 -2.33769 0.197296 0
M  V30 4763 C 451.268 -1.61276 -0.653153 0
M  V30 4764 O 452.444 -1.9323 -0.5678 0
M  V30 4765 C 449.509 -3.40474 -0.654098 0
M  V30 4766 C 448.57 -4.28759 0.215411 0
M  V30 4767 C 447.803 -5.30368 -0.595443 0
M  V30 4768 O 448.026 -5.40211 -1.83107 0
M  V30 4769 O 446.96 -6.019 0.00721351 0
M  V30 4770 H 450.786 -2.86597 1.00478 0
M  V30 4771 H 448.371 -1.38676 0.555818 0
M  V30 4772 H 450.253 -4.05703 -1.13944 0
M  V30 4773 H 448.928 -2.89937 -1.43938 0
M  V30 4774 H 447.835 -3.66554 0.747615 0
M  V30 4775 H 449.168 -4.82661 0.964332 0
M  V30 4776 N 450.82 -0.546701 -1.47814 0
M  V30 4777 C 452.236 -0.205717 -1.58269 0
M  V30 4778 C 452.436 1.29153 -1.54667 0
M  V30 4779 O 451.492 2.07098 -1.44453 0
M  V30 4780 C 452.805 -0.823065 -2.89216 0
M  V30 4781 C 454.353 -0.793328 -3.02779 0
M  V30 4782 C 454.828 -1.38955 -4.36412 0
M  V30 4783 N 456.319 -1.35227 -4.43021 0
M  V30 4784 C 457.054 -1.78333 -5.44963 0
M  V30 4785 N 456.55 -2.29246 -6.53772 0
M  V30 4786 N 458.343 -1.69467 -5.35945 0
M  V30 4787 H 450.494 -1.5196 -1.48398 0
M  V30 4788 H 452.757 -0.633078 -0.705632 0
M  V30 4789 H 452.463 -1.8749 -2.97558 0
M  V30 4790 H 452.337 -0.309915 -3.75925 0
M  V30 4791 H 454.724 0.249784 -2.94041 0
M  V30 4792 H 454.805 -1.34412 -2.17639 0
M  V30 4793 H 454.449 -2.43168 -4.45906 0
M  V30 4794 H 454.379 -0.814291 -5.20266 0
M  V30 4795 H 456.87 -0.979739 -3.64979 0
M  V30 4796 H 457.183 -2.60089 -7.27718 0
M  V30 4797 H 455.528 -2.3325 -6.5469 0
M  V30 4798 H 458.719 -1.29477 -4.49837 0
M  V30 4799 H 458.892 -2.03381 -6.15256 0
M  V30 4800 N 452.299 1.55045 -0.282633 0
M  V30 4801 C 453.209 2.26491 0.61147 0
M  V30 4802 C 454.225 1.29348 1.16384 0
M  V30 4803 O 455.401 1.62298 1.19253 0
M  V30 4804 C 452.466 2.97779 1.77563 0
M  V30 4805 C 451.527 4.10418 1.25919 0
M  V30 4806 C 450.76 4.78297 2.36786 0
M  V30 4807 O 450.983 4.45426 3.56303 0
M  V30 4808 O 449.917 5.66089 2.04517 0
M  V30 4809 H 453.743 3.03683 0.0324615 0
M  V30 4810 H 451.328 1.49317 -0.0497576 0
M  V30 4811 H 453.21 3.42554 2.45427 0
M  V30 4812 H 451.885 2.23498 2.34159 0
M  V30 4813 H 450.792 3.70082 0.546797 0
M  V30 4814 H 452.125 4.86622 0.738887 0
M  V30 4815 N 453.777 0.010035 1.57597 0
M  V30 4816 C 455.054 -0.710296 1.82248 0
M  V30 4817 C 455.434 -1.91426 0.889911 0
M  V30 4818 O 454.782 -2.28424 -0.0590292 0
M  V30 4819 C 454.992 -1.10655 3.30993 0
M  V30 4820 C 456.34 -1.50621 3.96987 0
M  V30 4821 O 457.364 -1.20007 3.35375 0
M  V30 4822 O 456.223 -2.07587 5.05539 0
M  V30 4823 H 453.317 -0.34673 0.750804 0
M  V30 4824 H 455.863 0.0362578 1.69661 0
M  V30 4825 H 454.635 -0.248826 3.90508 0
M  V30 4826 H 454.258 -1.91189 3.48615 0
M  V30 4827 N 455.255 -1.55392 -0.262866 0
M  V30 4828 C 456.504 -1.75679 -0.990943 0
M  V30 4829 C 456.817 -0.57097 -1.87081 0
M  V30 4830 O 458.023 -0.656486 -2.63444 0
M  V30 4831 C 456.479 -3.10964 -1.81188 0
M  V30 4832 C 456.087 -4.37146 -0.980188 0
M  V30 4833 C 457.831 -3.40597 -2.53365 0
M  V30 4834 C 455.738 -5.63466 -1.7961 0
M  V30 4835 H 454.668 -0.654868 -0.373716 0
M  V30 4836 H 457.319 -1.81841 -0.246203 0
M  V30 4837 H 455.701 -2.98867 -2.59797 0
M  V30 4838 H 456.875 -4.60187 -0.237558 0
M  V30 4839 H 455.19 -4.14731 -0.372497 0
M  V30 4840 H 457.787 -4.32186 -3.14833 0
M  V30 4841 H 458.13 -2.6119 -3.24169 0
M  V30 4842 H 458.663 -3.53838 -1.81779 0
M  V30 4843 H 455.402 -6.4565 -1.13209 0
M  V30 4844 H 454.922 -5.44552 -2.51443 0
M  V30 4845 H 456.601 -6.02139 -2.36723 0
M  V30 4846 N 456.733 0.527833 -1.48498 0
M  V30 4847 C 458.01 1.28905 -1.47115 0
M  V30 4848 C 458.39 2.10297 -0.184007 0
M  V30 4849 O 457.738 2.12728 0.834218 0
M  V30 4850 C 457.948 2.16866 -2.73441 0
M  V30 4851 C 459.296 2.76936 -3.21857 0
M  V30 4852 O 460.32 2.27152 -2.74373 0
M  V30 4853 O 459.179 3.67496 -4.04486 0
M  V30 4854 H 456.273 0.581918 -0.587623 0
M  V30 4855 H 458.819 0.544311 -1.60734 0
M  V30 4856 H 457.591 1.56521 -3.58632 0
M  V30 4857 H 457.214 2.98583 -2.62553 0
M  V30 4858 N 458.211 1.37122 0.776871 0
M  V30 4859 C 459.141 1.35164 1.90402 0
M  V30 4860 C 460.122 0.221069 1.68657 0
M  V30 4861 O 461.307 0.420642 1.8959 0
M  V30 4862 C 458.437 1.15274 3.27611 0
M  V30 4863 C 457.391 2.25289 3.63908 0
M  V30 4864 C 456.717 1.90527 4.99603 0
M  V30 4865 C 458.017 3.67446 3.71188 0
M  V30 4866 H 459.711 2.29482 1.92297 0
M  V30 4867 H 457.257 1.10465 0.923773 0
M  V30 4868 H 459.21 1.12536 4.06096 0
M  V30 4869 H 457.934 0.174102 3.26136 0
M  V30 4870 H 456.593 2.27174 2.87728 0
M  V30 4871 H 456.241 0.91206 4.94662 0
M  V30 4872 H 455.941 2.64193 5.24858 0
M  V30 4873 H 457.465 1.89367 5.80493 0
M  V30 4874 H 458.879 3.67719 4.39836 0
M  V30 4875 H 457.276 4.40123 4.07936 0
M  V30 4876 H 458.346 4.01443 2.71977 0
M  V30 4877 N 459.689 -1.00246 1.21608 0
M  V30 4878 C 460.621 -2.09244 0.935401 0
M  V30 4879 C 461.634 -1.62592 -0.0823594 0
M  V30 4880 O 462.823 -1.77865 0.150456 0
M  V30 4881 C 459.923 -3.36724 0.383453 0
M  V30 4882 C 459.096 -4.1245 1.45615 0
M  V30 4883 C 458.155 -5.18219 0.912991 0
M  V30 4884 O 457.181 -5.46337 1.59701 0
M  V30 4885 N 458.383 -5.7987 -0.270478 0
M  V30 4886 H 461.148 -2.33905 1.87373 0
M  V30 4887 H 458.709 -1.16748 1.12167 0
M  V30 4888 H 460.701 -4.047 0.00562157 0
M  V30 4889 H 459.271 -3.09201 -0.459758 0
M  V30 4890 H 458.491 -3.39241 2.00772 0
M  V30 4891 H 459.779 -4.59819 2.17817 0
M  V30 4892 H 459.177 -5.59381 -0.843195 0
M  V30 4893 H 457.734 -6.49126 -0.589794 0
M  V30 4894 N 461.167 -1.02423 -1.1978 0
M  V30 4895 C 462.583 -0.740459 -1.41384 0
M  V30 4896 C 462.783 0.676827 -1.89793 0
M  V30 4897 O 461.839 1.4435 -2.0717 0
M  V30 4898 C 463.152 -1.77264 -2.42895 0
M  V30 4899 C 464.7 -1.79165 -2.56649 0
M  V30 4900 C 465.175 -2.8133 -3.6141 0
M  V30 4901 N 466.666 -2.80118 -3.68901 0
M  V30 4902 C 467.401 -3.55824 -4.49641 0
M  V30 4903 N 466.897 -4.41231 -5.34123 0
M  V30 4904 N 468.69 -3.44387 -4.44246 0
M  V30 4905 H 460.841 -1.9391 -0.866764 0
M  V30 4906 H 463.104 -0.838074 -0.443098 0
M  V30 4907 H 462.81 -2.7884 -2.14339 0
M  V30 4908 H 462.684 -1.59108 -3.42001 0
M  V30 4909 H 465.071 -0.782702 -2.84531 0
M  V30 4910 H 465.152 -2.01396 -1.57713 0
M  V30 4911 H 464.796 -3.82394 -3.34271 0
M  V30 4912 H 464.726 -2.56359 -4.59986 0
M  V30 4913 H 467.217 -2.1817 -3.08562 0
M  V30 4914 H 467.53 -4.95747 -5.92836 0
M  V30 4915 H 465.875 -4.45306 -5.33599 0
M  V30 4916 H 469.066 -2.7708 -3.77285 0
M  V30 4917 H 469.239 -4.0364 -5.06931 0
M  V30 4918 N 462.645 1.35699 -0.801477 0
M  V30 4919 C 464.061 1.52065 -0.484596 0
M  V30 4920 C 464.261 1.75215 0.995084 0
M  V30 4921 O 463.317 1.79061 1.78026 0
M  V30 4922 C 464.63 2.69908 -1.32552 0
M  V30 4923 C 466.178 2.83784 -1.32044 0
M  V30 4924 C 466.653 4.04646 -2.14536 0
M  V30 4925 N 468.144 4.11814 -2.12046 0
M  V30 4926 C 468.879 5.04437 -2.72636 0
M  V30 4927 N 468.375 6.02426 -3.42133 0
M  V30 4928 N 470.168 4.97144 -2.62305 0
M  V30 4929 H 462.319 1.18928 -1.75983 0
M  V30 4930 H 464.582 0.581455 -0.748741 0
M  V30 4931 H 464.288 2.59363 -2.37537 0
M  V30 4932 H 464.162 3.64376 -0.975181 0
M  V30 4933 H 466.549 2.93783 -0.27846 0
M  V30 4934 H 466.63 1.90188 -1.71062 0
M  V30 4935 H 466.274 3.95407 -3.18772 0
M  V30 4936 H 466.204 4.97413 -1.72882 0
M  V30 4937 H 468.695 3.41664 -1.61476 0
M  V30 4938 H 469.008 6.69688 -3.85666 0
M  V30 4939 H 467.353 6.02615 -3.46237 0
M  V30 4940 H 470.544 4.19546 -2.07603 0
M  V30 4941 H 470.717 5.69138 -3.09815 0
M  V30 4942 N 464.123 0.554532 1.47522 0
M  V30 4943 C 465.053 -0.182974 2.32782 0
M  V30 4944 C 466.034 -0.911377 1.43624 0
M  V30 4945 O 467.219 -0.892366 1.72483 0
M  V30 4946 C 464.349 -1.21513 3.25349 0
M  V30 4947 C 463.303 -0.603355 4.23726 0
M  V30 4948 C 462.629 -1.73995 5.05598 0
M  V30 4949 C 463.929 0.441121 5.20434 0
M  V30 4950 H 465.623 0.52882 2.94693 0
M  V30 4951 H 463.169 0.255759 1.41711 0
M  V30 4952 H 465.122 -1.73922 3.83835 0
M  V30 4953 H 463.846 -1.95683 2.61487 0
M  V30 4954 H 462.505 -0.10059 3.66462 0
M  V30 4955 H 462.153 -2.47063 4.38143 0
M  V30 4956 H 461.853 -1.3364 5.72201 0
M  V30 4957 H 463.377 -2.26735 5.66942 0
M  V30 4958 H 464.791 0.00319931 5.733 0
M  V30 4959 H 463.188 0.763402 5.95224 0
M  V30 4960 H 464.258 1.33799 4.66075 0
M  V30 4961 N 465.601 -1.54893 0.290851 0
M  V30 4962 C 466.531 -2.26103 -0.583084 0
M  V30 4963 C 467.512 -1.25684 -1.14619 0
M  V30 4964 O 468.697 -1.54436 -1.17741 0
M  V30 4965 C 465.827 -2.99409 -1.75987 0
M  V30 4966 C 464.781 -4.0689 -1.32758 0
M  V30 4967 C 464.107 -4.67856 -2.58872 0
M  V30 4968 C 465.407 -5.20215 -0.46624 0
M  V30 4969 H 467.101 -2.99398 0.0108214 0
M  V30 4970 H 464.647 -1.43998 0.00664468 0
M  V30 4971 H 466.6 -3.47943 -2.37727 0
M  V30 4972 H 465.324 -2.23675 -2.37985 0
M  V30 4973 H 463.983 -3.59191 -0.733299 0
M  V30 4974 H 463.631 -3.88772 -3.19163 0
M  V30 4975 H 463.331 -5.40438 -2.30653 0
M  V30 4976 H 464.855 -5.19147 -3.21433 0
M  V30 4977 H 466.269 -5.64704 -0.989047 0
M  V30 4978 H 464.666 -5.99455 -0.27826 0
M  V30 4979 H 465.736 -4.82198 0.511173 0
M  V30 4980 N 467.08 -0.0183926 -1.57589 0
M  V30 4981 C 468.308 0.673046 -1.95647 0
M  V30 4982 C 468.723 1.66275 -0.894312 0
M  V30 4983 O 468.08 1.82072 0.124975 0
M  V30 4984 C 468.131 1.38884 -3.33756 0
M  V30 4985 O 467.852 0.438806 -4.35897 0
M  V30 4986 C 469.353 2.1731 -3.86383 0
M  V30 4987 H 466.573 0.186292 -0.644621 0
M  V30 4988 H 469.117 -0.0749748 -2.04363 0
M  V30 4989 H 467.272 2.08835 -3.26293 0
M  V30 4990 H 467.686 0.945869 -5.15901 0
M  V30 4991 H 469.16 2.62863 -4.85394 0
M  V30 4992 H 469.637 3.00764 -3.20059 0
M  V30 4993 H 470.243 1.52339 -3.97081 0
M  V30 4994 N 468.558 1.5553 0.254621 0
M  V30 4995 C 469.49 1.86104 1.33783 0
M  V30 4996 C 470.503 0.746752 1.44663 0
M  V30 4997 O 471.692 1.0248 1.46151 0
M  V30 4998 C 468.792 2.02532 2.71724 0
M  V30 4999 C 467.965 3.33335 2.83208 0
M  V30 5000 C 467.024 3.396 4.01943 0
M  V30 5001 O 466.05 4.12862 3.91834 0
M  V30 5002 N 467.252 2.68332 5.1476 0
M  V30 5003 H 470.017 2.79605 1.07893 0
M  V30 5004 H 467.578 1.55672 0.444732 0
M  V30 5005 H 469.57 2.04074 3.4948 0
M  V30 5006 H 468.14 1.15811 2.90356 0
M  V30 5007 H 467.36 3.44176 1.92189 0
M  V30 5008 H 468.648 4.19565 2.87824 0
M  V30 5009 H 468.046 2.08528 5.25864 0
M  V30 5010 H 466.603 2.75575 5.90679 0
M  V30 5011 N 470.036 -0.519951 1.48776 0
M  V30 5012 C 471.452 -0.849418 1.35119 0
M  V30 5013 C 471.652 -1.98077 0.36982 0
M  V30 5014 O 470.708 -2.51664 -0.205359 0
M  V30 5015 C 472.021 -1.20748 2.75391 0
M  V30 5016 C 473.569 -1.31679 2.83954 0
M  V30 5017 C 474.044 -1.70824 4.24951 0
M  V30 5018 N 475.535 -1.77908 4.27672 0
M  V30 5019 C 476.27 -2.09603 5.33717 0
M  V30 5020 N 475.766 -2.39652 6.5003 0
M  V30 5021 N 477.559 -2.10694 5.21119 0
M  V30 5022 H 469.71 0.226377 2.1119 0
M  V30 5023 H 471.973 0.0386519 0.947212 0
M  V30 5024 H 471.679 -0.449703 3.48813 0
M  V30 5025 H 471.553 -2.15534 3.09556 0
M  V30 5026 H 473.94 -2.06532 2.10781 0
M  V30 5027 H 474.021 -0.3499 2.53396 0
M  V30 5028 H 473.665 -0.965282 4.98643 0
M  V30 5029 H 473.595 -2.6858 4.52959 0
M  V30 5030 H 476.086 -1.56923 3.43779 0
M  V30 5031 H 476.399 -2.6297 7.26682 0
M  V30 5032 H 474.744 -2.37149 6.53288 0
M  V30 5033 H 477.935 -1.86682 4.29264 0
M  V30 5034 H 478.108 -2.35062 6.03863 0
M  V30 5035 N 471.514 -1.37532 -0.769588 0
M  V30 5036 C 472.763 -1.32183 -1.5235 0
M  V30 5037 C 473.076 0.0906555 -1.9539 0
M  V30 5038 O 474.282 0.266628 -2.70188 0
M  V30 5039 C 472.738 -2.32029 -2.75119 0
M  V30 5040 C 472.346 -3.78816 -2.3917 0
M  V30 5041 C 474.09 -2.35694 -3.53056 0
M  V30 5042 C 471.997 -4.70388 -3.58453 0
M  V30 5043 H 470.927 -0.491275 -0.571984 0
M  V30 5044 H 473.578 -1.63004 -0.842739 0
M  V30 5045 H 471.96 -1.94229 -3.45096 0
M  V30 5046 H 473.134 -4.25466 -1.76962 0
M  V30 5047 H 471.449 -3.78117 -1.74402 0
M  V30 5048 H 474.046 -3.01312 -4.41718 0
M  V30 5049 H 474.389 -1.37117 -3.93071 0
M  V30 5050 H 474.922 -2.72212 -2.90078 0
M  V30 5051 H 471.661 -5.70102 -3.23518 0
M  V30 5052 H 471.181 -4.28442 -4.19758 0
M  V30 5053 H 472.86 -4.87628 -4.25239 0
M  V30 5054 N 472.992 0.995999 -1.22138 0
M  V30 5055 C 473.922 2.10387 -1.01289 0
M  V30 5056 C 474.903 1.69975 0.0651454 0
M  V30 5057 O 476.088 1.9396 -0.0964628 0
M  V30 5058 C 473.218 3.42312 -0.586517 0
M  V30 5059 C 472.172 3.96558 -1.61014 0
M  V30 5060 C 471.498 5.24494 -1.0397 0
M  V30 5061 C 472.798 4.27595 -2.99933 0
M  V30 5062 H 474.492 2.28086 -1.93951 0
M  V30 5063 H 472.038 1.09607 -0.933928 0
M  V30 5064 H 473.991 4.19223 -0.427793 0
M  V30 5065 H 472.715 3.24431 0.375761 0
M  V30 5066 H 471.374 3.21776 -1.75658 0
M  V30 5067 H 471.022 5.02953 -0.0688703 0
M  V30 5068 H 470.722 5.61755 -1.72352 0
M  V30 5069 H 472.246 6.04042 -0.892494 0
M  V30 5070 H 473.66 4.95315 -2.8868 0
M  V30 5071 H 472.057 4.76021 -3.6541 0
M  V30 5072 H 473.127 3.35498 -3.50099 0
M  V30 5073 N 474.47 1.03057 1.19235 0
M  V30 5074 C 475.719 0.72326 1.88287 0
M  V30 5075 C 476.032 -0.751333 1.80594 0
M  V30 5076 O 477.238 -1.17176 2.44912 0
M  V30 5077 C 475.694 1.24338 3.3774 0
M  V30 5078 C 475.302 2.74587 3.53986 0
M  V30 5079 C 477.046 1.01213 4.12257 0
M  V30 5080 C 474.953 3.20009 4.97341 0
M  V30 5081 H 473.883 0.266848 0.705201 0
M  V30 5082 H 476.534 1.24509 1.34795 0
M  V30 5083 H 474.916 0.649457 3.90638 0
M  V30 5084 H 476.09 3.39649 3.11408 0
M  V30 5085 H 474.405 2.9601 2.9286 0
M  V30 5086 H 477.002 1.32675 5.17978 0
M  V30 5087 H 477.345 -0.051001 4.16269 0
M  V30 5088 H 477.878 1.57014 3.65501 0
M  V30 5089 H 474.617 4.25659 4.98493 0
M  V30 5090 H 474.137 2.59676 5.40674 0
M  V30 5091 H 475.816 3.13447 5.66003 0
M  V30 5092 N 475.948 -1.35272 0.808662 0
M  V30 5093 C 477.364 -1.51806 0.492653 0
M  V30 5094 C 477.564 -1.7574 -0.985778 0
M  V30 5095 O 476.62 -1.80003 -1.77074 0
M  V30 5096 C 477.933 -2.69202 1.33981 0
M  V30 5097 C 479.481 -2.8308 1.33547 0
M  V30 5098 C 479.956 -4.03502 2.16679 0
M  V30 5099 N 481.447 -4.10684 2.14227 0
M  V30 5100 C 482.182 -5.02984 2.75308 0
M  V30 5101 N 481.678 -6.00603 3.45323 0
M  V30 5102 N 483.471 -4.95746 2.64938 0
M  V30 5103 H 475.622 -1.17993 1.76611 0
M  V30 5104 H 477.885 -0.577476 0.751814 0
M  V30 5105 H 477.591 -2.581 2.38909 0
M  V30 5106 H 477.465 -3.63854 0.994491 0
M  V30 5107 H 479.852 -2.93631 0.294036 0
M  V30 5108 H 479.933 -1.89278 1.72068 0
M  V30 5109 H 479.577 -3.93711 3.20864 0
M  V30 5110 H 479.507 -4.96489 1.75517 0
M  V30 5111 H 481.998 -3.40802 1.63285 0
M  V30 5112 H 482.311 -6.67633 3.89212 0
M  V30 5113 H 480.656 -6.0077 3.49428 0
M  V30 5114 H 483.847 -4.18439 2.09825 0
M  V30 5115 H 484.02 -5.67487 3.12829 0
M  V30 5116 N 477.426 -0.562348 -1.47226 0
M  V30 5117 C 478.651 -0.0432632 -2.07355 0
M  V30 5118 C 479.076 1.24332 -1.41149 0
M  V30 5119 O 478.434 1.74603 -0.488226 0
M  V30 5120 C 478.482 0.130288 -3.60365 0
M  V30 5121 O 477.586 1.19166 -3.94808 0
M  V30 5122 H 476.927 -0.0536334 -0.66183 0
M  V30 5123 H 479.457 -0.779495 -1.89169 0
M  V30 5124 H 479.467 0.342881 -4.06557 0
M  V30 5125 H 478.142 -0.809389 -4.07948 0
M  V30 5126 H 476.719 0.959153 -3.60354 0
M  V30 5127 N 478.904 1.54736 -0.299062 0
M  V30 5128 C 480.144 2.0201 0.31168 0
M  V30 5129 C 480.508 1.18281 1.5124 0
M  V30 5130 O 481.709 1.55243 2.19438 0
M  V30 5131 C 479.98 3.5123 0.661227 0
M  V30 5132 S 481.539 4.20467 1.2551 0
M  V30 5133 H 478.357 0.704523 0.0957517 0
M  V30 5134 H 480.959 1.90791 -0.426482 0
M  V30 5135 H 479.663 4.09804 -0.221171 0
M  V30 5136 H 479.194 3.66481 1.43023 0
M  V30 5137 H 481.209 4.26083 2.54298 0
M  V30 5138 N 480.382 0.0267497 1.57577 0
M  V30 5139 C 481.345 -0.940916 2.08996 0
M  V30 5140 C 482.345 -1.25561 1.00455 0
M  V30 5141 O 483.535 -1.19634 1.26623 0
M  V30 5142 C 480.667 -2.25814 2.55384 0
M  V30 5143 H 481.86 -0.495628 2.95776 0
M  V30 5144 H 479.413 -0.221241 1.54726 0
M  V30 5145 H 480.148 -2.74976 1.71926 0
M  V30 5146 H 479.933 -2.04285 3.34679 0
M  V30 5147 H 481.423 -2.95178 2.95398 0
M  V30 5148 N 481.861 -1.55662 -0.24637 0
M  V30 5149 C 482.809 -1.91186 -1.3248 0
M  V30 5150 C 483.803 -0.790996 -1.49799 0
M  V30 5151 O 485.009 -0.975617 -1.51267 0
M  V30 5152 H 481.384 -0.607207 -0.443626 0
M  V30 5153 H 483.355 -2.81221 -0.997853 0
M  V30 5154 C 482.104 -2.22349 -2.67313 0
M  V30 5155 H 481.427 -3.08097 -2.54786 0
M  V30 5156 H 482.867 -2.51107 -3.41645 0
M  V30 5157 C 481.326 -1.04001 -3.20446 0
M  V30 5158 O 481.856 -0.28828 -4.00664 0
M  V30 5159 N 480.062 -0.830494 -2.7848 0
M  V30 5160 H 479.609 -1.4435 -2.13356 0
M  V30 5161 H 479.567 -0.0403258 -3.14374 0
M  V30 5162 N 483.339 0.512053 -1.4905 0
M  V30 5163 C 484.569 1.28928 -1.61434 0
M  V30 5164 C 484.977 1.87107 -0.280647 0
M  V30 5165 O 484.32 1.68024 0.742537 0
M  V30 5166 C 484.382 2.466 -2.61588 0
M  V30 5167 C 484.046 2.09375 -4.06216 0
M  V30 5168 C 485.043 1.63994 -4.93358 0
M  V30 5169 C 482.728 2.19348 -4.51876 0
M  V30 5170 C 484.722 1.29076 -6.24194 0
M  V30 5171 C 482.409 1.84041 -5.82728 0
M  V30 5172 C 483.407 1.38978 -6.68711 0
M  V30 5173 O 483.095 1.04144 -7.97126 0
M  V30 5174 H 482.827 0.397668 -0.546659 0
M  V30 5175 H 485.381 0.622507 -1.9574 0
M  V30 5176 H 483.611 3.16318 -2.22441 0
M  V30 5177 H 485.3 3.08642 -2.63619 0
M  V30 5178 H 486.066 1.55744 -4.59313 0
M  V30 5179 H 481.945 2.53376 -3.85125 0
M  V30 5180 H 485.489 0.938303 -6.91261 0
M  V30 5181 H 481.386 1.91938 -6.16304 0
M  V30 5182 H 482.154 1.17387 -8.10039 0
M  V30 5183 N 484.817 1.37938 0.762283 0
M  V30 5184 C 486.228 1.30094 1.33912 0
M  V30 5185 C 486.579 -0.0472026 1.96143 0
M  V30 5186 O 485.704 -0.94917 1.94473 0
M  V30 5187 C 486.299 2.35592 2.43478 0
M  V30 5188 C 484.858 2.31353 2.96905 0
M  V30 5189 C 484.005 2.18919 1.70205 0
M  V30 5190 H 486.956 1.48423 0.561816 0
M  V30 5191 H 486.977 2.00806 3.23199 0
M  V30 5192 H 486.489 3.33701 1.98155 0
M  V30 5193 H 484.59 1.36799 3.46579 0
M  V30 5194 H 484.703 3.25147 3.51875 0
M  V30 5195 H 483.067 1.65624 1.93496 0
M  V30 5196 H 483.85 3.18956 1.26973 0
M  V30 5197 N 486.295 -0.989507 1.22664 0
M  V30 5198 C 487.543 -1.72612 1.05117 0
M  V30 5199 C 487.864 -1.90552 -0.414131 0
M  V30 5200 O 487.134 -1.4676 -1.29762 0
M  V30 5201 H 485.714 -0.639555 0.385977 0
M  V30 5202 H 488.376 -1.19158 1.54232 0
M  V30 5203 H 487.472 -2.71926 1.53175 0
M  V30 5204 N 487.773 -1.03688 -1.18687 0
M  V30 5205 C 488.703 -0.645407 -2.24403 0
M  V30 5206 C 489.684 0.349511 -1.66471 0
M  V30 5207 O 490.869 0.230453 -1.92828 0
M  V30 5208 C 487.999 -0.00365337 -3.473 0
M  V30 5209 C 486.953 -0.921705 -4.17958 0
M  V30 5210 C 486.279 -0.144629 -5.34504 0
M  V30 5211 C 487.579 -2.23909 -4.71871 0
M  V30 5212 H 489.273 -1.52917 -2.57404 0
M  V30 5213 H 486.819 -0.736711 -1.23728 0
M  V30 5214 H 488.772 0.281908 -4.20456 0
M  V30 5215 H 487.496 0.914963 -3.13522 0
M  V30 5216 H 486.155 -1.19159 -3.46694 0
M  V30 5217 H 485.803 0.776274 -4.96974 0
M  V30 5218 H 485.503 -0.756206 -5.82714 0
M  V30 5219 H 487.027 0.134004 -6.10453 0
M  V30 5220 H 488.441 -2.0145 -5.36741 0
M  V30 5221 H 486.838 -2.8033 -5.30599 0
M  V30 5222 H 487.908 -2.88822 -3.895 0
M  V30 5223 N 489.251 1.34841 -0.815825 0
M  V30 5224 C 490.528 1.92908 -0.323416 0
M  V30 5225 C 490.908 1.74479 1.18828 0
M  V30 5226 O 490.256 1.11928 1.99209 0
M  V30 5227 C 490.466 3.40957 -0.744952 0
M  V30 5228 C 491.814 4.18107 -0.739716 0
M  V30 5229 O 492.838 3.49511 -0.68708 0
M  V30 5230 O 491.697 5.40517 -0.806456 0
M  V30 5231 H 488.791 0.822436 -0.0867646 0
M  V30 5232 H 491.337 1.4386 -0.90014 0
M  V30 5233 H 490.109 3.4814 -1.78646 0
M  V30 5234 H 489.732 3.97341 -0.143535 0
M  V30 5235 N 490.729 0.570148 1.46925 0
M  V30 5236 C 491.954 0.0542592 2.07329 0
M  V30 5237 C 492.379 -1.23582 1.41806 0
M  V30 5238 O 491.737 -1.74341 0.497479 0
M  V30 5239 C 491.785 -0.111175 3.60429 0
M  V30 5240 O 490.889 -1.17071 3.95434 0
M  V30 5241 H 490.23 0.0571425 0.661537 0
M  V30 5242 H 492.76 0.789516 1.88753 0
M  V30 5243 H 492.77 -0.321315 4.06733 0
M  V30 5244 H 491.445 0.831012 4.07513 0
M  V30 5245 H 490.022 -0.940029 3.60857 0
M  V30 5246 N 492.207 -1.54576 0.307264 0
M  V30 5247 C 493.623 -1.59534 -0.0459251 0
M  V30 5248 C 493.823 -1.32414 -1.51884 0
M  V30 5249 O 492.879 -1.1006 -2.27251 0
M  V30 5250 C 494.192 -2.98566 0.357649 0
M  V30 5251 C 495.74 -3.11491 0.306937 0
M  V30 5252 C 496.215 -4.52842 0.685427 0
M  V30 5253 N 497.706 -4.58782 0.638203 0
M  V30 5254 C 498.441 -5.66238 0.903458 0
M  V30 5255 N 497.937 -6.81703 1.23501 0
M  V30 5256 N 499.73 -5.55937 0.830102 0
M  V30 5257 H 491.881 -1.70464 1.26712 0
M  V30 5258 H 494.144 -0.79647 0.514139 0
M  V30 5259 H 493.85 -3.23356 1.38325 0
M  V30 5260 H 493.724 -3.76117 -0.285565 0
M  V30 5261 H 496.111 -2.86446 -0.709424 0
M  V30 5262 H 496.192 -2.36081 0.984861 0
M  V30 5263 H 495.836 -4.78618 1.69963 0
M  V30 5264 H 495.766 -5.26598 -0.0146346 0
M  V30 5265 H 498.257 -3.75849 0.393138 0
M  V30 5266 H 498.57 -7.59582 1.42322 0
M  V30 5267 H 496.915 -6.8324 1.27311 0
M  V30 5268 H 500.106 -4.64608 0.570693 0
M  V30 5269 H 500.279 -6.39597 1.04019 0
M  V30 5270 N 493.685 -0.035106 -1.57561 0
M  V30 5271 C 494.915 0.651312 -1.96065 0
M  V30 5272 C 495.323 1.6585 -0.910514 0
M  V30 5273 O 494.666 1.83336 0.11552 0
M  V30 5274 C 494.728 1.40897 -3.30739 0
M  V30 5275 C 494.392 0.559436 -4.53563 0
M  V30 5276 C 495.389 -0.16778 -5.19629 0
M  V30 5277 C 493.074 0.495079 -4.99854 0
M  V30 5278 C 495.068 -0.947963 -6.30311 0
M  V30 5279 C 492.755 -0.288804 -6.10417 0
M  V30 5280 C 493.753 -1.00903 -6.75505 0
M  V30 5281 O 493.441 -1.78005 -7.83945 0
M  V30 5282 H 493.173 0.184036 -0.650467 0
M  V30 5283 H 495.727 -0.0929677 -2.05189 0
M  V30 5284 H 493.957 2.19852 -3.18123 0
M  V30 5285 H 495.646 1.98407 -3.54104 0
M  V30 5286 H 496.412 -0.12743 -4.84833 0
M  V30 5287 H 492.291 1.04524 -4.48994 0
M  V30 5288 H 495.835 -1.51064 -6.81047 0
M  V30 5289 H 491.732 -0.33085 -6.44652 0
M  V30 5290 H 492.5 -1.70046 -8.00641 0
M  V30 5291 N 495.163 1.55791 0.238111 0
M  V30 5292 C 496.393 1.81834 0.980809 0
M  V30 5293 C 496.801 0.609741 1.79106 0
M  V30 5294 O 496.144 -0.431073 1.78571 0
M  V30 5295 C 496.206 3.01363 1.96011 0
M  V30 5296 C 495.87 4.37037 1.33597 0
M  V30 5297 C 496.867 5.14692 0.734063 0
M  V30 5298 C 494.552 4.83743 1.3527 0
M  V30 5299 C 496.546 6.37206 0.157208 0
M  V30 5300 C 494.233 6.06204 0.77199 0
M  V30 5301 C 495.231 6.82775 0.175282 0
M  V30 5302 O 494.919 8.02922 -0.396432 0
M  V30 5303 H 494.651 0.6088 0.293834 0
M  V30 5304 H 497.205 2.03702 0.263552 0
M  V30 5305 H 495.435 2.75273 2.71591 0
M  V30 5306 H 497.124 3.14422 2.56697 0
M  V30 5307 H 497.89 4.79722 0.713582 0
M  V30 5308 H 493.769 4.24129 1.80653 0
M  V30 5309 H 497.313 6.96915 -0.30917 0
M  V30 5310 H 493.21 6.4065 0.789828 0
M  V30 5311 H 493.978 8.17989 -0.289145 0
M  V30 5312 N 496.642 -0.504142 1.49319 0
M  V30 5313 C 498.058 -0.835039 1.36012 0
M  V30 5314 C 498.258 -1.97674 0.390808 0
M  V30 5315 O 497.314 -2.51867 -0.178655 0
M  V30 5316 C 498.627 -1.17821 2.76656 0
M  V30 5317 C 500.175 -1.2866 2.85334 0
M  V30 5318 C 500.65 -1.66307 4.26739 0
M  V30 5319 N 502.141 -1.73362 4.29534 0
M  V30 5320 C 502.876 -2.0393 5.35911 0
M  V30 5321 N 502.372 -2.32744 6.52535 0
M  V30 5322 N 504.165 -2.05155 5.23324 0
M  V30 5323 H 496.316 0.248764 2.10938 0
M  V30 5324 H 498.579 0.0486962 0.946748 0
M  V30 5325 H 498.285 -0.412682 3.4927 0
M  V30 5326 H 498.159 -2.12239 3.11825 0
M  V30 5327 H 500.546 -2.04285 2.1296 0
M  V30 5328 H 500.627 -0.323004 2.53752 0
M  V30 5329 H 500.271 -0.91234 4.99639 0
M  V30 5330 H 500.201 -2.63761 4.55782 0
M  V30 5331 H 502.692 -1.53268 3.45424 0
M  V30 5332 H 503.005 -2.55248 7.2943 0
M  V30 5333 H 501.35 -2.30207 6.55767 0
M  V30 5334 H 504.541 -1.82119 4.3122 0
M  V30 5335 H 504.714 -2.28644 6.06322 0
M  V30 5336 N 498.12 -1.38341 -0.754957 0
M  V30 5337 C 499.366 -1.34672 -1.51628 0
M  V30 5338 C 499.699 0.0636036 -1.94096 0
M  V30 5339 O 498.974 1.0245 -1.6533 0
M  V30 5340 C 499.257 -2.30116 -2.76981 0
M  V30 5341 C 499.11 -3.80003 -2.4066 0
M  V30 5342 C 500.429 -2.23715 -3.78998 0
M  V30 5343 H 497.548 -0.490517 -0.550056 0
M  V30 5344 H 500.19 -1.69178 -0.864807 0
M  V30 5345 H 498.34 -2.00821 -3.3257 0
M  V30 5346 H 500.012 -4.19966 -1.90856 0
M  V30 5347 H 498.255 -3.97751 -1.73137 0
M  V30 5348 H 498.926 -4.42244 -3.30339 0
M  V30 5349 H 501.402 -2.49574 -3.32945 0
M  V30 5350 H 500.278 -2.9261 -4.64403 0
M  V30 5351 H 500.539 -1.23554 -4.24484 0
M  V30 5352 N 499.598 0.982988 -1.23187 0
M  V30 5353 C 500.561 2.05649 -1.01198 0
M  V30 5354 C 501.561 1.6078 0.0252464 0
M  V30 5355 O 502.751 1.72878 -0.214243 0
M  V30 5356 C 499.883 3.36744 -0.530656 0
M  V30 5357 H 501.076 2.2659 -1.96461 0
M  V30 5358 H 498.629 1.15602 -1.05195 0
M  V30 5359 H 499.364 3.21492 0.425873 0
M  V30 5360 H 499.149 3.7065 -1.2791 0
M  V30 5361 H 500.639 4.15705 -0.397366 0
M  V30 5362 N 501.076 1.04316 1.18135 0
M  V30 5363 C 502.325 0.74319 1.87509 0
M  V30 5364 C 502.638 -0.732136 1.81381 0
M  V30 5365 O 503.844 -1.14572 2.46141 0
M  V30 5366 C 502.3 1.27913 3.36402 0
M  V30 5367 C 501.908 2.78326 3.51053 0
M  V30 5368 C 503.652 1.0558 4.11161 0
M  V30 5369 C 501.559 3.25266 4.93919 0
M  V30 5370 H 500.489 0.274313 0.702331 0
M  V30 5371 H 503.14 1.25931 1.33467 0
M  V30 5372 H 501.522 0.690853 3.89927 0
M  V30 5373 H 502.696 3.42933 3.07788 0
M  V30 5374 H 501.011 2.991 2.89704 0
M  V30 5375 H 503.608 1.38161 5.16542 0
M  V30 5376 H 503.951 -0.00684729 4.16299 0
M  V30 5377 H 504.484 1.60882 3.63816 0
M  V30 5378 H 501.223 4.30922 4.9395 0
M  V30 5379 H 500.743 2.65396 5.3789 0
M  V30 5380 H 502.422 3.19433 5.62647 0
M  V30 5381 N 502.554 -1.34406 0.822964 0
M  V30 5382 C 503.97 -1.51275 0.508727 0
M  V30 5383 C 504.17 -1.76776 -0.967083 0
M  V30 5384 O 503.226 -1.81871 -1.75155 0
M  V30 5385 C 504.539 -2.67765 1.36829 0
M  V30 5386 C 506.087 -2.81647 1.36542 0
M  V30 5387 C 506.562 -4.01181 2.20947 0
M  V30 5388 N 508.053 -4.08388 2.18571 0
M  V30 5389 C 508.788 -5.00036 2.80627 0
M  V30 5390 N 508.284 -5.96906 3.51674 0
M  V30 5391 N 510.077 -4.92908 2.70181 0
M  V30 5392 H 502.228 -1.16113 1.77852 0
M  V30 5393 H 504.491 -0.56947 0.757897 0
M  V30 5394 H 504.197 -2.55551 2.41633 0
M  V30 5395 H 504.071 -3.62779 1.03303 0
M  V30 5396 H 506.458 -2.93303 0.325163 0
M  V30 5397 H 506.539 -1.87443 1.74066 0
M  V30 5398 H 506.183 -3.90286 3.25022 0
M  V30 5399 H 506.113 -4.94599 1.80774 0
M  V30 5400 H 508.604 -3.39051 1.66891 0
M  V30 5401 H 508.917 -6.63468 3.96271 0
M  V30 5402 H 507.262 -5.9703 3.5578 0
M  V30 5403 H 510.453 -4.1619 2.14251 0
M  V30 5404 H 510.626 -5.64137 3.18831 0
M  V30 5405 N 504.032 -0.577932 -1.46621 0
M  V30 5406 C 505.257 -0.0652536 -2.07297 0
M  V30 5407 C 505.682 1.22828 -1.4246 0
M  V30 5408 O 505.04 1.74075 -0.506718 0
M  V30 5409 C 505.088 0.0920589 -3.60482 0
M  V30 5410 O 504.192 1.14972 -3.96049 0
M  V30 5411 H 503.533 -0.06065 -0.661224 0
M  V30 5412 H 506.063 -0.799515 -1.88332 0
M  V30 5413 H 506.073 0.299741 -4.06897 0
M  V30 5414 H 504.748 -0.852612 -4.07067 0
M  V30 5415 H 503.325 0.920879 -3.61351 0
M  V30 5416 N 505.51 1.54411 -0.315457 0
M  V30 5417 C 506.473 2.22713 0.54142 0
M  V30 5418 C 507.473 1.2179 1.04995 0
M  V30 5419 O 508.663 1.46426 0.943667 0
M  V30 5420 C 505.795 2.92485 1.75116 0
M  V30 5421 H 506.988 2.99849 -0.0555508 0
M  V30 5422 H 504.541 1.56159 -0.0664453 0
M  V30 5423 H 505.276 2.19466 2.38758 0
M  V30 5424 H 505.061 3.66483 1.39401 0
M  V30 5425 H 506.551 3.44548 2.35959 0
M  V30 5426 N 506.988 0.0434614 1.5754 0
M  V30 5427 C 507.951 -0.918696 2.09982 0
M  V30 5428 C 508.951 -1.24488 1.01781 0
M  V30 5429 O 510.141 -1.18284 1.27885 0
M  V30 5430 C 507.273 -2.23093 2.57764 0
M  V30 5431 H 508.466 -0.464229 2.96285 0
M  V30 5432 H 506.019 -0.204818 1.54952 0
M  V30 5433 H 506.754 -2.73137 1.74832 0
M  V30 5434 H 506.539 -2.00724 3.36827 0
M  V30 5435 H 508.029 -2.92028 2.98512 0
M  V30 5436 N 508.466 -1.55915 -0.229846 0
M  V30 5437 C 509.398 -1.88209 -1.30805 0
M  V30 5438 C 510.411 -0.769672 -1.43457 0
M  V30 5439 O 511.6 -1.04792 -1.44502 0
M  V30 5440 C 508.7 -2.06829 -2.68468 0
M  V30 5441 C 507.873 -3.37798 -2.77869 0
M  V30 5442 C 506.932 -3.45952 -3.96489 0
M  V30 5443 O 505.958 -4.19043 -3.85216 0
M  V30 5444 N 507.16 -2.76488 -5.10426 0
M  V30 5445 H 509.925 -2.81286 -1.03431 0
M  V30 5446 H 507.486 -1.5636 -0.41991 0
M  V30 5447 H 509.478 -2.09608 -3.46189 0
M  V30 5448 H 508.048 -1.20416 -2.88477 0
M  V30 5449 H 507.268 -3.4719 -1.86689 0
M  V30 5450 H 508.556 -4.24091 -2.81113 0
M  V30 5451 H 507.954 -2.16868 -5.2248 0
M  V30 5452 H 506.511 -2.84938 -5.8622 0
M  V30 5453 N 509.944 0.496216 -1.49584 0
M  V30 5454 C 510.892 1.61805 -1.67098 0
M  V30 5455 C 511.886 1.60667 -0.536877 0
M  V30 5456 O 513.092 1.65118 -0.716654 0
M  V30 5457 H 509.467 0.53646 -0.526986 0
M  V30 5458 H 511.438 1.44187 -2.61252 0
M  V30 5459 C 510.187 2.99912 -1.75921 0
M  V30 5460 H 509.51 3.01496 -2.62565 0
M  V30 5461 H 510.95 3.77931 -1.92209 0
M  V30 5462 C 509.409 3.33092 -0.505088 0
M  V30 5463 O 509.939 4.00019 0.367085 0
M  V30 5464 N 508.145 2.88278 -0.366599 0
M  V30 5465 H 507.692 2.33989 -1.07735 0
M  V30 5466 H 507.65 3.10846 0.47142 0
M  V30 5467 N 511.423 1.38739 0.74761 0
M  V30 5468 C 512.333 1.38696 1.89211 0
M  V30 5469 C 513.349 0.283303 1.71678 0
M  V30 5470 O 514.525 0.522713 1.94498 0
M  V30 5471 C 511.59 1.21662 3.24653 0
M  V30 5472 C 510.651 2.41886 3.54669 0
M  V30 5473 C 509.884 2.25655 4.83648 0
M  V30 5474 O 510.107 1.25339 5.56459 0
M  V30 5475 O 509.041 3.14372 5.13277 0
M  V30 5476 H 512.867 2.35143 1.92202 0
M  V30 5477 H 510.452 1.19721 0.893708 0
M  V30 5478 H 512.334 1.14246 4.05618 0
M  V30 5479 H 511.009 0.283024 3.2246 0
M  V30 5480 H 509.916 2.54877 2.73841 0
M  V30 5481 H 511.249 3.33895 3.61628 0
M  V30 5482 N 512.901 -0.976442 1.23707 0
M  V30 5483 C 514.317 -1.24341 1.00058 0
M  V30 5484 C 514.517 -1.99315 -0.295932 0
M  V30 5485 O 513.573 -2.3123 -1.01435 0
M  V30 5486 C 514.886 -2.03909 2.21001 0
M  V30 5487 C 516.434 -2.17034 2.25534 0
M  V30 5488 C 516.909 -2.99994 3.46075 0
M  V30 5489 N 518.4 -3.07578 3.46338 0
M  V30 5490 C 519.135 -3.72104 4.36264 0
M  V30 5491 N 518.631 -4.3842 5.36432 0
M  V30 5492 N 520.424 -3.69029 4.23998 0
M  V30 5493 H 512.575 -0.47428 2.07037 0
M  V30 5494 H 514.838 -0.272167 0.908091 0
M  V30 5495 H 514.544 -1.56198 3.15111 0
M  V30 5496 H 514.418 -3.04654 2.22409 0
M  V30 5497 H 516.805 -2.63951 1.31961 0
M  V30 5498 H 516.886 -1.15664 2.28156 0
M  V30 5499 H 516.53 -2.53772 4.39957 0
M  V30 5500 H 516.46 -4.01541 3.40694 0
M  V30 5501 H 518.951 -2.60397 2.73865 0
M  V30 5502 H 519.264 -4.85447 6.013 0
M  V30 5503 H 517.609 -4.37116 5.40328 0
M  V30 5504 H 520.8 -3.16392 3.44984 0
M  V30 5505 H 520.973 -4.19034 4.94282 0
M  V30 5506 N 514.379 -1.04941 -1.1758 0
M  V30 5507 C 515.309 -0.669172 -2.23706 0
M  V30 5508 C 516.29 0.331835 -1.66832 0
M  V30 5509 O 517.475 0.209988 -1.93061 0
M  V30 5510 C 514.605 -0.0404889 -3.47276 0
M  V30 5511 C 513.559 -0.965983 -4.16957 0
M  V30 5512 C 512.885 -0.201312 -5.34321 0
M  V30 5513 C 514.185 -2.28902 -4.69469 0
M  V30 5514 H 515.879 -1.55639 -2.55767 0
M  V30 5515 H 513.425 -0.749793 -1.22939 0
M  V30 5516 H 515.378 0.237298 -4.20731 0
M  V30 5517 H 514.102 0.881658 -3.14475 0
M  V30 5518 H 512.761 -1.22829 -3.45411 0
M  V30 5519 H 512.409 0.723519 -4.97769 0
M  V30 5520 H 512.109 -0.817968 -5.81879 0
M  V30 5521 H 513.633 0.0692499 -6.10561 0
M  V30 5522 H 515.047 -2.07132 -5.34574 0
M  V30 5523 H 513.444 -2.85942 -5.27596 0
M  V30 5524 H 514.514 -2.92937 -3.86414 0
M  V30 5525 N 515.857 1.33968 -0.830081 0
M  V30 5526 C 516.787 2.31911 -0.271911 0
M  V30 5527 C 517.768 1.58571 0.61556 0
M  V30 5528 O 518.953 1.86514 0.540946 0
M  V30 5529 C 516.083 3.42737 0.561146 0
M  V30 5530 C 515.037 4.27383 -0.229789 0
M  V30 5531 C 514.363 5.29742 0.726463 0
M  V30 5532 C 515.663 5.02 -1.44197 0
M  V30 5533 H 517.357 2.78844 -1.09025 0
M  V30 5534 H 514.903 1.34061 -0.52571 0
M  V30 5535 H 516.856 4.10276 0.961867 0
M  V30 5536 H 515.58 2.94471 1.41261 0
M  V30 5537 H 514.239 3.61456 -0.611964 0
M  V30 5538 H 513.887 4.77736 1.57408 0
M  V30 5539 H 513.587 5.87255 0.20142 0
M  V30 5540 H 515.111 6.00149 1.12489 0
M  V30 5541 H 516.525 5.62355 -1.11488 0
M  V30 5542 H 514.922 5.69122 -1.90317 0
M  V30 5543 H 515.992 4.31281 -2.2164 0
M  V30 5544 N 517.335 0.585699 1.46312 0
M  V30 5545 C 518.298 -0.135673 2.28798 0
M  V30 5546 C 519.298 -0.815988 1.38558 0
M  V30 5547 O 520.488 -0.667487 1.60904 0
M  V30 5548 C 517.62 -1.20163 3.1902 0
M  V30 5549 H 518.813 0.589257 2.94054 0
M  V30 5550 H 516.366 0.343794 1.52472 0
M  V30 5551 H 517.101 -1.95804 2.58517 0
M  V30 5552 H 516.886 -0.718282 3.85465 0
M  V30 5553 H 518.376 -1.70749 3.81096 0
M  V30 5554 N 518.813 -1.54241 0.323641 0
M  V30 5555 C 519.776 -2.22997 -0.529602 0
M  V30 5556 C 520.776 -1.22345 -1.04347 0
M  V30 5557 O 521.966 -1.46924 -0.935889 0
M  V30 5558 C 519.098 -2.93409 -1.73562 0
M  V30 5559 H 520.291 -2.99815 0.0714518 0
M  V30 5560 H 517.844 -1.56121 0.0747258 0
M  V30 5561 H 518.579 -2.20729 -2.37591 0
M  V30 5562 H 518.364 -3.67217 -1.37456 0
M  V30 5563 H 519.854 -3.45794 -2.34128 0
M  V30 5564 N 520.291 -0.0518155 -1.57515 0
M  V30 5565 C 521.221 0.920283 -2.146 0
M  V30 5566 C 522.202 1.32406 -1.06783 0
M  V30 5567 O 523.387 1.39866 -1.34726 0
M  V30 5568 C 520.517 2.1949 -2.6915 0
M  V30 5569 C 519.471 1.93116 -3.81956 0
M  V30 5570 C 518.797 3.27037 -4.23026 0
M  V30 5571 C 520.097 1.25225 -5.07066 0
M  V30 5572 H 521.791 0.444801 -2.96077 0
M  V30 5573 H 519.337 0.212508 -1.42423 0
M  V30 5574 H 521.29 2.87894 -3.07725 0
M  V30 5575 H 520.014 2.69244 -1.84865 0
M  V30 5576 H 518.673 1.27123 -3.43854 0
M  V30 5577 H 518.321 3.74595 -3.3569 0
M  V30 5578 H 518.021 3.10189 -4.99056 0
M  V30 5579 H 519.545 3.96673 -4.64202 0
M  V30 5580 H 520.959 1.83666 -5.43083 0
M  V30 5581 H 519.356 1.18702 -5.88243 0
M  V30 5582 H 520.426 0.228382 -4.84362 0
M  V30 5583 N 521.769 1.56035 0.221574 0
M  V30 5584 C 523.185 1.49026 0.571271 0
M  V30 5585 C 523.385 0.746912 1.87146 0
M  V30 5586 O 522.441 0.286566 2.50869 0
M  V30 5587 C 523.754 2.93579 0.650522 0
M  V30 5588 C 525.302 3.04099 0.741151 0
M  V30 5589 C 525.777 4.5001 0.851747 0
M  V30 5590 N 527.268 4.54053 0.915968 0
M  V30 5591 C 528.003 5.64232 1.02125 0
M  V30 5592 N 527.499 6.84164 1.09049 0
M  V30 5593 N 529.292 5.52084 1.05639 0
M  V30 5594 H 521.443 2.02791 -0.63162 0
M  V30 5595 H 523.706 0.921736 -0.221602 0
M  V30 5596 H 523.412 3.50912 -0.235253 0
M  V30 5597 H 523.286 3.45476 1.51413 0
M  V30 5598 H 525.673 2.4683 1.61737 0
M  V30 5599 H 525.754 2.55371 -0.148128 0
M  V30 5600 H 525.398 5.07896 -0.0200117 0
M  V30 5601 H 525.328 4.96444 1.75644 0
M  V30 5602 H 527.819 3.67683 0.872782 0
M  V30 5603 H 528.132 7.63883 1.1706 0
M  V30 5604 H 526.477 6.86875 1.05962 0
M  V30 5605 H 529.668 4.57317 0.998953 0
M  V30 5606 H 529.841 6.37983 1.13498 0
M  V30 5607 N 523.247 -0.488276 1.49845 0
M  V30 5608 C 524.195 -1.60917 1.67954 0
M  V30 5609 C 525.189 -1.6038 0.54539 0
M  V30 5610 O 526.395 -1.64736 0.7254 0
M  V30 5611 H 522.77 -0.533658 0.529824 0
M  V30 5612 H 524.741 -1.428 2.62013 0
M  V30 5613 C 523.49 -2.98975 1.77509 0
M  V30 5614 H 522.813 -3.00099 2.6416 0
M  V30 5615 H 524.253 -3.76906 1.9421 0
M  V30 5616 C 522.712 -3.3282 0.522745 0
M  V30 5617 O 523.242 -4.00208 -0.345866 0
M  V30 5618 N 521.448 -2.8808 0.381882 0
M  V30 5619 H 520.995 -2.33415 1.08974 0
M  V30 5620 H 520.953 -3.11091 -0.454929 0
M  V30 5621 N 524.725 -1.39134 -0.740242 0
M  V30 5622 C 525.971 -1.36273 -1.50192 0
M  V30 5623 C 526.304 0.0430136 -1.94152 0
M  V30 5624 O 525.579 1.00691 -1.66408 0
M  V30 5625 C 525.862 -2.33041 -2.74525 0
M  V30 5626 C 525.715 -3.82535 -2.36617 0
M  V30 5627 C 527.034 -2.27723 -3.76604 0
M  V30 5628 H 524.153 -0.496323 -0.544823 0
M  V30 5629 H 526.795 -1.70085 -0.846815 0
M  V30 5630 H 524.945 -2.04337 -3.30422 0
M  V30 5631 H 526.617 -4.21967 -1.86391 0
M  V30 5632 H 524.86 -3.99565 -1.68909 0
M  V30 5633 H 525.531 -4.45723 -3.2563 0
M  V30 5634 H 528.007 -2.53091 -3.30279 0
M  V30 5635 H 526.883 -2.97519 -4.61274 0
M  V30 5636 H 527.144 -1.28049 -4.2315 0
M  V30 5637 N 526.204 0.969867 -1.24223 0
M  V30 5638 C 527.134 2.08191 -1.05729 0
M  V30 5639 C 528.115 1.70075 0.0290765 0
M  V30 5640 O 529.3 1.93712 -0.137583 0
M  V30 5641 C 526.43 3.40991 -0.658995 0
M  V30 5642 C 525.384 3.93054 -1.69389 0
M  V30 5643 C 524.71 5.22171 -1.15072 0
M  V30 5644 C 526.01 4.21137 -3.08935 0
M  V30 5645 H 527.704 2.23921 -1.98746 0
M  V30 5646 H 525.25 1.07602 -0.956967 0
M  V30 5647 H 527.203 4.18221 -0.51662 0
M  V30 5648 H 525.927 3.25155 0.30686 0
M  V30 5649 H 524.586 3.17977 -1.82444 0
M  V30 5650 H 524.234 5.02694 -0.175539 0
M  V30 5651 H 523.934 5.57973 -1.84229 0
M  V30 5652 H 525.458 6.02013 -1.02042 0
M  V30 5653 H 526.872 4.8908 -2.99121 0
M  V30 5654 H 525.269 4.68163 -3.75425 0
M  V30 5655 H 526.339 3.27996 -3.57137 0
M  V30 5656 N 527.682 1.05563 1.17022 0
M  V30 5657 C 528.91 0.78845 1.91288 0
M  V30 5658 C 529.325 -0.656318 1.77025 0
M  V30 5659 O 528.682 -1.44869 1.10992 0
M  V30 5660 C 528.733 1.16444 3.42232 0
M  V30 5661 O 528.454 2.5525 3.5606 0
M  V30 5662 C 529.955 0.923937 4.33565 0
M  V30 5663 H 527.175 0.286389 0.606813 0
M  V30 5664 H 529.719 1.4073 1.48375 0
M  V30 5665 H 527.874 0.590266 3.82877 0
M  V30 5666 H 528.288 2.70097 4.49609 0
M  V30 5667 H 529.762 1.23672 5.37968 0
M  V30 5668 H 530.239 -0.140688 4.38975 0
M  V30 5669 H 530.845 1.48214 3.98639 0
M  V30 5670 N 529.16 -1.33526 0.837174 0
M  V30 5671 C 530.408 -1.97446 0.431211 0
M  V30 5672 C 530.729 -1.6665 -1.01255 0
M  V30 5673 O 529.999 -0.964559 -1.70508 0
M  V30 5674 H 528.579 -0.73043 0.156463 0
M  V30 5675 H 531.241 -1.62918 1.06976 0
M  V30 5676 H 530.337 -3.07001 0.561877 0
M  V30 5677 N 530.638 -0.59345 -1.46 0
M  V30 5678 C 531.887 -0.0808084 -2.01538 0
M  V30 5679 C 532.2 1.29112 -1.46934 0
M  V30 5680 O 533.406 1.8957 -1.94359 0
M  V30 5681 C 531.862 -0.0938311 -3.59778 0
M  V30 5682 C 531.47 -1.46474 -4.23379 0
M  V30 5683 C 533.214 0.364306 -4.22934 0
M  V30 5684 C 531.121 -1.4349 -5.73729 0
M  V30 5685 H 530.051 -0.0264407 -0.753536 0
M  V30 5686 H 532.702 -0.746689 -1.67621 0
M  V30 5687 H 531.084 0.638427 -3.9082 0
M  V30 5688 H 532.258 -2.21758 -4.03931 0
M  V30 5689 H 530.573 -1.86379 -3.7236 0
M  V30 5690 H 533.17 0.405584 -5.3316 0
M  V30 5691 H 533.513 1.38409 -3.92618 0
M  V30 5692 H 534.046 -0.31423 -3.96557 0
M  V30 5693 H 530.785 -2.43184 -6.08722 0
M  V30 5694 H 530.305 -0.724431 -5.95409 0
M  V30 5695 H 531.984 -1.15243 -6.36654 0
M  V30 5696 N 532.116 1.54067 -0.331816 0
M  V30 5697 C 533.079 2.23275 0.517768 0
M  V30 5698 C 534.079 1.22897 1.03697 0
M  V30 5699 O 535.269 1.47419 0.928084 0
M  V30 5700 C 532.401 2.94326 1.72004 0
M  V30 5701 H 533.594 2.99773 -0.0873507 0
M  V30 5702 H 531.147 1.56079 -0.0830042 0
M  V30 5703 H 531.882 2.21986 2.36417 0
M  V30 5704 H 531.667 3.67941 1.35507 0
M  V30 5705 H 533.157 3.47031 2.32291 0
M  V30 5706 N 533.594 0.0601682 1.57485 0
M  V30 5707 C 535.005 -0.474217 1.80577 0
M  V30 5708 C 535.356 -1.70365 0.973147 0
M  V30 5709 O 534.481 -2.15544 0.192306 0
M  V30 5710 C 535.076 -0.867102 3.27516 0
M  V30 5711 C 533.635 -1.34642 3.51495 0
M  V30 5712 C 532.782 -0.32594 2.75378 0
M  V30 5713 H 535.733 0.285973 1.56102 0
M  V30 5714 H 535.754 -1.72938 3.38929 0
M  V30 5715 H 535.266 0.0278927 3.8809 0
M  V30 5716 H 533.367 -2.2603 2.96212 0
M  V30 5717 H 533.48 -1.33237 4.60201 0
M  V30 5718 H 531.844 -0.800749 2.41785 0
M  V30 5719 H 532.627 0.561125 3.38683 0
M  V30 5720 N 535.072 -1.5615 -0.213296 0
M  V30 5721 C 536.035 -1.92249 -1.24792 0
M  V30 5722 C 537.035 -0.801828 -1.39382 0
M  V30 5723 O 538.225 -1.06948 -1.37506 0
M  V30 5724 C 535.357 -2.18056 -2.62039 0
M  V30 5725 H 536.55 -2.84793 -0.939845 0
M  V30 5726 H 534.103 -1.49559 -0.454062 0
M  V30 5727 H 534.838 -1.2809 -2.97932 0
M  V30 5728 H 534.623 -2.99703 -2.52825 0
M  V30 5729 H 536.113 -2.47051 -3.36683 0
M  V30 5730 N 536.55 0.480323 -1.50102 0
M  V30 5731 C 537.827 1.24159 -1.51142 0
M  V30 5732 C 538.207 2.09605 -0.250818 0
M  V30 5733 O 537.555 2.15274 0.766118 0
M  V30 5734 C 537.765 2.08057 -2.80202 0
M  V30 5735 C 539.113 2.66556 -3.30504 0
M  V30 5736 O 540.137 2.18308 -2.81461 0
M  V30 5737 O 538.996 3.54442 -4.15973 0
M  V30 5738 H 536.09 0.562928 -0.605839 0
M  V30 5739 H 538.636 0.492899 -1.62384 0
M  V30 5740 H 537.408 1.45032 -3.6343 0
M  V30 5741 H 537.031 2.90079 -2.71919 0
M  V30 5742 O 538.067 1.48883 0.625791 0
M  V30 5743 H 538.758 1.45381 1.28 0
M  V30 END ATOM
M  V30 BEGIN BOND
M  V30 END BOND
M  V30 END CTAB
M  END
$$$$
