drugbank_target|P98160 Basement membrane-specific heparan sulfate proteoglycan core protein (DB00039)
 OpenBabel12092119463D

  0  0  0     0  0            999 V3000
M  V30 BEGIN CTAB
M  V30 COUNTS 64601 65416 0 0 0
M  V30 BEGIN ATOM
M  V30 1 H -0.908 1.98254 -0.117106 0
M  V30 2 N 0 1.576 0 0
M  V30 3 C 0.933 2.03868 1.02534 0
M  V30 4 C 1.911 0.928543 1.3348 0
M  V30 5 O 3.095 1.19667 1.45644 0
M  V30 6 C 0.222 2.43627 2.35294 0
M  V30 7 C -0.732 3.65373 2.2001 0
M  V30 8 S 0.101 5.13292 1.52614 0
M  V30 9 C 1.257 5.56322 2.86805 0
M  V30 10 H 1.49 2.90518 0.631377 0
M  V30 11 H -0.977 1.52953 0.210867 0
M  V30 12 H 0.981 2.67203 3.11629 0
M  V30 13 H -0.358 1.57376 2.7183 0
M  V30 14 H -1.165 3.90944 3.18086 0
M  V30 15 H -1.563 3.418 1.51819 0
M  V30 16 H 0.729 5.58782 3.83104 0
M  V30 17 H 1.672 6.56266 2.65933 0
M  V30 18 H 2.08 4.83886 2.90714 0
M  V30 19 N 1.4781 -0.272755 1.55222 0
M  V30 20 C 2.7261 -1.00234 1.75492 0
M  V30 21 C 3.0471 -1.8681 0.5592 0
M  V30 22 O 2.3171 -1.91215 -0.425882 0
M  V30 23 H 0.8971 -0.373076 0.647166 0
M  V30 24 H 3.5591 -0.296926 1.92625 0
M  V30 25 H 2.6551 -1.63913 2.65592 0
M  V30 26 N 2.9562 -1.48159 -0.537278 0
M  V30 27 C 4.2022 -1.57015 -1.29297 0
M  V30 28 C 4.5572 -0.237791 -1.90925 0
M  V30 29 O 3.8502 0.758621 -1.75942 0
M  V30 30 C 4.0442 -2.63956 -2.40961 0
M  V30 31 C 3.8732 -4.07461 -1.90278 0
M  V30 32 C 2.6432 -4.74685 -1.73213 0
M  V30 33 C 4.8412 -4.93858 -1.43556 0
M  V30 34 N 2.8232 -6.02633 -1.17078 0
M  V30 35 C 4.1942 -6.11993 -0.993204 0
M  V30 36 C 6.2492 -4.80141 -1.31792 0
M  V30 37 C 4.9522 -7.17923 -0.444872 0
M  V30 38 C 6.9782 -5.86186 -0.783585 0
M  V30 39 C 6.3402 -7.03524 -0.351261 0
M  V30 40 H 2.4392 -0.629154 -0.464423 0
M  V30 41 H 5.0232 -1.85006 -0.606705 0
M  V30 42 H 3.1942 -2.378 -3.07093 0
M  V30 43 H 4.9262 -2.62539 -3.07986 0
M  V30 44 H 1.6812 -4.30902 -1.9652 0
M  V30 45 H 2.1052 -6.7085 -0.910421 0
M  V30 46 H 6.7472 -3.89772 -1.63823 0
M  V30 47 H 4.4652 -8.08022 -0.11222 0
M  V30 48 H 8.0512 -5.77624 -0.695835 0
M  V30 49 H 6.9312 -7.8418 0.055777 0
M  V30 50 N 4.4343 0.785586 -1.36625 0
M  V30 51 C 5.8503 1.08419 -1.17122 0
M  V30 52 C 6.0503 2.015 0.00208491 0
M  V30 53 O 5.1063 2.43551 0.666278 0
M  V30 54 C 6.4193 1.69498 -2.48377 0
M  V30 55 C 7.9673 1.81821 -2.54775 0
M  V30 56 C 8.4423 2.46315 -3.86126 0
M  V30 57 N 9.9333 2.53779 -3.87492 0
M  V30 58 C 10.6683 3.045 -4.85868 0
M  V30 59 N 10.1643 3.55499 -5.94637 0
M  V30 60 N 11.9573 3.03247 -4.73284 0
M  V30 61 H 4.1083 0.167264 -2.1174 0
M  V30 62 H 6.3713 0.13682 -0.938075 0
M  V30 63 H 6.0773 1.08571 -3.34522 0
M  V30 64 H 5.9513 2.6896 -2.64462 0
M  V30 65 H 8.3383 2.41884 -1.69045 0
M  V30 66 H 8.4193 0.811532 -2.42586 0
M  V30 67 H 8.0633 1.86895 -4.72263 0
M  V30 68 H 7.9933 3.47561 -3.95612 0
M  V30 69 H 10.4843 2.17672 -3.08913 0
M  V30 70 H 10.7973 3.92562 -6.65669 0
M  V30 71 H 9.1423 3.5364 -5.98301 0
M  V30 72 H 12.3333 2.62696 -3.87438 0
M  V30 73 H 12.5063 3.42467 -5.50109 0
M  V30 74 N 5.9124 1.20967 1.01018 0
M  V30 75 C 6.8754 0.965918 2.07853 0
M  V30 76 C 7.8754 -0.0610545 1.60684 0
M  V30 77 O 9.0654 0.175681 1.73312 0
M  V30 78 C 6.1974 0.455513 3.37843 0
M  V30 79 H 7.3904 1.91365 2.3091 0
M  V30 80 H 4.9434 1.02594 1.17916 0
M  V30 81 H 5.6784 -0.497381 3.20463 0
M  V30 82 H 5.4634 1.19622 3.73407 0
M  V30 83 H 6.9534 0.304667 4.16487 0
M  V30 84 N 7.3905 -1.2043 1.01659 0
M  V30 85 C 8.3535 -2.21433 0.591616 0
M  V30 86 C 9.3535 -1.57203 -0.338226 0
M  V30 87 O 10.5435 -1.73737 -0.126918 0
M  V30 88 C 7.6755 -3.40628 -0.136058 0
M  V30 89 H 8.8685 -2.60545 1.48514 0
M  V30 90 H 6.4215 -1.33893 0.806379 0
M  V30 91 H 7.1565 -3.07019 -1.04449 0
M  V30 92 H 6.9415 -3.88475 0.531917 0
M  V30 93 H 8.4315 -4.15475 -0.420735 0
M  V30 94 N 8.8686 -0.792821 -1.36206 0
M  V30 95 C 10.1166 -0.366062 -1.98757 0
M  V30 96 C 10.4376 1.0668 -1.63231 0
M  V30 97 O 9.7076 1.73587 -0.907978 0
M  V30 98 H 8.2876 -0.132364 -0.735179 0
M  V30 99 H 10.9496 -1.01562 -1.66347 0
M  V30 100 H 10.0456 -0.460638 -3.08682 0
M  V30 101 N 10.3467 1.47872 -0.545128 0
M  V30 102 C 11.3097 2.28337 0.198717 0
M  V30 103 C 12.3097 1.36255 0.853888 0
M  V30 104 O 13.4997 1.59003 0.711606 0
M  V30 105 C 10.6317 3.15585 1.28915 0
M  V30 106 H 11.8247 2.95567 -0.507941 0
M  V30 107 H 9.3777 1.53362 -0.301616 0
M  V30 108 H 10.1127 2.53019 2.02859 0
M  V30 109 H 9.8977 3.83337 0.824309 0
M  V30 110 H 11.3877 3.76243 1.81194 0
M  V30 111 N 11.8248 0.280983 1.55075 0
M  V30 112 C 12.7548 -0.597469 2.25727 0
M  V30 113 C 13.7358 -1.15417 1.24952 0
M  V30 114 O 14.9208 -1.18722 1.53684 0
M  V30 115 C 12.0508 -1.7789 2.98283 0
M  V30 116 C 11.0048 -1.35347 4.06036 0
M  V30 117 C 10.3308 -2.61846 4.66198 0
M  V30 118 C 11.6308 -0.499354 5.19907 0
M  V30 119 H 13.3248 -0.00824265 2.99399 0
M  V30 120 H 10.8708 -0.0025244 1.44 0
M  V30 121 H 12.8238 -2.39937 3.46422 0
M  V30 122 H 11.5478 -2.39405 2.22155 0
M  V30 123 H 10.2068 -0.756156 3.58717 0
M  V30 124 H 9.8548 -3.21632 3.86732 0
M  V30 125 H 9.5548 -2.3409 5.38958 0
M  V30 126 H 11.0788 -3.24732 5.1709 0
M  V30 127 H 12.4928 -1.02498 5.64063 0
M  V30 128 H 10.8898 -0.316424 5.99265 0
M  V30 129 H 11.9598 0.480459 4.82514 0
M  V30 130 N 13.3029 -1.57598 0.00835791 0
M  V30 131 C 14.2329 -2.1198 -0.979113 0
M  V30 132 C 15.2139 -1.03091 -1.35301 0
M  V30 133 O 16.3989 -1.30818 -1.43528 0
M  V30 134 C 13.5289 -2.62995 -2.26828 0
M  V30 135 C 12.4829 -3.76485 -2.03576 0
M  V30 136 C 11.8089 -4.13846 -3.38579 0
M  V30 137 C 13.1089 -5.0342 -1.39161 0
M  V30 138 H 14.8029 -2.94738 -0.526281 0
M  V30 139 H 12.3489 -1.41783 -0.251704 0
M  V30 140 H 14.3019 -2.99669 -2.96271 0
M  V30 141 H 13.0259 -1.7737 -2.7424 0
M  V30 142 H 11.6849 -3.40217 -1.36557 0
M  V30 143 H 11.3329 -3.25232 -3.83709 0
M  V30 144 H 11.0329 -4.90312 -3.23834 0
M  V30 145 H 12.5569 -4.53086 -4.09323 0
M  V30 146 H 13.9709 -5.37812 -1.98573 0
M  V30 147 H 12.3679 -5.84746 -1.34878 0
M  V30 148 H 13.4379 -4.83548 -0.361868 0
M  V30 149 N 14.781 0.264519 -1.55364 0
M  V30 150 C 15.711 1.33121 -1.91836 0
M  V30 151 C 16.692 1.51101 -0.781192 0
M  V30 152 O 17.877 1.64003 -1.04003 0
M  V30 153 C 15.007 2.68921 -2.19769 0
M  V30 154 C 13.961 2.65661 -3.35571 0
M  V30 155 C 13.287 4.05093 -3.49004 0
M  V30 156 C 14.587 2.24187 -4.71739 0
M  V30 157 H 16.281 1.02844 -2.81182 0
M  V30 158 H 13.827 0.493286 -1.35287 0
M  V30 159 H 15.78 3.43663 -2.43872 0
M  V30 160 H 14.504 3.00799 -1.27231 0
M  V30 161 H 13.163 1.93377 -3.1145 0
M  V30 162 H 12.811 4.34206 -2.53917 0
M  V30 163 H 12.511 4.03804 -4.26868 0
M  V30 164 H 14.035 4.81561 -3.75408 0
M  V30 165 H 15.449 2.88654 -4.9533 0
M  V30 166 H 13.846 2.34044 -5.52579 0
M  V30 167 H 14.916 1.19327 -4.69988 0
M  V30 168 N 16.2591 1.48442 0.529413 0
M  V30 169 C 17.2221 1.62524 1.61612 0
M  V30 170 C 18.2221 0.498509 1.52877 0
M  V30 171 O 19.4121 0.76431 1.56537 0
M  V30 172 C 16.5441 1.59597 3.01233 0
M  V30 173 H 17.7371 2.59423 1.50465 0
M  V30 174 H 15.2901 1.37047 0.751514 0
M  V30 175 H 16.0251 0.641781 3.17886 0
M  V30 176 H 15.8101 2.41397 3.08982 0
M  V30 177 H 17.3001 1.72646 3.80241 0
M  V30 178 N 17.7372 -0.778329 1.37039 0
M  V30 179 C 18.6672 -1.90546 1.34962 0
M  V30 180 C 19.6482 -1.68681 0.219274 0
M  V30 181 O 20.8332 -1.89634 0.418624 0
M  V30 182 C 17.9632 -3.27734 1.14925 0
M  V30 183 C 16.9172 -3.64147 2.24902 0
M  V30 184 C 16.2432 -4.99806 1.89996 0
M  V30 185 C 17.5432 -3.71579 3.67051 0
M  V30 186 H 19.2372 -1.92541 2.29277 0
M  V30 187 H 16.7832 -0.924948 1.10366 0
M  V30 188 H 18.7362 -4.06215 1.12104 0
M  V30 189 H 17.4602 -3.26154 0.170631 0
M  V30 190 H 16.1192 -2.8797 2.26868 0
M  V30 191 H 15.7672 -4.94759 0.906796 0
M  V30 192 H 15.4672 -5.25139 2.63634 0
M  V30 193 H 16.9912 -5.80694 1.88749 0
M  V30 194 H 18.4052 -4.40227 3.67251 0
M  V30 195 H 16.8022 -4.08405 4.39688 0
M  V30 196 H 17.8722 -2.72404 4.01154 0
M  V30 197 N 19.2153 -1.21501 -1.00376 0
M  V30 198 C 20.1453 -0.999478 -2.11028 0
M  V30 199 C 21.1263 0.0759671 -1.6993 0
M  V30 200 O 22.3113 -0.0841106 -1.94018 0
M  V30 201 C 19.4413 -0.564709 -3.42678 0
M  V30 202 C 18.3953 -1.58486 -3.97576 0
M  V30 203 C 17.7213 -1.00628 -5.25146 0
M  V30 204 C 19.0213 -2.97204 -4.29496 0
M  V30 205 H 20.7153 -1.92495 -2.29317 0
M  V30 206 H 18.2613 -0.92693 -1.102 0
M  V30 207 H 20.2143 -0.401091 -4.19487 0
M  V30 208 H 18.9383 0.396411 -3.24185 0
M  V30 209 H 17.5973 -1.73606 -3.22888 0
M  V30 210 H 17.2453 -0.0368439 -5.02987 0
M  V30 211 H 16.9453 -1.68771 -5.62841 0
M  V30 212 H 18.4693 -0.854015 -6.04598 0
M  V30 213 H 19.8833 -2.8552 -4.97143 0
M  V30 214 H 18.2803 -3.62372 -4.78338 0
M  V30 215 H 19.3503 -3.47956 -3.3772 0
M  V30 216 N 20.6934 1.19889 -1.02296 0
M  V30 217 C 21.6234 2.25141 -0.619174 0
M  V30 218 C 22.6044 1.66051 0.368915 0
M  V30 219 O 23.7894 1.92546 0.252941 0
M  V30 220 C 20.9194 3.4728 0.0368783 0
M  V30 221 C 19.8734 4.19005 -0.872865 0
M  V30 222 C 19.1994 5.34637 -0.0822402 0
M  V30 223 C 20.4994 4.74452 -2.18387 0
M  V30 224 H 22.1934 2.59171 -1.49903 0
M  V30 225 H 19.7394 1.24579 -0.722222 0
M  V30 226 H 21.6924 4.20098 0.330958 0
M  V30 227 H 20.4164 3.12433 0.95149 0
M  V30 228 H 19.0754 3.48061 -1.15105 0
M  V30 229 H 18.7234 4.96034 0.83422 0
M  V30 230 H 18.4234 5.83557 -0.688149 0
M  V30 231 H 19.9474 6.10255 0.205238 0
M  V30 232 H 21.3614 5.39055 -1.95172 0
M  V30 233 H 19.7584 5.33834 -2.74119 0
M  V30 234 H 20.8284 3.92844 -2.84257 0
M  V30 235 N 22.1715 0.800033 1.35784 0
M  V30 236 C 23.1215 0.178654 2.27299 0
M  V30 237 C 24.1055 -0.643667 1.47464 0
M  V30 238 O 25.2975 -0.502 1.69732 0
M  V30 239 C 22.4265 -0.677194 3.36555 0
M  V30 240 C 21.5125 0.154497 4.23818 0
M  V30 241 N 21.9035 1.21427 4.91008 0
M  V30 242 C 20.2015 -0.0649462 4.45953 0
M  V30 243 C 20.9025 1.72147 5.55644 0
M  V30 244 N 19.8785 1.02897 5.33773 0
M  V30 245 H 23.6805 0.989637 2.76737 0
M  V30 246 H 21.1945 0.64054 1.49234 0
M  V30 247 H 23.1915 -1.13835 4.01058 0
M  V30 248 H 21.8515 -1.4866 2.8867 0
M  V30 249 H 22.8625 1.59684 4.92668 0
M  V30 250 H 19.5395 -0.844016 4.0888 0
M  V30 251 H 20.9295 2.60683 6.19269 0
M  V30 252 N 23.6496 -1.47581 0.552962 0
M  V30 253 C 24.8976 -2.02082 0.0272703 0
M  V30 254 C 25.2186 -1.4301 -1.32563 0
M  V30 255 O 24.4886 -0.603745 -1.86365 0
M  V30 256 H 23.0686 -0.746966 0.00709182 0
M  V30 257 H 25.7306 -1.81033 0.722008 0
M  V30 258 H 24.8266 -3.12034 -0.0639951 0
M  V30 259 N 25.1277 -0.289203 -1.54924 0
M  V30 260 C 26.5437 0.0645403 -1.59469 0
M  V30 261 C 26.7437 1.53419 -1.30632 0
M  V30 262 O 25.7997 2.2852 -1.074 0
M  V30 263 C 27.1127 -0.32278 -2.98963 0
M  V30 264 C 28.6607 -0.270564 -3.11828 0
M  V30 265 C 29.1357 -0.632532 -4.53611 0
M  V30 266 N 30.6267 -0.584617 -4.59496 0
M  V30 267 C 31.3617 -0.837314 -5.67254 0
M  V30 268 N 30.8577 -1.15536 -6.83098 0
M  V30 269 N 32.6507 -0.765166 -5.56868 0
M  V30 270 H 24.8017 -1.24714 -1.71931 0
M  V30 271 H 27.0647 -0.504809 -0.802416 0
M  V30 272 H 26.7707 -1.34541 -3.24948 0
M  V30 273 H 26.6447 0.32944 -3.75759 0
M  V30 274 H 29.0317 0.742805 -2.85598 0
M  V30 275 H 29.1127 -0.957242 -2.37214 0
M  V30 276 H 28.7567 -1.64365 -4.80569 0
M  V30 277 H 28.6867 0.07609 -5.26545 0
M  V30 278 H 31.1777 -0.349248 -3.76283 0
M  V30 279 H 31.4907 -1.33447 -7.61191 0
M  V30 280 H 29.8357 -1.19328 -6.84679 0
M  V30 281 H 33.0267 -0.516432 -4.65243 0
M  V30 282 H 33.1997 -0.965477 -6.40767 0
M  V30 283 N 26.6058 1.57591 -0.0167156 0
M  V30 284 C 27.5358 2.12496 0.967858 0
M  V30 285 C 28.5168 1.03807 1.34752 0
M  V30 286 O 29.7018 1.31577 1.42833 0
M  V30 287 C 26.8318 2.64194 2.25431 0
M  V30 288 C 25.7858 3.77559 2.01576 0
M  V30 289 C 25.1118 4.15636 3.36379 0
M  V30 290 C 26.4118 5.04151 1.36489 0
M  V30 291 H 28.1058 2.95013 0.510643 0
M  V30 292 H 25.6518 1.41915 0.244181 0
M  V30 293 H 27.6048 3.01236 2.94678 0
M  V30 294 H 26.3288 1.78821 2.73296 0
M  V30 295 H 24.9878 3.40937 1.34751 0
M  V30 296 H 24.6358 3.27263 3.81979 0
M  V30 297 H 24.3358 4.92022 3.21229 0
M  V30 298 H 25.8598 4.5525 4.06915 0
M  V30 299 H 27.2738 5.38857 1.95718 0
M  V30 300 H 25.6708 5.85453 1.31776 0
M  V30 301 H 26.7408 4.83733 0.336219 0
M  V30 302 N 28.0839 -0.256276 1.55502 0
M  V30 303 C 29.0139 -1.32102 1.92539 0
M  V30 304 C 29.9949 -1.50684 0.789194 0
M  V30 305 O 31.1799 -1.63449 1.04872 0
M  V30 306 C 28.3099 -2.67752 2.21192 0
M  V30 307 C 27.2639 -2.63878 3.36975 0
M  V30 308 C 26.5899 -4.03236 3.51147 0
M  V30 309 C 27.8899 -2.21682 4.72921 0
M  V30 310 H 29.5839 -1.01351 2.81724 0
M  V30 311 H 27.1299 -0.486105 1.35547 0
M  V30 312 H 29.0829 -3.42365 2.45691 0
M  V30 313 H 27.8069 -3.0012 1.28824 0
M  V30 314 H 26.4659 -1.91722 3.12471 0
M  V30 315 H 26.1139 -4.32854 2.56216 0
M  V30 316 H 25.8139 -4.01535 4.29003 0
M  V30 317 H 27.3379 -4.79563 3.77957 0
M  V30 318 H 28.7519 -2.86023 4.96854 0
M  V30 319 H 27.1489 -2.3111 5.53812 0
M  V30 320 H 28.2189 -1.16833 4.70615 0
M  V30 321 N 29.562 -1.4872 -0.521534 0
M  V30 322 C 30.525 -1.63379 -1.60748 0
M  V30 323 C 31.525 -0.50661 -1.52611 0
M  V30 324 O 32.715 -0.772601 -1.5613 0
M  V30 325 C 29.847 -1.61192 -3.00383 0
M  V30 326 H 31.04 -2.60217 -1.49087 0
M  V30 327 H 28.593 -1.37444 -0.744235 0
M  V30 328 H 29.328 -0.65863 -3.17541 0
M  V30 329 H 29.113 -2.43032 -3.07698 0
M  V30 330 H 30.603 -1.7466 -3.7932 0
M  V30 331 N 31.0401 0.771051 -1.3745 0
M  V30 332 C 32.2861 1.5319 -1.32894 0
M  V30 333 C 32.6191 1.94008 0.0862511 0
M  V30 334 O 31.8941 1.64124 1.04373 0
M  V30 335 C 32.1771 2.79648 -2.26868 0
M  V30 336 C 32.0301 2.45079 -3.77169 0
M  V30 337 C 33.3491 3.81583 -2.19277 0
M  V30 338 H 30.4681 0.555744 -0.484064 0
M  V30 339 H 33.1101 0.884492 -1.68157 0
M  V30 340 H 31.2601 3.34891 -1.96926 0
M  V30 341 H 32.9321 1.95745 -4.1771 0
M  V30 342 H 31.1751 1.77767 -3.95704 0
M  V30 343 H 31.8461 3.35478 -4.38359 0
M  V30 344 H 34.3221 3.35835 -2.45671 0
M  V30 345 H 33.1981 4.67787 -2.87171 0
M  V30 346 H 33.4591 4.25897 -1.18592 0
M  V30 347 N 32.5182 1.22032 0.997298 0
M  V30 348 C 33.7462 1.06841 1.7718 0
M  V30 349 C 34.1612 -0.381325 1.84909 0
M  V30 350 O 33.5182 -1.26437 1.31605 0
M  V30 351 C 33.5692 1.66814 3.20711 0
M  V30 352 O 33.2902 3.06116 3.13408 0
M  V30 353 C 34.7912 1.56838 4.14628 0
M  V30 354 H 32.0112 0.374782 0.556578 0
M  V30 355 H 34.5552 1.61532 1.2541 0
M  V30 356 H 32.7102 1.16196 3.69564 0
M  V30 357 H 33.1242 3.34926 4.0364 0
M  V30 358 H 34.5982 2.03532 5.13107 0
M  V30 359 H 35.0752 0.524155 4.36061 0
M  V30 360 H 35.6812 2.06741 3.7167 0
M  V30 361 N 33.9963 -1.19345 1.0293 0
M  V30 362 C 34.9463 -2.20472 0.58104 0
M  V30 363 C 35.9303 -1.56578 -0.370442 0
M  V30 364 O 37.1223 -1.75963 -0.191344 0
M  V30 365 C 34.2513 -3.43236 -0.066306 0
M  V30 366 C 33.3373 -4.14274 0.907642 0
M  V30 367 N 33.7283 -4.61492 2.07023 0
M  V30 368 C 32.0263 -4.39966 0.731177 0
M  V30 369 C 32.7273 -5.1605 2.68454 0
M  V30 370 N 31.7033 -5.06875 1.96414 0
M  V30 371 H 35.5053 -2.54659 1.46717 0
M  V30 372 H 33.0193 -1.35423 0.896345 0
M  V30 373 H 35.0163 -4.14927 -0.405068 0
M  V30 374 H 33.6763 -3.10549 -0.948118 0
M  V30 375 H 34.6873 -4.56304 2.44963 0
M  V30 376 H 31.3643 -4.17377 -0.101507 0
M  V30 377 H 32.7543 -5.6287 3.66915 0
M  V30 378 N 35.4744 -0.807222 -1.35358 0
M  V30 379 C 36.7224 -0.387122 -1.98358 0
M  V30 380 C 37.0434 1.04942 -1.64354 0
M  V30 381 O 36.3134 1.72615 -0.926339 0
M  V30 382 H 34.8934 -0.140154 -0.733734 0
M  V30 383 H 37.5554 -1.0332 -1.6526 0
M  V30 384 H 36.6514 -0.493352 -3.08176 0
M  V30 385 N 36.9525 1.47285 -0.560781 0
M  V30 386 C 37.8825 2.32857 0.173105 0
M  V30 387 C 38.8635 1.44009 0.905281 0
M  V30 388 O 40.0485 1.7286 0.885046 0
M  V30 389 C 37.1785 3.25861 1.20133 0
M  V30 390 C 36.1325 4.23978 0.585388 0
M  V30 391 C 35.4585 5.06332 1.7185 0
M  V30 392 C 36.7585 5.20242 -0.463178 0
M  V30 393 H 38.4525 2.94466 -0.541307 0
M  V30 394 H 35.9985 1.41601 -0.261764 0
M  V30 395 H 37.9515 3.84569 1.72293 0
M  V30 396 H 36.6755 2.62315 1.94573 0
M  V30 397 H 35.3345 3.66501 0.085054 0
M  V30 398 H 34.9825 4.39186 2.45203 0
M  V30 399 H 34.6825 5.72762 1.31213 0
M  V30 400 H 36.2065 5.67899 2.24329 0
M  V30 401 H 37.6205 5.73293 -0.027502 0
M  V30 402 H 36.0175 5.94896 -0.788627 0
M  V30 403 H 37.0875 4.65504 -1.35773 0
M  V30 404 N 38.4306 0.297415 1.54768 0
M  V30 405 C 39.8466 -0.0560823 1.59501 0
M  V30 406 C 40.0466 -1.52725 1.31444 0
M  V30 407 O 39.1026 -2.27947 1.08611 0
M  V30 408 C 40.4156 0.338631 2.98787 0
M  V30 409 C 41.9636 0.287097 3.11681 0
M  V30 410 C 42.4386 0.656579 4.53269 0
M  V30 411 N 43.9296 0.608977 4.59179 0
M  V30 412 C 44.6646 0.867385 5.66802 0
M  V30 413 N 44.1606 1.19157 6.82476 0
M  V30 414 N 45.9536 0.794687 5.56454 0
M  V30 415 H 38.1046 1.25624 1.71267 0
M  V30 416 H 40.3676 0.509057 0.799728 0
M  V30 417 H 40.0736 1.36263 3.2423 0
M  V30 418 H 39.9476 -0.309508 3.75928 0
M  V30 419 H 42.3346 -0.727649 2.85988 0
M  V30 420 H 42.4156 0.969809 2.36703 0
M  V30 421 H 42.0596 1.66912 4.7969 0
M  V30 422 H 41.9896 -0.0481649 5.26578 0
M  V30 423 H 44.4806 0.369198 3.76092 0
M  V30 424 H 44.7936 1.37482 7.60473 0
M  V30 425 H 43.1386 1.22958 6.84037 0
M  V30 426 H 46.3296 0.541098 4.64962 0
M  V30 427 H 46.5026 0.999445 6.40246 0
M  V30 428 N 39.9087 -1.5758 0.0250728 0
M  V30 429 C 40.8717 -2.08896 -0.943139 0
M  V30 430 C 41.8717 -1.00321 -1.25668 0
M  V30 431 O 43.0617 -1.26495 -1.19769 0
M  V30 432 C 40.1937 -2.55143 -2.26086 0
M  V30 433 H 41.3867 -2.95723 -0.498775 0
M  V30 434 H 38.9397 -1.54703 -0.222888 0
M  V30 435 H 39.6747 -1.71633 -2.75159 0
M  V30 436 H 39.4597 -3.34461 -2.04641 0
M  V30 437 H 40.9497 -2.95083 -2.95492 0
M  V30 438 N 41.3868 0.248026 -1.55636 0
M  V30 439 C 42.6168 0.992367 -1.81206 0
M  V30 440 C 43.0248 1.7949 -0.598324 0
M  V30 441 O 42.3678 1.78292 0.442434 0
M  V30 442 C 42.4298 1.97926 -3.00109 0
M  V30 443 C 42.0938 1.36377 -4.36177 0
M  V30 444 C 43.0908 0.76682 -5.14214 0
M  V30 445 C 40.7758 1.38347 -4.82872 0
M  V30 446 C 42.7698 0.197778 -6.37093 0
M  V30 447 C 40.4568 0.810574 -6.057 0
M  V30 448 C 41.4548 0.218754 -6.8265 0
M  V30 449 O 41.1428 -0.345298 -8.03158 0
M  V30 450 H 40.8748 0.297704 -0.606917 0
M  V30 451 H 43.4288 0.276517 -2.0353 0
M  V30 452 H 41.6588 2.73339 -2.73538 0
M  V30 453 H 43.3478 2.58694 -3.12781 0
M  V30 454 H 44.1138 0.744114 -4.79258 0
M  V30 455 H 39.9928 1.8335 -4.2297 0
M  V30 456 H 43.5368 -0.264788 -6.97097 0
M  V30 457 H 39.4338 0.830604 -6.40134 0
M  V30 458 H 40.2018 -0.237055 -8.18157 0
M  V30 459 N 42.8649 1.48995 0.513639 0
M  V30 460 C 44.1419 1.48338 1.27495 0
M  V30 461 C 44.5219 0.204065 2.10111 0
M  V30 462 O 43.8699 -0.813881 2.13514 0
M  V30 463 C 44.0799 2.75498 2.14247 0
M  V30 464 C 45.4279 3.24484 2.73852 0
M  V30 465 O 46.4519 2.76528 2.24523 0
M  V30 466 O 45.3109 4.07974 3.6362 0
M  V30 467 H 42.4049 0.593149 0.576284 0
M  V30 468 H 44.9509 1.61246 0.528948 0
M  V30 469 H 43.7229 3.60109 1.53092 0
M  V30 470 H 43.3459 2.6539 2.96064 0
M  V30 471 N 44.343 -0.763751 1.37857 0
M  V30 472 C 45.591 -1.51957 1.33243 0
M  V30 473 C 45.912 -1.94835 -0.0801709 0
M  V30 474 O 45.182 -1.66894 -1.02582 0
M  V30 475 H 43.762 -0.563626 0.49024 0
M  V30 476 H 46.424 -0.908504 1.7243 0
M  V30 477 H 45.52 -2.41523 1.97669 0
M  V30 478 N 45.8211 -1.22559 -0.990812 0
M  V30 479 C 46.7511 -1.0218 -2.09956 0
M  V30 480 C 47.7321 0.0579394 -1.70001 0
M  V30 481 O 48.9171 -0.104684 -1.93918 0
M  V30 482 C 46.0471 -0.601023 -3.4206 0
M  V30 483 C 45.0011 -1.62694 -3.95872 0
M  V30 484 C 44.3271 -1.06193 -5.24049 0
M  V30 485 C 45.6271 -3.01743 -4.2632 0
M  V30 486 H 47.3211 -1.94916 -2.27262 0
M  V30 487 H 44.8671 -0.938566 -1.09211 0
M  V30 488 H 46.8201 -0.445561 -4.19038 0
M  V30 489 H 45.5441 0.362005 -3.24588 0
M  V30 490 H 44.2031 -1.77021 -3.21028 0
M  V30 491 H 43.8511 -0.0901903 -5.02919 0
M  V30 492 H 43.5511 -1.74732 -5.61019 0
M  V30 493 H 45.0751 -0.918092 -6.03658 0
M  V30 494 H 46.4891 -2.90777 -4.94087 0
M  V30 495 H 44.8861 -3.67425 -4.74467 0
M  V30 496 H 45.9561 -3.51518 -3.34011 0
M  V30 497 N 47.2992 1.18797 -1.03562 0
M  V30 498 C 48.5242 1.9314 -0.755764 0
M  V30 499 C 48.9492 1.7537 0.68022 0
M  V30 500 O 48.3072 1.06046 1.47051 0
M  V30 501 C 48.3552 3.42747 -1.12058 0
M  V30 502 O 47.4592 4.11683 -0.243124 0
M  V30 503 H 46.8002 0.602724 -0.278604 0
M  V30 504 H 49.3302 1.50678 -1.3841 0
M  V30 505 H 49.3402 3.93437 -1.08035 0
M  V30 506 H 48.0152 3.55002 -2.16672 0
M  V30 507 H 46.5922 3.71323 -0.342539 0
M  V30 508 N 48.7773 0.814389 1.34928 0
M  V30 509 C 49.7073 0.244827 2.32213 0
M  V30 510 C 50.6883 -0.634024 1.57842 0
M  V30 511 O 51.8733 -0.562676 1.8587 0
M  V30 512 C 49.0033 -0.601106 3.42058 0
M  V30 513 C 47.9573 0.179896 4.27622 0
M  V30 514 C 47.2833 -0.788237 5.28858 0
M  V30 515 C 48.5833 1.38329 5.03649 0
M  V30 516 H 50.2773 1.05763 2.80097 0
M  V30 517 H 47.8233 0.510029 1.34665 0
M  V30 518 H 49.7763 -1.00968 4.09125 0
M  V30 519 H 48.5003 -1.44688 2.92802 0
M  V30 520 H 47.1593 0.569739 3.62146 0
M  V30 521 H 46.8073 -1.62973 4.75866 0
M  V30 522 H 46.5073 -0.269942 5.8698 0
M  V30 523 H 48.0313 -1.19485 5.98795 0
M  V30 524 H 49.4453 1.04918 5.63618 0
M  V30 525 H 47.8423 1.83662 5.71304 0
M  V30 526 H 48.9123 2.16592 4.33839 0
M  V30 527 N 50.2554 -1.46986 0.568584 0
M  V30 528 C 51.6664 -1.86188 0.138219 0
M  V30 529 C 52.0174 -1.47388 -1.29504 0
M  V30 530 O 51.1424 -0.88219 -1.97602 0
M  V30 531 C 51.7374 -3.3792 0.244065 0
M  V30 532 C 50.2964 -3.76171 -0.131335 0
M  V30 533 C 49.4434 -2.71027 0.586465 0
M  V30 534 H 52.3944 -1.38342 0.777645 0
M  V30 535 H 52.4154 -3.76729 -0.534351 0
M  V30 536 H 51.9274 -3.66128 1.28731 0
M  V30 537 H 50.0284 -3.5358 -1.17526 0
M  V30 538 H 50.1414 -4.78523 0.235146 0
M  V30 539 H 48.5054 -2.54684 0.0282722 0
M  V30 540 H 49.2884 -3.02077 1.63109 0
M  V30 541 N 51.7335 -0.305618 -1.54608 0
M  V30 542 C 52.6435 0.57778 -2.27374 0
M  V30 543 C 53.6595 1.14451 -1.31061 0
M  V30 544 O 54.8355 1.16831 -1.6405 0
M  V30 545 C 51.9005 1.73123 -3.00382 0
M  V30 546 C 50.9615 1.19812 -4.12242 0
M  V30 547 C 50.1945 2.2966 -4.81759 0
M  V30 548 O 50.4175 3.49651 -4.50666 0
M  V30 549 O 49.3515 1.96091 -5.69062 0
M  V30 550 H 53.1775 -0.012624 -3.03697 0
M  V30 551 H 50.7625 -0.0719184 -1.49227 0
M  V30 552 H 52.6445 2.40315 -3.4616 0
M  V30 553 H 51.3195 2.30815 -2.26949 0
M  V30 554 H 50.2265 0.491798 -3.70853 0
M  V30 555 H 51.5595 0.666566 -4.87666 0
M  V30 556 N 53.2116 1.57565 -0.0334293 0
M  V30 557 C 54.4886 1.83282 0.683163 0
M  V30 558 C 54.8686 0.91823 1.90084 0
M  V30 559 O 54.2166 -0.025113 2.28486 0
M  V30 560 C 54.4266 3.32599 1.0573 0
M  V30 561 C 55.7746 3.99179 1.44711 0
M  V30 562 O 56.7986 3.3712 1.15015 0
M  V30 563 O 55.6576 5.08565 2.0006 0
M  V30 564 H 52.7516 0.755869 0.335546 0
M  V30 565 H 55.2976 1.69589 -0.0614402 0
M  V30 566 H 54.0696 3.90834 0.190828 0
M  V30 567 H 53.6926 3.51415 1.85993 0
M  V30 568 N 54.6897 -0.239769 1.55765 0
M  V30 569 C 55.9387 -0.964754 1.77131 0
M  V30 570 C 56.2517 -1.86213 0.59868 0
M  V30 571 O 57.4577 -2.6244 0.695522 0
M  V30 572 C 55.9137 -1.76552 3.1362 0
M  V30 573 C 55.5217 -0.915185 4.38553 0
M  V30 574 C 57.2657 -2.48281 3.44321 0
M  V30 575 C 55.1727 -1.71225 5.66071 0
M  V30 576 H 54.1027 -0.363953 0.660344 0
M  V30 577 H 56.7537 -0.219181 1.82186 0
M  V30 578 H 55.1357 -2.55331 3.02691 0
M  V30 579 H 56.3097 -0.169217 4.60489 0
M  V30 580 H 54.6247 -0.310889 4.15238 0
M  V30 581 H 57.2217 -3.08382 4.36812 0
M  V30 582 H 57.5647 -3.20256 2.65973 0
M  V30 583 H 58.0977 -1.76507 3.56497 0
M  V30 584 H 54.8367 -1.03612 6.4726 0
M  V30 585 H 54.3567 -2.43331 5.48224 0
M  V30 586 H 56.0357 -2.27758 6.05587 0
M  V30 587 N 56.1678 -1.49265 -0.50573 0
M  V30 588 C 57.0778 -1.68312 -1.63427 0
M  V30 589 C 58.0938 -0.565682 -1.64548 0
M  V30 590 O 59.2698 -0.839801 -1.83055 0
M  V30 591 C 56.3348 -1.74107 -2.99813 0
M  V30 592 C 55.3958 -2.97653 -3.09356 0
M  V30 593 C 54.6288 -3.03163 -4.39236 0
M  V30 594 O 54.8518 -2.16396 -5.27758 0
M  V30 595 O 53.7858 -3.9558 -4.53652 0
M  V30 596 H 57.6118 -2.63907 -1.50289 0
M  V30 597 H 55.1968 -1.32951 -0.681502 0
M  V30 598 H 57.0788 -1.803 -3.80881 0
M  V30 599 H 55.7538 -0.816901 -3.13223 0
M  V30 600 H 54.6608 -2.96981 -2.27493 0
M  V30 601 H 55.9938 -3.89535 -3.00871 0
M  V30 602 N 57.6459 0.756429 -1.3826 0
M  V30 603 C 58.8739 1.54565 -1.3754 0
M  V30 604 C 59.2889 1.88767 0.0355331 0
M  V30 605 O 58.6459 1.52572 1.0014 0
M  V30 606 C 58.6969 2.84654 -2.22833 0
M  V30 607 O 58.4179 2.51912 -3.5843 0
M  V30 608 C 59.9189 3.78807 -2.30261 0
M  V30 609 H 57.1389 0.478353 -0.470553 0
M  V30 610 H 59.6829 0.936381 -1.81803 0
M  V30 611 H 57.8379 3.41965 -1.8204 0
M  V30 612 H 58.2519 3.35325 -4.03308 0
M  V30 613 H 59.7259 4.67045 -2.94233 0
M  V30 614 H 60.2029 4.19038 -1.31545 0
M  V30 615 H 60.8089 3.2742 -2.71433 0
M  V30 616 N 59.124 1.23083 0.984299 0
M  V30 617 C 60.37 1.06214 1.72761 0
M  V30 618 C 60.703 -0.400584 1.90024 0
M  V30 619 O 59.978 -1.29672 1.44967 0
M  V30 620 C 60.261 1.78375 3.12817 0
M  V30 621 C 60.114 3.32296 3.03149 0
M  V30 622 C 61.433 1.54309 4.12161 0
M  V30 623 H 58.552 0.387251 0.627061 0
M  V30 624 H 61.194 1.51536 1.14616 0
M  V30 625 H 59.344 1.39848 3.62457 0
M  V30 626 H 61.016 3.8032 2.61064 0
M  V30 627 H 59.259 3.6153 2.39747 0
M  V30 628 H 59.93 3.77972 4.02295 0
M  V30 629 H 62.406 1.87791 3.71314 0
M  V30 630 H 61.282 2.07281 5.08258 0
M  V30 631 H 61.543 0.477572 4.39513 0
M  V30 632 N 60.6021 -1.18246 1.0419 0
M  V30 633 C 61.8301 -1.92195 0.766072 0
M  V30 634 C 62.2451 -1.76247 -0.676933 0
M  V30 635 O 61.6021 -1.09293 -1.46155 0
M  V30 636 C 61.6531 -3.43568 1.12442 0
M  V30 637 O 61.3741 -3.59015 2.51078 0
M  V30 638 C 62.8751 -4.34613 0.873275 0
M  V30 639 H 60.0951 -0.610114 0.279288 0
M  V30 640 H 62.6391 -1.50007 1.38989 0
M  V30 641 H 60.7941 -3.8354 0.545542 0
M  V30 642 H 61.2081 -4.5273 2.64831 0
M  V30 643 H 62.6821 -5.39374 1.17385 0
M  V30 644 H 63.1591 -4.38781 -0.191909 0
M  V30 645 H 63.7651 -4.00341 1.43551 0
M  V30 646 N 62.0802 -0.821533 -1.34494 0
M  V30 647 C 63.0432 -0.247847 -2.27856 0
M  V30 648 C 64.0432 0.573453 -1.50227 0
M  V30 649 O 65.2332 0.389759 -1.69784 0
M  V30 650 C 62.3652 0.652698 -3.34593 0
M  V30 651 H 63.5582 -1.07146 -2.80107 0
M  V30 652 H 61.1112 -0.593291 -1.44602 0
M  V30 653 H 61.8462 1.49943 -2.87555 0
M  V30 654 H 61.6312 0.065292 -3.92046 0
M  V30 655 H 63.1212 1.04793 -4.04238 0
M  V30 656 N 63.5583 1.46682 -0.576371 0
M  V30 657 C 64.7833 2.07304 -0.0630475 0
M  V30 658 C 65.2083 1.42329 1.2298 0
M  V30 659 O 64.5663 0.504865 1.74129 0
M  V30 660 C 64.6143 3.60472 0.095895 0
M  V30 661 O 63.7183 3.95927 1.15394 0
M  V30 662 H 63.0593 0.661288 -0.0599463 0
M  V30 663 H 65.5893 1.88417 -0.797511 0
M  V30 664 H 65.5993 4.06865 0.304071 0
M  V30 665 H 64.2743 4.07157 -0.84828 0
M  V30 666 H 62.8513 3.61252 0.924724 0
M  V30 667 N 65.0364 0.313813 1.54444 0
M  V30 668 C 65.9684 -0.590425 2.21465 0
M  V30 669 C 66.9814 -1.08753 1.21147 0
M  V30 670 O 68.1704 -1.00278 1.4767 0
M  V30 671 C 65.2704 -1.82179 2.85769 0
M  V30 672 C 64.4434 -1.46502 4.12136 0
M  V30 673 C 63.5024 -2.55288 4.60124 0
M  V30 674 O 62.5284 -2.19842 5.25032 0
M  V30 675 N 63.7304 -3.86053 4.33525 0
M  V30 676 H 66.4954 -0.0166033 2.99695 0
M  V30 677 H 64.0564 0.136578 1.61323 0
M  V30 678 H 66.0484 -2.54328 3.14801 0
M  V30 679 H 64.6184 -2.30369 2.11303 0
M  V30 680 H 63.8384 -0.575595 3.89975 0
M  V30 681 H 65.1264 -1.20221 4.94393 0
M  V30 682 H 64.5244 -4.17654 3.81552 0
M  V30 683 H 63.0814 -4.54461 4.67235 0
M  V30 684 N 66.5145 -1.57545 0.0417849 0
M  V30 685 C 67.4475 -2.06514 -0.970928 0
M  V30 686 C 68.4255 -0.963607 -1.30971 0
M  V30 687 O 69.6095 -1.23486 -1.4242 0
M  V30 688 C 66.7365 -2.4978 -2.28752 0
M  V30 689 C 65.7825 -3.71078 -2.10246 0
M  V30 690 S 66.6155 -5.17158 -1.38952 0
M  V30 691 C 67.7715 -5.6373 -2.71954 0
M  V30 692 H 68.0045 -2.9209 -0.554129 0
M  V30 693 H 65.5375 -1.53459 -0.17024 0
M  V30 694 H 67.4955 -2.75371 -3.04435 0
M  V30 695 H 66.1565 -1.64527 -2.67562 0
M  V30 696 H 65.3495 -3.9924 -3.07609 0
M  V30 697 H 64.9515 -3.45705 -1.42704 0
M  V30 698 H 67.2435 -5.68743 -3.68154 0
M  V30 699 H 68.1865 -6.63086 -2.4844 0
M  V30 700 H 68.5945 -4.91424 -2.77782 0
M  V30 701 N 67.9926 0.231505 -1.5589 0
M  V30 702 C 69.4086 0.580748 -1.48659 0
M  V30 703 C 69.6086 1.87617 -0.73498 0
M  V30 704 O 68.6646 2.51046 -0.270586 0
M  V30 705 C 69.9776 0.669202 -2.93159 0
M  V30 706 C 71.5256 0.760499 -3.03621 0
M  V30 707 C 72.0006 0.880383 -4.49459 0
M  V30 708 N 73.4916 0.944861 -4.53461 0
M  V30 709 C 74.2266 1.05716 -5.63571 0
M  V30 710 N 73.7226 1.13403 -6.83456 0
M  V30 711 N 75.5156 1.09152 -5.514 0
M  V30 712 H 67.6666 -0.618695 -2.03189 0
M  V30 713 H 69.9296 -0.215728 -0.923128 0
M  V30 714 H 69.6356 -0.212904 -3.51055 0
M  V30 715 H 69.5096 1.5361 -3.44505 0
M  V30 716 H 71.8966 1.63305 -2.45796 0
M  V30 717 H 71.9776 -0.131864 -2.5546 0
M  V30 718 H 71.6216 0.0123284 -5.07899 0
M  V30 719 H 71.5516 1.78802 -4.95316 0
M  V30 720 H 74.0426 0.896176 -3.6712 0
M  V30 721 H 74.3556 1.21921 -7.63122 0
M  V30 722 H 72.7006 1.10333 -6.86186 0
M  V30 723 H 75.8916 1.02805 -4.56671 0
M  V30 724 H 76.0646 1.17558 -6.37247 0
M  V30 725 N 69.4707 1.49531 0.497807 0
M  V30 726 C 70.7167 1.60388 1.25089 0
M  V30 727 C 71.0717 0.288328 1.90227 0
M  V30 728 O 70.3647 -0.711706 1.77891 0
M  V30 729 C 70.5587 2.70252 2.33878 0
M  V30 730 C 70.3877 4.12363 1.79408 0
M  V30 731 C 69.1577 4.7911 1.60566 0
M  V30 732 C 71.3557 4.97491 1.30412 0
M  V30 733 N 69.3377 6.05525 1.01059 0
M  V30 734 C 70.7087 6.14411 0.830595 0
M  V30 735 C 72.7637 4.83466 1.19015 0
M  V30 736 C 71.4667 7.1885 0.254371 0
M  V30 737 C 73.4927 5.88057 0.627892 0
M  V30 738 C 72.8547 7.04208 0.16461 0
M  V30 739 H 68.9537 0.641246 0.447579 0
M  V30 740 H 71.5377 1.86549 0.557441 0
M  V30 741 H 69.7087 2.45858 3.0068 0
M  V30 742 H 71.4407 2.70613 3.00917 0
M  V30 743 H 68.1957 4.35961 1.85026 0
M  V30 744 H 68.6197 6.73028 0.732236 0
M  V30 745 H 73.2617 3.93978 1.53431 0
M  V30 746 H 70.9797 8.08036 -0.102052 0
M  V30 747 H 74.5657 5.79266 0.542444 0
M  V30 748 H 73.4457 7.83757 -0.263669 0
M  V30 749 N 70.9488 -0.749086 1.3866 0
M  V30 750 C 72.1768 -1.53834 1.38358 0
M  V30 751 C 72.5918 -1.88783 -0.0255219 0
M  V30 752 O 71.9488 -1.53101 -0.993292 0
M  V30 753 C 71.9998 -2.83468 2.2434 0
M  V30 754 O 71.7208 -2.50008 3.5976 0
M  V30 755 C 73.2218 -3.7758 2.32267 0
M  V30 756 H 70.4418 -0.47585 0.473083 0
M  V30 757 H 72.9858 -0.926726 1.82297 0
M  V30 758 H 71.1408 -3.40995 1.83851 0
M  V30 759 H 71.5548 -3.33182 4.05081 0
M  V30 760 H 73.0288 -4.65478 2.96706 0
M  V30 761 H 73.5058 -4.18334 1.33765 0
M  V30 762 H 74.1118 -3.25976 2.73166 0
M  V30 763 N 72.4269 -1.23603 -0.977757 0
M  V30 764 C 73.3769 -0.986664 -2.05545 0
M  V30 765 C 74.3609 0.0683009 -1.60755 0
M  V30 766 O 75.5529 -0.144162 -1.76412 0
M  V30 767 C 72.6819 -0.582623 -3.3832 0
M  V30 768 C 71.7679 -1.67313 -3.89701 0
M  V30 769 N 72.1589 -2.90394 -4.14132 0
M  V30 770 C 70.4569 -1.54832 -4.18262 0
M  V30 771 C 71.1579 -3.61017 -4.56116 0
M  V30 772 N 70.1339 -2.8854 -4.60701 0
M  V30 773 H 73.9359 -1.92139 -2.22396 0
M  V30 774 H 71.4499 -1.1358 -1.16074 0
M  V30 775 H 73.4469 -0.38524 -4.15116 0
M  V30 776 H 72.1069 0.34503 -3.22862 0
M  V30 777 H 73.1179 -3.26673 -4.01877 0
M  V30 778 H 69.7949 -0.687969 -4.11793 0
M  V30 779 H 71.1849 -4.66544 -4.83514 0
M  V30 780 N 73.905 1.17692 -1.04816 0
M  V30 781 C 75.13 1.92327 -0.776207 0
M  V30 782 C 75.555 1.76082 0.661581 0
M  V30 783 O 74.913 1.076 1.45917 0
M  V30 784 C 74.961 3.41539 -1.15687 0
M  V30 785 O 74.065 4.11402 -0.286775 0
M  V30 786 H 73.406 0.599735 -0.284981 0
M  V30 787 H 75.936 1.49201 -1.4 0
M  V30 788 H 75.946 3.92269 -1.12202 0
M  V30 789 H 74.621 3.52684 -2.20425 0
M  V30 790 H 73.198 3.70939 -0.381903 0
M  V30 791 N 75.3831 0.828654 1.34056 0
M  V30 792 C 76.6131 0.431993 2.02033 0
M  V30 793 C 77.0211 -0.96844 1.62536 0
M  V30 794 O 76.3641 -1.6391 0.829408 0
M  V30 795 C 76.4261 0.461224 3.56529 0
M  V30 796 C 76.0901 1.81599 4.1937 0
M  V30 797 C 77.0871 2.7777 4.39477 0
M  V30 798 C 74.7721 2.10604 4.56017 0
M  V30 799 C 76.7661 4.01115 4.95364 0
M  V30 800 C 74.4531 3.34207 5.11614 0
M  V30 801 C 75.4511 4.2928 5.31232 0
M  V30 802 O 75.1391 5.50699 5.8565 0
M  V30 803 H 74.8711 0.170943 0.654029 0
M  V30 804 H 77.4251 1.11988 1.72185 0
M  V30 805 H 75.6551 -0.283388 3.8566 0
M  V30 806 H 77.3441 0.0838149 4.05813 0
M  V30 807 H 78.1101 2.56659 4.11523 0
M  V30 808 H 73.9891 1.37402 4.40047 0
M  V30 809 H 77.5331 4.75333 5.10592 0
M  V30 810 H 73.4301 3.55179 5.38997 0
M  V30 811 H 74.1981 5.52298 6.04077 0
M  V30 812 N 76.8612 -1.46375 0.584142 0
M  V30 813 C 77.7912 -2.33103 -0.136037 0
M  V30 814 C 78.7722 -1.45431 -0.882255 0
M  V30 815 O 79.9572 -1.74246 -0.857434 0
M  V30 816 C 77.0872 -3.27731 -1.14933 0
M  V30 817 C 76.0412 -4.24855 -0.517862 0
M  V30 818 C 75.3672 -5.09001 -1.63773 0
M  V30 819 C 76.6672 -5.19439 0.545886 0
M  V30 820 H 78.3612 -2.93568 0.588086 0
M  V30 821 H 75.9072 -1.41166 0.284259 0
M  V30 822 H 77.8602 -3.87261 -1.66153 0
M  V30 823 H 76.5842 -2.65377 -1.90375 0
M  V30 824 H 75.2432 -3.6659 -0.0267361 0
M  V30 825 H 74.8912 -4.43031 -2.38185 0
M  V30 826 H 74.5912 -5.74777 -1.22085 0
M  V30 827 H 76.1152 -5.71396 -2.15266 0
M  V30 828 H 77.5292 -5.73177 0.118704 0
M  V30 829 H 75.9262 -5.93566 0.88317 0
M  V30 830 H 76.9962 -4.63285 1.43162 0
M  V30 831 N 78.3393 -0.321999 -1.54275 0
M  V30 832 C 79.5643 0.285791 -2.05422 0
M  V30 833 C 79.9893 1.45124 -1.19669 0
M  V30 834 O 79.3473 1.80132 -0.205441 0
M  V30 835 C 79.3953 0.69956 -3.53749 0
M  V30 836 O 78.4993 1.8021 -3.70942 0
M  V30 837 H 77.8403 0.0518962 -0.661969 0
M  V30 838 H 80.3703 -0.469954 -1.9913 0
M  V30 839 H 80.3803 0.982649 -3.9599 0
M  V30 840 H 79.0553 -0.152864 -4.15619 0
M  V30 841 H 77.6323 1.51794 -3.40607 0
M  V30 842 N 79.8174 1.5752 -0.0501392 0
M  V30 843 C 81.0944 1.83996 0.663685 0
M  V30 844 C 81.4744 0.938339 1.89099 0
M  V30 845 O 80.8224 -0.00087759 2.285 0
M  V30 846 C 81.0324 3.33702 1.02196 0
M  V30 847 C 82.3804 4.00691 1.40469 0
M  V30 848 O 83.4044 3.38321 1.11433 0
M  V30 849 O 82.2634 5.10658 1.94654 0
M  V30 850 H 79.3574 0.759385 0.32751 0
M  V30 851 H 81.9034 1.69514 -0.0794238 0
M  V30 852 H 80.6754 3.91015 0.149364 0
M  V30 853 H 80.2984 3.53368 1.82255 0
M  V30 854 N 81.2955 -0.223234 1.56011 0
M  V30 855 C 82.5725 -0.972108 1.69733 0
M  V30 856 C 82.9525 -2.02485 0.59691 0
M  V30 857 O 82.3005 -2.25037 -0.396324 0
M  V30 858 C 82.5105 -1.58407 3.10979 0
M  V30 859 C 83.8585 -2.07696 3.70334 0
M  V30 860 O 84.8825 -1.68304 3.1393 0
M  V30 861 O 83.7415 -2.80096 4.69264 0
M  V30 862 H 80.8355 -0.453993 0.691245 0
M  V30 863 H 83.3815 -0.215149 1.68331 0
M  V30 864 H 82.1535 -0.823831 3.82529 0
M  V30 865 H 81.7765 -2.40661 3.16493 0
M  V30 866 N 82.7736 -1.49793 -0.48987 0
M  V30 867 C 83.6836 -1.70036 -1.61632 0
M  V30 868 C 84.6996 -0.583102 -1.63939 0
M  V30 869 O 85.8756 -0.859169 -1.82154 0
M  V30 870 C 82.9406 -1.77277 -2.97949 0
M  V30 871 C 82.0016 -3.00918 -3.06181 0
M  V30 872 C 81.2346 -3.07804 -4.35996 0
M  V30 873 O 81.4576 -2.21982 -5.25433 0
M  V30 874 O 80.3916 -4.00369 -4.49431 0
M  V30 875 H 84.2176 -2.65486 -1.47482 0
M  V30 876 H 81.8026 -1.33666 -0.667362 0
M  V30 877 H 83.6846 -1.84329 -3.78947 0
M  V30 878 H 82.3596 -0.850076 -3.12339 0
M  V30 879 H 81.2666 -2.99377 -2.2433 0
M  V30 880 H 82.5996 -3.92704 -2.96723 0
M  V30 881 N 84.2517 0.741722 -1.39055 0
M  V30 882 C 85.5287 1.49252 -1.26425 0
M  V30 883 C 85.9087 2.10705 0.129144 0
M  V30 884 O 85.2567 1.98045 1.13976 0
M  V30 885 C 85.4667 2.54934 -2.38347 0
M  V30 886 C 86.8147 3.21506 -2.77343 0
M  V30 887 O 87.8387 2.65245 -2.37747 0
M  V30 888 O 86.6977 4.23294 -3.45665 0
M  V30 889 H 83.7917 0.662451 -0.495064 0
M  V30 890 H 86.3377 0.776121 -1.50912 0
M  V30 891 H 85.1097 2.07857 -3.31529 0
M  V30 892 H 84.7327 3.34141 -2.15489 0
M  V30 893 N 85.7298 1.2412 0.971189 0
M  V30 894 C 86.6628 0.97373 2.06382 0
M  V30 895 C 87.6408 -0.0912662 1.62344 0
M  V30 896 O 88.8248 0.0449365 1.88446 0
M  V30 897 C 85.9518 0.468746 3.35441 0
M  V30 898 C 84.9978 1.52176 3.98428 0
M  V30 899 S 85.8308 3.10203 4.36503 0
M  V30 900 C 86.9868 2.61398 5.68702 0
M  V30 901 H 87.2198 1.89893 2.28753 0
M  V30 902 H 84.7528 1.07466 1.10862 0
M  V30 903 H 86.7108 0.184012 4.10087 0
M  V30 904 H 85.3718 -0.435688 3.11064 0
M  V30 905 H 84.5648 1.11876 4.91426 0
M  V30 906 H 84.1668 1.75632 3.30196 0
M  V30 907 H 86.4588 2.03992 6.4606 0
M  V30 908 H 87.4018 3.52972 6.13854 0
M  V30 909 H 87.8098 2.01941 5.27143 0
M  V30 910 N 87.2079 -1.17134 1.05439 0
M  V30 911 C 88.1379 -2.2342 0.678649 0
M  V30 912 C 89.1189 -1.66971 -0.32476 0
M  V30 913 O 90.3039 -1.93149 -0.201802 0
M  V30 914 C 87.4339 -3.47256 0.0552099 0
M  V30 915 C 86.3879 -4.16543 0.98365 0
M  V30 916 C 85.7139 -5.34231 0.223961 0
M  V30 917 C 87.0139 -4.68495 2.3089 0
M  V30 918 H 88.7079 -2.55105 1.56722 0
M  V30 919 H 86.2539 -1.2262 0.754998 0
M  V30 920 H 88.2069 -4.20828 -0.21946 0
M  V30 921 H 86.9309 -3.14846 -0.868319 0
M  V30 922 H 85.5899 -3.44887 1.24293 0
M  V30 923 H 85.2379 -4.98071 -0.702412 0
M  V30 924 H 84.9379 -5.81527 0.842627 0
M  V30 925 H 86.4619 -6.10585 -0.0433671 0
M  V30 926 H 87.8759 -5.33691 2.09396 0
M  V30 927 H 86.2729 -5.26379 2.88176 0
M  V30 928 H 87.3429 -3.85169 2.94572 0
M  V30 929 N 88.686 -0.835752 -1.33615 0
M  V30 930 C 89.649 -0.272 -2.2758 0
M  V30 931 C 90.649 0.557487 -1.50827 0
M  V30 932 O 91.839 0.37173 -1.70188 0
M  V30 933 C 88.971 0.617173 -3.35267 0
M  V30 934 H 90.164 -1.10111 -2.78954 0
M  V30 935 H 87.717 -0.608594 -1.43965 0
M  V30 936 H 88.452 1.46884 -2.89129 0
M  V30 937 H 88.237 0.0237066 -3.92093 0
M  V30 938 H 89.727 1.005 -4.05326 0
M  V30 939 N 90.1641 1.46063 -0.591896 0
M  V30 940 C 91.4411 1.95595 -0.0137119 0
M  V30 941 C 91.8211 1.5345 1.4497 0
M  V30 942 O 91.1691 0.789543 2.14426 0
M  V30 943 C 91.3791 3.48453 -0.195373 0
M  V30 944 C 92.7271 4.24546 -0.0679765 0
M  V30 945 O 93.7511 3.55982 -0.124681 0
M  V30 946 O 92.6101 5.46467 0.0600579 0
M  V30 947 H 89.7041 0.825795 0.0446279 0
M  V30 948 H 92.2501 1.56303 -0.660859 0
M  V30 949 H 91.0221 3.72045 -1.21235 0
M  V30 950 H 90.6451 3.94597 0.487775 0
M  V30 951 N 91.6422 0.330177 1.54103 0
M  V30 952 C 92.8672 -0.274893 2.0557 0
M  V30 953 C 93.2922 -1.44487 1.20437 0
M  V30 954 O 92.6502 -1.80021 0.214991 0
M  V30 955 C 92.6982 -0.68079 3.54115 0
M  V30 956 O 91.8022 -1.7824 3.71893 0
M  V30 957 H 91.1432 -0.0483849 0.662235 0
M  V30 958 H 93.6732 0.480508 1.98878 0
M  V30 959 H 93.6832 -0.961635 3.96505 0
M  V30 960 H 92.3582 0.174903 4.15532 0
M  V30 961 H 90.9352 -1.49985 3.41407 0
M  V30 962 N 93.1203 -1.57491 0.0584922 0
M  V30 963 C 94.3693 -1.92155 -0.613146 0
M  V30 964 C 94.6823 -0.939334 -1.71569 0
M  V30 965 O 95.8883 -1.17829 -2.44599 0
M  V30 966 C 94.3443 -3.41303 -1.14195 0
M  V30 967 C 93.9523 -4.47944 -0.0711265 0
M  V30 968 C 95.6963 -3.84988 -1.78841 0
M  V30 969 C 93.6033 -5.88212 -0.613225 0
M  V30 970 H 92.5333 -0.717162 -0.232796 0
M  V30 971 H 95.1843 -1.83049 0.12857 0
M  V30 972 H 93.5663 -3.45437 -1.93621 0
M  V30 973 H 94.7403 -4.55408 0.702836 0
M  V30 974 H 93.0553 -4.13644 0.478313 0
M  V30 975 H 95.6523 -4.87159 -2.20408 0
M  V30 976 H 95.9953 -3.21632 -2.64308 0
M  V30 977 H 96.5283 -3.83401 -1.06059 0
M  V30 978 H 93.2673 -6.55183 0.203978 0
M  V30 979 H 92.7873 -5.84294 -1.35501 0
M  V30 980 H 94.4663 -6.37687 -1.09383 0
M  V30 981 N 94.5984 0.214957 -1.56127 0
M  V30 982 C 95.8234 0.95924 -1.83884 0
M  V30 983 C 96.2484 1.7689 -0.639644 0
M  V30 984 O 95.6064 1.76566 0.411601 0
M  V30 985 C 95.6544 1.84723 -3.09693 0
M  V30 986 O 94.7584 2.94346 -2.8885 0
M  V30 987 H 94.0994 0.27125 -0.606069 0
M  V30 988 H 96.6294 0.226276 -2.03345 0
M  V30 989 H 96.6394 2.25576 -3.39969 0
M  V30 990 H 95.3144 1.25218 -3.96602 0
M  V30 991 H 93.8914 2.57391 -2.69823 0
M  V30 992 N 96.0765 1.50051 0.48192 0
M  V30 993 C 97.3245 1.60181 1.23234 0
M  V30 994 C 97.6455 0.299176 1.92691 0
M  V30 995 O 96.9155 -0.682708 1.83619 0
M  V30 996 H 95.4955 0.590232 0.457859 0
M  V30 997 H 98.1575 1.86775 0.556881 0
M  V30 998 H 97.2535 2.40753 1.98607 0
M  V30 999 N 97.5546 -0.734337 1.39446 0
M  V30 1000 C 98.8316 -1.48579 1.27215 0
M  V30 1001 C 99.2116 -2.1077 -0.117968 0
M  V30 1002 O 98.5596 -1.98646 -1.12924 0
M  V30 1003 C 98.7696 -2.53667 2.39696 0
M  V30 1004 C 100.118 -3.20031 2.79044 0
M  V30 1005 O 101.142 -2.6398 2.39151 0
M  V30 1006 O 100.001 -4.21455 3.47905 0
M  V30 1007 H 97.0946 -0.659816 0.49857 0
M  V30 1008 H 99.6406 -0.768106 1.51322 0
M  V30 1009 H 98.4126 -2.06096 3.32626 0
M  V30 1010 H 98.0356 -3.32994 2.17258 0
M  V30 1011 N 99.0327 -1.24633 -0.964593 0
M  V30 1012 C 100.31 -0.995809 -1.68354 0
M  V30 1013 C 100.69 0.480964 -2.05548 0
M  V30 1014 O 100.038 1.45599 -1.76105 0
M  V30 1015 C 100.248 -1.92177 -2.91323 0
M  V30 1016 C 101.596 -2.19446 -3.63495 0
M  V30 1017 O 102.62 -1.89855 -3.01386 0
M  V30 1018 O 101.479 -2.69714 -4.75307 0
M  V30 1019 H 98.5727 -0.376854 -0.736146 0
M  V30 1020 H 101.119 -1.35745 -1.0184 0
M  V30 1021 H 99.8907 -2.91938 -2.60553 0
M  V30 1022 H 99.5137 -1.56349 -3.65569 0
M  V30 1023 N 100.511 1.16574 -1.06058 0
M  V30 1024 C 101.441 2.23057 -0.690488 0
M  V30 1025 C 102.422 1.67141 0.315901 0
M  V30 1026 O 103.607 1.93253 0.191556 0
M  V30 1027 C 100.737 3.47222 -0.073625 0
M  V30 1028 C 99.6908 4.16016 -1.00573 0
M  V30 1029 C 99.0168 5.34104 -0.252289 0
M  V30 1030 C 100.317 4.67264 -2.33371 0
M  V30 1031 H 102.011 2.54271 -1.58072 0
M  V30 1032 H 99.5568 1.22218 -0.76149 0
M  V30 1033 H 101.51 4.20939 0.19714 0
M  V30 1034 H 100.234 3.15302 0.85161 0
M  V30 1035 H 98.8928 3.44223 -1.2612 0
M  V30 1036 H 98.5408 4.98437 0.675988 0
M  V30 1037 H 98.2408 5.81072 -0.873455 0
M  V30 1038 H 99.7648 6.10599 0.0109857 0
M  V30 1039 H 101.179 5.32573 -2.12223 0
M  V30 1040 H 99.5758 5.24843 -2.90963 0
M  V30 1041 H 100.646 3.83602 -2.96611 0
M  V30 1042 N 101.989 0.842826 1.3317 0
M  V30 1043 C 103.237 0.439577 1.97262 0
M  V30 1044 C 103.558 -1.00548 1.67078 0
M  V30 1045 O 102.828 -1.70098 0.971779 0
M  V30 1046 H 101.408 0.159558 0.72976 0
M  V30 1047 H 104.07 1.07665 1.62463 0
M  V30 1048 H 103.166 0.574886 3.0676 0
M  V30 1049 N 103.467 -1.45747 0.599634 0
M  V30 1050 C 104.692 -2.07178 0.0960198 0
M  V30 1051 C 105.117 -1.44268 -1.207 0
M  V30 1052 O 104.475 -0.532503 -1.73303 0
M  V30 1053 C 104.523 -3.60579 -0.0385348 0
M  V30 1054 O 103.627 -3.97713 -1.0908 0
M  V30 1055 H 102.968 -0.660251 0.0704593 0
M  V30 1056 H 105.498 -1.87124 0.827385 0
M  V30 1057 H 105.508 -4.07298 -0.239304 0
M  V30 1058 H 104.183 -4.05756 0.912947 0
M  V30 1059 H 102.76 -3.62678 -0.867135 0
M  V30 1060 N 104.945 -0.338344 -1.53925 0
M  V30 1061 C 106.193 0.259245 -2.0043 0
M  V30 1062 C 106.514 1.51484 -1.22791 0
M  V30 1063 O 105.784 1.93037 -0.33368 0
M  V30 1064 H 104.364 0.0987845 -0.740439 0
M  V30 1065 H 107.026 -0.458302 -1.89435 0
M  V30 1066 H 106.122 0.505334 -3.07982 0
M  V30 1067 N 106.423 1.57458 -0.0668435 0
M  V30 1068 C 107.7 1.8469 0.644132 0
M  V30 1069 C 108.08 0.958343 1.88093 0
M  V30 1070 O 107.428 0.0233579 2.28488 0
M  V30 1071 C 107.638 3.34767 0.986509 0
M  V30 1072 C 108.986 4.02159 1.36212 0
M  V30 1073 O 110.01 3.39484 1.07839 0
M  V30 1074 O 108.869 5.12694 1.89227 0
M  V30 1075 H 105.963 0.762816 0.319437 0
M  V30 1076 H 108.509 1.6942 -0.0973986 0
M  V30 1077 H 107.281 3.91151 0.107883 0
M  V30 1078 H 106.904 3.55281 1.78497 0
M  V30 1079 N 107.901 -0.206675 1.56239 0
M  V30 1080 C 108.831 -1.25909 1.96645 0
M  V30 1081 C 109.812 -1.48097 0.836734 0
M  V30 1082 O 110.997 -1.6003 1.10019 0
M  V30 1083 C 108.127 -2.6058 2.29599 0
M  V30 1084 C 107.081 -2.53024 3.452 0
M  V30 1085 C 106.407 -3.91861 3.63798 0
M  V30 1086 C 107.707 -2.06524 4.79734 0
M  V30 1087 H 109.401 -0.923369 2.84806 0
M  V30 1088 H 106.947 -0.442735 1.37025 0
M  V30 1089 H 108.9 -3.34375 2.56459 0
M  V30 1090 H 107.624 -2.95869 1.38307 0
M  V30 1091 H 106.283 -1.81684 3.18412 0
M  V30 1092 H 105.931 -4.24483 2.69857 0
M  V30 1093 H 105.631 -3.87683 4.4156 0
M  V30 1094 H 107.155 -4.67296 3.93022 0
M  V30 1095 H 108.569 -2.70072 5.05702 0
M  V30 1096 H 106.966 -2.13374 5.60885 0
M  V30 1097 H 108.036 -1.01802 4.74093 0
M  V30 1098 N 109.379 -1.50304 -0.473955 0
M  V30 1099 C 110.627 -1.60832 -1.22382 0
M  V30 1100 C 110.948 -0.30939 -1.9253 0
M  V30 1101 O 110.218 0.67296 -1.83978 0
M  V30 1102 H 108.798 -0.592652 -0.454723 0
M  V30 1103 H 111.46 -1.87068 -0.546968 0
M  V30 1104 H 110.556 -2.41803 -1.97327 0
M  V30 1105 N 110.857 0.726932 -1.39834 0
M  V30 1106 C 112.082 1.52121 -1.40976 0
M  V30 1107 C 112.507 1.88098 -0.00826029 0
M  V30 1108 O 111.865 1.52479 0.980807 0
M  V30 1109 C 111.913 2.78021 -2.29644 0
M  V30 1110 O 111.017 3.74272 -1.73188 0
M  V30 1111 H 110.358 0.45908 -0.479731 0
M  V30 1112 H 112.888 0.896207 -1.83927 0
M  V30 1113 H 112.898 3.26671 -2.44438 0
M  V30 1114 H 111.573 2.51169 -3.31492 0
M  V30 1115 H 110.15 3.33073 -1.6768 0
M  V30 1116 N 112.336 1.25143 0.95797 0
M  V30 1117 C 113.584 1.09476 1.69881 0
M  V30 1118 C 113.905 -0.365502 1.91544 0
M  V30 1119 O 113.175 -1.25985 1.50015 0
M  V30 1120 H 111.755 0.402128 0.629525 0
M  V30 1121 H 114.417 1.57214 1.15194 0
M  V30 1122 H 113.513 1.60046 2.6794 0
M  V30 1123 N 113.814 -1.1601 1.06675 0
M  V30 1124 C 115.091 -1.82679 0.699114 0
M  V30 1125 C 115.471 -1.94559 -0.819137 0
M  V30 1126 O 114.819 -1.49169 -1.73092 0
M  V30 1127 C 115.029 -3.19445 1.40555 0
M  V30 1128 C 116.377 -3.95171 1.55323 0
M  V30 1129 O 117.401 -3.28976 1.36577 0
M  V30 1130 O 116.26 -5.13833 1.86112 0
M  V30 1131 H 113.354 -0.788954 0.247951 0
M  V30 1132 H 115.9 -1.23179 1.16726 0
M  V30 1133 H 114.672 -3.05856 2.44065 0
M  V30 1134 H 114.295 -3.86625 0.927733 0
M  V30 1135 N 115.292 -0.849877 -1.32721 0
M  V30 1136 C 116.539 -0.450923 -1.97416 0
M  V30 1137 C 116.867 0.992376 -1.67279 0
M  V30 1138 O 116.122 1.71048 -0.950845 0
M  V30 1139 C 116.421 -0.631272 -3.51781 0
M  V30 1140 C 116.087 -2.04432 -4.01894 0
M  V30 1141 C 114.749 -2.4308 -4.1529 0
M  V30 1142 C 117.101 -2.96679 -4.28522 0
M  V30 1143 C 114.429 -3.73257 -4.52654 0
M  V30 1144 C 116.781 -4.26349 -4.67343 0
M  V30 1145 C 115.445 -4.64939 -4.78945 0
M  V30 1146 H 114.715 -0.165004 -0.722395 0
M  V30 1147 H 117.362 -1.07901 -1.58207 0
M  V30 1148 H 115.667 0.0800767 -3.91718 0
M  V30 1149 H 117.364 -0.302709 -3.99856 0
M  V30 1150 H 113.954 -1.73419 -3.91949 0
M  V30 1151 H 118.138 -2.68054 -4.17685 0
M  V30 1152 H 113.394 -4.02946 -4.59831 0
M  V30 1153 H 117.568 -4.97895 -4.86902 0
M  V30 1154 H 115.195 -5.65855 -5.07654 0
M  V30 1155 N 116.77 1.45427 -0.607355 0
M  V30 1156 C 117.702 2.2871 0.149752 0
M  V30 1157 C 118.715 1.39937 0.831958 0
M  V30 1158 O 119.904 1.64313 0.697385 0
M  V30 1159 C 117.004 3.15673 1.23304 0
M  V30 1160 C 116.177 4.32722 0.637996 0
M  V30 1161 C 115.236 5.00895 1.61215 0
M  V30 1162 O 114.262 5.57697 1.13854 0
M  V30 1163 N 115.464 5.00159 2.94655 0
M  V30 1164 H 118.229 2.94328 -0.564882 0
M  V30 1165 H 115.79 1.55612 -0.446823 0
M  V30 1166 H 117.782 3.58144 1.88454 0
M  V30 1167 H 116.352 2.51965 1.8502 0
M  V30 1168 H 115.572 3.93734 -0.191572 0
M  V30 1169 H 116.86 5.08321 0.220665 0
M  V30 1170 H 116.258 4.553 3.35735 0
M  V30 1171 H 114.815 5.46495 3.55228 0
M  V30 1172 N 118.248 0.346503 1.53744 0
M  V30 1173 C 119.181 -0.552023 2.21423 0
M  V30 1174 C 120.159 -1.09798 1.19929 0
M  V30 1175 O 121.343 -1.1577 1.4876 0
M  V30 1176 C 118.47 -1.75972 2.89398 0
M  V30 1177 C 117.516 -1.34295 4.04805 0
M  V30 1178 S 118.349 -0.360263 5.34287 0
M  V30 1179 C 119.505 -1.57473 6.05767 0
M  V30 1180 H 119.738 0.0228119 2.97291 0
M  V30 1181 H 117.271 0.130579 1.53847 0
M  V30 1182 H 119.229 -2.45256 3.2918 0
M  V30 1183 H 117.89 -2.30578 2.1329 0
M  V30 1184 H 117.083 -2.24349 4.51313 0
M  V30 1185 H 116.685 -0.729555 3.66815 0
M  V30 1186 H 118.977 -2.50875 6.29339 0
M  V30 1187 H 119.92 -1.15138 6.98676 0
M  V30 1188 H 120.328 -1.77212 5.35963 0
M  V30 1189 N 119.726 -1.57421 0.075193 0
M  V30 1190 C 120.972 -1.93905 -0.594025 0
M  V30 1191 C 121.305 -0.955701 -1.69056 0
M  V30 1192 O 120.58 0.0145373 -1.94495 0
M  V30 1193 C 120.863 -3.40638 -1.1678 0
M  V30 1194 C 120.716 -4.49733 -0.0776792 0
M  V30 1195 C 122.035 -3.88259 -2.07228 0
M  V30 1196 H 119.154 -0.705105 -0.214466 0
M  V30 1197 H 121.796 -1.8947 0.141854 0
M  V30 1198 H 119.946 -3.44549 -1.79494 0
M  V30 1199 H 121.618 -4.57942 0.555573 0
M  V30 1200 H 119.861 -4.29751 0.591286 0
M  V30 1201 H 120.532 -5.49549 -0.519603 0
M  V30 1202 H 123.008 -3.86376 -1.54445 0
M  V30 1203 H 121.884 -4.91533 -2.44308 0
M  V30 1204 H 122.145 -3.26396 -2.98191 0
M  V30 1205 N 121.204 0.198386 -1.56346 0
M  V30 1206 C 122.434 0.934215 -1.84271 0
M  V30 1207 C 122.842 1.77496 -0.655125 0
M  V30 1208 O 122.185 1.7961 0.385488 0
M  V30 1209 C 122.247 1.88278 -3.06254 0
M  V30 1210 C 121.911 1.22431 -4.40295 0
M  V30 1211 C 122.908 0.602839 -5.16393 0
M  V30 1212 C 120.593 1.22915 -4.87029 0
M  V30 1213 C 122.587 -0.0050083 -6.374 0
M  V30 1214 C 120.274 0.617465 -6.07973 0
M  V30 1215 C 121.272 0.00146341 -6.83 0
M  V30 1216 O 120.96 -0.600642 -8.01653 0
M  V30 1217 H 120.692 0.278245 -0.616081 0
M  V30 1218 H 123.246 0.211626 -2.04307 0
M  V30 1219 H 121.476 2.64498 -2.82095 0
M  V30 1220 H 123.165 2.48612 -3.20853 0
M  V30 1221 H 123.931 0.591265 -4.81382 0
M  V30 1222 H 119.81 1.69801 -4.28589 0
M  V30 1223 H 123.354 -0.48643 -6.95902 0
M  V30 1224 H 119.251 0.62653 -6.42452 0
M  V30 1225 H 120.019 -0.497225 -8.16988 0
M  V30 1226 N 122.682 1.50554 0.465978 0
M  V30 1227 C 123.929 1.61798 1.21768 0
M  V30 1228 C 124.257 0.320696 1.91838 0
M  V30 1229 O 123.512 -0.693724 1.82992 0
M  V30 1230 C 123.811 2.75152 2.28093 0
M  V30 1231 C 123.477 4.15454 1.75239 0
M  V30 1232 C 122.139 4.53628 1.60546 0
M  V30 1233 C 124.491 5.03121 1.36083 0
M  V30 1234 C 121.819 5.77204 1.05128 0
M  V30 1235 C 124.171 6.27249 0.821056 0
M  V30 1236 C 122.835 6.64221 0.660795 0
M  V30 1237 H 122.105 0.592063 0.445582 0
M  V30 1238 H 124.752 1.84503 0.512927 0
M  V30 1239 H 123.057 2.46556 3.04496 0
M  V30 1240 H 124.754 2.81055 2.86023 0
M  V30 1241 H 121.344 3.85341 1.87644 0
M  V30 1242 H 125.528 4.74257 1.46267 0
M  V30 1243 H 120.784 6.0452 0.91462 0
M  V30 1244 H 124.958 6.94537 0.509018 0
M  V30 1245 H 122.585 7.59854 0.229226 0
M  V30 1246 N 124.16 -0.719506 1.40217 0
M  V30 1247 C 125.576 -1.02707 1.22161 0
M  V30 1248 C 125.776 -2.0128 0.0940557 0
M  V30 1249 O 124.832 -2.46452 -0.549318 0
M  V30 1250 C 126.145 -1.57454 2.56181 0
M  V30 1251 C 127.693 -1.69458 2.63159 0
M  V30 1252 C 128.168 -2.27611 3.97438 0
M  V30 1253 N 129.659 -2.35002 3.99159 0
M  V30 1254 C 130.394 -2.80972 4.99842 0
M  V30 1255 N 129.89 -3.26723 6.10921 0
M  V30 1256 N 131.683 -2.80321 4.87213 0
M  V30 1257 H 123.834 -0.0660492 2.12297 0
M  V30 1258 H 126.097 -0.0919077 0.943534 0
M  V30 1259 H 125.803 -0.924873 3.39321 0
M  V30 1260 H 125.677 -2.56036 2.76993 0
M  V30 1261 H 128.064 -2.33543 1.80393 0
M  V30 1262 H 128.145 -0.694867 2.46181 0
M  V30 1263 H 127.789 -1.6415 4.80643 0
M  V30 1264 H 127.719 -3.2829 4.11744 0
M  V30 1265 H 130.21 -2.02685 3.18947 0
M  V30 1266 H 130.523 -3.60355 6.8364 0
M  V30 1267 H 128.868 -3.24692 6.14492 0
M  V30 1268 H 132.059 -2.43912 3.9953 0
M  V30 1269 H 132.232 -3.15831 5.65822 0
M  V30 1270 N 125.638 -1.25649 -0.95132 0
M  V30 1271 C 126.601 -1.06399 -2.03007 0
M  V30 1272 C 127.601 -0.0156794 -1.60792 0
M  V30 1273 O 128.791 -0.25817 -1.72276 0
M  V30 1274 C 125.923 -0.616184 -3.35285 0
M  V30 1275 H 127.116 -2.02164 -2.21517 0
M  V30 1276 H 124.669 -1.08103 -1.12887 0
M  V30 1277 H 125.404 0.343917 -3.22471 0
M  V30 1278 H 125.189 -1.37301 -3.67275 0
M  V30 1279 H 126.679 -0.503032 -4.14559 0
M  V30 1280 N 127.117 1.15442 -1.07289 0
M  V30 1281 C 128.047 2.22312 -0.714107 0
M  V30 1282 C 129.028 1.67467 0.298155 0
M  V30 1283 O 130.213 1.93445 0.171048 0
M  V30 1284 C 127.343 3.47124 -0.110448 0
M  V30 1285 C 126.297 4.14926 -1.04979 0
M  V30 1286 C 125.623 5.33807 -0.308924 0
M  V30 1287 C 126.923 4.64762 -2.38314 0
M  V30 1288 H 128.617 2.5258 -1.6076 0
M  V30 1289 H 126.163 1.21404 -0.77441 0
M  V30 1290 H 128.116 4.21124 0.152482 0
M  V30 1291 H 126.84 3.16187 0.81812 0
M  V30 1292 H 125.499 3.42866 -1.29764 0
M  V30 1293 H 125.147 4.99126 0.623084 0
M  V30 1294 H 124.847 5.80113 -0.935036 0
M  V30 1295 H 126.371 6.10576 -0.0537771 0
M  V30 1296 H 127.785 5.30292 -2.1786 0
M  V30 1297 H 126.182 5.21728 -2.96514 0
M  V30 1298 H 127.252 3.80434 -3.00663 0
M  V30 1299 N 128.595 0.856903 1.32268 0
M  V30 1300 C 129.841 0.462069 1.97466 0
M  V30 1301 C 130.174 -0.980298 1.67642 0
M  V30 1302 O 129.449 -1.68824 0.965858 0
M  V30 1303 C 129.732 0.704336 3.53145 0
M  V30 1304 C 129.585 2.19529 3.9259 0
M  V30 1305 C 130.904 0.1622 4.39801 0
M  V30 1306 H 128.023 0.169357 0.717278 0
M  V30 1307 H 130.665 1.07574 1.56614 0
M  V30 1308 H 128.815 0.181999 3.88073 0
M  V30 1309 H 130.487 2.78387 3.67829 0
M  V30 1310 H 128.73 2.67292 3.41668 0
M  V30 1311 H 129.401 2.31549 5.01088 0
M  V30 1312 H 131.877 0.608905 4.11621 0
M  V30 1313 H 130.753 0.361265 5.4771 0
M  V30 1314 H 131.014 -0.935158 4.32096 0
M  V30 1315 N 130.073 -1.45103 0.615059 0
M  V30 1316 C 131.021 -2.32331 -0.111791 0
M  V30 1317 C 132.015 -1.46409 -0.852102 0
M  V30 1318 O 133.221 -1.62849 -0.766821 0
M  V30 1319 H 129.596 -0.749993 -0.0549072 0
M  V30 1320 H 131.567 -2.91407 0.642225 0
M  V30 1321 C 130.316 -3.3015 -1.09071 0
M  V30 1322 H 129.639 -3.96265 -0.530485 0
M  V30 1323 H 131.079 -3.93898 -1.56908 0
M  V30 1324 C 129.538 -2.57875 -2.168 0
M  V30 1325 O 130.068 -2.36567 -3.24652 0
M  V30 1326 N 128.274 -2.17884 -1.92289 0
M  V30 1327 H 127.821 -2.35413 -1.04587 0
M  V30 1328 H 127.779 -1.6985 -2.64572 0
M  V30 1329 N 131.551 -0.354651 -1.53558 0
M  V30 1330 C 132.798 0.238443 -2.01091 0
M  V30 1331 C 133.126 1.49663 -1.24222 0
M  V30 1332 O 132.381 1.93049 -0.321003 0
M  V30 1333 C 132.68 0.587121 -3.52545 0
M  V30 1334 C 132.346 -0.575472 -4.47213 0
M  V30 1335 C 131.008 -0.894497 -4.72813 0
M  V30 1336 C 133.36 -1.35489 -5.03281 0
M  V30 1337 C 130.688 -1.99511 -5.51736 0
M  V30 1338 C 133.04 -2.44583 -5.83405 0
M  V30 1339 C 131.704 -2.77033 -6.07296 0
M  V30 1340 H 130.974 0.0872526 -0.735845 0
M  V30 1341 H 133.621 -0.484859 -1.8526 0
M  V30 1342 H 131.926 1.39129 -3.66265 0
M  V30 1343 H 133.623 1.05809 -3.86789 0
M  V30 1344 H 130.213 -0.316774 -4.27428 0
M  V30 1345 H 134.397 -1.12167 -4.83459 0
M  V30 1346 H 129.653 -2.25063 -5.68469 0
M  V30 1347 H 133.827 -3.05401 -6.25862 0
M  V30 1348 H 131.454 -3.6244 -6.68237 0
M  V30 1349 N 133.029 1.57378 -0.0835403 0
M  V30 1350 C 134.257 1.98263 0.59157 0
M  V30 1351 C 134.672 0.962302 1.62435 0
M  V30 1352 O 134.029 -0.049581 1.82433 0
M  V30 1353 C 134.08 3.39214 1.24965 0
M  V30 1354 O 133.801 4.37339 0.258186 0
M  V30 1355 C 135.302 3.95038 2.01147 0
M  V30 1356 H 132.522 0.651773 0.159477 0
M  V30 1357 H 135.066 2.03878 -0.159415 0
M  V30 1358 H 133.221 3.34649 1.95164 0
M  V30 1359 H 133.635 5.19371 0.731734 0
M  V30 1360 H 135.109 4.95848 2.42567 0
M  V30 1361 H 135.586 3.32222 2.87272 0
M  V30 1362 H 136.192 4.0304 1.35789 0
M  V30 1363 N 134.507 -0.190092 1.56449 0
M  V30 1364 C 135.923 -0.54113 1.50146 0
M  V30 1365 C 136.123 -1.85603 0.784465 0
M  V30 1366 O 135.179 -2.5024 0.337051 0
M  V30 1367 C 136.492 -0.591241 2.9483 0
M  V30 1368 C 138.04 -0.679732 3.0553 0
M  V30 1369 C 138.515 -0.760908 4.51635 0
M  V30 1370 N 140.006 -0.824302 4.55806 0
M  V30 1371 C 140.741 -0.907365 5.66175 0
M  V30 1372 N 140.237 -0.952422 6.86222 0
M  V30 1373 N 142.03 -0.94494 5.541 0
M  V30 1374 H 134.181 0.67235 2.01478 0
M  V30 1375 H 136.444 0.240127 0.917084 0
M  V30 1376 H 136.15 0.305905 3.50367 0
M  V30 1377 H 136.024 -1.44422 3.48457 0
M  V30 1378 H 138.411 -1.56731 2.50039 0
M  V30 1379 H 138.492 0.199549 2.5502 0
M  V30 1380 H 138.136 0.122336 5.07753 0
M  V30 1381 H 138.066 -1.65606 4.99882 0
M  V30 1382 H 140.557 -0.798526 3.69367 0
M  V30 1383 H 140.87 -1.01645 7.66086 0
M  V30 1384 H 139.215 -0.921014 6.8887 0
M  V30 1385 H 142.406 -0.906612 4.59236 0
M  V30 1386 H 142.579 -1.00622 6.4014 0
M  V30 1387 N 135.985 -1.50799 -0.457987 0
M  V30 1388 C 137.21 -1.66496 -1.23668 0
M  V30 1389 C 137.635 -0.353288 -1.84752 0
M  V30 1390 O 136.993 0.684346 -1.67888 0
M  V30 1391 C 137.041 -2.76763 -2.3116 0
M  V30 1392 O 136.145 -2.38928 -3.36136 0
M  V30 1393 H 135.486 -0.555828 -0.363252 0
M  V30 1394 H 138.016 -1.9725 -0.543474 0
M  V30 1395 H 138.026 -3.00232 -2.76269 0
M  V30 1396 H 136.701 -3.71954 -1.86073 0
M  V30 1397 H 135.278 -2.25953 -2.96647 0
M  V30 1398 N 137.463 0.71206 -1.40597 0
M  V30 1399 C 138.712 1.46754 -1.38369 0
M  V30 1400 C 139.025 1.95598 0.0097839 0
M  V30 1401 O 140.231 2.71059 0.154677 0
M  V30 1402 C 138.687 2.65289 -2.43207 0
M  V30 1403 C 138.295 2.23301 -3.88382 0
M  V30 1404 C 140.039 3.43008 -2.50091 0
M  V30 1405 C 137.946 3.38696 -4.84808 0
M  V30 1406 H 136.876 0.55118 -0.514506 0
M  V30 1407 H 139.527 0.774616 -1.66349 0
M  V30 1408 H 137.909 3.36769 -2.08332 0
M  V30 1409 H 139.083 1.59218 -4.32419 0
M  V30 1410 H 137.398 1.58618 -3.85006 0
M  V30 1411 H 139.995 4.28881 -3.1932 0
M  V30 1412 H 140.338 3.87065 -1.53253 0
M  V30 1413 H 140.871 2.78574 -2.83974 0
M  V30 1414 H 137.61 2.99668 -5.82992 0
M  V30 1415 H 137.13 4.01683 -4.45433 0
M  V30 1416 H 138.809 4.04712 -5.04794 0
M  V30 1417 N 138.941 1.26152 0.944643 0
M  V30 1418 C 139.851 1.09176 2.07648 0
M  V30 1419 C 140.867 0.0261935 1.7398 0
M  V30 1420 O 142.043 0.229208 2.00091 0
M  V30 1421 C 139.108 0.722915 3.39079 0
M  V30 1422 C 138.169 1.86752 3.86552 0
M  V30 1423 C 137.402 1.51617 5.11711 0
M  V30 1424 O 137.625 0.416331 5.68879 0
M  V30 1425 O 136.559 2.34975 5.54139 0
M  V30 1426 H 140.385 2.0412 2.24875 0
M  V30 1427 H 137.97 1.05182 1.061 0
M  V30 1428 H 139.852 0.529787 4.18056 0
M  V30 1429 H 138.527 -0.197159 3.23099 0
M  V30 1430 H 137.434 2.11558 3.08535 0
M  V30 1431 H 138.767 2.76719 4.07047 0
M  V30 1432 N 140.419 -1.14872 1.07899 0
M  V30 1433 C 141.649 -1.89386 0.825631 0
M  V30 1434 C 142.057 -1.78565 -0.625406 0
M  V30 1435 O 141.4 -1.13918 -1.44113 0
M  V30 1436 C 141.462 -3.40206 1.16191 0
M  V30 1437 C 141.126 -3.74812 2.61467 0
M  V30 1438 C 142.123 -3.75367 3.59716 0
M  V30 1439 C 139.808 -4.0495 2.97189 0
M  V30 1440 C 141.802 -4.05574 4.9172 0
M  V30 1441 C 139.489 -4.34821 4.29388 0
M  V30 1442 C 140.487 -4.35116 5.26463 0
M  V30 1443 O 140.175 -4.64267 6.56286 0
M  V30 1444 H 139.907 -0.606894 0.297751 0
M  V30 1445 H 142.461 -1.46438 1.44031 0
M  V30 1446 H 140.691 -3.8358 0.490214 0
M  V30 1447 H 142.38 -3.96018 0.890193 0
M  V30 1448 H 143.146 -3.52176 3.33462 0
M  V30 1449 H 139.025 -4.03876 2.22273 0
M  V30 1450 H 142.569 -4.05719 5.67484 0
M  V30 1451 H 138.466 -4.5748 4.55392 0
M  V30 1452 H 139.234 -4.82007 6.61522 0
M  V30 1453 N 141.898 -0.863906 -1.31812 0
M  V30 1454 C 143.123 -0.48527 -2.01643 0
M  V30 1455 C 143.548 0.913058 -1.64453 0
M  V30 1456 O 142.906 1.6014 -0.849985 0
M  V30 1457 C 142.954 -0.642625 -3.54828 0
M  V30 1458 O 142.058 0.320659 -4.11151 0
M  V30 1459 H 141.399 -0.193793 -0.635091 0
M  V30 1460 H 143.929 -1.16565 -1.68148 0
M  V30 1461 H 143.939 -0.533628 -4.04495 0
M  V30 1462 H 142.614 -1.66227 -3.81237 0
M  V30 1463 H 141.191 0.167126 -3.72525 0
M  V30 1464 N 143.376 1.44774 -0.622745 0
M  V30 1465 C 144.787 1.85546 -0.207226 0
M  V30 1466 C 145.138 1.52093 1.23944 0
M  V30 1467 O 144.263 0.95492 1.94191 0
M  V30 1468 C 144.858 3.36781 -0.369313 0
M  V30 1469 C 143.417 3.76399 -0.00836847 0
M  V30 1470 C 142.564 2.68664 -0.686651 0
M  V30 1471 H 145.515 1.3536 -0.828454 0
M  V30 1472 H 145.536 3.78453 0.394162 0
M  V30 1473 H 145.048 3.61098 -1.42231 0
M  V30 1474 H 143.149 3.57698 1.04322 0
M  V30 1475 H 143.262 4.7732 -0.412584 0
M  V30 1476 H 141.626 2.54404 -0.122777 0
M  V30 1477 H 142.409 2.95815 -1.74208 0
M  V30 1478 N 144.854 0.36279 1.53368 0
M  V30 1479 C 145.786 -0.519668 2.23231 0
M  V30 1480 C 146.799 -1.04844 1.24546 0
M  V30 1481 O 147.988 -0.955296 1.50786 0
M  V30 1482 C 145.088 -1.72995 2.9142 0
M  V30 1483 C 144.261 -1.33316 4.16588 0
M  V30 1484 C 143.32 -2.40521 4.68013 0
M  V30 1485 O 142.346 -2.03027 5.3176 0
M  V30 1486 N 143.548 -3.72065 4.45587 0
M  V30 1487 H 146.313 0.078751 2.99597 0
M  V30 1488 H 143.874 0.187833 1.60807 0
M  V30 1489 H 145.866 -2.44184 3.22733 0
M  V30 1490 H 144.436 -2.2353 2.18525 0
M  V30 1491 H 143.656 -0.451236 3.91609 0
M  V30 1492 H 144.944 -1.04432 4.97967 0
M  V30 1493 H 144.342 -4.05304 3.94646 0
M  V30 1494 H 142.899 -4.39366 4.81457 0
M  V30 1495 N 146.332 -1.57332 0.0918853 0
M  V30 1496 C 147.262 -2.16872 -0.865371 0
M  V30 1497 C 148.243 -1.10118 -1.29646 0
M  V30 1498 O 149.428 -1.38242 -1.36392 0
M  V30 1499 C 146.558 -2.74649 -2.12569 0
M  V30 1500 C 145.512 -3.86747 -1.83333 0
M  V30 1501 C 144.838 -4.31212 -3.16166 0
M  V30 1502 C 146.138 -5.10089 -1.1228 0
M  V30 1503 H 147.832 -2.97114 -0.369307 0
M  V30 1504 H 145.378 -1.42918 -0.176194 0
M  V30 1505 H 147.331 -3.14952 -2.7997 0
M  V30 1506 H 146.055 -1.91657 -2.64452 0
M  V30 1507 H 144.714 -3.46978 -1.18331 0
M  V30 1508 H 144.362 -3.45115 -3.6593 0
M  V30 1509 H 144.062 -5.06788 -2.97388 0
M  V30 1510 H 145.586 -4.74146 -3.84731 0
M  V30 1511 H 147 -5.47582 -1.69785 0
M  V30 1512 H 145.397 -5.91073 -1.03693 0
M  V30 1513 H 146.467 -4.84786 -0.105041 0
M  V30 1514 N 147.81 0.181792 -1.56548 0
M  V30 1515 C 148.72 1.24538 -1.98815 0
M  V30 1516 C 149.736 1.49045 -0.897861 0
M  V30 1517 O 150.912 1.61399 -1.20467 0
M  V30 1518 C 147.977 2.56683 -2.33055 0
M  V30 1519 C 147.038 2.40131 -3.55859 0
M  V30 1520 C 146.271 3.65975 -3.88456 0
M  V30 1521 O 146.494 4.70711 -3.22161 0
M  V30 1522 O 145.428 3.6071 -4.81842 0
M  V30 1523 H 149.254 0.916647 -2.89536 0
M  V30 1524 H 146.839 0.387842 -1.44278 0
M  V30 1525 H 148.721 3.34655 -2.56094 0
M  V30 1526 H 147.396 2.89157 -1.45498 0
M  V30 1527 H 146.303 1.60226 -3.38051 0
M  V30 1528 H 147.636 2.12585 -4.43924 0
M  V30 1529 N 149.288 1.51039 0.449983 0
M  V30 1530 C 150.565 1.53612 1.21089 0
M  V30 1531 C 150.945 0.292997 2.09057 0
M  V30 1532 O 150.293 -0.72259 2.16774 0
M  V30 1533 C 150.503 2.84337 2.0237 0
M  V30 1534 C 151.851 3.35807 2.59843 0
M  V30 1535 O 152.875 2.85802 2.12593 0
M  V30 1536 O 151.734 4.23029 3.45989 0
M  V30 1537 H 148.828 0.617057 0.550608 0
M  V30 1538 H 151.374 1.63344 0.460082 0
M  V30 1539 H 150.146 3.66278 1.37681 0
M  V30 1540 H 149.769 2.77708 2.84542 0
M  V30 1541 N 150.766 -0.704594 1.40972 0
M  V30 1542 C 151.729 -1.80035 1.41845 0
M  V30 1543 C 152.729 -1.57774 0.310474 0
M  V30 1544 O 153.919 -1.64613 0.56992 0
M  V30 1545 C 151.051 -3.18284 1.22098 0
M  V30 1546 H 152.244 -1.80658 2.3938 0
M  V30 1547 H 149.797 -0.911329 1.26982 0
M  V30 1548 H 150.532 -3.23306 0.253672 0
M  V30 1549 H 150.317 -3.35843 2.02366 0
M  V30 1550 H 151.807 -3.98289 1.25522 0
M  V30 1551 N 152.244 -1.26651 -0.937939 0
M  V30 1552 C 153.492 -1.12165 -1.68118 0
M  V30 1553 C 153.813 0.334983 -1.92101 0
M  V30 1554 O 153.083 1.23583 -1.52 0
M  V30 1555 H 151.663 -0.412093 -0.623048 0
M  V30 1556 H 154.325 -1.59027 -1.12678 0
M  V30 1557 H 153.421 -1.64289 -2.6536 0
M  V30 1558 N 153.722 1.14298 -1.08507 0
M  V30 1559 C 154.947 1.8976 -0.837001 0
M  V30 1560 C 155.372 1.78097 0.605228 0
M  V30 1561 O 154.73 1.12188 1.4242 0
M  V30 1562 C 154.778 3.37685 -1.26495 0
M  V30 1563 O 153.882 4.10281 -0.417514 0
M  V30 1564 H 153.223 0.590365 -0.303917 0
M  V30 1565 H 155.753 1.44672 -1.44676 0
M  V30 1566 H 155.763 3.88501 -1.24625 0
M  V30 1567 H 154.438 3.45492 -2.31534 0
M  V30 1568 H 153.015 3.69536 -0.499722 0
M  V30 1569 N 155.201 0.870884 1.31352 0
M  V30 1570 C 156.617 0.562932 1.49343 0
M  V30 1571 C 156.817 -0.902725 1.80148 0
M  V30 1572 O 155.873 -1.68484 1.88067 0
M  V30 1573 C 157.186 1.46393 2.62659 0
M  V30 1574 C 158.734 1.46607 2.76542 0
M  V30 1575 C 159.209 2.35266 3.92955 0
M  V30 1576 N 160.7 2.33151 4.00243 0
M  V30 1577 C 161.435 2.98471 4.89594 0
M  V30 1578 N 160.931 3.72964 5.8384 0
M  V30 1579 N 162.724 2.87775 4.82848 0
M  V30 1580 H 154.875 1.81923 1.09626 0
M  V30 1581 H 157.138 0.777934 0.541777 0
M  V30 1582 H 156.844 2.50689 2.46674 0
M  V30 1583 H 156.718 1.16314 3.58819 0
M  V30 1584 H 159.105 0.43069 2.9194 0
M  V30 1585 H 159.186 1.8071 1.81046 0
M  V30 1586 H 158.83 3.38881 3.78315 0
M  V30 1587 H 158.76 1.98487 4.87761 0
M  V30 1588 H 161.251 1.79006 3.32814 0
M  V30 1589 H 161.564 4.19932 6.4875 0
M  V30 1590 H 159.909 3.77073 5.83816 0
M  V30 1591 H 163.1 2.29116 4.08195 0
M  V30 1592 H 163.273 3.38961 5.52277 0
M  V30 1593 N 156.679 -1.44442 0.630414 0
M  V30 1594 C 157.589 -2.34476 -0.0761693 0
M  V30 1595 C 158.605 -1.52576 -0.836449 0
M  V30 1596 O 159.781 -1.85307 -0.788874 0
M  V30 1597 C 156.846 -3.30545 -1.04599 0
M  V30 1598 C 155.907 -4.28352 -0.28516 0
M  V30 1599 C 155.14 -5.19831 -1.20878 0
M  V30 1600 O 155.363 -5.15223 -2.44747 0
M  V30 1601 O 154.297 -5.97892 -0.693491 0
M  V30 1602 H 158.123 -2.96345 0.664324 0
M  V30 1603 H 155.708 -1.44203 0.39061 0
M  V30 1604 H 157.59 -3.89681 -1.60396 0
M  V30 1605 H 156.265 -2.7121 -1.76711 0
M  V30 1606 H 155.172 -3.72764 0.315837 0
M  V30 1607 H 156.505 -4.90605 0.395924 0
M  V30 1608 N 158.157 -0.370918 -1.53173 0
M  V30 1609 C 159.404 0.217102 -2.01333 0
M  V30 1610 C 159.732 1.48338 -1.25802 0
M  V30 1611 O 158.987 1.92698 -0.34146 0
M  V30 1612 C 159.286 0.549696 -3.53147 0
M  V30 1613 C 158.952 -0.622872 -4.46577 0
M  V30 1614 C 157.614 -0.944595 -4.71838 0
M  V30 1615 C 159.966 -1.40819 -5.01816 0
M  V30 1616 C 157.294 -2.05351 -5.49589 0
M  V30 1617 C 159.646 -2.50757 -5.80778 0
M  V30 1618 C 158.31 -2.83458 -6.04324 0
M  V30 1619 H 157.58 0.0794431 -0.736729 0
M  V30 1620 H 160.227 -0.504481 -1.84736 0
M  V30 1621 H 158.532 1.35237 -3.6772 0
M  V30 1622 H 160.229 1.017 -3.87889 0
M  V30 1623 H 156.819 -0.36209 -4.27068 0
M  V30 1624 H 161.003 -1.17289 -4.82242 0
M  V30 1625 H 156.259 -2.3108 -5.6605 0
M  V30 1626 H 160.433 -3.12022 -6.22588 0
M  V30 1627 H 158.06 -3.69508 -6.64355 0
M  V30 1628 N 159.635 1.57281 -0.100228 0
M  V30 1629 C 161.051 1.57527 0.256416 0
M  V30 1630 C 161.251 1.11173 1.68056 0
M  V30 1631 O 160.307 0.79053 2.39806 0
M  V30 1632 C 161.62 3.00673 0.0401747 0
M  V30 1633 C 163.168 3.12815 0.107528 0
M  V30 1634 C 163.643 4.57929 -0.0807834 0
M  V30 1635 N 165.134 4.63193 -0.0261207 0
M  V30 1636 C 165.869 5.73212 -0.146999 0
M  V30 1637 N 165.365 6.92047 -0.322999 0
M  V30 1638 N 167.158 5.62031 -0.0879044 0
M  V30 1639 H 159.309 1.85718 -1.03065 0
M  V30 1640 H 161.572 0.857446 -0.404339 0
M  V30 1641 H 161.278 3.38804 -0.943649 0
M  V30 1642 H 161.152 3.69042 0.780262 0
M  V30 1643 H 163.539 2.74554 1.08186 0
M  V30 1644 H 163.62 2.47028 -0.664134 0
M  V30 1645 H 163.264 4.96886 -1.05201 0
M  V30 1646 H 163.194 5.21783 0.710635 0
M  V30 1647 H 165.685 3.77748 0.107161 0
M  V30 1648 H 165.998 7.7173 -0.406608 0
M  V30 1649 H 164.343 6.94074 -0.358733 0
M  V30 1650 H 167.534 4.68075 0.048498 0
M  V30 1651 H 167.707 6.47734 -0.185557 0
M  V30 1652 N 161.113 -0.173488 1.56642 0
M  V30 1653 C 162.023 -1.23482 1.99473 0
M  V30 1654 C 163.039 -1.48567 0.905752 0
M  V30 1655 O 164.215 -1.60758 1.21321 0
M  V30 1656 C 161.28 -2.55444 2.34413 0
M  V30 1657 C 160.341 -2.38241 3.57127 0
M  V30 1658 C 159.574 -3.63909 3.90392 0
M  V30 1659 O 159.797 -4.68996 3.24653 0
M  V30 1660 O 158.731 -3.58149 4.83749 0
M  V30 1661 H 162.557 -0.901279 2.90018 0
M  V30 1662 H 160.142 -0.380185 1.44482 0
M  V30 1663 H 162.024 -3.33292 2.57865 0
M  V30 1664 H 160.699 -2.88382 1.4703 0
M  V30 1665 H 159.606 -1.58431 3.38896 0
M  V30 1666 H 160.939 -2.10228 4.45045 0
M  V30 1667 N 162.591 -1.51276 -0.441967 0
M  V30 1668 C 163.837 -1.63958 -1.19355 0
M  V30 1669 C 164.17 -0.352543 -1.90973 0
M  V30 1670 O 163.445 0.647627 -1.83401 0
M  V30 1671 C 163.728 -2.83979 -2.21422 0
M  V30 1672 C 163.581 -4.22646 -1.53918 0
M  V30 1673 C 164.9 -2.99521 -3.22451 0
M  V30 1674 H 162.019 -0.596709 -0.432559 0
M  V30 1675 H 164.661 -1.83748 -0.483398 0
M  V30 1676 H 162.811 -2.67237 -2.81987 0
M  V30 1677 H 164.483 -4.51045 -0.967256 0
M  V30 1678 H 162.726 -4.25558 -0.841615 0
M  V30 1679 H 163.397 -5.02609 -2.28229 0
M  V30 1680 H 165.873 -3.14944 -2.71937 0
M  V30 1681 H 164.749 -3.85072 -3.91166 0
M  V30 1682 H 165.01 -2.11391 -3.88287 0
M  V30 1683 N 164.069 0.697108 -1.41344 0
M  V30 1684 C 165.294 1.49096 -1.44171 0
M  V30 1685 C 165.719 1.88038 -0.0481568 0
M  V30 1686 O 165.077 1.54525 0.948243 0
M  V30 1687 C 165.125 2.73088 -2.3549 0
M  V30 1688 O 164.229 3.70514 -1.81088 0
M  V30 1689 H 163.57 0.448801 -0.489361 0
M  V30 1690 H 166.1 0.856992 -1.85787 0
M  V30 1691 H 166.11 3.21413 -2.51312 0
M  V30 1692 H 164.785 2.44081 -3.36745 0
M  V30 1693 H 163.362 3.29441 -1.74708 0
M  V30 1694 N 165.547 1.27147 0.931209 0
M  V30 1695 C 166.457 1.11372 2.06478 0
M  V30 1696 C 167.473 0.044645 1.73943 0
M  V30 1697 O 168.649 0.250417 1.99837 0
M  V30 1698 C 165.714 0.758838 3.38294 0
M  V30 1699 C 164.775 1.90841 3.84549 0
M  V30 1700 C 164.008 1.57036 5.10074 0
M  V30 1701 O 164.231 0.476645 5.68405 0
M  V30 1702 O 163.165 2.40839 5.51616 0
M  V30 1703 H 166.991 2.06493 2.22698 0
M  V30 1704 H 164.576 1.06301 1.04978 0
M  V30 1705 H 166.458 0.574098 4.17471 0
M  V30 1706 H 165.133 -0.162879 3.2329 0
M  V30 1707 H 164.04 2.14819 3.06274 0
M  V30 1708 H 165.373 2.81021 4.04089 0
M  V30 1709 N 167.025 -1.13721 1.09112 0
M  V30 1710 C 167.988 -2.17222 0.731241 0
M  V30 1711 C 168.988 -1.59035 -0.237566 0
M  V30 1712 O 170.178 -1.74192 -0.0161704 0
M  V30 1713 C 167.31 -3.40804 0.0808443 0
M  V30 1714 H 168.503 -2.50573 1.64783 0
M  V30 1715 H 166.056 -1.28493 0.889897 0
M  V30 1716 H 166.791 -3.1304 -0.847127 0
M  V30 1717 H 166.576 -3.84306 0.777896 0
M  V30 1718 H 168.066 -4.1731 -0.155657 0
M  V30 1719 N 168.503 -0.877838 -1.30888 0
M  V30 1720 C 169.749 -0.493426 -1.96706 0
M  V30 1721 C 170.082 0.953504 -1.6918 0
M  V30 1722 O 169.357 1.67266 -0.992594 0
M  V30 1723 C 169.64 -0.760429 -3.51979 0
M  V30 1724 C 169.493 -2.25747 -3.89048 0
M  V30 1725 C 170.812 -0.232148 -4.39487 0
M  V30 1726 H 167.931 -0.180746 -0.714493 0
M  V30 1727 H 170.573 -1.10052 -1.54882 0
M  V30 1728 H 168.723 -0.243715 -3.87735 0
M  V30 1729 H 170.395 -2.84204 -3.63354 0
M  V30 1730 H 168.638 -2.72694 -3.37373 0
M  V30 1731 H 169.309 -2.39491 -4.97341 0
M  V30 1732 H 171.785 -0.674314 -4.106 0
M  V30 1733 H 170.661 -0.448355 -5.47066 0
M  V30 1734 H 170.922 0.866297 -4.33529 0
M  V30 1735 N 169.982 1.44106 -0.638065 0
M  V30 1736 C 171.228 2.02277 -0.145546 0
M  V30 1737 C 171.561 1.50125 1.23191 0
M  V30 1738 O 170.836 0.688133 1.8192 0
M  V30 1739 C 171.119 3.59829 -0.139791 0
M  V30 1740 C 170.972 4.22247 -1.55008 0
M  V30 1741 C 172.291 4.36873 0.531966 0
M  V30 1742 H 169.41 0.734992 -0.0543632 0
M  V30 1743 H 172.052 1.71592 -0.815863 0
M  V30 1744 H 170.202 3.86102 0.431007 0
M  V30 1745 H 171.874 4.07057 -2.1703 0
M  V30 1746 H 170.117 3.79476 -2.10191 0
M  V30 1747 H 170.788 5.31284 -1.49804 0
M  V30 1748 H 173.264 4.16074 0.0464781 0
M  V30 1749 H 172.14 5.4657 0.505206 0
M  V30 1750 H 172.401 4.11995 1.60352 0
M  V30 1751 N 171.46 0.379036 1.52974 0
M  V30 1752 C 172.737 -0.263479 1.93817 0
M  V30 1753 C 173.117 -1.65244 1.31368 0
M  V30 1754 O 172.465 -2.23448 0.477856 0
M  V30 1755 C 172.675 -0.300166 3.47707 0
M  V30 1756 C 174.023 -0.534061 4.21228 0
M  V30 1757 O 175.047 -0.38081 3.54159 0
M  V30 1758 O 173.906 -0.833501 5.40106 0
M  V30 1759 H 171 -0.161149 0.811147 0
M  V30 1760 H 173.546 0.432798 1.64088 0
M  V30 1761 H 172.318 0.673138 3.85467 0
M  V30 1762 H 171.941 -1.04179 3.83709 0
M  V30 1763 N 172.938 -1.57226 0.108567 0
M  V30 1764 C 174.166 -1.99179 -0.559954 0
M  V30 1765 C 174.581 -0.988022 -1.60884 0
M  V30 1766 O 173.938 0.0205512 -1.82488 0
M  V30 1767 C 173.989 -3.41159 -1.19552 0
M  V30 1768 O 173.71 -4.37694 -0.188577 0
M  V30 1769 C 175.211 -3.98188 -1.94837 0
M  V30 1770 H 172.431 -0.654228 -0.149088 0
M  V30 1771 H 174.975 -2.03598 0.19183 0
M  V30 1772 H 173.13 -3.37711 -1.89815 0
M  V30 1773 H 173.544 -5.20469 -0.649014 0
M  V30 1774 H 175.018 -4.99644 -2.34648 0
M  V30 1775 H 175.495 -3.3675 -2.81951 0
M  V30 1776 H 176.101 -4.0515 -1.2936 0
M  V30 1777 N 174.416 0.165178 -1.56732 0
M  V30 1778 C 175.346 1.20651 -1.99914 0
M  V30 1779 C 176.327 1.45827 -0.875705 0
M  V30 1780 O 177.512 1.57057 -1.14223 0
M  V30 1781 C 174.642 2.54401 -2.36427 0
M  V30 1782 C 173.596 2.43782 -3.51787 0
M  V30 1783 C 172.922 3.82078 -3.7406 0
M  V30 1784 C 174.222 1.93732 -4.85041 0
M  V30 1785 H 175.916 0.847534 -2.87154 0
M  V30 1786 H 173.462 0.40625 -1.38151 0
M  V30 1787 H 175.415 3.27458 -2.65234 0
M  V30 1788 H 174.139 2.92098 -1.46103 0
M  V30 1789 H 172.798 1.73178 -3.23117 0
M  V30 1790 H 172.446 4.17179 -2.81017 0
M  V30 1791 H 172.146 3.7584 -4.51684 0
M  V30 1792 H 173.67 4.56712 -4.05274 0
M  V30 1793 H 175.084 2.56569 -5.12684 0
M  V30 1794 H 173.481 1.98428 -5.66345 0
M  V30 1795 H 174.551 0.891962 -4.76626 0
M  V30 1796 N 175.894 1.51508 0.433938 0
M  V30 1797 C 176.804 1.75917 1.5521 0
M  V30 1798 C 177.82 0.643545 1.61662 0
M  V30 1799 O 178.996 0.926183 1.7884 0
M  V30 1800 C 176.061 1.88213 2.91164 0
M  V30 1801 C 175.122 3.12074 2.94802 0
M  V30 1802 C 174.355 3.23774 4.24271 0
M  V30 1803 O 174.578 2.4133 5.16833 0
M  V30 1804 O 173.512 4.16774 4.34262 0
M  V30 1805 H 177.338 2.70777 1.37527 0
M  V30 1806 H 174.923 1.36051 0.617293 0
M  V30 1807 H 176.805 1.98267 3.71845 0
M  V30 1808 H 175.48 0.965413 3.08968 0
M  V30 1809 H 174.387 3.07497 2.13065 0
M  V30 1810 H 175.72 4.03446 2.81943 0
M  V30 1811 N 177.372 -0.689602 1.41712 0
M  V30 1812 C 178.597 -1.48329 1.44959 0
M  V30 1813 C 179.022 -1.8801 0.0581283 0
M  V30 1814 O 178.38 -1.55026 -0.940035 0
M  V30 1815 C 178.428 -2.71835 2.36935 0
M  V30 1816 O 177.532 -3.69549 1.8305 0
M  V30 1817 H 176.873 -0.446199 0.491734 0
M  V30 1818 H 179.403 -0.847127 1.86239 0
M  V30 1819 H 179.413 -3.20076 2.53013 0
M  V30 1820 H 178.088 -2.42291 3.38035 0
M  V30 1821 H 176.665 -3.2851 1.76452 0
M  V30 1822 N 178.85 -1.27639 -0.924453 0
M  V30 1823 C 179.76 -1.12466 -2.05885 0
M  V30 1824 C 180.776 -0.053869 -1.73917 0
M  V30 1825 O 181.952 -0.261012 -1.99702 0
M  V30 1826 C 179.017 -0.776768 -3.37886 0
M  V30 1827 C 178.078 -1.92878 -3.83532 0
M  V30 1828 C 177.311 -1.59739 -5.09234 0
M  V30 1829 O 177.534 -0.506782 -5.68144 0
M  V30 1830 O 176.468 -2.43761 -5.50331 0
M  V30 1831 H 180.294 -2.07671 -2.21599 0
M  V30 1832 H 177.879 -1.06857 -1.04413 0
M  V30 1833 H 179.761 -0.596229 -4.17161 0
M  V30 1834 H 178.436 0.145732 -3.23372 0
M  V30 1835 H 177.343 -2.1644 -3.0513 0
M  V30 1836 H 178.676 -2.8316 -4.02593 0
M  V30 1837 N 180.328 1.1314 -1.09713 0
M  V30 1838 C 181.558 1.88048 -0.855656 0
M  V30 1839 C 181.966 1.79537 0.596919 0
M  V30 1840 O 181.309 1.16196 1.42282 0
M  V30 1841 C 181.371 3.38314 -1.21589 0
M  V30 1842 C 181.035 3.70605 -2.67397 0
M  V30 1843 C 182.032 3.69596 -3.65643 0
M  V30 1844 C 179.717 4.0017 -3.03593 0
M  V30 1845 C 181.711 3.977 -4.9811 0
M  V30 1846 C 179.398 4.27935 -4.36251 0
M  V30 1847 C 180.396 4.26685 -5.33318 0
M  V30 1848 O 180.084 4.53767 -6.63589 0
M  V30 1849 H 179.816 0.60208 -0.307368 0
M  V30 1850 H 182.37 1.44128 -1.46343 0
M  V30 1851 H 180.6 3.82752 -0.551177 0
M  V30 1852 H 182.289 3.94552 -0.953083 0
M  V30 1853 H 183.055 3.46826 -3.39023 0
M  V30 1854 H 178.934 4.00289 -2.2867 0
M  V30 1855 H 182.478 3.9664 -5.73866 0
M  V30 1856 H 178.375 4.50178 -4.62613 0
M  V30 1857 H 179.143 4.71422 -6.69107 0
M  V30 1858 N 181.806 0.884767 1.30421 0
M  V30 1859 C 182.736 0.367574 2.30589 0
M  V30 1860 C 183.717 -0.549464 1.60981 0
M  V30 1861 O 184.902 -0.46336 1.88591 0
M  V30 1862 C 182.032 -0.418944 3.44764 0
M  V30 1863 C 180.986 0.406316 4.26067 0
M  V30 1864 C 180.312 -0.506793 5.32293 0
M  V30 1865 C 181.612 1.64832 4.95608 0
M  V30 1866 H 183.306 1.20462 2.74097 0
M  V30 1867 H 180.852 0.580695 1.31772 0
M  V30 1868 H 182.805 -0.791395 4.13902 0
M  V30 1869 H 181.529 -1.28964 3.0006 0
M  V30 1870 H 180.188 0.760903 3.58617 0
M  V30 1871 H 179.836 -1.37519 4.83836 0
M  V30 1872 H 179.536 0.0415828 5.87585 0
M  V30 1873 H 181.06 -0.875764 6.04287 0
M  V30 1874 H 182.474 1.34646 5.57264 0
M  V30 1875 H 180.871 2.13688 5.60765 0
M  V30 1876 H 181.941 2.39284 4.21748 0
M  V30 1877 N 183.284 -1.43765 0.645699 0
M  V30 1878 C 184.231 -2.30745 -0.0504648 0
M  V30 1879 C 185.201 -1.4432 -0.822241 0
M  V30 1880 O 186.386 -1.73202 -0.800358 0
M  V30 1881 C 183.526 -3.29802 -1.0161 0
M  V30 1882 C 182.639 -4.31326 -0.241219 0
M  V30 1883 C 181.774 -5.17469 -1.19998 0
M  V30 1884 C 180.813 -6.10691 -0.415094 0
M  V30 1885 N 179.95 -6.89483 -1.32506 0
M  V30 1886 H 184.79 -2.8973 0.697155 0
M  V30 1887 H 182.327 -1.42738 0.355563 0
M  V30 1888 H 184.285 -3.85734 -1.58949 0
M  V30 1889 H 182.915 -2.72483 -1.73069 0
M  V30 1890 H 181.967 -3.77749 0.448334 0
M  V30 1891 H 183.279 -4.9743 0.369437 0
M  V30 1892 H 182.433 -5.7799 -1.84424 0
M  V30 1893 H 181.172 -4.51473 -1.84455 0
M  V30 1894 H 180.177 -5.49265 0.242565 0
M  V30 1895 H 181.402 -6.78727 0.224966 0
M  V30 1896 H 179.348 -6.26142 -1.95657 0
M  V30 1897 H 179.265 -7.52081 -0.768783 0
M  V30 1898 H 180.533 -7.54516 -1.9577 0
M  V30 1899 N 184.763 -0.387143 -1.52771 0
M  V30 1900 C 186.012 0.19697 -2.00736 0
M  V30 1901 C 186.325 1.48082 -1.27793 0
M  V30 1902 O 187.531 2.14485 -1.66458 0
M  V30 1903 C 185.987 0.401568 -3.57653 0
M  V30 1904 C 185.595 -0.868907 -4.39493 0
M  V30 1905 C 187.339 0.942164 -4.13912 0
M  V30 1906 C 185.246 -0.632705 -5.88006 0
M  V30 1907 H 184.176 0.0773827 -0.750019 0
M  V30 1908 H 186.827 -0.50921 -1.76293 0
M  V30 1909 H 185.209 1.16954 -3.78335 0
M  V30 1910 H 186.383 -1.64133 -4.30577 0
M  V30 1911 H 184.698 -1.33429 -3.94443 0
M  V30 1912 H 187.295 1.13455 -5.22525 0
M  V30 1913 H 187.638 1.9106 -3.69867 0
M  V30 1914 H 188.171 0.233814 -3.97112 0
M  V30 1915 H 184.91 -1.57208 -6.36369 0
M  V30 1916 H 184.43 0.100825 -5.99715 0
M  V30 1917 H 186.109 -0.26642 -6.46451 0
M  V30 1918 N 186.241 1.57166 -0.116904 0
M  V30 1919 C 187.652 1.82169 0.408809 0
M  V30 1920 C 188.003 1.03393 1.66746 0
M  V30 1921 O 187.128 0.269886 2.1471 0
M  V30 1922 C 187.723 3.30429 0.748466 0
M  V30 1923 C 186.282 3.5612 1.21882 0
M  V30 1924 C 185.429 2.76374 0.226452 0
M  V30 1925 H 188.38 1.5497 -0.342063 0
M  V30 1926 H 188.401 3.44943 1.60607 0
M  V30 1927 H 187.913 3.87737 -0.167784 0
M  V30 1928 H 186.014 3.04168 2.15204 0
M  V30 1929 H 186.127 4.64705 1.16559 0
M  V30 1930 H 184.491 2.44515 0.713063 0
M  V30 1931 H 185.274 3.3644 -0.682859 0
M  V30 1932 N 187.719 -0.156864 1.56817 0
M  V30 1933 C 188.967 -0.869404 1.82444 0
M  V30 1934 C 189.288 -1.82147 0.69623 0
M  V30 1935 O 188.558 -1.93847 -0.28287 0
M  V30 1936 H 187.138 -0.324043 0.673056 0
M  V30 1937 H 189.8 -0.153224 1.94297 0
M  V30 1938 H 188.896 -1.43761 2.77019 0
M  V30 1939 N 189.197 -1.51736 -0.425897 0
M  V30 1940 C 190.474 -1.55519 -1.1863 0
M  V30 1941 C 190.854 -0.326219 -2.08564 0
M  V30 1942 O 190.202 0.688012 -2.17896 0
M  V30 1943 C 190.412 -2.87521 -1.9782 0
M  V30 1944 C 191.76 -3.39899 -2.54468 0
M  V30 1945 O 192.784 -2.89148 -2.08019 0
M  V30 1946 O 191.643 -4.2848 -3.39215 0
M  V30 1947 H 188.737 -0.625739 -0.540721 0
M  V30 1948 H 191.283 -1.64055 -0.434038 0
M  V30 1949 H 190.055 -3.68422 -1.31836 0
M  V30 1950 H 189.678 -2.822 -2.80088 0
M  V30 1951 N 190.675 0.682077 -1.42076 0
M  V30 1952 C 191.607 1.80755 -1.40926 0
M  V30 1953 C 192.62 1.59833 -0.309398 0
M  V30 1954 O 193.809 1.69087 -0.572014 0
M  V30 1955 C 190.909 3.17744 -1.17865 0
M  V30 1956 C 190.082 3.65578 -2.40149 0
M  V30 1957 C 189.141 4.81277 -2.12742 0
M  V30 1958 O 188.167 4.92197 -2.85887 0
M  V30 1959 N 189.369 5.69474 -1.12602 0
M  V30 1960 H 192.134 1.82229 -2.37935 0
M  V30 1961 H 189.695 0.864903 -1.36861 0
M  V30 1962 H 191.687 3.9279 -0.9746 0
M  V30 1963 H 190.257 3.11214 -0.294068 0
M  V30 1964 H 189.477 2.81291 -2.76169 0
M  V30 1965 H 190.765 3.94278 -3.21593 0
M  V30 1966 H 190.163 5.63297 -0.520899 0
M  V30 1967 H 188.72 6.44363 -0.981842 0
M  V30 1968 N 192.153 1.28127 0.917671 0
M  V30 1969 C 193.399 1.15223 1.66888 0
M  V30 1970 C 193.732 -0.299293 1.9188 0
M  V30 1971 O 193.007 -1.21805 1.51637 0
M  V30 1972 C 193.29 1.94706 3.02922 0
M  V30 1973 C 193.143 3.47898 2.85109 0
M  V30 1974 C 194.462 1.75939 4.03402 0
M  V30 1975 H 191.581 0.419946 0.605652 0
M  V30 1976 H 194.223 1.57398 1.06423 0
M  V30 1977 H 192.373 1.58864 3.54534 0
M  V30 1978 H 194.045 3.93624 2.40537 0
M  V30 1979 H 192.288 3.7373 2.20246 0
M  V30 1980 H 192.959 3.98765 3.81694 0
M  V30 1981 H 195.435 2.07209 3.60837 0
M  V30 1982 H 194.311 2.33931 4.96556 0
M  V30 1983 H 194.572 0.709877 4.36364 0
M  V30 1984 N 193.631 -1.12557 1.10312 0
M  V30 1985 C 194.877 -1.84311 0.846011 0
M  V30 1986 C 195.21 -1.83805 -0.626859 0
M  V30 1987 O 194.485 -1.28268 -1.46211 0
M  V30 1988 C 194.768 -3.32048 1.39341 0
M  V30 1989 C 194.621 -3.41016 2.93305 0
M  V30 1990 C 195.94 -4.27764 1.03468 0
M  V30 1991 H 193.059 -0.669192 0.30879 0
M  V30 1992 H 195.701 -1.32057 1.36605 0
M  V30 1993 H 193.851 -3.76678 0.951087 0
M  V30 1994 H 195.523 -3.05031 3.46055 0
M  V30 1995 H 193.766 -2.81603 3.29973 0
M  V30 1996 H 194.437 -4.44948 3.26689 0
M  V30 1997 H 196.913 -3.91253 1.41633 0
M  V30 1998 H 195.789 -5.29549 1.44463 0
M  V30 1999 H 196.05 -4.42064 -0.0560404 0
M  V30 2000 N 195.109 -0.891671 -1.2995 0
M  V30 2001 C 196.334 -0.527932 -2.00568 0
M  V30 2002 C 196.759 0.877969 -1.66353 0
M  V30 2003 O 196.117 1.58301 -0.883762 0
M  V30 2004 C 196.165 -0.717745 -3.53385 0
M  V30 2005 O 195.269 0.233376 -4.11739 0
M  V30 2006 H 194.61 -0.20722 -0.630837 0
M  V30 2007 H 197.14 -1.20105 -1.65638 0
M  V30 2008 H 197.15 -0.619307 -4.03272 0
M  V30 2009 H 195.825 -1.74276 -3.77625 0
M  V30 2010 H 194.402 0.0880706 -3.72796 0
M  V30 2011 N 196.587 1.43421 -0.653314 0
M  V30 2012 C 197.833 2.02111 -0.166992 0
M  V30 2013 C 198.166 1.51423 1.21592 0
M  V30 2014 O 197.441 0.707389 1.8118 0
M  V30 2015 C 197.724 3.5966 -0.177948 0
M  V30 2016 C 197.577 4.20579 -1.59478 0
M  V30 2017 C 198.896 4.37413 0.4856 0
M  V30 2018 H 196.015 0.734374 -0.0621557 0
M  V30 2019 H 198.657 1.70717 -0.834016 0
M  V30 2020 H 196.807 3.86537 0.390032 0
M  V30 2021 H 198.479 4.04732 -2.21336 0
M  V30 2022 H 196.722 3.77226 -2.14204 0
M  V30 2023 H 197.393 5.29665 -1.5543 0
M  V30 2024 H 199.869 4.161 0.00234528 0
M  V30 2025 H 198.745 5.47075 0.447207 0
M  V30 2026 H 199.006 4.13672 1.55974 0
M  V30 2027 N 198.065 0.39524 1.52563 0
M  V30 2028 C 199.311 -0.185318 2.01952 0
M  V30 2029 C 199.644 -1.45964 1.28095 0
M  V30 2030 O 198.919 -1.90689 0.38315 0
M  V30 2031 C 199.202 -0.447193 3.57312 0
M  V30 2032 C 199.055 0.842828 4.41833 0
M  V30 2033 C 200.374 -1.23529 4.22408 0
M  V30 2034 H 197.493 -0.0658788 0.73405 0
M  V30 2035 H 200.135 0.525975 1.82575 0
M  V30 2036 H 198.285 -1.05312 3.73954 0
M  V30 2037 H 199.957 1.4795 4.36931 0
M  V30 2038 H 198.2 1.45686 4.08605 0
M  V30 2039 H 198.871 0.614165 5.48573 0
M  V30 2040 H 201.347 -0.722445 4.0978 0
M  V30 2041 H 200.223 -1.38727 5.3108 0
M  V30 2042 H 200.484 -2.25213 3.80436 0
M  V30 2043 N 199.544 -1.57102 0.125237 0
M  V30 2044 C 200.791 -1.95407 -0.531248 0
M  V30 2045 C 201.119 -1.0089 -1.66287 0
M  V30 2046 O 200.374 -0.0339431 -1.95671 0
M  V30 2047 C 200.673 -3.40096 -1.09862 0
M  V30 2048 C 200.339 -4.50815 -0.0876989 0
M  V30 2049 C 199.001 -4.80824 0.19026 0
M  V30 2050 C 201.353 -5.17724 0.600902 0
M  V30 2051 C 198.681 -5.75058 1.163 0
M  V30 2052 C 201.033 -6.13005 1.56231 0
M  V30 2053 C 199.697 -6.41403 1.8482 0
M  V30 2054 H 198.967 -0.715046 -0.194397 0
M  V30 2055 H 201.614 -1.90373 0.207463 0
M  V30 2056 H 199.919 -3.41855 -1.91422 0
M  V30 2057 H 201.616 -3.6705 -1.61478 0
M  V30 2058 H 198.206 -4.27444 -0.314528 0
M  V30 2059 H 202.39 -4.94691 0.399333 0
M  V30 2060 H 197.646 -5.95362 1.39117 0
M  V30 2061 H 201.82 -6.63934 2.10153 0
M  V30 2062 H 199.447 -7.14229 2.60349 0
M  V30 2063 N 201.022 0.148545 -1.56898 0
M  V30 2064 C 202.271 0.85984 -1.82454 0
M  V30 2065 C 202.584 1.82406 -0.706229 0
M  V30 2066 O 203.79 2.57938 -0.847349 0
M  V30 2067 C 202.246 1.57967 -3.2338 0
M  V30 2068 C 201.854 0.65794 -4.43142 0
M  V30 2069 C 203.598 2.27784 -3.58211 0
M  V30 2070 C 201.505 1.3793 -5.75091 0
M  V30 2071 H 200.435 0.324834 -0.68044 0
M  V30 2072 H 203.086 0.112588 -1.83154 0
M  V30 2073 H 201.468 2.37249 -3.17063 0
M  V30 2074 H 202.642 -0.0995497 -4.60692 0
M  V30 2075 H 200.957 0.0682643 -4.16344 0
M  V30 2076 H 203.554 2.8239 -4.54048 0
M  V30 2077 H 203.897 3.04204 -2.84193 0
M  V30 2078 H 204.43 1.55421 -3.66182 0
M  V30 2079 H 201.169 0.656982 -6.52199 0
M  V30 2080 H 200.689 2.10954 -5.61479 0
M  V30 2081 H 202.368 1.92063 -6.17835 0
M  V30 2082 N 202.5 1.5196 0.417844 0
M  V30 2083 C 203.447 1.74678 1.50852 0
M  V30 2084 C 204.417 0.588947 1.55308 0
M  V30 2085 O 205.602 0.825544 1.72016 0
M  V30 2086 C 202.742 1.89544 2.88387 0
M  V30 2087 C 201.855 3.17166 2.93309 0
M  V30 2088 C 200.99 3.22513 4.22088 0
M  V30 2089 C 200.029 4.44372 4.20951 0
M  V30 2090 N 199.166 4.47161 5.41287 0
M  V30 2091 H 204.006 2.67768 1.30783 0
M  V30 2092 H 201.543 1.32689 0.63498 0
M  V30 2093 H 203.501 1.96146 3.68216 0
M  V30 2094 H 202.131 0.998424 3.06971 0
M  V30 2095 H 201.183 3.19778 2.06024 0
M  V30 2096 H 202.495 4.07021 2.88332 0
M  V30 2097 H 201.649 3.28139 5.10303 0
M  V30 2098 H 200.388 2.30581 4.29748 0
M  V30 2099 H 199.393 4.38902 3.31127 0
M  V30 2100 H 200.618 5.3759 4.14938 0
M  V30 2101 H 198.564 3.58108 5.49632 0
M  V30 2102 H 198.481 5.3085 5.3827 0
M  V30 2103 H 199.749 4.57005 6.3148 0
M  V30 2104 N 203.978 -0.674533 1.42435 0
M  V30 2105 C 204.888 -1.81751 1.48337 0
M  V30 2106 C 205.904 -1.69975 0.372099 0
M  V30 2107 O 207.08 -1.91521 0.62304 0
M  V30 2108 C 204.145 -3.17895 1.38361 0
M  V30 2109 C 203.206 -3.41625 2.59982 0
M  V30 2110 C 202.439 -4.71274 2.50473 0
M  V30 2111 O 202.662 -5.49197 1.54075 0
M  V30 2112 O 201.596 -4.96254 3.4061 0
M  V30 2113 H 205.422 -1.79728 2.44809 0
M  V30 2114 H 203.007 -0.830312 1.24202 0
M  V30 2115 H 204.889 -3.99136 1.35161 0
M  V30 2116 H 203.564 -3.20555 0.450144 0
M  V30 2117 H 202.471 -2.60231 2.68757 0
M  V30 2118 H 203.804 -3.43796 3.52229 0
M  V30 2119 N 205.456 -1.28612 -0.910864 0
M  V30 2120 C 206.386 -1.15326 -2.03032 0
M  V30 2121 C 207.367 -0.0502924 -1.70026 0
M  V30 2122 O 208.552 -0.227797 -1.92859 0
M  V30 2123 C 205.682 -0.817343 -3.37545 0
M  V30 2124 C 204.636 -1.8754 -3.84724 0
M  V30 2125 C 203.962 -1.39305 -5.16235 0
M  V30 2126 C 205.262 -3.28244 -4.06267 0
M  V30 2127 H 206.956 -2.08975 -2.14406 0
M  V30 2128 H 204.502 -1.00612 -1.03021 0
M  V30 2129 H 206.455 -0.711151 -4.15356 0
M  V30 2130 H 205.179 0.154846 -3.26233 0
M  V30 2131 H 203.838 -1.97079 -3.09121 0
M  V30 2132 H 203.486 -0.409846 -5.01328 0
M  V30 2133 H 203.186 -2.10057 -5.48771 0
M  V30 2134 H 204.71 -1.30014 -5.96598 0
M  V30 2135 H 206.124 -3.21611 -4.74594 0
M  V30 2136 H 204.521 -3.96855 -4.5014 0
M  V30 2137 H 205.591 -3.72048 -3.10979 0
M  V30 2138 N 206.934 1.1197 -1.10907 0
M  V30 2139 C 208.211 1.79959 -0.766432 0
M  V30 2140 C 208.591 1.97466 0.746363 0
M  V30 2141 O 207.939 1.55491 1.67436 0
M  V30 2142 C 208.149 3.14009 -1.52314 0
M  V30 2143 C 209.497 3.89134 -1.69883 0
M  V30 2144 O 210.521 3.2368 -1.48692 0
M  V30 2145 O 209.38 5.06572 -2.05054 0
M  V30 2146 H 206.474 0.779208 -0.277062 0
M  V30 2147 H 209.02 1.18762 -1.21217 0
M  V30 2148 H 207.792 2.96587 -2.55249 0
M  V30 2149 H 207.415 3.82915 -1.07059 0
M  V30 2150 N 208.412 0.89855 1.29475 0
M  V30 2151 C 209.66 0.522847 1.9522 0
M  V30 2152 C 209.981 -0.93371 1.71192 0
M  V30 2153 O 209.251 -1.65823 1.04305 0
M  V30 2154 H 207.831 0.190366 0.722336 0
M  V30 2155 H 210.493 1.14459 1.5775 0
M  V30 2156 H 209.589 0.704476 3.04045 0
M  V30 2157 N 209.89 -1.43072 0.660911 0
M  V30 2158 C 211.136 -2.02545 0.186337 0
M  V30 2159 C 211.491 -1.51253 -1.18913 0
M  V30 2160 O 210.784 -0.699167 -1.78388 0
M  V30 2161 C 210.978 -3.57103 0.145563 0
M  V30 2162 C 210.807 -4.23393 1.51554 0
M  V30 2163 C 209.577 -4.59144 2.10984 0
M  V30 2164 C 211.775 -4.51897 2.45548 0
M  V30 2165 N 209.757 -5.10545 3.40907 0
M  V30 2166 C 211.128 -5.04698 3.6011 0
M  V30 2167 C 213.183 -4.33872 2.44253 0
M  V30 2168 C 211.886 -5.41371 4.73613 0
M  V30 2169 C 213.912 -4.71612 3.56842 0
M  V30 2170 C 213.274 -5.24553 4.70131 0
M  V30 2171 H 209.373 -0.773823 0.112792 0
M  V30 2172 H 211.957 -1.74137 0.870885 0
M  V30 2173 H 210.128 -3.85059 -0.508353 0
M  V30 2174 H 211.86 -4.03264 -0.340598 0
M  V30 2175 H 208.615 -4.4444 1.63615 0
M  V30 2176 H 209.039 -5.40689 4.07411 0
M  V30 2177 H 213.681 -3.92208 1.579 0
M  V30 2178 H 211.399 -5.81975 5.60652 0
M  V30 2179 H 214.985 -4.59354 3.57051 0
M  V30 2180 H 213.865 -5.53213 5.5581 0
M  V30 2181 N 211.368 -0.403325 -1.52352 0
M  V30 2182 C 212.614 0.174605 -2.02047 0
M  V30 2183 C 212.947 1.45282 -1.28867 0
M  V30 2184 O 212.222 1.90483 -0.393257 0
M  V30 2185 C 212.505 0.428238 -3.57545 0
M  V30 2186 C 212.358 -0.866248 -4.4138 0
M  V30 2187 C 213.677 1.21287 -4.23057 0
M  V30 2188 H 210.796 0.0619851 -0.734389 0
M  V30 2189 H 213.438 -0.53565 -1.82293 0
M  V30 2190 H 211.588 1.03327 -3.74507 0
M  V30 2191 H 213.26 -1.50265 -4.3614 0
M  V30 2192 H 211.503 -1.47851 -4.07827 0
M  V30 2193 H 212.174 -0.643249 -5.48239 0
M  V30 2194 H 214.65 0.700703 -4.10158 0
M  V30 2195 H 213.526 1.35909 -5.31808 0
M  V30 2196 H 213.787 2.23193 -3.81625 0
M  V30 2197 N 212.846 1.57033 -0.133567 0
M  V30 2198 C 214.093 1.95686 0.520877 0
M  V30 2199 C 214.421 1.0177 1.6575 0
M  V30 2200 O 213.676 0.0443195 1.9565 0
M  V30 2201 C 213.975 3.40674 1.08057 0
M  V30 2202 C 213.641 4.50855 0.0637899 0
M  V30 2203 C 212.303 4.80716 -0.215757 0
M  V30 2204 C 214.655 5.17398 -0.62835 0
M  V30 2205 C 211.983 5.74433 -1.19348 0
M  V30 2206 C 214.335 6.12167 -1.5948 0
M  V30 2207 C 212.999 6.40414 -1.88218 0
M  V30 2208 H 212.269 0.716067 0.190602 0
M  V30 2209 H 214.916 1.9026 -0.217556 0
M  V30 2210 H 213.221 3.42865 1.89606 0
M  V30 2211 H 214.918 3.67902 1.59529 0
M  V30 2212 H 211.508 4.27605 0.291855 0
M  V30 2213 H 215.692 4.94472 -0.425562 0
M  V30 2214 H 210.948 5.94616 -1.42272 0
M  V30 2215 H 215.122 6.6281 -2.13671 0
M  V30 2216 H 212.749 7.12838 -2.64133 0
M  V30 2217 N 214.325 -0.140222 1.56975 0
M  V30 2218 C 215.571 -0.852949 1.83991 0
M  V30 2219 C 215.904 -1.80512 0.716187 0
M  V30 2220 O 215.179 -1.92479 -0.279681 0
M  V30 2221 C 215.462 -1.6215 3.21527 0
M  V30 2222 C 215.315 -0.690363 4.4447 0
M  V30 2223 C 216.634 -2.58247 3.56366 0
M  V30 2224 H 213.753 -0.308634 0.669264 0
M  V30 2225 H 216.395 -0.117898 1.89634 0
M  V30 2226 H 214.545 -2.24812 3.16847 0
M  V30 2227 H 216.217 -0.0742264 4.6124 0
M  V30 2228 H 214.46 -0.000396433 4.338 0
M  V30 2229 H 215.131 -1.2643 5.37326 0
M  V30 2230 H 217.607 -2.05701 3.61699 0
M  V30 2231 H 216.483 -3.09067 4.53617 0
M  V30 2232 H 216.744 -3.39923 2.82674 0
M  V30 2233 N 215.803 -1.52179 -0.40978 0
M  V30 2234 C 216.713 -1.78364 -1.52392 0
M  V30 2235 C 217.729 -0.669183 -1.60617 0
M  V30 2236 O 218.905 -0.954518 -1.77344 0
M  V30 2237 C 215.97 -1.92822 -2.88133 0
M  V30 2238 C 215.031 -3.16725 -2.898 0
M  V30 2239 C 214.264 -3.30483 -4.19067 0
M  V30 2240 O 214.487 -2.49522 -5.12928 0
M  V30 2241 O 213.421 -4.2363 -4.27576 0
M  V30 2242 H 217.247 -2.72931 -1.33201 0
M  V30 2243 H 214.832 -1.37016 -0.59557 0
M  V30 2244 H 216.714 -2.04157 -3.68643 0
M  V30 2245 H 215.389 -1.01444 -3.07393 0
M  V30 2246 H 214.296 -3.10848 -2.08146 0
M  V30 2247 H 215.629 -4.07881 -2.75489 0
M  V30 2248 N 217.281 0.66697 -1.42791 0
M  V30 2249 C 218.211 1.79218 -1.49677 0
M  V30 2250 C 219.192 1.66405 -0.352623 0
M  V30 2251 O 220.377 1.85708 -0.567993 0
M  V30 2252 C 217.507 3.17565 -1.40605 0
M  V30 2253 C 216.461 3.45124 -2.53127 0
M  V30 2254 C 215.787 4.83127 -2.29112 0
M  V30 2255 C 217.087 3.41236 -3.95418 0
M  V30 2256 H 218.781 1.73713 -2.43853 0
M  V30 2257 H 216.327 0.83432 -1.17367 0
M  V30 2258 H 218.28 3.96022 -1.44029 0
M  V30 2259 H 217.004 3.23767 -0.429271 0
M  V30 2260 H 215.663 2.69031 -2.49034 0
M  V30 2261 H 215.311 4.85988 -1.29709 0
M  V30 2262 H 215.011 5.02528 -3.04531 0
M  V30 2263 H 216.535 5.63859 -2.34297 0
M  V30 2264 H 217.949 4.09651 -4.01073 0
M  V30 2265 H 216.346 3.72173 -4.70752 0
M  V30 2266 H 217.416 2.39665 -4.21532 0
M  V30 2267 N 218.759 1.29093 0.90403 0
M  V30 2268 C 220.036 1.075 1.63411 0
M  V30 2269 C 220.416 -0.382346 2.07609 0
M  V30 2270 O 219.764 -1.37031 1.82851 0
M  V30 2271 C 219.974 2.05858 2.81822 0
M  V30 2272 C 221.322 2.36539 3.52611 0
M  V30 2273 O 222.346 2.04019 2.91984 0
M  V30 2274 O 221.205 2.92085 4.61897 0
M  V30 2275 H 218.299 0.411547 0.717327 0
M  V30 2276 H 220.845 1.40449 0.952479 0
M  V30 2277 H 219.617 3.04037 2.46327 0
M  V30 2278 H 219.24 1.73613 3.57693 0
M  V30 2279 N 220.237 -1.11381 1.11499 0
M  V30 2280 C 221.483 -1.83403 0.865512 0
M  V30 2281 C 221.816 -1.84459 -0.607329 0
M  V30 2282 O 221.091 -1.29811 -1.44842 0
M  V30 2283 C 221.374 -3.30552 1.42855 0
M  V30 2284 C 221.227 -3.37886 2.96906 0
M  V30 2285 C 222.546 -4.26643 1.08 0
M  V30 2286 H 219.665 -0.665879 0.31587 0
M  V30 2287 H 222.307 -1.30601 1.37998 0
M  V30 2288 H 220.457 -3.75648 0.990985 0
M  V30 2289 H 222.129 -3.01343 3.49271 0
M  V30 2290 H 220.372 -2.78088 3.32941 0
M  V30 2291 H 221.043 -4.41458 3.31389 0
M  V30 2292 H 223.519 -3.89729 1.45775 0
M  V30 2293 H 222.395 -5.27986 1.50072 0
M  V30 2294 H 222.656 -4.42099 -0.00915037 0
M  V30 2295 N 221.715 -0.905404 -1.28997 0
M  V30 2296 C 222.963 -0.533192 -1.9494 0
M  V30 2297 C 223.284 0.924618 -1.71685 0
M  V30 2298 O 222.554 1.65268 -1.05183 0
M  V30 2299 H 221.134 -0.194194 -0.721317 0
M  V30 2300 H 223.796 -1.15294 -1.57141 0
M  V30 2301 H 222.892 -0.72059 -3.03667 0
M  V30 2302 N 223.193 1.4272 -0.668489 0
M  V30 2303 C 224.418 2.06484 -0.194758 0
M  V30 2304 C 224.843 1.49862 1.13679 0
M  V30 2305 O 224.201 0.614582 1.70565 0
M  V30 2306 C 224.249 3.60353 -0.133546 0
M  V30 2307 O 223.353 4.02464 0.899806 0
M  V30 2308 H 222.694 0.656137 -0.10188 0
M  V30 2309 H 225.224 1.82964 -0.915722 0
M  V30 2310 H 225.234 4.07976 0.0447041 0
M  V30 2311 H 223.909 4.00938 -1.1055 0
M  V30 2312 H 222.486 3.66402 0.693109 0
M  V30 2313 N 224.671 0.411399 1.52136 0
M  V30 2314 C 225.581 -0.419774 2.30814 0
M  V30 2315 C 226.597 -1.0515 1.38634 0
M  V30 2316 O 227.773 -1.05252 1.71709 0
M  V30 2317 C 224.838 -1.52019 3.11594 0
M  V30 2318 C 223.899 -0.91129 4.19516 0
M  V30 2319 C 223.132 -1.95927 4.96436 0
M  V30 2320 O 223.355 -3.17775 4.73683 0
M  V30 2321 O 222.289 -1.56423 5.81219 0
M  V30 2322 H 226.115 0.221805 3.02889 0
M  V30 2323 H 223.7 0.174547 1.48377 0
M  V30 2324 H 225.582 -2.15898 3.61892 0
M  V30 2325 H 224.257 -2.14633 2.42311 0
M  V30 2326 H 223.164 -0.235157 3.7336 0
M  V30 2327 H 224.497 -0.32904 4.91099 0
M  V30 2328 N 226.149 -1.5696 0.141893 0
M  V30 2329 C 227.397 -1.95573 -0.509484 0
M  V30 2330 C 227.718 -1.02746 -1.65736 0
M  V30 2331 O 226.988 -0.0880311 -1.95702 0
M  V30 2332 H 225.568 -0.722115 -0.191205 0
M  V30 2333 H 228.23 -1.93697 0.216196 0
M  V30 2334 H 227.326 -2.99171 -0.889 0
M  V30 2335 N 227.627 0.131896 -1.57047 0
M  V30 2336 C 228.575 1.18146 -2.0036 0
M  V30 2337 C 229.569 1.43614 -0.898406 0
M  V30 2338 O 230.775 1.43729 -1.08361 0
M  V30 2339 H 227.15 0.398042 -0.638018 0
M  V30 2340 H 229.121 0.789564 -2.87765 0
M  V30 2341 C 227.87 2.50341 -2.41298 0
M  V30 2342 H 227.193 2.31578 -3.25902 0
M  V30 2343 H 228.633 3.22371 -2.75414 0
M  V30 2344 C 227.092 3.11984 -1.27153 0
M  V30 2345 O 227.622 3.97484 -0.580459 0
M  V30 2346 N 225.828 2.71662 -1.03189 0
M  V30 2347 H 225.375 2.02231 -1.59564 0
M  V30 2348 H 225.333 3.13238 -0.270077 0
M  V30 2349 N 229.106 1.52395 0.401703 0
M  V30 2350 C 230.069 1.75636 1.47257 0
M  V30 2351 C 231.069 0.62628 1.48103 0
M  V30 2352 O 232.259 0.894227 1.49497 0
M  V30 2353 C 229.391 1.84553 2.86624 0
M  V30 2354 H 230.584 2.71241 1.27938 0
M  V30 2355 H 228.137 1.42923 0.632662 0
M  V30 2356 H 228.872 0.908882 3.11303 0
M  V30 2357 H 228.657 2.66715 2.87412 0
M  V30 2358 H 230.147 2.04251 3.64241 0
M  V30 2359 N 230.584 -0.659388 1.43143 0
M  V30 2360 C 231.861 -1.41627 1.34912 0
M  V30 2361 C 232.241 -2.11099 -0.00607785 0
M  V30 2362 O 231.589 -2.04353 -1.02236 0
M  V30 2363 C 231.799 -2.40604 2.52805 0
M  V30 2364 C 233.147 -3.04789 2.95616 0
M  V30 2365 O 234.171 -2.50932 2.52807 0
M  V30 2366 O 233.03 -4.02421 3.69756 0
M  V30 2367 H 230.124 -0.63246 0.532844 0
M  V30 2368 H 232.67 -0.686814 1.5518 0
M  V30 2369 H 231.442 -1.88174 3.43083 0
M  V30 2370 H 231.065 -3.21009 2.34604 0
M  V30 2371 N 232.062 -1.29571 -0.897171 0
M  V30 2372 C 233.31 -1.17456 -1.64464 0
M  V30 2373 C 233.631 0.273698 -1.9307 0
M  V30 2374 O 232.901 1.18684 -1.55855 0
M  V30 2375 H 231.481 -0.431706 -0.609622 0
M  V30 2376 H 234.143 -1.62531 -1.07562 0
M  V30 2377 H 233.239 -1.72648 -2.59998 0
M  V30 2378 N 233.54 1.10788 -1.12088 0
M  V30 2379 C 234.503 2.15207 -0.788577 0
M  V30 2380 C 235.503 1.59609 0.195317 0
M  V30 2381 O 236.693 1.74174 -0.0300193 0
M  V30 2382 C 233.825 3.4047 -0.171174 0
M  V30 2383 H 235.018 2.46116 -1.71368 0
M  V30 2384 H 232.571 1.26089 -0.923652 0
M  V30 2385 H 233.306 3.15176 0.763832 0
M  V30 2386 H 233.091 3.82109 -0.879514 0
M  V30 2387 H 234.581 4.17576 0.04496 0
M  V30 2388 N 235.018 0.912232 1.28515 0
M  V30 2389 C 235.95 0.35676 2.26406 0
M  V30 2390 C 236.963 -0.503933 1.54804 0
M  V30 2391 O 238.152 -0.319059 1.75625 0
M  V30 2392 C 235.252 -0.508825 3.35058 0
M  V30 2393 C 234.425 0.329007 4.36161 0
M  V30 2394 C 233.484 -0.471422 5.24084 0
M  V30 2395 O 232.51 0.115482 5.69083 0
M  V30 2396 N 233.712 -1.77479 5.52704 0
M  V30 2397 H 236.477 1.19818 2.74707 0
M  V30 2398 H 234.038 0.778022 1.4198 0
M  V30 2399 H 236.03 -1.051 3.90815 0
M  V30 2400 H 234.6 -1.25095 2.86478 0
M  V30 2401 H 233.82 1.05256 3.79888 0
M  V30 2402 H 235.108 0.90234 5.00735 0
M  V30 2403 H 234.506 -2.27417 5.17975 0
M  V30 2404 H 233.063 -2.26382 6.11224 0
M  V30 2405 N 236.496 -1.42363 0.676048 0
M  V30 2406 C 237.745 -2.00745 0.196037 0
M  V30 2407 C 238.058 -1.54083 -1.20489 0
M  V30 2408 O 239.264 -2.04891 -1.78134 0
M  V30 2409 C 237.72 -3.58651 0.299616 0
M  V30 2410 C 237.328 -4.143 1.70468 0
M  V30 2411 C 239.072 -4.24326 -0.121619 0
M  V30 2412 C 236.979 -5.64574 1.76096 0
M  V30 2413 H 235.909 -0.750787 0.0695301 0
M  V30 2414 H 238.56 -1.63072 0.841412 0
M  V30 2415 H 236.942 -3.93833 -0.413673 0
M  V30 2416 H 238.116 -3.90575 2.44515 0
M  V30 2417 H 236.431 -3.61081 2.07387 0
M  V30 2418 H 239.028 -5.34607 -0.0997362 0
M  V30 2419 H 239.371 -3.99897 -1.15708 0
M  V30 2420 H 239.904 -3.94108 0.540706 0
M  V30 2421 H 236.643 -5.93804 2.77628 0
M  V30 2422 H 236.163 -5.90286 1.06406 0
M  V30 2423 H 237.842 -6.29013 1.51496 0
M  V30 2424 N 237.974 -0.419461 -1.51915 0
M  V30 2425 C 238.906 0.43646 -2.25006 0
M  V30 2426 C 239.919 1.00149 -1.28351 0
M  V30 2427 O 241.108 0.898674 -1.54227 0
M  V30 2428 C 238.208 1.6206 -2.9764 0
M  V30 2429 C 237.381 1.17763 -4.21249 0
M  V30 2430 C 236.44 2.22985 -4.76617 0
M  V30 2431 O 235.466 1.83151 -5.38929 0
M  V30 2432 N 236.668 3.55271 -4.59089 0
M  V30 2433 H 239.433 -0.18989 -2.99098 0
M  V30 2434 H 236.994 -0.247386 -1.59999 0
M  V30 2435 H 238.986 2.32038 -3.31573 0
M  V30 2436 H 237.556 2.15266 -2.2667 0
M  V30 2437 H 236.776 0.305582 -3.93014 0
M  V30 2438 H 238.064 0.858781 -5.015 0
M  V30 2439 H 237.462 3.90377 -4.09417 0
M  V30 2440 H 236.019 4.21195 -4.97432 0
M  V30 2441 N 239.452 1.56882 -0.150215 0
M  V30 2442 C 240.362 2.20494 0.801222 0
M  V30 2443 C 241.378 1.19019 1.26927 0
M  V30 2444 O 242.554 1.51607 1.32579 0
M  V30 2445 C 239.619 2.81659 2.02161 0
M  V30 2446 C 238.68 3.9827 1.60249 0
M  V30 2447 C 237.913 4.56508 2.7647 0
M  V30 2448 O 238.136 4.13627 3.92771 0
M  V30 2449 O 237.07 5.46719 2.51757 0
M  V30 2450 H 240.896 3.02315 0.289717 0
M  V30 2451 H 238.481 1.49202 0.0769684 0
M  V30 2452 H 240.363 3.20522 2.73576 0
M  V30 2453 H 239.038 2.02849 2.52258 0
M  V30 2454 H 237.945 3.64117 0.858477 0
M  V30 2455 H 239.278 4.78609 1.14864 0
M  V30 2456 N 240.93 -0.123565 1.57115 0
M  V30 2457 C 241.863 -1.18202 1.95201 0
M  V30 2458 C 242.841 -1.40349 0.821031 0
M  V30 2459 O 244.025 -1.54578 1.07879 0
M  V30 2460 C 241.152 -2.53671 2.24429 0
M  V30 2461 C 240.198 -2.4798 3.46999 0
M  V30 2462 S 241.031 -1.92389 4.99747 0
M  V30 2463 C 242.187 -3.2954 5.32123 0
M  V30 2464 H 242.42 -0.857212 2.84674 0
M  V30 2465 H 239.953 -0.33014 1.50829 0
M  V30 2466 H 241.911 -3.3162 2.41947 0
M  V30 2467 H 240.572 -2.83332 1.35579 0
M  V30 2468 H 239.765 -3.47758 3.64801 0
M  V30 2469 H 239.367 -1.7815 3.28844 0
M  V30 2470 H 241.659 -4.25736 5.27025 0
M  V30 2471 H 242.602 -3.16569 6.33395 0
M  V30 2472 H 243.01 -3.27758 4.59603 0
M  V30 2473 N 242.408 -1.52605 -0.393616 0
M  V30 2474 C 243.338 -1.80022 -1.48709 0
M  V30 2475 C 244.319 -0.651995 -1.57108 0
M  V30 2476 O 245.504 -0.89913 -1.72132 0
M  V30 2477 C 242.634 -1.96492 -2.86371 0
M  V30 2478 C 241.588 -3.12161 -2.92813 0
M  V30 2479 C 240.914 -3.13877 -4.3288 0
M  V30 2480 C 242.214 -4.51322 -2.6288 0
M  V30 2481 H 243.908 -2.71589 -1.26015 0
M  V30 2482 H 241.454 -1.30684 -0.604778 0
M  V30 2483 H 243.407 -2.14255 -3.62867 0
M  V30 2484 H 242.131 -1.01611 -3.10391 0
M  V30 2485 H 240.79 -2.94173 -2.18764 0
M  V30 2486 H 240.438 -2.16687 -4.53933 0
M  V30 2487 H 240.138 -3.91576 -4.38112 0
M  V30 2488 H 241.662 -3.33789 -5.1129 0
M  V30 2489 H 243.076 -4.69435 -3.29096 0
M  V30 2490 H 241.473 -5.31053 -2.79468 0
M  V30 2491 H 242.543 -4.58353 -1.58242 0
M  V30 2492 N 243.887 0.651787 -1.4349 0
M  V30 2493 C 244.817 1.77621 -1.51569 0
M  V30 2494 C 245.798 1.66022 -0.370253 0
M  V30 2495 O 246.983 1.85095 -0.587658 0
M  V30 2496 C 244.113 3.16056 -1.43966 0
M  V30 2497 C 243.067 3.4242 -2.56774 0
M  V30 2498 C 242.393 4.8067 -2.34223 0
M  V30 2499 C 243.693 3.37023 -3.99015 0
M  V30 2500 H 245.387 1.71117 -2.45681 0
M  V30 2501 H 242.933 0.821825 -1.18246 0
M  V30 2502 H 244.886 3.94472 -1.48221 0
M  V30 2503 H 243.61 3.23293 -0.463586 0
M  V30 2504 H 242.269 2.66375 -2.51873 0
M  V30 2505 H 241.917 4.84585 -1.34856 0
M  V30 2506 H 241.617 4.9927 -3.09844 0
M  V30 2507 H 243.141 5.61342 -2.40265 0
M  V30 2508 H 244.555 4.05374 -4.05395 0
M  V30 2509 H 242.952 3.67159 -4.74673 0
M  V30 2510 H 244.022 2.3518 -4.2405 0
M  V30 2511 N 245.365 1.30045 0.890287 0
M  V30 2512 C 246.781 1.08261 1.17268 0
M  V30 2513 C 246.981 -0.160063 2.00863 0
M  V30 2514 O 246.037 -0.855181 2.37577 0
M  V30 2515 C 247.35 2.34323 1.8845 0
M  V30 2516 C 248.898 2.39735 2.01237 0
M  V30 2517 C 249.373 3.65625 2.7583 0
M  V30 2518 N 250.864 3.66402 2.83379 0
M  V30 2519 C 251.599 4.60498 3.41657 0
M  V30 2520 N 251.095 5.64933 4.01026 0
M  V30 2521 N 252.888 4.48051 3.39421 0
M  V30 2522 H 245.039 2.09777 0.332762 0
M  V30 2523 H 247.302 0.92446 0.209948 0
M  V30 2524 H 247.008 3.2498 1.34465 0
M  V30 2525 H 246.882 2.4256 2.88867 0
M  V30 2526 H 249.269 1.4956 2.54393 0
M  V30 2527 H 249.35 2.35476 0.999232 0
M  V30 2528 H 248.994 4.56156 2.23347 0
M  V30 2529 H 248.924 3.67144 3.77509 0
M  V30 2530 H 251.415 2.90896 2.41222 0
M  V30 2531 H 251.728 6.32841 4.43545 0
M  V30 2532 H 250.073 5.68732 3.99461 0
M  V30 2533 H 253.264 3.65649 2.92264 0
M  V30 2534 H 253.437 5.21565 3.84544 0
M  V30 2535 N 246.843 -1.10192 1.12674 0
M  V30 2536 C 248.089 -1.82475 0.884915 0
M  V30 2537 C 248.422 -1.85093 -0.58773 0
M  V30 2538 O 247.697 -1.3134 -1.43457 0
M  V30 2539 C 247.98 -3.29018 1.46353 0
M  V30 2540 C 247.833 -3.34718 3.00473 0
M  V30 2541 C 249.152 -4.25473 1.12519 0
M  V30 2542 H 246.271 -0.662492 0.322915 0
M  V30 2543 H 248.913 -1.2913 1.39375 0
M  V30 2544 H 247.063 -3.74576 1.03077 0
M  V30 2545 H 248.735 -2.97622 3.52447 0
M  V30 2546 H 246.978 -2.74541 3.35872 0
M  V30 2547 H 247.649 -4.37918 3.36053 0
M  V30 2548 H 250.125 -3.88161 1.499 0
M  V30 2549 H 249.001 -5.26365 1.55663 0
M  V30 2550 H 249.262 -4.42084 0.0377407 0
M  V30 2551 N 248.321 -0.919034 -1.28029 0
M  V30 2552 C 249.57 -0.550802 -1.94034 0
M  V30 2553 C 249.883 0.910877 -1.73096 0
M  V30 2554 O 251.089 1.3875 -2.33368 0
M  V30 2555 C 249.545 -0.934249 -3.47563 0
M  V30 2556 C 249.153 -2.41602 -3.7727 0
M  V30 2557 C 250.897 -0.636854 -4.19696 0
M  V30 2558 C 248.804 -2.73932 -5.24133 0
M  V30 2559 H 247.734 -0.202273 -0.726362 0
M  V30 2560 H 250.385 -1.11867 -1.45458 0
M  V30 2561 H 248.767 -0.295115 -3.94899 0
M  V30 2562 H 249.941 -3.10233 -3.40723 0
M  V30 2563 H 248.256 -2.68441 -3.18321 0
M  V30 2564 H 250.853 -0.855005 -5.2782 0
M  V30 2565 H 251.196 0.425575 -4.14119 0
M  V30 2566 H 251.729 -1.23469 -3.78154 0
M  V30 2567 H 248.468 -3.79049 -5.34792 0
M  V30 2568 H 247.988 -2.09942 -5.61858 0
M  V30 2569 H 249.667 -2.61215 -5.91925 0
M  V30 2570 N 249.799 1.42003 -0.683588 0
M  V30 2571 C 251.024 2.06265 -0.216647 0
M  V30 2572 C 251.449 1.51059 1.12083 0
M  V30 2573 O 250.807 0.632638 1.69904 0
M  V30 2574 C 250.855 3.60191 -0.171759 0
M  V30 2575 O 249.959 4.03396 0.857069 0
M  V30 2576 H 249.3 0.65502 -0.108834 0
M  V30 2577 H 251.83 1.81982 -0.935077 0
M  V30 2578 H 251.84 4.08 0.0014303 0
M  V30 2579 H 250.515 3.99743 -1.14796 0
M  V30 2580 H 249.092 3.67117 0.654208 0
M  V30 2581 N 251.277 0.427512 1.51691 0
M  V30 2582 C 252.502 -0.143601 2.06902 0
M  V30 2583 C 252.927 -1.36536 1.29382 0
M  V30 2584 O 252.285 -1.78289 0.329043 0
M  V30 2585 C 252.333 -0.454207 3.57728 0
M  V30 2586 O 251.437 -1.54228 3.82475 0
M  V30 2587 H 250.778 -0.00617128 0.663971 0
M  V30 2588 H 253.308 0.606014 1.95419 0
M  V30 2589 H 253.318 -0.707525 4.01818 0
M  V30 2590 H 251.993 0.438812 4.13579 0
M  V30 2591 H 250.57 -1.2797 3.50254 0
M  V30 2592 N 252.755 -1.56801 0.158532 0
M  V30 2593 C 254.003 -1.96102 -0.488712 0
M  V30 2594 C 254.324 -1.04498 -1.64636 0
M  V30 2595 O 253.594 -0.108783 -1.95598 0
M  V30 2596 H 252.174 -0.724102 -0.183535 0
M  V30 2597 H 254.836 -1.93457 0.236728 0
M  V30 2598 H 253.932 -3.00097 -0.857219 0
M  V30 2599 N 254.233 0.115231 -1.57178 0
M  V30 2600 C 255.458 0.840354 -1.89612 0
M  V30 2601 C 255.883 1.72464 -0.750845 0
M  V30 2602 O 255.241 1.78826 0.298478 0
M  V30 2603 C 255.289 1.64654 -3.20814 0
M  V30 2604 O 254.393 2.7538 -3.06985 0
M  V30 2605 H 253.734 0.232158 -0.622092 0
M  V30 2606 H 256.264 0.0964977 -2.04372 0
M  V30 2607 H 256.274 2.03499 -3.53627 0
M  V30 2608 H 254.949 0.997416 -4.03763 0
M  V30 2609 H 253.526 2.3971 -2.85646 0
M  V30 2610 N 255.711 1.52812 0.385517 0
M  V30 2611 C 256.957 1.68275 1.13188 0
M  V30 2612 C 257.29 0.423179 1.89533 0
M  V30 2613 O 256.565 -0.579113 1.85679 0
M  V30 2614 C 256.848 2.92001 2.1073 0
M  V30 2615 C 256.701 4.28067 1.38125 0
M  V30 2616 C 258.02 3.11283 3.11113 0
M  V30 2617 H 255.139 0.612352 0.410115 0
M  V30 2618 H 257.781 1.85415 0.414869 0
M  V30 2619 H 255.931 2.77519 2.71874 0
M  V30 2620 H 257.603 4.54324 0.799187 0
M  V30 2621 H 255.846 4.28388 0.683092 0
M  V30 2622 H 256.517 5.10733 2.09417 0
M  V30 2623 H 258.993 3.2482 2.6006 0
M  V30 2624 H 257.869 3.99325 3.76605 0
M  V30 2625 H 258.13 2.25656 3.80173 0
M  V30 2626 N 257.189 -0.644168 1.43834 0
M  V30 2627 C 258.152 -1.73857 1.49353 0
M  V30 2628 C 259.152 -1.56315 0.377112 0
M  V30 2629 O 260.342 -1.62048 0.639226 0
M  V30 2630 C 257.474 -3.12819 1.35488 0
M  V30 2631 H 258.667 -1.70342 2.46827 0
M  V30 2632 H 256.22 -0.856652 1.30733 0
M  V30 2633 H 256.955 -3.2194 0.390569 0
M  V30 2634 H 256.74 -3.26958 2.16428 0
M  V30 2635 H 258.23 -3.92606 1.42302 0
M  V30 2636 N 258.668 -1.30515 -0.883378 0
M  V30 2637 C 259.893 -1.22487 -1.67367 0
M  V30 2638 C 260.318 0.208767 -1.86938 0
M  V30 2639 O 259.676 1.15015 -1.40148 0
M  V30 2640 C 259.724 -1.96041 -3.02655 0
M  V30 2641 O 258.828 -1.28859 -3.91751 0
M  V30 2642 H 258.169 -0.423573 -0.511353 0
M  V30 2643 H 260.699 -1.72362 -1.10239 0
M  V30 2644 H 260.709 -2.05124 -3.52687 0
M  V30 2645 H 259.384 -3.00307 -2.8773 0
M  V30 2646 H 257.961 -1.28141 -3.50192 0
M  V30 2647 N 260.146 1.09593 -1.13257 0
M  V30 2648 C 261.376 1.85231 -0.915049 0
M  V30 2649 C 261.784 1.81345 0.539498 0
M  V30 2650 O 261.127 1.20664 1.38513 0
M  V30 2651 C 261.189 3.34275 -1.3229 0
M  V30 2652 C 260.853 3.6191 -2.79052 0
M  V30 2653 C 261.85 3.57777 -3.77216 0
M  V30 2654 C 259.535 3.90309 -3.16171 0
M  V30 2655 C 261.529 3.81652 -5.1051 0
M  V30 2656 C 259.216 4.13839 -4.49644 0
M  V30 2657 C 260.214 4.09502 -5.46623 0
M  V30 2658 O 259.902 4.32426 -6.77689 0
M  V30 2659 H 259.634 0.591997 -0.326367 0
M  V30 2660 H 262.188 1.394 -1.50854 0
M  V30 2661 H 260.418 3.80805 -0.672667 0
M  V30 2662 H 262.107 3.9132 -1.07812 0
M  V30 2663 H 262.873 3.35865 -3.49885 0
M  V30 2664 H 258.752 3.92811 -2.41289 0
M  V30 2665 H 262.296 3.78182 -5.86195 0
M  V30 2666 H 258.193 4.35232 -4.767 0
M  V30 2667 H 258.961 4.49896 -6.83766 0
M  V30 2668 N 261.624 0.925811 1.2754 0
M  V30 2669 C 262.87 0.566092 1.94739 0
M  V30 2670 C 263.203 -0.890057 1.72603 0
M  V30 2671 O 262.478 -1.63467 1.05399 0
M  V30 2672 C 262.761 0.89054 3.48915 0
M  V30 2673 C 262.614 2.4003 3.80402 0
M  V30 2674 C 263.933 0.395101 4.38323 0
M  V30 2675 H 261.052 0.20714 0.707292 0
M  V30 2676 H 263.694 1.15725 1.50691 0
M  V30 2677 H 261.844 0.387452 3.86563 0
M  V30 2678 H 263.516 2.97494 3.52555 0
M  V30 2679 H 261.759 2.85028 3.2702 0
M  V30 2680 H 262.43 2.57785 4.8811 0
M  V30 2681 H 264.906 0.826241 4.07814 0
M  V30 2682 H 263.782 0.651086 5.45025 0
M  V30 2683 H 264.043 -0.704798 4.36446 0
M  V30 2684 N 263.102 -1.41638 0.69111 0
M  V30 2685 C 264.33 -2.05628 0.22909 0
M  V30 2686 C 264.745 -1.51992 -1.11999 0
M  V30 2687 O 264.102 -0.666322 -1.69901 0
M  V30 2688 C 264.153 -3.61084 0.173283 0
M  V30 2689 O 263.874 -4.12735 1.46907 0
M  V30 2690 C 265.375 -4.42213 -0.310266 0
M  V30 2691 H 262.595 -0.662327 0.107534 0
M  V30 2692 H 265.139 -1.81489 0.942438 0
M  V30 2693 H 263.294 -3.84278 -0.490858 0
M  V30 2694 H 263.708 -5.06743 1.35322 0
M  V30 2695 H 265.182 -5.51194 -0.298196 0
M  V30 2696 H 265.659 -4.1799 -1.34838 0
M  V30 2697 H 266.265 -4.24074 0.322716 0
M  V30 2698 N 264.58 -0.43555 -1.51462 0
M  V30 2699 C 265.805 0.132627 -2.06976 0
M  V30 2700 C 266.23 1.35848 -1.30104 0
M  V30 2701 O 265.588 1.78112 -0.338493 0
M  V30 2702 C 265.636 0.43523 -3.57964 0
M  V30 2703 O 264.74 1.52198 -3.83288 0
M  V30 2704 H 264.081 0.00265 -0.663995 0
M  V30 2705 H 266.611 -0.616369 -1.95095 0
M  V30 2706 H 266.621 0.686206 -4.02188 0
M  V30 2707 H 265.296 -0.460739 -4.1334 0
M  V30 2708 H 263.873 1.2611 -3.50928 0
M  V30 2709 N 266.058 1.56714 -0.166846 0
M  V30 2710 C 267.469 1.83378 0.350646 0
M  V30 2711 C 267.82 1.08646 1.63372 0
M  V30 2712 O 266.945 0.338058 2.13743 0
M  V30 2713 C 267.54 3.32643 0.642963 0
M  V30 2714 C 266.099 3.59818 1.10491 0
M  V30 2715 C 265.246 2.76954 0.138411 0
M  V30 2716 H 268.197 1.53803 -0.391193 0
M  V30 2717 H 268.218 3.49878 1.49551 0
M  V30 2718 H 267.73 3.87007 -0.291055 0
M  V30 2719 H 265.831 3.1086 2.05418 0
M  V30 2720 H 265.944 4.68178 1.01716 0
M  V30 2721 H 264.308 2.4666 0.634911 0
M  V30 2722 H 265.091 3.34097 -0.789549 0
M  V30 2723 N 267.536 -0.106894 1.57237 0
M  V30 2724 C 268.468 -1.15646 1.97885 0
M  V30 2725 C 269.481 -1.36981 0.879779 0
M  V30 2726 O 270.67 -1.35841 1.15799 0
M  V30 2727 C 267.77 -2.51425 2.27241 0
M  V30 2728 C 266.943 -2.50529 3.58545 0
M  V30 2729 C 266.002 -3.68145 3.75973 0
M  V30 2730 O 265.028 -3.51176 4.47956 0
M  V30 2731 N 266.23 -4.87177 3.15656 0
M  V30 2732 H 268.995 -0.81059 2.8853 0
M  V30 2733 H 266.556 -0.296024 1.59171 0
M  V30 2734 H 268.548 -3.28689 2.36105 0
M  V30 2735 H 267.118 -2.78147 1.42663 0
M  V30 2736 H 266.338 -1.58894 3.60758 0
M  V30 2737 H 267.626 -2.46997 4.44826 0
M  V30 2738 H 267.024 -5.03868 2.57165 0
M  V30 2739 H 265.581 -5.62075 3.30023 0
M  V30 2740 N 269.014 -1.53014 -0.377408 0
M  V30 2741 C 270.262 -1.6829 -1.11906 0
M  V30 2742 C 270.583 -0.431206 -1.90173 0
M  V30 2743 O 269.853 0.554595 -1.87886 0
M  V30 2744 H 268.433 -0.620371 -0.416112 0
M  V30 2745 H 271.095 -1.90167 -0.426893 0
M  V30 2746 H 270.191 -2.53862 -1.8155 0
M  V30 2747 N 270.492 0.636531 -1.44174 0
M  V30 2748 C 271.739 1.39619 -1.46672 0
M  V30 2749 C 272.067 1.94257 -0.0972691 0
M  V30 2750 O 271.322 1.73768 0.900175 0
M  V30 2751 C 271.621 2.58309 -2.47005 0
M  V30 2752 C 271.287 2.21992 -3.92467 0
M  V30 2753 C 269.949 2.118 -4.32081 0
M  V30 2754 C 272.301 1.9321 -4.84065 0
M  V30 2755 C 269.629 1.71007 -5.61225 0
M  V30 2756 C 271.981 1.53911 -6.13591 0
M  V30 2757 C 270.645 1.42257 -6.52165 0
M  V30 2758 H 269.915 0.510902 -0.536712 0
M  V30 2759 H 272.562 0.722328 -1.77355 0
M  V30 2760 H 270.867 3.30903 -2.09786 0
M  V30 2761 H 272.564 3.16533 -2.46186 0
M  V30 2762 H 269.154 2.30841 -3.61124 0
M  V30 2763 H 273.338 1.99997 -4.54219 0
M  V30 2764 H 268.594 1.60583 -5.89935 0
M  V30 2765 H 272.768 1.30677 -6.8403 0
M  V30 2766 H 270.395 1.10419 -7.52138 0
M  V30 2767 N 271.97 1.30982 0.876444 0
M  V30 2768 C 272.902 1.13902 1.98894 0
M  V30 2769 C 273.915 0.0798815 1.62604 0
M  V30 2770 O 275.104 0.326743 1.75484 0
M  V30 2771 C 272.204 0.716699 3.31235 0
M  V30 2772 C 271.377 1.85945 3.95908 0
M  V30 2773 C 270.436 1.42426 5.06558 0
M  V30 2774 O 269.462 2.13287 5.27729 0
M  V30 2775 N 270.664 0.308025 5.79682 0
M  V30 2776 H 273.429 2.09724 2.14094 0
M  V30 2777 H 270.99 1.2323 1.05004 0
M  V30 2778 H 272.982 0.408403 4.02634 0
M  V30 2779 H 271.552 -0.149719 3.12241 0
M  V30 2780 H 270.772 2.33541 3.17573 0
M  V30 2781 H 272.06 2.62503 4.35855 0
M  V30 2782 H 271.458 -0.282241 5.64995 0
M  V30 2783 H 270.015 0.0592282 6.51773 0
M  V30 2784 N 273.449 -1.08991 1.13837 0
M  V30 2785 C 274.696 -1.81258 0.902882 0
M  V30 2786 C 275.024 -1.85936 -0.570803 0
M  V30 2787 O 274.279 -1.3267 -1.43865 0
M  V30 2788 C 274.578 -3.27042 1.44147 0
M  V30 2789 C 274.244 -3.4249 2.93276 0
M  V30 2790 C 272.906 -3.46414 3.33992 0
M  V30 2791 C 275.258 -3.4666 3.892 0
M  V30 2792 C 272.586 -3.52091 4.69307 0
M  V30 2793 C 274.938 -3.53872 5.24364 0
M  V30 2794 C 273.602 -3.56066 5.646 0
M  V30 2795 H 272.872 -0.663268 0.330388 0
M  V30 2796 H 275.519 -1.28368 1.42105 0
M  V30 2797 H 273.824 -3.82599 0.844097 0
M  V30 2798 H 275.521 -3.81499 1.23528 0
M  V30 2799 H 272.111 -3.40124 2.60794 0
M  V30 2800 H 276.295 -3.42865 3.58828 0
M  V30 2801 H 271.551 -3.52079 4.9985 0
M  V30 2802 H 275.725 -3.56043 5.98503 0
M  V30 2803 H 273.352 -3.60218 6.69438 0
M  V30 2804 N 274.927 -0.932562 -1.27047 0
M  V30 2805 C 276.343 -0.633544 -1.46487 0
M  V30 2806 C 276.543 0.815746 -1.84249 0
M  V30 2807 O 275.599 1.59319 -1.95892 0
M  V30 2808 C 276.912 -1.58758 -2.55375 0
M  V30 2809 C 278.46 -1.59634 -2.69232 0
M  V30 2810 C 278.935 -2.53747 -3.81283 0
M  V30 2811 N 280.426 -2.51982 -3.88664 0
M  V30 2812 C 281.161 -3.21491 -4.74796 0
M  V30 2813 N 280.657 -4.00395 -5.65381 0
M  V30 2814 N 282.45 -3.10485 -4.68568 0
M  V30 2815 H 274.601 -1.86946 -1.00821 0
M  V30 2816 H 276.864 -0.802897 -0.504044 0
M  V30 2817 H 276.57 -2.62172 -2.34432 0
M  V30 2818 H 276.444 -1.33301 -3.52861 0
M  V30 2819 H 278.831 -0.569488 -2.89553 0
M  V30 2820 H 278.912 -1.89142 -1.72218 0
M  V30 2821 H 278.556 -3.56545 -3.61715 0
M  V30 2822 H 278.486 -2.21532 -4.77735 0
M  V30 2823 H 280.977 -1.94681 -3.23895 0
M  V30 2824 H 281.29 -4.50406 -6.27976 0
M  V30 2825 H 279.635 -4.04498 -5.65161 0
M  V30 2826 H 282.826 -2.48331 -3.96799 0
M  V30 2827 H 282.999 -3.64925 -5.35475 0
M  V30 2828 N 276.405 1.4127 -0.698611 0
M  V30 2829 C 277.821 1.55241 -0.370462 0
M  V30 2830 C 278.021 1.67351 1.12231 0
M  V30 2831 O 277.077 1.65363 1.90818 0
M  V30 2832 C 278.39 2.78997 -1.12165 0
M  V30 2833 C 279.938 2.92797 -1.1063 0
M  V30 2834 C 280.413 4.19445 -1.8393 0
M  V30 2835 N 281.904 4.26409 -1.80914 0
M  V30 2836 C 282.639 5.23271 -2.34467 0
M  V30 2837 N 282.135 6.26145 -2.96504 0
M  V30 2838 N 283.928 5.15232 -2.24706 0
M  V30 2839 H 276.079 1.31654 -1.66676 0
M  V30 2840 H 278.342 0.635393 -0.703548 0
M  V30 2841 H 278.048 2.76268 -2.17644 0
M  V30 2842 H 277.922 3.70606 -0.702209 0
M  V30 2843 H 280.309 2.95039 -0.0597713 0
M  V30 2844 H 280.39 2.02353 -1.56483 0
M  V30 2845 H 280.034 4.17964 -2.88563 0
M  V30 2846 H 279.964 5.08866 -1.35509 0
M  V30 2847 H 282.455 3.527 -1.35687 0
M  V30 2848 H 282.768 6.96451 -3.34927 0
M  V30 2849 H 281.113 6.26638 -3.00583 0
M  V30 2850 H 284.304 4.33789 -1.7591 0
M  V30 2851 H 284.477 5.90552 -2.66745 0
M  V30 2852 N 277.883 0.443576 1.51229 0
M  V30 2853 C 278.813 -0.355142 2.30783 0
M  V30 2854 C 279.794 -1.0154 1.36468 0
M  V30 2855 O 280.979 -1.01785 1.65389 0
M  V30 2856 C 278.109 -1.45312 3.15439 0
M  V30 2857 C 277.063 -0.916002 4.18083 0
M  V30 2858 C 276.389 -2.1102 4.91299 0
M  V30 2859 C 277.689 0.0538602 5.22272 0
M  V30 2860 H 279.383 0.308767 2.97804 0
M  V30 2861 H 276.929 0.149937 1.43217 0
M  V30 2862 H 278.882 -2.01914 3.69876 0
M  V30 2863 H 277.606 -2.14541 2.46252 0
M  V30 2864 H 276.265 -0.372145 3.64706 0
M  V30 2865 H 275.913 -2.78882 4.18609 0
M  V30 2866 H 275.613 -1.75717 5.60712 0
M  V30 2867 H 277.137 -2.68164 5.48562 0
M  V30 2868 H 278.551 -0.422069 5.71744 0
M  V30 2869 H 276.948 0.319776 5.99247 0
M  V30 2870 H 278.018 0.98858 4.74716 0
M  V30 2871 N 279.361 -1.56624 0.175154 0
M  V30 2872 C 280.609 -1.96609 -0.467885 0
M  V30 2873 C 280.93 -1.06238 -1.63519 0
M  V30 2874 O 280.2 -0.129523 -1.95471 0
M  V30 2875 H 278.78 -0.726008 -0.175845 0
M  V30 2876 H 281.442 -1.93195 0.257234 0
M  V30 2877 H 280.538 -3.00989 -0.825342 0
M  V30 2878 N 280.839 0.0985539 -1.57292 0
M  V30 2879 C 282.067 0.816318 -1.90115 0
M  V30 2880 C 282.482 1.72451 -0.768509 0
M  V30 2881 O 281.839 1.80643 0.259687 0
M  V30 2882 C 281.89 1.63259 -3.22535 0
M  V30 2883 O 281.611 0.760934 -4.31441 0
M  V30 2884 C 283.112 2.45372 -3.69199 0
M  V30 2885 H 280.332 0.233595 -0.629027 0
M  V30 2886 H 282.876 0.0768229 -2.04356 0
M  V30 2887 H 281.031 2.32463 -3.09903 0
M  V30 2888 H 281.445 1.32595 -5.07463 0
M  V30 2889 H 282.919 2.98144 -4.64558 0
M  V30 2890 H 283.396 3.23677 -2.96867 0
M  V30 2891 H 284.002 1.81373 -3.84687 0
M  V30 2892 N 282.317 1.53212 0.369288 0
M  V30 2893 C 283.563 1.69466 1.11397 0
M  V30 2894 C 283.896 0.443257 1.89074 0
M  V30 2895 O 283.171 -0.559386 1.86282 0
M  V30 2896 C 283.454 2.9422 2.07621 0
M  V30 2897 C 283.307 4.29508 1.33577 0
M  V30 2898 C 284.626 3.14565 3.07794 0
M  V30 2899 H 281.745 0.616667 0.403597 0
M  V30 2900 H 284.387 1.85845 0.395179 0
M  V30 2901 H 282.537 2.80387 2.68916 0
M  V30 2902 H 284.209 4.55147 0.750955 0
M  V30 2903 H 282.452 4.29088 0.637618 0
M  V30 2904 H 283.123 5.12926 2.03989 0
M  V30 2905 H 285.599 3.2756 2.56601 0
M  V30 2906 H 284.475 4.03297 3.72348 0
M  V30 2907 H 284.736 2.29675 3.77759 0
M  V30 2908 N 283.795 -0.628877 1.44509 0
M  V30 2909 C 285.206 -1.21054 1.42137 0
M  V30 2910 C 285.557 -1.95715 0.137881 0
M  V30 2911 O 284.682 -2.02554 -0.761645 0
M  V30 2912 C 285.277 -2.20189 2.57493 0
M  V30 2913 C 283.836 -2.73777 2.58308 0
M  V30 2914 C 282.983 -1.48813 2.33987 0
M  V30 2915 H 285.934 -0.41942 1.53057 0
M  V30 2916 H 285.955 -3.02833 2.30375 0
M  V30 2917 H 285.467 -1.6582 3.50892 0
M  V30 2918 H 283.568 -3.32142 1.68856 0
M  V30 2919 H 283.681 -3.19662 3.56865 0
M  V30 2920 H 282.045 -1.77024 1.83124 0
M  V30 2921 H 282.828 -0.963442 3.29504 0
M  V30 2922 N 285.273 -1.31445 -0.869486 0
M  V30 2923 C 286.205 -1.14955 -1.98287 0
M  V30 2924 C 287.218 -0.0885037 -1.62559 0
M  V30 2925 O 288.407 -0.336044 -1.75308 0
M  V30 2926 C 285.507 -0.734255 -3.3085 0
M  V30 2927 C 284.68 -1.88042 -3.94917 0
M  V30 2928 C 283.739 -1.4511 -5.05796 0
M  V30 2929 O 282.765 -2.16082 -5.2659 0
M  V30 2930 N 283.967 -0.338763 -5.79511 0
M  V30 2931 H 286.732 -2.10856 -2.12979 0
M  V30 2932 H 284.293 -1.23786 -1.04349 0
M  V30 2933 H 286.285 -0.42975 -4.02412 0
M  V30 2934 H 284.855 0.133158 -3.12316 0
M  V30 2935 H 284.075 -2.35222 -3.1633 0
M  V30 2936 H 285.363 -2.6481 -4.34457 0
M  V30 2937 H 284.761 0.252274 -5.65137 0
M  V30 2938 H 283.318 -0.0937925 -6.51733 0
M  V30 2939 N 286.751 1.08385 -1.14413 0
M  V30 2940 C 287.998 1.80776 -0.912482 0
M  V30 2941 C 288.326 1.86236 0.560934 0
M  V30 2942 O 287.581 1.33431 1.43159 0
M  V30 2943 C 287.88 3.26273 -1.45879 0
M  V30 2944 C 287.546 3.4093 -2.95089 0
M  V30 2945 C 286.208 3.44638 -3.35824 0
M  V30 2946 C 288.56 3.44591 -3.91033 0
M  V30 2947 C 285.888 3.49597 -4.71167 0
M  V30 2948 C 288.24 3.51086 -5.26233 0
M  V30 2949 C 286.904 3.53067 -5.6648 0
M  V30 2950 H 286.174 0.661507 -0.333901 0
M  V30 2951 H 288.821 1.27613 -1.42784 0
M  V30 2952 H 287.126 3.82146 -0.864376 0
M  V30 2953 H 288.823 3.80839 -1.2555 0
M  V30 2954 H 285.413 3.38736 -2.62594 0
M  V30 2955 H 289.597 3.40957 -3.60641 0
M  V30 2956 H 284.853 3.49424 -5.0171 0
M  V30 2957 H 289.027 3.52864 -6.00383 0
M  V30 2958 H 286.654 3.56662 -6.71339 0
M  V30 2959 N 288.23 0.939286 1.26551 0
M  V30 2960 C 289.641 0.628782 1.75793 0
M  V30 2961 C 289.992 -0.856046 1.7654 0
M  V30 2962 O 289.117 -1.66994 1.3763 0
M  V30 2963 C 289.712 1.13465 3.19235 0
M  V30 2964 C 288.271 0.874601 3.66098 0
M  V30 2965 C 287.418 1.28667 2.45642 0
M  V30 2966 H 290.369 1.1178 1.12654 0
M  V30 2967 H 290.39 0.487609 3.77363 0
M  V30 2968 H 289.902 2.21535 3.1866 0
M  V30 2969 H 288.003 -0.191793 3.72106 0
M  V30 2970 H 288.116 1.50028 4.55004 0
M  V30 2971 H 286.48 0.705109 2.44745 0
M  V30 2972 H 287.263 2.37625 2.47769 0
M  V30 2973 N 289.708 -1.40897 0.706093 0
M  V30 2974 C 291.124 -1.55042 0.37869 0
M  V30 2975 C 291.324 -1.67944 -1.11342 0
M  V30 2976 O 290.38 -1.66372 -1.89938 0
M  V30 2977 C 291.693 -2.78398 1.13643 0
M  V30 2978 C 293.241 -2.92206 1.12181 0
M  V30 2979 C 293.716 -4.18463 1.86152 0
M  V30 2980 N 295.207 -4.25443 1.83173 0
M  V30 2981 C 295.942 -5.2202 2.37239 0
M  V30 2982 N 295.438 -6.24563 2.99821 0
M  V30 2983 N 297.231 -5.14033 2.27435 0
M  V30 2984 H 289.382 -1.30769 1.67372 0
M  V30 2985 H 291.645 -0.631653 0.706907 0
M  V30 2986 H 291.351 -2.7511 2.19106 0
M  V30 2987 H 291.225 -3.70228 0.721853 0
M  V30 2988 H 293.612 -2.95004 0.0754171 0
M  V30 2989 H 293.693 -2.01521 1.57554 0
M  V30 2990 H 293.337 -4.16427 2.90776 0
M  V30 2991 H 293.267 -5.08141 1.38206 0
M  V30 2992 H 295.758 -3.51976 1.37556 0
M  V30 2993 H 296.071 -6.94665 3.38616 0
M  V30 2994 H 294.416 -6.25035 3.03902 0
M  V30 2995 H 297.607 -4.3285 1.78208 0
M  V30 2996 H 297.78 -5.89129 2.69873 0
M  V30 2997 N 291.186 -0.45159 -1.50991 0
M  V30 2998 C 292.149 0.341117 -2.26647 0
M  V30 2999 C 293.149 0.937422 -1.30649 0
M  V30 3000 O 294.339 0.809644 -1.54241 0
M  V30 3001 C 291.471 1.48398 -3.06905 0
M  V30 3002 H 292.664 -0.322117 -2.98165 0
M  V30 3003 H 290.217 -0.205122 -1.54948 0
M  V30 3004 H 290.952 2.18284 -2.39838 0
M  V30 3005 H 290.737 1.06241 -3.77432 0
M  V30 3006 H 292.227 2.04367 -3.64176 0
M  V30 3007 N 292.664 1.56529 -0.183458 0
M  V30 3008 C 293.904 1.99141 0.460667 0
M  V30 3009 C 294.268 1.06736 1.59597 0
M  V30 3010 O 295.469 1.38538 2.30349 0
M  V30 3011 C 293.74 3.45358 0.919939 0
M  V30 3012 S 295.299 4.09999 1.56354 0
M  V30 3013 H 292.117 0.695479 0.147748 0
M  V30 3014 H 294.719 1.93429 -0.283782 0
M  V30 3015 H 293.423 4.10315 0.0834208 0
M  V30 3016 H 292.954 3.54862 1.69814 0
M  V30 3017 H 294.969 4.06046 2.85203 0
M  V30 3018 N 294.142 -0.090211 1.57342 0
M  V30 3019 C 295.37 -0.806224 1.90546 0
M  V30 3020 C 295.785 -1.72041 0.777644 0
M  V30 3021 O 295.142 -1.80778 -0.250103 0
M  V30 3022 C 295.193 -1.61546 3.23396 0
M  V30 3023 O 294.914 -0.738043 4.31839 0
M  V30 3024 C 296.415 -2.4341 3.70495 0
M  V30 3025 H 293.635 -0.230256 0.630257 0
M  V30 3026 H 296.179 -0.0659843 2.04394 0
M  V30 3027 H 294.334 -2.30816 3.11131 0
M  V30 3028 H 294.748 -1.29901 5.08159 0
M  V30 3029 H 296.222 -2.95676 4.66133 0
M  V30 3030 H 296.699 -3.22098 2.98579 0
M  V30 3031 H 297.305 -1.79331 3.85643 0
M  V30 3032 N 295.62 -1.53406 -0.361157 0
M  V30 3033 C 296.53 -1.83122 -1.4664 0
M  V30 3034 C 297.546 -0.719943 -1.58407 0
M  V30 3035 O 298.722 -1.01046 -1.74218 0
M  V30 3036 C 295.787 -2.01891 -2.81853 0
M  V30 3037 C 294.848 -3.25784 -2.79577 0
M  V30 3038 C 294.081 -3.43648 -4.0834 0
M  V30 3039 O 294.304 -2.65714 -5.0473 0
M  V30 3040 O 293.238 -4.37018 -4.13883 0
M  V30 3041 H 297.064 -2.7703 -1.24451 0
M  V30 3042 H 294.649 -1.38841 -0.551678 0
M  V30 3043 H 296.531 -2.15782 -3.61962 0
M  V30 3044 H 295.206 -1.11173 -3.0401 0
M  V30 3045 H 294.113 -3.17312 -1.98151 0
M  V30 3046 H 295.446 -4.16439 -2.62373 0
M  V30 3047 N 297.098 0.621204 -1.44841 0
M  V30 3048 C 298.061 1.71459 -1.521 0
M  V30 3049 C 299.061 1.55696 -0.401933 0
M  V30 3050 O 300.251 1.61011 -0.664925 0
M  V30 3051 C 297.383 3.10624 -1.40447 0
M  V30 3052 H 298.576 1.66394 -2.49506 0
M  V30 3053 H 296.129 0.835745 -1.3208 0
M  V30 3054 H 296.864 3.21277 -0.441737 0
M  V30 3055 H 296.649 3.23473 -2.21602 0
M  V30 3056 H 298.139 3.90293 -1.4853 0
M  V30 3057 N 298.576 1.31904 0.862503 0
M  V30 3058 C 299.486 1.22161 2.00285 0
M  V30 3059 C 300.502 0.136785 1.73462 0
M  V30 3060 O 301.678 0.355994 1.98229 0
M  V30 3061 C 298.743 0.937093 3.33796 0
M  V30 3062 C 297.804 2.10957 3.73893 0
M  V30 3063 C 297.037 1.83853 5.01033 0
M  V30 3064 O 297.26 0.777274 5.65079 0
M  V30 3065 O 296.194 2.69741 5.38074 0
M  V30 3066 H 300.02 2.18008 2.11439 0
M  V30 3067 H 297.605 1.11716 0.991957 0
M  V30 3068 H 299.487 0.794583 4.13841 0
M  V30 3069 H 298.162 0.00871894 3.23699 0
M  V30 3070 H 297.069 2.30752 2.94456 0
M  V30 3071 H 298.402 3.02046 3.88625 0
M  V30 3072 N 300.054 -1.07777 1.14986 0
M  V30 3073 C 301.301 -1.8029 0.922056 0
M  V30 3074 C 301.629 -1.86531 -0.55105 0
M  V30 3075 O 300.884 -1.34189 -1.42449 0
M  V30 3076 C 301.183 -3.25495 1.47608 0
M  V30 3077 C 300.849 -3.39361 2.96893 0
M  V30 3078 C 299.511 -3.42852 3.37647 0
M  V30 3079 C 301.863 -3.42512 3.92854 0
M  V30 3080 C 299.191 -3.47094 4.73015 0
M  V30 3081 C 301.543 -3.4829 5.28088 0
M  V30 3082 C 300.207 -3.50058 5.68345 0
M  V30 3083 H 299.477 -0.659727 0.337404 0
M  V30 3084 H 302.124 -1.26854 1.43459 0
M  V30 3085 H 300.429 -3.81683 0.88463 0
M  V30 3086 H 302.126 -3.80168 1.27568 0
M  V30 3087 H 298.716 -3.37339 2.64387 0
M  V30 3088 H 302.9 -3.3904 3.62444 0
M  V30 3089 H 298.156 -3.46758 5.03556 0
M  V30 3090 H 302.33 -3.49675 6.02246 0
M  V30 3091 H 299.957 -3.53097 6.73221 0
M  V30 3092 N 301.532 -0.945985 -1.26051 0
M  V30 3093 C 302.495 -0.463897 -2.24456 0
M  V30 3094 C 303.495 0.427655 -1.55009 0
M  V30 3095 O 304.685 0.226157 -1.72726 0
M  V30 3096 C 301.817 0.330812 -3.39291 0
M  V30 3097 H 303.01 -1.33357 -2.68619 0
M  V30 3098 H 300.563 -0.728416 -1.38289 0
M  V30 3099 H 301.298 1.21852 -3.00537 0
M  V30 3100 H 301.083 -0.308679 -3.90883 0
M  V30 3101 H 302.573 0.657865 -4.12386 0
M  V30 3102 N 303.011 1.40521 -0.713556 0
M  V30 3103 C 304.251 2.02783 -0.256584 0
M  V30 3104 C 304.615 1.55352 1.12827 0
M  V30 3105 O 305.816 2.09663 1.68211 0
M  V30 3106 C 304.087 3.5586 -0.331414 0
M  V30 3107 S 305.646 4.38773 0.0488703 0
M  V30 3108 H 302.464 0.703655 -0.101934 0
M  V30 3109 H 305.066 1.71674 -0.935325 0
M  V30 3110 H 303.77 3.87874 -1.34098 0
M  V30 3111 H 303.301 3.91695 0.365873 0
M  V30 3112 H 305.316 4.79633 1.2715 0
M  V30 3113 N 304.489 0.459591 1.5075 0
M  V30 3114 C 305.439 -0.358926 2.25157 0
M  V30 3115 C 306.423 -0.971285 1.28276 0
M  V30 3116 O 307.615 -0.885739 1.53244 0
M  V30 3117 C 304.744 -1.44695 3.11317 0
M  V30 3118 C 303.83 -0.842894 4.15639 0
M  V30 3119 N 304.221 0.0299373 5.05791 0
M  V30 3120 C 302.519 -1.10809 4.32015 0
M  V30 3121 C 303.22 0.371563 5.80512 0
M  V30 3122 N 302.196 -0.250409 5.43023 0
M  V30 3123 H 305.998 0.313636 2.92222 0
M  V30 3124 H 303.512 0.273021 1.60089 0
M  V30 3125 H 305.509 -2.04641 3.63218 0
M  V30 3126 H 304.169 -2.12162 2.45799 0
M  V30 3127 H 305.18 0.39797 5.16369 0
M  V30 3128 H 301.857 -1.7786 3.77719 0
M  V30 3129 H 303.247 1.08319 6.63111 0
M  V30 3130 N 305.967 -1.56429 0.191757 0
M  V30 3131 C 307.192 -2.02309 -0.456706 0
M  V30 3132 C 307.617 -1.07103 -1.5463 0
M  V30 3133 O 306.975 -0.0539677 -1.8122 0
M  V30 3134 C 307.023 -3.46654 -0.993159 0
M  V30 3135 O 306.127 -3.54559 -2.10622 0
M  V30 3136 H 305.468 -0.655303 -0.107114 0
M  V30 3137 H 307.998 -2.02364 0.301653 0
M  V30 3138 H 308.008 -3.86377 -1.31061 0
M  V30 3139 H 306.683 -4.1544 -0.195504 0
M  V30 3140 H 305.26 -3.26708 -1.79767 0
M  V30 3141 N 307.445 0.0818655 -1.57387 0
M  V30 3142 C 308.675 0.794954 -1.90694 0
M  V30 3143 C 309.083 1.72147 -0.784982 0
M  V30 3144 O 308.426 1.81974 0.251196 0
M  V30 3145 C 308.488 1.65042 -3.19376 0
M  V30 3146 C 308.152 0.894337 -4.48164 0
M  V30 3147 C 309.149 0.21813 -5.19442 0
M  V30 3148 C 306.834 0.864495 -4.94805 0
M  V30 3149 C 308.828 -0.477802 -6.35607 0
M  V30 3150 C 306.515 0.164785 -6.10878 0
M  V30 3151 C 307.513 -0.505173 -6.81129 0
M  V30 3152 O 307.201 -1.19363 -7.94989 0
M  V30 3153 H 306.933 0.231779 -0.635023 0
M  V30 3154 H 309.487 0.059493 -2.05314 0
M  V30 3155 H 307.717 2.42844 -3.00938 0
M  V30 3156 H 309.406 2.24127 -3.38411 0
M  V30 3157 H 310.172 0.232558 -4.84442 0
M  V30 3158 H 306.051 1.37542 -4.40004 0
M  V30 3159 H 309.595 -1.00129 -6.90377 0
M  V30 3160 H 305.492 0.148249 -6.4533 0
M  V30 3161 H 306.26 -1.10188 -8.11049 0
M  V30 3162 N 308.923 1.53595 0.353017 0
M  V30 3163 C 309.871 1.81605 1.45335 0
M  V30 3164 C 310.865 0.685923 1.54892 0
M  V30 3165 O 312.071 0.869095 1.57628 0
M  V30 3166 H 308.446 0.575204 0.484401 0
M  V30 3167 H 310.417 2.73679 1.18921 0
M  V30 3168 C 309.166 2.03406 2.81995 0
M  V30 3169 H 308.489 2.89814 2.75405 0
M  V30 3170 H 309.929 2.26975 3.58132 0
M  V30 3171 C 308.388 0.816794 3.26849 0
M  V30 3172 O 308.918 0.0115856 4.01698 0
M  V30 3173 N 307.124 0.636682 2.8354 0
M  V30 3174 H 306.671 1.2931 2.22793 0
M  V30 3175 H 306.629 -0.176336 3.13905 0
M  V30 3176 N 310.401 -0.613514 1.45168 0
M  V30 3177 C 311.311 -1.75296 1.55912 0
M  V30 3178 C 312.327 -1.68244 0.443856 0
M  V30 3179 O 313.503 -1.88706 0.70371 0
M  V30 3180 C 310.568 -3.1174 1.5172 0
M  V30 3181 C 309.629 -3.30291 2.74238 0
M  V30 3182 C 308.862 -4.60226 2.70236 0
M  V30 3183 O 309.085 -5.42168 1.77229 0
M  V30 3184 O 308.019 -4.81361 3.61352 0
M  V30 3185 H 311.845 -1.69183 2.52212 0
M  V30 3186 H 309.43 -0.776886 1.27612 0
M  V30 3187 H 311.312 -3.93044 1.51968 0
M  V30 3188 H 309.987 -3.18357 0.585697 0
M  V30 3189 H 308.894 -2.48598 2.79553 0
M  V30 3190 H 310.227 -3.28547 3.66494 0
M  V30 3191 N 311.879 -1.3236 -0.855495 0
M  V30 3192 C 313.119 -1.24187 -1.62348 0
M  V30 3193 C 313.483 0.193597 -1.91021 0
M  V30 3194 O 314.684 0.39904 -2.65822 0
M  V30 3195 C 312.955 -2.07661 -2.90881 0
M  V30 3196 S 314.514 -2.16505 -3.81669 0
M  V30 3197 H 311.332 -0.442076 -0.556857 0
M  V30 3198 H 313.934 -1.67198 -1.01317 0
M  V30 3199 H 312.638 -3.11018 -2.67761 0
M  V30 3200 H 312.169 -1.65425 -3.56929 0
M  V30 3201 H 314.184 -1.31394 -4.78487 0
M  V30 3202 N 313.357 1.07166 -1.15556 0
M  V30 3203 C 314.603 1.80065 -0.932984 0
M  V30 3204 C 314.936 1.86586 0.53845 0
M  V30 3205 O 314.211 1.35098 1.39924 0
M  V30 3206 C 314.494 3.25022 -1.55025 0
M  V30 3207 C 314.347 3.26634 -3.09242 0
M  V30 3208 C 315.666 4.22341 -1.2376 0
M  V30 3209 H 312.785 0.653697 -0.340366 0
M  V30 3210 H 315.427 1.25389 -1.4275 0
M  V30 3211 H 313.577 3.71712 -1.12972 0
M  V30 3212 H 315.249 2.88173 -3.60214 0
M  V30 3213 H 313.492 2.65539 -3.43033 0
M  V30 3214 H 314.163 4.28854 -3.47546 0
M  V30 3215 H 316.639 3.8405 -1.60139 0
M  V30 3216 H 315.515 5.22053 -1.69564 0
M  V30 3217 H 315.776 4.41828 -0.154938 0
M  V30 3218 N 314.835 0.952656 1.25548 0
M  V30 3219 C 315.798 0.475794 2.24207 0
M  V30 3220 C 316.798 -0.419428 1.55234 0
M  V30 3221 O 317.988 -0.216994 1.72843 0
M  V30 3222 C 315.12 -0.312814 3.39462 0
M  V30 3223 H 316.313 1.34779 2.67908 0
M  V30 3224 H 313.866 0.735739 1.37901 0
M  V30 3225 H 314.601 -1.20257 3.01179 0
M  V30 3226 H 314.386 0.329404 3.90714 0
M  V30 3227 H 315.876 -0.635986 4.12729 0
M  V30 3228 N 316.313 -1.40141 0.720998 0
M  V30 3229 C 317.243 -2.33339 0.0867621 0
M  V30 3230 C 318.224 -1.53178 -0.739622 0
M  V30 3231 O 319.409 -1.81625 -0.687449 0
M  V30 3232 C 316.539 -3.37194 -0.831728 0
M  V30 3233 C 315.493 -4.27857 -0.110558 0
M  V30 3234 C 314.819 -5.22294 -1.14513 0
M  V30 3235 C 316.119 -5.11872 1.0385 0
M  V30 3236 H 317.813 -2.86626 0.865219 0
M  V30 3237 H 315.359 -1.37814 0.417516 0
M  V30 3238 H 317.312 -4.01335 -1.28485 0
M  V30 3239 H 316.036 -2.82314 -1.64214 0
M  V30 3240 H 314.695 -3.65176 0.322797 0
M  V30 3241 H 314.343 -4.63717 -1.94874 0
M  V30 3242 H 314.043 -5.83797 -0.667446 0
M  V30 3243 H 315.567 -5.89312 -1.59824 0
M  V30 3244 H 316.981 -5.69436 0.664482 0
M  V30 3245 H 315.378 -5.82445 1.4449 0
M  V30 3246 H 316.448 -4.4753 1.86668 0
M  V30 3247 N 317.792 -0.46758 -1.50504 0
M  V30 3248 C 318.702 0.33382 -2.32213 0
M  V30 3249 C 319.718 0.999323 -1.42441 0
M  V30 3250 O 320.894 0.988068 -1.75497 0
M  V30 3251 C 317.959 1.4035 -3.17022 0
M  V30 3252 C 317.02 0.754961 -4.2261 0
M  V30 3253 C 316.253 1.77367 -5.03365 0
M  V30 3254 O 316.476 2.99976 -4.8515 0
M  V30 3255 O 315.41 1.34744 -5.86624 0
M  V30 3256 H 319.236 -0.334067 -3.01857 0
M  V30 3257 H 316.821 -0.229496 -1.47627 0
M  V30 3258 H 318.703 2.02318 -3.69656 0
M  V30 3259 H 317.378 2.05492 -2.5011 0
M  V30 3260 H 316.285 0.0964244 -3.73976 0
M  V30 3261 H 317.618 0.146545 -4.91982 0
M  V30 3262 N 319.27 1.56325 -0.20005 0
M  V30 3263 C 320.5 2.01811 0.442232 0
M  V30 3264 C 320.908 1.07932 1.55394 0
M  V30 3265 O 320.251 0.0772685 1.83537 0
M  V30 3266 C 320.313 3.43685 1.05457 0
M  V30 3267 C 319.977 4.56928 0.0809833 0
M  V30 3268 C 320.974 5.15009 -0.711471 0
M  V30 3269 C 318.659 5.0229 -0.0315364 0
M  V30 3270 C 320.653 6.16904 -1.60336 0
M  V30 3271 C 318.34 6.04028 -0.926981 0
M  V30 3272 C 319.338 6.6121 -1.71146 0
M  V30 3273 O 319.026 7.60971 -2.59189 0
M  V30 3274 H 318.758 0.666173 0.114848 0
M  V30 3275 H 321.312 2.03085 -0.307511 0
M  V30 3276 H 319.542 3.39413 1.85299 0
M  V30 3277 H 321.231 3.72948 1.60201 0
M  V30 3278 H 321.997 4.80827 -0.634873 0
M  V30 3279 H 317.876 4.57476 0.568902 0
M  V30 3280 H 321.42 6.61464 -2.21611 0
M  V30 3281 H 317.317 6.37634 -1.00468 0
M  V30 3282 H 318.085 7.7841 -2.53023 0
M  V30 3283 N 320.748 -0.0735177 1.57428 0
M  V30 3284 C 322.164 -0.428264 1.53747 0
M  V30 3285 C 322.364 -1.79272 0.91998 0
M  V30 3286 O 321.42 -2.47051 0.521745 0
M  V30 3287 C 322.733 -0.370914 2.98404 0
M  V30 3288 C 324.281 -0.451224 3.0973 0
M  V30 3289 C 324.756 -0.4238 4.56035 0
M  V30 3290 N 326.247 -0.483925 4.60665 0
M  V30 3291 C 326.982 -0.484891 5.71346 0
M  V30 3292 N 326.478 -0.440775 6.91396 0
M  V30 3293 N 328.271 -0.531319 5.59583 0
M  V30 3294 H 320.422 0.819949 1.95935 0
M  V30 3295 H 322.685 0.307493 0.896745 0
M  V30 3296 H 322.391 0.564956 3.47133 0
M  V30 3297 H 322.265 -1.18176 3.5821 0
M  V30 3298 H 324.652 -1.37752 2.60976 0
M  V30 3299 H 324.733 0.388167 2.52838 0
M  V30 3300 H 324.377 0.498638 5.05446 0
M  V30 3301 H 324.307 -1.2807 5.10789 0
M  V30 3302 H 326.798 -0.522338 3.74273 0
M  V30 3303 H 327.111 -0.44539 7.71515 0
M  V30 3304 H 325.456 -0.40749 6.93804 0
M  V30 3305 H 328.647 -0.563464 4.64696 0
M  V30 3306 H 328.82 -0.528603 6.4584 0
M  V30 3307 N 322.226 -1.5378 -0.344866 0
M  V30 3308 C 323.466 -1.72677 -1.09371 0
M  V30 3309 C 323.83 -0.479084 -1.85927 0
M  V30 3310 O 325.031 -0.54505 -2.63216 0
M  V30 3311 C 323.302 -2.95457 -2.01097 0
M  V30 3312 S 324.861 -3.35158 -2.83222 0
M  V30 3313 H 321.679 -0.607402 -0.369573 0
M  V30 3314 H 324.281 -1.91922 -0.372307 0
M  V30 3315 H 322.985 -3.84437 -1.43655 0
M  V30 3316 H 322.516 -2.78673 -2.77678 0
M  V30 3317 H 324.531 -2.88789 -4.03504 0
M  V30 3318 N 323.704 0.605807 -1.45491 0
M  V30 3319 C 324.981 1.36522 -1.40075 0
M  V30 3320 C 325.361 2.10976 -0.0722744 0
M  V30 3321 O 324.709 2.08007 0.945808 0
M  V30 3322 C 324.919 2.31056 -2.61561 0
M  V30 3323 C 326.267 2.93608 -3.06724 0
M  V30 3324 O 327.291 2.41376 -2.61946 0
M  V30 3325 O 326.15 3.88421 -3.84437 0
M  V30 3326 H 323.244 0.612248 -0.555951 0
M  V30 3327 H 325.79 0.628747 -1.57623 0
M  V30 3328 H 324.562 1.75311 -3.49831 0
M  V30 3329 H 324.185 3.12081 -2.46356 0
M  V30 3330 N 325.182 1.32811 0.848464 0
M  V30 3331 C 326.598 1.11937 1.13764 0
M  V30 3332 C 326.798 -0.0960789 2.01271 0
M  V30 3333 O 325.854 -0.779165 2.40178 0
M  V30 3334 C 327.167 2.402 1.809 0
M  V30 3335 C 328.715 2.46016 1.93508 0
M  V30 3336 C 329.19 3.74215 2.64059 0
M  V30 3337 N 330.681 3.75232 2.71579 0
M  V30 3338 C 331.416 4.71134 3.26833 0
M  V30 3339 N 330.912 5.77406 3.8285 0
M  V30 3340 N 332.705 4.58623 3.24995 0
M  V30 3341 H 324.856 2.1073 0.265855 0
M  V30 3342 H 327.119 0.930671 0.180431 0
M  V30 3343 H 326.825 3.29093 1.24058 0
M  V30 3344 H 326.699 2.51628 2.81004 0
M  V30 3345 H 329.086 1.57577 2.49506 0
M  V30 3346 H 329.167 2.38536 0.923811 0
M  V30 3347 H 328.811 4.63031 2.08722 0
M  V30 3348 H 328.741 3.78968 3.65637 0
M  V30 3349 H 331.232 2.98423 2.31845 0
M  V30 3350 H 331.545 6.46632 4.23187 0
M  V30 3351 H 329.89 5.81152 3.81165 0
M  V30 3352 H 333.081 3.74762 2.80484 0
M  V30 3353 H 333.254 5.33535 3.67756 0
M  V30 3354 N 326.66 -1.06551 1.16123 0
M  V30 3355 C 328.076 -1.3142 0.905585 0
M  V30 3356 C 328.276 -1.96571 -0.442964 0
M  V30 3357 O 327.332 -2.23068 -1.18308 0
M  V30 3358 C 328.645 -2.19741 2.05267 0
M  V30 3359 C 330.193 -2.33165 2.08813 0
M  V30 3360 C 330.668 -3.24838 3.22868 0
M  V30 3361 N 332.159 -3.32421 3.22568 0
M  V30 3362 C 332.894 -4.0344 4.0746 0
M  V30 3363 N 332.39 -4.77003 5.02434 0
M  V30 3364 N 334.183 -3.99464 3.95456 0
M  V30 3365 H 326.334 -0.626548 2.02949 0
M  V30 3366 H 328.597 -0.338777 0.8854 0
M  V30 3367 H 328.303 -1.79142 3.02657 0
M  V30 3368 H 328.177 -3.20313 1.99198 0
M  V30 3369 H 330.564 -2.73013 1.12018 0
M  V30 3370 H 330.645 -1.3227 2.18948 0
M  V30 3371 H 330.289 -2.85708 4.19921 0
M  V30 3372 H 330.219 -4.25707 3.0997 0
M  V30 3373 H 332.71 -2.79994 2.53795 0
M  V30 3374 H 333.023 -5.28712 5.63634 0
M  V30 3375 H 331.368 -4.75992 5.06415 0
M  V30 3376 H 334.559 -3.4111 3.20564 0
M  V30 3377 H 334.732 -4.54544 4.61837 0
M  V30 3378 N 328.138 -0.959301 -1.25041 0
M  V30 3379 C 329.549 -0.65667 -1.74771 0
M  V30 3380 C 329.9 0.827852 -1.77879 0
M  V30 3381 O 329.025 1.64783 -1.40269 0
M  V30 3382 C 329.62 -1.1853 -3.1739 0
M  V30 3383 C 328.179 -0.932734 -3.6466 0
M  V30 3384 C 327.326 -1.32558 -2.43564 0
M  V30 3385 H 330.277 -1.13558 -1.10862 0
M  V30 3386 H 330.298 -0.547582 -3.76539 0
M  V30 3387 H 329.81 -2.26576 -3.15095 0
M  V30 3388 H 327.911 0.13257 -3.72364 0
M  V30 3389 H 328.024 -1.57248 -4.52559 0
M  V30 3390 H 326.388 -0.743956 -2.43593 0
M  V30 3391 H 327.171 -2.41537 -2.43957 0
M  V30 3392 N 329.616 1.39756 -0.72842 0
M  V30 3393 C 330.893 1.94574 -0.200079 0
M  V30 3394 C 331.273 1.66569 1.29684 0
M  V30 3395 O 330.621 0.990326 2.05924 0
M  V30 3396 C 330.831 3.45004 -0.526608 0
M  V30 3397 C 332.179 4.21965 -0.472318 0
M  V30 3398 O 333.203 3.53173 -0.463413 0
M  V30 3399 O 332.062 5.44552 -0.461075 0
M  V30 3400 H 329.156 0.826289 -0.0342851 0
M  V30 3401 H 331.702 1.49293 -0.806829 0
M  V30 3402 H 330.474 3.58796 -1.56144 0
M  V30 3403 H 330.097 3.97449 0.109449 0
M  V30 3404 N 331.094 0.475555 1.50254 0
M  V30 3405 C 332.334 -0.0765802 2.04256 0
M  V30 3406 C 332.698 -1.36587 1.34937 0
M  V30 3407 O 333.899 -2.00066 1.79519 0
M  V30 3408 C 332.17 -0.251668 3.56513 0
M  V30 3409 S 333.729 -0.761716 4.32138 0
M  V30 3410 H 330.547 -0.0138456 0.710865 0
M  V30 3411 H 333.149 0.643714 1.84598 0
M  V30 3412 H 331.853 0.692404 4.04517 0
M  V30 3413 H 331.384 -0.997946 3.80532 0
M  V30 3414 H 333.399 -2.03451 4.52573 0
M  V30 3415 N 332.573 -1.56217 0.208337 0
M  V30 3416 C 333.989 -1.58919 -0.14729 0
M  V30 3417 C 334.189 -1.22486 -1.59998 0
M  V30 3418 O 333.245 -0.953849 -2.3379 0
M  V30 3419 C 334.558 -3.00236 0.167048 0
M  V30 3420 C 336.106 -3.12813 0.108219 0
M  V30 3421 C 336.581 -4.56284 0.396049 0
M  V30 3422 N 338.072 -4.61912 0.345142 0
M  V30 3423 C 338.807 -5.70837 0.541523 0
M  V30 3424 N 338.303 -6.88178 0.798968 0
M  V30 3425 N 340.096 -5.60091 0.474867 0
M  V30 3426 H 332.247 -1.78177 1.15614 0
M  V30 3427 H 334.51 -0.827555 0.462446 0
M  V30 3428 H 334.216 -3.31499 1.1748 0
M  V30 3429 H 334.09 -3.7354 -0.524184 0
M  V30 3430 H 336.477 -2.81354 -0.890157 0
M  V30 3431 H 336.558 -2.41866 0.832729 0
M  V30 3432 H 336.202 -4.88458 1.3918 0
M  V30 3433 H 336.132 -5.25439 -0.349502 0
M  V30 3434 H 338.623 -3.77589 0.153316 0
M  V30 3435 H 338.936 -7.67095 0.93727 0
M  V30 3436 H 337.281 -6.89953 0.836013 0
M  V30 3437 H 340.472 -4.67297 0.274064 0
M  V30 3438 H 340.645 -6.44917 0.631326 0
M  V30 3439 N 334.051 0.0651679 -1.57465 0
M  V30 3440 C 335.328 0.79644 -1.78651 0
M  V30 3441 C 335.708 1.95454 -0.797566 0
M  V30 3442 O 335.056 2.27882 0.167946 0
M  V30 3443 C 335.266 1.26322 -3.25337 0
M  V30 3444 C 336.614 1.6939 -3.89348 0
M  V30 3445 O 337.638 1.35872 -3.29268 0
M  V30 3446 O 336.497 2.31471 -4.95059 0
M  V30 3447 H 333.591 0.382157 -0.733407 0
M  V30 3448 H 336.137 0.0447311 -1.69641 0
M  V30 3449 H 334.909 0.434859 -3.88876 0
M  V30 3450 H 334.532 2.07604 -3.39096 0
M  V30 3451 N 335.529 1.53961 0.336706 0
M  V30 3452 C 336.462 1.77255 1.43722 0
M  V30 3453 C 337.44 0.62193 1.50236 0
M  V30 3454 O 338.624 0.857874 1.67847 0
M  V30 3455 C 335.751 1.87733 2.81912 0
M  V30 3456 C 334.797 3.09933 2.92991 0
M  V30 3457 S 335.63 4.68836 2.58753 0
M  V30 3458 C 336.786 4.82202 3.99039 0
M  V30 3459 H 337.019 2.70322 1.23748 0
M  V30 3460 H 334.552 1.44917 0.532777 0
M  V30 3461 H 336.51 1.94455 3.61521 0
M  V30 3462 H 335.171 0.956666 2.99177 0
M  V30 3463 H 334.364 3.1396 3.94265 0
M  V30 3464 H 333.966 3.01472 2.21338 0
M  V30 3465 H 336.258 4.64032 4.9364 0
M  V30 3466 H 337.201 5.84298 4.00002 0
M  V30 3467 H 337.609 4.10604 3.87382 0
M  V30 3468 N 337.007 -0.598083 1.45811 0
M  V30 3469 C 338.232 -1.3881 1.54099 0
M  V30 3470 C 338.657 -1.8726 0.177578 0
M  V30 3471 O 338.015 -1.6069 -0.839541 0
M  V30 3472 C 338.063 -2.56217 2.53743 0
M  V30 3473 O 337.167 -3.5716 2.06182 0
M  V30 3474 H 336.508 -0.414024 0.519115 0
M  V30 3475 H 339.038 -0.726971 1.91249 0
M  V30 3476 H 339.048 -3.03337 2.72856 0
M  V30 3477 H 337.723 -2.20303 3.5276 0
M  V30 3478 H 336.3 -3.16624 1.96987 0
M  V30 3479 N 338.485 -1.33259 -0.841409 0
M  V30 3480 C 339.762 -1.15174 -1.58096 0
M  V30 3481 C 340.142 0.282858 -2.09196 0
M  V30 3482 O 339.49 1.28151 -1.89181 0
M  V30 3483 C 339.7 -2.1907 -2.71679 0
M  V30 3484 C 341.048 -2.53093 -3.40924 0
M  V30 3485 O 342.072 -2.17717 -2.81918 0
M  V30 3486 O 340.931 -3.1379 -4.47435 0
M  V30 3487 H 338.025 -0.445303 -0.696875 0
M  V30 3488 H 340.571 -1.44833 -0.884385 0
M  V30 3489 H 339.343 -3.15443 -2.31541 0
M  V30 3490 H 338.966 -1.90481 -3.49002 0
M  V30 3491 N 339.963 1.05934 -1.16686 0
M  V30 3492 C 340.873 2.17014 -0.891183 0
M  V30 3493 C 341.889 1.73453 0.137907 0
M  V30 3494 O 343.065 2.01361 -0.039592 0
M  V30 3495 C 340.13 3.44384 -0.400099 0
M  V30 3496 C 339.191 4.02433 -1.49486 0
M  V30 3497 C 338.424 5.23723 -1.02711 0
M  V30 3498 O 338.647 5.7027 0.121716 0
M  V30 3499 O 337.581 5.7382 -1.81699 0
M  V30 3500 H 341.407 2.43113 -1.82015 0
M  V30 3501 H 338.992 1.15541 -0.947132 0
M  V30 3502 H 340.874 4.21189 -0.133392 0
M  V30 3503 H 339.549 3.19802 0.500817 0
M  V30 3504 H 338.456 3.27102 -1.81535 0
M  V30 3505 H 339.789 4.31317 -2.37121 0
M  V30 3506 N 341.441 0.965919 1.2453 0
M  V30 3507 C 342.371 0.513476 2.27784 0
M  V30 3508 C 343.352 -0.445974 1.6415 0
M  V30 3509 O 344.537 -0.342485 1.91156 0
M  V30 3510 C 341.667 -0.198839 3.4673 0
M  V30 3511 C 340.621 0.676456 4.2262 0
M  V30 3512 C 339.947 -0.167248 5.34438 0
M  V30 3513 C 341.247 1.96017 4.84123 0
M  V30 3514 H 342.941 1.3765 2.65881 0
M  V30 3515 H 340.487 0.663321 1.27813 0
M  V30 3516 H 342.44 -0.526567 4.18097 0
M  V30 3517 H 341.164 -1.0962 3.07654 0
M  V30 3518 H 339.823 0.98743 3.53052 0
M  V30 3519 H 339.471 -1.0647 4.91603 0
M  V30 3520 H 339.171 0.415181 5.86131 0
M  V30 3521 H 340.695 -0.489688 6.08633 0
M  V30 3522 H 342.109 1.69814 5.47573 0
M  V30 3523 H 340.506 2.48918 5.4604 0
M  V30 3524 H 341.576 2.65622 4.05676 0
M  V30 3525 N 342.919 -1.39368 0.735821 0
M  V30 3526 C 343.867 -2.32443 0.0855131 0
M  V30 3527 C 344.861 -1.53104 -0.724954 0
M  V30 3528 O 346.067 -1.68762 -0.626047 0
M  V30 3529 H 342.442 -0.751948 0.00885257 0
M  V30 3530 H 344.413 -2.84916 0.886883 0
M  V30 3531 C 343.162 -3.38206 -0.806983 0
M  V30 3532 H 342.485 -3.99335 -0.19274 0
M  V30 3533 H 343.925 -4.05779 -1.2296 0
M  V30 3534 C 342.384 -2.75321 -1.94165 0
M  V30 3535 O 342.914 -2.63231 -3.03435 0
M  V30 3536 N 341.12 -2.33396 -1.73132 0
M  V30 3537 H 340.667 -2.4343 -0.842596 0
M  V30 3538 H 340.625 -1.91661 -2.49225 0
M  V30 3539 N 344.397 -0.483516 -1.5 0
M  V30 3540 C 345.637 0.0657469 -2.04294 0
M  V30 3541 C 346.001 1.35869 -1.35659 0
M  V30 3542 O 347.202 1.99111 -1.80578 0
M  V30 3543 C 345.473 0.232758 -3.56641 0
M  V30 3544 S 347.032 0.738788 -4.32536 0
M  V30 3545 H 343.85 0.0100755 -0.710929 0
M  V30 3546 H 346.452 -0.653494 -1.84254 0
M  V30 3547 H 345.156 -0.713847 -4.04144 0
M  V30 3548 H 344.687 0.977751 -3.81056 0
M  V30 3549 H 346.702 2.01048 -4.53645 0
M  V30 3550 N 345.875 1.56104 -0.216619 0
M  V30 3551 C 346.785 2.23694 0.706982 0
M  V30 3552 C 347.801 1.24295 1.21765 0
M  V30 3553 O 348.977 1.57094 1.2603 0
M  V30 3554 C 346.042 2.8998 1.90033 0
M  V30 3555 C 345.103 4.04708 1.43213 0
M  V30 3556 C 344.336 4.67824 2.56859 0
M  V30 3557 O 344.559 4.29913 3.74874 0
M  V30 3558 O 343.493 5.56905 2.28343 0
M  V30 3559 H 347.319 3.03272 0.161235 0
M  V30 3560 H 344.904 1.49394 0.0136177 0
M  V30 3561 H 346.786 3.31837 2.59735 0
M  V30 3562 H 345.461 2.13365 2.43428 0
M  V30 3563 H 344.368 3.6743 0.70327 0
M  V30 3564 H 345.701 4.83051 0.944615 0
M  V30 3565 N 347.353 -0.0568162 1.57498 0
M  V30 3566 C 348.263 -1.08346 2.08083 0
M  V30 3567 C 349.279 -1.41439 1.01346 0
M  V30 3568 O 350.455 -1.51316 1.32912 0
M  V30 3569 C 347.52 -2.37352 2.52715 0
M  V30 3570 C 346.581 -2.11093 3.73816 0
M  V30 3571 C 345.814 -3.33949 4.1631 0
M  V30 3572 O 346.037 -4.43622 3.58547 0
M  V30 3573 O 344.971 -3.21279 5.08983 0
M  V30 3574 H 348.797 -0.683667 2.95905 0
M  V30 3575 H 346.382 -0.271965 1.46904 0
M  V30 3576 H 348.264 -3.13246 2.81877 0
M  V30 3577 H 346.939 -2.76681 1.68016 0
M  V30 3578 H 345.846 -1.32856 3.49714 0
M  V30 3579 H 347.179 -1.76637 4.59413 0
M  V30 3580 N 348.832 -1.54138 -0.328536 0
M  V30 3581 C 350.243 -1.63395 -0.903272 0
M  V30 3582 C 350.594 -0.524828 -1.8905 0
M  V30 3583 O 349.719 0.343068 -2.13663 0
M  V30 3584 C 350.314 -2.9618 -1.64507 0
M  V30 3585 C 348.873 -3.0765 -2.1686 0
M  V30 3586 C 348.02 -2.58933 -0.992416 0
M  V30 3587 H 350.971 -1.58344 -0.106253 0
M  V30 3588 H 350.992 -2.86061 -2.50897 0
M  V30 3589 H 350.504 -3.76884 -0.926302 0
M  V30 3590 H 348.605 -2.31611 -2.91868 0
M  V30 3591 H 348.718 -4.1337 -2.42202 0
M  V30 3592 H 347.082 -2.14706 -1.37016 0
M  V30 3593 H 347.865 -3.42089 -0.288041 0
M  V30 3594 N 350.31 0.590341 -1.46126 0
M  V30 3595 C 351.556 1.35082 -1.51264 0
M  V30 3596 C 351.889 1.93534 -0.160711 0
M  V30 3597 O 351.164 1.76045 0.826956 0
M  V30 3598 C 351.447 2.48588 -2.6053 0
M  V30 3599 C 351.3 1.95221 -4.05227 0
M  V30 3600 C 352.619 3.50662 -2.6594 0
M  V30 3601 H 349.738 0.489803 -0.550692 0
M  V30 3602 H 352.38 0.663887 -1.78024 0
M  V30 3603 H 350.53 3.07186 -2.37843 0
M  V30 3604 H 352.202 1.41139 -4.39178 0
M  V30 3605 H 350.445 1.26101 -4.15068 0
M  V30 3606 H 351.116 2.77121 -4.77397 0
M  V30 3607 H 353.592 3.01934 -2.86313 0
M  V30 3608 H 352.468 4.27551 -3.44226 0
M  V30 3609 H 352.729 4.07399 -1.71694 0
M  V30 3610 N 351.788 1.33704 0.83433 0
M  V30 3611 C 352.718 1.26967 1.95963 0
M  V30 3612 C 353.699 0.149337 1.69443 0
M  V30 3613 O 354.884 0.339852 1.91203 0
M  V30 3614 C 352.014 1.01275 3.32206 0
M  V30 3615 C 350.968 2.09652 3.73136 0
M  V30 3616 C 350.294 1.69166 5.07235 0
M  V30 3617 C 351.594 3.51372 3.86439 0
M  V30 3618 H 353.288 2.2112 2.01857 0
M  V30 3619 H 350.834 1.06447 0.969793 0
M  V30 3620 H 352.787 0.952106 4.10503 0
M  V30 3621 H 351.511 0.0356203 3.26581 0
M  V30 3622 H 350.17 2.14766 2.97104 0
M  V30 3623 H 349.818 0.701437 4.98085 0
M  V30 3624 H 349.518 2.41694 5.35591 0
M  V30 3625 H 351.042 1.64576 5.88003 0
M  V30 3626 H 352.456 3.48734 4.55036 0
M  V30 3627 H 350.853 4.22425 4.26236 0
M  V30 3628 H 351.923 3.89546 2.88759 0
M  V30 3629 N 353.266 -1.05314 1.17247 0
M  V30 3630 C 354.514 -1.77941 0.958194 0
M  V30 3631 C 354.835 -1.88089 -0.514556 0
M  V30 3632 O 354.105 -1.39676 -1.37359 0
M  V30 3633 H 352.685 -0.659116 0.351533 0
M  V30 3634 H 355.347 -1.27166 1.47699 0
M  V30 3635 H 354.443 -2.79663 1.38546 0
M  V30 3636 N 354.744 -0.972509 -1.24016 0
M  V30 3637 C 355.993 -0.632603 -1.91523 0
M  V30 3638 C 356.306 0.836641 -1.76804 0
M  V30 3639 O 357.512 1.28728 -2.39043 0
M  V30 3640 C 355.968 -1.08082 -3.43287 0
M  V30 3641 C 355.576 -2.57386 -3.66683 0
M  V30 3642 C 357.32 -0.814288 -4.16617 0
M  V30 3643 C 355.227 -2.95915 -5.12043 0
M  V30 3644 H 354.157 -0.232898 -0.717129 0
M  V30 3645 H 356.808 -1.17936 -1.40582 0
M  V30 3646 H 355.19 -0.462339 -3.93292 0
M  V30 3647 H 356.364 -3.24405 -3.27258 0
M  V30 3648 H 354.679 -2.81701 -3.06649 0
M  V30 3649 H 357.276 -1.0781 -5.23718 0
M  V30 3650 H 357.619 0.24955 -4.15551 0
M  V30 3651 H 358.152 -1.39397 -3.72577 0
M  V30 3652 H 354.891 -4.0139 -5.18234 0
M  V30 3653 H 354.411 -2.33584 -5.52448 0
M  V30 3654 H 356.09 -2.86086 -5.80314 0
M  V30 3655 N 356.222 1.38976 -0.743202 0
M  V30 3656 C 357.447 2.05161 -0.303936 0
M  V30 3657 C 357.872 1.55677 1.05576 0
M  V30 3658 O 357.23 0.704131 1.67068 0
M  V30 3659 C 357.278 3.59138 -0.324373 0
M  V30 3660 O 356.382 4.06668 0.685204 0
M  V30 3661 H 355.723 0.649815 -0.136518 0
M  V30 3662 H 358.253 1.77852 -1.01142 0
M  V30 3663 H 358.263 4.07639 -0.171618 0
M  V30 3664 H 356.938 3.94515 -1.31647 0
M  V30 3665 H 355.515 3.69561 0.497913 0
M  V30 3666 N 357.7 0.491464 1.49741 0
M  V30 3667 C 359.111 0.0413169 1.86654 0
M  V30 3668 C 359.462 -1.36985 1.40462 0
M  V30 3669 O 358.587 -2.01917 0.778354 0
M  V30 3670 C 359.182 0.0682023 3.38731 0
M  V30 3671 C 357.741 -0.32656 3.74981 0
M  V30 3672 C 356.888 0.444888 2.73708 0
M  V30 3673 H 359.839 0.704733 1.42194 0
M  V30 3674 H 359.86 -0.729322 3.73445 0
M  V30 3675 H 359.372 1.09539 3.72321 0
M  V30 3676 H 357.473 -1.35734 3.46997 0
M  V30 3677 H 357.586 -0.013741 4.79098 0
M  V30 3678 H 355.95 -0.104062 2.54487 0
M  V30 3679 H 356.733 1.47197 3.10142 0
M  V30 3680 N 359.178 -1.55987 0.224894 0
M  V30 3681 C 360.406 -2.02784 -0.410665 0
M  V30 3682 C 360.821 -1.10464 -1.53112 0
M  V30 3683 O 360.178 -0.114871 -1.82138 0
M  V30 3684 C 360.229 -3.49087 -0.939165 0
M  V30 3685 O 359.95 -4.37887 0.136614 0
M  V30 3686 C 361.451 -4.11543 -1.64763 0
M  V30 3687 H 358.671 -0.663484 -0.100148 0
M  V30 3688 H 361.215 -2.01614 0.342326 0
M  V30 3689 H 359.37 -3.50861 -1.64242 0
M  V30 3690 H 359.784 -5.23849 -0.261155 0
M  V30 3691 H 361.258 -5.15673 -1.96939 0
M  V30 3692 H 361.735 -3.56736 -2.56195 0
M  V30 3693 H 362.341 -4.13629 -0.989503 0
M  V30 3694 N 360.656 0.0484629 -1.57525 0
M  V30 3695 C 361.903 0.743125 -1.88372 0
M  V30 3696 C 362.231 1.76383 -0.819715 0
M  V30 3697 O 361.486 1.94855 0.181659 0
M  V30 3698 C 361.785 1.46632 -3.25935 0
M  V30 3699 C 361.451 0.583427 -4.4711 0
M  V30 3700 C 360.113 0.340191 -4.79996 0
M  V30 3701 C 362.465 -0.0273345 -5.21193 0
M  V30 3702 C 359.793 -0.522903 -5.84365 0
M  V30 3703 C 362.145 -0.878017 -6.26477 0
M  V30 3704 C 360.809 -1.1309 -6.5785 0
M  V30 3705 H 360.079 0.271929 -0.689301 0
M  V30 3706 H 362.726 0.00336166 -1.915 0
M  V30 3707 H 361.031 2.2789 -3.18706 0
M  V30 3708 H 362.728 2.00902 -3.47044 0
M  V30 3709 H 359.318 0.783151 -4.21384 0
M  V30 3710 H 363.502 0.147654 -4.9608 0
M  V30 3711 H 358.758 -0.727335 -6.07058 0
M  V30 3712 H 362.932 -1.35789 -6.83033 0
M  V30 3713 H 360.559 -1.80144 -7.38547 0
M  V30 3714 N 362.134 1.5431 0.320358 0
M  V30 3715 C 363.359 1.76954 1.08175 0
M  V30 3716 C 363.784 0.518193 1.80821 0
M  V30 3717 O 363.142 -0.530411 1.73368 0
M  V30 3718 C 363.19 2.96451 2.05303 0
M  V30 3719 O 362.294 2.68221 3.13259 0
M  V30 3720 H 361.635 0.586275 0.311733 0
M  V30 3721 H 364.165 2.01342 0.363676 0
M  V30 3722 H 364.175 3.23887 2.48116 0
M  V30 3723 H 362.85 3.87196 1.51829 0
M  V30 3724 H 361.427 2.51744 2.75099 0
M  V30 3725 N 363.613 -0.582584 1.46437 0
M  V30 3726 C 364.543 -1.70187 1.59871 0
M  V30 3727 C 365.524 -1.64066 0.449042 0
M  V30 3728 O 366.709 -1.82081 0.6753 0
M  V30 3729 C 363.839 -3.08827 1.58881 0
M  V30 3730 C 362.793 -3.29779 2.72819 0
M  V30 3731 C 362.119 -4.68947 2.5689 0
M  V30 3732 C 363.419 -3.17601 4.1464 0
M  V30 3733 H 365.113 -1.592 2.53566 0
M  V30 3734 H 362.659 -0.764472 1.22032 0
M  V30 3735 H 364.612 -3.86951 1.66873 0
M  V30 3736 H 363.336 -3.20713 0.617306 0
M  V30 3737 H 361.995 -2.54054 2.64296 0
M  V30 3738 H 361.643 -4.77599 1.57823 0
M  V30 3739 H 361.343 -4.83919 3.33312 0
M  V30 3740 H 362.867 -5.4924 2.66773 0
M  V30 3741 H 364.281 -3.8557 4.24274 0
M  V30 3742 H 362.678 -3.44094 4.9165 0
M  V30 3743 H 363.748 -2.14681 4.34788 0
M  V30 3744 N 365.091 -1.34144 -0.827227 0
M  V30 3745 C 366.021 -1.28005 -1.95287 0
M  V30 3746 C 367.002 -0.158321 -1.69362 0
M  V30 3747 O 368.187 -0.349987 -1.9102 0
M  V30 3748 C 365.317 -1.03036 -3.31664 0
M  V30 3749 C 364.271 -2.11628 -3.72019 0
M  V30 3750 C 363.597 -1.71854 -5.0633 0
M  V30 3751 C 364.897 -3.53417 -3.8457 0
M  V30 3752 H 366.591 -2.22187 -2.00682 0
M  V30 3753 H 364.137 -1.0696 -0.964135 0
M  V30 3754 H 366.09 -0.973863 -4.09993 0
M  V30 3755 H 364.814 -0.0529391 -3.26557 0
M  V30 3756 H 363.473 -2.16339 -2.95961 0
M  V30 3757 H 363.121 -0.727841 -4.97706 0
M  V30 3758 H 362.821 -2.44531 -5.34302 0
M  V30 3759 H 364.345 -1.67692 -5.87122 0
M  V30 3760 H 365.759 -3.51142 -4.5318 0
M  V30 3761 H 364.156 -4.24679 -4.2399 0
M  V30 3762 H 365.226 -3.91072 -2.86689 0
M  V30 3763 N 366.569 1.04691 -1.17803 0
M  V30 3764 C 367.815 1.78045 -0.970969 0
M  V30 3765 C 368.148 1.87686 0.498751 0
M  V30 3766 O 367.423 1.38035 1.37027 0
M  V30 3767 C 367.706 3.2166 -1.61884 0
M  V30 3768 C 367.559 3.20001 -3.161 0
M  V30 3769 C 368.878 4.1962 -1.3269 0
M  V30 3770 H 365.997 0.64633 -0.354155 0
M  V30 3771 H 368.639 1.22333 -1.45378 0
M  V30 3772 H 366.789 3.69232 -1.20831 0
M  V30 3773 H 368.461 2.80467 -3.66246 0
M  V30 3774 H 366.704 2.58203 -3.48588 0
M  V30 3775 H 367.375 4.21386 -3.56564 0
M  V30 3776 H 369.851 3.80567 -1.68249 0
M  V30 3777 H 368.727 5.18339 -1.80599 0
M  V30 3778 H 368.988 4.414 -0.248622 0
M  V30 3779 N 368.047 0.979072 1.23499 0
M  V30 3780 C 368.957 0.526431 2.28617 0
M  V30 3781 C 369.973 -0.418126 1.68901 0
M  V30 3782 O 371.149 -0.288372 1.99325 0
M  V30 3783 C 368.214 -0.165235 3.46306 0
M  V30 3784 C 367.275 0.82056 4.21385 0
M  V30 3785 C 366.508 0.161807 5.33455 0
M  V30 3786 O 366.731 -1.04742 5.60701 0
M  V30 3787 O 365.665 0.859708 5.95729 0
M  V30 3788 H 369.491 1.4006 2.69475 0
M  V30 3789 H 367.076 0.746643 1.29405 0
M  V30 3790 H 368.958 -0.553287 4.17752 0
M  V30 3791 H 367.633 -1.01419 3.07402 0
M  V30 3792 H 366.54 1.25929 3.52268 0
M  V30 3793 H 367.873 1.63828 4.64135 0
M  V30 3794 N 369.525 -1.3858 0.750561 0
M  V30 3795 C 370.753 -2.04471 0.316098 0
M  V30 3796 C 371.168 -1.56606 -1.05452 0
M  V30 3797 O 370.525 -0.737784 -1.66922 0
M  V30 3798 C 370.576 -3.60025 0.326275 0
M  V30 3799 O 370.297 -4.06133 1.6428 0
M  V30 3800 C 371.798 -4.43131 -0.122429 0
M  V30 3801 H 369.018 -0.65717 0.135528 0
M  V30 3802 H 371.562 -1.77329 1.01857 0
M  V30 3803 H 369.717 -3.86014 -0.327431 0
M  V30 3804 H 370.131 -5.00547 1.56693 0
M  V30 3805 H 371.605 -5.51963 -0.0641473 0
M  V30 3806 H 372.082 -4.23333 -1.16988 0
M  V30 3807 H 372.688 -4.22323 0.50229 0
M  V30 3808 N 371.003 -0.499398 -1.49478 0
M  V30 3809 C 372.231 0.0425456 -2.06856 0
M  V30 3810 C 372.646 1.30964 -1.35992 0
M  V30 3811 O 372.003 1.77172 -0.437762 0
M  V30 3812 C 372.054 0.301735 -3.60239 0
M  V30 3813 O 371.775 -0.915127 -4.28436 0
M  V30 3814 C 373.276 0.887499 -4.34325 0
M  V30 3815 H 370.496 -0.0197482 -0.670709 0
M  V30 3816 H 373.04 -0.696297 -1.92281 0
M  V30 3817 H 371.195 0.990556 -3.74522 0
M  V30 3818 H 371.609 -0.676993 -5.20113 0
M  V30 3819 H 373.083 1.01845 -5.42523 0
M  V30 3820 H 373.56 1.88488 -3.96698 0
M  V30 3821 H 374.166 0.236196 -4.24644 0
M  V30 3822 N 372.481 1.55866 -0.233164 0
M  V30 3823 C 373.706 2.03449 0.402906 0
M  V30 3824 C 374.131 1.11166 1.51736 0
M  V30 3825 O 373.489 0.101996 1.81013 0
M  V30 3826 C 373.537 3.49165 0.9009 0
M  V30 3827 O 372.641 3.60019 2.01147 0
M  V30 3828 H 371.982 0.657913 0.0897025 0
M  V30 3829 H 374.512 2.01493 -0.355201 0
M  V30 3830 H 374.522 3.89716 1.2077 0
M  V30 3831 H 373.197 4.15813 0.0852889 0
M  V30 3832 H 371.774 3.3136 1.71042 0
M  V30 3833 N 373.959 -0.0401083 1.57549 0
M  V30 3834 C 374.889 -1.04384 2.08869 0
M  V30 3835 C 375.87 -1.38407 0.988817 0
M  V30 3836 O 377.055 -1.47483 1.26342 0
M  V30 3837 C 374.185 -2.34808 2.55895 0
M  V30 3838 C 373.139 -2.15057 3.70047 0
M  V30 3839 C 372.465 -3.51145 4.03239 0
M  V30 3840 C 373.765 -1.54576 4.98902 0
M  V30 3841 H 375.459 -0.616666 2.92981 0
M  V30 3842 H 373.005 -0.295184 1.40942 0
M  V30 3843 H 374.958 -3.05346 2.90417 0
M  V30 3844 H 373.682 -2.79565 1.68853 0
M  V30 3845 H 372.341 -1.46954 3.35857 0
M  V30 3846 H 371.989 -3.93529 3.13279 0
M  V30 3847 H 371.689 -3.38758 4.80122 0
M  V30 3848 H 373.213 -4.23062 4.40285 0
M  V30 3849 H 374.627 -2.15017 5.31451 0
M  V30 3850 H 373.024 -1.52796 5.80322 0
M  V30 3851 H 374.094 -0.51039 4.82206 0
M  V30 3852 N 375.437 -1.54477 -0.31217 0
M  V30 3853 C 376.848 -1.64344 -0.885891 0
M  V30 3854 C 377.199 -0.54485 -1.88483 0
M  V30 3855 O 376.324 0.320387 -2.14015 0
M  V30 3856 C 376.919 -2.97908 -1.61357 0
M  V30 3857 C 375.478 -3.09933 -2.13585 0
M  V30 3858 C 374.625 -2.59971 -0.964897 0
M  V30 3859 H 377.576 -1.58448 -0.0894528 0
M  V30 3860 H 377.597 -2.88706 -2.47848 0
M  V30 3861 H 377.109 -3.77845 -0.886277 0
M  V30 3862 H 375.21 -2.34694 -2.89395 0
M  V30 3863 H 375.323 -4.15916 -2.37804 0
M  V30 3864 H 373.687 -2.16147 -1.34731 0
M  V30 3865 H 374.47 -3.42376 -0.251742 0
M  V30 3866 N 376.915 0.57481 -1.46744 0
M  V30 3867 C 378.326 1.15695 -1.46532 0
M  V30 3868 C 378.677 1.95068 -0.210425 0
M  V30 3869 O 377.802 2.05241 0.685944 0
M  V30 3870 C 378.397 2.1048 -2.65487 0
M  V30 3871 C 376.956 2.64002 -2.68291 0
M  V30 3872 C 376.103 1.40026 -2.39349 0
M  V30 3873 H 379.054 0.362325 -1.54509 0
M  V30 3874 H 379.075 2.94074 -2.41455 0
M  V30 3875 H 378.587 1.52683 -3.56805 0
M  V30 3876 H 376.688 3.25646 -1.81067 0
M  V30 3877 H 376.801 3.06197 -3.68483 0
M  V30 3878 H 375.165 1.70106 -1.89568 0
M  V30 3879 H 375.948 0.840485 -3.32852 0
M  V30 3880 N 378.394 1.34581 0.820102 0
M  V30 3881 C 379.81 1.14325 1.11364 0
M  V30 3882 C 380.01 -0.0533648 2.01429 0
M  V30 3883 O 379.066 -0.728044 2.41776 0
M  V30 3884 C 380.379 2.43983 1.75764 0
M  V30 3885 C 381.927 2.50065 1.88246 0
M  V30 3886 C 382.402 3.79732 2.56061 0
M  V30 3887 N 383.893 3.80908 2.63558 0
M  V30 3888 C 384.628 4.77961 3.16766 0
M  V30 3889 N 384.124 5.85397 3.70517 0
M  V30 3890 N 385.917 4.65413 3.15194 0
M  V30 3891 H 378.068 2.11246 0.221096 0
M  V30 3892 H 380.331 0.934289 0.160649 0
M  V30 3893 H 380.037 3.31651 1.1705 0
M  V30 3894 H 379.911 2.57531 2.75604 0
M  V30 3895 H 382.298 1.62834 2.46108 0
M  V30 3896 H 382.379 2.40442 0.873006 0
M  V30 3897 H 382.023 4.67354 1.98853 0
M  V30 3898 H 381.953 3.86639 3.57516 0
M  V30 3899 H 384.444 3.03274 2.25463 0
M  V30 3900 H 384.757 6.55463 4.09376 0
M  V30 3901 H 383.102 5.89107 3.68752 0
M  V30 3902 H 386.293 3.80627 2.72471 0
M  V30 3903 H 386.466 5.41216 3.56356 0
M  V30 3904 N 379.872 -1.04064 1.18357 0
M  V30 3905 C 381.283 -1.58719 0.98312 0
M  V30 3906 C 381.634 -1.90556 -0.467193 0
M  V30 3907 O 380.759 -1.69561 -1.34454 0
M  V30 3908 C 381.354 -2.88379 1.77828 0
M  V30 3909 C 379.913 -3.3965 1.62218 0
M  V30 3910 C 379.06 -2.13235 1.77274 0
M  V30 3911 H 382.011 -0.867359 1.32901 0
M  V30 3912 H 382.032 -3.58773 1.26737 0
M  V30 3913 H 381.544 -2.65176 2.83379 0
M  V30 3914 H 379.645 -3.67866 0.592036 0
M  V30 3915 H 379.758 -4.13475 2.42023 0
M  V30 3916 H 378.122 -2.24542 1.20221 0
M  V30 3917 H 378.905 -1.92487 2.8426 0
M  V30 3918 N 381.35 -0.985608 -1.22978 0
M  V30 3919 C 382.26 -0.538548 -2.28335 0
M  V30 3920 C 383.276 0.409163 -1.69121 0
M  V30 3921 O 384.452 0.277797 -1.99475 0
M  V30 3922 C 381.517 0.146867 -3.46389 0
M  V30 3923 C 380.578 -0.842896 -4.20944 0
M  V30 3924 C 379.811 -0.190095 -5.33361 0
M  V30 3925 O 380.034 1.01767 -5.61248 0
M  V30 3926 O 378.968 -0.891289 -5.95264 0
M  V30 3927 H 382.794 -1.41487 -2.68729 0
M  V30 3928 H 380.379 -0.753495 -1.29007 0
M  V30 3929 H 382.261 0.531125 -4.1804 0
M  V30 3930 H 380.936 0.997871 -3.07935 0
M  V30 3931 H 379.843 -1.27795 -3.51595 0
M  V30 3932 H 381.176 -1.66287 -4.6326 0
M  V30 3933 N 382.828 1.3818 -0.7579 0
M  V30 3934 C 384.056 2.04301 -0.326937 0
M  V30 3935 C 384.471 1.57163 1.0462 0
M  V30 3936 O 383.828 0.746626 1.66529 0
M  V30 3937 C 383.879 3.59846 -0.345363 0
M  V30 3938 O 383.6 4.05256 -1.66432 0
M  V30 3939 C 385.101 4.4319 0.098927 0
M  V30 3940 H 382.321 0.656443 -0.139012 0
M  V30 3941 H 384.865 1.76786 -1.02796 0
M  V30 3942 H 383.02 3.86182 0.306955 0
M  V30 3943 H 383.434 4.99709 -1.59345 0
M  V30 3944 H 384.908 5.51989 0.0348745 0
M  V30 3945 H 385.385 4.23947 1.14741 0
M  V30 3946 H 385.991 4.22051 -0.52468 0
M  V30 3947 N 384.306 0.507319 1.49211 0
M  V30 3948 C 385.534 -0.0315749 2.06876 0
M  V30 3949 C 385.949 -1.30241 1.36685 0
M  V30 3950 O 385.306 -1.76937 0.447152 0
M  V30 3951 C 385.357 -0.282627 3.60393 0
M  V30 3952 O 385.078 0.937835 4.27944 0
M  V30 3953 C 386.579 -0.864453 4.3479 0
M  V30 3954 H 383.799 0.0233048 0.670595 0
M  V30 3955 H 386.343 0.706484 1.91909 0
M  V30 3956 H 384.498 -0.97068 3.75042 0
M  V30 3957 H 384.912 0.704567 5.19746 0
M  V30 3958 H 386.386 -0.989664 5.43056 0
M  V30 3959 H 386.863 -1.86382 3.97692 0
M  V30 3960 H 387.469 -0.213672 4.24763 0
M  V30 3961 N 385.784 -1.5574 0.241426 0
M  V30 3962 C 387.033 -1.97986 -0.385295 0
M  V30 3963 C 387.346 -1.13267 -1.59468 0
M  V30 3964 O 388.552 -1.45501 -2.2922 0
M  V30 3965 C 387.008 -3.52275 -0.736884 0
M  V30 3966 C 386.616 -4.45726 0.450796 0
M  V30 3967 C 388.36 -4.03189 -1.3281 0
M  V30 3968 C 386.267 -5.91352 0.0756662 0
M  V30 3969 H 385.197 -0.739386 -0.147731 0
M  V30 3970 H 387.848 -1.80308 0.340779 0
M  V30 3971 H 386.23 -3.65628 -1.52094 0
M  V30 3972 H 387.404 -4.44131 1.22819 0
M  V30 3973 H 385.719 -4.05264 0.956573 0
M  V30 3974 H 388.316 -5.09505 -1.62201 0
M  V30 3975 H 388.659 -3.50212 -2.25071 0
M  V30 3976 H 389.192 -3.93141 -0.607069 0
M  V30 3977 H 385.931 -6.48354 0.965272 0
M  V30 3978 H 385.451 -5.96095 -0.665635 0
M  V30 3979 H 387.13 -6.46084 -0.344075 0
M  V30 3980 N 387.262 0.0317525 -1.57568 0
M  V30 3981 C 388.195 1.06621 -2.0176 0
M  V30 3982 C 389.173 1.35323 -0.901462 0
M  V30 3983 O 390.357 1.48025 -1.16708 0
M  V30 3984 C 387.484 2.40155 -2.38837 0
M  V30 3985 C 386.53 2.27327 -3.60867 0
M  V30 3986 S 387.363 1.62925 -5.10113 0
M  V30 3987 C 388.519 2.97955 -5.5043 0
M  V30 3988 H 388.752 0.689781 -2.89187 0
M  V30 3989 H 386.285 0.24164 -1.52497 0
M  V30 3990 H 388.243 3.1695 -2.6087 0
M  V30 3991 H 386.904 2.74946 -1.51867 0
M  V30 3992 H 386.097 3.25898 -3.84456 0
M  V30 3993 H 385.699 1.58675 -3.38671 0
M  V30 3994 H 387.991 3.94285 -5.5095 0
M  V30 3995 H 388.934 2.79102 -6.50775 0
M  V30 3996 H 389.342 3.00404 -4.77931 0
M  V30 3997 N 388.74 1.54641 0.303973 0
M  V30 3998 C 390.156 1.45788 0.649463 0
M  V30 3999 C 390.356 0.64666 1.90842 0
M  V30 4000 O 389.412 0.153183 2.52035 0
M  V30 4001 C 390.725 2.89718 0.805227 0
M  V30 4002 C 392.273 2.99742 0.901305 0
M  V30 4003 C 392.748 4.44863 1.08909 0
M  V30 4004 N 394.239 4.48559 1.15536 0
M  V30 4005 C 394.974 5.58026 1.3189 0
M  V30 4006 N 394.47 6.77422 1.45161 0
M  V30 4007 N 396.263 5.45708 1.34755 0
M  V30 4008 H 388.414 2.05854 -0.523237 0
M  V30 4009 H 390.677 0.932186 -0.172431 0
M  V30 4010 H 390.383 3.51666 -0.0489108 0
M  V30 4011 H 390.257 3.36964 1.69513 0
M  V30 4012 H 392.644 2.3791 1.74593 0
M  V30 4013 H 392.725 2.55797 -0.0125531 0
M  V30 4014 H 392.369 5.07288 0.249241 0
M  V30 4015 H 392.299 4.86436 2.01713 0
M  V30 4016 H 394.79 3.6254 1.06646 0
M  V30 4017 H 395.103 7.56604 1.57387 0
M  V30 4018 H 393.448 6.80292 1.42223 0
M  V30 4019 H 396.639 4.51378 1.23996 0
M  V30 4020 H 396.812 6.3107 1.47157 0
M  V30 4021 N 390.218 -0.567019 1.47046 0
M  V30 4022 C 391.15 -1.68985 1.54844 0
M  V30 4023 C 392.163 -1.56869 0.435431 0
M  V30 4024 O 393.352 -1.64006 0.70457 0
M  V30 4025 C 390.452 -3.07373 1.42742 0
M  V30 4026 C 389.625 -3.45339 2.6844 0
M  V30 4027 C 388.684 -4.62849 2.50314 0
M  V30 4028 O 387.71 -4.67922 3.24095 0
M  V30 4029 N 388.912 -5.58726 1.57499 0
M  V30 4030 H 391.677 -1.62745 2.51663 0
M  V30 4031 H 389.238 -0.753411 1.43302 0
M  V30 4032 H 391.23 -3.83803 1.28365 0
M  V30 4033 H 389.8 -3.07893 0.540445 0
M  V30 4034 H 389.02 -2.58455 2.97648 0
M  V30 4035 H 390.308 -3.67476 3.51907 0
M  V30 4036 H 389.706 -5.57376 0.966876 0
M  V30 4037 H 388.263 -6.34523 1.49078 0
M  V30 4038 N 391.696 -1.35014 -0.812953 0
M  V30 4039 C 393.107 -1.25035 -1.38648 0
M  V30 4040 C 393.458 0.119967 -1.95833 0
M  V30 4041 O 392.583 1.02069 -1.90816 0
M  V30 4042 C 393.178 -2.26394 -2.52054 0
M  V30 4043 C 391.737 -2.20175 -3.05287 0
M  V30 4044 C 390.884 -2.12451 -1.78213 0
M  V30 4045 H 393.835 -1.46235 -0.616516 0
M  V30 4046 H 393.856 -1.88672 -3.30429 0
M  V30 4047 H 393.368 -3.26116 -2.10404 0
M  V30 4048 H 391.469 -1.23841 -3.51417 0
M  V30 4049 H 391.582 -3.11863 -3.63701 0
M  V30 4050 H 389.946 -1.58328 -1.9951 0
M  V30 4051 H 390.729 -3.14024 -1.38723 0
M  V30 4052 N 393.175 1.03435 -1.18907 0
M  V30 4053 C 394.586 1.58195 -0.991523 0
M  V30 4054 C 394.937 1.90801 0.457081 0
M  V30 4055 O 394.062 1.70272 1.33553 0
M  V30 4056 C 394.657 2.87432 -1.79355 0
M  V30 4057 C 393.216 3.38785 -1.64017 0
M  V30 4058 C 392.363 2.12292 -1.78402 0
M  V30 4059 H 395.314 0.860299 -1.33359 0
M  V30 4060 H 395.335 3.58096 -1.28638 0
M  V30 4061 H 394.847 2.63669 -2.84781 0
M  V30 4062 H 392.948 3.67547 -0.611536 0
M  V30 4063 H 393.061 4.12186 -2.44212 0
M  V30 4064 H 391.425 2.23901 -1.2141 0
M  V30 4065 H 392.208 1.90977 -2.85277 0
M  V30 4066 N 394.653 0.992116 1.22453 0
M  V30 4067 C 395.899 0.668523 1.91464 0
M  V30 4068 C 396.232 -0.797313 1.77078 0
M  V30 4069 O 395.507 -1.5765 1.13916 0
M  V30 4070 C 395.79 1.07424 3.43703 0
M  V30 4071 C 395.643 2.59857 3.67143 0
M  V30 4072 C 396.962 0.626891 4.35612 0
M  V30 4073 H 394.081 0.244341 0.695318 0
M  V30 4074 H 396.723 1.2355 1.44345 0
M  V30 4075 H 394.873 0.591816 3.83966 0
M  V30 4076 H 396.545 3.15764 3.3629 0
M  V30 4077 H 394.788 3.01961 3.11451 0
M  V30 4078 H 395.459 2.83296 4.73759 0
M  V30 4079 H 397.935 1.04125 4.02861 0
M  V30 4080 H 396.811 0.939076 5.40807 0
M  V30 4081 H 397.072 -0.472457 4.39568 0
M  V30 4082 N 396.131 -1.37776 0.765217 0
M  V30 4083 C 397.359 -2.04124 0.337767 0
M  V30 4084 C 397.774 -1.57715 -1.03785 0
M  V30 4085 O 397.131 -0.755447 -1.6613 0
M  V30 4086 C 397.182 -3.59658 0.364442 0
M  V30 4087 O 396.903 -4.04367 1.68579 0
M  V30 4088 C 398.404 -4.43236 -0.0754221 0
M  V30 4089 H 395.624 -0.655696 0.142491 0
M  V30 4090 H 398.168 -1.76238 1.03732 0
M  V30 4091 H 396.323 -3.86339 -0.286471 0
M  V30 4092 H 396.737 -4.98857 1.61993 0
M  V30 4093 H 398.211 -5.52 -0.00560067 0
M  V30 4094 H 398.688 -4.2455 -1.12491 0
M  V30 4095 H 399.294 -4.21767 0.547055 0
M  V30 4096 N 397.609 -0.515225 -1.4894 0
M  V30 4097 C 398.559 0.275113 -2.26334 0
M  V30 4098 C 399.543 0.923007 -1.31793 0
M  V30 4099 O 400.735 0.828254 -1.56426 0
M  V30 4100 C 397.864 1.33041 -3.16473 0
M  V30 4101 C 396.95 0.688051 -4.18481 0
M  V30 4102 N 397.341 -0.217638 -5.05332 0
M  V30 4103 C 395.639 0.94699 -4.3583 0
M  V30 4104 C 396.34 -0.58676 -5.78733 0
M  V30 4105 N 395.316 0.0486966 -5.43578 0
M  V30 4106 H 399.118 -0.421876 -2.90856 0
M  V30 4107 H 396.632 -0.332249 -1.58965 0
M  V30 4108 H 398.629 1.9102 -3.70563 0
M  V30 4109 H 397.289 2.02894 -2.53504 0
M  V30 4110 H 398.3 -0.589343 -5.14536 0
M  V30 4111 H 394.977 1.63719 -3.8406 0
M  V30 4112 H 396.367 -1.32855 -6.58634 0
M  V30 4113 N 399.087 1.5561 -0.249682 0
M  V30 4114 C 400.05 2.20217 0.635394 0
M  V30 4115 C 401.05 1.17227 1.10066 0
M  V30 4116 O 402.24 1.42292 1.00492 0
M  V30 4117 C 399.372 2.84794 1.87363 0
M  V30 4118 H 400.565 2.99814 0.0716752 0
M  V30 4119 H 398.118 1.563 -0.000153234 0
M  V30 4120 H 398.853 2.09142 2.47851 0
M  V30 4121 H 398.638 3.60241 1.5482 0
M  V30 4122 H 400.128 3.3423 2.5036 0
M  V30 4123 N 400.565 -0.0233959 1.57583 0
M  V30 4124 C 401.976 -0.56927 1.77809 0
M  V30 4125 C 402.327 -1.75284 0.881472 0
M  V30 4126 O 401.452 -2.1626 0.0777805 0
M  V30 4127 C 402.047 -1.03949 3.22459 0
M  V30 4128 C 400.606 -1.53084 3.43864 0
M  V30 4129 C 399.753 -0.471454 2.73263 0
M  V30 4130 H 402.704 0.202825 1.57399 0
M  V30 4131 H 402.725 -1.90661 3.29285 0
M  V30 4132 H 402.237 -0.177865 3.87692 0
M  V30 4133 H 400.338 -2.41414 2.83814 0
M  V30 4134 H 400.451 -1.57443 4.52491 0
M  V30 4135 H 398.815 -0.927788 2.37201 0
M  V30 4136 H 399.598 0.380808 3.41181 0
M  V30 4137 N 402.043 -1.548 -0.295768 0
M  V30 4138 C 402.975 -1.82492 -1.3867 0
M  V30 4139 C 403.988 -0.708134 -1.46592 0
M  V30 4140 O 405.177 -0.985686 -1.48817 0
M  V30 4141 C 402.277 -1.95256 -2.76999 0
M  V30 4142 C 401.45 -3.25709 -2.91946 0
M  V30 4143 C 400.509 -3.28824 -4.10806 0
M  V30 4144 O 399.535 -4.02328 -4.02643 0
M  V30 4145 N 400.737 -2.5459 -5.21694 0
M  V30 4146 H 403.502 -2.76646 -1.15269 0
M  V30 4147 H 401.063 -1.54438 -0.485849 0
M  V30 4148 H 403.055 -1.94736 -3.54768 0
M  V30 4149 H 401.625 -1.08072 -2.93324 0
M  V30 4150 H 400.845 -3.38959 -2.01247 0
M  V30 4151 H 402.133 -4.11786 -2.98847 0
M  V30 4152 H 401.531 -1.94512 -5.31208 0
M  V30 4153 H 400.088 -2.59818 -5.97778 0
M  V30 4154 N 403.521 0.559213 -1.47345 0
M  V30 4155 C 404.932 1.14134 -1.47751 0
M  V30 4156 C 405.283 1.94834 -0.231103 0
M  V30 4157 O 404.408 2.05957 0.664137 0
M  V30 4158 C 405.003 2.07653 -2.67705 0
M  V30 4159 C 403.562 2.61141 -2.71076 0
M  V30 4160 C 402.709 1.3748 -2.40821 0
M  V30 4161 H 405.66 0.345917 -1.54884 0
M  V30 4162 H 405.681 2.91497 -2.44561 0
M  V30 4163 H 405.193 1.4889 -3.58404 0
M  V30 4164 H 403.294 3.23707 -1.84511 0
M  V30 4165 H 403.407 3.02272 -3.7171 0
M  V30 4166 H 401.771 1.68086 -1.91362 0
M  V30 4167 H 402.554 0.805135 -3.33725 0
M  V30 4168 N 404.999 1.35443 0.805782 0
M  V30 4169 C 405.929 1.31095 1.93226 0
M  V30 4170 C 406.91 0.185244 1.69088 0
M  V30 4171 O 408.095 0.380332 1.90439 0
M  V30 4172 C 405.225 1.08299 3.29983 0
M  V30 4173 C 404.179 2.17519 3.68605 0
M  V30 4174 C 403.505 1.79887 5.03532 0
M  V30 4175 C 404.805 3.5949 3.78898 0
M  V30 4176 H 406.499 2.25352 1.97122 0
M  V30 4177 H 404.045 1.0848 0.946996 0
M  V30 4178 H 405.998 1.03897 4.08391 0
M  V30 4179 H 404.722 0.104885 3.26432 0
M  V30 4180 H 403.381 2.2102 2.92482 0
M  V30 4181 H 403.029 0.80693 4.96485 0
M  V30 4182 H 402.729 2.53001 5.30344 0
M  V30 4183 H 404.253 1.77011 5.84379 0
M  V30 4184 H 405.667 3.58307 4.47536 0
M  V30 4185 H 404.064 4.31371 4.1718 0
M  V30 4186 H 405.134 3.95584 2.80431 0
M  V30 4187 N 406.477 -1.02803 1.19454 0
M  V30 4188 C 407.407 -2.12999 0.956758 0
M  V30 4189 C 408.388 -1.69743 -0.110188 0
M  V30 4190 O 409.573 -1.94148 0.0450038 0
M  V30 4191 C 406.703 -3.43746 0.495553 0
M  V30 4192 C 405.657 -4.00688 1.50443 0
M  V30 4193 C 404.983 -5.27067 0.900275 0
M  V30 4194 C 406.283 -4.35397 2.8849 0
M  V30 4195 H 407.977 -2.33148 1.87836 0
M  V30 4196 H 405.523 -1.12045 0.904539 0
M  V30 4197 H 407.476 -4.2021 0.316493 0
M  V30 4198 H 406.2 -3.23321 -0.461646 0
M  V30 4199 H 404.859 -3.2632 1.67065 0
M  V30 4200 H 404.507 -5.02959 -0.064503 0
M  V30 4201 H 404.207 -5.66127 1.57397 0
M  V30 4202 H 405.731 -6.06196 0.73203 0
M  V30 4203 H 407.145 -5.02795 2.75446 0
M  V30 4204 H 405.542 -4.85541 3.52661 0
M  V30 4205 H 406.612 -3.44662 3.41081 0
M  V30 4206 N 407.956 -0.998596 -1.21925 0
M  V30 4207 C 409.367 -0.711939 -1.72593 0
M  V30 4208 C 409.718 0.770842 -1.80423 0
M  V30 4209 O 408.843 1.60237 -1.4544 0
M  V30 4210 C 409.438 -1.28567 -3.13458 0
M  V30 4211 C 407.997 -1.04828 -3.61508 0
M  V30 4212 C 407.144 -1.4024 -2.39224 0
M  V30 4213 H 410.095 -1.17027 -1.07193 0
M  V30 4214 H 410.116 -0.667098 -3.74607 0
M  V30 4215 H 409.628 -2.36486 -3.07727 0
M  V30 4216 H 407.729 0.0140383 -3.72597 0
M  V30 4217 H 407.842 -1.71566 -4.47328 0
M  V30 4218 H 406.206 -0.821077 -2.41103 0
M  V30 4219 H 406.989 -2.49176 -2.36149 0
M  V30 4220 N 409.434 1.37368 -0.772513 0
M  V30 4221 C 410.682 1.99279 -0.336516 0
M  V30 4222 C 411.003 1.6163 1.09091 0
M  V30 4223 O 410.273 0.882109 1.74916 0
M  V30 4224 H 408.853 0.737063 -0.121435 0
M  V30 4225 H 411.515 1.67836 -0.990809 0
M  V30 4226 H 410.611 3.09332 -0.414763 0
M  V30 4227 N 410.912 0.523116 1.48665 0
M  V30 4228 C 412.137 -0.0117284 2.07397 0
M  V30 4229 C 412.562 -1.28031 1.37803 0
M  V30 4230 O 411.92 -1.75836 0.441762 0
M  V30 4231 C 411.968 -0.225786 3.59892 0
M  V30 4232 O 411.072 -1.29592 3.91509 0
M  V30 4233 H 410.413 0.0360673 0.66302 0
M  V30 4234 H 412.943 0.729066 1.9117 0
M  V30 4235 H 412.953 -0.450552 4.05505 0
M  V30 4236 H 411.628 0.700944 4.09951 0
M  V30 4237 H 410.205 -1.05436 3.57684 0
M  V30 4238 N 412.39 -1.55475 0.257931 0
M  V30 4239 C 413.636 -1.99502 -0.364266 0
M  V30 4240 C 413.969 -1.146 -1.56782 0
M  V30 4241 O 413.244 -0.211968 -1.93342 0
M  V30 4242 C 413.527 -3.51917 -0.763333 0
M  V30 4243 C 413.38 -4.4758 0.446371 0
M  V30 4244 C 414.699 -4.09742 -1.60623 0
M  V30 4245 H 411.818 -0.725277 -0.130929 0
M  V30 4246 H 414.46 -1.8653 0.361446 0
M  V30 4247 H 412.61 -3.63101 -1.38166 0
M  V30 4248 H 414.282 -4.48362 1.08487 0
M  V30 4249 H 412.525 -4.19947 1.08753 0
M  V30 4250 H 413.196 -5.51862 0.123645 0
M  V30 4251 H 415.672 -4.01727 -1.08418 0
M  V30 4252 H 414.548 -5.16631 -1.85429 0
M  V30 4253 H 414.809 -3.58889 -2.58169 0
M  V30 4254 N 413.868 0.0150385 -1.57593 0
M  V30 4255 C 415.284 0.370907 -1.5523 0
M  V30 4256 C 415.484 1.75735 -0.985882 0
M  V30 4257 O 414.54 2.44944 -0.613077 0
M  V30 4258 C 415.853 0.259908 -2.99575 0
M  V30 4259 C 417.401 0.335959 -3.11192 0
M  V30 4260 C 417.876 0.254253 -4.57294 0
M  V30 4261 N 419.367 0.312618 -4.62144 0
M  V30 4262 C 420.102 0.272505 -5.72752 0
M  V30 4263 N 419.598 0.183864 -6.92556 0
M  V30 4264 N 421.391 0.323267 -5.6117 0
M  V30 4265 H 413.542 -0.892104 -1.92757 0
M  V30 4266 H 415.805 -0.340563 -0.884715 0
M  V30 4267 H 415.511 -0.693403 -3.44797 0
M  V30 4268 H 415.385 1.048 -3.62349 0
M  V30 4269 H 417.772 1.27971 -2.65909 0
M  V30 4270 H 417.853 -0.481739 -2.51223 0
M  V30 4271 H 417.497 -0.685887 -5.03247 0
M  V30 4272 H 417.427 1.09024 -5.15191 0
M  V30 4273 H 419.918 0.38307 -3.75953 0
M  V30 4274 H 420.231 0.15874 -7.72637 0
M  V30 4275 H 418.576 0.149708 -6.94839 0
M  V30 4276 H 421.767 0.390607 -4.66467 0
M  V30 4277 H 421.94 0.288539 -6.47357 0
M  V30 4278 N 415.346 1.54954 0.287554 0
M  V30 4279 C 416.757 1.65732 0.859634 0
M  V30 4280 C 417.108 0.574767 1.87592 0
M  V30 4281 O 416.233 -0.286299 2.14498 0
M  V30 4282 C 416.828 3.00438 1.56597 0
M  V30 4283 C 415.387 3.13292 2.08627 0
M  V30 4284 C 414.534 2.61473 0.923416 0
M  V30 4285 H 417.485 1.5857 0.0642338 0
M  V30 4286 H 417.506 2.92613 2.43224 0
M  V30 4287 H 417.018 3.79207 0.826053 0
M  V30 4288 H 415.119 2.39268 2.85625 0
M  V30 4289 H 415.232 4.19647 2.31157 0
M  V30 4290 H 413.596 2.18264 1.31275 0
M  V30 4291 H 414.379 3.42733 0.197241 0
M  V30 4292 N 416.824 -0.551391 1.4764 0
M  V30 4293 C 417.754 -1.66757 1.63445 0
M  V30 4294 C 418.735 -1.63077 0.483742 0
M  V30 4295 O 419.92 -1.80607 0.71377 0
M  V30 4296 C 417.05 -3.05387 1.65396 0
M  V30 4297 C 416.004 -3.23918 2.79752 0
M  V30 4298 C 415.33 -4.63393 2.66779 0
M  V30 4299 C 416.63 -3.08735 4.21284 0
M  V30 4300 H 418.324 -1.53786 2.56886 0
M  V30 4301 H 415.87 -0.738415 1.23626 0
M  V30 4302 H 417.823 -3.83325 1.75043 0
M  V30 4303 H 416.547 -3.19332 0.685195 0
M  V30 4304 H 415.206 -2.48391 2.69625 0
M  V30 4305 H 414.854 -4.74144 1.67918 0
M  V30 4306 H 414.554 -4.7674 3.43501 0
M  V30 4307 H 416.078 -5.43458 2.78364 0
M  V30 4308 H 417.492 -3.76484 4.32357 0
M  V30 4309 H 415.889 -3.33588 4.98838 0
M  V30 4310 H 416.959 -2.0541 4.39243 0
M  V30 4311 N 418.302 -1.35869 -0.798587 0
M  V30 4312 C 419.713 -1.26498 -1.37314 0
M  V30 4313 C 420.064 0.0991899 -1.95949 0
M  V30 4314 O 419.189 1.0004 -1.91888 0
M  V30 4315 C 419.784 -2.29054 -2.49639 0
M  V30 4316 C 418.343 -2.234 -3.02935 0
M  V30 4317 C 417.49 -2.14329 -1.75949 0
M  V30 4318 H 420.441 -1.46881 -0.600971 0
M  V30 4319 H 420.462 -1.92166 -3.28409 0
M  V30 4320 H 419.974 -3.2833 -2.06933 0
M  V30 4321 H 418.075 -1.27562 -3.50084 0
M  V30 4322 H 418.188 -3.15703 -3.60372 0
M  V30 4323 H 416.552 -1.60435 -1.9782 0
M  V30 4324 H 417.335 -3.15477 -1.35384 0
M  V30 4325 N 419.78 1.02168 -1.19998 0
M  V30 4326 C 421.02 1.77232 -1.01825 0
M  V30 4327 C 421.384 1.86833 0.442428 0
M  V30 4328 O 422.585 2.58293 0.744189 0
M  V30 4329 C 420.856 3.15601 -1.67722 0
M  V30 4330 S 422.415 4.06765 -1.64584 0
M  V30 4331 H 419.233 0.610021 -0.365233 0
M  V30 4332 H 421.835 1.22368 -1.52467 0
M  V30 4333 H 420.539 3.06235 -2.73218 0
M  V30 4334 H 420.07 3.7554 -1.17189 0
M  V30 4335 H 422.085 4.91586 -0.67511 0
M  V30 4336 N 421.258 1.00505 1.21394 0
M  V30 4337 C 422.506 0.686415 1.90086 0
M  V30 4338 C 422.827 -0.785264 1.7849 0
M  V30 4339 O 422.097 -1.56387 1.17983 0
M  V30 4340 H 420.677 0.2509 0.703604 0
M  V30 4341 H 423.339 1.27417 1.47482 0
M  V30 4342 H 422.435 0.959621 2.96981 0
M  V30 4343 N 422.737 -1.36956 0.779787 0
M  V30 4344 C 424.148 -1.82094 0.412156 0
M  V30 4345 C 424.499 -1.64926 -1.06273 0
M  V30 4346 O 423.624 -1.16483 -1.82375 0
M  V30 4347 C 424.219 -3.3059 0.741319 0
M  V30 4348 C 422.778 -3.73974 0.426641 0
M  V30 4349 C 421.925 -2.59368 0.980987 0
M  V30 4350 H 424.876 -1.25314 0.973758 0
M  V30 4351 H 424.897 -3.80489 0.028887 0
M  V30 4352 H 424.409 -3.43054 1.81482 0
M  V30 4353 H 422.51 -3.67076 -0.639215 0
M  V30 4354 H 422.623 -4.69778 0.940515 0
M  V30 4355 H 420.987 -2.51463 0.404757 0
M  V30 4356 H 421.77 -2.74621 2.06005 0
M  V30 4357 N 424.215 -0.530993 -1.48385 0
M  V30 4358 C 425.147 0.268353 -2.27624 0
M  V30 4359 C 426.16 0.903525 -1.35426 0
M  V30 4360 O 427.349 0.781796 -1.60469 0
M  V30 4361 C 424.449 1.39535 -3.08842 0
M  V30 4362 C 423.622 0.861913 -4.28824 0
M  V30 4363 C 422.681 1.87016 -4.91845 0
M  V30 4364 O 421.707 1.4267 -5.5103 0
M  V30 4365 N 422.909 3.20238 -4.84178 0
M  V30 4366 H 425.674 -0.41123 -2.96865 0
M  V30 4367 H 423.235 -0.365387 -1.57723 0
M  V30 4368 H 425.227 2.06803 -3.47871 0
M  V30 4369 H 423.797 1.97859 -2.42014 0
M  V30 4370 H 423.017 0.0132126 -3.94198 0
M  V30 4371 H 424.305 0.484415 -5.06489 0
M  V30 4372 H 423.703 3.58932 -4.37246 0
M  V30 4373 H 422.26 3.83136 -5.27305 0
M  V30 4374 N 425.693 1.55336 -0.266172 0
M  V30 4375 C 426.603 2.2583 0.635458 0
M  V30 4376 C 427.619 1.28106 1.17749 0
M  V30 4377 O 428.795 1.61024 1.20968 0
M  V30 4378 C 425.86 2.95879 1.80712 0
M  V30 4379 C 424.921 4.09059 1.30265 0
M  V30 4380 C 424.154 4.75759 2.41846 0
M  V30 4381 O 424.377 4.41622 3.61007 0
M  V30 4382 O 423.311 5.63888 2.1051 0
M  V30 4383 H 427.137 3.03631 0.0646693 0
M  V30 4384 H 424.722 1.49361 -0.0339177 0
M  V30 4385 H 426.604 3.39932 2.49047 0
M  V30 4386 H 425.279 2.21002 2.36516 0
M  V30 4387 H 424.186 3.69482 0.586019 0
M  V30 4388 H 425.519 4.85811 0.790458 0
M  V30 4389 N 427.171 -0.0066808 1.57599 0
M  V30 4390 C 428.134 -0.985035 2.06953 0
M  V30 4391 C 429.134 -1.27663 0.977687 0
M  V30 4392 O 430.324 -1.22293 1.24057 0
M  V30 4393 C 427.456 -2.3118 2.50536 0
M  V30 4394 H 428.649 -0.558255 2.94658 0
M  V30 4395 H 426.202 -0.254011 1.54222 0
M  V30 4396 H 426.937 -2.78561 1.66054 0
M  V30 4397 H 426.722 -2.11338 3.3027 0
M  V30 4398 H 428.212 -3.01377 2.8907 0
M  V30 4399 N 428.649 -1.55105 -0.279332 0
M  V30 4400 C 429.612 -1.86783 -1.32834 0
M  V30 4401 C 430.612 -0.74199 -1.42657 0
M  V30 4402 O 431.802 -1.0102 -1.41918 0
M  V30 4403 C 428.934 -2.06746 -2.71052 0
M  V30 4404 H 430.127 -2.8055 -1.05979 0
M  V30 4405 H 427.68 -1.47499 -0.517087 0
M  V30 4406 H 428.415 -1.15339 -3.03097 0
M  V30 4407 H 428.2 -2.88711 -2.65309 0
M  V30 4408 H 429.69 -2.32549 -3.46858 0
M  V30 4409 N 430.127 0.543554 -1.4793 0
M  V30 4410 C 431.367 1.31072 -1.56843 0
M  V30 4411 C 431.731 1.90604 -0.231124 0
M  V30 4412 O 432.932 2.68091 -0.195165 0
M  V30 4413 C 431.203 2.38106 -2.66533 0
M  V30 4414 S 432.762 3.24729 -2.95122 0
M  V30 4415 H 429.58 0.446035 -0.553691 0
M  V30 4416 H 432.182 0.620777 -1.85382 0
M  V30 4417 H 430.886 1.92828 -3.62278 0
M  V30 4418 H 430.417 3.11824 -2.39852 0
M  V30 4419 H 432.432 4.37891 -2.3338 0
M  V30 4420 N 431.605 1.3629 0.791371 0
M  V30 4421 C 433.021 1.16661 1.08914 0
M  V30 4422 C 433.221 -0.0106266 2.01497 0
M  V30 4423 O 432.277 -0.676596 2.43266 0
M  V30 4424 C 433.59 2.47656 1.70549 0
M  V30 4425 C 435.138 2.54002 1.82899 0
M  V30 4426 C 435.613 3.85078 2.47949 0
M  V30 4427 N 437.104 3.86413 2.5542 0
M  V30 4428 C 437.839 4.84572 3.06557 0
M  V30 4429 N 437.335 5.93124 3.58016 0
M  V30 4430 N 439.128 4.71994 3.05251 0
M  V30 4431 H 431.279 2.11668 0.176238 0
M  V30 4432 H 433.542 0.937486 0.140796 0
M  V30 4433 H 433.248 3.34059 1.09989 0
M  V30 4434 H 433.122 2.63319 2.70079 0
M  V30 4435 H 435.509 1.68018 2.42598 0
M  V30 4436 H 435.59 2.42239 0.821808 0
M  V30 4437 H 435.234 4.71467 1.88895 0
M  V30 4438 H 435.164 3.94135 3.49235 0
M  V30 4439 H 437.655 3.07988 2.18979 0
M  V30 4440 H 437.968 6.63999 3.95381 0
M  V30 4441 H 436.313 5.96796 3.56173 0
M  V30 4442 H 439.504 3.86321 2.64336 0
M  V30 4443 H 439.677 5.48653 3.44796 0
M  V30 4444 N 433.083 -1.0153 1.20538 0
M  V30 4445 C 434.031 -2.12215 0.952235 0
M  V30 4446 C 435.025 -1.69123 -0.0968735 0
M  V30 4447 O 436.231 -1.7992 0.0536006 0
M  V30 4448 H 432.606 -0.693576 0.290613 0
M  V30 4449 H 434.577 -2.3075 1.89201 0
M  V30 4450 C 433.326 -3.43755 0.522287 0
M  V30 4451 H 432.649 -3.7734 1.32115 0
M  V30 4452 H 434.089 -4.22254 0.384389 0
M  V30 4453 C 432.548 -3.28088 -0.765489 0
M  V30 4454 O 433.078 -3.57921 -1.8236 0
M  V30 4455 N 431.284 -2.81333 -0.728011 0
M  V30 4456 H 430.831 -2.57255 0.133332 0
M  V30 4457 H 430.789 -2.71232 -1.58999 0
M  V30 4458 N 434.561 -1.01147 -1.20859 0
M  V30 4459 C 435.809 -0.696486 -1.89719 0
M  V30 4460 C 436.13 0.775788 -1.78904 0
M  V30 4461 O 435.4 1.55759 -1.18811 0
M  V30 4462 H 433.98 -0.254628 -0.702263 0
M  V30 4463 H 436.642 -1.28197 -1.46804 0
M  V30 4464 H 435.738 -0.975357 -2.96468 0
M  V30 4465 N 436.039 1.36541 -0.78704 0
M  V30 4466 C 436.989 2.27459 -0.156957 0
M  V30 4467 C 437.973 1.46843 0.657709 0
M  V30 4468 O 439.165 1.69245 0.518173 0
M  V30 4469 C 436.294 3.35893 0.709278 0
M  V30 4470 C 435.38 4.23947 -0.114049 0
M  V30 4471 N 435.771 4.92145 -1.16736 0
M  V30 4472 C 434.069 4.4587 0.107497 0
M  V30 4473 C 434.77 5.57261 -1.66837 0
M  V30 4474 N 433.746 5.3473 -0.977992 0
M  V30 4475 H 437.548 2.77669 -0.963185 0
M  V30 4476 H 435.062 1.49839 -0.62627 0
M  V30 4477 H 437.059 3.99953 1.17656 0
M  V30 4478 H 435.719 2.87238 1.51408 0
M  V30 4479 H 436.73 4.94169 -1.54976 0
M  V30 4480 H 433.407 4.08056 0.882994 0
M  V30 4481 H 434.797 6.21728 -2.54762 0
M  V30 4482 N 437.518 0.538854 1.48102 0
M  V30 4483 C 438.758 0.0101209 2.04397 0
M  V30 4484 C 439.122 -1.30741 1.40609 0
M  V30 4485 O 440.323 -1.92272 1.87843 0
M  V30 4486 C 438.594 -0.100232 3.57259 0
M  V30 4487 S 440.153 -0.577746 4.3498 0
M  V30 4488 H 436.971 0.0163171 0.710813 0
M  V30 4489 H 439.573 0.721429 1.81702 0
M  V30 4490 H 438.277 0.863351 4.01216 0
M  V30 4491 H 437.808 -0.835651 3.84422 0
M  V30 4492 H 439.823 -1.84073 4.60794 0
M  V30 4493 N 438.996 -1.55193 0.274407 0
M  V30 4494 C 440.245 -1.98758 -0.343213 0
M  V30 4495 C 440.558 -1.16624 -1.5703 0
M  V30 4496 O 441.764 -1.5033 -2.26082 0
M  V30 4497 C 440.22 -3.53759 -0.661996 0
M  V30 4498 C 439.828 -4.4467 0.54524 0
M  V30 4499 C 441.572 -4.05916 -1.24228 0
M  V30 4500 C 439.479 -5.91058 0.201084 0
M  V30 4501 H 438.409 -0.742353 -0.132014 0
M  V30 4502 H 441.06 -1.79545 0.378948 0
M  V30 4503 H 439.442 -3.68772 -1.44304 0
M  V30 4504 H 440.616 -4.41426 1.32212 0
M  V30 4505 H 438.931 -4.03143 1.04232 0
M  V30 4506 H 441.528 -5.12831 -1.51357 0
M  V30 4507 H 441.871 -3.54908 -2.17592 0
M  V30 4508 H 442.404 -3.9434 -0.523542 0
M  V30 4509 H 439.143 -6.46161 1.10258 0
M  V30 4510 H 438.663 -5.97373 -0.539045 0
M  V30 4511 H 440.342 -6.46669 -0.206954 0
M  V30 4512 N 440.474 -0.00167713 -1.576 0
M  V30 4513 C 441.885 0.54091 -1.78693 0
M  V30 4514 C 442.236 1.7386 -0.909247 0
M  V30 4515 O 441.361 2.16109 -0.112176 0
M  V30 4516 C 441.956 0.98806 -3.24072 0
M  V30 4517 C 440.515 1.47594 -3.46256 0
M  V30 4518 C 439.662 0.42792 -2.73978 0
M  V30 4519 H 442.613 -0.22784 -1.57056 0
M  V30 4520 H 442.634 1.85398 -3.32277 0
M  V30 4521 H 442.146 0.116164 -3.87926 0
M  V30 4522 H 440.247 2.36868 -2.87618 0
M  V30 4523 H 440.36 1.50225 -4.54939 0
M  V30 4524 H 438.724 0.889934 -2.38647 0
M  V30 4525 H 439.507 -0.435038 -3.40532 0
M  V30 4526 N 441.952 1.55251 0.271103 0
M  V30 4527 C 443.368 1.47133 0.618393 0
M  V30 4528 C 443.568 0.686994 1.89427 0
M  V30 4529 O 442.624 0.206609 2.51653 0
M  V30 4530 C 443.937 2.91361 0.743593 0
M  V30 4531 C 445.485 3.01587 0.837522 0
M  V30 4532 C 445.96 4.47073 0.994483 0
M  V30 4533 N 447.451 4.50909 1.05996 0
M  V30 4534 C 448.186 5.60698 1.20024 0
M  V30 4535 N 447.682 6.80348 1.30759 0
M  V30 4536 N 449.475 5.48444 1.23149 0
M  V30 4537 H 441.626 2.04698 -0.566784 0
M  V30 4538 H 443.889 0.928319 -0.192165 0
M  V30 4539 H 443.595 3.51483 -0.123493 0
M  V30 4540 H 443.469 3.40484 1.62328 0
M  V30 4541 H 445.856 2.4156 1.69507 0
M  V30 4542 H 445.937 2.55713 -0.0668086 0
M  V30 4543 H 445.581 5.07703 0.141582 0
M  V30 4544 H 445.511 4.90605 1.91349 0
M  V30 4545 H 448.002 3.6472 0.989316 0
M  V30 4546 H 448.315 7.59772 1.41303 0
M  V30 4547 H 446.66 6.83156 1.27761 0
M  V30 4548 H 449.851 4.53907 1.14394 0
M  V30 4549 H 450.024 6.34049 1.33738 0
M  V30 4550 N 443.43 -0.535701 1.48216 0
M  V30 4551 C 444.707 -1.29683 1.46429 0
M  V30 4552 C 445.087 -2.10391 0.172852 0
M  V30 4553 O 444.435 -2.12282 -0.845488 0
M  V30 4554 C 444.645 -2.18313 2.72287 0
M  V30 4555 C 445.993 -2.78639 3.20383 0
M  V30 4556 O 447.017 -2.28604 2.73164 0
M  V30 4557 O 445.876 -3.69636 4.02531 0
M  V30 4558 H 442.97 -0.585026 0.584529 0
M  V30 4559 H 445.516 -0.552827 1.60443 0
M  V30 4560 H 444.288 -1.58421 3.57797 0
M  V30 4561 H 443.911 -2.99971 2.60966 0
M  V30 4562 N 444.908 -1.36708 -0.784132 0
M  V30 4563 C 446.138 -1.34203 -1.57077 0
M  V30 4564 C 446.546 0.0774945 -1.89041 0
M  V30 4565 O 445.889 1.04628 -1.50992 0
M  V30 4566 C 445.951 -2.10351 -2.91535 0
M  V30 4567 C 445.615 -3.59405 -2.82272 0
M  V30 4568 C 446.612 -4.53545 -2.54151 0
M  V30 4569 C 444.297 -4.02362 -3.00683 0
M  V30 4570 C 446.291 -5.8862 -2.44551 0
M  V30 4571 C 443.978 -5.37526 -2.90704 0
M  V30 4572 C 444.976 -6.30468 -2.62677 0
M  V30 4573 O 444.664 -7.63149 -2.52702 0
M  V30 4574 H 444.396 -0.461791 -0.493685 0
M  V30 4575 H 446.95 -1.80475 -0.980712 0
M  V30 4576 H 445.18 -1.5875 -3.52612 0
M  V30 4577 H 446.869 -2.00636 -3.52845 0
M  V30 4578 H 447.635 -4.21669 -2.39625 0
M  V30 4579 H 443.514 -3.30389 -3.21503 0
M  V30 4580 H 447.058 -6.61133 -2.22596 0
M  V30 4581 H 442.955 -5.69008 -3.04795 0
M  V30 4582 H 443.723 -7.73331 -2.68144 0
M  V30 4583 N 446.386 1.0089 -1.21074 0
M  V30 4584 C 447.316 2.1145 -0.990523 0
M  V30 4585 C 448.297 1.69897 0.0831699 0
M  V30 4586 O 449.482 1.94052 -0.0758853 0
M  V30 4587 C 446.612 3.42914 -0.550177 0
M  V30 4588 C 445.566 3.98244 -1.56799 0
M  V30 4589 C 444.892 5.25568 -0.984013 0
M  V30 4590 C 446.192 4.30752 -2.95381 0
M  V30 4591 H 447.886 2.3013 -1.91521 0
M  V30 4592 H 445.432 1.10592 -0.92225 0
M  V30 4593 H 447.385 4.19653 -0.383305 0
M  V30 4594 H 446.109 3.24014 0.41015 0
M  V30 4595 H 444.768 3.23621 -1.72236 0
M  V30 4596 H 444.416 5.02998 -0.0155216 0
M  V30 4597 H 444.116 5.63551 -1.66384 0
M  V30 4598 H 445.64 6.04955 -0.828378 0
M  V30 4599 H 447.054 4.98349 -2.8341 0
M  V30 4600 H 445.451 4.79869 -3.60341 0
M  V30 4601 H 446.521 3.39192 -3.46521 0
M  V30 4602 N 447.864 1.01787 1.20321 0
M  V30 4603 C 449.104 0.716493 1.91431 0
M  V30 4604 C 449.468 -0.740352 1.77152 0
M  V30 4605 O 450.669 -1.1543 2.42754 0
M  V30 4606 C 448.94 1.14169 3.38674 0
M  V30 4607 S 450.499 0.962482 4.28114 0
M  V30 4608 H 447.317 0.261175 0.661293 0
M  V30 4609 H 449.919 1.30539 1.45533 0
M  V30 4610 H 448.623 2.19784 3.46588 0
M  V30 4611 H 448.154 0.545621 3.89598 0
M  V30 4612 H 450.169 -0.133253 4.96021 0
M  V30 4613 N 449.342 -1.36122 0.79427 0
M  V30 4614 C 450.619 -1.93398 0.292685 0
M  V30 4615 C 450.999 -1.72567 -1.21589 0
M  V30 4616 O 450.347 -1.08745 -2.00965 0
M  V30 4617 C 450.557 -3.42099 0.690614 0
M  V30 4618 C 451.905 -4.19231 0.673105 0
M  V30 4619 O 452.929 -3.50559 0.631389 0
M  V30 4620 O 451.788 -5.41732 0.720362 0
M  V30 4621 H 448.882 -0.823712 0.0736693 0
M  V30 4622 H 451.428 -1.45273 0.87714 0
M  V30 4623 H 450.2 -3.50938 1.73085 0
M  V30 4624 H 449.823 -3.97519 0.0803036 0
M  V30 4625 N 450.82 -0.546701 -1.47814 0
M  V30 4626 C 452.068 -0.0187037 -2.02091 0
M  V30 4627 C 452.389 1.33168 -1.42447 0
M  V30 4628 O 451.659 1.86619 -0.595839 0
M  V30 4629 H 450.239 -0.00392531 -0.74699 0
M  V30 4630 H 452.901 -0.714327 -1.81338 0
M  V30 4631 H 451.997 0.0772219 -3.12004 0
M  V30 4632 N 452.299 1.55045 -0.282633 0
M  V30 4633 C 453.231 2.2023 0.634924 0
M  V30 4634 C 454.244 1.18931 1.11172 0
M  V30 4635 O 455.433 1.4562 1.03233 0
M  V30 4636 C 452.533 2.82041 1.87899 0
M  V30 4637 C 451.706 4.091 1.54776 0
M  V30 4638 C 450.765 4.54887 2.64507 0
M  V30 4639 O 449.791 5.20496 2.30375 0
M  V30 4640 N 450.993 4.25659 3.94709 0
M  V30 4641 H 453.758 2.99601 0.0769811 0
M  V30 4642 H 451.319 1.61565 -0.104048 0
M  V30 4643 H 453.311 3.09613 2.60619 0
M  V30 4644 H 451.881 2.06618 2.3458 0
M  V30 4645 H 451.101 3.88736 0.654049 0
M  V30 4646 H 452.389 4.9187 1.30158 0
M  V30 4647 H 451.787 3.7306 4.25256 0
M  V30 4648 H 450.344 4.57984 4.63782 0
M  V30 4649 N 453.777 0.010035 1.57597 0
M  V30 4650 C 454.687 -0.994226 2.12491 0
M  V30 4651 C 455.703 -1.37013 1.07254 0
M  V30 4652 O 456.879 -1.45542 1.3921 0
M  V30 4653 C 453.944 -2.2642 2.62555 0
M  V30 4654 C 453.005 -1.95049 3.82432 0
M  V30 4655 C 452.238 -3.15991 4.30099 0
M  V30 4656 O 452.461 -4.28015 3.7704 0
M  V30 4657 O 451.395 -2.99403 5.22151 0
M  V30 4658 H 455.221 -0.557549 2.98538 0
M  V30 4659 H 452.806 -0.209413 1.47925 0
M  V30 4660 H 454.688 -3.01009 2.9491 0
M  V30 4661 H 453.363 -2.69306 1.796 0
M  V30 4662 H 452.27 -1.17904 3.55034 0
M  V30 4663 H 453.603 -1.56992 4.66491 0
M  V30 4664 N 455.255 -1.55392 -0.262866 0
M  V30 4665 C 456.532 -1.67204 -1.01499 0
M  V30 4666 C 456.912 -0.545186 -2.03939 0
M  V30 4667 O 456.26 0.453467 -2.23955 0
M  V30 4668 C 456.47 -3.06847 -1.6627 0
M  V30 4669 C 457.818 -3.64928 -2.17054 0
M  V30 4670 O 458.842 -3.09545 -1.76239 0
M  V30 4671 O 457.701 -4.61984 -2.91947 0
M  V30 4672 H 454.795 -0.679467 -0.471438 0
M  V30 4673 H 457.341 -1.67729 -0.257918 0
M  V30 4674 H 456.113 -3.80309 -0.920915 0
M  V30 4675 H 455.736 -3.10266 -2.48638 0
M  V30 4676 N 456.733 0.527833 -1.48498 0
M  V30 4677 C 457.973 1.29401 -1.58224 0
M  V30 4678 C 458.337 1.90348 -0.251327 0
M  V30 4679 O 459.538 2.67868 -0.223588 0
M  V30 4680 C 457.809 2.35266 -2.69044 0
M  V30 4681 S 459.368 3.2158 -2.98549 0
M  V30 4682 H 456.186 0.440138 -0.558391 0
M  V30 4683 H 458.788 0.601079 -1.8603 0
M  V30 4684 H 457.492 1.88975 -3.64303 0
M  V30 4685 H 457.023 3.09263 -2.43146 0
M  V30 4686 H 459.038 4.35391 -2.38011 0
M  V30 4687 N 458.211 1.37122 0.776871 0
M  V30 4688 C 459.121 1.34651 1.9211 0
M  V30 4689 C 460.137 0.246824 1.7224 0
M  V30 4690 O 461.313 0.48134 1.95563 0
M  V30 4691 C 458.378 1.14748 3.2716 0
M  V30 4692 C 457.439 2.34308 3.5972 0
M  V30 4693 C 456.672 2.15345 4.88326 0
M  V30 4694 O 456.895 1.13507 5.58992 0
M  V30 4695 O 455.829 3.03414 5.1983 0
M  V30 4696 H 459.655 2.31013 1.97146 0
M  V30 4697 H 457.24 1.17799 0.918901 0
M  V30 4698 H 459.122 1.05616 4.0795 0
M  V30 4699 H 457.797 0.214562 3.22988 0
M  V30 4700 H 456.704 2.49011 2.79185 0
M  V30 4701 H 458.037 3.26149 3.68629 0
M  V30 4702 N 459.689 -1.00246 1.21608 0
M  V30 4703 C 460.966 -1.71336 0.943568 0
M  V30 4704 C 461.346 -2.03972 -0.543943 0
M  V30 4705 O 460.694 -1.71545 -1.50946 0
M  V30 4706 C 460.904 -2.97094 1.83128 0
M  V30 4707 C 462.252 -3.70071 2.08165 0
M  V30 4708 O 463.276 -3.07081 1.80498 0
M  V30 4709 O 462.135 -4.83376 2.54971 0
M  V30 4710 H 459.229 -0.747386 0.354039 0
M  V30 4711 H 461.775 -1.05967 1.32549 0
M  V30 4712 H 460.547 -2.69407 2.83788 0
M  V30 4713 H 460.17 -3.70204 1.45034 0
M  V30 4714 N 461.167 -1.02423 -1.1978 0
M  V30 4715 C 462.415 -0.716569 -1.8897 0
M  V30 4716 C 462.736 0.756769 -1.79716 0
M  V30 4717 O 462.006 1.5449 -1.20456 0
M  V30 4718 H 460.586 -0.262062 -0.699523 0
M  V30 4719 H 463.248 -1.29747 -1.45436 0
M  V30 4720 H 462.344 -1.00675 -2.95417 0
M  V30 4721 N 462.645 1.35699 -0.801477 0
M  V30 4722 C 463.87 2.03687 -0.390678 0
M  V30 4723 C 464.295 1.60015 0.988778 0
M  V30 4724 O 463.653 0.774357 1.63931 0
M  V30 4725 C 463.701 3.57439 -0.476404 0
M  V30 4726 O 462.805 4.09208 0.512106 0
M  V30 4727 H 462.146 0.64344 -0.163956 0
M  V30 4728 H 464.676 1.73403 -1.08594 0
M  V30 4729 H 464.686 4.06544 -0.344357 0
M  V30 4730 H 463.361 3.88576 -1.48262 0
M  V30 4731 H 461.938 3.7134 0.340721 0
M  V30 4732 N 464.123 0.554532 1.47522 0
M  V30 4733 C 465.4 -0.0360704 1.95567 0
M  V30 4734 C 465.78 -1.48828 1.49711 0
M  V30 4735 O 465.128 -2.16366 0.734717 0
M  V30 4736 C 465.338 0.106631 3.48837 0
M  V30 4737 C 466.686 -0.0400899 4.24581 0
M  V30 4738 O 467.71 0.0340453 3.56184 0
M  V30 4739 O 466.569 -0.199111 5.46137 0
M  V30 4740 H 463.663 -0.0656294 0.824392 0
M  V30 4741 H 466.209 0.620867 1.57935 0
M  V30 4742 H 464.981 1.11727 3.7501 0
M  V30 4743 H 464.604 -0.58804 3.93227 0
M  V30 4744 N 465.601 -1.54893 0.290851 0
M  V30 4745 C 466.511 -2.26812 -0.59945 0
M  V30 4746 C 467.527 -1.29963 -1.15696 0
M  V30 4747 O 468.703 -1.62928 -1.18391 0
M  V30 4748 C 465.768 -2.98716 -1.75982 0
M  V30 4749 C 464.829 -4.1108 -1.2374 0
M  V30 4750 C 464.062 -4.79546 -2.34246 0
M  V30 4751 O 464.285 -4.47309 -3.53936 0
M  V30 4752 O 463.219 -5.67165 -2.01512 0
M  V30 4753 H 467.045 -3.03696 -0.0163561 0
M  V30 4754 H 464.63 -1.49289 0.0576755 0
M  V30 4755 H 466.512 -3.43851 -2.43607 0
M  V30 4756 H 465.187 -2.24737 -2.3297 0
M  V30 4757 H 464.094 -3.70367 -0.527163 0
M  V30 4758 H 465.427 -4.87007 -0.71307 0
M  V30 4759 N 467.08 -0.0183926 -1.57589 0
M  V30 4760 C 468.01 0.965596 -2.12599 0
M  V30 4761 C 468.991 1.34641 -1.0395 0
M  V30 4762 O 470.176 1.42693 -1.31729 0
M  V30 4763 C 467.306 2.25149 -2.64434 0
M  V30 4764 C 466.26 2.01175 -3.77773 0
M  V30 4765 C 465.586 3.35937 -4.15994 0
M  V30 4766 C 466.886 1.35953 -5.04296 0
M  V30 4767 H 468.58 0.507504 -2.95067 0
M  V30 4768 H 466.126 0.242671 -1.41941 0
M  V30 4769 H 468.079 2.94357 -3.01549 0
M  V30 4770 H 466.803 2.73105 -1.79112 0
M  V30 4771 H 465.462 1.34388 -3.4108 0
M  V30 4772 H 465.11 3.81631 -3.27669 0
M  V30 4773 H 464.81 3.20705 -4.92364 0
M  V30 4774 H 466.334 4.0643 -4.55683 0
M  V30 4775 H 467.748 1.95144 -5.39065 0
M  V30 4776 H 466.145 1.31152 -5.85593 0
M  V30 4777 H 467.215 0.331071 -4.83768 0
M  V30 4778 N 468.558 1.5553 0.254621 0
M  V30 4779 C 469.835 1.6774 1.00611 0
M  V30 4780 C 470.215 0.555993 2.03647 0
M  V30 4781 O 469.563 -0.441583 2.24193 0
M  V30 4782 C 469.773 3.07725 1.6464 0
M  V30 4783 C 471.121 3.66074 2.15116 0
M  V30 4784 O 472.145 3.10476 1.74595 0
M  V30 4785 O 471.004 4.63526 2.89493 0
M  V30 4786 H 468.098 0.681958 0.467828 0
M  V30 4787 H 470.644 1.67863 0.24902 0
M  V30 4788 H 469.416 3.80792 0.900734 0
M  V30 4789 H 469.039 3.1158 2.46989 0
M  V30 4790 N 470.036 -0.519951 1.48776 0
M  V30 4791 C 471.276 -1.2856 1.58908 0
M  V30 4792 C 471.64 -1.90212 0.261418 0
M  V30 4793 O 472.841 -2.67746 0.237791 0
M  V30 4794 C 471.112 -2.33836 2.70288 0
M  V30 4795 S 472.671 -3.19992 3.0025 0
M  V30 4796 H 469.489 -0.43717 0.560717 0
M  V30 4797 H 472.091 -0.591205 1.86346 0
M  V30 4798 H 470.795 -1.87041 3.653 0
M  V30 4799 H 470.326 -3.07969 2.44783 0
M  V30 4800 H 472.341 -4.34122 2.40317 0
M  V30 4801 N 471.514 -1.37532 -0.769588 0
M  V30 4802 C 472.762 -1.32597 -1.5252 0
M  V30 4803 C 473.083 0.0884294 -1.94799 0
M  V30 4804 O 472.353 1.03289 -1.66458 0
M  V30 4805 H 470.933 -0.487846 -0.565699 0
M  V30 4806 H 473.595 -1.72044 -0.915806 0
M  V30 4807 H 472.691 -1.96643 -2.42359 0
M  V30 4808 N 472.992 0.995999 -1.22138 0
M  V30 4809 C 474.403 1.54961 -1.04135 0
M  V30 4810 C 474.754 1.92159 0.396147 0
M  V30 4811 O 473.879 1.74435 1.28069 0
M  V30 4812 C 474.474 2.81581 -1.88408 0
M  V30 4813 C 473.033 3.33396 -1.74712 0
M  V30 4814 C 472.18 2.06509 -1.85066 0
M  V30 4815 H 475.131 0.817436 -1.36028 0
M  V30 4816 H 475.152 3.53822 -1.39966 0
M  V30 4817 H 474.664 2.54476 -2.93025 0
M  V30 4818 H 472.765 3.65416 -0.728159 0
M  V30 4819 H 472.878 4.04208 -2.57202 0
M  V30 4820 H 471.242 2.19925 -1.28472 0
M  V30 4821 H 472.025 1.81804 -2.91208 0
M  V30 4822 N 474.47 1.03057 1.19235 0
M  V30 4823 C 475.881 0.757449 1.70645 0
M  V30 4824 C 476.232 -0.722735 1.82403 0
M  V30 4825 O 475.357 -1.56325 1.49638 0
M  V30 4826 C 475.952 1.36833 3.09939 0
M  V30 4827 C 474.511 1.14375 3.58602 0
M  V30 4828 C 473.658 1.46533 2.35422 0
M  V30 4829 H 476.609 1.19828 1.04052 0
M  V30 4830 H 476.63 0.766184 3.72706 0
M  V30 4831 H 476.142 2.44562 3.01349 0
M  V30 4832 H 474.243 0.0847542 3.72504 0
M  V30 4833 H 474.356 1.83366 4.42622 0
M  V30 4834 H 472.72 0.884712 2.38841 0
M  V30 4835 H 473.503 2.55349 2.2946 0
M  V30 4836 N 475.948 -1.35272 0.808662 0
M  V30 4837 C 477.359 -1.81179 0.450688 0
M  V30 4838 C 477.71 -1.67143 -1.02751 0
M  V30 4839 O 476.835 -1.20325 -1.79864 0
M  V30 4840 C 477.43 -3.28943 0.811275 0
M  V30 4841 C 475.989 -3.72985 0.505871 0
M  V30 4842 C 475.136 -2.57229 1.03578 0
M  V30 4843 H 478.087 -1.2322 1.00012 0
M  V30 4844 H 478.108 -3.80342 0.109588 0
M  V30 4845 H 477.62 -3.39127 1.88718 0
M  V30 4846 H 475.721 -3.68349 -0.561209 0
M  V30 4847 H 475.834 -4.67677 1.03995 0
M  V30 4848 H 474.198 -2.50548 0.458005 0
M  V30 4849 H 474.981 -2.7019 2.11784 0
M  V30 4850 N 477.426 -0.562348 -1.47226 0
M  V30 4851 C 478.837 -0.130325 -1.86245 0
M  V30 4852 C 479.188 1.30128 -1.46838 0
M  V30 4853 O 478.313 1.97974 -0.873805 0
M  V30 4854 C 478.908 -0.229738 -3.3802 0
M  V30 4855 C 477.467 0.14728 -3.76112 0
M  V30 4856 C 476.614 -0.574971 -2.71274 0
M  V30 4857 H 479.565 -0.771773 -1.3867 0
M  V30 4858 H 479.586 0.550316 -3.76499 0
M  V30 4859 H 479.098 -1.27178 -3.66671 0
M  V30 4860 H 477.199 1.19023 -3.53078 0
M  V30 4861 H 477.312 -0.214858 -4.78618 0
M  V30 4862 H 475.676 -0.0174756 -2.54694 0
M  V30 4863 H 476.459 -1.61827 -3.02766 0
M  V30 4864 N 478.904 1.54736 -0.299062 0
M  V30 4865 C 480.144 2.0201 0.31168 0
M  V30 4866 C 480.508 1.18281 1.5124 0
M  V30 4867 O 481.709 1.55243 2.19438 0
M  V30 4868 C 479.98 3.5123 0.661227 0
M  V30 4869 S 481.539 4.20467 1.2551 0
M  V30 4870 H 478.357 0.704523 0.0957517 0
M  V30 4871 H 480.959 1.90791 -0.426482 0
M  V30 4872 H 479.663 4.09804 -0.221171 0
M  V30 4873 H 479.194 3.66481 1.43023 0
M  V30 4874 H 481.209 4.26083 2.54298 0
M  V30 4875 N 480.382 0.0267497 1.57577 0
M  V30 4876 C 481.292 -0.971633 2.13533 0
M  V30 4877 C 482.308 -1.35868 1.08701 0
M  V30 4878 O 483.484 -1.44058 1.40746 0
M  V30 4879 C 480.549 -2.23622 2.64941 0
M  V30 4880 C 479.61 -1.90982 3.8448 0
M  V30 4881 C 478.843 -3.11411 4.33427 0
M  V30 4882 O 479.066 -4.23992 3.81558 0
M  V30 4883 O 478 -2.93848 5.25297 0
M  V30 4884 H 481.826 -0.525853 2.99113 0
M  V30 4885 H 479.411 -0.193712 1.48139 0
M  V30 4886 H 481.293 -2.97864 2.98086 0
M  V30 4887 H 479.968 -2.67386 1.82446 0
M  V30 4888 H 478.875 -1.14132 3.56265 0
M  V30 4889 H 480.208 -1.52036 4.6813 0
M  V30 4890 N 481.861 -1.55662 -0.24637 0
M  V30 4891 C 483.272 -1.67953 -0.81539 0
M  V30 4892 C 483.623 -0.624302 -1.86002 0
M  V30 4893 O 482.748 0.229328 -2.15181 0
M  V30 4894 C 483.343 -3.04484 -1.48576 0
M  V30 4895 C 481.902 -3.18713 -2.00248 0
M  V30 4896 C 481.049 -2.6383 -0.853766 0
M  V30 4897 H 484 -1.58685 -0.0221692 0
M  V30 4898 H 484.021 -2.98959 -2.3538 0
M  V30 4899 H 483.533 -3.81264 -0.725222 0
M  V30 4900 H 481.634 -2.46757 -2.79181 0
M  V30 4901 H 481.747 -4.25628 -2.1995 0
M  V30 4902 H 480.111 -2.21667 -1.25442 0
M  V30 4903 H 480.894 -3.43135 -0.106302 0
M  V30 4904 N 483.339 0.512053 -1.4905 0
M  V30 4905 C 484.287 1.63568 -1.65373 0
M  V30 4906 C 485.281 1.61228 -0.519806 0
M  V30 4907 O 486.487 1.65869 -0.699101 0
M  V30 4908 H 482.862 0.542019 -0.521267 0
M  V30 4909 H 484.833 1.4695 -2.59708 0
M  V30 4910 C 483.582 3.01761 -1.7273 0
M  V30 4911 H 482.905 3.04263 -2.59353 0
M  V30 4912 H 484.345 3.79948 -1.8819 0
M  V30 4913 C 482.804 3.33609 -0.46973 0
M  V30 4914 O 483.334 3.99607 0.409492 0
M  V30 4915 N 481.54 2.88651 -0.336003 0
M  V30 4916 H 481.087 2.35119 -1.05247 0
M  V30 4917 H 481.045 3.10328 0.504363 0
M  V30 4918 N 484.817 1.37938 0.762283 0
M  V30 4919 C 485.727 1.36681 1.90671 0
M  V30 4920 C 486.743 0.265078 1.71969 0
M  V30 4921 O 487.919 0.502055 1.95042 0
M  V30 4922 C 484.984 1.18211 3.25925 0
M  V30 4923 C 484.045 2.3811 3.57214 0
M  V30 4924 C 483.278 2.20512 4.86014 0
M  V30 4925 O 483.501 1.19429 5.57757 0
M  V30 4926 O 482.435 3.08911 5.16583 0
M  V30 4927 H 486.261 2.33091 1.94685 0
M  V30 4928 H 483.846 1.18767 0.906356 0
M  V30 4929 H 485.728 1.09937 4.06807 0
M  V30 4930 H 484.403 0.248807 3.22742 0
M  V30 4931 H 483.31 2.51958 2.76529 0
M  V30 4932 H 484.643 3.30041 3.65149 0
M  V30 4933 N 486.295 -0.989507 1.22664 0
M  V30 4934 C 487.542 -1.72953 1.05325 0
M  V30 4935 C 487.87 -1.90104 -0.411168 0
M  V30 4936 O 487.125 -1.44386 -1.32103 0
M  V30 4937 C 487.424 -3.13649 1.71345 0
M  V30 4938 C 487.09 -3.16403 3.21248 0
M  V30 4939 C 485.752 -3.16862 3.62149 0
M  V30 4940 C 488.104 -3.12428 4.17179 0
M  V30 4941 C 485.432 -3.11051 4.97458 0
M  V30 4942 C 487.784 -3.08159 5.52468 0
M  V30 4943 C 486.448 -3.06935 5.92746 0
M  V30 4944 H 485.718 -0.632881 0.385412 0
M  V30 4945 H 488.365 -1.15863 1.52473 0
M  V30 4946 H 486.67 -3.74069 1.16532 0
M  V30 4947 H 488.367 -3.69658 1.55416 0
M  V30 4948 H 484.957 -3.16798 2.88682 0
M  V30 4949 H 489.141 -3.11221 3.86595 0
M  V30 4950 H 484.397 -3.0845 5.27891 0
M  V30 4951 H 488.571 -3.04039 6.26525 0
M  V30 4952 H 486.198 -3.02186 6.97558 0
M  V30 4953 N 487.773 -1.03688 -1.18687 0
M  V30 4954 C 489.184 -0.766488 -1.70241 0
M  V30 4955 C 489.535 0.713052 -1.82784 0
M  V30 4956 O 488.66 1.55529 -1.50465 0
M  V30 4957 C 489.255 -1.38475 -3.09209 0
M  V30 4958 C 487.814 -1.16276 -3.5799 0
M  V30 4959 C 486.961 -1.4778 -2.34641 0
M  V30 4960 H 489.912 -1.20378 -1.03415 0
M  V30 4961 H 489.933 -0.785939 -3.72295 0
M  V30 4962 H 489.445 -2.46157 -3.00048 0
M  V30 4963 H 487.546 -0.104508 -3.72453 0
M  V30 4964 H 487.659 -1.8571 -4.41643 0
M  V30 4965 H 486.023 -0.897366 -2.38368 0
M  V30 4966 H 486.806 -2.56562 -2.28102 0
M  V30 4967 N 489.251 1.34841 -0.815825 0
M  V30 4968 C 490.491 2.00321 -0.406297 0
M  V30 4969 C 490.855 1.63293 1.00992 0
M  V30 4970 O 492.056 2.21563 1.52195 0
M  V30 4971 C 490.327 3.52421 -0.594469 0
M  V30 4972 S 491.886 4.37926 -0.276735 0
M  V30 4973 H 488.704 0.694155 -0.153848 0
M  V30 4974 H 491.306 1.64263 -1.06009 0
M  V30 4975 H 490.01 3.76858 -1.625 0
M  V30 4976 H 489.541 3.9333 0.0743157 0
M  V30 4977 H 491.556 4.87743 0.912215 0
M  V30 4978 N 490.729 0.570148 1.46925 0
M  V30 4979 C 491.977 0.0508523 2.02036 0
M  V30 4980 C 492.298 -1.30885 1.44548 0
M  V30 4981 O 491.568 -1.85647 0.625453 0
M  V30 4982 H 490.148 0.0158088 0.746833 0
M  V30 4983 H 492.81 0.743086 1.80178 0
M  V30 4984 H 491.906 -0.027575 3.12088 0
M  V30 4985 N 492.207 -1.54576 0.307264 0
M  V30 4986 C 493.155 -2.25208 -0.581723 0
M  V30 4987 C 494.149 -1.26031 -1.13192 0
M  V30 4988 O 495.355 -1.43862 -1.08184 0
M  V30 4989 H 491.73 -0.723173 -0.206214 0
M  V30 4990 H 493.701 -2.98378 0.0364663 0
M  V30 4991 C 492.45 -3.01086 -1.73904 0
M  V30 4992 H 491.773 -3.77208 -1.32491 0
M  V30 4993 H 493.213 -3.5378 -2.33701 0
M  V30 4994 C 491.672 -2.08422 -2.64692 0
M  V30 4995 O 492.202 -1.65636 -3.65961 0
M  V30 4996 N 490.408 -1.74247 -2.32564 0
M  V30 4997 H 489.955 -2.09238 -1.50257 0
M  V30 4998 H 489.913 -1.12524 -2.93574 0
M  V30 4999 N 493.685 -0.035106 -1.57561 0
M  V30 5000 C 494.933 0.64096 -1.91667 0
M  V30 5001 C 495.254 1.72323 -0.912681 0
M  V30 5002 O 494.524 1.95849 0.0449089 0
M  V30 5003 H 493.104 0.239743 -0.707483 0
M  V30 5004 H 495.766 -0.084321 -1.94718 0
M  V30 5005 H 494.862 1.08987 -2.92452 0
M  V30 5006 N 495.163 1.55791 0.238111 0
M  V30 5007 C 496.113 1.87444 1.29803 0
M  V30 5008 C 497.097 0.736043 1.43078 0
M  V30 5009 O 498.289 0.998146 1.46171 0
M  V30 5010 C 495.418 2.18028 2.65177 0
M  V30 5011 C 494.504 3.38217 2.55871 0
M  V30 5012 N 494.895 4.57264 2.16202 0
M  V30 5013 C 493.193 3.41502 2.86866 0
M  V30 5014 C 493.894 5.3941 2.17744 0
M  V30 5015 N 492.87 4.78695 2.57589 0
M  V30 5016 H 496.672 2.7701 0.981965 0
M  V30 5017 H 494.186 1.56135 0.44672 0
M  V30 5018 H 496.183 2.38873 3.4168 0
M  V30 5019 H 494.843 1.29765 2.97643 0
M  V30 5020 H 495.854 4.82727 1.87602 0
M  V30 5021 H 492.531 2.63536 3.23813 0
M  V30 5022 H 493.921 6.44671 1.89339 0
M  V30 5023 N 496.642 -0.504142 1.49319 0
M  V30 5024 C 497.882 -1.26867 1.60263 0
M  V30 5025 C 498.246 -1.89924 0.281578 0
M  V30 5026 O 499.447 -2.67479 0.266176 0
M  V30 5027 C 497.718 -2.30956 2.72753 0
M  V30 5028 S 499.277 -3.1679 3.03628 0
M  V30 5029 H 496.095 -0.431198 0.565322 0
M  V30 5030 H 498.697 -0.571407 1.86963 0
M  V30 5031 H 497.401 -1.83156 3.67263 0
M  V30 5032 H 496.932 -3.05356 2.48035 0
M  V30 5033 H 498.947 -4.31549 2.44908 0
M  V30 5034 N 498.12 -1.38341 -0.754957 0
M  V30 5035 C 499.083 -1.35262 -1.85032 0
M  V30 5036 C 500.083 -0.253393 -1.58791 0
M  V30 5037 O 501.273 -0.510205 -1.66561 0
M  V30 5038 C 498.405 -1.10544 -3.22479 0
M  V30 5039 H 499.598 -2.32712 -1.8917 0
M  V30 5040 H 497.151 -1.23614 -0.956515 0
M  V30 5041 H 497.886 -0.136952 -3.24011 0
M  V30 5042 H 497.671 -1.90127 -3.4292 0
M  V30 5043 H 499.161 -1.11082 -4.02555 0
M  V30 5044 N 499.598 0.982988 -1.23187 0
M  V30 5045 C 500.528 2.09301 -1.03515 0
M  V30 5046 C 501.509 1.70035 0.0471136 0
M  V30 5047 O 502.694 1.93847 -0.117029 0
M  V30 5048 C 499.824 3.4167 -0.622791 0
M  V30 5049 C 498.778 3.94828 -1.65211 0
M  V30 5050 C 498.104 5.23362 -1.09527 0
M  V30 5051 C 499.404 4.2439 -3.04451 0
M  V30 5052 H 501.098 2.26016 -1.96359 0
M  V30 5053 H 498.644 1.08611 -0.945501 0
M  V30 5054 H 500.597 4.18746 -0.472233 0
M  V30 5055 H 499.321 3.24811 0.341329 0
M  V30 5056 H 497.98 3.19895 -1.79061 0
M  V30 5057 H 497.628 5.02852 -0.122211 0
M  V30 5058 H 497.328 5.59895 -1.783 0
M  V30 5059 H 498.852 6.03062 -0.956511 0
M  V30 5060 H 500.266 4.92225 -2.93917 0
M  V30 5061 H 498.663 4.72118 -3.70438 0
M  V30 5062 H 499.733 3.31765 -3.53638 0
M  V30 5063 N 501.076 1.04316 1.18135 0
M  V30 5064 C 502.023 0.636398 2.21853 0
M  V30 5065 C 502.993 -0.357039 1.62217 0
M  V30 5066 O 504.178 -0.250453 1.89149 0
M  V30 5067 C 501.318 0.00812779 3.45099 0
M  V30 5068 C 500.431 1.04933 4.19062 0
M  V30 5069 C 499.566 0.389313 5.29771 0
M  V30 5070 C 498.605 1.41544 5.9551 0
M  V30 5071 N 497.742 0.78021 6.97751 0
M  V30 5072 H 502.582 1.52536 2.56002 0
M  V30 5073 H 500.119 0.76304 1.25762 0
M  V30 5074 H 502.077 -0.373497 4.15525 0
M  V30 5075 H 500.707 -0.844336 3.11562 0
M  V30 5076 H 499.759 1.54888 3.47439 0
M  V30 5077 H 501.071 1.82862 4.64072 0
M  V30 5078 H 500.225 -0.0463805 6.06682 0
M  V30 5079 H 498.964 -0.422038 4.8587 0
M  V30 5080 H 497.969 1.86124 5.17337 0
M  V30 5081 H 499.194 2.22854 6.41493 0
M  V30 5082 H 497.14 -0.0107899 6.55999 0
M  V30 5083 H 497.057 1.49716 7.41027 0
M  V30 5084 H 498.325 0.368996 7.78626 0
M  V30 5085 N 502.554 -1.34406 0.822964 0
M  V30 5086 C 503.484 -2.32052 0.259608 0
M  V30 5087 C 504.465 -1.58243 -0.623961 0
M  V30 5088 O 505.65 -1.86224 -0.55083 0
M  V30 5089 C 502.78 -3.42434 -0.579314 0
M  V30 5090 C 501.734 -4.27499 0.20712 0
M  V30 5091 C 501.06 -5.29349 -0.754547 0
M  V30 5092 C 502.36 -5.02758 1.41533 0
M  V30 5093 H 504.054 -2.79418 1.07545 0
M  V30 5094 H 501.6 -1.34338 0.518593 0
M  V30 5095 H 503.553 -4.0976 -0.983612 0
M  V30 5096 H 502.277 -2.93717 -1.4282 0
M  V30 5097 H 500.936 -3.61776 0.592787 0
M  V30 5098 H 500.584 -4.76895 -1.59939 0
M  V30 5099 H 500.284 -5.8714 -0.232561 0
M  V30 5100 H 501.808 -5.99544 -1.1567 0
M  V30 5101 H 503.222 -5.62938 1.08504 0
M  V30 5102 H 501.619 -5.70123 1.87296 0
M  V30 5103 H 502.689 -4.32451 2.1935 0
M  V30 5104 N 504.032 -0.577932 -1.46621 0
M  V30 5105 C 505.278 -0.0700937 -2.03279 0
M  V30 5106 C 505.633 1.27376 -1.44198 0
M  V30 5107 O 504.926 1.82097 -0.595911 0
M  V30 5108 C 505.12 0.0590832 -3.57351 0
M  V30 5109 C 504.949 -1.2707 -4.31374 0
M  V30 5110 C 503.719 -1.84357 -4.70469 0
M  V30 5111 C 505.917 -2.19278 -4.65211 0
M  V30 5112 N 503.899 -3.11124 -5.29221 0
M  V30 5113 C 505.27 -3.30631 -5.24484 0
M  V30 5114 C 507.325 -2.19018 -4.47142 0
M  V30 5115 C 506.028 -4.41849 -5.67593 0
M  V30 5116 C 508.054 -3.29262 -4.91264 0
M  V30 5117 C 507.416 -4.39335 -5.50604 0
M  V30 5118 H 503.515 -0.0683127 -0.779011 0
M  V30 5119 H 506.099 -0.76978 -1.78836 0
M  V30 5120 H 504.27 0.727929 -3.81518 0
M  V30 5121 H 506.002 0.57087 -4.00653 0
M  V30 5122 H 502.757 -1.37906 -4.53077 0
M  V30 5123 H 503.181 -3.75794 -5.63123 0
M  V30 5124 H 507.823 -1.35191 -4.00604 0
M  V30 5125 H 505.541 -5.26421 -6.13112 0
M  V30 5126 H 509.127 -3.30172 -4.79038 0
M  V30 5127 H 508.007 -5.23233 -5.84121 0
M  V30 5128 N 505.51 1.54411 -0.315457 0
M  V30 5129 C 506.926 1.59556 0.037464 0
M  V30 5130 C 507.126 1.33217 1.5118 0
M  V30 5131 O 506.182 1.11264 2.26664 0
M  V30 5132 C 507.495 2.98372 -0.373477 0
M  V30 5133 C 509.043 3.11324 -0.323452 0
M  V30 5134 C 509.518 4.52472 -0.709433 0
M  V30 5135 N 511.009 4.58437 -0.662524 0
M  V30 5136 C 511.744 5.65751 -0.933474 0
M  V30 5137 N 511.24 6.81039 -1.27114 0
M  V30 5138 N 513.033 5.55489 -0.859573 0
M  V30 5139 H 505.184 1.6979 -1.27614 0
M  V30 5140 H 507.447 0.793732 -0.518356 0
M  V30 5141 H 507.153 3.22618 -1.40037 0
M  V30 5142 H 507.027 3.76264 0.265615 0
M  V30 5143 H 509.414 2.86818 0.694223 0
M  V30 5144 H 509.495 2.35555 -0.997367 0
M  V30 5145 H 509.139 4.7771 -1.72498 0
M  V30 5146 H 509.069 5.26598 -0.0132923 0
M  V30 5147 H 511.56 3.75636 -0.413065 0
M  V30 5148 H 511.873 7.58816 -1.46348 0
M  V30 5149 H 510.218 6.82555 -1.30932 0
M  V30 5150 H 513.409 4.64299 -0.595324 0
M  V30 5151 H 513.582 6.39036 -1.0741 0
M  V30 5152 N 506.988 0.0434614 1.5754 0
M  V30 5153 C 508.228 -0.636023 1.94253 0
M  V30 5154 C 508.592 -1.68461 0.921132 0
M  V30 5155 O 509.793 -2.41762 1.17494 0
M  V30 5156 C 508.064 -1.22357 3.35803 0
M  V30 5157 S 509.623 -1.92213 3.94461 0
M  V30 5158 H 506.441 -0.209041 0.679575 0
M  V30 5159 H 509.043 0.110556 1.95187 0
M  V30 5160 H 507.747 -0.448162 4.07946 0
M  V30 5161 H 507.278 -2.00713 3.38346 0
M  V30 5162 H 509.293 -3.20199 3.79061 0
M  V30 5163 N 508.466 -1.55915 -0.229846 0
M  V30 5164 C 509.743 -1.6932 -0.979295 0
M  V30 5165 C 510.123 -0.588321 -2.02736 0
M  V30 5166 O 509.471 0.40586 -2.24867 0
M  V30 5167 C 509.681 -3.10305 -1.59724 0
M  V30 5168 C 511.029 -3.6945 -2.09264 0
M  V30 5169 O 512.053 -3.13214 -1.69633 0
M  V30 5170 O 510.912 -4.68072 -2.82082 0
M  V30 5171 H 508.006 -0.689314 -0.456919 0
M  V30 5172 H 510.552 -1.68238 -0.222283 0
M  V30 5173 H 509.324 -3.82177 -0.840039 0
M  V30 5174 H 508.947 -3.1547 -2.42001 0
M  V30 5175 N 509.944 0.496216 -1.49584 0
M  V30 5176 C 511.192 1.24756 -1.58998 0
M  V30 5177 C 511.513 1.92968 -0.280775 0
M  V30 5178 O 510.783 1.82959 0.700198 0
M  V30 5179 H 509.363 0.463471 -0.585836 0
M  V30 5180 H 512.025 0.574678 -1.86235 0
M  V30 5181 H 511.121 2.00895 -2.38847 0
M  V30 5182 N 511.423 1.38739 0.74761 0
M  V30 5183 C 512.7 1.25791 1.49786 0
M  V30 5184 C 513.08 -0.138075 2.10648 0
M  V30 5185 O 512.428 -1.14815 1.9756 0
M  V30 5186 C 512.638 2.37265 2.55942 0
M  V30 5187 C 513.986 2.75978 3.22679 0
M  V30 5188 O 515.01 2.36621 2.6625 0
M  V30 5189 O 513.869 3.43867 4.24756 0
M  V30 5190 H 510.963 0.492251 0.664543 0
M  V30 5191 H 513.509 1.50582 0.782511 0
M  V30 5192 H 512.281 3.30644 2.0926 0
M  V30 5193 H 511.904 2.14071 3.35051 0
M  V30 5194 N 512.901 -0.976442 1.23707 0
M  V30 5195 C 514.148 -1.71827 1.07153 0
M  V30 5196 C 514.476 -1.9053 -0.390982 0
M  V30 5197 O 513.731 -1.45779 -1.30564 0
M  V30 5198 C 514.03 -3.11814 1.74662 0
M  V30 5199 C 513.696 -3.12978 3.24585 0
M  V30 5200 C 512.358 -3.13003 3.6549 0
M  V30 5201 C 514.71 -3.07986 4.20469 0
M  V30 5202 C 512.038 -3.05757 5.00729 0
M  V30 5203 C 514.39 -3.02282 5.55705 0
M  V30 5204 C 513.054 -3.00631 5.95968 0
M  V30 5205 H 512.324 -0.628758 0.392102 0
M  V30 5206 H 514.971 -1.14239 1.53693 0
M  V30 5207 H 513.276 -3.72812 1.20492 0
M  V30 5208 H 514.973 -3.67989 1.59328 0
M  V30 5209 H 511.563 -3.13718 2.92026 0
M  V30 5210 H 515.747 -3.07103 3.89874 0
M  V30 5211 H 511.003 -3.02834 5.31132 0
M  V30 5212 H 515.177 -2.97376 6.29714 0
M  V30 5213 H 512.804 -2.94771 7.00724 0
M  V30 5214 N 514.379 -1.04941 -1.1758 0
M  V30 5215 C 515.656 -0.671918 -1.83697 0
M  V30 5216 C 516.036 0.847929 -1.93322 0
M  V30 5217 O 515.384 1.75287 -1.46583 0
M  V30 5218 C 515.594 -1.35797 -3.21497 0
M  V30 5219 C 516.942 -1.4944 -3.97433 0
M  V30 5220 O 517.966 -1.31678 -3.30967 0
M  V30 5221 O 516.825 -1.78463 -5.1654 0
M  V30 5222 H 513.919 -0.236212 -0.792548 0
M  V30 5223 H 516.465 -1.14884 -1.24899 0
M  V30 5224 H 515.237 -2.39498 -3.09446 0
M  V30 5225 H 514.86 -0.870236 -3.8796 0
M  V30 5226 N 515.857 1.33968 -0.830081 0
M  V30 5227 C 517.097 1.99879 -0.427521 0
M  V30 5228 C 517.461 1.64355 0.992546 0
M  V30 5229 O 518.662 2.23164 1.49837 0
M  V30 5230 C 516.933 3.51771 -0.631815 0
M  V30 5231 S 518.492 4.37608 -0.323168 0
M  V30 5232 H 515.31 0.692485 -0.161202 0
M  V30 5233 H 517.912 1.63129 -1.07745 0
M  V30 5234 H 516.616 3.75113 -1.66488 0
M  V30 5235 H 516.147 3.93386 0.0325936 0
M  V30 5236 H 518.162 4.88683 0.860432 0
M  V30 5237 N 517.335 0.585699 1.46312 0
M  V30 5238 C 518.245 -0.148236 2.34131 0
M  V30 5239 C 519.261 -0.882972 1.49932 0
M  V30 5240 O 520.437 -0.845484 1.82794 0
M  V30 5241 C 517.502 -1.14714 3.27172 0
M  V30 5242 C 516.563 -0.416746 4.27272 0
M  V30 5243 C 515.796 -1.36806 5.15868 0
M  V30 5244 O 516.019 -2.60475 5.07454 0
M  V30 5245 O 514.953 -0.877018 5.95476 0
M  V30 5246 H 518.779 0.572882 2.98248 0
M  V30 5247 H 516.364 0.346082 1.45336 0
M  V30 5248 H 518.246 -1.72303 3.84564 0
M  V30 5249 H 516.921 -1.84967 2.65648 0
M  V30 5250 H 515.828 0.201061 3.73559 0
M  V30 5251 H 517.161 0.244872 4.9159 0
M  V30 5252 N 518.813 -1.54241 0.323641 0
M  V30 5253 C 520.09 -1.92741 -0.333181 0
M  V30 5254 C 520.47 -1.25326 -1.69872 0
M  V30 5255 O 519.818 -0.396991 -2.25025 0
M  V30 5256 C 520.028 -3.46399 -0.425322 0
M  V30 5257 C 521.376 -4.19029 -0.68557 0
M  V30 5258 O 522.4 -3.52555 -0.50824 0
M  V30 5259 O 521.259 -5.36751 -1.02767 0
M  V30 5260 H 518.353 -0.804811 -0.190286 0
M  V30 5261 H 520.899 -1.65542 0.373361 0
M  V30 5262 H 519.671 -3.87643 0.533737 0
M  V30 5263 H 519.294 -3.79704 -1.17944 0
M  V30 5264 N 520.291 -0.0518155 -1.57515 0
M  V30 5265 C 521.707 0.304735 -1.56664 0
M  V30 5266 C 521.907 1.71395 -1.05953 0
M  V30 5267 O 520.963 2.42123 -0.716414 0
M  V30 5268 C 522.276 0.132614 -3.00407 0
M  V30 5269 C 523.824 0.20367 -3.12337 0
M  V30 5270 C 524.299 0.0600706 -4.57961 0
M  V30 5271 N 525.79 0.116326 -4.63054 0
M  V30 5272 C 526.525 0.0293363 -5.73392 0
M  V30 5273 N 526.021 -0.110038 -6.92713 0
M  V30 5274 N 527.814 0.0849651 -5.62036 0
M  V30 5275 H 519.965 -0.973056 -1.888 0
M  V30 5276 H 522.228 -0.377781 -0.869474 0
M  V30 5277 H 521.934 -0.839019 -3.41546 0
M  V30 5278 H 521.808 0.893376 -3.66468 0
M  V30 5279 H 524.195 1.16578 -2.71097 0
M  V30 5280 H 524.276 -0.587857 -2.48954 0
M  V30 5281 H 523.92 -0.898715 -4.99886 0
M  V30 5282 H 523.85 0.87075 -5.19351 0
M  V30 5283 H 526.341 0.22327 -3.7724 0
M  V30 5284 H 526.654 -0.169104 -7.72615 0
M  V30 5285 H 524.999 -0.145132 -6.94848 0
M  V30 5286 H 528.19 0.192411 -4.67704 0
M  V30 5287 H 528.363 0.0137131 -6.47999 0
M  V30 5288 N 521.769 1.56035 0.221574 0
M  V30 5289 C 522.997 1.8313 0.962864 0
M  V30 5290 C 523.412 0.630934 1.77946 0
M  V30 5291 O 522.769 -0.400519 1.78051 0
M  V30 5292 C 522.82 3.08742 1.88045 0
M  V30 5293 O 522.541 4.24147 1.09686 0
M  V30 5294 C 524.042 3.48824 2.73563 0
M  V30 5295 H 521.262 0.608775 0.282194 0
M  V30 5296 H 523.806 2.03124 0.23681 0
M  V30 5297 H 521.961 2.90723 2.56045 0
M  V30 5298 H 522.375 4.95505 1.71974 0
M  V30 5299 H 523.849 4.39752 3.3365 0
M  V30 5300 H 524.326 2.70575 3.45956 0
M  V30 5301 H 524.932 3.69282 2.10976 0
M  V30 5302 N 523.247 -0.488276 1.49845 0
M  V30 5303 C 524.524 -1.24959 1.50481 0
M  V30 5304 C 524.904 -2.09735 0.239698 0
M  V30 5305 O 524.252 -2.14865 -0.777524 0
M  V30 5306 C 524.462 -2.0954 2.79095 0
M  V30 5307 C 525.81 -2.68305 3.29086 0
M  V30 5308 O 526.834 -2.19797 2.80299 0
M  V30 5309 O 525.693 -3.56643 4.14087 0
M  V30 5310 H 522.787 -0.566133 0.602845 0
M  V30 5311 H 525.333 -0.501504 1.6212 0
M  V30 5312 H 524.105 -1.46958 3.62656 0
M  V30 5313 H 523.728 -2.91517 2.70377 0
M  V30 5314 N 524.725 -1.39134 -0.740242 0
M  V30 5315 C 525.635 -1.39697 -1.88473 0
M  V30 5316 C 526.651 -0.292403 -1.71526 0
M  V30 5317 O 527.827 -0.533021 -1.94219 0
M  V30 5318 C 524.892 -1.23382 -3.24003 0
M  V30 5319 C 523.953 -2.43763 -3.53381 0
M  V30 5320 C 523.186 -2.28216 -4.82445 0
M  V30 5321 O 523.409 -1.28288 -5.55786 0
M  V30 5322 O 522.343 -3.1709 -5.11603 0
M  V30 5323 H 526.169 -2.36159 -1.90952 0
M  V30 5324 H 523.754 -1.20194 -0.887346 0
M  V30 5325 H 525.636 -1.16395 -4.05006 0
M  V30 5326 H 524.311 -0.300121 -3.22306 0
M  V30 5327 H 523.218 -2.56325 -2.72485 0
M  V30 5328 H 524.551 -3.35808 -3.59852 0
M  V30 5329 N 526.204 0.969867 -1.24223 0
M  V30 5330 C 527.167 2.04564 -1.03373 0
M  V30 5331 C 528.167 1.60798 0.00819206 0
M  V30 5332 O 529.357 1.72641 -0.232567 0
M  V30 5333 C 526.489 3.36163 -0.566343 0
M  V30 5334 H 527.682 2.24494 -1.98853 0
M  V30 5335 H 525.235 1.1448 -1.06415 0
M  V30 5336 H 525.97 3.21925 0.391751 0
M  V30 5337 H 525.755 3.69273 -1.31834 0
M  V30 5338 H 527.245 4.1526 -0.441435 0
M  V30 5339 N 527.682 1.05563 1.17022 0
M  V30 5340 C 528.63 0.653887 2.2322 0
M  V30 5341 C 529.624 -0.326642 1.66221 0
M  V30 5342 O 530.83 -0.192301 1.7897 0
M  V30 5343 H 527.205 0.193297 0.726733 0
M  V30 5344 H 529.176 1.5596 2.54399 0
M  V30 5345 C 527.925 0.0485434 3.47666 0
M  V30 5346 H 527.248 0.79413 3.91834 0
M  V30 5347 H 528.688 -0.195133 4.23551 0
M  V30 5348 C 527.147 -1.20583 3.14581 0
M  V30 5349 O 527.677 -2.29475 3.29703 0
M  V30 5350 N 525.883 -1.10493 2.68774 0
M  V30 5351 H 525.43 -0.218795 2.56669 0
M  V30 5352 H 525.388 -1.94507 2.47011 0
M  V30 5353 N 529.16 -1.33526 0.837174 0
M  V30 5354 C 530.4 -1.99649 0.438115 0
M  V30 5355 C 530.764 -1.64879 -0.983816 0
M  V30 5356 O 531.965 -2.23956 -1.48651 0
M  V30 5357 C 530.236 -3.51431 0.650461 0
M  V30 5358 S 531.795 -4.37431 0.346371 0
M  V30 5359 H 528.613 -0.69162 0.164872 0
M  V30 5360 H 531.215 -1.62556 1.08609 0
M  V30 5361 H 529.919 -3.74225 1.68475 0
M  V30 5362 H 529.45 -3.93398 -0.0117309 0
M  V30 5363 H 531.465 -4.89132 -0.834504 0
M  V30 5364 N 530.638 -0.59345 -1.46 0
M  V30 5365 C 532.049 -0.169801 -1.85926 0
M  V30 5366 C 532.4 1.26984 -1.49565 0
M  V30 5367 O 531.525 1.96076 -0.915602 0
M  V30 5368 C 532.12 -0.301385 -3.37457 0
M  V30 5369 C 530.679 0.0674684 -3.7634 0
M  V30 5370 C 529.826 -0.632383 -2.69993 0
M  V30 5371 H 532.777 -0.801014 -1.37002 0
M  V30 5372 H 532.798 0.470331 -3.77582 0
M  V30 5373 H 532.31 -1.34927 -3.63891 0
M  V30 5374 H 530.411 1.11507 -3.55523 0
M  V30 5375 H 530.524 -0.316332 -4.78055 0
M  V30 5376 H 528.888 -0.0714961 -2.546 0
M  V30 5377 H 529.671 -1.68212 -2.99265 0
M  V30 5378 N 532.116 1.54067 -0.331816 0
M  V30 5379 C 533.344 2.05131 0.269996 0
M  V30 5380 C 533.759 1.20749 1.45138 0
M  V30 5381 O 533.116 0.240069 1.80914 0
M  V30 5382 C 533.167 3.54728 0.696456 0
M  V30 5383 O 532.888 4.35906 -0.43794 0
M  V30 5384 C 534.389 4.21916 1.36021 0
M  V30 5385 H 531.609 0.668807 0.0542042 0
M  V30 5386 H 534.153 1.98777 -0.4804 0
M  V30 5387 H 532.308 3.61342 1.39681 0
M  V30 5388 H 532.722 5.24404 -0.100334 0
M  V30 5389 H 534.196 5.28015 1.60947 0
M  V30 5390 H 534.673 3.73538 2.31011 0
M  V30 5391 H 535.279 4.19463 0.702212 0
M  V30 5392 N 533.594 0.0601682 1.57485 0
M  V30 5393 C 534.541 -0.91112 2.12055 0
M  V30 5394 C 535.511 -1.30298 1.03013 0
M  V30 5395 O 536.696 -1.39087 1.30612 0
M  V30 5396 C 533.836 -2.1775 2.67729 0
M  V30 5397 C 532.949 -1.83933 3.90887 0
M  V30 5398 C 532.084 -3.05096 4.34845 0
M  V30 5399 C 531.123 -2.67241 5.5068 0
M  V30 5400 N 530.26 -3.81127 5.8965 0
M  V30 5401 H 535.1 -0.43888 2.9475 0
M  V30 5402 H 532.637 -0.204995 1.45665 0
M  V30 5403 H 534.595 -2.91866 2.98111 0
M  V30 5404 H 533.225 -2.62535 1.87816 0
M  V30 5405 H 532.277 -0.999287 3.6704 0
M  V30 5406 H 533.589 -1.52074 4.75052 0
M  V30 5407 H 532.743 -3.87502 4.66827 0
M  V30 5408 H 531.482 -3.40139 3.49509 0
M  V30 5409 H 530.487 -1.83254 5.18361 0
M  V30 5410 H 531.712 -2.3338 6.37738 0
M  V30 5411 H 529.658 -4.15954 5.07266 0
M  V30 5412 H 529.575 -3.52997 6.68528 0
M  V30 5413 H 530.843 -4.64145 6.2625 0
M  V30 5414 N 535.072 -1.5615 -0.213296 0
M  V30 5415 C 536.488 -1.49327 -0.56336 0
M  V30 5416 C 536.688 -0.756826 -1.86747 0
M  V30 5417 O 535.744 -0.299866 -2.50713 0
M  V30 5418 C 537.057 -2.9392 -0.634944 0
M  V30 5419 C 538.605 -3.04487 -0.725013 0
M  V30 5420 C 539.08 -4.50456 -0.82787 0
M  V30 5421 N 540.571 -4.54533 -0.891876 0
M  V30 5422 C 541.306 -5.64766 -0.991315 0
M  V30 5423 N 540.802 -6.84733 -1.05419 0
M  V30 5424 N 542.595 -5.52637 -1.02709 0
M  V30 5425 H 534.746 -2.02453 0.642366 0
M  V30 5426 H 537.009 -0.920548 0.226487 0
M  V30 5427 H 536.715 -3.50783 0.253859 0
M  V30 5428 H 536.589 -3.46274 -1.49579 0
M  V30 5429 H 538.976 -2.47685 -1.60425 0
M  V30 5430 H 539.057 -2.55289 0.161669 0
M  V30 5431 H 538.701 -5.07878 0.0469464 0
M  V30 5432 H 538.631 -4.97369 -1.73009 0
M  V30 5433 H 541.122 -3.68141 -0.85327 0
M  V30 5434 H 541.435 -7.64493 -1.13007 0
M  V30 5435 H 539.78 -6.87427 -1.02318 0
M  V30 5436 H 542.971 -4.5784 -0.974687 0
M  V30 5437 H 543.144 -6.38576 -1.10113 0
M  V30 5438 N 536.55 0.480323 -1.50102 0
M  V30 5439 C 537.961 1.06142 -1.53593 0
M  V30 5440 C 538.312 1.93335 -0.334055 0
M  V30 5441 O 537.437 2.09188 0.55403 0
M  V30 5442 C 538.032 1.9317 -2.78336 0
M  V30 5443 C 536.591 2.46405 -2.84538 0
M  V30 5444 C 535.738 1.24521 -2.4777 0
M  V30 5445 H 538.689 0.26333 -1.565 0
M  V30 5446 H 538.71 2.78123 -2.59669 0
M  V30 5447 H 538.222 1.29683 -3.65792 0
M  V30 5448 H 536.323 3.13472 -2.01411 0
M  V30 5449 H 536.436 2.82143 -3.87211 0
M  V30 5450 H 534.8 1.57706 -2.00003 0
M  V30 5451 H 535.583 0.627102 -3.37524 0
M  V30 5452 N 538.028 1.39524 0.732853 0
M  V30 5453 C 538.938 1.40695 1.87729 0
M  V30 5454 C 539.954 0.301496 1.71368 0
M  V30 5455 O 541.13 0.543313 1.93933 0
M  V30 5456 C 538.195 1.25098 3.23344 0
M  V30 5457 C 537.256 2.45634 3.52083 0
M  V30 5458 C 536.489 2.30772 4.81228 0
M  V30 5459 O 536.712 1.31233 5.55098 0
M  V30 5460 O 535.646 3.19799 5.09914 0
M  V30 5461 H 539.472 2.37168 1.89697 0
M  V30 5462 H 537.057 1.20663 0.880959 0
M  V30 5463 H 538.939 1.18541 4.04383 0
M  V30 5464 H 537.614 0.317209 3.22142 0
M  V30 5465 H 536.521 2.57767 2.71122 0
M  V30 5466 H 537.854 3.37712 3.58066 0
M  V30 5467 N 539.506 -0.963266 1.24736 0
M  V30 5468 C 540.416 -2.09246 1.06082 0
M  V30 5469 C 541.432 -1.74 0.000363101 0
M  V30 5470 O 542.608 -2.0041 0.199479 0
M  V30 5471 C 539.673 -3.40115 0.672498 0
M  V30 5472 C 538.734 -3.89282 1.80993 0
M  V30 5473 C 537.967 -5.13905 1.44004 0
M  V30 5474 O 538.19 -5.69434 0.331835 0
M  V30 5475 O 537.124 -5.57566 2.26723 0
M  V30 5476 H 540.95 -2.27881 2.00759 0
M  V30 5477 H 538.535 -1.07649 1.03595 0
M  V30 5478 H 540.417 -4.18797 0.467668 0
M  V30 5479 H 539.092 -3.22771 -0.245102 0
M  V30 5480 H 537.999 -3.11642 2.06955 0
M  V30 5481 H 539.332 -4.1111 2.70646 0
M  V30 5482 N 540.985 -1.06182 -1.16461 0
M  V30 5483 C 542.231 -0.779015 -1.87241 0
M  V30 5484 C 542.564 0.692715 -1.81425 0
M  V30 5485 O 541.839 1.5074 -1.22913 0
M  V30 5486 C 542.122 -1.2728 -3.36856 0
M  V30 5487 C 541.975 -2.80821 -3.51368 0
M  V30 5488 C 543.294 -0.879799 -4.31216 0
M  V30 5489 H 540.413 -0.284464 -0.679889 0
M  V30 5490 H 543.055 -1.31755 -1.36896 0
M  V30 5491 H 541.205 -0.814673 -3.79862 0
M  V30 5492 H 542.877 -3.34833 -3.17308 0
M  V30 5493 H 541.12 -3.19606 -2.93316 0
M  V30 5494 H 541.791 -3.10435 -4.56436 0
M  V30 5495 H 544.267 -1.27436 -3.96105 0
M  V30 5496 H 543.143 -1.25278 -5.34412 0
M  V30 5497 H 543.404 0.215372 -4.41575 0
M  V30 5498 N 542.463 1.3308 -0.844243 0
M  V30 5499 C 543.703 1.99414 -0.448697 0
M  V30 5500 C 544.067 1.65398 0.975058 0
M  V30 5501 O 545.268 2.24741 1.47461 0
M  V30 5502 C 543.539 3.51081 -0.669089 0
M  V30 5503 S 545.098 4.37241 -0.369564 0
M  V30 5504 H 541.916 0.690736 -0.168538 0
M  V30 5505 H 544.518 1.61977 -1.0947 0
M  V30 5506 H 543.222 3.73326 -1.70457 0
M  V30 5507 H 542.753 3.93399 -0.00913211 0
M  V30 5508 H 544.768 4.89568 0.808552 0
M  V30 5509 N 543.941 0.601185 1.45683 0
M  V30 5510 C 545.189 0.0936957 2.01883 0
M  V30 5511 C 545.51 -1.2779 1.47291 0
M  V30 5512 O 544.78 -1.84279 0.664691 0
M  V30 5513 H 543.36 0.0316466 0.746329 0
M  V30 5514 H 546.022 0.781137 1.78562 0
M  V30 5515 H 545.118 0.0386297 3.12076 0
M  V30 5516 N 545.419 -1.53889 0.339982 0
M  V30 5517 C 546.83 -1.86139 -0.144671 0
M  V30 5518 C 547.181 -1.2613 -1.50285 0
M  V30 5519 O 546.306 -0.573515 -2.08662 0
M  V30 5520 C 546.901 -3.37728 -0.269285 0
M  V30 5521 C 545.46 -3.69868 -0.698168 0
M  V30 5522 C 544.607 -2.76777 0.170249 0
M  V30 5523 H 547.558 -1.48503 0.559704 0
M  V30 5524 H 547.579 -3.64331 -1.0974 0
M  V30 5525 H 547.091 -3.81375 0.719366 0
M  V30 5526 H 545.192 -3.31764 -1.69597 0
M  V30 5527 H 545.305 -4.76582 -0.490533 0
M  V30 5528 H 543.669 -2.52188 -0.356844 0
M  V30 5529 H 544.452 -3.23253 1.15597 0
M  V30 5530 N 546.897 -0.0685191 -1.57451 0
M  V30 5531 C 548.125 0.610462 -1.97689 0
M  V30 5532 C 548.54 1.63346 -0.946758 0
M  V30 5533 O 547.897 1.82377 0.0669868 0
M  V30 5534 C 547.948 1.28196 -3.38006 0
M  V30 5535 O 547.669 0.299906 -4.37072 0
M  V30 5536 C 549.17 2.04907 -3.931 0
M  V30 5537 H 546.39 0.165689 -0.650222 0
M  V30 5538 H 548.934 -0.139953 -2.04021 0
M  V30 5539 H 547.089 1.98348 -3.32771 0
M  V30 5540 H 547.503 0.78126 -5.18649 0
M  V30 5541 H 548.977 2.47287 -4.93511 0
M  V30 5542 H 549.454 2.9043 -3.29465 0
M  V30 5543 H 550.06 1.39629 -4.01726 0
M  V30 5544 N 548.375 1.56261 0.205012 0
M  V30 5545 C 549.307 1.90266 1.27795 0
M  V30 5546 C 550.32 0.792397 1.42214 0
M  V30 5547 O 551.509 1.07077 1.42817 0
M  V30 5548 C 548.609 2.11074 2.65143 0
M  V30 5549 C 547.782 3.42176 2.7246 0
M  V30 5550 C 546.841 3.52216 3.90936 0
M  V30 5551 O 545.867 4.25119 3.78501 0
M  V30 5552 N 547.069 2.84573 5.05963 0
M  V30 5553 H 549.834 2.82896 0.989434 0
M  V30 5554 H 547.395 1.57008 0.394981 0
M  V30 5555 H 549.387 2.15089 3.4281 0
M  V30 5556 H 547.957 1.2499 2.86524 0
M  V30 5557 H 547.177 3.50116 1.81142 0
M  V30 5558 H 548.465 4.28509 2.74331 0
M  V30 5559 H 547.863 2.25152 5.18963 0
M  V30 5560 H 546.42 2.94228 5.81613 0
M  V30 5561 N 549.853 -0.472356 1.50355 0
M  V30 5562 C 551.1 -1.22453 1.61281 0
M  V30 5563 C 551.428 -1.91972 0.31256 0
M  V30 5564 O 550.683 -1.82696 -0.701475 0
M  V30 5565 C 550.982 -2.29257 2.74182 0
M  V30 5566 C 550.648 -1.76999 4.14708 0
M  V30 5567 C 549.31 -1.62467 4.52944 0
M  V30 5568 C 551.662 -1.38215 5.0254 0
M  V30 5569 C 548.99 -1.07574 5.76754 0
M  V30 5570 C 551.342 -0.847638 6.26895 0
M  V30 5571 C 550.006 -0.688946 6.63935 0
M  V30 5572 H 549.276 -0.448087 0.590168 0
M  V30 5573 H 551.923 -0.520744 1.84284 0
M  V30 5574 H 550.228 -3.05538 2.45263 0
M  V30 5575 H 551.925 -2.87212 2.7984 0
M  V30 5576 H 548.515 -1.89276 3.84542 0
M  V30 5577 H 552.699 -1.48276 4.73633 0
M  V30 5578 H 547.955 -0.940237 6.04127 0
M  V30 5579 H 552.129 -0.538455 6.94315 0
M  V30 5580 H 549.756 -0.261435 7.5975 0
M  V30 5581 N 551.331 -1.39911 -0.725443 0
M  V30 5582 C 552.747 -1.21725 -1.03224 0
M  V30 5583 C 552.947 -0.0855224 -2.01318 0
M  V30 5584 O 552.003 0.55976 -2.46217 0
M  V30 5585 C 553.316 -2.55511 -1.58539 0
M  V30 5586 C 554.864 -2.62439 -1.70572 0
M  V30 5587 C 555.339 -3.9647 -2.29294 0
M  V30 5588 N 556.83 -3.98159 -2.36692 0
M  V30 5589 C 557.565 -4.98647 -2.83088 0
M  V30 5590 N 557.061 -6.0953 -3.2931 0
M  V30 5591 N 558.854 -4.8602 -2.82384 0
M  V30 5592 H 551.005 -2.12267 -0.075048 0
M  V30 5593 H 553.268 -0.943136 -0.0959066 0
M  V30 5594 H 552.974 -3.38926 -0.939249 0
M  V30 5595 H 552.848 -2.75905 -2.57208 0
M  V30 5596 H 555.235 -1.79401 -2.34306 0
M  V30 5597 H 555.316 -2.45885 -0.705297 0
M  V30 5598 H 554.96 -4.79942 -1.66186 0
M  V30 5599 H 554.89 -4.10349 -3.30032 0
M  V30 5600 H 557.381 -3.18085 -2.04035 0
M  V30 5601 H 557.694 -6.82106 -3.6325 0
M  V30 5602 H 556.039 -6.1311 -3.27294 0
M  V30 5603 H 559.23 -3.98493 -2.45603 0
M  V30 5604 H 559.403 -5.64478 -3.18226 0
M  V30 5605 N 552.809 0.956637 -1.25245 0
M  V30 5606 C 554.049 1.71585 -1.11076 0
M  V30 5607 C 554.413 1.88916 0.34277 0
M  V30 5608 O 555.614 2.61875 0.606227 0
M  V30 5609 C 553.885 3.06267 -1.84215 0
M  V30 5610 S 555.444 3.97469 -1.85914 0
M  V30 5611 H 552.262 0.589803 -0.397055 0
M  V30 5612 H 554.864 1.14114 -1.58739 0
M  V30 5613 H 553.568 2.91322 -2.89067 0
M  V30 5614 H 553.099 3.688 -1.36931 0
M  V30 5615 H 555.114 4.87316 -0.93474 0
M  V30 5616 N 554.287 1.06798 1.15896 0
M  V30 5617 C 555.533 0.788934 1.86825 0
M  V30 5618 C 555.866 -0.683084 1.8179 0
M  V30 5619 O 555.141 -1.50086 1.23711 0
M  V30 5620 C 555.424 1.29065 3.36176 0
M  V30 5621 C 555.277 2.8268 3.49874 0
M  V30 5622 C 556.596 0.902655 4.30744 0
M  V30 5623 H 553.715 0.288066 0.678371 0
M  V30 5624 H 556.357 1.32479 1.36195 0
M  V30 5625 H 554.507 0.834806 3.79425 0
M  V30 5626 H 556.179 3.36511 3.15528 0
M  V30 5627 H 554.422 3.21157 2.91617 0
M  V30 5628 H 555.093 3.12852 4.54783 0
M  V30 5629 H 557.569 1.29535 3.95424 0
M  V30 5630 H 556.445 1.28111 5.3374 0
M  V30 5631 H 556.706 -0.191951 4.41683 0
M  V30 5632 N 555.766 -1.3263 0.851289 0
M  V30 5633 C 556.991 -2.02097 0.466006 0
M  V30 5634 C 557.416 -1.63574 -0.928709 0
M  V30 5635 O 556.774 -0.834665 -1.60944 0
M  V30 5636 C 556.822 -3.55425 0.608737 0
M  V30 5637 O 555.926 -4.10827 -0.359878 0
M  V30 5638 H 555.267 -0.636911 0.187724 0
M  V30 5639 H 557.797 -1.69253 1.14955 0
M  V30 5640 H 557.807 -4.04986 0.495006 0
M  V30 5641 H 556.482 -3.82806 1.62581 0
M  V30 5642 H 555.059 -3.72349 -0.202666 0
M  V30 5643 N 557.244 -0.608902 -1.45362 0
M  V30 5644 C 558.472 -0.111013 -2.06602 0
M  V30 5645 C 558.887 1.20516 -1.45332 0
M  V30 5646 O 558.244 1.73437 -0.567978 0
M  V30 5647 C 558.295 0.033688 -3.61484 0
M  V30 5648 O 558.016 -1.23041 -4.20467 0
M  V30 5649 C 559.517 0.562882 -4.39712 0
M  V30 5650 H 556.737 -0.0694453 -0.667397 0
M  V30 5651 H 559.281 -0.837008 -1.86586 0
M  V30 5652 H 557.436 0.710016 -3.80838 0
M  V30 5653 H 557.85 -1.06094 -5.13658 0
M  V30 5654 H 559.324 0.613213 -5.48583 0
M  V30 5655 H 559.801 1.58543 -4.09586 0
M  V30 5656 H 560.407 -0.0794454 -4.25226 0
M  V30 5657 N 558.722 1.53707 -0.348139 0
M  V30 5658 C 559.67 2.26671 0.521808 0
M  V30 5659 C 560.664 1.28988 1.09811 0
M  V30 5660 O 561.87 1.4668 1.04332 0
M  V30 5661 H 558.245 0.728387 0.186968 0
M  V30 5662 H 560.216 2.98176 -0.115563 0
M  V30 5663 C 558.965 3.05591 1.6586 0
M  V30 5664 H 558.288 3.80589 1.22443 0
M  V30 5665 H 559.728 3.59851 2.24239 0
M  V30 5666 C 558.187 2.15366 2.59073 0
M  V30 5667 O 558.717 1.7528 3.61441 0
M  V30 5668 N 556.923 1.80352 2.27863 0
M  V30 5669 H 556.47 2.13149 1.44656 0
M  V30 5670 H 556.428 1.20268 2.90488 0
M  V30 5671 N 560.2 0.0768682 1.57412 0
M  V30 5672 C 561.133 -0.924685 2.08626 0
M  V30 5673 C 562.111 -1.28792 0.992542 0
M  V30 5674 O 563.295 -1.39634 1.26628 0
M  V30 5675 C 560.422 -2.23131 2.54814 0
M  V30 5676 C 559.468 -2.01928 3.75669 0
M  V30 5677 S 560.301 -1.27397 5.20125 0
M  V30 5678 C 561.457 -2.59329 5.69648 0
M  V30 5679 H 561.69 -0.488928 2.93252 0
M  V30 5680 H 559.223 -0.136014 1.538 0
M  V30 5681 H 561.181 -2.98226 2.82084 0
M  V30 5682 H 559.842 -2.63831 1.70447 0
M  V30 5683 H 559.035 -2.98639 4.05993 0
M  V30 5684 H 558.637 -1.34967 3.48798 0
M  V30 5685 H 560.929 -3.55394 5.76803 0
M  V30 5686 H 561.872 -2.33608 6.68456 0
M  V30 5687 H 562.28 -2.66767 4.9749 0
M  V30 5688 N 561.678 -1.56367 -0.196722 0
M  V30 5689 C 562.918 -1.82315 -0.92415 0
M  V30 5690 C 563.282 -0.654117 -1.80514 0
M  V30 5691 O 564.483 -0.79345 -2.56823 0
M  V30 5692 C 562.754 -3.13279 -1.72021 0
M  V30 5693 S 564.313 -3.60627 -2.49988 0
M  V30 5694 H 561.131 -0.639862 -0.309997 0
M  V30 5695 H 563.733 -1.94597 -0.187684 0
M  V30 5696 H 562.437 -3.96379 -1.06358 0
M  V30 5697 H 561.968 -3.03871 -2.49852 0
M  V30 5698 H 563.983 -3.25934 -3.74141 0
M  V30 5699 N 563.156 0.464375 -1.50603 0
M  V30 5700 C 564.405 1.21277 -1.61167 0
M  V30 5701 C 564.718 1.92953 -0.320704 0
M  V30 5702 O 565.924 2.69778 -0.30534 0
M  V30 5703 C 564.38 2.20403 -2.84518 0
M  V30 5704 C 563.988 1.54499 -4.20516 0
M  V30 5705 C 565.732 2.95843 -3.0443 0
M  V30 5706 C 563.639 2.51951 -5.35047 0
M  V30 5707 H 562.569 0.456367 -0.600204 0
M  V30 5708 H 565.22 0.48254 -1.77042 0
M  V30 5709 H 563.602 2.96746 -2.62217 0
M  V30 5710 H 564.776 0.83899 -4.53098 0
M  V30 5711 H 563.091 0.913152 -4.06264 0
M  V30 5712 H 565.688 3.6879 -3.87167 0
M  V30 5713 H 566.031 3.55622 -2.16423 0
M  V30 5714 H 566.564 2.26611 -3.26944 0
M  V30 5715 H 563.303 1.96901 -6.25228 0
M  V30 5716 H 562.823 3.20683 -5.06875 0
M  V30 5717 H 564.502 3.13643 -5.65895 0
M  V30 5718 N 564.634 1.40294 0.718013 0
M  V30 5719 C 566.045 1.34289 1.29705 0
M  V30 5720 C 566.396 0.0152228 1.96194 0
M  V30 5721 O 565.521 -0.88682 1.97394 0
M  V30 5722 C 566.116 2.43219 2.3586 0
M  V30 5723 C 564.675 2.40682 2.89394 0
M  V30 5724 C 563.822 2.24223 1.63154 0
M  V30 5725 H 566.773 1.50135 0.514312 0
M  V30 5726 H 566.794 2.10986 3.16647 0
M  V30 5727 H 566.306 3.39836 1.87439 0
M  V30 5728 H 564.407 1.47756 3.42051 0
M  V30 5729 H 564.52 3.36177 3.41353 0
M  V30 5730 H 562.884 1.71696 1.88129 0
M  V30 5731 H 563.667 3.22834 1.16761 0
M  V30 5732 N 566.112 -0.949982 1.2575 0
M  V30 5733 C 567.075 -2.02894 1.06615 0
M  V30 5734 C 568.075 -1.60791 0.0173905 0
M  V30 5735 O 569.265 -1.72249 0.260003 0
M  V30 5736 C 566.397 -3.35219 0.619751 0
M  V30 5737 H 567.59 -2.21302 2.02399 0
M  V30 5738 H 565.143 -1.12772 1.08223 0
M  V30 5739 H 565.878 -3.22508 -0.340486 0
M  V30 5740 H 565.663 -3.67129 1.37692 0
M  V30 5741 H 567.153 -4.14505 0.507443 0
M  V30 5742 N 567.59 -1.07411 -1.15328 0
M  V30 5743 C 568.815 -0.818856 -1.90551 0
M  V30 5744 C 569.24 0.622194 -1.77512 0
M  V30 5745 O 568.598 1.43484 -1.10824 0
M  V30 5746 C 568.646 -1.23267 -3.38877 0
M  V30 5747 O 567.75 -0.378345 -4.10661 0
M  V30 5748 H 567.091 -0.29827 -0.593238 0
M  V30 5749 H 569.621 -1.43289 -1.46046 0
M  V30 5750 H 569.631 -1.20912 -3.89672 0
M  V30 5751 H 568.306 -2.28226 -3.47686 0
M  V30 5752 H 566.883 -0.464437 -3.69996 0
M  V30 5753 N 569.068 1.32177 -0.85831 0
M  V30 5754 C 570.315 1.97125 -0.463484 0
M  V30 5755 C 570.643 1.67907 0.981705 0
M  V30 5756 O 569.898 0.961717 1.70439 0
M  V30 5757 C 570.197 3.51372 -0.653658 0
M  V30 5758 C 569.863 4.00584 -2.06987 0
M  V30 5759 C 568.525 4.13733 -2.4572 0
M  V30 5760 C 570.877 4.26624 -2.99402 0
M  V30 5761 C 568.205 4.50268 -3.76132 0
M  V30 5762 C 570.557 4.64618 -4.29316 0
M  V30 5763 C 569.221 4.75975 -4.67979 0
M  V30 5764 H 568.491 0.72133 -0.169601 0
M  V30 5765 H 571.138 1.57517 -1.08907 0
M  V30 5766 H 569.443 3.91761 0.0551328 0
M  V30 5767 H 571.14 3.99655 -0.328163 0
M  V30 5768 H 567.73 3.90837 -1.75911 0
M  V30 5769 H 571.914 4.1597 -2.70708 0
M  V30 5770 H 567.17 4.57256 -4.05865 0
M  V30 5771 H 571.344 4.83722 -5.00985 0
M  V30 5772 H 568.971 5.04041 -5.69076 0
M  V30 5773 N 570.547 0.616602 1.45037 0
M  V30 5774 C 571.497 -0.118543 2.27692 0
M  V30 5775 C 572.481 -0.830025 1.37838 0
M  V30 5776 O 573.673 -0.718528 1.6176 0
M  V30 5777 C 570.802 -1.10924 3.24886 0
M  V30 5778 C 569.888 -0.398134 4.22227 0
M  V30 5779 N 570.279 0.565233 5.02632 0
M  V30 5780 C 568.577 -0.644506 4.41319 0
M  V30 5781 C 569.278 0.984043 5.73316 0
M  V30 5782 N 568.254 0.325879 5.42622 0
M  V30 5783 H 572.056 0.621239 2.87259 0
M  V30 5784 H 569.57 0.440968 1.56299 0
M  V30 5785 H 571.567 -1.65038 3.82842 0
M  V30 5786 H 570.227 -1.84948 2.66879 0
M  V30 5787 H 571.238 0.942395 5.09254 0
M  V30 5788 H 567.915 -1.36873 3.94426 0
M  V30 5789 H 569.305 1.77911 6.47918 0
M  V30 5790 N 572.025 -1.5352 0.356285 0
M  V30 5791 C 573.265 -2.03027 -0.23649 0
M  V30 5792 C 573.629 -1.23813 -1.46746 0
M  V30 5793 O 574.83 -1.63281 -2.13525 0
M  V30 5794 C 573.101 -3.53442 -0.530415 0
M  V30 5795 S 574.66 -4.24836 -1.09819 0
M  V30 5796 H 571.478 -0.707591 -0.0695378 0
M  V30 5797 H 574.08 -1.89077 0.496999 0
M  V30 5798 H 572.784 -4.087 0.373114 0
M  V30 5799 H 572.315 -3.71536 -1.29323 0
M  V30 5800 H 574.33 -4.35228 -2.38309 0
M  V30 5801 N 573.503 -0.0852151 -1.57369 0
M  V30 5802 C 574.78 0.622534 -1.85429 0
M  V30 5803 C 575.16 1.86962 -0.980229 0
M  V30 5804 O 574.508 2.28445 -0.0500219 0
M  V30 5805 C 574.718 0.947374 -3.35896 0
M  V30 5806 C 576.066 1.31509 -4.03721 0
M  V30 5807 O 577.09 1.03869 -3.40719 0
M  V30 5808 O 575.949 1.83231 -5.14868 0
M  V30 5809 H 573.043 0.310513 -0.766492 0
M  V30 5810 H 575.589 -0.117164 -1.69295 0
M  V30 5811 H 574.361 0.0622264 -3.91251 0
M  V30 5812 H 573.984 1.74338 -3.5734 0
M  V30 5813 N 574.981 1.5647 0.188427 0
M  V30 5814 C 575.891 1.98285 1.2538 0
M  V30 5815 C 576.907 0.891535 1.49424 0
M  V30 5816 O 578.083 1.19782 1.61908 0
M  V30 5817 C 575.148 2.31965 2.57669 0
M  V30 5818 C 574.209 3.54838 2.41638 0
M  V30 5819 C 573.442 3.86901 3.67618 0
M  V30 5820 O 573.665 3.20163 4.72072 0
M  V30 5821 O 572.599 4.80309 3.62749 0
M  V30 5822 H 576.425 2.89145 0.928912 0
M  V30 5823 H 574.01 1.44112 0.393955 0
M  V30 5824 H 575.892 2.54673 3.35737 0
M  V30 5825 H 574.567 1.44271 2.89771 0
M  V30 5826 H 573.474 3.37369 1.61658 0
M  V30 5827 H 574.807 4.43019 2.14465 0
M  V30 5828 N 576.459 -0.456382 1.50847 0
M  V30 5829 C 577.369 -1.57805 1.73594 0
M  V30 5830 C 578.385 -1.62599 0.619476 0
M  V30 5831 O 579.561 -1.80195 0.899532 0
M  V30 5832 C 576.626 -2.93926 1.8387 0
M  V30 5833 C 575.687 -2.99402 3.07663 0
M  V30 5834 C 574.92 -4.29031 3.1744 0
M  V30 5835 O 575.143 -5.20358 2.33631 0
M  V30 5836 O 574.077 -4.40401 4.10281 0
M  V30 5837 H 577.903 -1.41531 2.68705 0
M  V30 5838 H 575.488 -0.637422 1.3512 0
M  V30 5839 H 577.37 -3.74747 1.92725 0
M  V30 5840 H 576.045 -3.10368 0.91944 0
M  V30 5841 H 574.952 -2.17606 3.043 0
M  V30 5842 H 576.285 -2.87901 3.99216 0
M  V30 5843 N 577.937 -1.40673 -0.710563 0
M  V30 5844 C 579.162 -1.42741 -1.50465 0
M  V30 5845 C 579.587 -0.0302116 -1.88076 0
M  V30 5846 O 578.945 0.962945 -1.53613 0
M  V30 5847 C 578.993 -2.32873 -2.75322 0
M  V30 5848 O 578.097 -1.77544 -3.72226 0
M  V30 5849 H 577.438 -0.485056 -0.45345 0
M  V30 5850 H 579.968 -1.84961 -0.874681 0
M  V30 5851 H 579.978 -2.48233 -3.23797 0
M  V30 5852 H 578.653 -3.34401 -2.47283 0
M  V30 5853 H 577.23 -1.71556 -3.31093 0
M  V30 5854 N 579.415 0.9433 -1.26252 0
M  V30 5855 C 580.692 1.66639 -1.02424 0
M  V30 5856 C 581.072 2.06335 0.446006 0
M  V30 5857 O 580.42 1.78551 1.42589 0
M  V30 5858 C 580.63 2.88019 -1.97094 0
M  V30 5859 C 581.978 3.59718 -2.25584 0
M  V30 5860 O 583.002 2.9812 -1.94943 0
M  V30 5861 O 581.861 4.7066 -2.77743 0
M  V30 5862 H 578.955 0.729643 -0.389294 0
M  V30 5863 H 581.501 0.995218 -1.37454 0
M  V30 5864 H 580.273 2.5556 -2.96319 0
M  V30 5865 H 579.896 3.62863 -1.62532 0
M  V30 5866 N 580.893 1.08022 1.14757 0
M  V30 5867 C 582.133 0.816959 1.87364 0
M  V30 5868 C 582.497 -0.645407 1.80827 0
M  V30 5869 O 583.698 -1.024 2.48531 0
M  V30 5870 C 581.969 1.31961 3.32146 0
M  V30 5871 S 583.528 1.18806 4.2241 0
M  V30 5872 H 580.346 0.295862 0.646519 0
M  V30 5873 H 582.948 1.3807 1.38408 0
M  V30 5874 H 581.652 2.37847 3.3445 0
M  V30 5875 H 581.183 0.751371 3.86158 0
M  V30 5876 H 583.198 0.129865 4.9603 0
M  V30 5877 N 582.371 -1.3172 0.865308 0
M  V30 5878 C 583.782 -1.79104 0.527126 0
M  V30 5879 C 584.133 -1.7135 -0.955695 0
M  V30 5880 O 583.258 -1.27845 -1.74598 0
M  V30 5881 C 583.853 -3.25207 0.950061 0
M  V30 5882 C 582.412 -3.70504 0.663611 0
M  V30 5883 C 581.559 -2.52605 1.14395 0
M  V30 5884 H 584.51 -1.18868 1.05148 0
M  V30 5885 H 584.531 -3.79535 0.270805 0
M  V30 5886 H 584.043 -3.30818 2.02931 0
M  V30 5887 H 582.144 -3.70398 -0.404474 0
M  V30 5888 H 582.257 -4.62845 1.23737 0
M  V30 5889 H 580.621 -2.4838 0.563859 0
M  V30 5890 H 581.404 -2.60964 2.23053 0
M  V30 5891 N 583.85 -0.624285 -1.44708 0
M  V30 5892 C 585.127 -0.0572781 -1.95516 0
M  V30 5893 C 585.507 1.41516 -1.56641 0
M  V30 5894 O 584.855 2.12614 -0.837111 0
M  V30 5895 C 585.065 -0.272944 -3.47931 0
M  V30 5896 C 586.413 -0.162529 -4.24289 0
M  V30 5897 O 587.437 -0.203946 -3.55616 0
M  V30 5898 O 586.296 -0.0616847 -5.46465 0
M  V30 5899 H 583.389 0.0262219 -0.826584 0
M  V30 5900 H 585.936 -0.695512 -1.54793 0
M  V30 5901 H 584.707 -1.29492 -3.69253 0
M  V30 5902 H 584.331 0.399756 -3.95585 0
M  V30 5903 N 585.328 1.53329 -0.364422 0
M  V30 5904 C 586.744 1.59594 -0.0133165 0
M  V30 5905 C 586.944 1.37959 1.46865 0
M  V30 5906 O 586 1.18418 2.2301 0
M  V30 5907 C 587.313 2.97032 -0.468213 0
M  V30 5908 C 588.861 3.10138 -0.422334 0
M  V30 5909 C 589.336 4.49986 -0.853024 0
M  V30 5910 N 590.827 4.56098 -0.808037 0
M  V30 5911 C 591.562 5.62495 -1.11299 0
M  V30 5912 N 591.058 6.7665 -1.48717 0
M  V30 5913 N 592.851 5.52473 -1.03586 0
M  V30 5914 H 585.002 1.65644 -1.32951 0
M  V30 5915 H 587.265 0.77684 -0.543345 0
M  V30 5916 H 586.971 3.18 -1.5023 0
M  V30 5917 H 586.845 3.76918 0.145775 0
M  V30 5918 H 589.232 2.88881 0.602622 0
M  V30 5919 H 589.313 2.32263 -1.0718 0
M  V30 5920 H 588.957 4.7198 -1.87609 0
M  V30 5921 H 588.887 5.26289 -0.180819 0
M  V30 5922 H 591.378 3.74131 -0.532361 0
M  V30 5923 H 591.691 7.53776 -1.70415 0
M  V30 5924 H 590.036 6.78044 -1.52581 0
M  V30 5925 H 593.227 4.6217 -0.742736 0
M  V30 5926 H 593.4 6.35295 -1.27686 0
M  V30 5927 N 586.806 0.0935595 1.57322 0
M  V30 5928 C 588.031 -0.582324 1.99057 0
M  V30 5929 C 588.456 -1.61025 0.972242 0
M  V30 5930 O 587.814 -1.81202 -0.0594622 0
M  V30 5931 C 587.862 -1.20799 3.39765 0
M  V30 5932 O 586.966 -2.32382 3.40694 0
M  V30 5933 H 586.307 -0.147884 0.647323 0
M  V30 5934 H 588.837 0.174516 2.03854 0
M  V30 5935 H 588.847 -1.54966 3.77425 0
M  V30 5936 H 587.522 -0.454914 4.13405 0
M  V30 5937 H 586.099 -1.99845 3.14827 0
M  V30 5938 N 588.284 -1.56567 -0.180126 0
M  V30 5939 C 589.561 -1.7235 -0.924931 0
M  V30 5940 C 589.941 -0.652523 -2.00762 0
M  V30 5941 O 589.289 0.334115 -2.26044 0
M  V30 5942 C 589.499 -3.1523 -1.49771 0
M  V30 5943 C 590.847 -3.75921 -1.97405 0
M  V30 5944 O 591.871 -3.18452 -1.59583 0
M  V30 5945 O 590.73 -4.7681 -2.67048 0
M  V30 5946 H 587.824 -0.703502 -0.434758 0
M  V30 5947 H 590.37 -1.6886 -0.168647 0
M  V30 5948 H 589.142 -3.84656 -0.718027 0
M  V30 5949 H 588.765 -3.23009 -2.31842 0
M  V30 5950 N 589.762 0.448376 -1.51087 0
M  V30 5951 C 590.672 1.56882 -1.74428 0
M  V30 5952 C 591.688 1.62268 -0.62809 0
M  V30 5953 O 592.864 1.79716 -0.909075 0
M  V30 5954 C 589.929 2.92947 -1.85426 0
M  V30 5955 C 588.99 2.97766 -3.09247 0
M  V30 5956 C 588.223 4.27341 -3.19711 0
M  V30 5957 O 588.446 5.19112 -2.36387 0
M  V30 5958 O 587.38 4.38219 -4.12611 0
M  V30 5959 H 591.206 1.40104 -2.69452 0
M  V30 5960 H 588.791 0.630247 -1.35456 0
M  V30 5961 H 590.673 3.73719 -1.94709 0
M  V30 5962 H 589.348 3.09876 -0.935887 0
M  V30 5963 H 588.255 2.15989 -3.0545 0
M  V30 5964 H 589.588 2.8578 -4.00738 0
M  V30 5965 N 591.24 1.41047 0.703093 0
M  V30 5966 C 592.487 1.4 1.46309 0
M  V30 5967 C 592.815 0.00654574 1.94499 0
M  V30 5968 O 592.07 -0.980255 1.6938 0
M  V30 5969 C 592.369 2.34686 2.6955 0
M  V30 5970 C 592.035 3.81684 2.40058 0
M  V30 5971 C 590.697 4.21731 2.31725 0
M  V30 5972 C 593.049 4.74525 2.15581 0
M  V30 5973 C 590.377 5.52637 1.97001 0
M  V30 5974 C 592.729 6.05744 1.82366 0
M  V30 5975 C 591.393 6.44819 1.72524 0
M  V30 5976 H 590.663 0.512295 0.535382 0
M  V30 5977 H 593.31 1.73792 0.804275 0
M  V30 5978 H 591.615 1.94122 3.40329 0
M  V30 5979 H 593.312 2.31152 3.27673 0
M  V30 5980 H 589.902 3.49963 2.47435 0
M  V30 5981 H 594.086 4.44395 2.20968 0
M  V30 5982 H 589.342 5.81802 1.87928 0
M  V30 5983 H 593.516 6.77189 1.62444 0
M  V30 5984 H 591.143 7.46168 1.45385 0
M  V30 5985 N 592.718 -0.936591 1.26751 0
M  V30 5986 C 593.966 -1.67998 1.12343 0
M  V30 5987 C 594.287 -1.92137 -0.332938 0
M  V30 5988 O 593.557 -1.52132 -1.23421 0
M  V30 5989 H 592.137 -0.622609 0.412756 0
M  V30 5990 H 594.799 -1.12509 1.59147 0
M  V30 5991 H 593.895 -2.65185 1.64571 0
M  V30 5992 N 594.196 -1.08629 -1.14182 0
M  V30 5993 C 595.436 -0.826884 -1.86928 0
M  V30 5994 C 595.8 0.635808 -1.81167 0
M  V30 5995 O 597.001 1.0108 -2.49071 0
M  V30 5996 C 595.272 -1.33721 -3.31442 0
M  V30 5997 S 596.831 -1.21045 -4.21774 0
M  V30 5998 H 593.649 -0.299286 -0.644941 0
M  V30 5999 H 596.251 -1.38802 -1.37674 0
M  V30 6000 H 594.955 -2.39617 -3.33184 0
M  V30 6001 H 594.486 -0.771839 -3.85754 0
M  V30 6002 H 596.501 -0.156168 -4.95954 0
M  V30 6003 N 595.674 1.31259 -0.872281 0
M  V30 6004 C 596.607 2.26544 -0.274394 0
M  V30 6005 C 597.585 1.51213 0.597776 0
M  V30 6006 O 598.769 1.80277 0.550687 0
M  V30 6007 C 595.896 3.33139 0.611256 0
M  V30 6008 C 594.942 4.26077 -0.189876 0
M  V30 6009 S 595.775 5.11971 -1.56989 0
M  V30 6010 C 596.931 6.2208 -0.690427 0
M  V30 6011 H 597.164 2.76908 -1.0821 0
M  V30 6012 H 594.697 1.3906 -0.670939 0
M  V30 6013 H 596.655 3.95024 1.11654 0
M  V30 6014 H 595.316 2.81525 1.39294 0
M  V30 6015 H 594.509 5.01657 0.485433 0
M  V30 6016 H 594.111 3.68701 -0.627339 0
M  V30 6017 H 596.403 6.77429 0.098001 0
M  V30 6018 H 597.346 6.93768 -1.41742 0
M  V30 6019 H 597.754 5.63915 -0.256953 0
M  V30 6020 N 597.152 0.631951 1.44375 0
M  V30 6021 C 598.563 0.219036 1.85411 0
M  V30 6022 C 598.914 -1.22974 1.52879 0
M  V30 6023 O 598.039 -1.93579 0.967266 0
M  V30 6024 C 598.634 0.39075 3.36539 0
M  V30 6025 C 597.193 0.0323351 3.76386 0
M  V30 6026 C 596.34 0.703744 2.68221 0
M  V30 6027 H 599.291 0.837056 1.3483 0
M  V30 6028 H 599.312 -0.370056 3.78696 0
M  V30 6029 H 598.824 1.44527 3.60185 0
M  V30 6030 H 596.925 -1.02042 3.58355 0
M  V30 6031 H 597.038 0.442969 4.77048 0
M  V30 6032 H 595.402 0.138974 2.54321 0
M  V30 6033 H 596.185 1.76088 2.947 0
M  V30 6034 N 598.631 -1.53133 0.372548 0
M  V30 6035 C 600.042 -1.86404 -0.105155 0
M  V30 6036 C 600.393 -1.29289 -1.47576 0
M  V30 6037 O 599.518 -0.617646 -2.07398 0
M  V30 6038 C 600.113 -3.38223 -0.197588 0
M  V30 6039 C 598.672 -3.71266 -0.619556 0
M  V30 6040 C 597.819 -2.76353 0.228919 0
M  V30 6041 H 600.77 -1.47282 0.591077 0
M  V30 6042 H 600.791 -3.66577 -1.01987 0
M  V30 6043 H 600.303 -3.79763 0.800099 0
M  V30 6044 H 598.404 -3.35287 -1.62522 0
M  V30 6045 H 598.517 -4.77515 -0.389332 0
M  V30 6046 H 596.881 -2.52888 -0.303271 0
M  V30 6047 H 597.664 -3.20728 1.22428 0
M  V30 6048 N 600.109 -0.101901 -1.5727 0
M  V30 6049 C 601.041 0.884723 -2.11436 0
M  V30 6050 C 602.054 1.24149 -1.05314 0
M  V30 6051 O 603.243 1.19341 -1.3274 0
M  V30 6052 C 600.343 2.19179 -2.58484 0
M  V30 6053 C 599.516 2.00933 -3.88516 0
M  V30 6054 C 598.575 3.15213 -4.2134 0
M  V30 6055 O 597.601 2.88877 -4.90448 0
M  V30 6056 N 598.803 4.41174 -3.77288 0
M  V30 6057 H 601.568 0.422058 -2.96713 0
M  V30 6058 H 599.129 0.0830128 -1.61687 0
M  V30 6059 H 601.121 2.94593 -2.77484 0
M  V30 6060 H 599.691 2.56847 -1.7818 0
M  V30 6061 H 598.911 1.09809 -3.78597 0
M  V30 6062 H 600.199 1.86026 -4.73573 0
M  V30 6063 H 599.597 4.6545 -3.21516 0
M  V30 6064 H 598.154 5.13515 -4.01429 0
M  V30 6065 N 601.587 1.56661 0.17182 0
M  V30 6066 C 602.833 1.82235 0.889845 0
M  V30 6067 C 603.166 0.679673 1.81918 0
M  V30 6068 O 602.441 -0.318404 1.91876 0
M  V30 6069 C 602.724 3.18195 1.68595 0
M  V30 6070 C 602.577 4.42989 0.779773 0
M  V30 6071 C 603.896 3.5109 2.65375 0
M  V30 6072 H 601.015 0.66291 0.322056 0
M  V30 6073 H 603.657 1.89358 0.15608 0
M  V30 6074 H 601.807 3.12253 2.3115 0
M  V30 6075 H 603.479 4.60997 0.16714 0
M  V30 6076 H 601.722 4.33711 0.0877964 0
M  V30 6077 H 602.393 5.3467 1.3723 0
M  V30 6078 H 604.869 3.57482 2.12946 0
M  V30 6079 H 603.745 4.47298 3.18144 0
M  V30 6080 H 604.006 2.75768 3.45549 0
M  V30 6081 N 603.065 -0.440357 1.51323 0
M  V30 6082 C 604.311 -1.19181 1.64085 0
M  V30 6083 C 604.644 -1.90936 0.354575 0
M  V30 6084 O 603.919 -1.8347 -0.645675 0
M  V30 6085 C 604.202 -2.2112 2.84215 0
M  V30 6086 C 604.055 -1.53468 4.22809 0
M  V30 6087 C 605.374 -3.22133 2.99864 0
M  V30 6088 H 602.493 -0.431924 0.597169 0
M  V30 6089 H 605.135 -0.481443 1.83799 0
M  V30 6090 H 603.285 -2.81703 2.67537 0
M  V30 6091 H 604.957 -0.962455 4.51148 0
M  V30 6092 H 603.2 -0.837086 4.25647 0
M  V30 6093 H 603.871 -2.27694 5.02852 0
M  V30 6094 H 606.347 -2.71601 3.15233 0
M  V30 6095 H 605.223 -3.90756 3.85488 0
M  V30 6096 H 605.484 -3.88061 2.11804 0
M  V30 6097 N 604.543 -1.41418 -0.695603 0
M  V30 6098 C 605.771 -1.4413 -1.48439 0
M  V30 6099 C 606.186 -0.0465698 -1.88743 0
M  V30 6100 O 605.543 0.934117 -1.56782 0
M  V30 6101 C 605.594 -2.34998 -2.74696 0
M  V30 6102 O 605.315 -3.69043 -2.36091 0
M  V30 6103 C 606.816 -2.46513 -3.68438 0
M  V30 6104 H 604.036 -0.490905 -0.457442 0
M  V30 6105 H 606.58 -1.85702 -0.856454 0
M  V30 6106 H 604.735 -1.96735 -3.33728 0
M  V30 6107 H 605.149 -4.17505 -3.17474 0
M  V30 6108 H 606.623 -3.1426 -4.53811 0
M  V30 6109 H 607.1 -1.49638 -4.12922 0
M  V30 6110 H 607.706 -2.85412 -3.1531 0
M  V30 6111 N 606.021 0.929856 -1.27246 0
M  V30 6112 C 607.432 1.49223 -1.12203 0
M  V30 6113 C 607.783 1.93989 0.293731 0
M  V30 6114 O 606.908 1.80978 1.18642 0
M  V30 6115 C 607.503 2.71198 -2.0307 0
M  V30 6116 C 606.062 3.23666 -1.92139 0
M  V30 6117 C 605.209 1.96409 -1.95752 0
M  V30 6118 H 608.16 0.744181 -1.4017 0
M  V30 6119 H 608.181 3.45905 -1.58524 0
M  V30 6120 H 607.693 2.38585 -3.06102 0
M  V30 6121 H 605.794 3.61042 -0.920834 0
M  V30 6122 H 605.907 3.90006 -2.78267 0
M  V30 6123 H 604.271 2.12806 -1.39949 0
M  V30 6124 H 605.054 1.66113 -3.00436 0
M  V30 6125 N 607.499 1.09233 1.13605 0
M  V30 6126 C 608.91 0.846839 1.6639 0
M  V30 6127 C 609.261 -0.625031 1.85978 0
M  V30 6128 O 608.386 -1.48173 1.57714 0
M  V30 6129 C 608.981 1.5307 3.0225 0
M  V30 6130 C 607.54 1.33223 3.52035 0
M  V30 6131 C 606.687 1.58806 2.27323 0
M  V30 6132 H 609.638 1.25175 0.975541 0
M  V30 6133 H 609.659 0.96267 3.68121 0
M  V30 6134 H 609.171 2.60192 2.87961 0
M  V30 6135 H 607.272 0.282091 3.71531 0
M  V30 6136 H 607.385 2.0657 4.32279 0
M  V30 6137 H 605.749 1.01007 2.33815 0
M  V30 6138 H 606.532 2.67153 2.15602 0
M  V30 6139 N 608.977 -1.30795 0.87923 0
M  V30 6140 C 610.393 -1.48981 0.57243 0
M  V30 6141 C 610.593 -1.80719 -0.891236 0
M  V30 6142 O 609.649 -1.89136 -1.67283 0
M  V30 6143 C 610.962 -2.61721 1.48063 0
M  V30 6144 C 612.51 -2.75603 1.48365 0
M  V30 6145 C 612.985 -3.91449 2.37763 0
M  V30 6146 N 614.476 -3.98751 2.35695 0
M  V30 6147 C 615.211 -4.87684 3.01583 0
M  V30 6148 N 614.707 -5.81454 3.76674 0
M  V30 6149 N 616.5 -4.81005 2.90844 0
M  V30 6150 H 608.651 -1.08465 1.82617 0
M  V30 6151 H 610.914 -0.536813 0.781368 0
M  V30 6152 H 610.62 -2.45073 2.52254 0
M  V30 6153 H 610.494 -3.58071 1.18596 0
M  V30 6154 H 612.881 -2.9166 0.44927 0
M  V30 6155 H 612.962 -1.79891 1.81859 0
M  V30 6156 H 612.606 -3.76149 3.41283 0
M  V30 6157 H 612.536 -4.86487 2.01589 0
M  V30 6158 H 615.027 -3.31668 1.81121 0
M  V30 6159 H 615.34 -6.46063 4.24054 0
M  V30 6160 H 613.685 -5.81403 3.80782 0
M  V30 6161 H 616.876 -4.06728 2.31711 0
M  V30 6162 H 617.049 -5.50107 3.42471 0
M  V30 6163 N 610.455 -0.639598 -1.44038 0
M  V30 6164 C 611.365 0.0612377 -2.3452 0
M  V30 6165 C 612.381 0.826717 -1.53106 0
M  V30 6166 O 613.557 0.777059 -1.85806 0
M  V30 6167 C 610.622 1.02492 -3.31204 0
M  V30 6168 C 609.683 0.25788 -4.28525 0
M  V30 6169 C 608.916 1.17566 -5.2059 0
M  V30 6170 O 609.139 2.41461 -5.16771 0
M  V30 6171 O 608.073 0.655407 -5.98321 0
M  V30 6172 H 611.899 -0.68318 -2.95916 0
M  V30 6173 H 609.484 -0.399784 -1.43952 0
M  V30 6174 H 611.366 1.57911 -3.90694 0
M  V30 6175 H 610.041 1.7498 -2.7233 0
M  V30 6176 H 608.948 -0.339566 -3.72556 0
M  V30 6177 H 610.281 -0.427154 -4.90343 0
M  V30 6178 N 611.933 1.52934 -0.380664 0
M  V30 6179 C 613.158 2.06363 0.207157 0
M  V30 6180 C 613.583 1.25122 1.4045 0
M  V30 6181 O 612.941 0.274062 1.79217 0
M  V30 6182 C 612.989 3.56162 0.563996 0
M  V30 6183 O 612.093 3.77552 1.65917 0
M  V30 6184 H 611.434 0.663468 0.0265859 0
M  V30 6185 H 613.964 1.9719 -0.545635 0
M  V30 6186 H 613.974 3.99453 0.830752 0
M  V30 6187 H 612.649 4.14732 -0.311427 0
M  V30 6188 H 611.226 3.46154 1.3868 0
M  V30 6189 N 613.412 0.11024 1.57214 0
M  V30 6190 C 614.661 -0.549638 1.94067 0
M  V30 6191 C 614.974 -1.68388 0.995234 0
M  V30 6192 O 616.18 -2.40593 1.25807 0
M  V30 6193 C 614.636 -1.02912 3.44873 0
M  V30 6194 C 614.244 0.0761861 4.47935 0
M  V30 6195 C 615.988 -1.66087 3.9066 0
M  V30 6196 C 613.895 -0.419502 5.8991 0
M  V30 6197 H 612.825 -0.209092 0.724428 0
M  V30 6198 H 615.476 0.188683 1.82527 0
M  V30 6199 H 613.858 -1.82159 3.51616 0
M  V30 6200 H 615.032 0.852185 4.52851 0
M  V30 6201 H 613.347 0.614052 4.11847 0
M  V30 6202 H 615.944 -2.04272 4.94143 0
M  V30 6203 H 616.287 -2.53591 3.30148 0
M  V30 6204 H 616.82 -0.933959 3.86681 0
M  V30 6205 H 613.559 0.419277 6.54158 0
M  V30 6206 H 613.079 -1.16217 5.88433 0
M  V30 6207 H 614.758 -0.883577 6.40938 0
M  V30 6208 N 614.89 -1.56749 -0.16351 0
M  V30 6209 C 615.822 -1.93587 -1.22705 0
M  V30 6210 C 616.835 -0.829824 -1.40063 0
M  V30 6211 O 618.024 -1.10826 -1.39928 0
M  V30 6212 C 615.124 -2.1803 -2.59454 0
M  V30 6213 C 614.297 -3.4928 -2.63292 0
M  V30 6214 C 613.356 -3.62457 -3.8146 0
M  V30 6215 O 612.382 -4.35004 -3.67096 0
M  V30 6216 N 613.584 -2.97888 -4.9824 0
M  V30 6217 H 616.349 -2.8542 -0.914081 0
M  V30 6218 H 613.91 -1.58 -0.353214 0
M  V30 6219 H 615.902 -2.24102 -3.36987 0
M  V30 6220 H 614.472 -1.32543 -2.8311 0
M  V30 6221 H 613.692 -3.54795 -1.71796 0
M  V30 6222 H 614.98 -4.35632 -2.62873 0
M  V30 6223 H 614.378 -2.38833 -5.12811 0
M  V30 6224 H 612.935 -3.09545 -5.73607 0
M  V30 6225 N 616.368 0.432326 -1.51554 0
M  V30 6226 C 617.331 1.50765 -1.72634 0
M  V30 6227 C 618.331 1.49334 -0.596314 0
M  V30 6228 O 619.521 1.51268 -0.863925 0
M  V30 6229 C 616.653 2.90284 -1.7874 0
M  V30 6230 H 617.846 1.33377 -2.68609 0
M  V30 6231 H 615.399 0.661329 -1.4162 0
M  V30 6232 H 616.134 3.13071 -0.845977 0
M  V30 6233 H 615.919 2.92727 -2.6087 0
M  V30 6234 H 617.409 3.68282 -1.96871 0
M  V30 6235 N 617.846 1.41785 0.688094 0
M  V30 6236 C 619.071 1.45117 1.48175 0
M  V30 6237 C 619.496 0.060129 1.88004 0
M  V30 6238 O 618.854 -0.938385 1.55126 0
M  V30 6239 C 618.902 2.37224 2.71583 0
M  V30 6240 O 618.006 1.83443 3.69354 0
M  V30 6241 H 617.347 0.492208 0.445676 0
M  V30 6242 H 619.877 1.86329 0.845145 0
M  V30 6243 H 619.887 2.53353 3.19806 0
M  V30 6244 H 618.562 3.38293 2.41931 0
M  V30 6245 H 617.139 1.76802 3.28322 0
M  V30 6246 N 619.324 -0.923095 1.27737 0
M  V30 6247 C 620.74 -1.19985 1.05241 0
M  V30 6248 C 620.94 -2.00391 -0.21113 0
M  V30 6249 O 619.996 -2.35324 -0.915366 0
M  V30 6250 C 621.309 -1.94352 2.29451 0
M  V30 6251 C 622.857 -2.07273 2.34536 0
M  V30 6252 C 623.332 -2.85046 3.58487 0
M  V30 6253 N 624.823 -2.92612 3.59072 0
M  V30 6254 C 625.558 -3.53266 4.51654 0
M  V30 6255 N 625.054 -4.15274 5.54545 0
M  V30 6256 N 626.847 -3.50714 4.39268 0
M  V30 6257 H 618.998 -0.386042 2.08862 0
M  V30 6258 H 621.261 -0.233407 0.918817 0
M  V30 6259 H 620.967 -1.42692 3.21453 0
M  V30 6260 H 620.841 -2.94947 2.3513 0
M  V30 6261 H 623.228 -2.58117 1.43037 0
M  V30 6262 H 623.309 -1.05884 2.32857 0
M  V30 6263 H 622.953 -2.34884 4.50324 0
M  V30 6264 H 622.883 -3.8673 3.57418 0
M  V30 6265 H 625.374 -2.48547 2.84663 0
M  V30 6266 H 625.687 -4.59507 6.21348 0
M  V30 6267 H 624.032 -4.13806 5.58382 0
M  V30 6268 H 627.223 -3.01475 3.58093 0
M  V30 6269 H 627.396 -3.97693 5.1161 0
M  V30 6270 N 620.802 -1.09834 -1.13024 0
M  V30 6271 C 622.05 -0.835297 -1.8403 0
M  V30 6272 C 622.371 0.640944 -1.84165 0
M  V30 6273 O 621.641 1.46517 -1.30037 0
M  V30 6274 H 620.221 -0.306018 -0.681441 0
M  V30 6275 H 622.883 -1.38734 -1.36891 0
M  V30 6276 H 621.979 -1.19258 -2.88416 0
M  V30 6277 N 622.28 1.30327 -0.886154 0
M  V30 6278 C 623.212 2.27079 -0.311072 0
M  V30 6279 C 624.225 1.53758 0.53502 0
M  V30 6280 O 625.414 1.74947 0.354378 0
M  V30 6281 C 622.514 3.33965 0.576228 0
M  V30 6282 C 621.687 4.36735 -0.241064 0
M  V30 6283 C 620.746 5.23028 0.576916 0
M  V30 6284 O 619.772 5.692 -0.000802231 0
M  V30 6285 N 620.974 5.49016 1.88579 0
M  V30 6286 H 623.739 2.77065 -1.14259 0
M  V30 6287 H 621.3 1.43519 -0.749258 0
M  V30 6288 H 623.292 3.88618 1.12953 0
M  V30 6289 H 621.862 2.839 1.30842 0
M  V30 6290 H 621.082 3.81932 -0.975805 0
M  V30 6291 H 622.37 5.02451 -0.801272 0
M  V30 6292 H 621.768 5.13288 2.37806 0
M  V30 6293 H 620.325 6.06539 2.38651 0
M  V30 6294 N 623.758 0.647228 1.43697 0
M  V30 6295 C 624.986 0.16575 2.06235 0
M  V30 6296 C 625.401 -1.1662 1.48476 0
M  V30 6297 O 624.758 -1.7187 0.613762 0
M  V30 6298 C 624.809 0.0621651 3.61447 0
M  V30 6299 O 624.53 1.34146 4.17057 0
M  V30 6300 C 626.031 -0.446102 4.4105 0
M  V30 6301 H 623.251 0.0871158 0.665321 0
M  V30 6302 H 625.795 0.886183 1.84301 0
M  V30 6303 H 623.95 -0.608794 3.82587 0
M  V30 6304 H 624.364 1.19675 5.10664 0
M  V30 6305 H 625.838 -0.46755 5.50016 0
M  V30 6306 H 626.315 -1.47627 4.13646 0
M  V30 6307 H 626.921 0.192159 4.24866 0
M  V30 6308 N 625.236 -1.5273 0.388769 0
M  V30 6309 C 626.482 -2.01871 -0.193877 0
M  V30 6310 C 626.815 -1.27475 -1.46505 0
M  V30 6311 O 626.09 -0.375063 -1.90849 0
M  V30 6312 C 626.373 -3.5712 -0.462336 0
M  V30 6313 C 626.226 -4.42186 0.824091 0
M  V30 6314 C 627.545 -4.21881 -1.25319 0
M  V30 6315 H 624.664 -0.733764 -0.0689899 0
M  V30 6316 H 627.306 -1.82796 0.518231 0
M  V30 6317 H 625.456 -3.73504 -1.06896 0
M  V30 6318 H 627.128 -4.37554 1.46096 0
M  V30 6319 H 625.371 -4.09219 1.43952 0
M  V30 6320 H 626.042 -5.48828 0.590905 0
M  V30 6321 H 628.518 -4.0947 -0.73981 0
M  V30 6322 H 627.394 -5.30487 -1.40977 0
M  V30 6323 H 627.655 -3.79478 -2.26824 0
M  V30 6324 N 626.714 -0.118576 -1.57153 0
M  V30 6325 C 627.942 0.54726 -1.99531 0
M  V30 6326 C 628.357 1.60251 -0.998246 0
M  V30 6327 O 627.714 1.82498 0.00893106 0
M  V30 6328 C 627.765 1.17378 -3.41913 0
M  V30 6329 O 627.486 0.160703 -4.37805 0
M  V30 6330 C 628.987 1.92297 -3.9942 0
M  V30 6331 H 626.207 0.144919 -0.655164 0
M  V30 6332 H 628.751 -0.20479 -2.03472 0
M  V30 6333 H 626.906 1.87661 -3.38913 0
M  V30 6334 H 627.32 0.61586 -5.20872 0
M  V30 6335 H 628.794 2.31462 -5.01128 0
M  V30 6336 H 629.271 2.79801 -3.38538 0
M  V30 6337 H 629.877 1.26777 -4.05965 0
M  V30 6338 N 628.193 1.56834 0.155195 0
M  V30 6339 C 629.44 1.82898 0.869179 0
M  V30 6340 C 629.768 0.698194 1.81537 0
M  V30 6341 O 629.023 -0.313404 1.93174 0
M  V30 6342 C 629.322 3.15239 1.68402 0
M  V30 6343 C 628.988 4.42123 0.885341 0
M  V30 6344 C 627.65 4.76583 0.664971 0
M  V30 6345 C 630.002 5.20178 0.326234 0
M  V30 6346 C 627.33 5.86566 -0.125346 0
M  V30 6347 C 629.682 6.3099 -0.45108 0
M  V30 6348 C 628.346 6.64006 -0.682102 0
M  V30 6349 H 627.616 0.66927 0.318055 0
M  V30 6350 H 630.263 1.91036 0.133241 0
M  V30 6351 H 628.568 3.02515 2.48982 0
M  V30 6352 H 630.265 3.32618 2.23978 0
M  V30 6353 H 626.855 4.15102 1.06716 0
M  V30 6354 H 631.039 4.93936 0.483787 0
M  V30 6355 H 626.295 6.10594 -0.313915 0
M  V30 6356 H 630.469 6.9067 -0.89149 0
M  V30 6357 H 628.096 7.49065 -1.29636 0
M  V30 6358 N 629.671 -0.424282 1.51781 0
M  V30 6359 C 630.899 -1.1947 1.68921 0
M  V30 6360 C 631.314 -1.84683 0.39213 0
M  V30 6361 O 630.671 -1.71261 -0.630554 0
M  V30 6362 C 630.722 -2.26909 2.81416 0
M  V30 6363 O 630.443 -1.64361 4.061 0
M  V30 6364 C 631.944 -3.16945 3.09937 0
M  V30 6365 H 629.164 -0.359591 0.566511 0
M  V30 6366 H 631.708 -0.501139 1.98265 0
M  V30 6367 H 629.863 -2.91959 2.54635 0
M  V30 6368 H 630.277 -2.35468 4.68674 0
M  V30 6369 H 631.751 -3.88437 3.922 0
M  V30 6370 H 632.228 -3.78451 2.22871 0
M  V30 6371 H 632.834 -2.57581 3.38426 0
M  V30 6372 N 631.149 -1.42148 -0.680565 0
M  V30 6373 C 632.389 -1.4379 -1.45271 0
M  V30 6374 C 632.753 -0.0504426 -1.91934 0
M  V30 6375 O 633.954 0.0583916 -2.68737 0
M  V30 6376 C 632.225 -2.42904 -2.62168 0
M  V30 6377 S 633.784 -2.63201 -3.51099 0
M  V30 6378 H 630.602 -0.509185 -0.496237 0
M  V30 6379 H 633.204 -1.78706 -0.792744 0
M  V30 6380 H 631.908 -3.4249 -2.26116 0
M  V30 6381 H 631.439 -2.09394 -3.33043 0
M  V30 6382 H 633.454 -1.91068 -4.57938 0
M  V30 6383 N 632.627 0.916307 -1.28225 0
M  V30 6384 C 633.873 1.66765 -1.154 0
M  V30 6385 C 634.206 1.91912 0.297251 0
M  V30 6386 O 633.481 1.51766 1.21644 0
M  V30 6387 C 633.764 3.02715 -1.95028 0
M  V30 6388 C 633.617 2.84738 -3.48201 0
M  V30 6389 C 634.936 4.03215 -1.76369 0
M  V30 6390 H 632.055 0.605205 -0.42059 0
M  V30 6391 H 634.697 1.06255 -1.57512 0
M  V30 6392 H 632.847 3.54365 -1.59242 0
M  V30 6393 H 634.519 2.40118 -3.9388 0
M  V30 6394 H 632.762 2.19848 -3.73964 0
M  V30 6395 H 633.433 3.8127 -3.99171 0
M  V30 6396 H 635.909 3.60617 -2.07593 0
M  V30 6397 H 634.785 4.96306 -2.34459 0
M  V30 6398 H 635.046 4.36288 -0.71452 0
M  V30 6399 N 634.105 1.10431 1.1244 0
M  V30 6400 C 635.068 0.756542 2.16354 0
M  V30 6401 C 636.068 -0.21899 1.59302 0
M  V30 6402 O 637.258 0.00415969 1.742 0
M  V30 6403 C 634.39 0.120612 3.40687 0
M  V30 6404 H 635.583 1.67696 2.48632 0
M  V30 6405 H 633.136 0.904832 1.27446 0
M  V30 6406 H 633.871 -0.810536 3.14008 0
M  V30 6407 H 633.656 0.822693 3.83372 0
M  V30 6408 H 635.146 -0.106945 4.17463 0
M  V30 6409 N 635.583 -1.29855 0.893053 0
M  V30 6410 C 636.832 -1.95104 0.511597 0
M  V30 6411 C 637.145 -1.71226 -0.945567 0
M  V30 6412 O 638.351 -2.30525 -1.43424 0
M  V30 6413 C 636.807 -3.49374 0.864034 0
M  V30 6414 C 636.415 -3.82061 2.33952 0
M  V30 6415 C 638.159 -4.20894 0.552167 0
M  V30 6416 C 636.066 -5.29546 2.63316 0
M  V30 6417 H 634.996 -0.73029 0.187597 0
M  V30 6418 H 637.647 -1.47682 1.08914 0
M  V30 6419 H 636.029 -3.95413 0.215493 0
M  V30 6420 H 637.203 -3.46904 3.03305 0
M  V30 6421 H 635.518 -3.23665 2.61973 0
M  V30 6422 H 638.115 -5.29435 0.748489 0
M  V30 6423 H 638.458 -4.13178 -0.508924 0
M  V30 6424 H 638.991 -3.80564 1.15825 0
M  V30 6425 H 635.73 -5.4232 3.68197 0
M  V30 6426 H 635.25 -5.65974 1.9858 0
M  V30 6427 H 636.929 -5.97068 2.49236 0
M  V30 6428 N 637.061 -0.65484 -1.43351 0
M  V30 6429 C 638.309 -0.168559 -2.01396 0
M  V30 6430 C 638.63 1.22235 -1.51933 0
M  V30 6431 O 637.9 1.81685 -0.732627 0
M  V30 6432 H 636.48 -0.0593244 -0.744641 0
M  V30 6433 H 639.142 -0.846871 -1.75539 0
M  V30 6434 H 638.238 -0.154428 -3.11718 0
M  V30 6435 N 638.539 1.52521 -0.396863 0
M  V30 6436 C 639.785 2.01971 0.183169 0
M  V30 6437 C 640.118 1.2825 1.45827 0
M  V30 6438 O 639.393 0.385179 1.90648 0
M  V30 6439 C 639.676 3.5736 0.443391 0
M  V30 6440 C 639.529 4.41743 -0.84753 0
M  V30 6441 C 640.848 4.22539 1.2308 0
M  V30 6442 H 637.967 0.734119 0.0650976 0
M  V30 6443 H 640.609 1.82519 -0.527918 0
M  V30 6444 H 638.759 3.74066 1.04914 0
M  V30 6445 H 640.431 4.36773 -1.48414 0
M  V30 6446 H 638.674 4.0845 -1.4612 0
M  V30 6447 H 639.345 5.48507 -0.620003 0
M  V30 6448 H 641.821 4.09857 0.718084 0
M  V30 6449 H 640.697 5.31227 1.38162 0
M  V30 6450 H 640.958 3.80675 2.24808 0
M  V30 6451 N 640.017 0.126909 1.57088 0
M  V30 6452 C 641.428 -0.397201 1.82426 0
M  V30 6453 C 641.779 -1.66084 1.04453 0
M  V30 6454 O 640.904 -2.14534 0.283552 0
M  V30 6455 C 641.499 -0.727411 3.30899 0
M  V30 6456 C 640.058 -1.19612 3.56889 0
M  V30 6457 C 639.205 -0.20885 2.76512 0
M  V30 6458 H 642.156 0.351924 1.54749 0
M  V30 6459 H 642.177 -1.58407 3.45959 0
M  V30 6460 H 641.689 0.19247 3.87622 0
M  V30 6461 H 639.79 -2.13263 3.05532 0
M  V30 6462 H 639.903 -1.13598 4.65438 0
M  V30 6463 H 638.267 -0.697479 2.44964 0
M  V30 6464 H 639.05 0.704267 3.35998 0
M  V30 6465 N 641.495 -1.56914 -0.146875 0
M  V30 6466 C 642.723 -1.87515 -0.874394 0
M  V30 6467 C 643.138 -0.715116 -1.74733 0
M  V30 6468 O 642.495 0.315113 -1.79759 0
M  V30 6469 C 642.546 -3.17362 -1.731 0
M  V30 6470 O 642.267 -4.28897 -0.893245 0
M  V30 6471 C 643.768 -3.61479 -2.56609 0
M  V30 6472 H 640.988 -0.621546 -0.252827 0
M  V30 6473 H 643.532 -2.04023 -0.139627 0
M  V30 6474 H 641.687 -3.02608 -2.41883 0
M  V30 6475 H 642.101 -5.03146 -1.48137 0
M  V30 6476 H 643.575 -4.5517 -3.12289 0
M  V30 6477 H 644.052 -2.86773 -3.32653 0
M  V30 6478 H 644.658 -3.78927 -1.93117 0
M  V30 6479 N 642.974 0.416227 -1.52004 0
M  V30 6480 C 644.385 0.995319 -1.57957 0
M  V30 6481 C 644.736 1.91744 -0.415754 0
M  V30 6482 O 643.861 2.11349 0.464808 0
M  V30 6483 C 644.456 1.81191 -2.86278 0
M  V30 6484 C 643.015 2.34115 -2.94732 0
M  V30 6485 C 642.162 1.139 -2.52828 0
M  V30 6486 H 645.113 0.196716 -1.57476 0
M  V30 6487 H 645.134 2.66859 -2.71231 0
M  V30 6488 H 644.646 1.14051 -3.70963 0
M  V30 6489 H 642.747 3.04647 -2.14525 0
M  V30 6490 H 642.86 2.65466 -3.98829 0
M  V30 6491 H 641.224 1.49081 -2.06511 0
M  V30 6492 H 642.007 0.483383 -3.3988 0
M  V30 6493 N 644.452 1.42507 0.673017 0
M  V30 6494 C 645.701 1.42364 1.42883 0
M  V30 6495 C 646.014 0.0441598 1.9555 0
M  V30 6496 O 647.22 -0.0798679 2.71382 0
M  V30 6497 C 645.676 2.5043 2.58482 0
M  V30 6498 C 645.284 3.94392 2.12506 0
M  V30 6499 C 647.028 2.59455 3.35981 0
M  V30 6500 C 644.935 4.93964 3.25198 0
M  V30 6501 H 643.865 0.52951 0.536782 0
M  V30 6502 H 646.516 1.68422 0.728448 0
M  V30 6503 H 644.898 2.1754 3.30896 0
M  V30 6504 H 646.072 4.36645 1.47233 0
M  V30 6505 H 644.387 3.89233 1.4794 0
M  V30 6506 H 646.984 3.31025 4.19912 0
M  V30 6507 H 647.327 1.63869 3.82691 0
M  V30 6508 H 647.86 2.91549 2.70637 0
M  V30 6509 H 644.599 5.91034 2.83477 0
M  V30 6510 H 644.119 4.56341 3.89247 0
M  V30 6511 H 645.798 5.15763 3.90637 0
M  V30 6512 N 645.93 -0.909495 1.28709 0
M  V30 6513 C 647.179 -1.65365 1.15487 0
M  V30 6514 C 647.492 -1.93364 -0.294941 0
M  V30 6515 O 648.698 -2.65905 -0.548338 0
M  V30 6516 C 647.154 -2.97923 2.01916 0
M  V30 6517 C 646.762 -2.77556 3.51663 0
M  V30 6518 C 648.506 -3.75814 1.97393 0
M  V30 6519 C 646.413 -4.0578 4.30229 0
M  V30 6520 H 645.343 -0.620323 0.42862 0
M  V30 6521 H 647.994 -1.00894 1.53273 0
M  V30 6522 H 646.376 -3.63552 1.5699 0
M  V30 6523 H 647.55 -2.2058 4.04575 0
M  V30 6524 H 645.865 -2.13072 3.57756 0
M  V30 6525 H 648.462 -4.70866 2.53357 0
M  V30 6526 H 648.805 -4.05277 0.951643 0
M  V30 6527 H 649.338 -3.1701 2.40311 0
M  V30 6528 H 646.077 -3.81488 5.33055 0
M  V30 6529 H 645.597 -4.62351 3.82089 0
M  V30 6530 H 647.276 -4.74004 4.40374 0
M  V30 6531 N 647.408 -1.11026 -1.11852 0
M  V30 6532 C 648.356 -0.759643 -2.19846 0
M  V30 6533 C 649.35 0.246964 -1.6759 0
M  V30 6534 O 650.556 0.106693 -1.79684 0
M  V30 6535 H 646.931 -0.22775 -0.716683 0
M  V30 6536 H 648.902 -1.6792 -2.46669 0
M  V30 6537 C 647.651 -0.214364 -3.47039 0
M  V30 6538 H 646.974 -0.980175 -3.87599 0
M  V30 6539 H 648.414 -0.00717047 -4.23999 0
M  V30 6540 C 646.873 1.05436 -3.19976 0
M  V30 6541 O 647.403 2.13483 -3.40276 0
M  V30 6542 N 645.609 0.975436 -2.7374 0
M  V30 6543 H 645.156 0.0960853 -2.57421 0
M  V30 6544 H 645.114 1.82501 -2.5601 0
M  V30 6545 N 648.886 1.2938 -0.899927 0
M  V30 6546 C 650.132 1.96206 -0.536153 0
M  V30 6547 C 650.487 1.69647 0.90761 0
M  V30 6548 O 649.78 0.999089 1.63489 0
M  V30 6549 C 649.974 3.49114 -0.765113 0
M  V30 6550 C 649.803 3.90538 -2.22958 0
M  V30 6551 C 648.573 4.15395 -2.87706 0
M  V30 6552 C 650.771 4.0224 -3.20479 0
M  V30 6553 N 648.753 4.43389 -4.24593 0
M  V30 6554 C 650.124 4.34288 -4.42486 0
M  V30 6555 C 652.179 3.84716 -3.16066 0
M  V30 6556 C 650.882 4.50638 -5.6064 0
M  V30 6557 C 652.908 4.02276 -4.33507 0
M  V30 6558 C 652.27 4.34684 -5.54283 0
M  V30 6559 H 648.369 0.742364 -0.245804 0
M  V30 6560 H 650.953 1.56314 -1.16078 0
M  V30 6561 H 649.124 3.88028 -0.169861 0
M  V30 6562 H 650.856 4.03035 -0.366751 0
M  V30 6563 H 647.611 4.09164 -2.385 0
M  V30 6564 H 648.035 4.61494 -4.95331 0
M  V30 6565 H 652.677 3.58724 -2.23778 0
M  V30 6566 H 650.395 4.75467 -6.5342 0
M  V30 6567 H 653.981 3.90169 -4.31578 0
M  V30 6568 H 652.861 4.47988 -6.43643 0
M  V30 6569 N 650.364 0.662433 1.43002 0
M  V30 6570 C 651.78 0.330835 1.56133 0
M  V30 6571 C 651.98 -1.16454 1.64441 0
M  V30 6572 O 651.036 -1.94964 1.60453 0
M  V30 6573 C 652.349 1.05029 2.81761 0
M  V30 6574 C 653.897 1.03142 2.95518 0
M  V30 6575 C 654.372 1.73196 4.2399 0
M  V30 6576 N 655.863 1.70004 4.30875 0
M  V30 6577 C 656.598 2.21074 5.29069 0
M  V30 6578 N 656.094 2.80473 6.33488 0
M  V30 6579 N 657.887 2.1152 5.20784 0
M  V30 6580 H 650.038 1.63272 1.35853 0
M  V30 6581 H 652.301 0.687149 0.653092 0
M  V30 6582 H 652.007 2.10542 2.81718 0
M  V30 6583 H 651.881 0.607664 3.72273 0
M  V30 6584 H 654.268 -0.0153339 2.95096 0
M  V30 6585 H 654.349 1.51282 2.0627 0
M  V30 6586 H 653.993 2.77833 4.25172 0
M  V30 6587 H 653.923 1.22515 5.1215 0
M  V30 6588 H 656.414 1.26667 3.56039 0
M  V30 6589 H 656.727 3.17094 7.04749 0
M  V30 6590 H 655.072 2.84538 6.34085 0
M  V30 6591 H 658.263 1.64814 4.38126 0
M  V30 6592 H 658.436 2.51629 5.97149 0
M  V30 6593 N 651.842 -1.52309 0.404946 0
M  V30 6594 C 652.772 -2.29805 -0.41376 0
M  V30 6595 C 653.753 -1.3384 -1.0498 0
M  V30 6596 O 654.938 -1.62745 -1.05961 0
M  V30 6597 C 652.068 -3.11639 -1.53292 0
M  V30 6598 C 651.022 -4.15616 -1.02211 0
M  V30 6599 C 650.348 -4.8577 -2.23455 0
M  V30 6600 C 651.648 -5.2224 -0.0790725 0
M  V30 6601 H 653.342 -2.98493 0.232878 0
M  V30 6602 H 650.888 -1.43552 0.113441 0
M  V30 6603 H 652.841 -3.64618 -2.11262 0
M  V30 6604 H 651.565 -2.40712 -2.20738 0
M  V30 6605 H 650.224 -3.63641 -0.46484 0
M  V30 6606 H 649.872 -4.11376 -2.89445 0
M  V30 6607 H 649.572 -5.56058 -1.89929 0
M  V30 6608 H 651.096 -5.4156 -2.82038 0
M  V30 6609 H 652.51 -5.70485 -0.567438 0
M  V30 6610 H 650.907 -5.99867 0.167167 0
M  V30 6611 H 651.977 -4.77078 0.867447 0
M  V30 6612 N 653.32 -0.135238 -1.57019 0
M  V30 6613 C 654.268 0.826099 -2.17436 0
M  V30 6614 C 655.262 1.26378 -1.12805 0
M  V30 6615 O 656.468 1.23363 -1.31079 0
M  V30 6616 H 652.843 0.284568 -0.696078 0
M  V30 6617 H 654.814 0.292212 -2.96966 0
M  V30 6618 C 653.563 2.05991 -2.80112 0
M  V30 6619 H 652.886 1.73209 -3.60331 0
M  V30 6620 H 654.326 2.71225 -3.25903 0
M  V30 6621 C 652.785 2.86027 -1.78017 0
M  V30 6622 O 653.315 3.81971 -1.24344 0
M  V30 6623 N 651.521 2.50332 -1.47588 0
M  V30 6624 H 651.068 1.72377 -1.91426 0
M  V30 6625 H 651.026 3.04177 -0.795228 0
M  V30 6626 N 654.798 1.5699 0.138552 0
M  V30 6627 C 656.044 1.84966 0.846116 0
M  V30 6628 C 656.399 0.72038 1.78405 0
M  V30 6629 O 655.692 -0.281076 1.89527 0
M  V30 6630 C 655.886 3.17007 1.65049 0
M  V30 6631 C 655.715 4.42672 0.79194 0
M  V30 6632 C 654.485 5.03254 0.454293 0
M  V30 6633 C 656.683 5.14164 0.118419 0
M  V30 6634 N 654.665 6.12482 -0.416964 0
M  V30 6635 C 656.036 6.16966 -0.61263 0
M  V30 6636 C 658.091 4.97884 0.0399671 0
M  V30 6637 C 656.794 7.0525 -1.41473 0
M  V30 6638 C 658.82 5.86639 -0.748901 0
M  V30 6639 C 658.182 6.88929 -1.4682 0
M  V30 6640 H 654.281 0.727362 0.287172 0
M  V30 6641 H 656.865 1.94383 0.110972 0
M  V30 6642 H 655.036 3.08722 2.35681 0
M  V30 6643 H 656.768 3.3286 2.30187 0
M  V30 6644 H 653.523 4.6693 0.792038 0
M  V30 6645 H 653.947 6.7172 -0.843865 0
M  V30 6646 H 658.589 4.18779 0.581728 0
M  V30 6647 H 656.307 7.83777 -1.96772 0
M  V30 6648 H 659.893 5.7611 -0.811705 0
M  V30 6649 H 658.773 7.56419 -2.06882 0
M  V30 6650 N 656.276 -0.40816 1.52223 0
M  V30 6651 C 657.524 -1.15274 1.66001 0
M  V30 6652 C 657.845 -1.91003 0.392803 0
M  V30 6653 O 657.115 -1.8673 -0.592336 0
M  V30 6654 H 655.695 -0.428526 0.611861 0
M  V30 6655 H 658.357 -0.46512 1.89269 0
M  V30 6656 H 657.453 -1.86628 2.50153 0
M  V30 6657 N 657.755 -1.42862 -0.66545 0
M  V30 6658 C 658.705 -1.43521 -1.7716 0
M  V30 6659 C 659.689 -0.305267 -1.57978 0
M  V30 6660 O 660.881 -0.548176 -1.68297 0
M  V30 6661 C 658.01 -1.34914 -3.15679 0
M  V30 6662 C 657.096 -2.5289 -3.40452 0
M  V30 6663 N 657.487 -3.78284 -3.3576 0
M  V30 6664 C 655.785 -2.47351 -3.71124 0
M  V30 6665 C 656.486 -4.56701 -3.60276 0
M  V30 6666 N 655.462 -3.87249 -3.81496 0
M  V30 6667 H 659.264 -2.38357 -1.7194 0
M  V30 6668 H 656.778 -1.37342 -0.866653 0
M  V30 6669 H 658.775 -1.33468 -3.94958 0
M  V30 6670 H 657.435 -0.410881 -3.2209 0
M  V30 6671 H 658.446 -4.10746 -3.15448 0
M  V30 6672 H 655.123 -1.62152 -3.84725 0
M  V30 6673 H 656.513 -5.65704 -3.6253 0
M  V30 6674 N 659.233 0.902656 -1.29189 0
M  V30 6675 C 660.482 1.6475 -1.16362 0
M  V30 6676 C 660.795 1.93517 0.284682 0
M  V30 6677 O 662.001 2.66192 0.534229 0
M  V30 6678 C 660.457 2.96848 -2.03493 0
M  V30 6679 C 660.065 2.75687 -3.5313 0
M  V30 6680 C 661.809 3.74762 -1.99383 0
M  V30 6681 C 659.716 4.03492 -4.32375 0
M  V30 6682 H 658.646 0.618041 -0.431904 0
M  V30 6683 H 661.297 1.0008 -1.53806 0
M  V30 6684 H 659.679 3.62715 -1.58916 0
M  V30 6685 H 660.853 2.18431 -4.05739 0
M  V30 6686 H 659.168 2.11171 -3.58881 0
M  V30 6687 H 661.765 4.69515 -2.5585 0
M  V30 6688 H 662.108 4.04767 -0.973123 0
M  V30 6689 H 662.641 3.15732 -2.41988 0
M  V30 6690 H 659.38 3.78656 -5.3507 0
M  V30 6691 H 658.9 4.60318 -3.84535 0
M  V30 6692 H 660.579 4.71662 -4.42881 0
M  V30 6693 N 660.711 1.11618 1.11262 0
M  V30 6694 C 662.122 0.881942 1.64556 0
M  V30 6695 C 662.473 -0.585442 1.87262 0
M  V30 6696 O 661.598 -1.44795 1.60821 0
M  V30 6697 C 662.193 1.59446 2.98935 0
M  V30 6698 C 660.752 1.40661 3.4913 0
M  V30 6699 C 659.899 1.63593 2.23903 0
M  V30 6700 H 662.85 1.27217 0.94877 0
M  V30 6701 H 662.871 1.04054 3.65996 0
M  V30 6702 H 662.383 2.66241 2.82378 0
M  V30 6703 H 660.484 0.360835 3.70849 0
M  V30 6704 H 660.597 2.15693 4.27801 0
M  V30 6705 H 658.961 1.05944 2.3162 0
M  V30 6706 H 659.744 2.71666 2.09886 0
M  V30 6707 N 662.189 -1.289 0.906776 0
M  V30 6708 C 663.414 -1.99939 0.551303 0
M  V30 6709 C 663.839 -1.67366 -0.858496 0
M  V30 6710 O 663.197 -0.902176 -1.57259 0
M  V30 6711 C 663.245 -3.52523 0.758937 0
M  V30 6712 O 662.349 -4.11983 -0.185308 0
M  V30 6713 H 661.69 -0.628376 0.214568 0
M  V30 6714 H 664.22 -1.64225 1.2203 0
M  V30 6715 H 664.23 -4.02522 0.666329 0
M  V30 6716 H 662.905 -3.75566 1.78671 0
M  V30 6717 H 661.482 -3.72873 -0.0445577 0
M  V30 6718 N 663.667 -0.670007 -1.42649 0
M  V30 6719 C 664.617 0.0339546 -2.27975 0
M  V30 6720 C 665.601 0.778295 -1.40824 0
M  V30 6721 O 666.793 0.657997 -1.64315 0
M  V30 6722 C 663.922 0.987899 -3.28779 0
M  V30 6723 C 663.008 0.241153 -4.23414 0
M  V30 6724 N 663.399 -0.751392 -5.00188 0
M  V30 6725 C 661.697 0.480269 -4.43407 0
M  V30 6726 C 662.398 -1.19615 -5.69269 0
M  V30 6727 N 661.374 -0.527045 -5.41039 0
M  V30 6728 H 665.176 -0.727425 -2.84756 0
M  V30 6729 H 662.69 -0.498673 -1.54554 0
M  V30 6730 H 664.687 1.50716 -3.88703 0
M  V30 6731 H 663.347 1.74916 -2.73559 0
M  V30 6732 H 664.358 -1.13075 -5.05405 0
M  V30 6733 H 661.035 1.2214 -3.99234 0
M  V30 6734 H 662.425 -2.01836 -6.40868 0
M  V30 6735 N 665.145 1.52092 -0.413018 0
M  V30 6736 C 666.556 1.86617 0.0556967 0
M  V30 6737 C 666.907 1.33156 1.44097 0
M  V30 6738 O 666.032 0.672417 2.05688 0
M  V30 6739 C 666.627 3.38628 0.107844 0
M  V30 6740 C 665.186 3.72778 0.520904 0
M  V30 6741 C 664.333 2.75649 -0.302109 0
M  V30 6742 H 667.284 1.45663 -0.629919 0
M  V30 6743 H 667.305 3.69152 0.922324 0
M  V30 6744 H 666.817 3.77508 -0.900506 0
M  V30 6745 H 664.918 3.39478 1.53575 0
M  V30 6746 H 665.031 4.7838 0.262591 0
M  V30 6747 H 663.395 2.53603 0.236115 0
M  V30 6748 H 664.178 3.17369 -1.30888 0
M  V30 6749 N 666.623 0.143563 1.56945 0
M  V30 6750 C 668.039 -0.212877 1.58174 0
M  V30 6751 C 668.239 -1.64926 1.15766 0
M  V30 6752 O 667.295 -2.37535 0.856361 0
M  V30 6753 C 668.608 0.0427573 3.0067 0
M  V30 6754 C 670.156 -0.0212221 3.12993 0
M  V30 6755 C 670.631 0.207036 4.57532 0
M  V30 6756 N 672.122 0.153845 4.62944 0
M  V30 6757 C 672.857 0.305018 5.72588 0
M  V30 6758 N 672.353 0.513722 6.90893 0
M  V30 6759 N 674.146 0.242862 5.61575 0
M  V30 6760 H 666.297 1.08148 1.82805 0
M  V30 6761 H 668.56 0.427831 0.84597 0
M  V30 6762 H 668.266 1.03672 3.36073 0
M  V30 6763 H 668.14 -0.678195 3.71053 0
M  V30 6764 H 670.527 -1.00574 2.77433 0
M  V30 6765 H 670.608 0.732004 2.45103 0
M  V30 6766 H 670.252 1.18863 4.93795 0
M  V30 6767 H 670.182 -0.566473 5.23544 0
M  V30 6768 H 672.673 -0.00294866 3.779 0
M  V30 6769 H 672.986 0.619273 7.70315 0
M  V30 6770 H 671.331 0.550001 6.9282 0
M  V30 6771 H 674.522 0.0806015 4.68031 0
M  V30 6772 H 674.695 0.364112 6.46976 0
M  V30 6773 N 668.101 -1.57061 -0.130224 0
M  V30 6774 C 669.347 -1.8453 -0.841216 0
M  V30 6775 C 669.68 -0.727666 -1.80052 0
M  V30 6776 O 668.955 0.267419 -1.92653 0
M  V30 6777 C 669.238 -3.22553 -1.60099 0
M  V30 6778 C 669.091 -4.44901 -0.662048 0
M  V30 6779 C 670.41 -3.58003 -2.55973 0
M  V30 6780 H 667.529 -0.671215 -0.304366 0
M  V30 6781 H 670.171 -1.89705 -0.105821 0
M  V30 6782 H 668.321 -3.18272 -2.22789 0
M  V30 6783 H 669.993 -4.61278 -0.0448559 0
M  V30 6784 H 668.236 -4.33791 0.0272253 0
M  V30 6785 H 668.907 -5.3812 -1.23006 0
M  V30 6786 H 671.383 -3.63002 -2.03393 0
M  V30 6787 H 670.259 -4.55576 -3.06172 0
M  V30 6788 H 670.52 -2.84833 -3.38116 0
M  V30 6789 N 669.579 0.400081 -1.52437 0
M  V30 6790 C 670.807 1.16768 -1.70801 0
M  V30 6791 C 671.222 1.84036 -0.421462 0
M  V30 6792 O 670.579 1.72242 0.603228 0
M  V30 6793 C 670.63 2.22403 -2.8499 0
M  V30 6794 O 670.351 1.57879 -4.08663 0
M  V30 6795 C 671.852 3.11974 -3.1494 0
M  V30 6796 H 669.072 0.350533 -0.57216 0
M  V30 6797 H 671.616 0.469534 -1.99037 0
M  V30 6798 H 669.771 2.87871 -2.59247 0
M  V30 6799 H 670.185 2.27982 -4.7236 0
M  V30 6800 H 671.659 3.82148 -3.9833 0
M  V30 6801 H 672.136 3.74858 -2.28863 0
M  V30 6802 H 672.742 2.52165 -3.42481 0
M  V30 6803 N 671.057 1.43213 0.657864 0
M  V30 6804 C 672.303 1.44798 1.41991 0
M  V30 6805 C 672.636 0.070256 1.94073 0
M  V30 6806 O 671.911 -0.908177 1.71995 0
M  V30 6807 C 672.194 2.4865 2.60471 0
M  V30 6808 C 672.047 3.95679 2.13911 0
M  V30 6809 C 673.366 2.49292 3.62686 0
M  V30 6810 H 670.485 0.527244 0.514959 0
M  V30 6811 H 673.127 1.74733 0.74621 0
M  V30 6812 H 671.277 2.23254 3.17946 0
M  V30 6813 H 672.949 4.32116 1.61472 0
M  V30 6814 H 671.192 4.08733 1.45325 0
M  V30 6815 H 671.863 4.6395 2.99089 0
M  V30 6816 H 674.339 2.71917 3.14961 0
M  V30 6817 H 673.215 3.23907 4.43143 0
M  V30 6818 H 673.476 1.52502 4.14964 0
M  V30 6819 N 672.536 -0.895792 1.29666 0
M  V30 6820 C 673.764 -1.68001 1.20761 0
M  V30 6821 C 674.179 -1.87379 -0.231187 0
M  V30 6822 O 673.536 -1.41359 -1.15429 0
M  V30 6823 C 673.587 -3.06236 1.92098 0
M  V30 6824 O 673.308 -2.8774 3.30359 0
M  V30 6825 C 674.809 -4.00652 1.89717 0
M  V30 6826 H 672.029 -0.524591 0.418384 0
M  V30 6827 H 674.573 -1.11995 1.71106 0
M  V30 6828 H 672.728 -3.59007 1.45578 0
M  V30 6829 H 673.142 -3.75359 3.66342 0
M  V30 6830 H 674.616 -4.95051 2.44189 0
M  V30 6831 H 675.093 -4.30424 0.873595 0
M  V30 6832 H 675.699 -3.53815 2.35998 0
M  V30 6833 N 674.014 -1.12206 -1.10668 0
M  V30 6834 C 675.239 -0.898938 -1.86906 0
M  V30 6835 C 675.664 0.546346 -1.79991 0
M  V30 6836 O 675.022 1.38655 -1.1681 0
M  V30 6837 C 675.07 -1.37529 -3.33344 0
M  V30 6838 O 674.174 -0.55218 -4.08687 0
M  V30 6839 H 673.515 -0.323163 -0.580053 0
M  V30 6840 H 676.045 -1.49355 -1.39837 0
M  V30 6841 H 676.055 -1.3733 -3.84193 0
M  V30 6842 H 674.73 -2.42767 -3.37693 0
M  V30 6843 H 673.307 -0.620947 -3.67694 0
M  V30 6844 N 675.492 1.28418 -0.913599 0
M  V30 6845 C 676.402 2.31043 -0.406965 0
M  V30 6846 C 677.418 1.66501 0.505298 0
M  V30 6847 O 678.594 1.97558 0.391522 0
M  V30 6848 C 675.659 3.4498 0.344901 0
M  V30 6849 C 674.72 4.25078 -0.600563 0
M  V30 6850 C 673.953 5.33575 0.115516 0
M  V30 6851 O 674.176 5.54503 1.33727 0
M  V30 6852 O 673.11 5.9939 -0.549095 0
M  V30 6853 H 676.936 2.76387 -1.25873 0
M  V30 6854 H 674.521 1.33109 -0.678415 0
M  V30 6855 H 676.403 4.14314 0.769542 0
M  V30 6856 H 675.078 3.01719 1.1725 0
M  V30 6857 H 673.985 3.58334 -1.0746 0
M  V30 6858 H 675.318 4.72018 -1.39497 0
M  V30 6859 N 676.97 0.677563 1.42291 0
M  V30 6860 C 678.218 0.200578 2.01102 0
M  V30 6861 C 678.539 -1.19803 1.53858 0
M  V30 6862 O 677.809 -1.80496 0.761439 0
M  V30 6863 H 676.389 0.0711634 0.743603 0
M  V30 6864 H 679.051 0.874691 1.7417 0
M  V30 6865 H 678.147 0.204 3.11433 0
M  V30 6866 N 678.448 -1.51871 0.421078 0
M  V30 6867 C 679.696 -2.01539 -0.150492 0
M  V30 6868 C 680.017 -1.30803 -1.44623 0
M  V30 6869 O 679.287 -0.437568 -1.90951 0
M  V30 6870 H 677.867 -0.744698 -0.0586041 0
M  V30 6871 H 680.529 -1.8668 0.560059 0
M  V30 6872 H 679.625 -3.10264 -0.338068 0
M  V30 6873 N 679.926 -0.151884 -1.56866 0
M  V30 6874 C 681.342 0.204486 -1.58285 0
M  V30 6875 C 681.542 1.6431 -1.16639 0
M  V30 6876 O 680.598 2.37077 -0.868946 0
M  V30 6877 C 681.911 -0.0587019 -3.00643 0
M  V30 6878 C 683.459 0.00462303 -3.13 0
M  V30 6879 C 683.934 -0.231297 -4.57416 0
M  V30 6880 N 685.425 -0.178394 -4.62856 0
M  V30 6881 C 686.16 -0.335379 -5.72418 0
M  V30 6882 N 685.656 -0.550355 -6.90611 0
M  V30 6883 N 687.449 -0.272641 -5.61438 0
M  V30 6884 H 679.6 -1.09116 -1.82229 0
M  V30 6885 H 681.863 -0.432311 -0.843689 0
M  V30 6886 H 681.569 -1.05453 -3.35518 0
M  V30 6887 H 681.443 0.658508 -3.71407 0
M  V30 6888 H 683.83 0.991009 -2.77962 0
M  V30 6889 H 683.911 -0.744992 -2.44711 0
M  V30 6890 H 683.555 -1.2148 -4.93158 0
M  V30 6891 H 683.485 0.5387 -5.23837 0
M  V30 6892 H 685.976 -0.0170923 -3.77896 0
M  V30 6893 H 686.289 -0.660116 -7.69976 0
M  V30 6894 H 684.634 -0.586736 -6.92519 0
M  V30 6895 H 687.825 -0.105421 -4.67981 0
M  V30 6896 H 687.998 -0.398418 -6.46774 0
M  V30 6897 N 681.404 1.57128 0.121893 0
M  V30 6898 C 682.652 1.84335 0.828548 0
M  V30 6899 C 682.973 0.736632 1.80551 0
M  V30 6900 O 682.243 -0.23962 1.94429 0
M  V30 6901 H 680.823 0.680108 0.30897 0
M  V30 6902 H 683.485 1.9459 0.109906 0
M  V30 6903 H 682.581 2.80152 1.37554 0
M  V30 6904 N 682.882 -0.391992 1.52647 0
M  V30 6905 C 684.11 -1.1586 1.71418 0
M  V30 6906 C 684.525 -1.8381 0.431216 0
M  V30 6907 O 683.882 -1.7256 -0.594085 0
M  V30 6908 C 683.933 -2.20888 2.86165 0
M  V30 6909 O 683.654 -1.5571 4.09495 0
M  V30 6910 C 685.155 -3.103 3.1659 0
M  V30 6911 H 682.375 -0.347494 0.574011 0
M  V30 6912 H 684.919 -0.458972 1.99283 0
M  V30 6913 H 683.074 -2.86492 2.6077 0
M  V30 6914 H 683.488 -2.25474 4.73563 0
M  V30 6915 H 684.962 -3.8003 4.00351 0
M  V30 6916 H 685.439 -3.73639 2.30848 0
M  V30 6917 H 686.045 -2.50345 3.43813 0
M  V30 6918 N 684.36 -1.4356 -0.65026 0
M  V30 6919 C 685.29 -1.51758 -1.77459 0
M  V30 6920 C 686.271 -0.372019 -1.65982 0
M  V30 6921 O 687.456 -0.589627 -1.85033 0
M  V30 6922 C 684.586 -1.44302 -3.15902 0
M  V30 6923 C 683.54 -2.57138 -3.42146 0
M  V30 6924 C 682.866 -2.34735 -4.8042 0
M  V30 6925 C 684.166 -3.99373 -3.36598 0
M  V30 6926 H 685.86 -2.45863 -1.70855 0
M  V30 6927 H 683.406 -1.18333 -0.820566 0
M  V30 6928 H 685.359 -1.48641 -3.94314 0
M  V30 6929 H 684.083 -0.467026 -3.23244 0
M  V30 6930 H 682.742 -2.52157 -2.66106 0
M  V30 6931 H 682.39 -1.35372 -4.84441 0
M  V30 6932 H 682.09 -3.10375 -4.9894 0
M  V30 6933 H 683.614 -2.40862 -5.61086 0
M  V30 6934 H 685.028 -4.05826 -4.04942 0
M  V30 6935 H 683.425 -4.75063 -3.66654 0
M  V30 6936 H 684.495 -4.243 -2.34729 0
M  V30 6937 N 685.838 0.888903 -1.30139 0
M  V30 6938 C 687.087 1.63507 -1.18103 0
M  V30 6939 C 687.4 1.93808 0.264141 0
M  V30 6940 O 688.606 2.66744 0.505966 0
M  V30 6941 C 687.062 2.94673 -2.0663 0
M  V30 6942 C 686.67 2.71926 -3.56034 0
M  V30 6943 C 688.414 3.72626 -2.03346 0
M  V30 6944 C 686.321 3.98884 -4.3663 0
M  V30 6945 H 685.251 0.613426 -0.438435 0
M  V30 6946 H 687.902 0.984427 -1.54859 0
M  V30 6947 H 686.284 3.61009 -1.62754 0
M  V30 6948 H 687.458 2.14116 -4.08033 0
M  V30 6949 H 685.773 2.07353 -3.61101 0
M  V30 6950 H 688.37 4.66775 -2.60816 0
M  V30 6951 H 688.713 4.03712 -1.016 0
M  V30 6952 H 689.246 3.13147 -2.45324 0
M  V30 6953 H 685.985 3.72959 -5.39056 0
M  V30 6954 H 685.505 4.56214 -3.89396 0
M  V30 6955 H 687.184 4.66938 -4.47859 0
M  V30 6956 N 687.317 1.12792 1.10072 0
M  V30 6957 C 688.566 0.880232 1.81479 0
M  V30 6958 C 688.879 -0.595575 1.86312 0
M  V30 6959 O 690.085 -0.959979 2.53962 0
M  V30 6960 C 688.541 1.52514 3.25987 0
M  V30 6961 C 688.149 3.036 3.29441 0
M  V30 6962 C 689.893 1.35788 4.02196 0
M  V30 6963 C 687.8 3.61007 4.68431 0
M  V30 6964 H 686.73 0.325654 0.680048 0
M  V30 6965 H 689.381 1.35485 1.23758 0
M  V30 6966 H 687.763 0.978188 3.83728 0
M  V30 6967 H 688.937 3.64819 2.81502 0
M  V30 6968 H 687.252 3.19765 2.66719 0
M  V30 6969 H 689.849 1.76096 5.0487 0
M  V30 6970 H 690.192 0.301972 4.15203 0
M  V30 6971 H 690.725 1.87426 3.50879 0
M  V30 6972 H 687.464 4.66375 4.60625 0
M  V30 6973 H 686.984 3.04564 5.16721 0
M  V30 6974 H 688.663 3.60289 5.37402 0
M  V30 6975 N 688.795 -1.27931 0.920396 0
M  V30 6976 C 690.211 -1.47085 0.619537 0
M  V30 6977 C 690.411 -1.83463 -0.833291 0
M  V30 6978 O 689.467 -1.94363 -1.61181 0
M  V30 6979 C 690.78 -2.56878 1.56314 0
M  V30 6980 C 692.328 -2.70743 1.57058 0
M  V30 6981 C 692.803 -3.83687 2.50097 0
M  V30 6982 N 694.294 -3.9105 2.48262 0
M  V30 6983 C 695.029 -4.77842 3.16945 0
M  V30 6984 N 694.525 -5.69176 3.94982 0
M  V30 6985 N 696.318 -4.71509 3.06 0
M  V30 6986 H 688.469 -1.02601 1.85975 0
M  V30 6987 H 690.732 -0.511682 0.798051 0
M  V30 6988 H 690.438 -2.36923 2.59923 0
M  V30 6989 H 690.312 -3.54117 1.29928 0
M  V30 6990 H 692.699 -2.90083 0.541832 0
M  V30 6991 H 692.78 -1.74015 1.8749 0
M  V30 6992 H 692.424 -3.65101 3.53077 0
M  V30 6993 H 692.354 -4.79827 2.16964 0
M  V30 6994 H 694.845 -3.25738 1.91581 0
M  V30 6995 H 695.158 -6.32245 4.44394 0
M  V30 6996 H 693.503 -5.68995 3.99086 0
M  V30 6997 H 696.694 -3.99151 2.44533 0
M  V30 6998 H 696.867 -5.38933 3.59799 0
M  V30 6999 N 690.273 -0.685099 -1.4193 0
M  V30 7000 C 691.55 -0.140152 -1.95097 0
M  V30 7001 C 691.93 1.34745 -1.62502 0
M  V30 7002 O 691.278 2.08872 -0.926534 0
M  V30 7003 C 691.488 -0.420268 -3.4646 0
M  V30 7004 C 692.836 -0.342338 -4.23218 0
M  V30 7005 O 693.86 -0.354592 -3.54431 0
M  V30 7006 O 692.719 -0.293404 -5.45712 0
M  V30 7007 H 689.813 -0.00885998 -0.826953 0
M  V30 7008 H 692.359 -0.760539 -1.51703 0
M  V30 7009 H 691.131 -1.45037 -3.63428 0
M  V30 7010 H 690.754 0.231616 -3.96925 0
M  V30 7011 N 691.751 1.51645 -0.429126 0
M  V30 7012 C 692.997 2.02314 0.140286 0
M  V30 7013 C 693.33 1.31314 1.43074 0
M  V30 7014 O 692.605 0.425531 1.89788 0
M  V30 7015 C 692.888 3.5822 0.36749 0
M  V30 7016 C 692.741 4.39846 -0.941039 0
M  V30 7017 C 694.06 4.25055 1.14089 0
M  V30 7018 H 691.179 0.735335 0.0495112 0
M  V30 7019 H 693.821 1.81358 -0.566514 0
M  V30 7020 H 691.971 3.76207 0.969556 0
M  V30 7021 H 693.643 4.33527 -1.57646 0
M  V30 7022 H 691.886 4.05259 -1.54751 0
M  V30 7023 H 692.557 5.47069 -0.73621 0
M  V30 7024 H 695.033 4.11288 0.630986 0
M  V30 7025 H 693.909 5.34038 1.26863 0
M  V30 7026 H 694.17 3.85358 2.16683 0
M  V30 7027 N 693.229 0.160201 1.56784 0
M  V30 7028 C 694.176 -0.774416 2.1742 0
M  V30 7029 C 695.146 -1.23483 1.11091 0
M  V30 7030 O 696.331 -1.30499 1.39193 0
M  V30 7031 C 693.471 -2.00283 2.81035 0
M  V30 7032 C 692.584 -1.58701 4.01793 0
M  V30 7033 C 691.719 -2.76824 4.53367 0
M  V30 7034 C 690.758 -2.31679 5.66561 0
M  V30 7035 N 689.895 -3.42856 6.12694 0
M  V30 7036 H 694.735 -0.250542 2.96945 0
M  V30 7037 H 692.272 -0.111943 1.46673 0
M  V30 7038 H 694.23 -2.72316 3.16069 0
M  V30 7039 H 692.86 -2.5006 2.04132 0
M  V30 7040 H 691.912 -0.76384 3.72652 0
M  V30 7041 H 693.224 -1.21555 4.83762 0
M  V30 7042 H 692.378 -3.57029 4.90525 0
M  V30 7043 H 691.117 -3.17223 3.70433 0
M  V30 7044 H 690.122 -1.49917 5.28966 0
M  V30 7045 H 691.347 -1.9235 6.5129 0
M  V30 7046 H 689.293 -3.82852 5.32692 0
M  V30 7047 H 689.21 -3.09767 6.89624 0
M  V30 7048 H 690.478 -4.23379 6.545 0
M  V30 7049 N 694.707 -1.5719 -0.113559 0
M  V30 7050 C 695.617 -2.04041 -1.15777 0
M  V30 7051 C 696.633 -0.961812 -1.45001 0
M  V30 7052 O 697.809 -1.2737 -1.56009 0
M  V30 7053 C 694.874 -2.43994 -2.46308 0
M  V30 7054 C 693.935 -3.65962 -2.24433 0
M  V30 7055 C 693.168 -4.04 -3.4874 0
M  V30 7056 O 693.391 -3.42321 -4.56259 0
M  V30 7057 O 692.325 -4.97069 -3.3942 0
M  V30 7058 H 696.151 -2.93248 -0.789899 0
M  V30 7059 H 693.736 -1.45828 -0.324748 0
M  V30 7060 H 695.618 -2.70401 -3.23204 0
M  V30 7061 H 694.293 -1.57932 -2.82558 0
M  V30 7062 H 693.2 -3.44697 -1.45377 0
M  V30 7063 H 694.533 -4.52746 -1.93084 0
M  V30 7064 N 696.185 0.383891 -1.52853 0
M  V30 7065 C 697.41 1.154 -1.7233 0
M  V30 7066 C 697.835 1.82809 -0.44298 0
M  V30 7067 O 697.193 1.71026 0.601645 0
M  V30 7068 C 697.241 2.17386 -2.87708 0
M  V30 7069 O 696.345 3.24082 -2.55038 0
M  V30 7070 H 695.686 0.335709 -0.572883 0
M  V30 7071 H 698.216 0.44662 -1.99666 0
M  V30 7072 H 698.226 2.61296 -3.1335 0
M  V30 7073 H 696.901 1.6771 -3.80587 0
M  V30 7074 H 695.478 2.85273 -2.40153 0
M  V30 7075 N 697.663 1.43903 0.642637 0
M  V30 7076 C 698.94 1.36556 1.40043 0
M  V30 7077 C 699.32 0.0185588 2.11092 0
M  V30 7078 O 698.668 -0.998438 2.05532 0
M  V30 7079 C 698.878 2.55596 2.37638 0
M  V30 7080 C 700.226 2.99153 3.01318 0
M  V30 7081 O 701.25 2.55719 2.47965 0
M  V30 7082 O 700.109 3.74427 3.98078 0
M  V30 7083 H 697.203 0.540189 0.626198 0
M  V30 7084 H 699.749 1.55971 0.668657 0
M  V30 7085 H 698.521 3.45256 1.84158 0
M  V30 7086 H 698.144 2.38334 3.18249 0
M  V30 7087 N 699.141 -0.881989 1.30609 0
M  V30 7088 C 700.073 -1.99375 1.13058 0
M  V30 7089 C 701.086 -1.62636 0.0729879 0
M  V30 7090 O 702.275 -1.75621 0.319301 0
M  V30 7091 C 699.375 -3.31536 0.702651 0
M  V30 7092 C 698.548 -3.96693 1.84265 0
M  V30 7093 C 697.607 -5.07158 1.40277 0
M  V30 7094 O 696.633 -5.28628 2.11048 0
M  V30 7095 N 697.835 -5.79808 0.283449 0
M  V30 7096 H 700.6 -2.14981 2.08814 0
M  V30 7097 H 698.161 -1.05526 1.22784 0
M  V30 7098 H 700.153 -4.02804 0.391331 0
M  V30 7099 H 698.723 -3.12175 -0.162954 0
M  V30 7100 H 697.943 -3.1856 2.32192 0
M  V30 7101 H 699.231 -4.36964 2.60653 0
M  V30 7102 H 698.629 -5.64871 -0.306189 0
M  V30 7103 H 697.186 -6.51792 0.0315985 0
M  V30 7104 N 700.619 -1.13374 -1.09472 0
M  V30 7105 C 701.867 -0.893422 -1.8128 0
M  V30 7106 C 702.188 0.582029 -1.86111 0
M  V30 7107 O 701.458 1.42305 -1.34633 0
M  V30 7108 H 700.038 -0.327543 -0.67136 0
M  V30 7109 H 702.7 -1.43018 -1.32408 0
M  V30 7110 H 701.796 -1.28374 -2.84476 0
M  V30 7111 N 702.098 1.27442 -0.927168 0
M  V30 7112 C 703.061 2.2512 -0.430525 0
M  V30 7113 C 704.061 1.54357 0.450619 0
M  V30 7114 O 705.251 1.72371 0.251774 0
M  V30 7115 C 702.383 3.38763 0.381144 0
M  V30 7116 H 703.576 2.70569 -1.29354 0
M  V30 7117 H 701.129 1.39355 -0.707806 0
M  V30 7118 H 701.864 2.98695 1.263 0
M  V30 7119 H 701.649 3.91298 -0.250618 0
M  V30 7120 H 703.139 4.11364 0.719012 0
M  V30 7121 N 703.576 0.692616 1.41565 0
M  V30 7122 C 704.806 0.230943 2.05305 0
M  V30 7123 C 705.214 -1.12379 1.52209 0
M  V30 7124 O 704.557 -1.71281 0.663968 0
M  V30 7125 C 704.619 0.107894 3.59338 0
M  V30 7126 C 704.283 1.39419 4.35214 0
M  V30 7127 C 705.28 2.33143 4.64694 0
M  V30 7128 C 702.965 1.64674 4.74539 0
M  V30 7129 C 704.959 3.50385 5.32456 0
M  V30 7130 C 702.646 2.82202 5.42038 0
M  V30 7131 C 703.644 3.74881 5.70923 0
M  V30 7132 O 703.332 4.90351 6.37033 0
M  V30 7133 H 703.064 0.105708 0.667684 0
M  V30 7134 H 705.618 0.94488 1.82376 0
M  V30 7135 H 703.848 -0.661785 3.80995 0
M  V30 7136 H 705.537 -0.316213 4.04666 0
M  V30 7137 H 706.303 2.14887 4.34797 0
M  V30 7138 H 702.182 0.934007 4.51439 0
M  V30 7139 H 705.726 4.22743 5.54918 0
M  V30 7140 H 701.623 3.00376 5.71353 0
M  V30 7141 H 702.391 4.90128 6.55528 0
M  V30 7142 N 705.054 -1.51416 0.437162 0
M  V30 7143 C 706.282 -2.06503 -0.128045 0
M  V30 7144 C 706.697 -1.30461 -1.36475 0
M  V30 7145 O 706.054 -0.364127 -1.78831 0
M  V30 7146 C 706.105 -3.58683 -0.450437 0
M  V30 7147 O 705.826 -4.31853 0.737186 0
M  V30 7148 C 707.327 -4.30284 -1.06633 0
M  V30 7149 H 704.547 -0.670952 -0.00800269 0
M  V30 7150 H 707.091 -1.94996 0.616193 0
M  V30 7151 H 705.246 -3.70106 -1.14457 0
M  V30 7152 H 705.66 -5.22467 0.461347 0
M  V30 7153 H 707.134 -5.37848 -1.24191 0
M  V30 7154 H 707.611 -3.88564 -2.0473 0
M  V30 7155 H 708.217 -4.23304 -0.411585 0
M  V30 7156 N 706.532 -0.168513 -1.56696 0
M  V30 7157 C 707.772 0.479648 -1.98693 0
M  V30 7158 C 708.136 1.60609 -1.05209 0
M  V30 7159 O 709.337 2.3166 -1.36334 0
M  V30 7160 C 707.608 0.952852 -3.44464 0
M  V30 7161 S 709.167 1.60259 -4.08488 0
M  V30 7162 H 705.985 0.154377 -0.694038 0
M  V30 7163 H 708.587 -0.265312 -1.93691 0
M  V30 7164 H 707.291 0.12257 -4.10217 0
M  V30 7165 H 706.822 1.73192 -3.53225 0
M  V30 7166 H 708.837 2.89065 -4.03307 0
M  V30 7167 N 708.01 1.57248 0.105221 0
M  V30 7168 C 708.92 2.04653 1.14693 0
M  V30 7169 C 709.936 0.969488 1.44489 0
M  V30 7170 O 711.112 1.28196 1.55331 0
M  V30 7171 C 708.177 2.45297 2.45011 0
M  V30 7172 C 707.238 3.67148 2.22489 0
M  V30 7173 C 706.471 4.05844 3.46592 0
M  V30 7174 O 706.694 3.44736 4.54437 0
M  V30 7175 O 705.628 4.98862 3.36779 0
M  V30 7176 H 709.454 2.93663 0.774336 0
M  V30 7177 H 707.039 1.45998 0.31701 0
M  V30 7178 H 708.921 2.72112 3.21766 0
M  V30 7179 H 707.596 1.59429 2.81717 0
M  V30 7180 H 706.503 3.45463 1.43547 0
M  V30 7181 H 707.836 4.53764 1.9068 0
M  V30 7182 N 709.488 -0.375779 1.53054 0
M  V30 7183 C 710.451 -1.44254 1.7811 0
M  V30 7184 C 711.451 -1.47018 0.651328 0
M  V30 7185 O 712.641 -1.47957 0.919472 0
M  V30 7186 C 709.773 -2.8345 1.89391 0
M  V30 7187 H 710.966 -1.23316 2.73374 0
M  V30 7188 H 708.519 -0.608312 1.43977 0
M  V30 7189 H 709.254 -3.09716 0.961589 0
M  V30 7190 H 709.039 -2.82844 2.71555 0
M  V30 7191 H 710.529 -3.60722 2.10404 0
M  V30 7192 N 710.966 -1.44241 -0.634997 0
M  V30 7193 C 711.899 -1.45274 -1.75985 0
M  V30 7194 C 712.877 -0.312025 -1.59578 0
M  V30 7195 O 714.061 -0.508409 -1.81514 0
M  V30 7196 C 711.188 -1.28173 -3.13511 0
M  V30 7197 C 710.234 -2.45757 -3.48576 0
M  V30 7198 S 711.067 -4.08293 -3.46492 0
M  V30 7199 C 712.223 -3.93608 -4.86645 0
M  V30 7200 H 712.456 -2.40454 -1.74841 0
M  V30 7201 H 709.989 -1.31492 -0.809268 0
M  V30 7202 H 711.947 -1.18993 -3.92875 0
M  V30 7203 H 710.608 -0.34511 -3.12198 0
M  V30 7204 H 709.801 -2.29644 -4.48642 0
M  V30 7205 H 709.403 -2.51657 -2.76667 0
M  V30 7206 H 711.695 -3.57059 -5.75774 0
M  V30 7207 H 712.638 -4.9349 -5.07813 0
M  V30 7208 H 713.046 -3.25737 -4.61038 0
M  V30 7209 N 712.444 0.87505 -1.31075 0
M  V30 7210 C 713.392 2.00317 -1.18219 0
M  V30 7211 C 714.386 1.69152 -0.0916872 0
M  V30 7212 O 715.592 1.7821 -0.253229 0
M  V30 7213 H 711.967 0.656981 -0.365895 0
M  V30 7214 H 713.938 2.08293 -2.13674 0
M  V30 7215 C 712.687 3.35821 -0.901095 0
M  V30 7216 H 712.01 3.6032 -1.73233 0
M  V30 7217 H 713.45 4.15366 -0.851295 0
M  V30 7218 C 711.909 3.34563 0.396114 0
M  V30 7219 O 712.439 3.75971 1.41452 0
M  V30 7220 N 710.645 2.87681 0.410832 0
M  V30 7221 H 710.192 2.54179 -0.418415 0
M  V30 7222 H 710.15 2.87223 1.27869 0
M  V30 7223 N 713.922 1.13953 1.08869 0
M  V30 7224 C 714.885 0.824991 2.13838 0
M  V30 7225 C 715.885 -0.168198 1.59918 0
M  V30 7226 O 717.075 0.0595778 1.74098 0
M  V30 7227 C 714.207 0.228938 3.4013 0
M  V30 7228 H 715.4 1.75521 2.43171 0
M  V30 7229 H 712.953 0.94492 1.24503 0
M  V30 7230 H 713.688 -0.710227 3.16427 0
M  V30 7231 H 713.473 0.944243 3.80561 0
M  V30 7232 H 714.963 0.0259223 4.17592 0
M  V30 7233 N 715.4 -1.26948 0.933913 0
M  V30 7234 C 716.816 -1.46419 0.635103 0
M  V30 7235 C 717.016 -1.84336 -0.813785 0
M  V30 7236 O 716.072 -1.96061 -1.59111 0
M  V30 7237 C 717.385 -2.55206 1.5903 0
M  V30 7238 C 718.933 -2.69062 1.5992 0
M  V30 7239 C 719.408 -3.81013 2.54152 0
M  V30 7240 N 720.899 -3.88395 2.52395 0
M  V30 7241 C 721.634 -4.74454 3.21996 0
M  V30 7242 N 721.13 -5.64954 4.00997 0
M  V30 7243 N 722.923 -4.68237 3.10983 0
M  V30 7244 H 715.074 -1.00622 1.87053 0
M  V30 7245 H 717.337 -0.503189 0.803433 0
M  V30 7246 H 717.043 -2.34153 2.62422 0
M  V30 7247 H 716.917 -3.52719 1.33677 0
M  V30 7248 H 719.304 -2.89492 0.572569 0
M  V30 7249 H 719.385 -1.72016 1.89325 0
M  V30 7250 H 719.029 -3.61336 3.5693 0
M  V30 7251 H 718.959 -4.77499 2.22041 0
M  V30 7252 H 721.45 -3.23687 1.95025 0
M  V30 7253 H 721.763 -6.27496 4.51074 0
M  V30 7254 H 720.108 -5.6473 4.05099 0
M  V30 7255 H 723.299 -3.96535 2.48753 0
M  V30 7256 H 723.472 -5.35087 3.65494 0
M  V30 7257 N 716.879 -0.700114 -1.41195 0
M  V30 7258 C 718.127 -0.232546 -2.00758 0
M  V30 7259 C 718.448 1.1734 -1.55745 0
M  V30 7260 O 717.718 1.79262 -0.790058 0
M  V30 7261 H 716.298 -0.0829845 -0.742376 0
M  V30 7262 H 718.96 -0.902289 -1.72756 0
M  V30 7263 H 718.056 -0.253521 -3.11069 0
M  V30 7264 N 718.357 1.51182 -0.445186 0
M  V30 7265 C 719.29 2.24528 0.4077 0
M  V30 7266 C 720.268 1.26778 1.01814 0
M  V30 7267 O 721.452 1.55934 1.05909 0
M  V30 7268 C 718.579 3.00171 1.56892 0
M  V30 7269 C 717.625 4.12641 1.0784 0
M  V30 7270 S 718.458 5.35498 0.014049 0
M  V30 7271 C 719.614 6.14681 1.17975 0
M  V30 7272 H 719.847 2.96522 -0.214987 0
M  V30 7273 H 717.38 1.52681 -0.229781 0
M  V30 7274 H 719.338 3.44349 2.23459 0
M  V30 7275 H 717.999 2.27752 2.16304 0
M  V30 7276 H 717.192 4.64875 1.94698 0
M  V30 7277 H 716.794 3.70765 0.490852 0
M  V30 7278 H 719.086 6.44244 2.09658 0
M  V30 7279 H 720.029 7.04659 0.697222 0
M  V30 7280 H 720.437 5.46299 1.42187 0
M  V30 7281 N 719.835 0.176821 1.56605 0
M  V30 7282 C 721.081 -0.467406 1.9734 0
M  V30 7283 C 721.414 -1.62523 1.06301 0
M  V30 7284 O 720.689 -1.94182 0.11125 0
M  V30 7285 C 720.972 -0.945106 3.47476 0
M  V30 7286 C 720.825 0.213273 4.49294 0
M  V30 7287 C 722.144 -1.8169 4.00845 0
M  V30 7288 H 719.263 -0.168426 0.717497 0
M  V30 7289 H 721.905 0.264065 1.88156 0
M  V30 7290 H 720.055 -1.56841 3.55434 0
M  V30 7291 H 721.727 0.850508 4.53392 0
M  V30 7292 H 719.97 0.867918 4.25029 0
M  V30 7293 H 720.641 -0.163187 5.51759 0
M  V30 7294 H 723.117 -1.29139 3.95553 0
M  V30 7295 H 721.993 -2.12015 5.06301 0
M  V30 7296 H 722.254 -2.76463 3.44994 0
M  V30 7297 N 721.313 -1.57302 -0.09688 0
M  V30 7298 C 722.56 -1.85997 -0.800699 0
M  V30 7299 C 722.888 -0.765089 -1.7882 0
M  V30 7300 O 722.143 0.241492 -1.94204 0
M  V30 7301 C 722.442 -3.21272 -1.56586 0
M  V30 7302 C 722.108 -4.45104 -0.72064 0
M  V30 7303 C 720.77 -4.78723 -0.487632 0
M  V30 7304 C 723.122 -5.2103 -0.132948 0
M  V30 7305 C 720.45 -5.85697 0.34296 0
M  V30 7306 C 722.802 -6.28881 0.684957 0
M  V30 7307 C 721.466 -6.61017 0.928073 0
M  V30 7308 H 720.736 -0.680613 -0.292997 0
M  V30 7309 H 723.383 -1.91399 -0.0622474 0
M  V30 7310 H 721.688 -3.11547 -2.37583 0
M  V30 7311 H 723.385 -3.40702 -2.11478 0
M  V30 7312 H 719.975 -4.18777 -0.912359 0
M  V30 7313 H 724.159 -4.95392 -0.300132 0
M  V30 7314 H 719.415 -6.09008 0.540317 0
M  V30 7315 H 723.589 -6.86886 1.14721 0
M  V30 7316 H 721.216 -7.43738 1.57348 0
M  V30 7317 N 722.791 0.367657 -1.53252 0
M  V30 7318 C 724.039 1.10832 -1.68999 0
M  V30 7319 C 724.36 1.89894 -0.443306 0
M  V30 7320 O 723.63 1.88235 0.54262 0
M  V30 7321 H 722.21 0.412153 -0.623008 0
M  V30 7322 H 724.872 0.414775 -1.90435 0
M  V30 7323 H 723.968 1.7993 -2.55013 0
M  V30 7324 N 724.269 1.44576 0.627338 0
M  V30 7325 C 725.518 1.46837 1.38281 0
M  V30 7326 C 725.831 0.10635 1.95311 0
M  V30 7327 O 727.037 0.00651084 2.71499 0
M  V30 7328 C 725.493 2.58527 2.50384 0
M  V30 7329 C 725.101 4.00953 1.99851 0
M  V30 7330 C 726.845 2.70013 3.27557 0
M  V30 7331 C 724.752 5.0406 3.09318 0
M  V30 7332 H 723.682 0.546319 0.519664 0
M  V30 7333 H 726.333 1.70654 0.674497 0
M  V30 7334 H 724.715 2.27957 3.23808 0
M  V30 7335 H 725.889 4.41108 1.33267 0
M  V30 7336 H 724.204 3.93743 1.35482 0
M  V30 7337 H 726.801 3.44217 4.09168 0
M  V30 7338 H 727.144 1.75961 3.77284 0
M  V30 7339 H 727.677 3.00011 2.61224 0
M  V30 7340 H 724.416 5.99753 2.6453 0
M  V30 7341 H 723.936 4.68493 3.74532 0
M  V30 7342 H 725.615 5.2793 3.74031 0
M  V30 7343 N 725.747 -0.868086 1.31537 0
M  V30 7344 C 727.158 -1.437 1.19195 0
M  V30 7345 C 727.509 -1.95169 -0.200842 0
M  V30 7346 O 726.634 -1.86432 -1.09872 0
M  V30 7347 C 727.229 -2.612 2.15778 0
M  V30 7348 C 725.788 -3.1413 2.07363 0
M  V30 7349 C 724.935 -1.86845 2.049 0
M  V30 7350 H 727.886 -0.676457 1.43561 0
M  V30 7351 H 727.907 -3.37948 1.74847 0
M  V30 7352 H 727.419 -2.23709 3.17137 0
M  V30 7353 H 725.52 -3.56238 1.09204 0
M  V30 7354 H 725.633 -3.76285 2.96557 0
M  V30 7355 H 723.997 -2.05886 1.49943 0
M  V30 7356 H 724.78 -1.51589 3.08019 0
M  V30 7357 N 727.225 -1.14528 -1.08264 0
M  V30 7358 C 728.502 -0.825185 -1.77342 0
M  V30 7359 C 728.882 0.681037 -1.99813 0
M  V30 7360 O 728.23 1.62234 -1.60912 0
M  V30 7361 C 728.44 -1.62556 -3.08831 0
M  V30 7362 C 729.788 -1.82585 -3.83338 0
M  V30 7363 O 730.812 -1.59254 -3.18617 0
M  V30 7364 O 729.671 -2.21598 -4.99556 0
M  V30 7365 H 726.765 -0.302531 -0.769678 0
M  V30 7366 H 729.311 -1.25056 -1.14713 0
M  V30 7367 H 728.083 -2.64862 -2.88035 0
M  V30 7368 H 727.706 -1.1959 -3.79189 0
M  V30 7369 N 728.703 1.26451 -0.940633 0
M  V30 7370 C 729.951 1.93395 -0.586748 0
M  V30 7371 C 730.272 1.7417 0.876921 0
M  V30 7372 O 729.542 1.097 1.62304 0
M  V30 7373 H 728.122 0.715687 -0.214012 0
M  V30 7374 H 730.784 1.53902 -1.19584 0
M  V30 7375 H 729.88 3.01565 -0.804059 0
M  V30 7376 N 730.181 0.707592 1.40822 0
M  V30 7377 C 731.427 0.244031 2.01326 0
M  V30 7378 C 731.76 -1.15722 1.55955 0
M  V30 7379 O 731.035 -1.78347 0.776044 0
M  V30 7380 C 731.318 0.315128 3.58718 0
M  V30 7381 C 731.171 1.75419 4.14184 0
M  V30 7382 C 732.49 -0.318251 4.38948 0
M  V30 7383 H 729.609 0.0901471 0.731466 0
M  V30 7384 H 732.251 0.898584 1.67408 0
M  V30 7385 H 730.401 -0.242176 3.87744 0
M  V30 7386 H 732.073 2.36626 3.95987 0
M  V30 7387 H 730.316 2.28449 3.68773 0
M  V30 7388 H 730.987 1.75538 5.23345 0
M  V30 7389 H 733.463 0.156514 4.15806 0
M  V30 7390 H 732.339 -0.238019 5.48384 0
M  V30 7391 H 732.6 -1.40067 4.19325 0
M  V30 7392 N 731.66 -1.50943 0.453197 0
M  V30 7393 C 732.59 -2.31005 -0.34044 0
M  V30 7394 C 733.571 -1.37112 -1.00669 0
M  V30 7395 O 734.756 -1.66033 -1.0073 0
M  V30 7396 C 731.886 -3.16358 -1.433 0
M  V30 7397 C 730.84 -4.18658 -0.889363 0
M  V30 7398 C 730.166 -4.92633 -2.07887 0
M  V30 7399 C 731.466 -5.22227 0.0871142 0
M  V30 7400 H 733.16 -2.97601 0.327723 0
M  V30 7401 H 730.706 -1.43119 0.159054 0
M  V30 7402 H 732.659 -3.71155 -1.99555 0
M  V30 7403 H 731.383 -2.47613 -2.12968 0
M  V30 7404 H 730.042 -3.64936 -0.348915 0
M  V30 7405 H 729.69 -4.20376 -2.76211 0
M  V30 7406 H 729.39 -5.61819 -1.72143 0
M  V30 7407 H 730.914 -5.50258 -2.64666 0
M  V30 7408 H 732.328 -5.72001 -0.385656 0
M  V30 7409 H 730.725 -5.99032 0.357926 0
M  V30 7410 H 731.795 -4.74077 1.01879 0
M  V30 7411 N 733.138 -0.185124 -1.56509 0
M  V30 7412 C 734.048 0.751908 -2.22224 0
M  V30 7413 C 735.064 1.24244 -1.21817 0
M  V30 7414 O 736.24 1.29169 -1.54523 0
M  V30 7415 C 733.305 1.95837 -2.86092 0
M  V30 7416 C 732.366 1.51337 -4.01741 0
M  V30 7417 C 731.599 2.66233 -4.62554 0
M  V30 7418 O 731.822 3.8346 -4.22273 0
M  V30 7419 O 730.756 2.39517 -5.52191 0
M  V30 7420 H 734.582 0.222304 -3.02885 0
M  V30 7421 H 732.167 0.0437141 -1.49336 0
M  V30 7422 H 734.049 2.66368 -3.26536 0
M  V30 7423 H 732.724 2.47677 -2.08417 0
M  V30 7424 H 731.631 0.777155 -3.65939 0
M  V30 7425 H 732.964 1.04175 -4.81049 0
M  V30 7426 N 734.616 1.57351 0.0885366 0
M  V30 7427 C 735.546 2.05561 1.10757 0
M  V30 7428 C 736.527 0.945789 1.41382 0
M  V30 7429 O 737.712 1.21747 1.51299 0
M  V30 7430 C 734.842 2.48554 2.42566 0
M  V30 7431 C 733.796 3.63259 2.26334 0
M  V30 7432 C 733.122 3.9225 3.63378 0
M  V30 7433 C 734.422 4.93913 1.69844 0
M  V30 7434 H 736.116 2.90946 0.706468 0
M  V30 7435 H 733.662 1.39968 0.338385 0
M  V30 7436 H 735.615 2.8089 3.14132 0
M  V30 7437 H 734.339 1.60176 2.84625 0
M  V30 7438 H 732.998 3.31179 1.57213 0
M  V30 7439 H 732.646 3.0103 4.02976 0
M  V30 7440 H 732.346 4.69478 3.53362 0
M  V30 7441 H 733.87 4.27067 4.36401 0
M  V30 7442 H 735.284 5.24588 2.31258 0
M  V30 7443 H 733.681 5.75349 1.70569 0
M  V30 7444 H 734.751 4.80409 0.65843 0
M  V30 7445 N 736.094 -0.359525 1.53444 0
M  V30 7446 C 737.34 -1.10315 1.70172 0
M  V30 7447 C 737.673 -1.88788 0.455287 0
M  V30 7448 O 736.948 -1.86635 -0.547514 0
M  V30 7449 C 737.231 -2.05744 2.95536 0
M  V30 7450 C 737.084 -1.3084 4.3035 0
M  V30 7451 C 738.403 -3.05784 3.16518 0
M  V30 7452 H 735.522 -0.399662 0.619225 0
M  V30 7453 H 738.164 -0.383338 1.86093 0
M  V30 7454 H 736.314 -2.67125 2.82093 0
M  V30 7455 H 737.986 -0.721959 4.55615 0
M  V30 7456 H 736.229 -0.610283 4.29486 0
M  V30 7457 H 736.9 -2.00718 5.14214 0
M  V30 7458 H 739.376 -2.5451 3.29187 0
M  V30 7459 H 738.252 -3.69772 4.05659 0
M  V30 7460 H 738.513 -3.76289 2.32076 0
M  V30 7461 N 737.572 -1.44907 -0.619662 0
M  V30 7462 C 738.983 -1.42905 -1.20146 0
M  V30 7463 C 739.334 -0.150341 -1.95623 0
M  V30 7464 O 738.459 0.748732 -2.03034 0
M  V30 7465 C 739.054 -2.58889 -2.18545 0
M  V30 7466 C 737.613 -2.60046 -2.72127 0
M  V30 7467 C 736.76 -2.3493 -1.4732 0
M  V30 7468 H 739.711 -1.53321 -0.409666 0
M  V30 7469 H 739.732 -2.32298 -3.0136 0
M  V30 7470 H 739.244 -3.51941 -1.63583 0
M  V30 7471 H 737.345 -1.70968 -3.3106 0
M  V30 7472 H 737.458 -3.58893 -3.17384 0
M  V30 7473 H 735.822 -1.84248 -1.75855 0
M  V30 7474 H 736.605 -3.3011 -0.942442 0
M  V30 7475 N 739.05 0.861098 -1.31996 0
M  V30 7476 C 739.982 1.97551 -1.16216 0
M  V30 7477 C 740.995 1.625 -0.0988527 0
M  V30 7478 O 742.184 1.75091 -0.3472 0
M  V30 7479 C 739.284 3.30376 -0.755307 0
M  V30 7480 C 738.457 3.93711 -1.90552 0
M  V30 7481 C 737.516 5.04862 -1.48328 0
M  V30 7482 O 736.542 5.25204 -2.19431 0
M  V30 7483 N 737.744 5.79283 -0.375656 0
M  V30 7484 H 740.509 2.11632 -2.12208 0
M  V30 7485 H 738.07 1.03559 -1.24448 0
M  V30 7486 H 740.062 4.0213 -0.455364 0
M  V30 7487 H 738.632 3.12395 0.113269 0
M  V30 7488 H 737.852 3.14825 -2.37231 0
M  V30 7489 H 739.14 4.32762 -2.67571 0
M  V30 7490 H 738.538 5.65286 0.216284 0
M  V30 7491 H 737.095 6.5166 -0.135289 0
M  V30 7492 N 740.528 1.15101 1.07655 0
M  V30 7493 C 741.944 0.893004 1.32279 0
M  V30 7494 C 742.144 -0.461701 1.96139 0
M  V30 7495 O 741.2 -1.20431 2.21929 0
M  V30 7496 C 742.513 2.03161 2.21689 0
M  V30 7497 C 744.061 2.06579 2.35147 0
M  V30 7498 C 744.536 3.19754 3.27905 0
M  V30 7499 N 746.027 3.19382 3.35484 0
M  V30 7500 C 746.762 4.03592 4.07309 0
M  V30 7501 N 746.258 4.97859 4.81776 0
M  V30 7502 N 748.051 3.91626 4.03219 0
M  V30 7503 H 740.202 2.02341 0.645886 0
M  V30 7504 H 742.465 0.882127 0.347211 0
M  V30 7505 H 742.171 3.00934 1.82021 0
M  V30 7506 H 742.045 1.96132 3.22199 0
M  V30 7507 H 744.432 1.09408 2.74069 0
M  V30 7508 H 744.513 2.17676 1.34353 0
M  V30 7509 H 744.157 4.17175 2.89702 0
M  V30 7510 H 744.087 3.05893 4.28645 0
M  V30 7511 H 746.578 2.51112 2.82403 0
M  V30 7512 H 746.891 5.58563 5.34067 0
M  V30 7513 H 745.236 5.0185 4.80803 0
M  V30 7514 H 748.427 3.17295 3.44154 0
M  V30 7515 H 748.6 4.57479 4.5893 0
M  V30 7516 N 742.006 -1.2595 0.947325 0
M  V30 7517 C 743.254 -1.93081 0.596996 0
M  V30 7518 C 743.575 -1.74632 -0.867672 0
M  V30 7519 O 742.845 -1.1056 -1.6172 0
M  V30 7520 H 741.425 -0.714542 0.217805 0
M  V30 7521 H 744.087 -1.53265 1.20398 0
M  V30 7522 H 743.183 -3.01134 0.82004 0
M  V30 7523 N 743.484 -0.715051 -1.40445 0
M  V30 7524 C 744.895 -0.326763 -1.83818 0
M  V30 7525 C 745.246 1.13851 -1.59789 0
M  V30 7526 O 744.371 1.87611 -1.07848 0
M  V30 7527 C 744.966 -0.586297 -3.33688 0
M  V30 7528 C 743.525 -0.251724 -3.75557 0
M  V30 7529 C 742.672 -0.858928 -2.63662 0
M  V30 7530 H 745.623 -0.914241 -1.2972 0
M  V30 7531 H 745.644 0.148636 -3.8021 0
M  V30 7532 H 745.156 -1.65281 -3.51146 0
M  V30 7533 H 743.257 0.809754 -3.63695 0
M  V30 7534 H 743.37 -0.720348 -4.73654 0
M  V30 7535 H 741.734 -0.287013 -2.53078 0
M  V30 7536 H 742.517 -1.9297 -2.83932 0
M  V30 7537 N 744.962 1.50701 -0.461195 0
M  V30 7538 C 746.202 2.04174 0.0960673 0
M  V30 7539 C 746.566 1.33628 1.37868 0
M  V30 7540 O 747.767 1.77602 2.0177 0
M  V30 7541 C 746.038 3.56256 0.285676 0
M  V30 7542 S 747.597 4.31392 0.802917 0
M  V30 7543 H 744.415 0.710701 0.0206282 0
M  V30 7544 H 747.017 1.85204 -0.62607 0
M  V30 7545 H 745.721 4.05159 -0.653773 0
M  V30 7546 H 745.252 3.79562 1.03421 0
M  V30 7547 H 747.267 4.50611 2.07761 0
M  V30 7548 N 746.441 0.193421 1.56409 0
M  V30 7549 C 747.852 -0.319471 1.83946 0
M  V30 7550 C 748.203 -1.61505 1.11403 0
M  V30 7551 O 747.328 -2.13139 0.374289 0
M  V30 7552 C 747.923 -0.586411 3.33686 0
M  V30 7553 C 746.482 -1.04368 3.61641 0
M  V30 7554 C 745.629 -0.0913834 2.77149 0
M  V30 7555 H 748.58 0.417242 1.53117 0
M  V30 7556 H 748.601 -1.43591 3.52366 0
M  V30 7557 H 748.113 0.356701 3.86457 0
M  V30 7558 H 746.214 -2.00113 3.14302 0
M  V30 7559 H 746.327 -0.937549 4.69837 0
M  V30 7560 H 744.691 -0.592954 2.47702 0
M  V30 7561 H 745.474 0.846142 3.32709 0
M  V30 7562 N 747.919 -1.57396 -0.0801906 0
M  V30 7563 C 749.196 -1.77883 -0.813451 0
M  V30 7564 C 749.576 -0.778879 -1.96206 0
M  V30 7565 O 748.924 0.189683 -2.27711 0
M  V30 7566 C 749.134 -3.24116 -1.2942 0
M  V30 7567 C 750.482 -3.87714 -1.73098 0
M  V30 7568 O 751.506 -3.27956 -1.39007 0
M  V30 7569 O 750.365 -4.92828 -2.36184 0
M  V30 7570 H 747.459 -0.729727 -0.389138 0
M  V30 7571 H 750.005 -1.69591 -0.0609166 0
M  V30 7572 H 748.777 -3.88443 -0.471947 0
M  V30 7573 H 748.4 -3.371 -2.1083 0
M  V30 7574 N 749.397 0.351382 -1.53633 0
M  V30 7575 C 750.645 1.09034 -1.70165 0
M  V30 7576 C 750.966 1.89413 -0.463422 0
M  V30 7577 O 750.236 1.888 0.522624 0
M  V30 7578 H 748.816 0.405522 -0.627344 0
M  V30 7579 H 751.478 0.394554 -1.90865 0
M  V30 7580 H 750.574 1.77215 -2.56907 0
M  V30 7581 N 750.875 1.45233 0.611969 0
M  V30 7582 C 751.825 1.49997 1.71711 0
M  V30 7583 C 752.809 0.363689 1.56736 0
M  V30 7584 O 754.001 0.610261 1.66147 0
M  V30 7585 C 751.13 1.46537 3.10454 0
M  V30 7586 C 750.216 2.65351 3.30831 0
M  V30 7587 N 750.607 3.90485 3.21489 0
M  V30 7588 C 748.905 2.60955 3.61688 0
M  V30 7589 C 749.606 4.69758 3.43078 0
M  V30 7590 N 748.582 4.01141 3.66861 0
M  V30 7591 H 752.384 2.44574 1.62975 0
M  V30 7592 H 749.898 1.40464 0.815082 0
M  V30 7593 H 751.895 1.48035 3.89732 0
M  V30 7594 H 750.555 0.530139 3.20343 0
M  V30 7595 H 751.566 4.22171 2.99987 0
M  V30 7596 H 748.243 1.76319 3.78441 0
M  V30 7597 H 749.633 5.7877 3.41285 0
M  V30 7598 N 752.353 -0.854086 1.3245 0
M  V30 7599 C 753.6 -1.60831 1.23043 0
M  V30 7600 C 753.928 -1.93389 -0.2076 0
M  V30 7601 O 753.183 -1.5756 -1.16075 0
M  V30 7602 C 753.482 -2.93746 2.03587 0
M  V30 7603 C 753.148 -2.80615 3.52939 0
M  V30 7604 C 751.81 -2.76742 3.93659 0
M  V30 7605 C 754.162 -2.66507 4.4791 0
M  V30 7606 C 751.49 -2.56638 5.27592 0
M  V30 7607 C 753.842 -2.47939 5.81987 0
M  V30 7608 C 752.506 -2.42458 6.21909 0
M  V30 7609 H 751.776 -0.588523 0.450247 0
M  V30 7610 H 754.423 -0.990699 1.63882 0
M  V30 7611 H 752.728 -3.5963 1.55478 0
M  V30 7612 H 754.425 -3.51127 1.93677 0
M  V30 7613 H 751.015 -2.84456 3.20598 0
M  V30 7614 H 755.199 -2.68544 4.1737 0
M  V30 7615 H 750.455 -2.50831 5.57579 0
M  V30 7616 H 754.629 -2.36002 6.55192 0
M  V30 7617 H 752.256 -2.2664 7.2563 0
M  V30 7618 N 753.831 -1.1567 -1.07043 0
M  V30 7619 C 755.061 -0.956083 -1.83146 0
M  V30 7620 C 755.469 0.498969 -1.82502 0
M  V30 7621 O 754.812 1.35791 -1.23719 0
M  V30 7622 C 754.874 -1.39704 -3.31245 0
M  V30 7623 C 754.538 -2.87045 -3.55604 0
M  V30 7624 C 755.535 -3.85092 -3.49285 0
M  V30 7625 C 753.22 -3.24787 -3.8317 0
M  V30 7626 C 755.214 -5.18885 -3.70185 0
M  V30 7627 C 752.901 -4.58751 -4.03721 0
M  V30 7628 C 753.899 -5.55609 -3.97224 0
M  V30 7629 O 753.587 -6.87154 -4.17223 0
M  V30 7630 H 753.319 -0.339473 -0.58458 0
M  V30 7631 H 755.873 -1.53922 -1.36005 0
M  V30 7632 H 754.103 -0.757326 -3.79212 0
M  V30 7633 H 755.792 -1.16503 -3.88821 0
M  V30 7634 H 756.558 -3.5728 -3.27988 0
M  V30 7635 H 752.437 -2.49979 -3.87339 0
M  V30 7636 H 755.981 -5.94473 -3.6503 0
M  V30 7637 H 751.878 -4.86277 -4.24505 0
M  V30 7638 H 752.646 -6.93618 -4.34553 0
M  V30 7639 N 755.309 1.25446 -0.953992 0
M  V30 7640 C 756.239 2.28264 -0.491717 0
M  V30 7641 C 757.22 1.63717 0.461617 0
M  V30 7642 O 758.405 1.90821 0.36071 0
M  V30 7643 C 755.535 3.46525 0.231915 0
M  V30 7644 C 754.489 4.23247 -0.636098 0
M  V30 7645 C 753.815 5.34254 0.218238 0
M  V30 7646 C 755.115 4.85971 -1.91389 0
M  V30 7647 H 756.809 2.67183 -1.35106 0
M  V30 7648 H 754.355 1.2844 -0.651095 0
M  V30 7649 H 756.308 4.17576 0.566439 0
M  V30 7650 H 755.032 3.06594 1.12551 0
M  V30 7651 H 753.691 3.53978 -0.953696 0
M  V30 7652 H 753.339 4.90564 1.11156 0
M  V30 7653 H 753.039 5.86501 -0.359232 0
M  V30 7654 H 754.563 6.08138 0.547743 0
M  V30 7655 H 755.977 5.49168 -1.64581 0
M  V30 7656 H 754.374 5.48391 -2.43696 0
M  V30 7657 H 755.444 4.08192 -2.61738 0
M  V30 7658 N 756.787 0.722489 1.40064 0
M  V30 7659 C 757.697 0.0755984 2.34478 0
M  V30 7660 C 758.713 -0.736046 1.57665 0
M  V30 7661 O 759.889 -0.667407 1.9002 0
M  V30 7662 C 756.954 -0.830075 3.36616 0
M  V30 7663 C 756.015 -0.00759884 4.29299 0
M  V30 7664 C 755.248 -0.870139 5.26559 0
M  V30 7665 O 755.471 -2.10921 5.2997 0
M  V30 7666 O 754.405 -0.305454 6.01124 0
M  V30 7667 H 758.231 0.854545 2.9143 0
M  V30 7668 H 755.816 0.483032 1.41376 0
M  V30 7669 H 757.698 -1.34864 3.99236 0
M  V30 7670 H 756.373 -1.58805 2.82069 0
M  V30 7671 H 755.28 0.556199 3.69942 0
M  V30 7672 H 756.613 0.712312 4.87018 0
M  V30 7673 N 758.265 -1.50454 0.469181 0
M  V30 7674 C 759.215 -2.25381 -0.344582 0
M  V30 7675 C 760.199 -1.28892 -0.963098 0
M  V30 7676 O 761.391 -1.53805 -0.875964 0
M  V30 7677 C 758.52 -3.12232 -1.4271 0
M  V30 7678 C 757.606 -4.16168 -0.816411 0
M  V30 7679 N 757.997 -5.05762 0.0621424 0
M  V30 7680 C 756.295 -4.32712 -1.08056 0
M  V30 7681 C 756.996 -5.80264 0.408519 0
M  V30 7682 N 755.972 -5.43171 -0.215827 0
M  V30 7683 H 759.774 -2.92016 0.332237 0
M  V30 7684 H 757.288 -1.59911 0.283209 0
M  V30 7685 H 759.285 -3.64514 -2.02324 0
M  V30 7686 H 757.945 -2.47145 -2.10593 0
M  V30 7687 H 758.956 -5.16105 0.430841 0
M  V30 7688 H 755.633 -3.78844 -1.75452 0
M  V30 7689 H 757.023 -6.62408 1.12539 0
M  V30 7690 N 759.743 -0.201713 -1.56304 0
M  V30 7691 C 760.968 0.443815 -2.02596 0
M  V30 7692 C 761.393 1.53945 -1.08086 0
M  V30 7693 O 760.751 1.81182 -0.0655056 0
M  V30 7694 C 760.799 0.971066 -3.47279 0
M  V30 7695 O 759.903 2.0836 -3.55893 0
M  V30 7696 H 759.244 0.10294 -0.655972 0
M  V30 7697 H 761.774 -0.314533 -2.02168 0
M  V30 7698 H 761.784 1.28598 -3.87204 0
M  V30 7699 H 760.459 0.169048 -4.15556 0
M  V30 7700 H 759.036 1.77683 -3.27846 0
M  V30 7701 N 761.222 1.57436 0.0718424 0
M  V30 7702 C 762.185 2.02703 1.06977 0
M  V30 7703 C 763.185 0.924062 1.31597 0
M  V30 7704 O 764.375 1.18894 1.27318 0
M  V30 7705 C 761.507 2.40763 2.41342 0
M  V30 7706 H 762.7 2.92098 0.679619 0
M  V30 7707 H 760.253 1.5304 0.317565 0
M  V30 7708 H 760.988 1.54394 2.8519 0
M  V30 7709 H 760.773 3.21249 2.24814 0
M  V30 7710 H 762.263 2.76361 3.13073 0
M  V30 7711 N 762.7 -0.34323 1.53817 0
M  V30 7712 C 763.663 -1.40444 1.8113 0
M  V30 7713 C 764.663 -1.45604 0.682366 0
M  V30 7714 O 765.853 -1.45974 0.950649 0
M  V30 7715 C 762.985 -2.79369 1.95361 0
M  V30 7716 H 764.178 -1.17489 2.75928 0
M  V30 7717 H 761.731 -0.577636 1.45234 0
M  V30 7718 H 762.466 -3.07607 1.02707 0
M  V30 7719 H 762.251 -2.7702 2.77493 0
M  V30 7720 H 763.741 -3.56178 2.18008 0
M  V30 7721 N 764.178 -1.45556 -0.604258 0
M  V30 7722 C 765.418 -1.51289 -1.37445 0
M  V30 7723 C 765.782 -0.152112 -1.91397 0
M  V30 7724 O 766.983 -0.0841419 -2.68668 0
M  V30 7725 C 765.254 -2.5646 -2.48924 0
M  V30 7726 S 766.813 -2.81442 -3.36654 0
M  V30 7727 H 763.631 -0.534774 -0.468549 0
M  V30 7728 H 766.233 -1.82657 -0.696902 0
M  V30 7729 H 764.937 -3.53995 -2.07644 0
M  V30 7730 H 764.468 -2.26753 -3.21476 0
M  V30 7731 H 766.483 -2.15074 -4.47166 0
M  V30 7732 N 765.656 0.84705 -1.32902 0
M  V30 7733 C 766.586 1.97166 -1.25091 0
M  V30 7734 C 767.567 1.69578 -0.133161 0
M  V30 7735 O 768.752 1.91519 -0.321591 0
M  V30 7736 C 765.882 3.33157 -0.981006 0
M  V30 7737 C 764.836 3.75119 -2.06082 0
M  V30 7738 C 764.162 5.08826 -1.64318 0
M  V30 7739 C 765.462 3.89774 -3.47669 0
M  V30 7740 H 767.156 2.03958 -2.19184 0
M  V30 7741 H 764.702 0.979907 -1.05517 0
M  V30 7742 H 766.655 4.11393 -0.912891 0
M  V30 7743 H 765.379 3.266 -0.00445559 0
M  V30 7744 H 764.038 2.9914 -2.11921 0
M  V30 7745 H 763.686 4.98732 -0.653876 0
M  V30 7746 H 763.386 5.37873 -2.36572 0
M  V30 7747 H 764.91 5.89546 -1.58958 0
M  V30 7748 H 766.324 4.58343 -3.44376 0
M  V30 7749 H 764.721 4.30248 -4.18338 0
M  V30 7750 H 765.791 2.92463 -3.86773 0
M  V30 7751 N 767.134 1.16236 1.06428 0
M  V30 7752 C 768.545 0.950942 1.60667 0
M  V30 7753 C 768.896 -0.505491 1.89576 0
M  V30 7754 O 768.021 -1.37843 1.66818 0
M  V30 7755 C 768.616 1.71982 2.91904 0
M  V30 7756 C 767.175 1.55342 3.4285 0
M  V30 7757 C 766.322 1.72942 2.16763 0
M  V30 7758 H 769.273 1.31126 0.893959 0
M  V30 7759 H 769.294 1.19483 3.61253 0
M  V30 7760 H 768.806 2.77978 2.70831 0
M  V30 7761 H 766.907 0.5178 3.68985 0
M  V30 7762 H 767.02 2.33643 4.18267 0
M  V30 7763 H 765.384 1.15673 2.26918 0
M  V30 7764 H 766.167 2.80324 1.98175 0
M  V30 7765 N 768.612 -1.24939 0.960631 0
M  V30 7766 C 769.852 -1.94565 0.626414 0
M  V30 7767 C 770.216 -1.73505 -0.822184 0
M  V30 7768 O 771.417 -2.37105 -1.26628 0
M  V30 7769 C 769.688 -3.43631 0.982462 0
M  V30 7770 S 771.247 -4.32138 0.761726 0
M  V30 7771 H 768.065 -0.672757 0.230043 0
M  V30 7772 H 770.667 -1.51464 1.23608 0
M  V30 7773 H 769.371 -3.56463 2.03377 0
M  V30 7774 H 768.902 -3.91719 0.363286 0
M  V30 7775 H 770.917 -4.94859 -0.364493 0
M  V30 7776 N 770.09 -0.729906 -1.39679 0
M  V30 7777 C 771.337 -0.275622 -2.00615 0
M  V30 7778 C 771.665 1.13559 -1.57907 0
M  V30 7779 O 770.92 1.78745 -0.796789 0
M  V30 7780 C 771.219 -0.319564 -3.55968 0
M  V30 7781 C 770.885 -1.68308 -4.1831 0
M  V30 7782 C 769.547 -2.05629 -4.35052 0
M  V30 7783 C 771.899 -2.57857 -4.52945 0
M  V30 7784 C 769.227 -3.32018 -4.83716 0
M  V30 7785 C 771.579 -3.83613 -5.03015 0
M  V30 7786 C 770.243 -4.21033 -5.17965 0
M  V30 7787 H 769.513 -0.100857 -0.734104 0
M  V30 7788 H 772.16 -0.93575 -1.67081 0
M  V30 7789 H 770.465 0.42414 -3.89497 0
M  V30 7790 H 772.162 0.0499905 -4.00969 0
M  V30 7791 H 768.752 -1.3829 -4.05677 0
M  V30 7792 H 772.936 -2.30295 -4.39634 0
M  V30 7793 H 768.192 -3.6096 -4.93475 0
M  V30 7794 H 772.366 -4.53162 -5.28788 0
M  V30 7795 H 769.993 -5.19034 -5.55435 0
M  V30 7796 N 771.568 1.50203 -0.477153 0
M  V30 7797 C 772.808 2.04265 0.0744065 0
M  V30 7798 C 773.172 1.35082 1.36443 0
M  V30 7799 O 774.373 1.79732 1.99875 0
M  V30 7800 C 772.644 3.56539 0.247874 0
M  V30 7801 S 774.203 4.32219 0.757117 0
M  V30 7802 H 771.021 0.71088 0.0130891 0
M  V30 7803 H 773.623 1.8453 -0.645678 0
M  V30 7804 H 772.327 4.04443 -0.696709 0
M  V30 7805 H 771.858 3.80638 0.993896 0
M  V30 7806 H 773.873 4.52789 2.0297 0
M  V30 7807 N 773.046 0.209999 1.56195 0
M  V30 7808 C 774.293 -0.424813 1.97994 0
M  V30 7809 C 774.621 -1.60589 1.09733 0
M  V30 7810 O 773.876 -1.95201 0.139693 0
M  V30 7811 C 774.175 -0.91312 3.45539 0
M  V30 7812 C 773.841 0.156187 4.50629 0
M  V30 7813 C 772.503 0.449966 4.79092 0
M  V30 7814 C 774.855 0.879959 5.13718 0
M  V30 7815 C 772.183 1.47223 5.67928 0
M  V30 7816 C 774.535 1.89148 6.0366 0
M  V30 7817 C 773.199 2.1923 6.30472 0
M  V30 7818 H 772.469 -0.15545 0.724511 0
M  V30 7819 H 775.116 0.310095 1.88973 0
M  V30 7820 H 773.421 -1.72658 3.51705 0
M  V30 7821 H 775.118 -1.41395 3.75245 0
M  V30 7822 H 771.708 -0.0829466 4.2852 0
M  V30 7823 H 775.892 0.66623 4.91808 0
M  V30 7824 H 771.148 1.71105 5.86969 0
M  V30 7825 H 775.322 2.45745 6.516 0
M  V30 7826 H 772.949 2.98587 6.99107 0
M  V30 7827 N 774.524 -1.57472 -0.0634922 0
M  V30 7828 C 775.772 -1.87283 -0.759563 0
M  V30 7829 C 776.093 -0.803135 -1.77693 0
M  V30 7830 O 775.363 0.167293 -1.95184 0
M  V30 7831 H 773.943 -0.691106 -0.283516 0
M  V30 7832 H 776.605 -1.94864 -0.0376091 0
M  V30 7833 H 775.701 -2.85064 -1.27062 0
M  V30 7834 N 776.003 0.335068 -1.53997 0
M  V30 7835 C 777.252 1.07182 -1.70865 0
M  V30 7836 C 777.565 1.89541 -0.483078 0
M  V30 7837 O 778.771 2.66219 -0.532879 0
M  V30 7838 C 777.227 1.95497 -3.02174 0
M  V30 7839 C 776.835 1.18304 -4.32097 0
M  V30 7840 C 778.579 2.68978 -3.28407 0
M  V30 7841 C 776.486 2.05699 -5.54474 0
M  V30 7842 H 775.416 0.403857 -0.636722 0
M  V30 7843 H 778.067 0.33076 -1.80494 0
M  V30 7844 H 776.449 2.73456 -2.86423 0
M  V30 7845 H 777.623 0.451969 -4.58578 0
M  V30 7846 H 775.938 0.565556 -4.12541 0
M  V30 7847 H 778.535 3.34651 -4.17029 0
M  V30 7848 H 778.878 3.36 -2.45784 0
M  V30 7849 H 779.411 1.98087 -3.44973 0
M  V30 7850 H 776.15 1.43204 -6.39666 0
M  V30 7851 H 775.67 2.76572 -5.32229 0
M  V30 7852 H 777.349 2.64554 -5.90441 0
M  V30 7853 N 777.481 1.45874 0.596531 0
M  V30 7854 C 778.709 1.54013 1.38158 0
M  V30 7855 C 779.124 0.17648 1.87973 0
M  V30 7856 O 778.481 -0.823895 1.62844 0
M  V30 7857 C 778.532 2.53363 2.57855 0
M  V30 7858 O 778.253 3.8443 2.10108 0
M  V30 7859 C 779.754 2.71308 3.50581 0
M  V30 7860 H 776.974 0.521251 0.422538 0
M  V30 7861 H 779.518 1.9116 0.726493 0
M  V30 7862 H 777.673 2.19257 3.19382 0
M  V30 7863 H 778.087 4.38384 2.87958 0
M  V30 7864 H 779.561 3.44776 4.31084 0
M  V30 7865 H 780.038 1.77728 4.01633 0
M  V30 7866 H 780.644 3.06455 2.94899 0
M  V30 7867 N 778.959 -0.83999 1.33349 0
M  V30 7868 C 780.184 -1.63249 1.27924 0
M  V30 7869 C 780.609 -1.87523 -0.147193 0
M  V30 7870 O 779.967 -1.43853 -1.10345 0
M  V30 7871 C 780.015 -2.96046 2.05886 0
M  V30 7872 O 779.119 -3.87303 1.4167 0
M  V30 7873 H 778.46 -0.49715 0.440157 0
M  V30 7874 H 780.99 -1.04512 1.75893 0
M  V30 7875 H 781 -3.45752 2.16609 0
M  V30 7876 H 779.675 -2.77701 3.09605 0
M  V30 7877 H 778.252 -3.45789 1.39585 0
M  V30 7878 N 780.437 -1.16799 -1.0581 0
M  V30 7879 C 781.683 -0.953935 -1.78963 0
M  V30 7880 C 782.016 0.516638 -1.87202 0
M  V30 7881 O 781.291 1.38338 -1.36721 0
M  V30 7882 C 781.574 -1.58808 -3.23191 0
M  V30 7883 C 781.427 -3.13032 -3.23003 0
M  V30 7884 C 782.746 -1.2868 -4.20867 0
M  V30 7885 H 779.865 -0.347972 -0.64968 0
M  V30 7886 H 782.507 -1.44204 -1.23715 0
M  V30 7887 H 780.657 -1.17303 -3.70368 0
M  V30 7888 H 782.329 -3.63553 -2.83949 0
M  V30 7889 H 780.572 -3.46108 -2.61518 0
M  V30 7890 H 781.243 -3.52527 -4.24769 0
M  V30 7891 H 783.719 -1.6461 -3.82155 0
M  V30 7892 H 782.595 -1.75645 -5.20038 0
M  V30 7893 H 782.856 -0.206491 -4.41618 0
M  V30 7894 N 781.915 1.24427 -0.967243 0
M  V30 7895 C 783.155 1.9423 -0.636723 0
M  V30 7896 C 783.519 1.73939 0.812971 0
M  V30 7897 O 784.72 2.37773 1.25369 0
M  V30 7898 C 782.991 3.43105 -1.00067 0
M  V30 7899 S 784.55 4.31728 -0.784633 0
M  V30 7900 H 781.368 0.671527 -0.233607 0
M  V30 7901 H 783.97 1.50806 -1.2441 0
M  V30 7902 H 782.674 3.5538 -2.05264 0
M  V30 7903 H 782.205 3.91521 -0.384054 0
M  V30 7904 H 784.22 4.95046 0.338244 0
M  V30 7905 N 783.393 0.737304 1.3929 0
M  V30 7906 C 784.325 0.0592106 2.29124 0
M  V30 7907 C 785.338 -0.701026 1.46934 0
M  V30 7908 O 786.527 -0.544808 1.69983 0
M  V30 7909 C 783.627 -0.940358 3.25592 0
M  V30 7910 C 782.8 -0.241163 4.36735 0
M  V30 7911 C 781.859 -1.14916 5.13498 0
M  V30 7912 O 780.885 -0.625783 5.6575 0
M  V30 7913 N 782.087 -2.47869 5.2492 0
M  V30 7914 H 784.852 0.830647 2.87959 0
M  V30 7915 H 782.413 0.586718 1.50895 0
M  V30 7916 H 784.405 -1.55046 3.73822 0
M  V30 7917 H 782.975 -1.61299 2.67771 0
M  V30 7918 H 782.195 0.549441 3.90352 0
M  V30 7919 H 783.483 0.243299 5.08218 0
M  V30 7920 H 782.881 -2.92864 4.83991 0
M  V30 7921 H 781.438 -3.03969 5.76581 0
M  V30 7922 N 784.871 -1.49948 0.485112 0
M  V30 7923 C 786.096 -2.073 -0.0645059 0
M  V30 7924 C 786.521 -1.345 -1.31497 0
M  V30 7925 O 785.879 -0.39687 -1.76903 0
M  V30 7926 C 785.927 -3.59201 -0.317304 0
M  V30 7927 O 785.031 -3.88085 -1.39514 0
M  V30 7928 H 784.372 -0.663723 0.0191822 0
M  V30 7929 H 786.902 -1.92963 0.680179 0
M  V30 7930 H 786.912 -4.04227 -0.553604 0
M  V30 7931 H 785.587 -4.11602 0.596387 0
M  V30 7932 H 784.164 -3.54885 -1.14504 0
M  V30 7933 N 786.349 -0.21828 -1.56081 0
M  V30 7934 C 787.577 0.419258 -2.02608 0
M  V30 7935 C 787.992 1.53578 -1.09814 0
M  V30 7936 O 787.349 1.82185 -0.107149 0
M  V30 7937 C 787.4 0.953955 -3.48686 0
M  V30 7938 O 787.121 -0.11805 -4.37941 0
M  V30 7939 C 788.622 1.66506 -4.10841 0
M  V30 7940 H 785.842 0.10296 -0.663054 0
M  V30 7941 H 788.386 -0.333776 -2.01758 0
M  V30 7942 H 786.541 1.65727 -3.50162 0
M  V30 7943 H 786.955 0.283359 -5.23734 0
M  V30 7944 H 788.429 1.99123 -5.14834 0
M  V30 7945 H 788.906 2.57705 -3.55647 0
M  V30 7946 H 789.512 1.00703 -4.13206 0
M  V30 7947 N 787.827 1.57504 0.0551401 0
M  V30 7948 C 789.243 1.54236 0.410292 0
M  V30 7949 C 789.443 0.940839 1.78187 0
M  V30 7950 O 788.499 0.550541 2.46425 0
M  V30 7951 C 789.812 2.98816 0.336064 0
M  V30 7952 C 791.36 3.10236 0.415047 0
M  V30 7953 C 791.835 4.56499 0.37055 0
M  V30 7954 N 793.326 4.61199 0.43013 0
M  V30 7955 C 794.061 5.71873 0.418179 0
M  V30 7956 N 793.557 6.91864 0.360056 0
M  V30 7957 N 795.35 5.60165 0.465977 0
M  V30 7958 H 787.501 1.94965 -0.842759 0
M  V30 7959 H 789.764 0.893096 -0.317937 0
M  V30 7960 H 789.47 3.4645 -0.605429 0
M  V30 7961 H 789.344 3.59564 1.13988 0
M  V30 7962 H 791.731 2.62566 1.34697 0
M  V30 7963 H 791.812 2.52367 -0.417648 0
M  V30 7964 H 791.456 5.0483 -0.557592 0
M  V30 7965 H 791.386 5.12249 1.221 0
M  V30 7966 H 793.877 3.74857 0.478623 0
M  V30 7967 H 794.19 7.71983 0.35532 0
M  V30 7968 H 792.535 6.94233 0.326492 0
M  V30 7969 H 795.726 4.65322 0.509194 0
M  V30 7970 H 795.899 6.46413 0.453194 0
M  V30 7971 N 789.305 -0.326896 1.54172 0
M  V30 7972 C 790.721 -0.671034 1.44808 0
M  V30 7973 C 790.921 -1.91781 0.618258 0
M  V30 7974 O 789.977 -2.52235 0.115751 0
M  V30 7975 C 791.29 -0.848147 2.88491 0
M  V30 7976 C 792.838 -0.945702 2.98371 0
M  V30 7977 C 793.313 -1.15501 4.43197 0
M  V30 7978 N 794.804 -1.22183 4.46795 0
M  V30 7979 C 795.539 -1.4016 5.56006 0
M  V30 7980 N 795.035 -1.55202 6.75192 0
M  V30 7981 N 796.828 -1.42841 5.43648 0
M  V30 7982 H 788.979 0.49262 2.06608 0
M  V30 7983 H 791.242 0.158574 0.934643 0
M  V30 7984 H 790.948 -0.00329969 3.517 0
M  V30 7985 H 790.822 -1.74497 3.34411 0
M  V30 7986 H 793.209 -1.78106 2.35292 0
M  V30 7987 H 793.29 -0.0254215 2.55787 0
M  V30 7988 H 792.934 -0.324521 5.06862 0
M  V30 7989 H 792.864 -2.08911 4.83388 0
M  V30 7990 H 795.355 -1.12016 3.60917 0
M  V30 7991 H 795.668 -1.68601 7.54184 0
M  V30 7992 H 794.013 -1.52306 6.78106 0
M  V30 7993 H 797.204 -1.30683 4.49488 0
M  V30 7994 H 797.377 -1.56509 6.28816 0
M  V30 7995 N 790.784 -1.46188 -0.588786 0
M  V30 7996 C 792.031 -1.51184 -1.34721 0
M  V30 7997 C 792.359 -0.161084 -1.93832 0
M  V30 7998 O 791.614 0.842557 -1.76634 0
M  V30 7999 C 791.913 -2.55364 -2.50048 0
M  V30 8000 C 791.579 -3.99553 -2.08969 0
M  V30 8001 C 790.241 -4.38811 -1.9748 0
M  V30 8002 C 792.593 -4.90156 -1.77191 0
M  V30 8003 C 789.921 -5.66544 -1.52463 0
M  V30 8004 C 792.273 -6.1832 -1.33654 0
M  V30 8005 C 790.937 -6.5649 -1.20738 0
M  V30 8006 H 790.207 -0.55322 -0.49298 0
M  V30 8007 H 792.854 -1.79634 -0.663627 0
M  V30 8008 H 791.159 -2.20552 -3.23827 0
M  V30 8009 H 792.856 -2.5646 -3.08268 0
M  V30 8010 H 789.446 -3.68518 -2.18843 0
M  V30 8011 H 793.63 -4.60549 -1.84955 0
M  V30 8012 H 788.886 -5.94895 -1.411 0
M  V30 8013 H 793.06 -6.87956 -1.08117 0
M  V30 8014 H 790.687 -7.55362 -0.856307 0
M  V30 8015 N 792.262 0.832906 -1.33792 0
M  V30 8016 C 793.678 1.1245 -1.13257 0
M  V30 8017 C 793.878 2.01369 0.0725832 0
M  V30 8018 O 792.934 2.41071 0.751082 0
M  V30 8019 C 794.247 1.78084 -2.42294 0
M  V30 8020 C 795.795 1.90624 -2.48257 0
M  V30 8021 C 796.27 2.59673 -3.77271 0
M  V30 8022 N 797.761 2.67181 -3.78376 0
M  V30 8023 C 798.496 3.21313 -4.74916 0
M  V30 8024 N 797.992 3.76086 -5.81835 0
M  V30 8025 N 799.785 3.19621 -4.62384 0
M  V30 8026 H 791.936 0.241244 -2.11026 0
M  V30 8027 H 794.199 0.169557 -0.932713 0
M  V30 8028 H 793.905 1.20209 -3.30519 0
M  V30 8029 H 793.779 2.78049 -2.5489 0
M  V30 8030 H 796.166 2.4765 -1.60478 0
M  V30 8031 H 796.247 0.89591 -2.39598 0
M  V30 8032 H 795.891 2.03304 -4.65435 0
M  V30 8033 H 795.821 3.61189 -3.8321 0
M  V30 8034 H 798.312 2.28346 -3.01108 0
M  V30 8035 H 798.625 4.15612 -6.51526 0
M  V30 8036 H 796.97 3.74357 -5.85561 0
M  V30 8037 H 800.161 2.76091 -3.7801 0
M  V30 8038 H 800.334 3.61504 -5.37791 0
M  V30 8039 N 793.74 1.17359 1.05189 0
M  V30 8040 C 795.017 0.871914 1.75091 0
M  V30 8041 C 795.397 -0.627821 2.01548 0
M  V30 8042 O 794.745 -1.5791 1.65156 0
M  V30 8043 C 794.955 1.70687 3.04413 0
M  V30 8044 C 796.303 1.92684 3.78362 0
M  V30 8045 O 797.327 1.67645 3.14282 0
M  V30 8046 O 796.186 2.34765 4.93505 0
M  V30 8047 H 793.28 0.322831 0.761386 0
M  V30 8048 H 795.826 1.28054 1.11357 0
M  V30 8049 H 794.598 2.72405 2.80911 0
M  V30 8050 H 794.221 1.29602 3.75884 0
M  V30 8051 N 795.218 -1.23913 0.973828 0
M  V30 8052 C 796.15 -2.24397 0.466763 0
M  V30 8053 C 797.163 -1.57078 -0.427828 0
M  V30 8054 O 798.352 -1.76973 -0.233019 0
M  V30 8055 C 795.452 -3.37141 -0.344798 0
M  V30 8056 C 794.625 -4.34037 0.541349 0
M  V30 8057 C 793.684 -5.2576 -0.215243 0
M  V30 8058 O 792.71 -5.67842 0.39291 0
M  V30 8059 N 793.912 -5.60702 -1.5031 0
M  V30 8060 H 796.677 -2.68536 1.33074 0
M  V30 8061 H 794.238 -1.38017 0.846346 0
M  V30 8062 H 796.23 -3.95476 -0.859133 0
M  V30 8063 H 794.8 -2.92239 -1.10974 0
M  V30 8064 H 794.02 -3.74302 1.23659 0
M  V30 8065 H 795.308 -4.95738 1.1455 0
M  V30 8066 H 794.706 -5.28451 -2.01882 0
M  V30 8067 H 793.263 -6.21538 -1.96301 0
M  V30 8068 N 796.696 -0.74468 -1.38897 0
M  V30 8069 C 797.945 -0.293716 -1.9955 0
M  V30 8070 C 798.258 1.12831 -1.59777 0
M  V30 8071 O 799.464 1.67929 -2.13336 0
M  V30 8072 C 797.92 -0.474188 -3.56762 0
M  V30 8073 C 797.528 -1.90472 -4.05493 0
M  V30 8074 C 799.272 -0.0854875 -4.24414 0
M  V30 8075 C 797.179 -2.03423 -5.55314 0
M  V30 8076 H 796.109 -0.106066 -0.746502 0
M  V30 8077 H 798.76 -0.919948 -1.58774 0
M  V30 8078 H 797.142 0.221092 -3.95382 0
M  V30 8079 H 798.316 -2.63274 -3.78184 0
M  V30 8080 H 796.631 -2.24752 -3.50536 0
M  V30 8081 H 799.228 -0.161133 -5.34457 0
M  V30 8082 H 799.571 0.96066 -4.05064 0
M  V30 8083 H 800.104 -0.732286 -3.91002 0
M  V30 8084 H 796.843 -3.0626 -5.79556 0
M  V30 8085 H 796.363 -1.3507 -5.84394 0
M  V30 8086 H 798.042 -1.81996 -6.20876 0
M  V30 8087 N 798.174 1.49689 -0.493057 0
M  V30 8088 C 799.59 1.58907 -0.148526 0
M  V30 8089 C 799.79 1.4991 1.34645 0
M  V30 8090 O 798.846 1.36893 2.12171 0
M  V30 8091 C 800.159 2.91996 -0.718265 0
M  V30 8092 C 801.707 3.05443 -0.683658 0
M  V30 8093 C 802.182 4.41138 -1.23132 0
M  V30 8094 N 803.673 4.47608 -1.19167 0
M  V30 8095 C 804.408 5.51038 -1.5857 0
M  V30 8096 N 803.904 6.61612 -2.05528 0
M  V30 8097 N 805.697 5.41706 -1.50036 0
M  V30 8098 H 797.848 1.5378 -1.46511 0
M  V30 8099 H 800.111 0.727996 -0.607228 0
M  V30 8100 H 799.817 3.04123 -1.7664 0
M  V30 8101 H 799.691 3.76798 -0.17419 0
M  V30 8102 H 802.078 2.92949 0.355626 0
M  V30 8103 H 802.159 2.22344 -1.26479 0
M  V30 8104 H 801.803 4.54382 -2.26935 0
M  V30 8105 H 801.733 5.22864 -0.626201 0
M  V30 8106 H 804.224 3.68274 -0.847524 0
M  V30 8107 H 804.537 7.36622 -2.33685 0
M  V30 8108 H 802.882 6.62674 -2.09497 0
M  V30 8109 H 806.073 4.54212 -1.13176 0
M  V30 8110 H 806.246 6.22188 -1.81068 0
M  V30 8111 N 799.652 0.226554 1.55963 0
M  V30 8112 C 800.582 -0.676079 2.23498 0
M  V30 8113 C 801.563 -1.19718 1.20837 0
M  V30 8114 O 802.748 -1.24027 1.49436 0
M  V30 8115 C 799.878 -1.88217 2.91876 0
M  V30 8116 C 798.832 -1.4947 4.01052 0
M  V30 8117 C 798.158 -2.77997 4.56751 0
M  V30 8118 C 799.458 -0.680951 5.17842 0
M  V30 8119 H 801.152 -0.112989 2.99187 0
M  V30 8120 H 798.698 -0.0529046 1.43903 0
M  V30 8121 H 800.651 -2.51911 3.37815 0
M  V30 8122 H 799.375 -2.47031 2.13643 0
M  V30 8123 H 798.034 -0.881199 3.55852 0
M  V30 8124 H 797.682 -3.34966 3.75243 0
M  V30 8125 H 797.382 -2.52803 5.30438 0
M  V30 8126 H 798.906 -3.42625 5.05411 0
M  V30 8127 H 800.32 -1.22171 5.60131 0
M  V30 8128 H 798.717 -0.525898 5.97791 0
M  V30 8129 H 799.787 0.311346 4.83899 0
M  V30 8130 N 801.13 -1.57531 -0.0467866 0
M  V30 8131 C 802.546 -1.54451 -0.402107 0
M  V30 8132 C 802.746 -0.950275 -1.77685 0
M  V30 8133 O 801.802 -0.563602 -2.4613 0
M  V30 8134 C 803.115 -2.9899 -0.320212 0
M  V30 8135 C 804.663 -3.10452 -0.398588 0
M  V30 8136 C 805.138 -4.56689 -0.346335 0
M  V30 8137 N 806.629 -4.6142 -0.405666 0
M  V30 8138 C 807.364 -5.72087 -0.387845 0
M  V30 8139 N 806.86 -6.92045 -0.32336 0
M  V30 8140 N 808.653 -5.60404 -0.436263 0
M  V30 8141 H 800.804 -1.94515 0.853087 0
M  V30 8142 H 803.067 -0.891397 0.322669 0
M  V30 8143 H 802.773 -3.46124 0.623794 0
M  V30 8144 H 802.647 -3.60164 -1.1208 0
M  V30 8145 H 805.034 -2.63276 -1.33302 0
M  V30 8146 H 805.115 -2.52142 0.431026 0
M  V30 8147 H 804.759 -5.04527 0.584356 0
M  V30 8148 H 804.689 -5.12889 -1.19382 0
M  V30 8149 H 807.18 -3.75105 -0.458737 0
M  V30 8150 H 807.493 -7.7216 -0.314375 0
M  V30 8151 H 805.838 -6.94396 -0.28967 0
M  V30 8152 H 809.029 -4.65586 -0.48451 0
M  V30 8153 H 809.202 -6.46645 -0.418907 0
M  V30 8154 N 802.608 0.318715 -1.54344 0
M  V30 8155 C 803.855 1.05608 -1.72781 0
M  V30 8156 C 804.183 1.87854 -0.504083 0
M  V30 8157 O 803.438 1.88826 0.51414 0
M  V30 8158 C 803.737 2.00514 -2.95853 0
M  V30 8159 C 803.403 1.34385 -4.30409 0
M  V30 8160 C 802.065 1.16081 -4.66989 0
M  V30 8161 C 804.417 0.869627 -5.13894 0
M  V30 8162 C 801.745 0.490114 -5.84649 0
M  V30 8163 C 804.097 0.212735 -6.32242 0
M  V30 8164 C 802.761 0.0175882 -6.67498 0
M  V30 8165 H 802.031 0.386449 -0.632249 0
M  V30 8166 H 804.678 0.332729 -1.88587 0
M  V30 8167 H 802.983 2.79317 -2.74753 0
M  V30 8168 H 804.68 2.57605 -3.07312 0
M  V30 8169 H 801.27 1.49634 -4.01631 0
M  V30 8170 H 805.454 0.998809 -4.86146 0
M  V30 8171 H 800.71 0.327767 -6.10521 0
M  V30 8172 H 804.884 -0.162699 -6.9621 0
M  V30 8173 H 802.511 -0.504137 -7.58527 0
M  V30 8174 N 804.086 1.46499 0.581025 0
M  V30 8175 C 805.363 1.42372 1.34125 0
M  V30 8176 C 805.743 0.108073 2.10823 0
M  V30 8177 O 805.091 -0.910366 2.09582 0
M  V30 8178 C 805.301 2.65445 2.26583 0
M  V30 8179 C 806.649 3.11664 2.88359 0
M  V30 8180 O 807.673 2.66006 2.36896 0
M  V30 8181 O 806.532 3.90974 3.81839 0
M  V30 8182 H 803.626 0.566262 0.602724 0
M  V30 8183 H 806.172 1.58667 0.601903 0
M  V30 8184 H 804.944 3.52756 1.69348 0
M  V30 8185 H 804.567 2.51618 3.07854 0
M  V30 8186 N 805.565 -0.825799 1.34232 0
M  V30 8187 C 806.497 -1.94401 1.21413 0
M  V30 8188 C 807.51 -1.6218 0.141902 0
M  V30 8189 O 808.699 -1.74109 0.3935 0
M  V30 8190 C 805.799 -3.28257 0.842635 0
M  V30 8191 C 804.972 -3.88521 2.00924 0
M  V30 8192 C 804.031 -5.00752 1.61661 0
M  V30 8193 O 803.057 -5.19201 2.33279 0
M  V30 8194 N 804.259 -5.78084 0.52911 0
M  V30 8195 H 807.024 -2.05931 2.17744 0
M  V30 8196 H 804.585 -1.00223 1.27149 0
M  V30 8197 H 806.577 -4.00781 0.561822 0
M  V30 8198 H 805.147 -3.12585 -0.0304029 0
M  V30 8199 H 804.367 -3.08425 2.45495 0
M  V30 8200 H 805.655 -4.25516 2.78951 0
M  V30 8201 H 805.053 -5.65661 -0.0663322 0
M  V30 8202 H 803.61 -6.51072 0.308017 0
M  V30 8203 N 807.043 -1.17915 -1.04565 0
M  V30 8204 C 808.454 -0.976383 -1.59134 0
M  V30 8205 C 808.805 0.475267 -1.90357 0
M  V30 8206 O 807.93 1.35172 -1.6899 0
M  V30 8207 C 808.525 -1.76604 -2.89131 0
M  V30 8208 C 807.084 -1.60777 -3.40335 0
M  V30 8209 C 806.231 -1.76369 -2.13985 0
M  V30 8210 H 809.182 -1.32532 -0.872985 0
M  V30 8211 H 809.203 -1.25215 -3.59307 0
M  V30 8212 H 808.715 -2.82252 -2.66375 0
M  V30 8213 H 806.816 -0.576436 -3.68114 0
M  V30 8214 H 806.929 -2.40268 -4.14497 0
M  V30 8215 H 805.293 -1.19268 -2.25049 0
M  V30 8216 H 806.076 -2.83441 -1.9369 0
M  V30 8217 N 808.521 1.23394 -0.980386 0
M  V30 8218 C 809.798 1.87242 -0.565667 0
M  V30 8219 C 810.178 1.88151 0.957197 0
M  V30 8220 O 809.526 1.36309 1.8339 0
M  V30 8221 C 809.736 3.28743 -1.17172 0
M  V30 8222 C 811.084 4.05335 -1.26446 0
M  V30 8223 O 812.108 3.37962 -1.12517 0
M  V30 8224 O 810.967 5.25908 -1.48604 0
M  V30 8225 H 808.061 0.80477 -0.190459 0
M  V30 8226 H 810.607 1.3127 -1.07547 0
M  V30 8227 H 809.379 3.22647 -2.21392 0
M  V30 8228 H 809.002 3.92305 -0.646739 0
M  V30 8229 N 809.999 0.752036 1.385 0
M  V30 8230 C 811.276 0.233075 1.94206 0
M  V30 8231 C 811.656 -1.26838 1.68746 0
M  V30 8232 O 811.004 -2.04214 1.02513 0
M  V30 8233 C 811.214 0.58509 3.44061 0
M  V30 8234 C 812.562 0.543871 4.21102 0
M  V30 8235 O 813.586 0.523291 3.52335 0
M  V30 8236 O 812.445 0.553436 5.4369 0
M  V30 8237 H 809.539 0.0483049 0.825588 0
M  V30 8238 H 812.085 0.832053 1.47902 0
M  V30 8239 H 810.857 1.62212 3.56094 0
M  V30 8240 H 810.48 -0.0419738 3.97578 0
M  V30 8241 N 811.477 -1.49425 0.500989 0
M  V30 8242 C 812.724 -2.02453 -0.0435355 0
M  V30 8243 C 813.052 -1.38067 -1.36995 0
M  V30 8244 O 812.307 -0.505557 -1.89057 0
M  V30 8245 C 812.606 -3.56562 -0.24463 0
M  V30 8246 C 812.272 -4.39585 1.00379 0
M  V30 8247 C 810.934 -4.61992 1.346 0
M  V30 8248 C 813.286 -4.87881 1.83361 0
M  V30 8249 C 810.614 -5.2994 2.51755 0
M  V30 8250 C 812.966 -5.57119 2.99669 0
M  V30 8251 C 811.63 -5.77771 3.3427 0
M  V30 8252 H 810.9 -0.740829 -0.0159308 0
M  V30 8253 H 813.547 -1.79725 0.661143 0
M  V30 8254 H 811.852 -3.77969 -1.03183 0
M  V30 8255 H 813.549 -3.95185 -0.6804 0
M  V30 8256 H 810.139 -4.22385 0.727225 0
M  V30 8257 H 814.323 -4.70398 1.58237 0
M  V30 8258 H 809.579 -5.44133 2.788 0
M  V30 8259 H 813.753 -5.93516 3.64296 0
M  V30 8260 H 811.38 -6.30197 4.25154 0
M  V30 8261 N 812.955 -0.234822 -1.55841 0
M  V30 8262 C 813.902 0.6698 -2.20867 0
M  V30 8263 C 814.872 1.18042 -1.16856 0
M  V30 8264 O 816.057 1.23709 -1.45261 0
M  V30 8265 C 813.197 1.86646 -2.90271 0
M  V30 8266 C 812.31 1.39351 -4.08908 0
M  V30 8267 C 811.445 2.54878 -4.66059 0
M  V30 8268 C 810.484 2.04384 -5.76969 0
M  V30 8269 N 809.621 3.13233 -6.28355 0
M  V30 8270 H 814.461 0.10858 -2.97802 0
M  V30 8271 H 811.998 0.041836 -1.4704 0
M  V30 8272 H 813.956 2.56926 -3.28702 0
M  V30 8273 H 812.586 2.40035 -2.15831 0
M  V30 8274 H 811.638 0.585173 -3.75872 0
M  V30 8275 H 812.95 0.983356 -4.89011 0
M  V30 8276 H 812.104 3.33219 -5.07001 0
M  V30 8277 H 810.843 2.99188 -3.85146 0
M  V30 8278 H 809.848 1.24509 -5.35516 0
M  V30 8279 H 811.073 1.61057 -6.59725 0
M  V30 8280 H 809.019 3.57 -5.50352 0
M  V30 8281 H 808.936 2.76511 -7.03618 0
M  V30 8282 H 810.204 3.91669 -6.73955 0
M  V30 8283 N 814.433 1.57553 0.0384317 0
M  V30 8284 C 815.681 1.88468 0.729672 0
M  V30 8285 C 816.002 0.831302 1.76393 0
M  V30 8286 O 815.272 -0.13622 1.95426 0
M  V30 8287 H 813.852 0.695529 0.272485 0
M  V30 8288 H 816.514 1.94899 0.0066032 0
M  V30 8289 H 815.61 2.8705 1.22511 0
M  V30 8290 N 815.911 -0.310526 1.54511 0
M  V30 8291 C 817.157 -1.04846 1.73595 0
M  V30 8292 C 817.49 -1.87244 0.515118 0
M  V30 8293 O 816.765 -1.88282 -0.48786 0
M  V30 8294 C 817.048 -1.96237 3.01932 0
M  V30 8295 C 816.901 -1.17082 4.34295 0
M  V30 8296 C 818.22 -2.9556 3.26086 0
M  V30 8297 H 815.339 -0.37976 0.631626 0
M  V30 8298 H 817.981 -0.32394 1.87218 0
M  V30 8299 H 816.131 -2.58015 2.90449 0
M  V30 8300 H 817.803 -0.576643 4.57682 0
M  V30 8301 H 816.046 -0.473336 4.3121 0
M  V30 8302 H 816.717 -1.84257 5.20339 0
M  V30 8303 H 819.193 -2.43908 3.37117 0
M  V30 8304 H 818.069 -3.5668 4.17218 0
M  V30 8305 H 818.33 -3.68715 2.4393 0
M  V30 8306 N 817.389 -1.46805 -0.573248 0
M  V30 8307 C 818.337 -1.58468 -1.70267 0
M  V30 8308 C 819.331 -0.452694 -1.63239 0
M  V30 8309 O 820.537 -0.629915 -1.68618 0
M  V30 8310 H 816.912 -0.498408 -0.56311 0
M  V30 8311 H 818.883 -2.5341 -1.57563 0
M  V30 8312 C 817.632 -1.60104 -3.08645 0
M  V30 8313 H 816.955 -2.4655 -3.14727 0
M  V30 8314 H 818.395 -1.72318 -3.87405 0
M  V30 8315 C 816.854 -0.33138 -3.35266 0
M  V30 8316 O 817.384 0.57438 -3.97572 0
M  V30 8317 N 815.59 -0.216358 -2.89793 0
M  V30 8318 H 815.137 -0.954345 -2.3927 0
M  V30 8319 H 815.095 0.632253 -3.07977 0
M  V30 8320 N 818.867 0.818669 -1.34668 0
M  V30 8321 C 820.113 1.57746 -1.27453 0
M  V30 8322 C 820.446 1.93588 0.154077 0
M  V30 8323 O 819.721 1.60371 1.10051 0
M  V30 8324 C 820.004 2.87414 -2.16945 0
M  V30 8325 C 819.857 2.58125 -3.68363 0
M  V30 8326 C 821.176 3.89021 -2.05792 0
M  V30 8327 H 818.295 0.572339 -0.464324 0
M  V30 8328 H 820.937 0.942784 -1.64959 0
M  V30 8329 H 819.087 3.41576 -1.85089 0
M  V30 8330 H 820.759 2.10239 -4.10606 0
M  V30 8331 H 819.002 1.91503 -3.89242 0
M  V30 8332 H 819.673 3.5061 -4.26353 0
M  V30 8333 H 822.149 3.44224 -2.33771 0
M  V30 8334 H 821.025 4.77548 -2.70628 0
M  V30 8335 H 821.286 4.29786 -1.03618 0
M  V30 8336 N 820.346 1.18468 1.03938 0
M  V30 8337 C 821.574 1.00576 1.80809 0
M  V30 8338 C 821.989 -0.445786 1.83462 0
M  V30 8339 O 821.346 -1.30964 1.27101 0
M  V30 8340 C 821.397 1.55491 3.26351 0
M  V30 8341 O 821.118 2.94963 3.23926 0
M  V30 8342 C 822.619 1.42236 4.19862 0
M  V30 8343 H 819.839 0.35508 0.56935 0
M  V30 8344 H 822.383 1.57046 1.30984 0
M  V30 8345 H 820.538 1.03195 3.73403 0
M  V30 8346 H 820.952 3.20598 4.15111 0
M  V30 8347 H 822.426 1.85455 5.19914 0
M  V30 8348 H 822.903 0.371267 4.37628 0
M  V30 8349 H 823.509 1.9361 3.78675 0
M  V30 8350 N 821.824 -1.22873 0.986916 0
M  V30 8351 C 822.757 -2.23154 0.477245 0
M  V30 8352 C 823.735 -1.55981 -0.459206 0
M  V30 8353 O 824.919 -1.84503 -0.386141 0
M  V30 8354 C 822.046 -3.37289 -0.308838 0
M  V30 8355 C 821.092 -4.22637 0.572717 0
M  V30 8356 S 821.925 -4.95758 2.02446 0
M  V30 8357 C 823.081 -6.13338 1.2477 0
M  V30 8358 H 823.314 -2.6604 1.32702 0
M  V30 8359 H 820.847 -1.32455 0.793415 0
M  V30 8360 H 822.805 -4.03472 -0.756351 0
M  V30 8361 H 821.466 -2.92922 -1.13381 0
M  V30 8362 H 820.659 -5.0399 -0.0318024 0
M  V30 8363 H 820.261 -3.61555 0.956746 0
M  V30 8364 H 822.553 -6.7556 0.51231 0
M  V30 8365 H 823.496 -6.78189 2.03629 0
M  V30 8366 H 823.904 -5.59311 0.763622 0
M  V30 8367 N 823.302 -0.75937 -1.38099 0
M  V30 8368 C 824.713 -0.385078 -1.82686 0
M  V30 8369 C 825.064 1.0871 -1.6333 0
M  V30 8370 O 824.189 1.84084 -1.13762 0
M  V30 8371 C 824.784 -0.692161 -3.31654 0
M  V30 8372 C 823.343 -0.371077 -3.74566 0
M  V30 8373 C 822.49 -0.942375 -2.60796 0
M  V30 8374 H 825.441 -0.955048 -1.26746 0
M  V30 8375 H 825.462 0.0276001 -3.8049 0
M  V30 8376 H 824.974 -1.76369 -3.4571 0
M  V30 8377 H 823.075 0.693637 -3.66087 0
M  V30 8378 H 823.188 -0.870672 -4.71122 0
M  V30 8379 H 821.552 -0.367383 -2.52036 0
M  V30 8380 H 822.335 -2.01905 -2.77649 0
M  V30 8381 N 824.78 1.49157 -0.508906 0
M  V30 8382 C 825.743 2.27784 0.25434 0
M  V30 8383 C 826.743 1.34132 0.88686 0
M  V30 8384 O 827.933 1.5722 0.750168 0
M  V30 8385 C 825.065 3.12347 1.36573 0
M  V30 8386 H 826.258 2.96718 -0.435714 0
M  V30 8387 H 823.811 1.54052 -0.264128 0
M  V30 8388 H 824.546 2.47997 2.08969 0
M  V30 8389 H 824.331 3.81213 0.917543 0
M  V30 8390 H 825.821 3.71712 1.90315 0
M  V30 8391 N 826.258 0.243083 1.55714 0
M  V30 8392 C 827.19 -0.690766 2.18543 0
M  V30 8393 C 828.203 -1.14163 1.16064 0
M  V30 8394 O 829.392 -1.06906 1.42946 0
M  V30 8395 C 826.492 -1.95016 2.77168 0
M  V30 8396 C 825.665 -1.65137 4.05029 0
M  V30 8397 C 824.724 -2.75998 4.48009 0
M  V30 8398 O 823.75 -2.43547 5.14464 0
M  V30 8399 N 824.952 -4.05414 4.15476 0
M  V30 8400 H 827.717 -0.153203 2.99308 0
M  V30 8401 H 825.278 0.0628968 1.61778 0
M  V30 8402 H 827.27 -2.68414 3.0288 0
M  V30 8403 H 825.84 -2.39762 2.00582 0
M  V30 8404 H 825.06 -0.752768 3.86946 0
M  V30 8405 H 826.348 -1.42633 4.88399 0
M  V30 8406 H 825.746 -4.34613 3.62116 0
M  V30 8407 H 824.303 -4.75288 4.46032 0
M  V30 8408 N 827.736 -1.57571 -0.0300757 0
M  V30 8409 C 829.147 -1.77567 -0.576802 0
M  V30 8410 C 829.498 -0.874034 -1.75656 0
M  V30 8411 O 828.623 -0.0686124 -2.16291 0
M  V30 8412 C 829.218 -3.22016 -1.05315 0
M  V30 8413 C 827.777 -3.43212 -1.5454 0
M  V30 8414 C 826.924 -2.73061 -0.483033 0
M  V30 8415 H 829.875 -1.57483 0.196151 0
M  V30 8416 H 829.896 -3.28474 -1.92055 0
M  V30 8417 H 829.408 -3.87613 -0.194298 0
M  V30 8418 H 827.509 -2.82788 -2.42615 0
M  V30 8419 H 827.622 -4.5182 -1.5936 0
M  V30 8420 H 825.986 -2.36805 -0.937835 0
M  V30 8421 H 826.769 -3.4134 0.366341 0
M  V30 8422 N 829.214 0.302327 -1.54673 0
M  V30 8423 C 830.462 1.03565 -1.73547 0
M  V30 8424 C 830.783 1.87843 -0.523448 0
M  V30 8425 O 830.053 1.90367 0.462295 0
M  V30 8426 H 828.633 0.385358 -0.639928 0
M  V30 8427 H 831.295 0.333632 -1.92023 0
M  V30 8428 H 830.391 1.68952 -2.62415 0
M  V30 8429 N 830.692 1.47107 0.565454 0
M  V30 8430 C 831.92 1.56909 1.3486 0
M  V30 8431 C 832.335 0.216312 1.87557 0
M  V30 8432 O 831.692 -0.789168 1.64555 0
M  V30 8433 C 831.743 2.58776 2.52423 0
M  V30 8434 O 831.464 3.888 2.01906 0
M  V30 8435 C 832.965 2.78683 3.44747 0
M  V30 8436 H 830.185 0.530096 0.411387 0
M  V30 8437 H 832.729 1.92658 0.685782 0
M  V30 8438 H 830.884 2.25983 3.1466 0
M  V30 8439 H 831.298 4.44393 2.78595 0
M  V30 8440 H 832.772 3.53842 4.23674 0
M  V30 8441 H 833.249 1.86208 3.97773 0
M  V30 8442 H 833.855 3.12641 2.88333 0
M  V30 8443 N 832.17 -0.811516 1.35101 0
M  V30 8444 C 833.581 -1.38515 1.25182 0
M  V30 8445 C 833.932 -1.95846 -0.117883 0
M  V30 8446 O 833.057 -1.90925 -1.01866 0
M  V30 8447 C 833.652 -2.51813 2.26662 0
M  V30 8448 C 832.211 -3.05052 2.20499 0
M  V30 8449 C 831.358 -1.77987 2.12641 0
M  V30 8450 H 834.309 -0.614959 1.46301 0
M  V30 8451 H 834.33 -3.30228 1.89023 0
M  V30 8452 H 833.842 -2.10057 3.2634 0
M  V30 8453 H 831.943 -3.51285 1.24215 0
M  V30 8454 H 832.056 -3.63368 3.1225 0
M  V30 8455 H 830.42 -1.99342 1.5854 0
M  V30 8456 H 831.203 -1.38389 3.14171 0
M  V30 8457 N 833.648 -1.19017 -1.03309 0
M  V30 8458 C 835.059 -0.993206 -1.5809 0
M  V30 8459 C 835.41 0.45505 -1.9085 0
M  V30 8460 O 834.535 1.33372 -1.70414 0
M  V30 8461 C 835.13 -1.79661 -2.87241 0
M  V30 8462 C 833.689 -1.64377 -3.38611 0
M  V30 8463 C 832.836 -1.78628 -2.12102 0
M  V30 8464 H 835.787 -1.3345 -0.858879 0
M  V30 8465 H 835.808 -1.29019 -3.57958 0
M  V30 8466 H 835.32 -2.85061 -2.63366 0
M  V30 8467 H 833.421 -0.615447 -3.67482 0
M  V30 8468 H 833.534 -2.44651 -4.11926 0
M  V30 8469 H 831.898 -1.21648 -2.23772 0
M  V30 8470 H 832.681 -2.8548 -1.90673 0
M  V30 8471 N 835.127 1.22348 -0.993418 0
M  V30 8472 C 836.057 2.26584 -0.564088 0
M  V30 8473 C 837.038 1.65102 0.409298 0
M  V30 8474 O 838.223 1.91872 0.299819 0
M  V30 8475 C 835.353 3.47087 0.121554 0
M  V30 8476 C 834.307 4.21009 -0.770429 0
M  V30 8477 C 833.633 5.34678 0.0481586 0
M  V30 8478 C 834.933 4.79636 -2.06752 0
M  V30 8479 H 836.627 2.62749 -1.43538 0
M  V30 8480 H 834.173 1.26303 -0.691628 0
M  V30 8481 H 836.126 4.19166 0.433303 0
M  V30 8482 H 834.85 3.1002 1.0274 0
M  V30 8483 H 833.509 3.50764 -1.06583 0
M  V30 8484 H 833.157 4.93852 0.954933 0
M  V30 8485 H 832.857 5.85061 -0.545641 0
M  V30 8486 H 834.381 6.09573 0.353991 0
M  V30 8487 H 835.795 5.43654 -1.81969 0
M  V30 8488 H 834.192 5.4036 -2.61019 0
M  V30 8489 H 835.262 3.99659 -2.74592 0
M  V30 8490 N 836.605 0.766683 1.37694 0
M  V30 8491 C 837.83 0.338715 2.04615 0
M  V30 8492 C 838.255 -1.02918 1.57447 0
M  V30 8493 O 837.613 -1.65849 0.732386 0
M  V30 8494 C 837.661 0.385284 3.58536 0
M  V30 8495 O 836.765 -0.616081 4.07772 0
M  V30 8496 H 836.106 0.147527 0.647404 0
M  V30 8497 H 838.636 1.04146 1.7611 0
M  V30 8498 H 838.646 0.240782 4.07289 0
M  V30 8499 H 837.321 1.38325 3.92223 0
M  V30 8500 H 835.898 -0.435115 3.70353 0
M  V30 8501 N 838.083 -1.48885 0.516809 0
M  V30 8502 C 839.308 -2.0739 -0.0205201 0
M  V30 8503 C 839.733 -1.37259 -1.28614 0
M  V30 8504 O 839.091 -0.434304 -1.76021 0
M  V30 8505 C 839.139 -3.59793 -0.24104 0
M  V30 8506 O 838.243 -3.90957 -1.31251 0
M  V30 8507 H 837.584 -0.663167 0.0332564 0
M  V30 8508 H 840.114 -1.91477 0.720956 0
M  V30 8509 H 840.124 -4.0531 -0.467737 0
M  V30 8510 H 838.799 -4.10244 0.68356 0
M  V30 8511 H 837.376 -3.57234 -1.06951 0
M  V30 8512 N 839.561 -0.251338 -1.55583 0
M  V30 8513 C 840.789 0.376187 -2.03451 0
M  V30 8514 C 841.204 1.51215 -1.13047 0
M  V30 8515 O 840.561 1.81917 -0.145769 0
M  V30 8516 C 840.612 0.879779 -3.50631 0
M  V30 8517 O 840.333 -0.210917 -4.37592 0
M  V30 8518 C 841.834 1.57754 -4.14281 0
M  V30 8519 H 839.054 0.0888722 -0.665089 0
M  V30 8520 H 841.598 -0.376497 -2.01004 0
M  V30 8521 H 839.753 1.58263 -3.53598 0
M  V30 8522 H 840.167 0.172203 -5.24217 0
M  V30 8523 H 841.641 1.88158 -5.18942 0
M  V30 8524 H 842.118 2.50103 -3.61034 0
M  V30 8525 H 842.724 0.919154 -4.15249 0
M  V30 8526 N 841.039 1.57585 0.0217189 0
M  V30 8527 C 841.971 2.03849 1.04777 0
M  V30 8528 C 842.984 0.952558 1.32023 0
M  V30 8529 O 844.173 1.22974 1.29381 0
M  V30 8530 C 841.273 2.40504 2.3877 0
M  V30 8531 C 840.446 3.71566 2.30775 0
M  V30 8532 C 839.505 3.95329 3.47277 0
M  V30 8533 O 838.531 4.66289 3.26441 0
M  V30 8534 N 839.733 3.41536 4.69397 0
M  V30 8535 H 842.498 2.92491 0.653395 0
M  V30 8536 H 840.059 1.60538 0.209527 0
M  V30 8537 H 842.051 2.53532 3.15442 0
M  V30 8538 H 840.621 1.57494 2.70027 0
M  V30 8539 H 839.841 3.68822 1.39155 0
M  V30 8540 H 841.129 4.5753 2.22584 0
M  V30 8541 H 840.527 2.84033 4.89226 0
M  V30 8542 H 839.084 3.59932 5.43408 0
M  V30 8543 N 842.517 -0.29412 1.54831 0
M  V30 8544 C 843.447 -1.36757 1.89261 0
M  V30 8545 C 844.428 -1.52564 0.752214 0
M  V30 8546 O 845.613 -1.65958 1.00855 0
M  V30 8547 C 842.743 -2.73066 2.14597 0
M  V30 8548 C 841.697 -2.72017 3.3044 0
M  V30 8549 C 841.023 -4.11679 3.4121 0
M  V30 8550 C 842.323 -2.33149 4.67375 0
M  V30 8551 H 844.017 -1.08191 2.79169 0
M  V30 8552 H 841.563 -0.519014 1.34321 0
M  V30 8553 H 843.516 -3.48255 2.37269 0
M  V30 8554 H 842.24 -3.03172 1.21467 0
M  V30 8555 H 840.899 -1.99285 3.07703 0
M  V30 8556 H 840.547 -4.38973 2.45584 0
M  V30 8557 H 840.247 -4.11877 4.19084 0
M  V30 8558 H 841.771 -4.88637 3.6615 0
M  V30 8559 H 843.185 -2.98054 4.89731 0
M  V30 8560 H 841.582 -2.44546 5.48012 0
M  V30 8561 H 842.652 -1.28275 4.67626 0
M  V30 8562 N 843.995 -1.47404 -0.557645 0
M  V30 8563 C 844.927 -1.55917 -1.67995 0
M  V30 8564 C 845.94 -0.445411 -1.56588 0
M  V30 8565 O 847.129 -0.714999 -1.63554 0
M  V30 8566 C 844.229 -1.44697 -3.06457 0
M  V30 8567 C 843.402 -2.70633 -3.43622 0
M  V30 8568 C 842.461 -2.53256 -4.61246 0
M  V30 8569 O 841.487 -3.27068 -4.65849 0
M  V30 8570 N 842.689 -1.61053 -5.57711 0
M  V30 8571 H 845.454 -2.52694 -1.61139 0
M  V30 8572 H 843.015 -1.43778 -0.744271 0
M  V30 8573 H 845.007 -1.30806 -3.82978 0
M  V30 8574 H 843.577 -0.560039 -3.07542 0
M  V30 8575 H 842.797 -2.99288 -2.56555 0
M  V30 8576 H 844.085 -3.5424 -3.65228 0
M  V30 8577 H 843.483 -1.00235 -5.56749 0
M  V30 8578 H 842.04 -1.53115 -6.33561 0
M  V30 8579 N 845.473 0.80434 -1.35529 0
M  V30 8580 C 846.722 1.55665 -1.28263 0
M  V30 8581 C 847.035 1.95096 0.140352 0
M  V30 8582 O 848.241 2.69422 0.335303 0
M  V30 8583 C 846.697 2.80935 -2.24952 0
M  V30 8584 C 846.305 2.48733 -3.72607 0
M  V30 8585 C 848.049 3.5894 -2.26632 0
M  V30 8586 C 845.956 3.70308 -4.61114 0
M  V30 8587 H 844.886 0.584301 -0.476559 0
M  V30 8588 H 847.537 0.88395 -1.60806 0
M  V30 8589 H 845.919 3.49927 -1.85383 0
M  V30 8590 H 847.093 1.87733 -4.20824 0
M  V30 8591 H 845.408 1.83969 -3.73557 0
M  V30 8592 H 848.005 4.49244 -2.89973 0
M  V30 8593 H 848.348 3.96433 -1.27069 0
M  V30 8594 H 848.881 2.96912 -2.64742 0
M  V30 8595 H 845.62 3.37922 -5.61684 0
M  V30 8596 H 845.14 4.30526 -4.17621 0
M  V30 8597 H 846.819 4.37511 -4.76648 0
M  V30 8598 N 846.951 1.19563 1.02676 0
M  V30 8599 C 848.228 0.908857 1.73203 0
M  V30 8600 C 848.608 -0.584928 2.02834 0
M  V30 8601 O 847.956 -1.54372 1.68469 0
M  V30 8602 C 848.166 1.77105 3.00724 0
M  V30 8603 C 849.514 2.00667 3.7419 0
M  V30 8604 O 850.538 1.74274 3.10656 0
M  V30 8605 O 849.397 2.4518 4.88415 0
M  V30 8606 H 846.491 0.338909 0.754367 0
M  V30 8607 H 849.037 1.30387 1.08616 0
M  V30 8608 H 847.809 2.78303 2.7507 0
M  V30 8609 H 847.432 1.37546 3.73051 0
M  V30 8610 N 848.429 -1.21819 0.999893 0
M  V30 8611 C 849.84 -1.72517 0.713775 0
M  V30 8612 C 850.191 -1.80505 -0.768922 0
M  V30 8613 O 849.316 -1.45611 -1.60083 0
M  V30 8614 C 849.911 -3.13321 1.28901 0
M  V30 8615 C 848.47 -3.61396 1.05212 0
M  V30 8616 C 847.617 -2.39074 1.40494 0
M  V30 8617 H 850.568 -1.07068 1.17141 0
M  V30 8618 H 850.589 -3.74535 0.671084 0
M  V30 8619 H 850.101 -3.07475 2.36814 0
M  V30 8620 H 848.202 -3.72599 -0.0100732 0
M  V30 8621 H 848.315 -4.47145 1.72042 0
M  V30 8622 H 846.679 -2.41015 0.823642 0
M  V30 8623 H 847.462 -2.35884 2.49427 0
M  V30 8624 N 849.908 -0.773975 -1.37286 0
M  V30 8625 C 851.133 -0.349561 -2.04433 0
M  V30 8626 C 851.558 1.02082 -1.5799 0
M  V30 8627 O 850.916 1.65458 -0.741172 0
M  V30 8628 C 850.964 -0.404292 -3.58326 0
M  V30 8629 O 850.068 0.594447 -4.08093 0
M  V30 8630 H 849.409 -0.150959 -0.646612 0
M  V30 8631 H 851.939 -1.05079 -1.75555 0
M  V30 8632 H 851.949 -0.262378 -4.07155 0
M  V30 8633 H 850.624 -1.40403 -3.91484 0
M  V30 8634 H 849.201 0.415468 -3.70578 0
M  V30 8635 N 851.386 1.48609 -0.524698 0
M  V30 8636 C 852.316 2.32366 0.229837 0
M  V30 8637 C 853.297 1.41759 0.940129 0
M  V30 8638 O 854.482 1.7065 0.926936 0
M  V30 8639 C 851.612 3.22835 1.28043 0
M  V30 8640 C 850.566 4.22424 0.688603 0
M  V30 8641 C 849.892 5.0199 1.84146 0
M  V30 8642 C 851.192 5.21217 -0.336176 0
M  V30 8643 H 852.886 2.95698 -0.469339 0
M  V30 8644 H 850.432 1.42197 -0.227156 0
M  V30 8645 H 852.385 3.80253 1.8162 0
M  V30 8646 H 851.109 2.57492 2.00912 0
M  V30 8647 H 849.768 3.66185 0.174402 0
M  V30 8648 H 849.416 4.33076 2.5584 0
M  V30 8649 H 849.116 5.69392 1.45142 0
M  V30 8650 H 850.64 5.62259 2.38111 0
M  V30 8651 H 852.054 5.7319 0.112307 0
M  V30 8652 H 850.451 5.96642 -0.643324 0
M  V30 8653 H 851.521 4.68676 -1.24381 0
M  V30 8654 N 852.864 0.259585 1.55447 0
M  V30 8655 C 853.814 -0.648769 2.18575 0
M  V30 8656 C 854.798 -1.1299 1.14552 0
M  V30 8657 O 855.99 -1.07756 1.4042 0
M  V30 8658 C 853.119 -1.83963 2.89849 0
M  V30 8659 C 852.205 -1.37641 4.01143 0
M  V30 8660 N 852.596 -0.628269 5.01883 0
M  V30 8661 C 850.894 -1.66066 4.1393 0
M  V30 8662 C 851.595 -0.386746 5.80413 0
M  V30 8663 N 850.571 -0.954665 5.35151 0
M  V30 8664 H 854.373 -0.0691616 2.93819 0
M  V30 8665 H 851.887 0.0624525 1.6228 0
M  V30 8666 H 853.884 -2.50151 3.33512 0
M  V30 8667 H 852.544 -2.42334 2.16112 0
M  V30 8668 H 853.555 -0.277123 5.17158 0
M  V30 8669 H 850.232 -2.25484 3.51373 0
M  V30 8670 H 851.622 0.211382 6.71567 0
M  V30 8671 N 854.342 -1.57594 -0.0133615 0
M  V30 8672 C 855.252 -2.10991 -1.02566 0
M  V30 8673 C 856.268 -1.05208 -1.3859 0
M  V30 8674 O 857.444 -1.37034 -1.47593 0
M  V30 8675 C 854.509 -2.59165 -2.30292 0
M  V30 8676 C 853.57 -3.79495 -2.00704 0
M  V30 8677 C 852.803 -4.25361 -3.22341 0
M  V30 8678 O 853.026 -3.70645 -4.33565 0
M  V30 8679 O 851.96 -5.17649 -3.07121 0
M  V30 8680 H 855.786 -2.97678 -0.601806 0
M  V30 8681 H 853.371 -1.47598 -0.23135 0
M  V30 8682 H 855.253 -2.90409 -3.05354 0
M  V30 8683 H 853.928 -1.75582 -2.71942 0
M  V30 8684 H 852.835 -3.53245 -1.23161 0
M  V30 8685 H 854.168 -4.64109 -1.639 0
M  V30 8686 N 855.82 0.285905 -1.54985 0
M  V30 8687 C 857.067 1.0192 -1.74982 0
M  V30 8688 C 857.395 1.86743 -0.543816 0
M  V30 8689 O 856.65 1.89874 0.473972 0
M  V30 8690 C 856.949 1.94193 -3.0004 0
M  V30 8691 C 856.615 1.25225 -4.33162 0
M  V30 8692 C 855.277 1.06149 -4.69346 0
M  V30 8693 C 857.629 0.760427 -5.15623 0
M  V30 8694 C 854.957 0.365991 -5.85557 0
M  V30 8695 C 857.309 0.0785787 -6.32551 0
M  V30 8696 C 855.973 -0.124002 -6.67385 0
M  V30 8697 H 855.243 0.372951 -0.640304 0
M  V30 8698 H 857.89 0.292652 -1.89251 0
M  V30 8699 H 856.195 2.73426 -2.80616 0
M  V30 8700 H 857.892 2.51029 -3.12707 0
M  V30 8701 H 854.482 1.41081 -4.04715 0
M  V30 8702 H 858.666 0.895466 -4.88155 0
M  V30 8703 H 853.922 0.198193 -6.11079 0
M  V30 8704 H 858.096 -0.310339 -6.95708 0
M  V30 8705 H 855.723 -0.664918 -7.57287 0
M  V30 8706 N 857.298 1.47698 0.54982 0
M  V30 8707 C 858.23 1.56806 1.67166 0
M  V30 8708 C 859.243 0.453709 1.5635 0
M  V30 8709 O 860.432 0.723663 1.63173 0
M  V30 8710 C 857.532 1.4632 3.05686 0
M  V30 8711 C 856.705 2.72452 3.42182 0
M  V30 8712 C 855.764 2.55698 4.59897 0
M  V30 8713 O 854.79 3.29534 4.64108 0
M  V30 8714 N 855.992 1.64009 5.56849 0
M  V30 8715 H 858.757 2.53545 1.59797 0
M  V30 8716 H 856.318 1.44171 0.736635 0
M  V30 8717 H 858.31 1.32835 3.82279 0
M  V30 8718 H 856.88 0.57634 3.07241 0
M  V30 8719 H 856.1 3.00644 2.54964 0
M  V30 8720 H 857.388 3.56172 3.63344 0
M  V30 8721 H 856.786 1.03186 5.5621 0
M  V30 8722 H 855.343 1.56473 6.3274 0
M  V30 8723 N 858.776 -0.797141 1.35954 0
M  V30 8724 C 859.706 -1.92387 1.32323 0
M  V30 8725 C 860.687 -1.68967 0.196007 0
M  V30 8726 O 861.872 -1.90193 0.39245 0
M  V30 8727 C 859.002 -3.29286 1.10398 0
M  V30 8728 C 857.956 -3.67212 2.19862 0
M  V30 8729 C 857.282 -5.02377 1.8309 0
M  V30 8730 C 858.582 -3.76602 3.61896 0
M  V30 8731 H 860.276 -1.95683 2.26602 0
M  V30 8732 H 857.822 -0.94007 1.09081 0
M  V30 8733 H 859.775 -4.07721 1.06495 0
M  V30 8734 H 858.499 -3.26358 0.125668 0
M  V30 8735 H 857.158 -2.91069 2.22878 0
M  V30 8736 H 856.806 -4.95961 0.838527 0
M  V30 8737 H 856.506 -5.28722 2.56372 0
M  V30 8738 H 858.03 -5.8324 1.80729 0
M  V30 8739 H 859.444 -4.45246 3.6115 0
M  V30 8740 H 857.841 -4.14425 4.34018 0
M  V30 8741 H 858.911 -2.77906 3.97361 0
M  V30 8742 N 860.254 -1.20106 -1.0204 0
M  V30 8743 C 861.5 -1.01039 -1.75838 0
M  V30 8744 C 861.833 0.456819 -1.88751 0
M  V30 8745 O 861.108 1.33919 -1.41053 0
M  V30 8746 C 861.391 -1.69009 -3.17975 0
M  V30 8747 C 861.244 -3.2315 -3.1288 0
M  V30 8748 C 862.563 -1.42005 -4.16561 0
M  V30 8749 H 859.682 -0.368465 -0.638281 0
M  V30 8750 H 862.324 -1.48066 -1.19064 0
M  V30 8751 H 860.474 -1.29026 -3.66449 0
M  V30 8752 H 862.146 -3.72402 -2.72239 0
M  V30 8753 H 860.389 -3.54253 -2.50374 0
M  V30 8754 H 861.06 -3.65862 -4.13339 0
M  V30 8755 H 863.536 -1.76685 -3.76725 0
M  V30 8756 H 862.412 -1.92101 -5.14187 0
M  V30 8757 H 862.673 -0.346884 -4.40737 0
M  V30 8758 N 861.732 1.21287 -1.00634 0
M  V30 8759 C 863.009 1.86 -0.605257 0
M  V30 8760 C 863.389 1.90139 0.917072 0
M  V30 8761 O 862.737 1.40169 1.80458 0
M  V30 8762 C 862.947 3.26183 -1.24119 0
M  V30 8763 C 864.295 4.02562 -1.35015 0
M  V30 8764 O 865.319 3.35499 -1.19661 0
M  V30 8765 O 864.178 5.22638 -1.59726 0
M  V30 8766 H 861.272 0.800549 -0.207486 0
M  V30 8767 H 863.818 1.28959 -1.10307 0
M  V30 8768 H 862.59 3.17878 -2.28186 0
M  V30 8769 H 862.213 3.90845 -0.729807 0
M  V30 8770 N 863.21 0.781244 1.36873 0
M  V30 8771 C 864.14 0.188128 2.32741 0
M  V30 8772 C 865.121 -0.672326 1.56249 0
M  V30 8773 O 866.306 -0.607835 1.84442 0
M  V30 8774 C 863.436 -0.684341 3.40491 0
M  V30 8775 C 862.39 0.0755641 4.27933 0
M  V30 8776 C 861.716 -0.916968 5.26779 0
M  V30 8777 C 863.016 1.26006 5.06873 0
M  V30 8778 H 864.71 0.989016 2.82593 0
M  V30 8779 H 862.256 0.477038 1.35869 0
M  V30 8780 H 864.209 -1.10915 4.06541 0
M  V30 8781 H 862.933 -1.51785 2.89187 0
M  V30 8782 H 861.592 0.481258 3.63427 0
M  V30 8783 H 861.24 -1.74528 4.71751 0
M  V30 8784 H 860.94 -0.413 5.86147 0
M  V30 8785 H 862.464 -1.34052 5.95703 0
M  V30 8786 H 863.878 0.911425 5.66009 0
M  V30 8787 H 862.275 1.69676 5.75613 0
M  V30 8788 H 863.345 2.05948 4.38991 0
M  V30 8789 N 864.689 -1.48329 0.532571 0
M  V30 8790 C 865.914 -2.074 0.00147755 0
M  V30 8791 C 866.339 -1.38615 -1.27151 0
M  V30 8792 O 865.697 -0.452949 -1.75551 0
M  V30 8793 C 865.745 -3.60029 -0.202866 0
M  V30 8794 O 864.849 -3.92327 -1.27097 0
M  V30 8795 H 864.19 -0.662777 0.0402883 0
M  V30 8796 H 866.72 -1.90701 0.741224 0
M  V30 8797 H 866.73 -4.05783 -0.424722 0
M  V30 8798 H 865.405 -4.09496 0.727033 0
M  V30 8799 H 863.982 -3.58348 -1.03156 0
M  V30 8800 N 866.167 -0.267825 -1.55308 0
M  V30 8801 C 867.583 0.0865107 -1.59365 0
M  V30 8802 C 867.783 1.55205 -1.28505 0
M  V30 8803 O 866.839 2.29978 -1.04241 0
M  V30 8804 C 868.152 -0.28155 -2.99379 0
M  V30 8805 C 869.7 -0.227565 -3.12172 0
M  V30 8806 C 870.175 -0.569959 -4.5444 0
M  V30 8807 N 871.666 -0.521238 -4.60258 0
M  V30 8808 C 872.401 -0.759061 -5.68354 0
M  V30 8809 N 871.897 -1.06112 -6.84626 0
M  V30 8810 N 873.69 -0.688351 -5.57869 0
M  V30 8811 H 865.841 -1.22332 -1.73633 0
M  V30 8812 H 868.104 -0.493703 -0.809297 0
M  V30 8813 H 867.81 -1.3005 -3.26772 0
M  V30 8814 H 867.684 0.381192 -3.75269 0
M  V30 8815 H 870.071 0.782093 -2.84548 0
M  V30 8816 H 870.152 -0.924461 -2.38511 0
M  V30 8817 H 869.796 -1.57727 -4.82788 0
M  V30 8818 H 869.726 0.148646 -5.2639 0
M  V30 8819 H 872.217 -0.297359 -3.76728 0
M  V30 8820 H 872.53 -1.22945 -7.62958 0
M  V30 8821 H 870.875 -1.09881 -6.86259 0
M  V30 8822 H 874.066 -0.452268 -4.6591 0
M  V30 8823 H 874.239 -0.877081 -6.42037 0
M  V30 8824 N 867.645 1.57599 0.00500368 0
M  V30 8825 C 869.061 1.55463 0.361015 0
M  V30 8826 C 869.261 0.997051 1.75103 0
M  V30 8827 O 868.317 0.628661 2.44549 0
M  V30 8828 C 869.63 2.99734 0.240828 0
M  V30 8829 C 871.178 3.11399 0.316138 0
M  V30 8830 C 871.653 4.57446 0.22513 0
M  V30 8831 N 873.144 4.62334 0.283186 0
M  V30 8832 C 873.879 5.72914 0.23603 0
M  V30 8833 N 873.375 6.92659 0.139762 0
M  V30 8834 N 875.168 5.61364 0.287529 0
M  V30 8835 H 867.319 1.92185 -0.904359 0
M  V30 8836 H 869.582 0.882529 -0.34619 0
M  V30 8837 H 869.288 3.44348 -0.715343 0
M  V30 8838 H 869.162 3.63009 1.02491 0
M  V30 8839 H 871.549 2.66718 1.26275 0
M  V30 8840 H 871.63 2.50911 -0.497725 0
M  V30 8841 H 871.274 5.02801 -0.717917 0
M  V30 8842 H 871.204 5.15874 1.05742 0
M  V30 8843 H 873.695 3.7619 0.359123 0
M  V30 8844 H 874.008 7.72722 0.10954 0
M  V30 8845 H 872.353 6.9492 0.105462 0
M  V30 8846 H 875.544 4.66707 0.360897 0
M  V30 8847 H 875.717 6.47528 0.247313 0
M  V30 8848 N 869.123 -0.277682 1.55134 0
M  V30 8849 C 870.37 -1.0099 1.7552 0
M  V30 8850 C 870.698 -1.86452 0.553712 0
M  V30 8851 O 869.953 -1.90122 -0.463896 0
M  V30 8852 C 870.252 -1.92599 3.01065 0
M  V30 8853 C 869.918 -1.22926 4.3382 0
M  V30 8854 C 868.58 -1.03659 4.69902 0
M  V30 8855 C 870.932 -0.733071 5.16019 0
M  V30 8856 C 868.26 -0.334933 5.85743 0
M  V30 8857 C 870.612 -0.0450319 6.32584 0
M  V30 8858 C 869.276 0.159393 6.6731 0
M  V30 8859 H 868.546 -0.36955 0.642273 0
M  V30 8860 H 871.193 -0.282611 1.89403 0
M  V30 8861 H 869.498 -2.71934 2.82062 0
M  V30 8862 H 871.195 -2.49367 3.14034 0
M  V30 8863 H 867.785 -1.38933 4.05457 0
M  V30 8864 H 871.969 -0.869565 4.88623 0
M  V30 8865 H 867.225 -0.165783 6.11175 0
M  V30 8866 H 871.399 0.34723 6.95534 0
M  V30 8867 H 869.026 0.70507 7.56923 0
M  V30 8868 N 870.601 -1.47988 -0.541979 0
M  V30 8869 C 871.531 -1.64503 -1.65713 0
M  V30 8870 C 872.512 -0.494116 -1.62765 0
M  V30 8871 O 873.697 -0.725256 -1.80149 0
M  V30 8872 C 870.827 -1.67337 -3.04328 0
M  V30 8873 C 869.781 -2.81809 -3.2213 0
M  V30 8874 C 869.107 -2.69724 -4.61685 0
M  V30 8875 C 870.407 -4.23241 -3.06046 0
M  V30 8876 H 872.101 -2.5786 -1.52147 0
M  V30 8877 H 869.647 -1.24094 -0.730529 0
M  V30 8878 H 871.6 -1.77481 -3.82202 0
M  V30 8879 H 870.324 -0.705514 -3.18889 0
M  V30 8880 H 868.983 -2.71201 -2.46669 0
M  V30 8881 H 868.631 -1.70934 -4.73065 0
M  V30 8882 H 868.331 -3.4653 -4.74543 0
M  V30 8883 H 869.855 -2.81818 -5.41674 0
M  V30 8884 H 871.269 -4.34746 -3.73723 0
M  V30 8885 H 869.666 -5.00952 -3.30405 0
M  V30 8886 H 870.736 -4.40543 -2.02609 0
M  V30 8887 N 872.079 0.78992 -1.36375 0
M  V30 8888 C 873.325 1.55007 -1.3077 0
M  V30 8889 C 873.658 1.93871 0.112979 0
M  V30 8890 O 872.933 1.6267 1.06625 0
M  V30 8891 C 873.216 2.82748 -2.22993 0
M  V30 8892 C 873.069 2.50253 -3.73756 0
M  V30 8893 C 874.388 3.84569 -2.13998 0
M  V30 8894 H 871.507 0.562362 -0.476359 0
M  V30 8895 H 874.149 0.907582 -1.66922 0
M  V30 8896 H 872.299 3.37573 -1.92292 0
M  V30 8897 H 873.971 2.01482 -4.14973 0
M  V30 8898 H 872.214 1.83203 -3.93216 0
M  V30 8899 H 872.885 3.41487 -4.33694 0
M  V30 8900 H 875.361 3.39188 -2.4102 0
M  V30 8901 H 874.237 4.717 -2.80697 0
M  V30 8902 H 874.498 4.27491 -1.12711 0
M  V30 8903 N 873.557 1.20646 1.01402 0
M  V30 8904 C 874.507 0.925209 2.08384 0
M  V30 8905 C 875.491 -0.115994 1.60481 0
M  V30 8906 O 876.683 0.0917276 1.76762 0
M  V30 8907 C 873.812 0.48193 3.399 0
M  V30 8908 C 872.898 1.5567 3.94497 0
M  V30 8909 N 873.289 2.77971 4.2257 0
M  V30 8910 C 871.587 1.42347 4.22674 0
M  V30 8911 C 872.288 3.47317 4.66632 0
M  V30 8912 N 871.264 2.74736 4.69064 0
M  V30 8913 H 875.066 1.85452 2.28002 0
M  V30 8914 H 872.58 1.10084 1.19395 0
M  V30 8915 H 874.577 0.261835 4.16077 0
M  V30 8916 H 873.237 -0.440725 3.21695 0
M  V30 8917 H 874.248 3.14598 4.11398 0
M  V30 8918 H 870.925 0.565417 4.13654 0
M  V30 8919 H 872.315 4.51985 4.97151 0
M  V30 8920 N 875.035 -1.20752 1.01276 0
M  V30 8921 C 876.312 -1.85676 0.615112 0
M  V30 8922 C 876.692 -1.90623 -0.906976 0
M  V30 8923 O 876.04 -1.41124 -1.79712 0
M  V30 8924 C 876.25 -3.2552 1.25847 0
M  V30 8925 C 877.598 -4.0184 1.37148 0
M  V30 8926 O 878.622 -3.3486 1.21438 0
M  V30 8927 O 877.481 -5.21783 1.62495 0
M  V30 8928 H 874.575 -0.799437 0.211729 0
M  V30 8929 H 877.121 -1.28372 1.10989 0
M  V30 8930 H 875.893 -3.16664 2.29869 0
M  V30 8931 H 875.516 -3.90452 0.750524 0
M  V30 8932 N 876.513 -0.788492 -1.36457 0
M  V30 8933 C 877.738 -0.371224 -2.04051 0
M  V30 8934 C 878.163 1.004 -1.59064 0
M  V30 8935 O 877.521 1.64663 -0.758679 0
M  V30 8936 C 877.569 -0.442275 -3.57877 0
M  V30 8937 O 876.673 0.55113 -4.08701 0
M  V30 8938 H 876.014 -0.157808 -0.644975 0
M  V30 8939 H 878.544 -1.06935 -1.74431 0
M  V30 8940 H 878.554 -0.305548 -4.06854 0
M  V30 8941 H 877.229 -1.44547 -3.89973 0
M  V30 8942 H 875.806 0.37614 -3.70998 0
M  V30 8943 N 877.991 1.48044 -0.54043 0
M  V30 8944 C 879.238 2.02497 -0.0101567 0
M  V30 8945 C 879.566 1.41651 1.33286 0
M  V30 8946 O 878.821 0.555504 1.8765 0
M  V30 8947 C 879.12 3.57085 0.150008 0
M  V30 8948 C 878.786 4.36769 -1.11998 0
M  V30 8949 C 877.448 4.58261 -1.46801 0
M  V30 8950 C 879.8 4.82848 -1.96232 0
M  V30 8951 C 877.128 5.23079 -2.65717 0
M  V30 8952 C 879.48 5.48977 -3.14335 0
M  V30 8953 C 878.144 5.68705 -3.49472 0
M  V30 8954 H 877.414 0.740991 -0.00371661 0
M  V30 8955 H 880.061 1.77909 -0.708562 0
M  V30 8956 H 878.366 3.80572 0.931259 0
M  V30 8957 H 880.063 3.96851 0.575384 0
M  V30 8958 H 876.653 4.20309 -0.838957 0
M  V30 8959 H 880.837 4.66038 -1.70654 0
M  V30 8960 H 876.093 5.36549 -2.93129 0
M  V30 8961 H 880.267 5.83649 -3.79904 0
M  V30 8962 H 877.894 6.18703 -4.41713 0
M  V30 8963 N 879.47 0.276058 1.55163 0
M  V30 8964 C 880.716 -0.333945 2.0064 0
M  V30 8965 C 881.071 -1.53414 1.16111 0
M  V30 8966 O 880.364 -1.90293 0.22341 0
M  V30 8967 C 880.558 -0.765744 3.491 0
M  V30 8968 C 880.387 0.391068 4.47996 0
M  V30 8969 C 879.157 0.875151 4.97664 0
M  V30 8970 C 881.355 1.22786 4.99428 0
M  V30 8971 N 879.337 2.00133 5.80362 0
M  V30 8972 C 880.708 2.20192 5.79582 0
M  V30 8973 C 882.763 1.26109 4.81665 0
M  V30 8974 C 881.466 3.20667 6.43868 0
M  V30 8975 C 883.492 2.2543 5.4675 0
M  V30 8976 C 882.854 3.21568 6.26716 0
M  V30 8977 H 878.953 -0.087345 0.777107 0
M  V30 8978 H 881.537 0.400294 1.90541 0
M  V30 8979 H 879.708 -1.46921 3.5954 0
M  V30 8980 H 881.44 -1.35316 3.81407 0
M  V30 8981 H 878.195 0.454297 4.71416 0
M  V30 8982 H 878.619 2.56806 6.26402 0
M  V30 8983 H 883.261 0.531622 4.19444 0
M  V30 8984 H 880.979 3.94547 7.05236 0
M  V30 8985 H 884.565 2.28744 5.34946 0
M  V30 8986 H 883.445 3.97164 6.76188 0
M  V30 8987 N 880.948 -1.576 0.00335426 0
M  V30 8988 C 881.911 -2.07576 -0.971838 0
M  V30 8989 C 882.911 -0.985796 -1.27038 0
M  V30 8990 O 884.101 -1.24833 -1.21501 0
M  V30 8991 C 881.233 -2.52003 -2.29581 0
M  V30 8992 H 882.426 -2.95008 -0.539481 0
M  V30 8993 H 879.979 -1.54381 -0.244186 0
M  V30 8994 H 880.714 -1.67825 -2.77498 0
M  V30 8995 H 880.499 -3.31609 -2.09231 0
M  V30 8996 H 881.989 -2.90983 -2.99531 0
M  V30 8997 N 882.426 0.269451 -1.5528 0
M  V30 8998 C 883.356 1.33729 -1.91413 0
M  V30 8999 C 884.337 1.51348 -0.776391 0
M  V30 9000 O 885.522 1.64332 -1.03482 0
M  V30 9001 C 882.652 2.69618 -2.18914 0
M  V30 9002 C 881.606 2.66725 -3.34726 0
M  V30 9003 C 880.932 4.06199 -3.47716 0
M  V30 9004 C 882.232 2.25684 -4.71025 0
M  V30 9005 H 883.926 1.03736 -2.80854 0
M  V30 9006 H 881.472 0.497579 -1.3513 0
M  V30 9007 H 883.425 3.44436 -2.42779 0
M  V30 9008 H 882.149 3.01201 -1.26275 0
M  V30 9009 H 880.808 1.94365 -3.10834 0
M  V30 9010 H 880.456 4.3501 -2.52537 0
M  V30 9011 H 880.156 4.05157 -4.25583 0
M  V30 9012 H 881.68 4.8275 -3.73877 0
M  V30 9013 H 883.094 2.90225 -4.94411 0
M  V30 9014 H 881.491 2.35797 -5.51833 0
M  V30 9015 H 882.561 1.20819 -4.69607 0
M  V30 9016 N 883.904 1.48273 0.534124 0
M  V30 9017 C 885.315 1.49667 1.1161 0
M  V30 9018 C 885.666 0.264139 1.94414 0
M  V30 9019 O 884.791 -0.629084 2.07054 0
M  V30 9020 C 885.386 2.71191 2.03079 0
M  V30 9021 C 883.945 2.7547 2.56502 0
M  V30 9022 C 883.092 2.43119 1.33373 0
M  V30 9023 H 886.043 1.55449 0.319578 0
M  V30 9024 H 886.064 2.49473 2.87304 0
M  V30 9025 H 885.576 3.60879 1.42785 0
M  V30 9026 H 883.677 1.89979 3.20529 0
M  V30 9027 H 883.79 3.76787 2.95919 0
M  V30 9028 H 882.154 1.94187 1.64813 0
M  V30 9029 H 882.937 3.35044 0.748375 0
M  V30 9030 N 885.382 -0.782676 1.36792 0
M  V30 9031 C 886.292 -1.92679 1.33835 0
M  V30 9032 C 887.308 -1.72344 0.23952 0
M  V30 9033 O 888.484 -1.95766 0.473045 0
M  V30 9034 C 885.549 -3.27644 1.1336 0
M  V30 9035 C 884.61 -3.6071 2.32781 0
M  V30 9036 C 883.843 -4.89234 2.13273 0
M  V30 9037 O 884.066 -5.59468 1.11136 0
M  V30 9038 O 883 -5.21112 3.01208 0
M  V30 9039 H 886.826 -1.98124 2.30175 0
M  V30 9040 H 884.411 -0.923887 1.17408 0
M  V30 9041 H 886.293 -4.08394 1.03886 0
M  V30 9042 H 884.968 -3.23076 0.200868 0
M  V30 9043 H 883.875 -2.80238 2.47825 0
M  V30 9044 H 885.208 -3.70008 3.24584 0
M  V30 9045 N 886.86 -1.21182 -1.00761 0
M  V30 9046 C 887.792 -0.926523 -2.09638 0
M  V30 9047 C 888.805 0.0892511 -1.62555 0
M  V30 9048 O 889.994 -0.142915 -1.77927 0
M  V30 9049 C 887.094 -0.369175 -3.36883 0
M  V30 9050 C 886.267 -1.43866 -4.13063 0
M  V30 9051 C 885.326 -0.891015 -5.18601 0
M  V30 9052 O 884.352 -1.57384 -5.47009 0
M  V30 9053 N 885.554 0.295057 -5.7975 0
M  V30 9054 H 888.319 -1.8638 -2.34697 0
M  V30 9055 H 885.88 -1.11671 -1.17223 0
M  V30 9056 H 887.872 0.011534 -4.04698 0
M  V30 9057 H 886.442 0.472861 -3.09003 0
M  V30 9058 H 885.662 -1.99332 -3.40089 0
M  V30 9059 H 886.95 -2.15866 -4.60738 0
M  V30 9060 H 886.348 0.8669 -5.59018 0
M  V30 9061 H 884.905 0.617306 -6.4887 0
M  V30 9062 N 888.338 1.20213 -1.01915 0
M  V30 9063 C 889.585 1.89647 -0.709955 0
M  V30 9064 C 889.913 1.7901 0.760631 0
M  V30 9065 O 889.168 1.17028 1.56853 0
M  V30 9066 C 889.467 3.40232 -1.09438 0
M  V30 9067 C 889.133 3.7107 -2.5616 0
M  V30 9068 C 887.795 3.79196 -2.96249 0
M  V30 9069 C 890.147 3.85169 -3.51133 0
M  V30 9070 C 887.475 3.98882 -4.30244 0
M  V30 9071 C 889.827 4.06365 -4.8482 0
M  V30 9072 C 888.491 4.12722 -5.24611 0
M  V30 9073 H 887.761 0.693967 -0.259791 0
M  V30 9074 H 890.408 1.42419 -1.2802 0
M  V30 9075 H 888.713 3.89292 -0.442596 0
M  V30 9076 H 890.41 3.92257 -0.832811 0
M  V30 9077 H 887 3.65346 -2.24099 0
M  V30 9078 H 891.184 3.78243 -3.21319 0
M  V30 9079 H 886.44 4.02039 -4.60624 0
M  V30 9080 H 890.614 4.16216 -5.58334 0
M  V30 9081 H 888.241 4.27728 -6.28453 0
M  V30 9082 N 889.816 0.795718 1.36037 0
M  V30 9083 C 890.746 0.212803 2.32528 0
M  V30 9084 C 891.727 -0.655716 1.56953 0
M  V30 9085 O 892.912 -0.588238 1.85077 0
M  V30 9086 C 890.042 -0.648189 3.41198 0
M  V30 9087 C 888.996 0.120948 4.27829 0
M  V30 9088 C 888.322 -0.861044 5.27722 0
M  V30 9089 C 889.622 1.31375 5.05508 0
M  V30 9090 H 891.316 1.01893 2.81528 0
M  V30 9091 H 888.862 0.491422 1.35355 0
M  V30 9092 H 890.815 -1.06597 4.07695 0
M  V30 9093 H 889.539 -1.48709 2.9078 0
M  V30 9094 H 888.198 0.519777 3.62897 0
M  V30 9095 H 887.846 -1.69515 4.73575 0
M  V30 9096 H 887.546 -0.350808 5.86552 0
M  V30 9097 H 889.07 -1.27726 5.97092 0
M  V30 9098 H 890.484 0.971406 5.6501 0
M  V30 9099 H 888.881 1.75772 5.73781 0
M  V30 9100 H 889.951 2.10593 4.36782 0
M  V30 9101 N 891.294 -1.47756 0.548274 0
M  V30 9102 C 892.542 -2.02089 0.0208542 0
M  V30 9103 C 892.863 -1.42589 -1.33017 0
M  V30 9104 O 892.133 -0.597825 -1.86555 0
M  V30 9105 H 890.713 -0.746985 0.00472023 0
M  V30 9106 H 893.375 -1.81262 0.716257 0
M  V30 9107 H 892.471 -3.12012 -0.0739016 0
M  V30 9108 N 892.772 -0.284283 -1.55015 0
M  V30 9109 C 893.72 0.615091 -2.2432 0
M  V30 9110 C 894.714 1.15051 -1.24337 0
M  V30 9111 O 895.92 1.10308 -1.4224 0
M  V30 9112 H 892.295 0.216927 -0.720033 0
M  V30 9113 H 894.266 0.00783216 -2.98399 0
M  V30 9114 C 893.015 1.78355 -2.98471 0
M  V30 9115 H 892.338 1.38076 -3.752 0
M  V30 9116 H 893.778 2.38927 -3.50271 0
M  V30 9117 C 892.237 2.67757 -2.04469 0
M  V30 9118 O 892.767 3.6838 -1.60185 0
M  V30 9119 N 890.973 2.35125 -1.70776 0
M  V30 9120 H 890.52 1.53346 -2.06985 0
M  V30 9121 H 890.478 2.95212 -1.08153 0
M  V30 9122 N 894.251 1.57596 -0.0117121 0
M  V30 9123 C 895.198 2.09153 0.975897 0
M  V30 9124 C 896.168 0.989579 1.33404 0
M  V30 9125 O 897.353 1.26273 1.43038 0
M  V30 9126 C 894.493 2.60906 2.2588 0
M  V30 9127 C 893.606 3.85046 1.95866 0
M  V30 9128 C 892.741 4.25257 3.18323 0
M  V30 9129 C 891.78 5.42202 2.84049 0
M  V30 9130 N 890.917 5.77651 3.99079 0
M  V30 9131 H 895.757 2.93261 0.52931 0
M  V30 9132 H 893.294 1.44965 0.249691 0
M  V30 9133 H 895.252 2.88995 3.00895 0
M  V30 9134 H 893.882 1.79654 2.68187 0
M  V30 9135 H 892.934 3.63794 1.11168 0
M  V30 9136 H 894.246 4.70151 1.66611 0
M  V30 9137 H 893.4 4.5469 4.01674 0
M  V30 9138 H 892.139 3.38884 3.50726 0
M  V30 9139 H 891.144 5.1248 1.99107 0
M  V30 9140 H 892.369 6.3026 2.52881 0
M  V30 9141 H 890.315 4.94235 4.31356 0
M  V30 9142 H 890.232 6.57356 3.73388 0
M  V30 9143 H 891.5 6.11681 4.83183 0
M  V30 9144 N 895.729 -0.261212 1.5542 0
M  V30 9145 C 896.975 -0.992699 1.76843 0
M  V30 9146 C 897.308 -1.8551 0.574428 0
M  V30 9147 O 896.583 -1.89739 -0.427713 0
M  V30 9148 C 896.866 -1.86532 3.08022 0
M  V30 9149 C 896.719 -1.03206 4.378 0
M  V30 9150 C 898.038 -2.85036 3.35324 0
M  V30 9151 H 895.157 -0.359473 0.643388 0
M  V30 9152 H 897.799 -0.264214 1.88154 0
M  V30 9153 H 895.949 -2.48644 2.9851 0
M  V30 9154 H 897.621 -0.430743 4.59285 0
M  V30 9155 H 895.864 -0.335911 4.32497 0
M  V30 9156 H 896.535 -1.6761 5.25938 0
M  V30 9157 H 899.011 -2.3306 3.44706 0
M  V30 9158 H 897.887 -3.43226 4.28354 0
M  V30 9159 H 898.148 -3.60768 2.55537 0
M  V30 9160 N 897.207 -1.48554 -0.526253 0
M  V30 9161 C 898.484 -1.47252 -1.28748 0
M  V30 9162 C 898.864 -0.186245 -2.10277 0
M  V30 9163 O 898.212 0.831954 -2.12816 0
M  V30 9164 C 898.422 -2.73672 -2.16575 0
M  V30 9165 C 899.77 -3.22151 -2.76593 0
M  V30 9166 O 900.794 -2.74614 -2.2686 0
M  V30 9167 O 899.653 -4.04877 -3.67066 0
M  V30 9168 H 896.747 -0.588242 -0.581292 0
M  V30 9169 H 899.293 -1.60792 -0.5426 0
M  V30 9170 H 898.065 -3.58798 -1.56139 0
M  V30 9171 H 897.688 -2.6287 -2.98304 0
M  V30 9172 N 898.685 0.775411 -1.37205 0
M  V30 9173 C 899.91 1.5696 -1.35567 0
M  V30 9174 C 900.335 1.88012 0.0575554 0
M  V30 9175 O 899.693 1.48954 1.03355 0
M  V30 9176 C 899.741 2.85886 -2.19776 0
M  V30 9177 O 898.845 3.80103 -1.59987 0
M  V30 9178 H 898.186 0.475583 -0.463375 0
M  V30 9179 H 900.716 0.96001 -1.80679 0
M  V30 9180 H 900.726 3.35024 -2.32859 0
M  V30 9181 H 899.401 2.62613 -3.22502 0
M  V30 9182 H 897.978 3.38736 -1.55924 0
M  V30 9183 N 900.163 1.21714 1.00117 0
M  V30 9184 C 901.393 1.06124 1.77261 0
M  V30 9185 C 901.801 -0.391717 1.85101 0
M  V30 9186 O 901.144 -1.28347 1.31426 0
M  V30 9187 C 901.206 1.58778 3.22536 0
M  V30 9188 C 900.87 3.07289 3.38264 0
M  V30 9189 C 901.867 4.04801 3.26239 0
M  V30 9190 C 899.552 3.46574 3.63582 0
M  V30 9191 C 901.546 5.39585 3.39303 0
M  V30 9192 C 899.233 4.81509 3.76288 0
M  V30 9193 C 900.231 5.77824 3.64155 0
M  V30 9194 O 899.919 7.1031 3.7645 0
M  V30 9195 H 899.651 0.372979 0.563793 0
M  V30 9196 H 902.205 1.61589 1.26799 0
M  V30 9197 H 900.435 0.977129 3.74151 0
M  V30 9198 H 902.124 1.38974 3.81367 0
M  V30 9199 H 902.89 3.75795 3.066 0
M  V30 9200 H 898.769 2.72137 3.72106 0
M  V30 9201 H 902.313 6.14744 3.2975 0
M  V30 9202 H 898.21 5.102 3.95432 0
M  V30 9203 H 898.978 7.17774 3.93374 0
M  V30 9204 N 901.641 -1.19671 1.02551 0
M  V30 9205 C 902.889 -1.88894 0.71858 0
M  V30 9206 C 903.21 -1.79797 -0.754856 0
M  V30 9207 O 902.48 -1.20621 -1.54362 0
M  V30 9208 H 901.06 -0.699244 0.262806 0
M  V30 9209 H 903.722 -1.45298 1.29902 0
M  V30 9210 H 902.818 -2.95309 1.00989 0
M  V30 9211 N 903.119 -0.802921 -1.35613 0
M  V30 9212 C 904.367 -0.380822 -1.9848 0
M  V30 9213 C 904.688 1.05464 -1.6402 0
M  V30 9214 O 903.958 1.72908 -0.920854 0
M  V30 9215 H 902.538 -0.137824 -0.734176 0
M  V30 9216 H 905.2 -1.02795 -1.65587 0
M  V30 9217 H 904.296 -0.483565 -3.08331 0
M  V30 9218 N 904.597 1.47463 -0.556102 0
M  V30 9219 C 905.822 2.07371 -0.0344729 0
M  V30 9220 C 906.247 1.40621 1.2493 0
M  V30 9221 O 905.605 0.48082 1.74808 0
M  V30 9222 C 905.653 3.60306 0.145563 0
M  V30 9223 O 904.757 3.94299 1.20839 0
M  V30 9224 H 904.098 0.662052 -0.0508274 0
M  V30 9225 H 906.628 1.89498 -0.771469 0
M  V30 9226 H 906.638 4.06408 0.360112 0
M  V30 9227 H 905.313 4.08288 -0.792089 0
M  V30 9228 H 903.89 3.59944 0.97442 0
M  V30 9229 N 906.075 0.2925 1.54862 0
M  V30 9230 C 907.005 -0.580677 2.26165 0
M  V30 9231 C 907.986 -1.14485 1.25806 0
M  V30 9232 O 909.171 -1.17577 1.54562 0
M  V30 9233 C 906.301 -1.75668 2.99596 0
M  V30 9234 C 905.255 -1.32325 4.07031 0
M  V30 9235 C 904.581 -2.58374 4.68131 0
M  V30 9236 C 905.881 -0.460703 5.20264 0
M  V30 9237 H 907.575 0.0140075 2.99397 0
M  V30 9238 H 905.121 0.00817706 1.43998 0
M  V30 9239 H 907.074 -2.37356 3.48195 0
M  V30 9240 H 905.798 -2.37747 2.23928 0
M  V30 9241 H 904.457 -0.729477 3.59269 0
M  V30 9242 H 904.105 -3.18749 3.89112 0
M  V30 9243 H 903.805 -2.30078 5.40683 0
M  V30 9244 H 905.329 -3.2088 5.19489 0
M  V30 9245 H 906.743 -0.983037 5.64809 0
M  V30 9246 H 905.14 -0.271881 5.99484 0
M  V30 9247 H 906.21 0.516304 4.82143 0
M  V30 9248 N 907.553 -1.57587 0.0200696 0
M  V30 9249 C 908.969 -1.56018 -0.336237 0
M  V30 9250 C 909.169 -1.02478 -1.73495 0
M  V30 9251 O 908.225 -0.667487 -2.43518 0
M  V30 9252 C 909.538 -3.00079 -0.193112 0
M  V30 9253 C 911.086 -3.11863 -0.266557 0
M  V30 9254 C 911.561 -4.57747 -0.152326 0
M  V30 9255 N 913.052 -4.62726 -0.209596 0
M  V30 9256 C 913.787 -5.73217 -0.144855 0
M  V30 9257 N 913.283 -6.92794 -0.0295487 0
M  V30 9258 N 915.076 -5.61751 -0.198184 0
M  V30 9259 H 907.227 -1.90722 0.93482 0
M  V30 9260 H 909.49 -0.876909 0.360186 0
M  V30 9261 H 909.196 -3.43167 0.770036 0
M  V30 9262 H 909.07 -3.64593 -0.967029 0
M  V30 9263 H 911.457 -2.68693 -1.22016 0
M  V30 9264 H 911.538 -2.50087 0.53758 0
M  V30 9265 H 911.182 -5.01595 0.797817 0
M  V30 9266 H 911.112 -5.17491 -0.97521 0
M  V30 9267 H 913.603 -3.76713 -0.299229 0
M  V30 9268 H 913.916 -7.72799 0.0134071 0
M  V30 9269 H 912.261 -6.95 0.00510737 0
M  V30 9270 H 915.452 -4.67222 -0.286603 0
M  V30 9271 H 915.625 -6.47839 -0.144266 0
M  V30 9272 N 909.032 0.252966 -1.55557 0
M  V30 9273 C 910.262 0.998115 -1.8089 0
M  V30 9274 C 910.67 1.79679 -0.592623 0
M  V30 9275 O 910.013 1.78151 0.448093 0
M  V30 9276 C 910.075 1.98878 -2.99479 0
M  V30 9277 C 909.739 1.37761 -4.35742 0
M  V30 9278 C 910.736 0.783142 -5.13968 0
M  V30 9279 C 908.421 1.39879 -4.8243 0
M  V30 9280 C 910.415 0.218004 -6.37027 0
M  V30 9281 C 908.102 0.829801 -6.0544 0
M  V30 9282 C 909.1 0.240426 -6.82577 0
M  V30 9283 O 908.788 -0.319797 -8.03264 0
M  V30 9284 H 908.52 0.29963 -0.605969 0
M  V30 9285 H 911.074 0.282978 -2.03441 0
M  V30 9286 H 909.304 2.74206 -2.72669 0
M  V30 9287 H 910.993 2.59686 -3.11959 0
M  V30 9288 H 911.759 0.759326 -4.79019 0
M  V30 9289 H 907.638 1.84692 -4.22386 0
M  V30 9290 H 911.182 -0.242654 -6.97178 0
M  V30 9291 H 907.079 0.850924 -6.39867 0
M  V30 9292 H 907.847 -0.211078 -8.18228 0
M  V30 9293 N 910.51 1.48831 0.518367 0
M  V30 9294 C 911.458 1.64678 1.64268 0
M  V30 9295 C 912.452 0.512967 1.61447 0
M  V30 9296 O 913.658 0.692063 1.66164 0
M  V30 9297 H 910.033 0.518964 0.544224 0
M  V30 9298 H 912.004 2.59083 1.4805 0
M  V30 9299 C 910.753 1.71449 3.0249 0
M  V30 9300 H 910.076 2.58061 3.0536 0
M  V30 9301 H 911.516 1.86577 3.80743 0
M  V30 9302 C 909.975 0.455584 3.33805 0
M  V30 9303 O 910.505 -0.426428 3.9943 0
M  V30 9304 N 908.711 0.323763 2.88791 0
M  V30 9305 H 908.258 1.04249 2.35563 0
M  V30 9306 H 908.216 -0.517514 3.10112 0
M  V30 9307 N 911.988 -0.768124 1.37614 0
M  V30 9308 C 913.234 -1.52907 1.33219 0
M  V30 9309 C 913.567 -1.94026 -0.0821218 0
M  V30 9310 O 912.842 -1.64345 -1.04023 0
M  V30 9311 C 913.125 -2.79164 2.27463 0
M  V30 9312 C 912.978 -2.44276 3.7769 0
M  V30 9313 C 914.297 -3.81115 2.20089 0
M  V30 9314 H 911.416 -0.554712 0.485246 0
M  V30 9315 H 914.058 -0.880911 1.68345 0
M  V30 9316 H 912.208 -3.34472 1.97639 0
M  V30 9317 H 913.88 -1.94855 4.18126 0
M  V30 9318 H 912.123 -1.76925 3.96081 0
M  V30 9319 H 912.794 -3.34544 4.39072 0
M  V30 9320 H 915.27 -3.35311 2.46386 0
M  V30 9321 H 914.146 -4.67174 2.88166 0
M  V30 9322 H 914.407 -4.25644 1.19498 0
M  V30 9323 N 913.466 -1.22244 -0.994698 0
M  V30 9324 C 914.882 -0.982006 -1.25813 0
M  V30 9325 C 915.082 0.325488 -1.98854 0
M  V30 9326 O 914.138 1.04857 -2.29698 0
M  V30 9327 C 915.451 -2.1795 -2.07167 0
M  V30 9328 C 916.999 -2.22287 -2.20358 0
M  V30 9329 C 917.474 -3.41583 -3.05098 0
M  V30 9330 N 918.965 -3.41734 -3.12686 0
M  V30 9331 C 919.7 -4.30692 -3.78539 0
M  V30 9332 N 919.196 -5.29865 -4.46335 0
M  V30 9333 N 920.989 -4.18473 -3.75283 0
M  V30 9334 H 913.14 -2.0631 -0.504963 0
M  V30 9335 H 915.403 -0.90395 -0.285618 0
M  V30 9336 H 915.109 -3.12758 -1.60858 0
M  V30 9337 H 914.983 -2.17862 -3.07922 0
M  V30 9338 H 917.37 -1.28028 -2.65881 0
M  V30 9339 H 917.451 -2.26414 -1.19039 0
M  V30 9340 H 917.095 -4.36141 -2.60275 0
M  V30 9341 H 917.025 -3.34695 -4.06555 0
M  V30 9342 H 919.516 -2.69969 -2.64433 0
M  V30 9343 H 919.829 -5.94027 -4.9432 0
M  V30 9344 H 918.174 -5.3378 -4.45089 0
M  V30 9345 H 921.365 -3.40249 -3.21478 0
M  V30 9346 H 921.538 -4.88007 -4.26326 0
M  V30 9347 N 914.944 1.19125 -1.03184 0
M  V30 9348 C 916.174 1.92558 -0.748663 0
M  V30 9349 C 916.582 1.759 0.696837 0
M  V30 9350 O 915.925 1.08019 1.48585 0
M  V30 9351 C 915.987 3.4461 -1.02391 0
M  V30 9352 C 915.651 3.85041 -2.46155 0
M  V30 9353 C 916.648 3.89554 -3.44302 0
M  V30 9354 C 914.333 4.16594 -2.80633 0
M  V30 9355 C 916.327 4.25055 -4.74981 0
M  V30 9356 C 914.014 4.51767 -4.11521 0
M  V30 9357 C 915.012 4.55972 -5.08506 0
M  V30 9358 O 914.7 4.9033 -6.37049 0
M  V30 9359 H 914.432 0.618397 -0.273059 0
M  V30 9360 H 916.986 1.52122 -1.38015 0
M  V30 9361 H 915.216 3.85244 -0.335284 0
M  V30 9362 H 916.905 3.99283 -0.729927 0
M  V30 9363 H 917.671 3.65324 -3.19003 0
M  V30 9364 H 913.55 4.12503 -2.05821 0
M  V30 9365 H 917.094 4.28252 -5.50678 0
M  V30 9366 H 912.991 4.75455 -4.36592 0
M  V30 9367 H 913.759 5.08266 -6.41566 0
M  V30 9368 N 916.422 0.810101 1.35185 0
M  V30 9369 C 917.332 0.224565 2.33523 0
M  V30 9370 C 918.348 -0.634287 1.62027 0
M  V30 9371 O 919.524 -0.545211 1.9388 0
M  V30 9372 C 916.589 -0.614319 3.41214 0
M  V30 9373 C 915.65 0.265435 4.28479 0
M  V30 9374 C 914.883 -0.533506 5.31027 0
M  V30 9375 O 915.106 -1.7679 5.42311 0
M  V30 9376 O 914.04 0.0774573 6.0185 0
M  V30 9377 H 917.866 1.03815 2.85405 0
M  V30 9378 H 915.451 0.571964 1.38018 0
M  V30 9379 H 917.333 -1.09201 4.07005 0
M  V30 9380 H 916.008 -1.40545 2.91597 0
M  V30 9381 H 914.915 0.790343 3.65656 0
M  V30 9382 H 916.248 1.0206 4.81503 0
M  V30 9383 N 917.9 -1.47166 0.563914 0
M  V30 9384 C 918.83 -2.32894 -0.168148 0
M  V30 9385 C 919.811 -1.44202 -0.902214 0
M  V30 9386 O 920.996 -1.73048 -0.881365 0
M  V30 9387 C 918.126 -3.26116 -1.19439 0
M  V30 9388 C 917.08 -4.24101 -0.576363 0
M  V30 9389 C 916.406 -5.06696 -1.70772 0
M  V30 9390 C 917.706 -5.20142 0.47425 0
M  V30 9391 H 919.4 -2.9435 0.547573 0
M  V30 9392 H 916.946 -1.41545 0.264778 0
M  V30 9393 H 918.899 -3.84935 -1.71474 0
M  V30 9394 H 917.623 -2.62728 -1.94014 0
M  V30 9395 H 916.282 -3.66519 -0.0772534 0
M  V30 9396 H 915.93 -4.39707 -2.44268 0
M  V30 9397 H 915.63 -5.7304 -1.29994 0
M  V30 9398 H 917.154 -5.68375 -2.2312 0
M  V30 9399 H 918.568 -5.73286 0.0397035 0
M  V30 9400 H 916.965 -5.94726 0.801287 0
M  V30 9401 H 918.035 -4.65214 1.36764 0
M  V30 9402 N 919.378 -0.300708 -1.54705 0
M  V30 9403 C 920.341 0.562648 -2.22187 0
M  V30 9404 C 921.341 1.06152 -1.20782 0
M  V30 9405 O 922.531 0.957596 -1.45519 0
M  V30 9406 C 919.663 1.77899 -2.908 0
M  V30 9407 H 920.856 -0.0269361 -2.99888 0
M  V30 9408 H 918.409 -0.0515412 -1.56215 0
M  V30 9409 H 919.144 2.40841 -2.17177 0
M  V30 9410 H 918.929 1.42892 -3.65136 0
M  V30 9411 H 920.419 2.39236 -3.42281 0
M  V30 9412 N 920.856 1.57574 -0.0284266 0
M  V30 9413 C 922.272 1.56194 0.327958 0
M  V30 9414 C 922.472 1.03397 1.72949 0
M  V30 9415 O 921.528 0.680392 2.4316 0
M  V30 9416 C 922.841 3.00177 0.177196 0
M  V30 9417 C 924.389 3.12 0.250014 0
M  V30 9418 C 924.864 4.57821 0.128049 0
M  V30 9419 N 926.355 4.6283 0.185054 0
M  V30 9420 C 927.09 5.73286 0.114454 0
M  V30 9421 N 926.586 6.928 -0.00719225 0
M  V30 9422 N 928.379 5.61848 0.16839 0
M  V30 9423 H 920.53 1.90224 -0.944921 0
M  V30 9424 H 922.793 0.874987 -0.364832 0
M  V30 9425 H 922.499 3.42753 -0.788224 0
M  V30 9426 H 922.373 3.65101 0.94768 0
M  V30 9427 H 924.76 2.69337 1.20589 0
M  V30 9428 H 924.841 2.49799 -0.550835 0
M  V30 9429 H 924.485 5.01165 -0.824407 0
M  V30 9430 H 924.415 5.18001 0.947753 0
M  V30 9431 H 926.906 3.76867 0.279247 0
M  V30 9432 H 927.219 7.72781 -0.0543903 0
M  V30 9433 H 925.564 6.94987 -0.0419648 0
M  V30 9434 H 928.755 4.67367 0.261821 0
M  V30 9435 H 928.928 6.47907 0.109908 0
M  V30 9436 N 922.334 -0.244713 1.55689 0
M  V30 9437 C 923.582 -0.970525 1.77272 0
M  V30 9438 C 923.903 -1.85771 0.592804 0
M  V30 9439 O 923.173 -1.91952 -0.391323 0
M  V30 9440 H 921.753 -0.361342 0.653789 0
M  V30 9441 H 924.415 -0.262134 1.93129 0
M  V30 9442 H 923.511 -1.59096 2.68505 0
M  V30 9443 N 923.813 -1.49104 -0.510467 0
M  V30 9444 C 924.746 -1.59667 -1.63039 0
M  V30 9445 C 925.724 -0.446145 -1.5636 0
M  V30 9446 O 926.908 -0.660414 -1.76552 0
M  V30 9447 C 924.035 -1.54282 -3.01521 0
M  V30 9448 C 923.081 -2.74415 -3.26494 0
M  V30 9449 S 923.914 -4.3619 -3.10643 0
M  V30 9450 C 925.07 -4.33435 -4.51536 0
M  V30 9451 H 925.303 -2.54407 -1.53833 0
M  V30 9452 H 922.836 -1.37878 -0.694916 0
M  V30 9453 H 924.794 -1.51861 -3.81377 0
M  V30 9454 H 923.455 -0.608458 -3.0815 0
M  V30 9455 H 922.648 -2.66841 -4.27565 0
M  V30 9456 H 922.25 -2.74199 -2.54344 0
M  V30 9457 H 924.542 -4.04571 -5.43441 0
M  V30 9458 H 925.485 -5.34752 -4.64162 0
M  V30 9459 H 925.893 -3.63638 -4.31773 0
M  V30 9460 N 925.291 0.760815 -1.38019 0
M  V30 9461 C 926.221 1.88811 -1.37377 0
M  V30 9462 C 927.202 1.68388 -0.240737 0
M  V30 9463 O 928.387 1.89086 -0.442739 0
M  V30 9464 C 925.517 3.26244 -1.1909 0
M  V30 9465 C 924.471 3.61254 -2.29521 0
M  V30 9466 C 923.797 4.97346 -1.96345 0
M  V30 9467 C 925.097 3.66874 -3.71753 0
M  V30 9468 H 926.791 1.89606 -2.31711 0
M  V30 9469 H 924.337 0.910818 -1.11535 0
M  V30 9470 H 926.29 4.04755 -1.17267 0
M  V30 9471 H 925.014 3.2591 -0.212152 0
M  V30 9472 H 923.673 2.85057 -2.30517 0
M  V30 9473 H 923.321 4.93564 -0.969728 0
M  V30 9474 H 923.021 5.21739 -2.703 0
M  V30 9475 H 924.545 5.78244 -1.96129 0
M  V30 9476 H 925.959 4.35514 -3.72828 0
M  V30 9477 H 924.356 4.02772 -4.44853 0
M  V30 9478 H 925.426 2.67273 -4.0459 0
M  V30 9479 N 926.769 1.22769 0.988202 0
M  V30 9480 C 927.679 1.01844 2.11341 0
M  V30 9481 C 928.695 -0.0346937 1.73965 0
M  V30 9482 O 929.871 0.159061 2.00771 0
M  V30 9483 C 926.936 0.603837 3.41401 0
M  V30 9484 C 925.997 1.73113 3.92849 0
M  V30 9485 C 925.23 1.33621 5.16702 0
M  V30 9486 O 925.453 0.217041 5.69987 0
M  V30 9487 O 924.387 2.15444 5.62021 0
M  V30 9488 H 928.213 1.96127 2.31879 0
M  V30 9489 H 925.798 1.01405 1.09715 0
M  V30 9490 H 927.68 0.383196 4.19654 0
M  V30 9491 H 926.355 -0.310082 3.22211 0
M  V30 9492 H 925.262 2.00634 3.15748 0
M  V30 9493 H 926.595 2.62308 4.1648 0
M  V30 9494 N 928.247 -1.18576 1.03814 0
M  V30 9495 C 929.658 -1.70159 0.768299 0
M  V30 9496 C 930.009 -1.8286 -0.711106 0
M  V30 9497 O 929.134 -1.5063 -1.55369 0
M  V30 9498 C 929.729 -3.09062 1.38804 0
M  V30 9499 C 928.288 -3.57866 1.16656 0
M  V30 9500 C 927.435 -2.34484 1.48029 0
M  V30 9501 H 930.386 -1.03287 1.20488 0
M  V30 9502 H 930.407 -3.72211 0.7899 0
M  V30 9503 H 929.919 -2.99785 2.46476 0
M  V30 9504 H 928.02 -3.72442 0.108471 0
M  V30 9505 H 928.133 -4.41445 1.8618 0
M  V30 9506 H 926.497 -2.38273 0.899902 0
M  V30 9507 H 927.28 -2.27829 2.56805 0
M  V30 9508 N 929.725 -0.817259 -1.34754 0
M  V30 9509 C 930.971 -0.403244 -1.98751 0
M  V30 9510 C 931.304 1.02963 -1.64658 0
M  V30 9511 O 930.579 1.71617 -0.915314 0
M  V30 9512 C 930.862 -0.599188 -3.5508 0
M  V30 9513 C 930.715 -2.07777 -3.98934 0
M  V30 9514 C 932.034 -0.0315656 -4.40089 0
M  V30 9515 H 929.153 -0.147988 -0.721989 0
M  V30 9516 H 931.795 -1.02877 -1.59738 0
M  V30 9517 H 929.945 -0.0667116 -3.88443 0
M  V30 9518 H 931.617 -2.67345 -3.75931 0
M  V30 9519 H 929.86 -2.57031 -3.49453 0
M  V30 9520 H 930.531 -2.16571 -5.07741 0
M  V30 9521 H 933.007 -0.48644 -4.13247 0
M  V30 9522 H 931.883 -0.198507 -5.48541 0
M  V30 9523 H 932.144 1.06302 -4.2913 0
M  V30 9524 N 931.203 1.46865 -0.571711 0
M  V30 9525 C 932.135 2.28277 0.205479 0
M  V30 9526 C 933.148 1.37866 0.865835 0
M  V30 9527 O 934.337 1.62564 0.737247 0
M  V30 9528 C 931.437 3.12572 1.30965 0
M  V30 9529 C 930.61 4.31038 0.743328 0
M  V30 9530 C 929.669 4.96815 1.73382 0
M  V30 9531 O 928.695 5.54755 1.2742 0
M  V30 9532 N 929.897 4.92825 3.06764 0
M  V30 9533 H 932.662 2.95618 -0.49294 0
M  V30 9534 H 930.223 1.56655 -0.408744 0
M  V30 9535 H 932.215 3.53442 1.97131 0
M  V30 9536 H 930.785 2.47378 1.91109 0
M  V30 9537 H 930.005 3.94084 -0.0955004 0
M  V30 9538 H 931.293 5.07632 0.344556 0
M  V30 9539 H 930.691 4.46978 3.46738 0
M  V30 9540 H 929.248 5.3767 3.68449 0
M  V30 9541 N 932.681 0.308908 1.54543 0
M  V30 9542 C 934.097 -0.0442273 1.59539 0
M  V30 9543 C 934.297 -1.51743 1.32575 0
M  V30 9544 O 933.353 -2.27134 1.10302 0
M  V30 9545 C 934.666 0.360826 2.98527 0
M  V30 9546 C 936.214 0.310252 3.11459 0
M  V30 9547 C 936.689 0.690246 4.52769 0
M  V30 9548 N 938.18 0.643084 4.58714 0
M  V30 9549 C 938.915 0.909483 5.66141 0
M  V30 9550 N 938.411 1.24226 6.81572 0
M  V30 9551 N 940.204 0.836018 5.55848 0
M  V30 9552 H 932.355 1.26893 1.70329 0
M  V30 9553 H 934.618 0.514986 0.795923 0
M  V30 9554 H 934.324 1.38669 3.23209 0
M  V30 9555 H 934.198 -0.281563 3.76148 0
M  V30 9556 H 936.585 -0.706375 2.86521 0
M  V30 9557 H 936.666 0.987373 2.35976 0
M  V30 9558 H 936.31 1.70472 4.78437 0
M  V30 9559 H 936.24 -0.00903075 5.26599 0
M  V30 9560 H 938.731 0.397138 3.75807 0
M  V30 9561 H 939.044 1.4313 7.5943 0
M  V30 9562 H 937.389 1.28038 6.83104 0
M  V30 9563 H 940.58 0.575637 4.64547 0
M  V30 9564 H 940.753 1.047 6.39486 0
M  V30 9565 N 934.159 -1.57557 0.0367827 0
M  V30 9566 C 935.57 -1.79853 -0.500971 0
M  V30 9567 C 935.921 -0.947749 -1.71791 0
M  V30 9568 O 935.046 -0.160287 -2.15806 0
M  V30 9569 C 935.641 -3.26193 -0.915626 0
M  V30 9570 C 934.2 -3.49457 -1.39845 0
M  V30 9571 C 933.347 -2.74864 -0.366784 0
M  V30 9572 H 936.298 -1.56509 0.262768 0
M  V30 9573 H 936.319 -3.36324 -1.7795 0
M  V30 9574 H 935.831 -3.88089 -0.0297227 0
M  V30 9575 H 933.932 -2.92823 -2.30402 0
M  V30 9576 H 934.045 -4.58172 -1.40054 0
M  V30 9577 H 932.409 -2.4057 -0.836554 0
M  V30 9578 H 933.192 -3.39479 0.510785 0
M  V30 9579 N 935.637 0.236453 -1.55816 0
M  V30 9580 C 936.914 0.986463 -1.68903 0
M  V30 9581 C 937.294 2.02984 -0.579722 0
M  V30 9582 O 936.642 2.24693 0.415389 0
M  V30 9583 C 936.852 1.61038 -3.09625 0
M  V30 9584 C 938.2 2.10829 -3.6856 0
M  V30 9585 O 939.224 1.7096 -3.12492 0
M  V30 9586 O 938.083 2.84064 -4.66873 0
M  V30 9587 H 935.177 0.459837 -0.687371 0
M  V30 9588 H 937.723 0.229412 -1.68142 0
M  V30 9589 H 936.495 0.856232 -3.81817 0
M  V30 9590 H 936.118 2.43336 -3.14441 0
M  V30 9591 N 937.115 1.49373 0.502552 0
M  V30 9592 C 938.361 1.59016 1.25864 0
M  V30 9593 C 938.694 0.27532 1.92238 0
M  V30 9594 O 937.969 -0.720988 1.80643 0
M  V30 9595 C 938.252 2.74828 2.32683 0
M  V30 9596 C 938.105 4.16102 1.7082 0
M  V30 9597 C 939.424 2.86288 3.34256 0
M  V30 9598 H 936.543 0.578798 0.456248 0
M  V30 9599 H 939.185 1.81651 0.557032 0
M  V30 9600 H 937.335 2.5566 2.92524 0
M  V30 9601 H 939.007 4.46782 1.14818 0
M  V30 9602 H 937.25 4.21822 1.01238 0
M  V30 9603 H 937.921 4.93006 2.48292 0
M  V30 9604 H 940.397 3.03733 2.84404 0
M  V30 9605 H 939.273 3.69001 4.06362 0
M  V30 9606 H 939.534 1.95576 3.96488 0
M  V30 9607 N 938.594 -0.753485 1.38421 0
M  V30 9608 C 939.84 -1.51485 1.34834 0
M  V30 9609 C 940.173 -1.94102 -0.0615381 0
M  V30 9610 O 939.448 -1.65439 -1.02274 0
M  V30 9611 C 939.731 -2.76736 2.30411 0
M  V30 9612 C 939.584 -2.40256 3.80259 0
M  V30 9613 C 940.903 -3.7876 2.24119 0
M  V30 9614 H 938.022 -0.549534 0.491102 0
M  V30 9615 H 940.664 -0.863006 1.6927 0
M  V30 9616 H 938.814 -3.32357 2.01175 0
M  V30 9617 H 940.486 -1.90409 4.20169 0
M  V30 9618 H 938.729 -1.72714 3.97935 0
M  V30 9619 H 939.4 -3.29869 4.42595 0
M  V30 9620 H 941.876 -3.32679 2.49928 0
M  V30 9621 H 940.752 -4.64092 2.93104 0
M  V30 9622 H 941.013 -4.24352 1.24006 0
M  V30 9623 N 940.072 -1.23292 -0.981677 0
M  V30 9624 C 941.002 -1.03738 -2.09191 0
M  V30 9625 C 941.983 0.0453041 -1.7004 0
M  V30 9626 O 943.168 -0.119092 -1.93834 0
M  V30 9627 C 940.298 -0.626426 -3.41604 0
M  V30 9628 C 939.252 -1.65631 -3.94652 0
M  V30 9629 C 938.578 -1.10084 -5.23245 0
M  V30 9630 C 939.878 -3.04903 -4.24066 0
M  V30 9631 H 941.572 -1.966 -2.25807 0
M  V30 9632 H 939.118 -0.946656 -1.0851 0
M  V30 9633 H 941.071 -0.476689 -4.18695 0
M  V30 9634 H 939.795 0.337873 -3.24848 0
M  V30 9635 H 938.454 -1.79402 -3.19704 0
M  V30 9636 H 938.102 -0.127562 -5.02838 0
M  V30 9637 H 937.802 -1.78896 -5.59705 0
M  V30 9638 H 939.326 -0.962928 -6.02959 0
M  V30 9639 H 940.74 -2.94441 -4.91912 0
M  V30 9640 H 939.137 -3.70941 -4.71724 0
M  V30 9641 H 940.207 -3.53991 -3.31389 0
M  V30 9642 N 941.55 1.18024 -1.04442 0
M  V30 9643 C 942.483 2.20623 -0.583171 0
M  V30 9644 C 943.461 1.57994 0.384262 0
M  V30 9645 O 944.645 1.86135 0.297673 0
M  V30 9646 C 941.772 3.38378 0.147561 0
M  V30 9647 C 940.818 4.19423 -0.773711 0
M  V30 9648 S 941.651 4.85534 -2.25869 0
M  V30 9649 C 942.807 6.06686 -1.53891 0
M  V30 9650 H 943.04 2.59406 -1.45244 0
M  V30 9651 H 940.573 1.28518 -0.855708 0
M  V30 9652 H 942.531 4.06621 0.562988 0
M  V30 9653 H 941.192 2.97998 0.992765 0
M  V30 9654 H 940.385 5.03568 -0.208694 0
M  V30 9655 H 939.987 3.56579 -1.12816 0
M  V30 9656 H 942.279 6.72347 -0.834045 0
M  V30 9657 H 943.222 6.67702 -2.35755 0
M  V30 9658 H 943.63 5.55031 -1.02961 0
M  V30 9659 N 943.028 0.824394 1.34319 0
M  V30 9660 C 944.276 0.41235 1.97849 0
M  V30 9661 C 944.597 -1.02841 1.65677 0
M  V30 9662 O 943.867 -1.71421 0.948245 0
M  V30 9663 H 942.447 0.149486 0.73189 0
M  V30 9664 H 945.109 1.05416 1.63931 0
M  V30 9665 H 944.205 0.532557 3.07523 0
M  V30 9666 N 944.506 -1.46559 0.579492 0
M  V30 9667 C 945.469 -2.28739 -0.145371 0
M  V30 9668 C 946.469 -1.38211 -0.821854 0
M  V30 9669 O 947.659 -1.6062 -0.674302 0
M  V30 9670 C 944.791 -3.18507 -1.21515 0
M  V30 9671 H 945.984 -2.94301 0.576786 0
M  V30 9672 H 943.537 -1.52616 0.337327 0
M  V30 9673 H 944.272 -2.57685 -1.96899 0
M  V30 9674 H 944.057 -3.85157 -0.734616 0
M  V30 9675 H 945.547 -3.80369 -1.72363 0
M  V30 9676 N 945.984 -0.3171 -1.54377 0
M  V30 9677 C 947.232 0.286842 -2.00054 0
M  V30 9678 C 947.553 1.53161 -1.20692 0
M  V30 9679 O 946.823 1.93479 -0.307045 0
M  V30 9680 H 945.403 0.108979 -0.739008 0
M  V30 9681 H 948.065 -0.432152 -1.90049 0
M  V30 9682 H 947.161 0.547729 -3.07256 0
M  V30 9683 N 947.462 1.57535 -0.0451378 0
M  V30 9684 C 948.692 1.96476 0.638814 0
M  V30 9685 C 949.1 0.921056 1.65267 0
M  V30 9686 O 948.443 -0.103843 1.83406 0
M  V30 9687 C 948.505 3.31629 1.38788 0
M  V30 9688 C 948.169 4.5391 0.530545 0
M  V30 9689 C 949.166 5.19512 -0.200864 0
M  V30 9690 C 946.851 5.00159 0.463242 0
M  V30 9691 C 948.845 6.29695 -0.988078 0
M  V30 9692 C 946.532 6.10221 -0.327665 0
M  V30 9693 C 947.53 6.74849 -1.05202 0
M  V30 9694 O 947.218 7.82795 -1.82993 0
M  V30 9695 H 946.95 0.651625 0.17989 0
M  V30 9696 H 949.504 2.05126 -0.106031 0
M  V30 9697 H 947.734 3.19516 2.17822 0
M  V30 9698 H 949.423 3.5536 1.96148 0
M  V30 9699 H 950.189 4.84742 -0.158299 0
M  V30 9700 H 946.068 4.49651 1.01663 0
M  V30 9701 H 949.612 6.80072 -1.55397 0
M  V30 9702 H 945.509 6.44428 -0.37189 0
M  V30 9703 H 946.277 7.99542 -1.7514 0
M  V30 9704 N 948.94 -0.228186 1.55939 0
M  V30 9705 C 950.356 -0.577583 1.48782 0
M  V30 9706 C 950.556 -1.87461 0.738972 0
M  V30 9707 O 949.612 -2.50988 0.275929 0
M  V30 9708 C 950.925 -0.662961 2.93301 0
M  V30 9709 C 952.473 -0.754035 3.03782 0
M  V30 9710 C 952.948 -0.870815 4.49645 0
M  V30 9711 N 954.439 -0.935208 4.53661 0
M  V30 9712 C 955.174 -1.04516 5.63794 0
M  V30 9713 N 954.67 -1.11948 6.83696 0
M  V30 9714 N 956.463 -1.07978 5.51631 0
M  V30 9715 H 948.614 0.623018 2.03057 0
M  V30 9716 H 950.877 0.217692 0.922667 0
M  V30 9717 H 950.583 0.220375 3.51009 0
M  V30 9718 H 950.457 -1.52876 3.44831 0
M  V30 9719 H 952.844 -1.62782 2.46143 0
M  V30 9720 H 952.925 0.137301 2.55431 0
M  V30 9721 H 952.569 -0.0015186 5.079 0
M  V30 9722 H 952.499 -1.77747 4.95695 0
M  V30 9723 H 954.99 -0.88836 3.6731 0
M  V30 9724 H 955.303 -1.20297 7.6338 0
M  V30 9725 H 953.648 -1.08873 6.8642 0
M  V30 9726 H 956.839 -1.01833 4.56889 0
M  V30 9727 H 957.012 -1.16202 6.37496 0
M  V30 9728 N 950.418 -1.49637 -0.494624 0
M  V30 9729 C 951.348 -1.69692 -1.60396 0
M  V30 9730 C 952.329 -0.545648 -1.61111 0
M  V30 9731 O 953.514 -0.782202 -1.77751 0
M  V30 9732 C 950.644 -1.76934 -2.9885 0
M  V30 9733 C 949.598 -2.91915 -3.13001 0
M  V30 9734 C 948.924 -2.84276 -4.5287 0
M  V30 9735 C 950.224 -4.32764 -2.92426 0
M  V30 9736 H 951.918 -2.6257 -1.43866 0
M  V30 9737 H 949.464 -1.26355 -0.690679 0
M  V30 9738 H 951.417 -1.8955 -3.76362 0
M  V30 9739 H 950.141 -0.806609 -3.16483 0
M  V30 9740 H 948.8 -2.78911 -2.37916 0
M  V30 9741 H 948.448 -1.85897 -4.67388 0
M  V30 9742 H 948.148 -3.61452 -4.63278 0
M  V30 9743 H 949.672 -2.98909 -5.32434 0
M  V30 9744 H 951.086 -4.46415 -3.59703 0
M  V30 9745 H 949.483 -5.1121 -3.143 0
M  V30 9746 H 950.553 -4.46765 -1.88491 0
M  V30 9747 N 951.896 0.746133 -1.38819 0
M  V30 9748 C 952.826 1.87344 -1.39372 0
M  V30 9749 C 953.807 1.68123 -0.258583 0
M  V30 9750 O 954.992 1.88606 -0.462769 0
M  V30 9751 C 952.122 3.24962 -1.22543 0
M  V30 9752 C 951.076 3.58799 -2.33339 0
M  V30 9753 C 950.402 4.95235 -2.01609 0
M  V30 9754 C 951.702 3.62911 -3.75624 0
M  V30 9755 H 953.396 1.87138 -2.33709 0
M  V30 9756 H 950.942 0.898937 -1.12495 0
M  V30 9757 H 952.895 4.03488 -1.21554 0
M  V30 9758 H 951.619 3.25667 -0.246707 0
M  V30 9759 H 950.278 2.82596 -2.33527 0
M  V30 9760 H 949.926 4.92508 -1.02202 0
M  V30 9761 H 949.626 5.18843 -2.75819 0
M  V30 9762 H 951.15 5.76131 -2.02251 0
M  V30 9763 H 952.564 4.31535 -3.77426 0
M  V30 9764 H 950.961 3.98031 -4.491 0
M  V30 9765 H 952.031 2.62967 -4.07402 0
M  V30 9766 N 953.375 1.23811 0.975125 0
M  V30 9767 C 954.6 1.10109 1.75757 0
M  V30 9768 C 955.025 -0.342922 1.84948 0
M  V30 9769 O 954.383 -1.24814 1.31496 0
M  V30 9770 C 954.431 1.73724 3.15994 0
M  V30 9771 O 953.535 1.00297 4.00018 0
M  V30 9772 H 952.876 0.385627 0.540544 0
M  V30 9773 H 955.406 1.63971 1.22372 0
M  V30 9774 H 955.416 1.79178 3.6655 0
M  V30 9775 H 954.091 2.78794 3.0862 0
M  V30 9776 H 952.668 1.02575 3.58515 0
M  V30 9777 N 954.853 -1.17469 1.05066 0
M  V30 9778 C 956.269 -1.39699 0.771769 0
M  V30 9779 C 956.469 -1.91253 -0.634382 0
M  V30 9780 O 955.525 -2.10334 -1.39699 0
M  V30 9781 C 956.838 -2.38886 1.82631 0
M  V30 9782 C 958.386 -2.52595 1.84838 0
M  V30 9783 C 958.861 -3.55054 2.89311 0
M  V30 9784 N 960.352 -3.6257 2.88266 0
M  V30 9785 C 961.087 -4.41603 3.65752 0
M  V30 9786 N 960.583 -5.24162 4.53019 0
M  V30 9787 N 962.376 -4.36464 3.54197 0
M  V30 9788 H 954.527 -0.823355 1.95792 0
M  V30 9789 H 956.79 -0.42432 0.847736 0
M  V30 9790 H 956.496 -2.08075 2.83545 0
M  V30 9791 H 956.37 -3.38371 1.66687 0
M  V30 9792 H 958.757 -2.82717 0.845888 0
M  V30 9793 H 958.838 -1.53188 2.04859 0
M  V30 9794 H 958.482 -3.2567 3.89745 0
M  V30 9795 H 958.412 -4.54162 2.66542 0
M  V30 9796 H 960.903 -3.03625 2.24989 0
M  V30 9797 H 961.216 -5.81646 5.0883 0
M  V30 9798 H 959.561 -5.23547 4.57081 0
M  V30 9799 H 962.752 -3.7102 2.85416 0
M  V30 9800 H 962.925 -4.97814 4.14832 0
M  V30 9801 N 956.331 -0.831506 -1.3388 0
M  V30 9802 C 957.579 -0.422837 -1.97627 0
M  V30 9803 C 957.9 1.01961 -1.6622 0
M  V30 9804 O 957.17 1.70916 -0.957323 0
M  V30 9805 H 955.75 -0.153365 -0.731087 0
M  V30 9806 H 958.412 -1.06284 -1.6337 0
M  V30 9807 H 957.508 -0.548858 -3.07236 0
M  V30 9808 N 957.809 1.4625 -0.587256 0
M  V30 9809 C 958.759 2.27407 0.164393 0
M  V30 9810 C 959.743 1.36138 0.857628 0
M  V30 9811 O 960.935 1.60279 0.750973 0
M  V30 9812 C 958.064 3.22585 1.17447 0
M  V30 9813 C 957.15 4.21339 0.483121 0
M  V30 9814 N 957.541 5.03669 -0.46385 0
M  V30 9815 C 955.839 4.39931 0.73329 0
M  V30 9816 C 956.54 5.75182 -0.868334 0
M  V30 9817 N 955.516 5.43169 -0.216487 0
M  V30 9818 H 959.318 2.88453 -0.563237 0
M  V30 9819 H 956.832 1.57155 -0.409388 0
M  V30 9820 H 958.829 3.79439 1.72718 0
M  V30 9821 H 957.489 2.63098 1.90288 0
M  V30 9822 H 958.5 5.11049 -0.839602 0
M  V30 9823 H 955.177 3.91588 1.44792 0
M  V30 9824 H 956.567 6.51371 -1.64821 0
M  V30 9825 N 959.287 0.325282 1.54207 0
M  V30 9826 C 960.515 -0.27869 2.05014 0
M  V30 9827 C 960.93 -1.45649 1.20133 0
M  V30 9828 O 960.287 -1.81014 0.232398 0
M  V30 9829 C 960.338 -0.711486 3.54429 0
M  V30 9830 O 960.059 0.419458 4.36087 0
M  V30 9831 C 961.56 -1.37809 4.21336 0
M  V30 9832 H 958.78 -0.0570388 0.668571 0
M  V30 9833 H 961.324 0.47197 1.98979 0
M  V30 9834 H 959.479 -1.41212 3.60746 0
M  V30 9835 H 959.893 0.0781037 5.24442 0
M  V30 9836 H 961.367 -1.63184 5.27328 0
M  V30 9837 H 961.844 -2.32593 3.72555 0
M  V30 9838 H 962.45 -0.719987 4.19161 0
M  V30 9839 N 960.765 -1.57509 0.0534917 0
M  V30 9840 C 962.176 -1.80374 -0.481867 0
M  V30 9841 C 962.527 -0.965917 -1.70776 0
M  V30 9842 O 961.652 -0.183167 -2.15623 0
M  V30 9843 C 962.247 -3.27146 -0.880978 0
M  V30 9844 C 960.806 -3.50921 -1.3613 0
M  V30 9845 C 959.953 -2.75237 -0.337611 0
M  V30 9846 H 962.904 -1.56222 0.279353 0
M  V30 9847 H 962.925 -3.38193 -1.74373 0
M  V30 9848 H 962.437 -3.88098 0.011441 0
M  V30 9849 H 960.538 -2.95251 -2.27283 0
M  V30 9850 H 960.651 -4.59632 -1.35186 0
M  V30 9851 H 959.015 -2.41444 -0.810991 0
M  V30 9852 H 959.798 -3.38918 0.546763 0
M  V30 9853 N 962.243 0.219913 -1.56058 0
M  V30 9854 C 963.471 0.960915 -1.83232 0
M  V30 9855 C 963.886 1.77878 -0.632828 0
M  V30 9856 O 963.243 1.78093 0.398624 0
M  V30 9857 C 963.294 1.87716 -3.08942 0
M  V30 9858 O 963.015 1.09235 -4.24263 0
M  V30 9859 C 964.516 2.73192 -3.49115 0
M  V30 9860 H 961.736 0.281546 -0.609075 0
M  V30 9861 H 964.28 0.234648 -2.03149 0
M  V30 9862 H 962.435 2.55736 -2.90995 0
M  V30 9863 H 962.849 1.71446 -4.95688 0
M  V30 9864 H 964.323 3.33181 -4.40107 0
M  V30 9865 H 964.8 3.45668 -2.70943 0
M  V30 9866 H 965.406 2.10583 -3.69506 0
M  V30 9867 N 963.721 1.49897 0.486681 0
M  V30 9868 C 964.653 1.63755 1.60365 0
M  V30 9869 C 965.666 0.519614 1.54285 0
M  V30 9870 O 966.855 0.792219 1.59957 0
M  V30 9871 C 963.955 1.59153 2.99205 0
M  V30 9872 C 963.128 2.8672 3.30319 0
M  V30 9873 C 962.187 2.74974 4.48638 0
M  V30 9874 O 961.213 3.48922 4.49714 0
M  V30 9875 N 962.415 1.87479 5.49392 0
M  V30 9876 H 965.18 2.60094 1.48899 0
M  V30 9877 H 962.741 1.47166 0.674825 0
M  V30 9878 H 964.733 1.4893 3.76301 0
M  V30 9879 H 963.303 0.706133 3.0452 0
M  V30 9880 H 962.523 3.11188 2.41983 0
M  V30 9881 H 963.811 3.71262 3.47911 0
M  V30 9882 H 963.209 1.26684 5.51333 0
M  V30 9883 H 961.766 1.83169 6.25534 0
M  V30 9884 N 965.199 -0.738761 1.39212 0
M  V30 9885 C 966.61 -1.31684 1.32348 0
M  V30 9886 C 966.961 -1.96195 -0.0139041 0
M  V30 9887 O 966.086 -1.96056 -0.916025 0
M  V30 9888 C 966.681 -2.39444 2.39691 0
M  V30 9889 C 965.24 -2.92935 2.36359 0
M  V30 9890 C 964.387 -1.66465 2.21776 0
M  V30 9891 H 967.338 -0.536543 1.49355 0
M  V30 9892 H 967.359 -3.19744 2.06262 0
M  V30 9893 H 966.871 -1.92463 3.37016 0
M  V30 9894 H 964.972 -3.44207 1.42662 0
M  V30 9895 H 965.085 -3.46306 3.31073 0
M  V30 9896 H 963.449 -1.90657 1.68884 0
M  V30 9897 H 964.232 -1.21541 3.21065 0
M  V30 9898 N 966.677 -1.24326 -0.968545 0
M  V30 9899 C 967.925 -1.08032 -1.70803 0
M  V30 9900 C 968.246 0.381728 -1.91227 0
M  V30 9901 O 967.516 1.27253 -1.48942 0
M  V30 9902 H 966.096 -0.396777 -0.632912 0
M  V30 9903 H 968.758 -1.56232 -1.16523 0
M  V30 9904 H 967.854 -1.57769 -2.69287 0
M  V30 9905 N 968.156 1.1691 -1.05688 0
M  V30 9906 C 969.119 2.19297 -0.666433 0
M  V30 9907 C 970.119 1.5826 0.284674 0
M  V30 9908 O 971.309 1.74068 0.0678757 0
M  V30 9909 C 968.441 3.40894 0.0203656 0
M  V30 9910 H 969.634 2.55354 -1.57272 0
M  V30 9911 H 967.187 1.31078 -0.851359 0
M  V30 9912 H 967.922 3.10388 0.939686 0
M  V30 9913 H 967.707 3.86446 -0.663464 0
M  V30 9914 H 969.197 4.16664 0.279475 0
M  V30 9915 N 969.634 0.838594 1.33437 0
M  V30 9916 C 970.564 0.286672 2.31734 0
M  V30 9917 C 971.545 -0.605451 1.5896 0
M  V30 9918 O 972.73 -0.529059 1.86854 0
M  V30 9919 C 969.86 -0.539311 3.43087 0
M  V30 9920 C 968.814 0.256997 4.27228 0
M  V30 9921 C 968.14 -0.692718 5.30194 0
M  V30 9922 C 969.44 1.47391 5.01072 0
M  V30 9923 H 971.134 1.10798 2.78144 0
M  V30 9924 H 968.68 0.534235 1.33723 0
M  V30 9925 H 970.633 -0.935724 4.1088 0
M  V30 9926 H 969.357 -1.39383 2.95364 0
M  V30 9927 H 968.016 0.634967 3.61059 0
M  V30 9928 H 967.664 -1.54363 4.78729 0
M  V30 9929 H 967.364 -0.164023 5.87371 0
M  V30 9930 H 968.888 -1.08665 6.00853 0
M  V30 9931 H 970.302 1.15067 5.61634 0
M  V30 9932 H 968.699 1.93937 5.67898 0
M  V30 9933 H 969.769 2.24382 4.29861 0
M  V30 9934 N 971.112 -1.45937 0.595003 0
M  V30 9935 C 972.06 -2.32155 -0.143798 0
M  V30 9936 C 973.054 -1.45221 -0.872198 0
M  V30 9937 O 974.26 -1.61777 -0.789191 0
M  V30 9938 H 970.635 -0.749165 -0.0652377 0
M  V30 9939 H 972.606 -2.92264 0.602005 0
M  V30 9940 C 971.355 -3.28615 -1.13611 0
M  V30 9941 H 970.678 -3.95496 -0.585044 0
M  V30 9942 H 972.118 -3.91699 -1.62321 0
M  V30 9943 C 970.577 -2.54863 -2.20333 0
M  V30 9944 O 971.107 -2.32071 -3.27881 0
M  V30 9945 N 969.313 -2.15213 -1.95274 0
M  V30 9946 H 968.86 -2.33949 -1.07822 0
M  V30 9947 H 968.818 -1.66188 -2.66888 0
M  V30 9948 N 972.59 -0.333456 -1.54032 0
M  V30 9949 C 973.522 0.562174 -2.22199 0
M  V30 9950 C 974.535 1.07202 -1.22522 0
M  V30 9951 O 975.724 0.983897 -1.48935 0
M  V30 9952 C 972.824 1.78525 -2.88066 0
M  V30 9953 C 971.997 1.41242 -4.13968 0
M  V30 9954 C 971.056 2.49408 -4.63338 0
M  V30 9955 O 970.082 2.13138 -5.27789 0
M  V30 9956 N 971.284 3.805 -4.38406 0
M  V30 9957 H 974.049 -0.0215629 -2.99692 0
M  V30 9958 H 971.61 -0.157111 -1.61136 0
M  V30 9959 H 973.602 2.50298 -3.18014 0
M  V30 9960 H 972.172 2.2766 -2.14219 0
M  V30 9961 H 971.392 0.525887 -3.90676 0
M  V30 9962 H 972.68 1.13916 -4.95884 0
M  V30 9963 H 972.078 4.12761 -3.86839 0
M  V30 9964 H 970.635 4.48474 -4.72984 0
M  V30 9965 N 974.068 1.57479 -0.061844 0
M  V30 9966 C 975.484 1.56855 0.294753 0
M  V30 9967 C 975.684 1.07042 1.70717 0
M  V30 9968 O 974.74 0.731817 2.41662 0
M  V30 9969 C 976.053 3.00486 0.113484 0
M  V30 9970 C 977.601 3.1246 0.183778 0
M  V30 9971 C 978.076 4.5799 0.0309092 0
M  V30 9972 N 979.567 4.63119 0.0868393 0
M  V30 9973 C 980.302 5.734 -0.00717446 0
M  V30 9974 N 979.798 6.92628 -0.154144 0
M  V30 9975 N 981.591 5.62078 0.0491763 0
M  V30 9976 H 973.742 1.88176 -0.985058 0
M  V30 9977 H 976.005 0.867051 -0.383309 0
M  V30 9978 H 975.711 3.41004 -0.86075 0
M  V30 9979 H 975.585 3.67029 0.870023 0
M  V30 9980 H 977.972 2.71834 1.14849 0
M  V30 9981 H 978.053 2.48574 -0.603697 0
M  V30 9982 H 977.697 4.99303 -0.930526 0
M  V30 9983 H 977.627 5.19895 0.837664 0
M  V30 9984 H 980.118 3.77374 0.199245 0
M  V30 9985 H 980.431 7.72492 -0.218296 0
M  V30 9986 H 978.776 6.94742 -0.189372 0
M  V30 9987 H 981.967 4.67817 0.162626 0
M  V30 9988 H 982.14 6.47994 -0.0275478 0
M  V30 9989 N 975.546 -0.211634 1.56173 0
M  V30 9990 C 976.478 -1.286 1.89723 0
M  V30 9991 C 977.491 -1.42549 0.786361 0
M  V30 9992 O 978.68 -1.4327 1.06471 0
M  V30 9993 C 975.78 -2.66036 2.09948 0
M  V30 9994 C 974.953 -2.73908 3.41018 0
M  V30 9995 C 974.012 -3.92425 3.50555 0
M  V30 9996 O 973.038 -3.803 4.2351 0
M  V30 9997 N 974.24 -5.07165 2.82426 0
M  V30 9998 H 977.005 -1.00142 2.82474 0
M  V30 9999 H 974.566 -0.401633 1.56839 0
M  V30 10000 H 976.558 -3.43719 2.13634 0
M  V30 10001 H 975.128 -2.87052 1.23774 0
M  V30 10002 H 974.348 -1.82625 3.49345 0
M  V30 10003 H 975.636 -2.76145 4.27342 0
M  V30 10004 H 975.034 -5.19913 2.2295 0
M  V30 10005 H 973.591 -5.82855 2.9176 0
M  V30 10006 N 977.024 -1.50153 -0.478725 0
M  V30 10007 C 978.27 -1.60998 -1.23318 0
M  V30 10008 C 978.603 -0.305868 -1.91776 0
M  V30 10009 O 977.878 0.692158 -1.81767 0
M  V30 10010 C 978.161 -2.78495 -2.28282 0
M  V30 10011 C 978.014 -4.18767 -1.64178 0
M  V30 10012 C 979.333 -2.91569 -3.2966 0
M  V30 10013 H 976.452 -0.585983 -0.446982 0
M  V30 10014 H 979.094 -1.82514 -0.528063 0
M  V30 10015 H 977.244 -2.60281 -2.8842 0
M  V30 10016 H 978.916 -4.48552 -1.07696 0
M  V30 10017 H 977.159 -4.23379 -0.94514 0
M  V30 10018 H 977.83 -4.96894 -2.40417 0
M  V30 10019 H 980.306 -3.08219 -2.79536 0
M  V30 10020 H 979.182 -3.75419 -4.0044 0
M  V30 10021 H 979.443 -2.01859 -3.93326 0
M  V30 10022 N 978.502 0.731368 -1.39602 0
M  V30 10023 C 979.434 1.85575 -1.34516 0
M  V30 10024 C 980.447 1.60818 -0.253287 0
M  V30 10025 O 981.636 1.70984 -0.512505 0
M  V30 10026 C 978.736 3.21673 -1.06676 0
M  V30 10027 C 977.909 3.73757 -2.27211 0
M  V30 10028 C 976.968 4.88426 -1.95773 0
M  V30 10029 O 975.994 5.01898 -2.68491 0
M  V30 10030 N 977.196 5.73065 -0.926083 0
M  V30 10031 H 979.961 1.90442 -2.31413 0
M  V30 10032 H 977.522 0.912258 -1.33752 0
M  V30 10033 H 979.514 3.95959 -0.836577 0
M  V30 10034 H 978.084 3.12052 -0.185003 0
M  V30 10035 H 977.304 2.90781 -2.66158 0
M  V30 10036 H 978.592 4.05289 -3.07601 0
M  V30 10037 H 977.99 5.64774 -0.323497 0
M  V30 10038 H 976.547 6.47403 -0.755795 0
M  V30 10039 N 979.98 1.24838 0.961938 0
M  V30 10040 C 981.227 1.09151 1.70564 0
M  V30 10041 C 981.555 -0.368719 1.90973 0
M  V30 10042 O 980.81 -1.28854 1.47293 0
M  V30 10043 C 981.109 1.78289 3.09754 0
M  V30 10044 C 980.775 3.28216 3.09169 0
M  V30 10045 C 979.437 3.69118 3.08716 0
M  V30 10046 C 981.789 4.24035 3.03058 0
M  V30 10047 C 979.117 5.04263 2.99892 0
M  V30 10048 C 981.469 5.59195 2.95776 0
M  V30 10049 C 980.133 5.99436 2.93655 0
M  V30 10050 H 979.403 0.399414 0.624139 0
M  V30 10051 H 982.05 1.55016 1.12438 0
M  V30 10052 H 980.355 1.24835 3.7138 0
M  V30 10053 H 982.052 1.63612 3.66104 0
M  V30 10054 H 978.642 2.95667 3.10289 0
M  V30 10055 H 982.826 3.93431 3.02532 0
M  V30 10056 H 978.082 5.3463 2.96615 0
M  V30 10057 H 982.256 6.33142 2.90007 0
M  V30 10058 H 979.883 7.04116 2.86573 0
M  V30 10059 N 981.458 -1.16348 1.06306 0
M  V30 10060 C 982.683 -1.91323 0.800636 0
M  V30 10061 C 983.108 -1.7691 -0.639105 0
M  V30 10062 O 982.466 -1.0945 -1.44535 0
M  V30 10063 C 982.514 -3.40038 1.20027 0
M  V30 10064 O 981.618 -4.11003 0.339142 0
M  V30 10065 H 980.959 -0.596057 0.292595 0
M  V30 10066 H 983.489 -1.47406 1.41889 0
M  V30 10067 H 983.499 -3.90808 1.17188 0
M  V30 10068 H 982.174 -3.49848 2.24898 0
M  V30 10069 H 980.751 -3.70423 0.42911 0
M  V30 10070 N 982.937 -0.845659 -1.3299 0
M  V30 10071 C 983.847 -0.2864 -2.32845 0
M  V30 10072 C 984.863 0.591105 -1.63652 0
M  V30 10073 O 986.039 0.493615 -1.95257 0
M  V30 10074 C 983.104 0.523636 -3.42723 0
M  V30 10075 C 982.165 -0.378945 -4.27624 0
M  V30 10076 C 981.398 0.392526 -5.32255 0
M  V30 10077 O 981.621 1.6235 -5.46808 0
M  V30 10078 O 980.555 -0.237 -6.01433 0
M  V30 10079 H 984.381 -1.11346 -2.82552 0
M  V30 10080 H 981.966 -0.608356 -1.36453 0
M  V30 10081 H 983.848 0.983718 -4.09757 0
M  V30 10082 H 982.523 1.32764 -2.95221 0
M  V30 10083 H 981.43 -0.887012 -3.63432 0
M  V30 10084 H 982.763 -1.1479 -4.78627 0
M  V30 10085 N 984.415 1.45619 -0.602734 0
M  V30 10086 C 985.325 2.34288 0.120902 0
M  V30 10087 C 986.341 1.50952 0.865414 0
M  V30 10088 O 987.517 1.83768 0.824094 0
M  V30 10089 C 984.582 3.28489 1.10888 0
M  V30 10090 C 983.643 4.2773 0.366853 0
M  V30 10091 C 982.876 5.17429 1.30776 0
M  V30 10092 O 983.099 5.10459 2.54535 0
M  V30 10093 O 982.033 5.96459 0.807464 0
M  V30 10094 H 985.859 2.97559 -0.60765 0
M  V30 10095 H 983.444 1.44922 -0.363019 0
M  V30 10096 H 985.326 3.86549 1.67803 0
M  V30 10097 H 984.001 2.67789 1.81854 0
M  V30 10098 H 982.908 3.73299 -0.244643 0
M  V30 10099 H 984.241 4.91271 -0.302226 0
M  V30 10100 N 985.893 0.34162 1.53853 0
M  V30 10101 C 986.843 -0.531995 2.21707 0
M  V30 10102 C 987.827 -1.06759 1.2038 0
M  V30 10103 O 989.019 -1.00161 1.45934 0
M  V30 10104 C 986.148 -1.6834 2.99193 0
M  V30 10105 C 985.234 -1.16184 4.07875 0
M  V30 10106 N 985.625 -0.361348 5.04508 0
M  V30 10107 C 983.923 -1.43891 4.22151 0
M  V30 10108 C 984.624 -0.0785378 5.81647 0
M  V30 10109 N 983.6 -0.669651 5.3946 0
M  V30 10110 H 987.402 0.0866825 2.93772 0
M  V30 10111 H 984.916 0.148386 1.61721 0
M  V30 10112 H 986.913 -2.32121 3.46303 0
M  V30 10113 H 985.573 -2.30538 2.28653 0
M  V30 10114 H 986.584 -0.00259906 5.179 0
M  V30 10115 H 983.261 -2.06542 3.62832 0
M  V30 10116 H 984.651 0.567068 6.69503 0
M  V30 10117 N 987.371 -1.57444 0.0701946 0
M  V30 10118 C 988.617 -1.94528 -0.594177 0
M  V30 10119 C 988.972 -0.949898 -1.67316 0
M  V30 10120 O 988.265 0.0280668 -1.91579 0
M  V30 10121 C 988.459 -3.36044 -1.21694 0
M  V30 10122 C 988.288 -4.49256 -0.199806 0
M  V30 10123 C 987.058 -5.04843 0.214963 0
M  V30 10124 C 989.256 -5.11217 0.562312 0
M  V30 10125 N 987.238 -6.01595 1.22297 0
M  V30 10126 C 988.609 -6.03453 1.42284 0
M  V30 10127 C 990.664 -4.94043 0.618555 0
M  V30 10128 C 989.367 -6.80359 2.33461 0
M  V30 10129 C 991.393 -5.71591 1.51783 0
M  V30 10130 C 990.755 -6.63474 2.36604 0
M  V30 10131 H 986.854 -0.758941 -0.1885 0
M  V30 10132 H 989.438 -1.94145 0.146965 0
M  V30 10133 H 987.609 -3.37168 -1.92801 0
M  V30 10134 H 989.341 -3.60368 -1.84165 0
M  V30 10135 H 986.096 -4.73303 -0.167835 0
M  V30 10136 H 986.52 -6.5467 1.72443 0
M  V30 10137 H 991.162 -4.22794 -0.0230235 0
M  V30 10138 H 988.88 -7.50886 2.98656 0
M  V30 10139 H 992.466 -5.60324 1.56616 0
M  V30 10140 H 991.346 -7.22432 3.0506 0
M  V30 10141 N 988.849 0.203349 -1.56283 0
M  V30 10142 C 990.095 0.926381 -1.80405 0
M  V30 10143 C 990.428 1.8325 -0.642883 0
M  V30 10144 O 989.703 1.91196 0.356998 0
M  V30 10145 C 989.986 1.74972 -3.14733 0
M  V30 10146 C 989.839 0.868866 -4.41328 0
M  V30 10147 C 991.158 2.72394 -3.45672 0
M  V30 10148 H 988.277 0.335346 -0.656286 0
M  V30 10149 H 990.919 0.1942 -1.89005 0
M  V30 10150 H 989.069 2.37394 -3.07533 0
M  V30 10151 H 990.741 0.259986 -4.60567 0
M  V30 10152 H 988.984 0.175161 -4.33446 0
M  V30 10153 H 989.655 1.47975 -5.31796 0
M  V30 10154 H 992.131 2.20105 -3.53119 0
M  V30 10155 H 991.007 3.27091 -4.40798 0
M  V30 10156 H 991.268 3.51035 -2.6875 0
M  V30 10157 N 990.327 1.50405 0.470755 0
M  V30 10158 C 991.277 1.65681 1.56633 0
M  V30 10159 C 992.261 0.511424 1.52556 0
M  V30 10160 O 993.453 0.765844 1.59574 0
M  V30 10161 C 990.582 1.7546 2.95074 0
M  V30 10162 C 989.668 2.95676 3.04034 0
M  V30 10163 N 990.059 4.1935 2.82807 0
M  V30 10164 C 988.357 2.94241 3.35169 0
M  V30 10165 C 989.058 5.0032 2.96741 0
M  V30 10166 N 988.034 4.34282 3.26956 0
M  V30 10167 H 991.836 2.58994 1.38922 0
M  V30 10168 H 989.35 1.47593 0.67749 0
M  V30 10169 H 991.347 1.84508 3.73848 0
M  V30 10170 H 990.007 0.833057 3.13832 0
M  V30 10171 H 991.018 4.48842 2.58382 0
M  V30 10172 H 987.695 2.11587 3.59913 0
M  V30 10173 H 989.085 6.08664 2.84566 0
M  V30 10174 N 991.805 -0.723954 1.39988 0
M  V30 10175 C 992.715 -1.86829 1.41887 0
M  V30 10176 C 993.731 -1.71173 0.312401 0
M  V30 10177 O 994.907 -1.93583 0.555651 0
M  V30 10178 C 991.972 -3.22541 1.27154 0
M  V30 10179 C 991.033 -3.50512 2.47871 0
M  V30 10180 C 990.266 -4.79749 2.33831 0
M  V30 10181 O 990.489 -5.54251 1.34765 0
M  V30 10182 O 989.423 -5.07868 3.23039 0
M  V30 10183 H 993.249 -1.88183 2.38371 0
M  V30 10184 H 990.834 -0.873259 1.21221 0
M  V30 10185 H 992.716 -4.0362 1.21114 0
M  V30 10186 H 991.391 -3.21933 0.337715 0
M  V30 10187 H 990.298 -2.69475 2.59488 0
M  V30 10188 H 991.631 -3.55909 3.39985 0
M  V30 10189 N 993.283 -1.25346 -0.955304 0
M  V30 10190 C 994.508 -1.12892 -1.73983 0
M  V30 10191 C 994.933 0.313455 -1.8547 0
M  V30 10192 O 994.291 1.22706 -1.33465 0
M  V30 10193 C 994.339 -1.78729 -3.1319 0
M  V30 10194 O 993.443 -1.06648 -3.98372 0
M  V30 10195 H 992.784 -0.394178 -0.534341 0
M  V30 10196 H 995.314 -1.65897 -1.19747 0
M  V30 10197 H 995.324 -1.84987 -3.63653 0
M  V30 10198 H 993.999 -2.83669 -3.04146 0
M  V30 10199 H 992.576 -1.08266 -3.56837 0
M  V30 10200 N 994.761 1.15782 -1.06922 0
M  V30 10201 C 996.009 1.86097 -0.788192 0
M  V30 10202 C 996.33 1.82475 0.687606 0
M  V30 10203 O 995.6 1.26266 1.49778 0
M  V30 10204 H 994.18 0.689008 -0.288577 0
M  V30 10205 H 996.842 1.40377 -1.35205 0
M  V30 10206 H 995.938 2.91358 -1.1188 0
M  V30 10207 N 996.239 0.8527 1.3254 0
M  V30 10208 C 997.655 0.542298 1.50104 0
M  V30 10209 C 997.855 -0.927465 1.78886 0
M  V30 10210 O 996.911 -1.7106 1.85728 0
M  V30 10211 C 998.224 1.4276 2.64651 0
M  V30 10212 C 999.772 1.42782 2.78536 0
M  V30 10213 C 1000.25 2.29828 3.9616 0
M  V30 10214 N 1001.74 2.27613 4.03418 0
M  V30 10215 C 1002.47 2.91696 4.93661 0
M  V30 10216 N 1001.97 3.64883 5.88925 0
M  V30 10217 N 1003.76 2.81094 4.86768 0
M  V30 10218 H 995.913 1.80395 1.12123 0
M  V30 10219 H 998.176 0.770394 0.552446 0
M  V30 10220 H 997.882 2.47266 2.50105 0
M  V30 10221 H 997.756 1.11358 3.60388 0
M  V30 10222 H 1000.14 0.390417 2.92506 0
M  V30 10223 H 1000.22 1.78198 1.83519 0
M  V30 10224 H 999.868 3.33635 3.82949 0
M  V30 10225 H 999.798 1.91746 4.9045 0
M  V30 10226 H 1002.29 1.74402 3.3525 0
M  V30 10227 H 1002.6 4.10952 6.54476 0
M  V30 10228 H 1000.95 3.68991 5.88957 0
M  V30 10229 H 1004.14 2.23469 4.11314 0
M  V30 10230 H 1004.31 3.31318 5.56895 0
M  V30 10231 N 997.718 -1.45297 0.610449 0
M  V30 10232 C 999.129 -1.85715 0.191488 0
M  V30 10233 C 999.48 -1.51036 -1.25229 0
M  V30 10234 O 998.605 -0.938422 -1.94994 0
M  V30 10235 C 999.2 -3.37082 0.340747 0
M  V30 10236 C 997.759 -3.76393 -0.0235433 0
M  V30 10237 C 996.906 -2.69237 0.663849 0
M  V30 10238 H 999.857 -1.36058 0.816948 0
M  V30 10239 H 999.878 -3.78105 -0.426233 0
M  V30 10240 H 999.39 -3.62291 1.39164 0
M  V30 10241 H 997.491 -3.56801 -1.07351 0
M  V30 10242 H 997.604 -4.77653 0.372102 0
M  V30 10243 H 995.968 -2.54499 0.101204 0
M  V30 10244 H 996.751 -2.97281 1.71694 0
M  V30 10245 N 999.196 -0.349774 -1.5367 0
M  V30 10246 C 1000.44 0.245189 -2.01312 0
M  V30 10247 C 1000.77 1.49702 -1.23705 0
M  V30 10248 O 1000.05 1.91742 -0.326371 0
M  V30 10249 C 1000.33 0.553071 -3.55827 0
M  V30 10250 C 1000.19 -0.71129 -4.4414 0
M  V30 10251 C 1001.5 1.36015 -4.18555 0
M  V30 10252 H 998.624 0.0876415 -0.73177 0
M  V30 10253 H 1001.27 -0.471543 -1.84056 0
M  V30 10254 H 999.416 1.16367 -3.70663 0
M  V30 10255 H 1001.09 -1.34913 -4.41131 0
M  V30 10256 H 999.331 -1.33491 -4.1275 0
M  V30 10257 H 1000 -0.45104 -5.50154 0
M  V30 10258 H 1002.48 0.843778 -4.07455 0
M  V30 10259 H 1001.35 1.54432 -5.26728 0
M  V30 10260 H 1001.61 2.36408 -3.73582 0
M  V30 10261 N 1000.67 1.57404 -0.0785433 0
M  V30 10262 C 1001.61 2.101 0.916013 0
M  V30 10263 C 1002.62 1.03459 1.25698 0
M  V30 10264 O 1003.81 1.30954 1.21299 0
M  V30 10265 C 1000.91 2.55202 2.22992 0
M  V30 10266 C 1000.08 3.85491 2.06678 0
M  V30 10267 C 999.14 4.16614 3.21433 0
M  V30 10268 O 998.166 4.86105 2.96126 0
M  V30 10269 N 999.368 3.70697 4.46726 0
M  V30 10270 H 1002.13 2.96054 0.466059 0
M  V30 10271 H 999.694 1.61546 0.107006 0
M  V30 10272 H 1001.69 2.7308 2.9868 0
M  V30 10273 H 1000.26 1.74348 2.59464 0
M  V30 10274 H 999.476 3.76925 1.15417 0
M  V30 10275 H 1000.76 4.70759 1.93036 0
M  V30 10276 H 1000.16 3.14571 4.70172 0
M  V30 10277 H 998.719 3.93762 5.19418 0
M  V30 10278 N 1002.15 -0.195058 1.56388 0
M  V30 10279 C 1003.57 -0.545894 1.49974 0
M  V30 10280 C 1003.77 -1.85851 0.778568 0
M  V30 10281 O 1002.82 -2.50346 0.329105 0
M  V30 10282 C 1004.14 -0.600599 2.94641 0
M  V30 10283 C 1005.68 -0.689429 3.05313 0
M  V30 10284 C 1006.16 -0.775243 4.51391 0
M  V30 10285 N 1007.65 -0.838769 4.55542 0
M  V30 10286 C 1008.39 -0.925337 5.65884 0
M  V30 10287 N 1007.88 -0.974204 6.85916 0
M  V30 10288 N 1009.67 -0.962528 5.53798 0
M  V30 10289 H 1001.83 0.66595 2.0169 0
M  V30 10290 H 1004.09 0.237215 0.917842 0
M  V30 10291 H 1003.79 0.29478 3.50462 0
M  V30 10292 H 1003.67 -1.45528 3.47996 0
M  V30 10293 H 1006.06 -1.57524 2.4954 0
M  V30 10294 H 1006.14 0.191451 2.55083 0
M  V30 10295 H 1005.78 0.106215 5.07789 0
M  V30 10296 H 1005.71 -1.67193 4.99354 0
M  V30 10297 H 1008.2 -0.810249 3.69112 0
M  V30 10298 H 1008.51 -1.04077 7.6576 0
M  V30 10299 H 1006.86 -0.942881 6.88574 0
M  V30 10300 H 1010.05 -0.921188 4.58946 0
M  V30 10301 H 1010.22 -1.02653 6.39817 0
M  V30 10302 N 1003.63 -1.50653 -0.462772 0
M  V30 10303 C 1004.59 -1.69561 -1.54213 0
M  V30 10304 C 1005.59 -0.566106 -1.50505 0
M  V30 10305 O 1006.78 -0.833273 -1.52978 0
M  V30 10306 C 1003.91 -1.72856 -2.93826 0
M  V30 10307 H 1005.11 -2.65867 -1.38761 0
M  V30 10308 H 1002.66 -1.40259 -0.689728 0
M  V30 10309 H 1003.4 -0.78273 -3.14712 0
M  V30 10310 H 1003.18 -2.54919 -2.97924 0
M  V30 10311 H 1004.67 -1.89411 -3.72174 0
M  V30 10312 N 1005.11 0.71652 -1.4037 0
M  V30 10313 C 1006.02 1.86074 -1.42876 0
M  V30 10314 C 1007.03 1.71005 -0.321475 0
M  V30 10315 O 1008.21 1.93286 -0.565909 0
M  V30 10316 C 1005.28 3.21862 -1.28863 0
M  V30 10317 C 1004.34 3.49193 -2.49726 0
M  V30 10318 C 1003.57 4.78502 -2.36372 0
M  V30 10319 O 1003.79 5.53529 -1.37703 0
M  V30 10320 O 1002.73 5.06147 -3.25728 0
M  V30 10321 H 1006.55 1.86916 -2.39366 0
M  V30 10322 H 1004.14 0.866818 -1.21683 0
M  V30 10323 H 1006.02 4.02972 -1.23253 0
M  V30 10324 H 1004.69 3.2175 -0.354783 0
M  V30 10325 H 1003.6 2.68095 -2.60913 0
M  V30 10326 H 1004.93 3.54101 -3.41868 0
M  V30 10327 N 1006.59 1.25851 0.948643 0
M  V30 10328 C 1007.52 1.09248 2.06367 0
M  V30 10329 C 1008.5 -0.000205168 1.701 0
M  V30 10330 O 1009.68 0.170442 1.93451 0
M  V30 10331 C 1006.81 0.716777 3.39823 0
M  V30 10332 C 1005.77 1.76036 3.90122 0
M  V30 10333 C 1005.09 1.23918 5.20143 0
M  V30 10334 C 1006.39 3.16039 4.15833 0
M  V30 10335 H 1008.09 2.02518 2.20515 0
M  V30 10336 H 1005.63 0.975093 1.05962 0
M  V30 10337 H 1007.59 0.587531 4.17284 0
M  V30 10338 H 1006.31 -0.251626 3.25629 0
M  V30 10339 H 1004.97 1.87815 3.14835 0
M  V30 10340 H 1004.62 0.260836 5.02323 0
M  V30 10341 H 1004.32 1.93673 5.54765 0
M  V30 10342 H 1005.84 1.12245 6.00194 0
M  V30 10343 H 1007.25 3.0738 4.83933 0
M  V30 10344 H 1005.65 3.83317 4.61723 0
M  V30 10345 H 1006.72 3.62652 3.21887 0
M  V30 10346 N 1008.06 -1.15214 1.07534 0
M  V30 10347 C 1008.99 -2.2216 0.718837 0
M  V30 10348 C 1009.98 -1.6753 -0.29459 0
M  V30 10349 O 1011.16 -1.93481 -0.166931 0
M  V30 10350 C 1008.29 -3.471 0.117836 0
M  V30 10351 C 1007.24 -4.14701 1.05862 0
M  V30 10352 C 1006.57 -5.3374 0.320284 0
M  V30 10353 C 1007.87 -4.64254 2.39302 0
M  V30 10354 H 1009.56 -2.52237 1.61297 0
M  V30 10355 H 1007.11 -1.21239 0.776992 0
M  V30 10356 H 1009.06 -4.21156 -0.143519 0
M  V30 10357 H 1007.79 -3.16361 -0.811389 0
M  V30 10358 H 1006.45 -3.42589 1.30493 0
M  V30 10359 H 1006.09 -4.99257 -0.61246 0
M  V30 10360 H 1005.79 -5.79912 0.947381 0
M  V30 10361 H 1007.32 -6.10563 0.0667721 0
M  V30 10362 H 1008.73 -5.29827 2.18988 0
M  V30 10363 H 1007.13 -5.21095 2.97623 0
M  V30 10364 H 1008.2 -3.79793 3.01472 0
M  V30 10365 N 1009.54 -0.859717 -1.32086 0
M  V30 10366 C 1010.47 -0.265258 -2.2766 0
M  V30 10367 C 1011.49 0.565889 -1.52648 0
M  V30 10368 O 1012.68 0.389554 -1.74197 0
M  V30 10369 C 1009.78 0.643397 -3.32737 0
M  V30 10370 C 1008.95 -0.153024 -4.37132 0
M  V30 10371 C 1008.01 0.682176 -5.21759 0
M  V30 10372 O 1007.03 0.113878 -5.69086 0
M  V30 10373 N 1008.24 1.99602 -5.45105 0
M  V30 10374 H 1011 -1.08653 -2.79311 0
M  V30 10375 H 1008.56 -0.720191 -1.45 0
M  V30 10376 H 1010.55 1.20759 -3.86263 0
M  V30 10377 H 1009.12 1.36535 -2.81206 0
M  V30 10378 H 1008.34 -0.898657 -3.8382 0
M  V30 10379 H 1009.63 -0.699877 -5.03963 0
M  V30 10380 H 1009.03 2.481 -5.08393 0
M  V30 10381 H 1007.59 2.50823 -6.01607 0
M  V30 10382 N 1011.02 1.44971 -0.618145 0
M  V30 10383 C 1012.27 2.02458 -0.117656 0
M  V30 10384 C 1012.6 1.48413 1.25248 0
M  V30 10385 O 1011.87 0.662997 1.82851 0
M  V30 10386 C 1012.16 3.59987 -0.0901897 0
M  V30 10387 C 1012.01 4.24343 -1.49175 0
M  V30 10388 C 1013.33 4.36099 0.592121 0
M  V30 10389 H 1010.45 0.735672 -0.0442291 0
M  V30 10390 H 1013.09 1.727 -0.792138 0
M  V30 10391 H 1011.24 3.85471 0.484175 0
M  V30 10392 H 1012.91 4.10009 -2.114 0
M  V30 10393 H 1011.16 3.82337 -2.04941 0
M  V30 10394 H 1011.83 5.33298 -1.42468 0
M  V30 10395 H 1014.3 4.1597 0.103813 0
M  V30 10396 H 1013.18 5.45822 0.580481 0
M  V30 10397 H 1013.44 4.09746 1.66015 0
M  V30 10398 N 1012.5 0.357919 1.53482 0
M  V30 10399 C 1013.43 -0.484231 2.28424 0
M  V30 10400 C 1014.41 -1.09046 1.30548 0
M  V30 10401 O 1015.59 -1.10916 1.59409 0
M  V30 10402 C 1012.72 -1.62803 3.06778 0
M  V30 10403 C 1011.68 -1.14943 4.12277 0
M  V30 10404 C 1011 -2.38287 4.78669 0
M  V30 10405 C 1012.3 -0.239627 5.2175 0
M  V30 10406 H 1014 0.140979 2.99068 0
M  V30 10407 H 1011.54 0.069244 1.43833 0
M  V30 10408 H 1013.5 -2.22374 3.57949 0
M  V30 10409 H 1012.22 -2.28036 2.3381 0
M  V30 10410 H 1010.88 -0.576442 3.6204 0
M  V30 10411 H 1010.53 -3.01959 4.02281 0
M  V30 10412 H 1010.23 -2.06939 5.49955 0
M  V30 10413 H 1011.75 -2.98558 5.32631 0
M  V30 10414 H 1013.17 -0.742597 5.6847 0
M  V30 10415 H 1011.56 -0.0173747 6.00097 0
M  V30 10416 H 1012.63 0.720333 4.7952 0
M  V30 10417 N 1013.98 -1.5736 0.0868897 0
M  V30 10418 C 1014.91 -2.10582 -0.904858 0
M  V30 10419 C 1015.92 -1.04124 -1.25148 0
M  V30 10420 O 1017.11 -1.31595 -1.20603 0
M  V30 10421 C 1014.21 -2.56381 -2.21635 0
M  V30 10422 C 1013.38 -3.86581 -2.04631 0
M  V30 10423 C 1012.44 -4.18313 -3.19219 0
M  V30 10424 O 1011.47 -4.87669 -2.93544 0
M  V30 10425 N 1012.67 -3.73061 -4.44754 0
M  V30 10426 H 1015.44 -2.96297 -0.450352 0
M  V30 10427 H 1013 -1.616 -0.0984376 0
M  V30 10428 H 1014.99 -2.7466 -2.97227 0
M  V30 10429 H 1013.56 -1.75721 -2.58536 0
M  V30 10430 H 1012.78 -3.77532 -1.13417 0
M  V30 10431 H 1014.07 -4.71777 -1.90537 0
M  V30 10432 H 1013.46 -3.1706 -4.68497 0
M  V30 10433 H 1012.02 -3.96511 -5.17322 0
M  V30 10434 N 1015.45 0.186762 -1.56489 0
M  V30 10435 C 1016.68 0.925916 -1.85584 0
M  V30 10436 C 1017.1 1.75708 -0.671446 0
M  V30 10437 O 1016.46 1.7728 0.379687 0
M  V30 10438 C 1016.51 1.79107 -3.12975 0
M  V30 10439 O 1015.61 2.89088 -2.94112 0
M  V30 10440 H 1014.96 0.260275 -0.610863 0
M  V30 10441 H 1017.49 0.189561 -2.0372 0
M  V30 10442 H 1017.5 2.19408 -3.43983 0
M  V30 10443 H 1016.17 1.18044 -3.98796 0
M  V30 10444 H 1014.75 2.52482 -2.74422 0
M  V30 10445 N 1016.93 1.50896 0.454776 0
M  V30 10446 C 1017.86 1.73885 1.5584 0
M  V30 10447 C 1018.84 0.588172 1.59607 0
M  V30 10448 O 1020.03 0.829054 1.75614 0
M  V30 10449 C 1017.16 1.84796 2.94054 0
M  V30 10450 C 1016.11 3.00111 3.05152 0
M  V30 10451 C 1015.44 2.96183 4.45174 0
M  V30 10452 C 1016.74 4.40365 2.80849 0
M  V30 10453 H 1018.43 2.66292 1.36854 0
M  V30 10454 H 1015.98 1.28142 0.656936 0
M  V30 10455 H 1017.93 1.99462 3.71204 0
M  V30 10456 H 1016.66 0.890235 3.14233 0
M  V30 10457 H 1015.31 2.85121 2.30438 0
M  V30 10458 H 1014.96 1.98224 4.62295 0
M  V30 10459 H 1014.66 3.73608 4.53532 0
M  V30 10460 H 1016.19 3.1292 5.24322 0
M  V30 10461 H 1017.6 4.55795 3.47741 0
M  V30 10462 H 1016 5.19363 3.00636 0
M  V30 10463 H 1017.07 4.51606 1.76579 0
M  V30 10464 N 1018.41 -0.709066 1.40748 0
M  V30 10465 C 1019.32 -1.85314 1.43861 0
M  V30 10466 C 1020.34 -1.70832 0.330539 0
M  V30 10467 O 1021.51 -1.92983 0.576152 0
M  V30 10468 C 1018.58 -3.21174 1.30568 0
M  V30 10469 C 1017.64 -3.47863 2.51574 0
M  V30 10470 C 1016.87 -4.77241 2.38906 0
M  V30 10471 O 1017.09 -5.52791 1.40636 0
M  V30 10472 O 1016.03 -5.04413 3.28407 0
M  V30 10473 H 1019.85 -1.85644 2.40354 0
M  V30 10474 H 1017.44 -0.860352 1.2214 0
M  V30 10475 H 1019.32 -4.02313 1.25388 0
M  V30 10476 H 1018 -3.21557 0.371841 0
M  V30 10477 H 1016.9 -2.66708 2.62331 0
M  V30 10478 H 1018.24 -3.52283 3.43741 0
M  V30 10479 N 1019.89 -1.26353 -0.941956 0
M  V30 10480 C 1020.85 -1.07904 -2.02211 0
M  V30 10481 C 1021.85 -0.0276283 -1.60776 0
M  V30 10482 O 1023.04 -0.270965 -1.7208 0
M  V30 10483 C 1020.17 -0.641084 -3.34818 0
M  V30 10484 H 1021.37 -2.03804 -2.20009 0
M  V30 10485 H 1018.92 -1.08939 -1.12081 0
M  V30 10486 H 1019.66 0.319943 -3.22718 0
M  V30 10487 H 1019.44 -1.40027 -3.66244 0
M  V30 10488 H 1020.93 -0.533826 -4.14174 0
M  V30 10489 N 1021.37 1.14642 -1.08144 0
M  V30 10490 C 1022.61 1.85892 -0.810683 0
M  V30 10491 C 1022.95 1.82575 0.661821 0
M  V30 10492 O 1022.22 1.25454 1.48632 0
M  V30 10493 C 1022.5 3.34647 -1.32979 0
M  V30 10494 C 1022.36 3.46551 -2.86744 0
M  V30 10495 C 1023.68 4.29661 -0.952864 0
M  V30 10496 H 1020.8 0.674963 -0.295963 0
M  V30 10497 H 1023.44 1.3464 -1.3406 0
M  V30 10498 H 1021.59 3.78425 -0.87903 0
M  V30 10499 H 1023.26 3.11579 -3.40171 0
M  V30 10500 H 1021.5 2.87849 -3.24539 0
M  V30 10501 H 1022.17 4.51101 -3.18138 0
M  V30 10502 H 1024.65 3.93885 -1.34141 0
M  V30 10503 H 1023.53 5.32209 -1.34331 0
M  V30 10504 H 1023.79 4.41877 0.140392 0
M  V30 10505 N 1022.85 0.866709 1.31628 0
M  V30 10506 C 1023.78 0.335762 2.31073 0
M  V30 10507 C 1024.76 -0.571597 1.60209 0
M  V30 10508 O 1025.94 -0.489306 1.87935 0
M  V30 10509 C 1023.07 -0.466416 3.44154 0
M  V30 10510 C 1022.03 0.347561 4.26586 0
M  V30 10511 C 1021.35 -0.5801 5.31544 0
M  V30 10512 C 1022.65 1.57986 4.97833 0
M  V30 10513 H 1024.35 1.16673 2.75731 0
M  V30 10514 H 1021.89 0.56248 1.3256 0
M  V30 10515 H 1023.84 -0.84836 4.12772 0
M  V30 10516 H 1022.57 -1.33086 2.98254 0
M  V30 10517 H 1021.23 0.71141 3.59631 0
M  V30 10518 H 1020.88 -1.44174 4.81895 0
M  V30 10519 H 1020.58 -0.0393965 5.87587 0
M  V30 10520 H 1022.1 -0.958958 6.03023 0
M  V30 10521 H 1023.51 1.26954 5.59067 0
M  V30 10522 H 1021.91 2.05939 5.63657 0
M  V30 10523 H 1022.98 2.3345 4.25005 0
M  V30 10524 N 1024.32 -1.44642 0.625825 0
M  V30 10525 C 1025.57 -2.01308 0.125682 0
M  V30 10526 C 1025.89 -1.49773 -1.25807 0
M  V30 10527 O 1027.09 -1.98533 -1.85194 0
M  V30 10528 C 1025.55 -3.59479 0.17395 0
M  V30 10529 C 1025.16 -4.20011 1.55868 0
M  V30 10530 C 1026.9 -4.2364 -0.270005 0
M  V30 10531 C 1024.81 -5.7039 1.56235 0
M  V30 10532 H 1023.74 -0.75276 0.0432194 0
M  V30 10533 H 1026.39 -1.65916 0.783842 0
M  V30 10534 H 1024.77 -3.92145 -0.551212 0
M  V30 10535 H 1025.94 -3.98891 2.307 0
M  V30 10536 H 1024.26 -3.68116 1.94627 0
M  V30 10537 H 1026.86 -5.33931 -0.28672 0
M  V30 10538 H 1027.2 -3.95603 -1.29629 0
M  V30 10539 H 1027.73 -3.95759 0.402487 0
M  V30 10540 H 1024.47 -6.03154 2.56683 0
M  V30 10541 H 1023.99 -5.93648 0.856881 0
M  V30 10542 H 1025.67 -6.33929 1.29396 0
M  V30 10543 N 1025.8 -0.366053 -1.5329 0
M  V30 10544 C 1026.73 0.514916 -2.23341 0
M  V30 10545 C 1027.75 1.04579 -1.24768 0
M  V30 10546 O 1028.94 0.952084 -1.50989 0
M  V30 10547 C 1026.04 1.72374 -2.91788 0
M  V30 10548 C 1025.21 1.32429 -4.16871 0
M  V30 10549 C 1024.27 2.39524 -4.68524 0
M  V30 10550 O 1023.29 2.01895 -5.32191 0
M  V30 10551 N 1024.5 3.71116 -4.46378 0
M  V30 10552 H 1027.26 -0.0851272 -2.99579 0
M  V30 10553 H 1024.82 -0.191255 -1.60766 0
M  V30 10554 H 1026.81 2.43496 -3.23252 0
M  V30 10555 H 1025.38 2.23064 -2.19 0
M  V30 10556 H 1024.6 0.442901 -3.91704 0
M  V30 10557 H 1025.89 1.03372 -4.98188 0
M  V30 10558 H 1025.29 4.04463 -3.95508 0
M  V30 10559 H 1023.85 4.38341 -4.82391 0
M  V30 10560 N 1027.28 1.57312 -0.0952337 0
M  V30 10561 C 1028.51 1.98697 0.57682 0
M  V30 10562 C 1028.92 0.974347 1.61716 0
M  V30 10563 O 1028.28 -0.036022 1.82464 0
M  V30 10564 C 1028.33 3.40133 1.2244 0
M  V30 10565 O 1028.05 4.37518 0.225678 0
M  V30 10566 C 1029.55 3.96522 1.98205 0
M  V30 10567 H 1026.77 0.65294 0.154629 0
M  V30 10568 H 1029.32 2.03754 -0.174562 0
M  V30 10569 H 1027.47 3.3609 1.92671 0
M  V30 10570 H 1027.89 5.199 0.693116 0
M  V30 10571 H 1029.36 4.97637 2.38875 0
M  V30 10572 H 1029.84 3.34347 2.84796 0
M  V30 10573 H 1030.44 4.04038 1.3279 0
M  V30 10574 N 1028.76 -0.17846 1.56586 0
M  V30 10575 C 1030 -0.897562 1.81856 0
M  V30 10576 C 1030.34 -1.82204 0.671955 0
M  V30 10577 O 1029.61 -1.91739 -0.326535 0
M  V30 10578 C 1029.89 -1.69942 3.17477 0
M  V30 10579 C 1029.75 -0.798545 4.42655 0
M  V30 10580 C 1031.07 -2.66861 3.49962 0
M  V30 10581 H 1028.19 -0.324863 0.661539 0
M  V30 10582 H 1030.83 -0.164106 1.8929 0
M  V30 10583 H 1028.98 -2.32471 3.11271 0
M  V30 10584 H 1030.65 -0.18668 4.60922 0
M  V30 10585 H 1028.89 -0.106181 4.3367 0
M  V30 10586 H 1029.56 -1.39496 5.34083 0
M  V30 10587 H 1032.04 -2.1446 3.56576 0
M  V30 10588 H 1030.92 -3.20037 4.45946 0
M  V30 10589 H 1031.18 -3.46715 2.74301 0
M  V30 10590 N 1030.24 -1.51135 -0.446768 0
M  V30 10591 C 1031.47 -1.66887 -1.21788 0
M  V30 10592 C 1031.87 -0.361729 -1.8571 0
M  V30 10593 O 1031.22 0.668784 -1.71093 0
M  V30 10594 C 1031.28 -2.72062 -2.34994 0
M  V30 10595 C 1030.94 -4.14935 -1.91516 0
M  V30 10596 C 1031.94 -5.00021 -1.42389 0
M  V30 10597 C 1029.62 -4.60985 -1.99495 0
M  V30 10598 C 1031.62 -6.29216 -1.01816 0
M  V30 10599 C 1029.31 -5.90179 -1.58532 0
M  V30 10600 C 1030.3 -6.74121 -1.09774 0
M  V30 10601 O 1029.99 -8.009 -0.69389 0
M  V30 10602 H 1029.72 -0.563431 -0.373525 0
M  V30 10603 H 1032.28 -1.98261 -0.536818 0
M  V30 10604 H 1030.51 -2.35983 -3.06348 0
M  V30 10605 H 1032.2 -2.76788 -2.96889 0
M  V30 10606 H 1032.96 -4.6565 -1.35627 0
M  V30 10607 H 1028.84 -3.95777 -2.36393 0
M  V30 10608 H 1032.39 -6.94687 -0.636879 0
M  V30 10609 H 1028.28 -6.24066 -1.64962 0
M  V30 10610 H 1029.05 -8.14376 -0.820582 0
M  V30 10611 N 1031.71 0.701592 -1.41122 0
M  V30 10612 C 1032.66 1.83691 -1.4269 0
M  V30 10613 C 1033.66 1.6662 -0.305658 0
M  V30 10614 O 1034.86 1.73554 -0.477392 0
M  V30 10615 H 1031.24 0.605222 -0.44633 0
M  V30 10616 H 1033.21 1.79485 -2.38386 0
M  V30 10617 C 1031.96 3.21666 -1.32008 0
M  V30 10618 H 1031.28 3.35416 -2.17569 0
M  V30 10619 H 1032.72 4.012 -1.37165 0
M  V30 10620 C 1031.18 3.36885 -0.0317678 0
M  V30 10621 O 1031.71 3.90885 0.925836 0
M  V30 10622 N 1029.91 2.90569 0.0423401 0
M  V30 10623 H 1029.46 2.46812 -0.737673 0
M  V30 10624 H 1029.42 3.0113 0.903764 0
M  V30 10625 N 1033.19 1.2685 0.935242 0
M  V30 10626 C 1034.42 1.15538 1.71635 0
M  V30 10627 C 1034.83 -0.288698 1.8658 0
M  V30 10628 O 1034.19 -1.19721 1.37743 0
M  V30 10629 C 1034.24 1.8259 3.11999 0
M  V30 10630 O 1033.96 3.21355 2.97763 0
M  V30 10631 C 1035.46 1.77307 4.06297 0
M  V30 10632 H 1032.68 0.402055 0.537208 0
M  V30 10633 H 1035.23 1.67582 1.17203 0
M  V30 10634 H 1033.38 1.3447 3.63313 0
M  V30 10635 H 1033.8 3.54626 3.86446 0
M  V30 10636 H 1035.27 2.28851 5.02326 0
M  V30 10637 H 1035.75 0.740823 4.32907 0
M  V30 10638 H 1036.35 2.25007 3.60904 0
M  V30 10639 N 1034.67 -1.14067 1.0875 0
M  V30 10640 C 1035.62 -2.19261 0.720633 0
M  V30 10641 C 1036.59 -1.63462 -0.294847 0
M  V30 10642 O 1037.77 -1.89967 -0.178058 0
M  V30 10643 C 1034.91 -3.44816 0.139873 0
M  V30 10644 C 1034.03 -4.1475 1.20856 0
M  V30 10645 C 1033.16 -5.27899 0.591285 0
M  V30 10646 C 1032.2 -5.89672 1.64176 0
M  V30 10647 N 1031.34 -6.94264 1.04603 0
M  V30 10648 H 1036.18 -2.49991 1.62198 0
M  V30 10649 H 1033.71 -1.22757 0.810497 0
M  V30 10650 H 1035.67 -4.16648 -0.214587 0
M  V30 10651 H 1034.3 -3.14558 -0.724774 0
M  V30 10652 H 1033.35 -3.41272 1.6804 0
M  V30 10653 H 1034.67 -4.56753 2.00446 0
M  V30 10654 H 1033.82 -6.06417 0.185271 0
M  V30 10655 H 1032.56 -4.87128 -0.236236 0
M  V30 10656 H 1031.56 -5.09854 2.05739 0
M  V30 10657 H 1032.79 -6.32517 2.47182 0
M  V30 10658 H 1030.73 -6.55562 0.239664 0
M  V30 10659 H 1030.65 -7.34771 1.77898 0
M  V30 10660 H 1031.92 -7.7665 0.665989 0
M  V30 10661 N 1036.15 -0.873678 -1.31166 0
M  V30 10662 C 1037.08 -0.276805 -2.26515 0
M  V30 10663 C 1038.06 0.596166 -1.51277 0
M  V30 10664 O 1039.24 0.548769 -1.80335 0
M  V30 10665 C 1036.37 0.607711 -3.33203 0
M  V30 10666 C 1035.42 -0.194411 -4.26057 0
M  V30 10667 S 1036.25 -1.57534 -5.11804 0
M  V30 10668 C 1037.41 -0.697047 -6.22006 0
M  V30 10669 H 1037.64 -1.08505 -2.76792 0
M  V30 10670 H 1035.17 -0.672419 -1.38989 0
M  V30 10671 H 1037.13 1.11234 -3.95142 0
M  V30 10672 H 1035.79 1.38994 -2.81673 0
M  V30 10673 H 1034.98 0.480094 -5.01708 0
M  V30 10674 H 1034.59 -0.631262 -3.68634 0
M  V30 10675 H 1036.88 0.0907919 -6.77439 0
M  V30 10676 H 1037.82 -1.42481 -6.93617 0
M  V30 10677 H 1038.23 -0.262954 -5.63887 0
M  V30 10678 N 1037.63 1.44308 -0.633487 0
M  V30 10679 C 1038.59 2.2912 0.060376 0
M  V30 10680 C 1039.59 1.41166 0.769992 0
M  V30 10681 O 1040.78 1.63012 0.614224 0
M  V30 10682 C 1037.91 3.22798 1.0961 0
M  V30 10683 H 1039.1 2.91958 -0.685617 0
M  V30 10684 H 1036.66 1.51259 -0.393738 0
M  V30 10685 H 1037.39 2.64815 1.87199 0
M  V30 10686 H 1037.18 3.87618 0.591161 0
M  V30 10687 H 1038.67 3.86504 1.58127 0
M  V30 10688 N 1039.1 0.374177 1.53094 0
M  V30 10689 C 1040.33 -0.215903 2.06273 0
M  V30 10690 C 1040.75 -1.40979 1.24526 0
M  V30 10691 O 1040.11 -1.79331 0.266462 0
M  V30 10692 C 1040.16 -0.579089 3.5592 0
M  V30 10693 O 1039.26 -1.67516 3.76845 0
M  V30 10694 H 1038.61 -0.0293981 0.663349 0
M  V30 10695 H 1041.14 0.537271 1.9742 0
M  V30 10696 H 1041.15 -0.847678 3.99097 0
M  V30 10697 H 1039.82 0.293843 4.14861 0
M  V30 10698 H 1038.4 -1.40146 3.45563 0
M  V30 10699 N 1040.58 -1.57259 0.103575 0
M  V30 10700 C 1041.83 -1.94945 -0.558953 0
M  V30 10701 C 1042.16 -0.986038 -1.67305 0
M  V30 10702 O 1041.44 -0.0205464 -1.94489 0
M  V30 10703 C 1041.72 -3.42689 -1.10617 0
M  V30 10704 C 1041.57 -4.498 0.00345246 0
M  V30 10705 C 1042.89 -3.91933 -2.00191 0
M  V30 10706 H 1040.01 -0.708859 -0.201713 0
M  V30 10707 H 1042.65 -1.89183 0.176006 0
M  V30 10708 H 1040.8 -3.4773 -1.73251 0
M  V30 10709 H 1042.47 -4.56866 0.638082 0
M  V30 10710 H 1040.72 -4.28615 0.668705 0
M  V30 10711 H 1041.39 -5.50397 -0.420396 0
M  V30 10712 H 1043.86 -3.89098 -1.4745 0
M  V30 10713 H 1042.74 -4.9586 -2.35402 0
M  V30 10714 H 1043 -3.31722 -2.92255 0
M  V30 10715 N 1042.06 0.170153 -1.56679 0
M  V30 10716 C 1043.31 0.884841 -1.817 0
M  V30 10717 C 1043.63 1.82731 -0.680763 0
M  V30 10718 O 1042.9 1.936 0.299294 0
M  V30 10719 H 1041.48 0.329738 -0.670285 0
M  V30 10720 H 1044.14 0.169691 -1.9416 0
M  V30 10721 H 1043.24 1.46104 -2.7579 0
M  V30 10722 N 1043.54 1.5137 0.438746 0
M  V30 10723 C 1044.47 1.75528 1.53987 0
M  V30 10724 C 1045.45 0.605067 1.58975 0
M  V30 10725 O 1046.63 0.847634 1.74725 0
M  V30 10726 C 1043.76 1.87904 2.92078 0
M  V30 10727 C 1042.72 3.0333 3.01951 0
M  V30 10728 C 1042.04 3.00888 4.42007 0
M  V30 10729 C 1043.34 4.43319 2.76163 0
M  V30 10730 H 1045.04 2.67728 1.34022 0
M  V30 10731 H 1042.58 1.28831 0.643308 0
M  V30 10732 H 1044.54 2.03388 3.69068 0
M  V30 10733 H 1043.26 0.923514 3.13271 0
M  V30 10734 H 1041.92 2.87549 2.274 0
M  V30 10735 H 1041.57 2.03116 4.60166 0
M  V30 10736 H 1041.27 3.78397 4.49544 0
M  V30 10737 H 1042.79 3.18464 5.20973 0
M  V30 10738 H 1044.21 4.59458 3.42887 0
M  V30 10739 H 1042.6 5.22523 2.9511 0
M  V30 10740 H 1043.67 4.53453 1.71779 0
M  V30 10741 N 1045.02 -0.694098 1.41492 0
M  V30 10742 C 1046.24 -1.48789 1.44488 0
M  V30 10743 C 1046.67 -1.88028 0.0521588 0
M  V30 10744 O 1046.02 -1.54727 -0.944952 0
M  V30 10745 C 1046.07 -2.72586 2.3607 0
M  V30 10746 O 1045.18 -3.70128 1.81876 0
M  V30 10747 H 1044.52 -0.447758 0.490315 0
M  V30 10748 H 1047.05 -0.853036 1.85969 0
M  V30 10749 H 1047.06 -3.20877 2.51995 0
M  V30 10750 H 1045.73 -2.43363 3.37264 0
M  V30 10751 H 1044.31 -3.29069 1.75408 0
M  V30 10752 N 1046.49 -1.27344 -0.928501 0
M  V30 10753 C 1047.77 -1.04362 -1.65433 0
M  V30 10754 C 1048.15 0.421896 -2.06841 0
M  V30 10755 O 1047.5 1.40496 -1.80203 0
M  V30 10756 C 1047.71 -2.00442 -2.85699 0
M  V30 10757 C 1049.06 -2.29767 -3.57061 0
M  V30 10758 O 1050.08 -1.98409 -2.95825 0
M  V30 10759 O 1048.94 -2.83217 -4.67387 0
M  V30 10760 H 1046.03 -0.397783 -0.72505 0
M  V30 10761 H 1048.58 -1.38606 -0.979109 0
M  V30 10762 H 1047.35 -2.99281 -2.52085 0
M  V30 10763 H 1046.98 -1.66755 -3.60941 0
M  V30 10764 N 1047.97 1.13488 -1.09353 0
M  V30 10765 C 1049.22 1.841 -0.82401 0
M  V30 10766 C 1049.53 1.84393 0.652586 0
M  V30 10767 O 1050.74 2.5089 1.03762 0
M  V30 10768 C 1049.2 3.30523 -1.42418 0
M  V30 10769 C 1048.8 3.38621 -2.93326 0
M  V30 10770 C 1050.55 4.06182 -1.23356 0
M  V30 10771 C 1048.46 4.79311 -3.46432 0
M  V30 10772 H 1047.39 0.68974 -0.304589 0
M  V30 10773 H 1050.04 1.27866 -1.31615 0
M  V30 10774 H 1048.42 3.86555 -0.859727 0
M  V30 10775 H 1049.59 2.92587 -3.5599 0
M  V30 10776 H 1047.91 2.76426 -3.11412 0
M  V30 10777 H 1050.5 5.10047 -1.60488 0
M  V30 10778 H 1050.85 4.15936 -0.174152 0
M  V30 10779 H 1051.38 3.56477 -1.76547 0
M  V30 10780 H 1048.12 4.74748 -4.5199 0
M  V30 10781 H 1047.64 5.25842 -2.8853 0
M  V30 10782 H 1049.32 5.48227 -3.43593 0
M  V30 10783 N 1049.45 0.880621 1.30701 0
M  V30 10784 C 1050.41 0.349087 2.26526 0
M  V30 10785 C 1051.41 -0.505973 1.52632 0
M  V30 10786 O 1052.6 -0.313751 1.71351 0
M  V30 10787 C 1049.74 -0.503023 3.37168 0
M  V30 10788 H 1050.93 1.19516 2.75056 0
M  V30 10789 H 1048.48 0.657107 1.41816 0
M  V30 10790 H 1049.22 -1.36986 2.93948 0
M  V30 10791 H 1049 0.109389 3.91947 0
M  V30 10792 H 1050.49 -0.866845 4.08504 0
M  V30 10793 N 1050.93 -1.4397 0.641131 0
M  V30 10794 C 1051.86 -2.27948 -0.10731 0
M  V30 10795 C 1052.84 -1.39124 -0.841615 0
M  V30 10796 O 1054.02 -1.68566 -0.843662 0
M  V30 10797 C 1051.15 -3.18277 -1.15835 0
M  V30 10798 C 1050.2 -4.23276 -0.52345 0
M  V30 10799 S 1051.03 -5.30984 0.693969 0
M  V30 10800 C 1052.19 -6.24882 -0.356831 0
M  V30 10801 H 1052.42 -2.91077 0.605083 0
M  V30 10802 H 1049.95 -1.48303 0.429598 0
M  V30 10803 H 1051.91 -3.70867 -1.75977 0
M  V30 10804 H 1050.57 -2.54348 -1.84299 0
M  V30 10805 H 1049.76 -4.86533 -1.31536 0
M  V30 10806 H 1049.37 -3.74 0.00358355 0
M  V30 10807 H 1051.66 -6.66305 -1.22653 0
M  V30 10808 H 1052.6 -7.07692 0.240412 0
M  V30 10809 H 1053.01 -5.60301 -0.687217 0
M  V30 10810 N 1052.41 -0.382291 -1.52893 0
M  V30 10811 C 1053.68 0.259354 -1.93873 0
M  V30 10812 C 1054.06 1.64964 -1.3172 0
M  V30 10813 O 1053.41 2.23345 -0.482611 0
M  V30 10814 C 1053.62 0.292765 -3.4777 0
M  V30 10815 C 1054.97 0.525095 -4.21341 0
M  V30 10816 O 1055.99 0.373272 -3.54239 0
M  V30 10817 O 1054.85 0.822004 -5.40283 0
M  V30 10818 H 1051.95 0.159422 -0.811489 0
M  V30 10819 H 1054.49 -0.436289 -1.63996 0
M  V30 10820 H 1053.27 -0.681341 -3.85323 0
M  V30 10821 H 1052.89 1.03362 -3.8393 0
M  V30 10822 N 1053.89 1.57202 -0.111913 0
M  V30 10823 C 1055.11 1.99297 0.555713 0
M  V30 10824 C 1055.53 0.991444 1.60673 0
M  V30 10825 O 1054.89 -0.0166672 1.82492 0
M  V30 10826 C 1054.94 3.41413 1.18826 0
M  V30 10827 O 1054.66 4.37733 0.179261 0
M  V30 10828 C 1056.16 3.98602 1.93989 0
M  V30 10829 H 1053.38 0.654543 0.147695 0
M  V30 10830 H 1055.92 2.03557 -0.196163 0
M  V30 10831 H 1054.08 3.38115 1.89096 0
M  V30 10832 H 1054.49 5.20606 0.637935 0
M  V30 10833 H 1055.97 5.00143 2.33584 0
M  V30 10834 H 1056.44 3.37349 2.81233 0
M  V30 10835 H 1057.05 4.05424 1.28497 0
M  V30 10836 N 1055.36 -0.161842 1.56767 0
M  V30 10837 C 1056.59 -0.892247 1.86672 0
M  V30 10838 C 1057.01 -1.75407 0.69841 0
M  V30 10839 O 1056.36 -1.7945 -0.332251 0
M  V30 10840 C 1056.41 -1.7612 3.15696 0
M  V30 10841 O 1056.14 -0.934131 4.28025 0
M  V30 10842 C 1057.64 -2.60046 3.59014 0
M  V30 10843 H 1054.86 -0.258747 0.619105 0
M  V30 10844 H 1057.4 -0.159089 2.0388 0
M  V30 10845 H 1055.56 -2.44759 3.00286 0
M  V30 10846 H 1055.97 -1.52931 5.01709 0
M  V30 10847 H 1057.44 -3.16618 4.5217 0
M  V30 10848 H 1057.92 -3.35374 2.83586 0
M  V30 10849 H 1058.53 -1.96724 3.77067 0
M  V30 10850 N 1056.84 -1.516 -0.430713 0
M  V30 10851 C 1058.09 -1.6484 -1.18134 0
M  V30 10852 C 1058.42 -0.366725 -1.90706 0
M  V30 10853 O 1057.7 0.63398 -1.83878 0
M  V30 10854 C 1057.98 -2.85617 -2.19306 0
M  V30 10855 C 1057.83 -4.23778 -1.50773 0
M  V30 10856 C 1059.15 -3.01909 -3.20217 0
M  V30 10857 H 1056.27 -0.599907 -0.428113 0
M  V30 10858 H 1058.91 -1.84102 -0.46973 0
M  V30 10859 H 1057.06 -2.69325 -2.79993 0
M  V30 10860 H 1058.73 -4.51752 -0.93371 0
M  V30 10861 H 1056.98 -4.26171 -0.809966 0
M  V30 10862 H 1057.65 -5.04291 -2.24487 0
M  V30 10863 H 1060.12 -3.16956 -2.69589 0
M  V30 10864 H 1059 -3.87968 -3.88293 0
M  V30 10865 H 1059.26 -2.1427 -3.86705 0
M  V30 10866 N 1058.32 0.686584 -1.41858 0
M  V30 10867 C 1059.55 1.47519 -1.45072 0
M  V30 10868 C 1059.96 1.88709 -0.0585868 0
M  V30 10869 O 1059.32 1.57373 0.924116 0
M  V30 10870 C 1059.37 2.73195 -2.36742 0
M  V30 10871 O 1059.09 2.33736 -3.70539 0
M  V30 10872 C 1060.59 3.66861 -2.48854 0
M  V30 10873 H 1057.81 0.454307 -0.493808 0
M  V30 10874 H 1060.36 0.844612 -1.86243 0
M  V30 10875 H 1058.51 3.32468 -1.98856 0
M  V30 10876 H 1058.93 3.14809 -4.19518 0
M  V30 10877 H 1060.4 4.51801 -3.17143 0
M  V30 10878 H 1060.88 4.11961 -1.52265 0
M  V30 10879 H 1061.48 3.13486 -2.87414 0
M  V30 10880 N 1059.8 1.27835 0.921735 0
M  V30 10881 C 1060.75 1.07723 2.00947 0
M  V30 10882 C 1061.73 0.00336676 1.609 0
M  V30 10883 O 1062.92 0.222593 1.75595 0
M  V30 10884 C 1060.05 0.732732 3.35389 0
M  V30 10885 C 1059.14 1.84504 3.81863 0
M  V30 10886 N 1059.53 3.08551 4.00787 0
M  V30 10887 C 1057.83 1.73308 4.10951 0
M  V30 10888 C 1058.53 3.80974 4.39584 0
M  V30 10889 N 1057.5 3.08773 4.47393 0
M  V30 10890 H 1061.31 2.01854 2.13617 0
M  V30 10891 H 1058.82 1.18637 1.109 0
M  V30 10892 H 1060.82 0.56975 4.12988 0
M  V30 10893 H 1059.48 -0.200885 3.24078 0
M  V30 10894 H 1060.49 3.44248 3.86928 0
M  V30 10895 H 1057.17 0.870698 4.0832 0
M  V30 10896 H 1058.56 4.87617 4.62255 0
M  V30 10897 N 1061.28 -1.12907 1.09954 0
M  V30 10898 C 1062.24 -2.16673 0.747364 0
M  V30 10899 C 1063.24 -1.59208 -0.225741 0
M  V30 10900 O 1064.43 -1.742 -0.00322482 0
M  V30 10901 C 1061.56 -3.40735 0.106169 0
M  V30 10902 H 1062.75 -2.49341 1.6664 0
M  V30 10903 H 1060.31 -1.27828 0.899421 0
M  V30 10904 H 1061.04 -3.13661 -0.82384 0
M  V30 10905 H 1060.83 -3.83717 0.806434 0
M  V30 10906 H 1062.32 -4.17414 -0.12464 0
M  V30 10907 N 1062.75 -0.88754 -1.30232 0
M  V30 10908 C 1063.98 -0.522306 -2.00199 0
M  V30 10909 C 1064.4 0.889866 -1.66514 0
M  V30 10910 O 1063.75 1.58558 -0.903639 0
M  V30 10911 C 1063.8 -0.690551 -3.54843 0
M  V30 10912 O 1063.53 -2.04713 -3.8733 0
M  V30 10913 C 1065.03 -0.328649 -4.4208 0
M  V30 10914 H 1062.25 -0.201628 -0.63999 0
M  V30 10915 H 1064.79 -1.19355 -1.66056 0
M  V30 10916 H 1062.95 -0.0666493 -3.87343 0
M  V30 10917 H 1063.36 -2.06762 -4.82027 0
M  V30 10918 H 1064.83 -0.497257 -5.49756 0
M  V30 10919 H 1065.31 0.733502 -4.33032 0
M  V30 10920 H 1065.92 -0.928982 -4.1503 0
M  V30 10921 N 1064.23 1.43628 -0.648757 0
M  V30 10922 C 1065.46 2.06732 -0.166284 0
M  V30 10923 C 1065.88 1.48281 1.15734 0
M  V30 10924 O 1065.24 0.591018 1.71396 0
M  V30 10925 C 1065.29 3.60502 -0.0838732 0
M  V30 10926 O 1064.39 4.01186 0.955185 0
M  V30 10927 H 1063.73 0.657479 -0.0928285 0
M  V30 10928 H 1066.26 1.84208 -0.890421 0
M  V30 10929 H 1066.27 4.07875 0.100923 0
M  V30 10930 H 1064.95 4.02424 -1.05014 0
M  V30 10931 H 1063.53 3.65412 0.743537 0
M  V30 10932 N 1065.71 0.390394 1.52688 0
M  V30 10933 C 1066.66 -0.461191 2.23287 0
M  V30 10934 C 1067.64 -1.02875 1.23716 0
M  V30 10935 O 1068.84 -0.954675 1.49047 0
M  V30 10936 C 1065.97 -1.58736 3.04397 0
M  V30 10937 C 1065.05 -1.03149 4.11365 0
M  V30 10938 N 1065.44 -0.20066 5.05402 0
M  V30 10939 C 1063.74 -1.30388 4.26515 0
M  V30 10940 C 1064.44 0.106548 5.81602 0
M  V30 10941 N 1063.42 -0.497687 5.41317 0
M  V30 10942 H 1067.22 0.1801 2.93348 0
M  V30 10943 H 1064.73 0.199761 1.61167 0
M  V30 10944 H 1066.73 -2.20986 3.53512 0
M  V30 10945 H 1065.39 -2.23147 2.35872 0
M  V30 10946 H 1066.4 0.162168 5.17646 0
M  V30 10947 H 1063.08 -1.94894 3.69219 0
M  V30 10948 H 1064.47 0.779778 6.6736 0
M  V30 10949 N 1067.19 -1.57141 0.120249 0
M  V30 10950 C 1068.44 -1.94852 -0.536387 0
M  V30 10951 C 1068.76 -1.00452 -1.67136 0
M  V30 10952 O 1068.03 -0.061053 -1.95805 0
M  V30 10953 H 1066.61 -0.719411 -0.201138 0
M  V30 10954 H 1069.27 -1.93977 0.189482 0
M  V30 10955 H 1068.37 -2.97917 -0.930145 0
M  V30 10956 N 1068.67 0.153526 -1.5685 0
M  V30 10957 C 1070.08 0.505939 -1.51368 0
M  V30 10958 C 1070.28 1.83721 -0.82757 0
M  V30 10959 O 1069.34 2.49385 -0.395364 0
M  V30 10960 C 1070.65 0.522269 -2.9613 0
M  V30 10961 C 1072.2 0.608238 -3.07033 0
M  V30 10962 C 1072.67 0.655292 -4.53288 0
M  V30 10963 N 1074.17 0.717695 -4.57606 0
M  V30 10964 C 1074.9 0.774977 -5.68139 0
M  V30 10965 N 1074.4 0.792003 -6.88258 0
M  V30 10966 N 1076.19 0.81536 -5.56155 0
M  V30 10967 H 1068.34 -0.71919 -1.99853 0
M  V30 10968 H 1070.6 -0.261466 -0.91123 0
M  V30 10969 H 1070.31 -0.387595 -3.49558 0
M  V30 10970 H 1070.18 1.3625 -3.51733 0
M  V30 10971 H 1072.57 1.50852 -2.53629 0
M  V30 10972 H 1072.65 -0.259014 -2.54485 0
M  V30 10973 H 1072.3 -0.240809 -5.07329 0
M  V30 10974 H 1072.23 1.53894 -5.03611 0
M  V30 10975 H 1074.72 0.7121 -3.7113 0
M  V30 10976 H 1075.03 0.837378 -7.6825 0
M  V30 10977 H 1073.37 0.759986 -6.90832 0
M  V30 10978 H 1076.57 0.799183 -4.61227 0
M  V30 10979 H 1076.74 0.856537 -6.42314 0
M  V30 10980 N 1070.14 1.51827 0.422667 0
M  V30 10981 C 1071.11 1.7359 1.49663 0
M  V30 10982 C 1072.11 0.605811 1.48952 0
M  V30 10983 O 1073.3 0.87354 1.50715 0
M  V30 10984 C 1070.43 1.80585 2.8914 0
M  V30 10985 H 1071.62 2.69453 1.31664 0
M  V30 10986 H 1069.18 1.42038 0.652298 0
M  V30 10987 H 1069.91 0.865895 3.12526 0
M  V30 10988 H 1069.7 2.62729 2.9106 0
M  V30 10989 H 1071.19 1.99212 3.67021 0
M  V30 10990 N 1071.62 -0.679052 1.4222 0
M  V30 10991 C 1072.57 -1.78522 1.41824 0
M  V30 10992 C 1073.56 -1.58262 0.290179 0
M  V30 10993 O 1074.75 -1.68813 0.532092 0
M  V30 10994 C 1071.88 -3.16952 1.31895 0
M  V30 10995 C 1070.96 -3.42849 2.4963 0
M  V30 10996 N 1071.35 -3.39354 3.75063 0
M  V30 10997 C 1069.65 -3.73468 2.43799 0
M  V30 10998 C 1070.35 -3.64617 4.53243 0
M  V30 10999 N 1069.33 -3.85174 3.83591 0
M  V30 11000 H 1073.13 -1.74206 2.36705 0
M  V30 11001 H 1070.65 -0.879719 1.36509 0
M  V30 11002 H 1072.64 -3.96214 1.29693 0
M  V30 11003 H 1071.3 -3.22467 0.380127 0
M  V30 11004 H 1072.31 -3.19354 4.07718 0
M  V30 11005 H 1068.99 -3.86254 1.58474 0
M  V30 11006 H 1070.38 -3.67912 5.62219 0
M  V30 11007 N 1073.1 -1.28322 -0.914942 0
M  V30 11008 C 1074.33 -1.1837 -1.70304 0
M  V30 11009 C 1074.75 0.254291 -1.86373 0
M  V30 11010 O 1074.11 1.18398 -1.37301 0
M  V30 11011 C 1074.16 -1.88603 -3.07346 0
M  V30 11012 O 1073.26 -1.19268 -3.94777 0
M  V30 11013 H 1072.6 -0.410978 -0.52153 0
M  V30 11014 H 1075.13 -1.69622 -1.14409 0
M  V30 11015 H 1075.14 -1.96463 -3.57584 0
M  V30 11016 H 1073.82 -2.93201 -2.94967 0
M  V30 11017 H 1072.39 -1.19563 -3.53212 0
M  V30 11018 N 1074.58 1.12322 -1.10551 0
M  V30 11019 C 1075.82 1.8413 -0.849932 0
M  V30 11020 C 1076.16 1.83938 0.622946 0
M  V30 11021 O 1075.43 1.28579 1.45937 0
M  V30 11022 C 1075.72 3.31751 -1.40048 0
M  V30 11023 C 1075.57 3.40391 -2.9403 0
M  V30 11024 C 1076.89 4.27543 -1.04379 0
M  V30 11025 H 1074.01 0.668533 -0.310213 0
M  V30 11026 H 1076.65 1.31766 -1.36886 0
M  V30 11027 H 1074.8 3.76475 -0.959102 0
M  V30 11028 H 1076.47 3.04294 -3.46703 0
M  V30 11029 H 1074.71 2.809 -3.30571 0
M  V30 11030 H 1075.38 4.44252 -3.27635 0
M  V30 11031 H 1077.86 3.90951 -1.42466 0
M  V30 11032 H 1076.74 5.2924 -1.4559 0
M  V30 11033 H 1077 4.42075 0.0466316 0
M  V30 11034 N 1076.06 0.894434 1.2976 0
M  V30 11035 C 1076.97 0.372622 2.31622 0
M  V30 11036 C 1077.98 -0.52996 1.65733 0
M  V30 11037 O 1079.16 -0.420807 1.96955 0
M  V30 11038 C 1076.22 -0.396076 3.4443 0
M  V30 11039 C 1075.28 0.537394 4.25923 0
M  V30 11040 C 1074.52 -0.194713 5.33345 0
M  V30 11041 O 1074.74 -1.41943 5.52457 0
M  V30 11042 O 1073.67 0.460055 6.00139 0
M  V30 11043 H 1077.5 1.21756 2.78225 0
M  V30 11044 H 1075.09 0.65858 1.34101 0
M  V30 11045 H 1076.97 -0.830962 4.13126 0
M  V30 11046 H 1075.64 -1.21716 2.99945 0
M  V30 11047 H 1074.55 1.02129 3.5989 0
M  V30 11048 H 1075.88 1.32475 4.74037 0
M  V30 11049 N 1077.53 -1.43282 0.656365 0
M  V30 11050 C 1078.44 -2.34576 -0.033864 0
M  V30 11051 C 1079.46 -1.5406 -0.808793 0
M  V30 11052 O 1080.64 -1.867 -0.755322 0
M  V30 11053 C 1077.7 -3.32378 -0.986197 0
M  V30 11054 C 1076.76 -4.28797 -0.207851 0
M  V30 11055 C 1076 -5.21927 -1.11482 0
M  V30 11056 O 1076.22 -5.19554 -2.35414 0
M  V30 11057 O 1075.15 -5.99045 -0.585536 0
M  V30 11058 H 1078.98 -2.95099 0.717668 0
M  V30 11059 H 1076.56 -1.43475 0.416556 0
M  V30 11060 H 1078.45 -3.9251 -1.53341 0
M  V30 11061 H 1077.12 -2.74354 -1.7179 0
M  V30 11062 H 1076.03 -3.72134 0.383022 0
M  V30 11063 H 1077.36 -4.89811 0.48435 0
M  V30 11064 N 1079.01 -0.398486 -1.52479 0
M  V30 11065 C 1080.25 0.180412 -2.03602 0
M  V30 11066 C 1080.62 1.43276 -1.27812 0
M  V30 11067 O 1081.82 2.08941 -1.69107 0
M  V30 11068 C 1080.09 0.432744 -3.5477 0
M  V30 11069 S 1081.65 0.980612 -4.27703 0
M  V30 11070 H 1078.47 0.0499981 -0.70924 0
M  V30 11071 H 1081.07 -0.548952 -1.87635 0
M  V30 11072 H 1079.77 -0.48568 -4.07516 0
M  V30 11073 H 1079.3 1.19028 -3.74961 0
M  V30 11074 H 1081.32 2.26216 -4.41634 0
M  V30 11075 N 1080.49 1.57075 -0.12858 0
M  V30 11076 C 1081.91 1.57964 0.227961 0
M  V30 11077 C 1082.11 1.14186 1.66023 0
M  V30 11078 O 1081.16 0.833655 2.38341 0
M  V30 11079 C 1082.48 3.00697 -0.0140648 0
M  V30 11080 C 1084.02 3.12958 0.0510876 0
M  V30 11081 C 1084.5 4.57709 -0.163368 0
M  V30 11082 N 1085.99 4.6307 -0.109663 0
M  V30 11083 C 1086.73 5.72853 -0.250366 0
M  V30 11084 N 1086.22 6.91351 -0.447772 0
M  V30 11085 N 1088.01 5.61781 -0.189265 0
M  V30 11086 H 1080.17 1.83829 -1.06398 0
M  V30 11087 H 1082.43 0.850014 -0.419739 0
M  V30 11088 H 1082.13 3.37047 -1.00461 0
M  V30 11089 H 1082.01 3.70389 0.713571 0
M  V30 11090 H 1084.4 2.7646 1.03216 0
M  V30 11091 H 1084.48 2.4579 -0.708583 0
M  V30 11092 H 1084.12 4.94907 -1.14146 0
M  V30 11093 H 1084.05 5.2298 0.616405 0
M  V30 11094 H 1086.54 3.7788 0.0390086 0
M  V30 11095 H 1086.85 7.70871 -0.54574 0
M  V30 11096 H 1085.2 6.93314 -0.483866 0
M  V30 11097 H 1088.39 4.68086 -0.0359374 0
M  V30 11098 H 1088.56 6.47294 -0.302359 0
M  V30 11099 N 1081.97 -0.145205 1.5693 0
M  V30 11100 C 1083.21 -0.863709 1.85255 0
M  V30 11101 C 1083.57 -1.78266 0.713112 0
M  V30 11102 O 1084.77 -2.54075 0.877459 0
M  V30 11103 C 1083.05 -1.61628 3.18765 0
M  V30 11104 S 1084.6 -2.37996 3.68651 0
M  V30 11105 H 1081.42 -0.288792 0.649708 0
M  V30 11106 H 1084.02 -0.123603 1.95109 0
M  V30 11107 H 1082.73 -0.932688 3.99661 0
M  V30 11108 H 1082.26 -2.39726 3.11921 0
M  V30 11109 H 1084.27 -3.63223 3.38058 0
M  V30 11110 N 1083.45 -1.52049 -0.414609 0
M  V30 11111 C 1084.86 -1.58062 -0.993638 0
M  V30 11112 C 1085.21 -0.417795 -1.917 0
M  V30 11113 O 1084.33 0.462558 -2.11399 0
M  V30 11114 C 1084.93 -2.86471 -1.80886 0
M  V30 11115 C 1083.49 -2.94981 -2.33801 0
M  V30 11116 C 1082.64 -2.52949 -1.13631 0
M  V30 11117 H 1085.59 -1.57497 -0.19504 0
M  V30 11118 H 1085.61 -2.71515 -2.66571 0
M  V30 11119 H 1085.12 -3.71085 -1.13657 0
M  V30 11120 H 1083.22 -2.14849 -3.04419 0
M  V30 11121 H 1083.33 -3.99111 -2.65042 0
M  V30 11122 H 1081.7 -2.0667 -1.48861 0
M  V30 11123 H 1082.48 -3.39931 -0.479765 0
M  V30 11124 N 1084.93 0.6715 -1.42579 0
M  V30 11125 C 1086.17 1.42731 -1.42516 0
M  V30 11126 C 1086.49 1.95545 -0.0462407 0
M  V30 11127 O 1087.69 2.71391 0.0769798 0
M  V30 11128 C 1086.15 2.58215 -2.50705 0
M  V30 11129 C 1085.76 2.12086 -3.94618 0
M  V30 11130 C 1087.5 3.35705 -2.59813 0
M  V30 11131 C 1085.41 3.24672 -4.9431 0
M  V30 11132 H 1084.34 0.536218 -0.530081 0
M  V30 11133 H 1086.99 0.726655 -1.68499 0
M  V30 11134 H 1085.37 3.30665 -2.17892 0
M  V30 11135 H 1086.55 1.46768 -4.36802 0
M  V30 11136 H 1084.86 1.47526 -3.89391 0
M  V30 11137 H 1087.46 4.1956 -3.31472 0
M  V30 11138 H 1087.8 3.82517 -1.64276 0
M  V30 11139 H 1088.33 2.70326 -2.91836 0
M  V30 11140 H 1085.07 2.82848 -5.91335 0
M  V30 11141 H 1084.59 3.88761 -4.56755 0
M  V30 11142 H 1086.27 3.90088 -5.16179 0
M  V30 11143 N 1086.4 1.28806 0.908124 0
M  V30 11144 C 1087.65 1.16058 1.65454 0
M  V30 11145 C 1087.97 -0.290057 1.92831 0
M  V30 11146 O 1087.24 -1.20001 1.54843 0
M  V30 11147 H 1085.82 0.426522 0.61326 0
M  V30 11148 H 1088.48 1.61614 1.08936 0
M  V30 11149 H 1087.58 1.70437 2.61453 0
M  V30 11150 N 1087.88 -1.11734 1.11145 0
M  V30 11151 C 1089.11 -1.86943 0.879534 0
M  V30 11152 C 1089.52 -1.80283 -0.574007 0
M  V30 11153 O 1088.86 -1.17998 -1.40791 0
M  V30 11154 C 1088.92 -3.36738 1.25887 0
M  V30 11155 C 1088.59 -3.67169 2.72095 0
M  V30 11156 C 1089.59 -3.6491 3.7032 0
M  V30 11157 C 1087.27 -3.96272 3.08665 0
M  V30 11158 C 1089.26 -3.91325 5.03134 0
M  V30 11159 C 1086.95 -4.22345 4.41665 0
M  V30 11160 C 1087.95 -4.19859 5.38709 0
M  V30 11161 O 1087.64 -4.4528 6.69314 0
M  V30 11162 H 1087.37 -0.598117 0.315011 0
M  V30 11163 H 1089.92 -1.42253 1.48166 0
M  V30 11164 H 1088.15 -3.82019 0.599873 0
M  V30 11165 H 1089.84 -3.93306 1.00325 0
M  V30 11166 H 1090.61 -3.42481 3.43412 0
M  V30 11167 H 1086.49 -3.97344 2.33749 0
M  V30 11168 H 1090.03 -3.893 5.78871 0
M  V30 11169 H 1085.93 -4.4425 4.68308 0
M  V30 11170 H 1086.7 -4.62863 6.75056 0
M  V30 11171 N 1089.36 -0.901303 -1.29284 0
M  V30 11172 C 1090.58 -0.542823 -2.0017 0
M  V30 11173 C 1091.01 0.865583 -1.67001 0
M  V30 11174 O 1090.37 1.5764 -0.895502 0
M  V30 11175 C 1090.42 -0.743987 -3.52842 0
M  V30 11176 O 1089.52 0.202771 -4.11901 0
M  V30 11177 H 1088.86 -0.211903 -0.62928 0
M  V30 11178 H 1091.39 -1.21333 -1.64741 0
M  V30 11179 H 1091.4 -0.64926 -4.02801 0
M  V30 11180 H 1090.08 -1.77077 -3.7632 0
M  V30 11181 H 1088.65 0.0603637 -3.72851 0
M  V30 11182 N 1090.84 1.42931 -0.663954 0
M  V30 11183 C 1092.09 2.01284 -0.181379 0
M  V30 11184 C 1092.41 1.52708 1.21265 0
M  V30 11185 O 1091.68 0.744181 1.81215 0
M  V30 11186 H 1090.26 0.744248 -0.0640646 0
M  V30 11187 H 1092.92 1.74997 -0.858031 0
M  V30 11188 H 1092.01 3.11613 -0.174273 0
M  V30 11189 N 1092.32 0.406567 1.52266 0
M  V30 11190 C 1093.25 -0.411314 2.29849 0
M  V30 11191 C 1094.23 -1.04838 1.33952 0
M  V30 11192 O 1095.41 -1.05788 1.62857 0
M  V30 11193 C 1092.54 -1.52961 3.11802 0
M  V30 11194 C 1091.5 -1.01768 4.15725 0
M  V30 11195 C 1090.82 -2.22938 4.86007 0
M  V30 11196 C 1092.12 -0.073515 5.22248 0
M  V30 11197 H 1093.82 0.236054 2.98468 0
M  V30 11198 H 1091.36 0.114968 1.4354 0
M  V30 11199 H 1093.31 -2.10874 3.64843 0
M  V30 11200 H 1092.04 -2.20482 2.40947 0
M  V30 11201 H 1090.7 -0.46097 3.6369 0
M  V30 11202 H 1090.35 -2.89007 4.11684 0
M  V30 11203 H 1090.05 -1.89338 5.5626 0
M  V30 11204 H 1091.57 -2.81462 5.41859 0
M  V30 11205 H 1092.98 -0.561367 5.70545 0
M  V30 11206 H 1091.38 0.173551 5.99849 0
M  V30 11207 H 1092.45 0.872524 4.76985 0
M  V30 11208 N 1093.79 -1.57004 0.136909 0
M  V30 11209 C 1095.02 -2.00587 -0.527209 0
M  V30 11210 C 1095.44 -1.01628 -1.58283 0
M  V30 11211 O 1094.8 0.00946934 -1.81298 0
M  V30 11212 C 1094.85 -3.42967 -1.11384 0
M  V30 11213 O 1093.95 -3.46973 -2.22898 0
M  V30 11214 H 1093.3 -0.651155 -0.129976 0
M  V30 11215 H 1095.83 -2.03296 0.230667 0
M  V30 11216 H 1095.84 -3.81555 -1.44499 0
M  V30 11217 H 1094.51 -4.14502 -0.340736 0
M  V30 11218 H 1093.09 -3.20219 -1.91087 0
M  V30 11219 N 1095.27 0.136881 -1.57004 0
M  V30 11220 C 1096.51 0.853873 -1.8571 0
M  V30 11221 C 1096.88 1.77885 -0.722556 0
M  V30 11222 O 1098.08 2.53606 -0.89092 0
M  V30 11223 C 1096.35 1.59935 -3.19618 0
M  V30 11224 S 1097.91 2.36038 -3.69908 0
M  V30 11225 H 1094.73 0.285342 -0.65123 0
M  V30 11226 H 1097.33 0.113254 -1.95172 0
M  V30 11227 H 1096.03 0.91148 -4.0015 0
M  V30 11228 H 1095.56 2.38069 -3.13188 0
M  V30 11229 H 1097.58 3.61425 -3.3998 0
M  V30 11230 N 1096.75 1.52266 0.40654 0
M  V30 11231 C 1097.66 1.78688 1.52012 0
M  V30 11232 C 1098.68 0.6726 1.60475 0
M  V30 11233 O 1099.85 0.95829 1.77141 0
M  V30 11234 C 1096.92 1.93434 2.87722 0
M  V30 11235 C 1095.98 3.17341 2.89125 0
M  V30 11236 C 1095.21 3.31374 4.18362 0
M  V30 11237 O 1095.43 2.50613 5.12396 0
M  V30 11238 O 1094.37 4.24539 4.26674 0
M  V30 11239 H 1098.19 2.73213 1.3262 0
M  V30 11240 H 1095.78 1.37142 0.592653 0
M  V30 11241 H 1097.66 2.04941 3.68208 0
M  V30 11242 H 1096.34 1.02099 3.07177 0
M  V30 11243 H 1095.24 3.1129 2.07483 0
M  V30 11244 H 1096.58 4.08466 2.7462 0
M  V30 11245 N 1098.23 -0.663929 1.42933 0
M  V30 11246 C 1099.45 -1.45691 1.47611 0
M  V30 11247 C 1099.88 -1.87875 0.0920305 0
M  V30 11248 O 1099.24 -1.56696 -0.91192 0
M  V30 11249 C 1099.28 -2.67517 2.41799 0
M  V30 11250 O 1098.39 -3.66187 1.89686 0
M  V30 11251 H 1097.73 -0.437257 0.499702 0
M  V30 11252 H 1100.26 -0.813397 1.87737 0
M  V30 11253 H 1100.27 -3.1546 2.58745 0
M  V30 11254 H 1098.94 -2.36155 3.4235 0
M  V30 11255 H 1097.52 -3.25274 1.82349 0
M  V30 11256 N 1099.71 -1.29285 -0.901281 0
M  V30 11257 C 1100.95 -1.18431 -1.66594 0
M  V30 11258 C 1101.31 0.260312 -1.90227 0
M  V30 11259 O 1102.51 0.4918 -2.64263 0
M  V30 11260 C 1100.78 -1.97357 -2.97968 0
M  V30 11261 S 1102.34 -2.03019 -3.8901 0
M  V30 11262 H 1099.16 -0.422323 -0.571983 0
M  V30 11263 H 1101.76 -1.63551 -1.07105 0
M  V30 11264 H 1100.47 -3.01459 -2.78479 0
M  V30 11265 H 1100 -1.52836 -3.62498 0
M  V30 11266 H 1102.01 -1.14572 -4.82791 0
M  V30 11267 N 1101.18 1.11143 -1.11736 0
M  V30 11268 C 1102.46 1.79384 -0.779785 0
M  V30 11269 C 1102.84 1.98015 0.731668 0
M  V30 11270 O 1102.19 1.56731 1.66276 0
M  V30 11271 C 1102.4 3.12868 -1.54643 0
M  V30 11272 C 1103.75 3.8786 -1.7277 0
M  V30 11273 O 1104.77 3.22566 -1.51094 0
M  V30 11274 O 1103.63 5.05034 -2.08813 0
M  V30 11275 H 1100.72 0.777128 -0.282845 0
M  V30 11276 H 1103.27 1.17858 -1.22096 0
M  V30 11277 H 1102.04 2.94682 -2.57446 0
M  V30 11278 H 1101.67 3.82109 -1.09901 0
M  V30 11279 N 1102.66 0.908147 1.28804 0
M  V30 11280 C 1103.63 0.397058 2.25735 0
M  V30 11281 C 1104.63 -0.473483 1.53671 0
M  V30 11282 O 1105.82 -0.277335 1.71978 0
M  V30 11283 C 1102.95 -0.431392 3.38159 0
M  V30 11284 H 1104.14 1.25323 2.72459 0
M  V30 11285 H 1101.69 0.687041 1.4039 0
M  V30 11286 H 1102.43 -1.3072 2.96787 0
M  V30 11287 H 1102.21 0.192502 3.91627 0
M  V30 11288 H 1103.7 -0.78 4.10251 0
M  V30 11289 N 1104.14 -1.42577 0.671525 0
M  V30 11290 C 1105.09 -2.27978 -0.0315286 0
M  V30 11291 C 1106.07 -1.40907 -0.776796 0
M  V30 11292 O 1107.27 -1.64385 -0.656248 0
M  V30 11293 C 1104.4 -3.28884 -0.9844 0
M  V30 11294 C 1103.48 -4.23439 -0.236647 0
M  V30 11295 N 1103.87 -5.00107 0.756714 0
M  V30 11296 C 1102.17 -4.43457 -0.475551 0
M  V30 11297 C 1102.87 -5.69141 1.20221 0
M  V30 11298 N 1101.85 -5.40983 0.532802 0
M  V30 11299 H 1105.65 -2.84678 0.730455 0
M  V30 11300 H 1103.16 -1.54501 0.500317 0
M  V30 11301 H 1105.16 -3.88864 -1.50302 0
M  V30 11302 H 1103.82 -2.73745 -1.74625 0
M  V30 11303 H 1104.83 -5.05285 1.13613 0
M  V30 11304 H 1101.51 -3.99364 -1.21715 0
M  V30 11305 H 1102.9 -6.40653 2.02517 0
M  V30 11306 N 1105.62 -0.414636 -1.52048 0
M  V30 11307 C 1106.87 0.159349 -2.01872 0
M  V30 11308 C 1107.19 1.44674 -1.29999 0
M  V30 11309 O 1106.45 1.91641 -0.396511 0
M  V30 11310 C 1106.75 0.448327 -3.54577 0
M  V30 11311 C 1106.41 -0.75052 -4.4461 0
M  V30 11312 C 1105.08 -1.07935 -4.68939 0
M  V30 11313 C 1107.43 -1.55134 -4.97577 0
M  V30 11314 C 1104.76 -2.21008 -5.43482 0
M  V30 11315 C 1107.11 -2.67288 -5.73358 0
M  V30 11316 C 1105.77 -3.00651 -5.95958 0
M  V30 11317 H 1105.04 0.05831 -0.738702 0
M  V30 11318 H 1107.69 -0.557184 -1.83215 0
M  V30 11319 H 1105.99 1.24649 -3.71443 0
M  V30 11320 H 1107.69 0.90549 -3.90643 0
M  V30 11321 H 1104.28 -0.484257 -4.25856 0
M  V30 11322 H 1108.46 -1.31052 -4.78685 0
M  V30 11323 H 1103.72 -2.47197 -5.59199 0
M  V30 11324 H 1107.89 -3.29725 -6.13396 0
M  V30 11325 H 1105.52 -3.88384 -6.535 0
M  V30 11326 N 1107.1 1.56929 -0.145233 0
M  V30 11327 C 1108.32 2.00431 0.513314 0
M  V30 11328 C 1108.74 1.0253 1.58534 0
M  V30 11329 O 1108.1 0.0220459 1.82487 0
M  V30 11330 C 1108.15 3.43856 1.11557 0
M  V30 11331 O 1107.87 4.38015 0.0863707 0
M  V30 11332 C 1109.37 4.02627 1.8549 0
M  V30 11333 H 1106.59 0.657529 0.133778 0
M  V30 11334 H 1109.13 2.03095 -0.239296 0
M  V30 11335 H 1107.29 3.4205 1.81881 0
M  V30 11336 H 1107.7 5.21842 0.527363 0
M  V30 11337 H 1109.18 5.04985 2.22923 0
M  V30 11338 H 1109.65 3.43239 2.74014 0
M  V30 11339 H 1110.26 4.08058 1.19869 0
M  V30 11340 N 1108.58 -0.128553 1.57075 0
M  V30 11341 C 1109.99 -0.481794 1.52154 0
M  V30 11342 C 1110.19 -1.82381 0.856694 0
M  V30 11343 O 1109.25 -2.48725 0.434989 0
M  V30 11344 C 1110.56 -0.475091 2.96923 0
M  V30 11345 C 1112.11 -0.559315 3.07962 0
M  V30 11346 C 1112.58 -0.583095 4.54273 0
M  V30 11347 N 1114.07 -0.644803 4.5869 0
M  V30 11348 C 1114.81 -0.684493 5.693 0
M  V30 11349 N 1114.31 -0.682407 6.89431 0
M  V30 11350 N 1116.1 -0.726777 5.57382 0
M  V30 11351 H 1108.25 0.750894 1.98684 0
M  V30 11352 H 1110.51 0.27593 0.906955 0
M  V30 11353 H 1110.22 0.443157 3.48897 0
M  V30 11354 H 1110.09 -1.30637 3.53856 0
M  V30 11355 H 1112.48 -1.46798 2.55997 0
M  V30 11356 H 1112.56 0.299468 2.54041 0
M  V30 11357 H 1112.2 0.32149 5.06881 0
M  V30 11358 H 1112.13 -1.45863 5.05996 0
M  V30 11359 H 1114.63 -0.652967 3.72216 0
M  V30 11360 H 1114.94 -0.715051 7.69485 0
M  V30 11361 H 1113.28 -0.649984 6.91954 0
M  V30 11362 H 1116.47 -0.725704 4.6244 0
M  V30 11363 H 1116.65 -0.754242 6.43596 0
M  V30 11364 N 1110.05 -1.5248 -0.398459 0
M  V30 11365 C 1111.3 -1.67309 -1.1461 0
M  V30 11366 C 1111.63 -0.407095 -1.89885 0
M  V30 11367 O 1110.91 0.594834 -1.85181 0
M  V30 11368 C 1111.19 -2.90204 -2.13198 0
M  V30 11369 C 1111.04 -4.26881 -1.4175 0
M  V30 11370 C 1112.36 -3.08634 -3.13741 0
M  V30 11371 H 1109.48 -0.608853 -0.415292 0
M  V30 11372 H 1112.12 -1.85057 -0.430573 0
M  V30 11373 H 1110.27 -2.75204 -2.74218 0
M  V30 11374 H 1111.95 -4.53631 -0.837676 0
M  V30 11375 H 1110.19 -4.27793 -0.719387 0
M  V30 11376 H 1110.86 -5.08939 -2.1374 0
M  V30 11377 H 1113.34 -3.22603 -2.62805 0
M  V30 11378 H 1112.21 -3.96117 -3.79977 0
M  V30 11379 H 1112.47 -2.22425 -3.82073 0
M  V30 11380 N 1111.53 0.65634 -1.43283 0
M  V30 11381 C 1112.94 1.23744 -1.39801 0
M  V30 11382 C 1113.29 1.95942 -0.100507 0
M  V30 11383 O 1112.42 2.01063 0.800161 0
M  V30 11384 C 1113.01 2.25062 -2.53244 0
M  V30 11385 C 1111.57 2.78657 -2.53036 0
M  V30 11386 C 1110.72 1.53251 -2.31105 0
M  V30 11387 H 1113.67 0.448553 -1.52229 0
M  V30 11388 H 1113.69 3.07174 -2.24553 0
M  V30 11389 H 1113.2 1.72487 -3.47664 0
M  V30 11390 H 1111.3 3.35304 -1.62487 0
M  V30 11391 H 1111.42 3.26414 -3.507 0
M  V30 11392 H 1109.78 1.80487 -1.79713 0
M  V30 11393 H 1110.56 1.02615 -3.27605 0
M  V30 11394 N 1113.01 1.29761 0.894412 0
M  V30 11395 C 1114.26 1.17806 1.64214 0
M  V30 11396 C 1114.58 -0.269588 1.93127 0
M  V30 11397 O 1113.85 -1.18352 1.56107 0
M  V30 11398 H 1112.43 0.433002 0.608702 0
M  V30 11399 H 1115.09 1.6276 1.07216 0
M  V30 11400 H 1114.19 1.73201 2.5963 0
M  V30 11401 N 1114.49 -1.10549 1.12324 0
M  V30 11402 C 1115.74 -1.82124 0.876083 0
M  V30 11403 C 1116.06 -1.85547 -0.599761 0
M  V30 11404 O 1115.33 -1.33269 -1.43584 0
M  V30 11405 H 1113.91 -0.674455 0.321122 0
M  V30 11406 H 1116.57 -1.33766 1.41748 0
M  V30 11407 H 1115.66 -2.85688 1.25653 0
M  V30 11408 N 1115.97 -0.914965 -1.28321 0
M  V30 11409 C 1117.38 -0.59512 -1.76961 0
M  V30 11410 C 1117.73 0.88958 -1.74874 0
M  V30 11411 O 1116.85 1.6959 -1.34418 0
M  V30 11412 C 1117.45 -1.07353 -3.21342 0
M  V30 11413 C 1116.01 -0.804577 -3.677 0
M  V30 11414 C 1115.15 -1.23955 -2.48053 0
M  V30 11415 H 1118.1 -1.0961 -1.14767 0
M  V30 11416 H 1118.13 -0.415506 -3.78225 0
M  V30 11417 H 1117.64 -2.15413 -3.22829 0
M  V30 11418 H 1115.74 0.26277 -3.71672 0
M  V30 11419 H 1115.85 -1.41317 -4.57784 0
M  V30 11420 H 1114.22 -0.658274 -2.46046 0
M  V30 11421 H 1115 -2.32853 -2.52258 0
M  V30 11422 N 1117.44 1.42219 -0.679077 0
M  V30 11423 C 1118.67 2.05516 -0.211342 0
M  V30 11424 C 1119.08 1.5113 1.13826 0
M  V30 11425 O 1118.42 0.647593 1.71907 0
M  V30 11426 C 1118.49 3.59425 -0.0736007 0
M  V30 11427 C 1118.15 4.36525 -1.3526 0
M  V30 11428 C 1119.15 4.66897 -2.28698 0
M  V30 11429 C 1116.83 4.76089 -1.60139 0
M  V30 11430 C 1118.83 5.35775 -3.45288 0
M  V30 11431 C 1116.51 5.44706 -2.77017 0
M  V30 11432 C 1117.51 5.74474 -3.69416 0
M  V30 11433 O 1117.2 6.41683 -4.8425 0
M  V30 11434 H 1116.93 0.668662 -0.0993318 0
M  V30 11435 H 1119.49 1.8327 -0.927434 0
M  V30 11436 H 1117.72 3.80346 0.69811 0
M  V30 11437 H 1119.4 4.04346 0.354813 0
M  V30 11438 H 1120.17 4.36828 -2.10729 0
M  V30 11439 H 1116.05 4.5231 -0.890887 0
M  V30 11440 H 1119.59 5.58927 -4.17428 0
M  V30 11441 H 1115.49 5.74194 -2.9491 0
M  V30 11442 H 1116.26 6.60175 -4.8385 0
M  V30 11443 N 1118.92 0.422693 1.51826 0
M  V30 11444 C 1119.85 -0.386913 2.30272 0
M  V30 11445 C 1120.83 -1.03411 1.35056 0
M  V30 11446 O 1122.02 -1.04055 1.6397 0
M  V30 11447 C 1119.15 -1.49645 3.13407 0
M  V30 11448 C 1118.1 -0.973532 4.16781 0
M  V30 11449 C 1117.43 -2.1777 4.88344 0
M  V30 11450 C 1118.73 -0.0181194 5.22297 0
M  V30 11451 H 1120.42 0.267697 2.98201 0
M  V30 11452 H 1117.97 0.130186 1.4341 0
M  V30 11453 H 1119.92 -2.06993 3.67059 0
M  V30 11454 H 1118.64 -2.17914 2.43272 0
M  V30 11455 H 1117.3 -0.42237 3.64159 0
M  V30 11456 H 1116.95 -2.84625 4.14726 0
M  V30 11457 H 1116.65 -1.83427 5.58237 0
M  V30 11458 H 1118.18 -2.75699 5.44814 0
M  V30 11459 H 1119.59 -0.500822 5.71108 0
M  V30 11460 H 1117.99 0.237163 5.99631 0
M  V30 11461 H 1119.06 0.923065 4.76033 0
M  V30 11462 N 1120.4 -1.5685 0.153553 0
M  V30 11463 C 1121.65 -1.95946 -0.494936 0
M  V30 11464 C 1121.97 -1.03975 -1.64967 0
M  V30 11465 O 1121.24 -0.102572 -1.95631 0
M  V30 11466 H 1119.82 -0.723516 -0.185833 0
M  V30 11467 H 1122.48 -1.93531 0.230585 0
M  V30 11468 H 1121.58 -2.99823 -0.866743 0
M  V30 11469 N 1121.88 0.120221 -1.57141 0
M  V30 11470 C 1123.11 0.842441 -1.88972 0
M  V30 11471 C 1123.52 1.73494 -0.744671 0
M  V30 11472 O 1122.88 1.80268 0.284557 0
M  V30 11473 C 1122.93 1.67688 -3.20254 0
M  V30 11474 O 1122.65 0.820319 -4.30351 0
M  V30 11475 C 1124.15 2.50436 -3.65782 0
M  V30 11476 H 1121.37 0.242241 -0.625748 0
M  V30 11477 H 1123.91 0.104978 -2.0423 0
M  V30 11478 H 1122.07 2.36712 -3.0667 0
M  V30 11479 H 1122.48 1.39575 -5.05588 0
M  V30 11480 H 1123.96 3.04518 -4.60405 0
M  V30 11481 H 1124.43 3.27737 -2.92378 0
M  V30 11482 H 1125.04 1.86657 -3.82151 0
M  V30 11483 N 1123.36 1.52689 0.390367 0
M  V30 11484 C 1124.6 1.69354 1.1445 0
M  V30 11485 C 1124.96 0.423677 1.87267 0
M  V30 11486 O 1126.16 0.466669 2.64718 0
M  V30 11487 C 1124.43 2.89356 2.0978 0
M  V30 11488 S 1125.99 3.26602 2.93047 0
M  V30 11489 H 1122.81 0.596162 0.387442 0
M  V30 11490 H 1125.41 1.90732 0.429119 0
M  V30 11491 H 1124.12 3.80003 1.55004 0
M  V30 11492 H 1123.65 2.70307 2.85828 0
M  V30 11493 H 1125.66 2.76683 4.11899 0
M  V30 11494 N 1124.83 -0.648732 1.43629 0
M  V30 11495 C 1126.06 -1.44117 1.49148 0
M  V30 11496 C 1126.48 -1.87767 0.111952 0
M  V30 11497 O 1125.84 -1.57655 -0.895249 0
M  V30 11498 C 1125.89 -2.64938 2.44623 0
M  V30 11499 O 1124.99 -3.64155 1.93559 0
M  V30 11500 H 1124.34 -0.431933 0.504312 0
M  V30 11501 H 1126.87 -0.793439 1.88589 0
M  V30 11502 H 1126.88 -3.12698 2.62076 0
M  V30 11503 H 1125.55 -2.3251 3.44836 0
M  V30 11504 H 1124.13 -3.23322 1.85789 0
M  V30 11505 N 1126.31 -1.30234 -0.887518 0
M  V30 11506 C 1127.56 -1.18675 -1.63587 0
M  V30 11507 C 1127.88 0.259342 -1.93268 0
M  V30 11508 O 1127.15 1.17523 -1.56733 0
M  V30 11509 H 1125.73 -0.436224 -0.606397 0
M  V30 11510 H 1128.39 -1.63326 -1.06351 0
M  V30 11511 H 1127.49 -1.74575 -2.58708 0
M  V30 11512 N 1127.79 1.09952 -1.12909 0
M  V30 11513 C 1129.03 1.83635 -0.897646 0
M  V30 11514 C 1129.39 1.83462 0.566179 0
M  V30 11515 O 1130.6 2.52748 0.914977 0
M  V30 11516 C 1128.87 3.26095 -1.46277 0
M  V30 11517 S 1130.43 4.16846 -1.37059 0
M  V30 11518 H 1127.24 0.633045 -0.32369 0
M  V30 11519 H 1129.85 1.32275 -1.43957 0
M  V30 11520 H 1128.55 3.23793 -2.52163 0
M  V30 11521 H 1128.08 3.82526 -0.918549 0
M  V30 11522 H 1130.1 4.94996 -0.345399 0
M  V30 11523 N 1129.27 0.921757 1.27833 0
M  V30 11524 C 1130.22 0.406628 2.29018 0
M  V30 11525 C 1131.21 -0.505914 1.61669 0
M  V30 11526 O 1132.42 -0.386273 1.75807 0
M  V30 11527 H 1128.79 0.112914 0.743475 0
M  V30 11528 H 1130.76 1.27295 2.69886 0
M  V30 11529 C 1129.51 -0.330783 3.46123 0
M  V30 11530 H 1128.83 0.362207 3.98156 0
M  V30 11531 H 1130.27 -0.655738 4.18899 0
M  V30 11532 C 1128.73 -1.54161 2.9956 0
M  V30 11533 O 1129.26 -2.64052 3.0272 0
M  V30 11534 N 1127.47 -1.39137 2.55126 0
M  V30 11535 H 1127.02 -0.497319 2.52754 0
M  V30 11536 H 1126.97 -2.20278 2.24333 0
M  V30 11537 N 1130.75 -1.41857 0.686609 0
M  V30 11538 C 1131.99 -2.03236 0.217839 0
M  V30 11539 C 1132.35 -1.5317 -1.15771 0
M  V30 11540 O 1133.55 -2.06415 -1.72181 0
M  V30 11541 C 1131.82 -3.56428 0.263443 0
M  V30 11542 S 1133.38 -4.386 -0.132595 0
M  V30 11543 H 1130.2 -0.705472 0.088487 0
M  V30 11544 H 1132.8 -1.73428 0.902393 0
M  V30 11545 H 1131.51 -3.90362 1.26672 0
M  V30 11546 H 1131.04 -3.90925 -0.440556 0
M  V30 11547 H 1133.05 -4.77119 -1.3628 0
M  V30 11548 N 1132.22 -0.430739 -1.51599 0
M  V30 11549 C 1133.17 0.398482 -2.29161 0
M  V30 11550 C 1134.17 1.02676 -1.34737 0
M  V30 11551 O 1135.37 0.96248 -1.52106 0
M  V30 11552 H 1131.75 0.14731 -0.737431 0
M  V30 11553 H 1133.72 -0.276619 -2.97115 0
M  V30 11554 C 1132.47 1.49094 -3.14112 0
M  V30 11555 H 1131.79 1.01685 -3.86652 0
M  V30 11556 H 1133.23 2.04453 -3.7145 0
M  V30 11557 C 1131.69 2.47049 -2.29059 0
M  V30 11558 O 1132.22 3.51435 -1.94567 0
M  V30 11559 N 1130.43 2.17778 -1.92409 0
M  V30 11560 H 1129.97 1.3292 -2.20658 0
M  V30 11561 H 1129.93 2.8356 -1.35798 0
M  V30 11562 N 1133.7 1.56767 -0.161869 0
M  V30 11563 C 1134.95 1.96206 0.484537 0
M  V30 11564 C 1135.27 1.04848 1.64414 0
M  V30 11565 O 1134.54 0.112946 1.95574 0
M  V30 11566 H 1133.12 0.724491 0.181994 0
M  V30 11567 H 1135.78 1.93406 -0.240845 0
M  V30 11568 H 1134.88 3.00279 0.85083 0
M  V30 11569 N 1135.18 -0.111886 1.57202 0
M  V30 11570 C 1136.13 -1.14287 1.97288 0
M  V30 11571 C 1137.11 -1.36686 0.848868 0
M  V30 11572 O 1138.31 -1.37659 1.11261 0
M  V30 11573 C 1135.44 -2.46759 2.38673 0
M  V30 11574 C 1134.52 -2.27805 3.57723 0
M  V30 11575 N 1134.91 -1.78679 4.73189 0
M  V30 11576 C 1133.21 -2.58435 3.63494 0
M  V30 11577 C 1133.91 -1.736 5.55192 0
M  V30 11578 N 1132.89 -2.18205 4.97883 0
M  V30 11579 H 1136.69 -0.755711 2.84018 0
M  V30 11580 H 1134.2 -0.31954 1.59225 0
M  V30 11581 H 1136.2 -3.21335 2.65611 0
M  V30 11582 H 1134.86 -2.86227 1.53311 0
M  V30 11583 H 1135.87 -1.48121 4.96267 0
M  V30 11584 H 1132.55 -3.0154 2.88755 0
M  V30 11585 H 1133.94 -1.36812 6.57824 0
M  V30 11586 N 1136.66 -1.52894 -0.382264 0
M  V30 11587 C 1137.62 -1.77497 -1.45008 0
M  V30 11588 C 1138.62 -0.64509 -1.47293 0
M  V30 11589 O 1139.81 -0.913192 -1.48346 0
M  V30 11590 C 1136.94 -1.88188 -2.8425 0
M  V30 11591 H 1138.14 -2.72849 -1.24473 0
M  V30 11592 H 1135.69 -1.43717 -0.61441 0
M  V30 11593 H 1136.42 -0.948451 -3.10121 0
M  V30 11594 H 1136.21 -2.70353 -2.83992 0
M  V30 11595 H 1137.7 -2.08873 -3.6161 0
M  V30 11596 N 1138.14 0.641106 -1.43971 0
M  V30 11597 C 1139.36 1.43324 -1.4991 0
M  V30 11598 C 1139.79 1.87705 -0.121908 0
M  V30 11599 O 1139.15 1.58127 0.886875 0
M  V30 11600 C 1139.19 2.63637 -2.46025 0
M  V30 11601 O 1138.3 3.63123 -1.95488 0
M  V30 11602 H 1137.64 0.429252 -0.506595 0
M  V30 11603 H 1140.17 0.783427 -1.89007 0
M  V30 11604 H 1140.18 3.11304 -2.63731 0
M  V30 11605 H 1138.85 2.30678 -3.46064 0
M  V30 11606 H 1137.43 3.22332 -1.87501 0
M  V30 11607 N 1139.62 1.30703 0.880598 0
M  V30 11608 C 1140.84 1.22843 1.67106 0
M  V30 11609 C 1141.27 -0.204788 1.86982 0
M  V30 11610 O 1140.62 -1.14716 1.40392 0
M  V30 11611 C 1140.67 1.96685 3.02237 0
M  V30 11612 O 1139.78 1.29693 3.91476 0
M  V30 11613 H 1139.12 0.424661 0.51045 0
M  V30 11614 H 1141.65 1.72596 1.09871 0
M  V30 11615 H 1141.66 2.05874 3.52249 0
M  V30 11616 H 1140.33 3.00919 2.8709 0
M  V30 11617 H 1138.91 1.28886 3.49918 0
M  V30 11618 N 1141.09 -1.09351 1.1349 0
M  V30 11619 C 1142.33 -1.83156 0.907372 0
M  V30 11620 C 1142.7 -1.8376 -0.556441 0
M  V30 11621 O 1143.9 -2.5323 -0.90156 0
M  V30 11622 C 1142.17 -3.25315 1.48004 0
M  V30 11623 S 1143.73 -4.16113 1.39268 0
M  V30 11624 H 1140.55 -0.631319 0.327043 0
M  V30 11625 H 1143.15 -1.31509 1.44657 0
M  V30 11626 H 1141.85 -3.22452 2.53876 0
M  V30 11627 H 1141.38 -3.82034 0.938822 0
M  V30 11628 H 1143.4 -4.94806 0.371645 0
M  V30 11629 N 1142.57 -0.928524 -1.27343 0
M  V30 11630 C 1143.85 -0.487758 -1.89421 0
M  V30 11631 C 1144.23 1.03418 -1.84032 0
M  V30 11632 O 1143.58 1.8887 -1.2861 0
M  V30 11633 C 1143.79 -1.03478 -3.33307 0
M  V30 11634 C 1145.13 -1.09577 -4.10217 0
M  V30 11635 O 1146.16 -0.984463 -3.42326 0
M  V30 11636 O 1145.02 -1.2673 -5.31603 0
M  V30 11637 H 1142.11 -0.157018 -0.811957 0
M  V30 11638 H 1144.66 -1.02027 -1.35605 0
M  V30 11639 H 1143.43 -2.07861 -3.31526 0
M  V30 11640 H 1143.05 -0.483967 -3.94644 0
M  V30 11641 N 1144.05 1.41491 -0.694123 0
M  V30 11642 C 1145.46 1.84283 -0.299439 0
M  V30 11643 C 1145.81 1.58081 1.16211 0
M  V30 11644 O 1144.94 1.05051 1.89191 0
M  V30 11645 C 1145.53 3.34522 -0.536696 0
M  V30 11646 C 1144.09 3.7589 -0.195944 0
M  V30 11647 C 1143.24 2.64908 -0.819692 0
M  V30 11648 H 1146.19 1.31063 -0.894884 0
M  V30 11649 H 1146.21 3.79947 0.205062 0
M  V30 11650 H 1145.72 3.53561 -1.6005 0
M  V30 11651 H 1143.82 3.62452 0.863655 0
M  V30 11652 H 1143.94 4.74671 -0.649954 0
M  V30 11653 H 1142.3 2.53476 -0.249412 0
M  V30 11654 H 1143.08 2.86765 -1.88734 0
M  V30 11655 N 1145.53 0.438773 1.51369 0
M  V30 11656 C 1146.77 -0.127401 2.02399 0
M  V30 11657 C 1147.11 -1.42235 1.32223 0
M  V30 11658 O 1146.38 -1.89513 0.437607 0
M  V30 11659 C 1146.66 -0.344673 3.58447 0
M  V30 11660 C 1146.52 0.969027 4.39238 0
M  V30 11661 C 1147.84 -1.11381 4.25773 0
M  V30 11662 H 1144.96 -0.0448281 0.735635 0
M  V30 11663 H 1147.6 0.57805 1.80993 0
M  V30 11664 H 1145.75 -0.945582 3.76817 0
M  V30 11665 H 1147.42 1.60403 4.32514 0
M  V30 11666 H 1145.66 1.57329 4.04265 0
M  V30 11667 H 1146.33 0.771029 5.46589 0
M  V30 11668 H 1148.81 -0.604785 4.11681 0
M  V30 11669 H 1147.69 -1.23459 5.34835 0
M  V30 11670 H 1147.95 -2.14225 3.8673 0
M  V30 11671 N 1147.01 -1.56678 0.170181 0
M  V30 11672 C 1148.24 -2.00931 -0.480664 0
M  V30 11673 C 1148.64 -1.04947 -1.57425 0
M  V30 11674 O 1147.99 -0.042229 -1.83651 0
M  V30 11675 C 1148.05 -3.4161 -1.11996 0
M  V30 11676 C 1147.71 -4.5669 -0.168167 0
M  V30 11677 C 1148.71 -5.16273 0.613059 0
M  V30 11678 C 1146.39 -5.02259 -0.0643243 0
M  V30 11679 C 1148.39 -6.19852 1.48534 0
M  V30 11680 C 1146.08 -6.05687 0.811542 0
M  V30 11681 C 1147.07 -6.64355 1.58496 0
M  V30 11682 O 1146.76 -7.65778 2.44619 0
M  V30 11683 H 1146.49 -0.66386 -0.12754 0
M  V30 11684 H 1149.05 -2.03635 0.2687 0
M  V30 11685 H 1147.28 -3.35815 -1.91743 0
M  V30 11686 H 1148.97 -3.69823 -1.67289 0
M  V30 11687 H 1149.73 -4.81951 0.542999 0
M  V30 11688 H 1145.61 -4.56307 -0.656102 0
M  V30 11689 H 1149.16 -6.65572 2.08948 0
M  V30 11690 H 1145.05 -6.39435 0.88281 0
M  V30 11691 H 1145.82 -7.83096 2.38122 0
M  V30 11692 N 1148.48 0.103547 -1.57259 0
M  V30 11693 C 1149.73 0.806979 -1.8529 0
M  V30 11694 C 1150.05 1.79679 -0.757653 0
M  V30 11695 O 1149.32 1.94695 0.216913 0
M  V30 11696 H 1147.9 0.301012 -0.683667 0
M  V30 11697 H 1150.56 0.0871886 -1.94705 0
M  V30 11698 H 1149.66 1.34275 -2.81738 0
M  V30 11699 N 1149.96 1.53094 0.37415 0
M  V30 11700 C 1150.91 1.75307 1.45779 0
M  V30 11701 C 1151.9 0.607409 1.48994 0
M  V30 11702 O 1153.09 0.865777 1.5438 0
M  V30 11703 C 1150.22 1.93871 2.83318 0
M  V30 11704 C 1149.3 3.14413 2.84614 0
M  V30 11705 N 1149.69 4.36486 2.55565 0
M  V30 11706 C 1147.99 3.14961 3.15778 0
M  V30 11707 C 1148.69 5.18178 2.64322 0
M  V30 11708 N 1147.67 4.54196 2.98675 0
M  V30 11709 H 1151.47 2.67305 1.22169 0
M  V30 11710 H 1148.98 1.51603 0.582254 0
M  V30 11711 H 1150.98 2.0791 3.61357 0
M  V30 11712 H 1149.64 1.03096 3.07898 0
M  V30 11713 H 1150.65 4.64366 2.29314 0
M  V30 11714 H 1147.33 2.34048 3.45728 0
M  V30 11715 H 1148.72 6.25529 2.45282 0
M  V30 11716 N 1151.44 -0.633461 1.44309 0
M  V30 11717 C 1152.68 -1.40465 1.48489 0
M  V30 11718 C 1153.04 -1.91664 0.113519 0
M  V30 11719 O 1154.24 -2.68783 0.0299948 0
M  V30 11720 C 1152.52 -2.54041 2.51392 0
M  V30 11721 S 1154.07 -3.42256 2.74602 0
M  V30 11722 H 1150.89 -0.479228 0.525225 0
M  V30 11723 H 1153.49 -0.733561 1.81216 0
M  V30 11724 H 1152.2 -2.14734 3.49739 0
M  V30 11725 H 1151.73 -3.25979 2.2023 0
M  V30 11726 H 1153.74 -4.51409 2.06021 0
M  V30 11727 N 1152.92 -1.31168 -0.873655 0
M  V30 11728 C 1153.85 -1.21094 -1.99646 0
M  V30 11729 C 1154.83 -0.0989684 -1.69812 0
M  V30 11730 O 1156.01 -0.282939 -1.92128 0
M  V30 11731 C 1153.14 -0.913684 -3.35066 0
M  V30 11732 C 1152.1 -1.98482 -3.79195 0
M  V30 11733 C 1151.42 -1.54033 -5.12033 0
M  V30 11734 C 1152.72 -3.39745 -3.96699 0
M  V30 11735 H 1154.42 -2.1503 -2.08333 0
M  V30 11736 H 1151.96 -1.03521 -1.00097 0
M  V30 11737 H 1153.92 -0.829821 -4.13149 0
M  V30 11738 H 1152.64 0.0613471 -3.26542 0
M  V30 11739 H 1151.3 -2.05851 -3.03349 0
M  V30 11740 H 1150.95 -0.553261 -4.99948 0
M  V30 11741 H 1150.65 -2.25688 -5.4253 0
M  V30 11742 H 1152.17 -1.47047 -5.92629 0
M  V30 11743 H 1153.59 -3.35071 -4.65188 0
M  V30 11744 H 1151.98 -4.09585 -4.38589 0
M  V30 11745 H 1153.05 -3.80802 -3.00196 0
M  V30 11746 N 1154.4 1.08748 -1.14068 0
M  V30 11747 C 1155.34 2.17667 -0.819981 0
M  V30 11748 C 1156.34 1.68207 0.200654 0
M  V30 11749 O 1157.54 1.79909 0.0571014 0
M  V30 11750 H 1153.92 0.710129 -0.247427 0
M  V30 11751 H 1155.89 2.41944 -1.74659 0
M  V30 11752 C 1154.64 3.46315 -0.309985 0
M  V30 11753 H 1153.96 3.84748 -1.08669 0
M  V30 11754 H 1155.4 4.23818 -0.124094 0
M  V30 11755 C 1153.86 3.22762 0.965724 0
M  V30 11756 O 1154.39 3.46034 2.04018 0
M  V30 11757 N 1152.6 2.76326 0.899576 0
M  V30 11758 H 1152.14 2.57588 0.0250598 0
M  V30 11759 H 1152.1 2.60945 1.75371 0
M  V30 11760 N 1155.87 0.935264 1.26849 0
M  V30 11761 C 1157.11 0.587087 1.95787 0
M  V30 11762 C 1157.48 -0.856974 1.71814 0
M  V30 11763 O 1158.68 -1.3138 2.34505 0
M  V30 11764 C 1156.95 0.91303 3.45541 0
M  V30 11765 S 1158.51 0.674506 4.33585 0
M  V30 11766 H 1155.33 0.216442 0.677255 0
M  V30 11767 H 1157.93 1.20532 1.53923 0
M  V30 11768 H 1156.63 1.96154 3.60488 0
M  V30 11769 H 1156.16 0.28429 3.92371 0
M  V30 11770 H 1158.18 -0.464121 4.94025 0
M  V30 11771 N 1157.35 -1.41121 0.701616 0
M  V30 11772 C 1158.28 -2.292 0.000880842 0
M  V30 11773 C 1159.3 -1.45102 -0.738192 0
M  V30 11774 O 1160.49 -1.68541 -0.587891 0
M  V30 11775 C 1157.59 -3.23094 -1.02292 0
M  V30 11776 C 1156.76 -4.35979 -0.352231 0
M  V30 11777 C 1155.82 -5.10408 -1.27947 0
M  V30 11778 O 1154.84 -5.63974 -0.769561 0
M  V30 11779 N 1156.05 -5.18442 -2.61147 0
M  V30 11780 H 1158.81 -2.8998 0.757094 0
M  V30 11781 H 1156.37 -1.52339 0.548126 0
M  V30 11782 H 1158.36 -3.69755 -1.64509 0
M  V30 11783 H 1156.93 -2.6358 -1.68061 0
M  V30 11784 H 1156.15 -3.91624 0.44992 0
M  V30 11785 H 1157.44 -5.08673 0.113882 0
M  V30 11786 H 1156.84 -4.76381 -3.05087 0
M  V30 11787 H 1155.4 -5.68659 -3.18544 0
M  V30 11788 N 1158.83 -0.446794 -1.51134 0
M  V30 11789 C 1159.78 0.378002 -2.24845 0
M  V30 11790 C 1160.76 0.982126 -1.27448 0
M  V30 11791 O 1161.96 0.8987 -1.52487 0
M  V30 11792 C 1159.09 1.4733 -3.10079 0
M  V30 11793 C 1158.17 0.878102 -4.1491 0
M  V30 11794 N 1158.56 0.0129452 -5.05798 0
M  V30 11795 C 1156.86 1.14468 -4.3106 0
M  V30 11796 C 1157.56 -0.322333 -5.80806 0
M  V30 11797 N 1156.54 0.296438 -5.42791 0
M  V30 11798 H 1160.34 -0.28885 -2.92477 0
M  V30 11799 H 1157.85 -0.259439 -1.60314 0
M  V30 11800 H 1159.85 2.07713 -3.6147 0
M  V30 11801 H 1158.51 2.14239 -2.43992 0
M  V30 11802 H 1159.52 -0.354177 -5.16688 0
M  V30 11803 H 1156.2 1.81056 -3.76198 0
M  V30 11804 H 1157.59 -1.02693 -6.64006 0
M  V30 11805 N 1160.31 1.56586 -0.178487 0
M  V30 11806 C 1161.26 2.19631 0.765822 0
M  V30 11807 C 1162.25 1.16247 1.23219 0
M  V30 11808 O 1163.46 1.34431 1.19701 0
M  V30 11809 H 1159.83 0.703661 0.265264 0
M  V30 11810 H 1161.8 2.97659 0.210207 0
M  V30 11811 C 1160.55 2.85686 1.98188 0
M  V30 11812 H 1159.87 3.64971 1.63206 0
M  V30 11813 H 1161.31 3.33259 2.62134 0
M  V30 11814 C 1159.77 1.85837 2.81009 0
M  V30 11815 O 1160.3 1.3483 3.78396 0
M  V30 11816 N 1158.51 1.54435 2.46167 0
M  V30 11817 H 1158.06 1.96107 1.67032 0
M  V30 11818 H 1158.01 0.878808 3.01868 0
M  V30 11819 N 1161.79 -0.095206 1.57312 0
M  V30 11820 C 1163.01 -0.81227 1.90289 0
M  V30 11821 C 1163.43 -1.72287 0.772178 0
M  V30 11822 O 1162.79 -1.80698 -0.255841 0
M  V30 11823 C 1162.84 -1.62572 3.22882 0
M  V30 11824 O 1162.56 -0.75175 4.31602 0
M  V30 11825 C 1164.06 -2.44585 3.6972 0
M  V30 11826 H 1161.28 -0.232256 0.629522 0
M  V30 11827 H 1163.82 -0.0724733 2.04372 0
M  V30 11828 H 1161.98 -2.31803 3.10397 0
M  V30 11829 H 1162.39 -1.31514 5.07744 0
M  V30 11830 H 1163.87 -2.97155 4.65191 0
M  V30 11831 H 1164.34 -3.23044 2.97555 0
M  V30 11832 H 1164.95 -1.80554 3.85072 0
M  V30 11833 N 1163.26 -1.53291 -0.366026 0
M  V30 11834 C 1164.17 -1.82656 -1.47221 0
M  V30 11835 C 1165.19 -0.71491 -1.58635 0
M  V30 11836 O 1166.37 -1.00492 -1.74538 0
M  V30 11837 C 1163.43 -2.00995 -2.82492 0
M  V30 11838 C 1162.49 -3.24895 -2.8061 0
M  V30 11839 C 1161.73 -3.4235 -4.09429 0
M  V30 11840 O 1161.95 -2.6411 -5.05571 0
M  V30 11841 O 1160.88 -4.35702 -4.15268 0
M  V30 11842 H 1164.71 -2.76634 -1.2533 0
M  V30 11843 H 1162.29 -1.38665 -0.556084 0
M  V30 11844 H 1164.18 -2.14632 -3.62645 0
M  V30 11845 H 1162.85 -1.10207 -3.04362 0
M  V30 11846 H 1161.76 -3.16682 -1.99157 0
M  V30 11847 H 1163.09 -4.15604 -2.63694 0
M  V30 11848 N 1164.74 0.6258 -1.44643 0
M  V30 11849 C 1165.99 1.38251 -1.47414 0
M  V30 11850 C 1166.31 1.94689 -0.110043 0
M  V30 11851 O 1165.58 1.76095 0.858333 0
M  V30 11852 H 1164.16 0.513179 -0.542823 0
M  V30 11853 H 1166.82 0.736179 -1.80462 0
M  V30 11854 H 1165.92 2.21115 -2.2026 0
M  V30 11855 N 1166.22 1.31629 0.866686 0
M  V30 11856 C 1167.63 1.19347 1.43573 0
M  V30 11857 C 1167.98 -0.198765 1.95191 0
M  V30 11858 O 1167.11 -1.09674 1.86549 0
M  V30 11859 C 1167.7 2.16055 2.6097 0
M  V30 11860 C 1166.26 2.07697 3.13909 0
M  V30 11861 C 1165.41 2.05099 1.86627 0
M  V30 11862 H 1168.36 1.43633 0.674929 0
M  V30 11863 H 1168.38 1.75207 3.37761 0
M  V30 11864 H 1167.89 3.17375 2.23371 0
M  V30 11865 H 1165.99 1.09583 3.56121 0
M  V30 11866 H 1166.11 2.96958 3.75969 0
M  V30 11867 H 1164.47 1.50162 2.05727 0
M  V30 11868 H 1165.25 3.0818 1.51261 0
M  V30 11869 N 1167.7 -1.08142 1.14644 0
M  V30 11870 C 1168.63 -2.15022 0.793614 0
M  V30 11871 C 1169.64 -1.61679 -0.190729 0
M  V30 11872 O 1170.83 -1.78472 0.0313696 0
M  V30 11873 C 1167.93 -3.38532 0.157785 0
M  V30 11874 C 1167.11 -4.21252 1.17753 0
M  V30 11875 C 1166.17 -5.23158 0.564968 0
M  V30 11876 O 1165.19 -5.5578 1.22869 0
M  V30 11877 N 1166.39 -5.7677 -0.657022 0
M  V30 11878 H 1169.16 -2.45893 1.71338 0
M  V30 11879 H 1166.72 -1.23976 1.04122 0
M  V30 11880 H 1168.71 -4.03834 -0.264586 0
M  V30 11881 H 1167.28 -3.05441 -0.665168 0
M  V30 11882 H 1166.5 -3.51888 1.77675 0
M  V30 11883 H 1167.79 -4.73335 1.86632 0
M  V30 11884 H 1167.19 -5.52503 -1.21478 0
M  V30 11885 H 1165.74 -6.4374 -1.02186 0
M  V30 11886 N 1169.18 -0.941978 -1.26351 0
M  V30 11887 C 1170.42 -0.597462 -1.95473 0
M  V30 11888 C 1170.78 0.847851 -1.72266 0
M  V30 11889 O 1171.98 1.30134 -2.35199 0
M  V30 11890 C 1170.25 -0.931342 -3.45052 0
M  V30 11891 S 1171.81 -0.697491 -4.33221 0
M  V30 11892 H 1168.63 -0.22003 -0.676097 0
M  V30 11893 H 1171.23 -1.21346 -1.53282 0
M  V30 11894 H 1169.94 -1.98063 -3.59443 0
M  V30 11895 H 1169.47 -0.305095 -3.92215 0
M  V30 11896 H 1171.48 0.437915 -4.94264 0
M  V30 11897 N 1170.66 1.40747 -0.709091 0
M  V30 11898 C 1171.6 2.32564 -0.0411392 0
M  V30 11899 C 1172.6 1.51692 0.75404 0
M  V30 11900 O 1173.8 1.67537 0.658139 0
M  V30 11901 H 1170.18 0.75198 0.00549889 0
M  V30 11902 H 1172.15 2.86556 -0.83235 0
M  V30 11903 C 1170.9 3.36604 0.871378 0
M  V30 11904 H 1170.22 3.98895 0.268912 0
M  V30 11905 H 1171.66 4.03359 1.30682 0
M  V30 11906 C 1170.12 2.71566 1.99384 0
M  V30 11907 O 1170.65 2.57392 3.08403 0
M  V30 11908 N 1168.86 2.3005 1.77554 0
M  V30 11909 H 1168.4 2.41778 0.888898 0
M  V30 11910 H 1168.36 1.8687 2.52838 0
M  V30 11911 N 1172.13 0.454803 1.50895 0
M  V30 11912 C 1173.08 -0.347769 2.28165 0
M  V30 11913 C 1174.05 -1.00158 1.32505 0
M  V30 11914 O 1175.24 -1.01715 1.61427 0
M  V30 11915 C 1172.38 -1.43315 3.13934 0
M  V30 11916 C 1171.49 -0.795736 4.24608 0
M  V30 11917 C 1170.62 -1.85763 4.9766 0
M  V30 11918 C 1169.66 -1.19959 6.0023 0
M  V30 11919 N 1168.8 -2.20361 6.66622 0
M  V30 11920 H 1173.64 0.317493 2.96304 0
M  V30 11921 H 1171.18 0.168418 1.46133 0
M  V30 11922 H 1173.13 -2.07391 3.62001 0
M  V30 11923 H 1171.76 -2.0678 2.47875 0
M  V30 11924 H 1170.82 -0.0428173 3.80376 0
M  V30 11925 H 1172.13 -0.275477 4.98039 0
M  V30 11926 H 1171.28 -2.5746 5.49363 0
M  V30 11927 H 1170.02 -2.41166 4.23899 0
M  V30 11928 H 1169.03 -0.46817 5.47803 0
M  V30 11929 H 1170.25 -0.652666 6.75956 0
M  V30 11930 H 1168.2 -2.74812 5.95663 0
M  V30 11931 H 1168.11 -1.73275 7.35875 0
M  V30 11932 H 1169.38 -2.91488 7.22949 0
M  V30 11933 N 1173.61 -1.56489 0.186789 0
M  V30 11934 C 1174.85 -1.99239 -0.456427 0
M  V30 11935 C 1175.22 -1.07076 -1.5937 0
M  V30 11936 O 1176.42 -1.39028 -2.30054 0
M  V30 11937 C 1174.69 -3.45553 -0.912587 0
M  V30 11938 S 1176.25 -4.1033 -1.55481 0
M  V30 11939 H 1173.06 -0.695792 -0.146267 0
M  V30 11940 H 1175.67 -1.93369 0.287899 0
M  V30 11941 H 1174.37 -4.10332 -0.0746877 0
M  V30 11942 H 1173.9 -3.55222 -1.69058 0
M  V30 11943 H 1175.92 -4.06653 -2.84338 0
M  V30 11944 N 1175.09 0.086862 -1.5736 0
M  V30 11945 C 1176.04 1.10478 -2.02641 0
M  V30 11946 C 1177.01 1.39331 -0.904219 0
M  V30 11947 O 1178.19 1.50654 -1.17081 0
M  V30 11948 C 1175.33 2.41754 -2.4627 0
M  V30 11949 C 1174.44 2.19561 -3.72044 0
M  V30 11950 C 1173.58 3.44294 -4.04519 0
M  V30 11951 C 1172.62 3.17399 -5.23378 0
M  V30 11952 N 1171.76 4.3442 -5.51564 0
M  V30 11953 H 1176.6 0.711663 -2.89378 0
M  V30 11954 H 1174.13 0.339856 -1.4312 0
M  V30 11955 H 1176.09 3.18378 -2.69613 0
M  V30 11956 H 1174.72 2.78896 -1.62532 0
M  V30 11957 H 1173.77 1.337 -3.5613 0
M  V30 11958 H 1175.08 1.95685 -4.58812 0
M  V30 11959 H 1174.24 4.29321 -4.28682 0
M  V30 11960 H 1172.98 3.71232 -3.16289 0
M  V30 11961 H 1171.98 2.30765 -4.99026 0
M  V30 11962 H 1173.21 2.91799 -6.13213 0
M  V30 11963 H 1171.15 4.61418 -4.66293 0
M  V30 11964 H 1171.07 4.13764 -6.3272 0
M  V30 11965 H 1172.34 5.20489 -5.80269 0
M  V30 11966 N 1176.57 1.53483 0.357892 0
M  V30 11967 C 1177.53 1.79782 1.42166 0
M  V30 11968 C 1178.53 0.668441 1.46248 0
M  V30 11969 O 1179.72 0.936677 1.46874 0
M  V30 11970 C 1176.85 1.92686 2.8122 0
M  V30 11971 H 1178.05 2.74794 1.20117 0
M  V30 11972 H 1175.6 1.44677 0.591468 0
M  V30 11973 H 1176.33 0.997669 3.08573 0
M  V30 11974 H 1176.12 2.74837 2.79655 0
M  V30 11975 H 1177.61 2.14599 3.58242 0
M  V30 11976 N 1178.05 -0.61812 1.44973 0
M  V30 11977 C 1179.29 -1.37468 1.48145 0
M  V30 11978 C 1179.61 -1.94628 0.120366 0
M  V30 11979 O 1178.88 -1.76548 -0.848982 0
M  V30 11980 H 1177.46 -0.510293 0.545536 0
M  V30 11981 H 1180.13 -0.726598 1.8085 0
M  V30 11982 H 1179.22 -2.19944 2.2143 0
M  V30 11983 N 1179.52 -1.32087 -0.859693 0
M  V30 11984 C 1180.77 -1.2236 -1.61351 0
M  V30 11985 C 1181.1 0.215796 -1.93299 0
M  V30 11986 O 1180.35 1.16742 -1.57066 0
M  V30 11987 C 1180.65 -2.0234 -2.94607 0
M  V30 11988 C 1180.32 -3.51746 -2.82109 0
M  V30 11989 C 1178.98 -3.92482 -2.78408 0
M  V30 11990 C 1181.33 -4.46776 -2.68403 0
M  V30 11991 C 1178.66 -5.265 -2.58873 0
M  V30 11992 C 1181.01 -5.80931 -2.50404 0
M  V30 11993 C 1179.68 -6.20875 -2.45092 0
M  V30 11994 H 1178.95 -0.447748 -0.590426 0
M  V30 11995 H 1181.59 -1.63461 -0.997637 0
M  V30 11996 H 1179.9 -1.53952 -3.60286 0
M  V30 11997 H 1181.6 -1.92187 -3.51945 0
M  V30 11998 H 1178.19 -3.19389 -2.85812 0
M  V30 11999 H 1182.37 -4.16228 -2.70311 0
M  V30 12000 H 1177.63 -5.5651 -2.53192 0
M  V30 12001 H 1181.8 -6.54185 -2.38777 0
M  V30 12002 H 1179.43 -7.24662 -2.29714 0
M  V30 12003 N 1181 1.07532 -1.15215 0
M  V30 12004 C 1182.25 1.80093 -0.925891 0
M  V30 12005 C 1182.58 1.86648 0.547079 0
M  V30 12006 O 1181.83 1.34492 1.42164 0
M  V30 12007 C 1182.13 3.2518 -1.483 0
M  V30 12008 C 1181.8 3.38728 -2.97614 0
M  V30 12009 C 1180.46 3.42133 -3.38376 0
M  V30 12010 C 1182.81 3.41676 -3.93583 0
M  V30 12011 C 1180.14 3.46086 -4.73752 0
M  V30 12012 C 1182.49 3.47166 -5.28828 0
M  V30 12013 C 1181.15 3.48847 -5.69089 0
M  V30 12014 H 1180.42 0.659007 -0.338808 0
M  V30 12015 H 1183.07 1.26548 -1.43728 0
M  V30 12016 H 1181.38 3.81493 -0.892751 0
M  V30 12017 H 1183.07 3.79895 -1.28376 0
M  V30 12018 H 1179.66 3.36775 -2.65105 0
M  V30 12019 H 1183.85 3.38268 -3.63165 0
M  V30 12020 H 1179.1 3.45686 -5.04293 0
M  V30 12021 H 1183.28 3.48393 -6.02989 0
M  V30 12022 H 1180.9 3.51663 -6.73971 0
M  V30 12023 N 1182.48 0.948665 1.2585 0
M  V30 12024 C 1183.73 0.59905 1.93018 0
M  V30 12025 C 1184.05 -0.865813 1.74725 0
M  V30 12026 O 1183.32 -1.61602 1.10732 0
M  V30 12027 H 1181.9 0.218565 0.71431 0
M  V30 12028 H 1184.56 1.20561 1.53137 0
M  V30 12029 H 1183.66 0.823244 3.01047 0
M  V30 12030 N 1183.96 -1.40369 0.716545 0
M  V30 12031 C 1185.24 -1.94737 0.183576 0
M  V30 12032 C 1185.62 -1.65464 -1.31092 0
M  V30 12033 O 1184.96 -0.972832 -2.06756 0
M  V30 12034 C 1185.17 -3.45438 0.497339 0
M  V30 12035 C 1186.52 -4.2235 0.436526 0
M  V30 12036 O 1187.55 -3.53553 0.433454 0
M  V30 12037 O 1186.4 -5.44923 0.41489 0
M  V30 12038 H 1183.5 -0.82655 0.0272785 0
M  V30 12039 H 1186.04 -1.49972 0.794143 0
M  V30 12040 H 1184.82 -3.60107 1.53097 0
M  V30 12041 H 1184.44 -3.97342 -0.143141 0
M  V30 12042 N 1185.44 -0.462799 -1.50652 0
M  V30 12043 C 1186.4 0.324264 -2.26895 0
M  V30 12044 C 1187.4 0.927687 -1.31342 0
M  V30 12045 O 1188.59 0.798159 -1.54839 0
M  V30 12046 C 1185.72 1.46113 -3.08 0
M  V30 12047 H 1186.91 -0.344266 -2.97917 0
M  V30 12048 H 1184.47 -0.216631 -1.54791 0
M  V30 12049 H 1185.2 2.16496 -2.41454 0
M  V30 12050 H 1184.99 1.03433 -3.78212 0
M  V30 12051 H 1186.48 2.01655 -3.65684 0
M  V30 12052 N 1186.91 1.56388 -0.195085 0
M  V30 12053 C 1187.85 2.14992 0.765096 0
M  V30 12054 C 1188.83 1.08663 1.20959 0
M  V30 12055 O 1190.01 1.36775 1.29711 0
M  V30 12056 C 1187.14 2.7088 2.03327 0
M  V30 12057 C 1186.18 3.89797 1.7309 0
M  V30 12058 S 1187.02 5.28236 0.879025 0
M  V30 12059 C 1188.17 5.87545 2.15734 0
M  V30 12060 H 1188.4 2.961 0.266902 0
M  V30 12061 H 1185.94 1.54387 0.0199116 0
M  V30 12062 H 1187.9 3.03723 2.76157 0
M  V30 12063 H 1186.56 1.89814 2.50259 0
M  V30 12064 H 1185.75 4.27312 2.67246 0
M  V30 12065 H 1185.35 3.57964 1.08342 0
M  V30 12066 H 1187.64 6.01907 3.10989 0
M  V30 12067 H 1188.59 6.84137 1.82652 0
M  V30 12068 H 1188.99 5.16151 2.2858 0
M  V30 12069 N 1188.39 -0.0785156 1.57404 0
M  V30 12070 C 1189.34 -1.09402 2.03224 0
M  V30 12071 C 1190.31 -1.38849 0.911596 0
M  V30 12072 O 1191.49 -1.50031 1.17878 0
M  V30 12073 C 1188.63 -2.40444 2.47549 0
M  V30 12074 C 1187.75 -2.17585 3.73203 0
M  V30 12075 C 1186.88 -3.42143 4.06339 0
M  V30 12076 C 1185.92 -3.14619 5.25054 0
M  V30 12077 N 1185.06 -4.31489 5.5386 0
M  V30 12078 H 1189.9 -0.696307 2.89751 0
M  V30 12079 H 1187.44 -0.332261 1.43298 0
M  V30 12080 H 1189.39 -3.16944 2.71298 0
M  V30 12081 H 1188.02 -2.78031 1.64009 0
M  V30 12082 H 1187.08 -1.3181 3.56834 0
M  V30 12083 H 1188.39 -1.93249 4.59844 0
M  V30 12084 H 1187.54 -4.27042 4.30953 0
M  V30 12085 H 1186.28 -3.69549 3.18253 0
M  V30 12086 H 1185.29 -2.28116 5.00243 0
M  V30 12087 H 1186.51 -2.88543 6.14752 0
M  V30 12088 H 1184.46 -4.58939 4.68734 0
M  V30 12089 H 1184.37 -4.10403 6.34906 0
M  V30 12090 H 1185.64 -5.17404 5.83021 0
M  V30 12091 N 1189.87 -1.5367 -0.349747 0
M  V30 12092 C 1190.83 -1.80533 -1.41211 0
M  V30 12093 C 1191.83 -0.676188 -1.45892 0
M  V30 12094 O 1193.02 -0.944453 -1.46375 0
M  V30 12095 C 1190.16 -1.94175 -2.80195 0
M  V30 12096 H 1191.35 -2.75428 -1.18658 0
M  V30 12097 H 1188.9 -1.44988 -0.583787 0
M  V30 12098 H 1189.64 -1.01402 -3.08039 0
M  V30 12099 H 1189.42 -2.76316 -2.78194 0
M  V30 12100 H 1190.91 -2.16496 -3.57098 0
M  V30 12101 N 1191.35 0.610423 -1.45298 0
M  V30 12102 C 1192.58 1.39621 -1.52688 0
M  V30 12103 C 1192.99 1.88133 -0.158535 0
M  V30 12104 O 1192.35 1.62051 0.839396 0
M  V30 12105 C 1192.4 2.60261 -2.50891 0
M  V30 12106 O 1192.12 2.13766 -3.82408 0
M  V30 12107 C 1193.62 3.53154 -2.6795 0
M  V30 12108 H 1190.84 0.427493 -0.517195 0
M  V30 12109 H 1193.39 0.744701 -1.90459 0
M  V30 12110 H 1191.54 3.2146 -2.162 0
M  V30 12111 H 1191.95 2.92128 -4.35616 0
M  V30 12112 H 1193.43 4.34355 -3.40647 0
M  V30 12113 H 1193.91 4.03311 -1.73888 0
M  V30 12114 H 1194.51 2.9781 -3.03627 0
M  V30 12115 N 1192.83 1.32541 0.852676 0
M  V30 12116 C 1193.79 1.21578 1.94297 0
M  V30 12117 C 1194.79 0.138318 1.60204 0
M  V30 12118 O 1195.98 0.388864 1.69804 0
M  V30 12119 C 1193.11 0.870209 3.29606 0
M  V30 12120 H 1194.3 2.18476 2.05446 0
M  V30 12121 H 1191.86 1.16401 1.0431 0
M  V30 12122 H 1192.59 -0.0968698 3.24155 0
M  V30 12123 H 1192.38 1.64924 3.55728 0
M  V30 12124 H 1193.87 0.817874 4.09513 0
M  V30 12125 N 1194.3 -1.0692 1.15784 0
M  V30 12126 C 1195.53 -1.8331 0.959422 0
M  V30 12127 C 1195.95 -1.82268 -0.492332 0
M  V30 12128 O 1195.3 -1.23727 -1.34156 0
M  V30 12129 C 1195.36 -3.30202 1.47135 0
M  V30 12130 O 1195.08 -3.31328 2.86624 0
M  V30 12131 C 1196.58 -4.23346 1.31504 0
M  V30 12132 H 1193.8 -0.578202 0.340475 0
M  V30 12133 H 1196.34 -1.34939 1.53661 0
M  V30 12134 H 1194.5 -3.75908 0.936587 0
M  V30 12135 H 1194.91 -4.23135 3.0993 0
M  V30 12136 H 1196.38 -5.24465 1.72163 0
M  V30 12137 H 1196.86 -4.38431 0.259773 0
M  V30 12138 H 1197.47 -3.8348 1.83911 0
M  V30 12139 N 1195.78 -0.955326 -1.25345 0
M  V30 12140 C 1197.01 -0.627233 -1.97688 0
M  V30 12141 C 1197.43 0.793973 -1.70522 0
M  V30 12142 O 1196.79 1.537 -0.961556 0
M  V30 12143 C 1196.84 -0.892969 -3.49369 0
M  V30 12144 O 1195.94 0.0278871 -4.12391 0
M  V30 12145 H 1195.28 -0.238402 -0.619726 0
M  V30 12146 H 1197.81 -1.28211 -1.59446 0
M  V30 12147 H 1197.82 -0.819517 -3.99685 0
M  V30 12148 H 1196.5 -1.92879 -3.6847 0
M  V30 12149 H 1195.08 -0.0978295 -3.72772 0
M  V30 12150 N 1197.26 1.39987 -0.723979 0
M  V30 12151 C 1198.5 2.02587 -0.271647 0
M  V30 12152 C 1198.87 1.56186 1.11669 0
M  V30 12153 O 1200.07 2.10907 1.66648 0
M  V30 12154 C 1198.34 3.55604 -0.357851 0
M  V30 12155 S 1199.9 4.38797 0.0162614 0
M  V30 12156 H 1196.71 0.702878 -0.10716 0
M  V30 12157 H 1199.32 1.70974 -0.948057 0
M  V30 12158 H 1198.02 3.86866 -1.36977 0
M  V30 12159 H 1197.55 3.91956 0.336754 0
M  V30 12160 H 1199.57 4.80564 1.23582 0
M  V30 12161 N 1198.74 0.470782 1.50404 0
M  V30 12162 C 1200.16 0.124919 1.5911 0
M  V30 12163 C 1200.36 -1.36855 1.47895 0
M  V30 12164 O 1199.41 -2.1418 1.33728 0
M  V30 12165 C 1200.72 0.674839 2.9303 0
M  V30 12166 C 1202.27 0.638239 3.06424 0
M  V30 12167 C 1202.75 1.1657 4.42917 0
M  V30 12168 N 1204.24 1.1251 4.49328 0
M  V30 12169 C 1204.97 1.50373 5.53331 0
M  V30 12170 N 1204.47 1.95684 6.6459 0
M  V30 12171 N 1206.26 1.41978 5.43874 0
M  V30 12172 H 1198.41 1.44212 1.55938 0
M  V30 12173 H 1200.68 0.596354 0.73693 0
M  V30 12174 H 1200.38 1.72106 3.06712 0
M  V30 12175 H 1200.26 0.118234 3.77015 0
M  V30 12176 H 1202.64 -0.399075 2.92389 0
M  V30 12177 H 1202.72 1.23164 2.24197 0
M  V30 12178 H 1202.37 2.20164 4.57701 0
M  V30 12179 H 1202.3 0.548513 5.23736 0
M  V30 12180 H 1204.79 0.79276 3.69491 0
M  V30 12181 H 1205.1 2.22724 7.40009 0
M  V30 12182 H 1203.45 1.99636 6.65711 0
M  V30 12183 H 1206.64 1.0642 4.55842 0
M  V30 12184 H 1206.81 1.71812 6.24808 0
M  V30 12185 N 1200.22 -1.56282 0.203376 0
M  V30 12186 C 1201.63 -1.84146 -0.307752 0
M  V30 12187 C 1201.98 -1.12429 -1.60792 0
M  V30 12188 O 1201.1 -0.387852 -2.12896 0
M  V30 12189 C 1201.7 -3.34053 -0.565152 0
M  V30 12190 C 1200.26 -3.62298 -1.02063 0
M  V30 12191 C 1199.41 -2.77202 -0.0737343 0
M  V30 12192 H 1202.36 -1.52848 0.426983 0
M  V30 12193 H 1202.38 -3.53273 -1.41345 0
M  V30 12194 H 1201.89 -3.86222 0.381301 0
M  V30 12195 H 1199.99 -3.1557 -1.98107 0
M  V30 12196 H 1200.1 -4.70424 -0.907614 0
M  V30 12197 H 1198.47 -2.48074 -0.577169 0
M  V30 12198 H 1199.25 -3.32164 0.86731 0
M  V30 12199 N 1201.7 0.070167 -1.57444 0
M  V30 12200 C 1202.94 0.774338 -1.89165 0
M  V30 12201 C 1203.3 1.7466 -0.797353 0
M  V30 12202 O 1204.5 2.49599 -0.997682 0
M  V30 12203 C 1202.77 1.46235 -3.26114 0
M  V30 12204 S 1204.33 2.20136 -3.79586 0
M  V30 12205 H 1201.15 0.257464 -0.662747 0
M  V30 12206 H 1203.75 0.0303734 -1.95476 0
M  V30 12207 H 1202.45 0.740942 -4.03656 0
M  V30 12208 H 1201.99 2.24571 -3.23004 0
M  V30 12209 H 1204 3.4668 -3.55003 0
M  V30 12210 N 1203.17 1.53854 0.341593 0
M  V30 12211 C 1204.58 1.62623 0.917093 0
M  V30 12212 C 1204.94 0.508781 1.89488 0
M  V30 12213 O 1204.06 -0.361171 2.13365 0
M  V30 12214 C 1204.66 2.94775 1.67012 0
M  V30 12215 C 1203.21 3.058 2.19461 0
M  V30 12216 C 1202.36 2.58082 1.01433 0
M  V30 12217 H 1205.31 1.58248 0.119674 0
M  V30 12218 H 1205.33 2.83924 2.53313 0
M  V30 12219 H 1204.85 3.76085 0.958221 0
M  V30 12220 H 1202.95 2.29128 2.93821 0
M  V30 12221 H 1203.06 4.11302 2.45698 0
M  V30 12222 H 1201.42 2.13537 1.38831 0
M  V30 12223 H 1202.21 3.41833 0.317033 0
M  V30 12224 N 1204.65 -0.602709 1.4562 0
M  V30 12225 C 1205.89 -1.37284 1.51435 0
M  V30 12226 C 1206.26 -1.9138 0.154148 0
M  V30 12227 O 1207.46 -2.68659 0.0870009 0
M  V30 12228 C 1205.73 -2.48651 2.56724 0
M  V30 12229 S 1207.29 -3.36354 2.818 0
M  V30 12230 H 1204.1 -0.46798 0.535272 0
M  V30 12231 H 1206.71 -0.694957 1.82731 0
M  V30 12232 H 1205.41 -2.07267 3.54215 0
M  V30 12233 H 1204.94 -3.21234 2.27095 0
M  V30 12234 H 1206.96 -4.46937 2.15549 0
M  V30 12235 N 1206.13 -1.32992 -0.845635 0
M  V30 12236 C 1207.54 -1.21616 -1.41656 0
M  V30 12237 C 1207.89 0.167687 -1.95482 0
M  V30 12238 O 1207.02 1.06692 -1.8827 0
M  V30 12239 C 1207.61 -2.2018 -2.575 0
M  V30 12240 C 1206.17 -2.12664 -3.10565 0
M  V30 12241 C 1205.32 -2.08042 -1.83341 0
M  V30 12242 H 1208.27 -1.44688 -0.651993 0
M  V30 12243 H 1208.29 -1.80558 -3.34931 0
M  V30 12244 H 1207.8 -3.20888 -2.18294 0
M  V30 12245 H 1205.9 -1.15235 -3.54333 0
M  V30 12246 H 1206.02 -3.02902 -3.71197 0
M  V30 12247 H 1204.38 -1.53416 -2.03312 0
M  V30 12248 H 1205.16 -3.10547 -1.46339 0
M  V30 12249 N 1207.61 1.06304 -1.1635 0
M  V30 12250 C 1208.84 1.82534 -0.967725 0
M  V30 12251 C 1209.25 1.82816 0.487338 0
M  V30 12252 O 1208.59 1.24581 1.35001 0
M  V30 12253 C 1208.65 3.30349 -1.4181 0
M  V30 12254 C 1208.31 3.53769 -2.89303 0
M  V30 12255 C 1209.31 3.46826 -3.87308 0
M  V30 12256 C 1207 3.81094 -3.2722 0
M  V30 12257 C 1208.99 3.66874 -5.21232 0
M  V30 12258 C 1206.68 4.00792 -4.61313 0
M  V30 12259 C 1207.68 3.93679 -5.58127 0
M  V30 12260 O 1207.36 4.12839 -6.89796 0
M  V30 12261 H 1207.1 0.582407 -0.343189 0
M  V30 12262 H 1209.65 1.35022 -1.54784 0
M  V30 12263 H 1207.88 3.78722 -0.781456 0
M  V30 12264 H 1209.57 3.88072 -1.18976 0
M  V30 12265 H 1210.33 3.25706 -3.59361 0
M  V30 12266 H 1206.21 3.85739 -2.5244 0
M  V30 12267 H 1209.76 3.61238 -5.96786 0
M  V30 12268 H 1205.65 4.214 -4.8897 0
M  V30 12269 H 1206.42 4.30128 -6.96371 0
M  V30 12270 N 1209.09 0.96196 1.24836 0
M  V30 12271 C 1210.33 0.616342 1.92052 0
M  V30 12272 C 1210.65 -0.851601 1.76088 0
M  V30 12273 O 1211.85 -1.3075 2.37943 0
M  V30 12274 C 1210.31 1.05168 3.44191 0
M  V30 12275 C 1209.92 2.54268 3.68852 0
M  V30 12276 C 1211.66 0.778938 4.17292 0
M  V30 12277 C 1209.57 2.91564 5.14533 0
M  V30 12278 H 1208.5 0.22681 0.719078 0
M  V30 12279 H 1211.15 1.1674 1.41577 0
M  V30 12280 H 1209.53 0.428979 3.9367 0
M  V30 12281 H 1210.71 3.21619 3.29997 0
M  V30 12282 H 1209.02 2.79091 3.09026 0
M  V30 12283 H 1211.62 1.03366 5.24614 0
M  V30 12284 H 1211.96 -0.284772 4.15325 0
M  V30 12285 H 1212.49 1.36233 3.73745 0
M  V30 12286 H 1209.23 3.96982 5.21618 0
M  V30 12287 H 1208.75 2.28892 5.54408 0
M  V30 12288 H 1210.43 2.81155 5.82718 0
M  V30 12289 N 1210.56 -1.39601 0.731392 0
M  V30 12290 C 1211.84 -1.94531 0.20422 0
M  V30 12291 C 1212.22 -1.66845 -1.29329 0
M  V30 12292 O 1211.57 -0.994706 -2.05713 0
M  V30 12293 C 1211.78 -3.44891 0.53395 0
M  V30 12294 C 1213.13 -4.21863 0.481298 0
M  V30 12295 O 1214.15 -3.53073 0.470929 0
M  V30 12296 O 1213.01 -5.44452 0.472663 0
M  V30 12297 H 1210.1 -0.826214 0.0360436 0
M  V30 12298 H 1212.65 -1.49121 0.810005 0
M  V30 12299 H 1211.42 -3.58463 1.56907 0
M  V30 12300 H 1211.04 -3.97472 -0.10099 0
M  V30 12301 N 1212.04 -0.478751 -1.50152 0
M  V30 12302 C 1213.01 0.300181 -2.27226 0
M  V30 12303 C 1214.01 0.913705 -1.32318 0
M  V30 12304 O 1215.2 0.781692 -1.55677 0
M  V30 12305 C 1212.33 1.42838 -3.09532 0
M  V30 12306 H 1213.52 -0.375845 -2.97536 0
M  V30 12307 H 1211.07 -0.233037 -1.54553 0
M  V30 12308 H 1211.81 2.13923 -2.43737 0
M  V30 12309 H 1211.59 0.994161 -3.79287 0
M  V30 12310 H 1213.08 1.97765 -3.67802 0
M  V30 12311 N 1213.52 1.56172 -0.211661 0
M  V30 12312 C 1214.75 2.02874 0.430905 0
M  V30 12313 C 1215.17 1.09064 1.53254 0
M  V30 12314 O 1214.53 0.0770408 1.81136 0
M  V30 12315 C 1214.58 3.4789 0.948933 0
M  V30 12316 O 1213.68 3.57213 2.0609 0
M  V30 12317 H 1213.02 0.656614 0.0987607 0
M  V30 12318 H 1215.55 2.01964 -0.327399 0
M  V30 12319 H 1215.56 3.88015 1.2613 0
M  V30 12320 H 1214.24 4.15656 0.142584 0
M  V30 12321 H 1212.81 3.28971 1.75592 0
M  V30 12322 N 1215 -0.0618163 1.57479 0
M  V30 12323 C 1216.41 -0.416827 1.54061 0
M  V30 12324 C 1216.61 -1.78584 0.933277 0
M  V30 12325 O 1215.67 -2.46656 0.54009 0
M  V30 12326 C 1216.98 -0.348728 2.98671 0
M  V30 12327 C 1218.53 -0.428194 3.10057 0
M  V30 12328 C 1219.01 -0.389898 4.56337 0
M  V30 12329 N 1220.5 -0.449677 4.61012 0
M  V30 12330 C 1221.23 -0.442418 5.71691 0
M  V30 12331 N 1220.73 -0.389381 6.91705 0
M  V30 12332 N 1222.52 -0.489719 5.59963 0
M  V30 12333 H 1214.67 0.834487 1.9532 0
M  V30 12334 H 1216.94 0.314149 0.894435 0
M  V30 12335 H 1216.64 0.590738 3.46703 0
M  V30 12336 H 1216.52 -1.15511 3.59078 0
M  V30 12337 H 1218.9 -1.35808 2.61992 0
M  V30 12338 H 1218.98 0.406946 2.52542 0
M  V30 12339 H 1218.63 0.536186 5.05062 0
M  V30 12340 H 1218.56 -1.24271 5.11727 0
M  V30 12341 H 1221.05 -0.49451 3.74651 0
M  V30 12342 H 1221.36 -0.388042 7.71825 0
M  V30 12343 H 1219.71 -0.355918 6.94088 0
M  V30 12344 H 1222.9 -0.528915 4.65102 0
M  V30 12345 H 1223.07 -0.480592 6.46215 0
M  V30 12346 N 1216.48 -1.54033 -0.333429 0
M  V30 12347 C 1217.89 -1.44522 -0.677166 0
M  V30 12348 C 1218.09 -0.610122 -1.92041 0
M  V30 12349 O 1217.15 -0.105058 -2.52281 0
M  V30 12350 C 1218.46 -2.88129 -0.860369 0
M  V30 12351 C 1220.01 -2.97968 -0.958342 0
M  V30 12352 C 1220.48 -4.42703 -1.17379 0
M  V30 12353 N 1221.98 -4.46273 -1.24075 0
M  V30 12354 C 1222.71 -5.55407 -1.42515 0
M  V30 12355 N 1222.21 -6.74528 -1.58062 0
M  V30 12356 N 1224 -5.43037 -1.45144 0
M  V30 12357 H 1216.15 -2.06815 0.483858 0
M  V30 12358 H 1218.41 -0.935307 0.15461 0
M  V30 12359 H 1218.12 -3.51695 -0.0182085 0
M  V30 12360 H 1217.99 -3.33668 -1.75913 0
M  V30 12361 H 1220.38 -2.34535 -1.79102 0
M  V30 12362 H 1220.46 -2.55774 -0.0362643 0
M  V30 12363 H 1220.11 -5.0672 -0.346004 0
M  V30 12364 H 1220.04 -4.82498 -2.10959 0
M  V30 12365 H 1222.53 -3.60439 -1.13545 0
M  V30 12366 H 1222.84 -7.53462 -1.71797 0
M  V30 12367 H 1221.18 -6.77454 -1.55179 0
M  V30 12368 H 1224.38 -4.4893 -1.32588 0
M  V30 12369 H 1224.55 -6.28146 -1.59173 0
M  V30 12370 N 1217.95 0.594978 -1.45938 0
M  V30 12371 C 1219.2 1.35361 -1.50611 0
M  V30 12372 C 1219.53 1.93898 -0.152866 0
M  V30 12373 O 1218.78 1.76275 0.850037 0
M  V30 12374 C 1219.08 2.51129 -2.54301 0
M  V30 12375 C 1218.75 2.1066 -3.98664 0
M  V30 12376 C 1217.41 1.99338 -4.3797 0
M  V30 12377 C 1219.76 1.79267 -4.894 0
M  V30 12378 C 1217.09 1.54863 -5.65893 0
M  V30 12379 C 1219.44 1.36274 -6.17748 0
M  V30 12380 C 1218.11 1.2352 -6.55972 0
M  V30 12381 H 1217.38 0.49532 -0.551125 0
M  V30 12382 H 1220.02 0.671236 -1.79351 0
M  V30 12383 H 1218.33 3.24759 -2.19177 0
M  V30 12384 H 1220.03 3.09353 -2.55151 0
M  V30 12385 H 1216.62 2.20403 -3.67587 0
M  V30 12386 H 1220.8 1.86906 -4.59761 0
M  V30 12387 H 1216.06 1.43621 -5.94292 0
M  V30 12388 H 1220.23 1.11032 -6.87492 0
M  V30 12389 H 1217.86 0.88832 -7.54992 0
M  V30 12390 N 1219.43 1.33438 0.838571 0
M  V30 12391 C 1220.66 1.28097 1.63113 0
M  V30 12392 C 1221.08 -0.145197 1.87539 0
M  V30 12393 O 1220.44 -1.10191 1.43971 0
M  V30 12394 C 1220.49 2.06201 2.95827 0
M  V30 12395 O 1219.59 1.42082 3.87152 0
M  V30 12396 H 1218.93 0.440685 0.496681 0
M  V30 12397 H 1221.46 1.76004 1.04325 0
M  V30 12398 H 1221.47 2.16977 3.45521 0
M  V30 12399 H 1220.15 3.099 2.77371 0
M  V30 12400 H 1218.73 1.39953 3.45641 0
M  V30 12401 N 1220.91 -1.05686 1.16912 0
M  V30 12402 C 1222.19 -1.7546 0.864483 0
M  V30 12403 C 1222.57 -2.0128 -0.636359 0
M  V30 12404 O 1221.92 -1.64485 -1.58609 0
M  V30 12405 C 1222.13 -3.05134 1.69395 0
M  V30 12406 C 1223.47 -3.79176 1.91079 0
M  V30 12407 O 1224.5 -3.1499 1.66312 0
M  V30 12408 O 1223.36 -4.94496 2.32671 0
M  V30 12409 H 1220.45 -0.762748 0.319601 0
M  V30 12410 H 1223 -1.11899 1.27581 0
M  V30 12411 H 1221.77 -2.82063 2.71212 0
M  V30 12412 H 1221.39 -3.76431 1.28007 0
M  V30 12413 N 1222.39 -0.968567 -1.24324 0
M  V30 12414 C 1223.62 -0.648568 -1.96472 0
M  V30 12415 C 1224.03 0.782168 -1.71836 0
M  V30 12416 O 1223.39 1.5249 -1.00265 0
M  V30 12417 C 1223.44 -0.91482 -3.49733 0
M  V30 12418 O 1223.16 -2.28931 -3.73527 0
M  V30 12419 C 1224.66 -0.609131 -4.39095 0
M  V30 12420 H 1221.88 -0.241921 -0.625872 0
M  V30 12421 H 1224.43 -1.29673 -1.5813 0
M  V30 12422 H 1222.58 -0.31285 -3.86135 0
M  V30 12423 H 1222.99 -2.36998 -4.67902 0
M  V30 12424 H 1224.47 -0.845875 -5.4548 0
M  V30 12425 H 1224.95 0.456625 -4.3682 0
M  V30 12426 H 1225.55 -1.19105 -4.08282 0
M  V30 12427 N 1223.87 1.39211 -0.738786 0
M  V30 12428 C 1225.11 2.02287 -0.293119 0
M  V30 12429 C 1225.47 1.57361 1.10006 0
M  V30 12430 O 1226.67 2.12663 1.64402 0
M  V30 12431 C 1224.94 3.55204 -0.395547 0
M  V30 12432 S 1226.5 4.3879 -0.0302798 0
M  V30 12433 H 1223.32 0.701702 -0.114609 0
M  V30 12434 H 1225.92 1.69959 -0.966138 0
M  V30 12435 H 1224.63 3.85392 -1.41072 0
M  V30 12436 H 1224.16 3.92291 0.295163 0
M  V30 12437 H 1226.17 4.81848 1.18478 0
M  V30 12438 N 1225.34 0.486708 1.49896 0
M  V30 12439 C 1226.59 -0.062852 2.02402 0
M  V30 12440 C 1226.92 -1.38306 1.36754 0
M  V30 12441 O 1226.17 -1.89531 0.487493 0
M  V30 12442 C 1226.47 -0.278643 3.56312 0
M  V30 12443 C 1226.14 0.961794 4.40523 0
M  V30 12444 C 1224.8 1.30185 4.63255 0
M  V30 12445 C 1227.15 1.78697 4.89609 0
M  V30 12446 C 1224.48 2.46686 5.32318 0
M  V30 12447 C 1226.83 2.9434 5.59953 0
M  V30 12448 C 1225.5 3.28742 5.80935 0
M  V30 12449 H 1224.77 -0.0229992 0.740643 0
M  V30 12450 H 1227.41 0.643963 1.80348 0
M  V30 12451 H 1225.72 -1.06785 3.76967 0
M  V30 12452 H 1227.42 -0.718078 3.94518 0
M  V30 12453 H 1224.01 0.686887 4.2306 0
M  V30 12454 H 1228.19 1.53742 4.71887 0
M  V30 12455 H 1223.45 2.73596 5.46768 0
M  V30 12456 H 1227.62 3.58616 5.96965 0
M  V30 12457 H 1225.25 4.19121 6.34225 0
M  V30 12458 N 1226.82 -1.56058 0.219941 0
M  V30 12459 C 1227.75 -2.2321 -0.685547 0
M  V30 12460 C 1228.73 -1.20328 -1.20229 0
M  V30 12461 O 1229.92 -1.48909 -1.24659 0
M  V30 12462 C 1227.05 -2.91076 -1.89452 0
M  V30 12463 C 1226 -4.00415 -1.51169 0
M  V30 12464 C 1225.33 -4.55569 -2.79931 0
M  V30 12465 C 1226.63 -5.17549 -0.702896 0
M  V30 12466 H 1228.32 -2.99136 -0.125671 0
M  V30 12467 H 1225.87 -1.43879 -0.0590043 0
M  V30 12468 H 1227.82 -3.36744 -2.53341 0
M  V30 12469 H 1226.55 -2.12594 -2.47934 0
M  V30 12470 H 1225.21 -3.55475 -0.896275 0
M  V30 12471 H 1224.85 -3.73819 -3.36553 0
M  V30 12472 H 1224.55 -5.29361 -2.55049 0
M  V30 12473 H 1226.08 -5.03955 -3.44764 0
M  V30 12474 H 1227.49 -5.59608 -1.24544 0
M  V30 12475 H 1225.89 -5.97563 -0.551234 0
M  V30 12476 H 1226.96 -4.84027 0.29083 0
M  V30 12477 N 1228.3 0.053464 -1.57509 0
M  V30 12478 C 1229.58 0.783141 -1.79238 0
M  V30 12479 C 1229.96 1.94855 -0.812069 0
M  V30 12480 O 1229.31 2.28 0.151006 0
M  V30 12481 C 1229.52 1.239 -3.26266 0
M  V30 12482 C 1230.86 1.66492 -3.90596 0
M  V30 12483 O 1231.89 1.33421 -3.30269 0
M  V30 12484 O 1230.75 2.27785 -4.96766 0
M  V30 12485 H 1227.84 0.376696 -0.736226 0
M  V30 12486 H 1230.39 0.0321229 -1.6967 0
M  V30 12487 H 1229.16 0.405948 -3.89189 0
M  V30 12488 H 1228.78 2.05078 -3.4063 0
M  V30 12489 N 1229.78 1.54207 0.325255 0
M  V30 12490 C 1231.01 1.76293 1.08298 0
M  V30 12491 C 1231.42 0.510722 1.81761 0
M  V30 12492 O 1230.78 -0.5185 1.7498 0
M  V30 12493 C 1230.83 2.95498 2.08238 0
M  V30 12494 O 1230.55 4.15877 1.37759 0
M  V30 12495 C 1232.05 3.29781 2.96242 0
M  V30 12496 H 1229.27 0.588576 0.322209 0
M  V30 12497 H 1231.82 2.0109 0.371896 0
M  V30 12498 H 1229.97 2.72979 2.74884 0
M  V30 12499 H 1230.39 4.82918 2.04672 0
M  V30 12500 H 1231.86 4.16495 3.62265 0
M  V30 12501 H 1232.34 2.46874 3.63249 0
M  V30 12502 H 1232.94 3.54372 2.3516 0
M  V30 12503 N 1231.26 -0.58723 1.46251 0
M  V30 12504 C 1232.53 -1.34727 1.41802 0
M  V30 12505 C 1232.91 -2.10867 0.0991354 0
M  V30 12506 O 1232.26 -2.09194 -0.919242 0
M  V30 12507 C 1232.47 -2.27706 2.64482 0
M  V30 12508 C 1233.82 -2.89678 3.10438 0
M  V30 12509 O 1234.84 -2.38021 2.64999 0
M  V30 12510 O 1233.7 -3.83493 3.89352 0
M  V30 12511 H 1230.8 -0.605119 0.563702 0
M  V30 12512 H 1233.34 -0.608623 1.5841 0
M  V30 12513 H 1232.12 -1.70842 3.52035 0
M  V30 12514 H 1231.74 -3.08918 2.50311 0
M  V30 12515 N 1232.74 -1.33881 -0.831482 0
M  V30 12516 C 1233.98 -1.25507 -1.58406 0
M  V30 12517 C 1234.3 0.177137 -1.94194 0
M  V30 12518 O 1233.57 1.10769 -1.61576 0
M  V30 12519 H 1232.15 -0.461551 -0.587349 0
M  V30 12520 H 1234.82 -1.6769 -0.99328 0
M  V30 12521 H 1233.91 -1.85391 -2.51071 0
M  V30 12522 N 1234.21 1.05064 -1.1747 0
M  V30 12523 C 1235.15 2.12842 -0.850344 0
M  V30 12524 C 1236.16 1.62128 0.147796 0
M  V30 12525 O 1237.35 1.78327 -0.0786774 0
M  V30 12526 C 1234.45 3.37995 -0.247486 0
M  V30 12527 C 1233.62 4.17981 -1.28881 0
M  V30 12528 C 1232.68 5.21476 -0.703476 0
M  V30 12529 O 1231.71 5.52327 -1.37561 0
M  V30 12530 N 1232.91 5.78309 0.50387 0
M  V30 12531 H 1235.67 2.41264 -1.77797 0
M  V30 12532 H 1233.23 1.21172 -1.07373 0
M  V30 12533 H 1235.23 4.04394 0.157424 0
M  V30 12534 H 1233.8 3.07097 0.583952 0
M  V30 12535 H 1233.02 3.47054 -1.86942 0
M  V30 12536 H 1234.3 4.6822 -1.99116 0
M  V30 12537 H 1233.7 5.5553 1.06787 0
M  V30 12538 H 1232.26 6.46223 0.850828 0
M  V30 12539 N 1235.69 0.975146 1.23809 0
M  V30 12540 C 1236.65 0.516157 2.23312 0
M  V30 12541 C 1237.65 -0.39136 1.55965 0
M  V30 12542 O 1238.84 -0.185783 1.73206 0
M  V30 12543 C 1235.98 -0.251534 3.39971 0
M  V30 12544 H 1237.17 1.3959 2.65433 0
M  V30 12545 H 1234.72 0.760493 1.36551 0
M  V30 12546 H 1235.46 -1.14805 3.03299 0
M  V30 12547 H 1235.24 0.399825 3.90056 0
M  V30 12548 H 1236.73 -0.561438 4.13809 0
M  V30 12549 N 1237.17 -1.38817 0.746158 0
M  V30 12550 C 1238.4 -2.0457 0.309605 0
M  V30 12551 C 1238.81 -1.5627 -1.05948 0
M  V30 12552 O 1238.17 -0.73248 -1.67156 0
M  V30 12553 C 1238.22 -3.60126 0.314843 0
M  V30 12554 O 1237.94 -4.06652 1.6299 0
M  V30 12555 C 1239.44 -4.4309 -0.136497 0
M  V30 12556 H 1236.66 -0.657597 0.133441 0
M  V30 12557 H 1239.21 -1.77651 1.01293 0
M  V30 12558 H 1237.36 -3.85908 -0.339685 0
M  V30 12559 H 1237.78 -5.01042 1.55103 0
M  V30 12560 H 1239.25 -5.5194 -0.0816714 0
M  V30 12561 H 1239.73 -4.22959 -1.18332 0
M  V30 12562 H 1240.33 -4.22481 0.488879 0
M  V30 12563 N 1238.65 -0.49465 -1.49636 0
M  V30 12564 C 1239.89 0.0505629 -2.04337 0
M  V30 12565 C 1240.25 1.34858 -1.36665 0
M  V30 12566 O 1241.45 1.97763 -1.82052 0
M  V30 12567 C 1239.72 0.206247 -3.56804 0
M  V30 12568 S 1241.28 0.706624 -4.33073 0
M  V30 12569 H 1238.1 0.00479193 -0.710984 0
M  V30 12570 H 1240.7 -0.667169 -1.83764 0
M  V30 12571 H 1239.41 -0.743862 -4.03602 0
M  V30 12572 H 1238.94 0.949406 -3.81772 0
M  V30 12573 H 1240.95 1.97672 -4.55127 0
M  V30 12574 N 1240.13 1.55939 -0.228214 0
M  V30 12575 C 1241.4 1.90329 0.451033 0
M  V30 12576 C 1241.78 1.14646 1.77255 0
M  V30 12577 O 1241.13 0.257912 2.2704 0
M  V30 12578 C 1241.34 3.43129 0.637456 0
M  V30 12579 C 1242.69 4.14022 0.94186 0
M  V30 12580 O 1243.71 3.48764 0.724002 0
M  V30 12581 O 1242.57 5.29418 1.35568 0
M  V30 12582 H 1239.67 0.791591 0.2394 0
M  V30 12583 H 1242.21 1.67524 -0.270893 0
M  V30 12584 H 1240.98 3.90191 -0.294435 0
M  V30 12585 H 1240.61 3.71735 1.41062 0
M  V30 12586 N 1241.6 -0.0451101 1.57535 0
M  V30 12587 C 1242.57 -1.03521 2.0449 0
M  V30 12588 C 1243.57 -1.30009 0.946265 0
M  V30 12589 O 1244.76 -1.25282 1.21038 0
M  V30 12590 C 1241.89 -2.37221 2.44824 0
M  V30 12591 H 1243.08 -0.629943 2.93209 0
M  V30 12592 H 1240.64 -0.291544 1.53557 0
M  V30 12593 H 1241.37 -2.82528 1.59212 0
M  V30 12594 H 1241.16 -2.19329 3.25018 0
M  V30 12595 H 1242.65 -3.08337 2.81635 0
M  V30 12596 N 1243.08 -1.54377 -0.317073 0
M  V30 12597 C 1244.32 -1.74621 -1.06239 0
M  V30 12598 C 1244.69 -0.512542 -1.85032 0
M  V30 12599 O 1245.89 -0.592438 -2.6219 0
M  V30 12600 C 1244.16 -2.99036 -1.95735 0
M  V30 12601 S 1245.72 -3.40212 -2.77131 0
M  V30 12602 H 1242.54 -0.613969 -0.358557 0
M  V30 12603 H 1245.14 -1.92562 -0.33763 0
M  V30 12604 H 1243.84 -3.86965 -1.36697 0
M  V30 12605 H 1243.37 -2.83636 -2.72606 0
M  V30 12606 H 1245.39 -2.9602 -3.98229 0
M  V30 12607 N 1244.56 0.579466 -1.4656 0
M  V30 12608 C 1245.52 1.67033 -1.56948 0
M  V30 12609 C 1246.52 1.54481 -0.446361 0
M  V30 12610 O 1247.71 1.5904 -0.710767 0
M  V30 12611 C 1244.85 3.06474 -1.49286 0
M  V30 12612 H 1246.04 1.59179 -2.54169 0
M  V30 12613 H 1243.59 0.797573 -1.34419 0
M  V30 12614 H 1244.33 3.1988 -0.533572 0
M  V30 12615 H 1244.11 3.16993 -2.30776 0
M  V30 12616 H 1245.6 3.85879 -1.59648 0
M  V30 12617 N 1246.04 1.3432 0.824371 0
M  V30 12618 C 1247.45 1.23855 1.39703 0
M  V30 12619 C 1247.8 -0.136566 1.95724 0
M  V30 12620 O 1246.93 -1.03683 1.89944 0
M  V30 12621 C 1247.52 2.24249 2.53965 0
M  V30 12622 C 1246.08 2.17578 3.07143 0
M  V30 12623 C 1245.23 2.10933 1.80008 0
M  V30 12624 H 1248.18 1.45707 0.628891 0
M  V30 12625 H 1248.2 1.85864 3.32016 0
M  V30 12626 H 1247.71 3.24321 2.13161 0
M  V30 12627 H 1245.81 1.20858 3.52455 0
M  V30 12628 H 1245.92 3.08769 3.66331 0
M  V30 12629 H 1244.29 1.56631 2.00845 0
M  V30 12630 H 1245.07 3.12836 1.4138 0
M  V30 12631 N 1247.52 -1.0444 1.18026 0
M  V30 12632 C 1248.76 -1.77224 0.971391 0
M  V30 12633 C 1249.09 -1.88466 -0.500564 0
M  V30 12634 O 1248.36 -1.40692 -1.36317 0
M  V30 12635 H 1246.94 -0.656485 0.356422 0
M  V30 12636 H 1249.6 -1.26064 1.4864 0
M  V30 12637 H 1248.69 -2.78626 1.4062 0
M  V30 12638 N 1248.99 -0.981699 -1.2329 0
M  V30 12639 C 1250.22 -0.668399 -1.95489 0
M  V30 12640 C 1250.63 0.768976 -1.72868 0
M  V30 12641 O 1249.98 1.52925 -1.01783 0
M  V30 12642 C 1250.04 -0.880535 -3.4855 0
M  V30 12643 C 1249.7 -2.30023 -3.9489 0
M  V30 12644 C 1250.7 -3.27899 -4.03458 0
M  V30 12645 C 1248.38 -2.63167 -4.27842 0
M  V30 12646 C 1250.38 -4.56999 -4.44332 0
M  V30 12647 C 1248.06 -3.92489 -4.68397 0
M  V30 12648 C 1249.06 -4.89216 -4.76609 0
M  V30 12649 O 1248.75 -6.16229 -5.16253 0
M  V30 12650 H 1248.48 -0.247255 -0.629159 0
M  V30 12651 H 1251.04 -1.31606 -1.57699 0
M  V30 12652 H 1249.27 -0.175698 -3.86301 0
M  V30 12653 H 1250.96 -0.564198 -4.0196 0
M  V30 12654 H 1251.72 -3.03624 -3.78203 0
M  V30 12655 H 1247.6 -1.88588 -4.20661 0
M  V30 12656 H 1251.14 -5.32498 -4.50656 0
M  V30 12657 H 1247.04 -4.16558 -4.93102 0
M  V30 12658 H 1247.81 -6.20001 -5.34361 0
M  V30 12659 N 1250.47 1.3842 -0.753509 0
M  V30 12660 C 1251.7 2.04403 -0.320449 0
M  V30 12661 C 1252.12 1.5683 1.05118 0
M  V30 12662 O 1251.47 0.741335 1.66765 0
M  V30 12663 C 1251.52 3.59954 -0.333937 0
M  V30 12664 O 1251.24 4.05782 -1.65144 0
M  V30 12665 C 1252.75 4.43156 0.112997 0
M  V30 12666 H 1249.97 0.656881 -0.136927 0
M  V30 12667 H 1252.51 1.77112 -1.02234 0
M  V30 12668 H 1250.66 3.86083 0.319215 0
M  V30 12669 H 1251.08 5.00213 -1.57757 0
M  V30 12670 H 1252.55 5.51975 0.0523995 0
M  V30 12671 H 1253.03 4.23581 1.16087 0
M  V30 12672 H 1253.64 4.22216 -0.511278 0
M  V30 12673 N 1251.95 0.502579 1.49372 0
M  V30 12674 C 1253.2 -0.0412993 2.02058 0
M  V30 12675 C 1253.52 -1.37338 1.38431 0
M  V30 12676 O 1252.79 -1.88305 0.540175 0
M  V30 12677 H 1251.37 -0.0182522 0.746777 0
M  V30 12678 H 1254.03 0.660179 1.83378 0
M  V30 12679 H 1253.13 -0.169812 3.11638 0
M  V30 12680 N 1253.43 -1.55816 0.23648 0
M  V30 12681 C 1254.84 -1.59159 -0.118601 0
M  V30 12682 C 1255.04 -1.25352 -1.57763 0
M  V30 12683 O 1254.1 -0.995863 -2.32032 0
M  V30 12684 C 1255.41 -2.99885 0.221175 0
M  V30 12685 C 1256.96 -3.12567 0.164624 0
M  V30 12686 C 1257.44 -4.55496 0.478285 0
M  V30 12687 N 1258.93 -4.61215 0.428402 0
M  V30 12688 C 1259.66 -5.69768 0.644398 0
M  V30 12689 N 1259.16 -6.86624 0.922966 0
M  V30 12690 N 1260.95 -5.59143 0.575814 0
M  V30 12691 H 1253.1 -1.76063 1.18809 0
M  V30 12692 H 1255.37 -0.819079 0.477297 0
M  V30 12693 H 1255.07 -3.29326 1.2344 0
M  V30 12694 H 1254.95 -3.74425 -0.456723 0
M  V30 12695 H 1257.33 -2.82914 -0.839263 0
M  V30 12696 H 1257.41 -2.40325 0.876219 0
M  V30 12697 H 1257.06 -4.85868 1.47968 0
M  V30 12698 H 1256.99 -5.25984 -0.254671 0
M  V30 12699 H 1259.48 -3.77251 0.221398 0
M  V30 12700 H 1259.79 -7.6528 1.07548 0
M  V30 12701 H 1258.14 -6.88333 0.960325 0
M  V30 12702 H 1261.33 -4.66727 0.358307 0
M  V30 12703 H 1261.5 -6.43674 0.747548 0
M  V30 12704 N 1254.91 0.036755 -1.57557 0
M  V30 12705 C 1256.32 0.392264 -1.54704 0
M  V30 12706 C 1256.52 1.77076 -0.96157 0
M  V30 12707 O 1255.58 2.45766 -0.579263 0
M  V30 12708 C 1256.89 0.301168 -2.99188 0
M  V30 12709 C 1258.44 0.378813 -3.10699 0
M  V30 12710 C 1258.91 0.317249 -4.569 0
M  V30 12711 N 1260.41 0.376277 -4.61669 0
M  V30 12712 C 1261.14 0.351411 -5.72322 0
M  V30 12713 N 1260.64 0.279288 -6.92237 0
M  V30 12714 N 1262.43 0.400571 -5.60671 0
M  V30 12715 H 1254.58 -0.865455 -1.93968 0
M  V30 12716 H 1256.84 -0.328339 -0.889324 0
M  V30 12717 H 1256.55 -0.64582 -3.4572 0
M  V30 12718 H 1256.42 1.09784 -3.6087 0
M  V30 12719 H 1258.81 1.31623 -2.6412 0
M  V30 12720 H 1258.89 -0.447072 -2.51863 0
M  V30 12721 H 1258.54 -0.616469 -5.04145 0
M  V30 12722 H 1258.47 1.16114 -5.13639 0
M  V30 12723 H 1260.96 0.434843 -3.7539 0
M  V30 12724 H 1261.27 0.265202 -7.72345 0
M  V30 12725 H 1259.61 0.24545 -6.94566 0
M  V30 12726 H 1262.81 0.454854 -4.65885 0
M  V30 12727 H 1262.98 0.377724 -6.46898 0
M  V30 12728 N 1256.39 1.54543 0.308881 0
M  V30 12729 C 1257.63 1.75182 1.05312 0
M  V30 12730 C 1257.99 0.522347 1.84758 0
M  V30 12731 O 1259.19 0.606334 2.61872 0
M  V30 12732 C 1257.46 3.0007 1.94147 0
M  V30 12733 S 1259.02 3.41676 2.75323 0
M  V30 12734 H 1255.84 0.615862 0.355296 0
M  V30 12735 H 1258.44 1.92739 0.327413 0
M  V30 12736 H 1257.14 3.87685 1.34643 0
M  V30 12737 H 1256.68 2.85078 2.71098 0
M  V30 12738 H 1258.69 2.98128 3.96654 0
M  V30 12739 N 1257.86 -0.571685 1.46866 0
M  V30 12740 C 1258.77 -1.70758 1.60869 0
M  V30 12741 C 1259.79 -1.66903 0.49186 0
M  V30 12742 O 1260.97 -1.86613 0.757468 0
M  V30 12743 C 1258.03 -3.07267 1.60586 0
M  V30 12744 C 1257.09 -3.22301 2.83585 0
M  V30 12745 C 1256.32 -4.52298 2.83306 0
M  V30 12746 O 1256.55 -5.36869 1.92685 0
M  V30 12747 O 1255.48 -4.70814 3.7499 0
M  V30 12748 H 1259.31 -1.6189 2.56954 0
M  V30 12749 H 1256.89 -0.740018 1.29785 0
M  V30 12750 H 1258.77 -3.8853 1.63163 0
M  V30 12751 H 1257.45 -3.16549 0.676637 0
M  V30 12752 H 1256.36 -2.4049 2.86558 0
M  V30 12753 H 1257.69 -3.17916 3.75753 0
M  V30 12754 N 1259.34 -1.34755 -0.817236 0
M  V30 12755 C 1260.57 -1.30676 -1.61054 0
M  V30 12756 C 1260.99 0.115343 -1.87746 0
M  V30 12757 O 1260.35 1.07887 -1.45705 0
M  V30 12758 C 1260.4 -2.10881 -2.92509 0
M  V30 12759 O 1259.5 -1.48223 -3.84842 0
M  V30 12760 H 1258.84 -0.448531 -0.489608 0
M  V30 12761 H 1261.37 -1.77642 -1.01512 0
M  V30 12762 H 1261.38 -2.22446 -3.42026 0
M  V30 12763 H 1260.06 -3.14274 -2.72406 0
M  V30 12764 H 1258.63 -1.45434 -3.4337 0
M  V30 12765 N 1260.82 1.03812 -1.18578 0
M  V30 12766 C 1262.06 1.78618 -0.993725 0
M  V30 12767 C 1262.42 1.86206 0.468133 0
M  V30 12768 O 1263.62 2.57243 0.779714 0
M  V30 12769 C 1261.9 3.17883 -1.63357 0
M  V30 12770 S 1263.45 4.08994 -1.58962 0
M  V30 12771 H 1260.27 0.614997 -0.356792 0
M  V30 12772 H 1262.87 1.24458 -1.50766 0
M  V30 12773 H 1261.58 3.09972 -2.68972 0
M  V30 12774 H 1261.11 3.77119 -1.12003 0
M  V30 12775 H 1263.12 4.9247 -0.6073 0
M  V30 12776 N 1262.3 0.988223 1.22768 0
M  V30 12777 C 1263.26 0.539813 2.22752 0
M  V30 12778 C 1264.26 -0.374796 1.56371 0
M  V30 12779 O 1265.45 -0.167402 1.73394 0
M  V30 12780 C 1262.58 -0.215461 3.40218 0
M  V30 12781 H 1263.78 1.42397 2.63938 0
M  V30 12782 H 1261.33 0.774933 1.35737 0
M  V30 12783 H 1262.06 -1.11581 3.045 0
M  V30 12784 H 1261.85 0.441173 3.8961 0
M  V30 12785 H 1263.34 -0.517517 4.14381 0
M  V30 12786 N 1263.78 -1.38018 0.760839 0
M  V30 12787 C 1265.19 -1.82645 0.387022 0
M  V30 12788 C 1265.54 -1.63445 -1.08536 0
M  V30 12789 O 1264.66 -1.13958 -1.83963 0
M  V30 12790 C 1265.26 -3.3158 0.69569 0
M  V30 12791 C 1263.82 -3.74527 0.375063 0
M  V30 12792 C 1262.96 -2.60696 0.94515 0
M  V30 12793 H 1265.91 -1.26644 0.956396 0
M  V30 12794 H 1265.94 -3.80493 -0.0235511 0
M  V30 12795 H 1265.45 -3.45522 1.76737 0
M  V30 12796 H 1263.55 -3.6616 -0.689741 0
M  V30 12797 H 1263.66 -4.71029 0.875685 0
M  V30 12798 H 1262.03 -2.51997 0.370065 0
M  V30 12799 H 1262.81 -2.77434 2.02201 0
M  V30 12800 N 1265.25 -0.510493 -1.49103 0
M  V30 12801 C 1266.5 0.0305831 -2.02077 0
M  V30 12802 C 1266.82 1.36602 -1.39157 0
M  V30 12803 O 1266.09 1.88016 -0.550154 0
M  V30 12804 H 1264.67 0.0142916 -0.746863 0
M  V30 12805 H 1267.33 -0.669895 -1.83026 0
M  V30 12806 H 1266.43 0.153283 -3.11723 0
M  V30 12807 N 1266.73 1.55688 -0.24474 0
M  V30 12808 C 1267.96 2.02995 0.38425 0
M  V30 12809 C 1268.37 1.12339 1.52239 0
M  V30 12810 O 1267.71 0.129803 1.83241 0
M  V30 12811 C 1267.77 3.46564 0.955701 0
M  V30 12812 C 1267.44 4.56973 -0.0499176 0
M  V30 12813 C 1268.44 5.1276 -0.858682 0
M  V30 12814 C 1266.12 5.01994 -0.175383 0
M  V30 12815 C 1268.11 6.12059 -1.77939 0
M  V30 12816 C 1265.8 6.01126 -1.0996 0
M  V30 12817 C 1266.8 6.56037 -1.90013 0
M  V30 12818 O 1266.49 7.53235 -2.80877 0
M  V30 12819 H 1266.22 0.669189 0.0957212 0
M  V30 12820 H 1268.77 2.02121 -0.36555 0
M  V30 12821 H 1267 3.44581 1.75502 0
M  V30 12822 H 1268.69 3.77383 1.49454 0
M  V30 12823 H 1269.46 4.78811 -0.772325 0
M  V30 12824 H 1265.34 4.58918 0.437644 0
M  V30 12825 H 1268.88 6.54845 -2.40465 0
M  V30 12826 H 1264.78 6.34494 -1.18689 0
M  V30 12827 H 1265.55 7.70844 -2.75214 0
M  V30 12828 N 1268.21 -0.0283989 1.57574 0
M  V30 12829 C 1269.12 -1.04575 2.10003 0
M  V30 12830 C 1270.14 -1.39588 1.03881 0
M  V30 12831 O 1271.31 -1.48894 1.35619 0
M  V30 12832 C 1268.38 -2.32755 2.56955 0
M  V30 12833 C 1267.44 -2.04317 3.77562 0
M  V30 12834 C 1266.67 -3.26385 4.22266 0
M  V30 12835 O 1266.89 -4.37082 3.66491 0
M  V30 12836 O 1265.83 -3.12046 5.14695 0
M  V30 12837 H 1269.65 -0.630183 2.9709 0
M  V30 12838 H 1267.24 -0.245423 1.4737 0
M  V30 12839 H 1269.12 -3.08111 2.87482 0
M  V30 12840 H 1267.8 -2.73605 1.72979 0
M  V30 12841 H 1266.7 -1.26527 3.52054 0
M  V30 12842 H 1268.04 -1.68321 4.62524 0
M  V30 12843 N 1269.69 -1.54705 -0.300681 0
M  V30 12844 C 1270.94 -1.73658 -1.0338 0
M  V30 12845 C 1271.26 -0.525447 -1.87787 0
M  V30 12846 O 1270.53 0.460269 -1.90416 0
M  V30 12847 H 1269.11 -0.640338 -0.384677 0
M  V30 12848 H 1271.77 -1.92059 -0.331588 0
M  V30 12849 H 1270.86 -2.62595 -1.68672 0
M  V30 12850 N 1271.17 0.563888 -1.47167 0
M  V30 12851 C 1272.11 1.69254 -1.59549 0
M  V30 12852 C 1273.11 1.62948 -0.463078 0
M  V30 12853 O 1274.31 1.68214 -0.640639 0
M  V30 12854 H 1270.69 0.559925 -0.501984 0
M  V30 12855 H 1272.66 1.55946 -2.54408 0
M  V30 12856 C 1271.41 3.0762 -1.62066 0
M  V30 12857 H 1270.73 3.13151 -2.48549 0
M  V30 12858 H 1272.17 3.863 -1.74781 0
M  V30 12859 C 1270.63 3.35048 -0.352721 0
M  V30 12860 O 1271.16 3.9793 0.549053 0
M  V30 12861 N 1269.37 2.8965 -0.234805 0
M  V30 12862 H 1268.91 2.38657 -0.969561 0
M  V30 12863 H 1268.87 3.08373 0.61263 0
M  V30 12864 N 1272.64 1.35187 0.810078 0
M  V30 12865 C 1274.06 1.25329 1.38381 0
M  V30 12866 C 1274.41 -0.115799 1.95858 0
M  V30 12867 O 1273.53 -1.01663 1.91033 0
M  V30 12868 C 1274.13 2.2693 2.51572 0
M  V30 12869 C 1272.69 2.20824 3.04818 0
M  V30 12870 C 1271.83 2.1283 1.7776 0
M  V30 12871 H 1274.78 1.46366 0.613402 0
M  V30 12872 H 1274.8 1.89375 3.30026 0
M  V30 12873 H 1274.32 3.26563 2.09709 0
M  V30 12874 H 1272.42 1.24589 3.51153 0
M  V30 12875 H 1272.53 3.12637 3.63036 0
M  V30 12876 H 1270.89 1.58752 1.99173 0
M  V30 12877 H 1271.68 3.14318 1.38054 0
M  V30 12878 N 1274.12 -1.03182 1.19127 0
M  V30 12879 C 1275.37 -1.75934 0.986415 0
M  V30 12880 C 1275.68 -1.89519 -0.48392 0
M  V30 12881 O 1276.89 -2.59213 -0.80752 0
M  V30 12882 C 1275.35 -3.16358 1.71597 0
M  V30 12883 C 1274.95 -3.10836 3.22622 0
M  V30 12884 C 1276.7 -3.93426 1.59425 0
M  V30 12885 C 1274.61 -4.46174 3.88179 0
M  V30 12886 H 1273.54 -0.659516 0.365451 0
M  V30 12887 H 1276.19 -1.15497 1.42593 0
M  V30 12888 H 1274.57 -3.77245 1.20426 0
M  V30 12889 H 1275.74 -2.59348 3.80887 0
M  V30 12890 H 1274.06 -2.47266 3.35035 0
M  V30 12891 H 1276.65 -4.93526 2.05757 0
M  V30 12892 H 1277 -4.12678 0.547926 0
M  V30 12893 H 1277.53 -3.39134 2.07925 0
M  V30 12894 H 1274.27 -4.32126 4.92897 0
M  V30 12895 H 1273.79 -4.97729 3.34702 0
M  V30 12896 H 1275.47 -5.15066 3.91556 0
M  V30 12897 N 1275.6 -0.99472 -1.22242 0
M  V30 12898 C 1276.53 -0.504783 -2.23572 0
M  V30 12899 C 1277.55 0.401105 -1.57781 0
M  V30 12900 O 1278.73 0.202948 -1.77343 0
M  V30 12901 C 1275.83 0.287524 -3.37678 0
M  V30 12902 C 1275.01 -0.614941 -4.33056 0
M  V30 12903 C 1274.07 0.125974 -5.26049 0
M  V30 12904 O 1273.09 -0.489234 -5.67094 0
M  V30 12905 N 1274.29 1.40772 -5.63173 0
M  V30 12906 H 1277.06 -1.37612 -2.66238 0
M  V30 12907 H 1274.62 -0.86965 -1.3656 0
M  V30 12908 H 1276.61 0.791884 -3.96877 0
M  V30 12909 H 1275.18 1.05998 -2.9408 0
M  V30 12910 H 1274.4 -1.29994 -3.72149 0
M  V30 12911 H 1275.69 -1.22947 -4.93722 0
M  V30 12912 H 1275.09 1.92884 -5.31801 0
M  V30 12913 H 1273.65 1.85723 -6.2478 0
M  V30 12914 N 1277.08 1.37613 -0.768148 0
M  V30 12915 C 1278.49 1.82437 -0.396703 0
M  V30 12916 C 1278.84 1.64019 1.07668 0
M  V30 12917 O 1277.97 1.14932 1.83356 0
M  V30 12918 C 1278.56 3.31207 -0.713265 0
M  V30 12919 C 1277.12 3.74323 -0.39492 0
M  V30 12920 C 1276.27 2.60191 -0.958962 0
M  V30 12921 H 1279.22 1.26135 -0.963099 0
M  V30 12922 H 1279.24 3.805 0.00337228 0
M  V30 12923 H 1278.75 3.4458 -1.78567 0
M  V30 12924 H 1276.85 3.66521 0.670313 0
M  V30 12925 H 1276.96 4.70558 -0.900653 0
M  V30 12926 H 1275.33 2.51797 -0.383423 0
M  V30 12927 H 1276.11 2.76358 -2.03669 0
M  V30 12928 N 1278.56 0.518393 1.4883 0
M  V30 12929 C 1279.8 -0.019866 2.0209 0
M  V30 12930 C 1280.13 -1.35863 1.3988 0
M  V30 12931 O 1279.4 -1.87722 0.560117 0
M  V30 12932 H 1277.98 -0.0103306 0.746929 0
M  V30 12933 H 1280.64 0.679591 1.82668 0
M  V30 12934 H 1279.73 -0.136749 3.118 0
M  V30 12935 N 1280.03 -1.55556 0.252993 0
M  V30 12936 C 1281.28 -1.98697 -0.369319 0
M  V30 12937 C 1281.6 -1.14256 -1.58021 0
M  V30 12938 O 1280.87 -0.226779 -1.94583 0
M  V30 12939 H 1279.45 -0.733869 -0.139444 0
M  V30 12940 H 1282.12 -1.91673 0.353197 0
M  V30 12941 H 1281.21 -3.04728 -0.674312 0
M  V30 12942 N 1281.51 0.0200419 -1.57587 0
M  V30 12943 C 1282.46 1.01784 -2.07144 0
M  V30 12944 C 1283.43 1.3537 -0.962501 0
M  V30 12945 O 1284.61 1.45553 -1.23365 0
M  V30 12946 C 1281.75 2.31091 -2.56302 0
M  V30 12947 C 1280.87 2.03584 -3.81022 0
M  V30 12948 C 1280 3.26827 -4.18757 0
M  V30 12949 C 1279.04 2.94915 -5.36369 0
M  V30 12950 N 1278.18 4.10636 -5.69493 0
M  V30 12951 H 1283.02 0.588288 -2.92136 0
M  V30 12952 H 1280.56 0.278848 -1.44433 0
M  V30 12953 H 1282.51 3.06656 -2.82874 0
M  V30 12954 H 1281.14 2.71752 -1.74215 0
M  V30 12955 H 1280.2 1.18475 -3.6148 0
M  V30 12956 H 1281.51 1.76049 -4.66699 0
M  V30 12957 H 1280.66 4.10753 -4.46505 0
M  V30 12958 H 1279.4 3.57483 -3.31749 0
M  V30 12959 H 1278.41 2.09392 -5.08365 0
M  V30 12960 H 1279.63 2.65528 -6.25037 0
M  V30 12961 H 1277.58 4.41226 -4.85444 0
M  V30 12962 H 1277.49 3.86556 -6.497 0
M  V30 12963 H 1278.76 4.95409 -6.01822 0
M  V30 12964 N 1282.99 1.54862 0.292472 0
M  V30 12965 C 1284.23 1.76289 1.03448 0
M  V30 12966 C 1284.59 0.541914 1.84194 0
M  V30 12967 O 1285.8 0.634075 2.61214 0
M  V30 12968 C 1284.07 3.02112 1.90953 0
M  V30 12969 S 1285.63 3.44577 2.71683 0
M  V30 12970 H 1282.44 0.619596 0.348744 0
M  V30 12971 H 1285.05 1.93075 0.306952 0
M  V30 12972 H 1283.75 3.89091 1.30523 0
M  V30 12973 H 1283.28 2.87937 2.68059 0
M  V30 12974 H 1285.3 3.02318 3.93469 0
M  V30 12975 N 1284.47 -0.556076 1.47464 0
M  V30 12976 C 1285.88 -0.882115 1.33007 0
M  V30 12977 C 1286.08 -1.9892 0.321407 0
M  V30 12978 O 1285.14 -2.51088 -0.266668 0
M  V30 12979 C 1286.45 -1.27428 2.72365 0
M  V30 12980 C 1288 -1.38564 2.80658 0
M  V30 12981 C 1288.48 -1.81136 4.20659 0
M  V30 12982 N 1289.97 -1.88284 4.23206 0
M  V30 12983 C 1290.7 -2.22555 5.28447 0
M  V30 12984 N 1290.2 -2.55432 6.43993 0
M  V30 12985 N 1291.99 -2.23339 5.15826 0
M  V30 12986 H 1284.14 0.17481 2.11679 0
M  V30 12987 H 1286.41 0.0155421 0.947873 0
M  V30 12988 H 1286.11 -0.53463 3.47613 0
M  V30 12989 H 1285.99 -2.23019 3.04208 0
M  V30 12990 H 1288.37 -2.1161 2.05682 0
M  V30 12991 H 1288.45 -0.411588 2.52467 0
M  V30 12992 H 1288.1 -1.08659 4.96141 0
M  V30 12993 H 1288.03 -2.79546 4.46275 0
M  V30 12994 H 1290.52 -1.65259 3.3985 0
M  V30 12995 H 1290.83 -2.80612 7.20053 0
M  V30 12996 H 1289.18 -2.5301 6.47311 0
M  V30 12997 H 1292.37 -1.97094 4.24584 0
M  V30 12998 H 1292.54 -2.49717 5.97951 0
M  V30 12999 N 1285.95 -1.35615 -0.802897 0
M  V30 13000 C 1287.36 -1.26062 -1.37715 0
M  V30 13001 C 1287.71 0.105411 -1.95917 0
M  V30 13002 O 1286.83 1.00648 -1.91569 0
M  V30 13003 C 1287.43 -2.28261 -2.50365 0
M  V30 13004 C 1285.99 -2.22437 -3.03642 0
M  V30 13005 C 1285.14 -2.1377 -1.76629 0
M  V30 13006 H 1288.09 -1.46689 -0.605631 0
M  V30 13007 H 1288.11 -1.91122 -3.29017 0
M  V30 13008 H 1287.62 -3.27671 -2.07975 0
M  V30 13009 H 1285.72 -1.2645 -3.50487 0
M  V30 13010 H 1285.83 -3.14558 -3.61373 0
M  V30 13011 H 1284.2 -1.59806 -1.98328 0
M  V30 13012 H 1284.98 -3.15046 -1.36385 0
M  V30 13013 N 1287.43 1.02549 -1.19673 0
M  V30 13014 C 1288.67 1.76265 -1.00293 0
M  V30 13015 C 1289 1.88555 0.464816 0
M  V30 13016 O 1288.28 1.40484 1.34515 0
M  V30 13017 C 1288.56 3.18688 -1.6766 0
M  V30 13018 C 1288.42 3.14247 -3.21821 0
M  V30 13019 C 1289.73 4.17159 -1.40238 0
M  V30 13020 H 1286.85 0.639837 -0.365756 0
M  V30 13021 H 1289.5 1.19691 -1.4756 0
M  V30 13022 H 1287.65 3.66992 -1.27472 0
M  V30 13023 H 1289.32 2.73815 -3.71245 0
M  V30 13024 H 1287.56 2.51874 -3.53188 0
M  V30 13025 H 1288.23 4.14886 -3.64107 0
M  V30 13026 H 1290.71 3.77471 -1.75086 0
M  V30 13027 H 1289.58 5.14997 -1.89919 0
M  V30 13028 H 1289.84 4.4088 -0.328197 0
M  V30 13029 N 1288.9 1.00119 1.21713 0
M  V30 13030 C 1289.85 0.551452 2.25969 0
M  V30 13031 C 1290.85 -0.402075 1.64559 0
M  V30 13032 O 1292.05 -0.273685 1.77907 0
M  V30 13033 H 1288.43 0.159968 0.734789 0
M  V30 13034 H 1290.4 1.44201 2.61244 0
M  V30 13035 C 1289.15 -0.109992 3.47526 0
M  V30 13036 H 1288.47 0.614686 3.95046 0
M  V30 13037 H 1289.91 -0.388007 4.22221 0
M  V30 13038 C 1288.37 -1.34798 3.08757 0
M  V30 13039 O 1288.9 -2.44266 3.189 0
M  V30 13040 N 1287.1 -1.2263 2.63458 0
M  V30 13041 H 1286.65 -0.335571 2.55405 0
M  V30 13042 H 1286.61 -2.05565 2.37887 0
M  V30 13043 N 1290.38 -1.37203 0.775435 0
M  V30 13044 C 1291.31 -2.28873 0.122374 0
M  V30 13045 C 1292.33 -1.48811 -0.660239 0
M  V30 13046 O 1293.52 -1.7142 -0.497724 0
M  V30 13047 C 1290.62 -3.28062 -0.850212 0
M  V30 13048 C 1289.79 -4.37234 -0.120633 0
M  V30 13049 C 1288.85 -5.16472 -1.00712 0
M  V30 13050 O 1287.87 -5.6726 -0.469528 0
M  V30 13051 N 1289.08 -5.31556 -2.33299 0
M  V30 13052 H 1291.84 -2.85559 0.909741 0
M  V30 13053 H 1289.4 -1.49219 0.628107 0
M  V30 13054 H 1291.39 -3.77956 -1.44678 0
M  V30 13055 H 1289.96 -2.72118 -1.53853 0
M  V30 13056 H 1289.18 -3.88688 0.656879 0
M  V30 13057 H 1290.47 -5.07354 0.383358 0
M  V30 13058 H 1289.87 -4.91883 -2.79406 0
M  V30 13059 H 1288.43 -5.84745 -2.87953 0
M  V30 13060 N 1291.86 -0.526279 -1.48553 0
M  V30 13061 C 1292.77 0.24244 -2.33344 0
M  V30 13062 C 1293.79 0.942658 -1.46253 0
M  V30 13063 O 1294.96 0.91844 -1.79239 0
M  V30 13064 C 1292.03 1.27801 -3.22285 0
M  V30 13065 C 1291.09 0.588543 -4.25247 0
M  V30 13066 C 1290.32 1.57478 -5.09938 0
M  V30 13067 O 1290.54 2.80707 -4.96548 0
M  V30 13068 O 1289.48 1.11621 -5.9146 0
M  V30 13069 H 1293.3 -0.452262 -3.00314 0
M  V30 13070 H 1290.89 -0.287249 -1.46613 0
M  V30 13071 H 1292.77 1.87656 -3.7731 0
M  V30 13072 H 1291.45 1.95519 -2.57981 0
M  V30 13073 H 1290.35 -0.0504022 -3.74066 0
M  V30 13074 H 1291.69 -0.046627 -4.92178 0
M  V30 13075 N 1293.34 1.5542 -0.261239 0
M  V30 13076 C 1294.59 1.9846 0.360052 0
M  V30 13077 C 1294.9 1.15288 1.58013 0
M  V30 13078 O 1296.11 1.48408 2.27348 0
M  V30 13079 C 1294.56 3.53185 0.691964 0
M  V30 13080 C 1294.17 4.45116 -0.507521 0
M  V30 13081 C 1295.91 4.04848 1.27665 0
M  V30 13082 C 1293.82 5.91207 -0.150966 0
M  V30 13083 H 1292.75 0.741207 0.138303 0
M  V30 13084 H 1295.4 1.79859 -0.363712 0
M  V30 13085 H 1293.78 3.67535 1.47425 0
M  V30 13086 H 1294.96 4.42531 -1.28465 0
M  V30 13087 H 1293.27 4.04013 -1.0081 0
M  V30 13088 H 1295.87 5.11529 1.55699 0
M  V30 13089 H 1296.21 3.5305 2.20593 0
M  V30 13090 H 1296.75 3.93882 0.556955 0
M  V30 13091 H 1293.48 6.47072 -1.04776 0
M  V30 13092 H 1293 5.96894 0.589671 0
M  V30 13093 H 1294.68 6.4647 0.261772 0
M  V30 13094 N 1294.82 -0.0116844 1.57596 0
M  V30 13095 C 1296.06 -0.699994 1.90336 0
M  V30 13096 C 1296.39 -1.74067 0.861072 0
M  V30 13097 O 1295.67 -1.94119 -0.121712 0
M  V30 13098 C 1295.95 -1.35377 3.33684 0
M  V30 13099 C 1295.81 -0.325434 4.48621 0
M  V30 13100 C 1297.12 -2.28312 3.76247 0
M  V30 13101 H 1294.24 -0.253002 0.692213 0
M  V30 13102 H 1296.89 0.037211 1.89964 0
M  V30 13103 H 1295.04 -1.98212 3.34132 0
M  V30 13104 H 1296.71 0.302331 4.60308 0
M  V30 13105 H 1294.95 0.353527 4.32357 0
M  V30 13106 H 1295.62 -0.8217 5.4585 0
M  V30 13107 H 1298.1 -1.75505 3.77276 0
M  V30 13108 H 1296.97 -2.71028 4.77321 0
M  V30 13109 H 1297.23 -3.15727 3.09465 0
M  V30 13110 N 1296.29 -1.55015 -0.284256 0
M  V30 13111 C 1297.71 -1.46603 -0.630845 0
M  V30 13112 C 1297.91 -0.67091 -1.90003 0
M  V30 13113 O 1296.97 -0.185266 -2.51819 0
M  V30 13114 C 1298.28 -2.9072 -0.768268 0
M  V30 13115 C 1299.83 -3.00866 -0.863061 0
M  V30 13116 C 1300.3 -4.46214 -1.03235 0
M  V30 13117 N 1301.79 -4.49994 -1.09815 0
M  V30 13118 C 1302.53 -5.5966 -1.24773 0
M  V30 13119 N 1302.02 -6.79215 -1.36523 0
M  V30 13120 N 1303.82 -5.4738 -1.27795 0
M  V30 13121 H 1295.97 -2.05171 0.549409 0
M  V30 13122 H 1298.23 -0.929915 0.184288 0
M  V30 13123 H 1297.94 -3.51575 0.0936899 0
M  V30 13124 H 1297.81 -3.39096 -1.65209 0
M  V30 13125 H 1300.2 -2.40114 -1.71549 0
M  V30 13126 H 1300.28 -2.5576 0.0451267 0
M  V30 13127 H 1299.92 -5.07564 -0.18462 0
M  V30 13128 H 1299.85 -4.88965 -1.95502 0
M  V30 13129 H 1302.34 -3.63869 -1.0202 0
M  V30 13130 H 1302.66 -7.58547 -1.47739 0
M  V30 13131 H 1301 -6.82048 -1.33548 0
M  V30 13132 H 1304.19 -4.52921 -1.18238 0
M  V30 13133 H 1304.37 -6.32892 -1.39109 0
M  V30 13134 N 1297.77 0.548248 -1.47757 0
M  V30 13135 C 1299.01 1.31569 -1.56426 0
M  V30 13136 C 1299.38 1.90676 -0.225072 0
M  V30 13137 O 1300.58 2.68151 -0.186652 0
M  V30 13138 C 1298.85 2.38951 -2.65776 0
M  V30 13139 S 1300.41 3.25664 -2.94089 0
M  V30 13140 H 1297.22 0.447791 -0.552272 0
M  V30 13141 H 1299.83 0.626659 -1.85184 0
M  V30 13142 H 1298.53 1.93978 -3.61664 0
M  V30 13143 H 1298.06 3.12584 -2.38861 0
M  V30 13144 H 1300.08 4.38629 -2.31989 0
M  V30 13145 N 1299.25 1.36039 0.795694 0
M  V30 13146 C 1300.53 1.20474 1.54096 0
M  V30 13147 C 1300.91 -0.211691 2.10036 0
M  V30 13148 O 1300.25 -1.21656 1.93422 0
M  V30 13149 C 1300.46 2.28164 2.64087 0
M  V30 13150 C 1301.81 2.64519 3.32137 0
M  V30 13151 O 1302.84 2.2716 2.74366 0
M  V30 13152 O 1301.7 3.28796 4.36527 0
M  V30 13153 H 1298.79 0.468699 0.681359 0
M  V30 13154 H 1301.34 1.47752 0.834716 0
M  V30 13155 H 1300.11 3.23121 2.20701 0
M  V30 13156 H 1299.73 2.02217 3.42336 0
M  V30 13157 N 1300.73 -1.01913 1.20215 0
M  V30 13158 C 1301.64 -2.13864 0.964328 0
M  V30 13159 C 1302.65 -1.73821 -0.0789556 0
M  V30 13160 O 1303.83 -2.01111 0.107914 0
M  V30 13161 C 1300.9 -3.42827 0.516757 0
M  V30 13162 C 1299.96 -3.97127 1.63059 0
M  V30 13163 C 1299.19 -5.19935 1.20428 0
M  V30 13164 O 1299.41 -5.70355 0.0719119 0
M  V30 13165 O 1298.35 -5.67322 2.01071 0
M  V30 13166 H 1302.17 -2.36795 1.90162 0
M  V30 13167 H 1299.76 -1.1226 0.985803 0
M  V30 13168 H 1301.64 -4.20493 0.276272 0
M  V30 13169 H 1300.31 -3.21318 -0.391983 0
M  V30 13170 H 1299.22 -3.20752 1.92533 0
M  V30 13171 H 1300.55 -4.2302 2.51624 0
M  V30 13172 N 1302.21 -1.00763 -1.2118 0
M  V30 13173 C 1303.62 -0.720905 -1.42391 0
M  V30 13174 C 1303.82 0.702918 -1.88842 0
M  V30 13175 O 1302.88 1.47191 -2.05161 0
M  V30 13176 C 1304.19 -1.739 -2.45315 0
M  V30 13177 C 1305.74 -1.75611 -2.59094 0
M  V30 13178 C 1306.21 -2.76323 -3.65253 0
M  V30 13179 N 1307.71 -2.75007 -3.72727 0
M  V30 13180 C 1308.44 -3.49594 -4.54502 0
M  V30 13181 N 1307.94 -4.33828 -5.40153 0
M  V30 13182 N 1309.73 -3.38232 -4.4895 0
M  V30 13183 H 1301.88 -1.92697 -0.893404 0
M  V30 13184 H 1304.14 -0.831888 -0.454606 0
M  V30 13185 H 1303.85 -2.75859 -2.18162 0
M  V30 13186 H 1303.72 -1.5438 -3.44161 0
M  V30 13187 H 1306.11 -0.743416 -2.85582 0
M  V30 13188 H 1306.19 -1.99203 -1.60474 0
M  V30 13189 H 1305.84 -3.77751 -3.39509 0
M  V30 13190 H 1305.77 -2.49996 -4.63476 0
M  V30 13191 H 1308.26 -2.13897 -3.11539 0
M  V30 13192 H 1308.57 -4.8753 -5.99612 0
M  V30 13193 H 1306.91 -4.3791 -5.39685 0
M  V30 13194 H 1310.11 -2.71855 -3.81068 0
M  V30 13195 H 1310.28 -3.96615 -5.12445 0
M  V30 13196 N 1303.68 1.3679 -0.7827 0
M  V30 13197 C 1304.93 1.99023 -0.351316 0
M  V30 13198 C 1305.25 1.62436 1.07887 0
M  V30 13199 O 1304.52 0.895084 1.74256 0
M  V30 13200 H 1303.1 0.736141 -0.126909 0
M  V30 13201 H 1305.77 1.67095 -1.00325 0
M  V30 13202 H 1304.86 3.09015 -0.43774 0
M  V30 13203 N 1305.16 0.53415 1.48272 0
M  V30 13204 C 1306.39 0.00368464 2.074 0
M  V30 13205 C 1306.81 -1.27003 1.38751 0
M  V30 13206 O 1306.17 -1.75502 0.454817 0
M  V30 13207 C 1306.22 -0.199034 3.6005 0
M  V30 13208 O 1305.32 -1.26679 3.92462 0
M  V30 13209 H 1304.66 0.0409936 0.662733 0
M  V30 13210 H 1307.19 0.743253 1.90622 0
M  V30 13211 H 1307.2 -0.420404 4.05828 0
M  V30 13212 H 1305.88 0.731391 4.09418 0
M  V30 13213 H 1304.46 -1.02775 3.58457 0
M  V30 13214 N 1306.64 -1.55279 0.269478 0
M  V30 13215 C 1307.57 -2.18397 -0.66165 0
M  V30 13216 C 1308.55 -1.1431 -1.15637 0
M  V30 13217 O 1309.74 -1.42808 -1.23037 0
M  V30 13218 C 1306.86 -2.80272 -1.90172 0
M  V30 13219 C 1305.91 -3.97612 -1.54295 0
M  V30 13220 S 1306.74 -5.31828 -0.625995 0
M  V30 13221 C 1307.9 -5.97169 -1.87456 0
M  V30 13222 H 1308.13 -2.97036 -0.125326 0
M  V30 13223 H 1305.66 -1.54306 0.0537711 0
M  V30 13224 H 1307.62 -3.16553 -2.61351 0
M  V30 13225 H 1306.28 -2.01538 -2.40918 0
M  V30 13226 H 1305.48 -4.39576 -2.46555 0
M  V30 13227 H 1305.08 -3.62725 -0.911395 0
M  V30 13228 H 1307.37 -6.16059 -2.81917 0
M  V30 13229 H 1308.31 -6.92073 -1.49803 0
M  V30 13230 H 1308.72 -5.26469 -2.03693 0
M  V30 13231 N 1308.12 0.00332656 -1.576 0
M  V30 13232 C 1309.37 0.687508 -1.90047 0
M  V30 13233 C 1309.69 1.74497 -0.870388 0
M  V30 13234 O 1308.96 1.95681 0.0926544 0
M  V30 13235 H 1307.54 0.256924 -0.701426 0
M  V30 13236 H 1310.2 -0.0368129 -1.94865 0
M  V30 13237 H 1309.3 1.16086 -2.89707 0
M  V30 13238 N 1309.6 1.55164 0.276031 0
M  V30 13239 C 1310.82 1.79649 1.02635 0
M  V30 13240 C 1311.24 0.568289 1.80044 0
M  V30 13241 O 1310.6 -0.462569 1.7654 0
M  V30 13242 C 1310.65 3.01974 1.98731 0
M  V30 13243 O 1310.37 4.2005 1.24459 0
M  V30 13244 C 1311.87 3.39039 2.856 0
M  V30 13245 H 1309.09 0.598529 0.303321 0
M  V30 13246 H 1311.63 2.02171 0.307733 0
M  V30 13247 H 1309.79 2.81586 2.6606 0
M  V30 13248 H 1310.2 4.89185 1.89205 0
M  V30 13249 H 1311.68 4.27809 3.48831 0
M  V30 13250 H 1312.15 2.58306 3.55211 0
M  V30 13251 H 1312.76 3.61674 2.23767 0
M  V30 13252 N 1311.07 -0.540404 1.48045 0
M  V30 13253 C 1312.3 -1.32656 1.59427 0
M  V30 13254 C 1312.72 -1.86419 0.250924 0
M  V30 13255 O 1312.08 -1.63861 -0.775838 0
M  V30 13256 C 1312.13 -2.46062 2.63602 0
M  V30 13257 O 1311.23 -3.48794 2.20038 0
M  V30 13258 H 1310.58 -0.393334 0.534962 0
M  V30 13259 H 1313.11 -0.651363 1.93955 0
M  V30 13260 H 1313.12 -2.92396 2.84549 0
M  V30 13261 H 1311.79 -2.06291 3.61133 0
M  V30 13262 H 1310.37 -3.0865 2.0926 0
M  V30 13263 N 1312.55 -1.36459 -0.788468 0
M  V30 13264 C 1313.8 -1.30483 -1.54333 0
M  V30 13265 C 1314.12 0.115266 -1.94659 0
M  V30 13266 O 1313.39 1.05573 -1.65019 0
M  V30 13267 H 1311.97 -0.480004 -0.572368 0
M  V30 13268 H 1314.63 -1.70765 -0.939428 0
M  V30 13269 H 1313.73 -1.93284 -2.45046 0
M  V30 13270 N 1314.03 1.01274 -1.20754 0
M  V30 13271 C 1314.94 2.1335 -0.975656 0
M  V30 13272 C 1315.96 1.7386 0.0697364 0
M  V30 13273 O 1317.13 2.01051 -0.118578 0
M  V30 13274 C 1314.2 3.42548 -0.534931 0
M  V30 13275 C 1313.26 3.96257 -1.65163 0
M  V30 13276 C 1312.49 5.19289 -1.23184 0
M  V30 13277 O 1312.71 5.70309 -0.102158 0
M  V30 13278 O 1311.65 5.66248 -2.04076 0
M  V30 13279 H 1315.47 2.35783 -1.91415 0
M  V30 13280 H 1313.06 1.11736 -0.991743 0
M  V30 13281 H 1314.94 4.20341 -0.298568 0
M  V30 13282 H 1313.62 3.21521 0.374937 0
M  V30 13283 H 1312.52 3.19726 -1.94232 0
M  V30 13284 H 1313.86 4.2168 -2.53864 0
M  V30 13285 N 1315.51 1.01404 1.20644 0
M  V30 13286 C 1316.47 0.586941 2.21557 0
M  V30 13287 C 1317.47 -0.341543 1.57131 0
M  V30 13288 O 1318.66 -0.130585 1.7371 0
M  V30 13289 C 1315.79 -0.143248 3.40599 0
M  V30 13290 H 1316.99 1.47964 2.60858 0
M  V30 13291 H 1314.54 0.803551 1.34063 0
M  V30 13292 H 1315.28 -1.05097 3.06798 0
M  V30 13293 H 1315.06 0.523716 3.88587 0
M  V30 13294 H 1316.55 -0.429504 4.15385 0
M  V30 13295 N 1316.99 -1.36373 0.789944 0
M  V30 13296 C 1318.23 -2.0106 0.367995 0
M  V30 13297 C 1318.59 -1.61336 -1.0409 0
M  V30 13298 O 1319.79 -2.18618 -1.56396 0
M  V30 13299 C 1318.06 -3.53492 0.527106 0
M  V30 13300 S 1319.62 -4.38375 0.193113 0
M  V30 13301 H 1316.44 -0.696965 0.140573 0
M  V30 13302 H 1319.04 -1.66256 1.02855 0
M  V30 13303 H 1317.75 -3.7989 1.55279 0
M  V30 13304 H 1317.28 -3.93116 -0.149364 0
M  V30 13305 H 1319.29 -4.85913 -1.00513 0
M  V30 13306 N 1318.47 -0.542005 -1.47987 0
M  V30 13307 C 1319.88 -0.200691 -1.58333 0
M  V30 13308 C 1320.08 1.29643 -1.54256 0
M  V30 13309 O 1319.14 2.07556 -1.43794 0
M  V30 13310 C 1320.45 -0.813878 -2.89476 0
M  V30 13311 C 1322 -0.783711 -3.0303 0
M  V30 13312 C 1322.47 -1.37569 -4.36851 0
M  V30 13313 N 1323.96 -1.33819 -4.43449 0
M  V30 13314 C 1324.7 -1.76602 -5.45527 0
M  V30 13315 N 1324.2 -2.27169 -6.54497 0
M  V30 13316 N 1325.99 -1.67765 -5.3648 0
M  V30 13317 H 1318.14 -1.51488 -1.4888 0
M  V30 13318 H 1320.4 -0.630835 -0.707638 0
M  V30 13319 H 1320.11 -1.86544 -2.98151 0
M  V30 13320 H 1319.98 -0.297978 -3.76021 0
M  V30 13321 H 1322.37 0.259118 -2.9396 0
M  V30 13322 H 1322.45 -1.33721 -2.18065 0
M  V30 13323 H 1322.09 -2.41751 -4.46675 0
M  V30 13324 H 1322.02 -0.797769 -5.20522 0
M  V30 13325 H 1324.52 -0.968147 -3.65288 0
M  V30 13326 H 1324.83 -2.57777 -7.2854 0
M  V30 13327 H 1323.17 -2.31171 -6.55427 0
M  V30 13328 H 1326.36 -1.28048 -4.50246 0
M  V30 13329 H 1326.54 -2.01426 -6.15899 0
M  V30 13330 N 1319.94 1.55134 -0.277709 0
M  V30 13331 C 1321.18 2.01561 0.339489 0
M  V30 13332 C 1321.55 1.16185 1.52856 0
M  V30 13333 O 1322.75 1.52204 2.21556 0
M  V30 13334 C 1321.02 3.50285 0.709567 0
M  V30 13335 S 1322.58 4.18697 1.31293 0
M  V30 13336 H 1319.4 0.703137 0.105452 0
M  V30 13337 H 1322 1.91361 -0.400148 0
M  V30 13338 H 1320.7 4.10069 -0.164675 0
M  V30 13339 H 1320.23 3.64475 1.4806 0
M  V30 13340 H 1322.25 4.22539 2.60145 0
M  V30 13341 N 1321.42 0.00503138 1.57599 0
M  V30 13342 C 1322.37 -0.984754 2.08737 0
M  V30 13343 C 1323.34 -1.33822 0.983915 0
M  V30 13344 O 1324.52 -1.43572 1.25665 0
M  V30 13345 C 1321.66 -2.26984 2.59946 0
M  V30 13346 C 1320.78 -1.97496 3.84212 0
M  V30 13347 C 1319.91 -3.20123 4.23904 0
M  V30 13348 C 1318.95 -2.86344 5.40993 0
M  V30 13349 N 1318.09 -4.01524 5.75954 0
M  V30 13350 H 1322.93 -0.541737 2.93034 0
M  V30 13351 H 1320.46 -0.255834 1.44858 0
M  V30 13352 H 1322.42 -3.02117 2.87717 0
M  V30 13353 H 1321.05 -2.68946 1.78516 0
M  V30 13354 H 1320.1 -1.12709 3.63319 0
M  V30 13355 H 1321.42 -1.68602 4.69441 0
M  V30 13356 H 1320.57 -4.03598 4.52983 0
M  V30 13357 H 1319.31 -3.5216 3.37394 0
M  V30 13358 H 1318.31 -2.01278 5.11632 0
M  V30 13359 H 1319.54 -2.5555 6.29183 0
M  V30 13360 H 1317.49 -4.33447 4.92402 0
M  V30 13361 H 1317.4 -3.76171 6.55768 0
M  V30 13362 H 1318.67 -4.85772 6.09628 0
M  V30 13363 N 1322.9 -1.55308 -0.267798 0
M  V30 13364 C 1323.85 -1.89342 -1.35102 0
M  V30 13365 C 1324.84 -0.770277 -1.50874 0
M  V30 13366 O 1326.05 -0.954679 -1.52597 0
M  V30 13367 H 1322.42 -0.601036 -0.451952 0
M  V30 13368 H 1324.39 -2.7982 -1.03651 0
M  V30 13369 C 1323.14 -2.18644 -2.70352 0
M  V30 13370 H 1322.47 -3.04557 -2.59008 0
M  V30 13371 H 1323.91 -2.46374 -3.45073 0
M  V30 13372 C 1322.36 -0.995753 -3.21848 0
M  V30 13373 O 1322.89 -0.233037 -4.01023 0
M  V30 13374 N 1321.1 -0.792038 -2.79598 0
M  V30 13375 H 1320.65 -1.41396 -2.15325 0
M  V30 13376 H 1320.61 0.00300201 -3.144 0
M  V30 13377 N 1324.38 0.532545 -1.4833 0
M  V30 13378 C 1325.33 1.65832 -1.63103 0
M  V30 13379 C 1326.32 1.61929 -0.497538 0
M  V30 13380 O 1327.53 1.66817 -0.676176 0
M  V30 13381 H 1323.9 0.549152 -0.513748 0
M  V30 13382 H 1325.87 1.50515 -2.57658 0
M  V30 13383 C 1324.62 3.04113 -1.68555 0
M  V30 13384 H 1323.94 3.07809 -2.55135 0
M  V30 13385 H 1325.38 3.82506 -1.82936 0
M  V30 13386 C 1323.84 3.34225 -0.423711 0
M  V30 13387 O 1324.37 3.99005 0.464523 0
M  V30 13388 N 1322.58 2.89087 -0.296192 0
M  V30 13389 H 1322.13 2.36547 -1.01997 0
M  V30 13390 H 1322.08 3.09604 0.547082 0
M  V30 13391 N 1325.86 1.36875 0.78122 0
M  V30 13392 C 1327.1 1.31754 1.54171 0
M  V30 13393 C 1327.43 -0.100632 1.93939 0
M  V30 13394 O 1326.71 -1.05587 1.63345 0
M  V30 13395 C 1326.99 2.24789 2.81322 0
M  V30 13396 C 1326.85 3.75342 2.47868 0
M  V30 13397 C 1328.16 2.16442 3.83198 0
M  V30 13398 H 1325.28 0.479931 0.559317 0
M  V30 13399 H 1327.93 1.67497 0.896935 0
M  V30 13400 H 1326.08 1.94438 3.36342 0
M  V30 13401 H 1327.75 4.16247 1.98836 0
M  V30 13402 H 1325.99 3.94375 1.80696 0
M  V30 13403 H 1326.66 4.3586 3.38719 0
M  V30 13404 H 1329.14 2.43175 3.37647 0
M  V30 13405 H 1328.01 2.83695 4.69903 0
M  V30 13406 H 1328.27 1.15431 4.26765 0
M  V30 13407 N 1327.33 -1.00632 1.21289 0
M  V30 13408 C 1328.58 -1.74647 1.03084 0
M  V30 13409 C 1328.91 -1.89271 -0.43476 0
M  V30 13410 O 1328.19 -1.42607 -1.32263 0
M  V30 13411 C 1328.47 -3.15981 1.72709 0
M  V30 13412 C 1328.32 -3.09088 3.2678 0
M  V30 13413 C 1329.64 -4.14875 1.46857 0
M  V30 13414 H 1326.76 -0.633938 0.375889 0
M  V30 13415 H 1329.4 -1.17328 1.49446 0
M  V30 13416 H 1327.55 -3.64918 1.33294 0
M  V30 13417 H 1329.23 -2.67875 3.75554 0
M  V30 13418 H 1327.47 -2.46223 3.57151 0
M  V30 13419 H 1328.14 -4.09041 3.70661 0
M  V30 13420 H 1330.62 -3.74637 1.81069 0
M  V30 13421 H 1329.49 -5.1191 1.98088 0
M  V30 13422 H 1329.75 -4.40302 0.398296 0
M  V30 13423 N 1328.81 -1.02043 -1.20104 0
M  V30 13424 C 1330.06 -0.710566 -1.89197 0
M  V30 13425 C 1330.38 0.762471 -1.79475 0
M  V30 13426 O 1329.65 1.54871 -1.19965 0
M  V30 13427 H 1328.23 -0.259839 -0.700352 0
M  V30 13428 H 1330.89 -1.29285 -1.45848 0
M  V30 13429 H 1329.99 -0.997363 -2.95735 0
M  V30 13430 N 1330.29 1.35952 -0.797165 0
M  V30 13431 C 1331.71 1.52218 -0.479765 0
M  V30 13432 C 1331.91 1.74898 1.00064 0
M  V30 13433 O 1330.96 1.78495 1.78594 0
M  V30 13434 C 1332.28 2.70328 -1.31694 0
M  V30 13435 C 1333.82 2.84202 -1.31142 0
M  V30 13436 C 1334.3 4.05325 -2.13251 0
M  V30 13437 N 1335.79 4.12485 -2.10737 0
M  V30 13438 C 1336.52 5.053 -2.71033 0
M  V30 13439 N 1336.02 6.03509 -3.40219 0
M  V30 13440 N 1337.81 4.97975 -2.60725 0
M  V30 13441 H 1329.96 1.19486 -1.75604 0
M  V30 13442 H 1332.23 0.58383 -0.746892 0
M  V30 13443 H 1331.93 2.60116 -2.36712 0
M  V30 13444 H 1331.81 3.64684 -0.963607 0
M  V30 13445 H 1334.19 2.9387 -0.269131 0
M  V30 13446 H 1334.28 1.9073 -1.70457 0
M  V30 13447 H 1333.92 3.96417 -3.17515 0
M  V30 13448 H 1333.85 4.97959 -1.71302 0
M  V30 13449 H 1336.34 3.42174 -1.6039 0
M  V30 13450 H 1336.65 6.70909 -3.83537 0
M  V30 13451 H 1335 6.03711 -3.44322 0
M  V30 13452 H 1338.19 4.20203 -2.0627 0
M  V30 13453 H 1338.36 5.70119 -3.08007 0
M  V30 13454 N 1331.77 0.549846 1.47697 0
M  V30 13455 C 1332.7 -0.190364 2.32723 0
M  V30 13456 C 1333.68 -0.915933 1.43334 0
M  V30 13457 O 1334.86 -0.897838 1.72199 0
M  V30 13458 C 1331.99 -1.22545 3.24961 0
M  V30 13459 C 1330.95 -0.616805 4.23532 0
M  V30 13460 C 1330.27 -1.75599 5.05044 0
M  V30 13461 C 1331.57 0.424595 5.20571 0
M  V30 13462 H 1333.27 0.519461 2.94859 0
M  V30 13463 H 1330.81 0.251259 1.41791 0
M  V30 13464 H 1332.77 -1.75139 3.83281 0
M  V30 13465 H 1331.49 -1.96512 2.60865 0
M  V30 13466 H 1330.15 -0.112224 3.66428 0
M  V30 13467 H 1329.8 -2.48453 4.37356 0
M  V30 13468 H 1329.5 -1.35456 5.71774 0
M  V30 13469 H 1331.02 -2.28533 5.6622 0
M  V30 13470 H 1332.44 -0.0150025 5.73298 0
M  V30 13471 H 1330.83 0.7445 5.95464 0
M  V30 13472 H 1331.9 1.32318 4.66497 0
M  V30 13473 N 1333.25 -1.54984 0.285932 0
M  V30 13474 C 1334.49 -2.01738 -0.328795 0
M  V30 13475 C 1334.85 -1.16994 -1.52238 0
M  V30 13476 O 1336.05 -1.53377 -2.20746 0
M  V30 13477 C 1334.32 -3.50657 -0.690981 0
M  V30 13478 S 1335.88 -4.19388 -1.29071 0
M  V30 13479 H 1332.7 -0.703686 -0.101721 0
M  V30 13480 H 1335.3 -1.91146 0.410291 0
M  V30 13481 H 1334.01 -4.09976 0.186419 0
M  V30 13482 H 1333.54 -3.65255 -1.46125 0
M  V30 13483 H 1335.55 -4.23912 -2.57901 0
M  V30 13484 N 1334.72 -0.0133892 -1.57594 0
M  V30 13485 C 1335.67 0.991796 -2.10395 0
M  V30 13486 C 1336.67 1.34724 -1.02693 0
M  V30 13487 O 1337.87 1.33131 -1.21145 0
M  V30 13488 H 1334.25 0.337553 -0.671984 0
M  V30 13489 H 1336.22 0.52102 -2.93816 0
M  V30 13490 C 1334.97 2.27039 -2.63341 0
M  V30 13491 H 1334.29 2.00559 -3.45855 0
M  V30 13492 H 1335.73 2.95619 -3.0395 0
M  V30 13493 C 1334.19 2.98939 -1.55362 0
M  V30 13494 O 1334.72 3.90444 -0.944282 0
M  V30 13495 N 1332.93 2.60997 -1.27784 0
M  V30 13496 H 1332.47 1.86666 -1.77521 0
M  V30 13497 H 1332.43 3.09416 -0.557585 0
M  V30 13498 N 1336.2 1.55448 0.259558 0
M  V30 13499 C 1337.11 1.92364 1.34289 0
M  V30 13500 C 1338.13 0.822492 1.53333 0
M  V30 13501 O 1339.3 1.12277 1.672 0
M  V30 13502 C 1336.37 2.19978 2.67975 0
M  V30 13503 C 1335.43 3.43454 2.57562 0
M  V30 13504 C 1334.66 3.69741 3.84873 0
M  V30 13505 O 1334.89 2.9831 4.86176 0
M  V30 13506 O 1333.82 4.63274 3.84267 0
M  V30 13507 H 1337.65 2.8461 1.05975 0
M  V30 13508 H 1335.23 1.42167 0.459239 0
M  V30 13509 H 1337.11 2.39104 3.46998 0
M  V30 13510 H 1335.79 1.30912 2.96047 0
M  V30 13511 H 1334.7 3.29649 1.76869 0
M  V30 13512 H 1336.03 4.32782 2.34437 0
M  V30 13513 N 1337.68 -0.524672 1.4861 0
M  V30 13514 C 1338.92 -1.29064 1.58499 0
M  V30 13515 C 1339.28 -1.90294 0.255378 0
M  V30 13516 O 1340.49 -2.6782 0.229289 0
M  V30 13517 C 1338.76 -2.34693 2.69544 0
M  V30 13518 S 1340.32 -3.20944 2.99233 0
M  V30 13519 H 1337.13 -0.438948 0.559326 0
M  V30 13520 H 1339.74 -0.597119 1.86158 0
M  V30 13521 H 1338.44 -1.88199 3.64704 0
M  V30 13522 H 1337.97 -3.08745 2.43804 0
M  V30 13523 H 1339.99 -4.34883 2.38937 0
M  V30 13524 N 1339.16 -1.37287 -0.77395 0
M  V30 13525 C 1340.12 -1.32699 -1.86878 0
M  V30 13526 C 1341.12 -0.231486 -1.59125 0
M  V30 13527 O 1342.31 -0.487203 -1.67248 0
M  V30 13528 C 1339.44 -1.0609 -3.23972 0
M  V30 13529 H 1340.64 -2.30083 -1.92359 0
M  V30 13530 H 1338.19 -1.22284 -0.973459 0
M  V30 13531 H 1338.92 -0.0922868 -3.24169 0
M  V30 13532 H 1338.71 -1.85383 -3.45508 0
M  V30 13533 H 1340.2 -1.05524 -4.04048 0
M  V30 13534 N 1340.64 0.999871 -1.21821 0
M  V30 13535 C 1341.91 1.71135 -0.947213 0
M  V30 13536 C 1342.29 2.04087 0.539601 0
M  V30 13537 O 1341.64 1.71866 1.5058 0
M  V30 13538 C 1341.85 2.96704 -1.8376 0
M  V30 13539 C 1343.2 3.69627 -2.08952 0
M  V30 13540 O 1344.22 3.06697 -1.81151 0
M  V30 13541 O 1343.08 4.82832 -2.55999 0
M  V30 13542 H 1340.18 0.746631 -0.355628 0
M  V30 13543 H 1342.72 1.05684 -1.32774 0
M  V30 13544 H 1341.49 2.68802 -2.84361 0
M  V30 13545 H 1341.12 3.69894 -1.45821 0
M  V30 13546 N 1342.11 1.02678 1.19562 0
M  V30 13547 C 1343.36 0.72059 1.88817 0
M  V30 13548 C 1343.68 -0.752942 1.79877 0
M  V30 13549 O 1342.95 -1.54233 1.20785 0
M  V30 13550 H 1341.53 0.26355 0.698964 0
M  V30 13551 H 1344.2 1.30056 1.4516 0
M  V30 13552 H 1343.29 1.01303 2.95202 0
M  V30 13553 N 1343.59 -1.35528 0.804364 0
M  V30 13554 C 1344.82 -2.03604 0.395013 0
M  V30 13555 C 1345.24 -1.60225 -0.985371 0
M  V30 13556 O 1344.6 -0.777844 -1.63766 0
M  V30 13557 C 1344.65 -3.57337 0.484011 0
M  V30 13558 O 1343.75 -4.09316 -0.503395 0
M  V30 13559 H 1343.09 -0.643089 0.165325 0
M  V30 13560 H 1345.62 -1.73171 1.08963 0
M  V30 13561 H 1345.63 -4.0647 0.353009 0
M  V30 13562 H 1344.31 -3.8826 1.49088 0
M  V30 13563 H 1342.89 -3.71412 -0.332817 0
M  V30 13564 N 1345.07 -0.557671 -1.47404 0
M  V30 13565 C 1346.32 -0.0337884 -2.02472 0
M  V30 13566 C 1346.65 1.31624 -1.43197 0
M  V30 13567 O 1345.9 1.86989 -0.577366 0
M  V30 13568 C 1346.2 0.108324 -3.57236 0
M  V30 13569 C 1345.87 -1.17088 -4.35432 0
M  V30 13570 C 1344.53 -1.5214 -4.56516 0
M  V30 13571 C 1346.88 -2.01854 -4.80525 0
M  V30 13572 C 1344.21 -2.71803 -5.19942 0
M  V30 13573 C 1346.56 -3.2072 -5.45272 0
M  V30 13574 C 1345.22 -3.56085 -5.64588 0
M  V30 13575 H 1344.49 -0.012364 -0.740897 0
M  V30 13576 H 1347.14 -0.729276 -1.7707 0
M  V30 13577 H 1345.45 0.886781 -3.81633 0
M  V30 13578 H 1347.14 0.529031 -3.97495 0
M  V30 13579 H 1343.73 -0.887952 -4.19301 0
M  V30 13580 H 1347.92 -1.76081 -4.64014 0
M  V30 13581 H 1343.17 -2.99371 -5.33092 0
M  V30 13582 H 1347.35 -3.86689 -5.79176 0
M  V30 13583 H 1344.97 -4.48903 -6.13506 0
M  V30 13584 N 1346.55 1.54831 -0.294147 0
M  V30 13585 C 1347.5 2.19966 0.599919 0
M  V30 13586 C 1348.48 1.1704 1.1041 0
M  V30 13587 O 1349.68 1.42785 1.04601 0
M  V30 13588 C 1346.8 2.93875 1.77461 0
M  V30 13589 C 1345.89 4.0411 1.28671 0
M  V30 13590 N 1346.28 5.03158 0.516316 0
M  V30 13591 C 1344.58 4.17527 1.56804 0
M  V30 13592 C 1345.28 5.8113 0.257361 0
M  V30 13593 N 1344.26 5.37145 0.835221 0
M  V30 13594 H 1348.06 2.939 0.00369516 0
M  V30 13595 H 1345.57 1.621 -0.0985855 0
M  V30 13596 H 1347.57 3.39001 2.4266 0
M  V30 13597 H 1346.23 2.21456 2.3746 0
M  V30 13598 H 1347.24 5.17647 0.161855 0
M  V30 13599 H 1343.92 3.56309 2.17601 0
M  V30 13600 H 1345.31 6.7093 -0.360924 0
M  V30 13601 N 1348.03 0.0217466 1.57585 0
M  V30 13602 C 1348.96 -0.961069 2.12804 0
M  V30 13603 C 1349.94 -1.3442 1.04237 0
M  V30 13604 O 1351.12 -1.42412 1.32032 0
M  V30 13605 C 1348.25 -2.24586 2.64912 0
M  V30 13606 C 1347.21 -2.0037 3.78201 0
M  V30 13607 C 1346.53 -3.35051 4.16708 0
M  V30 13608 C 1347.83 -1.34879 5.04584 0
M  V30 13609 H 1349.53 -0.501222 2.95175 0
M  V30 13610 H 1347.07 -0.239649 1.41992 0
M  V30 13611 H 1349.03 -2.93715 3.02175 0
M  V30 13612 H 1347.75 -2.72723 1.79693 0
M  V30 13613 H 1346.41 -1.33662 3.41365 0
M  V30 13614 H 1346.06 -3.80932 3.28481 0
M  V30 13615 H 1345.76 -3.19656 4.93045 0
M  V30 13616 H 1347.28 -4.05459 4.56547 0
M  V30 13617 H 1348.7 -1.93997 5.3948 0
M  V30 13618 H 1347.09 -1.29906 5.85871 0
M  V30 13619 H 1348.16 -0.320774 4.83838 0
M  V30 13620 N 1349.51 -1.55583 -0.251311 0
M  V30 13621 C 1350.73 -1.81597 -1.00186 0
M  V30 13622 C 1351.16 -0.598216 -1.78334 0
M  V30 13623 O 1350.51 0.452667 -1.75558 0
M  V30 13624 C 1350.56 -3.05301 -1.91895 0
M  V30 13625 O 1349.67 -2.81907 -3.01002 0
M  V30 13626 H 1349.01 -0.599578 -0.285311 0
M  V30 13627 H 1351.54 -2.02762 -0.273638 0
M  V30 13628 H 1351.55 -3.34616 -2.33444 0
M  V30 13629 H 1350.22 -3.93574 -1.34433 0
M  V30 13630 H 1348.8 -2.63747 -2.63613 0
M  V30 13631 N 1350.98 0.516783 -1.48886 0
M  V30 13632 C 1352.21 1.29628 -1.61258 0
M  V30 13633 C 1352.63 1.86744 -0.27786 0
M  V30 13634 O 1351.98 1.67061 0.734639 0
M  V30 13635 C 1352.03 2.43779 -2.66935 0
M  V30 13636 O 1351.76 1.89014 -3.95228 0
M  V30 13637 C 1353.26 3.35398 -2.89867 0
M  V30 13638 H 1350.48 0.393736 -0.543335 0
M  V30 13639 H 1353.02 0.622069 -1.94809 0
M  V30 13640 H 1351.18 3.0706 -2.36206 0
M  V30 13641 H 1351.59 2.63833 -4.53312 0
M  V30 13642 H 1353.06 4.11812 -3.6758 0
M  V30 13643 H 1353.54 3.91436 -1.99185 0
M  V30 13644 H 1354.15 2.77898 -3.21952 0
M  V30 13645 N 1352.46 1.37696 0.766659 0
M  V30 13646 C 1353.88 1.18607 1.06792 0
M  V30 13647 C 1354.08 0.0257195 2.01484 0
M  V30 13648 O 1353.13 -0.632608 2.44447 0
M  V30 13649 C 1354.45 2.50692 1.66054 0
M  V30 13650 C 1355.99 2.57259 1.78288 0
M  V30 13651 C 1356.47 3.89488 2.40963 0
M  V30 13652 N 1357.96 3.90957 2.48408 0
M  V30 13653 C 1358.7 4.90023 2.97767 0
M  V30 13654 N 1358.19 5.99485 3.4726 0
M  V30 13655 N 1359.98 4.77423 2.96688 0
M  V30 13656 H 1352.14 2.11951 0.138031 0
M  V30 13657 H 1354.4 0.939873 0.123863 0
M  V30 13658 H 1354.1 3.35989 1.03945 0
M  V30 13659 H 1353.98 2.68148 2.65286 0
M  V30 13660 H 1356.37 1.72366 2.39528 0
M  V30 13661 H 1356.45 2.43682 0.777981 0
M  V30 13662 H 1356.09 4.74797 1.8036 0
M  V30 13663 H 1356.02 4.0037 3.42069 0
M  V30 13664 H 1358.51 3.11888 2.13388 0
M  V30 13665 H 1358.82 6.71022 3.8334 0
M  V30 13666 H 1357.17 6.03123 3.45351 0
M  V30 13667 H 1360.36 3.91026 2.57325 0
M  V30 13668 H 1360.53 5.54783 3.34844 0
M  V30 13669 N 1353.94 -0.993397 1.22349 0
M  V30 13670 C 1354.89 -2.10463 0.990358 0
M  V30 13671 C 1355.88 -1.6927 -0.0663528 0
M  V30 13672 O 1357.09 -1.79794 0.0860444 0
M  V30 13673 H 1353.46 -0.688222 0.303075 0
M  V30 13674 H 1355.43 -2.273 1.93333 0
M  V30 13675 C 1354.18 -3.42757 0.584205 0
M  V30 13676 H 1353.51 -3.74896 1.38899 0
M  V30 13677 H 1354.95 -4.21492 0.46049 0
M  V30 13678 C 1353.4 -3.29416 -0.706187 0
M  V30 13679 O 1353.93 -3.61152 -1.75875 0
M  V30 13680 N 1352.14 -2.82601 -0.677148 0
M  V30 13681 H 1351.69 -2.56972 0.179712 0
M  V30 13682 H 1351.65 -2.74056 -1.54081 0
M  V30 13683 N 1355.42 -1.03311 -1.19015 0
M  V30 13684 C 1356.83 -0.761079 -1.70483 0
M  V30 13685 C 1357.18 0.718851 -1.82557 0
M  V30 13686 O 1356.3 1.56006 -1.4997 0
M  V30 13687 C 1356.9 -1.37492 -3.09647 0
M  V30 13688 C 1355.46 -1.15138 -3.58358 0
M  V30 13689 C 1354.61 -1.47034 -2.35109 0
M  V30 13690 H 1357.56 -1.2005 -1.03797 0
M  V30 13691 H 1357.58 -0.774115 -3.72542 0
M  V30 13692 H 1357.09 -2.45203 -3.00828 0
M  V30 13693 H 1355.19 -0.0926822 -3.72485 0
M  V30 13694 H 1355.3 -1.84307 -4.4223 0
M  V30 13695 H 1353.67 -0.889794 -2.38652 0
M  V30 13696 H 1354.45 -2.55837 -2.28916 0
M  V30 13697 N 1356.9 1.35099 -0.81154 0
M  V30 13698 C 1358.17 1.93009 -0.317289 0
M  V30 13699 C 1358.55 1.74101 1.19382 0
M  V30 13700 O 1357.9 1.11295 1.99564 0
M  V30 13701 C 1358.11 3.41191 -0.734123 0
M  V30 13702 C 1359.46 4.1834 -0.726437 0
M  V30 13703 O 1360.48 3.49727 -0.67598 0
M  V30 13704 O 1359.34 5.4077 -0.789291 0
M  V30 13705 H 1356.44 0.822707 -0.084153 0
M  V30 13706 H 1358.98 1.44145 -0.895569 0
M  V30 13707 H 1357.75 3.48705 -1.7754 0
M  V30 13708 H 1357.38 3.97384 -0.130919 0
M  V30 13709 N 1358.37 0.56548 1.47106 0
M  V30 13710 C 1359.62 0.0444375 2.02051 0
M  V30 13711 C 1359.94 -1.31344 1.44131 0
M  V30 13712 O 1359.21 -1.85845 0.619556 0
M  V30 13713 H 1357.79 0.0134375 0.746879 0
M  V30 13714 H 1360.45 0.737362 1.80413 0
M  V30 13715 H 1359.55 -0.0374834 3.12077 0
M  V30 13716 N 1359.85 -1.54672 0.302354 0
M  V30 13717 C 1361.09 -2.02076 -0.30738 0
M  V30 13718 C 1361.46 -1.18603 -1.50988 0
M  V30 13719 O 1362.66 -1.5571 -2.19107 0
M  V30 13720 C 1360.93 -3.5137 -0.65375 0
M  V30 13721 S 1362.49 -4.20733 -1.24615 0
M  V30 13722 H 1359.31 -0.704725 -0.0942521 0
M  V30 13723 H 1361.91 -1.907 0.430542 0
M  V30 13724 H 1360.61 -4.09756 0.229892 0
M  V30 13725 H 1360.14 -3.66784 -1.42243 0
M  V30 13726 H 1362.16 -4.26624 -2.5339 0
M  V30 13727 N 1361.33 -0.0301034 -1.57571 0
M  V30 13728 C 1362.26 0.94977 -2.13311 0
M  V30 13729 C 1363.24 1.33865 -1.04948 0
M  V30 13730 O 1364.43 1.4171 -1.32786 0
M  V30 13731 C 1361.56 2.23178 -2.66099 0
M  V30 13732 C 1360.51 1.98362 -3.79258 0
M  V30 13733 C 1359.84 3.32836 -4.18479 0
M  V30 13734 C 1361.14 1.32201 -5.05292 0
M  V30 13735 H 1362.83 0.485562 -2.95436 0
M  V30 13736 H 1360.38 0.232116 -1.42117 0
M  V30 13737 H 1362.33 2.92108 -3.03728 0
M  V30 13738 H 1361.05 2.71766 -1.81137 0
M  V30 13739 H 1359.71 1.31849 -3.42069 0
M  V30 13740 H 1359.36 3.79185 -3.30496 0
M  V30 13741 H 1359.06 3.17037 -4.94733 0
M  V30 13742 H 1360.58 4.03032 -4.58691 0
M  V30 13743 H 1362 1.91133 -5.40501 0
M  V30 13744 H 1360.4 1.26797 -5.86551 0
M  V30 13745 H 1361.47 0.29511 -4.84001 0
M  V30 13746 N 1362.81 1.55714 0.243056 0
M  V30 13747 C 1363.76 1.90638 1.30099 0
M  V30 13748 C 1364.73 0.761049 1.47639 0
M  V30 13749 O 1365.91 1.01505 1.61559 0
M  V30 13750 C 1363.05 2.20985 2.65065 0
M  V30 13751 C 1362.16 3.48343 2.55501 0
M  V30 13752 C 1361.3 3.68241 3.82847 0
M  V30 13753 C 1360.34 4.89187 3.67916 0
M  V30 13754 N 1359.47 5.05586 4.87162 0
M  V30 13755 H 1364.31 2.80857 0.996155 0
M  V30 13756 H 1361.85 1.39027 0.480619 0
M  V30 13757 H 1363.81 2.36585 3.43632 0
M  V30 13758 H 1362.44 1.33966 2.93689 0
M  V30 13759 H 1361.49 3.41054 1.68483 0
M  V30 13760 H 1362.8 4.37057 2.4038 0
M  V30 13761 H 1361.96 3.83822 4.69857 0
M  V30 13762 H 1360.7 2.77768 4.00869 0
M  V30 13763 H 1359.7 4.7358 2.79289 0
M  V30 13764 H 1360.93 5.81124 3.51385 0
M  V30 13765 H 1358.87 4.18051 5.05538 0
M  V30 13766 H 1358.79 5.88395 4.74686 0
M  V30 13767 H 1360.06 5.25582 5.7566 0
M  V30 13768 N 1364.29 -0.50888 1.49158 0
M  V30 13769 C 1365.53 -1.27375 1.59859 0
M  V30 13770 C 1365.89 -1.90012 0.275547 0
M  V30 13771 O 1367.09 -2.67562 0.257682 0
M  V30 13772 C 1365.36 -2.31821 2.72018 0
M  V30 13773 S 1366.92 -3.17752 3.0262 0
M  V30 13774 H 1363.74 -0.432991 0.56395 0
M  V30 13775 H 1366.34 -0.577341 1.86781 0
M  V30 13776 H 1365.05 -1.84321 3.6668 0
M  V30 13777 H 1364.58 -3.06142 2.47065 0
M  V30 13778 H 1366.59 -4.32324 2.43537 0
M  V30 13779 N 1365.76 -1.381 -0.759346 0
M  V30 13780 C 1367.01 -1.33992 -1.5183 0
M  V30 13781 C 1367.34 0.0718172 -1.94367 0
M  V30 13782 O 1366.59 1.0477 -1.65293 0
M  V30 13783 C 1366.89 -2.23636 -2.78786 0
M  V30 13784 C 1366.56 -3.71703 -2.5524 0
M  V30 13785 C 1365.22 -4.12053 -2.48528 0
M  V30 13786 C 1367.57 -4.65455 -2.34523 0
M  V30 13787 C 1364.9 -5.44252 -2.19105 0
M  V30 13788 C 1367.25 -5.97905 -2.06622 0
M  V30 13789 C 1365.92 -6.37345 -1.98362 0
M  V30 13790 H 1365.19 -0.490311 -0.555587 0
M  V30 13791 H 1367.83 -1.70411 -0.873637 0
M  V30 13792 H 1366.14 -1.80253 -3.47874 0
M  V30 13793 H 1367.84 -2.17764 -3.36719 0
M  V30 13794 H 1364.43 -3.3971 -2.61333 0
M  V30 13795 H 1368.61 -4.35132 -2.38691 0
M  V30 13796 H 1363.87 -5.73758 -2.11214 0
M  V30 13797 H 1368.04 -6.70095 -1.89594 0
M  V30 13798 H 1365.67 -7.39706 -1.75328 0
M  V30 13799 N 1367.24 0.986894 -1.22875 0
M  V30 13800 C 1368.48 1.74243 -1.06859 0
M  V30 13801 C 1368.85 1.88024 0.388736 0
M  V30 13802 O 1370.05 2.60318 0.669907 0
M  V30 13803 C 1368.32 3.10668 -1.76692 0
M  V30 13804 S 1369.88 4.01884 -1.76166 0
M  V30 13805 H 1366.7 0.59931 -0.382555 0
M  V30 13806 H 1369.3 1.17951 -1.55909 0
M  V30 13807 H 1368 2.98285 -2.81877 0
M  V30 13808 H 1367.53 3.7203 -1.27897 0
M  V30 13809 H 1369.55 4.89451 -0.815627 0
M  V30 13810 N 1368.72 1.0394 1.18466 0
M  V30 13811 C 1369.65 0.573814 2.20868 0
M  V30 13812 C 1370.63 -0.390956 1.5783 0
M  V30 13813 O 1371.82 -0.305561 1.86007 0
M  V30 13814 C 1368.94 -0.161904 3.38313 0
M  V30 13815 C 1367.99 0.755924 4.19748 0
M  V30 13816 S 1368.82 2.23809 4.86487 0
M  V30 13817 C 1369.98 1.51318 6.07333 0
M  V30 13818 H 1370.21 1.44143 2.60019 0
M  V30 13819 H 1367.74 0.850252 1.2888 0
M  V30 13820 H 1369.7 -0.58022 4.06379 0
M  V30 13821 H 1368.36 -1.00539 2.97575 0
M  V30 13822 H 1367.56 0.187345 5.03652 0
M  V30 13823 H 1367.16 1.11303 3.57054 0
M  V30 13824 H 1369.45 0.805536 6.72694 0
M  V30 13825 H 1370.39 2.32922 6.68695 0
M  V30 13826 H 1370.8 1.00607 5.55462 0
M  V30 13827 N 1370.2 -1.34667 0.818693 0
M  V30 13828 C 1371.45 -1.98022 0.40396 0
M  V30 13829 C 1371.77 -1.65239 -1.03542 0
M  V30 13830 O 1371.04 -0.94097 -1.71821 0
M  V30 13831 H 1369.62 -0.732517 0.146382 0
M  V30 13832 H 1372.28 -1.64377 1.0472 0
M  V30 13833 H 1371.38 -3.07746 0.519516 0
M  V30 13834 N 1371.68 -0.573274 -1.46804 0
M  V30 13835 C 1372.92 -0.0553432 -2.02724 0
M  V30 13836 C 1373.26 1.29753 -1.44492 0
M  V30 13837 O 1372.53 1.84804 -0.606455 0
M  V30 13838 C 1372.81 0.0205511 -3.60094 0
M  V30 13839 C 1372.67 -1.36055 -4.2873 0
M  V30 13840 C 1373.99 0.725944 -4.34071 0
M  V30 13841 H 1371.1 -0.0215858 -0.736684 0
M  V30 13842 H 1373.75 -0.738657 -1.75054 0
M  V30 13843 H 1371.9 0.602481 -3.838 0
M  V30 13844 H 1373.57 -1.98692 -4.16316 0
M  V30 13845 H 1371.81 -1.93087 -3.88458 0
M  V30 13846 H 1372.48 -1.26001 -5.37427 0
M  V30 13847 H 1374.96 0.231677 -4.15455 0
M  V30 13848 H 1373.83 0.74805 -5.43779 0
M  V30 13849 H 1374.1 1.78536 -4.04447 0
M  V30 13850 N 1373.15 1.5451 -0.310553 0
M  V30 13851 C 1374.38 2.05204 0.301013 0
M  V30 13852 C 1374.8 1.1859 1.46007 0
M  V30 13853 O 1374.16 0.192081 1.8028 0
M  V30 13854 C 1374.21 3.53221 0.725767 0
M  V30 13855 O 1373.31 3.69596 1.82955 0
M  V30 13856 H 1372.66 0.661566 0.0568026 0
M  V30 13857 H 1375.19 1.99473 -0.455178 0
M  V30 13858 H 1375.2 3.9525 1.01198 0
M  V30 13859 H 1373.87 4.15721 -0.122046 0
M  V30 13860 H 1372.45 3.39472 1.54315 0
M  V30 13861 N 1374.63 0.0384594 1.57553 0
M  V30 13862 C 1376.05 -0.318006 1.564 0
M  V30 13863 C 1376.25 -1.72287 1.04496 0
M  V30 13864 O 1375.31 -2.42722 0.695861 0
M  V30 13865 C 1376.62 -0.158079 3.00284 0
M  V30 13866 C 1378.17 -0.230143 3.12153 0
M  V30 13867 C 1378.64 -0.0988948 4.57893 0
M  V30 13868 N 1380.13 -0.15558 4.62939 0
M  V30 13869 C 1380.87 -0.077948 5.73347 0
M  V30 13870 N 1380.36 0.0513054 6.92781 0
M  V30 13871 N 1382.16 -0.132612 5.61944 0
M  V30 13872 H 1374.31 0.957014 1.89618 0
M  V30 13873 H 1376.57 0.370396 0.872646 0
M  V30 13874 H 1376.28 0.810032 3.42245 0
M  V30 13875 H 1376.15 -0.924413 3.65697 0
M  V30 13876 H 1378.54 -1.18872 2.70099 0
M  V30 13877 H 1378.62 0.56673 2.49443 0
M  V30 13878 H 1378.26 0.856301 5.00629 0
M  V30 13879 H 1378.19 -0.91475 5.18594 0
M  V30 13880 H 1380.68 -0.255245 3.77037 0
M  V30 13881 H 1381 0.103595 7.72731 0
M  V30 13882 H 1379.34 0.0862166 6.94947 0
M  V30 13883 H 1382.53 -0.232056 4.67524 0
M  V30 13884 H 1382.71 -0.0686506 6.47964 0
M  V30 13885 N 1376.11 -1.55841 -0.234795 0
M  V30 13886 C 1377.06 -1.8772 -1.29403 0
M  V30 13887 C 1378.05 -0.739087 -1.42921 0
M  V30 13888 O 1379.24 -1.00125 -1.45959 0
M  V30 13889 C 1376.37 -2.18592 -2.64712 0
M  V30 13890 C 1375.45 -3.38761 -2.55151 0
M  V30 13891 N 1375.84 -4.57723 -2.15229 0
M  V30 13892 C 1374.14 -3.42112 -2.86138 0
M  V30 13893 C 1374.84 -5.39872 -2.16595 0
M  V30 13894 N 1373.82 -4.79242 -2.5657 0
M  V30 13895 H 1377.62 -2.77219 -0.976067 0
M  V30 13896 H 1375.13 -1.5623 -0.443396 0
M  V30 13897 H 1377.13 -2.39599 -3.41171 0
M  V30 13898 H 1375.79 -1.30398 -2.97366 0
M  V30 13899 H 1376.8 -4.83126 -1.86575 0
M  V30 13900 H 1373.48 -2.64224 -3.23252 0
M  V30 13901 H 1374.87 -6.45072 -1.87967 0
M  V30 13902 N 1377.59 0.500963 -1.49426 0
M  V30 13903 C 1378.83 1.26526 -1.60532 0
M  V30 13904 C 1379.19 1.89864 -0.28562 0
M  V30 13905 O 1380.39 2.67422 -0.271868 0
M  V30 13906 C 1378.67 2.30375 -2.73244 0
M  V30 13907 S 1380.22 3.16143 -3.04301 0
M  V30 13908 H 1377.04 0.429994 -0.566238 0
M  V30 13909 H 1379.64 0.567427 -1.87084 0
M  V30 13910 H 1378.35 1.82373 -3.67652 0
M  V30 13911 H 1377.88 3.04827 -2.48685 0
M  V30 13912 H 1379.89 4.31027 -2.45826 0
M  V30 13913 N 1379.07 1.38501 0.752011 0
M  V30 13914 C 1380.3 1.38032 1.54125 0
M  V30 13915 C 1380.71 -0.0295066 1.88777 0
M  V30 13916 O 1380.07 -0.996522 1.52891 0
M  V30 13917 C 1380.12 2.23741 2.83941 0
M  V30 13918 O 1379.84 3.59232 2.50767 0
M  V30 13919 C 1381.34 2.31469 3.7807 0
M  V30 13920 H 1378.56 0.472077 0.476848 0
M  V30 13921 H 1381.1 1.82101 0.930572 0
M  V30 13922 H 1379.26 1.8313 3.41383 0
M  V30 13923 H 1379.67 4.04376 3.34036 0
M  V30 13924 H 1381.15 2.95722 4.66103 0
M  V30 13925 H 1381.62 1.32882 4.18616 0
M  V30 13926 H 1382.23 2.72477 3.26552 0
M  V30 13927 N 1380.55 -0.980364 1.23396 0
M  V30 13928 C 1381.77 -1.76223 1.09363 0
M  V30 13929 C 1382.2 -1.84801 -0.350759 0
M  V30 13930 O 1381.55 -1.30966 -1.2537 0
M  V30 13931 C 1381.6 -3.16728 1.72383 0
M  V30 13932 O 1380.71 -4.00439 0.986002 0
M  V30 13933 H 1380.05 -0.542174 0.383332 0
M  V30 13934 H 1382.58 -1.23066 1.6345 0
M  V30 13935 H 1382.59 -3.67307 1.77623 0
M  V30 13936 H 1381.26 -3.098 2.77483 0
M  V30 13937 H 1379.84 -3.58946 1.01054 0
M  V30 13938 N 1382.02 -1.04567 -1.17913 0
M  V30 13939 C 1383.25 -0.772146 -1.92491 0
M  V30 13940 C 1383.67 0.665297 -1.75942 0
M  V30 13941 O 1383.03 1.46144 -1.07292 0
M  V30 13942 C 1383.08 -1.14966 -3.41782 0
M  V30 13943 O 1382.18 -0.278091 -4.11461 0
M  V30 13944 H 1381.52 -0.283715 -0.600335 0
M  V30 13945 H 1384.05 -1.39685 -1.49496 0
M  V30 13946 H 1384.06 -1.11374 -3.92505 0
M  V30 13947 H 1382.74 -2.1968 -3.53148 0
M  V30 13948 H 1381.32 -0.374073 -3.71019 0
M  V30 13949 N 1383.5 1.34231 -0.825823 0
M  V30 13950 C 1384.73 2.02949 -0.427354 0
M  V30 13951 C 1385.15 1.61772 0.959755 0
M  V30 13952 O 1384.51 0.803799 1.62508 0
M  V30 13953 C 1384.56 3.56522 -0.540799 0
M  V30 13954 O 1383.66 4.10065 0.438213 0
M  V30 13955 H 1383 0.640378 -0.175535 0
M  V30 13956 H 1385.53 1.71416 -1.11704 0
M  V30 13957 H 1385.54 4.05857 -0.41763 0
M  V30 13958 H 1384.22 3.85839 -1.55246 0
M  V30 13959 H 1382.79 3.71894 0.273687 0
M  V30 13960 N 1384.98 0.581051 1.46498 0
M  V30 13961 C 1386.23 0.07442 2.03264 0
M  V30 13962 C 1386.58 -1.27069 1.44469 0
M  V30 13963 O 1385.87 -1.8197 0.599785 0
M  V30 13964 C 1386.07 -0.0514774 3.57363 0
M  V30 13965 C 1385.9 1.27988 4.31102 0
M  V30 13966 C 1384.67 1.85358 4.70075 0
M  V30 13967 C 1386.86 2.20268 4.64743 0
M  V30 13968 N 1384.85 3.1225 5.28558 0
M  V30 13969 C 1386.22 3.31746 5.23779 0
M  V30 13970 C 1388.27 2.19969 4.46675 0
M  V30 13971 C 1386.98 4.43056 5.66652 0
M  V30 13972 C 1389 3.30307 4.90562 0
M  V30 13973 C 1388.36 4.40505 5.49667 0
M  V30 13974 H 1384.46 0.0699705 0.778863 0
M  V30 13975 H 1387.05 0.773585 1.78672 0
M  V30 13976 H 1385.22 -0.719807 3.81672 0
M  V30 13977 H 1386.95 -0.562342 4.00774 0
M  V30 13978 H 1383.7 1.3887 4.52782 0
M  V30 13979 H 1384.13 3.76992 5.62322 0
M  V30 13980 H 1388.77 1.36044 4.00315 0
M  V30 13981 H 1386.49 5.27724 6.11991 0
M  V30 13982 H 1390.07 3.31191 4.78334 0
M  V30 13983 H 1388.95 5.24475 5.83006 0
M  V30 13984 N 1386.46 -1.54343 0.318742 0
M  V30 13985 C 1387.68 -2.05361 -0.290126 0
M  V30 13986 C 1388.11 -1.19362 -1.45376 0
M  V30 13987 O 1387.47 -0.201639 -1.80175 0
M  V30 13988 C 1387.51 -3.53601 -0.707025 0
M  V30 13989 O 1386.62 -3.70561 -1.80992 0
M  V30 13990 H 1385.96 -0.661858 -0.0532933 0
M  V30 13991 H 1388.49 -1.99228 0.46575 0
M  V30 13992 H 1388.5 -3.95782 -0.991005 0
M  V30 13993 H 1387.17 -4.1565 0.144091 0
M  V30 13994 H 1385.75 -3.40286 -1.52513 0
M  V30 13995 N 1387.94 -0.0468143 -1.5753 0
M  V30 13996 C 1389.35 0.309707 -1.56566 0
M  V30 13997 C 1389.55 1.7173 -1.05408 0
M  V30 13998 O 1388.61 2.4235 -0.708723 0
M  V30 13999 C 1389.92 0.142151 -3.00364 0
M  V30 14000 C 1391.47 0.213585 -3.1227 0
M  V30 14001 C 1391.94 0.0746102 -4.57939 0
M  V30 14002 N 1393.43 0.131027 -4.63015 0
M  V30 14003 C 1394.17 0.0475409 -5.7338 0
M  V30 14004 N 1393.67 -0.0880445 -6.92744 0
M  V30 14005 N 1395.46 0.102809 -5.62006 0
M  V30 14006 H 1387.61 -0.967057 -1.89108 0
M  V30 14007 H 1389.87 -0.375018 -0.870669 0
M  V30 14008 H 1389.58 -0.828171 -3.4181 0
M  V30 14009 H 1389.45 0.905006 -3.66182 0
M  V30 14010 H 1391.84 1.17438 -2.70726 0
M  V30 14011 H 1391.92 -0.57995 -2.49139 0
M  V30 14012 H 1391.56 -0.882839 -5.00168 0
M  V30 14013 H 1391.49 0.887235 -5.19072 0
M  V30 14014 H 1393.99 0.235246 -3.77167 0
M  V30 14015 H 1394.3 -0.144574 -7.72665 0
M  V30 14016 H 1392.64 -0.12307 -6.94891 0
M  V30 14017 H 1395.83 0.207259 -4.67641 0
M  V30 14018 H 1396.01 0.0342865 -6.47991 0
M  V30 14019 N 1389.41 1.55964 0.226527 0
M  V30 14020 C 1390.38 1.91184 1.26418 0
M  V30 14021 C 1391.38 0.789982 1.40057 0
M  V30 14022 O 1392.57 1.05778 1.38407 0
M  V30 14023 C 1389.7 2.15826 2.63878 0
M  V30 14024 H 1390.89 2.83986 0.963956 0
M  V30 14025 H 1388.45 1.49169 0.466726 0
M  V30 14026 H 1389.18 1.2556 2.99007 0
M  V30 14027 H 1388.97 2.97549 2.55356 0
M  V30 14028 H 1390.46 2.44188 3.38765 0
M  V30 14029 N 1390.89 -0.493031 1.4969 0
M  V30 14030 C 1391.82 -1.61058 1.63074 0
M  V30 14031 C 1392.84 -1.54504 0.513069 0
M  V30 14032 O 1394.03 -1.60291 0.785431 0
M  V30 14033 C 1391.13 -2.99877 1.57883 0
M  V30 14034 C 1390.3 -3.31531 2.85317 0
M  V30 14035 C 1389.36 -4.49799 2.7307 0
M  V30 14036 O 1388.38 -4.51189 3.47012 0
M  V30 14037 N 1389.59 -5.50182 1.85148 0
M  V30 14038 H 1392.35 -1.5 2.59461 0
M  V30 14039 H 1389.91 -0.681057 1.46878 0
M  V30 14040 H 1391.9 -3.76928 1.47333 0
M  V30 14041 H 1390.47 -3.04817 0.693218 0
M  V30 14042 H 1389.69 -2.433 3.10159 0
M  V30 14043 H 1390.98 -3.49481 3.69784 0
M  V30 14044 H 1390.38 -5.51865 1.24345 0
M  V30 14045 H 1388.94 -6.26305 1.80516 0
M  V30 14046 N 1392.37 -1.38898 -0.744656 0
M  V30 14047 C 1393.3 -1.39571 -1.87195 0
M  V30 14048 C 1394.28 -0.260372 -1.68095 0
M  V30 14049 O 1395.47 -0.464776 -1.88556 0
M  V30 14050 C 1392.6 -1.22889 -3.24832 0
M  V30 14051 C 1391.55 -2.33721 -3.58551 0
M  V30 14052 C 1390.88 -2.02136 -4.9502 0
M  V30 14053 C 1392.18 -3.7601 -3.62511 0
M  V30 14054 H 1393.87 -2.33908 -1.86889 0
M  V30 14055 H 1391.42 -1.12591 -0.897739 0
M  V30 14056 H 1393.37 -1.21983 -4.03359 0
M  V30 14057 H 1392.09 -0.250172 -3.2564 0
M  V30 14058 H 1390.75 -2.33828 -2.82348 0
M  V30 14059 H 1390.4 -1.02726 -4.92399 0
M  V30 14060 H 1390.1 -2.76371 -5.18549 0
M  V30 14061 H 1391.62 -2.02864 -5.75915 0
M  V30 14062 H 1393.04 -3.77885 -4.31133 0
M  V30 14063 H 1391.44 -4.49524 -3.97553 0
M  V30 14064 H 1392.51 -4.07682 -2.62533 0
M  V30 14065 N 1393.85 0.973806 -1.23914 0
M  V30 14066 C 1394.8 2.05229 -0.993221 0
M  V30 14067 C 1395.78 1.60776 0.0631684 0
M  V30 14068 O 1396.97 1.76365 -0.149794 0
M  V30 14069 C 1394.1 3.38132 -0.593421 0
M  V30 14070 C 1393.19 3.89165 -1.68556 0
M  V30 14071 N 1393.58 4.13203 -2.91714 0
M  V30 14072 C 1391.88 4.17765 -1.56167 0
M  V30 14073 C 1392.58 4.54961 -3.62471 0
M  V30 14074 N 1391.56 4.59778 -2.90009 0
M  V30 14075 H 1395.36 2.21781 -1.92848 0
M  V30 14076 H 1392.87 1.15711 -1.1395 0
M  V30 14077 H 1394.87 4.14991 -0.398491 0
M  V30 14078 H 1393.53 3.2297 0.33472 0
M  V30 14079 H 1394.54 4.00832 -3.27954 0
M  V30 14080 H 1391.22 4.11571 -0.701112 0
M  V30 14081 H 1392.61 4.82022 -4.68085 0
M  V30 14082 N 1395.33 1.05191 1.17357 0
M  V30 14083 C 1396.57 0.760479 1.87246 0
M  V30 14084 C 1396.9 -0.714618 1.81434 0
M  V30 14085 O 1396.17 -1.51636 1.24029 0
M  V30 14086 H 1394.75 0.278317 0.693216 0
M  V30 14087 H 1397.41 1.33106 1.42369 0
M  V30 14088 H 1396.5 1.07542 2.92987 0
M  V30 14089 N 1396.8 -1.33791 0.83293 0
M  V30 14090 C 1397.77 -2.27637 0.267196 0
M  V30 14091 C 1398.77 -1.50709 -0.560669 0
M  V30 14092 O 1399.96 -1.70109 -0.375321 0
M  V30 14093 C 1397.09 -3.35136 -0.624248 0
M  V30 14094 H 1398.28 -2.79186 1.09522 0
M  V30 14095 H 1395.84 -1.44093 0.605554 0
M  V30 14096 H 1396.57 -2.88818 -1.47494 0
M  V30 14097 H 1396.36 -3.92087 -0.0319827 0
M  V30 14098 H 1397.85 -4.05113 -1.01355 0
M  V30 14099 N 1398.28 -0.588812 -1.46187 0
M  V30 14100 C 1399.51 -0.0806571 -2.07243 0
M  V30 14101 C 1399.93 1.21766 -1.43369 0
M  V30 14102 O 1399.29 1.73694 -0.51964 0
M  V30 14103 C 1399.34 0.065267 -3.60541 0
M  V30 14104 O 1398.44 1.12026 -3.96893 0
M  V30 14105 H 1397.78 -0.0655622 -0.660755 0
M  V30 14106 H 1400.31 -0.813489 -1.87733 0
M  V30 14107 H 1400.32 0.269494 -4.07109 0
M  V30 14108 H 1399 -0.88284 -4.06422 0
M  V30 14109 H 1397.58 0.894 -3.62025 0
M  V30 14110 N 1399.76 1.54172 -0.326923 0
M  V30 14111 C 1400.67 2.28149 0.546351 0
M  V30 14112 C 1401.69 1.32628 1.12631 0
M  V30 14113 O 1402.86 1.65647 1.14556 0
M  V30 14114 C 1399.93 3.02742 1.68962 0
M  V30 14115 C 1398.99 4.13856 1.14112 0
M  V30 14116 C 1398.22 4.84882 2.2299 0
M  V30 14117 O 1398.44 4.55448 3.43399 0
M  V30 14118 O 1397.38 5.71714 1.8822 0
M  V30 14119 H 1401.2 3.03651 -0.0545288 0
M  V30 14120 H 1398.79 1.49113 -0.0925027 0
M  V30 14121 H 1400.67 3.49443 2.35515 0
M  V30 14122 H 1399.35 2.30113 2.27662 0
M  V30 14123 H 1398.25 3.71497 0.440579 0
M  V30 14124 H 1399.59 4.88539 0.599211 0
M  V30 14125 N 1401.24 0.0551678 1.57503 0
M  V30 14126 C 1402.15 -0.932959 2.15251 0
M  V30 14127 C 1403.16 -1.33885 1.11134 0
M  V30 14128 O 1404.34 -1.41495 1.43321 0
M  V30 14129 C 1401.41 -2.18807 2.68932 0
M  V30 14130 C 1400.47 -1.84016 3.87862 0
M  V30 14131 C 1399.7 -3.03543 4.38973 0
M  V30 14132 O 1399.92 -4.17041 3.89144 0
M  V30 14133 O 1398.86 -2.84325 5.30512 0
M  V30 14134 H 1402.68 -0.471816 3.00013 0
M  V30 14135 H 1400.27 -0.16696 1.48464 0
M  V30 14136 H 1402.15 -2.92439 3.0341 0
M  V30 14137 H 1400.82 -2.64051 1.87239 0
M  V30 14138 H 1399.73 -1.07687 3.58266 0
M  V30 14139 H 1401.06 -1.43567 4.70796 0
M  V30 14140 N 1402.72 -1.56081 -0.218252 0
M  V30 14141 C 1404.13 -1.69397 -0.784964 0
M  V30 14142 C 1404.48 -0.65775 -1.84846 0
M  V30 14143 O 1403.6 0.190478 -2.1556 0
M  V30 14144 C 1404.2 -3.07114 -1.4306 0
M  V30 14145 C 1402.76 -3.22273 -1.94466 0
M  V30 14146 C 1401.9 -2.65327 -0.80604 0
M  V30 14147 H 1404.86 -1.58699 0.0064566 0
M  V30 14148 H 1404.88 -3.03156 -2.2995 0
M  V30 14149 H 1404.39 -3.8251 -0.656335 0
M  V30 14150 H 1402.49 -2.51752 -2.74684 0
M  V30 14151 H 1402.6 -4.29526 -2.12237 0
M  V30 14152 H 1400.97 -2.23894 -1.21423 0
M  V30 14153 H 1401.75 -3.43271 -0.0443928 0
M  V30 14154 N 1404.2 0.485086 -1.49949 0
M  V30 14155 C 1405.44 1.23571 -1.5992 0
M  V30 14156 C 1405.76 1.92754 -0.295108 0
M  V30 14157 O 1405.03 1.83474 0.686582 0
M  V30 14158 H 1403.61 0.459104 -0.589264 0
M  V30 14159 H 1406.28 0.560822 -1.86657 0
M  V30 14160 H 1405.37 1.99114 -2.40333 0
M  V30 14161 N 1405.67 1.39291 0.737279 0
M  V30 14162 C 1406.62 1.34321 1.84233 0
M  V30 14163 C 1407.61 0.224489 1.59326 0
M  V30 14164 O 1408.8 0.461832 1.70869 0
M  V30 14165 C 1405.93 1.18676 3.22135 0
M  V30 14166 C 1405.01 2.35239 3.52878 0
M  V30 14167 N 1405.41 3.6071 3.54573 0
M  V30 14168 C 1403.7 2.28147 3.83229 0
M  V30 14169 C 1404.4 4.37778 3.83047 0
M  V30 14170 N 1403.38 3.67336 4.00706 0
M  V30 14171 H 1407.18 2.29299 1.83845 0
M  V30 14172 H 1404.7 1.32755 0.935413 0
M  V30 14173 H 1406.69 1.13199 4.01238 0
M  V30 14174 H 1405.35 0.246461 3.23763 0
M  V30 14175 H 1406.36 3.94164 3.3594 0
M  V30 14176 H 1403.04 1.42366 3.92477 0
M  V30 14177 H 1404.43 5.46525 3.90845 0
M  V30 14178 N 1407.15 -0.967221 1.24429 0
M  V30 14179 C 1408.4 -1.71026 1.08427 0
M  V30 14180 C 1408.73 -1.90815 -0.376812 0
M  V30 14181 O 1407.98 -1.46745 -1.29477 0
M  V30 14182 C 1408.28 -3.10507 1.76975 0
M  V30 14183 C 1407.95 -3.10557 3.26902 0
M  V30 14184 C 1406.61 -3.10278 3.67806 0
M  V30 14185 C 1408.96 -3.04852 4.22746 0
M  V30 14186 C 1406.29 -3.02027 5.02988 0
M  V30 14187 C 1408.64 -2.98143 5.57937 0
M  V30 14188 C 1407.3 -2.96193 5.98185 0
M  V30 14189 H 1406.57 -0.625827 0.396764 0
M  V30 14190 H 1409.22 -1.13094 1.54538 0
M  V30 14191 H 1407.53 -3.71906 1.2326 0
M  V30 14192 H 1409.22 -3.66794 1.62058 0
M  V30 14193 H 1405.81 -3.11539 2.94349 0
M  V30 14194 H 1410 -3.04197 3.92145 0
M  V30 14195 H 1405.25 -2.98878 5.33368 0
M  V30 14196 H 1409.43 -2.92688 6.31907 0
M  V30 14197 H 1407.05 -2.89555 7.02895 0
M  V30 14198 N 1408.63 -1.05812 -1.16797 0
M  V30 14199 C 1409.85 -0.792518 -1.91661 0
M  V30 14200 C 1410.28 0.646598 -1.76637 0
M  V30 14201 O 1409.64 1.44998 -1.08836 0
M  V30 14202 C 1409.69 -1.18585 -3.40544 0
M  V30 14203 O 1408.79 -0.321716 -4.11143 0
M  V30 14204 H 1408.13 -0.290066 -0.597292 0
M  V30 14205 H 1410.66 -1.41263 -1.48007 0
M  V30 14206 H 1410.67 -1.1553 -3.91301 0
M  V30 14207 H 1409.35 -2.23413 -3.50798 0
M  V30 14208 H 1407.92 -0.413403 -3.70601 0
M  V30 14209 N 1410.11 1.33347 -0.840014 0
M  V30 14210 C 1411.04 2.31703 -0.289138 0
M  V30 14211 C 1412.02 1.59024 0.603759 0
M  V30 14212 O 1413.2 1.86911 0.527071 0
M  V30 14213 C 1410.33 3.43144 0.53566 0
M  V30 14214 C 1409.29 4.272 -0.261544 0
M  V30 14215 C 1408.61 5.30267 0.687075 0
M  V30 14216 C 1409.91 5.00915 -1.47924 0
M  V30 14217 H 1411.61 2.78026 -1.11094 0
M  V30 14218 H 1409.15 1.33666 -0.535658 0
M  V30 14219 H 1411.11 4.10979 0.931351 0
M  V30 14220 H 1409.83 2.95512 1.39069 0
M  V30 14221 H 1408.49 3.60991 -0.638809 0
M  V30 14222 H 1408.14 4.78893 1.53853 0
M  V30 14223 H 1407.84 5.87388 0.157773 0
M  V30 14224 H 1409.36 6.00968 1.08026 0
M  V30 14225 H 1410.78 5.61511 -1.15664 0
M  V30 14226 H 1409.17 5.67692 -1.94541 0
M  V30 14227 H 1410.24 4.29622 -2.24839 0
M  V30 14228 N 1411.59 0.596556 1.45873 0
M  V30 14229 C 1412.81 0.0934926 2.06689 0
M  V30 14230 C 1413.23 -1.21743 1.44305 0
M  V30 14231 O 1412.59 -1.73912 0.553253 0
M  V30 14232 C 1412.64 -0.0643337 3.61443 0
M  V30 14233 O 1412.36 1.19472 4.21495 0
M  V30 14234 C 1413.86 -0.600141 4.39219 0
M  V30 14235 H 1411.08 0.0637846 0.667961 0
M  V30 14236 H 1413.62 0.821159 1.87289 0
M  V30 14237 H 1411.78 -0.742278 3.80222 0
M  V30 14238 H 1412.19 1.01735 5.14539 0
M  V30 14239 H 1413.67 -0.6597 5.48044 0
M  V30 14240 H 1414.14 -1.62009 4.08227 0
M  V30 14241 H 1414.75 0.0433915 4.25278 0
M  V30 14242 N 1413.06 -1.53996 0.335095 0
M  V30 14243 C 1414.01 -2.26221 -0.541007 0
M  V30 14244 C 1415.01 -1.28053 -1.109 0
M  V30 14245 O 1416.21 -1.4579 -1.05571 0
M  V30 14246 H 1412.59 -0.726775 -0.193136 0
M  V30 14247 H 1414.56 -2.98263 0.0902792 0
M  V30 14248 C 1413.31 -3.04173 -1.68445 0
M  V30 14249 H 1412.63 -3.79537 -1.25665 0
M  V30 14250 H 1414.07 -3.57937 -2.27282 0
M  V30 14251 C 1412.53 -2.13162 -2.6089 0
M  V30 14252 O 1413.06 -1.7221 -3.62914 0
M  V30 14253 N 1411.26 -1.78414 -2.29384 0
M  V30 14254 H 1410.81 -2.11914 -1.46458 0
M  V30 14255 H 1410.77 -1.178 -2.91497 0
M  V30 14256 N 1414.54 -0.0635198 -1.57472 0
M  V30 14257 C 1415.5 0.891881 -2.11135 0
M  V30 14258 C 1416.5 1.23182 -1.03358 0
M  V30 14259 O 1417.69 1.16646 -1.2938 0
M  V30 14260 C 1414.83 2.19792 -2.60584 0
M  V30 14261 H 1416.02 0.426461 -2.96852 0
M  V30 14262 H 1413.57 0.185069 -1.552 0
M  V30 14263 H 1414.31 2.70889 -1.78297 0
M  V30 14264 H 1414.09 1.96419 -3.39355 0
M  V30 14265 H 1415.58 2.88203 -3.02206 0
M  V30 14266 N 1416.02 1.56195 0.209972 0
M  V30 14267 C 1416.98 1.92514 1.24383 0
M  V30 14268 C 1417.98 0.804793 1.39211 0
M  V30 14269 O 1419.17 1.0724 1.37278 0
M  V30 14270 C 1416.3 2.18613 2.61574 0
M  V30 14271 H 1417.5 2.84992 0.933781 0
M  V30 14272 H 1415.05 1.49656 0.450878 0
M  V30 14273 H 1415.79 1.28724 2.97659 0
M  V30 14274 H 1415.57 3.00241 2.52186 0
M  V30 14275 H 1417.06 2.47767 3.36156 0
M  V30 14276 N 1417.5 -0.477127 1.50204 0
M  V30 14277 C 1418.72 -1.25775 1.6491 0
M  V30 14278 C 1419.15 -1.85187 0.329765 0
M  V30 14279 O 1418.51 -1.67004 -0.705641 0
M  V30 14280 C 1418.55 -2.3466 2.73801 0
M  V30 14281 O 1417.66 -3.39147 2.34634 0
M  V30 14282 H 1417 -0.370291 0.551163 0
M  V30 14283 H 1419.53 -0.568514 1.96543 0
M  V30 14284 H 1419.54 -2.80065 2.96695 0
M  V30 14285 H 1418.21 -1.90788 3.69557 0
M  V30 14286 H 1416.79 -2.99496 2.22163 0
M  V30 14287 N 1418.98 -1.3968 -0.729882 0
M  V30 14288 C 1420.2 -1.40467 -1.5191 0
M  V30 14289 C 1420.62 -0.000529943 -1.888 0
M  V30 14290 O 1419.98 0.972072 -1.54457 0
M  V30 14291 C 1420.03 -2.2823 -2.80345 0
M  V30 14292 O 1419.75 -3.63176 -2.4502 0
M  V30 14293 C 1421.25 -2.37455 -3.74339 0
M  V30 14294 H 1418.47 -0.479604 -0.469277 0
M  V30 14295 H 1421.01 -1.83558 -0.901484 0
M  V30 14296 H 1419.17 -1.88538 -3.38426 0
M  V30 14297 H 1419.58 -4.0964 -3.2756 0
M  V30 14298 H 1421.06 -3.031 -4.6134 0
M  V30 14299 H 1421.53 -1.39525 -4.16449 0
M  V30 14300 H 1422.14 -2.77638 -3.22176 0
M  V30 14301 N 1420.45 0.960609 -1.2494 0
M  V30 14302 C 1421.4 2.04164 -1.01493 0
M  V30 14303 C 1422.39 1.60834 0.0461124 0
M  V30 14304 O 1423.58 1.76196 -0.168491 0
M  V30 14305 C 1420.71 3.37484 -0.629251 0
M  V30 14306 C 1419.8 3.87356 -1.72674 0
M  V30 14307 N 1420.19 4.10085 -2.9608 0
M  V30 14308 C 1418.48 4.16086 -1.60589 0
M  V30 14309 C 1419.19 4.51091 -3.67276 0
M  V30 14310 N 1418.16 4.56676 -2.9487 0
M  V30 14311 H 1421.96 2.19723 -1.95189 0
M  V30 14312 H 1419.48 1.14496 -1.15171 0
M  V30 14313 H 1421.47 4.14545 -0.442484 0
M  V30 14314 H 1420.13 3.23307 0.300446 0
M  V30 14315 H 1421.15 3.97331 -3.32187 0
M  V30 14316 H 1417.82 4.10804 -0.744725 0
M  V30 14317 H 1419.21 4.77031 -4.73172 0
M  V30 14318 N 1421.93 1.0643 1.16234 0
M  V30 14319 C 1423.16 0.802644 1.90697 0
M  V30 14320 C 1423.58 -0.643145 1.77508 0
M  V30 14321 O 1422.93 -1.4404 1.12065 0
M  V30 14322 C 1422.98 1.18984 3.41358 0
M  V30 14323 O 1422.7 2.5789 3.54153 0
M  V30 14324 C 1424.21 0.956132 4.32866 0
M  V30 14325 H 1421.43 0.290891 0.604668 0
M  V30 14326 H 1423.97 1.41829 1.47325 0
M  V30 14327 H 1422.12 0.618703 3.82428 0
M  V30 14328 H 1422.54 2.73431 4.47589 0
M  V30 14329 H 1424.01 1.27667 5.37034 0
M  V30 14330 H 1424.49 -0.108062 4.39067 0
M  V30 14331 H 1425.1 1.51172 3.97526 0
M  V30 14332 N 1423.41 -1.329 0.847073 0
M  V30 14333 C 1424.64 -2.0171 0.460497 0
M  V30 14334 C 1425.05 -1.63699 -0.940649 0
M  V30 14335 O 1424.41 -0.854454 -1.61262 0
M  V30 14336 C 1424.46 -3.56799 0.581108 0
M  V30 14337 O 1424.18 -3.93442 1.92705 0
M  V30 14338 C 1425.68 -4.42882 0.192552 0
M  V30 14339 H 1422.9 -0.645887 0.181853 0
M  V30 14340 H 1425.45 -1.69648 1.14192 0
M  V30 14341 H 1423.6 -3.87364 -0.0524924 0
M  V30 14342 H 1424.02 -4.88157 1.91841 0
M  V30 14343 H 1425.49 -5.51025 0.327969 0
M  V30 14344 H 1425.97 -4.30571 -0.866315 0
M  V30 14345 H 1426.57 -4.17691 0.800918 0
M  V30 14346 N 1424.89 -0.604284 -1.45555 0
M  V30 14347 C 1425.84 0.129013 -2.32242 0
M  V30 14348 C 1426.83 0.862933 -1.45773 0
M  V30 14349 O 1428.04 0.778874 -1.62276 0
M  V30 14350 H 1424.41 0.0604661 -0.749565 0
M  V30 14351 H 1426.38 -0.620603 -2.91875 0
M  V30 14352 C 1425.13 1.11516 -3.29332 0
M  V30 14353 H 1424.45 0.559849 -3.95861 0
M  V30 14354 H 1425.89 1.59824 -3.92724 0
M  V30 14355 C 1424.35 2.18706 -2.5626 0
M  V30 14356 O 1424.88 3.26397 -2.34154 0
M  V30 14357 N 1423.09 1.93899 -2.16452 0
M  V30 14358 H 1422.64 1.0633 -2.34631 0
M  V30 14359 H 1422.59 2.65824 -1.67884 0
M  V30 14360 N 1426.37 1.53816 -0.343257 0
M  V30 14361 C 1427.28 2.28716 0.522121 0
M  V30 14362 C 1428.29 1.33815 1.11218 0
M  V30 14363 O 1429.47 1.66853 1.12793 0
M  V30 14364 C 1426.53 3.04517 1.65741 0
M  V30 14365 C 1425.59 4.15043 1.09716 0
M  V30 14366 C 1424.83 4.8722 2.17835 0
M  V30 14367 O 1425.05 4.59065 3.38549 0
M  V30 14368 O 1423.98 5.73678 1.82145 0
M  V30 14369 H 1427.81 3.03576 -0.086732 0
M  V30 14370 H 1425.4 1.49007 -0.108313 0
M  V30 14371 H 1427.28 3.51921 2.31796 0
M  V30 14372 H 1425.95 2.32514 2.25208 0
M  V30 14373 H 1424.86 3.71943 0.401152 0
M  V30 14374 H 1426.19 4.89147 0.547362 0
M  V30 14375 N 1427.84 0.0718701 1.57436 0
M  V30 14376 C 1429.09 -0.596052 1.9311 0
M  V30 14377 C 1429.41 -1.70146 0.952652 0
M  V30 14378 O 1428.68 -1.959 0.000812941 0
M  V30 14379 H 1427.26 -0.223165 0.712886 0
M  V30 14380 H 1429.93 0.129744 1.94468 0
M  V30 14381 H 1429.02 -1.02132 2.94916 0
M  V30 14382 N 1429.32 -1.56304 -0.201686 0
M  V30 14383 C 1430.57 -1.79433 -0.921241 0
M  V30 14384 C 1430.88 -0.643943 -1.84696 0
M  V30 14385 O 1432.09 -0.759359 -2.60665 0
M  V30 14386 C 1430.55 -3.17835 -1.68846 0
M  V30 14387 C 1430.15 -4.40655 -0.807892 0
M  V30 14388 C 1431.9 -3.50277 -2.39805 0
M  V30 14389 C 1429.81 -5.7008 -1.5736 0
M  V30 14390 H 1428.74 -0.669029 -0.34773 0
M  V30 14391 H 1431.39 -1.82667 -0.174657 0
M  V30 14392 H 1429.77 -3.08832 -2.47869 0
M  V30 14393 H 1430.94 -4.60765 -0.0567923 0
M  V30 14394 H 1429.26 -4.15873 -0.209465 0
M  V30 14395 H 1431.85 -4.44207 -2.97631 0
M  V30 14396 H 1432.2 -2.7371 -3.1367 0
M  V30 14397 H 1432.73 -3.60698 -1.67754 0
M  V30 14398 H 1429.47 -6.49595 -0.877855 0
M  V30 14399 H 1428.99 -5.53999 -2.2988 0
M  V30 14400 H 1430.67 -6.10964 -2.12912 0
M  V30 14401 N 1430.8 0.469154 -1.50455 0
M  V30 14402 C 1432.05 1.22109 -1.61541 0
M  V30 14403 C 1432.38 1.91905 -0.316646 0
M  V30 14404 O 1431.63 1.82845 0.697585 0
M  V30 14405 C 1431.93 2.28673 -2.7467 0
M  V30 14406 C 1431.6 1.76115 -4.15083 0
M  V30 14407 C 1430.26 1.61503 -4.53288 0
M  V30 14408 C 1432.61 1.37145 -5.02833 0
M  V30 14409 C 1429.94 1.06346 -5.76981 0
M  V30 14410 C 1432.29 0.834294 -6.27074 0
M  V30 14411 C 1430.95 0.674814 -6.6408 0
M  V30 14412 H 1430.22 0.44683 -0.591121 0
M  V30 14413 H 1432.87 0.516821 -1.84394 0
M  V30 14414 H 1431.18 3.05015 -2.45912 0
M  V30 14415 H 1432.87 2.86615 -2.80451 0
M  V30 14416 H 1429.46 1.88457 -3.84944 0
M  V30 14417 H 1433.65 1.47268 -4.73947 0
M  V30 14418 H 1428.9 0.927377 -6.04326 0
M  V30 14419 H 1433.08 0.523676 -6.94428 0
M  V30 14420 H 1430.7 0.245264 -7.59804 0
M  V30 14421 N 1432.28 1.40065 0.722464 0
M  V30 14422 C 1433.5 1.4146 1.5167 0
M  V30 14423 C 1433.93 0.0142653 1.88095 0
M  V30 14424 O 1433.29 -0.975934 1.52791 0
M  V30 14425 C 1433.33 2.30531 2.77287 0
M  V30 14426 O 1432.44 1.74382 3.73717 0
M  V30 14427 H 1431.78 0.481194 0.457546 0
M  V30 14428 H 1434.31 1.84213 0.890331 0
M  V30 14429 H 1434.32 2.45479 3.25889 0
M  V30 14430 H 1432.99 3.32292 2.50109 0
M  V30 14431 H 1431.57 1.68743 3.32536 0
M  V30 14432 N 1433.76 -0.95397 1.25448 0
M  V30 14433 C 1435.17 -1.51337 1.09335 0
M  V30 14434 C 1435.52 -1.93393 -0.330698 0
M  V30 14435 O 1434.64 -1.78681 -1.22074 0
M  V30 14436 C 1435.24 -2.75024 1.97857 0
M  V30 14437 C 1433.8 -3.27274 1.85927 0
M  V30 14438 C 1432.95 -2.00108 1.91969 0
M  V30 14439 H 1435.9 -0.770795 1.38724 0
M  V30 14440 H 1435.92 -3.48867 1.51894 0
M  V30 14441 H 1435.43 -2.44383 3.01494 0
M  V30 14442 H 1433.53 -3.62734 0.851767 0
M  V30 14443 H 1433.64 -3.95245 2.70773 0
M  V30 14444 H 1432.01 -2.15438 1.35862 0
M  V30 14445 H 1432.79 -1.71816 2.97211 0
M  V30 14446 N 1435.24 -1.07045 -1.15668 0
M  V30 14447 C 1436.46 -0.812746 -1.90268 0
M  V30 14448 C 1436.88 0.633722 -1.77847 0
M  V30 14449 O 1436.24 1.43444 -1.12828 0
M  V30 14450 C 1436.29 -1.20793 -3.40722 0
M  V30 14451 O 1436.01 -2.59764 -3.52781 0
M  V30 14452 C 1437.51 -0.979074 -4.32353 0
M  V30 14453 H 1434.73 -0.294093 -0.603117 0
M  V30 14454 H 1437.27 -1.42609 -1.46571 0
M  V30 14455 H 1435.43 -0.638975 -3.82094 0
M  V30 14456 H 1435.84 -2.75801 -4.46133 0
M  V30 14457 H 1437.32 -1.30513 -5.36349 0
M  V30 14458 H 1437.79 0.0847752 -4.39118 0
M  V30 14459 H 1438.4 -1.53278 -3.96719 0
M  V30 14460 N 1436.71 1.32449 -0.85411 0
M  V30 14461 C 1438.12 1.79545 -0.511923 0
M  V30 14462 C 1438.48 1.70534 0.970188 0
M  V30 14463 O 1437.6 1.2636 1.75676 0
M  V30 14464 C 1438.2 3.26 -0.922456 0
M  V30 14465 C 1436.75 3.71053 -0.632176 0
M  V30 14466 C 1435.9 2.53565 -1.12249 0
M  V30 14467 H 1438.85 1.19755 -1.04137 0
M  V30 14468 H 1438.87 3.79751 -0.238618 0
M  V30 14469 H 1438.39 3.32526 -2.00119 0
M  V30 14470 H 1436.49 3.70042 0.435862 0
M  V30 14471 H 1436.6 4.63878 -1.19809 0
M  V30 14472 H 1434.96 2.48849 -0.542781 0
M  V30 14473 H 1435.75 2.62846 -2.20832 0
M  V30 14474 N 1438.19 0.611994 1.45232 0
M  V30 14475 C 1439.44 0.108696 2.01807 0
M  V30 14476 C 1439.76 -1.26692 1.48237 0
M  V30 14477 O 1439.03 -1.8378 0.678368 0
M  V30 14478 H 1437.61 0.0371921 0.746074 0
M  V30 14479 H 1440.27 0.794386 1.77976 0
M  V30 14480 H 1439.37 0.0618207 3.12039 0
M  V30 14481 N 1439.67 -1.53632 0.351409 0
M  V30 14482 C 1440.58 -2.2899 -0.509985 0
M  V30 14483 C 1441.6 -1.34403 -1.10507 0
M  V30 14484 O 1442.77 -1.67448 -1.11906 0
M  V30 14485 C 1439.84 -3.05392 -1.64124 0
M  V30 14486 C 1438.9 -4.15619 -1.07514 0
M  V30 14487 C 1438.13 -4.88369 -2.15248 0
M  V30 14488 O 1438.35 -4.60854 -3.3611 0
M  V30 14489 O 1437.29 -5.74636 -1.79101 0
M  V30 14490 H 1441.11 -3.03526 0.10283 0
M  V30 14491 H 1438.7 -1.48947 0.116214 0
M  V30 14492 H 1440.58 -3.53146 -2.29926 0
M  V30 14493 H 1439.26 -2.33705 -2.23972 0
M  V30 14494 H 1438.16 -3.7215 -0.381421 0
M  V30 14495 H 1439.5 -4.8943 -0.521413 0
M  V30 14496 N 1441.15 -0.0802183 -1.57396 0
M  V30 14497 C 1442.08 0.881426 -2.16225 0
M  V30 14498 C 1443.06 1.30459 -1.09154 0
M  V30 14499 O 1444.24 1.37413 -1.37227 0
M  V30 14500 C 1441.37 2.14599 -2.73065 0
M  V30 14501 C 1440.33 1.86195 -3.85377 0
M  V30 14502 C 1439.65 3.19354 -4.28856 0
M  V30 14503 C 1440.95 1.16059 -5.09242 0
M  V30 14504 H 1442.65 0.391325 -2.96832 0
M  V30 14505 H 1440.19 0.186785 -1.42783 0
M  V30 14506 H 1442.15 2.82297 -3.12868 0
M  V30 14507 H 1440.87 2.65866 -1.89691 0
M  V30 14508 H 1439.53 1.209 -3.46091 0
M  V30 14509 H 1439.18 3.68479 -3.42392 0
M  V30 14510 H 1438.88 3.01137 -5.04569 0
M  V30 14511 H 1440.4 3.88235 -4.71281 0
M  V30 14512 H 1441.82 1.7384 -5.46308 0
M  V30 14513 H 1440.21 1.08072 -5.90288 0
M  V30 14514 H 1441.28 0.14098 -4.84695 0
M  V30 14515 N 1442.63 1.56409 0.193394 0
M  V30 14516 C 1443.87 1.80367 0.911717 0
M  V30 14517 C 1444.19 0.653561 1.83721 0
M  V30 14518 O 1443.46 -0.328001 1.93135 0
M  V30 14519 H 1442.04 0.665316 0.339652 0
M  V30 14520 H 1444.71 1.93887 0.198496 0
M  V30 14521 H 1443.8 2.7359 1.50182 0
M  V30 14522 N 1444.1 -0.461169 1.50702 0
M  V30 14523 C 1445.35 -1.21251 1.62186 0
M  V30 14524 C 1445.68 -1.91735 0.326818 0
M  V30 14525 O 1444.93 -1.83212 -0.687879 0
M  V30 14526 C 1445.23 -2.27213 2.75879 0
M  V30 14527 C 1444.9 -1.73912 4.16011 0
M  V30 14528 C 1443.56 -1.59097 4.54138 0
M  V30 14529 C 1445.91 -1.34477 5.03553 0
M  V30 14530 C 1443.24 -1.03285 5.77537 0
M  V30 14531 C 1445.59 -0.801027 6.27508 0
M  V30 14532 C 1444.26 -0.639586 6.64429 0
M  V30 14533 H 1443.53 -0.443689 0.593482 0
M  V30 14534 H 1446.17 -0.507035 1.84666 0
M  V30 14535 H 1444.48 -3.03707 2.47526 0
M  V30 14536 H 1446.18 -2.85124 2.81967 0
M  V30 14537 H 1442.77 -1.86413 3.85938 0
M  V30 14538 H 1446.95 -1.44753 4.74721 0
M  V30 14539 H 1442.21 -0.895316 6.04809 0
M  V30 14540 H 1446.38 -0.486842 6.94696 0
M  V30 14541 H 1444.01 -0.204966 7.59924 0
M  V30 14542 N 1445.58 -1.40446 -0.715026 0
M  V30 14543 C 1446.81 -1.42263 -1.50917 0
M  V30 14544 C 1447.23 -0.0242402 -1.88084 0
M  V30 14545 O 1446.59 0.967817 -1.53307 0
M  V30 14546 C 1446.64 -2.31998 -2.7606 0
M  V30 14547 O 1445.74 -1.76361 -3.72787 0
M  V30 14548 H 1445.08 -0.483614 -0.454988 0
M  V30 14549 H 1447.61 -1.84682 -0.880549 0
M  V30 14550 H 1447.62 -2.47204 -3.24583 0
M  V30 14551 H 1446.3 -3.33614 -2.48343 0
M  V30 14552 H 1444.87 -1.70504 -3.31636 0
M  V30 14553 N 1447.06 0.947303 -1.25952 0
M  V30 14554 C 1448.28 1.73261 -1.13997 0
M  V30 14555 C 1448.71 1.85666 0.301639 0
M  V30 14556 O 1448.07 1.34244 1.21854 0
M  V30 14557 C 1448.12 3.12046 -1.8072 0
M  V30 14558 O 1447.22 3.97684 -1.09182 0
M  V30 14559 H 1446.56 0.53182 -0.397572 0
M  V30 14560 H 1449.09 1.18689 -1.66656 0
M  V30 14561 H 1449.1 3.62468 -1.87299 0
M  V30 14562 H 1447.78 3.02334 -2.856 0
M  V30 14563 H 1446.35 3.56141 -1.10536 0
M  V30 14564 N 1448.54 1.07657 1.15099 0
M  V30 14565 C 1449.79 0.801609 1.85958 0
M  V30 14566 C 1450.11 -0.672415 1.82507 0
M  V30 14567 O 1449.37 -1.50958 1.2454 0
M  V30 14568 C 1449.67 1.25903 3.3449 0
M  V30 14569 C 1449.33 2.73954 3.58134 0
M  V30 14570 C 1448 3.14392 3.64296 0
M  V30 14571 C 1450.35 3.69502 3.67584 0
M  V30 14572 C 1447.68 4.49187 3.77422 0
M  V30 14573 C 1450.03 5.04063 3.82235 0
M  V30 14574 C 1448.69 5.44117 3.86643 0
M  V30 14575 H 1447.96 0.293329 0.68047 0
M  V30 14576 H 1450.61 1.34814 1.36005 0
M  V30 14577 H 1448.91 0.631943 3.8667 0
M  V30 14578 H 1450.61 1.02314 3.87728 0
M  V30 14579 H 1447.2 2.41652 3.53981 0
M  V30 14580 H 1451.38 3.39385 3.62121 0
M  V30 14581 H 1446.64 4.79685 3.79094 0
M  V30 14582 H 1450.81 5.7797 3.88489 0
M  V30 14583 H 1448.44 6.48567 3.96567 0
M  V30 14584 N 1450.02 -1.31994 0.861122 0
M  V30 14585 C 1450.97 -2.26248 0.282123 0
M  V30 14586 C 1451.95 -1.50246 -0.57575 0
M  V30 14587 O 1453.14 -1.71845 -0.424075 0
M  V30 14588 C 1450.27 -3.39293 -0.523011 0
M  V30 14589 C 1449.36 -4.22673 0.34761 0
M  V30 14590 N 1449.75 -4.8496 1.43692 0
M  V30 14591 C 1448.05 -4.45785 0.138488 0
M  V30 14592 C 1448.75 -5.47215 1.97307 0
M  V30 14593 N 1447.72 -5.28525 1.27132 0
M  V30 14594 H 1451.53 -2.71936 1.11481 0
M  V30 14595 H 1449.04 -1.46158 0.707928 0
M  V30 14596 H 1451.04 -4.05832 -0.954269 0
M  V30 14597 H 1449.7 -2.95149 -1.35341 0
M  V30 14598 H 1450.71 -4.84873 1.81985 0
M  V30 14599 H 1447.38 -4.12303 -0.656677 0
M  V30 14600 H 1448.77 -6.06737 2.88652 0
M  V30 14601 N 1451.49 -0.619688 -1.44906 0
M  V30 14602 C 1452.91 -0.284338 -1.57047 0
M  V30 14603 C 1453.11 1.21284 -1.60911 0
M  V30 14604 O 1452.17 1.99642 -1.54594 0
M  V30 14605 C 1453.48 -0.966179 -2.84755 0
M  V30 14606 C 1455.03 -0.943239 -2.98449 0
M  V30 14607 C 1455.5 -1.60532 -4.28945 0
M  V30 14608 N 1456.99 -1.57138 -4.35732 0
M  V30 14609 C 1457.73 -2.05271 -5.35399 0
M  V30 14610 N 1457.22 -2.61543 -6.41535 0
M  V30 14611 N 1459.02 -1.95967 -5.26833 0
M  V30 14612 H 1451.17 -1.59167 -1.40641 0
M  V30 14613 H 1453.43 -0.667458 -0.673204 0
M  V30 14614 H 1453.14 -2.02086 -2.87844 0
M  V30 14615 H 1453.01 -0.49688 -3.73913 0
M  V30 14616 H 1455.4 0.102932 -2.9492 0
M  V30 14617 H 1455.48 -1.45092 -2.1067 0
M  V30 14618 H 1455.12 -2.65088 -4.33233 0
M  V30 14619 H 1455.05 -1.07256 -5.15561 0
M  V30 14620 H 1457.54 -1.16042 -3.59643 0
M  V30 14621 H 1457.86 -2.96033 -7.13852 0
M  V30 14622 H 1456.2 -2.65588 -6.42252 0
M  V30 14623 H 1459.39 -1.51734 -4.42825 0
M  V30 14624 H 1459.57 -2.33791 -6.04356 0
M  V30 14625 N 1452.97 1.53444 -0.359552 0
M  V30 14626 C 1453.9 2.28475 0.4818 0
M  V30 14627 C 1454.88 1.30664 1.08908 0
M  V30 14628 O 1456.07 1.59527 1.10746 0
M  V30 14629 C 1453.2 3.06951 1.62477 0
M  V30 14630 C 1452.15 4.12399 1.14504 0
M  V30 14631 C 1451.48 4.78922 2.37777 0
M  V30 14632 C 1452.78 5.21775 0.234075 0
M  V30 14633 H 1454.47 2.99053 -0.144162 0
M  V30 14634 H 1452.02 1.43826 -0.0707746 0
M  V30 14635 H 1453.97 3.58186 2.21993 0
M  V30 14636 H 1452.7 2.34053 2.27787 0
M  V30 14637 H 1451.35 3.62101 0.572589 0
M  V30 14638 H 1451 4.02602 3.0153 0
M  V30 14639 H 1450.7 5.50175 2.06353 0
M  V30 14640 H 1452.23 5.32948 2.97991 0
M  V30 14641 H 1453.64 5.68549 0.736548 0
M  V30 14642 H 1452.04 6.00099 0.0109887 0
M  V30 14643 H 1453.11 4.79443 -0.725435 0
M  V30 14644 N 1454.45 0.0885642 1.57351 0
M  V30 14645 C 1455.38 -0.869946 2.16689 0
M  V30 14646 C 1456.36 -1.29878 1.09844 0
M  V30 14647 O 1457.55 -1.36684 1.37954 0
M  V30 14648 C 1454.68 -2.13148 2.74199 0
M  V30 14649 C 1453.63 -1.84149 3.86359 0
M  V30 14650 C 1452.96 -3.17075 4.30543 0
M  V30 14651 C 1454.26 -1.13357 5.09851 0
M  V30 14652 H 1455.95 -0.375578 2.97035 0
M  V30 14653 H 1453.5 -0.17921 1.42881 0
M  V30 14654 H 1455.45 -2.80634 3.14361 0
M  V30 14655 H 1454.17 -2.64856 1.91098 0
M  V30 14656 H 1452.83 -1.19063 3.46727 0
M  V30 14657 H 1452.48 -3.66658 3.44342 0
M  V30 14658 H 1452.18 -2.98457 5.06159 0
M  V30 14659 H 1453.7 -3.85731 4.73333 0
M  V30 14660 H 1455.12 -1.70941 5.47222 0
M  V30 14661 H 1453.52 -1.0494 5.90853 0
M  V30 14662 H 1454.59 -0.115273 4.84763 0
M  V30 14663 N 1455.93 -1.56509 -0.185096 0
M  V30 14664 C 1457.15 -1.85683 -0.923941 0
M  V30 14665 C 1457.58 -0.673315 -1.75636 0
M  V30 14666 O 1456.94 0.3778 -1.7732 0
M  V30 14667 C 1456.98 -3.13165 -1.78774 0
M  V30 14668 O 1456.09 -2.9442 -2.88775 0
M  V30 14669 H 1455.43 -0.611139 -0.259624 0
M  V30 14670 H 1457.96 -2.0374 -0.187393 0
M  V30 14671 H 1457.97 -3.44216 -2.19042 0
M  V30 14672 H 1456.64 -3.98922 -1.17619 0
M  V30 14673 H 1455.22 -2.7469 -2.5219 0
M  V30 14674 N 1457.41 0.45317 -1.50944 0
M  V30 14675 C 1458.65 1.20151 -1.62506 0
M  V30 14676 C 1458.98 1.92085 -0.335927 0
M  V30 14677 O 1458.25 1.84889 0.64751 0
M  V30 14678 H 1456.83 0.446502 -0.59887 0
M  V30 14679 H 1459.49 0.521103 -1.87804 0
M  V30 14680 H 1458.58 1.93972 -2.44502 0
M  V30 14681 N 1458.88 1.40823 0.707568 0
M  V30 14682 C 1460.3 1.35249 1.28704 0
M  V30 14683 C 1460.65 0.0298026 1.96177 0
M  V30 14684 O 1459.77 -0.872126 1.98048 0
M  V30 14685 C 1460.37 2.44965 2.34046 0
M  V30 14686 C 1458.93 2.42826 2.87598 0
M  V30 14687 C 1458.07 2.25429 1.61483 0
M  V30 14688 H 1461.02 1.50513 0.503141 0
M  V30 14689 H 1461.04 2.13334 3.1507 0
M  V30 14690 H 1460.56 3.41219 1.84908 0
M  V30 14691 H 1458.66 1.50294 3.40944 0
M  V30 14692 H 1458.77 3.38704 3.38845 0
M  V30 14693 H 1457.13 1.73089 1.86848 0
M  V30 14694 H 1457.92 3.23693 1.14359 0
M  V30 14695 N 1460.36 -0.94061 1.26453 0
M  V30 14696 C 1461.59 -1.71874 1.14643 0
M  V30 14697 C 1462 -1.86791 -0.300969 0
M  V30 14698 O 1461.34 -1.37529 -1.21784 0
M  V30 14699 C 1461.41 -3.14408 1.74321 0
M  V30 14700 C 1461.07 -3.22873 3.23422 0
M  V30 14701 C 1462.07 -3.06107 4.20231 0
M  V30 14702 C 1459.75 -3.46245 3.63895 0
M  V30 14703 C 1461.75 -3.12581 5.55492 0
M  V30 14704 C 1459.43 -3.52354 4.99289 0
M  V30 14705 C 1460.43 -3.35539 5.94897 0
M  V30 14706 O 1460.12 -3.41357 7.27826 0
M  V30 14707 H 1459.85 -0.544931 0.400033 0
M  V30 14708 H 1462.4 -1.18767 1.67581 0
M  V30 14709 H 1460.63 -3.6894 1.15846 0
M  V30 14710 H 1462.32 -3.74135 1.57409 0
M  V30 14711 H 1463.09 -2.87906 3.90302 0
M  V30 14712 H 1458.97 -3.58389 2.89962 0
M  V30 14713 H 1462.51 -2.99374 6.30096 0
M  V30 14714 H 1458.41 -3.70077 5.2888 0
M  V30 14715 H 1459.18 -3.57897 7.36106 0
M  V30 14716 N 1461.84 -1.08266 -1.14527 0
M  V30 14717 C 1463.09 -0.811459 -1.85531 0
M  V30 14718 C 1463.42 0.662726 -1.82861 0
M  V30 14719 O 1462.67 1.50296 -1.25338 0
M  V30 14720 C 1462.97 -1.27675 -3.33817 0
M  V30 14721 C 1462.64 -2.7585 -3.56676 0
M  V30 14722 C 1461.3 -3.16319 -3.62623 0
M  V30 14723 C 1463.65 -3.71446 -3.65619 0
M  V30 14724 C 1460.98 -4.51183 -3.75035 0
M  V30 14725 C 1463.33 -5.06083 -3.79556 0
M  V30 14726 C 1461.99 -5.4616 -3.83752 0
M  V30 14727 H 1461.26 -0.296934 -0.678904 0
M  V30 14728 H 1463.91 -1.35533 -1.35288 0
M  V30 14729 H 1462.22 -0.65244 -3.86329 0
M  V30 14730 H 1463.91 -1.04369 -3.8718 0
M  V30 14731 H 1460.5 -2.43526 -3.52694 0
M  V30 14732 H 1464.69 -3.41301 -3.60316 0
M  V30 14733 H 1459.94 -4.81689 -3.76545 0
M  V30 14734 H 1464.12 -5.80022 -3.85418 0
M  V30 14735 H 1461.74 -6.50661 -3.93121 0
M  V30 14736 N 1463.32 1.31536 -0.86811 0
M  V30 14737 C 1464.57 1.97456 -0.488147 0
M  V30 14738 C 1464.92 1.67384 0.948709 0
M  V30 14739 O 1464.21 0.958924 1.65877 0
M  V30 14740 C 1464.41 3.50876 -0.679752 0
M  V30 14741 C 1464.24 3.95859 -2.13368 0
M  V30 14742 C 1463.01 4.22288 -2.77491 0
M  V30 14743 C 1465.2 4.09936 -3.10575 0
M  V30 14744 N 1463.19 4.53611 -4.13655 0
M  V30 14745 C 1464.56 4.44949 -4.31764 0
M  V30 14746 C 1466.61 3.92309 -3.06591 0
M  V30 14747 C 1465.32 4.64176 -5.49485 0
M  V30 14748 C 1467.34 4.12728 -4.23568 0
M  V30 14749 C 1466.7 4.48071 -5.43518 0
M  V30 14750 H 1462.8 0.748137 -0.227628 0
M  V30 14751 H 1465.39 1.59098 -1.12232 0
M  V30 14752 H 1463.56 3.88327 -0.0751875 0
M  V30 14753 H 1465.29 4.03809 -0.26836 0
M  V30 14754 H 1462.04 4.14858 -2.28451 0
M  V30 14755 H 1462.47 4.73435 -4.8393 0
M  V30 14756 H 1467.11 3.64075 -2.14964 0
M  V30 14757 H 1464.83 4.91259 -6.41631 0
M  V30 14758 H 1468.41 4.00577 -4.21935 0
M  V30 14759 H 1467.29 4.6355 -6.32527 0
M  V30 14760 N 1464.8 0.627364 1.44575 0
M  V30 14761 C 1466.02 0.135576 2.06956 0
M  V30 14762 C 1466.45 -1.17922 1.46547 0
M  V30 14763 O 1465.81 -1.72255 0.565509 0
M  V30 14764 C 1465.85 0.030347 3.60587 0
M  V30 14765 O 1464.96 -1.01464 3.99724 0
M  V30 14766 H 1464.3 0.083058 0.658785 0
M  V30 14767 H 1466.83 0.862977 1.8551 0
M  V30 14768 H 1466.84 -0.161461 4.0768 0
M  V30 14769 H 1465.51 0.990285 4.03938 0
M  V30 14770 H 1464.09 -0.797701 3.64268 0
M  V30 14771 N 1466.28 -1.53251 0.367684 0
M  V30 14772 C 1467.21 -2.28728 -0.469676 0
M  V30 14773 C 1468.19 -1.3124 -1.08213 0
M  V30 14774 O 1469.37 -1.60112 -1.09898 0
M  V30 14775 C 1466.5 -3.07808 -1.60846 0
M  V30 14776 C 1465.46 -4.13 -1.12315 0
M  V30 14777 C 1464.78 -4.80176 -2.35234 0
M  V30 14778 C 1466.08 -5.21892 -0.2064 0
M  V30 14779 H 1467.78 -2.98972 0.160019 0
M  V30 14780 H 1465.32 -1.43786 0.0784011 0
M  V30 14781 H 1467.27 -3.59358 -2.20091 0
M  V30 14782 H 1466 -2.35258 -2.26542 0
M  V30 14783 H 1464.66 -3.62399 -0.553378 0
M  V30 14784 H 1464.31 -4.04196 -2.99391 0
M  V30 14785 H 1464.01 -5.51261 -2.03433 0
M  V30 14786 H 1465.53 -5.34521 -2.9516 0
M  V30 14787 H 1466.94 -5.68932 -0.706386 0
M  V30 14788 H 1465.34 -6.00096 0.0208362 0
M  V30 14789 H 1466.41 -4.79051 0.750851 0
M  V30 14790 N 1467.75 -0.0969077 -1.57302 0
M  V30 14791 C 1469.16 0.431942 -1.81635 0
M  V30 14792 C 1469.52 1.68047 -1.01264 0
M  V30 14793 O 1468.64 2.15036 -0.24256 0
M  V30 14794 C 1469.24 0.790426 -3.29451 0
M  V30 14795 C 1467.79 1.26401 -3.54542 0
M  V30 14796 C 1466.94 0.26158 -2.76063 0
M  V30 14797 H 1469.89 -0.322328 -1.55392 0
M  V30 14798 H 1469.91 1.64981 -3.42873 0
M  V30 14799 H 1469.43 -0.118463 -3.87919 0
M  V30 14800 H 1467.53 2.19055 -3.01406 0
M  V30 14801 H 1467.64 1.22459 -4.63185 0
M  V30 14802 H 1466 0.7441 -2.43588 0
M  V30 14803 H 1466.79 -0.640018 -3.37281 0
M  V30 14804 N 1469.23 1.56605 0.176793 0
M  V30 14805 C 1470.46 1.8617 0.91408 0
M  V30 14806 C 1470.88 0.68262 1.75277 0
M  V30 14807 O 1470.24 -0.368391 1.77518 0
M  V30 14808 C 1470.29 3.14109 1.7711 0
M  V30 14809 O 1469.39 2.95947 2.87209 0
M  V30 14810 H 1468.73 0.612507 0.25638 0
M  V30 14811 H 1471.26 2.03837 0.176586 0
M  V30 14812 H 1471.27 3.45373 2.17213 0
M  V30 14813 H 1469.95 3.9954 1.15502 0
M  V30 14814 H 1468.52 2.76024 2.50729 0
M  V30 14815 N 1470.71 -0.445159 1.51182 0
M  V30 14816 C 1472.13 -0.781023 1.39184 0
M  V30 14817 C 1472.33 -1.95988 0.468076 0
M  V30 14818 O 1471.38 -2.52374 -0.0796822 0
M  V30 14819 C 1472.69 -1.06874 2.81067 0
M  V30 14820 C 1474.24 -1.17364 2.90163 0
M  V30 14821 C 1474.72 -1.49433 4.32936 0
M  V30 14822 N 1476.21 -1.56373 4.36006 0
M  V30 14823 C 1476.94 -1.82743 5.435 0
M  V30 14824 N 1476.44 -2.06958 6.61166 0
M  V30 14825 N 1478.23 -1.84461 5.30971 0
M  V30 14826 H 1470.38 0.331347 2.098 0
M  V30 14827 H 1472.65 0.0858102 0.944108 0
M  V30 14828 H 1472.35 -0.275306 3.50621 0
M  V30 14829 H 1472.23 -1.99839 3.19913 0
M  V30 14830 H 1474.61 -1.95771 2.20812 0
M  V30 14831 H 1474.69 -0.22318 2.54825 0
M  V30 14832 H 1474.34 -0.715573 5.02834 0
M  V30 14833 H 1474.27 -2.45673 4.65782 0
M  V30 14834 H 1476.76 -1.39595 3.51172 0
M  V30 14835 H 1477.07 -2.26427 7.38885 0
M  V30 14836 H 1475.42 -2.04297 6.64295 0
M  V30 14837 H 1478.61 -1.65057 4.38034 0
M  V30 14838 H 1478.78 -2.04675 6.14827 0
M  V30 14839 N 1472.19 -1.41197 -0.700089 0
M  V30 14840 C 1473.43 -1.40311 -1.46011 0
M  V30 14841 C 1473.76 -0.0106853 -1.94497 0
M  V30 14842 O 1473.02 0.976648 -1.69588 0
M  V30 14843 C 1473.32 -2.35259 -2.6905 0
M  V30 14844 C 1472.98 -3.82194 -2.39245 0
M  V30 14845 C 1471.64 -4.22223 -2.30827 0
M  V30 14846 C 1474 -4.74983 -2.1457 0
M  V30 14847 C 1471.32 -5.53055 -1.95824 0
M  V30 14848 C 1473.68 -6.0613 -1.81077 0
M  V30 14849 C 1472.34 -6.45185 -1.71151 0
M  V30 14850 H 1471.61 -0.513434 -0.534291 0
M  V30 14851 H 1474.26 -1.73963 -0.800574 0
M  V30 14852 H 1472.56 -1.94845 -3.39915 0
M  V30 14853 H 1474.26 -2.31849 -3.2718 0
M  V30 14854 H 1470.85 -3.50488 -2.4669 0
M  V30 14855 H 1475.03 -4.44864 -2.20021 0
M  V30 14856 H 1470.29 -5.822 -1.86689 0
M  V30 14857 H 1474.46 -6.77533 -1.61002 0
M  V30 14858 H 1472.09 -7.46476 -1.43796 0
M  V30 14859 N 1473.67 0.933891 -1.2695 0
M  V30 14860 C 1474.6 2.05078 -1.11649 0
M  V30 14861 C 1475.58 1.70089 -0.0196463 0
M  V30 14862 O 1476.76 1.93239 -0.193007 0
M  V30 14863 C 1473.89 3.38963 -0.756387 0
M  V30 14864 C 1472.85 3.88041 -1.80577 0
M  V30 14865 C 1472.17 5.18661 -1.2998 0
M  V30 14866 C 1473.47 4.12116 -3.2087 0
M  V30 14867 H 1475.17 2.18137 -2.05077 0
M  V30 14868 H 1472.71 1.04817 -0.987392 0
M  V30 14869 H 1474.66 4.1657 -0.63619 0
M  V30 14870 H 1473.39 3.25901 0.213607 0
M  V30 14871 H 1472.05 3.12622 -1.91477 0
M  V30 14872 H 1471.7 5.01985 -0.319442 0
M  V30 14873 H 1471.4 5.52467 -2.00134 0
M  V30 14874 H 1472.92 5.98844 -1.19242 0
M  V30 14875 H 1474.33 4.80312 -3.13006 0
M  V30 14876 H 1472.73 4.57218 -3.88679 0
M  V30 14877 H 1473.8 3.17633 -3.66384 0
M  V30 14878 N 1475.14 1.08871 1.13951 0
M  V30 14879 C 1476.39 0.819665 1.84732 0
M  V30 14880 C 1476.71 -0.656535 1.83615 0
M  V30 14881 O 1475.98 -1.47614 1.28791 0
M  V30 14882 H 1474.56 0.30023 0.684011 0
M  V30 14883 H 1477.22 1.37568 1.38062 0
M  V30 14884 H 1476.32 1.16809 2.89417 0
M  V30 14885 N 1476.62 -1.31073 0.875073 0
M  V30 14886 C 1477.9 -1.91276 0.409015 0
M  V30 14887 C 1478.28 -1.79599 -1.10939 0
M  V30 14888 O 1477.63 -1.2069 -1.94026 0
M  V30 14889 C 1477.84 -3.373 0.896074 0
M  V30 14890 C 1479.18 -4.14397 0.925205 0
M  V30 14891 O 1480.21 -3.46104 0.842069 0
M  V30 14892 O 1479.07 -5.36389 1.0464 0
M  V30 14893 H 1476.16 -0.817755 0.12331 0
M  V30 14894 H 1478.71 -1.39708 0.963322 0
M  V30 14895 H 1477.48 -3.39837 1.93975 0
M  V30 14896 H 1477.1 -3.96307 0.320367 0
M  V30 14897 N 1478.1 -0.635022 -1.4424 0
M  V30 14898 C 1479.05 0.0675707 -2.30701 0
M  V30 14899 C 1480.02 0.832919 -1.43707 0
M  V30 14900 O 1481.2 0.813177 -1.72604 0
M  V30 14901 C 1478.34 1.04053 -3.2904 0
M  V30 14902 C 1477.46 0.273191 -4.31135 0
M  V30 14903 C 1476.59 1.23831 -5.16565 0
M  V30 14904 C 1475.63 0.460359 -6.10366 0
M  V30 14905 N 1474.77 1.37614 -6.88481 0
M  V30 14906 H 1479.61 -0.675656 -2.90239 0
M  V30 14907 H 1477.14 -0.344971 -1.42998 0
M  V30 14908 H 1479.1 1.61805 -3.84545 0
M  V30 14909 H 1477.73 1.75084 -2.71193 0
M  V30 14910 H 1476.78 -0.420315 -3.78071 0
M  V30 14911 H 1478.1 -0.332548 -4.9769 0
M  V30 14912 H 1477.25 1.88704 -5.76607 0
M  V30 14913 H 1475.99 1.87797 -4.50093 0
M  V30 14914 H 1474.99 -0.201836 -5.49429 0
M  V30 14915 H 1476.22 -0.174639 -6.78875 0
M  V30 14916 H 1474.16 2.00294 -6.24675 0
M  V30 14917 H 1474.08 0.82452 -7.5149 0
M  V30 14918 H 1475.35 2.01359 -7.53044 0
M  V30 14919 N 1479.58 1.53054 -0.375806 0
M  V30 14920 C 1480.82 2.017 0.210985 0
M  V30 14921 C 1481.16 1.26228 1.47581 0
M  V30 14922 O 1480.43 0.358869 1.91161 0
M  V30 14923 C 1480.72 3.56715 0.492596 0
M  V30 14924 C 1480.57 4.42869 -0.786573 0
M  V30 14925 C 1481.89 4.20803 1.28891 0
M  V30 14926 H 1479.01 0.733153 0.0752084 0
M  V30 14927 H 1481.65 1.83229 -0.502715 0
M  V30 14928 H 1479.8 3.72585 1.10059 0
M  V30 14929 H 1481.47 4.38777 -1.42381 0
M  V30 14930 H 1479.71 4.10425 -1.40478 0
M  V30 14931 H 1480.38 5.49309 -0.544354 0
M  V30 14932 H 1482.86 4.08828 0.774498 0
M  V30 14933 H 1481.74 5.29273 1.45469 0
M  V30 14934 H 1482 3.77541 2.30033 0
M  V30 14935 N 1481.06 0.105248 1.57248 0
M  V30 14936 C 1482.28 -0.564157 1.9906 0
M  V30 14937 C 1482.7 -1.61092 0.984624 0
M  V30 14938 O 1482.06 -1.82484 -0.0244031 0
M  V30 14939 C 1482.11 -1.20272 3.40906 0
M  V30 14940 O 1481.83 -0.197815 4.37653 0
M  V30 14941 C 1483.33 -1.95677 3.97776 0
M  V30 14942 H 1480.55 -0.150468 0.653912 0
M  V30 14943 H 1483.09 0.187532 2.03638 0
M  V30 14944 H 1481.25 -1.90528 3.3731 0
M  V30 14945 H 1481.66 -0.659998 5.20331 0
M  V30 14946 H 1483.14 -2.35702 4.99148 0
M  V30 14947 H 1483.61 -2.82661 3.36154 0
M  V30 14948 H 1484.22 -1.30215 4.04876 0
M  V30 14949 N 1482.53 -1.56697 -0.168486 0
M  V30 14950 C 1483.76 -1.86652 -0.904195 0
M  V30 14951 C 1484.18 -0.691906 -1.74912 0
M  V30 14952 O 1483.54 0.358971 -1.77711 0
M  V30 14953 C 1483.59 -3.15043 -1.75442 0
M  V30 14954 O 1482.69 -2.97466 -2.85636 0
M  V30 14955 H 1482.04 -0.613859 -0.253128 0
M  V30 14956 H 1484.57 -2.03927 -0.165773 0
M  V30 14957 H 1484.58 -3.4652 -2.15378 0
M  V30 14958 H 1483.25 -4.00147 -1.13381 0
M  V30 14959 H 1481.83 -2.7735 -2.49262 0
M  V30 14960 N 1484.01 0.437135 -1.51416 0
M  V30 14961 C 1485.24 1.20723 -1.67659 0
M  V30 14962 C 1485.65 1.85476 -0.373547 0
M  V30 14963 O 1484.99 1.71516 0.657876 0
M  V30 14964 C 1485.06 2.33257 -2.73553 0
M  V30 14965 C 1484.72 1.8887 -4.16146 0
M  V30 14966 C 1485.72 1.39203 -5.00918 0
M  V30 14967 C 1483.4 1.96555 -4.62246 0
M  V30 14968 C 1485.4 0.978071 -6.29851 0
M  V30 14969 C 1483.08 1.54771 -5.91176 0
M  V30 14970 C 1484.08 1.05479 -6.74806 0
M  V30 14971 O 1483.77 0.64288 -8.01325 0
M  V30 14972 H 1483.5 0.36993 -0.565798 0
M  V30 14973 H 1486.05 0.524183 -1.98599 0
M  V30 14974 H 1484.28 3.04839 -2.37929 0
M  V30 14975 H 1485.97 2.95121 -2.78673 0
M  V30 14976 H 1486.74 1.3266 -4.66505 0
M  V30 14977 H 1482.62 2.33868 -3.97274 0
M  V30 14978 H 1486.16 0.592633 -6.95078 0
M  V30 14979 H 1482.06 1.60985 -6.25103 0
M  V30 14980 H 1482.83 0.768711 -8.14882 0
M  V30 14981 N 1485.49 1.41566 0.692592 0
M  V30 14982 C 1486.74 1.40805 1.44978 0
M  V30 14983 C 1487.06 0.0191039 1.94991 0
M  V30 14984 O 1486.33 -0.939544 1.71899 0
M  V30 14985 H 1484.91 0.518293 0.537942 0
M  V30 14986 H 1487.57 1.76831 0.81956 0
M  V30 14987 H 1486.67 2.09706 2.31149 0
M  V30 14988 N 1486.97 -0.927146 1.27443 0
M  V30 14989 C 1488.22 -1.67159 1.13589 0
M  V30 14990 C 1488.54 -1.92379 -0.31865 0
M  V30 14991 O 1487.81 -1.53045 -1.22287 0
M  V30 14992 H 1486.39 -0.619524 0.417371 0
M  V30 14993 H 1489.05 -1.11323 1.59979 0
M  V30 14994 H 1488.15 -2.63954 1.66537 0
M  V30 14995 N 1488.45 -1.09474 -1.13372 0
M  V30 14996 C 1489.36 -0.746674 -2.224 0
M  V30 14997 C 1490.37 0.251572 -1.72172 0
M  V30 14998 O 1491.55 0.092793 -2.01186 0
M  V30 14999 C 1488.61 -0.172965 -3.46268 0
M  V30 15000 C 1487.67 -1.22722 -4.11385 0
M  V30 15001 C 1486.91 -0.680794 -5.2934 0
M  V30 15002 O 1487.13 0.496135 -5.68238 0
M  V30 15003 O 1486.06 -1.43605 -5.84518 0
M  V30 15004 H 1489.89 -1.65649 -2.54547 0
M  V30 15005 H 1487.48 -0.869172 -1.21514 0
M  V30 15006 H 1489.36 0.143629 -4.21155 0
M  V30 15007 H 1488.03 0.709853 -3.15821 0
M  V30 15008 H 1486.94 -1.59652 -3.38323 0
M  V30 15009 H 1488.27 -2.0827 -4.45965 0
M  V30 15010 N 1489.92 1.30607 -0.882012 0
M  V30 15011 C 1490.85 2.30666 -0.362706 0
M  V30 15012 C 1491.84 1.60865 0.552861 0
M  V30 15013 O 1493.02 1.88493 0.467339 0
M  V30 15014 C 1490.15 3.44675 0.42622 0
M  V30 15015 C 1489.1 4.26152 -0.397322 0
M  V30 15016 C 1488.43 5.32185 0.518027 0
M  V30 15017 C 1489.73 4.95955 -1.63785 0
M  V30 15018 H 1491.42 2.74351 -1.19883 0
M  V30 15019 H 1488.97 1.31895 -0.577912 0
M  V30 15020 H 1490.92 4.13734 0.80013 0
M  V30 15021 H 1489.65 2.99787 1.29597 0
M  V30 15022 H 1488.31 3.58776 -0.753332 0
M  V30 15023 H 1487.95 4.83545 1.3854 0
M  V30 15024 H 1487.65 5.87593 -0.0291802 0
M  V30 15025 H 1489.18 6.04101 0.888518 0
M  V30 15026 H 1490.59 5.57547 -1.3347 0
M  V30 15027 H 1488.99 5.61215 -2.12504 0
M  V30 15028 H 1490.06 4.22252 -2.38394 0
M  V30 15029 N 1491.4 0.642663 1.43901 0
M  V30 15030 C 1492.82 0.309286 1.56575 0
M  V30 15031 C 1493.02 -1.18709 1.6282 0
M  V30 15032 O 1492.07 -1.97157 1.57751 0
M  V30 15033 C 1493.39 1.01136 2.83182 0
M  V30 15034 C 1494.94 0.9906 2.96911 0
M  V30 15035 C 1495.41 1.67336 4.26336 0
M  V30 15036 N 1496.9 1.6405 4.33177 0
M  V30 15037 C 1497.64 2.13762 5.32065 0
M  V30 15038 N 1497.13 2.71716 6.37293 0
M  V30 15039 N 1498.93 2.04323 5.23649 0
M  V30 15040 H 1491.08 1.61384 1.38091 0
M  V30 15041 H 1493.34 0.678084 0.6625 0
M  V30 15042 H 1493.05 2.0664 2.84592 0
M  V30 15043 H 1492.92 0.556304 3.73075 0
M  V30 15044 H 1495.31 -0.0559997 2.95047 0
M  V30 15045 H 1495.39 1.48425 2.08335 0
M  V30 15046 H 1495.03 2.71947 4.2896 0
M  V30 15047 H 1494.96 1.15445 5.1379 0
M  V30 15048 H 1497.45 1.21749 3.57751 0
M  V30 15049 H 1497.77 3.07352 7.09052 0
M  V30 15050 H 1496.11 2.75772 6.37946 0
M  V30 15051 H 1499.3 1.5876 4.40355 0
M  V30 15052 H 1499.47 2.43376 6.0056 0
M  V30 15053 N 1492.88 -1.52852 0.383918 0
M  V30 15054 C 1494.13 -2.0151 -0.199989 0
M  V30 15055 C 1494.46 -1.27058 -1.47263 0
M  V30 15056 O 1493.71 -0.357819 -1.92401 0
M  V30 15057 C 1494.01 -3.53602 -0.519674 0
M  V30 15058 C 1493.68 -4.46032 0.660789 0
M  V30 15059 C 1492.34 -4.71018 0.984646 0
M  V30 15060 C 1494.69 -5.00602 1.45077 0
M  V30 15061 C 1492.02 -5.47824 2.10013 0
M  V30 15062 C 1494.37 -5.78627 2.55682 0
M  V30 15063 C 1493.03 -6.01894 2.88582 0
M  V30 15064 H 1492.3 -0.737377 -0.0731812 0
M  V30 15065 H 1494.95 -1.843 0.520157 0
M  V30 15066 H 1493.26 -3.68856 -1.32108 0
M  V30 15067 H 1494.95 -3.88739 -0.984011 0
M  V30 15068 H 1491.54 -4.26745 0.398359 0
M  V30 15069 H 1495.73 -4.81228 1.21381 0
M  V30 15070 H 1490.98 -5.64066 2.3588 0
M  V30 15071 H 1495.16 -6.19914 3.173 0
M  V30 15072 H 1492.78 -6.61192 3.75138 0
M  V30 15073 N 1494.36 -0.113586 -1.5719 0
M  V30 15074 C 1495.59 0.553592 -1.99356 0
M  V30 15075 C 1496 1.60567 -0.993154 0
M  V30 15076 O 1495.36 1.82494 0.0147252 0
M  V30 15077 C 1495.41 1.18462 -3.41539 0
M  V30 15078 O 1495.13 0.174602 -4.37752 0
M  V30 15079 C 1496.63 1.93564 -3.98808 0
M  V30 15080 H 1493.85 0.146998 -0.6547 0
M  V30 15081 H 1496.4 -0.198329 -2.03536 0
M  V30 15082 H 1494.55 1.88736 -3.38316 0
M  V30 15083 H 1494.97 0.632395 -5.20674 0
M  V30 15084 H 1496.44 2.33051 -5.00391 0
M  V30 15085 H 1496.92 2.80874 -3.37648 0
M  V30 15086 H 1497.52 1.28066 -4.0556 0
M  V30 15087 N 1495.84 1.56784 0.160173 0
M  V30 15088 C 1497.08 1.82891 0.876278 0
M  V30 15089 C 1497.42 0.693173 1.81408 0
M  V30 15090 O 1496.69 -0.304136 1.92107 0
M  V30 15091 C 1496.97 3.19439 1.66226 0
M  V30 15092 C 1496.83 4.43557 0.746831 0
M  V30 15093 C 1498.15 3.53053 2.62758 0
M  V30 15094 H 1495.27 0.665285 0.31712 0
M  V30 15095 H 1497.91 1.89469 0.142004 0
M  V30 15096 H 1496.06 3.13962 2.28823 0
M  V30 15097 H 1497.73 4.61109 0.132876 0
M  V30 15098 H 1495.97 4.33764 0.0555625 0
M  V30 15099 H 1496.64 5.35675 1.33253 0
M  V30 15100 H 1499.12 3.59054 2.10284 0
M  V30 15101 H 1498 4.4965 3.14811 0
M  V30 15102 H 1498.26 2.78329 3.4349 0
M  V30 15103 N 1497.32 -0.429099 1.51646 0
M  V30 15104 C 1498.54 -1.20006 1.68541 0
M  V30 15105 C 1498.96 -1.84806 0.386264 0
M  V30 15106 O 1498.32 -1.7106 -0.635988 0
M  V30 15107 C 1498.37 -2.27801 2.80694 0
M  V30 15108 O 1498.09 -1.65649 4.05576 0
M  V30 15109 C 1499.59 -3.17927 3.08929 0
M  V30 15110 H 1496.81 -0.361388 0.565367 0
M  V30 15111 H 1499.35 -0.507432 1.98104 0
M  V30 15112 H 1497.51 -2.92766 2.53706 0
M  V30 15113 H 1497.92 -2.36955 4.67924 0
M  V30 15114 H 1499.4 -3.8968 3.90965 0
M  V30 15115 H 1499.87 -3.79157 2.21668 0
M  V30 15116 H 1500.48 -2.58654 3.37606 0
M  V30 15117 N 1498.79 -1.41931 -0.685074 0
M  V30 15118 C 1499.73 -1.40545 -1.81052 0
M  V30 15119 C 1500.74 -0.306024 -1.59898 0
M  V30 15120 O 1501.93 -0.568444 -1.69207 0
M  V30 15121 C 1499.03 -1.17194 -3.17992 0
M  V30 15122 C 1498.2 -2.39376 -3.66084 0
M  V30 15123 C 1497.26 -2.11725 -4.81725 0
M  V30 15124 O 1496.29 -2.84847 -4.92799 0
M  V30 15125 N 1497.49 -1.11399 -5.69711 0
M  V30 15126 H 1500.25 -2.37549 -1.8273 0
M  V30 15127 H 1497.81 -1.36679 -0.86779 0
M  V30 15128 H 1499.81 -0.966307 -3.92994 0
M  V30 15129 H 1498.38 -0.287499 -3.11275 0
M  V30 15130 H 1497.6 -2.75575 -2.81873 0
M  V30 15131 H 1498.88 -3.2076 -3.94956 0
M  V30 15132 H 1498.28 -0.509008 -5.63405 0
M  V30 15133 H 1496.84 -0.968239 -6.44568 0
M  V30 15134 N 1500.27 0.920374 -1.27933 0
M  V30 15135 C 1501.69 1.19761 -1.05496 0
M  V30 15136 C 1501.89 2.00435 0.206864 0
M  V30 15137 O 1500.94 2.35518 0.910356 0
M  V30 15138 C 1502.26 1.93863 -2.29864 0
M  V30 15139 C 1503.8 2.06773 -2.34976 0
M  V30 15140 C 1504.28 2.84282 -3.59093 0
M  V30 15141 N 1505.77 2.91847 -3.59694 0
M  V30 15142 C 1506.51 3.52303 -4.52404 0
M  V30 15143 N 1506 4.14092 -5.55427 0
M  V30 15144 N 1507.79 3.49778 -4.40013 0
M  V30 15145 H 1499.95 0.381596 -2.08944 0
M  V30 15146 H 1502.21 0.231451 -0.919312 0
M  V30 15147 H 1501.91 1.42008 -3.21756 0
M  V30 15148 H 1501.79 2.94446 -2.35757 0
M  V30 15149 H 1504.18 2.57812 -1.43586 0
M  V30 15150 H 1504.26 1.05388 -2.33082 0
M  V30 15151 H 1503.9 2.33925 -4.50823 0
M  V30 15152 H 1503.83 3.85968 -3.5824 0
M  V30 15153 H 1506.32 2.4794 -2.85191 0
M  V30 15154 H 1506.63 4.58183 -6.22325 0
M  V30 15155 H 1504.98 4.12616 -5.59261 0
M  V30 15156 H 1508.17 3.00712 -3.58733 0
M  V30 15157 H 1508.34 3.96603 -5.12455 0
M  V30 15158 N 1501.75 1.10074 1.1279 0
M  V30 15159 C 1502.97 0.863106 1.88587 0
M  V30 15160 C 1503.4 -0.580595 1.78915 0
M  V30 15161 O 1502.76 -1.40859 1.14142 0
M  V30 15162 C 1502.81 1.31142 3.35908 0
M  V30 15163 O 1501.91 0.474088 4.09666 0
M  V30 15164 H 1501.25 0.312034 0.586115 0
M  V30 15165 H 1503.78 1.46659 1.42662 0
M  V30 15166 H 1503.79 1.29974 3.86744 0
M  V30 15167 H 1502.47 2.36279 3.42265 0
M  V30 15168 H 1501.04 0.550665 3.68812 0
M  V30 15169 N 1503.23 -1.30138 0.888926 0
M  V30 15170 C 1504.16 -2.27013 0.315904 0
M  V30 15171 C 1505.17 -1.53871 -0.531746 0
M  V30 15172 O 1506.36 -1.75022 -0.350654 0
M  V30 15173 C 1503.46 -3.34087 -0.569119 0
M  V30 15174 C 1502.63 -4.36683 0.250359 0
M  V30 15175 C 1501.69 -5.23149 -0.565783 0
M  V30 15176 O 1500.72 -5.69199 0.0129167 0
M  V30 15177 N 1501.92 -5.49416 -1.8741 0
M  V30 15178 H 1504.69 -2.76821 1.14848 0
M  V30 15179 H 1502.25 -1.43359 0.752311 0
M  V30 15180 H 1504.24 -3.88857 -1.12125 0
M  V30 15181 H 1502.81 -2.84178 -1.30237 0
M  V30 15182 H 1502.03 -3.81723 0.983931 0
M  V30 15183 H 1503.32 -5.02279 0.811964 0
M  V30 15184 H 1502.72 -5.13793 -2.36713 0
M  V30 15185 H 1501.27 -6.07045 -2.37359 0
M  V30 15186 N 1504.71 -0.650285 -1.43559 0
M  V30 15187 C 1506.12 -0.24263 -1.85117 0
M  V30 15188 C 1506.47 1.21017 -1.54432 0
M  V30 15189 O 1505.59 1.92332 -0.991839 0
M  V30 15190 C 1506.19 -0.433575 -3.36014 0
M  V30 15191 C 1504.75 -0.0802635 -3.76314 0
M  V30 15192 C 1503.89 -0.737844 -2.67303 0
M  V30 15193 H 1506.84 -0.854158 -1.33753 0
M  V30 15194 H 1506.87 0.321801 -3.79137 0
M  V30 15195 H 1506.38 -1.49102 -3.58316 0
M  V30 15196 H 1504.48 0.974703 -3.59625 0
M  V30 15197 H 1504.59 -0.503683 -4.76445 0
M  V30 15198 H 1502.96 -0.171349 -2.54123 0
M  V30 15199 H 1503.74 -1.79826 -2.92434 0
M  V30 15200 N 1506.18 1.52647 -0.392018 0
M  V30 15201 C 1507.43 2.01215 0.188926 0
M  V30 15202 C 1507.75 1.28019 1.47092 0
M  V30 15203 O 1507.02 0.401048 1.91751 0
M  V30 15204 H 1505.6 0.743444 0.0728049 0
M  V30 15205 H 1508.26 1.87715 -0.524332 0
M  V30 15206 H 1507.36 3.09562 0.397216 0
M  V30 15207 N 1507.66 0.121921 1.57128 0
M  V30 15208 C 1508.89 -0.546325 2.00075 0
M  V30 15209 C 1509.31 -1.59245 1.00113 0
M  V30 15210 O 1508.67 -1.8128 -0.0267687 0
M  V30 15211 C 1508.72 -1.14651 3.41888 0
M  V30 15212 O 1507.82 -2.26199 3.4483 0
M  V30 15213 H 1507.16 -0.136184 0.649885 0
M  V30 15214 H 1509.69 0.211257 2.03506 0
M  V30 15215 H 1509.7 -1.48133 3.80159 0
M  V30 15216 H 1508.38 -0.380273 4.14158 0
M  V30 15217 H 1506.96 -1.94134 3.18381 0
M  V30 15218 N 1509.14 -1.56867 -0.151857 0
M  V30 15219 C 1510.37 -1.87237 -0.880343 0
M  V30 15220 C 1510.78 -0.709565 -1.74959 0
M  V30 15221 O 1510.14 0.320818 -1.79658 0
M  V30 15222 C 1510.19 -3.16811 -1.74107 0
M  V30 15223 O 1509.91 -4.28611 -0.906858 0
M  V30 15224 C 1511.41 -3.60662 -2.57755 0
M  V30 15225 H 1508.63 -0.62074 -0.254799 0
M  V30 15226 H 1511.18 -2.03977 -0.146104 0
M  V30 15227 H 1509.33 -3.01838 -2.42842 0
M  V30 15228 H 1509.75 -5.02673 -1.49733 0
M  V30 15229 H 1511.22 -4.54176 -3.13732 0
M  V30 15230 H 1511.7 -2.85716 -3.33561 0
M  V30 15231 H 1512.3 -3.78312 -1.94319 0
M  V30 15232 N 1510.62 0.421051 -1.51871 0
M  V30 15233 C 1512.03 1.00033 -1.5764 0
M  V30 15234 C 1512.38 1.91875 -0.409665 0
M  V30 15235 O 1511.51 2.11201 0.471516 0
M  V30 15236 C 1512.1 1.82099 -2.85701 0
M  V30 15237 C 1510.66 2.35049 -2.93988 0
M  V30 15238 C 1509.81 1.14703 -2.52465 0
M  V30 15239 H 1512.76 0.201715 -1.57413 0
M  V30 15240 H 1512.78 2.67719 -2.70382 0
M  V30 15241 H 1512.29 1.15229 -3.706 0
M  V30 15242 H 1510.39 3.05327 -2.13556 0
M  V30 15243 H 1510.5 2.66731 -3.97984 0
M  V30 15244 H 1508.87 1.49736 -2.06037 0
M  V30 15245 H 1509.65 0.494171 -3.39725 0
M  V30 15246 N 1512.1 1.42293 0.677538 0
M  V30 15247 C 1513.03 1.48344 1.80323 0
M  V30 15248 C 1514.01 0.340276 1.66662 0
M  V30 15249 O 1515.19 0.554209 1.86124 0
M  V30 15250 C 1512.32 1.38247 3.18599 0
M  V30 15251 C 1511.28 2.50562 3.46991 0
M  V30 15252 C 1510.6 2.25524 4.84812 0
M  V30 15253 C 1511.9 3.92877 3.44158 0
M  V30 15254 H 1513.6 2.42558 1.75516 0
M  V30 15255 H 1511.14 1.16746 0.842999 0
M  V30 15256 H 1513.1 1.41089 3.97079 0
M  V30 15257 H 1511.82 0.405255 3.24076 0
M  V30 15258 H 1510.48 2.47032 2.7087 0
M  V30 15259 H 1510.13 1.26102 4.86937 0
M  V30 15260 H 1509.83 3.00797 5.04772 0
M  V30 15261 H 1511.35 2.3011 5.65581 0
M  V30 15262 H 1512.76 3.98024 4.12613 0
M  V30 15263 H 1511.16 4.6798 3.75653 0
M  V30 15264 H 1512.23 4.19743 2.42783 0
M  V30 15265 N 1513.57 -0.913576 1.28419 0
M  V30 15266 C 1514.52 -2.00257 1.09001 0
M  V30 15267 C 1515.51 -1.60894 0.0136118 0
M  V30 15268 O 1516.7 -1.75449 0.233769 0
M  V30 15269 C 1513.83 -3.34916 0.754073 0
M  V30 15270 C 1512.92 -3.8068 1.86932 0
M  V30 15271 N 1513.31 -3.98814 3.11096 0
M  V30 15272 C 1511.6 -4.09839 1.75921 0
M  V30 15273 C 1512.31 -4.37149 3.83765 0
M  V30 15274 N 1511.28 -4.45417 3.11616 0
M  V30 15275 H 1515.08 -2.12327 2.0321 0
M  V30 15276 H 1512.6 -1.10143 1.19341 0
M  V30 15277 H 1514.59 -4.12617 0.596035 0
M  V30 15278 H 1513.25 -3.24199 -0.180246 0
M  V30 15279 H 1514.27 -3.84729 3.46705 0
M  V30 15280 H 1510.94 -4.07757 0.896679 0
M  V30 15281 H 1512.33 -4.5914 4.9055 0
M  V30 15282 N 1515.05 -1.1067 -1.12204 0
M  V30 15283 C 1516.3 -0.84895 -1.83405 0
M  V30 15284 C 1516.62 0.62724 -1.84637 0
M  V30 15285 O 1515.89 1.45546 -1.31123 0
M  V30 15286 H 1514.47 -0.311074 -0.679148 0
M  V30 15287 H 1517.13 -1.39747 -1.35856 0
M  V30 15288 H 1516.23 -1.21398 -2.87522 0
M  V30 15289 N 1516.53 1.29665 -0.895815 0
M  V30 15290 C 1517.46 2.26842 -0.327939 0
M  V30 15291 C 1518.48 1.54151 0.523578 0
M  V30 15292 O 1519.66 1.75205 0.341367 0
M  V30 15293 C 1516.76 3.34384 0.551393 0
M  V30 15294 C 1515.94 4.36544 -0.273514 0
M  V30 15295 C 1515 5.23442 0.538031 0
M  V30 15296 O 1514.02 5.69184 -0.0431025 0
M  V30 15297 N 1515.22 5.50402 1.84493 0
M  V30 15298 H 1517.99 2.76208 -1.16315 0
M  V30 15299 H 1515.55 1.42958 -0.759903 0
M  V30 15300 H 1517.54 3.89446 1.10062 0
M  V30 15301 H 1516.11 2.84864 1.28728 0
M  V30 15302 H 1515.33 3.81196 -1.00416 0
M  V30 15303 H 1516.62 5.01842 -0.838589 0
M  V30 15304 H 1516.02 5.15041 2.33985 0
M  V30 15305 H 1514.58 6.08295 2.34137 0
M  V30 15306 N 1518.01 0.657889 1.43212 0
M  V30 15307 C 1519.42 0.252443 1.84985 0
M  V30 15308 C 1519.77 -1.20196 1.55072 0
M  V30 15309 O 1518.9 -1.91803 1.00202 0
M  V30 15310 C 1519.49 0.451388 3.3578 0
M  V30 15311 C 1518.05 0.100219 3.76267 0
M  V30 15312 C 1517.2 0.752009 2.66908 0
M  V30 15313 H 1520.15 0.861239 1.33298 0
M  V30 15314 H 1520.17 -0.30169 3.79302 0
M  V30 15315 H 1519.68 1.51001 3.5752 0
M  V30 15316 H 1517.78 -0.955618 3.60137 0
M  V30 15317 H 1517.89 0.528942 4.76171 0
M  V30 15318 H 1516.26 0.184823 2.54029 0
M  V30 15319 H 1517.04 1.81375 2.91476 0
M  V30 15320 N 1519.49 -1.52437 0.400108 0
M  V30 15321 C 1520.42 -2.29672 -0.421054 0
M  V30 15322 C 1521.4 -1.33506 -1.05405 0
M  V30 15323 O 1522.58 -1.62408 -1.06477 0
M  V30 15324 C 1519.71 -3.1115 -1.54281 0
M  V30 15325 C 1518.67 -4.1529 -1.0353 0
M  V30 15326 C 1517.99 -4.85058 -2.24996 0
M  V30 15327 C 1519.29 -5.22212 -0.0956529 0
M  V30 15328 H 1520.99 -2.98565 0.2234 0
M  V30 15329 H 1518.53 -1.43588 0.108883 0
M  V30 15330 H 1520.49 -3.63945 -2.12419 0
M  V30 15331 H 1519.21 -2.4001 -2.21501 0
M  V30 15332 H 1517.87 -3.63492 -0.476383 0
M  V30 15333 H 1517.52 -4.10455 -2.9075 0
M  V30 15334 H 1517.22 -5.55452 -1.91694 0
M  V30 15335 H 1518.74 -5.40661 -2.83756 0
M  V30 15336 H 1520.15 -5.70302 -0.585548 0
M  V30 15337 H 1518.55 -5.99917 0.148121 0
M  V30 15338 H 1519.62 -4.77351 0.852296 0
M  V30 15339 N 1520.96 -0.130252 -1.57061 0
M  V30 15340 C 1522.21 0.525784 -1.95866 0
M  V30 15341 C 1522.54 1.65607 -1.01429 0
M  V30 15342 O 1521.82 1.94426 -0.0535544 0
M  V30 15343 C 1522.1 1.04784 -3.44517 0
M  V30 15344 C 1521.95 -0.0797972 -4.49729 0
M  V30 15345 C 1523.27 1.9351 -3.95275 0
M  V30 15346 H 1520.39 0.189652 -0.71218 0
M  V30 15347 H 1523.03 -0.208091 -1.88857 0
M  V30 15348 H 1521.18 1.67324 -3.50621 0
M  V30 15349 H 1522.86 -0.715535 -4.55717 0
M  V30 15350 H 1521.1 -0.741358 -4.27418 0
M  V30 15351 H 1521.77 0.326915 -5.51031 0
M  V30 15352 H 1524.25 1.40825 -3.91545 0
M  V30 15353 H 1523.12 2.26952 -4.99784 0
M  V30 15354 H 1523.38 2.86583 -3.36634 0
M  V30 15355 N 1522.44 1.56945 0.143535 0
M  V30 15356 C 1523.69 1.8381 0.856831 0
M  V30 15357 C 1524.02 0.712375 1.80662 0
M  V30 15358 O 1523.3 -0.283743 1.92419 0
M  V30 15359 C 1523.58 3.21184 1.62828 0
M  V30 15360 C 1523.43 4.44324 0.699744 0
M  V30 15361 C 1524.75 3.5582 2.58999 0
M  V30 15362 H 1521.87 0.668611 0.310046 0
M  V30 15363 H 1524.51 1.89609 0.1219 0
M  V30 15364 H 1522.66 3.16372 2.2548 0
M  V30 15365 H 1524.34 4.61224 0.0839619 0
M  V30 15366 H 1522.58 4.33799 0.0095529 0
M  V30 15367 H 1523.25 5.37058 1.27564 0
M  V30 15368 H 1525.73 3.61264 2.06464 0
M  V30 15369 H 1524.6 4.52964 3.10024 0
M  V30 15370 H 1524.86 2.81956 3.40519 0
M  V30 15371 N 1523.92 -0.412991 1.52093 0
M  V30 15372 C 1524.85 -1.50986 1.78117 0
M  V30 15373 C 1525.83 -1.57925 0.631963 0
M  V30 15374 O 1527.02 -1.73261 0.877168 0
M  V30 15375 C 1524.15 -2.88846 1.92835 0
M  V30 15376 C 1523.1 -2.96759 3.08412 0
M  V30 15377 C 1522.43 -4.36837 3.08347 0
M  V30 15378 C 1523.73 -2.68599 4.47942 0
M  V30 15379 H 1525.42 -1.29459 2.69964 0
M  V30 15380 H 1522.97 -0.621348 1.29905 0
M  V30 15381 H 1524.92 -3.65563 2.09623 0
M  V30 15382 H 1523.64 -3.11658 0.976553 0
M  V30 15383 H 1522.3 -2.22487 2.91368 0
M  V30 15384 H 1521.95 -4.56652 2.10897 0
M  V30 15385 H 1521.65 -4.43056 3.85973 0
M  V30 15386 H 1523.18 -5.15493 3.2726 0
M  V30 15387 H 1524.59 -3.35039 4.65212 0
M  V30 15388 H 1522.99 -2.86199 5.27456 0
M  V30 15389 H 1524.06 -1.64058 4.56304 0
M  V30 15390 N 1525.4 -1.4265 -0.669982 0
M  V30 15391 C 1526.33 -1.42457 -1.79551 0
M  V30 15392 C 1527.34 -0.322966 -1.59564 0
M  V30 15393 O 1528.53 -0.586359 -1.68594 0
M  V30 15394 C 1525.63 -1.20561 -3.16731 0
M  V30 15395 C 1524.81 -2.43246 -3.63525 0
M  V30 15396 C 1523.87 -2.16823 -4.79452 0
M  V30 15397 O 1522.89 -2.90058 -4.8975 0
M  V30 15398 N 1524.09 -1.17436 -5.68497 0
M  V30 15399 H 1526.86 -2.39474 -1.80201 0
M  V30 15400 H 1524.42 -1.37591 -0.853244 0
M  V30 15401 H 1526.41 -1.00794 -3.91947 0
M  V30 15402 H 1524.98 -0.320497 -3.10953 0
M  V30 15403 H 1524.2 -2.78549 -2.78934 0
M  V30 15404 H 1525.49 -3.24931 -3.91532 0
M  V30 15405 H 1524.89 -0.568736 -5.62834 0
M  V30 15406 H 1523.44 -1.03655 -6.43505 0
M  V30 15407 N 1526.88 0.906753 -1.28902 0
M  V30 15408 C 1528.13 1.6533 -1.16234 0
M  V30 15409 C 1528.45 1.92861 0.288004 0
M  V30 15410 O 1527.72 1.54971 1.19837 0
M  V30 15411 H 1526.3 0.612806 -0.427174 0
M  V30 15412 H 1528.96 1.08764 -1.6173 0
M  V30 15413 H 1528.05 2.61271 -1.70715 0
M  V30 15414 N 1528.36 1.11264 1.11616 0
M  V30 15415 C 1529.3 0.764321 2.19684 0
M  V30 15416 C 1530.3 -0.243396 1.67642 0
M  V30 15417 O 1531.5 -0.102869 1.79706 0
M  V30 15418 H 1527.88 0.229275 0.716196 0
M  V30 15419 H 1529.85 1.68445 2.46311 0
M  V30 15420 C 1528.6 0.22175 3.46992 0
M  V30 15421 H 1527.92 0.988422 3.87389 0
M  V30 15422 H 1529.36 0.0161946 4.23997 0
M  V30 15423 C 1527.82 -1.04755 3.202 0
M  V30 15424 O 1528.35 -2.12758 3.4073 0
M  V30 15425 N 1526.56 -0.969608 2.73947 0
M  V30 15426 H 1526.1 -0.0906063 2.57441 0
M  V30 15427 H 1526.06 -1.81955 2.56397 0
M  V30 15428 N 1529.83 -1.29188 0.902679 0
M  V30 15429 C 1530.78 -2.29597 0.372585 0
M  V30 15430 C 1531.78 -1.609 -0.529858 0
M  V30 15431 O 1532.98 -1.75214 -0.41233 0
M  V30 15432 H 1529.36 -0.745069 0.101864 0
M  V30 15433 H 1531.33 -2.71746 1.23275 0
M  V30 15434 C 1530.08 -3.45594 -0.382128 0
M  V30 15435 H 1529.4 -3.9865 0.303061 0
M  V30 15436 H 1530.84 -4.17879 -0.717852 0
M  V30 15437 C 1529.3 -2.97238 -1.58591 0
M  V30 15438 O 1529.83 -2.98767 -2.68517 0
M  V30 15439 N 1528.03 -2.53032 -1.42909 0
M  V30 15440 H 1527.58 -2.51988 -0.534786 0
M  V30 15441 H 1527.54 -2.21038 -2.23584 0
M  V30 15442 N 1531.31 -0.665475 -1.42861 0
M  V30 15443 C 1532.56 -0.181149 -2.00885 0
M  V30 15444 C 1532.87 1.21629 -1.53186 0
M  V30 15445 O 1534.08 1.79648 -2.03565 0
M  V30 15446 C 1532.54 -0.273017 -3.58863 0
M  V30 15447 C 1532.14 -1.67392 -4.15553 0
M  V30 15448 C 1533.89 0.153075 -4.24224 0
M  V30 15449 C 1531.79 -1.71905 -5.65864 0
M  V30 15450 H 1530.72 -0.0639619 -0.751282 0
M  V30 15451 H 1533.38 -0.829299 -1.63691 0
M  V30 15452 H 1531.76 0.44286 -3.93516 0
M  V30 15453 H 1532.93 -2.41613 -3.92377 0
M  V30 15454 H 1531.25 -2.04704 -3.62609 0
M  V30 15455 H 1533.84 0.139369 -5.34518 0
M  V30 15456 H 1534.19 1.1867 -3.99028 0
M  V30 15457 H 1534.72 -0.511472 -3.94498 0
M  V30 15458 H 1531.46 -2.73218 -5.95846 0
M  V30 15459 H 1530.98 -1.02027 -5.91059 0
M  V30 15460 H 1532.66 -1.46829 -6.30119 0
M  V30 15461 N 1532.79 1.52222 -0.408187 0
M  V30 15462 C 1534.04 2.00989 0.169252 0
M  V30 15463 C 1534.35 1.29824 1.46305 0
M  V30 15464 O 1535.56 1.69402 2.12168 0
M  V30 15465 C 1534.01 3.58173 0.352179 0
M  V30 15466 C 1533.62 4.38252 -0.929468 0
M  V30 15467 C 1535.37 4.15173 0.88496 0
M  V30 15468 C 1533.27 5.87077 -0.713781 0
M  V30 15469 H 1532.2 0.751015 0.0670261 0
M  V30 15470 H 1534.85 1.75574 -0.533487 0
M  V30 15471 H 1533.24 3.79913 1.11723 0
M  V30 15472 H 1534.41 4.28272 -1.70059 0
M  V30 15473 H 1532.72 3.92565 -1.38859 0
M  V30 15474 H 1535.32 5.2404 1.06235 0
M  V30 15475 H 1535.66 3.72468 1.85938 0
M  V30 15476 H 1536.2 3.97397 0.178995 0
M  V30 15477 H 1532.94 6.3414 -1.65974 0
M  V30 15478 H 1532.46 5.99797 0.0180631 0
M  V30 15479 H 1534.14 6.46022 -0.355596 0
M  V30 15480 N 1534.27 0.138579 1.5699 0
M  V30 15481 C 1535.2 -0.800568 2.19347 0
M  V30 15482 C 1536.18 -1.26318 1.13921 0
M  V30 15483 O 1537.36 -1.32226 1.42232 0
M  V30 15484 C 1534.49 -2.04317 2.80842 0
M  V30 15485 C 1533.45 -1.71764 3.92022 0
M  V30 15486 C 1532.77 -3.03217 4.40413 0
M  V30 15487 C 1534.07 -0.970789 5.13199 0
M  V30 15488 H 1535.77 -0.280888 2.98079 0
M  V30 15489 H 1533.31 -0.133663 1.43378 0
M  V30 15490 H 1535.27 -2.70491 3.2313 0
M  V30 15491 H 1533.99 -2.58643 1.99428 0
M  V30 15492 H 1532.65 -1.07972 3.50339 0
M  V30 15493 H 1532.3 -3.55517 3.55832 0
M  V30 15494 H 1532 -2.82203 5.15398 0
M  V30 15495 H 1533.52 -3.70477 4.85365 0
M  V30 15496 H 1534.94 -1.53445 5.52384 0
M  V30 15497 H 1533.33 -0.860895 5.93893 0
M  V30 15498 H 1534.4 0.0390088 4.84884 0
M  V30 15499 N 1535.75 -1.57019 -0.13521 0
M  V30 15500 C 1536.66 -2.02427 -1.18578 0
M  V30 15501 C 1537.67 -0.941738 -1.46312 0
M  V30 15502 O 1538.85 -1.25208 -1.57749 0
M  V30 15503 C 1535.91 -2.40577 -2.49647 0
M  V30 15504 C 1534.97 -3.62835 -2.29455 0
M  V30 15505 C 1534.21 -3.99156 -3.54274 0
M  V30 15506 O 1534.43 -3.36001 -4.60933 0
M  V30 15507 O 1533.36 -4.92345 -3.46238 0
M  V30 15508 H 1537.19 -2.92131 -0.830237 0
M  V30 15509 H 1534.77 -1.45366 -0.344814 0
M  V30 15510 H 1536.66 -2.65922 -3.269 0
M  V30 15511 H 1535.33 -1.54023 -2.84708 0
M  V30 15512 H 1534.24 -3.42661 -1.50114 0
M  V30 15513 H 1535.57 -4.50043 -1.99305 0
M  V30 15514 N 1537.22 0.404919 -1.52309 0
M  V30 15515 C 1538.17 1.49281 -1.72334 0
M  V30 15516 C 1539.16 1.50188 -0.577267 0
M  V30 15517 O 1540.35 1.56093 -0.834497 0
M  V30 15518 C 1537.48 2.87166 -1.88123 0
M  V30 15519 C 1536.57 2.90891 -3.08615 0
M  V30 15520 N 1536.96 2.64307 -4.31249 0
M  V30 15521 C 1535.25 3.2206 -3.08535 0
M  V30 15522 C 1535.96 2.74708 -5.12748 0
M  V30 15523 N 1534.93 3.07766 -4.48086 0
M  V30 15524 H 1538.73 1.2753 -2.64789 0
M  V30 15525 H 1536.25 0.61268 -1.50399 0
M  V30 15526 H 1538.24 3.65473 -2.00587 0
M  V30 15527 H 1536.9 3.09913 -0.968712 0
M  V30 15528 H 1537.92 2.38624 -4.59651 0
M  V30 15529 H 1534.59 3.50373 -2.27035 0
M  V30 15530 H 1535.98 2.57835 -6.2046 0
M  V30 15531 N 1538.7 1.43003 0.662408 0
M  V30 15532 C 1539.65 1.43898 1.76854 0
M  V30 15533 C 1540.64 0.308629 1.57912 0
M  V30 15534 O 1541.83 0.551757 1.6818 0
M  V30 15535 C 1538.96 1.35585 3.15391 0
M  V30 15536 C 1538.04 2.53614 3.39913 0
M  V30 15537 N 1538.43 3.78998 3.34954 0
M  V30 15538 C 1536.73 2.48141 3.70597 0
M  V30 15539 C 1537.43 4.57467 3.59303 0
M  V30 15540 N 1536.41 3.8806 3.80671 0
M  V30 15541 H 1540.21 2.38722 1.71432 0
M  V30 15542 H 1537.73 1.37526 0.863728 0
M  V30 15543 H 1539.72 1.34308 3.94673 0
M  V30 15544 H 1538.38 0.417735 3.22002 0
M  V30 15545 H 1539.39 4.11417 3.14574 0
M  V30 15546 H 1536.07 1.62971 3.84379 0
M  V30 15547 H 1537.46 5.66475 3.61326 0
M  V30 15548 N 1540.18 -0.899904 1.29381 0
M  V30 15549 C 1541.43 -1.65282 1.17515 0
M  V30 15550 C 1541.76 -1.92275 -0.272788 0
M  V30 15551 O 1541.03 -1.53303 -1.19701 0
M  V30 15552 C 1541.32 -3.00207 1.98867 0
M  V30 15553 C 1541.17 -2.80281 3.51799 0
M  V30 15554 C 1542.49 -4.00936 1.81489 0
M  V30 15555 H 1539.61 -0.5998 0.428263 0
M  V30 15556 H 1542.25 -1.04241 1.58852 0
M  V30 15557 H 1540.4 -3.52308 1.63741 0
M  V30 15558 H 1542.07 -2.35082 3.96905 0
M  V30 15559 H 1540.32 -2.15068 3.76733 0
M  V30 15560 H 1540.99 -3.76155 4.03994 0
M  V30 15561 H 1543.46 -3.57944 2.12169 0
M  V30 15562 H 1542.34 -4.9328 2.4076 0
M  V30 15563 H 1542.6 -4.35342 0.770021 0
M  V30 15564 N 1541.66 -1.11854 -1.11024 0
M  V30 15565 C 1542.62 -0.784033 -2.15373 0
M  V30 15566 C 1543.62 0.198686 -1.59568 0
M  V30 15567 O 1544.81 -0.0263428 -1.7418 0
M  V30 15568 C 1541.94 -0.163987 -3.40505 0
M  V30 15569 H 1543.14 -1.70849 -2.46477 0
M  V30 15570 H 1540.69 -0.920988 -1.26283 0
M  V30 15571 H 1541.42 0.770483 -3.15014 0
M  V30 15572 H 1541.21 -0.871447 -3.82293 0
M  V30 15573 H 1542.7 0.0537739 -4.17565 0
M  V30 15574 N 1543.14 1.28707 -0.909517 0
M  V30 15575 C 1544.07 2.26481 -0.35198 0
M  V30 15576 C 1545.08 1.54698 0.507199 0
M  V30 15577 O 1546.27 1.75558 0.322765 0
M  V30 15578 C 1543.37 3.3495 0.515897 0
M  V30 15579 C 1542.54 4.36229 -0.3198 0
M  V30 15580 C 1541.6 5.23983 0.482483 0
M  V30 15581 O 1540.63 5.69106 -0.10347 0
M  V30 15582 N 1541.83 5.52328 1.78645 0
M  V30 15583 H 1544.6 2.74959 -1.19238 0
M  V30 15584 H 1542.16 1.42144 -0.775023 0
M  V30 15585 H 1544.15 3.90592 1.05925 0
M  V30 15586 H 1542.72 2.86214 1.257 0
M  V30 15587 H 1541.94 3.80109 -1.04454 0
M  V30 15588 H 1543.23 5.00924 -0.891769 0
M  V30 15589 H 1542.62 5.17494 2.28509 0
M  V30 15590 H 1541.18 6.10744 2.27672 0
M  V30 15591 N 1544.61 0.673042 1.42506 0
M  V30 15592 C 1545.52 -0.00648572 2.34599 0
M  V30 15593 C 1546.54 -0.790758 1.54994 0
M  V30 15594 O 1547.72 -0.733482 1.87569 0
M  V30 15595 C 1544.78 -0.94734 3.33506 0
M  V30 15596 C 1543.84 -0.157795 4.2901 0
M  V30 15597 C 1543.08 -1.05384 5.23192 0
M  V30 15598 O 1543.3 -2.29334 5.22266 0
M  V30 15599 O 1542.23 -0.515584 5.99688 0
M  V30 15600 H 1546.06 0.752059 2.94241 0
M  V30 15601 H 1543.64 0.433272 1.42979 0
M  V30 15602 H 1545.53 -1.4875 3.94273 0
M  V30 15603 H 1544.2 -1.68577 2.7634 0
M  V30 15604 H 1543.11 0.426426 3.71662 0
M  V30 15605 H 1544.44 0.54148 4.89212 0
M  V30 15606 N 1546.09 -1.52004 0.416254 0
M  V30 15607 C 1547.5 -1.86628 -0.0517247 0
M  V30 15608 C 1547.85 -1.33463 -1.43813 0
M  V30 15609 O 1546.98 -0.676793 -2.05544 0
M  V30 15610 C 1547.57 -3.38651 -0.100637 0
M  V30 15611 C 1546.13 -3.72888 -0.512969 0
M  V30 15612 C 1545.28 -2.75584 0.307975 0
M  V30 15613 H 1548.23 -1.45529 0.633018 0
M  V30 15614 H 1548.25 -3.69348 -0.914465 0
M  V30 15615 H 1547.76 -3.77316 0.908538 0
M  V30 15616 H 1545.87 -3.39804 -1.52852 0
M  V30 15617 H 1545.98 -4.78435 -0.252408 0
M  V30 15618 H 1544.34 -2.53653 -0.230717 0
M  V30 15619 H 1545.13 -3.1709 1.31563 0
M  V30 15620 N 1547.57 -0.146903 -1.56914 0
M  V30 15621 C 1548.8 0.514426 -2.00919 0
M  V30 15622 C 1549.22 1.57632 -1.02634 0
M  V30 15623 O 1548.58 1.813 -0.00207478 0
M  V30 15624 C 1548.63 1.09197 -3.43669 0
M  V30 15625 O 1547.73 2.20684 -3.48385 0
M  V30 15626 H 1547.07 0.125827 -0.651969 0
M  V30 15627 H 1549.6 -0.243607 -2.03145 0
M  V30 15628 H 1549.61 1.42066 -3.82467 0
M  V30 15629 H 1548.29 0.314336 -4.1471 0
M  V30 15630 H 1546.86 1.89045 -3.21429 0
M  V30 15631 N 1549.05 1.57088 0.126881 0
M  V30 15632 C 1550.46 1.73685 0.684865 0
M  V30 15633 C 1550.81 0.764401 1.80697 0
M  V30 15634 O 1549.94 -0.0644761 2.16304 0
M  V30 15635 C 1550.53 3.14933 1.24911 0
M  V30 15636 C 1549.09 3.33063 1.75346 0
M  V30 15637 C 1548.24 2.69575 0.649976 0
M  V30 15638 H 1551.19 1.58391 -0.0989715 0
M  V30 15639 H 1551.21 3.16047 2.11884 0
M  V30 15640 H 1550.72 3.85686 0.432204 0
M  V30 15641 H 1548.82 2.67339 2.59539 0
M  V30 15642 H 1548.93 4.41169 1.86833 0
M  V30 15643 H 1547.3 2.30592 1.08163 0
M  V30 15644 H 1548.08 3.42946 -0.15582 0
M  V30 15645 N 1550.53 -0.396836 1.52522 0
M  V30 15646 C 1551.77 -1.14037 1.66853 0
M  V30 15647 C 1552.1 -1.90706 0.406987 0
M  V30 15648 O 1551.37 -1.87165 -0.578443 0
M  V30 15649 H 1549.95 -0.423967 0.615029 0
M  V30 15650 H 1552.61 -0.451042 1.89609 0
M  V30 15651 H 1551.7 -1.84763 2.51533 0
M  V30 15652 N 1552.01 -1.43353 -0.654814 0
M  V30 15653 C 1552.94 -1.44353 -1.7803 0
M  V30 15654 C 1553.95 -0.339872 -1.59213 0
M  V30 15655 O 1555.14 -0.604207 -1.67963 0
M  V30 15656 C 1552.24 -1.23913 -3.15434 0
M  V30 15657 C 1551.41 -2.47088 -3.60924 0
M  V30 15658 C 1550.47 -2.21896 -4.77126 0
M  V30 15659 O 1549.5 -2.95236 -4.86646 0
M  V30 15660 N 1550.7 -1.23459 -5.6722 0
M  V30 15661 H 1553.46 -2.41372 -1.77651 0
M  V30 15662 H 1551.03 -1.38488 -0.838603 0
M  V30 15663 H 1553.02 -1.04945 -3.90856 0
M  V30 15664 H 1551.59 -0.35346 -3.10595 0
M  V30 15665 H 1550.81 -2.81492 -2.75964 0
M  V30 15666 H 1552.1 -3.29066 -3.88064 0
M  V30 15667 H 1551.49 -0.6284 -5.62199 0
M  V30 15668 H 1550.05 -1.10474 -6.4237 0
M  V30 15669 N 1553.48 0.89303 -1.29857 0
M  V30 15670 C 1554.89 1.45948 -1.16431 0
M  V30 15671 C 1555.25 1.94751 0.238051 0
M  V30 15672 O 1554.37 1.84302 1.1341 0
M  V30 15673 C 1554.97 2.6527 -2.10754 0
M  V30 15674 C 1553.52 3.1803 -2.0133 0
M  V30 15675 C 1552.67 1.90721 -2.01297 0
M  V30 15676 H 1555.62 0.70373 -1.42244 0
M  V30 15677 H 1555.64 3.41223 -1.68366 0
M  V30 15678 H 1555.16 2.2972 -3.1281 0
M  V30 15679 H 1553.26 3.58257 -1.02386 0
M  V30 15680 H 1553.37 3.81876 -2.89323 0
M  V30 15681 H 1551.73 2.0871 -1.45987 0
M  V30 15682 H 1552.52 1.5744 -3.0507 0
M  V30 15683 N 1554.96 1.12442 1.10429 0
M  V30 15684 C 1556.19 0.902914 1.86714 0
M  V30 15685 C 1556.61 -0.542514 1.80107 0
M  V30 15686 O 1555.97 -1.38406 1.17105 0
M  V30 15687 C 1556.02 1.38238 3.33051 0
M  V30 15688 O 1555.12 0.560877 4.08568 0
M  V30 15689 H 1554.46 0.324397 0.579364 0
M  V30 15690 H 1556.99 1.49652 1.39519 0
M  V30 15691 H 1557 1.38148 3.839 0
M  V30 15692 H 1555.68 2.43486 3.37176 0
M  V30 15693 H 1554.25 0.628771 3.67561 0
M  V30 15694 N 1556.44 -1.28223 0.91633 0
M  V30 15695 C 1557.67 -1.98986 0.566772 0
M  V30 15696 C 1558.08 -1.68455 -0.852553 0
M  V30 15697 O 1557.44 -0.938734 -1.56506 0
M  V30 15698 C 1557.49 -3.53217 0.769423 0
M  V30 15699 O 1557.21 -3.82674 2.1329 0
M  V30 15700 C 1558.71 -4.41238 0.427043 0
M  V30 15701 H 1555.93 -0.63534 0.215834 0
M  V30 15702 H 1558.48 -1.63357 1.23024 0
M  V30 15703 H 1556.63 -3.87098 0.152915 0
M  V30 15704 H 1557.05 -4.77302 2.17448 0
M  V30 15705 H 1558.52 -5.48512 0.619594 0
M  V30 15706 H 1559 -4.34558 -0.63686 0
M  V30 15707 H 1559.6 -4.12858 1.0212 0
M  V30 15708 N 1557.92 -0.68059 -1.42147 0
M  V30 15709 C 1559.16 -0.205263 -2.01457 0
M  V30 15710 C 1559.49 1.19015 -1.53837 0
M  V30 15711 O 1558.75 1.81423 -0.733763 0
M  V30 15712 C 1559.05 -0.194825 -3.56869 0
M  V30 15713 C 1558.71 -1.5357 -4.23942 0
M  V30 15714 C 1557.37 -1.90282 -4.4198 0
M  V30 15715 C 1559.73 -2.41852 -4.61689 0
M  V30 15716 C 1557.05 -3.14891 -4.95036 0
M  V30 15717 C 1559.41 -3.65779 -5.16129 0
M  V30 15718 C 1558.07 -4.02653 -5.32379 0
M  V30 15719 H 1557.34 -0.0751109 -0.737183 0
M  V30 15720 H 1559.99 -0.87672 -1.70252 0
M  V30 15721 H 1558.29 0.560155 -3.87775 0
M  V30 15722 H 1559.99 0.190248 -4.00548 0
M  V30 15723 H 1556.58 -1.24012 -4.10267 0
M  V30 15724 H 1560.76 -2.14773 -4.47422 0
M  V30 15725 H 1556.02 -3.43474 -5.05802 0
M  V30 15726 H 1560.19 -4.34384 -5.4432 0
M  V30 15727 H 1557.82 -4.99283 -5.73254 0
M  V30 15728 N 1559.4 1.51781 -0.424309 0
M  V30 15729 C 1560.64 2.01157 0.147925 0
M  V30 15730 C 1560.96 1.31369 1.44919 0
M  V30 15731 O 1562.16 1.71643 2.10359 0
M  V30 15732 C 1560.62 3.58526 0.31417 0
M  V30 15733 C 1560.23 4.37242 -0.975898 0
M  V30 15734 C 1561.97 4.16088 0.840876 0
M  V30 15735 C 1559.88 5.86287 -0.776009 0
M  V30 15736 H 1558.81 0.751684 0.0590568 0
M  V30 15737 H 1561.46 1.74998 -0.552079 0
M  V30 15738 H 1559.84 3.81077 1.07687 0
M  V30 15739 H 1561.02 4.26444 -1.74592 0
M  V30 15740 H 1559.33 3.9107 -1.43015 0
M  V30 15741 H 1561.93 5.25138 1.0067 0
M  V30 15742 H 1562.27 3.7442 1.81977 0
M  V30 15743 H 1562.8 3.97565 0.136836 0
M  V30 15744 H 1559.54 6.32343 -1.7269 0
M  V30 15745 H 1559.06 5.99783 -0.0455544 0
M  V30 15746 H 1560.74 6.45609 -0.424095 0
M  V30 15747 N 1560.87 0.155222 1.56834 0
M  V30 15748 C 1562.12 -0.494557 1.96677 0
M  V30 15749 C 1562.45 -1.63973 1.04051 0
M  V30 15750 O 1561.73 -1.94316 0.0844791 0
M  V30 15751 C 1562.01 -0.992902 3.46141 0
M  V30 15752 C 1561.86 0.151335 4.49545 0
M  V30 15753 C 1563.18 -1.87197 3.98303 0
M  V30 15754 H 1560.3 -0.178298 0.715107 0
M  V30 15755 H 1562.94 0.23811 1.88502 0
M  V30 15756 H 1561.09 -1.61724 3.53239 0
M  V30 15757 H 1562.77 0.787945 4.54521 0
M  V30 15758 H 1561.01 0.809262 4.26185 0
M  V30 15759 H 1561.68 -0.23921 5.51481 0
M  V30 15760 H 1564.16 -1.34578 3.93736 0
M  V30 15761 H 1563.03 -2.18972 5.03331 0
M  V30 15762 H 1563.29 -2.81191 3.41151 0
M  V30 15763 N 1562.35 -1.57153 -0.118549 0
M  V30 15764 C 1563.76 -1.74046 -0.675645 0
M  V30 15765 C 1564.11 -0.773974 -1.80289 0
M  V30 15766 O 1563.24 0.0530041 -2.16335 0
M  V30 15767 C 1563.83 -3.15591 -1.23239 0
M  V30 15768 C 1562.39 -3.33988 -1.73577 0
M  V30 15769 C 1561.54 -2.69916 -0.63567 0
M  V30 15770 H 1564.49 -1.58336 0.10737 0
M  V30 15771 H 1564.51 -3.17166 -2.10205 0
M  V30 15772 H 1564.02 -3.8591 -0.411744 0
M  V30 15773 H 1562.12 -2.68712 -2.58118 0
M  V30 15774 H 1562.24 -4.42154 -1.84491 0
M  V30 15775 H 1560.6 -2.31163 -1.06939 0
M  V30 15776 H 1561.38 -3.42859 0.174005 0
M  V30 15777 N 1563.83 0.388742 -1.5273 0
M  V30 15778 C 1565.08 1.13375 -1.67787 0
M  V30 15779 C 1565.4 1.89957 -0.417925 0
M  V30 15780 O 1564.66 1.86286 0.599682 0
M  V30 15781 C 1564.96 2.13792 -2.86405 0
M  V30 15782 C 1564.62 1.53865 -4.23835 0
M  V30 15783 C 1563.29 1.37248 -4.61212 0
M  V30 15784 C 1565.64 1.10298 -5.09395 0
M  V30 15785 C 1562.97 0.756119 -5.81807 0
M  V30 15786 C 1565.32 0.500723 -6.30615 0
M  V30 15787 C 1563.98 0.321851 -6.66724 0
M  V30 15788 H 1563.25 0.414868 -0.613975 0
M  V30 15789 H 1565.9 0.418351 -1.86874 0
M  V30 15790 H 1564.2 2.91551 -2.61735 0
M  V30 15791 H 1565.9 2.71346 -2.95249 0
M  V30 15792 H 1562.49 1.67787 -3.94393 0
M  V30 15793 H 1566.68 1.21938 -4.81087 0
M  V30 15794 H 1561.93 0.605734 -6.08392 0
M  V30 15795 H 1566.11 0.154839 -6.96228 0
M  V30 15796 H 1563.73 -0.157836 -7.60036 0
M  V30 15797 N 1565.31 1.43698 0.647203 0
M  V30 15798 C 1566.72 1.27231 0.963563 0
M  V30 15799 C 1566.92 0.196385 2.00541 0
M  V30 15800 O 1565.98 -0.423162 2.48929 0
M  V30 15801 C 1567.29 2.63863 1.44211 0
M  V30 15802 C 1568.84 2.71444 1.55844 0
M  V30 15803 C 1569.32 4.08508 2.07087 0
M  V30 15804 N 1570.81 4.10603 2.14381 0
M  V30 15805 C 1571.54 5.13496 2.55166 0
M  V30 15806 N 1571.04 6.26759 2.95203 0
M  V30 15807 N 1572.83 5.0085 2.55158 0
M  V30 15808 H 1564.98 2.12358 -0.0420956 0
M  V30 15809 H 1567.24 0.946989 0.0437628 0
M  V30 15810 H 1566.95 3.43589 0.75096 0
M  V30 15811 H 1566.82 2.89666 2.41605 0
M  V30 15812 H 1569.21 1.92046 2.24058 0
M  V30 15813 H 1569.29 2.49399 0.56866 0
M  V30 15814 H 1568.94 4.88375 1.39472 0
M  V30 15815 H 1568.87 4.2792 3.06907 0
M  V30 15816 H 1571.36 3.2885 1.86188 0
M  V30 15817 H 1571.67 7.01096 3.25091 0
M  V30 15818 H 1570.02 6.30222 2.92993 0
M  V30 15819 H 1573.21 4.11428 2.2326 0
M  V30 15820 H 1573.38 5.81165 2.86621 0
M  V30 15821 N 1566.79 -0.886131 1.30328 0
M  V30 15822 C 1567.7 -2.02453 1.18532 0
M  V30 15823 C 1568.71 -1.7368 0.105506 0
M  V30 15824 O 1569.89 -1.98838 0.320217 0
M  V30 15825 C 1566.95 -3.3543 0.876792 0
M  V30 15826 C 1566.01 -3.77633 2.04185 0
M  V30 15827 C 1565.25 -5.04264 1.74795 0
M  V30 15828 O 1565.47 -5.66388 0.675323 0
M  V30 15829 O 1564.4 -5.42847 2.60001 0
M  V30 15830 H 1568.23 -2.15333 2.14162 0
M  V30 15831 H 1565.82 -1.01193 1.09911 0
M  V30 15832 H 1567.7 -4.15206 0.719882 0
M  V30 15833 H 1566.37 -3.23662 -0.0496117 0
M  V30 15834 H 1565.28 -2.98567 2.25408 0
M  V30 15835 H 1566.61 -3.94004 2.94994 0
M  V30 15836 N 1568.26 -1.13026 -1.09832 0
M  V30 15837 C 1569.2 -0.761606 -2.16176 0
M  V30 15838 C 1570.21 0.214709 -1.61378 0
M  V30 15839 O 1571.4 -0.00487178 -1.78499 0
M  V30 15840 C 1568.5 -0.107513 -3.38729 0
M  V30 15841 C 1567.67 -1.11487 -4.22953 0
M  V30 15842 C 1566.73 -0.487243 -5.23939 0
M  V30 15843 O 1565.76 -1.14605 -5.57543 0
M  V30 15844 N 1566.96 0.742571 -5.75731 0
M  V30 15845 H 1569.72 -1.67669 -2.48409 0
M  V30 15846 H 1567.28 -1.0227 -1.25509 0
M  V30 15847 H 1569.28 0.324507 -4.03397 0
M  V30 15848 H 1567.85 0.710438 -3.0442 0
M  V30 15849 H 1567.07 -1.72432 -3.54487 0
M  V30 15850 H 1568.35 -1.79584 -4.76053 0
M  V30 15851 H 1567.75 1.29667 -5.50639 0
M  V30 15852 H 1566.31 1.11731 -6.42152 0
M  V30 15853 N 1569.74 1.27735 -0.923117 0
M  V30 15854 C 1570.71 2.25256 -0.423375 0
M  V30 15855 C 1571.71 1.54213 0.455517 0
M  V30 15856 O 1572.9 1.7229 0.257245 0
M  V30 15857 C 1570.03 3.3864 0.391897 0
M  V30 15858 H 1571.22 2.70978 -1.28495 0
M  V30 15859 H 1568.77 1.39579 -0.703378 0
M  V30 15860 H 1569.51 2.98293 1.27248 0
M  V30 15861 H 1569.29 3.91376 -0.238194 0
M  V30 15862 H 1570.78 4.11133 0.732069 0
M  V30 15863 N 1571.22 0.688118 1.41784 0
M  V30 15864 C 1572.47 0.224991 2.02152 0
M  V30 15865 C 1572.82 -1.16002 1.53497 0
M  V30 15866 O 1572.11 -1.7702 0.733114 0
M  V30 15867 C 1572.31 0.213747 3.5676 0
M  V30 15868 C 1572.14 1.59613 4.20421 0
M  V30 15869 C 1570.91 2.19716 4.55031 0
M  V30 15870 C 1573.11 2.54135 4.47124 0
M  V30 15871 N 1571.09 3.50597 5.0394 0
M  V30 15872 C 1572.46 3.69685 4.97728 0
M  V30 15873 C 1574.51 2.52496 4.29127 0
M  V30 15874 C 1573.22 4.83868 5.32226 0
M  V30 15875 C 1575.24 3.65785 4.6471 0
M  V30 15876 C 1574.6 4.80065 5.15478 0
M  V30 15877 H 1570.7 0.127552 0.771527 0
M  V30 15878 H 1573.29 0.903988 1.72442 0
M  V30 15879 H 1571.46 -0.434709 3.8596 0
M  V30 15880 H 1573.19 -0.263508 4.03841 0
M  V30 15881 H 1569.95 1.72074 4.41234 0
M  V30 15882 H 1570.37 4.17665 5.32809 0
M  V30 15883 H 1575.01 1.65363 3.89121 0
M  V30 15884 H 1572.73 5.71667 5.71159 0
M  V30 15885 H 1576.32 3.6576 4.5245 0
M  V30 15886 H 1575.2 5.66276 5.42496 0
M  V30 15887 N 1572.7 -1.51554 0.432352 0
M  V30 15888 C 1573.63 -2.25369 -0.417328 0
M  V30 15889 C 1574.64 -1.29197 -0.990551 0
M  V30 15890 O 1575.83 -1.54985 -0.885539 0
M  V30 15891 C 1572.93 -2.99006 -1.59526 0
M  V30 15892 C 1572.11 -4.22234 -1.1418 0
M  V30 15893 C 1571.16 -4.78495 -2.18928 0
M  V30 15894 O 1570.19 -5.40465 -1.78566 0
M  V30 15895 N 1571.39 -4.62091 -3.51358 0
M  V30 15896 H 1574.16 -2.98926 0.215294 0
M  V30 15897 H 1571.72 -1.59783 0.26097 0
M  V30 15898 H 1573.71 -3.33532 -2.29212 0
M  V30 15899 H 1572.28 -2.28491 -2.13332 0
M  V30 15900 H 1571.5 -3.93259 -0.272182 0
M  V30 15901 H 1572.79 -5.02212 -0.816145 0
M  V30 15902 H 1572.19 -4.12718 -3.86885 0
M  V30 15903 H 1570.74 -5.00992 -4.16953 0
M  V30 15904 N 1574.18 -0.163538 -1.56749 0
M  V30 15905 C 1575.59 0.192717 -1.58432 0
M  V30 15906 C 1575.79 1.63438 -1.17856 0
M  V30 15907 O 1574.85 2.36425 -0.88654 0
M  V30 15908 C 1576.16 -0.0810427 -3.00591 0
M  V30 15909 C 1577.71 -0.0186378 -3.12994 0
M  V30 15910 C 1578.18 -0.265283 -4.57231 0
M  V30 15911 N 1579.68 -0.212787 -4.62711 0
M  V30 15912 C 1580.41 -0.37791 -5.72153 0
M  V30 15913 N 1579.91 -0.601663 -6.90182 0
M  V30 15914 N 1581.7 -0.314357 -5.6122 0
M  V30 15915 H 1573.85 -1.10467 -1.81413 0
M  V30 15916 H 1576.11 -0.438569 -0.840453 0
M  V30 15917 H 1575.82 -1.07944 -3.34725 0
M  V30 15918 H 1575.69 0.630888 -3.71887 0
M  V30 15919 H 1578.08 0.970324 -2.78691 0
M  V30 15920 H 1578.16 -0.763158 -2.44151 0
M  V30 15921 H 1577.81 -1.25142 -4.92242 0
M  V30 15922 H 1577.74 0.499756 -5.24223 0
M  V30 15923 H 1580.23 -0.0451754 -3.77873 0
M  V30 15924 H 1580.54 -0.717319 -7.69464 0
M  V30 15925 H 1578.88 -0.638184 -6.92064 0
M  V30 15926 H 1582.08 -0.140197 -4.6789 0
M  V30 15927 H 1582.25 -0.446472 -6.4646 0
M  V30 15928 N 1575.65 1.57214 0.110213 0
M  V30 15929 C 1577.07 1.74402 0.666405 0
M  V30 15930 C 1577.42 0.783524 1.79876 0
M  V30 15931 O 1576.54 -0.0415306 2.1636 0
M  V30 15932 C 1577.14 3.1624 1.21564 0
M  V30 15933 C 1575.7 3.34904 1.71804 0
M  V30 15934 C 1574.84 2.70249 0.621347 0
M  V30 15935 H 1577.79 1.58277 -0.115765 0
M  V30 15936 H 1577.81 3.18276 2.0852 0
M  V30 15937 H 1577.33 3.86123 0.391273 0
M  V30 15938 H 1575.43 2.70077 2.56689 0
M  V30 15939 H 1575.54 4.43126 1.82143 0
M  V30 15940 H 1573.9 2.31727 1.05711 0
M  V30 15941 H 1574.69 3.42762 -0.192185 0
M  V30 15942 N 1577.13 -0.380637 1.52934 0
M  V30 15943 C 1578.41 -1.13958 1.58975 0
M  V30 15944 C 1578.79 -2.07503 0.388028 0
M  V30 15945 O 1578.14 -2.19844 -0.622984 0
M  V30 15946 C 1578.35 -1.89192 2.9327 0
M  V30 15947 C 1579.7 -2.44259 3.47308 0
M  V30 15948 O 1580.72 -1.99338 2.95199 0
M  V30 15949 O 1579.58 -3.26338 4.38367 0
M  V30 15950 H 1576.67 -0.521896 0.641525 0
M  V30 15951 H 1579.22 -0.385114 1.65272 0
M  V30 15952 H 1577.99 -1.20834 3.72176 0
M  V30 15953 H 1577.61 -2.71581 2.90395 0
M  V30 15954 N 1578.61 -1.44039 -0.639573 0
M  V30 15955 C 1579.86 -1.46088 -1.39652 0
M  V30 15956 C 1580.18 -0.0914602 -1.94785 0
M  V30 15957 O 1579.45 0.875097 -1.75268 0
M  V30 15958 H 1578.03 -0.537901 -0.518335 0
M  V30 15959 H 1580.69 -1.79751 -0.753365 0
M  V30 15960 H 1579.79 -2.1814 -2.23207 0
M  V30 15961 N 1580.09 0.879207 -1.30796 0
M  V30 15962 C 1581.02 1.99134 -1.13482 0
M  V30 15963 C 1582.03 1.6262 -0.0764492 0
M  V30 15964 O 1583.22 1.75553 -0.323038 0
M  V30 15965 C 1580.32 3.31386 -0.709706 0
M  V30 15966 C 1579.5 3.963 -1.85108 0
M  V30 15967 C 1578.55 5.06858 -1.41356 0
M  V30 15968 O 1577.58 5.28178 -2.12172 0
M  V30 15969 N 1578.78 5.79746 -0.295789 0
M  V30 15970 H 1581.55 2.14536 -2.09271 0
M  V30 15971 H 1579.11 1.05264 -1.23009 0
M  V30 15972 H 1581.1 4.02719 -0.399903 0
M  V30 15973 H 1579.67 3.12209 0.156309 0
M  V30 15974 H 1578.89 3.18065 -2.3287 0
M  V30 15975 H 1580.18 4.36408 -2.61582 0
M  V30 15976 H 1579.58 5.64935 0.294166 0
M  V30 15977 H 1578.13 6.51784 -0.0454707 0
M  V30 15978 N 1581.57 1.13606 1.09231 0
M  V30 15979 C 1582.98 0.91148 1.62938 0
M  V30 15980 C 1583.33 -0.55157 1.88287 0
M  V30 15981 O 1582.45 -1.4187 1.63407 0
M  V30 15982 C 1583.05 1.64812 2.96011 0
M  V30 15983 C 1581.61 1.46935 3.46536 0
M  V30 15984 C 1580.76 1.67605 2.20916 0
M  V30 15985 H 1583.71 1.28907 0.925669 0
M  V30 15986 H 1583.73 1.10638 3.6406 0
M  V30 15987 H 1583.24 2.71291 2.77529 0
M  V30 15988 H 1581.34 0.427667 3.70138 0
M  V30 15989 H 1581.45 2.23374 4.2384 0
M  V30 15990 H 1579.82 1.10105 2.29672 0
M  V30 15991 H 1580.6 2.75408 2.04952 0
M  V30 15992 N 1583.05 -1.27244 0.929878 0
M  V30 15993 C 1584.01 -2.25028 0.435315 0
M  V30 15994 C 1585.01 -1.54453 -0.447332 0
M  V30 15995 O 1586.2 -1.72424 -0.248105 0
M  V30 15996 C 1583.33 -3.38843 -0.373933 0
M  V30 15997 H 1584.52 -2.70293 1.2993 0
M  V30 15998 H 1582.08 -1.39204 0.710771 0
M  V30 15999 H 1582.81 -2.98963 -1.25664 0
M  V30 16000 H 1582.6 -3.91244 0.258946 0
M  V30 16001 H 1584.09 -4.11516 -0.710255 0
M  V30 16002 N 1584.52 -0.695628 -1.41417 0
M  V30 16003 C 1585.75 -0.235654 -2.05554 0
M  V30 16004 C 1586.17 1.11513 -1.52349 0
M  V30 16005 O 1585.52 1.69688 -0.671743 0
M  V30 16006 C 1585.57 -0.184809 -3.61027 0
M  V30 16007 O 1585.3 -1.48224 -4.12264 0
M  V30 16008 C 1586.8 0.296147 -4.4231 0
M  V30 16009 H 1584.02 -0.109648 -0.661981 0
M  V30 16010 H 1586.56 -0.948227 -1.81187 0
M  V30 16011 H 1584.72 0.478588 -3.84432 0
M  V30 16012 H 1585.13 -1.36939 -5.06308 0
M  V30 16013 H 1586.6 0.280597 -5.51286 0
M  V30 16014 H 1587.08 1.33503 -4.18418 0
M  V30 16015 H 1587.69 -0.336253 -4.23969 0
M  V30 16016 N 1586 1.51322 -0.440383 0
M  V30 16017 C 1587.42 1.5933 -0.0928372 0
M  V30 16018 C 1587.62 1.45107 1.39807 0
M  V30 16019 O 1586.67 1.29385 2.16831 0
M  V30 16020 C 1587.99 2.9433 -0.615663 0
M  V30 16021 C 1589.53 3.07647 -0.576373 0
M  V30 16022 C 1590.01 4.45176 -1.07622 0
M  V30 16023 N 1591.5 4.51504 -1.03434 0
M  V30 16024 C 1592.24 5.56249 -1.39194 0
M  V30 16025 N 1591.73 6.68398 -1.82254 0
M  V30 16026 N 1593.52 5.46624 -1.30991 0
M  V30 16027 H 1585.68 1.58812 -1.41041 0
M  V30 16028 H 1587.94 0.748795 -0.581386 0
M  V30 16029 H 1587.64 3.10117 -1.65892 0
M  V30 16030 H 1587.52 3.77176 -0.0422513 0
M  V30 16031 H 1589.91 2.91526 0.457904 0
M  V30 16032 H 1589.99 2.26633 -1.18622 0
M  V30 16033 H 1589.63 4.62044 -2.10898 0
M  V30 16034 H 1589.56 5.24734 -0.442882 0
M  V30 16035 H 1592.05 3.71013 -0.718156 0
M  V30 16036 H 1592.36 7.44347 -2.07769 0
M  V30 16037 H 1590.71 6.69598 -1.86183 0
M  V30 16038 H 1593.9 4.57894 -0.972145 0
M  V30 16039 H 1594.07 6.28143 -1.59188 0
M  V30 16040 N 1587.48 0.171848 1.5666 0
M  V30 16041 C 1588.39 -0.770721 2.21579 0
M  V30 16042 C 1589.41 -1.25273 1.20759 0
M  V30 16043 O 1590.58 -1.30474 1.53422 0
M  V30 16044 C 1587.65 -1.98256 2.84422 0
M  V30 16045 C 1586.71 -1.54738 4.00443 0
M  V30 16046 C 1585.94 -2.70145 4.6028 0
M  V30 16047 O 1586.16 -3.87026 4.19007 0
M  V30 16048 O 1585.1 -2.44189 5.50141 0
M  V30 16049 H 1588.92 -0.247974 3.02686 0
M  V30 16050 H 1586.51 -0.0563734 1.49294 0
M  V30 16051 H 1588.39 -2.69127 3.24266 0
M  V30 16052 H 1587.07 -2.49435 2.0631 0
M  V30 16053 H 1585.97 -0.808152 3.65267 0
M  V30 16054 H 1587.31 -1.08249 4.80149 0
M  V30 16055 N 1588.96 -1.5727 -0.101874 0
M  V30 16056 C 1589.91 -1.98011 -1.13029 0
M  V30 16057 C 1590.89 -0.857554 -1.36143 0
M  V30 16058 O 1592.08 -1.12135 -1.36948 0
M  V30 16059 C 1589.21 -2.4024 -2.45234 0
M  V30 16060 C 1588.3 -3.59166 -2.25522 0
M  V30 16061 N 1588.69 -4.74317 -1.75662 0
M  V30 16062 C 1586.99 -3.65132 -2.56115 0
M  V30 16063 C 1587.69 -5.56286 -1.70061 0
M  V30 16064 N 1586.66 -4.99262 -2.15031 0
M  V30 16065 H 1590.47 -2.84493 -0.737611 0
M  V30 16066 H 1587.98 -1.59426 -0.309395 0
M  V30 16067 H 1589.98 -2.67652 -3.19637 0
M  V30 16068 H 1588.64 -1.55131 -2.85245 0
M  V30 16069 H 1589.65 -4.972 -1.44958 0
M  V30 16070 H 1586.33 -2.9067 -2.99696 0
M  V30 16071 H 1587.72 -6.58682 -1.3262 0
M  V30 16072 N 1590.44 0.372521 -1.53134 0
M  V30 16073 C 1591.37 1.4621 -1.82057 0
M  V30 16074 C 1592.35 1.56194 -0.673612 0
M  V30 16075 O 1593.53 1.70875 -0.922797 0
M  V30 16076 C 1590.66 2.83632 -2.00425 0
M  V30 16077 C 1589.62 2.88478 -3.16171 0
M  V30 16078 C 1588.94 4.28508 -3.19821 0
M  V30 16079 C 1590.24 2.56628 -4.54906 0
M  V30 16080 H 1591.94 1.22256 -2.73302 0
M  V30 16081 H 1589.48 0.586688 -1.31507 0
M  V30 16082 H 1591.43 3.59876 -2.19242 0
M  V30 16083 H 1590.16 3.0896 -1.05884 0
M  V30 16084 H 1588.82 2.14684 -2.97164 0
M  V30 16085 H 1588.47 4.509 -2.2293 0
M  V30 16086 H 1588.17 4.32667 -3.97584 0
M  V30 16087 H 1589.69 5.06635 -3.40813 0
M  V30 16088 H 1591.1 3.22587 -4.73931 0
M  V30 16089 H 1589.5 2.72114 -5.34859 0
M  V30 16090 H 1590.57 1.51902 -4.60493 0
M  V30 16091 N 1591.91 1.44376 0.631925 0
M  V30 16092 C 1592.84 1.54005 1.75512 0
M  V30 16093 C 1593.82 0.393126 1.65495 0
M  V30 16094 O 1595.01 0.613143 1.84267 0
M  V30 16095 C 1592.14 1.48313 3.14039 0
M  V30 16096 C 1591.09 2.61474 3.38844 0
M  V30 16097 C 1590.42 2.40834 4.77392 0
M  V30 16098 C 1591.72 4.03627 3.31485 0
M  V30 16099 H 1593.41 2.48019 1.6771 0
M  V30 16100 H 1590.96 1.19368 0.80543 0
M  V30 16101 H 1592.91 1.5365 3.9239 0
M  V30 16102 H 1591.64 0.508152 3.22623 0
M  V30 16103 H 1590.3 2.55525 2.62874 0
M  V30 16104 H 1589.94 1.4153 4.82678 0
M  V30 16105 H 1589.64 3.16703 4.94947 0
M  V30 16106 H 1591.17 2.47988 5.57974 0
M  V30 16107 H 1592.58 4.1095 3.99741 0
M  V30 16108 H 1590.98 4.79694 3.60574 0
M  V30 16109 H 1592.05 4.27255 2.29307 0
M  V30 16110 N 1593.39 -0.872258 1.31261 0
M  V30 16111 C 1594.32 -1.98231 1.13047 0
M  V30 16112 C 1595.3 -1.62563 0.0345979 0
M  V30 16113 O 1596.49 -1.87534 0.190586 0
M  V30 16114 C 1593.61 -3.30809 0.726841 0
M  V30 16115 C 1592.66 -3.85461 1.82542 0
M  V30 16116 S 1593.49 -4.11197 3.43041 0
M  V30 16117 C 1594.65 -5.46776 3.0461 0
M  V30 16118 H 1594.88 -2.13377 2.07021 0
M  V30 16119 H 1592.41 -1.02217 1.1572 0
M  V30 16120 H 1594.37 -4.07435 0.500707 0
M  V30 16121 H 1593.03 -3.13502 -0.193741 0
M  V30 16122 H 1592.23 -4.81299 1.49558 0
M  V30 16123 H 1591.83 -3.1562 2.0065 0
M  V30 16124 H 1594.12 -6.28343 2.53361 0
M  V30 16125 H 1595.06 -5.84708 3.99402 0
M  V30 16126 H 1595.47 -5.09941 2.42116 0
M  V30 16127 N 1594.87 -1.14184 -1.08627 0
M  V30 16128 C 1595.83 -0.82954 -2.13662 0
M  V30 16129 C 1596.83 0.164794 -1.59953 0
M  V30 16130 O 1598.02 -0.0632831 -1.74085 0
M  V30 16131 C 1595.15 -0.236176 -3.40081 0
M  V30 16132 H 1596.35 -1.76038 -2.42797 0
M  V30 16133 H 1593.9 -0.947568 -1.24301 0
M  V30 16134 H 1594.64 0.70349 -3.16578 0
M  V30 16135 H 1594.42 -0.952341 -3.80359 0
M  V30 16136 H 1595.91 -0.03481 -4.17585 0
M  V30 16137 N 1596.35 1.26749 -0.936613 0
M  V30 16138 C 1597.28 2.2892 -0.460213 0
M  V30 16139 C 1598.26 1.63065 0.484135 0
M  V30 16140 O 1599.44 1.90305 0.386973 0
M  V30 16141 C 1596.57 3.46172 0.279648 0
M  V30 16142 C 1595.53 4.24083 -0.57771 0
M  V30 16143 C 1594.85 5.33903 0.291843 0
M  V30 16144 C 1596.15 4.88562 -1.84673 0
M  V30 16145 H 1597.85 2.69019 -1.31412 0
M  V30 16146 H 1595.39 1.29325 -0.633333 0
M  V30 16147 H 1597.35 4.16755 0.623931 0
M  V30 16148 H 1596.07 3.05014 1.16765 0
M  V30 16149 H 1594.73 3.55258 -0.904824 0
M  V30 16150 H 1594.38 4.88986 1.17906 0
M  V30 16151 H 1594.08 5.8694 -0.278372 0
M  V30 16152 H 1595.6 6.07326 0.631498 0
M  V30 16153 H 1597.02 5.51384 -1.56997 0
M  V30 16154 H 1595.41 5.51697 -2.36115 0
M  V30 16155 H 1596.48 4.11761 -2.56088 0
M  V30 16156 N 1597.83 0.703118 1.41046 0
M  V30 16157 C 1598.79 0.0514476 2.29142 0
M  V30 16158 C 1599.79 -0.700223 1.44753 0
M  V30 16159 O 1600.98 -0.533985 1.65814 0
M  V30 16160 C 1598.11 -0.93735 3.2776 0
M  V30 16161 H 1599.3 0.827201 2.88266 0
M  V30 16162 H 1596.86 0.467045 1.49159 0
M  V30 16163 H 1597.59 -1.7406 2.7363 0
M  V30 16164 H 1597.38 -0.4014 3.9004 0
M  V30 16165 H 1598.87 -1.39088 3.93757 0
M  V30 16166 N 1599.3 -1.51086 0.448402 0
M  V30 16167 C 1600.55 -2.01778 -0.114116 0
M  V30 16168 C 1600.87 -1.3339 -1.4224 0
M  V30 16169 O 1600.14 -0.471938 -1.9013 0
M  V30 16170 H 1598.72 -0.745634 -0.0451624 0
M  V30 16171 H 1601.39 -1.85639 0.59364 0
M  V30 16172 H 1600.48 -3.10823 -0.28205 0
M  V30 16173 N 1600.78 -0.180154 -1.56567 0
M  V30 16174 C 1602.03 0.462656 -1.96322 0
M  V30 16175 C 1602.34 1.63788 -1.06925 0
M  V30 16176 O 1603.55 2.34751 -1.36398 0
M  V30 16177 C 1602.01 0.874492 -3.49114 0
M  V30 16178 C 1601.61 -0.27562 -4.47151 0
M  V30 16179 C 1603.36 1.48522 -3.9767 0
M  V30 16180 C 1601.27 0.156341 -5.91193 0
M  V30 16181 H 1600.2 0.176619 -0.733022 0
M  V30 16182 H 1602.85 -0.269793 -1.81506 0
M  V30 16183 H 1601.23 1.66318 -3.59381 0
M  V30 16184 H 1602.4 -1.05304 -4.48606 0
M  V30 16185 H 1600.72 -0.796878 -4.08704 0
M  V30 16186 H 1603.31 1.8206 -5.02751 0
M  V30 16187 H 1603.66 2.38634 -3.41115 0
M  V30 16188 H 1604.19 0.760806 -3.90457 0
M  V30 16189 H 1600.93 -0.710221 -6.51641 0
M  V30 16190 H 1600.45 0.898933 -5.93025 0
M  V30 16191 H 1602.13 0.597228 -6.44238 0
M  V30 16192 N 1602.26 1.57322 0.0935319 0
M  V30 16193 C 1603.54 1.77187 0.828503 0
M  V30 16194 C 1603.92 0.762216 1.96859 0
M  V30 16195 O 1603.27 -0.208982 2.27542 0
M  V30 16196 C 1603.48 3.23007 1.32163 0
M  V30 16197 C 1604.82 3.86233 1.76379 0
M  V30 16198 O 1605.85 3.26766 1.41783 0
M  V30 16199 O 1604.71 4.90808 2.40354 0
M  V30 16200 H 1601.8 0.726401 0.395311 0
M  V30 16201 H 1604.35 1.69533 0.0752924 0
M  V30 16202 H 1603.12 3.88029 0.504863 0
M  V30 16203 H 1602.74 3.353 2.13681 0
M  V30 16204 N 1603.74 -0.364395 1.53329 0
M  V30 16205 C 1604.97 -1.1275 1.7348 0
M  V30 16206 C 1605.38 -1.83002 0.4643 0
M  V30 16207 O 1604.74 -1.73603 -0.562864 0
M  V30 16208 C 1604.79 -2.15691 2.90103 0
M  V30 16209 O 1604.51 -1.48298 4.12237 0
M  V30 16210 C 1606.01 -3.04539 3.22135 0
M  V30 16211 H 1603.23 -0.337084 0.580186 0
M  V30 16212 H 1605.78 -0.422952 2.00078 0
M  V30 16213 H 1603.93 -2.81742 2.65895 0
M  V30 16214 H 1604.34 -2.16896 4.77553 0
M  V30 16215 H 1605.82 -3.72747 4.07141 0
M  V30 16216 H 1606.3 -3.69414 2.3755 0
M  V30 16217 H 1606.9 -2.44103 3.48273 0
M  V30 16218 N 1605.22 -1.44709 -0.62426 0
M  V30 16219 C 1606.15 -1.54934 -1.74693 0
M  V30 16220 C 1607.13 -0.401897 -1.65284 0
M  V30 16221 O 1608.31 -0.622906 -1.83939 0
M  V30 16222 C 1605.44 -1.49976 -3.13248 0
M  V30 16223 C 1604.4 -2.63267 -3.37453 0
M  V30 16224 C 1603.72 -2.43362 -4.76108 0
M  V30 16225 C 1605.02 -4.0538 -3.2934 0
M  V30 16226 H 1606.72 -2.48905 -1.66393 0
M  V30 16227 H 1604.26 -1.19794 -0.799088 0
M  V30 16228 H 1606.22 -1.55729 -3.91569 0
M  V30 16229 H 1604.94 -0.525254 -3.22349 0
M  V30 16230 H 1603.6 -2.56915 -2.61515 0
M  V30 16231 H 1603.25 -1.44088 -4.81921 0
M  V30 16232 H 1602.95 -3.19324 -4.93261 0
M  V30 16233 H 1604.47 -2.50943 -5.56651 0
M  V30 16234 H 1605.88 -4.13064 -3.97556 0
M  V30 16235 H 1604.28 -4.81599 -3.58025 0
M  V30 16236 H 1605.35 -4.28465 -2.27038 0
M  V30 16237 N 1606.69 0.865285 -1.31722 0
M  V30 16238 C 1607.62 1.98871 -1.22362 0
M  V30 16239 C 1608.61 1.69745 -0.109779 0
M  V30 16240 O 1609.79 1.91944 -0.295167 0
M  V30 16241 C 1606.92 3.34477 -0.935 0
M  V30 16242 C 1605.87 3.77924 -2.00892 0
M  V30 16243 C 1605.2 5.11042 -1.57291 0
M  V30 16244 C 1606.5 3.94528 -3.42264 0
M  V30 16245 H 1608.19 2.06959 -2.16352 0
M  V30 16246 H 1605.74 0.994355 -1.04157 0
M  V30 16247 H 1607.69 4.12612 -0.856111 0
M  V30 16248 H 1606.42 3.26575 0.0405536 0
M  V30 16249 H 1605.08 3.02032 -2.07779 0
M  V30 16250 H 1604.72 4.99586 -0.585084 0
M  V30 16251 H 1604.42 5.41082 -2.29138 0
M  V30 16252 H 1605.95 5.91681 -1.50818 0
M  V30 16253 H 1607.36 4.63045 -3.38027 0
M  V30 16254 H 1605.76 4.35972 -4.12369 0
M  V30 16255 H 1606.83 2.97765 -3.82706 0
M  V30 16256 N 1608.17 1.14759 1.0802 0
M  V30 16257 C 1609.42 0.912823 1.79862 0
M  V30 16258 C 1609.73 -0.561873 1.87356 0
M  V30 16259 O 1610.94 -0.914015 2.55652 0
M  V30 16260 C 1609.4 1.58369 3.23183 0
M  V30 16261 C 1609 3.09493 3.23911 0
M  V30 16262 C 1610.75 1.43021 3.99682 0
M  V30 16263 C 1608.66 3.69398 4.61843 0
M  V30 16264 H 1607.59 0.337868 0.674063 0
M  V30 16265 H 1610.24 1.37695 1.21294 0
M  V30 16266 H 1608.62 1.04724 3.81902 0
M  V30 16267 H 1609.79 3.69838 2.74876 0
M  V30 16268 H 1608.11 3.24524 2.60908 0
M  V30 16269 H 1610.7 1.85174 5.01612 0
M  V30 16270 H 1611.05 0.376814 4.14591 0
M  V30 16271 H 1611.58 1.93724 3.47442 0
M  V30 16272 H 1608.32 4.74607 4.52138 0
M  V30 16273 H 1607.84 3.13835 5.11144 0
M  V30 16274 H 1609.52 3.69923 5.30816 0
M  V30 16275 N 1609.65 -1.26251 0.943322 0
M  V30 16276 C 1611.07 -1.45943 0.645966 0
M  V30 16277 C 1611.27 -1.84936 -0.800064 0
M  V30 16278 O 1610.32 -1.97238 -1.57649 0
M  V30 16279 C 1611.64 -2.54017 1.60922 0
M  V30 16280 C 1613.18 -2.67866 1.61916 0
M  V30 16281 C 1613.66 -3.79113 2.56977 0
M  V30 16282 N 1615.15 -3.86509 2.55275 0
M  V30 16283 C 1615.88 -4.72048 3.25513 0
M  V30 16284 N 1615.38 -5.61959 4.05184 0
M  V30 16285 N 1617.17 -4.65913 3.14454 0
M  V30 16286 H 1609.32 -0.992295 1.87796 0
M  V30 16287 H 1611.59 -0.497204 0.80715 0
M  V30 16288 H 1611.29 -2.32197 2.64155 0
M  V30 16289 H 1611.17 -3.51715 1.36294 0
M  V30 16290 H 1613.55 -2.89059 0.594067 0
M  V30 16291 H 1613.64 -1.70604 1.90598 0
M  V30 16292 H 1613.28 -3.58673 3.59605 0
M  V30 16293 H 1613.21 -4.75836 2.25583 0
M  V30 16294 H 1615.7 -3.22229 1.97425 0
M  V30 16295 H 1616.01 -6.24127 4.55725 0
M  V30 16296 H 1614.36 -5.61704 4.09285 0
M  V30 16297 H 1617.55 -3.94675 2.51693 0
M  V30 16298 H 1617.72 -5.32356 3.69461 0
M  V30 16299 N 1611.13 -0.710588 -1.40671 0
M  V30 16300 C 1612.09 -0.0635988 -2.29112 0
M  V30 16301 C 1613.09 0.692537 -1.45123 0
M  V30 16302 O 1614.28 0.525184 -1.66095 0
M  V30 16303 C 1611.41 0.919955 -3.28252 0
M  V30 16304 H 1612.61 -0.842477 -2.87823 0
M  V30 16305 H 1610.16 -0.474948 -1.48909 0
M  V30 16306 H 1610.9 1.72607 -2.7455 0
M  V30 16307 H 1610.68 0.38071 -3.90247 0
M  V30 16308 H 1612.17 1.36997 -3.94489 0
M  V30 16309 N 1612.61 1.50847 -0.456408 0
M  V30 16310 C 1613.83 2.07139 0.104054 0
M  V30 16311 C 1614.26 1.31966 1.34039 0
M  V30 16312 O 1613.62 0.363038 1.77628 0
M  V30 16313 C 1613.66 3.5853 0.385794 0
M  V30 16314 O 1612.77 3.85351 1.46895 0
M  V30 16315 H 1612.11 0.663968 -0.00651246 0
M  V30 16316 H 1614.64 1.94226 -0.64323 0
M  V30 16317 H 1614.65 4.03097 0.630644 0
M  V30 16318 H 1613.32 4.12665 -0.51773 0
M  V30 16319 H 1611.9 3.52635 1.21256 0
M  V30 16320 N 1614.09 0.188454 1.56469 0
M  V30 16321 C 1615.32 -0.457182 2.01478 0
M  V30 16322 C 1615.72 -1.5619 1.06777 0
M  V30 16323 O 1615.07 -1.8359 0.063659 0
M  V30 16324 C 1615.13 -1.08002 3.42893 0
M  V30 16325 C 1614.79 -0.114858 4.56856 0
M  V30 16326 C 1615.79 0.673269 5.15522 0
M  V30 16327 C 1613.47 -0.00570411 5.023 0
M  V30 16328 C 1615.47 1.55758 6.18076 0
M  V30 16329 C 1613.16 0.882173 6.04699 0
M  V30 16330 C 1614.15 1.66239 6.6246 0
M  V30 16331 O 1613.84 2.5354 7.62871 0
M  V30 16332 H 1613.57 -0.119784 0.665303 0
M  V30 16333 H 1616.13 0.292446 2.03307 0
M  V30 16334 H 1614.36 -1.87811 3.3803 0
M  V30 16335 H 1616.05 -1.62962 3.7175 0
M  V30 16336 H 1616.81 0.599207 4.81284 0
M  V30 16337 H 1612.69 -0.602804 4.57042 0
M  V30 16338 H 1616.24 2.16701 6.63088 0
M  V30 16339 H 1612.13 0.957375 6.38361 0
M  V30 16340 H 1612.9 2.47245 7.80264 0
M  V30 16341 N 1615.56 -1.5737 -0.0851874 0
M  V30 16342 C 1616.53 -2.01789 -1.08692 0
M  V30 16343 C 1617.53 -0.912872 -1.32376 0
M  V30 16344 O 1618.72 -1.1781 -1.28322 0
M  V30 16345 C 1615.85 -2.38708 -2.43375 0
M  V30 16346 H 1617.04 -2.91511 -0.704359 0
M  V30 16347 H 1614.59 -1.52765 -0.330528 0
M  V30 16348 H 1615.33 -1.5197 -2.86488 0
M  V30 16349 H 1615.11 -3.19331 -2.2753 0
M  V30 16350 H 1616.6 -2.73697 -3.15404 0
M  V30 16351 N 1617.04 0.356258 -1.53521 0
M  V30 16352 C 1617.97 1.45722 -1.76912 0
M  V30 16353 C 1618.99 1.49257 -0.650091 0
M  V30 16354 O 1620.18 1.52569 -0.926557 0
M  V30 16355 C 1617.28 2.84444 -1.84241 0
M  V30 16356 C 1616.45 3.04497 -3.14007 0
M  V30 16357 C 1615.51 4.23387 -3.12458 0
M  V30 16358 O 1614.53 4.18113 -3.86225 0
M  V30 16359 N 1615.74 5.31278 -2.33931 0
M  V30 16360 H 1618.5 1.26031 -2.71912 0
M  V30 16361 H 1616.06 0.546052 -1.52414 0
M  V30 16362 H 1618.05 3.62133 -1.80671 0
M  V30 16363 H 1616.62 2.97338 -0.96484 0
M  V30 16364 H 1615.84 2.14387 -3.30805 0
M  V30 16365 H 1617.13 3.14769 -3.99747 0
M  V30 16366 H 1616.53 5.38428 -1.73527 0
M  V30 16367 H 1615.09 6.07508 -2.36171 0
M  V30 16368 N 1618.52 1.45038 0.616577 0
M  V30 16369 C 1619.45 1.49023 1.7414 0
M  V30 16370 C 1620.46 0.381965 1.58256 0
M  V30 16371 O 1621.65 0.648527 1.66302 0
M  V30 16372 C 1618.75 1.32233 3.12038 0
M  V30 16373 C 1617.93 2.5657 3.54246 0
M  V30 16374 C 1616.99 2.34468 4.71075 0
M  V30 16375 O 1616.01 3.08035 4.78647 0
M  V30 16376 N 1617.21 1.38454 5.63747 0
M  V30 16377 H 1619.98 2.45997 1.71189 0
M  V30 16378 H 1617.54 1.40663 0.80159 0
M  V30 16379 H 1619.53 1.15271 3.87936 0
M  V30 16380 H 1618.1 0.435685 3.09549 0
M  V30 16381 H 1617.32 2.88709 2.68404 0
M  V30 16382 H 1618.61 3.39239 3.79203 0
M  V30 16383 H 1618.01 0.777236 5.60335 0
M  V30 16384 H 1616.56 1.27467 6.39215 0
M  V30 16385 N 1620 -0.858287 1.32179 0
M  V30 16386 C 1621.41 -1.4281 1.20259 0
M  V30 16387 C 1621.76 -1.95313 -0.186332 0
M  V30 16388 O 1620.88 -1.87244 -1.08484 0
M  V30 16389 C 1621.48 -2.59589 2.17713 0
M  V30 16390 C 1620.04 -3.1258 2.09691 0
M  V30 16391 C 1619.19 -1.85317 2.06283 0
M  V30 16392 H 1622.14 -0.665769 1.4406 0
M  V30 16393 H 1622.16 -3.36639 1.77354 0
M  V30 16394 H 1621.67 -2.21346 3.18791 0
M  V30 16395 H 1619.77 -3.55416 1.11849 0
M  V30 16396 H 1619.88 -3.74071 2.99346 0
M  V30 16397 H 1618.25 -2.04766 1.51469 0
M  V30 16398 H 1619.03 -1.49296 3.09137 0
M  V30 16399 N 1621.48 -1.1533 -1.07409 0
M  V30 16400 C 1622.44 -0.852155 -2.1277 0
M  V30 16401 C 1623.44 0.14782 -1.60119 0
M  V30 16402 O 1624.63 -0.0817436 -1.74008 0
M  V30 16403 C 1621.76 -0.272233 -3.39811 0
M  V30 16404 H 1622.95 -1.78604 -2.40917 0
M  V30 16405 H 1620.51 -0.960698 -1.23289 0
M  V30 16406 H 1621.24 0.669873 -3.17306 0
M  V30 16407 H 1621.03 -0.992629 -3.79327 0
M  V30 16408 H 1622.52 -0.0790986 -4.17525 0
M  V30 16409 N 1622.95 1.25748 -0.950004 0
M  V30 16410 C 1623.86 2.29783 -0.472971 0
M  V30 16411 C 1624.88 1.6788 0.457403 0
M  V30 16412 O 1626.06 1.98598 0.334779 0
M  V30 16413 C 1623.12 3.45826 0.245955 0
M  V30 16414 C 1622.18 4.23184 -0.722063 0
M  V30 16415 C 1621.41 5.33687 -0.0373517 0
M  V30 16416 O 1621.64 5.58105 1.1779 0
M  V30 16417 O 1620.57 5.97572 -0.72054 0
M  V30 16418 H 1624.4 2.72668 -1.33737 0
M  V30 16419 H 1621.98 1.31111 -0.71626 0
M  V30 16420 H 1623.86 4.16348 0.650563 0
M  V30 16421 H 1622.54 3.04953 1.0856 0
M  V30 16422 H 1621.45 3.55109 -1.17679 0
M  V30 16423 H 1622.78 4.67829 -1.52959 0
M  V30 16424 N 1624.43 0.718038 1.40292 0
M  V30 16425 C 1625.66 0.266918 2.05675 0
M  V30 16426 C 1626.08 -1.08364 1.53749 0
M  V30 16427 O 1625.44 -1.6831 0.673912 0
M  V30 16428 C 1625.49 0.259606 3.59664 0
M  V30 16429 O 1624.59 -0.758372 4.05367 0
M  V30 16430 H 1623.93 0.124786 0.652169 0
M  V30 16431 H 1626.46 0.979207 1.79646 0
M  V30 16432 H 1626.47 0.098135 4.07882 0
M  V30 16433 H 1625.15 1.24517 3.96823 0
M  V30 16434 H 1623.72 -0.564425 3.68604 0
M  V30 16435 N 1625.91 -1.50602 0.464402 0
M  V30 16436 C 1627.33 -1.59162 0.118173 0
M  V30 16437 C 1627.53 -1.47313 -1.37481 0
M  V30 16438 O 1626.58 -1.32819 -2.14745 0
M  V30 16439 C 1627.9 -2.93313 0.662411 0
M  V30 16440 C 1629.44 -3.06692 0.625244 0
M  V30 16441 C 1629.92 -4.43407 1.14691 0
M  V30 16442 N 1631.41 -4.49801 1.10604 0
M  V30 16443 C 1632.14 -5.53964 1.48026 0
M  V30 16444 N 1631.64 -6.65413 1.92865 0
M  V30 16445 N 1633.43 -5.44471 1.39671 0
M  V30 16446 H 1625.58 -1.56548 1.4355 0
M  V30 16447 H 1627.85 -0.739451 0.593225 0
M  V30 16448 H 1627.55 -3.07439 1.70805 0
M  V30 16449 H 1627.43 -3.77061 0.102251 0
M  V30 16450 H 1629.81 -2.92217 -0.411466 0
M  V30 16451 H 1629.9 -2.24717 1.22213 0
M  V30 16452 H 1629.54 -4.5863 2.18222 0
M  V30 16453 H 1629.47 -5.23963 0.526306 0
M  V30 16454 H 1631.96 -3.69824 0.77709 0
M  V30 16455 H 1632.27 -7.40947 2.19585 0
M  V30 16456 H 1630.62 -6.66551 1.96812 0
M  V30 16457 H 1633.81 -4.56289 1.04487 0
M  V30 16458 H 1633.98 -6.25531 1.69161 0
M  V30 16459 N 1627.39 -0.19675 -1.56367 0
M  V30 16460 C 1628.63 0.442238 -1.97919 0
M  V30 16461 C 1628.97 1.61156 -1.08362 0
M  V30 16462 O 1628.24 1.94024 -0.135969 0
M  V30 16463 C 1628.53 0.90078 -3.48652 0
M  V30 16464 C 1628.38 -0.270471 -4.48986 0
M  V30 16465 C 1629.7 1.7657 -4.03126 0
M  V30 16466 H 1626.82 0.159276 -0.719583 0
M  V30 16467 H 1629.46 -0.288004 -1.87805 0
M  V30 16468 H 1627.61 1.52302 -3.57402 0
M  V30 16469 H 1629.28 -0.908176 -4.52272 0
M  V30 16470 H 1627.52 -0.921973 -4.23889 0
M  V30 16471 H 1628.19 0.0929101 -5.51922 0
M  V30 16472 H 1630.67 1.24091 -3.97166 0
M  V30 16473 H 1629.55 2.0555 -5.0896 0
M  V30 16474 H 1629.81 2.72047 -3.48486 0
M  V30 16475 N 1628.87 1.57413 0.0768405 0
M  V30 16476 C 1630.09 1.91607 0.793833 0
M  V30 16477 C 1630.52 0.792708 1.70581 0
M  V30 16478 O 1629.87 -0.25475 1.79501 0
M  V30 16479 C 1629.92 3.24736 1.56776 0
M  V30 16480 O 1629.03 3.13613 2.67807 0
M  V30 16481 H 1628.37 0.627572 0.216908 0
M  V30 16482 H 1630.9 2.04547 0.0465957 0
M  V30 16483 H 1630.91 3.58488 1.94809 0
M  V30 16484 H 1629.58 4.06077 0.898588 0
M  V30 16485 H 1628.16 2.91411 2.32668 0
M  V30 16486 N 1630.34 -0.348112 1.53707 0
M  V30 16487 C 1631.59 -1.08671 1.70396 0
M  V30 16488 C 1631.91 -1.89314 0.467453 0
M  V30 16489 O 1631.18 -1.88911 -0.518605 0
M  V30 16490 H 1629.76 -0.404186 0.628206 0
M  V30 16491 H 1632.43 -0.390491 1.90948 0
M  V30 16492 H 1631.52 -1.76668 2.57284 0
M  V30 16493 N 1631.82 -1.45363 -0.608876 0
M  V30 16494 C 1633.07 -1.48586 -1.364 0
M  V30 16495 C 1633.38 -0.131213 -1.95159 0
M  V30 16496 O 1634.59 -0.0410845 -2.71469 0
M  V30 16497 C 1633.05 -2.61694 -2.47071 0
M  V30 16498 C 1632.65 -4.03466 -1.94729 0
M  V30 16499 C 1634.4 -2.74162 -3.24091 0
M  V30 16500 C 1632.31 -5.07958 -3.02874 0
M  V30 16501 H 1631.24 -0.552893 -0.512665 0
M  V30 16502 H 1633.89 -1.71499 -0.65271 0
M  V30 16503 H 1632.27 -2.32062 -3.20879 0
M  V30 16504 H 1633.44 -4.4277 -1.27638 0
M  V30 16505 H 1631.76 -3.95436 -1.30457 0
M  V30 16506 H 1634.35 -3.494 -4.04752 0
M  V30 16507 H 1634.7 -1.80751 -3.75013 0
M  V30 16508 H 1635.23 -3.03313 -2.57383 0
M  V30 16509 H 1631.97 -6.03073 -2.56871 0
M  V30 16510 H 1631.49 -4.73225 -3.68535 0
M  V30 16511 H 1633.17 -5.3265 -3.67277 0
M  V30 16512 N 1633.3 0.851265 -1.32632 0
M  V30 16513 C 1634.53 1.64328 -1.26535 0
M  V30 16514 C 1634.95 1.87392 0.163086 0
M  V30 16515 O 1634.31 1.42913 1.1156 0
M  V30 16516 C 1634.36 2.97781 -2.03369 0
M  V30 16517 O 1633.46 3.8849 -1.38381 0
M  V30 16518 H 1632.8 0.500864 -0.435926 0
M  V30 16519 H 1635.33 1.06 -1.75001 0
M  V30 16520 H 1635.34 3.47576 -2.1367 0
M  V30 16521 H 1634.02 2.80316 -3.07239 0
M  V30 16522 H 1632.59 3.4696 -1.36649 0
M  V30 16523 N 1634.78 1.15898 1.06796 0
M  V30 16524 C 1635.71 0.804414 2.13552 0
M  V30 16525 C 1636.69 -0.22167 1.61082 0
M  V30 16526 O 1637.87 -0.106925 1.88196 0
M  V30 16527 C 1635 0.197166 3.38126 0
M  V30 16528 C 1634.05 1.19605 4.09386 0
M  V30 16529 S 1634.88 2.74054 4.6006 0
M  V30 16530 C 1636.04 2.14764 5.87901 0
M  V30 16531 H 1636.27 1.7086 2.43298 0
M  V30 16532 H 1633.8 0.981915 1.19154 0
M  V30 16533 H 1635.76 -0.14674 4.10238 0
M  V30 16534 H 1634.42 -0.684706 3.06546 0
M  V30 16535 H 1633.61 0.719491 4.98838 0
M  V30 16536 H 1633.22 1.48478 3.43264 0
M  V30 16537 H 1635.51 1.51317 6.60386 0
M  V30 16538 H 1636.45 3.02406 6.40278 0
M  V30 16539 H 1636.86 1.58846 5.4169 0
M  V30 16540 N 1636.26 -1.25243 0.956659 0
M  V30 16541 C 1637.53 -1.88287 0.529832 0
M  V30 16542 C 1637.91 -1.8629 -0.992929 0
M  V30 16543 O 1637.26 -1.32785 -1.85958 0
M  V30 16544 C 1637.47 -3.30919 1.10877 0
M  V30 16545 C 1638.82 -4.07674 1.18687 0
M  V30 16546 O 1639.84 -3.40048 1.06047 0
M  V30 16547 O 1638.7 -5.28648 1.38541 0
M  V30 16548 H 1635.8 -0.808258 0.175066 0
M  V30 16549 H 1638.34 -1.33298 1.05022 0
M  V30 16550 H 1637.11 -3.26813 2.15195 0
M  V30 16551 H 1636.74 -3.93468 0.571755 0
M  V30 16552 N 1637.73 -0.725468 -1.3991 0
M  V30 16553 C 1638.98 -0.26965 -2.00999 0
M  V30 16554 C 1639.31 1.13727 -1.57416 0
M  V30 16555 O 1638.59 1.77345 -0.798693 0
M  V30 16556 C 1638.87 -0.360784 -3.58288 0
M  V30 16557 C 1638.72 -1.80679 -4.11916 0
M  V30 16558 C 1640.04 0.262328 -4.39317 0
M  V30 16559 H 1637.16 -0.0994547 -0.730259 0
M  V30 16560 H 1639.8 -0.91983 -1.6625 0
M  V30 16561 H 1637.95 0.192779 -3.88021 0
M  V30 16562 H 1639.63 -2.4165 -3.92942 0
M  V30 16563 H 1637.87 -2.33127 -3.65834 0
M  V30 16564 H 1638.54 -1.82189 -5.21068 0
M  V30 16565 H 1641.02 -0.209452 -4.15573 0
M  V30 16566 H 1639.89 0.168166 -5.48642 0
M  V30 16567 H 1640.15 1.34716 -4.21075 0
M  V30 16568 N 1639.21 1.50354 -0.472382 0
M  V30 16569 C 1640.18 2.27096 0.30981 0
M  V30 16570 C 1641.18 1.3193 0.919306 0
M  V30 16571 O 1642.37 1.55344 0.788284 0
M  V30 16572 C 1639.5 3.08924 1.44149 0
M  V30 16573 H 1640.69 2.97692 -0.363228 0
M  V30 16574 H 1638.24 1.5465 -0.226483 0
M  V30 16575 H 1638.98 2.42828 2.14954 0
M  V30 16576 H 1638.76 3.78862 1.01023 0
M  V30 16577 H 1640.25 3.66961 1.99323 0
M  V30 16578 N 1640.69 0.205039 1.56261 0
M  V30 16579 C 1641.94 -0.431735 1.98151 0
M  V30 16580 C 1642.27 -1.60579 1.09215 0
M  V30 16581 O 1641.55 -1.93949 0.146257 0
M  V30 16582 C 1641.83 -0.882278 3.49124 0
M  V30 16583 C 1641.68 0.294278 4.48836 0
M  V30 16584 C 1643 -1.7443 4.04057 0
M  V30 16585 H 1640.12 -0.155457 0.720418 0
M  V30 16586 H 1642.76 0.29796 1.87649 0
M  V30 16587 H 1640.91 -1.50404 3.58205 0
M  V30 16588 H 1642.58 0.932148 4.51784 0
M  V30 16589 H 1640.83 0.94444 4.23394 0
M  V30 16590 H 1641.5 -0.063639 5.51963 0
M  V30 16591 H 1643.97 -1.21983 3.97818 0
M  V30 16592 H 1642.85 -2.02848 5.10043 0
M  V30 16593 H 1643.11 -2.70195 3.49924 0
M  V30 16594 N 1642.17 -1.57451 -0.0684915 0
M  V30 16595 C 1643.58 -1.76107 -0.619932 0
M  V30 16596 C 1643.93 -0.830939 -1.77735 0
M  V30 16597 O 1643.06 -0.0158481 -2.16394 0
M  V30 16598 C 1643.65 -3.19352 -1.13136 0
M  V30 16599 C 1642.21 -3.39341 -1.62864 0
M  V30 16600 C 1641.36 -2.71801 -0.549477 0
M  V30 16601 H 1644.31 -1.57915 0.157689 0
M  V30 16602 H 1644.33 -3.23693 -2.00008 0
M  V30 16603 H 1643.84 -3.87024 -0.288762 0
M  V30 16604 H 1641.94 -2.76787 -2.49438 0
M  V30 16605 H 1642.06 -4.47799 -1.70331 0
M  V30 16606 H 1640.42 -2.34448 -0.995302 0
M  V30 16607 H 1641.2 -3.42132 0.282995 0
M  V30 16608 N 1643.65 0.339955 -1.5389 0
M  V30 16609 C 1644.56 1.441 -1.85128 0
M  V30 16610 C 1645.57 1.57399 -0.741733 0
M  V30 16611 O 1646.75 1.72807 -1.0344 0
M  V30 16612 C 1643.81 2.7904 -2.05761 0
M  V30 16613 C 1642.88 2.75055 -3.29611 0
M  V30 16614 C 1642.11 4.0356 -3.4925 0
M  V30 16615 O 1642.33 5.01015 -2.72653 0
M  V30 16616 O 1641.27 4.07813 -4.42687 0
M  V30 16617 H 1645.09 1.20616 -2.78721 0
M  V30 16618 H 1642.68 0.532468 -1.39589 0
M  V30 16619 H 1644.56 3.5895 -2.20756 0
M  V30 16620 H 1643.23 3.02447 -1.15357 0
M  V30 16621 H 1642.14 1.93753 -3.20016 0
M  V30 16622 H 1643.47 2.56602 -4.20019 0
M  V30 16623 N 1645.13 1.45684 0.601159 0
M  V30 16624 C 1646.04 1.57396 1.73965 0
M  V30 16625 C 1647.05 0.458133 1.6786 0
M  V30 16626 O 1648.23 0.719717 1.88101 0
M  V30 16627 C 1645.29 1.54363 3.1044 0
M  V30 16628 C 1644.35 2.77034 3.27949 0
M  V30 16629 C 1643.59 2.74136 4.57914 0
M  V30 16630 O 1643.81 1.81829 5.40643 0
M  V30 16631 O 1642.74 3.65428 4.78274 0
M  V30 16632 H 1646.57 2.5364 1.67034 0
M  V30 16633 H 1644.15 1.28267 0.766017 0
M  V30 16634 H 1646.04 1.55302 3.91739 0
M  V30 16635 H 1644.71 0.612723 3.17848 0
M  V30 16636 H 1643.62 2.81655 2.46214 0
M  V30 16637 H 1644.95 3.69272 3.25422 0
M  V30 16638 N 1646.6 -0.84422 1.33082 0
M  V30 16639 C 1647.83 -1.63133 1.27261 0
M  V30 16640 C 1648.25 -1.88142 -0.157479 0
M  V30 16641 O 1647.6 -1.4578 -1.09793 0
M  V30 16642 C 1647.65 -2.98462 2.03967 0
M  V30 16643 O 1647.38 -2.74555 3.41396 0
M  V30 16644 C 1648.88 -3.92899 2.05293 0
M  V30 16645 H 1646.1 -0.507769 0.438647 0
M  V30 16646 H 1648.64 -1.05194 1.75369 0
M  V30 16647 H 1646.8 -3.53017 1.59554 0
M  V30 16648 H 1647.21 -3.60694 3.80789 0
M  V30 16649 H 1648.68 -4.85088 2.63427 0
M  V30 16650 H 1649.16 -4.26665 1.04183 0
M  V30 16651 H 1649.77 -3.44281 2.49701 0
M  V30 16652 N 1648.08 -1.16463 -1.0618 0
M  V30 16653 C 1649.33 -0.944975 -1.78647 0
M  V30 16654 C 1649.65 0.528486 -1.87702 0
M  V30 16655 O 1648.92 1.38391 -1.38653 0
M  V30 16656 H 1647.5 -0.346637 -0.661704 0
M  V30 16657 H 1650.16 -1.46752 -1.28257 0
M  V30 16658 H 1649.26 -1.36469 -2.80683 0
M  V30 16659 N 1649.56 1.24734 -0.963288 0
M  V30 16660 C 1650.49 2.24785 -0.447722 0
M  V30 16661 C 1651.5 1.5671 0.44113 0
M  V30 16662 O 1652.69 1.76769 0.248015 0
M  V30 16663 C 1649.79 3.36837 0.373368 0
M  V30 16664 C 1648.97 4.3448 -0.504532 0
M  V30 16665 C 1648.03 5.25558 0.25981 0
M  V30 16666 O 1647.05 5.68155 -0.344754 0
M  V30 16667 N 1648.25 5.59408 1.55058 0
M  V30 16668 H 1651.02 2.69654 -1.30792 0
M  V30 16669 H 1648.58 1.38729 -0.834614 0
M  V30 16670 H 1650.57 3.94733 0.892631 0
M  V30 16671 H 1649.14 2.91288 1.13447 0
M  V30 16672 H 1648.36 3.75337 -1.20481 0
M  V30 16673 H 1649.65 4.96691 -1.10343 0
M  V30 16674 H 1649.05 5.2672 2.06355 0
M  V30 16675 H 1647.6 6.19851 2.01563 0
M  V30 16676 N 1651.04 0.732878 1.39523 0
M  V30 16677 C 1652.31 0.20629 1.94509 0
M  V30 16678 C 1652.69 -1.29152 1.66982 0
M  V30 16679 O 1652.04 -2.05607 0.996895 0
M  V30 16680 C 1652.25 0.537619 3.44834 0
M  V30 16681 C 1653.6 0.485787 4.21812 0
M  V30 16682 O 1654.62 0.474686 3.53023 0
M  V30 16683 O 1653.48 0.478457 5.44402 0
M  V30 16684 H 1650.58 0.0369228 0.826175 0
M  V30 16685 H 1653.12 0.811591 1.49035 0
M  V30 16686 H 1651.9 1.57289 3.58296 0
M  V30 16687 H 1651.52 -0.0967601 3.97482 0
M  V30 16688 N 1652.52 -1.50101 0.480349 0
M  V30 16689 C 1653.93 -1.8668 0.0274773 0
M  V30 16690 C 1654.28 -1.39442 -1.38023 0
M  V30 16691 O 1653.4 -0.763363 -2.02489 0
M  V30 16692 C 1654 -3.38773 0.043087 0
M  V30 16693 C 1652.56 -3.74728 -0.354352 0
M  V30 16694 C 1651.7 -2.7403 0.424583 0
M  V30 16695 H 1654.65 -1.42713 0.694172 0
M  V30 16696 H 1654.68 -3.72894 -0.756989 0
M  V30 16697 H 1654.19 -3.73123 1.06775 0
M  V30 16698 H 1652.29 -3.45981 -1.38303 0
M  V30 16699 H 1652.4 -4.79075 -0.0492608 0
M  V30 16700 H 1650.77 -2.54403 -0.122927 0
M  V30 16701 H 1651.55 -3.11225 1.44894 0
M  V30 16702 N 1653.99 -0.213323 -1.5615 0
M  V30 16703 C 1654.96 0.686579 -2.18675 0
M  V30 16704 C 1655.96 1.1277 -1.14628 0
M  V30 16705 O 1657.15 1.03783 -1.39909 0
M  V30 16706 C 1654.28 1.93954 -2.80347 0
M  V30 16707 H 1655.47 0.141578 -2.99566 0
M  V30 16708 H 1653.02 0.0362987 -1.56258 0
M  V30 16709 H 1653.76 2.52661 -2.03304 0
M  V30 16710 H 1653.54 1.63179 -3.56532 0
M  V30 16711 H 1655.03 2.58087 -3.283 0
M  V30 16712 N 1655.47 1.57485 0.0601405 0
M  V30 16713 C 1656.4 2.07525 1.07031 0
M  V30 16714 C 1657.38 0.971136 1.39653 0
M  V30 16715 O 1658.57 1.24456 1.49078 0
M  V30 16716 C 1655.7 2.52888 2.38044 0
M  V30 16717 C 1654.65 3.67282 2.19745 0
M  V30 16718 C 1653.98 3.98741 3.56244 0
M  V30 16719 C 1655.28 4.96896 1.60908 0
M  V30 16720 H 1656.97 2.92173 0.653875 0
M  V30 16721 H 1654.52 1.40555 0.313083 0
M  V30 16722 H 1656.47 2.8651 3.09014 0
M  V30 16723 H 1655.2 1.65284 2.81689 0
M  V30 16724 H 1653.85 3.33961 1.51213 0
M  V30 16725 H 1653.5 3.08249 3.97481 0
M  V30 16726 H 1653.2 4.75775 3.44836 0
M  V30 16727 H 1654.73 4.34869 4.28627 0
M  V30 16728 H 1656.14 5.28674 2.21758 0
M  V30 16729 H 1654.54 5.78332 1.60164 0
M  V30 16730 H 1655.61 4.81518 0.571671 0
M  V30 16731 N 1656.95 -0.331789 1.54068 0
M  V30 16732 C 1657.86 -1.43116 1.8589 0
M  V30 16733 C 1658.88 -1.57003 0.75007 0
M  V30 16734 O 1660.05 -1.72256 1.04355 0
M  V30 16735 C 1657.12 -2.77945 2.07238 0
M  V30 16736 C 1656.18 -2.73303 3.31065 0
M  V30 16737 C 1655.41 -4.01702 3.51385 0
M  V30 16738 O 1655.63 -4.99562 2.75306 0
M  V30 16739 O 1654.57 -4.0546 4.44844 0
M  V30 16740 H 1658.39 -1.19137 2.79357 0
M  V30 16741 H 1655.98 -0.525057 1.3987 0
M  V30 16742 H 1657.86 -3.57774 2.22656 0
M  V30 16743 H 1656.54 -3.01831 1.16959 0
M  V30 16744 H 1655.44 -1.92054 3.21039 0
M  V30 16745 H 1656.78 -2.54371 4.21374 0
M  V30 16746 N 1658.43 -1.46001 -0.593424 0
M  V30 16747 C 1659.67 -1.50978 -1.35401 0
M  V30 16748 C 1660.01 -0.156626 -1.93567 0
M  V30 16749 O 1659.28 0.83067 -1.7587 0
M  V30 16750 C 1659.57 -2.60005 -2.49137 0
M  V30 16751 C 1659.42 -4.04814 -1.96075 0
M  V30 16752 C 1660.74 -2.65199 -3.51223 0
M  V30 16753 H 1657.86 -0.549657 -0.490965 0
M  V30 16754 H 1660.5 -1.77883 -0.667644 0
M  V30 16755 H 1658.65 -2.37194 -3.07687 0
M  V30 16756 H 1660.32 -4.38879 -1.42066 0
M  V30 16757 H 1658.56 -4.148 -1.26976 0
M  V30 16758 H 1659.23 -4.76811 -2.78128 0
M  V30 16759 H 1661.71 -2.85675 -3.02537 0
M  V30 16760 H 1660.59 -3.43323 -4.28276 0
M  V30 16761 H 1660.85 -1.70833 -4.0776 0
M  V30 16762 N 1659.91 0.83715 -1.33527 0
M  V30 16763 C 1660.82 1.97915 -1.25964 0
M  V30 16764 C 1661.83 1.73169 -0.169894 0
M  V30 16765 O 1663.01 1.97513 -0.393793 0
M  V30 16766 C 1660.07 3.31945 -1.00068 0
M  V30 16767 C 1659.13 3.69795 -2.1806 0
M  V30 16768 C 1658.37 4.97429 -1.9339 0
M  V30 16769 O 1658.59 5.63492 -0.885069 0
M  V30 16770 O 1657.52 5.32823 -2.79969 0
M  V30 16771 H 1661.35 2.07236 -2.22007 0
M  V30 16772 H 1658.94 0.970437 -1.13591 0
M  V30 16773 H 1660.82 4.12248 -0.873487 0
M  V30 16774 H 1659.49 3.23623 -0.0705475 0
M  V30 16775 H 1658.4 2.89995 -2.36334 0
M  V30 16776 H 1659.73 3.82784 -3.09414 0
M  V30 16777 N 1661.38 1.17024 1.05561 0
M  V30 16778 C 1662.32 0.841314 2.13201 0
M  V30 16779 C 1663.33 -0.154667 1.62064 0
M  V30 16780 O 1664.52 0.0711173 1.78358 0
M  V30 16781 C 1661.62 0.233156 3.38097 0
M  V30 16782 C 1660.79 1.27108 4.18524 0
M  V30 16783 C 1659.85 0.681364 5.2177 0
M  V30 16784 O 1658.88 1.35219 5.52906 0
M  V30 16785 N 1660.08 -0.528381 5.7809 0
M  V30 16786 H 1662.84 1.76773 2.42015 0
M  V30 16787 H 1660.4 1.06858 1.21626 0
M  V30 16788 H 1662.4 -0.174565 4.04323 0
M  V30 16789 H 1660.97 -0.596965 3.06847 0
M  V30 16790 H 1660.19 1.85469 3.47843 0
M  V30 16791 H 1661.47 1.97129 4.6906 0
M  V30 16792 H 1660.87 -1.09141 5.55072 0
M  V30 16793 H 1659.43 -0.878214 6.45857 0
M  V30 16794 N 1662.86 -1.24221 0.969889 0
M  V30 16795 C 1664.1 -1.94094 0.640856 0
M  V30 16796 C 1664.47 -1.74112 -0.809267 0
M  V30 16797 O 1665.67 -2.38039 -1.24863 0
M  V30 16798 C 1663.94 -3.42892 1.00797 0
M  V30 16799 S 1665.5 -4.3156 0.79382 0
M  V30 16800 H 1662.32 -0.671028 0.235036 0
M  V30 16801 H 1664.92 -1.50541 1.24731 0
M  V30 16802 H 1663.62 -3.54942 2.0602 0
M  V30 16803 H 1663.15 -3.91438 0.392386 0
M  V30 16804 H 1665.17 -4.95117 -0.327707 0
M  V30 16805 N 1664.34 -0.740267 -1.39132 0
M  V30 16806 C 1665.57 -0.299605 -2.05225 0
M  V30 16807 C 1665.99 1.05904 -1.55454 0
M  V30 16808 O 1665.35 1.67216 -0.700603 0
M  V30 16809 C 1665.4 -0.316792 -3.59206 0
M  V30 16810 O 1664.5 0.693786 -4.06522 0
M  V30 16811 H 1663.84 -0.135146 -0.650101 0
M  V30 16812 H 1666.37 -1.00766 -1.78065 0
M  V30 16813 H 1666.38 -0.163013 -4.07674 0
M  V30 16814 H 1665.06 -1.30814 -3.94792 0
M  V30 16815 H 1663.63 0.505712 -3.69455 0
M  V30 16816 N 1665.82 1.49844 -0.488302 0
M  V30 16817 C 1667.06 2.04314 0.0592245 0
M  V30 16818 C 1667.42 1.36093 1.35436 0
M  V30 16819 O 1668.62 1.81212 1.98533 0
M  V30 16820 C 1666.89 3.56714 0.221371 0
M  V30 16821 S 1668.45 4.3277 0.724976 0
M  V30 16822 H 1665.27 0.710957 0.00780581 0
M  V30 16823 H 1667.87 1.84045 -0.659373 0
M  V30 16824 H 1666.58 4.03914 -0.726746 0
M  V30 16825 H 1666.11 3.81366 0.965581 0
M  V30 16826 H 1668.12 4.54285 1.99599 0
M  V30 16827 N 1667.3 0.221601 1.56034 0
M  V30 16828 C 1668.71 -0.28624 1.84493 0
M  V30 16829 C 1669.06 -1.59469 1.14298 0
M  V30 16830 O 1668.18 -2.12429 0.412672 0
M  V30 16831 C 1668.78 -0.526128 3.3469 0
M  V30 16832 C 1667.34 -0.978278 3.63465 0
M  V30 16833 C 1666.48 -0.0413786 2.77269 0
M  V30 16834 H 1669.44 0.444792 1.52339 0
M  V30 16835 H 1669.46 -1.37212 3.54899 0
M  V30 16836 H 1668.97 0.426348 3.85751 0
M  V30 16837 H 1667.07 -1.94411 3.1786 0
M  V30 16838 H 1667.18 -0.852651 4.71452 0
M  V30 16839 H 1665.55 -0.548179 2.48731 0
M  V30 16840 H 1666.33 0.906016 3.31129 0
M  V30 16841 N 1668.77 -1.57515 -0.0517878 0
M  V30 16842 C 1670.19 -1.76755 -0.601218 0
M  V30 16843 C 1670.54 -0.849744 -1.76844 0
M  V30 16844 O 1669.66 -0.0387987 -2.16365 0
M  V30 16845 C 1670.26 -3.20534 -1.09743 0
M  V30 16846 C 1668.82 -3.41049 -1.59256 0
M  V30 16847 C 1667.96 -2.72369 -0.520618 0
M  V30 16848 H 1670.91 -1.57739 0.174429 0
M  V30 16849 H 1670.93 -3.25796 -1.96563 0
M  V30 16850 H 1670.45 -3.87309 -0.247696 0
M  V30 16851 H 1668.55 -2.79417 -2.46489 0
M  V30 16852 H 1668.66 -4.49581 -1.65572 0
M  V30 16853 H 1667.02 -2.3549 -0.97038 0
M  V30 16854 H 1667.81 -3.41812 0.319266 0
M  V30 16855 N 1670.25 0.323614 -1.54242 0
M  V30 16856 C 1671.5 1.05947 -1.72104 0
M  V30 16857 C 1671.82 1.88547 -0.497512 0
M  V30 16858 O 1671.09 1.89712 0.488485 0
M  V30 16859 H 1669.67 0.394141 -0.634557 0
M  V30 16860 H 1672.33 0.360063 -1.91545 0
M  V30 16861 H 1671.43 1.72552 -2.60062 0
M  V30 16862 N 1671.73 1.46313 0.585673 0
M  V30 16863 C 1672.96 1.54811 1.36811 0
M  V30 16864 C 1673.37 0.187083 1.88273 0
M  V30 16865 O 1672.71 -0.825324 1.64116 0
M  V30 16866 C 1672.77 2.48978 2.59326 0
M  V30 16867 C 1672.44 3.9528 2.29352 0
M  V30 16868 C 1673.44 4.84575 1.88369 0
M  V30 16869 C 1671.12 4.40387 2.41588 0
M  V30 16870 C 1673.11 6.16989 1.60012 0
M  V30 16871 C 1670.8 5.72836 2.12844 0
M  V30 16872 C 1671.8 6.60956 1.72121 0
M  V30 16873 O 1671.49 7.90947 1.43727 0
M  V30 16874 H 1671.22 0.526169 0.424409 0
M  V30 16875 H 1673.77 1.92395 0.719251 0
M  V30 16876 H 1672 2.06406 3.27007 0
M  V30 16877 H 1673.69 2.47915 3.21392 0
M  V30 16878 H 1674.46 4.50984 1.78433 0
M  V30 16879 H 1670.34 3.72024 2.72249 0
M  V30 16880 H 1673.88 6.85728 1.28152 0
M  V30 16881 H 1669.78 6.05976 2.22403 0
M  V30 16882 H 1670.55 8.03185 1.57597 0
M  V30 16883 N 1673.21 -0.830057 1.33969 0
M  V30 16884 C 1674.63 -1.12209 1.13496 0
M  V30 16885 C 1674.83 -2.01384 -0.0682972 0
M  V30 16886 O 1673.88 -2.4123 -0.745949 0
M  V30 16887 C 1675.19 -1.77568 2.42673 0
M  V30 16888 C 1676.74 -1.90095 2.48662 0
M  V30 16889 C 1677.22 -2.5887 3.77823 0
M  V30 16890 N 1678.71 -2.66375 3.78944 0
M  V30 16891 C 1679.44 -3.20301 4.75599 0
M  V30 16892 N 1678.94 -3.74846 5.82634 0
M  V30 16893 N 1680.73 -3.18636 4.63063 0
M  V30 16894 H 1672.88 -0.236752 2.11076 0
M  V30 16895 H 1675.15 -0.167572 0.933072 0
M  V30 16896 H 1674.85 -1.19505 3.30774 0
M  V30 16897 H 1674.73 -2.77505 2.55481 0
M  V30 16898 H 1677.11 -2.47308 1.61005 0
M  V30 16899 H 1677.19 -0.890808 2.39788 0
M  V30 16900 H 1676.84 -2.02313 4.65867 0
M  V30 16901 H 1676.77 -3.60373 3.83978 0
M  V30 16902 H 1679.26 -2.27705 3.01594 0
M  V30 16903 H 1679.57 -4.14224 6.52409 0
M  V30 16904 H 1677.92 -3.7311 5.86357 0
M  V30 16905 H 1681.11 -2.75286 3.78597 0
M  V30 16906 H 1681.28 -3.60359 5.38559 0
M  V30 16907 N 1674.69 -1.17582 -1.04939 0
M  V30 16908 C 1675.94 -0.96387 -1.77634 0
M  V30 16909 C 1676.26 0.508548 -1.88252 0
M  V30 16910 O 1675.53 1.36913 -1.40113 0
M  V30 16911 H 1674.11 -0.353636 -0.65799 0
M  V30 16912 H 1676.77 -1.48104 -1.26693 0
M  V30 16913 H 1675.86 -1.39438 -2.79219 0
M  V30 16914 N 1676.17 1.23705 -0.976463 0
M  V30 16915 C 1677.58 1.73848 -0.680723 0
M  V30 16916 C 1677.93 1.79005 0.803228 0
M  V30 16917 O 1677.05 1.42529 1.62832 0
M  V30 16918 C 1677.65 3.15724 -1.22898 0
M  V30 16919 C 1676.21 3.63338 -0.982963 0
M  V30 16920 C 1675.35 2.41712 -1.35906 0
M  V30 16921 H 1678.3 1.09284 -1.15077 0
M  V30 16922 H 1678.33 3.75748 -0.599487 0
M  V30 16923 H 1677.84 3.11938 -2.30903 0
M  V30 16924 H 1675.94 3.72512 0.0811766 0
M  V30 16925 H 1676.05 4.50347 -1.63477 0
M  V30 16926 H 1674.42 2.42543 -0.777498 0
M  V30 16927 H 1675.2 2.40601 -2.4488 0
M  V30 16928 N 1677.64 0.747635 1.38738 0
M  V30 16929 C 1678.87 0.310484 2.05063 0
M  V30 16930 C 1679.29 -1.05078 1.56013 0
M  V30 16931 O 1678.65 -1.66842 0.709461 0
M  V30 16932 C 1678.7 0.335837 3.59033 0
M  V30 16933 O 1677.8 -0.672218 4.06884 0
M  V30 16934 H 1677.14 0.138591 0.649375 0
M  V30 16935 H 1679.67 1.01709 1.77529 0
M  V30 16936 H 1679.68 0.184631 4.07582 0
M  V30 16937 H 1678.36 1.32906 3.94092 0
M  V30 16938 H 1676.94 -0.486112 3.69718 0
M  V30 16939 N 1679.12 -1.49583 0.496242 0
M  V30 16940 C 1680.36 -2.04343 -0.0483884 0
M  V30 16941 C 1680.73 -1.36809 -1.34712 0
M  V30 16942 O 1681.93 -1.82263 -1.9757 0
M  V30 16943 C 1680.2 -3.56826 -0.20245 0
M  V30 16944 S 1681.76 -4.33148 -0.702015 0
M  V30 16945 H 1678.57 -0.710989 -0.00403532 0
M  V30 16946 H 1681.18 -1.83693 0.669124 0
M  V30 16947 H 1679.88 -4.03523 0.748156 0
M  V30 16948 H 1679.41 -3.81873 -0.945343 0
M  V30 16949 H 1681.43 -4.55337 -1.97187 0
M  V30 16950 N 1680.6 -0.229873 -1.55915 0
M  V30 16951 C 1681.53 0.70927 -2.1795 0
M  V30 16952 C 1682.54 1.15142 -1.15092 0
M  V30 16953 O 1683.73 1.08114 -1.42034 0
M  V30 16954 C 1680.83 1.97359 -2.75504 0
M  V30 16955 C 1680.01 1.68565 -4.03614 0
M  V30 16956 C 1679.07 2.79786 -4.45652 0
M  V30 16957 O 1678.09 2.479 -5.12381 0
M  V30 16958 N 1679.29 4.08921 -4.12024 0
M  V30 16959 H 1682.06 0.178573 -2.99168 0
M  V30 16960 H 1679.62 -0.0491789 -1.61825 0
M  V30 16961 H 1681.61 2.70972 -3.00593 0
M  V30 16962 H 1680.18 2.41454 -1.98542 0
M  V30 16963 H 1679.4 0.785547 -3.86294 0
M  V30 16964 H 1680.69 1.46769 -4.87172 0
M  V30 16965 H 1680.09 4.37667 -3.58419 0
M  V30 16966 H 1678.64 4.79052 -4.41987 0
M  V30 16967 N 1682.08 1.5754 0.0434337 0
M  V30 16968 C 1683.35 1.79733 0.771713 0
M  V30 16969 C 1683.73 0.82446 1.94334 0
M  V30 16970 O 1683.08 -0.136485 2.28092 0
M  V30 16971 C 1683.29 3.27049 1.2182 0
M  V30 16972 C 1684.64 3.91648 1.64002 0
M  V30 16973 O 1685.66 3.31111 1.31315 0
M  V30 16974 O 1684.52 4.98206 2.24618 0
M  V30 16975 H 1681.62 0.73861 0.372001 0
M  V30 16976 H 1684.16 1.69687 0.0213187 0
M  V30 16977 H 1682.94 3.89439 0.381158 0
M  V30 16978 H 1682.56 3.41929 2.02905 0
M  V30 16979 N 1683.56 -0.31543 1.54411 0
M  V30 16980 C 1684.8 -1.06053 1.74734 0
M  V30 16981 C 1685.16 -1.84978 0.51451 0
M  V30 16982 O 1686.36 -2.62127 0.595228 0
M  V30 16983 C 1684.63 -1.95417 2.99244 0
M  V30 16984 S 1686.19 -2.76769 3.40506 0
M  V30 16985 H 1683.01 -0.357904 0.61435 0
M  V30 16986 H 1685.61 -0.33558 1.92598 0
M  V30 16987 H 1684.31 -1.36285 3.8711 0
M  V30 16988 H 1683.85 -2.72304 2.83926 0
M  V30 16989 H 1685.86 -3.97914 2.96444 0
M  V30 16990 N 1685.03 -1.46622 -0.577906 0
M  V30 16991 C 1686.31 -1.42657 -1.33822 0
M  V30 16992 C 1686.69 -0.11256 -2.108 0
M  V30 16993 O 1686.04 0.905903 -2.09775 0
M  V30 16994 C 1686.25 -2.65927 -2.26018 0
M  V30 16995 C 1687.6 -3.12277 -2.87695 0
M  V30 16996 O 1688.62 -2.66509 -2.36329 0
M  V30 16997 O 1687.48 -3.91786 -3.81007 0
M  V30 16998 H 1684.57 -0.567544 -0.601517 0
M  V30 16999 H 1687.12 -1.58795 -0.598524 0
M  V30 17000 H 1685.89 -3.53116 -1.68597 0
M  V30 17001 H 1685.52 -2.52272 -3.07318 0
M  V30 17002 N 1686.51 0.822941 -1.34408 0
M  V30 17003 C 1687.74 1.61087 -1.2984 0
M  V30 17004 C 1688.16 1.88369 0.127527 0
M  V30 17005 O 1687.51 1.47508 1.0746 0
M  V30 17006 C 1687.56 2.9518 -2.08689 0
M  V30 17007 O 1687.28 2.69089 -3.45721 0
M  V30 17008 C 1688.79 3.89583 -2.11518 0
M  V30 17009 H 1686.01 0.500726 -0.44667 0
M  V30 17010 H 1688.55 1.02391 -1.77021 0
M  V30 17011 H 1686.7 3.50434 -1.6515 0
M  V30 17012 H 1687.12 3.5459 -3.86479 0
M  V30 17013 H 1688.59 4.80835 -2.71111 0
M  V30 17014 H 1689.07 4.24953 -1.10957 0
M  V30 17015 H 1689.68 3.40265 -2.55146 0
M  V30 17016 N 1687.99 1.18137 1.04314 0
M  V30 17017 C 1689.24 0.973277 1.77121 0
M  V30 17018 C 1689.56 -0.498558 1.88519 0
M  V30 17019 O 1688.83 -1.36168 1.40837 0
M  V30 17020 H 1687.41 0.35712 0.656105 0
M  V30 17021 H 1690.07 1.48774 1.25906 0
M  V30 17022 H 1689.17 1.40917 2.78476 0
M  V30 17023 N 1689.47 -1.23186 0.98301 0
M  V30 17024 C 1690.7 -1.95418 0.670479 0
M  V30 17025 C 1691.11 -1.7295 -0.767135 0
M  V30 17026 O 1690.45 -1.01946 -1.52816 0
M  V30 17027 C 1690.51 -3.48456 0.884244 0
M  V30 17028 C 1690.18 -3.94645 2.30443 0
M  V30 17029 C 1691.17 -4.03108 3.28328 0
M  V30 17030 C 1688.86 -4.27561 2.63622 0
M  V30 17031 C 1690.85 -4.43845 4.57471 0
M  V30 17032 C 1688.54 -4.67979 3.92987 0
M  V30 17033 C 1689.54 -4.76088 4.89723 0
M  V30 17034 O 1689.22 -5.15597 6.16778 0
M  V30 17035 H 1688.96 -0.628896 0.247924 0
M  V30 17036 H 1691.51 -1.57559 1.31774 0
M  V30 17037 H 1689.74 -3.86282 0.179809 0
M  V30 17038 H 1691.43 -4.01899 0.568475 0
M  V30 17039 H 1692.2 -3.77879 3.04027 0
M  V30 17040 H 1688.07 -4.2046 1.89036 0
M  V30 17041 H 1691.62 -4.5009 5.32978 0
M  V30 17042 H 1687.52 -4.92658 4.17083 0
M  V30 17043 H 1688.28 -5.33701 6.20569 0
M  V30 17044 N 1690.95 -0.754982 -1.38339 0
M  V30 17045 C 1692.17 -0.322624 -2.04369 0
M  V30 17046 C 1692.59 1.04951 -1.56942 0
M  V30 17047 O 1691.95 1.66686 -0.743109 0
M  V30 17048 C 1692 -0.337767 -3.59919 0
M  V30 17049 O 1691.72 -1.65576 -4.05606 0
M  V30 17050 C 1693.22 0.108281 -4.43168 0
M  V30 17051 H 1690.44 -0.137626 -0.656734 0
M  V30 17052 H 1692.98 -1.02422 -1.77003 0
M  V30 17053 H 1691.14 0.315106 -3.86116 0
M  V30 17054 H 1691.55 -1.5829 -5.00045 0
M  V30 17055 H 1693.03 0.0465256 -5.5198 0
M  V30 17056 H 1693.5 1.15636 -4.23704 0
M  V30 17057 H 1694.11 -0.51577 -4.22161 0
M  V30 17058 N 1692.42 1.49318 -0.504168 0
M  V30 17059 C 1693.84 1.58793 -0.160331 0
M  V30 17060 C 1694.04 1.50906 1.33527 0
M  V30 17061 O 1693.1 1.38466 2.11148 0
M  V30 17062 C 1694.41 2.91454 -0.739945 0
M  V30 17063 C 1695.96 3.04926 -0.706338 0
M  V30 17064 C 1696.43 4.4021 -1.26407 0
M  V30 17065 N 1697.92 4.46711 -1.22491 0
M  V30 17066 C 1698.66 5.49844 -1.62661 0
M  V30 17067 N 1698.15 6.60066 -2.10439 0
M  V30 17068 N 1699.95 5.40576 -1.54058 0
M  V30 17069 H 1692.1 1.52687 -1.4765 0
M  V30 17070 H 1694.36 0.723463 -0.612622 0
M  V30 17071 H 1694.07 3.02802 -1.78896 0
M  V30 17072 H 1693.94 3.76658 -0.202187 0
M  V30 17073 H 1696.33 2.93206 0.333845 0
M  V30 17074 H 1696.41 2.21398 -1.28128 0
M  V30 17075 H 1696.05 4.52683 -2.30305 0
M  V30 17076 H 1695.98 5.22384 -0.665041 0
M  V30 17077 H 1698.47 3.67634 -0.874869 0
M  V30 17078 H 1698.79 7.34865 -2.39153 0
M  V30 17079 H 1697.13 6.61098 -2.14415 0
M  V30 17080 H 1700.32 4.53359 -1.16548 0
M  V30 17081 H 1700.5 6.20826 -1.85687 0
M  V30 17082 N 1693.9 0.238138 1.5579 0
M  V30 17083 C 1695.13 -0.393422 2.03125 0
M  V30 17084 C 1695.55 -1.52168 1.11761 0
M  V30 17085 O 1694.9 -1.82034 0.130341 0
M  V30 17086 C 1694.95 -0.909474 3.49873 0
M  V30 17087 O 1694.67 0.17381 4.37755 0
M  V30 17088 C 1696.18 -1.61261 4.12928 0
M  V30 17089 H 1693.4 -0.0945077 0.664311 0
M  V30 17090 H 1695.94 0.359442 2.01316 0
M  V30 17091 H 1694.09 -1.61255 3.52244 0
M  V30 17092 H 1694.51 -0.216641 5.24052 0
M  V30 17093 H 1695.98 -1.92551 5.17328 0
M  V30 17094 H 1696.46 -2.53155 3.589 0
M  V30 17095 H 1697.07 -0.954326 4.14455 0
M  V30 17096 N 1695.38 -1.57561 -0.0350783 0
M  V30 17097 C 1696.79 -1.77383 -0.582437 0
M  V30 17098 C 1697.14 -0.868453 -1.75933 0
M  V30 17099 O 1696.27 -0.061745 -2.16312 0
M  V30 17100 C 1696.86 -3.2168 -1.06337 0
M  V30 17101 C 1695.42 -3.42719 -1.55629 0
M  V30 17102 C 1694.57 -2.72906 -0.4917 0
M  V30 17103 H 1697.52 -1.57545 0.19115 0
M  V30 17104 H 1697.54 -3.27863 -1.93097 0
M  V30 17105 H 1697.05 -3.8755 -0.206603 0
M  V30 17106 H 1695.15 -2.82016 -2.43511 0
M  V30 17107 H 1695.27 -4.51312 -1.60794 0
M  V30 17108 H 1693.63 -2.36506 -0.945349 0
M  V30 17109 H 1694.41 -3.41454 0.355502 0
M  V30 17110 N 1696.86 0.307236 -1.54576 0
M  V30 17111 C 1698.08 1.06668 -1.77867 0
M  V30 17112 C 1698.51 1.80375 -0.533536 0
M  V30 17113 O 1697.87 1.73812 0.515663 0
M  V30 17114 C 1697.91 2.02777 -2.98184 0
M  V30 17115 O 1697.02 3.10969 -2.70872 0
M  V30 17116 H 1696.36 0.306741 -0.588902 0
M  V30 17117 H 1698.89 0.346557 -2.01644 0
M  V30 17118 H 1698.9 2.45355 -3.25983 0
M  V30 17119 H 1697.57 1.48534 -3.88472 0
M  V30 17120 H 1696.15 2.7295 -2.54072 0
M  V30 17121 N 1698.34 1.46926 0.570122 0
M  V30 17122 C 1699.58 1.52585 1.32523 0
M  V30 17123 C 1699.91 0.184291 1.94127 0
M  V30 17124 O 1699.18 -0.790478 1.79244 0
M  V30 17125 H 1697.76 0.562019 0.492081 0
M  V30 17126 H 1700.42 1.83141 0.666746 0
M  V30 17127 H 1699.51 2.28541 2.12545 0
M  V30 17128 N 1699.82 -0.815801 1.34842 0
M  V30 17129 C 1700.75 -1.94193 1.29659 0
M  V30 17130 C 1701.73 -1.69221 0.172703 0
M  V30 17131 O 1702.91 -1.90716 0.366203 0
M  V30 17132 C 1700.04 -3.30777 1.0585 0
M  V30 17133 C 1699 -3.70207 2.1478 0
M  V30 17134 C 1698.32 -5.04852 1.76149 0
M  V30 17135 C 1699.62 -3.81553 3.56671 0
M  V30 17136 H 1701.32 -1.98787 2.23884 0
M  V30 17137 H 1698.86 -0.955013 1.07775 0
M  V30 17138 H 1700.81 -4.0915 1.00866 0
M  V30 17139 H 1699.54 -3.265 0.0806804 0
M  V30 17140 H 1698.2 -2.94113 2.18845 0
M  V30 17141 H 1697.85 -4.9707 0.770099 0
M  V30 17142 H 1697.55 -5.32205 2.49062 0
M  V30 17143 H 1699.07 -5.85676 1.72674 0
M  V30 17144 H 1700.48 -4.50181 3.54979 0
M  V30 17145 H 1698.88 -4.20367 4.28266 0
M  V30 17146 H 1699.95 -2.83356 3.93494 0
M  V30 17147 N 1701.29 -1.18689 -1.03686 0
M  V30 17148 C 1702.52 -1.00814 -1.80333 0
M  V30 17149 C 1702.93 0.446495 -1.83856 0
M  V30 17150 O 1702.27 1.32192 -1.27558 0
M  V30 17151 C 1702.34 -1.49133 -3.27108 0
M  V30 17152 C 1702 -2.97112 -3.47237 0
M  V30 17153 C 1703 -3.94938 -3.38113 0
M  V30 17154 C 1700.68 -3.35628 -3.7371 0
M  V30 17155 C 1702.68 -5.29274 -3.55172 0
M  V30 17156 C 1700.36 -4.70126 -3.90416 0
M  V30 17157 C 1701.36 -5.66758 -3.81148 0
M  V30 17158 O 1701.05 -6.98821 -3.97371 0
M  V30 17159 H 1700.78 -0.356077 -0.574617 0
M  V30 17160 H 1703.34 -1.57754 -1.31541 0
M  V30 17161 H 1701.57 -0.865624 -3.76887 0
M  V30 17162 H 1703.25 -1.27591 -3.85325 0
M  V30 17163 H 1704.02 -3.66527 -3.17621 0
M  V30 17164 H 1699.9 -2.6097 -3.8002 0
M  V30 17165 H 1703.44 -6.04684 -3.47854 0
M  V30 17166 H 1699.34 -4.98236 -4.10404 0
M  V30 17167 H 1700.11 -7.05779 -4.14509 0
M  V30 17168 N 1702.77 1.22662 -0.989529 0
M  V30 17169 C 1703.7 2.26762 -0.556891 0
M  V30 17170 C 1704.68 1.64971 0.414538 0
M  V30 17171 O 1705.87 1.91775 0.305909 0
M  V30 17172 C 1703 3.47047 0.132573 0
M  V30 17173 C 1701.95 4.21251 -0.757058 0
M  V30 17174 C 1701.28 5.3466 0.065134 0
M  V30 17175 C 1702.58 4.8029 -2.05229 0
M  V30 17176 H 1704.27 2.63204 -1.42703 0
M  V30 17177 H 1701.82 1.26522 -0.687614 0
M  V30 17178 H 1703.77 4.19027 0.446609 0
M  V30 17179 H 1702.49 3.09692 1.03723 0
M  V30 17180 H 1701.15 3.51101 -1.05469 0
M  V30 17181 H 1700.8 4.93547 0.970607 0
M  V30 17182 H 1700.5 5.85231 -0.527063 0
M  V30 17183 H 1702.03 6.09458 0.373342 0
M  V30 17184 H 1703.44 5.44229 -1.80242 0
M  V30 17185 H 1701.84 5.41186 -2.59302 0
M  V30 17186 H 1702.91 4.00529 -2.73322 0
M  V30 17187 N 1704.25 0.762308 1.37937 0
M  V30 17188 C 1705.5 0.321732 1.99523 0
M  V30 17189 C 1705.82 -1.10286 1.60816 0
M  V30 17190 O 1705.09 -1.75565 0.869117 0
M  V30 17191 H 1703.67 0.115967 0.737943 0
M  V30 17192 H 1706.33 0.978339 1.68566 0
M  V30 17193 H 1705.43 0.391818 3.09631 0
M  V30 17194 N 1705.73 -1.49049 0.51208 0
M  V30 17195 C 1706.96 -2.06885 -0.0249703 0
M  V30 17196 C 1707.37 -1.371 -1.29804 0
M  V30 17197 O 1706.73 -0.452798 -1.76794 0
M  V30 17198 C 1706.78 -3.60482 -0.27112 0
M  V30 17199 O 1706.5 -4.27643 0.951493 0
M  V30 17200 C 1708 -4.35063 -0.850568 0
M  V30 17201 H 1705.22 -0.670517 0.0254456 0
M  V30 17202 H 1707.76 -1.91682 0.712607 0
M  V30 17203 H 1705.92 -3.7535 -0.958702 0
M  V30 17204 H 1706.33 -5.19519 0.721156 0
M  V30 17205 H 1707.81 -5.43369 -0.972322 0
M  V30 17206 H 1708.28 -3.98285 -1.85111 0
M  V30 17207 H 1708.89 -4.24829 -0.200111 0
M  V30 17208 N 1707.21 -0.246397 -1.55662 0
M  V30 17209 C 1708.45 0.38003 -2.00836 0
M  V30 17210 C 1708.81 1.55166 -1.13082 0
M  V30 17211 O 1710.01 2.24578 -1.4771 0
M  V30 17212 C 1708.28 0.779997 -3.48785 0
M  V30 17213 S 1709.84 1.39702 -4.15967 0
M  V30 17214 H 1706.66 0.119597 -0.700869 0
M  V30 17215 H 1709.26 -0.361512 -1.92128 0
M  V30 17216 H 1707.96 -0.0820223 -4.10318 0
M  V30 17217 H 1707.5 1.55373 -3.61418 0
M  V30 17218 H 1709.51 2.68606 -4.17211 0
M  V30 17219 N 1708.68 1.57577 0.026722 0
M  V30 17220 C 1709.59 2.10114 1.04351 0
M  V30 17221 C 1710.61 1.04029 1.39477 0
M  V30 17222 O 1711.79 1.35778 1.48749 0
M  V30 17223 C 1708.85 2.57203 2.32481 0
M  V30 17224 C 1707.91 3.77779 2.03915 0
M  V30 17225 C 1707.14 4.22613 3.25936 0
M  V30 17226 O 1707.37 3.66955 4.36692 0
M  V30 17227 O 1706.3 5.15026 3.11499 0
M  V30 17228 H 1710.13 2.97157 0.627021 0
M  V30 17229 H 1707.71 1.47396 0.243855 0
M  V30 17230 H 1709.59 2.87809 3.07805 0
M  V30 17231 H 1708.27 1.7327 2.73421 0
M  V30 17232 H 1707.18 3.52188 1.26152 0
M  V30 17233 H 1708.51 4.62703 1.67829 0
M  V30 17234 N 1710.16 -0.299034 1.54737 0
M  V30 17235 C 1711.58 -0.644805 1.45995 0
M  V30 17236 C 1711.78 -1.90634 0.652749 0
M  V30 17237 O 1710.83 -2.51985 0.161228 0
M  V30 17238 C 1712.15 -0.795974 2.89974 0
M  V30 17239 C 1713.69 -0.891731 3.00029 0
M  V30 17240 C 1714.17 -1.07488 4.45208 0
M  V30 17241 N 1715.66 -1.14104 4.48926 0
M  V30 17242 C 1716.4 -1.30108 5.58444 0
M  V30 17243 N 1715.89 -1.42998 6.77882 0
M  V30 17244 N 1717.68 -1.33012 5.46136 0
M  V30 17245 H 1709.84 0.529806 2.05686 0
M  V30 17246 H 1712.1 0.175406 0.931631 0
M  V30 17247 H 1711.8 0.0601375 3.51649 0
M  V30 17248 H 1711.68 -1.68437 3.37504 0
M  V30 17249 H 1714.07 -1.73833 2.38466 0
M  V30 17250 H 1714.15 0.0207194 2.55792 0
M  V30 17251 H 1713.79 -0.233045 5.07365 0
M  V30 17252 H 1713.72 -2.00159 4.87077 0
M  V30 17253 H 1716.21 -1.05488 3.62878 0
M  V30 17254 H 1716.52 -1.5497 7.57102 0
M  V30 17255 H 1714.87 -1.4005 6.80743 0
M  V30 17256 H 1718.06 -1.22555 4.51772 0
M  V30 17257 H 1718.23 -1.45141 6.31536 0
M  V30 17258 N 1711.64 -1.47227 -0.562322 0
M  V30 17259 C 1712.88 -1.55163 -1.33056 0
M  V30 17260 C 1713.24 -0.206867 -1.90882 0
M  V30 17261 O 1714.44 -0.161056 -2.68317 0
M  V30 17262 C 1712.72 -2.63484 -2.41477 0
M  V30 17263 S 1714.27 -2.90968 -3.28455 0
M  V30 17264 H 1711.09 -0.547974 -0.45304 0
M  V30 17265 H 1713.69 -1.84578 -0.644301 0
M  V30 17266 H 1712.4 -3.59797 -1.9742 0
M  V30 17267 H 1711.93 -2.35867 -3.14849 0
M  V30 17268 H 1713.94 -2.27793 -4.40823 0
M  V30 17269 N 1713.12 0.808639 -1.35273 0
M  V30 17270 C 1714.34 1.60219 -1.31699 0
M  V30 17271 C 1714.77 1.87816 0.103386 0
M  V30 17272 O 1714.13 1.46389 1.06957 0
M  V30 17273 C 1714.17 2.9116 -2.12739 0
M  V30 17274 O 1713.28 3.83891 -1.5067 0
M  V30 17275 H 1712.62 0.486742 -0.45164 0
M  V30 17276 H 1715.15 1.00378 -1.78284 0
M  V30 17277 H 1715.16 3.40602 -2.2462 0
M  V30 17278 H 1713.83 2.70399 -3.16002 0
M  V30 17279 H 1712.41 3.42437 -1.47618 0
M  V30 17280 N 1714.6 1.19237 1.03055 0
M  V30 17281 C 1715.84 1.00508 1.77982 0
M  V30 17282 C 1716.2 -0.456267 1.865 0
M  V30 17283 O 1717.4 -0.763318 2.57734 0
M  V30 17284 C 1715.67 1.65377 3.16836 0
M  V30 17285 S 1717.23 1.61563 4.07974 0
M  V30 17286 H 1714.05 0.3607 0.612712 0
M  V30 17287 H 1716.65 1.51556 1.23495 0
M  V30 17288 H 1715.36 2.7094 3.08253 0
M  V30 17289 H 1714.89 1.14402 3.76399 0
M  V30 17290 H 1716.9 0.638645 4.92073 0
M  V30 17291 N 1716.07 -1.22136 0.99602 0
M  V30 17292 C 1717.02 -2.2199 0.520059 0
M  V30 17293 C 1718.01 -1.55497 -0.413454 0
M  V30 17294 O 1719.2 -1.75369 -0.239765 0
M  V30 17295 C 1716.33 -3.42923 -0.160875 0
M  V30 17296 C 1715.42 -4.16618 0.793126 0
M  V30 17297 N 1715.81 -4.67022 1.94226 0
M  V30 17298 C 1714.1 -4.41814 0.609648 0
M  V30 17299 C 1714.81 -5.23252 2.5413 0
M  V30 17300 N 1713.78 -5.12096 1.8237 0
M  V30 17301 H 1717.58 -2.58606 1.39643 0
M  V30 17302 H 1715.1 -1.37842 0.858682 0
M  V30 17303 H 1717.09 -4.13654 -0.519266 0
M  V30 17304 H 1715.75 -3.07818 -1.03334 0
M  V30 17305 H 1716.77 -4.62882 2.32294 0
M  V30 17306 H 1713.44 -4.16938 -0.216495 0
M  V30 17307 H 1714.83 -5.72769 3.51263 0
M  V30 17308 N 1717.55 -0.769612 -1.37531 0
M  V30 17309 C 1718.8 -0.332309 -1.99349 0
M  V30 17310 C 1719.12 1.09432 -1.61399 0
M  V30 17311 O 1718.39 1.75102 -0.878415 0
M  V30 17312 H 1716.97 -0.119879 -0.737318 0
M  V30 17313 H 1719.63 -0.987265 -1.68045 0
M  V30 17314 H 1718.73 -0.408233 -3.09419 0
M  V30 17315 N 1719.03 1.48775 -0.519977 0
M  V30 17316 C 1719.98 2.26421 0.267886 0
M  V30 17317 C 1720.96 1.32087 0.918795 0
M  V30 17318 O 1722.16 1.56689 0.823256 0
M  V30 17319 C 1719.29 3.16896 1.3203 0
M  V30 17320 C 1718.37 4.18699 0.674688 0
M  V30 17321 N 1718.76 5.05259 -0.233769 0
M  V30 17322 C 1717.06 4.3613 0.933071 0
M  V30 17323 C 1717.76 5.78543 -0.605233 0
M  V30 17324 N 1716.74 5.43591 0.0313426 0
M  V30 17325 H 1720.54 2.9072 -0.43116 0
M  V30 17326 H 1718.05 1.58858 -0.337322 0
M  V30 17327 H 1720.05 3.71171 1.89836 0
M  V30 17328 H 1718.71 2.5415 2.02083 0
M  V30 17329 H 1719.72 5.14345 -0.605766 0
M  V30 17330 H 1716.4 3.84581 1.62492 0
M  V30 17331 H 1717.79 6.58207 -1.34957 0
M  V30 17332 N 1720.51 0.254649 1.55529 0
M  V30 17333 C 1721.73 -0.374795 2.03985 0
M  V30 17334 C 1722.16 -1.50188 1.13249 0
M  V30 17335 O 1721.52 -1.80855 0.126963 0
M  V30 17336 C 1721.56 -0.852635 3.50375 0
M  V30 17337 O 1720.67 -1.9616 3.6276 0
M  V30 17338 H 1720.01 -0.0806157 0.659088 0
M  V30 17339 H 1722.54 0.38297 2.00984 0
M  V30 17340 H 1722.55 -1.15381 3.91345 0
M  V30 17341 H 1721.22 -0.0279044 4.15891 0
M  V30 17342 H 1719.8 -1.66453 3.33688 0
M  V30 17343 N 1721.99 -1.57589 -0.0183649 0
M  V30 17344 C 1722.9 -2.10665 -1.03235 0
M  V30 17345 C 1723.91 -1.04767 -1.38924 0
M  V30 17346 O 1725.09 -1.36565 -1.48027 0
M  V30 17347 C 1722.15 -2.58432 -2.31114 0
M  V30 17348 C 1721.21 -3.78856 -2.01908 0
M  V30 17349 C 1720.45 -4.24335 -3.2369 0
M  V30 17350 O 1720.67 -3.69266 -4.3474 0
M  V30 17351 O 1719.6 -5.16671 -3.08763 0
M  V30 17352 H 1723.43 -2.97485 -0.611254 0
M  V30 17353 H 1721.02 -1.47524 -0.236035 0
M  V30 17354 H 1722.9 -2.89438 -3.06274 0
M  V30 17355 H 1721.57 -1.74718 -2.72498 0
M  V30 17356 H 1720.48 -3.52852 -1.24282 0
M  V30 17357 H 1721.81 -4.63587 -1.65373 0
M  V30 17358 N 1723.46 0.290824 -1.54893 0
M  V30 17359 C 1724.43 1.34215 -1.85793 0
M  V30 17360 C 1725.43 1.43204 -0.731393 0
M  V30 17361 O 1726.62 1.42663 -0.999647 0
M  V30 17362 C 1723.75 2.72577 -2.0473 0
M  V30 17363 H 1724.94 1.08056 -2.79757 0
M  V30 17364 H 1722.5 0.528008 -1.47111 0
M  V30 17365 H 1723.23 3.03943 -1.13088 0
M  V30 17366 H 1723.02 2.67442 -2.86736 0
M  V30 17367 H 1724.51 3.48573 -2.29971 0
M  V30 17368 N 1724.94 1.47523 0.554506 0
M  V30 17369 C 1726.18 1.55867 1.32231 0
M  V30 17370 C 1726.55 0.216987 1.9077 0
M  V30 17371 O 1727.75 0.175283 2.68228 0
M  V30 17372 C 1726.02 2.64761 2.40076 0
M  V30 17373 S 1727.58 2.92706 3.26908 0
M  V30 17374 H 1724.4 0.550369 0.450128 0
M  V30 17375 H 1727 1.84917 0.634504 0
M  V30 17376 H 1725.7 3.60838 1.95509 0
M  V30 17377 H 1725.23 2.37534 3.13594 0
M  V30 17378 H 1727.25 2.30127 4.39609 0
M  V30 17379 N 1726.42 -0.801453 1.357 0
M  V30 17380 C 1727.33 -1.94505 1.31167 0
M  V30 17381 C 1728.35 -1.72657 0.215747 0
M  V30 17382 O 1729.52 -1.96399 0.446022 0
M  V30 17383 C 1726.59 -3.29175 1.08834 0
M  V30 17384 C 1725.65 -3.63883 2.27788 0
M  V30 17385 C 1724.88 -4.92127 2.06511 0
M  V30 17386 O 1725.1 -5.60947 1.03416 0
M  V30 17387 O 1724.04 -5.25213 2.93998 0
M  V30 17388 H 1727.86 -2.01277 2.27423 0
M  V30 17389 H 1725.45 -0.939979 1.16124 0
M  V30 17390 H 1727.33 -4.09787 0.98248 0
M  V30 17391 H 1726.01 -3.23322 0.156326 0
M  V30 17392 H 1724.91 -2.83627 2.4394 0
M  V30 17393 H 1726.25 -3.74446 3.19454 0
M  V30 17394 N 1727.9 -1.19782 -1.02421 0
M  V30 17395 C 1729.31 -1.00493 -1.57347 0
M  V30 17396 C 1729.66 0.440854 -1.91183 0
M  V30 17397 O 1728.79 1.32102 -1.714 0
M  V30 17398 C 1729.38 -1.8179 -2.85898 0
M  V30 17399 C 1727.94 -1.66889 -3.3738 0
M  V30 17400 C 1727.09 -1.80199 -2.10769 0
M  V30 17401 H 1730.04 -1.34085 -0.848938 0
M  V30 17402 H 1730.06 -1.31676 -3.5699 0
M  V30 17403 H 1729.57 -2.87011 -2.6124 0
M  V30 17404 H 1727.67 -0.64274 -3.67014 0
M  V30 17405 H 1727.78 -2.47705 -4.10096 0
M  V30 17406 H 1726.15 -1.23308 -2.22862 0
M  V30 17407 H 1726.93 -2.86889 -1.88546 0
M  V30 17408 N 1729.38 1.21606 -1.00248 0
M  V30 17409 C 1730.29 2.2757 -0.570004 0
M  V30 17410 C 1731.3 1.69669 0.385788 0
M  V30 17411 O 1732.48 1.99839 0.250246 0
M  V30 17412 C 1729.54 3.46558 0.0990566 0
M  V30 17413 C 1728.61 4.19741 -0.9009 0
M  V30 17414 C 1727.84 5.33048 -0.263673 0
M  V30 17415 O 1728.06 5.62599 0.940131 0
M  V30 17416 O 1727 5.93978 -0.973342 0
M  V30 17417 H 1730.82 2.66751 -1.45182 0
M  V30 17418 H 1728.41 1.27955 -0.771224 0
M  V30 17419 H 1730.29 4.18733 0.47339 0
M  V30 17420 H 1728.96 3.09283 0.955285 0
M  V30 17421 H 1727.87 3.49798 -1.32634 0
M  V30 17422 H 1729.2 4.60921 -1.72664 0
M  V30 17423 N 1730.86 0.776895 1.37121 0
M  V30 17424 C 1732.08 0.355097 2.0383 0
M  V30 17425 C 1732.5 -1.02441 1.58591 0
M  V30 17426 O 1731.86 -1.65482 0.769533 0
M  V30 17427 C 1731.91 0.394984 3.59336 0
M  V30 17428 O 1731.63 1.72008 4.0292 0
M  V30 17429 C 1733.13 -0.0377636 4.43284 0
M  V30 17430 H 1730.35 0.148056 0.654462 0
M  V30 17431 H 1732.89 1.05225 1.75351 0
M  V30 17432 H 1731.05 -0.253638 3.86569 0
M  V30 17433 H 1731.46 1.66225 4.97463 0
M  V30 17434 H 1732.94 0.0412956 5.51985 0
M  V30 17435 H 1733.41 -1.08881 4.2549 0
M  V30 17436 H 1734.02 0.582867 4.21287 0
M  V30 17437 N 1732.33 -1.48497 0.527859 0
M  V30 17438 C 1733.58 -2.02099 -0.00699772 0
M  V30 17439 C 1733.9 -1.40742 -1.34969 0
M  V30 17440 O 1733.17 -0.572059 -1.87361 0
M  V30 17441 H 1731.75 -0.746979 -0.00557445 0
M  V30 17442 H 1734.41 -1.82231 0.691209 0
M  V30 17443 H 1733.51 -3.11881 -0.116893 0
M  V30 17444 N 1733.81 -0.262893 -1.55392 0
M  V30 17445 C 1734.77 0.616662 -2.20749 0
M  V30 17446 C 1735.77 1.09066 -1.18158 0
M  V30 17447 O 1736.96 0.992797 -1.4314 0
M  V30 17448 C 1734.1 1.84937 -2.86376 0
M  V30 17449 H 1735.29 0.0462013 -2.99864 0
M  V30 17450 H 1732.84 -0.013432 -1.56294 0
M  V30 17451 H 1733.58 2.46066 -2.1124 0
M  V30 17452 H 1733.36 1.51754 -3.61543 0
M  V30 17453 H 1734.85 2.47511 -3.36345 0
M  V30 17454 N 1735.29 1.57597 0.0100073 0
M  V30 17455 C 1736.53 1.91983 0.701555 0
M  V30 17456 C 1736.89 0.863453 1.71489 0
M  V30 17457 O 1738.09 1.09225 2.45608 0
M  V30 17458 C 1736.37 3.31459 1.33678 0
M  V30 17459 S 1737.92 3.87714 2.05484 0
M  V30 17460 H 1734.74 0.672093 0.231975 0
M  V30 17461 H 1737.34 1.9545 -0.0442772 0
M  V30 17462 H 1736.05 4.06191 0.586295 0
M  V30 17463 H 1735.58 3.31342 2.12076 0
M  V30 17464 H 1737.59 3.6798 3.32874 0
M  V30 17465 N 1736.77 -0.282606 1.55045 0
M  V30 17466 C 1737.7 -1.37115 1.83663 0
M  V30 17467 C 1738.71 -1.45985 0.720563 0
M  V30 17468 O 1739.9 -1.47974 0.998294 0
M  V30 17469 C 1737 -2.7533 1.97603 0
M  V30 17470 C 1736.17 -2.89168 3.28177 0
M  V30 17471 C 1735.23 -4.07997 3.32302 0
M  V30 17472 O 1734.26 -3.9921 4.05734 0
M  V30 17473 N 1735.46 -5.19512 2.59013 0
M  V30 17474 H 1738.23 -1.12914 2.77616 0
M  V30 17475 H 1735.79 -0.472711 1.54845 0
M  V30 17476 H 1737.78 -3.531 1.97743 0
M  V30 17477 H 1736.35 -2.92396 1.1056 0
M  V30 17478 H 1735.57 -1.9836 3.40657 0
M  V30 17479 H 1736.86 -2.95338 4.1431 0
M  V30 17480 H 1736.26 -5.29536 1.99018 0
M  V30 17481 H 1734.81 -5.95549 2.64887 0
M  V30 17482 N 1738.25 -1.47815 -0.546675 0
M  V30 17483 C 1739.49 -1.54674 -1.30078 0
M  V30 17484 C 1739.81 -0.215151 -1.93809 0
M  V30 17485 O 1739.08 0.761862 -1.80478 0
M  V30 17486 H 1737.66 -0.569776 -0.483078 0
M  V30 17487 H 1740.33 -1.84178 -0.637525 0
M  V30 17488 H 1739.42 -2.31894 -2.08882 0
M  V30 17489 N 1739.72 0.794246 -1.36123 0
M  V30 17490 C 1740.96 1.56516 -1.31462 0
M  V30 17491 C 1741.33 1.91706 0.106284 0
M  V30 17492 O 1742.53 2.67365 0.277403 0
M  V30 17493 C 1740.8 2.81108 -2.2071 0
M  V30 17494 S 1742.36 3.71399 -2.33685 0
M  V30 17495 H 1739.18 0.536118 -0.467011 0
M  V30 17496 H 1741.78 0.935871 -1.71644 0
M  V30 17497 H 1740.48 2.53299 -3.22905 0
M  V30 17498 H 1740.01 3.49014 -1.8153 0
M  V30 17499 H 1742.03 4.71998 -1.53078 0
M  V30 17500 N 1741.2 1.20323 1.01785 0
M  V30 17501 C 1742.13 0.908716 2.10416 0
M  V30 17502 C 1743.15 -0.103029 1.62474 0
M  V30 17503 O 1744.34 0.127825 1.78042 0
M  V30 17504 C 1741.44 0.340601 3.37184 0
M  V30 17505 C 1740.61 1.40358 4.14268 0
M  V30 17506 C 1739.67 0.847016 5.19338 0
M  V30 17507 O 1738.69 1.5274 5.48324 0
M  V30 17508 N 1739.9 -0.344198 5.79479 0
M  V30 17509 H 1742.66 1.84383 2.36269 0
M  V30 17510 H 1740.22 1.10673 1.18165 0
M  V30 17511 H 1742.21 -0.0458443 4.04674 0
M  V30 17512 H 1740.78 -0.499042 3.08591 0
M  V30 17513 H 1740 1.96442 3.41766 0
M  V30 17514 H 1741.29 2.11952 4.62551 0
M  V30 17515 H 1740.69 -0.914263 5.58263 0
M  V30 17516 H 1739.25 -0.672296 6.48324 0
M  V30 17517 N 1742.68 -1.21073 1.00892 0
M  V30 17518 C 1743.63 -2.21426 0.543574 0
M  V30 17519 C 1744.61 -1.55927 -0.396938 0
M  V30 17520 O 1745.81 -1.75613 -0.221152 0
M  V30 17521 C 1742.93 -3.43074 -0.124494 0
M  V30 17522 C 1742.02 -4.15753 0.837269 0
M  V30 17523 N 1742.41 -4.64936 1.99168 0
M  V30 17524 C 1740.71 -4.41142 0.656473 0
M  V30 17525 C 1741.41 -5.20527 2.59666 0
M  V30 17526 N 1740.39 -5.10133 1.87792 0
M  V30 17527 H 1744.19 -2.5711 1.42378 0
M  V30 17528 H 1741.7 -1.36923 0.873254 0
M  V30 17529 H 1743.7 -4.14181 -0.475363 0
M  V30 17530 H 1742.36 -3.08897 -1.00064 0
M  V30 17531 H 1743.37 -4.60392 2.37191 0
M  V30 17532 H 1740.05 -4.17144 -0.172261 0
M  V30 17533 H 1741.44 -5.69011 3.57318 0
M  V30 17534 N 1744.16 -0.784156 -1.36707 0
M  V30 17535 C 1745.11 -0.152155 -2.27492 0
M  V30 17536 C 1746.09 0.660807 -1.46704 0
M  V30 17537 O 1747.28 0.521744 -1.69136 0
M  V30 17538 C 1744.41 0.716367 -3.35743 0
M  V30 17539 C 1743.5 -0.1051 -4.2397 0
M  V30 17540 N 1743.89 -1.15697 -4.9239 0
M  V30 17541 C 1742.19 0.116908 -4.45847 0
M  V30 17542 C 1742.89 -1.65661 -5.57612 0
M  V30 17543 N 1741.87 -0.966703 -5.34935 0
M  V30 17544 H 1745.67 -0.957322 -2.77871 0
M  V30 17545 H 1743.18 -0.623106 -1.4997 0
M  V30 17546 H 1745.18 1.185 -3.99704 0
M  V30 17547 H 1743.84 1.52014 -2.86918 0
M  V30 17548 H 1744.85 -1.53933 -4.94495 0
M  V30 17549 H 1741.53 0.891605 -4.07868 0
M  V30 17550 H 1742.92 -2.53449 -6.22265 0
M  V30 17551 N 1745.64 1.48215 -0.535727 0
M  V30 17552 C 1746.86 2.06898 -0.0079465 0
M  V30 17553 C 1747.28 1.39148 1.27606 0
M  V30 17554 O 1746.64 0.480867 1.76051 0
M  V30 17555 C 1746.69 3.60868 0.213736 0
M  V30 17556 O 1746.41 4.26075 -1.01941 0
M  V30 17557 C 1747.91 4.36362 0.781245 0
M  V30 17558 H 1745.13 0.670028 -0.0361097 0
M  V30 17559 H 1747.67 1.90524 -0.743012 0
M  V30 17560 H 1745.83 3.76828 0.898866 0
M  V30 17561 H 1746.24 5.18306 -0.803716 0
M  V30 17562 H 1747.72 5.44847 0.885753 0
M  V30 17563 H 1748.19 4.01179 1.78751 0
M  V30 17564 H 1748.8 4.25094 0.132499 0
M  V30 17565 N 1747.11 0.27113 1.5525 0
M  V30 17566 C 1748.02 -0.628245 2.26031 0
M  V30 17567 C 1749.04 -1.17339 1.28481 0
M  V30 17568 O 1750.22 -1.20453 1.61409 0
M  V30 17569 C 1747.28 -1.79766 2.96454 0
M  V30 17570 C 1746.34 -1.28958 4.09473 0
M  V30 17571 C 1745.58 -2.40326 4.76528 0
M  V30 17572 O 1745.8 -3.59595 4.42772 0
M  V30 17573 O 1744.73 -2.08708 5.64557 0
M  V30 17574 H 1748.56 -0.0549756 3.0365 0
M  V30 17575 H 1746.14 0.0386859 1.4935 0
M  V30 17576 H 1748.03 -2.4796 3.40725 0
M  V30 17577 H 1746.7 -2.35809 2.21756 0
M  V30 17578 H 1745.61 -0.57422 3.69667 0
M  V30 17579 H 1746.94 -0.774945 4.86061 0
M  V30 17580 N 1748.59 -1.576 -0.00164943 0
M  V30 17581 C 1749.84 -1.9012 -0.685486 0
M  V30 17582 C 1750.16 -0.872245 -1.74404 0
M  V30 17583 O 1749.43 0.090572 -1.95691 0
M  V30 17584 H 1748.01 -0.701699 -0.256177 0
M  V30 17585 H 1750.67 -1.94861 0.0388866 0
M  V30 17586 H 1749.77 -2.89831 -1.15778 0
M  V30 17587 N 1750.07 0.274379 -1.55193 0
M  V30 17588 C 1751.48 0.845522 -1.66457 0
M  V30 17589 C 1751.83 1.87097 -0.590684 0
M  V30 17590 O 1750.96 2.14733 0.268065 0
M  V30 17591 C 1751.55 1.54039 -3.01757 0
M  V30 17592 C 1750.11 2.05958 -3.15053 0
M  V30 17593 C 1749.26 0.901169 -2.62248 0
M  V30 17594 H 1752.21 0.0507599 -1.58619 0
M  V30 17595 H 1752.23 2.40729 -2.94669 0
M  V30 17596 H 1751.74 0.793807 -3.79895 0
M  V30 17597 H 1749.84 2.83582 -2.41686 0
M  V30 17598 H 1749.96 2.27584 -4.21595 0
M  V30 17599 H 1748.32 1.29416 -2.19371 0
M  V30 17600 H 1749.1 0.168116 -3.42888 0
M  V30 17601 N 1751.55 1.48103 0.538828 0
M  V30 17602 C 1752.96 1.34028 0.866532 0
M  V30 17603 C 1753.16 0.3446 1.98531 0
M  V30 17604 O 1752.22 -0.237347 2.51382 0
M  V30 17605 C 1753.53 2.73833 1.24241 0
M  V30 17606 C 1755.08 2.82256 1.35279 0
M  V30 17607 C 1755.56 4.22744 1.76214 0
M  V30 17608 N 1757.05 4.25374 1.83332 0
M  V30 17609 C 1757.78 5.31009 2.16373 0
M  V30 17610 N 1757.28 6.4693 2.47899 0
M  V30 17611 N 1759.07 5.18397 2.17304 0
M  V30 17612 H 1751.22 2.11461 -0.199502 0
M  V30 17613 H 1753.49 0.947627 -0.0266031 0
M  V30 17614 H 1753.19 3.48213 0.494025 0
M  V30 17615 H 1753.07 3.0679 2.19453 0
M  V30 17616 H 1755.45 2.08137 2.09196 0
M  V30 17617 H 1755.53 2.5293 0.382096 0
M  V30 17618 H 1755.18 4.97375 1.02862 0
M  V30 17619 H 1755.11 4.49507 2.74319 0
M  V30 17620 H 1757.6 3.41755 1.61282 0
M  V30 17621 H 1757.91 7.23279 2.7219 0
M  V30 17622 H 1756.26 6.50219 2.45438 0
M  V30 17623 H 1759.45 4.26855 1.92126 0
M  V30 17624 H 1759.62 6.00824 2.42722 0
M  V30 17625 N 1753.03 -0.787016 1.36542 0
M  V30 17626 C 1754.27 -1.55817 1.3229 0
M  V30 17627 C 1754.63 -1.91759 -0.0961159 0
M  V30 17628 O 1755.83 -2.67508 -0.26322 0
M  V30 17629 C 1754.1 -2.79934 2.22198 0
M  V30 17630 S 1755.66 -3.70154 2.35651 0
M  V30 17631 H 1752.48 -0.533633 0.469847 0
M  V30 17632 H 1755.08 -0.926755 1.72138 0
M  V30 17633 H 1753.79 -2.51583 3.24244 0
M  V30 17634 H 1753.32 -3.48046 1.83378 0
M  V30 17635 H 1755.33 -4.71179 1.55579 0
M  V30 17636 N 1754.5 -1.20861 -1.01145 0
M  V30 17637 C 1755.41 -0.977926 -2.13246 0
M  V30 17638 C 1756.43 0.0678862 -1.73868 0
M  V30 17639 O 1757.61 -0.120717 -2.01038 0
M  V30 17640 C 1754.67 -0.538575 -3.42491 0
M  V30 17641 C 1753.73 -1.65584 -3.96081 0
M  V30 17642 C 1752.97 -1.23736 -5.19158 0
M  V30 17643 O 1753.19 -0.108227 -5.70297 0
M  V30 17644 O 1752.12 -2.04679 -5.6603 0
M  V30 17645 H 1755.95 -1.91666 -2.3558 0
M  V30 17646 H 1753.53 -0.992931 -1.1163 0
M  V30 17647 H 1755.42 -0.303041 -4.20309 0
M  V30 17648 H 1754.09 0.371515 -3.21561 0
M  V30 17649 H 1753 -1.94572 -3.19519 0
M  V30 17650 H 1754.33 -2.54313 -4.21409 0
M  V30 17651 N 1755.98 1.20536 -1.01532 0
M  V30 17652 C 1756.91 2.22683 -0.542658 0
M  V30 17653 C 1757.93 1.5844 0.374267 0
M  V30 17654 O 1759.12 1.77661 0.172818 0
M  V30 17655 C 1756.22 3.38117 0.230168 0
M  V30 17656 C 1755.39 4.3195 -0.688356 0
M  V30 17657 C 1754.45 5.26187 0.0366686 0
M  V30 17658 O 1753.47 5.66182 -0.585418 0
M  V30 17659 N 1754.68 5.65481 1.31193 0
M  V30 17660 H 1757.44 2.63864 -1.42111 0
M  V30 17661 H 1755 1.35065 -0.892703 0
M  V30 17662 H 1756.99 3.98164 0.724408 0
M  V30 17663 H 1755.56 2.95837 1.00991 0
M  V30 17664 H 1754.78 3.69889 -1.36292 0
M  V30 17665 H 1756.07 4.91564 -1.3131 0
M  V30 17666 H 1755.47 5.34998 1.83829 0
M  V30 17667 H 1754.03 6.27842 1.75092 0
M  V30 17668 N 1757.46 0.791395 1.36289 0
M  V30 17669 C 1758.7 0.370134 2.01021 0
M  V30 17670 C 1759.06 -1.03918 1.61447 0
M  V30 17671 O 1760.27 -1.56163 2.18784 0
M  V30 17672 C 1758.54 0.530868 3.53435 0
M  V30 17673 S 1760.1 0.197778 4.38354 0
M  V30 17674 H 1756.91 0.141315 0.696815 0
M  V30 17675 H 1759.52 1.03032 1.66147 0
M  V30 17676 H 1758.22 1.55683 3.79725 0
M  V30 17677 H 1757.75 -0.14518 3.93132 0
M  V30 17678 H 1759.77 -0.999956 4.8602 0
M  V30 17679 N 1758.94 -1.47929 0.54358 0
M  V30 17680 C 1759.87 -2.27843 -0.249005 0
M  V30 17681 C 1760.88 -1.36189 -0.891987 0
M  V30 17682 O 1762.07 -1.61127 -0.768135 0
M  V30 17683 C 1759.17 -3.10016 -1.36906 0
M  V30 17684 C 1758.35 -4.29541 -0.82545 0
M  V30 17685 C 1757.41 -4.93416 -1.82831 0
M  V30 17686 O 1756.43 -5.52222 -1.37984 0
M  V30 17687 N 1757.63 -4.86881 -3.16113 0
M  V30 17688 H 1760.4 -2.96505 0.436436 0
M  V30 17689 H 1757.96 -1.57407 0.378774 0
M  V30 17690 H 1759.95 -3.49616 -2.0384 0
M  V30 17691 H 1758.52 -2.43686 -1.95796 0
M  V30 17692 H 1757.74 -3.94195 0.0202776 0
M  V30 17693 H 1759.03 -5.06882 -0.441368 0
M  V30 17694 H 1758.43 -4.4028 -3.55205 0
M  V30 17695 H 1756.98 -5.30541 -3.78642 0
M  V30 17696 N 1760.42 -0.27936 -1.55104 0
M  V30 17697 C 1761.83 0.217569 -1.85428 0
M  V30 17698 C 1762.18 1.55117 -1.20138 0
M  V30 17699 O 1761.3 2.10751 -0.491229 0
M  V30 17700 C 1761.9 0.401547 -3.36412 0
M  V30 17701 C 1760.46 0.842706 -3.66845 0
M  V30 17702 C 1759.61 -0.0615565 -2.77232 0
M  V30 17703 H 1762.56 -0.501025 -1.50584 0
M  V30 17704 H 1762.58 1.23946 -3.59747 0
M  V30 17705 H 1762.09 -0.569224 -3.83903 0
M  V30 17706 H 1760.19 1.8248 -3.24857 0
M  V30 17707 H 1760.3 0.677088 -4.74291 0
M  V30 17708 H 1758.67 0.455486 -2.50594 0
M  V30 17709 H 1759.45 -1.02829 -3.27538 0
M  V30 17710 N 1761.9 1.57599 -0.0067085 0
M  V30 17711 C 1763.14 1.90481 0.675393 0
M  V30 17712 C 1763.46 0.881481 1.73939 0
M  V30 17713 O 1762.73 -0.0801928 1.95736 0
M  V30 17714 H 1761.31 0.703048 0.252452 0
M  V30 17715 H 1763.98 1.94838 -0.04922 0
M  V30 17716 H 1763.07 2.90441 1.14239 0
M  V30 17717 N 1763.37 -0.266145 1.55336 0
M  V30 17718 C 1764.6 -1.01342 1.80037 0
M  V30 17719 C 1765.01 -1.80175 0.577368 0
M  V30 17720 O 1764.35 -1.77765 -0.46318 0
M  V30 17721 C 1764.42 -2.0141 2.97782 0
M  V30 17722 C 1764.08 -1.4145 4.34558 0
M  V30 17723 C 1765.08 -0.826689 5.13285 0
M  V30 17724 C 1762.76 -1.43964 4.81227 0
M  V30 17725 C 1764.76 -0.272004 6.36819 0
M  V30 17726 C 1762.44 -0.881101 6.04715 0
M  V30 17727 C 1763.44 -0.298287 6.82348 0
M  V30 17728 O 1763.13 0.251684 8.03506 0
M  V30 17729 H 1762.86 -0.304756 0.603407 0
M  V30 17730 H 1765.42 -0.300216 2.03194 0
M  V30 17731 H 1763.65 -2.76508 2.70334 0
M  V30 17732 H 1765.33 -2.62321 3.09746 0
M  V30 17733 H 1766.1 -0.79991 4.78358 0
M  V30 17734 H 1761.98 -1.88267 4.20805 0
M  V30 17735 H 1765.52 0.183538 6.97359 0
M  V30 17736 H 1761.42 -0.905142 6.39122 0
M  V30 17737 H 1762.19 0.1417 8.18377 0
M  V30 17738 N 1764.85 -1.48386 -0.530967 0
M  V30 17739 C 1766.08 -1.59782 -1.30971 0
M  V30 17740 C 1766.49 -0.25683 -1.87449 0
M  V30 17741 O 1765.83 0.763845 -1.67066 0
M  V30 17742 C 1765.89 -2.58431 -2.49907 0
M  V30 17743 C 1765.56 -4.0352 -2.14524 0
M  V30 17744 C 1766.56 -4.91233 -1.70255 0
M  V30 17745 C 1764.24 -4.4905 -2.25077 0
M  V30 17746 C 1766.23 -6.22502 -1.37003 0
M  V30 17747 C 1763.92 -5.8034 -1.91437 0
M  V30 17748 C 1764.92 -6.66889 -1.47471 0
M  V30 17749 O 1764.61 -7.95737 -1.14272 0
M  V30 17750 H 1764.34 -0.541558 -0.404588 0
M  V30 17751 H 1766.89 -1.94932 -0.647349 0
M  V30 17752 H 1765.12 -2.184 -3.19121 0
M  V30 17753 H 1766.81 -2.59672 -3.1197 0
M  V30 17754 H 1767.58 -4.57296 -1.61572 0
M  V30 17755 H 1763.46 -3.81872 -2.58254 0
M  V30 17756 H 1767 -6.90012 -1.02613 0
M  V30 17757 H 1762.9 -6.13813 -1.9976 0
M  V30 17758 H 1763.67 -8.0848 -1.27679 0
M  V30 17759 N 1766.33 0.779763 -1.36958 0
M  V30 17760 C 1767.58 1.53499 -1.31463 0
M  V30 17761 C 1767.9 1.94728 0.102869 0
M  V30 17762 O 1767.17 1.65688 1.0452 0
M  V30 17763 H 1765.75 0.5693 -0.483638 0
M  V30 17764 H 1768.41 0.928536 -1.7136 0
M  V30 17765 H 1767.51 2.4381 -1.94841 0
M  V30 17766 N 1767.81 1.21396 1.00503 0
M  V30 17767 C 1769.08 0.93995 1.71535 0
M  V30 17768 C 1769.46 -0.548247 2.03856 0
M  V30 17769 O 1768.81 -1.51308 1.71226 0
M  V30 17770 C 1769.02 1.82501 2.9748 0
M  V30 17771 C 1770.37 2.07383 3.7051 0
M  V30 17772 O 1771.39 1.79849 3.07462 0
M  V30 17773 O 1770.25 2.5395 4.83913 0
M  V30 17774 H 1767.35 0.35246 0.748132 0
M  V30 17775 H 1769.89 1.32325 1.06246 0
M  V30 17776 H 1768.67 2.83219 2.70005 0
M  V30 17777 H 1768.29 1.44252 3.70509 0
M  V30 17778 N 1769.29 -1.19996 1.0217 0
M  V30 17779 C 1770.25 -2.21179 0.601036 0
M  V30 17780 C 1771.25 -1.57345 -0.331531 0
M  V30 17781 O 1772.44 -1.73789 -0.119521 0
M  V30 17782 C 1769.57 -3.40683 -0.121557 0
M  V30 17783 H 1770.76 -2.5991 1.49622 0
M  V30 17784 H 1768.32 -1.33548 0.812071 0
M  V30 17785 H 1769.05 -3.07461 -1.03142 0
M  V30 17786 H 1768.84 -3.88245 0.548448 0
M  V30 17787 H 1770.33 -4.1565 -0.403046 0
M  V30 17788 N 1770.76 -0.798611 -1.35867 0
M  V30 17789 C 1771.7 -0.161203 -2.28632 0
M  V30 17790 C 1772.71 0.634886 -1.4991 0
M  V30 17791 O 1773.9 0.468557 -1.72241 0
M  V30 17792 C 1771 0.794407 -3.29458 0
M  V30 17793 C 1770.17 0.0464031 -4.37375 0
M  V30 17794 C 1769.23 0.919313 -5.18107 0
M  V30 17795 O 1768.26 0.373179 -5.67975 0
M  V30 17796 N 1769.46 2.24243 -5.35439 0
M  V30 17797 H 1772.22 -0.958079 -2.83973 0
M  V30 17798 H 1769.78 -0.653344 -1.48132 0
M  V30 17799 H 1771.78 1.38242 -3.80357 0
M  V30 17800 H 1770.35 1.49212 -2.7469 0
M  V30 17801 H 1769.57 -0.722757 -3.87518 0
M  V30 17802 H 1770.85 -0.469417 -5.0663 0
M  V30 17803 H 1770.25 2.71017 -4.96554 0
M  V30 17804 H 1768.81 2.77986 -5.89548 0
M  V30 17805 N 1772.24 1.47639 -0.551417 0
M  V30 17806 C 1773.66 1.58202 -0.210768 0
M  V30 17807 C 1773.86 1.55078 1.28659 0
M  V30 17808 O 1772.91 1.45113 2.06636 0
M  V30 17809 C 1774.23 2.88952 -0.832294 0
M  V30 17810 C 1775.77 3.02524 -0.80299 0
M  V30 17811 C 1776.25 4.35966 -1.40348 0
M  V30 17812 N 1777.74 4.42587 -1.3664 0
M  V30 17813 C 1778.48 5.44391 -1.80072 0
M  V30 17814 N 1777.97 6.53037 -2.31332 0
M  V30 17815 N 1779.76 5.35401 -1.71178 0
M  V30 17816 H 1771.92 1.47912 -1.52433 0
M  V30 17817 H 1774.18 0.703607 -0.635328 0
M  V30 17818 H 1773.88 2.96958 -1.88439 0
M  V30 17819 H 1773.76 3.75824 -0.321915 0
M  V30 17820 H 1776.15 2.94119 0.240395 0
M  V30 17821 H 1776.23 2.17209 -1.35107 0
M  V30 17822 H 1775.87 4.45127 -2.4459 0
M  V30 17823 H 1775.8 5.20004 -0.830897 0
M  V30 17824 H 1778.29 3.64664 -0.991386 0
M  V30 17825 H 1778.6 7.26884 -2.62411 0
M  V30 17826 H 1776.95 6.53942 -2.35339 0
M  V30 17827 H 1780.14 4.49421 -1.30912 0
M  V30 17828 H 1780.31 6.14604 -2.05344 0
M  V30 17829 N 1773.72 0.287581 1.54954 0
M  V30 17830 C 1774.97 -0.324967 1.9947 0
M  V30 17831 C 1775.29 -1.55437 1.17747 0
M  V30 17832 O 1774.56 -1.9403 0.270067 0
M  V30 17833 H 1773.14 -0.123062 0.736794 0
M  V30 17834 H 1775.8 0.395805 1.90839 0
M  V30 17835 H 1774.9 -0.606265 3.06155 0
M  V30 17836 N 1775.2 -1.57593 0.0150662 0
M  V30 17837 C 1776.43 -1.95504 -0.677174 0
M  V30 17838 C 1776.84 -0.8908 -1.66464 0
M  V30 17839 O 1776.2 0.128818 -1.82045 0
M  V30 17840 C 1776.25 -3.33463 -1.39589 0
M  V30 17841 O 1775.97 -4.35803 -0.448005 0
M  V30 17842 C 1777.47 -3.85923 -2.18125 0
M  V30 17843 H 1774.69 -0.644226 -0.187652 0
M  V30 17844 H 1777.24 -2.04378 0.070661 0
M  V30 17845 H 1775.39 -3.25851 -2.09523 0
M  V30 17846 H 1775.8 -5.157 -0.956756 0
M  V30 17847 H 1777.28 -4.84838 -2.63887 0
M  V30 17848 H 1777.76 -3.19423 -3.01439 0
M  V30 17849 H 1778.36 -3.96758 -1.53176 0
M  V30 17850 N 1776.68 0.257904 -1.55475 0
M  V30 17851 C 1778.09 0.82782 -1.67344 0
M  V30 17852 C 1778.44 1.8646 -0.610494 0
M  V30 17853 O 1777.56 2.15005 0.245275 0
M  V30 17854 C 1778.16 1.5083 -3.03374 0
M  V30 17855 C 1776.72 2.02605 -3.17219 0
M  V30 17856 C 1775.86 0.873303 -2.63189 0
M  V30 17857 H 1778.82 0.0339334 -1.58664 0
M  V30 17858 H 1778.84 2.3759 -2.97205 0
M  V30 17859 H 1778.35 0.753469 -3.80716 0
M  V30 17860 H 1776.45 2.81002 -2.4468 0
M  V30 17861 H 1776.56 2.23099 -4.23985 0
M  V30 17862 H 1774.93 1.27082 -2.20731 0
M  V30 17863 H 1775.71 0.131739 -3.43047 0
M  V30 17864 N 1778.15 1.48666 0.52309 0
M  V30 17865 C 1779.09 1.59796 1.64311 0
M  V30 17866 C 1780.1 0.481836 1.55506 0
M  V30 17867 O 1781.29 0.752977 1.61841 0
M  V30 17868 C 1778.39 1.5181 3.02997 0
M  V30 17869 C 1777.56 2.7858 3.37212 0
M  V30 17870 C 1776.62 2.63952 4.5521 0
M  V30 17871 O 1775.65 3.37851 4.58088 0
M  V30 17872 N 1776.85 1.74026 5.53801 0
M  V30 17873 H 1779.61 2.56386 1.55197 0
M  V30 17874 H 1777.17 1.45476 0.710511 0
M  V30 17875 H 1779.17 1.39709 3.7982 0
M  V30 17876 H 1777.74 0.631664 3.06152 0
M  V30 17877 H 1776.96 3.05194 2.495 0
M  V30 17878 H 1778.24 3.62668 3.56861 0
M  V30 17879 H 1777.64 1.13202 5.54258 0
M  V30 17880 H 1776.2 1.6786 6.29814 0
M  V30 17881 N 1779.63 -0.772489 1.37369 0
M  V30 17882 C 1780.91 -1.52029 1.23072 0
M  V30 17883 C 1781.29 -2.10365 -0.176011 0
M  V30 17884 O 1780.64 -1.95459 -1.18356 0
M  V30 17885 C 1780.85 -2.60176 2.32614 0
M  V30 17886 C 1782.2 -3.27599 2.70118 0
M  V30 17887 O 1783.22 -2.70471 2.31785 0
M  V30 17888 O 1782.08 -4.30883 3.36158 0
M  V30 17889 H 1779.17 -0.673306 0.480196 0
M  V30 17890 H 1781.72 -0.809518 1.49147 0
M  V30 17891 H 1780.49 -2.15185 3.2682 0
M  V30 17892 H 1780.11 -3.38855 2.07998 0
M  V30 17893 N 1781.11 -1.21927 -0.998575 0
M  V30 17894 C 1782.35 -1.05191 -1.75255 0
M  V30 17895 C 1782.71 0.40666 -1.87644 0
M  V30 17896 O 1783.92 0.694716 -2.59667 0
M  V30 17897 C 1782.19 -1.7372 -3.1234 0
M  V30 17898 S 1783.75 -1.72323 -4.03547 0
M  V30 17899 H 1780.56 -0.376819 -0.602933 0
M  V30 17900 H 1783.17 -1.54777 -1.19434 0
M  V30 17901 H 1781.87 -2.79018 -3.00961 0
M  V30 17902 H 1781.4 -1.24341 -3.73233 0
M  V30 17903 H 1783.42 -0.768885 -4.90207 0
M  V30 17904 N 1782.59 1.19452 -1.02805 0
M  V30 17905 C 1783.52 2.22095 -0.566246 0
M  V30 17906 C 1784.53 1.58828 0.357442 0
M  V30 17907 O 1785.72 1.77835 0.153965 0
M  V30 17908 C 1782.82 3.38343 0.194294 0
M  V30 17909 C 1782 4.31195 -0.734131 0
M  V30 17910 C 1781.05 5.26197 -0.0191426 0
M  V30 17911 O 1780.08 5.65529 -0.645436 0
M  V30 17912 N 1781.28 5.66841 1.25187 0
M  V30 17913 H 1784.05 2.62342 -1.44902 0
M  V30 17914 H 1781.61 1.3411 -0.906978 0
M  V30 17915 H 1783.6 3.9891 0.682136 0
M  V30 17916 H 1782.17 2.96892 0.978474 0
M  V30 17917 H 1781.39 3.68423 -1.40208 0
M  V30 17918 H 1782.68 4.90144 -1.36516 0
M  V30 17919 H 1782.08 5.36918 1.78145 0
M  V30 17920 H 1780.63 6.29664 1.68423 0
M  V30 17921 N 1784.07 0.805805 1.35442 0
M  V30 17922 C 1785 0.230077 2.32364 0
M  V30 17923 C 1785.98 -0.644034 1.57436 0
M  V30 17924 O 1787.16 -0.574467 1.85509 0
M  V30 17925 C 1784.29 -0.622814 3.4167 0
M  V30 17926 C 1783.25 0.152739 4.27727 0
M  V30 17927 C 1782.57 -0.821803 5.28347 0
M  V30 17928 C 1783.87 1.35128 5.04517 0
M  V30 17929 H 1785.57 1.03983 2.80763 0
M  V30 17930 H 1783.11 0.501467 1.34986 0
M  V30 17931 H 1785.07 -1.03564 4.08476 0
M  V30 17932 H 1783.79 -1.46544 2.91877 0
M  V30 17933 H 1782.45 0.546732 3.625 0
M  V30 17934 H 1782.1 -1.65991 4.74822 0
M  V30 17935 H 1781.8 -0.307209 5.86796 0
M  V30 17936 H 1783.32 -1.23285 5.98024 0
M  V30 17937 H 1784.73 1.01337 5.64273 0
M  V30 17938 H 1783.13 1.80031 5.72459 0
M  V30 17939 H 1784.2 2.13833 4.35205 0
M  V30 17940 N 1785.54 -1.47344 0.559239 0
M  V30 17941 C 1786.78 -2.04364 0.0383239 0
M  V30 17942 C 1787.15 -1.42399 -1.28788 0
M  V30 17943 O 1788.35 -1.90478 -1.89661 0
M  V30 17944 C 1786.62 -3.57364 -0.0509258 0
M  V30 17945 S 1788.18 -4.35736 -0.51767 0
M  V30 17946 H 1785 -0.71052 0.0261238 0
M  V30 17947 H 1787.6 -1.80689 0.746433 0
M  V30 17948 H 1786.3 -3.99987 0.918631 0
M  V30 17949 H 1785.83 -3.85539 -0.782527 0
M  V30 17950 H 1787.85 -4.63291 -1.77697 0
M  V30 17951 N 1787.02 -0.295795 -1.54799 0
M  V30 17952 C 1788.43 0.19789 -1.85648 0
M  V30 17953 C 1788.78 1.53834 -1.21776 0
M  V30 17954 O 1787.91 2.10218 -0.513554 0
M  V30 17955 C 1788.5 0.365844 -3.36819 0
M  V30 17956 C 1787.06 0.80375 -3.67718 0
M  V30 17957 C 1786.21 -0.0909572 -2.77151 0
M  V30 17958 H 1789.16 -0.516968 -1.50044 0
M  V30 17959 H 1789.18 1.20123 -3.61041 0
M  V30 17960 H 1788.69 -0.60991 -3.83278 0
M  V30 17961 H 1786.8 1.79024 -3.26774 0
M  V30 17962 H 1786.91 0.626745 -4.74983 0
M  V30 17963 H 1785.27 0.428882 -2.51063 0
M  V30 17964 H 1786.06 -1.06297 -3.26429 0
M  V30 17965 N 1788.5 1.57583 -0.0234236 0
M  V30 17966 C 1789.74 1.93428 0.660675 0
M  V30 17967 C 1790.11 0.899634 1.69619 0
M  V30 17968 O 1791.31 1.1441 2.43236 0
M  V30 17969 C 1789.58 3.3422 1.26617 0
M  V30 17970 S 1791.14 3.91985 1.97214 0
M  V30 17971 H 1787.95 0.676862 0.217666 0
M  V30 17972 H 1790.56 1.95312 -0.0857251 0
M  V30 17973 H 1789.26 4.07343 0.500004 0
M  V30 17974 H 1788.79 3.35766 2.05 0
M  V30 17975 H 1790.81 3.74958 3.24994 0
M  V30 17976 N 1789.98 -0.249655 1.5561 0
M  V30 17977 C 1791.21 -0.994263 1.81102 0
M  V30 17978 C 1791.62 -1.79553 0.596445 0
M  V30 17979 O 1790.96 -1.78246 -0.4443 0
M  V30 17980 C 1791.02 -1.9824 2.99902 0
M  V30 17981 C 1790.69 -1.36833 4.36034 0
M  V30 17982 C 1791.68 -0.772202 5.14133 0
M  V30 17983 C 1789.37 -1.38852 4.82727 0
M  V30 17984 C 1791.36 -0.204446 6.37072 0
M  V30 17985 C 1789.05 -0.816913 6.05615 0
M  V30 17986 C 1790.05 -0.225898 6.82626 0
M  V30 17987 O 1789.74 0.336892 8.03194 0
M  V30 17988 H 1789.47 -0.298339 0.606605 0
M  V30 17989 H 1792.02 -0.278647 2.03501 0
M  V30 17990 H 1790.25 -2.73625 2.73252 0
M  V30 17991 H 1791.94 -2.59021 3.12511 0
M  V30 17992 H 1792.71 -0.749129 4.7918 0
M  V30 17993 H 1788.59 -1.83793 4.22778 0
M  V30 17994 H 1792.13 0.257492 6.97125 0
M  V30 17995 H 1788.03 -0.837303 6.40046 0
M  V30 17996 H 1788.79 0.228492 8.18181 0
M  V30 17997 N 1791.46 -1.48941 -0.515198 0
M  V30 17998 C 1792.71 -1.57398 -1.26768 0
M  V30 17999 C 1793.03 -0.256213 -1.93309 0
M  V30 18000 O 1792.3 0.723408 -1.82054 0
M  V30 18001 H 1790.88 -0.579895 -0.470883 0
M  V30 18002 H 1793.54 -1.85489 -0.598315 0
M  V30 18003 H 1792.63 -2.36272 -2.03916 0
M  V30 18004 N 1792.94 0.765193 -1.37777 0
M  V30 18005 C 1794.21 1.51374 -1.23876 0
M  V30 18006 C 1794.59 2.10455 0.164852 0
M  V30 18007 O 1793.94 1.96084 1.17318 0
M  V30 18008 C 1794.15 2.58939 -2.33991 0
M  V30 18009 C 1795.5 3.26162 -2.71852 0
M  V30 18010 O 1796.52 2.69238 -2.33216 0
M  V30 18011 O 1795.38 4.29094 -3.38438 0
M  V30 18012 H 1792.48 0.670749 -0.48376 0
M  V30 18013 H 1795.02 0.801597 -1.49574 0
M  V30 18014 H 1793.79 2.13448 -3.27957 0
M  V30 18015 H 1793.42 3.37747 -2.09793 0
M  V30 18016 N 1794.41 1.22455 0.992094 0
M  V30 18017 C 1795.82 1.04629 1.54627 0
M  V30 18018 C 1796.18 -0.390011 1.92285 0
M  V30 18019 O 1795.3 -1.27511 1.74842 0
M  V30 18020 C 1795.9 1.89306 2.80978 0
M  V30 18021 C 1794.45 1.75775 3.32836 0
M  V30 18022 C 1793.6 1.85724 2.05917 0
M  V30 18023 H 1796.55 1.36288 0.813089 0
M  V30 18024 H 1796.57 1.41095 3.53373 0
M  V30 18025 H 1796.09 2.93836 2.53539 0
M  V30 18026 H 1794.19 0.739821 3.65181 0
M  V30 18027 H 1794.3 2.58491 4.03385 0
M  V30 18028 H 1792.66 1.29173 2.19514 0
M  V30 18029 H 1793.45 2.91787 1.80874 0
M  V30 18030 N 1795.89 -1.18905 1.03437 0
M  V30 18031 C 1796.85 -2.20529 0.624461 0
M  V30 18032 C 1797.85 -1.57688 -0.314824 0
M  V30 18033 O 1799.04 -1.73906 -0.101082 0
M  V30 18034 C 1796.18 -3.40793 -0.0854166 0
M  V30 18035 H 1797.37 -2.58309 1.5237 0
M  V30 18036 H 1794.92 -1.32679 0.826189 0
M  V30 18037 H 1795.66 -3.08538 -0.998747 0
M  V30 18038 H 1795.44 -3.87642 0.589596 0
M  V30 18039 H 1796.93 -4.16055 -0.358938 0
M  V30 18040 N 1797.37 -0.812977 -1.35013 0
M  V30 18041 C 1798.33 -0.233373 -2.28009 0
M  V30 18042 C 1799.33 0.58298 -1.4986 0
M  V30 18043 O 1800.52 0.400533 -1.69533 0
M  V30 18044 C 1797.65 0.673931 -3.34172 0
M  V30 18045 H 1798.85 -1.05366 -2.80781 0
M  V30 18046 H 1796.4 -0.584097 -1.44976 0
M  V30 18047 H 1797.14 1.51766 -2.86597 0
M  V30 18048 H 1796.92 0.0901848 -3.91996 0
M  V30 18049 H 1798.41 1.07358 -4.03564 0
M  V30 18050 N 1798.85 1.47045 -0.567045 0
M  V30 18051 C 1800.1 2.02046 -0.0465877 0
M  V30 18052 C 1800.42 1.44271 1.3119 0
M  V30 18053 O 1799.69 0.621533 1.85779 0
M  V30 18054 H 1798.27 0.746864 -0.0142323 0
M  V30 18055 H 1800.93 1.80335 -0.739281 0
M  V30 18056 H 1800.02 3.12081 0.0341623 0
M  V30 18057 N 1800.33 0.304 1.5464 0
M  V30 18058 C 1801.26 -0.604475 2.21085 0
M  V30 18059 C 1802.27 -1.0952 1.20454 0
M  V30 18060 O 1803.46 -1.01214 1.47031 0
M  V30 18061 C 1800.56 -1.8399 2.84607 0
M  V30 18062 C 1799.73 -1.49116 4.11197 0
M  V30 18063 C 1798.79 -2.58205 4.58494 0
M  V30 18064 O 1797.82 -2.23171 5.23625 0
M  V30 18065 N 1799.02 -3.88798 4.31065 0
M  V30 18066 H 1801.78 -0.035633 2.99679 0
M  V30 18067 H 1799.35 0.126332 1.61406 0
M  V30 18068 H 1801.34 -2.56322 3.13179 0
M  V30 18069 H 1799.91 -2.31706 2.09836 0
M  V30 18070 H 1799.13 -0.600347 3.89602 0
M  V30 18071 H 1800.42 -1.23358 4.93619 0
M  V30 18072 H 1799.81 -4.20068 3.78892 0
M  V30 18073 H 1798.37 -4.57419 4.6434 0
M  V30 18074 N 1801.8 -1.57568 0.0317802 0
M  V30 18075 C 1802.77 -2.09296 -0.934239 0
M  V30 18076 C 1803.77 -1.00855 -1.25239 0
M  V30 18077 O 1804.96 -1.27004 -1.19229 0
M  V30 18078 C 1802.09 -2.56103 -2.24998 0
M  V30 18079 H 1803.28 -2.95933 -0.486183 0
M  V30 18080 H 1800.83 -1.54796 -0.2163 0
M  V30 18081 H 1801.57 -1.72803 -2.74426 0
M  V30 18082 H 1801.35 -3.35329 -2.03216 0
M  V30 18083 H 1802.84 -2.96339 -2.94233 0
M  V30 18084 N 1803.28 0.241399 -1.5574 0
M  V30 18085 C 1804.25 1.28236 -1.89969 0
M  V30 18086 C 1805.25 1.40804 -0.776582 0
M  V30 18087 O 1806.44 1.3941 -1.04453 0
M  V30 18088 C 1803.57 2.65926 -2.13299 0
M  V30 18089 H 1804.76 0.991011 -2.83053 0
M  V30 18090 H 1802.31 0.480939 -1.48717 0
M  V30 18091 H 1803.05 3.00192 -1.22701 0
M  V30 18092 H 1802.83 2.58184 -2.95099 0
M  V30 18093 H 1804.32 3.4108 -2.40944 0
M  V30 18094 N 1804.76 1.49212 0.507292 0
M  V30 18095 C 1805.71 1.61812 1.60626 0
M  V30 18096 C 1806.69 0.474071 1.53758 0
M  V30 18097 O 1807.89 0.726703 1.61394 0
M  V30 18098 C 1805.02 1.68213 2.99265 0
M  V30 18099 C 1804.1 2.88174 3.11153 0
M  V30 18100 N 1804.49 4.12328 2.92949 0
M  V30 18101 C 1802.79 2.8598 3.42245 0
M  V30 18102 C 1803.49 4.92935 3.08853 0
M  V30 18103 N 1802.47 4.2618 3.37449 0
M  V30 18104 H 1806.27 2.5553 1.45196 0
M  V30 18105 H 1803.78 1.45898 0.71328 0
M  V30 18106 H 1805.78 1.75336 3.78236 0
M  V30 18107 H 1804.44 0.756279 3.1577 0
M  V30 18108 H 1805.45 4.42408 2.6925 0
M  V30 18109 H 1802.13 2.02748 3.64965 0
M  V30 18110 H 1803.52 6.01543 2.99324 0
M  V30 18111 N 1806.24 -0.757876 1.38181 0
M  V30 18112 C 1807.47 -1.54709 1.37378 0
M  V30 18113 C 1807.88 -1.88763 -0.0375087 0
M  V30 18114 O 1807.24 -1.52467 -1.00299 0
M  V30 18115 C 1807.29 -2.84887 2.22535 0
M  V30 18116 O 1807.01 -2.52287 3.58166 0
M  V30 18117 C 1808.51 -3.79048 2.29865 0
M  V30 18118 H 1805.73 -0.478845 0.470052 0
M  V30 18119 H 1808.28 -0.938283 1.81704 0
M  V30 18120 H 1806.43 -3.42156 1.81682 0
M  V30 18121 H 1806.84 -3.35747 4.02957 0
M  V30 18122 H 1808.32 -4.67353 2.93744 0
M  V30 18123 H 1808.8 -4.19175 1.31106 0
M  V30 18124 H 1809.4 -3.27704 2.7109 0
M  V30 18125 N 1807.72 -1.22979 -0.985586 0
M  V30 18126 C 1808.96 -1.07044 -1.74129 0
M  V30 18127 C 1809.32 0.386735 -1.88065 0
M  V30 18128 O 1810.52 0.667136 -2.6039 0
M  V30 18129 C 1808.79 -1.77023 -3.1048 0
M  V30 18130 S 1810.35 -1.76594 -4.01697 0
M  V30 18131 H 1807.17 -0.383192 -0.598903 0
M  V30 18132 H 1809.77 -1.56035 -1.17785 0
M  V30 18133 H 1808.48 -2.82194 -2.97984 0
M  V30 18134 H 1808.01 -1.28293 -3.71893 0
M  V30 18135 H 1810.02 -0.820835 -4.89364 0
M  V30 18136 N 1809.19 1.18355 -1.04066 0
M  V30 18137 C 1810.44 1.88335 -0.744046 0
M  V30 18138 C 1810.77 1.80353 0.728219 0
M  V30 18139 O 1810.02 1.19839 1.54717 0
M  V30 18140 C 1810.32 3.38203 -1.15557 0
M  V30 18141 C 1809.99 3.66389 -2.62812 0
M  V30 18142 C 1808.65 3.73791 -3.03041 0
M  V30 18143 C 1811 3.78773 -3.58023 0
M  V30 18144 C 1808.33 3.91056 -4.37369 0
M  V30 18145 C 1810.68 3.97554 -4.92071 0
M  V30 18146 C 1809.35 4.03192 -5.3197 0
M  V30 18147 H 1808.62 0.689168 -0.272266 0
M  V30 18148 H 1811.26 1.40087 -1.30568 0
M  V30 18149 H 1809.57 3.8843 -0.512741 0
M  V30 18150 H 1811.27 3.90691 -0.903428 0
M  V30 18151 H 1807.86 3.61244 -2.30652 0
M  V30 18152 H 1812.04 3.72386 -3.28089 0
M  V30 18153 H 1807.3 3.93665 -4.67801 0
M  V30 18154 H 1811.47 4.06078 -5.65751 0
M  V30 18155 H 1809.1 4.16323 -6.36066 0
M  V30 18156 N 1810.67 0.820125 1.3458 0
M  V30 18157 C 1811.6 0.254709 2.32107 0
M  V30 18158 C 1812.58 -0.6273 1.58111 0
M  V30 18159 O 1813.77 -0.554759 1.86108 0
M  V30 18160 C 1810.9 -0.586541 3.42311 0
M  V30 18161 C 1809.85 0.198096 4.27541 0
M  V30 18162 C 1809.18 -0.765718 5.29189 0
M  V30 18163 C 1810.48 1.40472 5.03056 0
M  V30 18164 H 1812.17 1.06955 2.79644 0
M  V30 18165 H 1809.72 0.515756 1.34447 0
M  V30 18166 H 1811.67 -0.992259 4.09551 0
M  V30 18167 H 1810.4 -1.4344 2.93415 0
M  V30 18168 H 1809.05 0.585149 3.619 0
M  V30 18169 H 1808.7 -1.60946 4.76556 0
M  V30 18170 H 1808.4 -0.244954 5.87089 0
M  V30 18171 H 1809.93 -1.16935 5.99298 0
M  V30 18172 H 1811.34 1.07316 5.63166 0
M  V30 18173 H 1809.74 1.86092 5.70517 0
M  V30 18174 H 1810.81 2.18437 4.32913 0
M  V30 18175 N 1812.15 -1.46743 0.574835 0
M  V30 18176 C 1813.43 -1.95598 -0.00908149 0
M  V30 18177 C 1813.81 -1.5175 -1.46748 0
M  V30 18178 O 1813.16 -0.764502 -2.15331 0
M  V30 18179 C 1813.37 -3.48657 0.154756 0
M  V30 18180 C 1814.71 -4.24596 0.0185002 0
M  V30 18181 O 1815.74 -3.56103 0.0831904 0
M  V30 18182 O 1814.6 -5.4636 -0.123733 0
M  V30 18183 H 1811.69 -0.825219 -0.0542477 0
M  V30 18184 H 1814.24 -1.57063 0.6426 0
M  V30 18185 H 1813.01 -3.73433 1.16891 0
M  V30 18186 H 1812.63 -3.94001 -0.533724 0
M  V30 18187 N 1813.63 -0.312197 -1.54477 0
M  V30 18188 C 1814.86 0.296061 -2.04771 0
M  V30 18189 C 1815.27 1.46662 -1.18894 0
M  V30 18190 O 1814.63 1.81205 -0.217043 0
M  V30 18191 C 1814.68 0.74151 -3.53813 0
M  V30 18192 O 1814.4 -0.382471 -4.36427 0
M  V30 18193 C 1815.9 1.41376 -4.20152 0
M  V30 18194 H 1813.12 0.062705 -0.668064 0
M  V30 18195 H 1815.67 -0.455083 -1.99372 0
M  V30 18196 H 1813.82 1.44265 -3.59536 0
M  V30 18197 H 1814.23 -0.0336382 -5.24489 0
M  V30 18198 H 1815.71 1.67649 -5.25926 0
M  V30 18199 H 1816.19 2.35743 -3.7057 0
M  V30 18200 H 1816.79 0.755498 -4.18536 0
M  V30 18201 N 1815.11 1.57549 -0.040136 0
M  V30 18202 C 1816.38 1.83571 0.675355 0
M  V30 18203 C 1816.76 0.926313 1.89691 0
M  V30 18204 O 1816.11 -0.0153869 2.28495 0
M  V30 18205 C 1816.32 3.33046 1.04313 0
M  V30 18206 C 1817.67 3.99791 1.43011 0
M  V30 18207 O 1818.69 3.37607 1.13579 0
M  V30 18208 O 1817.55 5.09412 1.97893 0
M  V30 18209 H 1814.65 0.75729 0.332325 0
M  V30 18210 H 1817.19 1.69561 -0.0686584 0
M  V30 18211 H 1815.96 3.90912 0.174189 0
M  V30 18212 H 1815.59 3.52203 1.84495 0
M  V30 18213 N 1816.58 -0.233136 1.55866 0
M  V30 18214 C 1817.83 -0.957324 1.77988 0
M  V30 18215 C 1818.15 -1.85325 0.606593 0
M  V30 18216 O 1817.42 -1.92237 -0.377047 0
M  V30 18217 H 1816 -0.356474 0.656457 0
M  V30 18218 H 1818.67 -0.247774 1.93319 0
M  V30 18219 H 1817.76 -1.57096 2.6968 0
M  V30 18220 N 1818.06 -1.49479 -0.499372 0
M  V30 18221 C 1819.01 -1.62662 -1.59766 0
M  V30 18222 C 1820 -0.482218 -1.53504 0
M  V30 18223 O 1821.19 -0.735252 -1.61006 0
M  V30 18224 C 1818.32 -1.69797 -2.98368 0
M  V30 18225 C 1817.4 -2.8982 -3.09621 0
M  V30 18226 N 1817.8 -4.13876 -2.90758 0
M  V30 18227 C 1816.09 -2.87791 -3.40723 0
M  V30 18228 C 1816.79 -4.94566 -3.06235 0
M  V30 18229 N 1815.77 -4.27963 -3.35184 0
M  V30 18230 H 1819.57 -2.56296 -1.43839 0
M  V30 18231 H 1817.09 -1.46274 -0.705532 0
M  V30 18232 H 1819.08 -1.7734 -3.77301 0
M  V30 18233 H 1817.74 -0.773015 -3.15364 0
M  V30 18234 H 1818.75 -4.43829 -2.669 0
M  V30 18235 H 1815.43 -2.0468 -3.63885 0
M  V30 18236 H 1816.82 -6.03122 -2.9613 0
M  V30 18237 N 1819.54 0.750537 -1.38581 0
M  V30 18238 C 1820.95 1.32802 -1.31227 0
M  V30 18239 C 1821.3 1.96176 0.0305372 0
M  V30 18240 O 1820.43 1.95272 0.932614 0
M  V30 18241 C 1821.02 2.41468 -2.37652 0
M  V30 18242 C 1819.58 2.94929 -2.33867 0
M  V30 18243 C 1818.73 1.68339 -2.20357 0
M  V30 18244 H 1821.68 0.549187 -1.48895 0
M  V30 18245 H 1821.7 3.21481 -2.03544 0
M  V30 18246 H 1821.21 1.95313 -3.35372 0
M  V30 18247 H 1819.31 3.45404 -1.39738 0
M  V30 18248 H 1819.43 3.491 -3.28125 0
M  V30 18249 H 1817.79 1.92082 -1.67262 0
M  V30 18250 H 1818.57 1.24258 -3.20023 0
M  V30 18251 N 1821.02 1.235 0.979051 0
M  V30 18252 C 1822.25 1.09462 1.75572 0
M  V30 18253 C 1822.66 -0.3538 1.85455 0
M  V30 18254 O 1822.02 -1.24467 1.3347 0
M  V30 18255 C 1822.07 1.71562 3.18196 0
M  V30 18256 O 1821.79 3.1074 3.08824 0
M  V30 18257 C 1823.29 1.62984 4.12251 0
M  V30 18258 H 1820.51 0.383013 0.550946 0
M  V30 18259 H 1823.06 1.63378 1.22995 0
M  V30 18260 H 1821.21 1.21676 3.67796 0
M  V30 18261 H 1821.63 3.40888 3.98617 0
M  V30 18262 H 1823.1 2.11135 5.10025 0
M  V30 18263 H 1823.58 0.588907 4.35234 0
M  V30 18264 H 1824.18 2.12242 3.68556 0
M  V30 18265 N 1822.5 -1.17802 1.04693 0
M  V30 18266 C 1823.74 -1.89625 0.762995 0
M  V30 18267 C 1824.1 -1.78906 -0.696901 0
M  V30 18268 O 1825.3 -2.45498 -1.09472 0
M  V30 18269 C 1823.57 -3.35787 1.224 0
M  V30 18270 S 1825.13 -4.25638 1.06667 0
M  V30 18271 H 1821.95 -0.654723 0.277235 0
M  V30 18272 H 1824.55 -1.42304 1.34052 0
M  V30 18273 H 1823.26 -3.41121 2.28176 0
M  V30 18274 H 1822.79 -3.8815 0.640532 0
M  V30 18275 H 1824.8 -4.96199 -0.0121683 0
M  V30 18276 N 1823.98 -0.827251 -1.34143 0
M  V30 18277 C 1825.25 -0.339793 -1.92626 0
M  V30 18278 C 1825.63 1.17342 -1.75482 0
M  V30 18279 O 1824.98 1.98251 -1.13616 0
M  V30 18280 C 1825.19 -0.773891 -3.40312 0
M  V30 18281 C 1826.54 -0.77521 -4.17463 0
M  V30 18282 O 1827.56 -0.716748 -3.48914 0
M  V30 18283 O 1826.42 -0.852347 -5.39812 0
M  V30 18284 H 1823.52 -0.0937486 -0.821669 0
M  V30 18285 H 1826.06 -0.91233 -1.4309 0
M  V30 18286 H 1824.83 -1.81597 -3.46609 0
M  V30 18287 H 1824.46 -0.177287 -3.97205 0
M  V30 18288 N 1825.45 1.46436 -0.582609 0
M  V30 18289 C 1826.42 2.28769 0.140502 0
M  V30 18290 C 1827.42 1.38385 0.818911 0
M  V30 18291 O 1828.61 1.60763 0.670882 0
M  V30 18292 C 1825.74 3.18765 1.20836 0
M  V30 18293 H 1826.93 2.94178 -0.583049 0
M  V30 18294 H 1824.48 1.52544 -0.340575 0
M  V30 18295 H 1825.22 2.58103 1.9635 0
M  V30 18296 H 1825 3.85312 0.726417 0
M  V30 18297 H 1826.49 3.80735 1.71553 0
M  V30 18298 N 1826.93 0.320385 1.54309 0
M  V30 18299 C 1828.17 -0.283775 2.02421 0
M  V30 18300 C 1828.54 -1.49594 1.20357 0
M  V30 18301 O 1829.74 -2.17275 1.58256 0
M  V30 18302 C 1828.01 -0.612699 3.52109 0
M  V30 18303 S 1829.57 -1.19697 4.22159 0
M  V30 18304 H 1826.38 -0.0860212 0.705777 0
M  V30 18305 H 1828.99 0.452768 1.90185 0
M  V30 18306 H 1827.69 0.277697 4.09459 0
M  V30 18307 H 1827.22 -1.37952 3.68419 0
M  V30 18308 H 1829.24 -2.48394 4.29552 0
M  V30 18309 N 1828.41 -1.57525 0.0484906 0
M  V30 18310 C 1829.63 -1.97309 -0.639062 0
M  V30 18311 C 1830.06 -0.925753 -1.63742 0
M  V30 18312 O 1829.42 0.111304 -1.80958 0
M  V30 18313 C 1829.47 -3.36168 -1.30475 0
M  V30 18314 O 1828.57 -3.33903 -2.42038 0
M  V30 18315 H 1827.91 -0.642824 -0.166351 0
M  V30 18316 H 1830.44 -2.0427 0.116095 0
M  V30 18317 H 1830.45 -3.72835 -1.65705 0
M  V30 18318 H 1829.13 -4.11933 -0.573057 0
M  V30 18319 H 1827.7 -3.08978 -2.08775 0
M  V30 18320 N 1829.89 0.224867 -1.55988 0
M  V30 18321 C 1831.3 0.792138 -1.69062 0
M  V30 18322 C 1831.65 1.85123 -0.649908 0
M  V30 18323 O 1830.77 2.15477 0.199614 0
M  V30 18324 C 1831.37 1.44361 -3.06505 0
M  V30 18325 C 1829.93 1.95831 -3.21446 0
M  V30 18326 C 1829.08 0.81728 -2.64983 0
M  V30 18327 H 1832.03 0.000270833 -1.587 0
M  V30 18328 H 1832.05 2.31233 -3.02178 0
M  V30 18329 H 1831.56 0.672544 -3.82228 0
M  V30 18330 H 1829.66 2.75749 -2.50586 0
M  V30 18331 H 1829.77 2.14056 -4.28622 0
M  V30 18332 H 1828.14 1.22371 -2.23377 0
M  V30 18333 H 1828.92 0.058944 -3.43249 0
M  V30 18334 N 1831.37 1.49742 0.491438 0
M  V30 18335 C 1832.61 1.59395 1.24248 0
M  V30 18336 C 1832.93 0.286934 1.92877 0
M  V30 18337 O 1832.2 -0.694353 1.83182 0
M  V30 18338 H 1830.78 0.587313 0.461598 0
M  V30 18339 H 1833.45 1.86417 0.56873 0
M  V30 18340 H 1832.54 2.39487 2.00131 0
M  V30 18341 N 1832.84 -0.743177 1.38977 0
M  V30 18342 C 1833.79 -1.84801 1.33539 0
M  V30 18343 C 1834.78 -1.5942 0.217733 0
M  V30 18344 O 1835.97 -1.71063 0.454585 0
M  V30 18345 C 1833.1 -3.22635 1.1731 0
M  V30 18346 C 1832.19 -3.53872 2.33741 0
M  V30 18347 N 1832.58 -3.56099 3.59204 0
M  V30 18348 C 1830.87 -3.84193 2.26521 0
M  V30 18349 C 1831.58 -3.849 4.3615 0
M  V30 18350 N 1830.55 -4.02259 3.65634 0
M  V30 18351 H 1834.35 -1.84816 2.28518 0
M  V30 18352 H 1831.87 -0.941033 1.32357 0
M  V30 18353 H 1833.86 -4.01714 1.11497 0
M  V30 18354 H 1832.52 -3.23865 0.232735 0
M  V30 18355 H 1833.54 -3.37607 3.92736 0
M  V30 18356 H 1830.21 -3.93077 1.40701 0
M  V30 18357 H 1831.6 -3.93158 5.44863 0
M  V30 18358 N 1834.32 -1.24018 -0.972487 0
M  V30 18359 C 1835.55 -1.10483 -1.75523 0
M  V30 18360 C 1835.97 0.338985 -1.8502 0
M  V30 18361 O 1835.33 1.24534 -1.31761 0
M  V30 18362 C 1835.38 -1.74396 -3.15624 0
M  V30 18363 O 1834.48 -1.01148 -3.99804 0
M  V30 18364 H 1833.82 -0.386777 -0.539722 0
M  V30 18365 H 1836.35 -1.64231 -1.22022 0
M  V30 18366 H 1836.36 -1.79958 -3.66168 0
M  V30 18367 H 1835.04 -2.7945 -3.08026 0
M  V30 18368 H 1833.62 -1.03338 -3.58296 0
M  V30 18369 N 1835.8 1.17245 -1.05316 0
M  V30 18370 C 1837.05 1.87165 -0.762471 0
M  V30 18371 C 1837.37 1.8151 0.712687 0
M  V30 18372 O 1836.64 1.2419 1.51504 0
M  V30 18373 H 1835.22 0.69292 -0.279054 0
M  V30 18374 H 1837.88 1.42227 -1.33257 0
M  V30 18375 H 1836.98 2.92872 -1.07854 0
M  V30 18376 N 1837.28 0.834353 1.33702 0
M  V30 18377 C 1838.69 0.52156 1.50837 0
M  V30 18378 C 1838.89 -0.95203 1.77591 0
M  V30 18379 O 1837.95 -1.73603 1.83353 0
M  V30 18380 C 1839.26 1.39099 2.66593 0
M  V30 18381 C 1840.81 1.3893 2.80477 0
M  V30 18382 C 1841.29 2.24347 3.9929 0
M  V30 18383 N 1842.78 2.22032 4.06517 0
M  V30 18384 C 1843.51 2.84865 4.97634 0
M  V30 18385 N 1843.01 3.56732 5.93897 0
M  V30 18386 N 1844.8 2.74359 4.90595 0
M  V30 18387 H 1836.95 1.78832 1.14598 0
M  V30 18388 H 1839.22 0.762708 0.563011 0
M  V30 18389 H 1838.92 2.43795 2.53489 0
M  V30 18390 H 1838.8 1.06381 3.61888 0
M  V30 18391 H 1841.18 0.350069 2.93016 0
M  V30 18392 H 1841.26 1.75652 1.85957 0
M  V30 18393 H 1840.91 3.28326 3.8751 0
M  V30 18394 H 1840.84 1.84969 4.93046 0
M  V30 18395 H 1843.33 1.69765 3.37621 0
M  V30 18396 H 1843.64 4.01893 6.60077 0
M  V30 18397 H 1841.99 3.6084 5.93986 0
M  V30 18398 H 1845.18 2.17779 4.14355 0
M  V30 18399 H 1845.35 3.23612 5.61408 0
M  V30 18400 N 1838.76 -1.46125 0.590367 0
M  V30 18401 C 1839.71 -2.27441 -0.159552 0
M  V30 18402 C 1840.69 -1.3632 -0.854728 0
M  V30 18403 O 1841.88 -1.60439 -0.74756 0
M  V30 18404 C 1839.01 -3.22834 -1.16761 0
M  V30 18405 C 1838.1 -4.21441 -0.474153 0
M  V30 18406 N 1838.49 -5.03569 0.474569 0
M  V30 18407 C 1836.79 -4.40086 -0.723925 0
M  V30 18408 C 1837.49 -5.74996 0.880574 0
M  V30 18409 N 1836.46 -5.43121 0.228047 0
M  V30 18410 H 1840.27 -2.88332 0.569375 0
M  V30 18411 H 1837.78 -1.57068 0.412732 0
M  V30 18412 H 1839.78 -3.79806 -1.7191 0
M  V30 18413 H 1838.44 -2.63503 -1.89727 0
M  V30 18414 H 1839.45 -5.10869 0.850477 0
M  V30 18415 H 1836.12 -3.91896 -1.43958 0
M  V30 18416 H 1837.51 -6.51018 1.66207 0
M  V30 18417 N 1840.23 -0.328564 -1.54137 0
M  V30 18418 C 1841.47 0.273037 -2.02568 0
M  V30 18419 C 1841.84 1.48953 -1.21148 0
M  V30 18420 O 1843.04 2.16433 -1.59406 0
M  V30 18421 C 1841.31 0.594017 -3.52429 0
M  V30 18422 S 1842.87 1.17456 -4.22788 0
M  V30 18423 H 1839.69 0.0822771 -0.706223 0
M  V30 18424 H 1842.29 -0.462847 -1.89942 0
M  V30 18425 H 1840.99 -0.299408 -4.09306 0
M  V30 18426 H 1840.52 1.35997 -3.69146 0
M  V30 18427 H 1842.54 2.46113 -4.30863 0
M  V30 18428 N 1841.71 1.57497 -0.0568439 0
M  V30 18429 C 1842.62 2.1535 0.930668 0
M  V30 18430 C 1843.64 1.11276 1.33767 0
M  V30 18431 O 1844.81 1.43472 1.41343 0
M  V30 18432 C 1841.88 2.69165 2.18521 0
M  V30 18433 C 1840.94 3.88057 1.83603 0
M  V30 18434 C 1840.17 4.39296 3.03076 0
M  V30 18435 O 1840.4 3.89588 4.16627 0
M  V30 18436 O 1839.33 5.30814 2.8376 0
M  V30 18437 H 1843.16 3.00063 0.468623 0
M  V30 18438 H 1840.74 1.48482 0.16538 0
M  V30 18439 H 1842.62 3.03721 2.92116 0
M  V30 18440 H 1841.3 1.8752 2.63852 0
M  V30 18441 H 1840.21 3.5838 1.07306 0
M  V30 18442 H 1841.54 4.70949 1.43066 0
M  V30 18443 N 1843.19 -0.216591 1.56105 0
M  V30 18444 C 1844.61 -0.56651 1.49207 0
M  V30 18445 C 1844.81 -1.86906 0.752882 0
M  V30 18446 O 1843.86 -2.50776 0.294573 0
M  V30 18447 C 1845.18 -0.641146 2.93785 0
M  V30 18448 C 1846.72 -0.731439 3.04334 0
M  V30 18449 C 1847.2 -0.837376 4.5028 0
M  V30 18450 N 1848.69 -0.901468 4.54343 0
M  V30 18451 C 1849.42 -1.00323 5.64555 0
M  V30 18452 N 1848.92 -1.06864 6.84509 0
M  V30 18453 N 1850.71 -1.03876 5.52419 0
M  V30 18454 H 1842.86 0.638091 2.02589 0
M  V30 18455 H 1845.13 0.224543 0.921024 0
M  V30 18456 H 1844.83 0.246454 3.50835 0
M  V30 18457 H 1844.71 -1.5031 3.45958 0
M  V30 18458 H 1847.09 -1.60948 2.47346 0
M  V30 18459 H 1847.18 0.15628 2.55322 0
M  V30 18460 H 1846.82 0.0362262 5.07887 0
M  V30 18461 H 1846.75 -1.74058 4.97002 0
M  V30 18462 H 1849.24 -0.861039 3.6796 0
M  V30 18463 H 1849.55 -1.1462 7.64253 0
M  V30 18464 H 1847.9 -1.03768 6.8721 0
M  V30 18465 H 1851.09 -0.984348 4.57633 0
M  V30 18466 H 1851.26 -1.11461 6.38342 0
M  V30 18467 N 1844.67 -1.5 -0.48349 0
M  V30 18468 C 1845.91 -1.61998 -1.24644 0
M  V30 18469 C 1846.27 -0.307758 -1.89517 0
M  V30 18470 O 1847.47 -0.303059 -2.67086 0
M  V30 18471 C 1845.74 -2.75914 -2.27171 0
M  V30 18472 S 1847.3 -3.0797 -3.1257 0
M  V30 18473 H 1844.12 -0.571218 -0.423357 0
M  V30 18474 H 1846.72 -1.87734 -0.545555 0
M  V30 18475 H 1845.43 -3.69755 -1.7807 0
M  V30 18476 H 1844.96 -2.52225 -3.01904 0
M  V30 18477 H 1846.97 -2.50839 -4.28129 0
M  V30 18478 N 1846.15 0.735796 -1.39369 0
M  V30 18479 C 1847.11 1.83148 -1.37802 0
M  V30 18480 C 1848.11 1.58426 -0.27528 0
M  V30 18481 O 1849.3 1.65841 -0.53314 0
M  V30 18482 C 1846.43 3.20923 -1.14984 0
M  V30 18483 H 1847.62 1.85941 -2.353 0
M  V30 18484 H 1845.18 0.939367 -1.24922 0
M  V30 18485 H 1845.91 3.23791 -0.181648 0
M  V30 18486 H 1845.7 3.40264 -1.94841 0
M  V30 18487 H 1847.19 4.00984 -1.16626 0
M  V30 18488 N 1847.63 1.24532 0.965897 0
M  V30 18489 C 1849.04 1.07886 1.52373 0
M  V30 18490 C 1849.39 -0.349136 1.93069 0
M  V30 18491 O 1848.51 -1.23774 1.77508 0
M  V30 18492 C 1849.11 1.95224 2.76899 0
M  V30 18493 C 1847.67 1.82796 3.29033 0
M  V30 18494 C 1846.81 1.9005 2.01931 0
M  V30 18495 H 1849.76 1.37982 0.783997 0
M  V30 18496 H 1849.79 1.48558 3.50301 0
M  V30 18497 H 1849.3 2.99148 2.47249 0
M  V30 18498 H 1847.4 0.817115 3.6353 0
M  V30 18499 H 1847.51 2.66989 3.97811 0
M  V30 18500 H 1845.88 1.338 2.16725 0
M  V30 18501 H 1846.66 2.95558 1.74644 0
M  V30 18502 N 1849.1 -1.16685 1.05936 0
M  V30 18503 C 1850.35 -1.86758 0.772386 0
M  V30 18504 C 1850.67 -1.81885 -0.703051 0
M  V30 18505 O 1849.94 -1.24992 -1.50844 0
M  V30 18506 H 1848.52 -0.69143 0.282725 0
M  V30 18507 H 1851.18 -1.41518 1.3401 0
M  V30 18508 H 1850.28 -2.92296 1.09405 0
M  V30 18509 N 1850.58 -0.841432 -1.33258 0
M  V30 18510 C 1851.81 -0.451287 -2.01611 0
M  V30 18511 C 1852.22 0.952858 -1.63454 0
M  V30 18512 O 1851.56 1.6311 -0.845039 0
M  V30 18513 C 1851.62 -0.495287 -3.56072 0
M  V30 18514 C 1851.29 -1.856 -4.17614 0
M  V30 18515 C 1852.29 -2.81959 -4.36801 0
M  V30 18516 C 1849.97 -2.14953 -4.53983 0
M  V30 18517 C 1851.96 -4.05832 -4.91507 0
M  V30 18518 C 1849.65 -3.39083 -5.08395 0
M  V30 18519 C 1850.65 -4.34339 -5.27104 0
M  V30 18520 O 1850.34 -5.56273 -5.80359 0
M  V30 18521 H 1850.07 -0.177188 -0.652365 0
M  V30 18522 H 1852.62 -1.13629 -1.71107 0
M  V30 18523 H 1850.85 0.246506 -3.85914 0
M  V30 18524 H 1852.54 -0.122606 -4.05715 0
M  V30 18525 H 1853.31 -2.60582 -4.0905 0
M  V30 18526 H 1849.19 -1.41602 -4.38714 0
M  V30 18527 H 1852.73 -4.80192 -5.06025 0
M  V30 18528 H 1848.63 -3.60316 -5.35577 0
M  V30 18529 H 1849.4 -5.58047 -5.9877 0
M  V30 18530 N 1852.06 1.4581 -0.598108 0
M  V30 18531 C 1853.29 2.06379 -0.0955533 0
M  V30 18532 C 1853.7 1.44497 1.22137 0
M  V30 18533 O 1853.04 0.549997 1.75273 0
M  V30 18534 C 1853.1 3.59271 0.128433 0
M  V30 18535 C 1852.77 4.43434 -1.10523 0
M  V30 18536 C 1853.76 4.79008 -2.02107 0
M  V30 18537 C 1851.45 4.84334 -1.3314 0
M  V30 18538 C 1853.44 5.54326 -3.14644 0
M  V30 18539 C 1851.13 5.59408 -2.45979 0
M  V30 18540 C 1852.13 5.9432 -3.3656 0
M  V30 18541 O 1851.82 6.67874 -4.47437 0
M  V30 18542 H 1851.55 0.673187 -0.0616108 0
M  V30 18543 H 1854.1 1.88191 -0.823012 0
M  V30 18544 H 1852.33 3.75824 0.910679 0
M  V30 18545 H 1854.02 4.01714 0.581406 0
M  V30 18546 H 1854.79 4.47976 -1.85856 0
M  V30 18547 H 1850.67 4.566 -0.635381 0
M  V30 18548 H 1854.21 5.81495 -3.8537 0
M  V30 18549 H 1850.11 5.89854 -2.62187 0
M  V30 18550 H 1850.87 6.86314 -4.45999 0
M  V30 18551 N 1853.54 0.336733 1.53961 0
M  V30 18552 C 1854.79 -0.261343 2.00403 0
M  V30 18553 C 1855.11 -1.51612 1.22633 0
M  V30 18554 O 1854.38 -1.93072 0.331659 0
M  V30 18555 H 1852.96 -0.0995594 0.740336 0
M  V30 18556 H 1855.62 0.456319 1.89483 0
M  V30 18557 H 1854.71 -0.508557 3.07929 0
M  V30 18558 N 1855.02 -1.57465 0.0651956 0
M  V30 18559 C 1855.96 -2.13542 -0.922087 0
M  V30 18560 C 1856.96 -1.07067 -1.31275 0
M  V30 18561 O 1858.16 -1.25456 -1.29076 0
M  V30 18562 H 1854.54 -0.682718 -0.315277 0
M  V30 18563 H 1856.51 -2.9537 -0.424138 0
M  V30 18564 C 1855.26 -2.70663 -2.18258 0
M  V30 18565 H 1854.58 -3.52262 -1.8908 0
M  V30 18566 H 1856.02 -3.13505 -2.85466 0
M  V30 18567 C 1854.48 -1.65106 -2.93669 0
M  V30 18568 O 1855.01 -1.07214 -3.87128 0
M  V30 18569 N 1853.22 -1.36296 -2.56655 0
M  V30 18570 H 1852.76 -1.83562 -1.80728 0
M  V30 18571 H 1852.72 -0.659013 -3.07416 0
M  V30 18572 N 1856.49 0.20831 -1.56217 0
M  V30 18573 C 1857.9 0.774162 -1.69893 0
M  V30 18574 C 1858.26 1.84424 -0.669506 0
M  V30 18575 O 1857.38 2.15677 0.176748 0
M  V30 18576 C 1857.98 1.41102 -3.08019 0
M  V30 18577 C 1856.53 1.9241 -3.23505 0
M  V30 18578 C 1855.68 0.789129 -2.65835 0
M  V30 18579 H 1858.63 -0.0165614 -1.58691 0
M  V30 18580 H 1858.65 2.28015 -3.04614 0
M  V30 18581 H 1858.17 0.631966 -3.8292 0
M  V30 18582 H 1856.27 2.73076 -2.53496 0
M  V30 18583 H 1856.38 2.09497 -4.30868 0
M  V30 18584 H 1854.74 1.19995 -2.24663 0
M  V30 18585 H 1855.53 0.0225345 -3.43293 0
M  V30 18586 N 1857.97 1.50255 0.475528 0
M  V30 18587 C 1859.2 1.65044 1.25599 0
M  V30 18588 C 1859.62 0.331736 1.85152 0
M  V30 18589 O 1858.98 -0.703863 1.67079 0
M  V30 18590 C 1859.03 2.7405 2.34369 0
M  V30 18591 O 1858.13 2.34994 3.38897 0
M  V30 18592 H 1857.47 0.551557 0.369704 0
M  V30 18593 H 1860 1.96603 0.566422 0
M  V30 18594 H 1860.01 2.96993 2.79749 0
M  V30 18595 H 1858.69 3.6976 1.90395 0
M  V30 18596 H 1857.26 2.22481 2.9926 0
M  V30 18597 N 1859.45 -0.728395 1.39758 0
M  V30 18598 C 1860.38 -1.85288 1.34911 0
M  V30 18599 C 1861.39 -1.60763 0.25671 0
M  V30 18600 O 1862.58 -1.70875 0.516143 0
M  V30 18601 C 1859.68 -3.21445 1.07361 0
M  V30 18602 C 1858.86 -3.73272 2.28006 0
M  V30 18603 C 1857.92 -4.88008 1.96812 0
M  V30 18604 O 1856.94 -5.01325 2.69559 0
M  V30 18605 N 1858.14 -5.72867 0.938278 0
M  V30 18606 H 1860.91 -1.89949 2.31818 0
M  V30 18607 H 1858.47 -0.909409 1.33945 0
M  V30 18608 H 1860.46 -3.9578 0.845002 0
M  V30 18609 H 1859.03 -3.12012 0.191644 0
M  V30 18610 H 1858.25 -2.90214 2.66777 0
M  V30 18611 H 1859.54 -4.04633 3.08463 0
M  V30 18612 H 1858.94 -5.64704 0.335517 0
M  V30 18613 H 1857.49 -6.47241 0.769572 0
M  V30 18614 N 1860.93 -1.25042 -0.959279 0
M  V30 18615 C 1862.18 -1.09298 -1.69995 0
M  V30 18616 C 1862.5 0.367507 -1.91506 0
M  V30 18617 O 1861.77 1.26142 -1.49883 0
M  V30 18618 H 1860.35 -0.401469 -0.629945 0
M  V30 18619 H 1863.01 -1.57094 -1.15358 0
M  V30 18620 H 1862.1 -1.59766 -2.68107 0
M  V30 18621 N 1862.41 1.16121 -1.06553 0
M  V30 18622 C 1863.34 2.20181 -0.636617 0
M  V30 18623 C 1864.35 1.59884 0.306731 0
M  V30 18624 O 1865.54 1.78235 0.0973101 0
M  V30 18625 C 1862.64 3.38789 0.0865541 0
M  V30 18626 C 1861.81 4.28641 -0.870941 0
M  V30 18627 C 1860.87 5.25869 -0.186538 0
M  V30 18628 O 1859.9 5.63189 -0.825028 0
M  V30 18629 N 1861.1 5.70536 1.0709 0
M  V30 18630 H 1863.87 2.576 -1.53175 0
M  V30 18631 H 1861.43 1.31157 -0.949185 0
M  V30 18632 H 1863.42 4.00878 0.554881 0
M  V30 18633 H 1861.99 2.99854 0.883524 0
M  V30 18634 H 1861.21 3.63776 -1.51858 0
M  V30 18635 H 1862.5 4.85552 -1.5204 0
M  V30 18636 H 1861.89 5.42314 1.60973 0
M  V30 18637 H 1860.45 6.34704 1.48305 0
M  V30 18638 N 1863.88 0.848487 1.3281 0
M  V30 18639 C 1865.3 0.504307 1.7976 0
M  V30 18640 C 1865.65 -0.977408 1.70121 0
M  V30 18641 O 1864.77 -1.7621 1.25614 0
M  V30 18642 C 1865.37 0.908628 3.26388 0
M  V30 18643 C 1863.93 0.616441 3.71318 0
M  V30 18644 C 1863.07 1.11173 2.54039 0
M  V30 18645 H 1866.02 1.03628 1.20195 0
M  V30 18646 H 1866.04 0.222518 3.79849 0
M  V30 18647 H 1865.56 1.98708 3.33372 0
M  V30 18648 H 1863.66 -0.451545 3.69854 0
M  V30 18649 H 1863.77 1.17841 4.64382 0
M  V30 18650 H 1862.13 0.532227 2.49077 0
M  V30 18651 H 1862.92 2.19716 2.6378 0
M  V30 18652 N 1865.36 -1.4549 0.605832 0
M  V30 18653 C 1866.6 -2.04139 0.103321 0
M  V30 18654 C 1866.97 -1.46425 -1.24193 0
M  V30 18655 O 1868.17 -1.96416 -1.83506 0
M  V30 18656 C 1866.44 -3.57345 0.0627925 0
M  V30 18657 S 1868 -4.37162 -0.378782 0
M  V30 18658 H 1864.82 -0.709329 0.0487152 0
M  V30 18659 H 1867.42 -1.78223 0.80354 0
M  V30 18660 H 1866.12 -3.96862 1.04542 0
M  V30 18661 H 1865.65 -3.87833 -0.659475 0
M  V30 18662 H 1867.67 -4.68709 -1.62868 0
M  V30 18663 N 1866.84 -0.344893 -1.5378 0
M  V30 18664 C 1867.77 0.545646 -2.2261 0
M  V30 18665 C 1868.79 1.06288 -1.23315 0
M  V30 18666 O 1869.97 0.972802 -1.49662 0
M  V30 18667 C 1867.07 1.76379 -2.89385 0
M  V30 18668 C 1866.25 1.38162 -4.15006 0
M  V30 18669 C 1865.31 2.45958 -4.65179 0
M  V30 18670 O 1864.33 2.0921 -5.29358 0
M  V30 18671 N 1865.53 3.77232 -4.41221 0
M  V30 18672 H 1868.3 -0.043834 -2.99668 0
M  V30 18673 H 1865.86 -0.169081 -1.61015 0
M  V30 18674 H 1867.85 2.47928 -3.19865 0
M  V30 18675 H 1866.42 2.26061 -2.15905 0
M  V30 18676 H 1865.64 0.496839 -3.91056 0
M  V30 18677 H 1866.93 1.10227 -4.96717 0
M  V30 18678 H 1866.33 4.09875 -3.89896 0
M  V30 18679 H 1864.89 4.44947 -4.76304 0
M  V30 18680 N 1868.32 1.57428 -0.0735454 0
M  V30 18681 C 1869.73 1.57069 0.283088 0
M  V30 18682 C 1869.93 1.08308 1.69917 0
M  V30 18683 O 1868.99 0.749756 2.41112 0
M  V30 18684 C 1870.3 3.00562 0.0911498 0
M  V30 18685 C 1871.85 3.12588 0.160552 0
M  V30 18686 C 1872.33 4.58 -0.00312732 0
M  V30 18687 N 1873.82 4.6317 0.0524201 0
M  V30 18688 C 1874.55 5.73378 -0.0497867 0
M  V30 18689 N 1874.05 6.92495 -0.205612 0
M  V30 18690 N 1875.84 5.621 0.00740387 0
M  V30 18691 H 1867.99 1.87439 -0.999015 0
M  V30 18692 H 1870.26 0.864179 -0.389742 0
M  V30 18693 H 1869.96 3.40355 -0.886068 0
M  V30 18694 H 1869.84 3.67666 0.842723 0
M  V30 18695 H 1872.22 2.7268 1.12826 0
M  V30 18696 H 1872.3 2.48119 -0.622153 0
M  V30 18697 H 1871.95 4.98598 -0.967606 0
M  V30 18698 H 1871.88 5.20503 0.799004 0
M  V30 18699 H 1874.37 3.77512 0.171195 0
M  V30 18700 H 1874.68 7.72308 -0.275698 0
M  V30 18701 H 1873.03 6.94582 -0.240997 0
M  V30 18702 H 1876.22 4.67925 0.127856 0
M  V30 18703 H 1876.39 6.47956 -0.075703 0
M  V30 18704 N 1869.8 -0.200022 1.56326 0
M  V30 18705 C 1871.07 -0.946774 1.71159 0
M  V30 18706 C 1871.45 -2.01576 0.626939 0
M  V30 18707 O 1870.8 -2.25601 -0.362834 0
M  V30 18708 C 1871.01 -1.53767 3.13299 0
M  V30 18709 C 1872.36 -2.02169 3.7338 0
M  V30 18710 O 1873.38 -1.6362 3.16397 0
M  V30 18711 O 1872.24 -2.7309 4.73375 0
M  V30 18712 H 1869.34 -0.443669 0.697916 0
M  V30 18713 H 1871.88 -0.190107 1.68632 0
M  V30 18714 H 1870.65 -0.766886 3.83712 0
M  V30 18715 H 1870.28 -2.35931 3.20035 0
M  V30 18716 N 1871.27 -1.50505 -0.467553 0
M  V30 18717 C 1872.5 -1.65708 -1.24722 0
M  V30 18718 C 1872.92 -0.34155 -1.84973 0
M  V30 18719 O 1872.28 0.694993 -1.6745 0
M  V30 18720 C 1872.33 -2.75289 -2.32912 0
M  V30 18721 O 1871.43 -2.36788 -3.37646 0
M  V30 18722 H 1870.78 -0.55351 -0.366774 0
M  V30 18723 H 1873.31 -1.96901 -0.555988 0
M  V30 18724 H 1873.32 -2.98472 -2.7817 0
M  V30 18725 H 1871.99 -3.70765 -1.88431 0
M  V30 18726 H 1870.57 -2.24065 -2.98076 0
M  V30 18727 N 1872.75 0.720973 -1.40142 0
M  V30 18728 C 1873.68 1.8457 -1.35891 0
M  V30 18729 C 1874.7 1.60625 -0.265232 0
M  V30 18730 O 1875.89 1.70599 -0.525198 0
M  V30 18731 C 1872.99 3.20871 -1.09064 0
M  V30 18732 C 1872.16 3.72058 -2.29982 0
M  V30 18733 C 1871.22 4.86957 -1.99397 0
M  V30 18734 O 1870.24 4.99888 -2.72213 0
M  V30 18735 N 1871.45 5.72361 -0.968645 0
M  V30 18736 H 1874.21 1.88717 -2.32822 0
M  V30 18737 H 1871.77 0.902293 -1.34426 0
M  V30 18738 H 1873.76 3.95326 -0.865979 0
M  V30 18739 H 1872.33 3.11906 -0.208188 0
M  V30 18740 H 1871.55 2.88795 -2.68312 0
M  V30 18741 H 1872.84 4.02991 -3.10605 0
M  V30 18742 H 1872.24 5.64518 -0.36546 0
M  V30 18743 H 1870.8 6.46824 -0.803886 0
M  V30 18744 N 1874.23 1.25549 0.952634 0
M  V30 18745 C 1875.48 1.1058 1.7 0
M  V30 18746 C 1875.81 -0.35206 1.90982 0
M  V30 18747 O 1875.08 -1.25938 1.48222 0
M  V30 18748 C 1875.37 1.86283 3.08173 0
M  V30 18749 C 1875.22 3.39909 2.94588 0
M  V30 18750 C 1876.54 1.64755 4.08098 0
M  V30 18751 H 1873.66 0.403095 0.616996 0
M  V30 18752 H 1876.3 1.54406 1.1072 0
M  V30 18753 H 1874.45 1.49033 3.58778 0
M  V30 18754 H 1876.12 3.86845 2.51294 0
M  V30 18755 H 1874.37 3.67518 2.30462 0
M  V30 18756 H 1875.04 3.88094 3.92539 0
M  V30 18757 H 1877.51 1.97186 3.66411 0
M  V30 18758 H 1876.39 2.20157 5.02814 0
M  V30 18759 H 1876.65 0.589348 4.38154 0
M  V30 18760 N 1875.71 -1.15554 1.07168 0
M  V30 18761 C 1877.12 -1.67889 0.816719 0
M  V30 18762 C 1877.47 -1.84821 -0.658442 0
M  V30 18763 O 1876.6 -1.55018 -1.50991 0
M  V30 18764 C 1877.19 -3.04959 1.47598 0
M  V30 18765 C 1875.75 -3.54378 1.26858 0
M  V30 18766 C 1874.9 -2.30148 1.54684 0
M  V30 18767 H 1877.85 -0.997938 1.23397 0
M  V30 18768 H 1877.87 -3.69796 0.89618 0
M  V30 18769 H 1877.38 -2.92603 2.54961 0
M  V30 18770 H 1875.48 -3.71979 0.215097 0
M  V30 18771 H 1875.59 -4.35932 1.98747 0
M  V30 18772 H 1873.96 -2.35597 0.967776 0
M  V30 18773 H 1874.74 -2.20381 2.63225 0
M  V30 18774 N 1877.19 -0.855519 -1.32358 0
M  V30 18775 C 1878.44 -0.458415 -1.96832 0
M  V30 18776 C 1878.76 0.98946 -1.68032 0
M  V30 18777 O 1878.03 1.69161 -0.987995 0
M  V30 18778 H 1876.61 -0.166527 -0.728202 0
M  V30 18779 H 1879.27 -1.09214 -1.61426 0
M  V30 18780 H 1878.36 -0.604185 -3.06196 0
M  V30 18781 N 1878.67 1.45167 -0.61354 0
M  V30 18782 C 1880.08 1.85674 -0.19544 0
M  V30 18783 C 1880.43 1.51303 1.24908 0
M  V30 18784 O 1879.55 0.94257 1.94794 0
M  V30 18785 C 1880.15 3.37009 -0.347921 0
M  V30 18786 C 1878.71 3.76397 0.0155323 0
M  V30 18787 C 1877.85 2.69095 -0.669578 0
M  V30 18788 H 1880.8 1.35883 -0.819842 0
M  V30 18789 H 1880.83 3.78195 0.418185 0
M  V30 18790 H 1880.34 3.61994 -1.39935 0
M  V30 18791 H 1878.44 3.57028 1.06591 0
M  V30 18792 H 1878.55 4.77573 -0.382267 0
M  V30 18793 H 1876.92 2.54477 -0.10662 0
M  V30 18794 H 1877.7 2.96915 -1.72326 0
M  V30 18795 N 1880.14 0.353044 1.53595 0
M  V30 18796 C 1881.39 -0.2416 2.00248 0
M  V30 18797 C 1881.71 -1.5089 1.24465 0
M  V30 18798 O 1882.91 -2.18137 1.61643 0
M  V30 18799 C 1881.37 -0.481075 3.5667 0
M  V30 18800 C 1880.98 0.77087 4.41318 0
M  V30 18801 C 1882.72 -1.03406 4.11713 0
M  V30 18802 C 1880.63 0.501671 5.89268 0
M  V30 18803 H 1879.56 -0.0940573 0.74811 0
M  V30 18804 H 1882.21 0.469845 1.77383 0
M  V30 18805 H 1880.59 -1.25346 3.75639 0
M  V30 18806 H 1881.76 1.54509 4.34124 0
M  V30 18807 H 1880.08 1.24617 3.97315 0
M  V30 18808 H 1882.68 -1.25058 5.1987 0
M  V30 18809 H 1883.02 -1.99245 3.65523 0
M  V30 18810 H 1883.55 -0.322144 3.96493 0
M  V30 18811 H 1880.29 1.43005 6.39711 0
M  V30 18812 H 1879.81 -0.234284 5.99342 0
M  V30 18813 H 1881.49 0.122468 6.46884 0
M  V30 18814 N 1881.62 -1.57387 0.0818932 0
M  V30 18815 C 1882.87 -1.93486 -0.583744 0
M  V30 18816 C 1883.19 -0.963466 -1.69536 0
M  V30 18817 O 1882.46 -0.0132866 -1.95895 0
M  V30 18818 H 1881.04 -0.714292 -0.218622 0
M  V30 18819 H 1883.7 -1.94381 0.142124 0
M  V30 18820 H 1882.8 -2.9556 -1.00252 0
M  V30 18821 N 1883.1 0.191729 -1.56429 0
M  V30 18822 C 1884.34 0.918325 -1.82609 0
M  V30 18823 C 1884.7 1.80304 -0.659876 0
M  V30 18824 O 1885.9 2.56568 -0.801645 0
M  V30 18825 C 1884.18 1.7102 -3.13826 0
M  V30 18826 S 1885.73 2.48835 -3.61423 0
M  V30 18827 H 1882.55 0.307952 -0.640848 0
M  V30 18828 H 1885.15 0.18147 -1.94656 0
M  V30 18829 H 1883.86 1.05092 -3.96716 0
M  V30 18830 H 1883.39 2.48881 -3.04667 0
M  V30 18831 H 1885.4 3.73099 -3.27127 0
M  V30 18832 N 1884.58 1.50751 0.459565 0
M  V30 18833 C 1885.53 1.70997 1.57679 0
M  V30 18834 C 1886.52 0.575925 1.59309 0
M  V30 18835 O 1887.73 0.756735 1.6332 0
M  V30 18836 H 1884.1 0.539921 0.52344 0
M  V30 18837 H 1886.07 2.64693 1.37769 0
M  V30 18838 C 1884.82 1.83187 2.9553 0
M  V30 18839 H 1884.14 2.69844 2.94998 0
M  V30 18840 H 1885.58 2.01374 3.73128 0
M  V30 18841 C 1884.04 0.586222 3.31761 0
M  V30 18842 O 1884.57 -0.269358 4.00796 0
M  V30 18843 N 1882.78 0.436839 2.87298 0
M  V30 18844 H 1882.33 1.13413 2.31291 0
M  V30 18845 H 1882.28 -0.395424 3.11903 0
M  V30 18846 N 1886.06 -0.713531 1.40522 0
M  V30 18847 C 1887.3 -1.48585 1.40363 0
M  V30 18848 C 1887.66 -1.91999 0.00566667 0
M  V30 18849 O 1888.86 -2.68527 -0.12105 0
M  V30 18850 C 1887.13 -2.67762 2.36724 0
M  V30 18851 S 1888.69 -3.57142 2.54941 0
M  V30 18852 H 1885.51 -0.507978 0.497473 0
M  V30 18853 H 1888.11 -0.834206 1.76809 0
M  V30 18854 H 1886.81 -2.34042 3.37124 0
M  V30 18855 H 1886.35 -3.37836 2.01569 0
M  V30 18856 H 1888.36 -4.6227 1.80336 0
M  V30 18857 N 1887.53 -1.26053 -0.945962 0
M  V30 18858 C 1888.81 -1.02072 -1.66855 0
M  V30 18859 C 1889.19 0.45036 -2.0624 0
M  V30 18860 O 1888.54 1.42966 -1.7825 0
M  V30 18861 C 1888.75 -1.96486 -2.88434 0
M  V30 18862 C 1890.1 -2.24825 -3.60193 0
M  V30 18863 O 1891.12 -1.94314 -2.98531 0
M  V30 18864 O 1889.98 -2.76749 -4.71245 0
M  V30 18865 H 1887.07 -0.387753 -0.730463 0
M  V30 18866 H 1889.62 -1.37243 -0.998117 0
M  V30 18867 H 1888.39 -2.95779 -2.56185 0
M  V30 18868 H 1888.01 -1.61765 -3.63205 0
M  V30 18869 N 1889.01 1.14984 -1.07779 0
M  V30 18870 C 1890.42 1.67453 -0.825611 0
M  V30 18871 C 1890.77 1.85168 0.648631 0
M  V30 18872 O 1889.9 1.55817 1.50167 0
M  V30 18873 C 1890.49 3.04172 -1.49214 0
M  V30 18874 C 1889.05 3.53701 -1.28736 0
M  V30 18875 C 1888.2 2.29324 -1.55903 0
M  V30 18876 H 1891.15 0.99138 -1.23925 0
M  V30 18877 H 1891.17 3.69315 -0.915779 0
M  V30 18878 H 1890.68 2.91247 -2.56509 0
M  V30 18879 H 1888.78 3.71859 -0.234821 0
M  V30 18880 H 1888.9 4.34871 -2.01056 0
M  V30 18881 H 1887.26 2.35081 -0.980257 0
M  V30 18882 H 1888.04 2.18982 -2.6439 0
M  V30 18883 N 1890.49 0.862526 1.31902 0
M  V30 18884 C 1891.42 0.270103 2.27603 0
M  V30 18885 C 1892.43 -0.562639 1.52768 0
M  V30 18886 O 1893.62 -0.385845 1.7428 0
M  V30 18887 C 1890.72 -0.636314 3.32873 0
M  V30 18888 C 1889.9 0.162327 4.37099 0
M  V30 18889 C 1888.96 -0.67107 5.21903 0
M  V30 18890 O 1887.98 -0.101765 5.69109 0
M  V30 18891 N 1889.18 -1.98441 5.45529 0
M  V30 18892 H 1891.95 1.09248 2.79079 0
M  V30 18893 H 1889.51 0.723275 1.44846 0
M  V30 18894 H 1891.5 -1.19937 3.86519 0
M  V30 18895 H 1890.07 -1.35936 2.81496 0
M  V30 18896 H 1889.29 0.906824 3.83628 0
M  V30 18897 H 1890.58 0.710602 5.03813 0
M  V30 18898 H 1889.98 -2.47017 5.0892 0
M  V30 18899 H 1888.53 -2.49542 6.0214 0
M  V30 18900 N 1891.97 -1.4484 0.62123 0
M  V30 18901 C 1893.22 -2.01734 0.121544 0
M  V30 18902 C 1893.54 -1.49041 -1.25745 0
M  V30 18903 O 1892.81 -0.690056 -1.83344 0
M  V30 18904 H 1891.39 -0.745822 0.0419419 0
M  V30 18905 H 1894.05 -1.77467 0.805702 0
M  V30 18906 H 1893.15 -3.11993 0.0816882 0
M  V30 18907 N 1893.45 -0.361184 -1.53405 0
M  V30 18908 C 1894.67 0.233383 -2.06083 0
M  V30 18909 C 1895.1 1.42029 -1.23326 0
M  V30 18910 O 1894.45 1.79551 -0.251249 0
M  V30 18911 C 1894.5 0.609243 -3.55416 0
M  V30 18912 O 1893.61 1.70705 -3.75411 0
M  V30 18913 H 1892.95 0.035021 -0.663076 0
M  V30 18914 H 1895.48 -0.520514 -1.97868 0
M  V30 18915 H 1895.49 0.881483 -3.98364 0
M  V30 18916 H 1894.16 -0.25866 -4.15095 0
M  V30 18917 H 1892.74 1.4307 -3.44362 0
M  V30 18918 N 1894.92 1.57341 -0.0902386 0
M  V30 18919 C 1896.17 1.94464 0.575461 0
M  V30 18920 C 1896.5 0.971819 1.68135 0
M  V30 18921 O 1895.78 0.00405665 1.945 0
M  V30 18922 C 1896.06 3.41739 1.13518 0
M  V30 18923 C 1895.91 4.49787 0.0346821 0
M  V30 18924 C 1897.23 3.90222 2.03506 0
M  V30 18925 H 1894.35 0.707123 0.207716 0
M  V30 18926 H 1896.99 1.89325 -0.15996 0
M  V30 18927 H 1895.14 3.46249 1.76192 0
M  V30 18928 H 1896.82 4.5739 -0.599326 0
M  V30 18929 H 1895.06 4.29166 -0.632342 0
M  V30 18930 H 1895.73 5.50021 0.467044 0
M  V30 18931 H 1898.21 3.87834 1.50744 0
M  V30 18932 H 1897.08 4.93846 2.39598 0
M  V30 18933 H 1897.34 3.29232 2.95057 0
M  V30 18934 N 1896.4 -0.183431 1.56529 0
M  V30 18935 C 1897.63 -0.921964 1.85781 0
M  V30 18936 C 1898.05 -1.75564 0.675184 0
M  V30 18937 O 1897.41 -1.7736 -0.375913 0
M  V30 18938 C 1897.46 -1.7844 3.13355 0
M  V30 18939 O 1896.56 -2.88461 2.94727 0
M  V30 18940 H 1895.9 -0.258974 0.611415 0
M  V30 18941 H 1898.43 -0.185225 2.0376 0
M  V30 18942 H 1898.44 -2.18675 3.44449 0
M  V30 18943 H 1897.12 -1.17195 3.99047 0
M  V30 18944 H 1895.7 -2.51897 2.74959 0
M  V30 18945 N 1897.88 -1.50992 -0.451564 0
M  V30 18946 C 1899.11 -1.67021 -1.22958 0
M  V30 18947 C 1899.53 -0.36115 -1.846 0
M  V30 18948 O 1898.89 0.677193 -1.68178 0
M  V30 18949 C 1898.94 -2.77744 -2.29979 0
M  V30 18950 O 1898.04 -2.40356 -3.35116 0
M  V30 18951 H 1897.38 -0.557369 -0.360882 0
M  V30 18952 H 1899.91 -1.97479 -0.535073 0
M  V30 18953 H 1899.92 -3.01406 -2.74988 0
M  V30 18954 H 1898.6 -3.72742 -1.84488 0
M  V30 18955 H 1897.17 -2.27214 -2.95683 0
M  V30 18956 N 1899.36 0.706069 -1.40899 0
M  V30 18957 C 1900.29 1.83119 -1.37841 0
M  V30 18958 C 1901.3 1.60335 -0.282253 0
M  V30 18959 O 1902.49 1.70032 -0.543263 0
M  V30 18960 C 1899.59 3.19696 -1.12461 0
M  V30 18961 C 1898.77 3.69598 -2.33915 0
M  V30 18962 C 1897.82 4.84815 -2.04551 0
M  V30 18963 O 1896.85 4.96973 -2.775 0
M  V30 18964 N 1898.05 5.71302 -1.0293 0
M  V30 18965 H 1900.82 1.86237 -2.34811 0
M  V30 18966 H 1898.38 0.887984 -1.35375 0
M  V30 18967 H 1900.37 3.94386 -0.90786 0
M  V30 18968 H 1898.94 3.11668 -0.241258 0
M  V30 18969 H 1898.16 2.85933 -2.7136 0
M  V30 18970 H 1899.45 3.99674 -3.14862 0
M  V30 18971 H 1898.85 5.64099 -0.425314 0
M  V30 18972 H 1897.4 6.45935 -0.872446 0
M  V30 18973 N 1900.84 1.26553 0.939264 0
M  V30 18974 C 1902.08 1.13433 1.70036 0
M  V30 18975 C 1902.44 -0.316669 1.89371 0
M  V30 18976 O 1903.64 -0.570035 2.62686 0
M  V30 18977 C 1901.91 1.88424 3.03696 0
M  V30 18978 S 1903.47 1.91381 3.94866 0
M  V30 18979 H 1900.29 0.405156 0.584268 0
M  V30 18980 H 1902.89 1.60299 1.11913 0
M  V30 18981 H 1901.6 2.93059 2.87306 0
M  V30 18982 H 1901.13 1.42007 3.66876 0
M  V30 18983 H 1903.14 1.00189 4.8598 0
M  V30 18984 N 1902.31 -1.14411 1.08387 0
M  V30 18985 C 1903.59 -1.8162 0.726188 0
M  V30 18986 C 1903.97 -1.95755 -0.790129 0
M  V30 18987 O 1903.32 -1.51725 -1.70856 0
M  V30 18988 C 1903.53 -3.17321 1.45287 0
M  V30 18989 C 1904.88 -3.92818 1.6118 0
M  V30 18990 O 1905.9 -3.2691 1.41451 0
M  V30 18991 O 1904.76 -5.1101 1.93728 0
M  V30 18992 H 1901.85 -0.785182 0.25965 0
M  V30 18993 H 1904.4 -1.21431 1.18544 0
M  V30 18994 H 1903.17 -3.02195 2.48584 0
M  V30 18995 H 1902.8 -3.85203 0.985093 0
M  V30 18996 N 1903.79 -0.869509 -1.31443 0
M  V30 18997 C 1904.76 -0.329869 -2.26814 0
M  V30 18998 C 1905.76 0.518895 -1.52198 0
M  V30 18999 O 1906.95 0.328267 -1.71079 0
M  V30 19000 C 1904.08 0.53159 -3.3673 0
M  V30 19001 H 1905.27 -1.1718 -2.7606 0
M  V30 19002 H 1902.82 -0.645061 -1.42368 0
M  V30 19003 H 1903.56 1.39473 -2.92776 0
M  V30 19004 H 1903.34 -0.0761553 -3.92026 0
M  V30 19005 H 1904.83 0.901447 -4.07754 0
M  V30 19006 N 1905.27 1.44508 -0.628902 0
M  V30 19007 C 1906.23 2.291 0.0676501 0
M  V30 19008 C 1907.23 1.40921 0.77447 0
M  V30 19009 O 1908.42 1.62816 0.619397 0
M  V30 19010 C 1905.56 3.22448 1.10634 0
M  V30 19011 H 1906.75 2.92174 -0.676344 0
M  V30 19012 H 1904.3 1.51384 -0.388933 0
M  V30 19013 H 1905.04 2.64219 1.88039 0
M  V30 19014 H 1904.82 3.87428 0.603465 0
M  V30 19015 H 1906.31 3.86 1.59354 0
M  V30 19016 N 1906.75 0.369315 1.53212 0
M  V30 19017 C 1908 -0.218776 2.00912 0
M  V30 19018 C 1908.32 -1.48977 1.25821 0
M  V30 19019 O 1907.59 -1.92325 0.372538 0
M  V30 19020 H 1906.17 -0.0838334 0.742281 0
M  V30 19021 H 1908.83 0.496408 1.88472 0
M  V30 19022 H 1907.93 -0.443127 3.08938 0
M  V30 19023 N 1908.23 -1.57291 0.0985816 0
M  V30 19024 C 1909.16 -2.11249 -0.889184 0
M  V30 19025 C 1910.17 -1.05051 -1.24371 0
M  V30 19026 O 1911.36 -1.32488 -1.19621 0
M  V30 19027 C 1908.46 -2.58021 -2.19724 0
M  V30 19028 C 1907.63 -3.88091 -2.01752 0
M  V30 19029 C 1906.69 -4.20674 -3.16101 0
M  V30 19030 O 1905.72 -4.89837 -2.89911 0
M  V30 19031 N 1906.92 -3.76356 -4.41969 0
M  V30 19032 H 1909.69 -2.96624 -0.42832 0
M  V30 19033 H 1907.25 -1.61669 -0.0864254 0
M  V30 19034 H 1909.24 -2.76861 -2.95178 0
M  V30 19035 H 1907.81 -1.77638 -2.57223 0
M  V30 19036 H 1907.03 -3.78364 -1.10608 0
M  V30 19037 H 1908.32 -4.7318 -1.87026 0
M  V30 19038 H 1907.72 -3.20533 -4.66128 0
M  V30 19039 H 1906.27 -4.00344 -5.14361 0
M  V30 19040 N 1909.71 0.175127 -1.56624 0
M  V30 19041 C 1910.95 0.898905 -1.83573 0
M  V30 19042 C 1911.31 1.79594 -0.678963 0
M  V30 19043 O 1912.51 2.55703 -0.828812 0
M  V30 19044 C 1910.78 1.67681 -3.15623 0
M  V30 19045 S 1912.34 2.44988 -3.64042 0
M  V30 19046 H 1909.16 0.301138 -0.644078 0
M  V30 19047 H 1911.76 0.160814 -1.94837 0
M  V30 19048 H 1910.46 1.00879 -3.97809 0
M  V30 19049 H 1910 2.45635 -3.0729 0
M  V30 19050 H 1912.01 3.69608 -3.31065 0
M  V30 19051 N 1911.18 1.5123 0.44355 0
M  V30 19052 C 1912.12 1.68281 1.55609 0
M  V30 19053 C 1913.13 0.563589 1.52733 0
M  V30 19054 O 1914.32 0.837706 1.57622 0
M  V30 19055 C 1911.42 1.67657 2.94524 0
M  V30 19056 C 1910.59 2.96063 3.21971 0
M  V30 19057 C 1909.65 2.8771 4.40578 0
M  V30 19058 O 1908.68 3.61659 4.39536 0
M  V30 19059 N 1909.88 2.03137 5.43797 0
M  V30 19060 H 1912.64 2.64252 1.41389 0
M  V30 19061 H 1910.2 1.49038 0.632398 0
M  V30 19062 H 1912.2 1.59646 3.71881 0
M  V30 19063 H 1910.77 0.79306 3.02373 0
M  V30 19064 H 1909.99 3.17991 2.32971 0
M  V30 19065 H 1911.27 3.81074 3.37135 0
M  V30 19066 H 1910.67 1.42422 5.47478 0
M  V30 19067 H 1909.23 2.0101 6.20031 0
M  V30 19068 N 1912.66 -0.698586 1.41271 0
M  V30 19069 C 1913.9 -1.47088 1.41931 0
M  V30 19070 C 1914.27 -1.91982 0.0260304 0
M  V30 19071 O 1915.47 -2.68641 -0.092562 0
M  V30 19072 C 1913.74 -2.65236 2.39551 0
M  V30 19073 S 1915.3 -3.54418 2.58715 0
M  V30 19074 H 1912.11 -0.502673 0.502833 0
M  V30 19075 H 1914.72 -0.815406 1.77683 0
M  V30 19076 H 1913.42 -2.30454 3.39587 0
M  V30 19077 H 1912.95 -3.35679 2.05141 0
M  V30 19078 H 1914.97 -4.60331 1.85229 0
M  V30 19079 N 1914.14 -1.27049 -0.93254 0
M  V30 19080 C 1915.09 -1.09356 -2.03249 0
M  V30 19081 C 1916.06 0.00396271 -1.661 0
M  V30 19082 O 1917.24 -0.157449 -1.90149 0
M  V30 19083 C 1914.38 -0.741704 -3.37035 0
M  V30 19084 C 1913.49 -1.91636 -3.87169 0
M  V30 19085 C 1912.63 -1.50683 -5.0938 0
M  V30 19086 C 1911.67 -2.64927 -5.51797 0
M  V30 19087 N 1910.81 -2.24595 -6.65208 0
M  V30 19088 H 1915.65 -2.0348 -2.17715 0
M  V30 19089 H 1913.18 -1.01299 -1.06662 0
M  V30 19090 H 1915.14 -0.518546 -4.13965 0
M  V30 19091 H 1913.77 0.162576 -3.2239 0
M  V30 19092 H 1912.82 -2.2522 -3.06562 0
M  V30 19093 H 1914.13 -2.77353 -4.1458 0
M  V30 19094 H 1913.29 -1.24463 -5.93796 0
M  V30 19095 H 1912.03 -0.620687 -4.83734 0
M  V30 19096 H 1911.03 -2.91866 -4.65933 0
M  V30 19097 H 1912.26 -3.54154 -5.79441 0
M  V30 19098 H 1910.2 -1.38427 -6.41229 0
M  V30 19099 H 1910.12 -3.03853 -6.9225 0
M  V30 19100 H 1911.39 -2.0161 -7.52977 0
M  V30 19101 N 1915.62 1.13835 -1.08993 0
M  V30 19102 C 1916.58 2.17299 -0.728968 0
M  V30 19103 C 1917.58 1.5901 0.23923 0
M  V30 19104 O 1918.77 1.74191 0.0179935 0
M  V30 19105 C 1915.9 3.40812 -0.0772774 0
M  V30 19106 H 1917.1 2.50745 -1.64521 0
M  V30 19107 H 1914.65 1.28586 -0.888552 0
M  V30 19108 H 1915.38 3.12952 0.850403 0
M  V30 19109 H 1915.17 3.84387 -0.773873 0
M  V30 19110 H 1916.66 4.17293 0.160024 0
M  V30 19111 N 1917.1 0.876467 1.3098 0
M  V30 19112 C 1918.03 0.294228 2.27304 0
M  V30 19113 C 1919.04 -0.546404 1.53357 0
M  V30 19114 O 1920.23 -0.367339 1.74679 0
M  V30 19115 C 1917.33 -0.600972 3.33529 0
M  V30 19116 C 1916.5 0.208678 4.36902 0
M  V30 19117 C 1915.56 -0.615677 5.22586 0
M  V30 19118 O 1914.59 -0.0413981 5.69185 0
M  V30 19119 N 1915.79 -1.92644 5.47603 0
M  V30 19120 H 1918.55 1.12201 2.77905 0
M  V30 19121 H 1916.12 0.738597 1.44071 0
M  V30 19122 H 1918.11 -1.15831 3.8777 0
M  V30 19123 H 1916.68 -1.32943 2.82922 0
M  V30 19124 H 1915.9 0.947462 3.82644 0
M  V30 19125 H 1917.19 0.763998 5.03031 0
M  V30 19126 H 1916.58 -2.41605 5.11511 0
M  V30 19127 H 1915.14 -2.43141 6.04752 0
M  V30 19128 N 1918.57 -1.44173 0.636557 0
M  V30 19129 C 1919.82 -2.02292 0.143429 0
M  V30 19130 C 1920.15 -1.49996 -1.23348 0
M  V30 19131 O 1919.43 -0.686228 -1.81992 0
M  V30 19132 C 1919.71 -3.59843 0.136025 0
M  V30 19133 C 1919.56 -4.22409 1.54566 0
M  V30 19134 C 1920.88 -4.36817 -0.536538 0
M  V30 19135 H 1918 -0.735049 0.0535939 0
M  V30 19136 H 1920.64 -1.71677 0.814066 0
M  V30 19137 H 1918.79 -3.86056 -0.435048 0
M  V30 19138 H 1920.47 -4.07284 2.16604 0
M  V30 19139 H 1918.71 -3.79696 2.09793 0
M  V30 19140 H 1919.38 -5.31441 1.49247 0
M  V30 19141 H 1921.86 -4.16069 -0.0508327 0
M  V30 19142 H 1920.73 -5.46517 -0.510926 0
M  V30 19143 H 1920.99 -4.11827 -1.60783 0
M  V30 19144 N 1920.05 -0.377435 -1.53014 0
M  V30 19145 C 1920.96 0.471045 -2.29822 0
M  V30 19146 C 1921.98 1.0821 -1.36259 0
M  V30 19147 O 1923.15 1.09048 -1.69324 0
M  V30 19148 C 1920.22 1.58917 -3.08134 0
M  V30 19149 C 1919.28 1.00444 -4.17384 0
M  V30 19150 C 1918.51 2.06928 -4.91952 0
M  V30 19151 O 1918.74 3.2824 -4.66492 0
M  V30 19152 O 1917.67 1.69321 -5.77593 0
M  V30 19153 H 1921.5 -0.154333 -3.03308 0
M  V30 19154 H 1919.08 -0.141478 -1.48729 0
M  V30 19155 H 1920.96 2.23899 -3.56997 0
M  V30 19156 H 1919.64 2.19973 -2.37473 0
M  V30 19157 H 1918.54 0.3182 -3.72744 0
M  V30 19158 H 1919.88 0.438266 -4.90245 0
M  V30 19159 N 1921.53 1.57237 -0.106922 0
M  V30 19160 C 1922.78 1.9439 0.552888 0
M  V30 19161 C 1923.1 0.990316 1.67981 0
M  V30 19162 O 1922.37 0.0444502 1.9585 0
M  V30 19163 H 1920.95 0.71768 0.20723 0
M  V30 19164 H 1923.61 1.9413 -0.17303 0
M  V30 19165 H 1922.71 2.97118 0.955369 0
M  V30 19166 N 1923.01 -0.166818 1.56715 0
M  V30 19167 C 1923.94 -1.2086 1.99787 0
M  V30 19168 C 1924.92 -1.45918 0.874178 0
M  V30 19169 O 1926.1 -1.57176 1.14058 0
M  V30 19170 C 1923.23 -2.54648 2.3616 0
M  V30 19171 C 1922.19 -2.44151 3.51532 0
M  V30 19172 C 1921.51 -3.82469 3.7366 0
M  V30 19173 C 1922.81 -1.9424 4.84838 0
M  V30 19174 H 1924.51 -0.850538 2.87065 0
M  V30 19175 H 1922.05 -0.407696 1.38108 0
M  V30 19176 H 1924.01 -3.27736 2.64891 0
M  V30 19177 H 1922.73 -2.92251 1.45797 0
M  V30 19178 H 1921.39 -1.73516 3.22936 0
M  V30 19179 H 1921.04 -4.17473 2.8058 0
M  V30 19180 H 1920.74 -3.76312 4.5129 0
M  V30 19181 H 1922.26 -4.57136 4.04796 0
M  V30 19182 H 1923.68 -2.57105 5.12416 0
M  V30 19183 H 1922.07 -1.99021 5.66137 0
M  V30 19184 H 1923.14 -0.89695 4.76532 0
M  V30 19185 N 1924.49 -1.51463 -0.435524 0
M  V30 19186 C 1925.71 -1.68031 -1.20719 0
M  V30 19187 C 1926.13 -0.378427 -1.84969 0
M  V30 19188 O 1925.49 0.643234 -1.70789 0
M  V30 19189 C 1925.54 -2.79726 -2.28989 0
M  V30 19190 O 1925.26 -4.0487 -1.67367 0
M  V30 19191 C 1926.76 -3.07578 -3.19234 0
M  V30 19192 H 1923.98 -0.56383 -0.363781 0
M  V30 19193 H 1926.52 -1.97888 -0.515825 0
M  V30 19194 H 1924.68 -2.52463 -2.93839 0
M  V30 19195 H 1925.09 -4.66915 -2.38937 0
M  V30 19196 H 1926.57 -3.89309 -3.91334 0
M  V30 19197 H 1927.04 -2.20059 -3.80093 0
M  V30 19198 H 1927.65 -3.36507 -2.60083 0
M  V30 19199 N 1925.96 0.691085 -1.4164 0
M  V30 19200 C 1927.2 1.46333 -1.42709 0
M  V30 19201 C 1927.57 1.91966 -0.0362114 0
M  V30 19202 O 1928.77 2.68686 0.078314 0
M  V30 19203 C 1927.04 2.63962 -2.40954 0
M  V30 19204 S 1928.6 3.53041 -2.6059 0
M  V30 19205 H 1925.42 0.499999 -0.505492 0
M  V30 19206 H 1928.02 0.805972 -1.78113 0
M  V30 19207 H 1926.72 2.28649 -3.40804 0
M  V30 19208 H 1926.25 3.34587 -2.06919 0
M  V30 19209 H 1928.27 4.59342 -1.87667 0
M  V30 19210 N 1927.44 1.27542 0.925789 0
M  V30 19211 C 1928.67 1.16921 1.71301 0
M  V30 19212 C 1929.09 -0.270082 1.86151 0
M  V30 19213 O 1928.45 -1.19558 1.36293 0
M  V30 19214 C 1928.5 1.8599 3.08934 0
M  V30 19215 O 1927.6 1.15917 3.95774 0
M  V30 19216 H 1926.94 0.406542 0.524995 0
M  V30 19217 H 1929.47 1.68646 1.15843 0
M  V30 19218 H 1929.48 1.93424 3.59237 0
M  V30 19219 H 1928.16 2.9069 2.97443 0
M  V30 19220 H 1926.74 1.16564 3.54213 0
M  V30 19221 N 1928.92 -1.13255 1.09595 0
M  V30 19222 C 1929.87 -2.16783 0.706325 0
M  V30 19223 C 1930.85 -1.58442 -0.280181 0
M  V30 19224 O 1932.05 -1.7677 -0.0902771 0
M  V30 19225 C 1929.18 -3.43053 0.130333 0
M  V30 19226 C 1928.26 -4.08397 1.14336 0
M  V30 19227 N 1928.65 -4.48881 2.33107 0
M  V30 19228 C 1926.95 -4.35057 0.981893 0
M  V30 19229 C 1927.65 -4.99832 2.97562 0
M  V30 19230 N 1926.63 -4.94797 2.25115 0
M  V30 19231 H 1930.43 -2.45841 1.61058 0
M  V30 19232 H 1927.94 -1.30069 0.972415 0
M  V30 19233 H 1929.94 -4.16566 -0.166824 0
M  V30 19234 H 1928.6 -3.15468 -0.768749 0
M  V30 19235 H 1929.61 -4.4153 2.70688 0
M  V30 19236 H 1926.29 -4.17273 0.137641 0
M  V30 19237 H 1927.68 -5.40938 3.98542 0
M  V30 19238 N 1930.4 -0.883401 -1.30514 0
M  V30 19239 C 1931.64 -0.507734 -1.97993 0
M  V30 19240 C 1932 0.925497 -1.68222 0
M  V30 19241 O 1933.2 1.40721 -2.29022 0
M  V30 19242 C 1931.47 -0.773081 -3.48939 0
M  V30 19243 S 1933.03 -0.499281 -4.3595 0
M  V30 19244 H 1929.85 -0.188981 -0.685425 0
M  V30 19245 H 1932.45 -1.14233 -1.58654 0
M  V30 19246 H 1931.16 -1.81472 -3.68098 0
M  V30 19247 H 1930.69 -0.125985 -3.93198 0
M  V30 19248 H 1932.7 0.662772 -4.91754 0
M  V30 19249 N 1931.88 1.43833 -0.644194 0
M  V30 19250 C 1933.29 1.56542 -0.310952 0
M  V30 19251 C 1933.49 1.62946 1.18536 0
M  V30 19252 O 1932.55 1.57961 1.96989 0
M  V30 19253 C 1933.86 2.83074 -1.01437 0
M  V30 19254 C 1935.41 2.96805 -0.993759 0
M  V30 19255 C 1935.88 4.26158 -1.6779 0
M  V30 19256 N 1937.38 4.33002 -1.64511 0
M  V30 19257 C 1938.11 5.31837 -2.14328 0
M  V30 19258 N 1937.61 6.37003 -2.72394 0
M  V30 19259 N 1939.4 5.23431 -2.04881 0
M  V30 19260 H 1931.55 1.37919 -1.61531 0
M  V30 19261 H 1933.81 0.661778 -0.678789 0
M  V30 19262 H 1933.52 2.84372 -2.06943 0
M  V30 19263 H 1933.39 3.73016 -0.560273 0
M  V30 19264 H 1935.78 2.95053 0.0528599 0
M  V30 19265 H 1935.86 2.08177 -1.48647 0
M  V30 19266 H 1935.51 4.28671 -2.72404 0
M  V30 19267 H 1935.44 5.13667 -1.15992 0
M  V30 19268 H 1937.93 3.57621 -1.22129 0
M  V30 19269 H 1938.24 7.08724 -3.08107 0
M  V30 19270 H 1936.58 6.37652 -2.76451 0
M  V30 19271 H 1939.78 4.40186 -1.59229 0
M  V30 19272 H 1939.95 6.00301 -2.44015 0
M  V30 19273 N 1933.35 0.385544 1.52811 0
M  V30 19274 C 1934.77 -0.0893152 1.86486 0
M  V30 19275 C 1935.12 -1.46473 1.30538 0
M  V30 19276 O 1934.24 -2.06866 0.635244 0
M  V30 19277 C 1934.84 -0.168846 3.38379 0
M  V30 19278 C 1933.4 -0.587992 3.71779 0
M  V30 19279 C 1932.54 0.252389 2.76149 0
M  V30 19280 H 1935.49 0.603569 1.46774 0
M  V30 19281 H 1935.51 -0.988694 3.6743 0
M  V30 19282 H 1935.03 0.832334 3.7907 0
M  V30 19283 H 1933.13 -1.59668 3.36656 0
M  V30 19284 H 1933.24 -0.34875 4.77829 0
M  V30 19285 H 1931.6 -0.281775 2.53137 0
M  V30 19286 H 1932.39 1.25148 3.19676 0
M  V30 19287 N 1934.83 -1.57178 0.115259 0
M  V30 19288 C 1935.78 -2.11668 -0.847394 0
M  V30 19289 C 1936.77 -1.03654 -1.23064 0
M  V30 19290 O 1937.96 -1.29894 -1.20235 0
M  V30 19291 C 1935.09 -2.71667 -2.09886 0
M  V30 19292 C 1934.17 -3.86755 -1.74015 0
M  V30 19293 N 1934.56 -4.9396 -1.08801 0
M  V30 19294 C 1932.86 -3.96869 -2.03497 0
M  V30 19295 C 1933.56 -5.74381 -0.919867 0
M  V30 19296 N 1932.54 -5.24079 -1.44367 0
M  V30 19297 H 1936.34 -2.91932 -0.339579 0
M  V30 19298 H 1933.86 -1.62165 -0.0873304 0
M  V30 19299 H 1935.85 -3.09045 -2.79815 0
M  V30 19300 H 1934.51 -1.92865 -2.61215 0
M  V30 19301 H 1935.52 -5.12405 -0.75243 0
M  V30 19302 H 1932.2 -3.29104 -2.56899 0
M  V30 19303 H 1933.59 -6.70658 -0.408269 0
M  V30 19304 N 1936.31 0.158505 -1.56801 0
M  V30 19305 C 1937.26 1.20094 -1.93808 0
M  V30 19306 C 1938.25 1.39146 -0.807916 0
M  V30 19307 O 1939.44 1.40901 -1.07125 0
M  V30 19308 C 1936.57 2.53736 -2.31243 0
M  V30 19309 C 1935.65 2.38324 -3.50803 0
M  V30 19310 N 1936.04 1.92648 -4.67676 0
M  V30 19311 C 1934.34 2.69112 -3.55661 0
M  V30 19312 C 1935.04 1.90005 -5.49793 0
M  V30 19313 N 1934.02 2.3289 -4.91186 0
M  V30 19314 H 1937.82 0.839694 -2.81649 0
M  V30 19315 H 1935.33 0.366668 -1.58207 0
M  V30 19316 H 1937.33 3.29079 -2.55955 0
M  V30 19317 H 1935.99 2.90652 -1.44747 0
M  V30 19318 H 1937 1.62788 -4.91651 0
M  V30 19319 H 1933.68 3.0998 -2.79676 0
M  V30 19320 H 1935.07 1.5628 -6.53472 0
M  V30 19321 N 1937.79 1.51692 0.427485 0
M  V30 19322 C 1939.04 1.64847 1.17608 0
M  V30 19323 C 1939.36 0.369447 1.90959 0
M  V30 19324 O 1938.62 -0.646897 1.84699 0
M  V30 19325 C 1938.92 2.80871 2.21011 0
M  V30 19326 C 1938.58 4.19782 1.64602 0
M  V30 19327 C 1937.25 4.5757 1.48941 0
M  V30 19328 C 1939.6 5.06423 1.23226 0
M  V30 19329 C 1936.93 5.79695 0.903941 0
M  V30 19330 C 1939.28 6.29137 0.661048 0
M  V30 19331 C 1937.94 6.65689 0.491424 0
M  V30 19332 H 1937.21 0.603218 0.430359 0
M  V30 19333 H 1939.86 1.85749 0.465774 0
M  V30 19334 H 1938.16 2.5423 2.98118 0
M  V30 19335 H 1939.86 2.88248 2.78772 0
M  V30 19336 H 1936.45 3.89995 1.7777 0
M  V30 19337 H 1940.64 4.77828 1.34142 0
M  V30 19338 H 1935.89 6.06653 0.76037 0
M  V30 19339 H 1940.07 6.95608 0.331975 0
M  V30 19340 H 1937.69 7.60192 0.0356395 0
M  V30 19341 N 1939.27 -0.683564 1.42004 0
M  V30 19342 C 1940.22 -1.78971 1.41257 0
M  V30 19343 C 1941.2 -1.58353 0.285152 0
M  V30 19344 O 1942.39 -1.68981 0.52673 0
M  V30 19345 C 1939.52 -3.17369 1.30888 0
M  V30 19346 C 1938.61 -3.4364 2.4854 0
M  V30 19347 N 1939 -3.40543 3.73984 0
M  V30 19348 C 1937.3 -3.7424 2.42612 0
M  V30 19349 C 1938 -3.66055 4.52083 0
M  V30 19350 N 1936.97 -3.8639 3.82366 0
M  V30 19351 H 1940.78 -1.74957 2.36151 0
M  V30 19352 H 1938.29 -0.884049 1.36229 0
M  V30 19353 H 1940.29 -3.96623 1.28435 0
M  V30 19354 H 1938.95 -3.22586 0.369887 0
M  V30 19355 H 1939.96 -3.20646 4.06702 0
M  V30 19356 H 1936.64 -3.86755 1.57246 0
M  V30 19357 H 1938.03 -3.69695 5.61048 0
M  V30 19358 N 1940.75 -1.28031 -0.919012 0
M  V30 19359 C 1941.68 -1.14034 -2.03761 0
M  V30 19360 C 1942.66 -0.039495 -1.70054 0
M  V30 19361 O 1943.84 -0.215546 -1.93 0
M  V30 19362 C 1940.97 -0.795894 -3.38057 0
M  V30 19363 C 1939.93 -1.85093 -3.85907 0
M  V30 19364 C 1939.25 -1.36024 -5.17109 0
M  V30 19365 C 1940.55 -3.25658 -4.08343 0
M  V30 19366 H 1942.25 -2.07609 -2.15729 0
M  V30 19367 H 1939.79 -0.999558 -1.03657 0
M  V30 19368 H 1941.74 -0.684762 -4.15799 0
M  V30 19369 H 1940.47 0.175558 -3.26128 0
M  V30 19370 H 1939.13 -1.95112 -3.10366 0
M  V30 19371 H 1938.78 -0.378004 -5.01578 0
M  V30 19372 H 1938.48 -2.06568 -5.50094 0
M  V30 19373 H 1940 -1.26223 -5.97411 0
M  V30 19374 H 1941.41 -3.1859 -4.76627 0
M  V30 19375 H 1939.81 -3.93989 -4.52651 0
M  V30 19376 H 1940.88 -3.70066 -3.13335 0
M  V30 19377 N 1942.22 1.12672 -1.10194 0
M  V30 19378 C 1943.45 1.88496 -0.865112 0
M  V30 19379 C 1943.87 1.78977 0.578691 0
M  V30 19380 O 1943.23 1.14292 1.40737 0
M  V30 19381 C 1943.28 3.35768 -1.315 0
M  V30 19382 O 1942.38 4.09615 -0.478447 0
M  V30 19383 H 1941.72 0.585782 -0.312658 0
M  V30 19384 H 1944.25 1.42506 -1.46811 0
M  V30 19385 H 1944.26 3.86605 -1.30385 0
M  V30 19386 H 1942.94 3.42013 -2.36643 0
M  V30 19387 H 1941.52 3.68753 -0.554589 0
M  V30 19388 N 1943.7 0.89031 1.30043 0
M  V30 19389 C 1944.66 0.365912 2.2626 0
M  V30 19390 C 1945.66 -0.494616 1.53004 0
M  V30 19391 O 1946.85 -0.301009 1.7158 0
M  V30 19392 C 1943.99 -0.477952 3.37533 0
M  V30 19393 H 1945.18 1.21557 2.7416 0
M  V30 19394 H 1942.73 0.667628 1.41324 0
M  V30 19395 H 1943.47 -1.34798 2.94958 0
M  V30 19396 H 1943.25 0.138514 3.91855 0
M  V30 19397 H 1944.74 -0.836463 4.09137 0
M  V30 19398 N 1945.18 -1.43489 0.651812 0
M  V30 19399 C 1946.4 -2.06696 0.170683 0
M  V30 19400 C 1946.83 -1.48527 -1.15418 0
M  V30 19401 O 1946.19 -0.594665 -1.7127 0
M  V30 19402 C 1946.24 -3.60484 0.0915457 0
M  V30 19403 O 1945.34 -4.01388 -0.946644 0
M  V30 19404 H 1944.68 -0.65728 0.0942276 0
M  V30 19405 H 1947.21 -1.84018 0.89434 0
M  V30 19406 H 1947.22 -4.07896 -0.0922419 0
M  V30 19407 H 1945.9 -4.02199 1.0587 0
M  V30 19408 H 1944.47 -3.65569 -0.735758 0
M  V30 19409 N 1946.66 -0.393643 -1.52605 0
M  V30 19410 C 1947.61 0.454246 -2.28121 0
M  V30 19411 C 1948.6 1.05931 -1.32193 0
M  V30 19412 O 1949.81 0.999286 -1.49714 0
M  V30 19413 H 1946.18 0.165249 -0.733619 0
M  V30 19414 H 1948.15 -0.204084 -2.97701 0
M  V30 19415 C 1946.9 1.5671 -3.10383 0
M  V30 19416 H 1946.22 1.11084 -3.84058 0
M  V30 19417 H 1947.66 2.13451 -3.66353 0
M  V30 19418 C 1946.12 2.52562 -2.22967 0
M  V30 19419 O 1946.65 3.56075 -1.85939 0
M  V30 19420 N 1944.86 2.22405 -1.87041 0
M  V30 19421 H 1944.41 1.38261 -2.17351 0
M  V30 19422 H 1944.36 2.86787 -1.28843 0
M  V30 19423 N 1948.14 1.57115 -0.123593 0
M  V30 19424 C 1949.55 1.82342 0.401051 0
M  V30 19425 C 1949.9 1.04102 1.66304 0
M  V30 19426 O 1949.02 0.279024 2.14594 0
M  V30 19427 C 1949.62 3.30745 0.734394 0
M  V30 19428 C 1948.18 3.56636 1.20365 0
M  V30 19429 C 1947.32 2.76468 0.214686 0
M  V30 19430 H 1950.27 1.54823 -0.348657 0
M  V30 19431 H 1950.3 3.45624 1.59137 0
M  V30 19432 H 1949.81 3.87662 -0.184288 0
M  V30 19433 H 1947.91 3.05081 2.13908 0
M  V30 19434 H 1948.02 4.65197 1.1458 0
M  V30 19435 H 1946.39 2.44816 0.702648 0
M  V30 19436 H 1947.17 3.36146 -0.697174 0
M  V30 19437 N 1949.61 -0.150187 1.56883 0
M  V30 19438 C 1950.89 -0.891842 1.74085 0
M  V30 19439 C 1951.27 -1.99479 0.690751 0
M  V30 19440 O 1950.62 -2.26641 -0.290877 0
M  V30 19441 C 1950.83 -1.43722 3.18033 0
M  V30 19442 C 1952.18 -1.90188 3.79623 0
M  V30 19443 O 1953.2 -1.53471 3.21442 0
M  V30 19444 O 1952.06 -2.57892 4.81824 0
M  V30 19445 H 1949.15 -0.421241 0.711678 0
M  V30 19446 H 1951.7 -0.136362 1.69151 0
M  V30 19447 H 1950.47 -0.644422 3.85957 0
M  V30 19448 H 1950.09 -2.2563 3.27379 0
M  V30 19449 N 1951.09 -1.51916 -0.419434 0
M  V30 19450 C 1952.34 -1.65142 -1.16502 0
M  V30 19451 C 1952.66 -0.378632 -1.91289 0
M  V30 19452 O 1951.93 0.606164 -1.86286 0
M  V30 19453 H 1950.51 -0.608667 -0.433051 0
M  V30 19454 H 1953.17 -1.88919 -0.47914 0
M  V30 19455 H 1952.27 -2.48762 -1.88477 0
M  V30 19456 N 1952.57 0.676023 -1.42365 0
M  V30 19457 C 1953.81 1.44811 -1.44253 0
M  V30 19458 C 1954.17 1.91917 -0.0565699 0
M  V30 19459 O 1955.38 2.68754 0.0498119 0
M  V30 19460 C 1953.65 2.61392 -2.4374 0
M  V30 19461 S 1955.21 3.50257 -2.6432 0
M  V30 19462 H 1952.02 0.494609 -0.510767 0
M  V30 19463 H 1954.63 0.787035 -1.78958 0
M  V30 19464 H 1953.33 2.25022 -3.4321 0
M  V30 19465 H 1952.86 3.32373 -2.10456 0
M  V30 19466 H 1954.88 4.57326 -1.92529 0
M  V30 19467 N 1954.05 1.28517 0.912209 0
M  V30 19468 C 1954.98 1.15113 2.03153 0
M  V30 19469 C 1955.96 0.0485128 1.70031 0
M  V30 19470 O 1957.14 0.225778 1.92883 0
M  V30 19471 C 1954.27 0.81381 3.37631 0
M  V30 19472 C 1953.23 1.87137 3.8492 0
M  V30 19473 C 1952.55 1.38765 5.1638 0
M  V30 19474 C 1953.85 3.27819 4.06611 0
M  V30 19475 H 1955.55 2.0875 2.14625 0
M  V30 19476 H 1953.09 1.00504 1.03126 0
M  V30 19477 H 1955.05 0.706804 4.1543 0
M  V30 19478 H 1953.77 -0.15826 3.26216 0
M  V30 19479 H 1952.43 1.96755 3.09327 0
M  V30 19480 H 1952.08 0.404598 5.0137 0
M  V30 19481 H 1951.78 2.09482 5.48991 0
M  V30 19482 H 1953.3 1.29389 5.96733 0
M  V30 19483 H 1954.72 3.21114 4.7493 0
M  V30 19484 H 1953.11 3.96384 4.50555 0
M  V30 19485 H 1954.18 3.71723 3.11368 0
M  V30 19486 N 1955.53 -1.12086 1.1079 0
M  V30 19487 C 1956.94 -1.65205 0.869718 0
M  V30 19488 C 1957.29 -1.86823 -0.599309 0
M  V30 19489 O 1956.41 -1.59743 -1.45983 0
M  V30 19490 C 1957.01 -3.00109 1.57226 0
M  V30 19491 C 1955.57 -3.50163 1.38068 0
M  V30 19492 C 1954.71 -2.2511 1.61928 0
M  V30 19493 H 1957.67 -0.958175 1.2651 0
M  V30 19494 H 1957.69 -3.66757 1.01337 0
M  V30 19495 H 1957.2 -2.84344 2.64141 0
M  V30 19496 H 1955.3 -3.71106 0.33333 0
M  V30 19497 H 1955.41 -4.29388 2.12515 0
M  V30 19498 H 1953.78 -2.32399 1.04224 0
M  V30 19499 H 1954.56 -2.11895 2.70103 0
M  V30 19500 N 1957 -0.897194 -1.29569 0
M  V30 19501 C 1958.24 -0.528705 -1.97444 0
M  V30 19502 C 1958.61 0.907603 -1.69194 0
M  V30 19503 O 1959.81 1.38284 -2.30502 0
M  V30 19504 C 1958.08 -0.810047 -3.48099 0
M  V30 19505 S 1959.64 -0.545491 -4.35396 0
M  V30 19506 H 1956.46 -0.196241 -0.683382 0
M  V30 19507 H 1959.06 -1.15909 -1.57434 0
M  V30 19508 H 1957.76 -1.85366 -3.66153 0
M  V30 19509 H 1957.29 -0.167682 -3.93042 0
M  V30 19510 H 1959.31 0.610577 -4.92429 0
M  V30 19511 N 1958.48 1.43142 -0.659413 0
M  V30 19512 C 1959.73 2.0174 -0.175334 0
M  V30 19513 C 1960.06 1.52053 1.21285 0
M  V30 19514 O 1959.31 0.70675 1.82493 0
M  V30 19515 C 1959.61 3.57118 -0.141826 0
M  V30 19516 C 1959.28 4.26175 -1.47259 0
M  V30 19517 C 1957.94 4.44756 -1.837 0
M  V30 19518 C 1960.29 4.65229 -2.34972 0
M  V30 19519 C 1957.62 4.99656 -3.07507 0
M  V30 19520 C 1959.97 5.21502 -3.58076 0
M  V30 19521 C 1958.64 5.38297 -3.94705 0
M  V30 19522 H 1957.91 0.738217 -0.0641591 0
M  V30 19523 H 1960.55 1.71535 -0.85135 0
M  V30 19524 H 1958.86 3.86901 0.617659 0
M  V30 19525 H 1960.55 4.00222 0.249689 0
M  V30 19526 H 1957.14 4.12063 -1.17908 0
M  V30 19527 H 1961.33 4.50561 -2.08107 0
M  V30 19528 H 1956.58 5.10845 -3.35927 0
M  V30 19529 H 1960.76 5.50708 -4.26255 0
M  V30 19530 H 1958.39 5.80603 -4.90718 0
M  V30 19531 N 1959.96 0.40173 1.52394 0
M  V30 19532 C 1961.2 -0.176078 2.0364 0
M  V30 19533 C 1961.56 -1.43004 1.28117 0
M  V30 19534 O 1962.77 -2.08581 1.69551 0
M  V30 19535 C 1961.04 -0.425192 3.54862 0
M  V30 19536 S 1962.6 -0.971506 4.2791 0
M  V30 19537 H 1959.41 -0.0484885 0.709345 0
M  V30 19538 H 1962.02 0.552944 1.87517 0
M  V30 19539 H 1960.72 0.494352 4.07412 0
M  V30 19540 H 1960.25 -1.18229 3.75214 0
M  V30 19541 H 1962.27 -2.25275 4.42115 0
M  V30 19542 N 1961.44 -1.57047 0.131923 0
M  V30 19543 C 1962.37 -2.11735 -0.851089 0
M  V30 19544 C 1963.35 -1.03702 -1.25239 0
M  V30 19545 O 1964.53 -1.31438 -1.35116 0
M  V30 19546 C 1961.66 -2.62468 -2.14075 0
M  V30 19547 C 1960.71 -3.82508 -1.88653 0
M  V30 19548 S 1961.54 -5.24266 -1.09112 0
M  V30 19549 C 1962.7 -5.78377 -2.3923 0
M  V30 19550 H 1962.93 -2.94784 -0.385975 0
M  V30 19551 H 1960.46 -1.54182 -0.0820933 0
M  V30 19552 H 1962.42 -2.92351 -2.88169 0
M  V30 19553 H 1961.08 -1.79578 -2.57703 0
M  V30 19554 H 1960.27 -4.16198 -2.84245 0
M  V30 19555 H 1959.88 -3.53308 -1.22675 0
M  V30 19556 H 1962.17 -5.8889 -3.34985 0
M  V30 19557 H 1963.11 -6.76223 -2.10066 0
M  V30 19558 H 1963.52 -5.06523 -2.49189 0
M  V30 19559 N 1962.92 0.141865 -1.5696 0
M  V30 19560 C 1964.16 0.851923 -1.83267 0
M  V30 19561 C 1964.49 1.81473 -0.713611 0
M  V30 19562 O 1963.76 1.94109 0.264326 0
M  V30 19563 H 1962.34 0.317594 -0.676124 0
M  V30 19564 H 1965 0.134643 -1.94434 0
M  V30 19565 H 1964.09 1.41106 -2.7838 0
M  V30 19566 N 1964.39 1.52136 0.411372 0
M  V30 19567 C 1965.64 1.65314 1.15561 0
M  V30 19568 C 1965.96 0.38805 1.91712 0
M  V30 19569 O 1967.16 0.399588 2.68543 0
M  V30 19570 C 1965.62 2.92059 2.10308 0
M  V30 19571 C 1965.23 4.25667 1.39684 0
M  V30 19572 C 1966.97 3.14599 2.85005 0
M  V30 19573 C 1964.88 5.43538 2.33067 0
M  V30 19574 H 1963.81 0.615812 0.435077 0
M  V30 19575 H 1966.46 1.78622 0.420271 0
M  V30 19576 H 1964.84 2.72444 2.87385 0
M  V30 19577 H 1966.01 4.55757 0.679869 0
M  V30 19578 H 1964.33 4.09212 0.77038 0
M  V30 19579 H 1966.93 3.99839 3.55011 0
M  V30 19580 H 1967.27 2.28739 3.47828 0
M  V30 19581 H 1967.8 3.34676 2.15028 0
M  V30 19582 H 1964.54 6.31738 1.74894 0
M  V30 19583 H 1964.06 5.1779 3.02744 0
M  V30 19584 H 1965.74 5.76527 2.93641 0
M  V30 19585 N 1965.87 -0.668464 1.42721 0
M  V30 19586 C 1967.1 -1.45659 1.46939 0
M  V30 19587 C 1967.52 -1.88619 0.0826133 0
M  V30 19588 O 1966.87 -1.58537 -0.904 0
M  V30 19589 C 1966.92 -2.70158 2.40202 0
M  V30 19590 O 1966.65 -2.28999 3.73485 0
M  V30 19591 C 1968.15 -3.63662 2.53505 0
M  V30 19592 H 1965.37 -0.447982 0.499553 0
M  V30 19593 H 1967.91 -0.820826 1.87304 0
M  V30 19594 H 1966.07 -3.29909 2.03074 0
M  V30 19595 H 1966.48 -3.09441 4.23493 0
M  V30 19596 H 1967.95 -4.47726 3.22871 0
M  V30 19597 H 1968.43 -4.09989 1.57498 0
M  V30 19598 H 1969.04 -3.09801 2.91382 0
M  V30 19599 N 1967.35 -1.28999 -0.905381 0
M  V30 19600 C 1968.28 -1.09447 -2.0138 0
M  V30 19601 C 1969.3 -0.0436697 -1.62741 0
M  V30 19602 O 1970.49 -0.287603 -1.76168 0
M  V30 19603 C 1967.59 -0.642796 -3.32748 0
M  V30 19604 C 1966.76 -1.77086 -3.99949 0
M  V30 19605 C 1965.82 -1.31115 -5.09603 0
M  V30 19606 O 1964.84 -2.01488 -5.32345 0
M  V30 19607 N 1966.05 -0.178924 -5.80224 0
M  V30 19608 H 1968.81 -2.04906 -2.18709 0
M  V30 19609 H 1966.37 -1.20863 -1.07721 0
M  V30 19610 H 1968.36 -0.318684 -4.03443 0
M  V30 19611 H 1966.93 0.21918 -3.11831 0
M  V30 19612 H 1966.15 -2.26414 -3.22692 0
M  V30 19613 H 1967.44 -2.52736 -4.4159 0
M  V30 19614 H 1966.84 0.407926 -5.64227 0
M  V30 19615 H 1965.4 0.085857 -6.51743 0
M  V30 19616 N 1968.83 1.11497 -1.11383 0
M  V30 19617 C 1969.76 2.17283 -0.729431 0
M  V30 19618 C 1970.77 1.61041 0.238642 0
M  V30 19619 O 1971.96 1.78487 0.0216271 0
M  V30 19620 C 1969.06 3.38852 -0.057216 0
M  V30 19621 C 1968.24 4.24562 -1.05196 0
M  V30 19622 C 1967.3 5.24605 -0.40941 0
M  V30 19623 O 1966.32 5.59183 -1.06315 0
M  V30 19624 N 1967.52 5.74565 0.827957 0
M  V30 19625 H 1970.29 2.50871 -1.63963 0
M  V30 19626 H 1967.85 1.27013 -1.00396 0
M  V30 19627 H 1969.84 4.02871 0.384356 0
M  V30 19628 H 1968.41 3.03332 0.755551 0
M  V30 19629 H 1967.63 3.57008 -1.6715 0
M  V30 19630 H 1968.92 4.78667 -1.72498 0
M  V30 19631 H 1968.32 5.48653 1.37827 0
M  V30 19632 H 1966.87 6.40423 1.21252 0
M  V30 19633 N 1970.31 0.904053 1.29092 0
M  V30 19634 C 1971.55 0.539168 1.97161 0
M  V30 19635 C 1971.91 -0.898617 1.69673 0
M  V30 19636 O 1973.11 -1.37059 2.31232 0
M  V30 19637 C 1971.38 0.828496 3.47665 0
M  V30 19638 S 1972.94 0.568573 4.35101 0
M  V30 19639 H 1969.76 0.199862 0.682331 0
M  V30 19640 H 1972.36 1.16742 1.56817 0
M  V30 19641 H 1971.07 1.87305 3.65164 0
M  V30 19642 H 1970.6 0.188524 3.92948 0
M  V30 19643 H 1972.61 -0.584454 4.92746 0
M  V30 19644 N 1971.79 -1.4279 0.666995 0
M  V30 19645 C 1972.75 -2.29199 -0.00688445 0
M  V30 19646 C 1973.75 -1.42924 -0.736835 0
M  V30 19647 O 1974.94 -1.64401 -0.576011 0
M  V30 19648 C 1972.07 -3.25268 -1.02046 0
M  V30 19649 H 1973.26 -2.90278 0.753571 0
M  V30 19650 H 1970.82 -1.50299 0.428933 0
M  V30 19651 H 1971.55 -2.69112 -1.80967 0
M  V30 19652 H 1971.34 -3.88892 -0.500533 0
M  V30 19653 H 1972.83 -3.9009 -1.49063 0
M  V30 19654 N 1973.26 -0.409806 -1.52179 0
M  V30 19655 C 1974.49 0.167702 -2.06721 0
M  V30 19656 C 1974.91 1.38034 -1.27782 0
M  V30 19657 O 1974.27 1.7866 -0.308244 0
M  V30 19658 C 1974.32 0.495862 -3.57174 0
M  V30 19659 O 1973.42 1.58675 -3.80652 0
M  V30 19660 H 1972.76 0.013908 -0.663854 0
M  V30 19661 H 1975.29 -0.583201 -1.96112 0
M  V30 19662 H 1975.3 0.754301 -4.00967 0
M  V30 19663 H 1973.98 -0.390588 -4.14062 0
M  V30 19664 H 1972.56 1.32042 -3.48739 0
M  V30 19665 N 1974.74 1.56975 -0.14025 0
M  V30 19666 C 1975.97 2.00699 0.522938 0
M  V30 19667 C 1976.39 1.01964 1.58066 0
M  V30 19668 O 1975.75 -0.0056107 1.81299 0
M  V30 19669 C 1975.8 3.43203 1.10653 0
M  V30 19670 O 1974.9 3.47447 2.22159 0
M  V30 19671 H 1974.24 0.65143 0.12859 0
M  V30 19672 H 1976.77 2.03246 -0.234993 0
M  V30 19673 H 1976.78 3.81862 1.43686 0
M  V30 19674 H 1975.46 4.14573 0.331913 0
M  V30 19675 H 1974.03 3.20625 1.90405 0
M  V30 19676 N 1976.22 -0.133539 1.57033 0
M  V30 19677 C 1977.18 -1.14845 1.98351 0
M  V30 19678 C 1978.18 -1.3512 0.871734 0
M  V30 19679 O 1979.37 -1.31884 1.13808 0
M  V30 19680 C 1976.5 -2.506 2.31111 0
M  V30 19681 H 1977.7 -0.793667 2.89207 0
M  V30 19682 H 1975.25 -0.377348 1.51677 0
M  V30 19683 H 1975.99 -2.91026 1.43089 0
M  V30 19684 H 1975.77 -2.37242 3.12184 0
M  V30 19685 H 1977.26 -3.23672 2.63868 0
M  V30 19686 N 1977.7 -1.52352 -0.403298 0
M  V30 19687 C 1978.93 -1.70307 -1.16958 0
M  V30 19688 C 1979.34 -0.41477 -1.84598 0
M  V30 19689 O 1978.68 0.619507 -1.72939 0
M  V30 19690 C 1978.74 -2.78681 -2.27106 0
M  V30 19691 C 1978.4 -4.20249 -1.79553 0
M  V30 19692 C 1979.4 -5.03894 -1.2801 0
M  V30 19693 C 1977.09 -4.6651 -1.8621 0
M  V30 19694 C 1979.08 -6.31874 -0.837526 0
M  V30 19695 C 1976.77 -5.94477 -1.41564 0
M  V30 19696 C 1977.77 -6.76988 -0.904214 0
M  V30 19697 O 1977.45 -8.02559 -0.464222 0
M  V30 19698 H 1977.19 -0.573898 -0.357235 0
M  V30 19699 H 1979.74 -1.99717 -0.479814 0
M  V30 19700 H 1977.97 -2.4466 -2.99463 0
M  V30 19701 H 1979.66 -2.85178 -2.8884 0
M  V30 19702 H 1980.42 -4.69344 -1.22235 0
M  V30 19703 H 1976.3 -4.02385 -2.24961 0
M  V30 19704 H 1979.85 -6.96226 -0.437654 0
M  V30 19705 H 1975.74 -6.28534 -1.4702 0
M  V30 19706 H 1976.51 -8.16392 -0.587002 0
M  V30 19707 N 1979.18 0.660885 -1.43074 0
M  V30 19708 C 1980.4 1.44878 -1.47709 0
M  V30 19709 C 1980.82 1.88573 -0.092615 0
M  V30 19710 O 1980.18 1.59015 0.89558 0
M  V30 19711 C 1980.23 2.6888 -2.41632 0
M  V30 19712 O 1979.95 2.27015 -3.74694 0
M  V30 19713 C 1981.45 3.62312 -2.5543 0
M  V30 19714 H 1978.67 0.445326 -0.501922 0
M  V30 19715 H 1981.21 0.810882 -1.87736 0
M  V30 19716 H 1979.37 3.28827 -2.0482 0
M  V30 19717 H 1979.78 3.07191 -4.25128 0
M  V30 19718 H 1981.26 4.46007 -3.25241 0
M  V30 19719 H 1981.73 4.09148 -1.59671 0
M  V30 19720 H 1982.34 3.08251 -2.93021 0
M  V30 19721 N 1980.65 1.29477 0.898527 0
M  V30 19722 C 1982.07 1.07514 1.17953 0
M  V30 19723 C 1982.27 -0.172814 2.00758 0
M  V30 19724 O 1981.33 -0.87025 2.37029 0
M  V30 19725 C 1982.64 2.33121 1.89934 0
M  V30 19726 C 1984.19 2.38452 2.02755 0
M  V30 19727 C 1984.66 3.63866 2.78146 0
M  V30 19728 N 1986.15 3.64595 2.857 0
M  V30 19729 C 1986.89 4.58319 3.44574 0
M  V30 19730 N 1986.38 5.62376 4.04605 0
M  V30 19731 N 1988.18 4.45887 3.42259 0
M  V30 19732 H 1980.33 2.09562 0.346076 0
M  V30 19733 H 1982.59 0.923108 0.215814 0
M  V30 19734 H 1982.3 3.2412 1.36526 0
M  V30 19735 H 1982.17 2.40721 2.90402 0
M  V30 19736 H 1984.56 1.47941 2.55338 0
M  V30 19737 H 1984.64 2.34837 1.01416 0
M  V30 19738 H 1984.28 4.54729 2.26239 0
M  V30 19739 H 1984.21 3.6474 3.79832 0
M  V30 19740 H 1986.7 2.89358 2.43064 0
M  V30 19741 H 1987.02 6.30012 4.47555 0
M  V30 19742 H 1985.36 5.66184 4.03064 0
M  V30 19743 H 1988.55 3.63786 2.9458 0
M  V30 19744 H 1988.73 5.19113 3.87848 0
M  V30 19745 N 1982.13 -1.10905 1.11972 0
M  V30 19746 C 1983.08 -2.15236 0.752149 0
M  V30 19747 C 1984.07 -1.59 -0.246511 0
M  V30 19748 O 1985.26 -1.76921 -0.0527613 0
M  V30 19749 C 1982.39 -3.42699 0.20307 0
M  V30 19750 C 1981.47 -4.0588 1.22973 0
M  V30 19751 N 1981.86 -4.43836 2.42576 0
M  V30 19752 C 1980.16 -4.32877 1.07395 0
M  V30 19753 C 1980.86 -4.93408 3.08097 0
M  V30 19754 N 1979.84 -4.89911 2.35559 0
M  V30 19755 H 1983.64 -2.42369 1.66236 0
M  V30 19756 H 1981.16 -1.27977 0.999785 0
M  V30 19757 H 1983.15 -4.16826 -0.0784271 0
M  V30 19758 H 1981.81 -3.17028 -0.70166 0
M  V30 19759 H 1982.82 -4.35688 2.79993 0
M  V30 19760 H 1979.5 -4.16887 0.22612 0
M  V30 19761 H 1980.89 -5.32363 4.09926 0
M  V30 19762 N 1983.61 -0.910886 -1.2861 0
M  V30 19763 C 1984.54 -0.413998 -2.29801 0
M  V30 19764 C 1985.52 0.51689 -1.62056 0
M  V30 19765 O 1986.71 0.425236 -1.89487 0
M  V30 19766 C 1983.84 0.349336 -3.45539 0
M  V30 19767 C 1982.79 -0.49215 -4.25161 0
M  V30 19768 C 1982.12 0.399352 -5.33207 0
M  V30 19769 C 1983.42 -1.74792 -4.92184 0
M  V30 19770 H 1985.11 -1.25965 -2.71612 0
M  V30 19771 H 1982.66 -0.607149 -1.30575 0
M  V30 19772 H 1984.61 0.70777 -4.15414 0
M  V30 19773 H 1983.33 1.22887 -3.02599 0
M  V30 19774 H 1981.99 -0.833064 -3.57009 0
M  V30 19775 H 1981.64 1.27734 -4.86511 0
M  V30 19776 H 1981.34 -0.160062 -5.87382 0
M  V30 19777 H 1982.86 0.753731 -6.0593 0
M  V30 19778 H 1984.28 -1.45856 -5.54436 0
M  V30 19779 H 1982.68 -2.24952 -5.56342 0
M  V30 19780 H 1983.75 -2.4774 -4.16837 0
M  V30 19781 N 1985.09 1.42434 -0.674558 0
M  V30 19782 C 1986.34 2.00765 -0.193936 0
M  V30 19783 C 1986.65 1.53957 1.20651 0
M  V30 19784 O 1987.86 2.04705 1.78348 0
M  V30 19785 C 1986.31 3.58682 -0.295862 0
M  V30 19786 C 1985.92 4.14478 -1.70034 0
M  V30 19787 C 1987.66 4.24313 0.12606 0
M  V30 19788 C 1985.57 5.64758 -1.75505 0
M  V30 19789 H 1984.5 0.75086 -0.0687443 0
M  V30 19790 H 1987.15 1.6316 -0.839705 0
M  V30 19791 H 1985.53 3.9379 0.417795 0
M  V30 19792 H 1986.71 3.90831 -2.44106 0
M  V30 19793 H 1985.02 3.61298 -2.07009 0
M  V30 19794 H 1987.62 5.34596 0.105331 0
M  V30 19795 H 1987.96 3.99775 1.16127 0
M  V30 19796 H 1988.5 3.94164 -0.536581 0
M  V30 19797 H 1985.24 5.94094 -2.77007 0
M  V30 19798 H 1984.76 5.90397 -1.05788 0
M  V30 19799 H 1986.43 6.29172 -1.50838 0
M  V30 19800 N 1986.57 0.417871 1.51959 0
M  V30 19801 C 1987.79 -0.156736 2.06807 0
M  V30 19802 C 1988.22 -1.37354 1.28512 0
M  V30 19803 O 1987.57 -1.78494 0.317715 0
M  V30 19804 C 1987.62 -0.476913 3.57432 0
M  V30 19805 O 1986.73 -1.56654 3.81488 0
M  V30 19806 H 1986.07 -0.0103873 0.663919 0
M  V30 19807 H 1988.6 0.593593 1.958 0
M  V30 19808 H 1988.61 -0.733026 4.01361 0
M  V30 19809 H 1987.28 0.412542 4.13849 0
M  V30 19810 H 1985.86 -1.30191 3.49435 0
M  V30 19811 N 1988.04 -1.56898 0.148573 0
M  V30 19812 C 1989.27 -2.0054 -0.509047 0
M  V30 19813 C 1989.69 -1.02867 -1.58315 0
M  V30 19814 O 1989.04 -0.0259297 -1.82482 0
M  V30 19815 C 1989.1 -3.44093 -1.10825 0
M  V30 19816 O 1988.82 -4.38032 -0.077048 0
M  V30 19817 C 1990.32 -4.03021 -1.84633 0
M  V30 19818 H 1987.54 -0.657812 -0.132378 0
M  V30 19819 H 1990.08 -2.03044 0.243618 0
M  V30 19820 H 1988.24 -3.42436 -1.81153 0
M  V30 19821 H 1988.65 -5.21953 -0.516256 0
M  V30 19822 H 1990.12 -5.05458 -2.21847 0
M  V30 19823 H 1990.6 -3.43821 -2.73283 0
M  V30 19824 H 1991.21 -4.08313 -1.19 0
M  V30 19825 N 1989.52 0.125209 -1.57102 0
M  V30 19826 C 1990.47 1.15956 -1.96312 0
M  V30 19827 C 1991.46 1.37401 -0.837249 0
M  V30 19828 O 1992.65 1.38597 -1.1009 0
M  V30 19829 C 1989.78 2.48774 -2.36573 0
M  V30 19830 C 1988.86 2.30829 -3.55779 0
M  V30 19831 N 1989.25 1.82684 -4.71657 0
M  V30 19832 C 1987.55 2.61507 -3.61289 0
M  V30 19833 C 1988.25 1.78301 -5.537 0
M  V30 19834 N 1987.23 2.22418 -4.96015 0
M  V30 19835 H 1991.03 0.779763 -2.83367 0
M  V30 19836 H 1988.55 0.333028 -1.58949 0
M  V30 19837 H 1990.54 3.23576 -2.62877 0
M  V30 19838 H 1989.2 2.87516 -1.50879 0
M  V30 19839 H 1990.21 1.52323 -4.94993 0
M  V30 19840 H 1986.89 3.03978 -2.86189 0
M  V30 19841 H 1988.28 1.42384 -6.5664 0
M  V30 19842 N 1991 1.52564 0.395213 0
M  V30 19843 C 1992.25 1.67305 1.14085 0
M  V30 19844 C 1992.58 0.409869 1.90132 0
M  V30 19845 O 1991.83 -0.607574 1.8603 0
M  V30 19846 C 1992.13 2.85496 2.15004 0
M  V30 19847 C 1991.8 4.23179 1.55661 0
M  V30 19848 C 1990.46 4.60626 1.39202 0
M  V30 19849 C 1992.81 5.08923 1.12457 0
M  V30 19850 C 1990.14 5.81482 0.780775 0
M  V30 19851 C 1992.49 6.30397 0.527451 0
M  V30 19852 C 1991.15 6.66581 0.350111 0
M  V30 19853 H 1990.42 0.612211 0.417467 0
M  V30 19854 H 1993.07 1.86695 0.426269 0
M  V30 19855 H 1991.38 2.60496 2.92658 0
M  V30 19856 H 1993.07 2.94096 2.72595 0
M  V30 19857 H 1989.66 3.93678 1.69457 0
M  V30 19858 H 1993.85 4.80566 1.23976 0
M  V30 19859 H 1989.1 6.0813 0.631518 0
M  V30 19860 H 1993.28 6.96156 0.184351 0
M  V30 19861 H 1990.9 7.60096 -0.125616 0
M  V30 19862 N 1992.48 -0.653289 1.43422 0
M  V30 19863 C 1993.44 -1.74802 1.48246 0
M  V30 19864 C 1994.44 -1.56552 0.367179 0
M  V30 19865 O 1995.63 -1.62451 0.628923 0
M  V30 19866 C 1992.76 -3.13673 1.33499 0
M  V30 19867 H 1993.96 -1.71906 2.4574 0
M  V30 19868 H 1991.51 -0.864936 1.30187 0
M  V30 19869 H 1992.24 -3.22181 0.370118 0
M  V30 19870 H 1992.03 -3.28325 2.14348 0
M  V30 19871 H 1993.52 -3.93502 1.39806 0
M  V30 19872 N 1993.96 -1.29952 -0.891648 0
M  V30 19873 C 1995.37 -1.16586 -1.45824 0
M  V30 19874 C 1995.72 0.235978 -1.94776 0
M  V30 19875 O 1994.84 1.13214 -1.84422 0
M  V30 19876 C 1995.44 -2.11036 -2.65046 0
M  V30 19877 C 1994 -2.01668 -3.17816 0
M  V30 19878 C 1993.14 -2.015 -1.90507 0
M  V30 19879 H 1996.1 -1.42319 -0.702216 0
M  V30 19880 H 1996.12 -1.68729 -3.41044 0
M  V30 19881 H 1995.63 -3.13054 -2.29387 0
M  V30 19882 H 1993.73 -1.02767 -3.58147 0
M  V30 19883 H 1993.84 -2.89729 -3.81568 0
M  V30 19884 H 1992.21 -1.46209 -2.08555 0
M  V30 19885 H 1992.99 -3.05237 -1.57115 0
M  V30 19886 N 1995.44 1.1031 -1.12559 0
M  V30 19887 C 1996.68 1.81937 -0.879957 0
M  V30 19888 C 1997 1.85675 0.595811 0
M  V30 19889 O 1996.27 1.33574 1.433 0
M  V30 19890 H 1994.85 0.67377 -0.322556 0
M  V30 19891 H 1997.52 1.33464 -1.42033 0
M  V30 19892 H 1996.61 2.8542 -1.26261 0
M  V30 19893 N 1996.91 0.917694 1.28125 0
M  V30 19894 C 1998.19 0.471682 1.89828 0
M  V30 19895 C 1998.57 -1.04974 1.83149 0
M  V30 19896 O 1997.92 -1.89953 1.27004 0
M  V30 19897 C 1998.13 1.00649 3.34172 0
M  V30 19898 C 1999.48 1.06095 4.11131 0
M  V30 19899 O 2000.5 0.955405 3.43148 0
M  V30 19900 O 1999.36 1.22219 5.32658 0
M  V30 19901 H 1996.45 0.150129 0.813259 0
M  V30 19902 H 1999 1.00873 1.36465 0
M  V30 19903 H 1997.77 2.05043 3.33276 0
M  V30 19904 H 1997.39 0.450491 3.9504 0
M  V30 19905 N 1998.39 -1.42074 0.682102 0
M  V30 19906 C 1999.64 -2.01435 0.207406 0
M  V30 19907 C 1999.97 -1.53963 -1.18851 0
M  V30 19908 O 1999.22 -0.735693 -1.81345 0
M  V30 19909 C 1999.52 -3.56848 0.198622 0
M  V30 19910 C 1999.19 -4.23779 1.54021 0
M  V30 19911 C 1997.85 -4.41777 1.90752 0
M  V30 19912 C 2000.2 -4.61432 2.42343 0
M  V30 19913 C 1997.53 -4.94701 3.15417 0
M  V30 19914 C 1999.88 -5.15739 3.66328 0
M  V30 19915 C 1998.54 -5.3195 4.03219 0
M  V30 19916 H 1997.81 -0.737103 0.0758954 0
M  V30 19917 H 2000.46 -1.70159 0.878532 0
M  V30 19918 H 1998.77 -3.87834 -0.556029 0
M  V30 19919 H 2000.46 -4.00568 -0.185986 0
M  V30 19920 H 1997.05 -4.10135 1.24448 0
M  V30 19921 H 2001.24 -4.47193 2.15249 0
M  V30 19922 H 1996.49 -5.05436 3.44012 0
M  V30 19923 H 2000.67 -5.43857 4.34963 0
M  V30 19924 H 1998.29 -5.72723 4.99893 0
M  V30 19925 N 1999.87 -0.425924 -1.51735 0
M  V30 19926 C 2000.8 0.426878 -2.2519 0
M  V30 19927 C 2001.81 0.996019 -1.28776 0
M  V30 19928 O 2003 0.892101 -1.54609 0
M  V30 19929 C 2000.1 1.60792 -2.98327 0
M  V30 19930 C 1999.28 1.15969 -4.21746 0
M  V30 19931 C 1998.34 2.20954 -4.77562 0
M  V30 19932 O 1997.36 1.80855 -5.39704 0
M  V30 19933 N 1998.56 3.53313 -4.60597 0
M  V30 19934 H 2001.33 -0.20262 -2.99014 0
M  V30 19935 H 1998.89 -0.254194 -1.59892 0
M  V30 19936 H 2000.88 2.30624 -3.32558 0
M  V30 19937 H 1999.45 2.14299 -2.27585 0
M  V30 19938 H 1998.67 0.28885 -3.9314 0
M  V30 19939 H 1999.96 0.837426 -5.01861 0
M  V30 19940 H 1999.36 3.88631 -4.11075 0
M  V30 19941 H 1997.91 4.19073 -4.9922 0
M  V30 19942 N 2001.35 1.56817 -0.156891 0
M  V30 19943 C 2002.6 1.96051 0.490764 0
M  V30 19944 C 2002.92 1.04326 1.64746 0
M  V30 19945 O 2002.19 0.106736 1.95609 0
M  V30 19946 H 2000.77 0.72391 0.184293 0
M  V30 19947 H 2003.43 1.93482 -0.234704 0
M  V30 19948 H 2002.52 3.00007 0.86036 0
M  V30 19949 N 2002.83 -0.116876 1.57166 0
M  V30 19950 C 2004.07 -0.824288 1.84964 0
M  V30 19951 C 2004.4 -1.79779 0.742287 0
M  V30 19952 O 2003.66 -1.93881 -0.26617 0
M  V30 19953 C 2003.95 -1.60659 3.19255 0
M  V30 19954 C 2003.62 -0.777185 4.44152 0
M  V30 19955 C 2002.28 -0.548471 4.78064 0
M  V30 19956 C 2004.63 -0.199197 5.20819 0
M  V30 19957 C 2001.96 0.26845 5.86086 0
M  V30 19958 C 2004.31 0.604927 6.29701 0
M  V30 19959 C 2002.98 0.843937 6.62143 0
M  V30 19960 H 2002.25 -0.301628 0.676832 0
M  V30 19961 H 2004.9 -0.0865824 1.91304 0
M  V30 19962 H 2003.2 -2.41526 3.08501 0
M  V30 19963 H 2004.9 -2.15794 3.37985 0
M  V30 19964 H 2001.49 -0.965541 4.17583 0
M  V30 19965 H 2005.67 -0.363107 4.9497 0
M  V30 19966 H 2000.93 0.462826 6.09646 0
M  V30 19967 H 2005.1 1.05977 6.88289 0
M  V30 19968 H 2002.73 1.47877 7.45679 0
M  V30 19969 N 2004.3 -1.52772 -0.387116 0
M  V30 19970 C 2005.27 -1.77036 -1.45571 0
M  V30 19971 C 2006.27 -0.64041 -1.47497 0
M  V30 19972 O 2007.46 -0.908478 -1.48635 0
M  V30 19973 C 2004.59 -1.87284 -2.84846 0
M  V30 19974 H 2005.78 -2.72452 -1.25339 0
M  V30 19975 H 2003.33 -1.43522 -0.61897 0
M  V30 19976 H 2004.07 -0.9386 -3.1042 0
M  V30 19977 H 2003.85 -2.6945 -2.84849 0
M  V30 19978 H 2005.34 -2.07723 -3.62272 0
M  V30 19979 N 2005.78 0.645673 -1.43767 0
M  V30 19980 C 2006.71 1.76974 -1.52324 0
M  V30 19981 C 2007.69 1.65862 -0.377316 0
M  V30 19982 O 2008.88 1.84843 -0.595532 0
M  V30 19983 C 2006.01 3.1544 -1.4531 0
M  V30 19984 C 2004.96 3.41324 -2.58229 0
M  V30 19985 C 2004.29 4.79669 -2.36267 0
M  V30 19986 C 2005.59 3.35321 -4.00446 0
M  V30 19987 H 2007.28 1.70069 -2.46408 0
M  V30 19988 H 2004.83 0.816784 -1.18594 0
M  V30 19989 H 2006.78 3.93838 -1.49899 0
M  V30 19990 H 2005.5 3.23093 -0.477344 0
M  V30 19991 H 2004.16 2.653 -2.53005 0
M  V30 19992 H 2003.81 4.84007 -1.36918 0
M  V30 19993 H 2003.51 4.97947 -3.11966 0
M  V30 19994 H 2005.04 5.60315 -2.42652 0
M  V30 19995 H 2006.45 4.03644 -4.07117 0
M  V30 19996 H 2004.85 3.65135 -4.76231 0
M  V30 19997 H 2005.92 2.33373 -4.25047 0
M  V30 19998 N 2007.26 1.30423 0.884744 0
M  V30 19999 C 2008.51 1.19435 1.63899 0
M  V30 20000 C 2008.84 -0.25033 1.9258 0
M  V30 20001 O 2008.11 -1.17904 1.5469 0
M  V30 20002 C 2008.4 2.02357 2.97865 0
M  V30 20003 C 2008.25 3.55046 2.76156 0
M  V30 20004 C 2009.57 1.86156 3.98791 0
M  V30 20005 H 2006.69 0.435234 0.594761 0
M  V30 20006 H 2009.33 1.60058 1.0238 0
M  V30 20007 H 2007.48 1.67842 3.50373 0
M  V30 20008 H 2009.15 3.99622 2.30434 0
M  V30 20009 H 2007.39 3.79218 2.10657 0
M  V30 20010 H 2008.07 4.08356 3.71415 0
M  V30 20011 H 2010.54 2.16332 3.55443 0
M  V30 20012 H 2009.42 2.46501 4.90437 0
M  V30 20013 H 2009.68 0.820775 4.34414 0
M  V30 20014 N 2008.74 -1.09711 1.13142 0
M  V30 20015 C 2009.69 -2.18355 0.801498 0
M  V30 20016 C 2010.68 -1.68031 -0.214907 0
M  V30 20017 O 2011.89 -1.79855 -0.0723523 0
M  V30 20018 H 2008.26 -0.712202 0.241398 0
M  V30 20019 H 2010.23 -2.43416 1.72601 0
M  V30 20020 C 2008.98 -3.46566 0.280613 0
M  V30 20021 H 2008.3 -3.85656 1.05403 0
M  V30 20022 H 2009.74 -4.23908 0.0881579 0
M  V30 20023 C 2008.2 -3.21932 -0.993053 0
M  V30 20024 O 2008.73 -3.44292 -2.06944 0
M  V30 20025 N 2006.94 -2.75553 -0.922971 0
M  V30 20026 H 2006.49 -2.57557 -0.0468975 0
M  V30 20027 H 2006.44 -2.59449 -1.77577 0
M  V30 20028 N 2010.22 -0.924476 -1.27637 0
M  V30 20029 C 2011.63 -0.608255 -1.76514 0
M  V30 20030 C 2011.98 0.87656 -1.7553 0
M  V30 20031 O 2011.1 1.68587 -1.35674 0
M  V30 20032 C 2011.7 -1.09738 -3.20536 0
M  V30 20033 C 2010.26 -0.831881 -3.67092 0
M  V30 20034 C 2009.4 -1.25795 -2.47125 0
M  V30 20035 H 2012.36 -1.1046 -1.13949 0
M  V30 20036 H 2012.38 -0.443602 -3.77905 0
M  V30 20037 H 2011.89 -2.17806 -3.21219 0
M  V30 20038 H 2009.99 0.235141 -3.71857 0
M  V30 20039 H 2010.1 -1.44716 -4.56721 0
M  V30 20040 H 2008.47 -0.676541 -2.4555 0
M  V30 20041 H 2009.25 -2.34721 -2.50521 0
M  V30 20042 N 2011.69 1.41711 -0.689627 0
M  V30 20043 C 2012.63 2.29192 0.018551 0
M  V30 20044 C 2013.64 1.44471 0.750468 0
M  V30 20045 O 2014.83 1.68037 0.602159 0
M  V30 20046 C 2011.93 3.22215 1.05027 0
M  V30 20047 C 2011.1 4.35665 0.389181 0
M  V30 20048 C 2010.16 5.09304 1.3227 0
M  V30 20049 O 2009.19 5.63301 0.817347 0
M  V30 20050 N 2010.39 5.16209 2.65533 0
M  V30 20051 H 2013.15 2.90611 -0.732482 0
M  V30 20052 H 2010.71 1.52798 -0.535191 0
M  V30 20053 H 2012.71 3.68347 1.67638 0
M  V30 20054 H 2011.28 2.62145 1.7029 0
M  V30 20055 H 2010.5 3.91991 -0.416702 0
M  V30 20056 H 2011.78 5.08751 -0.070752 0
M  V30 20057 H 2011.18 4.73777 3.09115 0
M  V30 20058 H 2009.74 5.65938 3.23354 0
M  V30 20059 N 2013.17 0.433965 1.51507 0
M  V30 20060 C 2014.59 0.0860823 1.59368 0
M  V30 20061 C 2014.79 -1.40421 1.44513 0
M  V30 20062 O 2013.84 -2.17377 1.28465 0
M  V30 20063 C 2015.16 0.603181 2.94588 0
M  V30 20064 C 2016.71 0.563326 3.07889 0
M  V30 20065 C 2017.18 1.05734 4.45628 0
M  V30 20066 N 2018.67 1.01519 4.51938 0
M  V30 20067 C 2019.41 1.36835 5.56834 0
M  V30 20068 N 2018.9 1.79419 6.69164 0
M  V30 20069 N 2020.7 1.28673 5.47174 0
M  V30 20070 H 2012.85 1.40366 1.59408 0
M  V30 20071 H 2015.11 0.578206 0.751253 0
M  V30 20072 H 2014.82 1.64576 3.10818 0
M  V30 20073 H 2014.69 0.0262621 3.77191 0
M  V30 20074 H 2017.08 -0.470257 2.91329 0
M  V30 20075 H 2017.16 1.17661 2.27134 0
M  V30 20076 H 2016.8 2.08938 4.62934 0
M  V30 20077 H 2016.73 0.420634 5.24917 0
M  V30 20078 H 2019.22 0.702422 3.71314 0
M  V30 20079 H 2019.54 2.04612 7.45221 0
M  V30 20080 H 2017.88 1.83343 6.70381 0
M  V30 20081 H 2021.07 0.952726 4.58302 0
M  V30 20082 H 2021.24 1.56524 6.28812 0
M  V30 20083 N 2014.65 -1.56732 0.165206 0
M  V30 20084 C 2015.6 -2.18974 -0.784415 0
M  V30 20085 C 2016.59 -1.15199 -1.242 0
M  V30 20086 O 2017.8 -1.33411 -1.20837 0
M  V30 20087 H 2014.17 -0.701387 -0.27122 0
M  V30 20088 H 2016.14 -2.9747 -0.235435 0
M  V30 20089 C 2014.89 -2.83996 -2.00603 0
M  V30 20090 H 2014.22 -3.63574 -1.66295 0
M  V30 20091 H 2015.66 -3.31025 -2.6495 0
M  V30 20092 C 2014.12 -1.83448 -2.82574 0
M  V30 20093 O 2014.65 -1.31617 -3.79526 0
M  V30 20094 N 2012.85 -1.52342 -2.47468 0
M  V30 20095 H 2012.4 -1.94684 -1.68689 0
M  V30 20096 H 2012.36 -0.853184 -3.02602 0
M  V30 20097 N 2016.13 0.10854 -1.57226 0
M  V30 20098 C 2017.35 0.832276 -1.89968 0
M  V30 20099 C 2017.78 1.72143 -0.758179 0
M  V30 20100 O 2017.14 1.78952 0.290864 0
M  V30 20101 C 2017.18 1.63287 -3.21512 0
M  V30 20102 O 2016.29 2.74071 -3.08154 0
M  V30 20103 H 2015.63 0.229508 -0.623075 0
M  V30 20104 H 2018.16 0.0877974 -2.04412 0
M  V30 20105 H 2018.17 2.01992 -3.5449 0
M  V30 20106 H 2016.84 0.98022 -4.04184 0
M  V30 20107 H 2015.42 2.38492 -2.86664 0
M  V30 20108 N 2017.61 1.52975 0.379009 0
M  V30 20109 C 2019.02 1.42448 0.719772 0
M  V30 20110 C 2019.22 0.552842 1.93768 0
M  V30 20111 O 2018.28 0.0301168 2.52482 0
M  V30 20112 C 2019.59 2.85448 0.945527 0
M  V30 20113 C 2021.14 2.94991 1.04638 0
M  V30 20114 C 2021.61 4.39024 1.30469 0
M  V30 20115 N 2023.11 4.42393 1.37269 0
M  V30 20116 C 2023.84 5.50931 1.58941 0
M  V30 20117 N 2023.34 6.69538 1.78017 0
M  V30 20118 N 2025.13 5.38489 1.61202 0
M  V30 20119 H 2017.28 2.08161 -0.422247 0
M  V30 20120 H 2019.54 0.939485 -0.126776 0
M  V30 20121 H 2019.25 3.51486 0.122608 0
M  V30 20122 H 2019.12 3.28299 1.85741 0
M  V30 20123 H 2021.51 2.29115 1.85985 0
M  V30 20124 H 2021.59 2.55554 0.11218 0
M  V30 20125 H 2021.24 5.0547 0.496281 0
M  V30 20126 H 2021.17 4.76022 2.2519 0
M  V30 20127 H 2023.66 3.56909 1.24195 0
M  V30 20128 H 2023.97 7.4803 1.94089 0
M  V30 20129 H 2022.31 6.72549 1.75222 0
M  V30 20130 H 2025.51 4.44796 1.45856 0
M  V30 20131 H 2025.68 6.23144 1.77751 0
M  V30 20132 N 2019.08 -0.63804 1.44107 0
M  V30 20133 C 2020.01 -1.76164 1.5326 0
M  V30 20134 C 2021 -1.6566 0.386107 0
M  V30 20135 O 2022.18 -1.84525 0.605326 0
M  V30 20136 C 2019.31 -3.14665 1.4698 0
M  V30 20137 C 2018.26 -3.39949 2.60035 0
M  V30 20138 C 2017.59 -4.78409 2.38808 0
M  V30 20139 C 2018.89 -3.33193 4.02219 0
M  V30 20140 H 2020.58 -1.6876 2.47306 0
M  V30 20141 H 2018.13 -0.810483 1.19026 0
M  V30 20142 H 2020.08 -3.93037 1.51986 0
M  V30 20143 H 2018.81 -3.22835 0.494471 0
M  V30 20144 H 2017.47 -2.63955 2.54408 0
M  V30 20145 H 2017.11 -4.83274 1.39483 0
M  V30 20146 H 2016.81 -4.96285 3.14602 0
M  V30 20147 H 2018.34 -5.5902 2.4562 0
M  V30 20148 H 2019.75 -4.0148 4.09252 0
M  V30 20149 H 2018.15 -3.62605 4.78161 0
M  V30 20150 H 2019.22 -2.31116 4.26279 0
M  V30 20151 N 2020.56 -1.3089 -0.877815 0
M  V30 20152 C 2021.79 -1.23068 -1.66319 0
M  V30 20153 C 2022.21 0.205309 -1.8768 0
M  V30 20154 O 2021.56 1.13467 -1.42939 0
M  V30 20155 C 2021.61 -1.96305 -3.03557 0
M  V30 20156 O 2021.33 -3.34298 -2.83154 0
M  V30 20157 C 2022.84 -1.95228 -3.97996 0
M  V30 20158 H 2020.06 -0.425583 -0.518768 0
M  V30 20159 H 2022.6 -1.72636 -1.09623 0
M  V30 20160 H 2020.75 -1.50518 -3.56964 0
M  V30 20161 H 2021.17 -3.71486 -3.70268 0
M  V30 20162 H 2022.64 -2.50997 -4.91635 0
M  V30 20163 H 2023.12 -0.932904 -4.29178 0
M  V30 20164 H 2023.73 -2.40858 -3.50525 0
M  V30 20165 N 2022.04 1.0911 -1.13723 0
M  V30 20166 C 2023.29 1.80994 -0.899205 0
M  V30 20167 C 2023.61 1.86296 0.576084 0
M  V30 20168 O 2022.88 1.35086 1.41875 0
M  V30 20169 H 2021.46 0.670311 -0.329685 0
M  V30 20170 H 2024.12 1.3195 -1.4344 0
M  V30 20171 H 2023.22 2.84065 -1.29281 0
M  V30 20172 N 2023.52 0.931232 1.27145 0
M  V30 20173 C 2024.43 0.438807 2.3046 0
M  V30 20174 C 2025.44 -0.482275 1.67183 0
M  V30 20175 O 2026.62 -0.364225 1.98079 0
M  V30 20176 C 2023.69 -0.297266 3.45423 0
M  V30 20177 C 2022.75 0.659161 4.24209 0
M  V30 20178 C 2021.98 -0.0418787 5.33684 0
M  V30 20179 O 2022.2 -1.26062 5.56295 0
M  V30 20180 O 2021.14 0.631751 5.98575 0
M  V30 20181 H 2024.96 1.29675 2.74624 0
M  V30 20182 H 2022.55 0.696718 1.3216 0
M  V30 20183 H 2024.43 -0.712299 4.15336 0
M  V30 20184 H 2023.1 -1.13075 3.03308 0
M  V30 20185 H 2022.01 1.12394 3.56817 0
M  V30 20186 H 2023.34 1.45997 4.70049 0
M  V30 20187 N 2025 -1.41343 0.697132 0
M  V30 20188 C 2026.24 -2.01204 0.22876 0
M  V30 20189 C 2026.57 -1.55215 -1.17211 0
M  V30 20190 O 2025.83 -0.754886 -1.80555 0
M  V30 20191 C 2026.13 -3.56617 0.236459 0
M  V30 20192 C 2025.79 -4.22121 1.58507 0
M  V30 20193 C 2024.45 -4.39729 1.95427 0
M  V30 20194 C 2026.81 -4.58835 2.47224 0
M  V30 20195 C 2024.13 -4.91328 3.20646 0
M  V30 20196 C 2026.49 -5.11825 3.71777 0
M  V30 20197 C 2025.15 -5.27643 4.08838 0
M  V30 20198 H 2024.42 -0.736257 0.0837091 0
M  V30 20199 H 2027.07 -1.69218 0.89653 0
M  V30 20200 H 2025.37 -3.88402 -0.514862 0
M  V30 20201 H 2027.07 -4.00743 -0.14349 0
M  V30 20202 H 2023.66 -4.08792 1.28791 0
M  V30 20203 H 2027.84 -4.44885 2.1998 0
M  V30 20204 H 2023.1 -5.01759 3.49353 0
M  V30 20205 H 2027.27 -5.39213 4.40706 0
M  V30 20206 H 2024.9 -5.67388 5.05939 0
M  V30 20207 N 2026.48 -0.441993 -1.51275 0
M  V30 20208 C 2027.7 0.121451 -2.06543 0
M  V30 20209 C 2028.12 1.36058 -1.30896 0
M  V30 20210 O 2027.48 1.78713 -0.369834 0
M  V30 20211 C 2027.53 0.438983 -3.58825 0
M  V30 20212 O 2027.25 -0.750969 -4.31616 0
M  V30 20213 C 2028.75 1.05259 -4.30622 0
M  V30 20214 H 2025.97 0.00586064 -0.670974 0
M  V30 20215 H 2028.51 -0.622415 -1.94798 0
M  V30 20216 H 2026.67 1.13275 -3.70469 0
M  V30 20217 H 2027.08 -0.478024 -5.22317 0
M  V30 20218 H 2028.56 1.22474 -5.38242 0
M  V30 20219 H 2029.03 2.03489 -3.89216 0
M  V30 20220 H 2029.64 0.398068 -4.23433 0
M  V30 20221 N 2027.95 1.56642 -0.173515 0
M  V30 20222 C 2029.2 1.97241 0.47157 0
M  V30 20223 C 2029.53 1.05958 1.62747 0
M  V30 20224 O 2028.81 0.107151 1.94205 0
M  V30 20225 C 2029.09 3.47276 0.952439 0
M  V30 20226 C 2028.94 4.49338 -0.203789 0
M  V30 20227 C 2030.26 4.00461 1.82535 0
M  V30 20228 H 2027.38 0.71714 0.169941 0
M  V30 20229 H 2030.02 1.88211 -0.260093 0
M  V30 20230 H 2028.17 3.55102 1.57591 0
M  V30 20231 H 2029.85 4.5357 -0.840936 0
M  V30 20232 H 2028.09 4.25211 -0.858945 0
M  V30 20233 H 2028.76 5.51723 0.174833 0
M  V30 20234 H 2031.24 3.9528 1.29974 0
M  V30 20235 H 2030.11 5.05853 2.13083 0
M  V30 20236 H 2030.37 3.44409 2.7719 0
M  V30 20237 N 2029.43 -0.1002 1.57281 0
M  V30 20238 C 2030.34 -1.14039 2.05018 0
M  V30 20239 C 2031.36 -1.44178 0.974096 0
M  V30 20240 O 2032.53 -1.54921 1.28691 0
M  V30 20241 C 2029.6 -2.44226 2.46078 0
M  V30 20242 C 2028.66 -2.21315 3.67856 0
M  V30 20243 C 2027.89 -3.45295 4.06948 0
M  V30 20244 O 2028.12 -4.53334 3.46185 0
M  V30 20245 O 2027.05 -3.35185 4.99935 0
M  V30 20246 H 2030.88 -0.764957 2.93908 0
M  V30 20247 H 2028.46 -0.312347 1.46098 0
M  V30 20248 H 2030.34 -3.20895 2.73138 0
M  V30 20249 H 2029.02 -2.81206 1.60327 0
M  V30 20250 H 2027.92 -1.42444 3.4592 0
M  V30 20251 H 2029.26 -1.89231 4.54371 0
M  V30 20252 N 2030.91 -1.53174 -0.370891 0
M  V30 20253 C 2032.32 -1.60843 -0.94796 0
M  V30 20254 C 2032.67 -0.472528 -1.90425 0
M  V30 20255 O 2031.8 0.401822 -2.12637 0
M  V30 20256 C 2032.39 -2.91534 -1.72607 0
M  V30 20257 C 2030.95 -3.01557 -2.25257 0
M  V30 20258 C 2030.1 -2.561 -1.0634 0
M  V30 20259 H 2033.05 -1.57991 -0.149852 0
M  V30 20260 H 2033.07 -2.79038 -2.58685 0
M  V30 20261 H 2032.58 -3.74188 -1.02982 0
M  V30 20262 H 2030.68 -2.23479 -2.9814 0
M  V30 20263 H 2030.8 -4.06538 -2.53502 0
M  V30 20264 H 2029.16 -2.10849 -1.42881 0
M  V30 20265 H 2029.94 -3.41166 -0.38221 0
M  V30 20266 N 2032.39 0.630389 -1.44443 0
M  V30 20267 C 2033.63 1.39199 -1.47484 0
M  V30 20268 C 2033.97 1.93903 -0.107313 0
M  V30 20269 O 2033.24 1.73699 0.875158 0
M  V30 20270 C 2033.52 2.55674 -2.5358 0
M  V30 20271 C 2033.38 2.06314 -3.99693 0
M  V30 20272 C 2034.7 3.57858 -2.56174 0
M  V30 20273 H 2031.82 0.504794 -0.536984 0
M  V30 20274 H 2034.46 0.712698 -1.76127 0
M  V30 20275 H 2032.61 3.13624 -2.29287 0
M  V30 20276 H 2034.28 1.53189 -4.35122 0
M  V30 20277 H 2032.52 1.37492 -4.11435 0
M  V30 20278 H 2033.19 2.90173 -4.69578 0
M  V30 20279 H 2035.67 3.0971 -2.77883 0
M  V30 20280 H 2034.55 4.36875 -3.32312 0
M  V30 20281 H 2034.81 4.11976 -1.60401 0
M  V30 20282 N 2033.87 1.31354 0.870861 0
M  V30 20283 C 2035.28 1.18891 1.43951 0
M  V30 20284 C 2035.63 -0.204961 1.95126 0
M  V30 20285 O 2034.75 -1.10266 1.862 0
M  V30 20286 C 2035.35 2.15226 2.61655 0
M  V30 20287 C 2033.91 2.06699 3.14567 0
M  V30 20288 C 2033.05 2.04505 1.87277 0
M  V30 20289 H 2036 1.43418 0.679486 0
M  V30 20290 H 2036.03 1.74134 3.38316 0
M  V30 20291 H 2035.54 3.16664 2.24378 0
M  V30 20292 H 2033.64 1.08452 3.56467 0
M  V30 20293 H 2033.75 2.95763 3.7691 0
M  V30 20294 H 2032.12 1.49508 2.06202 0
M  V30 20295 H 2032.9 3.07698 1.52239 0
M  V30 20296 N 2035.34 -1.08505 1.143 0
M  V30 20297 C 2036.25 -2.18944 0.84266 0
M  V30 20298 C 2037.27 -1.73103 -0.17648 0
M  V30 20299 O 2038.45 -2.01399 -0.0052364 0
M  V30 20300 C 2035.51 -3.45189 0.323347 0
M  V30 20301 C 2034.57 -4.05661 1.40492 0
M  V30 20302 C 2033.8 -5.2588 0.910289 0
M  V30 20303 O 2034.03 -5.69858 -0.248616 0
M  V30 20304 O 2032.96 -5.77722 1.68882 0
M  V30 20305 H 2036.79 -2.47104 1.76559 0
M  V30 20306 H 2034.37 -1.17621 0.921181 0
M  V30 20307 H 2036.25 -4.21381 0.039611 0
M  V30 20308 H 2034.93 -3.18608 -0.571874 0
M  V30 20309 H 2033.84 -3.31061 1.7421 0
M  V30 20310 H 2035.17 -4.36488 2.27462 0
M  V30 20311 N 2036.82 -0.937962 -1.26649 0
M  V30 20312 C 2038.07 -0.582665 -1.93519 0
M  V30 20313 C 2038.39 0.880595 -1.73984 0
M  V30 20314 O 2037.66 1.62535 -1.09358 0
M  V30 20315 H 2036.24 -0.212501 -0.716137 0
M  V30 20316 H 2038.9 -1.19259 -1.54154 0
M  V30 20317 H 2038 -0.797692 -3.01734 0
M  V30 20318 N 2038.3 1.40971 -0.704618 0
M  V30 20319 C 2039.26 2.29137 -0.053886 0
M  V30 20320 C 2040.26 1.44828 0.698682 0
M  V30 20321 O 2041.45 1.65871 0.532221 0
M  V30 20322 C 2038.58 3.27859 0.933861 0
M  V30 20323 H 2039.78 2.88178 -0.830268 0
M  V30 20324 H 2037.33 1.49109 -0.468632 0
M  V30 20325 H 2038.07 2.73815 1.73769 0
M  V30 20326 H 2037.85 3.90082 0.397249 0
M  V30 20327 H 2039.34 3.93905 1.38669 0
M  V30 20328 N 2039.78 0.45001 1.51039 0
M  V30 20329 C 2040.71 -0.390998 2.2584 0
M  V30 20330 C 2041.72 -0.975406 1.30344 0
M  V30 20331 O 2042.91 -0.867391 1.56008 0
M  V30 20332 C 2040.01 -1.56025 3.00848 0
M  V30 20333 C 2039.19 -1.09244 4.23538 0
M  V30 20334 C 2038.24 -2.13329 4.81017 0
M  V30 20335 O 2037.27 -1.72246 5.42513 0
M  V30 20336 N 2038.47 -3.45941 4.6616 0
M  V30 20337 H 2041.24 0.250165 2.98654 0
M  V30 20338 H 2038.8 0.279599 1.59467 0
M  V30 20339 H 2040.79 -2.25304 3.36185 0
M  V30 20340 H 2039.36 -2.10651 2.30965 0
M  V30 20341 H 2038.58 -0.226269 3.9355 0
M  V30 20342 H 2039.87 -0.757479 5.0313 0
M  V30 20343 H 2039.27 -3.82042 4.17205 0
M  V30 20344 H 2037.82 -4.11078 5.05824 0
M  V30 20345 N 2041.26 -1.56548 0.18182 0
M  V30 20346 C 2042.19 -2.21471 -0.739774 0
M  V30 20347 C 2043.17 -1.17361 -1.23128 0
M  V30 20348 O 2044.35 -1.45825 -1.28253 0
M  V30 20349 C 2041.48 -2.86369 -1.96494 0
M  V30 20350 C 2040.44 -3.96609 -1.60888 0
M  V30 20351 C 2039.76 -4.48607 -2.90957 0
M  V30 20352 C 2041.06 -5.15681 -0.828895 0
M  V30 20353 H 2042.76 -2.98741 -0.19858 0
M  V30 20354 H 2040.3 -1.43692 -0.0940725 0
M  V30 20355 H 2042.26 -3.30466 -2.61477 0
M  V30 20356 H 2040.98 -2.06485 -2.53045 0
M  V30 20357 H 2039.64 -3.53184 -0.982694 0
M  V30 20358 H 2039.29 -3.65501 -3.45569 0
M  V30 20359 H 2038.99 -5.22984 -2.67882 0
M  V30 20360 H 2040.51 -4.95397 -3.56951 0
M  V30 20361 H 2041.92 -5.56405 -1.38153 0
M  V30 20362 H 2040.32 -5.96041 -0.696789 0
M  V30 20363 H 2041.39 -4.84592 0.172711 0
M  V30 20364 N 2042.73 0.0918577 -1.57332 0
M  V30 20365 C 2043.96 0.81208 -1.9084 0
M  V30 20366 C 2044.38 1.71329 -0.776394 0
M  V30 20367 O 2043.74 1.7925 0.271867 0
M  V30 20368 C 2043.79 1.59867 -3.23226 0
M  V30 20369 O 2042.89 2.70787 -3.11044 0
M  V30 20370 H 2042.24 0.222886 -0.625474 0
M  V30 20371 H 2044.77 0.0661119 -2.04493 0
M  V30 20372 H 2044.78 1.98221 -3.56613 0
M  V30 20373 H 2043.45 0.937296 -4.05201 0
M  V30 20374 H 2042.03 2.35438 -2.89177 0
M  V30 20375 N 2044.21 1.53368 0.362763 0
M  V30 20376 C 2045.46 1.69687 1.10511 0
M  V30 20377 C 2045.79 0.450107 1.8922 0
M  V30 20378 O 2045.04 -0.567977 1.87277 0
M  V30 20379 C 2045.34 2.89992 2.089 0
M  V30 20380 C 2045.01 4.26386 1.46649 0
M  V30 20381 C 2043.67 4.63475 1.294 0
M  V30 20382 C 2046.02 5.11194 1.01636 0
M  V30 20383 C 2043.35 5.83007 0.657259 0
M  V30 20384 C 2045.7 6.31374 0.393615 0
M  V30 20385 C 2044.37 6.67174 0.20864 0
M  V30 20386 H 2043.64 0.620928 0.404387 0
M  V30 20387 H 2046.28 1.87558 0.386572 0
M  V30 20388 H 2044.59 2.66646 2.87067 0
M  V30 20389 H 2046.28 2.99812 2.66296 0
M  V30 20390 H 2042.87 3.97184 1.61069 0
M  V30 20391 H 2047.06 4.83087 1.13755 0
M  V30 20392 H 2042.31 6.09332 0.502383 0
M  V30 20393 H 2046.49 6.9639 0.0366447 0
M  V30 20394 H 2044.12 7.59659 -0.286816 0
M  V30 20395 N 2045.69 -0.62272 1.44776 0
M  V30 20396 C 2046.94 -1.37937 1.47708 0
M  V30 20397 C 2047.26 -1.94665 0.114186 0
M  V30 20398 O 2046.53 -1.76277 -0.854583 0
M  V30 20399 H 2045.11 -0.512023 0.543914 0
M  V30 20400 H 2047.77 -0.732336 1.80618 0
M  V30 20401 H 2046.87 -2.20646 2.2073 0
M  V30 20402 N 2047.17 -1.31814 -0.863883 0
M  V30 20403 C 2048.12 -1.19916 -1.99306 0
M  V30 20404 C 2049.11 -0.106055 -1.69068 0
M  V30 20405 O 2050.32 -0.26836 -1.77988 0
M  V30 20406 H 2046.69 -0.371464 -0.653849 0
M  V30 20407 H 2048.66 -2.15436 -2.0647 0
M  V30 20408 C 2047.41 -0.929593 -3.35043 0
M  V30 20409 H 2046.73 -1.76288 -3.58835 0
M  V30 20410 H 2048.17 -0.886553 -4.14628 0
M  V30 20411 C 2046.63 0.367677 -3.34888 0
M  V30 20412 O 2047.16 1.38252 -3.77159 0
M  V30 20413 N 2045.37 0.386376 -2.8802 0
M  V30 20414 H 2044.92 -0.439994 -2.53815 0
M  V30 20415 H 2044.87 1.25425 -2.88299 0
M  V30 20416 N 2048.65 1.07897 -1.14873 0
M  V30 20417 C 2049.89 1.80386 -0.920169 0
M  V30 20418 C 2050.22 1.86473 0.553002 0
M  V30 20419 O 2049.48 1.3404 1.4259 0
M  V30 20420 C 2049.78 3.25649 -1.47267 0
M  V30 20421 C 2049.44 3.39671 -2.96537 0
M  V30 20422 C 2048.1 3.43205 -3.37288 0
M  V30 20423 C 2050.46 3.42923 -3.92496 0
M  V30 20424 C 2047.78 3.47589 -4.72651 0
M  V30 20425 C 2050.14 3.48843 -5.27723 0
M  V30 20426 C 2048.8 3.50652 -5.67978 0
M  V30 20427 H 2048.07 0.66008 -0.336714 0
M  V30 20428 H 2050.72 1.27004 -1.43326 0
M  V30 20429 H 2049.02 3.81775 -0.880635 0
M  V30 20430 H 2050.72 3.80301 -1.2717 0
M  V30 20431 H 2047.31 3.37615 -2.64034 0
M  V30 20432 H 2051.49 3.39419 -3.62089 0
M  V30 20433 H 2046.75 3.47285 -5.03193 0
M  V30 20434 H 2050.92 3.50305 -6.0188 0
M  V30 20435 H 2048.55 3.53802 -6.72851 0
M  V30 20436 N 2050.12 0.944665 1.2615 0
M  V30 20437 C 2051.09 0.461547 2.24505 0
M  V30 20438 C 2052.09 -0.429277 1.54964 0
M  V30 20439 O 2053.28 -0.227965 1.72702 0
M  V30 20440 C 2050.41 -0.334363 3.39256 0
M  V30 20441 H 2051.6 1.33075 2.68758 0
M  V30 20442 H 2049.16 0.726968 1.38365 0
M  V30 20443 H 2049.89 -1.22167 3.00409 0
M  V30 20444 H 2049.68 0.304588 3.90915 0
M  V30 20445 H 2051.17 -0.662181 4.12317 0
M  V30 20446 N 2051.6 -1.40596 0.712085 0
M  V30 20447 C 2052.53 -2.29193 0.0179139 0
M  V30 20448 C 2053.55 -1.45646 -0.727389 0
M  V30 20449 O 2054.74 -1.68973 -0.575349 0
M  V30 20450 C 2051.84 -3.23845 -0.998876 0
M  V30 20451 C 2051.01 -4.36229 -0.319822 0
M  V30 20452 C 2050.07 -5.11344 -1.24151 0
M  V30 20453 O 2049.09 -5.6453 -0.727627 0
M  V30 20454 N 2050.3 -5.20369 -2.57287 0
M  V30 20455 H 2053.06 -2.89409 0.778623 0
M  V30 20456 H 2050.62 -1.51928 0.559432 0
M  V30 20457 H 2052.61 -3.70968 -1.61757 0
M  V30 20458 H 2051.18 -2.64821 -1.66098 0
M  V30 20459 H 2050.4 -3.91279 0.479012 0
M  V30 20460 H 2051.69 -5.08574 0.151681 0
M  V30 20461 H 2051.09 -4.78635 -3.01538 0
M  V30 20462 H 2049.65 -5.7101 -3.14309 0
M  V30 20463 N 2053.08 -0.458013 -1.50798 0
M  V30 20464 C 2054.01 0.333063 -2.31112 0
M  V30 20465 C 2054.99 1.00231 -1.37433 0
M  V30 20466 O 2056.18 1.00199 -1.66354 0
M  V30 20467 C 2053.31 1.4229 -3.16814 0
M  V30 20468 C 2052.26 0.875993 -4.1894 0
M  V30 20469 C 2051.59 2.06313 -4.93294 0
M  V30 20470 C 2052.89 -0.103786 -5.22197 0
M  V30 20471 H 2054.58 -0.337222 -2.97495 0
M  V30 20472 H 2052.13 -0.163622 -1.43067 0
M  V30 20473 H 2054.08 1.98369 -3.7179 0
M  V30 20474 H 2052.8 2.12177 -2.48291 0
M  V30 20475 H 2051.46 0.337263 -3.65045 0
M  V30 20476 H 2051.11 2.74868 -4.21256 0
M  V30 20477 H 2050.81 1.70348 -5.62366 0
M  V30 20478 H 2052.33 2.62908 -5.511 0
M  V30 20479 H 2053.75 0.367392 -5.72122 0
M  V30 20480 H 2052.15 -0.377048 -5.98914 0
M  V30 20481 H 2053.22 -1.03392 -4.73749 0
M  V30 20482 N 2054.56 1.56449 -0.190119 0
M  V30 20483 C 2055.81 1.97048 0.449068 0
M  V30 20484 C 2056.13 1.07797 1.62496 0
M  V30 20485 O 2055.4 0.148203 1.95339 0
M  V30 20486 H 2053.98 0.727656 0.168896 0
M  V30 20487 H 2056.64 1.9294 -0.275691 0
M  V30 20488 H 2055.74 3.01764 0.79653 0
M  V30 20489 N 2056.04 -0.0835127 1.57379 0
M  V30 20490 C 2056.99 -1.1071 1.99317 0
M  V30 20491 C 2057.97 -1.35133 0.873384 0
M  V30 20492 O 2059.16 -1.3563 1.13726 0
M  V30 20493 C 2056.29 -2.42414 2.43085 0
M  V30 20494 C 2055.38 -2.21315 3.61774 0
M  V30 20495 N 2055.77 -1.70115 4.76335 0
M  V30 20496 C 2054.07 -2.51836 3.68096 0
M  V30 20497 C 2054.77 -1.63558 5.58233 0
M  V30 20498 N 2053.74 -2.09189 5.01738 0
M  V30 20499 H 2057.55 -0.704359 2.85335 0
M  V30 20500 H 2055.06 -0.290768 1.59776 0
M  V30 20501 H 2057.06 -3.16492 2.71364 0
M  V30 20502 H 2055.72 -2.83415 1.58449 0
M  V30 20503 H 2056.73 -1.39146 4.98858 0
M  V30 20504 H 2053.41 -2.96283 2.94147 0
M  V30 20505 H 2054.8 -1.24924 6.60184 0
M  V30 20506 N 2057.52 -1.53558 -0.354624 0
M  V30 20507 C 2058.43 -1.83745 -1.4586 0
M  V30 20508 C 2059.44 -0.72668 -1.58099 0
M  V30 20509 O 2060.62 -1.01786 -1.73786 0
M  V30 20510 C 2057.68 -2.03089 -2.80991 0
M  V30 20511 C 2056.74 -3.26971 -2.78187 0
M  V30 20512 C 2055.98 -3.45383 -4.06874 0
M  V30 20513 O 2056.2 -2.6786 -5.03594 0
M  V30 20514 O 2055.13 -4.38776 -4.12019 0
M  V30 20515 H 2058.96 -2.77557 -1.23271 0
M  V30 20516 H 2056.54 -1.39075 -0.545763 0
M  V30 20517 H 2058.43 -2.17321 -3.6104 0
M  V30 20518 H 2057.1 -1.12466 -3.03534 0
M  V30 20519 H 2056.01 -3.18153 -1.96798 0
M  V30 20520 H 2057.34 -4.17552 -2.60598 0
M  V30 20521 N 2058.99 0.615033 -1.45104 0
M  V30 20522 C 2060.22 1.40596 -1.52471 0
M  V30 20523 C 2060.64 1.87454 -0.155745 0
M  V30 20524 O 2060 1.59701 0.858209 0
M  V30 20525 C 2060.05 2.59156 -2.5074 0
M  V30 20526 O 2059.15 3.59538 -2.02006 0
M  V30 20527 H 2058.49 0.420045 -0.514255 0
M  V30 20528 H 2061.02 0.749208 -1.90389 0
M  V30 20529 H 2061.03 3.06496 -2.69303 0
M  V30 20530 H 2059.71 2.24399 -3.50169 0
M  V30 20531 H 2058.29 3.18897 -1.93284 0
M  V30 20532 N 2060.47 1.3227 0.85688 0
M  V30 20533 C 2061.72 1.22703 1.6109 0
M  V30 20534 C 2062.05 -0.211682 1.93345 0
M  V30 20535 O 2061.3 -1.16408 1.57314 0
M  V30 20536 C 2061.6 2.02967 2.94175 0
M  V30 20537 C 2061.27 3.52346 2.8136 0
M  V30 20538 C 2059.93 3.93074 2.77572 0
M  V30 20539 C 2062.28 4.47347 2.67452 0
M  V30 20540 C 2059.61 5.27049 2.57751 0
M  V30 20541 C 2061.96 5.81463 2.49167 0
M  V30 20542 C 2060.62 6.21396 2.4377 0
M  V30 20543 H 2059.89 0.449003 0.589472 0
M  V30 20544 H 2062.54 1.63673 0.994156 0
M  V30 20545 H 2060.85 1.54719 3.59957 0
M  V30 20546 H 2062.54 1.92936 3.51535 0
M  V30 20547 H 2059.13 3.19997 2.85132 0
M  V30 20548 H 2063.32 4.16802 2.69424 0
M  V30 20549 H 2058.57 5.57048 2.52007 0
M  V30 20550 H 2062.75 6.54692 2.37384 0
M  V30 20551 H 2060.37 7.2515 2.28171 0
M  V30 20552 N 2061.95 -1.07287 1.15444 0
M  V30 20553 C 2063.18 -1.83348 0.952215 0
M  V30 20554 C 2063.59 -1.82396 -0.50282 0
M  V30 20555 O 2062.93 -1.23432 -1.36052 0
M  V30 20556 C 2062.99 -3.31539 1.39004 0
M  V30 20557 C 2062.66 -3.56209 2.86293 0
M  V30 20558 C 2063.65 -3.50097 3.84354 0
M  V30 20559 C 2061.34 -3.83854 3.23977 0
M  V30 20560 C 2063.33 -3.7128 5.18102 0
M  V30 20561 C 2061.02 -4.04688 4.57898 0
M  V30 20562 C 2062.02 -3.98396 5.5477 0
M  V30 20563 O 2061.71 -4.18672 6.86271 0
M  V30 20564 H 2061.44 -0.585295 0.338239 0
M  V30 20565 H 2063.99 -1.36329 1.53634 0
M  V30 20566 H 2062.22 -3.79371 0.74932 0
M  V30 20567 H 2063.91 -3.89066 1.15682 0
M  V30 20568 H 2064.68 -3.28741 3.56587 0
M  V30 20569 H 2060.56 -3.87866 2.49161 0
M  V30 20570 H 2064.1 -3.66284 5.93702 0
M  V30 20571 H 2060 -4.25531 4.8538 0
M  V30 20572 H 2060.76 -4.36016 6.92699 0
M  V30 20573 N 2063.43 -0.951342 -1.25647 0
M  V30 20574 C 2064.67 -0.614797 -1.93886 0
M  V30 20575 C 2065.03 0.838497 -1.73168 0
M  V30 20576 O 2064.32 1.5933 -1.06417 0
M  V30 20577 C 2064.52 -0.9052 -3.45747 0
M  V30 20578 C 2064.34 -2.38517 -3.81234 0
M  V30 20579 C 2063.11 -3.04215 -4.03462 0
M  V30 20580 C 2065.31 -3.36431 -3.88997 0
M  V30 20581 N 2063.29 -4.42119 -4.25916 0
M  V30 20582 C 2064.67 -4.5963 -4.16101 0
M  V30 20583 C 2066.72 -3.31315 -3.71665 0
M  V30 20584 C 2065.42 -5.78348 -4.27676 0
M  V30 20585 C 2067.45 -4.49368 -3.84477 0
M  V30 20586 C 2066.81 -5.71352 -4.1199 0
M  V30 20587 H 2062.91 -0.275524 -0.731854 0
M  V30 20588 H 2065.49 -1.22284 -1.51508 0
M  V30 20589 H 2063.67 -0.326116 -3.87028 0
M  V30 20590 H 2065.4 -0.528894 -4.01229 0
M  V30 20591 H 2062.15 -2.54797 -3.99219 0
M  V30 20592 H 2062.58 -5.13529 -4.41155 0
M  V30 20593 H 2067.22 -2.38054 -3.49414 0
M  V30 20594 H 2064.94 -6.72052 -4.48745 0
M  V30 20595 H 2068.52 -4.46953 -3.72457 0
M  V30 20596 H 2067.4 -6.61176 -4.21682 0
M  V30 20597 N 2064.91 1.40216 -0.719531 0
M  V30 20598 C 2065.84 2.2918 -0.0300683 0
M  V30 20599 C 2066.85 1.4603 0.719654 0
M  V30 20600 O 2068.04 1.69276 0.56638 0
M  V30 20601 C 2065.14 3.2437 0.981688 0
M  V30 20602 C 2064.31 4.36393 0.296683 0
M  V30 20603 C 2063.37 5.11996 1.21437 0
M  V30 20604 O 2062.4 5.64908 0.697679 0
M  V30 20605 N 2063.6 5.21726 2.54524 0
M  V30 20606 H 2066.36 2.88992 -0.79396 0
M  V30 20607 H 2063.93 1.51629 -0.567481 0
M  V30 20608 H 2065.92 3.7182 1.59787 0
M  V30 20609 H 2064.49 2.65699 1.64691 0
M  V30 20610 H 2063.71 3.91019 -0.499755 0
M  V30 20611 H 2065 5.08486 -0.17865 0
M  V30 20612 H 2064.39 4.80227 2.98996 0
M  V30 20613 H 2062.95 5.72669 3.11277 0
M  V30 20614 N 2066.38 0.466004 1.50553 0
M  V30 20615 C 2067.31 -0.320802 2.31286 0
M  V30 20616 C 2068.29 -0.995008 1.37962 0
M  V30 20617 O 2069.48 -0.993158 1.66883 0
M  V30 20618 C 2066.61 -1.40607 3.17564 0
M  V30 20619 C 2065.56 -0.853763 4.19398 0
M  V30 20620 C 2064.89 -2.03694 4.94381 0
M  V30 20621 C 2066.19 0.131478 5.22134 0
M  V30 20622 H 2067.88 0.352995 2.97312 0
M  V30 20623 H 2065.43 0.171207 1.42979 0
M  V30 20624 H 2067.38 -1.96395 3.72836 0
M  V30 20625 H 2066.11 -2.10857 2.49413 0
M  V30 20626 H 2064.77 -0.317899 3.65219 0
M  V30 20627 H 2064.41 -2.7263 4.22708 0
M  V30 20628 H 2064.11 -1.67364 5.63261 0
M  V30 20629 H 2065.64 -2.59982 5.52487 0
M  V30 20630 H 2067.05 -0.337046 5.72308 0
M  V30 20631 H 2065.45 0.408804 5.98706 0
M  V30 20632 H 2066.52 1.05903 4.73194 0
M  V30 20633 N 2067.86 -1.56346 0.198413 0
M  V30 20634 C 2069.27 -1.84047 -0.313597 0
M  V30 20635 C 2069.62 -1.11918 -1.61148 0
M  V30 20636 O 2068.75 -0.381091 -2.13018 0
M  V30 20637 C 2069.34 -3.33872 -0.575755 0
M  V30 20638 C 2067.9 -3.61973 -1.03213 0
M  V30 20639 C 2067.05 -2.77177 -0.0825349 0
M  V30 20640 H 2070 -1.52983 0.422128 0
M  V30 20641 H 2070.02 -3.52823 -1.42466 0
M  V30 20642 H 2069.53 -3.86341 0.369036 0
M  V30 20643 H 2067.63 -3.14939 -1.99108 0
M  V30 20644 H 2067.75 -4.70134 -0.922545 0
M  V30 20645 H 2066.11 -2.4789 -0.585043 0
M  V30 20646 H 2066.89 -3.32437 0.856759 0
M  V30 20647 N 2069.34 0.0751653 -1.57421 0
M  V30 20648 C 2070.25 1.10763 -2.06806 0
M  V30 20649 C 2071.27 1.4261 -0.99691 0
M  V30 20650 O 2072.44 1.52854 -1.31139 0
M  V30 20651 C 2069.51 2.40281 -2.49932 0
M  V30 20652 C 2068.57 2.15435 -3.7133 0
M  V30 20653 C 2067.8 3.38777 -4.1239 0
M  V30 20654 O 2068.02 4.4777 -3.53353 0
M  V30 20655 O 2066.96 3.27189 -5.05204 0
M  V30 20656 H 2070.78 0.718102 -2.95088 0
M  V30 20657 H 2068.37 0.289065 -1.46577 0
M  V30 20658 H 2070.25 3.16509 -2.78208 0
M  V30 20659 H 2068.93 2.7862 -1.64781 0
M  V30 20660 H 2067.83 1.36922 -3.48142 0
M  V30 20661 H 2069.17 1.81978 -4.57324 0
M  V30 20662 N 2070.82 1.53744 0.346476 0
M  V30 20663 C 2072.05 1.74784 1.10717 0
M  V30 20664 C 2072.46 0.485625 1.82448 0
M  V30 20665 O 2071.82 -0.542565 1.74248 0
M  V30 20666 C 2071.87 2.926 2.1229 0
M  V30 20667 O 2071.59 4.13939 1.43477 0
M  V30 20668 C 2073.09 3.25667 3.00758 0
M  V30 20669 H 2070.31 0.58408 0.33029 0
M  V30 20670 H 2072.86 2.00558 0.399573 0
M  V30 20671 H 2071.01 2.69165 2.7862 0
M  V30 20672 H 2071.42 4.80051 2.11308 0
M  V30 20673 H 2072.9 4.11463 3.6797 0
M  V30 20674 H 2073.38 2.41845 3.66617 0
M  V30 20675 H 2073.98 3.51098 2.40022 0
M  V30 20676 N 2072.3 -0.607329 1.45428 0
M  V30 20677 C 2073.53 -1.39094 1.52763 0
M  V30 20678 C 2073.93 -1.8853 0.159113 0
M  V30 20679 O 2073.28 -1.62873 -0.849596 0
M  V30 20680 C 2073.34 -2.62994 2.45101 0
M  V30 20681 C 2073 -2.35195 3.91832 0
M  V30 20682 C 2074 -1.95542 4.81725 0
M  V30 20683 C 2071.69 -2.48099 4.36752 0
M  V30 20684 C 2073.68 -1.69154 6.14545 0
M  V30 20685 C 2071.37 -2.21325 5.69613 0
M  V30 20686 C 2072.36 -1.81914 6.58328 0
M  V30 20687 O 2072.05 -1.55453 7.88727 0
M  V30 20688 H 2071.78 -0.432173 0.51981 0
M  V30 20689 H 2074.34 -0.747733 1.91306 0
M  V30 20690 H 2072.57 -3.30035 2.01528 0
M  V30 20691 H 2074.26 -3.25037 2.43116 0
M  V30 20692 H 2075.02 -1.85109 4.48285 0
M  V30 20693 H 2070.9 -2.77741 3.67941 0
M  V30 20694 H 2074.45 -1.38318 6.8375 0
M  V30 20695 H 2070.34 -2.31375 6.02608 0
M  V30 20696 H 2071.11 -1.69503 8.00757 0
M  V30 20697 N 2073.77 -1.32722 -0.849853 0
M  V30 20698 C 2074.71 -1.1789 -1.96557 0
M  V30 20699 C 2075.72 -0.112655 -1.6241 0
M  V30 20700 O 2076.91 -0.362063 -1.74789 0
M  V30 20701 C 2074.01 -0.783347 -3.29722 0
M  V30 20702 C 2073.18 -1.9389 -3.92078 0
M  V30 20703 C 2072.24 -1.52611 -5.03583 0
M  V30 20704 O 2071.27 -2.23885 -5.2332 0
M  V30 20705 N 2072.47 -0.424856 -5.78943 0
M  V30 20706 H 2075.23 -2.13998 -2.09821 0
M  V30 20707 H 2072.79 -1.25323 -1.02498 0
M  V30 20708 H 2074.79 -0.489511 -4.01729 0
M  V30 20709 H 2073.36 0.0867245 -3.1248 0
M  V30 20710 H 2072.58 -2.39897 -3.12799 0
M  V30 20711 H 2073.86 -2.71238 -4.30473 0
M  V30 20712 H 2073.26 0.168251 -5.6545 0
M  V30 20713 H 2071.82 -0.190647 -6.51521 0
M  V30 20714 N 2075.25 1.06673 -1.16011 0
M  V30 20715 C 2076.5 1.79046 -0.937394 0
M  V30 20716 C 2076.82 1.87476 0.536438 0
M  V30 20717 O 2076.09 1.38065 1.38977 0
M  V30 20718 H 2074.67 0.663167 -0.343829 0
M  V30 20719 H 2077.33 1.28878 -1.46207 0
M  V30 20720 H 2076.43 2.81259 -1.35278 0
M  V30 20721 N 2076.73 0.957992 1.25141 0
M  V30 20722 C 2078.01 0.531835 1.88231 0
M  V30 20723 C 2078.39 -0.990946 1.86396 0
M  V30 20724 O 2077.74 -1.85817 1.32983 0
M  V30 20725 C 2077.95 1.11229 3.30801 0
M  V30 20726 C 2079.29 1.19121 4.07548 0
M  V30 20727 O 2080.32 1.06409 3.39935 0
M  V30 20728 O 2079.18 1.39103 5.285 0
M  V30 20729 H 2076.27 0.175926 0.808071 0
M  V30 20730 H 2078.82 1.05164 1.33187 0
M  V30 20731 H 2077.59 2.15542 3.26584 0
M  V30 20732 H 2077.21 0.575942 3.93406 0
M  V30 20733 N 2078.21 -1.39832 0.726957 0
M  V30 20734 C 2079.16 -2.30655 0.0817379 0
M  V30 20735 C 2080.13 -1.48792 -0.738257 0
M  V30 20736 O 2081.31 -1.775 -0.699873 0
M  V30 20737 C 2078.45 -3.35079 -0.825599 0
M  V30 20738 C 2077.56 -4.32 0.006145 0
M  V30 20739 C 2076.7 -5.23491 -0.90172 0
M  V30 20740 C 2075.74 -6.12066 -0.064744 0
M  V30 20741 N 2074.87 -6.95939 -0.928103 0
M  V30 20742 H 2079.71 -2.85263 0.861906 0
M  V30 20743 H 2077.25 -1.40468 0.436709 0
M  V30 20744 H 2079.21 -3.94203 -1.36602 0
M  V30 20745 H 2077.84 -2.81946 -1.57183 0
M  V30 20746 H 2076.89 -3.74562 0.66389 0
M  V30 20747 H 2078.2 -4.94499 0.65365 0
M  V30 20748 H 2077.36 -5.87602 -1.51027 0
M  V30 20749 H 2076.1 -4.61294 -1.58302 0
M  V30 20750 H 2075.1 -5.46975 0.556665 0
M  V30 20751 H 2076.33 -6.76326 0.613222 0
M  V30 20752 H 2074.27 -6.36318 -1.59484 0
M  V30 20753 H 2074.19 -7.55249 -0.336895 0
M  V30 20754 H 2075.46 -7.64487 -1.52247 0
M  V30 20755 N 2079.69 -0.473982 -1.50304 0
M  V30 20756 C 2080.93 0.0801282 -2.02642 0
M  V30 20757 C 2081.27 1.3911 -1.35506 0
M  V30 20758 O 2080.54 1.8844 -0.481719 0
M  V30 20759 C 2080.82 0.26092 -3.59153 0
M  V30 20760 C 2080.68 -1.07128 -4.36857 0
M  V30 20761 C 2082 1.01413 -4.28256 0
M  V30 20762 H 2079.11 0.0276467 -0.736481 0
M  V30 20763 H 2081.76 -0.620135 -1.79595 0
M  V30 20764 H 2079.91 0.857378 -3.78921 0
M  V30 20765 H 2081.58 -1.70454 -4.28653 0
M  V30 20766 H 2079.82 -1.66721 -4.00483 0
M  V30 20767 H 2080.49 -0.898389 -5.4464 0
M  V30 20768 H 2082.97 0.508536 -4.12981 0
M  V30 20769 H 2081.84 1.10943 -5.37571 0
M  V30 20770 H 2082.11 2.05141 -3.91624 0
M  V30 20771 N 2081.16 1.56239 -0.206702 0
M  V30 20772 C 2082.13 2.18382 0.695843 0
M  V30 20773 C 2083.13 1.14149 1.13255 0
M  V30 20774 O 2084.32 1.39468 1.04376 0
M  V30 20775 C 2081.45 2.79522 1.95141 0
M  V30 20776 H 2082.64 2.99503 0.154275 0
M  V30 20777 H 2080.2 1.56241 0.0429222 0
M  V30 20778 H 2080.93 2.02231 2.53521 0
M  V30 20779 H 2080.72 3.55837 1.64689 0
M  V30 20780 H 2082.21 3.27203 2.59476 0
M  V30 20781 N 2082.64 -0.0668159 1.57458 0
M  V30 20782 C 2083.61 -1.06329 2.03044 0
M  V30 20783 C 2084.61 -1.31301 0.928259 0
M  V30 20784 O 2085.8 -1.26938 1.193 0
M  V30 20785 C 2082.93 -2.40573 2.41532 0
M  V30 20786 H 2084.12 -0.67029 2.92313 0
M  V30 20787 H 2081.67 -0.312678 1.53141 0
M  V30 20788 H 2082.41 -2.84695 1.55303 0
M  V30 20789 H 2082.19 -2.23788 3.21965 0
M  V30 20790 H 2083.68 -3.12189 2.77359 0
M  V30 20791 N 2084.12 -1.53926 -0.338317 0
M  V30 20792 C 2085.35 -1.75114 -1.0963 0
M  V30 20793 C 2085.76 -0.492691 -1.82672 0
M  V30 20794 O 2085.1 0.545601 -1.75411 0
M  V30 20795 C 2085.16 -2.88063 -2.15081 0
M  V30 20796 C 2084.83 -4.27487 -1.61568 0
M  V30 20797 C 2085.83 -5.0887 -1.06523 0
M  V30 20798 C 2083.51 -4.73988 -1.66256 0
M  V30 20799 C 2085.5 -6.34857 -0.568774 0
M  V30 20800 C 2083.19 -5.99946 -1.16223 0
M  V30 20801 C 2084.19 -6.80214 -0.616267 0
M  V30 20802 O 2083.88 -8.03805 -0.123412 0
M  V30 20803 H 2083.61 -0.588533 -0.332572 0
M  V30 20804 H 2086.16 -2.01572 -0.394676 0
M  V30 20805 H 2084.39 -2.57141 -2.88817 0
M  V30 20806 H 2086.08 -2.97172 -2.76485 0
M  V30 20807 H 2086.85 -4.74106 -1.02219 0
M  V30 20808 H 2082.73 -4.11564 -2.07692 0
M  V30 20809 H 2086.27 -6.97456 -0.141967 0
M  V30 20810 H 2082.17 -6.34204 -1.2023 0
M  V30 20811 H 2082.94 -8.18147 -0.240214 0
M  V30 20812 N 2085.6 0.599608 -1.45748 0
M  V30 20813 C 2086.85 1.3557 -1.49884 0
M  V30 20814 C 2087.17 1.94459 -0.145141 0
M  V30 20815 O 2086.44 1.77615 0.82643 0
M  V30 20816 H 2085.02 0.503305 -0.551991 0
M  V30 20817 H 2087.68 0.703509 -1.8176 0
M  V30 20818 H 2086.78 2.17106 -2.24213 0
M  V30 20819 N 2087.08 1.33171 0.842803 0
M  V30 20820 C 2088.33 1.24159 1.59464 0
M  V30 20821 C 2088.65 -0.193595 1.94037 0
M  V30 20822 O 2087.92 -1.12135 1.60632 0
M  V30 20823 H 2086.5 0.456555 0.591241 0
M  V30 20824 H 2089.16 1.66842 1.00746 0
M  V30 20825 H 2088.25 1.83255 2.52634 0
M  V30 20826 N 2088.56 -1.06056 1.16576 0
M  V30 20827 C 2089.5 -2.13591 0.874513 0
M  V30 20828 C 2090.47 -1.65143 -0.178027 0
M  V30 20829 O 2091.66 -1.90752 -0.0427107 0
M  V30 20830 C 2088.8 -3.42953 0.384377 0
M  V30 20831 C 2087.91 -4.05121 1.50002 0
M  V30 20832 C 2087.05 -5.22367 0.964658 0
M  V30 20833 C 2086.08 -5.76525 2.05635 0
M  V30 20834 N 2085.22 -6.85084 1.53639 0
M  V30 20835 H 2090.06 -2.37842 1.79541 0
M  V30 20836 H 2087.6 -1.16692 0.895622 0
M  V30 20837 H 2089.56 -4.1712 0.0818205 0
M  V30 20838 H 2088.19 -3.18911 -0.499573 0
M  V30 20839 H 2087.24 -3.28478 1.91849 0
M  V30 20840 H 2088.55 -4.41366 2.32374 0
M  V30 20841 H 2087.7 -6.03571 0.615426 0
M  V30 20842 H 2086.44 -4.87575 0.110275 0
M  V30 20843 H 2085.45 -4.93957 2.41425 0
M  V30 20844 H 2086.67 -6.13368 2.91474 0
M  V30 20845 H 2084.62 -6.52205 0.70458 0
M  V30 20846 H 2084.54 -7.20283 2.29626 0
M  V30 20847 H 2085.8 -7.6996 1.21581 0
M  V30 20848 N 2090.03 -0.964615 -1.24631 0
M  V30 20849 C 2090.96 -0.511091 -2.27838 0
M  V30 20850 C 2091.94 0.447692 -1.64103 0
M  V30 20851 O 2093.13 0.344485 -1.9112 0
M  V30 20852 C 2090.26 0.202467 -3.46709 0
M  V30 20853 C 2089.21 -0.672032 -4.22691 0
M  V30 20854 C 2088.54 0.172842 -5.34421 0
M  V30 20855 C 2089.84 -1.9551 -4.84327 0
M  V30 20856 H 2091.53 -1.37371 -2.66025 0
M  V30 20857 H 2089.08 -0.661983 -1.27882 0
M  V30 20858 H 2091.03 0.530942 -4.18042 0
M  V30 20859 H 2089.76 1.09942 -3.07539 0
M  V30 20860 H 2088.42 -0.983734 -3.53155 0
M  V30 20861 H 2088.06 1.06985 -4.91491 0
M  V30 20862 H 2087.76 -0.409046 -5.86175 0
M  V30 20863 H 2089.29 0.496057 -6.08582 0
M  V30 20864 H 2090.7 -1.69241 -5.4775 0
M  V30 20865 H 2089.1 -2.48346 -5.46301 0
M  V30 20866 H 2090.17 -2.65197 -4.05954 0
M  V30 20867 N 2091.51 1.39445 -0.734362 0
M  V30 20868 C 2092.93 1.54247 -0.409878 0
M  V30 20869 C 2093.13 1.70155 1.07933 0
M  V30 20870 O 2092.18 1.70169 1.86545 0
M  V30 20871 C 2093.5 2.7605 -1.19234 0
M  V30 20872 C 2095.04 2.89885 -1.1805 0
M  V30 20873 C 2095.52 4.14625 -1.94552 0
M  V30 20874 N 2097.01 4.21663 -1.91715 0
M  V30 20875 C 2097.75 5.1713 -2.47717 0
M  V30 20876 N 2097.24 6.1839 -3.12354 0
M  V30 20877 N 2099.03 5.09342 -2.37754 0
M  V30 20878 H 2091.19 1.27367 -1.69975 0
M  V30 20879 H 2093.45 0.61727 -0.719501 0
M  V30 20880 H 2093.15 2.70636 -2.24609 0
M  V30 20881 H 2093.03 3.68698 -0.796363 0
M  V30 20882 H 2095.42 2.94792 -0.13489 0
M  V30 20883 H 2095.5 1.98302 -1.61585 0
M  V30 20884 H 2095.14 4.10479 -2.99114 0
M  V30 20885 H 2095.07 5.0525 -1.48424 0
M  V30 20886 H 2097.56 3.4913 -1.44625 0
M  V30 20887 H 2097.87 6.87695 -3.52555 0
M  V30 20888 H 2096.22 6.1878 -3.16444 0
M  V30 20889 H 2099.41 4.29169 -1.86901 0
M  V30 20890 H 2099.58 5.83567 -2.81698 0
M  V30 20891 N 2092.99 0.481946 1.5005 0
M  V30 20892 C 2094.22 -0.0665508 2.06493 0
M  V30 20893 C 2094.63 -1.3309 1.34476 0
M  V30 20894 O 2093.97 -1.79046 0.410882 0
M  V30 20895 C 2094.03 -0.409721 3.57158 0
M  V30 20896 C 2093.7 0.754158 4.50734 0
M  V30 20897 C 2094.69 1.63929 4.93379 0
M  V30 20898 C 2092.38 0.947563 4.93281 0
M  V30 20899 C 2094.37 2.70214 5.77289 0
M  V30 20900 C 2092.06 2.01362 5.76972 0
M  V30 20901 C 2093.06 2.88927 6.18878 0
M  V30 20902 O 2092.75 3.93695 7.00899 0
M  V30 20903 H 2092.48 0.00864043 0.675945 0
M  V30 20904 H 2095.03 0.672929 1.94064 0
M  V30 20905 H 2093.26 -1.20254 3.67527 0
M  V30 20906 H 2094.95 -0.894578 3.95919 0
M  V30 20907 H 2095.72 1.5016 4.61169 0
M  V30 20908 H 2091.6 0.275431 4.60176 0
M  V30 20909 H 2095.14 3.38592 6.09919 0
M  V30 20910 H 2091.04 2.15133 6.08595 0
M  V30 20911 H 2091.8 3.90816 7.1917 0
M  V30 20912 N 2094.47 -1.56127 0.214985 0
M  V30 20913 C 2095.7 -2.02519 -0.423533 0
M  V30 20914 C 2096.11 -1.0949 -1.5381 0
M  V30 20915 O 2095.47 -0.103303 -1.82207 0
M  V30 20916 C 2095.52 -3.48484 -0.961313 0
M  V30 20917 O 2095.24 -4.37965 0.108806 0
M  V30 20918 C 2096.74 -4.10489 -1.67373 0
M  V30 20919 H 2093.96 -0.662835 -0.104359 0
M  V30 20920 H 2096.5 -2.01828 0.329517 0
M  V30 20921 H 2094.66 -3.49811 -1.66466 0
M  V30 20922 H 2095.07 -5.23673 -0.294413 0
M  V30 20923 H 2096.55 -5.14412 -2.00209 0
M  V30 20924 H 2097.02 -3.55102 -2.58455 0
M  V30 20925 H 2097.63 -4.12992 -1.01575 0
M  V30 20926 N 2095.95 0.0584645 -1.57492 0
M  V30 20927 C 2096.88 1.0681 -2.07639 0
M  V30 20928 C 2097.86 1.3955 -0.972622 0
M  V30 20929 O 2099.04 1.48946 -1.24615 0
M  V30 20930 C 2096.17 2.37774 -2.53142 0
M  V30 20931 C 2095.13 2.19354 -3.67516 0
M  V30 20932 C 2094.45 3.5582 -3.9912 0
M  V30 20933 C 2095.75 1.60379 -4.97067 0
M  V30 20934 H 2097.45 0.650765 -2.92242 0
M  V30 20935 H 2094.99 0.311587 -1.40589 0
M  V30 20936 H 2096.94 3.08709 -2.86839 0
M  V30 20937 H 2095.67 2.81513 -1.65583 0
M  V30 20938 H 2094.33 1.50858 -3.34122 0
M  V30 20939 H 2093.98 3.97153 -3.08672 0
M  V30 20940 H 2093.68 3.4433 -4.76142 0
M  V30 20941 H 2095.2 4.28164 -4.35325 0
M  V30 20942 H 2096.61 2.21195 -5.2891 0
M  V30 20943 H 2095.01 1.59548 -5.78502 0
M  V30 20944 H 2096.08 0.566547 -4.81579 0
M  V30 20945 N 2097.42 1.54103 0.330149 0
M  V30 20946 C 2098.65 1.76264 1.09297 0
M  V30 20947 C 2099.07 0.5067 1.81147 0
M  V30 20948 O 2098.43 -0.541409 1.73027 0
M  V30 20949 C 2098.48 2.95141 2.07181 0
M  V30 20950 O 2097.58 2.66226 3.14956 0
M  V30 20951 H 2096.92 0.584284 0.31545 0
M  V30 20952 H 2099.45 2.01107 0.376453 0
M  V30 20953 H 2099.46 3.22305 2.50167 0
M  V30 20954 H 2098.14 3.86224 1.54285 0
M  V30 20955 H 2096.72 2.49992 2.76692 0
M  V30 20956 N 2098.9 -0.59187 1.46064 0
M  V30 20957 C 2100.13 -1.37466 1.54229 0
M  V30 20958 C 2100.54 -1.8835 0.1791 0
M  V30 20959 O 2099.88 -1.63765 -0.832274 0
M  V30 20960 C 2099.95 -2.60379 2.47877 0
M  V30 20961 C 2099.61 -2.31026 3.94305 0
M  V30 20962 C 2100.61 -1.90422 4.83772 0
M  V30 20963 C 2098.29 -2.43453 4.39359 0
M  V30 20964 C 2100.29 -1.62626 6.16305 0
M  V30 20965 C 2097.97 -2.15271 5.71928 0
M  V30 20966 C 2098.97 -1.74921 6.60221 0
M  V30 20967 O 2098.66 -1.47079 7.90331 0
M  V30 20968 H 2098.39 -0.426635 0.524365 0
M  V30 20969 H 2100.94 -0.7274 1.92089 0
M  V30 20970 H 2099.17 -3.27879 2.05018 0
M  V30 20971 H 2100.86 -3.2244 2.4655 0
M  V30 20972 H 2101.63 -1.80343 4.50224 0
M  V30 20973 H 2097.51 -2.73823 3.70866 0
M  V30 20974 H 2101.05 -1.31058 6.85179 0
M  V30 20975 H 2096.95 -2.2497 6.05028 0
M  V30 20976 H 2097.72 -1.61 8.02509 0
M  V30 20977 N 2100.38 -1.33616 -0.835729 0
M  V30 20978 C 2101.61 -1.28297 -1.62319 0
M  V30 20979 C 2102.02 0.145496 -1.88239 0
M  V30 20980 O 2101.38 1.08862 -1.46476 0
M  V30 20981 C 2101.43 -2.05863 -2.97158 0
M  V30 20982 O 2101.15 -3.43137 -2.72375 0
M  V30 20983 C 2102.65 -2.07791 -3.91584 0
M  V30 20984 H 2099.87 -0.441872 -0.504966 0
M  V30 20985 H 2102.42 -1.76036 -1.04075 0
M  V30 20986 H 2100.57 -1.61799 -3.51994 0
M  V30 20987 H 2100.99 -3.83078 -3.58262 0
M  V30 20988 H 2102.46 -2.66511 -4.834 0
M  V30 20989 H 2102.94 -1.06897 -4.25993 0
M  V30 20990 H 2103.54 -2.51888 -3.42684 0
M  V30 20991 N 2101.86 1.05436 -1.17136 0
M  V30 20992 C 2102.82 2.11293 -0.888146 0
M  V30 20993 C 2103.82 1.60347 0.120621 0
M  V30 20994 O 2105.01 1.73844 -0.111266 0
M  V30 20995 C 2102.14 3.393 -0.329871 0
M  V30 20996 H 2103.34 2.3785 -1.82667 0
M  V30 20997 H 2100.89 1.21641 -0.981486 0
M  V30 20998 H 2101.62 3.18397 0.61592 0
M  V30 20999 H 2101.41 3.77588 -1.05687 0
M  V30 21000 H 2102.9 4.17331 -0.149954 0
M  V30 21001 N 2103.34 0.971211 1.24118 0
M  V30 21002 C 2104.58 0.633768 1.91906 0
M  V30 21003 C 2104.91 -0.834157 1.76258 0
M  V30 21004 O 2104.18 -1.59579 1.13628 0
M  V30 21005 H 2102.76 0.231413 0.710251 0
M  V30 21006 H 2105.42 1.23304 1.50938 0
M  V30 21007 H 2104.51 0.877411 2.99513 0
M  V30 21008 N 2104.81 -1.39054 0.741747 0
M  V30 21009 C 2106.23 -1.83161 0.361815 0
M  V30 21010 C 2106.58 -1.61934 -1.10778 0
M  V30 21011 O 2105.7 -1.11412 -1.85516 0
M  V30 21012 C 2106.3 -3.32508 0.649929 0
M  V30 21013 C 2104.86 -3.75008 0.323414 0
M  V30 21014 C 2104 -2.61973 0.909134 0
M  V30 21015 H 2106.95 -1.2795 0.938853 0
M  V30 21016 H 2106.97 -3.80424 -0.0759846 0
M  V30 21017 H 2106.49 -3.47925 1.71959 0
M  V30 21018 H 2104.59 -3.65175 -0.740136 0
M  V30 21019 H 2104.7 -4.72191 0.81069 0
M  V30 21020 H 2103.06 -2.52483 0.335302 0
M  V30 21021 H 2103.85 -2.80194 1.98358 0
M  V30 21022 N 2106.29 -0.489897 -1.49792 0
M  V30 21023 C 2107.22 0.330983 -2.26798 0
M  V30 21024 C 2108.24 0.940504 -1.32885 0
M  V30 21025 O 2109.43 0.825724 -1.58253 0
M  V30 21026 C 2106.53 1.47994 -3.04879 0
M  V30 21027 C 2105.7 0.979767 -4.26286 0
M  V30 21028 C 2104.76 2.005 -4.86504 0
M  V30 21029 O 2103.78 1.57802 -5.46889 0
M  V30 21030 N 2104.99 3.3346 -4.75168 0
M  V30 21031 H 2107.75 -0.32926 -2.97886 0
M  V30 21032 H 2105.31 -0.321781 -1.5867 0
M  V30 21033 H 2107.3 2.16312 -3.4204 0
M  V30 21034 H 2105.87 2.04453 -2.36469 0
M  V30 21035 H 2105.09 0.121846 -3.94012 0
M  V30 21036 H 2106.38 0.623816 -5.04961 0
M  V30 21037 H 2105.78 3.70846 -4.27188 0
M  V30 21038 H 2104.34 3.97523 -5.16545 0
M  V30 21039 N 2107.77 1.56011 -0.223262 0
M  V30 21040 C 2109.02 1.97956 0.407171 0
M  V30 21041 C 2109.34 1.11219 1.60173 0
M  V30 21042 O 2108.61 0.189604 1.9498 0
M  V30 21043 H 2107.19 0.731075 0.153424 0
M  V30 21044 H 2109.85 1.92312 -0.316554 0
M  V30 21045 H 2108.95 3.03386 0.732342 0
M  V30 21046 N 2109.25 -0.0501116 1.5752 0
M  V30 21047 C 2110.47 -0.761197 1.92926 0
M  V30 21048 C 2110.9 -1.69211 0.821546 0
M  V30 21049 O 2110.26 -1.79908 -0.224247 0
M  V30 21050 C 2110.3 -1.51241 3.27351 0
M  V30 21051 O 2109.41 -2.62445 3.18114 0
M  V30 21052 H 2108.75 -0.206224 0.631164 0
M  V30 21053 H 2111.28 -0.0118709 2.04597 0
M  V30 21054 H 2111.29 -1.88696 3.61743 0
M  V30 21055 H 2109.96 -0.829535 4.07543 0
M  V30 21056 H 2108.54 -2.27688 2.95318 0
M  V30 21057 N 2110.73 -1.54276 -0.321972 0
M  V30 21058 C 2112.14 -1.63778 -0.896309 0
M  V30 21059 C 2112.49 -0.532871 -1.88825 0
M  V30 21060 O 2111.61 0.33397 -2.13807 0
M  V30 21061 C 2112.21 -2.96878 -1.63245 0
M  V30 21062 C 2110.77 -3.0857 -2.15549 0
M  V30 21063 C 2109.91 -2.59353 -0.981385 0
M  V30 21064 H 2112.87 -1.58388 -0.0995121 0
M  V30 21065 H 2112.89 -2.87127 -2.49677 0
M  V30 21066 H 2112.4 -3.77274 -0.910251 0
M  V30 21067 H 2110.5 -2.32851 -2.9088 0
M  V30 21068 H 2110.61 -4.14398 -2.4044 0
M  V30 21069 H 2108.98 -2.15288 -1.361 0
M  V30 21070 H 2109.76 -3.42209 -0.273477 0
M  V30 21071 N 2112.2 0.584116 -1.46376 0
M  V30 21072 C 2113.13 1.70354 -1.59693 0
M  V30 21073 C 2114.12 1.64113 -0.447325 0
M  V30 21074 O 2115.3 1.82151 -0.673394 0
M  V30 21075 C 2112.43 3.08993 -1.58558 0
M  V30 21076 C 2111.38 3.30064 -2.72473 0
M  V30 21077 C 2110.71 4.69216 -2.56399 0
M  V30 21078 C 2112.01 3.18035 -4.14308 0
M  V30 21079 H 2113.7 1.59465 -2.53399 0
M  V30 21080 H 2111.25 0.765749 -1.21952 0
M  V30 21081 H 2113.2 3.87126 -1.66468 0
M  V30 21082 H 2111.93 3.20778 -0.613949 0
M  V30 21083 H 2110.59 2.5433 -2.64029 0
M  V30 21084 H 2110.23 4.77764 -1.57323 0
M  V30 21085 H 2109.93 4.84267 -3.32805 0
M  V30 21086 H 2111.46 5.49519 -2.66198 0
M  V30 21087 H 2112.87 3.86014 -4.2387 0
M  V30 21088 H 2111.27 3.44608 -4.91289 0
M  V30 21089 H 2112.34 2.15135 -4.34563 0
M  V30 21090 N 2113.68 1.34058 0.828631 0
M  V30 21091 C 2114.91 1.29306 1.62156 0
M  V30 21092 C 2115.33 -0.131256 1.87641 0
M  V30 21093 O 2114.69 -1.09118 1.44786 0
M  V30 21094 C 2114.74 2.08394 2.94286 0
M  V30 21095 O 2113.84 1.44955 3.86085 0
M  V30 21096 H 2113.18 0.444364 0.493393 0
M  V30 21097 H 2115.71 1.76775 1.03014 0
M  V30 21098 H 2115.72 2.19539 3.43899 0
M  V30 21099 H 2114.4 3.11953 2.7506 0
M  V30 21100 H 2112.98 1.42518 3.44591 0
M  V30 21101 N 2115.16 -1.04814 1.17694 0
M  V30 21102 C 2116.44 -1.74812 0.877499 0
M  V30 21103 C 2116.82 -2.01747 -0.621383 0
M  V30 21104 O 2116.17 -1.6566 -1.57382 0
M  V30 21105 C 2116.38 -3.03866 1.71658 0
M  V30 21106 C 2117.72 -3.77745 1.93891 0
M  V30 21107 O 2118.75 -3.13746 1.68648 0
M  V30 21108 O 2117.61 -4.92753 2.3634 0
M  V30 21109 H 2114.7 -0.760352 0.32526 0
M  V30 21110 H 2117.25 -1.10947 1.28409 0
M  V30 21111 H 2116.02 -2.8004 2.73301 0
M  V30 21112 H 2115.64 -3.75469 1.30801 0
M  V30 21113 N 2116.64 -0.977779 -1.23601 0
M  V30 21114 C 2118.05 -0.682573 -1.73775 0
M  V30 21115 C 2118.4 0.801323 -1.7909 0
M  V30 21116 O 2117.53 1.6268 -1.42703 0
M  V30 21117 C 2118.12 -1.23234 -3.15593 0
M  V30 21118 C 2116.68 -0.986829 -3.63234 0
M  V30 21119 C 2115.83 -1.36164 -2.41567 0
M  V30 21120 H 2118.78 -1.15193 -1.09162 0
M  V30 21121 H 2118.8 -0.603486 -3.75684 0
M  V30 21122 H 2118.31 -2.31235 -3.11692 0
M  V30 21123 H 2116.41 0.0772124 -3.7252 0
M  V30 21124 H 2116.53 -1.63956 -4.50172 0
M  V30 21125 H 2114.89 -0.780079 -2.4246 0
M  V30 21126 H 2115.67 -2.45136 -2.4034 0
M  V30 21127 N 2118.12 1.38658 -0.749111 0
M  V30 21128 C 2119.39 1.94255 -0.228976 0
M  V30 21129 C 2119.77 1.68478 1.27194 0
M  V30 21130 O 2119.12 1.02082 2.0443 0
M  V30 21131 C 2119.33 3.44183 -0.577827 0
M  V30 21132 C 2120.68 4.21216 -0.534981 0
M  V30 21133 O 2121.7 3.52445 -0.515853 0
M  V30 21134 O 2120.56 5.43806 -0.541959 0
M  V30 21135 H 2117.66 0.825688 -0.0465621 0
M  V30 21136 H 2120.2 1.48077 -0.828929 0
M  V30 21137 H 2118.98 3.56436 -1.6146 0
M  V30 21138 H 2118.6 3.97568 0.0503656 0
M  V30 21139 N 2119.6 0.497834 1.49531 0
M  V30 21140 C 2120.84 -0.0478795 2.02743 0
M  V30 21141 C 2121.17 -1.36937 1.37702 0
M  V30 21142 O 2120.45 -1.8765 0.511637 0
M  V30 21143 C 2120.73 -0.203749 3.59523 0
M  V30 21144 C 2120.59 1.14064 4.35097 0
M  V30 21145 C 2121.9 -0.945869 4.29815 0
M  V30 21146 H 2119.02 -0.0159264 0.736828 0
M  V30 21147 H 2121.67 0.648629 1.78586 0
M  V30 21148 H 2119.82 -0.796987 3.80237 0
M  V30 21149 H 2121.49 1.77252 4.25887 0
M  V30 21150 H 2119.73 1.73071 3.9778 0
M  V30 21151 H 2120.4 0.984923 5.43142 0
M  V30 21152 H 2122.88 -0.44277 4.13738 0
M  V30 21153 H 2121.75 -1.02377 5.39268 0
M  V30 21154 H 2122.01 -1.98884 3.94839 0
M  V30 21155 N 2121.07 -1.5589 0.231532 0
M  V30 21156 C 2122.01 -2.18025 -0.70695 0
M  V30 21157 C 2123.02 -1.15214 -1.1502 0
M  V30 21158 O 2124.21 -1.42149 -1.07963 0
M  V30 21159 C 2121.31 -2.75714 -1.97066 0
M  V30 21160 C 2120.48 -4.03794 -1.68135 0
M  V30 21161 C 2119.54 -4.4595 -2.79312 0
M  V30 21162 O 2118.57 -5.12645 -2.47354 0
M  V30 21163 N 2119.77 -4.12459 -4.08483 0
M  V30 21164 H 2122.53 -2.99186 -0.175389 0
M  V30 21165 H 2120.09 -1.6182 0.0509009 0
M  V30 21166 H 2122.09 -3.00882 -2.70652 0
M  V30 21167 H 2120.66 -1.98799 -2.41242 0
M  V30 21168 H 2119.88 -3.86377 -0.781436 0
M  V30 21169 H 2121.16 -4.87328 -1.46251 0
M  V30 21170 H 2120.56 -3.58884 -4.37286 0
M  V30 21171 H 2119.12 -4.42496 -4.78581 0
M  V30 21172 N 2122.55 0.0417572 -1.57545 0
M  V30 21173 C 2123.8 0.734075 -1.87868 0
M  V30 21174 C 2124.11 1.77194 -0.828352 0
M  V30 21175 O 2125.32 2.51595 -1.02039 0
M  V30 21176 C 2123.78 1.35664 -3.33352 0
M  V30 21177 C 2123.38 0.355779 -4.46585 0
M  V30 21178 C 2125.13 2.02957 -3.72839 0
M  V30 21179 C 2123.03 0.985962 -5.83123 0
M  V30 21180 H 2121.96 0.277922 -0.70091 0
M  V30 21181 H 2124.62 -0.0119297 -1.83496 0
M  V30 21182 H 2123 2.15192 -3.32428 0
M  V30 21183 H 2124.17 -0.411871 -4.58956 0
M  V30 21184 H 2122.49 -0.214356 -4.15848 0
M  V30 21185 H 2125.08 2.50935 -4.72161 0
M  V30 21186 H 2125.43 2.84222 -3.04176 0
M  V30 21187 H 2125.96 1.3022 -3.75882 0
M  V30 21188 H 2122.7 0.212992 -6.55154 0
M  V30 21189 H 2122.22 1.72375 -5.74497 0
M  V30 21190 H 2123.9 1.49705 -6.29442 0
M  V30 21191 N 2124.03 1.54445 0.313786 0
M  V30 21192 C 2125.26 1.77093 1.06985 0
M  V30 21193 C 2125.67 0.524216 1.81376 0
M  V30 21194 O 2125.03 -0.505482 1.7536 0
M  V30 21195 C 2125.08 2.97038 2.06036 0
M  V30 21196 O 2124.8 4.1689 1.34665 0
M  V30 21197 C 2126.3 3.31974 2.93783 0
M  V30 21198 H 2123.52 0.590955 0.317826 0
M  V30 21199 H 2126.07 2.01361 0.356942 0
M  V30 21200 H 2124.22 2.75015 2.72847 0
M  V30 21201 H 2124.64 4.84425 2.01078 0
M  V30 21202 H 2126.11 4.19176 3.5916 0
M  V30 21203 H 2126.59 2.49567 3.61404 0
M  V30 21204 H 2127.19 3.5611 2.3252 0
M  V30 21205 N 2125.51 -0.576345 1.46683 0
M  V30 21206 C 2126.76 -1.33168 1.52022 0
M  V30 21207 C 2127.08 -1.94204 0.17606 0
M  V30 21208 O 2126.35 -1.78907 -0.798069 0
M  V30 21209 H 2124.93 -0.494459 0.559928 0
M  V30 21210 H 2127.59 -0.674503 1.82856 0
M  V30 21211 H 2126.68 -2.13511 2.27638 0
M  V30 21212 N 2126.99 -1.34495 -0.82151 0
M  V30 21213 C 2127.93 -1.26196 -1.9539 0
M  V30 21214 C 2128.93 -0.159788 -1.68645 0
M  V30 21215 O 2130.13 -0.32485 -1.77044 0
M  V30 21216 H 2126.51 -0.392077 -0.6417 0
M  V30 21217 H 2128.48 -2.21896 -1.99511 0
M  V30 21218 C 2127.23 -1.03571 -3.31916 0
M  V30 21219 H 2126.55 -1.87615 -3.53045 0
M  V30 21220 H 2127.99 -1.01801 -4.11597 0
M  V30 21221 C 2126.45 0.260949 -3.35888 0
M  V30 21222 O 2126.98 1.26183 -3.81367 0
M  V30 21223 N 2125.19 0.29455 -2.89103 0
M  V30 21224 H 2124.73 -0.520521 -2.52286 0
M  V30 21225 H 2124.69 1.16189 -2.92143 0
M  V30 21226 N 2128.46 1.04188 -1.18248 0
M  V30 21227 C 2129.41 2.14282 -0.904765 0
M  V30 21228 C 2130.41 1.68865 0.134493 0
M  V30 21229 O 2131.61 1.79995 -0.013541 0
M  V30 21230 H 2127.99 0.699873 -0.275103 0
M  V30 21231 H 2129.96 2.34904 -1.84018 0
M  V30 21232 C 2128.71 3.44832 -0.445645 0
M  V30 21233 H 2128.03 3.80187 -1.23683 0
M  V30 21234 H 2129.47 4.23005 -0.29031 0
M  V30 21235 C 2127.93 3.26303 0.838325 0
M  V30 21236 O 2128.46 3.53774 1.90282 0
M  V30 21237 N 2126.67 2.79643 0.79045 0
M  V30 21238 H 2126.21 2.57488 -0.0760399 0
M  V30 21239 H 2126.17 2.67626 1.64996 0
M  V30 21240 N 2129.94 0.98432 1.23081 0
M  V30 21241 C 2131.19 0.650883 1.90909 0
M  V30 21242 C 2131.5 -0.819701 1.77596 0
M  V30 21243 O 2132.71 -1.26436 2.40263 0
M  V30 21244 C 2131.17 1.11359 3.42239 0
M  V30 21245 C 2130.77 2.60879 3.64206 0
M  V30 21246 C 2132.52 0.854079 4.15819 0
M  V30 21247 C 2130.43 3.00797 5.09191 0
M  V30 21248 H 2129.36 0.239743 0.71487 0
M  V30 21249 H 2132.01 1.19274 1.39449 0
M  V30 21250 H 2130.39 0.499916 3.92832 0
M  V30 21251 H 2131.56 3.27519 3.24142 0
M  V30 21252 H 2129.88 2.84619 3.03942 0
M  V30 21253 H 2132.47 1.12812 5.22664 0
M  V30 21254 H 2132.82 -0.209813 4.15771 0
M  V30 21255 H 2133.35 1.42952 3.71227 0
M  V30 21256 H 2130.09 4.06326 5.14373 0
M  V30 21257 H 2129.61 2.38854 5.5019 0
M  V30 21258 H 2131.29 2.9162 5.77552 0
M  V30 21259 N 2131.42 -1.38259 0.756453 0
M  V30 21260 C 2132.35 -2.28063 0.0790225 0
M  V30 21261 C 2133.33 -1.45527 -0.725303 0
M  V30 21262 O 2134.52 -1.74887 -0.703322 0
M  V30 21263 C 2131.64 -3.26666 -0.894813 0
M  V30 21264 C 2130.69 -4.26135 -0.176369 0
M  V30 21265 S 2131.52 -5.23552 1.12487 0
M  V30 21266 C 2132.68 -6.2571 0.154178 0
M  V30 21267 H 2132.91 -2.8517 0.840546 0
M  V30 21268 H 2130.44 -1.44304 0.549161 0
M  V30 21269 H 2132.4 -3.83988 -1.45133 0
M  V30 21270 H 2131.06 -2.68536 -1.62933 0
M  V30 21271 H 2130.26 -4.95642 -0.914031 0
M  V30 21272 H 2129.86 -3.72724 0.308705 0
M  V30 21273 H 2132.15 -6.74091 -0.678828 0
M  V30 21274 H 2133.09 -7.03371 0.816992 0
M  V30 21275 H 2133.5 -5.6404 -0.227796 0
M  V30 21276 N 2132.9 -0.505757 -1.49264 0
M  V30 21277 C 2133.83 0.259368 -2.32055 0
M  V30 21278 C 2134.81 0.95808 -1.40552 0
M  V30 21279 O 2135.99 0.948562 -1.69458 0
M  V30 21280 C 2133.12 1.32138 -3.2118 0
M  V30 21281 C 2132.08 0.742267 -4.21514 0
M  V30 21282 C 2131.4 1.90515 -4.99608 0
M  V30 21283 C 2132.7 -0.269866 -5.21602 0
M  V30 21284 H 2134.4 -0.431697 -2.96271 0
M  V30 21285 H 2131.94 -0.209055 -1.42474 0
M  V30 21286 H 2133.9 1.86441 -3.77912 0
M  V30 21287 H 2132.62 2.0417 -2.54916 0
M  V30 21288 H 2131.28 0.220956 -3.65934 0
M  V30 21289 H 2130.93 2.61327 -4.29788 0
M  V30 21290 H 2130.63 1.52371 -5.67501 0
M  V30 21291 H 2132.15 2.45242 -5.59186 0
M  V30 21292 H 2133.57 0.18519 -5.73001 0
M  V30 21293 H 2131.96 -0.567397 -5.97412 0
M  V30 21294 H 2133.03 -1.18411 -4.7022 0
M  V30 21295 N 2134.38 1.55765 -0.239796 0
M  V30 21296 C 2135.62 1.99064 0.387489 0
M  V30 21297 C 2135.96 1.12765 1.58107 0
M  V30 21298 O 2135.23 0.189423 1.93575 0
M  V30 21299 C 2135.51 3.51003 0.80429 0
M  V30 21300 C 2135.37 4.48069 -0.394185 0
M  V30 21301 C 2136.69 4.07842 1.65386 0
M  V30 21302 H 2133.8 0.723702 0.139371 0
M  V30 21303 H 2136.45 1.86939 -0.339685 0
M  V30 21304 H 2134.6 3.61466 1.42388 0
M  V30 21305 H 2136.27 4.49595 -1.03255 0
M  V30 21306 H 2134.51 4.21186 -1.03852 0
M  V30 21307 H 2135.18 5.51968 -0.0593288 0
M  V30 21308 H 2137.66 4.00437 1.13092 0
M  V30 21309 H 2136.53 5.14435 1.91436 0
M  V30 21310 H 2136.8 3.55856 2.62333 0
M  V30 21311 N 2135.85 -0.0334016 1.57565 0
M  V30 21312 C 2136.82 -1.01998 2.05253 0
M  V30 21313 C 2137.82 -1.29303 0.955901 0
M  V30 21314 O 2139.01 -1.24379 1.21965 0
M  V30 21315 C 2136.14 -2.35395 2.4658 0
M  V30 21316 H 2137.33 -0.608136 2.93669 0
M  V30 21317 H 2134.89 -0.280124 1.53769 0
M  V30 21318 H 2135.62 -2.81337 1.61307 0
M  V30 21319 H 2135.41 -2.16908 3.26639 0
M  V30 21320 H 2136.9 -3.06235 2.83918 0
M  V30 21321 N 2137.33 -1.54609 -0.305591 0
M  V30 21322 C 2138.56 -1.77981 -1.06479 0
M  V30 21323 C 2138.98 -0.535455 -1.80318 0
M  V30 21324 O 2138.34 0.513813 -1.73867 0
M  V30 21325 C 2138.39 -2.984 -2.0246 0
M  V30 21326 O 2137.49 -2.71203 -3.10681 0
M  V30 21327 H 2136.83 -0.589228 -0.306114 0
M  V30 21328 H 2139.36 -2.0168 -0.344411 0
M  V30 21329 H 2139.37 -3.26244 -2.45008 0
M  V30 21330 H 2138.05 -3.8863 -1.48121 0
M  V30 21331 H 2136.63 -2.54362 -2.7268 0
M  V30 21332 N 2138.81 0.568558 -1.46987 0
M  V30 21333 C 2139.74 1.69147 -1.54668 0
M  V30 21334 C 2140.76 1.56914 -0.433789 0
M  V30 21335 O 2141.94 1.6408 -0.702853 0
M  V30 21336 C 2139.04 3.07522 -1.4242 0
M  V30 21337 C 2138.22 3.45619 -2.68078 0
M  V30 21338 C 2137.28 4.63111 -2.49829 0
M  V30 21339 O 2136.3 4.68261 -3.23605 0
M  V30 21340 N 2137.5 5.5889 -1.56914 0
M  V30 21341 H 2140.27 1.63008 -2.51492 0
M  V30 21342 H 2137.83 0.75491 -1.43223 0
M  V30 21343 H 2139.82 3.83937 -1.27963 0
M  V30 21344 H 2138.39 3.07949 -0.537222 0
M  V30 21345 H 2137.61 2.58767 -2.97378 0
M  V30 21346 H 2138.9 3.67844 -3.51523 0
M  V30 21347 H 2138.3 5.57477 -0.961042 0
M  V30 21348 H 2136.86 6.34678 -1.48414 0
M  V30 21349 N 2140.29 1.34929 0.814366 0
M  V30 21350 C 2141.7 1.24889 1.38779 0
M  V30 21351 C 2142.05 -0.122017 1.9582 0
M  V30 21352 O 2141.18 -1.02269 1.90709 0
M  V30 21353 C 2141.77 2.2613 2.52291 0
M  V30 21354 C 2140.33 2.19855 3.05517 0
M  V30 21355 C 2139.48 2.12265 1.78435 0
M  V30 21356 H 2142.43 1.46171 0.618046 0
M  V30 21357 H 2142.45 1.88326 3.30626 0
M  V30 21358 H 2141.96 3.25896 2.10745 0
M  V30 21359 H 2140.06 1.23474 3.51547 0
M  V30 21360 H 2140.17 3.11482 3.64027 0
M  V30 21361 H 2138.54 1.58119 1.99676 0
M  V30 21362 H 2139.32 3.13878 1.39051 0
M  V30 21363 N 2141.77 -1.0356 1.18799 0
M  V30 21364 C 2142.73 -2.09853 0.921649 0
M  V30 21365 C 2143.73 -1.60519 -0.095096 0
M  V30 21366 O 2144.92 -1.73645 0.138909 0
M  V30 21367 C 2142.05 -3.38733 0.383809 0
M  V30 21368 H 2143.24 -2.34914 1.86428 0
M  V30 21369 H 2140.8 -1.20064 1.00071 0
M  V30 21370 H 2141.53 -3.19337 -0.565188 0
M  V30 21371 H 2141.32 -3.75859 1.11681 0
M  V30 21372 H 2142.81 -4.17039 0.216329 0
M  V30 21373 N 2143.25 -0.990834 -1.22557 0
M  V30 21374 C 2144.18 -0.559304 -2.26703 0
M  V30 21375 C 2145.16 0.412782 -1.65016 0
M  V30 21376 O 2146.34 0.303868 -1.91808 0
M  V30 21377 C 2143.47 0.12888 -3.47061 0
M  V30 21378 C 2142.43 -0.76154 -4.2117 0
M  V30 21379 C 2141.75 0.0594442 -5.34667 0
M  V30 21380 C 2143.05 -2.0574 -4.80071 0
M  V30 21381 H 2144.75 -1.42983 -2.63052 0
M  V30 21382 H 2142.29 -0.68896 -1.26449 0
M  V30 21383 H 2144.24 0.44215 -4.19074 0
M  V30 21384 H 2142.97 1.03394 -3.09802 0
M  V30 21385 H 2141.63 -1.05842 -3.50989 0
M  V30 21386 H 2141.28 0.965355 -4.9365 0
M  V30 21387 H 2140.98 -0.533291 -5.85175 0
M  V30 21388 H 2142.5 0.366857 -6.09497 0
M  V30 21389 H 2143.91 -1.80821 -5.44037 0
M  V30 21390 H 2142.31 -2.59878 -5.4091 0
M  V30 21391 H 2143.38 -2.73748 -4.00237 0
M  V30 21392 N 2144.72 1.37856 -0.763775 0
M  V30 21393 C 2145.66 2.28969 -0.102965 0
M  V30 21394 C 2146.67 1.48246 0.672832 0
M  V30 21395 O 2147.86 1.70992 0.51224 0
M  V30 21396 C 2144.96 3.27329 0.877995 0
M  V30 21397 C 2144.13 4.37116 0.157698 0
M  V30 21398 C 2143.19 5.156 1.05087 0
M  V30 21399 O 2142.22 5.66842 0.517604 0
M  V30 21400 N 2143.42 5.29559 2.37797 0
M  V30 21401 H 2146.18 2.8632 -0.885499 0
M  V30 21402 H 2143.74 1.49747 -0.615433 0
M  V30 21403 H 2145.74 3.76715 1.47877 0
M  V30 21404 H 2144.31 2.70804 1.56154 0
M  V30 21405 H 2143.53 3.89231 -0.623902 0
M  V30 21406 H 2144.81 5.07661 -0.34033 0
M  V30 21407 H 2144.21 4.89496 2.83566 0
M  V30 21408 H 2142.77 5.82282 2.929 0
M  V30 21409 N 2146.2 0.513665 1.48994 0
M  V30 21410 C 2147.45 -0.0262821 2.02083 0
M  V30 21411 C 2147.77 -1.36306 1.39448 0
M  V30 21412 O 2147.04 -1.87899 0.554154 0
M  V30 21413 H 2145.62 -0.012702 0.746892 0
M  V30 21414 H 2148.28 0.673788 1.82883 0
M  V30 21415 H 2147.38 -0.146648 3.11755 0
M  V30 21416 N 2147.68 -1.55636 0.248053 0
M  V30 21417 C 2149.09 -1.84952 -0.254884 0
M  V30 21418 C 2149.44 -1.16988 -1.57506 0
M  V30 21419 O 2148.57 -0.448668 -2.11698 0
M  V30 21420 C 2149.16 -3.35535 -0.469244 0
M  V30 21421 C 2147.72 -3.65073 -0.916445 0
M  V30 21422 C 2146.87 -2.77299 0.00568866 0
M  V30 21423 H 2149.82 -1.51563 0.470584 0
M  V30 21424 H 2149.84 -3.57176 -1.31169 0
M  V30 21425 H 2149.35 -3.84972 0.491761 0
M  V30 21426 H 2147.45 -3.21114 -1.88988 0
M  V30 21427 H 2147.57 -4.72831 -0.772508 0
M  V30 21428 H 2145.93 -2.49626 -0.505882 0
M  V30 21429 H 2146.71 -3.29543 0.962088 0
M  V30 21430 N 2149.16 0.0250451 -1.5758 0
M  V30 21431 C 2150.07 1.04128 -2.10225 0
M  V30 21432 C 2151.08 1.39367 -1.04178 0
M  V30 21433 O 2152.26 1.48605 -1.35936 0
M  V30 21434 C 2149.32 2.32208 -2.5745 0
M  V30 21435 C 2148.39 2.03512 -3.77996 0
M  V30 21436 C 2147.62 3.25486 -4.22959 0
M  V30 21437 O 2147.84 4.36301 -3.6742 0
M  V30 21438 O 2146.78 3.1095 -5.15358 0
M  V30 21439 H 2150.6 0.623859 -2.97223 0
M  V30 21440 H 2148.19 0.242286 -1.47422 0
M  V30 21441 H 2150.07 3.07498 -2.88137 0
M  V30 21442 H 2148.74 2.73237 -1.73561 0
M  V30 21443 H 2147.65 1.25777 -3.52322 0
M  V30 21444 H 2148.98 1.67337 -4.62882 0
M  V30 21445 N 2150.64 1.54769 0.297388 0
M  V30 21446 C 2152.05 1.46063 0.643251 0
M  V30 21447 C 2152.25 0.654777 1.90565 0
M  V30 21448 O 2151.31 0.16391 2.51967 0
M  V30 21449 C 2152.62 2.90058 0.792888 0
M  V30 21450 C 2154.17 3.00123 0.888538 0
M  V30 21451 C 2154.64 4.45322 1.07014 0
M  V30 21452 N 2156.13 4.49047 1.13626 0
M  V30 21453 C 2156.87 5.58582 1.29514 0
M  V30 21454 N 2156.37 6.78033 1.42276 0
M  V30 21455 N 2158.16 5.46277 1.32431 0
M  V30 21456 H 2150.31 2.0563 -0.531995 0
M  V30 21457 H 2152.57 0.931444 -0.176397 0
M  V30 21458 H 2152.28 3.51642 -0.0638796 0
M  V30 21459 H 2152.15 3.37683 1.68077 0
M  V30 21460 H 2154.54 2.38651 1.73579 0
M  V30 21461 H 2154.62 2.55789 -0.0234414 0
M  V30 21462 H 2154.26 5.0739 0.227645 0
M  V30 21463 H 2154.19 4.8729 1.9964 0
M  V30 21464 H 2156.69 3.62991 1.05101 0
M  V30 21465 H 2157 7.57267 1.54165 0
M  V30 21466 H 2155.34 6.80892 1.39325 0
M  V30 21467 H 2158.53 4.51902 1.22074 0
M  V30 21468 H 2158.71 6.3169 1.44469 0
M  V30 21469 N 2152.11 -0.560755 1.47286 0
M  V30 21470 C 2153.53 -0.886333 1.32726 0
M  V30 21471 C 2153.73 -1.99021 0.31509 0
M  V30 21472 O 2152.79 -2.51002 -0.274638 0
M  V30 21473 C 2154.1 -1.28292 2.71959 0
M  V30 21474 C 2155.65 -1.39455 2.80217 0
M  V30 21475 C 2156.12 -1.8247 4.20082 0
M  V30 21476 N 2157.61 -1.89627 4.22606 0
M  V30 21477 C 2158.35 -2.24232 5.27738 0
M  V30 21478 N 2157.84 -2.57475 6.43178 0
M  V30 21479 N 2159.64 -2.24975 5.15114 0
M  V30 21480 H 2151.79 0.168088 2.11734 0
M  V30 21481 H 2154.05 0.0125326 0.947917 0
M  V30 21482 H 2153.76 -0.545664 3.47441 0
M  V30 21483 H 2153.63 -2.23983 3.03499 0
M  V30 21484 H 2156.02 -2.12262 2.05009 0
M  V30 21485 H 2156.1 -0.419601 2.52335 0
M  V30 21486 H 2155.74 -1.10234 4.95793 0
M  V30 21487 H 2155.67 -2.80962 4.45385 0
M  V30 21488 H 2158.16 -1.66337 3.39323 0
M  V30 21489 H 2158.48 -2.82897 7.19159 0
M  V30 21490 H 2156.82 -2.55063 6.46504 0
M  V30 21491 H 2160.01 -1.98441 4.23956 0
M  V30 21492 H 2160.19 -2.51614 5.97155 0
M  V30 21493 N 2153.59 -1.35359 -0.807199 0
M  V30 21494 C 2154.82 -1.31869 -1.60079 0
M  V30 21495 C 2155.24 0.101387 -1.87827 0
M  V30 21496 O 2154.6 1.06801 -1.46503 0
M  V30 21497 C 2154.65 -2.13049 -2.90934 0
M  V30 21498 O 2153.75 -1.51079 -3.8373 0
M  V30 21499 H 2153.09 -0.452158 -0.486261 0
M  V30 21500 H 2155.62 -1.78391 -1.00189 0
M  V30 21501 H 2155.63 -2.24982 -3.40363 0
M  V30 21502 H 2154.31 -3.16289 -2.70063 0
M  V30 21503 H 2152.88 -1.47982 -3.4228 0
M  V30 21504 N 2155.07 1.02928 -1.19346 0
M  V30 21505 C 2156.3 1.79687 -1.01961 0
M  V30 21506 C 2156.71 1.84137 0.434779 0
M  V30 21507 O 2156.05 1.28397 1.31377 0
M  V30 21508 C 2156.11 3.26152 -1.51213 0
M  V30 21509 C 2155.78 3.45338 -2.99317 0
M  V30 21510 C 2156.77 3.35591 -3.97083 0
M  V30 21511 C 2154.46 3.71566 -3.38 0
M  V30 21512 C 2156.45 3.51795 -5.31525 0
M  V30 21513 C 2154.14 3.87415 -4.72602 0
M  V30 21514 C 2155.14 3.77532 -5.69174 0
M  V30 21515 O 2154.83 3.92914 -7.01337 0
M  V30 21516 H 2154.56 0.572339 -0.359729 0
M  V30 21517 H 2157.11 1.30533 -1.58588 0
M  V30 21518 H 2155.34 3.76328 -0.889605 0
M  V30 21519 H 2157.03 3.84505 -1.30042 0
M  V30 21520 H 2157.8 3.1528 -3.68542 0
M  V30 21521 H 2153.68 3.78351 -2.63385 0
M  V30 21522 H 2157.22 3.43997 -6.06887 0
M  V30 21523 H 2153.12 4.07223 -5.00839 0
M  V30 21524 H 2153.88 4.10007 -7.08404 0
M  V30 21525 N 2156.55 0.997319 1.2203 0
M  V30 21526 C 2157.46 0.560352 2.2781 0
M  V30 21527 C 2158.47 -0.392977 1.69504 0
M  V30 21528 O 2159.65 -0.258715 1.99731 0
M  V30 21529 C 2156.71 -0.113747 3.46513 0
M  V30 21530 C 2155.78 0.883099 4.20119 0
M  V30 21531 C 2155.01 0.241074 5.33155 0
M  V30 21532 O 2155.23 -0.963972 5.62195 0
M  V30 21533 O 2154.17 0.948154 5.94385 0
M  V30 21534 H 2157.99 1.44049 2.67364 0
M  V30 21535 H 2155.58 0.765793 1.28281 0
M  V30 21536 H 2157.46 -0.491137 4.18528 0
M  V30 21537 H 2156.13 -0.968387 3.08875 0
M  V30 21538 H 2155.04 1.3115 3.50358 0
M  V30 21539 H 2156.37 1.70708 4.61649 0
M  V30 21540 N 2158.03 -1.37449 0.771075 0
M  V30 21541 C 2159.28 -1.98953 0.331779 0
M  V30 21542 C 2159.59 -1.61903 -1.09758 0
M  V30 21543 O 2160.79 -2.16505 -1.63823 0
M  V30 21544 C 2159.25 -3.55792 0.542247 0
M  V30 21545 C 2158.86 -4.01781 1.98183 0
M  V30 21546 C 2160.6 -4.24173 0.16654 0
M  V30 21547 C 2158.51 -5.51327 2.13993 0
M  V30 21548 H 2157.44 -0.74434 0.120306 0
M  V30 21549 H 2160.09 -1.56988 0.950108 0
M  V30 21550 H 2158.47 -3.95733 -0.145529 0
M  V30 21551 H 2159.65 -3.73086 2.7045 0
M  V30 21552 H 2157.96 -3.46179 2.31406 0
M  V30 21553 H 2160.56 -5.34052 0.263191 0
M  V30 21554 H 2160.9 -4.06825 -0.883113 0
M  V30 21555 H 2161.43 -3.89532 0.806838 0
M  V30 21556 H 2158.17 -5.736 3.17275 0
M  V30 21557 H 2157.69 -5.81707 1.46208 0
M  V30 21558 H 2159.37 -6.17286 1.93822 0
M  V30 21559 N 2159.5 -0.52156 -1.4872 0
M  V30 21560 C 2160.44 0.292887 -2.26313 0
M  V30 21561 C 2161.42 0.952293 -1.31796 0
M  V30 21562 O 2162.6 0.978349 -1.61123 0
M  V30 21563 C 2159.73 1.4141 -3.07768 0
M  V30 21564 C 2158.77 0.866968 -4.17595 0
M  V30 21565 S 2159.61 -0.258537 -5.34876 0
M  V30 21566 C 2160.76 0.865353 -6.19889 0
M  V30 21567 H 2160.99 -0.365638 -2.95043 0
M  V30 21568 H 2158.53 -0.307197 -1.51313 0
M  V30 21569 H 2160.49 2.05642 -3.55277 0
M  V30 21570 H 2159.15 2.04432 -2.38467 0
M  V30 21571 H 2158.34 1.70784 -4.74182 0
M  V30 21572 H 2157.94 0.301497 -3.72783 0
M  V30 21573 H 2160.23 1.76594 -6.5408 0
M  V30 21574 H 2161.18 0.337647 -7.07295 0
M  V30 21575 H 2161.58 1.14196 -5.52829 0
M  V30 21576 N 2160.98 1.55502 -0.256304 0
M  V30 21577 C 2162.23 1.99168 0.365812 0
M  V30 21578 C 2162.56 1.14455 1.57259 0
M  V30 21579 O 2161.81 0.197615 1.947 0
M  V30 21580 C 2162.11 3.48098 0.810077 0
M  V30 21581 C 2161.78 4.49967 -0.289975 0
M  V30 21582 C 2160.44 4.77544 -0.592079 0
M  V30 21583 C 2162.79 5.10877 -1.03217 0
M  V30 21584 C 2160.12 5.63304 -1.64029 0
M  V30 21585 C 2162.47 5.97775 -2.06996 0
M  V30 21586 C 2161.14 6.23681 -2.37861 0
M  V30 21587 H 2160.41 0.728809 0.13386 0
M  V30 21588 H 2163.05 1.87968 -0.366092 0
M  V30 21589 H 2161.36 3.56679 1.62134 0
M  V30 21590 H 2163.05 3.79279 1.30186 0
M  V30 21591 H 2159.64 4.28577 -0.0443795 0
M  V30 21592 H 2163.83 4.89612 -0.812025 0
M  V30 21593 H 2159.08 5.81628 -1.88465 0
M  V30 21594 H 2163.26 6.44013 -2.64992 0
M  V30 21595 H 2160.89 6.89929 -3.19221 0
M  V30 21596 N 2162.46 -0.0166879 1.57591 0
M  V30 21597 C 2163.88 -0.372531 1.55191 0
M  V30 21598 C 2164.08 -1.75838 0.984042 0
M  V30 21599 O 2163.13 -2.45008 0.610513 0
M  V30 21600 C 2164.45 -0.263043 2.99547 0
M  V30 21601 C 2165.99 -0.339216 3.11156 0
M  V30 21602 C 2166.47 -0.259039 4.57267 0
M  V30 21603 N 2167.96 -0.317455 4.62111 0
M  V30 21604 C 2168.69 -0.278499 5.72723 0
M  V30 21605 N 2168.19 -0.191112 6.92536 0
M  V30 21606 N 2169.98 -0.32914 5.61136 0
M  V30 21607 H 2162.13 0.890086 1.9285 0
M  V30 21608 H 2164.4 0.339637 0.885071 0
M  V30 21609 H 2164.1 0.689794 3.44869 0
M  V30 21610 H 2163.98 -1.0518 3.62239 0
M  V30 21611 H 2166.36 -1.28249 2.65775 0
M  V30 21612 H 2166.45 0.479109 2.51273 0
M  V30 21613 H 2166.09 0.68062 5.03319 0
M  V30 21614 H 2166.02 -1.09563 5.15076 0
M  V30 21615 H 2168.51 -0.387004 3.75913 0
M  V30 21616 H 2168.82 -0.166827 7.7262 0
M  V30 21617 H 2167.17 -0.15698 6.94823 0
M  V30 21618 H 2170.36 -0.395489 4.66426 0
M  V30 21619 H 2170.53 -0.295314 6.47327 0
M  V30 21620 N 2163.94 -1.54924 -0.289176 0
M  V30 21621 C 2164.85 -1.89766 -1.37935 0
M  V30 21622 C 2165.86 -0.793081 -1.54875 0
M  V30 21623 O 2167.04 -1.09065 -1.69312 0
M  V30 21624 C 2164.11 -2.14824 -2.72124 0
M  V30 21625 C 2163.17 -3.38476 -2.64069 0
M  V30 21626 C 2162.4 -3.62329 -3.91859 0
M  V30 21627 O 2162.62 -2.88978 -4.9178 0
M  V30 21628 O 2161.56 -4.55856 -3.93038 0
M  V30 21629 H 2165.38 -2.82536 -1.11387 0
M  V30 21630 H 2162.97 -1.41264 -0.486286 0
M  V30 21631 H 2164.85 -2.32438 -3.51498 0
M  V30 21632 H 2163.52 -1.25238 -2.98491 0
M  V30 21633 H 2162.43 -3.26213 -1.83127 0
M  V30 21634 H 2163.76 -4.28229 -2.42654 0
M  V30 21635 N 2165.42 0.552936 -1.47582 0
M  V30 21636 C 2166.33 1.68696 -1.6303 0
M  V30 21637 C 2167.34 1.66263 -0.513075 0
M  V30 21638 O 2168.52 1.85633 -0.781171 0
M  V30 21639 C 2165.58 3.05197 -1.64486 0
M  V30 21640 C 2164.64 3.18664 -2.87666 0
M  V30 21641 C 2163.88 4.48653 -2.89043 0
M  V30 21642 O 2164.1 5.34372 -1.99506 0
M  V30 21643 O 2163.03 4.66001 -3.80955 0
M  V30 21644 H 2166.86 1.58604 -2.58995 0
M  V30 21645 H 2164.45 0.723431 -1.30717 0
M  V30 21646 H 2166.33 3.86421 -1.68098 0
M  V30 21647 H 2165 3.15662 -0.716893 0
M  V30 21648 H 2163.91 2.36821 -2.89597 0
M  V30 21649 H 2165.24 3.13105 -3.79771 0
M  V30 21650 N 2166.89 1.35785 0.800009 0
M  V30 21651 C 2168.14 1.29425 1.55741 0
M  V30 21652 C 2168.47 -0.129487 1.94068 0
M  V30 21653 O 2167.72 -1.09631 1.6211 0
M  V30 21654 C 2168.02 2.15261 2.85302 0
M  V30 21655 C 2167.69 3.63962 2.66162 0
M  V30 21656 C 2166.35 4.04493 2.60651 0
M  V30 21657 C 2168.7 4.58288 2.48238 0
M  V30 21658 C 2166.03 5.37507 2.35166 0
M  V30 21659 C 2168.38 5.91507 2.24281 0
M  V30 21660 C 2167.05 6.31175 2.17195 0
M  V30 21661 H 2166.32 0.473601 0.569898 0
M  V30 21662 H 2168.96 1.67742 0.923842 0
M  V30 21663 H 2167.27 1.69846 3.53071 0
M  V30 21664 H 2168.97 2.07672 3.43036 0
M  V30 21665 H 2165.56 3.31802 2.71303 0
M  V30 21666 H 2169.74 4.27854 2.51504 0
M  V30 21667 H 2165 5.67235 2.28154 0
M  V30 21668 H 2169.17 6.64171 2.09403 0
M  V30 21669 H 2166.8 7.34175 1.9721 0
M  V30 21670 N 2168.37 -1.02294 1.19891 0
M  V30 21671 C 2169.62 -1.76166 1.01671 0
M  V30 21672 C 2169.97 -1.87131 -0.44718 0
M  V30 21673 O 2169.27 -1.38142 -1.32768 0
M  V30 21674 C 2169.46 -3.18252 1.62636 0
M  V30 21675 C 2169.29 -3.21139 3.14801 0
M  V30 21676 C 2168.06 -3.28744 3.83739 0
M  V30 21677 C 2170.26 -3.077 4.12099 0
M  V30 21678 N 2168.24 -3.21068 5.23248 0
M  V30 21679 C 2169.61 -3.07723 5.38244 0
M  V30 21680 C 2171.67 -2.9187 4.03381 0
M  V30 21681 C 2170.37 -2.93541 6.56678 0
M  V30 21682 C 2172.39 -2.79039 5.21432 0
M  V30 21683 C 2171.76 -2.79723 6.46478 0
M  V30 21684 H 2167.86 -0.655638 0.426219 0
M  V30 21685 H 2170.44 -1.21723 1.51959 0
M  V30 21686 H 2168.61 -3.71003 1.14941 0
M  V30 21687 H 2170.34 -3.80519 1.37794 0
M  V30 21688 H 2167.1 -3.35209 3.34562 0
M  V30 21689 H 2167.52 -3.20621 5.96264 0
M  V30 21690 H 2172.16 -2.9016 3.07518 0
M  V30 21691 H 2169.88 -2.94001 7.52721 0
M  V30 21692 H 2173.47 -2.67818 5.16493 0
M  V30 21693 H 2172.35 -2.69905 7.36289 0
M  V30 21694 N 2169.85 -1.00378 -1.21499 0
M  V30 21695 C 2171.27 -0.71638 -1.42619 0
M  V30 21696 C 2171.47 0.70891 -1.88618 0
M  V30 21697 O 2170.52 1.47842 -2.04693 0
M  V30 21698 C 2171.84 -1.7312 -2.45866 0
M  V30 21699 C 2173.38 -1.74788 -2.5965 0
M  V30 21700 C 2173.86 -2.75162 -3.66128 0
M  V30 21701 N 2175.35 -2.73823 -3.73598 0
M  V30 21702 C 2176.08 -3.48149 -4.55609 0
M  V30 21703 N 2175.58 -4.32111 -5.41527 0
M  V30 21704 N 2177.37 -3.36805 -4.50021 0
M  V30 21705 H 2169.52 -1.92412 -0.899518 0
M  V30 21706 H 2171.79 -0.830441 -0.457244 0
M  V30 21707 H 2171.49 -2.75165 -2.19036 0
M  V30 21708 H 2171.37 -1.53287 -3.44649 0
M  V30 21709 H 2173.75 -0.734346 -2.85817 0
M  V30 21710 H 2173.84 -1.98693 -1.61105 0
M  V30 21711 H 2173.48 -3.76671 -3.40707 0
M  V30 21712 H 2173.41 -2.48523 -4.64267 0
M  V30 21713 H 2175.9 -2.12907 -3.12216 0
M  V30 21714 H 2176.21 -4.85624 -6.01156 0
M  V30 21715 H 2174.56 -4.36194 -5.41073 0
M  V30 21716 H 2177.75 -2.70643 -3.81929 0
M  V30 21717 H 2177.92 -3.94986 -5.13702 0
M  V30 21718 N 2171.33 1.37038 -0.778354 0
M  V30 21719 C 2172.74 1.52865 -0.458743 0
M  V30 21720 C 2172.94 1.73503 1.02465 0
M  V30 21721 O 2172 1.76017 1.81036 0
M  V30 21722 C 2173.31 2.72117 -1.27956 0
M  V30 21723 C 2174.86 2.85982 -1.27213 0
M  V30 21724 C 2175.34 4.08225 -2.07645 0
M  V30 21725 N 2176.83 4.1535 -2.05033 0
M  V30 21726 C 2177.56 5.08988 -2.64044 0
M  V30 21727 N 2177.06 6.0814 -3.3187 0
M  V30 21728 N 2178.85 5.0152 -2.53838 0
M  V30 21729 H 2171 1.21895 -1.73941 0
M  V30 21730 H 2173.27 0.594067 -0.738775 0
M  V30 21731 H 2172.97 2.63353 -2.33105 0
M  V30 21732 H 2172.85 3.65977 -0.913259 0
M  V30 21733 H 2175.23 2.94213 -0.228607 0
M  V30 21734 H 2175.31 1.93061 -1.67812 0
M  V30 21735 H 2174.96 4.00755 -3.12022 0
M  V30 21736 H 2174.89 5.00272 -1.64423 0
M  V30 21737 H 2177.38 3.44352 -1.55659 0
M  V30 21738 H 2177.69 6.76131 -3.74255 0
M  V30 21739 H 2176.04 6.08399 -3.3597 0
M  V30 21740 H 2179.23 4.23005 -2.0046 0
M  V30 21741 H 2179.4 5.7431 -3.00121 0
M  V30 21742 N 2172.81 0.529439 1.48441 0
M  V30 21743 C 2174.22 0.0888387 1.86489 0
M  V30 21744 C 2174.57 -1.33364 1.43905 0
M  V30 21745 O 2173.69 -1.9987 0.829524 0
M  V30 21746 C 2174.29 0.154445 3.38448 0
M  V30 21747 C 2172.85 -0.230958 3.75691 0
M  V30 21748 C 2172 0.514449 2.72486 0
M  V30 21749 H 2174.95 0.740717 1.40353 0
M  V30 21750 H 2174.97 -0.63398 3.75181 0
M  V30 21751 H 2174.48 1.18985 3.69411 0
M  V30 21752 H 2172.58 -1.26853 3.50341 0
M  V30 21753 H 2172.69 0.108275 4.78978 0
M  V30 21754 H 2171.06 -0.039218 2.5467 0
M  V30 21755 H 2171.84 1.55048 3.06293 0
M  V30 21756 N 2174.29 -1.55364 0.264547 0
M  V30 21757 C 2175.56 -1.9133 -0.406489 0
M  V30 21758 C 2175.94 -1.18752 -1.74531 0
M  V30 21759 O 2175.29 -0.310831 -2.26376 0
M  V30 21760 C 2175.5 -3.44523 -0.557199 0
M  V30 21761 C 2176.85 -4.16107 -0.844973 0
M  V30 21762 O 2177.87 -3.50359 -0.642406 0
M  V30 21763 O 2176.73 -5.32438 -1.23175 0
M  V30 21764 H 2173.83 -0.796963 -0.220859 0
M  V30 21765 H 2176.37 -1.66846 0.309918 0
M  V30 21766 H 2175.14 -3.89397 0.385423 0
M  V30 21767 H 2174.77 -3.74926 -1.32348 0
M  V30 21768 N 2175.76 0.00833021 -1.57598 0
M  V30 21769 C 2177.01 0.693539 -1.89827 0
M  V30 21770 C 2177.33 1.74773 -0.864844 0
M  V30 21771 O 2176.6 1.9565 0.0988666 0
M  V30 21772 H 2175.18 0.25915 -0.700607 0
M  V30 21773 H 2177.84 -0.0306259 -1.94876 0
M  V30 21774 H 2176.94 1.17005 -2.89337 0
M  V30 21775 N 2177.24 1.55075 0.280956 0
M  V30 21776 C 2178.17 1.83809 1.36919 0
M  V30 21777 C 2179.19 0.722116 1.45909 0
M  V30 21778 O 2180.38 0.999868 1.47868 0
M  V30 21779 C 2177.48 1.97895 2.75119 0
M  V30 21780 C 2176.65 3.28485 2.88819 0
M  V30 21781 C 2175.71 3.32736 4.07643 0
M  V30 21782 O 2174.73 4.06159 3.98778 0
M  V30 21783 N 2175.94 2.59566 5.19236 0
M  V30 21784 H 2178.7 2.77736 1.12619 0
M  V30 21785 H 2176.26 1.54895 0.471063 0
M  V30 21786 H 2178.25 1.98119 3.5289 0
M  V30 21787 H 2176.82 1.10872 2.92278 0
M  V30 21788 H 2176.04 3.40868 1.97997 0
M  V30 21789 H 2177.33 4.14624 2.94897 0
M  V30 21790 H 2176.73 1.99582 5.29324 0
M  V30 21791 H 2175.29 2.65521 5.95266 0
M  V30 21792 N 2178.72 -0.545102 1.47873 0
M  V30 21793 C 2180.13 -1.12717 1.48835 0
M  V30 21794 C 2180.48 -1.94604 0.249718 0
M  V30 21795 O 2179.61 -2.06582 -0.644417 0
M  V30 21796 C 2180.2 -2.05084 2.69678 0
M  V30 21797 C 2178.76 -2.58538 2.7356 0
M  V30 21798 C 2177.91 -1.35171 2.42124 0
M  V30 21799 H 2180.86 -0.331094 1.55208 0
M  V30 21800 H 2180.88 -2.89145 2.47336 0
M  V30 21801 H 2180.39 -1.45457 3.59811 0
M  V30 21802 H 2178.49 -3.21929 1.87597 0
M  V30 21803 H 2178.61 -2.98704 3.74583 0
M  V30 21804 H 2176.97 -1.66249 1.9296 0
M  V30 21805 H 2177.75 -0.773194 3.3448 0
M  V30 21806 N 2180.2 -1.36208 -0.792797 0
M  V30 21807 C 2181.16 -1.30111 -1.88689 0
M  V30 21808 C 2182.16 -0.209535 -1.59429 0
M  V30 21809 O 2183.35 -0.464108 -1.67904 0
M  V30 21810 C 2180.48 -1.01615 -3.25403 0
M  V30 21811 H 2181.68 -2.2741 -1.95511 0
M  V30 21812 H 2179.23 -1.20931 -0.990219 0
M  V30 21813 H 2179.96 -0.0476043 -3.24265 0
M  V30 21814 H 2179.75 -1.80604 -3.48029 0
M  V30 21815 H 2181.24 -0.999458 -4.05463 0
M  V30 21816 N 2181.68 1.01656 -1.20431 0
M  V30 21817 C 2182.9 1.78855 -1.04012 0
M  V30 21818 C 2183.32 1.8428 0.410661 0
M  V30 21819 O 2182.68 1.29579 1.28512 0
M  V30 21820 C 2182.73 3.23321 -1.61696 0
M  V30 21821 O 2182.45 3.18233 -3.01097 0
M  V30 21822 C 2183.95 4.17068 -1.5023 0
M  V30 21823 H 2181.17 0.562464 -0.36589 0
M  V30 21824 H 2183.71 1.27961 -1.59519 0
M  V30 21825 H 2181.87 3.71363 -1.10309 0
M  V30 21826 H 2182.28 4.08911 -3.28469 0
M  V30 21827 H 2183.76 5.16277 -1.95352 0
M  V30 21828 H 2184.23 4.36839 -0.454792 0
M  V30 21829 H 2184.84 3.74908 -2.00808 0
M  V30 21830 N 2183.15 1.01021 1.20965 0
M  V30 21831 C 2184.57 0.723934 1.42237 0
M  V30 21832 C 2184.77 -0.698897 1.88991 0
M  V30 21833 O 2183.83 -1.46754 2.05474 0
M  V30 21834 C 2185.14 1.74422 2.44944 0
M  V30 21835 C 2186.69 1.76162 2.5872 0
M  V30 21836 C 2187.16 2.771 3.64664 0
M  V30 21837 N 2188.65 2.758 3.72141 0
M  V30 21838 C 2189.39 3.5056 4.53757 0
M  V30 21839 N 2188.88 4.34977 5.39228 0
M  V30 21840 N 2190.68 3.39187 4.48229 0
M  V30 21841 H 2182.83 1.92886 0.889301 0
M  V30 21842 H 2185.09 0.832854 0.452834 0
M  V30 21843 H 2184.8 2.76323 2.17574 0
M  V30 21844 H 2184.67 1.55112 3.43831 0
M  V30 21845 H 2187.06 0.749493 2.85424 0
M  V30 21846 H 2187.14 1.99544 1.60049 0
M  V30 21847 H 2186.78 3.78473 3.38705 0
M  V30 21848 H 2186.71 2.50982 4.62942 0
M  V30 21849 H 2189.2 2.1456 3.11083 0
M  V30 21850 H 2189.52 4.88805 5.98573 0
M  V30 21851 H 2187.86 4.39057 5.38752 0
M  V30 21852 H 2191.05 2.72665 3.80488 0
M  V30 21853 H 2191.23 3.97705 5.116 0
M  V30 21854 N 2184.63 -1.36623 0.78561 0
M  V30 21855 C 2185.54 -2.33889 0.182448 0
M  V30 21856 C 2186.56 -1.60858 -0.66338 0
M  V30 21857 O 2187.73 -1.92866 -0.580058 0
M  V30 21858 C 2184.8 -3.40052 -0.675704 0
M  V30 21859 C 2183.86 -4.28887 0.188182 0
M  V30 21860 C 2183.09 -5.29979 -0.629108 0
M  V30 21861 O 2183.32 -5.39037 -1.86534 0
M  V30 21862 O 2182.25 -6.01892 -0.0310062 0
M  V30 21863 H 2186.08 -2.87229 0.986556 0
M  V30 21864 H 2183.66 -1.39026 0.547001 0
M  V30 21865 H 2185.54 -4.04971 -1.16518 0
M  V30 21866 H 2184.22 -2.89017 -1.45777 0
M  V30 21867 H 2183.12 -3.67021 0.724325 0
M  V30 21868 H 2184.46 -4.83263 0.933665 0
M  V30 21869 N 2186.11 -0.537304 -1.48158 0
M  V30 21870 C 2187.06 0.241443 -2.26718 0
M  V30 21871 C 2188.04 0.903317 -1.3315 0
M  V30 21872 O 2189.24 0.804913 -1.57639 0
M  V30 21873 C 2186.36 1.28323 -3.18415 0
M  V30 21874 C 2185.45 0.625778 -4.19458 0
M  V30 21875 N 2185.84 -0.292719 -5.04952 0
M  V30 21876 C 2184.14 0.882109 -4.3719 0
M  V30 21877 C 2184.84 -0.67271 -5.77797 0
M  V30 21878 N 2183.82 -0.032099 -5.43591 0
M  V30 21879 H 2187.62 -0.465059 -2.90197 0
M  V30 21880 H 2185.13 -0.355839 -1.58454 0
M  V30 21881 H 2187.13 1.85491 -3.73361 0
M  V30 21882 H 2185.79 1.99103 -2.56492 0
M  V30 21883 H 2186.8 -0.665751 -5.13603 0
M  V30 21884 H 2183.48 1.57993 -3.86451 0
M  V30 21885 H 2184.87 -1.42629 -6.56587 0
M  V30 21886 N 2187.59 1.55221 -0.272782 0
M  V30 21887 C 2188.52 2.25408 0.609392 0
M  V30 21888 C 2189.5 1.2434 1.16076 0
M  V30 21889 O 2190.68 1.53054 1.19533 0
M  V30 21890 C 2187.81 2.97338 1.79464 0
M  V30 21891 C 2186.77 4.05315 1.37491 0
M  V30 21892 C 2186.09 4.64808 2.64307 0
M  V30 21893 C 2187.39 5.19636 0.526828 0
M  V30 21894 H 2189.09 2.9939 0.0240678 0
M  V30 21895 H 2186.63 1.43996 0.0101357 0
M  V30 21896 H 2188.59 3.45149 2.41765 0
M  V30 21897 H 2187.31 2.20887 2.40576 0
M  V30 21898 H 2185.97 3.58312 0.775106 0
M  V30 21899 H 2185.62 3.85027 3.23672 0
M  V30 21900 H 2185.32 5.37713 2.36935 0
M  V30 21901 H 2186.84 5.15366 3.2746 0
M  V30 21902 H 2188.26 5.63513 1.05478 0
M  V30 21903 H 2186.65 5.9909 0.348095 0
M  V30 21904 H 2187.72 4.82761 -0.454948 0
M  V30 21905 N 2189.07 2.77022e-05 1.576 0
M  V30 21906 C 2190 -0.990304 2.1146 0
M  V30 21907 C 2190.98 -1.35844 1.02374 0
M  V30 21908 O 2192.16 -1.44218 1.30057 0
M  V30 21909 C 2189.29 -2.28215 2.61792 0
M  V30 21910 C 2188.25 -2.05563 3.75404 0
M  V30 21911 C 2187.57 -3.40761 4.12051 0
M  V30 21912 C 2188.87 -1.4182 5.02677 0
M  V30 21913 H 2190.57 -0.541853 2.94456 0
M  V30 21914 H 2188.11 -0.259194 1.41648 0
M  V30 21915 H 2190.07 -2.97851 2.98099 0
M  V30 21916 H 2188.79 -2.75174 1.75918 0
M  V30 21917 H 2187.45 -1.38353 3.39491 0
M  V30 21918 H 2187.1 -3.85423 3.232 0
M  V30 21919 H 2186.8 -3.26421 4.88593 0
M  V30 21920 H 2188.32 -4.11712 4.50916 0
M  V30 21921 H 2189.73 -2.01413 5.36755 0
M  V30 21922 H 2188.13 -1.37967 5.84025 0
M  V30 21923 H 2189.2 -0.387421 4.8335 0
M  V30 21924 N 2190.54 -1.55222 -0.272728 0
M  V30 21925 C 2191.48 -1.83048 -1.36266 0
M  V30 21926 C 2192.46 -0.683547 -1.47534 0
M  V30 21927 O 2193.64 -0.926574 -1.64155 0
M  V30 21928 C 2190.77 -1.99234 -2.73904 0
M  V30 21929 C 2189.81 -3.21788 -2.79919 0
M  V30 21930 S 2190.65 -4.79138 -2.39137 0
M  V30 21931 C 2191.8 -4.98297 -3.78749 0
M  V30 21932 H 2192.03 -2.75209 -1.1246 0
M  V30 21933 H 2189.57 -1.46997 -0.472372 0
M  V30 21934 H 2191.53 -2.09244 -3.53167 0
M  V30 21935 H 2190.19 -1.07961 -2.94963 0
M  V30 21936 H 2189.38 -3.30001 -3.8094 0
M  V30 21937 H 2188.98 -3.1037 -2.08677 0
M  V30 21938 H 2191.27 -4.84055 -4.74022 0
M  V30 21939 H 2192.22 -6.00345 -3.75488 0
M  V30 21940 H 2192.62 -4.26277 -3.70065 0
M  V30 21941 N 2192.02 0.537252 -1.4816 0
M  V30 21942 C 2192.99 1.62469 -1.61668 0
M  V30 21943 C 2193.99 1.53139 -0.490422 0
M  V30 21944 O 2195.18 1.56939 -0.756026 0
M  V30 21945 C 2192.31 3.02073 -1.58003 0
M  V30 21946 H 2193.5 1.51834 -2.58624 0
M  V30 21947 H 2191.05 0.758747 -1.36648 0
M  V30 21948 H 2191.79 3.18221 -0.624969 0
M  V30 21949 H 2191.57 3.10254 -2.3976 0
M  V30 21950 H 2193.06 3.81148 -1.70634 0
M  V30 21951 N 2193.5 1.36626 0.785562 0
M  V30 21952 C 2194.43 1.33953 1.91256 0
M  V30 21953 C 2195.41 0.210355 1.68794 0
M  V30 21954 O 2196.6 0.408594 1.89853 0
M  V30 21955 C 2193.73 1.13191 3.28337 0
M  V30 21956 C 2192.68 2.22974 3.65331 0
M  V30 21957 C 2192.01 1.87351 5.00803 0
M  V30 21958 C 2193.31 3.65082 3.73514 0
M  V30 21959 H 2195 2.28257 1.93751 0
M  V30 21960 H 2192.55 1.09876 0.930768 0
M  V30 21961 H 2194.5 1.09955 4.06802 0
M  V30 21962 H 2193.22 0.15339 3.2624 0
M  V30 21963 H 2191.88 2.25342 2.89165 0
M  V30 21964 H 2191.53 0.880632 4.95231 0
M  V30 21965 H 2191.23 2.60855 5.26525 0
M  V30 21966 H 2192.75 1.85677 5.81684 0
M  V30 21967 H 2194.17 3.64919 4.42162 0
M  V30 21968 H 2192.57 4.37523 4.10723 0
M  V30 21969 H 2193.64 3.99708 2.7452 0
M  V30 21970 N 2194.98 -1.01016 1.20969 0
M  V30 21971 C 2195.94 -2.07851 0.965954 0
M  V30 21972 C 2196.94 -1.60684 -0.0610263 0
M  V30 21973 O 2198.13 -1.73312 0.175711 0
M  V30 21974 C 2195.26 -3.37842 0.455573 0
M  V30 21975 H 2196.46 -2.30907 1.91369 0
M  V30 21976 H 2194.01 -1.17915 1.02596 0
M  V30 21977 H 2194.74 -3.20464 -0.497325 0
M  V30 21978 H 2194.53 -3.73405 1.19628 0
M  V30 21979 H 2196.02 -4.16487 0.304741 0
M  V30 21980 N 2196.46 -1.01661 -1.20428 0
M  V30 21981 C 2197.73 -0.621037 -1.85479 0
M  V30 21982 C 2198.11 0.900885 -1.90912 0
M  V30 21983 O 2197.46 1.7926 -1.41697 0
M  V30 21984 C 2197.67 -1.26885 -3.25117 0
M  V30 21985 C 2199.02 -1.3843 -4.014 0
M  V30 21986 O 2200.04 -1.22507 -3.34471 0
M  V30 21987 O 2198.9 -1.6416 -5.21262 0
M  V30 21988 H 2196 -0.21428 -0.798757 0
M  V30 21989 H 2198.54 -1.11399 -1.28017 0
M  V30 21990 H 2197.31 -2.30879 -3.15928 0
M  V30 21991 H 2196.94 -0.762986 -3.90211 0
M  V30 21992 N 2197.93 1.36205 -0.792844 0
M  V30 21993 C 2198.86 2.32573 -0.207894 0
M  V30 21994 C 2199.85 1.56815 0.659028 0
M  V30 21995 O 2201.03 1.84952 0.592143 0
M  V30 21996 C 2198.16 3.4106 0.655389 0
M  V30 21997 C 2197.11 4.27854 -0.111917 0
M  V30 21998 C 2196.44 5.27539 0.872181 0
M  V30 21999 C 2197.74 5.05784 -1.30308 0
M  V30 22000 H 2199.43 2.81743 -1.01299 0
M  V30 22001 H 2196.98 1.35459 -0.488564 0
M  V30 22002 H 2198.93 4.07469 1.07457 0
M  V30 22003 H 2197.66 2.90466 1.49323 0
M  V30 22004 H 2196.32 3.63005 -0.512116 0
M  V30 22005 H 2195.96 4.73217 1.70514 0
M  V30 22006 H 2195.66 5.86477 0.363188 0
M  V30 22007 H 2197.19 5.96821 1.28986 0
M  V30 22008 H 2198.6 5.65214 -0.959478 0
M  V30 22009 H 2197 5.7415 -1.7456 0
M  V30 22010 H 2198.07 4.37226 -2.0967 0
M  V30 22011 N 2199.41 0.545154 1.47871 0
M  V30 22012 C 2200.69 -0.0484878 1.9554 0
M  V30 22013 C 2201.07 -1.49776 1.48763 0
M  V30 22014 O 2200.42 -2.16828 0.720963 0
M  V30 22015 C 2200.63 0.0844783 3.48898 0
M  V30 22016 C 2201.98 -0.0670492 4.24547 0
M  V30 22017 O 2203 0.0114276 3.56198 0
M  V30 22018 O 2201.86 -0.233786 5.46 0
M  V30 22019 H 2198.95 -0.0708628 0.823958 0
M  V30 22020 H 2201.5 0.610825 1.58326 0
M  V30 22021 H 2200.27 1.09344 3.75712 0
M  V30 22022 H 2199.89 -0.612997 3.92846 0
M  V30 22023 N 2200.89 -1.55074 0.28101 0
M  V30 22024 C 2201.8 -2.26427 -0.61384 0
M  V30 22025 C 2202.82 -1.29226 -1.16519 0
M  V30 22026 O 2203.99 -1.62173 -1.19423 0
M  V30 22027 C 2201.06 -2.97593 -1.77875 0
M  V30 22028 C 2200.12 -4.10286 -1.26348 0
M  V30 22029 C 2199.35 -4.78049 -2.37287 0
M  V30 22030 O 2199.57 -4.45053 -3.56769 0
M  V30 22031 O 2198.51 -5.65874 -2.05109 0
M  V30 22032 H 2202.33 -3.03679 -0.0356398 0
M  V30 22033 H 2199.92 -1.49322 0.0481948 0
M  V30 22034 H 2201.8 -3.42297 -2.45785 0
M  V30 22035 H 2200.48 -2.23253 -2.34393 0
M  V30 22036 H 2199.38 -3.70025 -0.55067 0
M  V30 22037 H 2200.72 -4.86545 -0.743979 0
M  V30 22038 N 2202.37 -0.00838561 -1.57598 0
M  V30 22039 C 2203.3 0.979076 -2.11982 0
M  V30 22040 C 2204.28 1.35299 -1.03093 0
M  V30 22041 O 2205.47 1.43526 -1.3082 0
M  V30 22042 C 2202.6 2.26824 -2.62999 0
M  V30 22043 C 2201.55 2.03569 -3.76488 0
M  V30 22044 C 2200.88 3.38571 -4.13852 0
M  V30 22045 C 2202.18 1.39152 -5.03422 0
M  V30 22046 H 2203.87 0.52623 -2.94739 0
M  V30 22047 H 2201.42 0.251679 -1.41784 0
M  V30 22048 H 2203.37 2.96266 -2.99674 0
M  V30 22049 H 2202.09 2.74237 -1.77374 0
M  V30 22050 H 2200.75 1.36551 -3.4022 0
M  V30 22051 H 2200.4 3.83704 -3.25239 0
M  V30 22052 H 2200.1 3.23825 -4.90317 0
M  V30 22053 H 2201.62 4.09315 -4.53093 0
M  V30 22054 H 2203.04 1.98563 -5.37815 0
M  V30 22055 H 2201.43 1.34868 -5.84748 0
M  V30 22056 H 2202.5 0.361783 -4.83548 0
M  V30 22057 N 2203.85 1.55365 0.264492 0
M  V30 22058 C 2204.78 1.91838 1.33117 0
M  V30 22059 C 2205.76 0.781219 1.51099 0
M  V30 22060 O 2206.94 1.04006 1.64001 0
M  V30 22061 C 2204.07 2.19774 2.68918 0
M  V30 22062 C 2203.03 3.35576 2.65655 0
M  V30 22063 C 2202.35 3.49011 4.05087 0
M  V30 22064 C 2203.65 4.71743 2.24179 0
M  V30 22065 H 2205.35 2.81184 1.02839 0
M  V30 22066 H 2202.89 1.35288 0.493263 0
M  V30 22067 H 2204.85 2.43878 3.43659 0
M  V30 22068 H 2203.57 1.27236 3.00796 0
M  V30 22069 H 2202.23 3.11453 1.93371 0
M  V30 22070 H 2201.88 2.53924 4.34202 0
M  V30 22071 H 2201.58 4.26875 4.03797 0
M  V30 22072 H 2203.1 3.75417 4.81554 0
M  V30 22073 H 2204.52 4.95335 2.88646 0
M  V30 22074 H 2202.91 5.52583 2.34034 0
M  V30 22075 H 2203.98 4.6999 1.19319 0
M  V30 22076 N 2205.33 -0.529387 1.48443 0
M  V30 22077 C 2206.57 -1.28166 1.55744 0
M  V30 22078 C 2206.89 -1.94164 0.236545 0
M  V30 22079 O 2208.09 -2.7085 0.187809 0
M  V30 22080 C 2206.55 -2.3256 2.74671 0
M  V30 22081 C 2206.16 -1.72628 4.13405 0
M  V30 22082 C 2207.9 -3.08793 2.91285 0
M  V30 22083 C 2205.81 -2.74965 5.23591 0
M  V30 22084 H 2204.74 -0.48202 0.579804 0
M  V30 22085 H 2207.39 -0.559025 1.74777 0
M  V30 22086 H 2205.77 -3.07862 2.49073 0
M  V30 22087 H 2206.95 -1.03511 4.49024 0
M  V30 22088 H 2205.26 -1.08885 4.01912 0
M  V30 22089 H 2207.86 -3.85267 3.70774 0
M  V30 22090 H 2208.2 -3.64691 2.00764 0
M  V30 22091 H 2208.73 -2.40606 3.16786 0
M  V30 22092 H 2205.47 -2.23887 6.1608 0
M  V30 22093 H 2204.99 -3.42409 4.9246 0
M  V30 22094 H 2206.67 -3.37939 5.5173 0
M  V30 22095 N 2206.8 -1.37041 -0.778305 0
M  V30 22096 C 2208.22 -1.17697 -1.07794 0
M  V30 22097 C 2208.42 -0.00863657 -2.01498 0
M  V30 22098 O 2207.48 0.653309 -2.43902 0
M  V30 22099 C 2208.79 -2.49275 -1.68174 0
M  V30 22100 C 2210.34 -2.55739 -1.80463 0
M  V30 22101 C 2210.81 -3.87431 -2.44257 0
M  V30 22102 N 2212.3 -3.88837 -2.51714 0
M  V30 22103 C 2213.04 -4.87481 -3.01911 0
M  V30 22104 N 2212.53 -5.9652 -3.5233 0
M  V30 22105 N 2214.33 -4.74891 -3.00725 0
M  V30 22106 H 2206.48 -2.11826 -0.155995 0
M  V30 22107 H 2208.74 -0.938789 -0.131827 0
M  V30 22108 H 2208.45 -3.35095 -1.0679 0
M  V30 22109 H 2208.32 -2.65889 -2.67549 0
M  V30 22110 H 2210.71 -1.70329 -2.40981 0
M  V30 22111 H 2210.79 -2.43014 -0.798613 0
M  V30 22112 H 2210.43 -4.73251 -1.84379 0
M  V30 22113 H 2210.36 -3.97456 -3.45451 0
M  V30 22114 H 2212.85 -3.10067 -2.16025 0
M  V30 22115 H 2213.17 -6.67748 -3.89015 0
M  V30 22116 H 2211.51 -6.00174 -3.50452 0
M  V30 22117 H 2214.7 -3.8883 -2.60631 0
M  V30 22118 H 2214.88 -5.51924 -3.39535 0
M  V30 22119 N 2208.28 1.00373 -1.21503 0
M  V30 22120 C 2209.24 2.07336 -0.976963 0
M  V30 22121 C 2210.24 1.60714 0.052504 0
M  V30 22122 O 2211.43 1.73216 -0.1849 0
M  V30 22123 C 2208.57 3.37596 -0.473483 0
M  V30 22124 H 2209.76 2.29889 -1.92591 0
M  V30 22125 H 2207.31 1.17369 -1.03219 0
M  V30 22126 H 2208.05 3.20723 0.480323 0
M  V30 22127 H 2207.83 3.72766 -1.21607 0
M  V30 22128 H 2209.32 4.16319 -0.326824 0
M  V30 22129 N 2209.76 1.02298 1.19887 0
M  V30 22130 C 2210.99 0.735433 1.93388 0
M  V30 22131 C 2211.4 -0.704856 1.75149 0
M  V30 22132 O 2210.76 -1.47873 1.06957 0
M  V30 22133 C 2210.81 1.06968 3.45312 0
M  V30 22134 O 2210.53 2.45341 3.62959 0
M  V30 22135 C 2212.03 0.804098 4.35946 0
M  V30 22136 H 2209.25 0.269557 0.614475 0
M  V30 22137 H 2211.8 1.36588 1.52197 0
M  V30 22138 H 2209.95 0.484523 3.84358 0
M  V30 22139 H 2210.37 2.57603 4.56882 0
M  V30 22140 H 2211.84 1.08799 5.41172 0
M  V30 22141 H 2212.32 -0.261613 4.3842 0
M  V30 22142 H 2212.92 1.37171 4.02572 0
M  V30 22143 N 2211.24 -1.35782 0.800057 0
M  V30 22144 C 2212.48 -1.98953 0.377377 0
M  V30 22145 C 2212.81 -1.63482 -1.05375 0
M  V30 22146 O 2212.07 -0.886737 -1.74458 0
M  V30 22147 C 2212.37 -3.5388 0.500338 0
M  V30 22148 C 2212.03 -4.09201 1.89382 0
M  V30 22149 C 2210.69 -4.24021 2.27507 0
M  V30 22150 C 2213.05 -4.39233 2.80578 0
M  V30 22151 C 2210.37 -4.66189 3.56208 0
M  V30 22152 C 2212.73 -4.82837 4.08719 0
M  V30 22153 C 2211.39 -4.95863 4.46851 0
M  V30 22154 H 2210.66 -0.728019 0.138092 0
M  V30 22155 H 2213.31 -1.62101 1.01958 0
M  V30 22156 H 2211.61 -3.91151 -0.225336 0
M  V30 22157 H 2213.31 -4.00704 0.154167 0
M  V30 22158 H 2209.9 -3.98112 1.5876 0
M  V30 22159 H 2214.08 -4.27342 2.52374 0
M  V30 22160 H 2209.34 -4.74463 3.8561 0
M  V30 22161 H 2213.51 -5.05037 4.7949 0
M  V30 22162 H 2211.14 -5.28296 5.46633 0
M  V30 22163 N 2212.72 -0.552988 -1.4758 0
M  V30 22164 C 2213.94 -0.0300957 -2.07378 0
M  V30 22165 C 2214.37 1.25226 -1.40357 0
M  V30 22166 O 2213.72 1.74909 -0.477129 0
M  V30 22167 C 2213.77 0.153168 -3.60275 0
M  V30 22168 O 2212.88 1.21671 -3.94043 0
M  V30 22169 H 2212.22 -0.0494298 -0.662158 0
M  V30 22170 H 2214.75 -0.767468 -1.8966 0
M  V30 22171 H 2214.76 0.36869 -4.06331 0
M  V30 22172 H 2213.43 -0.783469 -4.08454 0
M  V30 22173 H 2212.01 0.982016 -3.59737 0
M  V30 22174 N 2214.19 1.54923 -0.28923 0
M  V30 22175 C 2215.42 2.0477 0.329263 0
M  V30 22176 C 2215.84 1.16566 1.47628 0
M  V30 22177 O 2215.2 0.167218 1.80527 0
M  V30 22178 C 2215.25 3.52187 0.774376 0
M  V30 22179 O 2214.35 3.6704 1.88031 0
M  V30 22180 H 2213.69 0.66072 0.0659143 0
M  V30 22181 H 2216.22 2.00081 -0.427645 0
M  V30 22182 H 2216.23 3.93818 1.06635 0
M  V30 22183 H 2214.91 4.1585 -0.0647438 0
M  V30 22184 H 2213.49 3.37313 1.58979 0
M  V30 22185 N 2215.67 0.0167433 1.57591 0
M  V30 22186 C 2216.92 -0.665548 1.91568 0
M  V30 22187 C 2217.25 -1.72485 0.892329 0
M  V30 22188 O 2216.53 -1.94307 -0.0866785 0
M  V30 22189 C 2216.81 -1.29336 3.36072 0
M  V30 22190 C 2216.66 -0.244462 4.49135 0
M  V30 22191 C 2217.98 -2.21488 3.80304 0
M  V30 22192 H 2215.1 -0.240476 0.696664 0
M  V30 22193 H 2217.74 0.071469 1.89866 0
M  V30 22194 H 2215.89 -1.92153 3.37653 0
M  V30 22195 H 2217.56 0.385309 4.59688 0
M  V30 22196 H 2215.81 0.431455 4.31649 0
M  V30 22197 H 2216.48 -0.723111 5.47243 0
M  V30 22198 H 2218.95 -1.68672 3.8038 0
M  V30 22199 H 2217.83 -2.62374 4.82132 0
M  V30 22200 H 2218.09 -3.10094 3.1511 0
M  V30 22201 N 2217.15 -1.55503 -0.256249 0
M  V30 22202 C 2218.56 -1.67432 -0.826039 0
M  V30 22203 C 2218.91 -0.612478 -1.86395 0
M  V30 22204 O 2218.04 0.242987 -2.15031 0
M  V30 22205 C 2218.63 -3.03535 -1.50507 0
M  V30 22206 C 2217.19 -3.17435 -2.02267 0
M  V30 22207 C 2216.34 -2.63282 -0.870502 0
M  V30 22208 H 2219.29 -1.58667 -0.0322449 0
M  V30 22209 H 2219.31 -2.97458 -2.37274 0
M  V30 22210 H 2218.82 -3.80796 -0.749417 0
M  V30 22211 H 2216.92 -2.44979 -2.80742 0
M  V30 22212 H 2217.04 -4.24223 -2.22648 0
M  V30 22213 H 2215.4 -2.20866 -1.26847 0
M  V30 22214 H 2216.18 -3.43061 -0.128088 0
M  V30 22215 N 2218.63 0.521507 -1.48721 0
M  V30 22216 C 2219.56 1.63428 -1.66774 0
M  V30 22217 C 2220.54 1.62068 -0.516528 0
M  V30 22218 O 2221.72 1.79131 -0.750045 0
M  V30 22219 C 2218.85 3.0199 -1.71521 0
M  V30 22220 C 2217.81 3.18211 -2.86227 0
M  V30 22221 C 2217.13 4.57919 -2.76069 0
M  V30 22222 C 2218.43 3.00177 -4.27424 0
M  V30 22223 H 2220.13 1.48574 -2.59935 0
M  V30 22224 H 2217.67 0.713336 -1.2509 0
M  V30 22225 H 2219.63 3.79717 -1.82738 0
M  V30 22226 H 2218.35 3.17885 -0.749449 0
M  V30 22227 H 2217.01 2.42903 -2.74579 0
M  V30 22228 H 2216.66 4.70662 -1.77445 0
M  V30 22229 H 2216.36 4.69716 -3.53045 0
M  V30 22230 H 2217.88 5.37734 -2.89266 0
M  V30 22231 H 2219.3 3.67689 -4.39861 0
M  V30 22232 H 2217.69 3.23461 -5.05463 0
M  V30 22233 H 2218.76 1.96511 -4.43296 0
M  V30 22234 N 2220.11 1.37452 0.771027 0
M  V30 22235 C 2221.07 1.33097 1.86596 0
M  V30 22236 C 2222.07 0.234873 1.59075 0
M  V30 22237 O 2223.26 0.490762 1.67144 0
M  V30 22238 C 2220.39 1.06779 3.23745 0
M  V30 22239 H 2221.58 2.30492 1.91869 0
M  V30 22240 H 2219.14 1.22491 0.970855 0
M  V30 22241 H 2219.87 0.099186 3.24148 0
M  V30 22242 H 2219.66 1.86118 3.45112 0
M  V30 22243 H 2221.15 1.06384 4.03822 0
M  V30 22244 N 2221.58 -0.997276 1.22033 0
M  V30 22245 C 2222.55 -2.06815 0.987945 0
M  V30 22246 C 2223.55 -1.6074 -0.0439802 0
M  V30 22247 O 2224.74 -1.73115 0.194083 0
M  V30 22248 C 2221.87 -3.3734 0.49138 0
M  V30 22249 H 2223.06 -2.28864 1.93807 0
M  V30 22250 H 2220.62 -1.1682 1.0384 0
M  V30 22251 H 2221.35 -3.20973 -0.463307 0
M  V30 22252 H 2221.14 -3.72115 1.23582 0
M  V30 22253 H 2222.63 -4.1614 0.348897 0
M  V30 22254 N 2223.06 -1.02932 -1.19343 0
M  V30 22255 C 2224.29 -0.745545 -1.93537 0
M  V30 22256 C 2224.71 0.68948 -1.75008 0
M  V30 22257 O 2224.07 1.47609 -1.05268 0
M  V30 22258 C 2224.12 -1.10245 -3.43334 0
M  V30 22259 O 2223.22 -0.221361 -4.11805 0
M  V30 22260 H 2222.56 -0.275415 -0.604188 0
M  V30 22261 H 2225.09 -1.37612 -1.51407 0
M  V30 22262 H 2225.1 -1.05954 -3.94002 0
M  V30 22263 H 2223.78 -2.14792 -3.56142 0
M  V30 22264 H 2222.36 -0.322907 -3.71499 0
M  V30 22265 N 2224.54 1.35356 -0.807246 0
M  V30 22266 C 2225.79 1.98003 -0.384411 0
M  V30 22267 C 2226.1 1.64756 1.05427 0
M  V30 22268 O 2227.31 2.20772 1.58025 0
M  V30 22269 C 2225.76 3.54229 -0.636389 0
M  V30 22270 C 2225.37 3.96385 -2.08766 0
M  V30 22271 C 2227.12 4.23583 -0.278943 0
M  V30 22272 C 2225.02 5.45459 -2.28535 0
M  V30 22273 H 2223.95 0.740889 -0.139999 0
M  V30 22274 H 2226.6 1.54414 -0.991396 0
M  V30 22275 H 2224.99 3.95979 0.040556 0
M  V30 22276 H 2226.16 3.65785 -2.80247 0
M  V30 22277 H 2224.48 3.39922 -2.40503 0
M  V30 22278 H 2227.07 5.33166 -0.404693 0
M  V30 22279 H 2227.42 4.09024 0.77494 0
M  V30 22280 H 2227.95 3.87256 -0.909832 0
M  V30 22281 H 2224.69 5.64986 -3.32371 0
M  V30 22282 H 2224.21 5.77626 -1.61579 0
M  V30 22283 H 2225.89 6.1193 -2.1012 0
M  V30 22284 N 2226.02 0.560807 1.47284 0
M  V30 22285 C 2227.24 0.0410931 2.07359 0
M  V30 22286 C 2227.67 -1.2448 1.41019 0
M  V30 22287 O 2227.03 -1.74654 0.486398 0
M  V30 22288 C 2227.07 -0.134059 3.60351 0
M  V30 22289 O 2226.18 -1.1958 3.94683 0
M  V30 22290 H 2225.52 0.0529407 0.661886 0
M  V30 22291 H 2228.05 0.777515 1.89251 0
M  V30 22292 H 2228.06 -0.347136 4.06521 0
M  V30 22293 H 2226.73 0.805119 4.08033 0
M  V30 22294 H 2225.31 -0.962924 3.60253 0
M  V30 22295 N 2227.5 -1.54768 0.297442 0
M  V30 22296 C 2228.46 -2.22067 -0.567336 0
M  V30 22297 C 2229.46 -1.20558 -1.06407 0
M  V30 22298 O 2230.65 -1.45316 -0.960666 0
M  V30 22299 C 2227.78 -2.90424 -1.78512 0
M  V30 22300 H 2228.97 -2.99893 0.0206061 0
M  V30 22301 H 2226.53 -1.56226 0.0482438 0
M  V30 22302 H 2227.26 -2.16668 -2.41299 0
M  V30 22303 H 2227.05 -3.64834 -1.43663 0
M  V30 22304 H 2228.54 -3.41775 -2.39958 0
M  V30 22305 N 2228.97 -0.0251005 -1.5758 0
M  V30 22306 C 2230.22 0.65538 -1.91918 0
M  V30 22307 C 2230.55 1.7201 -0.901464 0
M  V30 22308 O 2229.83 1.9435 0.0763727 0
M  V30 22309 C 2230.11 1.27552 -3.36753 0
M  V30 22310 C 2229.96 0.22064 -4.49259 0
M  V30 22311 C 2231.28 2.19468 -3.81473 0
M  V30 22312 H 2228.4 0.236778 -0.697929 0
M  V30 22313 H 2231.04 -0.081537 -1.89825 0
M  V30 22314 H 2229.19 1.90359 -3.38667 0
M  V30 22315 H 2230.87 -0.409682 -4.59477 0
M  V30 22316 H 2229.11 -0.45434 -4.31414 0
M  V30 22317 H 2229.78 0.694079 -5.47619 0
M  V30 22318 H 2232.26 1.66652 -3.81269 0
M  V30 22319 H 2231.13 2.59813 -4.83516 0
M  V30 22320 H 2231.39 3.08419 -3.1675 0
M  V30 22321 N 2230.45 1.55637 0.247999 0
M  V30 22322 C 2231.68 1.8181 0.997996 0
M  V30 22323 C 2232.1 0.60201 1.78206 0
M  V30 22324 O 2231.46 -0.44893 1.75654 0
M  V30 22325 C 2231.51 3.05708 1.91245 0
M  V30 22326 O 2230.61 2.82547 3.00401 0
M  V30 22327 H 2229.95 0.600184 0.284035 0
M  V30 22328 H 2232.48 2.0282 0.269321 0
M  V30 22329 H 2232.49 3.35112 2.32731 0
M  V30 22330 H 2231.17 3.93859 1.33595 0
M  V30 22331 H 2229.75 2.64307 2.63051 0
M  V30 22332 N 2231.93 -0.513613 1.48996 0
M  V30 22333 C 2232.86 -1.62541 1.67639 0
M  V30 22334 C 2233.84 -1.61792 0.525116 0
M  V30 22335 O 2235.03 -1.78731 0.759534 0
M  V30 22336 C 2232.16 -3.01076 1.7312 0
M  V30 22337 C 2231.11 -3.16688 2.87911 0
M  V30 22338 C 2230.44 -4.56448 2.78494 0
M  V30 22339 C 2231.74 -2.97906 4.2901 0
M  V30 22340 H 2233.43 -1.47194 2.60719 0
M  V30 22341 H 2230.98 -0.706692 1.25467 0
M  V30 22342 H 2232.93 -3.78742 1.84749 0
M  V30 22343 H 2231.65 -3.17483 0.766297 0
M  V30 22344 H 2230.31 -2.41444 2.75863 0
M  V30 22345 H 2229.96 -4.69714 1.79938 0
M  V30 22346 H 2229.66 -4.67837 3.55531 0
M  V30 22347 H 2231.19 -5.36192 2.92113 0
M  V30 22348 H 2232.6 -3.65351 4.41805 0
M  V30 22349 H 2231 -3.20776 5.07172 0
M  V30 22350 H 2232.07 -1.94157 4.44332 0
M  V30 22351 N 2233.41 -1.37859 -0.763727 0
M  V30 22352 C 2234.32 -1.36481 -1.90814 0
M  V30 22353 C 2235.34 -0.263278 -1.71997 0
M  V30 22354 O 2236.51 -0.500013 -1.95094 0
M  V30 22355 C 2233.58 -1.1787 -3.26048 0
M  V30 22356 C 2232.64 -2.37736 -3.57463 0
M  V30 22357 C 2231.87 -2.20003 -4.86245 0
M  V30 22358 O 2232.09 -1.18846 -5.57882 0
M  V30 22359 O 2231.03 -3.0837 -5.16906 0
M  V30 22360 H 2234.85 -2.32887 -1.94929 0
M  V30 22361 H 2232.44 -1.18672 -0.907598 0
M  V30 22362 H 2234.32 -1.09511 -4.06922 0
M  V30 22363 H 2233 -0.245429 -3.22768 0
M  V30 22364 H 2231.9 -2.51668 -2.76792 0
M  V30 22365 H 2233.24 -3.29658 -3.65494 0
M  V30 22366 N 2234.89 0.990791 -1.22561 0
M  V30 22367 C 2236.13 1.7332 -1.053 0
M  V30 22368 C 2236.47 1.89809 0.410622 0
M  V30 22369 O 2235.74 1.44279 1.30437 0
M  V30 22370 C 2236.02 3.13756 -1.76719 0
M  V30 22371 C 2235.88 3.04901 -3.30689 0
M  V30 22372 C 2237.2 4.12971 -1.52128 0
M  V30 22373 H 2234.32 0.629099 -0.383931 0
M  V30 22374 H 2236.96 1.15416 -1.50928 0
M  V30 22375 H 2235.11 3.63191 -1.3793 0
M  V30 22376 H 2236.78 2.6307 -3.78935 0
M  V30 22377 H 2235.02 2.41655 -3.60257 0
M  V30 22378 H 2235.69 4.04287 -3.7584 0
M  V30 22379 H 2238.17 3.72301 -1.85826 0
M  V30 22380 H 2237.05 5.09346 -2.04591 0
M  V30 22381 H 2237.31 4.39759 -0.454334 0
M  V30 22382 N 2236.37 1.03564 1.18795 0
M  V30 22383 C 2237.33 0.626808 2.20463 0
M  V30 22384 C 2238.33 -0.313146 1.57721 0
M  V30 22385 O 2239.52 -0.099231 1.73917 0
M  V30 22386 C 2236.65 -0.0817899 3.40802 0
M  V30 22387 H 2237.84 1.52645 2.58147 0
M  V30 22388 H 2235.4 0.827601 1.32591 0
M  V30 22389 H 2236.13 -0.995464 3.08644 0
M  V30 22390 H 2235.92 0.59372 3.87579 0
M  V30 22391 H 2237.41 -0.35451 4.16093 0
M  V30 22392 N 2237.84 -1.34926 0.814413 0
M  V30 22393 C 2238.78 -2.28429 0.187874 0
M  V30 22394 C 2239.79 -1.50641 -0.617348 0
M  V30 22395 O 2240.98 -1.72776 -0.448424 0
M  V30 22396 C 2238.08 -3.30362 -0.755904 0
M  V30 22397 C 2237.25 -4.374 0.00464374 0
M  V30 22398 C 2236.31 -5.19145 -0.858785 0
M  V30 22399 O 2235.34 -5.68372 -0.306868 0
M  V30 22400 N 2236.54 -5.3802 -2.17979 0
M  V30 22401 H 2239.3 -2.82836 0.991154 0
M  V30 22402 H 2236.86 -1.47359 0.670587 0
M  V30 22403 H 2238.86 -3.81944 -1.33793 0
M  V30 22404 H 2237.43 -2.76413 -1.45996 0
M  V30 22405 H 2236.65 -3.86648 0.767933 0
M  V30 22406 H 2237.93 -5.06048 0.528511 0
M  V30 22407 H 2237.33 -4.99684 -2.65203 0
M  V30 22408 H 2235.89 -5.92752 -2.71087 0
M  V30 22409 N 2239.32 -0.56861 -1.46985 0
M  V30 22410 C 2240.73 -0.138252 -1.86187 0
M  V30 22411 C 2241.08 1.29501 -1.4739 0
M  V30 22412 O 2240.21 1.976 -0.882224 0
M  V30 22413 C 2240.8 -0.244124 -3.37919 0
M  V30 22414 C 2239.36 0.131269 -3.76171 0
M  V30 22415 C 2238.51 -0.586513 -2.71026 0
M  V30 22416 H 2241.46 -0.777669 -1.3834 0
M  V30 22417 H 2241.48 0.534285 -3.7673 0
M  V30 22418 H 2240.99 -1.28738 -3.66126 0
M  V30 22419 H 2239.09 1.17519 -3.53582 0
M  V30 22420 H 2239.21 -0.23523 -4.78522 0
M  V30 22421 H 2237.57 -0.028317 -2.54684 0
M  V30 22422 H 2238.35 -1.63114 -3.02074 0
M  V30 22423 N 2240.8 1.54608 -0.305646 0
M  V30 22424 C 2242.05 1.99836 0.301666 0
M  V30 22425 C 2242.37 1.19553 1.54052 0
M  V30 22426 O 2241.64 0.292692 1.93701 0
M  V30 22427 H 2240.22 0.73818 0.114455 0
M  V30 22428 H 2242.88 1.90364 -0.41805 0
M  V30 22429 H 2241.98 3.06842 0.570494 0
M  V30 22430 N 2242.28 0.033457 1.57564 0
M  V30 22431 C 2243.69 -0.504766 1.79747 0
M  V30 22432 C 2244.04 -1.71991 0.944121 0
M  V30 22433 O 2243.16 -2.15839 0.155732 0
M  V30 22434 C 2243.76 -0.922509 3.25999 0
M  V30 22435 C 2242.32 -1.40582 3.49161 0
M  V30 22436 C 2241.47 -0.372585 2.74786 0
M  V30 22437 H 2244.42 0.259464 1.56565 0
M  V30 22438 H 2244.44 -1.7866 3.35948 0
M  V30 22439 H 2243.95 -0.0379142 3.88081 0
M  V30 22440 H 2242.05 -2.3102 2.92336 0
M  V30 22441 H 2242.16 -1.4102 4.57876 0
M  V30 22442 H 2240.53 -0.84163 2.40393 0
M  V30 22443 H 2241.31 0.503619 3.39586 0
M  V30 22444 N 2243.76 -1.55766 -0.239741 0
M  V30 22445 C 2244.98 -1.82336 -0.988341 0
M  V30 22446 C 2245.41 -0.611452 -1.77884 0
M  V30 22447 O 2244.76 0.439608 -1.7589 0
M  V30 22448 C 2244.81 -3.06718 -1.89621 0
M  V30 22449 O 2243.92 -2.84136 -2.98899 0
M  V30 22450 H 2243.26 -0.601681 -0.280848 0
M  V30 22451 H 2245.79 -2.0296 -0.258562 0
M  V30 22452 H 2245.8 -3.36342 -2.30951 0
M  V30 22453 H 2244.47 -3.94562 -1.31504 0
M  V30 22454 H 2243.05 -2.65699 -2.61646 0
M  V30 22455 N 2245.23 0.505704 -1.49266 0
M  V30 22456 C 2246.18 1.62863 -1.66067 0
M  V30 22457 C 2247.18 1.61005 -0.526664 0
M  V30 22458 O 2248.38 1.6557 -0.706155 0
M  V30 22459 H 2244.76 0.539796 -0.523569 0
M  V30 22460 H 2246.73 1.45843 -2.60331 0
M  V30 22461 C 2245.48 3.01023 -1.74013 0
M  V30 22462 H 2244.8 3.03157 -2.60645 0
M  V30 22463 H 2246.24 3.79144 -1.89805 0
M  V30 22464 C 2244.7 3.33406 -0.483927 0
M  V30 22465 O 2245.23 3.99778 0.392478 0
M  V30 22466 N 2243.43 2.88505 -0.348287 0
M  V30 22467 H 2242.98 2.34669 -1.06247 0
M  V30 22468 H 2242.94 3.1054 0.491149 0
M  V30 22469 N 2246.71 1.38262 0.756405 0
M  V30 22470 C 2248.13 1.19397 1.05908 0
M  V30 22471 C 2248.33 0.0406921 2.01459 0
M  V30 22472 O 2247.38 -0.614424 2.4491 0
M  V30 22473 C 2248.7 2.51919 1.64187 0
M  V30 22474 C 2250.25 2.58577 1.76371 0
M  V30 22475 C 2250.72 3.91268 2.38062 0
M  V30 22476 N 2252.21 3.92793 2.45496 0
M  V30 22477 C 2252.95 4.92222 2.94117 0
M  V30 22478 N 2252.44 6.02049 3.42795 0
M  V30 22479 N 2254.24 4.79615 2.93131 0
M  V30 22480 H 2246.39 2.12048 0.122276 0
M  V30 22481 H 2248.65 0.940768 0.116875 0
M  V30 22482 H 2248.36 3.36752 1.01445 0
M  V30 22483 H 2248.23 2.70112 2.63285 0
M  V30 22484 H 2250.62 1.74142 2.38241 0
M  V30 22485 H 2250.7 2.44254 0.759851 0
M  V30 22486 H 2250.34 4.76125 1.76827 0
M  V30 22487 H 2250.27 4.02901 3.39084 0
M  V30 22488 H 2252.76 3.13465 2.11065 0
M  V30 22489 H 2253.08 6.73852 3.78342 0
M  V30 22490 H 2251.42 6.05673 3.40859 0
M  V30 22491 H 2254.61 3.92928 2.54412 0
M  V30 22492 H 2254.78 5.57256 3.30712 0
M  V30 22493 N 2248.19 -0.984277 1.23084 0
M  V30 22494 C 2249.6 -1.53958 1.05612 0
M  V30 22495 C 2249.95 -1.92529 -0.377759 0
M  V30 22496 O 2249.08 -1.75651 -1.26395 0
M  V30 22497 C 2249.67 -2.79767 1.91092 0
M  V30 22498 C 2248.23 -3.3171 1.77891 0
M  V30 22499 C 2247.38 -2.0473 1.87032 0
M  V30 22500 H 2250.33 -0.804395 1.36803 0
M  V30 22501 H 2250.35 -3.52468 1.43342 0
M  V30 22502 H 2249.86 -2.51663 2.95445 0
M  V30 22503 H 2247.96 -3.64703 0.763059 0
M  V30 22504 H 2248.08 -4.0173 2.61055 0
M  V30 22505 H 2246.44 -2.18687 1.30568 0
M  V30 22506 H 2247.22 -1.79012 2.92933 0
M  V30 22507 N 2249.67 -1.04192 -1.18244 0
M  V30 22508 C 2251.08 -0.761391 -1.40268 0
M  V30 22509 C 2251.28 0.648544 -1.90778 0
M  V30 22510 O 2250.34 1.41255 -2.09293 0
M  V30 22511 C 2251.65 -1.80855 -2.40233 0
M  V30 22512 C 2253.2 -1.8296 -2.53958 0
M  V30 22513 C 2253.68 -2.86671 -3.57189 0
M  V30 22514 N 2255.17 -2.8557 -3.64697 0
M  V30 22515 C 2255.9 -3.62468 -4.44303 0
M  V30 22516 N 2255.4 -4.49121 -5.27506 0
M  V30 22517 N 2257.19 -3.50951 -4.39078 0
M  V30 22518 H 2249.34 -1.95177 -0.837848 0
M  V30 22519 H 2251.61 -0.844567 -0.430593 0
M  V30 22520 H 2251.31 -2.81995 -2.10171 0
M  V30 22521 H 2251.19 -1.64174 -3.39598 0
M  V30 22522 H 2253.57 -0.824905 -2.83336 0
M  V30 22523 H 2253.65 -2.03718 -1.54702 0
M  V30 22524 H 2253.3 -3.8732 -3.28551 0
M  V30 22525 H 2253.23 -2.63168 -4.56125 0
M  V30 22526 H 2255.72 -2.22732 -3.05285 0
M  V30 22527 H 2256.03 -5.04504 -5.85402 0
M  V30 22528 H 2254.38 -4.53187 -5.26922 0
M  V30 22529 H 2257.57 -2.82657 -3.73125 0
M  V30 22530 H 2257.74 -4.1113 -5.00876 0
M  V30 22531 N 2251.15 1.34492 -0.821557 0
M  V30 22532 C 2252.11 2.27856 -0.247887 0
M  V30 22533 C 2253.11 1.50228 0.573426 0
M  V30 22534 O 2254.3 1.69784 0.38973 0
M  V30 22535 C 2251.43 3.34594 0.652639 0
M  V30 22536 H 2252.62 2.80105 -1.07151 0
M  V30 22537 H 2250.18 1.44601 -0.593316 0
M  V30 22538 H 2250.91 2.87557 1.49938 0
M  V30 22539 H 2250.7 3.92046 0.0652231 0
M  V30 22540 H 2252.19 4.0424 1.04786 0
M  V30 22541 N 2252.62 0.576397 1.46681 0
M  V30 22542 C 2253.55 -0.148356 2.33028 0
M  V30 22543 C 2254.54 -0.88993 1.44963 0
M  V30 22544 O 2255.72 -0.866632 1.7379 0
M  V30 22545 C 2252.85 -1.16664 3.27119 0
M  V30 22546 C 2251.8 -0.540311 4.24576 0
M  V30 22547 C 2251.13 -1.66461 5.08129 0
M  V30 22548 C 2252.43 0.518422 5.19721 0
M  V30 22549 H 2254.12 0.572561 2.93874 0
M  V30 22550 H 2251.67 0.276793 1.41315 0
M  V30 22551 H 2253.62 -1.68198 3.86377 0
M  V30 22552 H 2252.35 -1.91775 2.64367 0
M  V30 22553 H 2251.01 -0.0461124 3.66571 0
M  V30 22554 H 2250.65 -2.40523 4.41766 0
M  V30 22555 H 2250.35 -1.25121 5.74124 0
M  V30 22556 H 2251.88 -2.18283 5.7025 0
M  V30 22557 H 2253.29 0.0884066 5.73232 0
M  V30 22558 H 2251.69 0.851784 5.94024 0
M  V30 22559 H 2252.76 1.40711 4.64035 0
M  V30 22560 N 2254.1 -1.54444 0.313841 0
M  V30 22561 C 2255.01 -2.27678 -0.565674 0
M  V30 22562 C 2256.03 -1.31668 -1.13752 0
M  V30 22563 O 2257.2 -1.6467 -1.15956 0
M  V30 22564 C 2254.27 -3.01299 -1.71522 0
M  V30 22565 C 2253.33 -4.12874 -1.17617 0
M  V30 22566 C 2252.56 -4.82974 -2.27093 0
M  V30 22567 O 2252.79 -4.5252 -3.47248 0
M  V30 22568 O 2251.72 -5.70098 -1.9306 0
M  V30 22569 H 2255.55 -3.03686 0.028783 0
M  V30 22570 H 2253.13 -1.49186 0.0798574 0
M  V30 22571 H 2255.01 -3.47434 -2.3847 0
M  V30 22572 H 2253.69 -2.28174 -2.29604 0
M  V30 22573 H 2252.6 -3.7111 -0.472059 0
M  V30 22574 H 2253.93 -4.88013 -0.640609 0
M  V30 22575 N 2255.58 -0.0418125 -1.57545 0
M  V30 22576 C 2256.83 0.634987 -1.92603 0
M  V30 22577 C 2257.16 1.71044 -0.919657 0
M  V30 22578 O 2256.43 1.9442 0.055755 0
M  V30 22579 C 2256.72 1.23973 -3.38087 0
M  V30 22580 C 2256.57 0.172978 -4.49467 0
M  V30 22581 C 2257.89 2.1541 -3.83779 0
M  V30 22582 H 2255.01 0.229362 -0.700401 0
M  V30 22583 H 2257.65 -0.101666 -1.89728 0
M  V30 22584 H 2255.8 1.86756 -3.40667 0
M  V30 22585 H 2257.47 -0.458392 -4.59017 0
M  V30 22586 H 2255.72 -0.500072 -4.30908 0
M  V30 22587 H 2256.39 0.635957 -5.48324 0
M  V30 22588 H 2258.86 1.62599 -3.83016 0
M  V30 22589 H 2257.74 2.5467 -4.86245 0
M  V30 22590 H 2258 3.05042 -3.20003 0
M  V30 22591 N 2257.06 1.55891 0.231477 0
M  V30 22592 C 2257.97 1.94754 1.30797 0
M  V30 22593 C 2258.98 0.850015 1.51825 0
M  V30 22594 O 2260.16 1.15274 1.65148 0
M  V30 22595 C 2257.23 2.24775 2.63964 0
M  V30 22596 C 2256.29 3.48044 2.51325 0
M  V30 22597 C 2255.52 3.76623 3.78141 0
M  V30 22598 O 2255.74 3.07031 4.80716 0
M  V30 22599 O 2254.68 4.70129 3.75848 0
M  V30 22600 H 2258.5 2.86475 1.00825 0
M  V30 22601 H 2256.09 1.42972 0.433522 0
M  V30 22602 H 2257.97 2.45324 3.42629 0
M  V30 22603 H 2256.64 1.3623 2.93637 0
M  V30 22604 H 2255.55 3.32785 1.70894 0
M  V30 22605 H 2256.88 4.3694 2.26593 0
M  V30 22606 N 2258.54 -0.497781 1.49532 0
M  V30 22607 C 2259.45 -1.62529 1.69179 0
M  V30 22608 C 2260.46 -1.64245 0.574429 0
M  V30 22609 O 2261.64 -1.82606 0.849529 0
M  V30 22610 C 2258.7 -2.98882 1.757 0
M  V30 22611 C 2257.76 -3.07768 2.99295 0
M  V30 22612 C 2257 -4.37616 3.05496 0
M  V30 22613 O 2257.22 -5.26599 2.19201 0
M  V30 22614 O 2256.15 -4.51541 3.97988 0
M  V30 22615 H 2259.98 -1.48883 2.64703 0
M  V30 22616 H 2257.57 -0.674418 1.33312 0
M  V30 22617 H 2259.45 -3.79916 1.82324 0
M  V30 22618 H 2258.12 -3.12784 0.833555 0
M  V30 22619 H 2257.03 -2.2591 2.98187 0
M  V30 22620 H 2258.36 -2.98794 3.9113 0
M  V30 22621 N 2260.01 -1.38661 -0.749062 0
M  V30 22622 C 2261.25 -1.36536 -1.52109 0
M  V30 22623 C 2261.62 0.0431978 -1.91951 0
M  V30 22624 O 2262.82 0.189349 -2.68132 0
M  V30 22625 C 2261.09 -2.29833 -2.737 0
M  V30 22626 S 2262.65 -2.45769 -3.63515 0
M  V30 22627 H 2259.47 -0.484385 -0.520473 0
M  V30 22628 H 2262.07 -1.74628 -0.878932 0
M  V30 22629 H 2260.77 -3.31058 -2.42546 0
M  V30 22630 H 2260.3 -1.92906 -3.42857 0
M  V30 22631 H 2262.32 -1.68513 -4.6671 0
M  V30 22632 N 2261.49 0.977736 -1.23605 0
M  V30 22633 C 2262.91 1.24446 -0.999273 0
M  V30 22634 C 2263.11 1.99284 0.298018 0
M  V30 22635 O 2262.17 2.31123 1.01677 0
M  V30 22636 C 2263.48 2.0414 -2.20788 0
M  V30 22637 C 2265.03 2.17269 -2.25306 0
M  V30 22638 C 2265.5 3.00356 -3.4576 0
M  V30 22639 N 2266.99 3.0794 -3.46016 0
M  V30 22640 C 2267.73 3.7256 -4.35874 0
M  V30 22641 N 2267.22 4.38981 -5.35973 0
M  V30 22642 N 2269.02 3.69473 -4.23611 0
M  V30 22643 H 2261.17 0.476447 -2.06987 0
M  V30 22644 H 2263.43 0.273118 -0.907805 0
M  V30 22645 H 2263.14 1.56527 -3.14948 0
M  V30 22646 H 2263.01 3.04887 -2.2209 0
M  V30 22647 H 2265.4 2.64089 -1.31684 0
M  V30 22648 H 2265.48 1.15903 -2.28035 0
M  V30 22649 H 2265.12 2.54232 -4.39691 0
M  V30 22650 H 2265.05 4.01898 -3.40273 0
M  V30 22651 H 2267.54 2.60683 -2.73592 0
M  V30 22652 H 2267.86 4.86076 -6.00791 0
M  V30 22653 H 2266.2 4.37681 -5.3987 0
M  V30 22654 H 2269.39 3.16753 -3.44652 0
M  V30 22655 H 2269.57 4.19551 -4.93843 0
M  V30 22656 N 2262.97 1.04818 1.1769 0
M  V30 22657 C 2264.21 0.765013 1.89544 0
M  V30 22658 C 2264.58 -0.694996 1.7898 0
M  V30 22659 O 2265.78 -1.0921 2.45615 0
M  V30 22660 C 2264.05 1.22757 3.35657 0
M  V30 22661 S 2265.61 1.0712 4.25524 0
M  V30 22662 H 2262.42 0.277932 0.654427 0
M  V30 22663 H 2265.03 1.34203 1.42161 0
M  V30 22664 H 2263.73 2.28539 3.40878 0
M  V30 22665 H 2263.26 0.644662 3.88082 0
M  V30 22666 H 2265.28 -0.00688786 4.962 0
M  V30 22667 N 2264.45 -1.34055 0.828678 0
M  V30 22668 C 2265.86 -1.80489 0.477566 0
M  V30 22669 C 2266.21 -1.68651 -1.00256 0
M  V30 22670 O 2265.34 -1.22985 -1.78055 0
M  V30 22671 C 2265.93 -3.27701 0.860075 0
M  V30 22672 C 2264.49 -3.72192 0.56125 0
M  V30 22673 C 2263.64 -2.55661 1.0739 0
M  V30 22674 H 2266.59 -1.2172 1.01832 0
M  V30 22675 H 2266.61 -3.80137 0.166105 0
M  V30 22676 H 2266.12 -3.36285 1.93737 0
M  V30 22677 H 2264.22 -3.69143 -0.5064 0
M  V30 22678 H 2264.34 -4.6608 1.10934 0
M  V30 22679 H 2262.7 -2.4984 0.495193 0
M  V30 22680 H 2263.48 -2.67012 2.15776 0
M  V30 22681 N 2265.93 -0.584167 -1.46374 0
M  V30 22682 C 2267.34 -0.157992 -1.8603 0
M  V30 22683 C 2267.69 1.27931 -1.48755 0
M  V30 22684 O 2266.81 1.96653 -0.903133 0
M  V30 22685 C 2267.41 -0.279951 -3.37641 0
M  V30 22686 C 2265.97 0.0913639 -3.76289 0
M  V30 22687 C 2265.12 -0.615226 -2.70389 0
M  V30 22688 H 2268.07 -0.792298 -1.37508 0
M  V30 22689 H 2268.09 0.494297 -3.77276 0
M  V30 22690 H 2267.6 -1.32614 -3.6474 0
M  V30 22691 H 2265.7 1.13763 -3.54808 0
M  V30 22692 H 2265.81 -0.28597 -4.78246 0
M  V30 22693 H 2264.18 -0.055328 -2.5464 0
M  V30 22694 H 2264.96 -1.66309 -3.00327 0
M  V30 22695 N 2267.41 1.54275 -0.322027 0
M  V30 22696 C 2268.65 2.00145 0.280454 0
M  V30 22697 C 2268.97 1.2118 1.52775 0
M  V30 22698 O 2268.24 0.313221 1.9338 0
M  V30 22699 H 2266.82 0.739352 0.106619 0
M  V30 22700 H 2269.49 1.8991 -0.438217 0
M  V30 22701 H 2268.58 3.07429 0.537917 0
M  V30 22702 N 2268.88 0.0501669 1.5752 0
M  V30 22703 C 2270.11 -0.632539 1.96679 0
M  V30 22704 C 2270.52 -1.64972 0.926327 0
M  V30 22705 O 2269.86 -1.83438 -0.0979877 0
M  V30 22706 C 2269.93 -1.37729 3.32071 0
M  V30 22707 C 2269.59 -0.516051 4.54077 0
M  V30 22708 C 2270.59 0.217448 5.19445 0
M  V30 22709 C 2268.27 -0.447272 5.00305 0
M  V30 22710 C 2270.27 1.00818 6.29376 0
M  V30 22711 C 2267.95 0.347145 6.10113 0
M  V30 22712 C 2268.95 1.07356 6.7451 0
M  V30 22713 O 2268.64 1.85491 7.82207 0
M  V30 22714 H 2268.37 -0.177809 0.652196 0
M  V30 22715 H 2270.93 0.112579 2.05091 0
M  V30 22716 H 2269.16 -2.16801 3.2021 0
M  V30 22717 H 2270.84 -1.95013 3.55984 0
M  V30 22718 H 2271.61 0.173773 4.84689 0
M  V30 22719 H 2267.49 -1.00227 4.49973 0
M  V30 22720 H 2271.03 1.57568 6.79572 0
M  V30 22721 H 2266.93 0.392462 6.44306 0
M  V30 22722 H 2267.7 1.77692 7.98979 0
M  V30 22723 N 2270.36 -1.56011 -0.223207 0
M  V30 22724 C 2271.61 -1.78146 -0.945881 0
M  V30 22725 C 2271.92 -0.618429 -1.85566 0
M  V30 22726 O 2273.13 -0.723364 -2.61686 0
M  V30 22727 C 2271.59 -3.15478 -1.7321 0
M  V30 22728 C 2271.19 -4.395 -0.868542 0
M  V30 22729 C 2272.94 -3.46939 -2.44609 0
M  V30 22730 C 2270.84 -5.67858 -1.65202 0
M  V30 22731 H 2269.77 -0.664173 -0.356917 0
M  V30 22732 H 2272.43 -1.82409 -0.199813 0
M  V30 22733 H 2270.81 -3.05387 -2.52101 0
M  V30 22734 H 2271.98 -4.60643 -0.120285 0
M  V30 22735 H 2270.3 -4.15545 -0.266757 0
M  V30 22736 H 2272.89 -4.40063 -3.03724 0
M  V30 22737 H 2273.24 -2.69361 -3.17412 0
M  V30 22738 H 2273.77 -3.58352 -1.72709 0
M  V30 22739 H 2270.51 -6.48324 -0.967293 0
M  V30 22740 H 2270.03 -5.50779 -2.37493 0
M  V30 22741 H 2271.71 -6.07972 -2.21312 0
M  V30 22742 N 2271.84 0.489844 -1.49794 0
M  V30 22743 C 2273.09 1.24079 -1.59527 0
M  V30 22744 C 2273.41 1.92847 -0.288987 0
M  V30 22745 O 2272.68 1.83256 0.692403 0
M  V30 22746 H 2271.26 0.460973 -0.587804 0
M  V30 22747 H 2273.92 0.566746 -1.86478 0
M  V30 22748 H 2273.02 1.99876 -2.397 0
M  V30 22749 N 2273.32 1.39056 0.741698 0
M  V30 22750 C 2274.25 1.39969 1.86898 0
M  V30 22751 C 2275.23 0.263949 1.6804 0
M  V30 22752 O 2276.41 0.468788 1.88457 0
M  V30 22753 C 2273.54 1.2358 3.24569 0
M  V30 22754 C 2272.5 2.34484 3.58052 0
M  V30 22755 C 2271.82 2.03189 4.94589 0
M  V30 22756 C 2273.12 3.7678 3.6171 0
M  V30 22757 H 2274.82 2.34305 1.86391 0
M  V30 22758 H 2272.36 1.12781 0.895341 0
M  V30 22759 H 2274.32 1.22841 4.03098 0
M  V30 22760 H 2273.04 0.257103 3.25586 0
M  V30 22761 H 2271.7 2.34428 2.81849 0
M  V30 22762 H 2271.35 1.03774 4.92179 0
M  V30 22763 H 2271.05 2.77474 5.17959 0
M  V30 22764 H 2272.57 2.04089 5.75482 0
M  V30 22765 H 2273.99 3.78802 4.30328 0
M  V30 22766 H 2272.38 4.50369 3.96595 0
M  V30 22767 H 2273.45 4.08239 2.61665 0
M  V30 22768 N 2274.8 -0.971167 1.24121 0
M  V30 22769 C 2276.02 -1.75405 1.1067 0
M  V30 22770 C 2276.45 -1.85056 -0.337016 0
M  V30 22771 O 2275.8 -1.31894 -1.24393 0
M  V30 22772 C 2275.85 -3.15438 1.74732 0
M  V30 22773 O 2274.96 -3.99696 1.01573 0
M  V30 22774 H 2274.3 -0.53931 0.387351 0
M  V30 22775 H 2276.83 -1.21847 1.6436 0
M  V30 22776 H 2276.84 -3.65976 1.80348 0
M  V30 22777 H 2275.51 -3.07729 2.79778 0
M  V30 22778 H 2274.09 -3.58185 1.03719 0
M  V30 22779 N 2276.27 -1.05441 -1.17133 0
M  V30 22780 C 2277.51 -0.775054 -1.89136 0
M  V30 22781 C 2277.88 0.685495 -1.79346 0
M  V30 22782 O 2279.08 1.07906 -2.4619 0
M  V30 22783 C 2277.35 -1.24535 -3.35001 0
M  V30 22784 S 2278.91 -1.09375 -4.2495 0
M  V30 22785 H 2275.73 -0.281398 -0.652944 0
M  V30 22786 H 2278.33 -1.34955 -1.41447 0
M  V30 22787 H 2277.03 -2.30344 -3.39661 0
M  V30 22788 H 2276.56 -0.665234 -3.87735 0
M  V30 22789 H 2278.58 -0.0194269 -4.96196 0
M  V30 22790 N 2277.75 1.33613 -0.835776 0
M  V30 22791 C 2278.68 2.28101 -0.224192 0
M  V30 22792 C 2279.7 1.51604 0.593304 0
M  V30 22793 O 2280.89 1.73467 0.42088 0
M  V30 22794 C 2277.99 3.31523 0.70325 0
M  V30 22795 C 2277.16 4.37337 -0.0742297 0
M  V30 22796 C 2276.22 5.20445 0.776085 0
M  V30 22797 O 2275.24 5.68788 0.216406 0
M  V30 22798 N 2276.45 5.4142 2.09392 0
M  V30 22799 H 2279.21 2.81223 -1.03603 0
M  V30 22800 H 2276.77 1.46274 -0.693946 0
M  V30 22801 H 2278.76 3.84024 1.277 0
M  V30 22802 H 2277.33 2.787 1.4158 0
M  V30 22803 H 2276.55 3.85377 -0.829348 0
M  V30 22804 H 2277.84 5.05143 -0.608952 0
M  V30 22805 H 2277.24 5.03839 2.5722 0
M  V30 22806 H 2275.8 5.9699 2.61623 0
M  V30 22807 N 2279.23 0.591922 1.46062 0
M  V30 22808 C 2280.51 0.0137463 1.95595 0
M  V30 22809 C 2280.89 -1.44967 1.53453 0
M  V30 22810 O 2280.24 -2.14425 0.78958 0
M  V30 22811 C 2280.45 0.195435 3.48452 0
M  V30 22812 C 2281.79 0.0680511 4.24545 0
M  V30 22813 O 2282.82 0.124744 3.55982 0
M  V30 22814 O 2281.68 -0.0599619 5.46467 0
M  V30 22815 H 2278.77 -0.0446133 0.825796 0
M  V30 22816 H 2281.32 0.660886 1.56302 0
M  V30 22817 H 2280.09 1.21242 3.72043 0
M  V30 22818 H 2279.71 -0.487706 3.94598 0
M  V30 22819 N 2280.71 -1.54102 0.330204 0
M  V30 22820 C 2281.95 -2.02597 -0.270881 0
M  V30 22821 C 2282.31 -1.21307 -1.48824 0
M  V30 22822 O 2283.51 -1.59637 -2.16263 0
M  V30 22823 C 2281.78 -3.52492 -0.590266 0
M  V30 22824 S 2283.34 -4.22913 -1.17006 0
M  V30 22825 H 2280.16 -0.706311 -0.0815255 0
M  V30 22826 H 2282.76 -1.89893 0.464868 0
M  V30 22827 H 2281.47 -4.09274 0.303763 0
M  V30 22828 H 2281 -3.6929 -1.35604 0
M  V30 22829 H 2283.01 -4.31125 -2.45654 0
M  V30 22830 N 2282.19 -0.0585199 -1.57491 0
M  V30 22831 C 2283.15 0.89858 -2.10851 0
M  V30 22832 C 2284.15 1.2351 -1.02966 0
M  V30 22833 O 2285.34 1.17056 -1.29009 0
M  V30 22834 C 2282.47 2.20618 -2.59885 0
M  V30 22835 H 2283.66 0.435883 -2.96715 0
M  V30 22836 H 2281.22 0.189995 -1.55141 0
M  V30 22837 H 2281.95 2.71454 -1.77436 0
M  V30 22838 H 2281.74 1.97495 -3.3873 0
M  V30 22839 H 2283.23 2.89161 -3.0129 0
M  V30 22840 N 2283.66 1.56128 0.21493 0
M  V30 22841 C 2285.08 1.69563 0.781357 0
M  V30 22842 C 2285.43 0.661682 1.84706 0
M  V30 22843 O 2284.55 -0.18589 2.156 0
M  V30 22844 C 2285.15 3.07418 1.42406 0
M  V30 22845 C 2283.71 3.22686 1.9378 0
M  V30 22846 C 2282.85 2.65498 0.800391 0
M  V30 22847 H 2285.8 1.58697 -0.00983423 0
M  V30 22848 H 2285.82 3.03644 2.29304 0
M  V30 22849 H 2285.34 3.82649 0.648192 0
M  V30 22850 H 2283.44 2.52336 2.74148 0
M  V30 22851 H 2283.55 4.29976 2.11322 0
M  V30 22852 H 2281.91 2.24152 1.20946 0
M  V30 22853 H 2282.7 3.4328 0.0370867 0
M  V30 22854 N 2285.14 -0.481893 1.50052 0
M  V30 22855 C 2286.39 -1.23231 1.60183 0
M  V30 22856 C 2286.71 -1.92691 0.29921 0
M  V30 22857 O 2285.98 -1.8362 -0.682675 0
M  V30 22858 H 2284.56 -0.457849 0.59024 0
M  V30 22859 H 2287.22 -0.556848 1.86776 0
M  V30 22860 H 2286.32 -1.98602 2.40756 0
M  V30 22861 N 2286.62 -1.39448 -0.734313 0
M  V30 22862 C 2287.85 -1.39781 -1.52134 0
M  V30 22863 C 2288.26 0.00925986 -1.89198 0
M  V30 22864 O 2287.6 0.991141 -1.54668 0
M  V30 22865 C 2287.66 -2.20729 -2.83758 0
M  V30 22866 C 2287.33 -3.69352 -2.69125 0
M  V30 22867 C 2288.32 -4.62417 -2.37627 0
M  V30 22868 C 2286.01 -4.12945 -2.85974 0
M  V30 22869 C 2288 -5.97058 -2.23161 0
M  V30 22870 C 2285.69 -5.47662 -2.71127 0
M  V30 22871 C 2286.69 -6.39532 -2.39766 0
M  V30 22872 O 2286.38 -7.71767 -2.25012 0
M  V30 22873 H 2286.11 -0.479297 -0.476708 0
M  V30 22874 H 2288.66 -1.83895 -0.91498 0
M  V30 22875 H 2286.89 -1.71365 -3.46657 0
M  V30 22876 H 2288.58 -2.13232 -3.45379 0
M  V30 22877 H 2289.35 -4.30038 -2.2426 0
M  V30 22878 H 2285.23 -3.4177 -3.09377 0
M  V30 22879 H 2288.77 -6.68732 -1.98605 0
M  V30 22880 H 2284.67 -5.79631 -2.84073 0
M  V30 22881 H 2285.44 -7.82499 -2.40077 0
M  V30 22882 N 2288.1 0.964571 -1.24635 0
M  V30 22883 C 2289.33 1.74283 -1.11504 0
M  V30 22884 C 2289.74 1.85856 0.332133 0
M  V30 22885 O 2289.1 1.34913 1.22901 0
M  V30 22886 C 2289.15 3.16172 -1.75264 0
M  V30 22887 O 2288.87 3.05176 -3.14323 0
M  V30 22888 C 2290.37 4.10321 -1.67784 0
M  V30 22889 H 2287.59 0.546439 -0.389417 0
M  V30 22890 H 2290.14 1.2108 -1.64803 0
M  V30 22891 H 2288.29 3.66351 -1.2596 0
M  V30 22892 H 2288.7 3.94612 -3.45517 0
M  V30 22893 H 2290.18 5.07527 -2.17073 0
M  V30 22894 H 2290.66 4.34517 -0.639661 0
M  V30 22895 H 2291.26 3.66054 -2.16529 0
M  V30 22896 N 2289.58 1.0606 1.16572 0
M  V30 22897 C 2290.99 0.78361 1.39039 0
M  V30 22898 C 2291.19 -0.618111 1.91785 0
M  V30 22899 O 2290.25 -1.37907 2.11513 0
M  V30 22900 C 2291.56 1.84654 2.37326 0
M  V30 22901 C 2293.11 1.86977 2.51015 0
M  V30 22902 C 2293.58 2.92317 3.52583 0
M  V30 22903 N 2295.08 2.91336 3.60108 0
M  V30 22904 C 2295.81 3.6949 4.3848 0
M  V30 22905 N 2295.31 4.57456 5.20294 0
M  V30 22906 N 2297.1 3.57892 4.33439 0
M  V30 22907 H 2289.25 1.96485 0.806691 0
M  V30 22908 H 2291.51 0.851311 0.417102 0
M  V30 22909 H 2291.22 2.85303 2.05658 0
M  V30 22910 H 2291.09 1.69556 3.36943 0
M  V30 22911 H 2293.48 0.869876 2.81988 0
M  V30 22912 H 2293.56 2.06153 1.51442 0
M  V30 22913 H 2293.21 3.92498 3.22348 0
M  V30 22914 H 2293.14 2.70391 4.51881 0
M  V30 22915 H 2295.63 2.27561 3.01703 0
M  V30 22916 H 2295.94 5.13753 5.77302 0
M  V30 22917 H 2294.28 4.61513 5.19645 0
M  V30 22918 H 2297.48 2.88557 3.68581 0
M  V30 22919 H 2297.65 4.19046 4.94272 0
M  V30 22920 N 2291.06 -1.33168 0.84285 0
M  V30 22921 C 2292.28 -2.01855 0.454091 0
M  V30 22922 C 2292.7 -1.63399 -0.945841 0
M  V30 22923 O 2292.06 -0.84933 -1.61532 0
M  V30 22924 C 2292.11 -3.56981 0.569777 0
M  V30 22925 O 2291.83 -3.94051 1.91455 0
M  V30 22926 C 2293.33 -4.42941 0.17849 0
M  V30 22927 H 2290.55 -0.646462 0.179801 0
M  V30 22928 H 2293.09 -1.7001 1.13653 0
M  V30 22929 H 2291.25 -3.87346 -0.0647906 0
M  V30 22930 H 2291.66 -4.88764 1.9029 0
M  V30 22931 H 2293.14 -5.51126 0.310473 0
M  V30 22932 H 2293.61 -4.30294 -0.879981 0
M  V30 22933 H 2294.22 -4.17943 0.787653 0
M  V30 22934 N 2292.53 -0.599659 -1.45746 0
M  V30 22935 C 2293.78 -0.0915827 -2.01892 0
M  V30 22936 C 2294.1 1.27944 -1.47158 0
M  V30 22937 O 2293.37 1.84348 -0.662762 0
M  V30 22938 H 2291.95 -0.0308655 -0.746362 0
M  V30 22939 H 2294.61 -0.779268 -1.78643 0
M  V30 22940 H 2293.71 -0.0353635 -3.1208 0
M  V30 22941 N 2294.01 1.53925 -0.338371 0
M  V30 22942 C 2295.24 2.05714 0.263951 0
M  V30 22943 C 2295.66 1.21204 1.43845 0
M  V30 22944 O 2295.02 0.224567 1.79904 0
M  V30 22945 C 2295.07 3.54472 0.661938 0
M  V30 22946 O 2294.17 3.72836 1.76259 0
M  V30 22947 H 2293.51 0.662483 0.0448606 0
M  V30 22948 H 2296.04 1.98619 -0.491083 0
M  V30 22949 H 2296.05 3.97012 0.940524 0
M  V30 22950 H 2294.73 4.15433 -0.19701 0
M  V30 22951 H 2293.3 3.422 1.48167 0
M  V30 22952 N 2295.49 0.0668712 1.57458 0
M  V30 22953 C 2296.74 -0.60218 1.9292 0
M  V30 22954 C 2297.06 -1.70447 0.947245 0
M  V30 22955 O 2296.33 -1.95899 -0.00540674 0
M  V30 22956 H 2294.91 -0.225428 0.712174 0
M  V30 22957 H 2297.57 0.123569 1.94508 0
M  V30 22958 H 2296.67 -1.03067 2.9459 0
M  V30 22959 N 2296.97 -1.56239 -0.206647 0
M  V30 22960 C 2297.9 -1.96647 -1.25906 0
M  V30 22961 C 2298.88 -0.83676 -1.48096 0
M  V30 22962 O 2300.06 -1.10021 -1.60028 0
M  V30 22963 C 2297.19 -2.29603 -2.60576 0
M  V30 22964 C 2296.15 -3.45204 -2.53018 0
M  V30 22965 C 2295.47 -3.63805 -3.91854 0
M  V30 22966 C 2296.77 -4.79738 -2.06516 0
M  V30 22967 H 2298.47 -2.84807 -0.923319 0
M  V30 22968 H 2296.01 -1.37026 -0.442711 0
M  V30 22969 H 2297.97 -2.56464 -3.34371 0
M  V30 22970 H 2296.69 -1.38312 -2.95867 0
M  V30 22971 H 2295.35 -3.18415 -1.81679 0
M  V30 22972 H 2295 -2.69865 -4.24479 0
M  V30 22973 H 2294.7 -4.41567 -3.87675 0
M  V30 22974 H 2296.22 -3.93031 -4.67289 0
M  V30 22975 H 2297.64 -5.05706 -2.70063 0
M  V30 22976 H 2296.03 -5.60888 -2.13364 0
M  V30 22977 H 2297.1 -4.74095 -1.01793 0
M  V30 22978 N 2298.45 0.473929 -1.50305 0
M  V30 22979 C 2299.68 1.24775 -1.64665 0
M  V30 22980 C 2300.08 1.86332 -0.328207 0
M  V30 22981 O 2299.43 1.69861 0.699506 0
M  V30 22982 C 2299.49 2.39858 -2.67784 0
M  V30 22983 C 2299.15 1.98962 -4.11416 0
M  V30 22984 C 2300.15 1.51376 -4.97374 0
M  V30 22985 C 2297.83 2.07769 -4.57315 0
M  V30 22986 C 2299.83 1.13137 -6.27279 0
M  V30 22987 C 2297.52 1.69141 -5.87226 0
M  V30 22988 C 2298.51 1.21903 -6.72033 0
M  V30 22989 O 2298.2 0.838097 -7.99519 0
M  V30 22990 H 2297.93 0.383617 -0.556609 0
M  V30 22991 H 2300.49 0.572457 -1.97261 0
M  V30 22992 H 2298.72 3.1055 -2.30424 0
M  V30 22993 H 2300.41 3.01829 -2.71393 0
M  V30 22994 H 2301.17 1.43996 -4.63131 0
M  V30 22995 H 2297.05 2.43486 -3.91453 0
M  V30 22996 H 2300.6 0.761955 -6.93426 0
M  V30 22997 H 2296.49 1.7618 -6.20992 0
M  V30 22998 H 2297.26 0.967196 -8.12765 0
M  V30 22999 N 2299.92 1.39835 0.726907 0
M  V30 23000 C 2300.85 1.41944 1.85403 0
M  V30 23001 C 2301.83 0.281757 1.6775 0
M  V30 23002 O 2303.02 0.48875 1.87949 0
M  V30 23003 C 2300.15 1.27015 3.2324 0
M  V30 23004 C 2299.1 2.38268 3.55545 0
M  V30 23005 C 2298.43 2.08423 4.92406 0
M  V30 23006 C 2299.73 3.80595 3.57693 0
M  V30 23007 H 2301.42 2.36269 1.83895 0
M  V30 23008 H 2298.97 1.13725 0.883329 0
M  V30 23009 H 2300.92 1.2711 4.01772 0
M  V30 23010 H 2299.65 0.291621 3.25295 0
M  V30 23011 H 2298.31 2.37404 2.79347 0
M  V30 23012 H 2297.95 1.08988 4.9105 0
M  V30 23013 H 2297.65 2.82952 5.14987 0
M  V30 23014 H 2299.18 2.10181 5.73285 0
M  V30 23015 H 2300.59 3.83344 4.26286 0
M  V30 23016 H 2298.99 4.5455 3.91796 0
M  V30 23017 H 2300.06 4.10992 2.5732 0
M  V30 23018 N 2301.4 -0.957948 1.25144 0
M  V30 23019 C 2302.65 -1.69879 1.09479 0
M  V30 23020 C 2302.97 -1.91545 -0.365468 0
M  V30 23021 O 2302.24 -1.50017 -1.25983 0
M  V30 23022 H 2300.82 -0.629518 0.40214 0
M  V30 23023 H 2303.48 -1.15191 1.57216 0
M  V30 23024 H 2302.58 -2.67937 1.60051 0
M  V30 23025 N 2302.88 -1.06677 -1.16008 0
M  V30 23026 C 2303.83 -0.650926 -2.18511 0
M  V30 23027 C 2304.81 0.320413 -1.57677 0
M  V30 23028 O 2306.01 0.135235 -1.76483 0
M  V30 23029 C 2303.13 -0.0429858 -3.43273 0
M  V30 23030 C 2302.22 -1.03905 -4.11175 0
M  V30 23031 N 2302.61 -2.21608 -4.54669 0
M  V30 23032 C 2300.91 -0.870856 -4.37415 0
M  V30 23033 C 2301.61 -2.84745 -5.07243 0
M  V30 23034 N 2300.59 -2.12449 -5.00366 0
M  V30 23035 H 2304.39 -1.54749 -2.4986 0
M  V30 23036 H 2301.9 -0.938998 -1.32501 0
M  V30 23037 H 2303.9 0.272784 -4.16007 0
M  V30 23038 H 2302.56 0.848785 -3.1341 0
M  V30 23039 H 2303.57 -2.59364 -4.48275 0
M  V30 23040 H 2300.25 -0.0314027 -4.17488 0
M  V30 23041 H 2301.64 -3.84646 -5.50906 0
M  V30 23042 N 2304.36 1.32719 -0.8499 0
M  V30 23043 C 2305.6 1.99222 -0.457181 0
M  V30 23044 C 2305.96 1.65812 0.968009 0
M  V30 23045 O 2307.16 2.25367 1.46503 0
M  V30 23046 C 2305.43 3.50793 -0.684027 0
M  V30 23047 S 2306.99 4.3708 -0.388172 0
M  V30 23048 H 2303.81 0.690012 -0.171477 0
M  V30 23049 H 2306.41 1.6151 -1.10158 0
M  V30 23050 H 2305.12 3.72597 -1.72045 0
M  V30 23051 H 2304.65 3.93391 -0.0258777 0
M  V30 23052 H 2306.66 4.89908 0.787705 0
M  V30 23053 N 2305.84 0.60738 1.45426 0
M  V30 23054 C 2306.75 -0.113422 2.34326 0
M  V30 23055 C 2307.76 -0.860591 1.51228 0
M  V30 23056 O 2308.94 -0.818223 1.8403 0
M  V30 23057 C 2306 -1.09838 3.28841 0
M  V30 23058 C 2305.06 -0.353196 4.27845 0
M  V30 23059 C 2304.3 -1.29124 5.17844 0
M  V30 23060 O 2304.52 -2.52904 5.11269 0
M  V30 23061 O 2303.45 -0.788418 5.96714 0
M  V30 23062 H 2307.28 0.617146 2.97363 0
M  V30 23063 H 2304.87 0.367644 1.44806 0
M  V30 23064 H 2306.75 -1.66568 3.87083 0
M  V30 23065 H 2305.42 -1.80998 2.68368 0
M  V30 23066 H 2304.33 0.25656 3.73219 0
M  V30 23067 H 2305.66 0.317909 4.91172 0
M  V30 23068 N 2307.31 -1.53743 0.34653 0
M  V30 23069 C 2308.24 -2.28059 -0.501153 0
M  V30 23070 C 2309.23 -1.29736 -1.10011 0
M  V30 23071 O 2310.41 -1.58583 -1.12094 0
M  V30 23072 C 2307.54 -3.05562 -1.65073 0
M  V30 23073 C 2306.49 -4.11413 -1.17996 0
M  V30 23074 C 2305.82 -4.76889 -2.41829 0
M  V30 23075 C 2307.12 -5.21558 -0.278303 0
M  V30 23076 H 2308.81 -2.99164 0.118803 0
M  V30 23077 H 2306.36 -1.43881 0.0585784 0
M  V30 23078 H 2308.31 -3.56291 -2.25022 0
M  V30 23079 H 2307.04 -2.32113 -2.29763 0
M  V30 23080 H 2305.7 -3.61602 -0.603268 0
M  V30 23081 H 2305.34 -4.00031 -3.04933 0
M  V30 23082 H 2305.04 -5.48405 -2.1101 0
M  V30 23083 H 2306.57 -5.30403 -3.02499 0
M  V30 23084 H 2307.98 -5.67904 -0.784723 0
M  V30 23085 H 2306.38 -6.00068 -0.0618652 0
M  V30 23086 H 2307.45 -4.80041 0.684761 0
M  V30 23087 N 2308.79 -0.0752207 -1.5742 0
M  V30 23088 C 2310.03 0.596722 -1.95496 0
M  V30 23089 C 2310.4 1.66569 -0.954915 0
M  V30 23090 O 2311.6 2.39343 -1.22345 0
M  V30 23091 C 2309.87 1.1556 -3.38202 0
M  V30 23092 S 2311.43 1.84219 -3.98257 0
M  V30 23093 H 2308.25 0.195295 -0.683653 0
M  V30 23094 H 2310.85 -0.149893 -1.94925 0
M  V30 23095 H 2309.55 0.365808 -4.08766 0
M  V30 23096 H 2309.08 1.9385 -3.42324 0
M  V30 23097 H 2311.1 3.1249 -3.8544 0
M  V30 23098 N 2310.27 1.56347 0.198358 0
M  V30 23099 C 2311.18 1.97485 1.26637 0
M  V30 23100 C 2312.2 0.882028 1.49988 0
M  V30 23101 O 2313.37 1.18751 1.62666 0
M  V30 23102 C 2310.44 2.30324 2.59137 0
M  V30 23103 C 2309.5 3.53296 2.43886 0
M  V30 23104 C 2308.73 3.84559 3.70067 0
M  V30 23105 O 2308.95 3.17159 4.74096 0
M  V30 23106 O 2307.89 4.77996 3.65792 0
M  V30 23107 H 2311.71 2.88549 0.947253 0
M  V30 23108 H 2309.3 1.43859 0.403098 0
M  V30 23109 H 2311.18 2.52536 3.37348 0
M  V30 23110 H 2309.86 1.42428 2.90682 0
M  V30 23111 H 2308.76 3.36335 1.63797 0
M  V30 23112 H 2310.1 4.41648 2.17274 0
M  V30 23113 N 2311.75 -0.465951 1.50554 0
M  V30 23114 C 2312.99 -1.22745 1.63442 0
M  V30 23115 C 2313.35 -1.89145 0.329855 0
M  V30 23116 O 2314.55 -2.66714 0.334208 0
M  V30 23117 C 2312.82 -2.23935 2.78546 0
M  V30 23118 S 2314.38 -3.08955 3.11597 0
M  V30 23119 H 2311.2 -0.416661 0.57612 0
M  V30 23120 H 2313.8 -0.523608 1.88358 0
M  V30 23121 H 2312.51 -1.73743 3.71808 0
M  V30 23122 H 2312.04 -2.9894 2.55731 0
M  V30 23123 H 2314.05 -4.25172 2.55819 0
M  V30 23124 N 2313.23 -1.40218 -0.719481 0
M  V30 23125 C 2314.17 -1.40342 -1.85491 0
M  V30 23126 C 2315.17 -0.284445 -1.66995 0
M  V30 23127 O 2316.37 -0.455282 -1.74147 0
M  V30 23128 H 2312.75 -0.438597 -0.610849 0
M  V30 23129 H 2314.72 -2.36084 -1.82502 0
M  V30 23130 C 2313.47 -1.27907 -3.23319 0
M  V30 23131 H 2312.79 -2.13286 -3.38155 0
M  V30 23132 H 2314.23 -1.32052 -4.02912 0
M  V30 23133 C 2312.69 0.0110763 -3.36898 0
M  V30 23134 O 2313.22 0.97547 -3.89676 0
M  V30 23135 N 2311.43 0.0792882 -2.90492 0
M  V30 23136 H 2310.97 -0.706227 -2.4773 0
M  V30 23137 H 2310.93 0.941985 -2.99957 0
M  V30 23138 N 2314.7 0.951297 -1.25651 0
M  V30 23139 C 2315.95 1.69296 -1.10378 0
M  V30 23140 C 2316.27 1.91736 0.355305 0
M  V30 23141 O 2315.54 1.50683 1.25185 0
M  V30 23142 H 2314.12 0.627376 -0.405472 0
M  V30 23143 H 2316.79 1.14356 -1.57825 0
M  V30 23144 H 2315.88 2.67084 -1.6147 0
M  V30 23145 N 2316.18 1.07291 1.1544 0
M  V30 23146 C 2317.13 0.662505 2.18162 0
M  V30 23147 C 2318.12 -0.312047 1.57845 0
M  V30 23148 O 2319.31 -0.125873 1.76552 0
M  V30 23149 C 2316.44 0.0611898 3.43245 0
M  V30 23150 C 2315.52 1.06084 4.10618 0
M  V30 23151 N 2315.91 2.24016 4.53487 0
M  V30 23152 C 2314.21 0.894041 4.36947 0
M  V30 23153 C 2314.91 2.87431 5.05726 0
M  V30 23154 N 2313.89 2.151 4.99232 0
M  V30 23155 H 2317.69 1.56072 2.49036 0
M  V30 23156 H 2315.21 0.946012 1.32001 0
M  V30 23157 H 2317.2 -0.250718 4.16145 0
M  V30 23158 H 2315.86 -0.832152 3.13856 0
M  V30 23159 H 2316.87 2.61737 4.46894 0
M  V30 23160 H 2313.55 0.0535427 4.17466 0
M  V30 23161 H 2314.94 3.87562 5.48858 0
M  V30 23162 N 2317.66 -1.32267 0.856927 0
M  V30 23163 C 2318.89 -2.01897 0.474605 0
M  V30 23164 C 2319.31 -1.63968 -0.921738 0
M  V30 23165 O 2318.67 -0.841509 -1.60587 0
M  V30 23166 C 2318.72 -3.55162 0.623861 0
M  V30 23167 O 2317.82 -4.10976 -0.342387 0
M  V30 23168 H 2317.16 -0.636106 0.190433 0
M  V30 23169 H 2319.69 -1.68762 1.15675 0
M  V30 23170 H 2319.7 -4.04772 0.51224 0
M  V30 23171 H 2318.38 -3.8211 1.64209 0
M  V30 23172 H 2316.95 -3.72432 -0.186814 0
M  V30 23173 N 2319.14 -0.615084 -1.45102 0
M  V30 23174 C 2320.42 -0.044862 -1.95549 0
M  V30 23175 C 2320.8 1.42508 -1.55739 0
M  V30 23176 O 2320.14 2.13141 -0.823593 0
M  V30 23177 C 2320.35 -0.250846 -3.48097 0
M  V30 23178 C 2321.7 -0.135584 -4.24383 0
M  V30 23179 O 2322.73 -0.181361 -3.55738 0
M  V30 23180 O 2321.58 -0.0269839 -5.46493 0
M  V30 23181 H 2318.68 0.03147 -0.826401 0
M  V30 23182 H 2321.22 -0.685669 -1.55231 0
M  V30 23183 H 2320 -1.27145 -3.70067 0
M  V30 23184 H 2319.62 0.424867 -3.95323 0
M  V30 23185 N 2320.62 1.53557 -0.354678 0
M  V30 23186 C 2321.55 2.28321 0.489051 0
M  V30 23187 C 2322.53 1.30318 1.09322 0
M  V30 23188 O 2323.71 1.59175 1.11252 0
M  V30 23189 C 2320.84 3.06433 1.6345 0
M  V30 23190 C 2319.8 4.12033 1.15813 0
M  V30 23191 C 2319.12 4.78164 2.39297 0
M  V30 23192 C 2320.42 5.21698 0.250639 0
M  V30 23193 H 2322.12 2.99097 -0.134666 0
M  V30 23194 H 2319.66 1.43848 -0.0662079 0
M  V30 23195 H 2321.62 3.57479 2.2313 0
M  V30 23196 H 2320.34 2.33329 2.28529 0
M  V30 23197 H 2319 3.61917 0.584083 0
M  V30 23198 H 2318.65 4.01643 3.02807 0
M  V30 23199 H 2318.35 5.49517 2.08099 0
M  V30 23200 H 2319.87 5.31999 2.99682 0
M  V30 23201 H 2321.29 5.68312 0.754595 0
M  V30 23202 H 2319.68 6.00092 0.0300413 0
M  V30 23203 H 2320.75 4.79671 -0.710209 0
M  V30 23204 N 2322.1 0.083568 1.57378 0
M  V30 23205 C 2323.34 -0.586346 1.95809 0
M  V30 23206 C 2323.7 -1.66061 0.963735 0
M  V30 23207 O 2324.9 -2.38691 1.23613 0
M  V30 23208 C 2323.17 -1.13765 3.3881 0
M  V30 23209 S 2324.73 -1.82105 3.99228 0
M  V30 23210 H 2321.55 -0.191667 0.684679 0
M  V30 23211 H 2324.15 0.160228 1.94842 0
M  V30 23212 H 2322.85 -0.344125 4.08955 0
M  V30 23213 H 2322.39 -1.92032 3.43347 0
M  V30 23214 H 2324.4 -3.10442 3.87092 0
M  V30 23215 N 2323.57 -1.5645 -0.190064 0
M  V30 23216 C 2324.52 -1.91349 -1.23974 0
M  V30 23217 C 2325.51 -0.779717 -1.40745 0
M  V30 23218 O 2326.7 -1.04265 -1.43031 0
M  V30 23219 C 2323.83 -2.26083 -2.58343 0
M  V30 23220 C 2322.91 -3.4593 -2.45344 0
M  V30 23221 N 2323.31 -4.63699 -2.02031 0
M  V30 23222 C 2321.6 -3.50167 -2.76223 0
M  V30 23223 C 2322.3 -5.45854 -2.01044 0
M  V30 23224 N 2321.28 -4.86394 -2.42739 0
M  V30 23225 H 2325.08 -2.799 -0.896269 0
M  V30 23226 H 2322.6 -1.57436 -0.398468 0
M  V30 23227 H 2324.59 -2.49273 -3.34169 0
M  V30 23228 H 2323.25 -1.38861 -2.93509 0
M  V30 23229 H 2324.26 -4.88271 -1.72661 0
M  V30 23230 H 2320.94 -2.73374 -3.15552 0
M  V30 23231 H 2322.33 -6.50191 -1.69414 0
M  V30 23232 N 2325.05 0.45796 -1.50799 0
M  V30 23233 C 2326.46 1.03847 -1.55154 0
M  V30 23234 C 2326.81 1.92817 -0.362753 0
M  V30 23235 O 2325.94 2.09988 0.522878 0
M  V30 23236 C 2326.53 1.89012 -2.81176 0
M  V30 23237 C 2325.09 2.42149 -2.88168 0
M  V30 23238 C 2324.24 1.20825 -2.49593 0
M  V30 23239 H 2327.19 0.240041 -1.56874 0
M  V30 23240 H 2327.21 2.74233 -2.63774 0
M  V30 23241 H 2326.72 1.24232 -3.67679 0
M  V30 23242 H 2324.82 3.10444 -2.06047 0
M  V30 23243 H 2324.94 2.76357 -3.91361 0
M  V30 23244 H 2323.3 1.54716 -2.02324 0
M  V30 23245 H 2324.08 0.576868 -3.38419 0
M  V30 23246 N 2326.53 1.40598 0.712035 0
M  V30 23247 C 2327.44 1.43469 1.85617 0
M  V30 23248 C 2328.46 0.326932 1.70901 0
M  V30 23249 O 2329.63 0.572077 1.93104 0
M  V30 23250 C 2326.7 1.2989 3.21449 0
M  V30 23251 C 2325.76 2.50839 3.48394 0
M  V30 23252 C 2324.99 2.37899 4.77745 0
M  V30 23253 O 2325.21 1.39469 5.53086 0
M  V30 23254 O 2324.15 3.27342 5.05105 0
M  V30 23255 H 2327.97 2.39961 1.86151 0
M  V30 23256 H 2325.56 1.21959 0.862929 0
M  V30 23257 H 2327.44 1.24538 4.02577 0
M  V30 23258 H 2326.12 0.365053 3.21635 0
M  V30 23259 H 2325.02 2.61768 2.67261 0
M  V30 23260 H 2326.36 3.42996 3.53007 0
M  V30 23261 N 2328.01 -0.94462 1.26153 0
M  V30 23262 C 2329.24 -1.72487 1.14262 0
M  V30 23263 C 2329.65 -1.86361 -0.302523 0
M  V30 23264 O 2329.01 -1.36852 -1.20739 0
M  V30 23265 C 2329.06 -3.13344 1.80272 0
M  V30 23266 O 2328.78 -3.00137 3.19138 0
M  V30 23267 C 2330.28 -4.076 1.7429 0
M  V30 23268 H 2327.5 -0.540174 0.398061 0
M  V30 23269 H 2330.04 -1.18443 1.66708 0
M  V30 23270 H 2328.2 -3.643 1.31772 0
M  V30 23271 H 2328.61 -3.89065 3.51751 0
M  V30 23272 H 2330.09 -5.04009 2.2512 0
M  V30 23273 H 2330.56 -4.33444 0.708708 0
M  V30 23274 H 2331.17 -3.62563 2.22325 0
M  V30 23275 N 2329.49 -1.07901 -1.1487 0
M  V30 23276 C 2330.73 -0.803973 -1.8542 0
M  V30 23277 C 2331.05 0.672078 -1.83052 0
M  V30 23278 O 2330.32 1.487 -1.27534 0
M  V30 23279 H 2328.9 -0.29442 -0.686532 0
M  V30 23280 H 2331.57 -1.36393 -1.39223 0
M  V30 23281 H 2330.66 -1.14351 -2.90397 0
M  V30 23282 N 2330.96 1.31811 -0.863929 0
M  V30 23283 C 2331.93 2.26952 -0.320252 0
M  V30 23284 C 2332.93 1.51976 0.525342 0
M  V30 23285 O 2334.12 1.70938 0.335517 0
M  V30 23286 C 2331.25 3.36501 0.54586 0
M  V30 23287 H 2332.44 2.76554 -1.16008 0
M  V30 23288 H 2329.99 1.4264 -0.63902 0
M  V30 23289 H 2330.73 2.92182 1.40713 0
M  V30 23290 H 2330.51 3.92055 -0.0595363 0
M  V30 23291 H 2332 4.07369 0.918724 0
M  V30 23292 N 2332.44 0.62277 1.44773 0
M  V30 23293 C 2333.68 0.127138 2.04004 0
M  V30 23294 C 2334.05 -1.22475 1.47864 0
M  V30 23295 O 2335.25 -1.81201 1.98544 0
M  V30 23296 C 2333.52 0.104492 3.57247 0
M  V30 23297 S 2335.08 -0.327738 4.37574 0
M  V30 23298 H 2331.89 0.0569901 0.708712 0
M  V30 23299 H 2334.5 0.824284 1.77273 0
M  V30 23300 H 2333.2 1.09166 3.95615 0
M  V30 23301 H 2332.73 -0.614168 3.88576 0
M  V30 23302 H 2334.75 -1.57387 4.70578 0
M  V30 23303 N 2333.92 -1.53367 0.362817 0
M  V30 23304 C 2335.14 -2.06107 -0.23119 0
M  V30 23305 C 2335.57 -1.23477 -1.41898 0
M  V30 23306 O 2334.93 -0.25316 -1.79524 0
M  V30 23307 C 2334.98 -3.55481 -0.605461 0
M  V30 23308 O 2334.08 -3.75593 -1.70305 0
M  V30 23309 H 2333.42 -0.663113 -0.0343154 0
M  V30 23310 H 2335.95 -1.97813 0.522619 0
M  V30 23311 H 2335.96 -3.98458 -0.877244 0
M  V30 23312 H 2334.64 -4.15067 0.263077 0
M  V30 23313 H 2333.21 -3.44514 -1.42704 0
M  V30 23314 N 2335.4 -0.091913 -1.57332 0
M  V30 23315 C 2336.33 0.898131 -2.1087 0
M  V30 23316 C 2337.34 1.24815 -1.04523 0
M  V30 23317 O 2338.53 1.20182 -1.31979 0
M  V30 23318 C 2335.63 2.20816 -2.57087 0
M  V30 23319 C 2334.81 2.03396 -3.87232 0
M  V30 23320 C 2333.86 3.17882 -4.1933 0
M  V30 23321 O 2332.89 2.91985 -4.88603 0
M  V30 23322 N 2334.09 4.43561 -3.74479 0
M  V30 23323 H 2336.86 0.440891 -2.96439 0
M  V30 23324 H 2334.42 0.093278 -1.61631 0
M  V30 23325 H 2336.41 2.96349 -2.75607 0
M  V30 23326 H 2334.98 2.57973 -1.76546 0
M  V30 23327 H 2334.2 1.12211 -3.77892 0
M  V30 23328 H 2335.49 1.8903 -4.72382 0
M  V30 23329 H 2334.89 4.67483 -3.18554 0
M  V30 23330 H 2333.44 5.16054 -3.9816 0
M  V30 23331 N 2336.88 1.56548 0.181765 0
M  V30 23332 C 2338.12 1.8319 0.906679 0
M  V30 23333 C 2338.48 0.671344 1.7988 0
M  V30 23334 O 2339.68 0.817965 2.56052 0
M  V30 23335 C 2337.95 3.14909 1.69018 0
M  V30 23336 S 2339.51 3.63 2.46529 0
M  V30 23337 H 2336.33 0.642796 0.303865 0
M  V30 23338 H 2338.93 1.94768 0.169072 0
M  V30 23339 H 2337.64 3.97377 1.02564 0
M  V30 23340 H 2337.17 3.06246 2.46936 0
M  V30 23341 H 2339.18 3.29496 3.71008 0
M  V30 23342 N 2338.35 -0.449957 1.5104 0
M  V30 23343 C 2339.29 -1.56321 1.6762 0
M  V30 23344 C 2340.3 -1.52971 0.55711 0
M  V30 23345 O 2341.49 -1.57976 0.831017 0
M  V30 23346 C 2338.59 -2.95232 1.66407 0
M  V30 23347 C 2337.76 -3.23224 2.94695 0
M  V30 23348 C 2336.82 -4.41794 2.8584 0
M  V30 23349 O 2335.85 -4.41065 3.59792 0
M  V30 23350 N 2337.05 -5.44654 2.0083 0
M  V30 23351 H 2339.81 -1.42508 2.63651 0
M  V30 23352 H 2337.37 -0.638711 1.48769 0
M  V30 23353 H 2339.37 -3.72554 1.58068 0
M  V30 23354 H 2337.94 -3.02706 0.780236 0
M  V30 23355 H 2337.16 -2.34317 3.17 0
M  V30 23356 H 2338.44 -3.38747 3.79642 0
M  V30 23357 H 2337.84 -5.48077 1.401 0
M  V30 23358 H 2336.4 -6.20877 1.98379 0
M  V30 23359 N 2339.83 -1.40974 -0.704569 0
M  V30 23360 C 2340.78 -1.38584 -1.81048 0
M  V30 23361 C 2341.77 -0.261613 -1.58759 0
M  V30 23362 O 2342.96 -0.501586 -1.69744 0
M  V30 23363 C 2340.09 -1.26163 -3.19277 0
M  V30 23364 C 2339.17 -2.43411 -3.47292 0
M  V30 23365 N 2339.56 -3.68887 -3.46058 0
M  V30 23366 C 2337.86 -2.3703 -3.778 0
M  V30 23367 C 2338.56 -4.46599 -3.72726 0
M  V30 23368 N 2337.54 -3.76588 -3.92023 0
M  V30 23369 H 2341.34 -2.33528 -1.78443 0
M  V30 23370 H 2338.86 -1.34902 -0.904175 0
M  V30 23371 H 2340.85 -1.22533 -3.98486 0
M  V30 23372 H 2339.51 -0.321958 -3.231 0
M  V30 23373 H 2340.52 -4.01897 -3.26649 0
M  V30 23374 H 2337.2 -1.51488 -3.89047 0
M  V30 23375 H 2338.59 -5.55498 -3.77983 0
M  V30 23376 N 2341.31 0.937917 -1.26653 0
M  V30 23377 C 2342.26 2.05843 -1.08311 0
M  V30 23378 C 2343.25 1.69398 -0.00910548 0
M  V30 23379 O 2344.46 1.79233 -0.166039 0
M  V30 23380 H 2340.83 0.67404 -0.333428 0
M  V30 23381 H 2342.8 2.18463 -2.03265 0
M  V30 23382 C 2341.55 3.39815 -0.736289 0
M  V30 23383 H 2340.88 3.68337 -1.55459 0
M  V30 23384 H 2342.32 4.19023 -0.647764 0
M  V30 23385 C 2340.78 3.32234 0.558765 0
M  V30 23386 O 2341.31 3.68627 1.59615 0
M  V30 23387 N 2339.51 2.85336 0.550607 0
M  V30 23388 H 2339.06 2.55917 -0.293988 0
M  V30 23389 H 2339.02 2.80646 1.41721 0
M  V30 23390 N 2342.79 1.08509 1.14296 0
M  V30 23391 C 2343.75 0.71975 2.17606 0
M  V30 23392 C 2344.75 -0.245969 1.58908 0
M  V30 23393 O 2345.94 -0.0253775 1.74182 0
M  V30 23394 C 2343.07 0.0628294 3.40842 0
M  V30 23395 H 2344.27 1.63456 2.5144 0
M  V30 23396 H 2341.82 0.883093 1.28962 0
M  V30 23397 H 2342.55 -0.863661 3.12588 0
M  V30 23398 H 2342.34 0.757572 3.84712 0
M  V30 23399 H 2343.83 -0.177712 4.17222 0
M  V30 23400 N 2344.27 -1.31351 0.870907 0
M  V30 23401 C 2345.23 -2.26779 0.332283 0
M  V30 23402 C 2346.23 -1.52253 -0.517275 0
M  V30 23403 O 2347.42 -1.71114 -0.326447 0
M  V30 23404 C 2344.55 -3.36786 -0.528007 0
M  V30 23405 H 2345.74 -2.75935 1.17473 0
M  V30 23406 H 2343.3 -1.42299 0.646575 0
M  V30 23407 H 2344.03 -2.92924 -1.39162 0
M  V30 23408 H 2343.82 -3.92018 0.0803271 0
M  V30 23409 H 2345.31 -4.0785 -0.897107 0
M  V30 23410 N 2345.74 -0.630439 -1.44441 0
M  V30 23411 C 2346.99 -0.134386 -2.01653 0
M  V30 23412 C 2347.31 1.24794 -1.49838 0
M  V30 23413 O 2346.58 1.82901 -0.701716 0
M  V30 23414 H 2345.16 -0.04669 -0.745539 0
M  V30 23415 H 2347.83 -0.816986 -1.7695 0
M  V30 23416 H 2346.92 -0.101552 -3.11935 0
M  V30 23417 N 2347.22 1.53172 -0.370945 0
M  V30 23418 C 2348.13 2.29621 0.480783 0
M  V30 23419 C 2349.15 1.358 1.08786 0
M  V30 23420 O 2350.32 1.6886 1.09765 0
M  V30 23421 C 2347.39 3.07457 1.60222 0
M  V30 23422 C 2346.45 4.16955 1.02212 0
M  V30 23423 C 2345.68 4.9107 2.09012 0
M  V30 23424 O 2345.91 4.65097 3.30214 0
M  V30 23425 O 2344.84 5.7687 1.71768 0
M  V30 23426 H 2348.67 3.0337 -0.141474 0
M  V30 23427 H 2346.25 1.48787 -0.135172 0
M  V30 23428 H 2348.13 3.56045 2.2541 0
M  V30 23429 H 2346.81 2.36539 2.20978 0
M  V30 23430 H 2345.72 3.72606 0.333998 0
M  V30 23431 H 2347.05 4.90055 0.459044 0
M  V30 23432 N 2348.7 0.100255 1.57281 0
M  V30 23433 C 2349.95 -0.562234 1.94538 0
M  V30 23434 C 2350.28 -1.6787 0.982344 0
M  V30 23435 O 2349.53 -1.957 0.00284375 0
M  V30 23436 C 2349.83 -1.15253 3.38307 0
M  V30 23437 C 2349.5 -0.159329 4.50618 0
M  V30 23438 C 2348.16 0.113826 4.81065 0
M  V30 23439 C 2350.51 0.518552 5.18614 0
M  V30 23440 C 2347.84 1.07147 5.76833 0
M  V30 23441 C 2350.19 1.4647 6.1541 0
M  V30 23442 C 2348.85 1.74603 6.44259 0
M  V30 23443 H 2348.12 -0.205736 0.711866 0
M  V30 23444 H 2350.77 0.177184 1.90679 0
M  V30 23445 H 2349.08 -1.9683 3.3877 0
M  V30 23446 H 2350.77 -1.6729 3.64438 0
M  V30 23447 H 2347.36 -0.382416 4.26891 0
M  V30 23448 H 2351.55 0.320668 4.95263 0
M  V30 23449 H 2346.8 1.29638 5.97498 0
M  V30 23450 H 2350.98 1.99575 6.6719 0
M  V30 23451 H 2348.6 2.48966 7.18276 0
M  V30 23452 N 2350.18 -1.56643 -0.17346 0
M  V30 23453 C 2351.42 -1.83669 -0.896951 0
M  V30 23454 C 2351.78 -0.680874 -1.79522 0
M  V30 23455 O 2352.98 -0.831533 -2.55615 0
M  V30 23456 C 2351.26 -3.15801 -1.67346 0
M  V30 23457 S 2352.81 -3.64302 -2.446 0
M  V30 23458 H 2349.63 -0.644398 -0.300452 0
M  V30 23459 H 2352.23 -1.94854 -0.158741 0
M  V30 23460 H 2350.94 -3.97916 -1.00455 0
M  V30 23461 H 2350.47 -3.07551 -2.45308 0
M  V30 23462 H 2352.48 -3.31458 -3.69256 0
M  V30 23463 N 2351.66 0.44194 -1.51277 0
M  V30 23464 C 2352.57 1.56138 -1.75094 0
M  V30 23465 C 2353.58 1.62 -0.634991 0
M  V30 23466 O 2354.76 1.79327 -0.916717 0
M  V30 23467 C 2351.82 2.92155 -1.86672 0
M  V30 23468 C 2350.89 2.96447 -3.10512 0
M  V30 23469 C 2350.12 4.25977 -3.21527 0
M  V30 23470 O 2350.34 5.18101 -2.38595 0
M  V30 23471 O 2349.28 4.36459 -4.14472 0
M  V30 23472 H 2353.1 1.38956 -2.70046 0
M  V30 23473 H 2350.69 0.624476 -1.35723 0
M  V30 23474 H 2352.57 3.72887 -1.96298 0
M  V30 23475 H 2351.24 3.09474 -0.949068 0
M  V30 23476 H 2350.15 2.14687 -3.06366 0
M  V30 23477 H 2351.48 2.84072 -4.0195 0
M  V30 23478 N 2353.14 1.41345 0.697083 0
M  V30 23479 C 2354.07 1.45845 1.8235 0
M  V30 23480 C 2355.05 0.317276 1.67115 0
M  V30 23481 O 2356.23 0.528507 1.8687 0
M  V30 23482 C 2353.36 1.33843 3.20474 0
M  V30 23483 C 2352.32 2.45756 3.50411 0
M  V30 23484 C 2351.64 2.18821 4.87874 0
M  V30 23485 C 2352.94 3.88097 3.4954 0
M  V30 23486 H 2354.64 2.40116 1.78842 0
M  V30 23487 H 2352.18 1.15573 0.859007 0
M  V30 23488 H 2354.13 1.35603 3.98986 0
M  V30 23489 H 2352.86 0.360555 3.24604 0
M  V30 23490 H 2351.52 2.43276 2.74249 0
M  V30 23491 H 2351.17 1.1938 4.88628 0
M  V30 23492 H 2350.87 2.93812 5.0887 0
M  V30 23493 H 2352.39 2.22294 5.68698 0
M  V30 23494 H 2353.8 3.923 4.18059 0
M  V30 23495 H 2352.2 4.62758 3.82067 0
M  V30 23496 H 2353.27 4.16357 2.48545 0
M  V30 23497 N 2354.61 -0.931187 1.27148 0
M  V30 23498 C 2355.85 -1.6931 1.14514 0
M  V30 23499 C 2356.22 -1.89568 -0.304605 0
M  V30 23500 O 2357.42 -2.63044 -0.553297 0
M  V30 23501 C 2355.69 -3.0249 1.90354 0
M  V30 23502 S 2357.25 -3.93639 1.93891 0
M  V30 23503 H 2354.07 -0.581677 0.408868 0
M  V30 23504 H 2356.67 -1.1089 1.61008 0
M  V30 23505 H 2355.37 -2.85434 2.94882 0
M  V30 23506 H 2354.9 -3.65964 1.4434 0
M  V30 23507 H 2356.92 -4.85332 1.03282 0
M  V30 23508 N 2356.09 -1.09114 -1.13719 0
M  V30 23509 C 2357.05 -0.73128 -2.17221 0
M  V30 23510 C 2358.05 0.237538 -1.59036 0
M  V30 23511 O 2359.24 0.0161398 -1.74193 0
M  V30 23512 C 2356.38 -0.0809042 -3.40804 0
M  V30 23513 H 2357.57 -1.64787 -2.5057 0
M  V30 23514 H 2355.12 -0.889919 -1.28492 0
M  V30 23515 H 2355.86 0.847072 -3.13042 0
M  V30 23516 H 2355.64 -0.777963 -3.84305 0
M  V30 23517 H 2357.13 0.155584 -4.1731 0
M  V30 23518 N 2357.57 1.30887 -0.877861 0
M  V30 23519 C 2358.98 1.78592 -0.544224 0
M  V30 23520 C 2359.33 1.72256 0.939271 0
M  V30 23521 O 2358.46 1.29508 1.73368 0
M  V30 23522 C 2359.05 3.24283 -0.981107 0
M  V30 23523 C 2357.61 3.69853 -0.699 0
M  V30 23524 C 2356.76 2.51499 -1.16805 0
M  V30 23525 H 2359.71 1.17857 -1.0628 0
M  V30 23526 H 2359.73 3.79259 -0.307076 0
M  V30 23527 H 2359.24 3.28863 -2.06085 0
M  V30 23528 H 2357.34 3.70768 0.369046 0
M  V30 23529 H 2357.46 4.61641 -1.28156 0
M  V30 23530 H 2355.82 2.4783 -0.587578 0
M  V30 23531 H 2356.6 2.5882 -2.25537 0
M  V30 23532 N 2359.05 0.638091 1.44105 0
M  V30 23533 C 2360.3 0.145079 2.01579 0
M  V30 23534 C 2360.62 -1.23997 1.50498 0
M  V30 23535 O 2359.89 -1.82526 0.711406 0
M  V30 23536 H 2358.47 0.0506431 0.745281 0
M  V30 23537 H 2361.13 0.826358 1.76514 0
M  V30 23538 H 2360.22 0.118094 3.11876 0
M  V30 23539 N 2360.53 -1.52973 0.379063 0
M  V30 23540 C 2361.76 -2.05566 -0.206454 0
M  V30 23541 C 2362.16 -1.25139 -1.41904 0
M  V30 23542 O 2361.51 -0.288496 -1.8142 0
M  V30 23543 C 2361.57 -3.53556 -0.651024 0
M  V30 23544 C 2361.23 -4.54812 0.446706 0
M  V30 23545 C 2362.23 -5.03362 1.30087 0
M  V30 23546 C 2359.91 -4.98572 0.610807 0
M  V30 23547 C 2361.91 -5.94288 2.30436 0
M  V30 23548 C 2359.6 -5.89301 1.61765 0
M  V30 23549 C 2360.59 -6.3705 2.46285 0
M  V30 23550 O 2360.28 -7.25988 3.45249 0
M  V30 23551 H 2360.01 -0.674974 -0.0372262 0
M  V30 23552 H 2362.57 -1.98181 0.539753 0
M  V30 23553 H 2360.8 -3.58524 -1.44905 0
M  V30 23554 H 2362.49 -3.8894 -1.16105 0
M  V30 23555 H 2363.25 -4.70292 1.18535 0
M  V30 23556 H 2359.13 -4.60985 -0.0373234 0
M  V30 23557 H 2362.68 -6.3148 2.96443 0
M  V30 23558 H 2358.57 -6.21785 1.73359 0
M  V30 23559 H 2359.34 -7.44021 3.41137 0
M  V30 23560 N 2362 -0.108595 -1.57225 0
M  V30 23561 C 2363.23 0.559107 -1.98891 0
M  V30 23562 C 2363.64 1.6142 -0.986918 0
M  V30 23563 O 2362.98 1.83676 0.0298382 0
M  V30 23564 C 2363.05 1.25309 -3.36954 0
M  V30 23565 C 2362.71 0.347168 -4.55679 0
M  V30 23566 C 2363.71 -0.410087 -5.1828 0
M  V30 23567 C 2361.39 0.261279 -5.0162 0
M  V30 23568 C 2363.39 -1.24107 -6.25201 0
M  V30 23569 C 2361.07 -0.573345 -6.08404 0
M  V30 23570 C 2362.07 -1.32316 -6.70061 0
M  V30 23571 O 2361.76 -2.14394 -7.74784 0
M  V30 23572 H 2361.49 0.153481 -0.658346 0
M  V30 23573 H 2364.05 -0.18862 -2.04532 0
M  V30 23574 H 2362.28 2.04767 -3.28036 0
M  V30 23575 H 2363.96 1.81666 -3.62977 0
M  V30 23576 H 2364.73 -0.353542 -4.8371 0
M  V30 23577 H 2360.61 0.834577 -4.53383 0
M  V30 23578 H 2364.15 -1.82681 -6.73256 0
M  V30 23579 H 2360.05 -0.631321 -6.42405 0
M  V30 23580 H 2360.82 -2.07223 -7.91834 0
M  V30 23581 N 2363.48 1.56732 0.16515 0
M  V30 23582 C 2364.73 1.81982 0.879036 0
M  V30 23583 C 2365.05 0.686593 1.82513 0
M  V30 23584 O 2364.32 -0.293112 1.93695 0
M  V30 23585 H 2362.9 0.671334 0.327596 0
M  V30 23586 H 2365.56 1.94213 0.163492 0
M  V30 23587 H 2364.66 2.76255 1.45223 0
M  V30 23588 N 2364.96 -0.433911 1.51509 0
M  V30 23589 C 2366.24 -1.1945 1.5489 0
M  V30 23590 C 2366.62 -2.08734 0.315191 0
M  V30 23591 O 2365.97 -2.17529 -0.69952 0
M  V30 23592 C 2366.18 -1.99337 2.86471 0
M  V30 23593 C 2367.52 -2.56261 3.38549 0
M  V30 23594 O 2368.55 -2.09544 2.88044 0
M  V30 23595 O 2367.41 -3.41475 4.26681 0
M  V30 23596 H 2364.5 -0.544021 0.622872 0
M  V30 23597 H 2367.05 -0.442703 1.63824 0
M  V30 23598 H 2365.82 -1.33782 3.6772 0
M  V30 23599 H 2365.44 -2.81575 2.80715 0
M  V30 23600 N 2366.44 -1.41713 -0.689577 0
M  V30 23601 C 2367.4 -1.43749 -1.78518 0
M  V30 23602 C 2368.4 -0.327218 -1.57435 0
M  V30 23603 O 2369.59 -0.587377 -1.63999 0
M  V30 23604 C 2366.72 -1.25473 -3.16969 0
M  V30 23605 H 2367.92 -2.41286 -1.78104 0
M  V30 23606 H 2365.47 -1.27943 -0.897787 0
M  V30 23607 H 2366.2 -0.288005 -3.23019 0
M  V30 23608 H 2365.99 -2.05923 -3.33674 0
M  V30 23609 H 2367.48 -1.29747 -3.96933 0
M  V30 23610 N 2367.92 0.924431 -1.2764 0
M  V30 23611 C 2369.14 1.70647 -1.16992 0
M  V30 23612 C 2369.56 1.86818 0.272836 0
M  V30 23613 O 2368.92 1.38755 1.18546 0
M  V30 23614 C 2368.97 3.10436 -1.85234 0
M  V30 23615 O 2368.69 2.95022 -3.23873 0
M  V30 23616 C 2370.19 4.04776 -1.80753 0
M  V30 23617 H 2367.41 0.533773 -0.406604 0
M  V30 23618 H 2369.95 1.15775 -1.68571 0
M  V30 23619 H 2368.11 3.62158 -1.37551 0
M  V30 23620 H 2368.52 3.8342 -3.57896 0
M  V30 23621 H 2370 5.00364 -2.3311 0
M  V30 23622 H 2370.47 4.32262 -0.777575 0
M  V30 23623 H 2371.08 3.5898 -2.28065 0
M  V30 23624 N 2369.39 1.09715 1.13139 0
M  V30 23625 C 2370.36 0.742789 2.1683 0
M  V30 23626 C 2371.36 -0.229101 1.5916 0
M  V30 23627 O 2372.55 -0.00690175 1.74199 0
M  V30 23628 C 2369.68 0.0989767 3.40756 0
M  V30 23629 H 2370.87 1.66114 2.49692 0
M  V30 23630 H 2368.43 0.896721 1.28018 0
M  V30 23631 H 2369.16 -0.830459 3.13487 0
M  V30 23632 H 2368.95 0.798333 3.83887 0
M  V30 23633 H 2370.44 -0.13345 4.17387 0
M  V30 23634 N 2370.87 -1.30419 0.88479 0
M  V30 23635 C 2372.12 -1.95762 0.502146 0
M  V30 23636 C 2372.44 -1.70194 -0.951785 0
M  V30 23637 O 2371.71 -1.02543 -1.66918 0
M  V30 23638 H 2370.29 -0.724312 0.182707 0
M  V30 23639 H 2372.95 -1.58953 1.12782 0
M  V30 23640 H 2372.05 -3.04774 0.672242 0
M  V30 23641 N 2372.35 -0.645724 -1.43764 0
M  V30 23642 C 2373.58 -0.163592 -2.06252 0
M  V30 23643 C 2373.99 1.16775 -1.48354 0
M  V30 23644 O 2373.35 1.71934 -0.611963 0
M  V30 23645 C 2373.4 -0.0583822 -3.61453 0
M  V30 23646 O 2373.12 -1.33709 -4.17197 0
M  V30 23647 C 2374.62 0.450718 -4.41003 0
M  V30 23648 H 2371.84 -0.0864194 -0.665412 0
M  V30 23649 H 2374.39 -0.884254 -1.84394 0
M  V30 23650 H 2372.54 0.612798 -3.82523 0
M  V30 23651 H 2372.96 -1.1914 -5.10789 0
M  V30 23652 H 2374.43 0.473306 -5.49967 0
M  V30 23653 H 2374.91 1.4806 -4.13491 0
M  V30 23654 H 2375.51 -0.187712 -4.24886 0
M  V30 23655 N 2373.83 1.5277 -0.38717 0
M  V30 23656 C 2375.24 1.86496 0.0873306 0
M  V30 23657 C 2375.59 1.30694 1.46334 0
M  V30 23658 O 2374.72 0.637445 2.06798 0
M  V30 23659 C 2375.31 3.38397 0.165245 0
M  V30 23660 C 2373.87 3.71841 0.584036 0
M  V30 23661 C 2373.02 2.76122 -0.255328 0
M  V30 23662 H 2375.97 1.4671 -0.60513 0
M  V30 23663 H 2375.99 3.67535 0.984783 0
M  V30 23664 H 2375.5 3.78981 -0.836368 0
M  V30 23665 H 2373.6 3.36825 1.59309 0
M  V30 23666 H 2373.71 4.77866 0.343665 0
M  V30 23667 H 2372.08 2.53166 0.279081 0
M  V30 23668 H 2372.86 3.19543 -1.25488 0
M  V30 23669 N 2375.31 0.116931 1.57166 0
M  V30 23670 C 2376.22 -0.847774 2.18746 0
M  V30 23671 C 2377.23 -1.29421 1.16302 0
M  V30 23672 O 2378.41 -1.35762 1.48763 0
M  V30 23673 C 2375.47 -2.08085 2.77311 0
M  V30 23674 C 2374.53 -1.68654 3.94784 0
M  V30 23675 C 2373.77 -2.86083 4.50546 0
M  V30 23676 O 2373.99 -4.01449 4.05209 0
M  V30 23677 O 2372.92 -2.63288 5.41261 0
M  V30 23678 H 2376.75 -0.353725 3.01633 0
M  V30 23679 H 2374.34 -0.108573 1.49005 0
M  V30 23680 H 2376.22 -2.80307 3.14652 0
M  V30 23681 H 2374.89 -2.56501 1.97457 0
M  V30 23682 H 2373.8 -0.935454 3.62215 0
M  V30 23683 H 2375.13 -1.24982 4.76068 0
M  V30 23684 N 2376.78 -1.56818 -0.156836 0
M  V30 23685 C 2378.06 -1.73705 -0.899213 0
M  V30 23686 C 2378.44 -0.682289 -1.9977 0
M  V30 23687 O 2377.79 0.300482 -2.26516 0
M  V30 23688 C 2378 -3.17421 -1.45069 0
M  V30 23689 C 2379.35 -3.78813 -1.91796 0
M  V30 23690 O 2380.37 -3.20789 -1.54832 0
M  V30 23691 O 2379.23 -4.80726 -2.59932 0
M  V30 23692 H 2376.32 -0.709886 -0.424254 0
M  V30 23693 H 2378.87 -1.69092 -0.143531 0
M  V30 23694 H 2377.64 -3.8568 -0.660778 0
M  V30 23695 H 2377.27 -3.2642 -2.27016 0
M  V30 23696 N 2378.26 0.425871 -1.51737 0
M  V30 23697 C 2379.5 1.18368 -1.66638 0
M  V30 23698 C 2379.87 1.88204 -0.379887 0
M  V30 23699 O 2381.07 2.65734 -0.404805 0
M  V30 23700 C 2379.34 2.16471 -2.84385 0
M  V30 23701 S 2380.9 3.00584 -3.19679 0
M  V30 23702 H 2377.72 0.40124 -0.586965 0
M  V30 23703 H 2380.32 0.473484 -1.8968 0
M  V30 23704 H 2379.02 1.63824 -3.76284 0
M  V30 23705 H 2378.55 2.92054 -2.63567 0
M  V30 23706 H 2380.57 4.1824 -2.67001 0
M  V30 23707 N 2379.74 1.42077 0.682052 0
M  V30 23708 C 2380.67 1.4093 1.80753 0
M  V30 23709 C 2381.69 0.309426 1.59832 0
M  V30 23710 O 2382.87 0.572044 1.69085 0
M  V30 23711 C 2379.97 1.17871 3.17741 0
M  V30 23712 C 2379.15 2.40155 3.65574 0
M  V30 23713 C 2378.21 2.1275 4.81273 0
M  V30 23714 O 2377.23 2.85895 4.92191 0
M  V30 23715 N 2378.43 1.12612 5.69472 0
M  V30 23716 H 2381.2 2.37938 1.82224 0
M  V30 23717 H 2378.76 1.36863 0.864879 0
M  V30 23718 H 2380.75 0.974669 3.92788 0
M  V30 23719 H 2379.32 0.294123 3.11213 0
M  V30 23720 H 2378.54 2.76174 2.81286 0
M  V30 23721 H 2379.83 3.216 3.94273 0
M  V30 23722 H 2379.23 0.520998 5.63296 0
M  V30 23723 H 2377.79 0.981955 6.44361 0
M  V30 23724 N 2381.22 -0.917649 1.28129 0
M  V30 23725 C 2382.63 -1.48143 1.13624 0
M  V30 23726 C 2382.98 -1.94261 -0.275173 0
M  V30 23727 O 2382.11 -1.82104 -1.16907 0
M  V30 23728 C 2382.7 -2.69244 2.05653 0
M  V30 23729 C 2381.26 -3.21814 1.95224 0
M  V30 23730 C 2380.41 -1.94528 1.97621 0
M  V30 23731 H 2383.36 -0.730747 1.40875 0
M  V30 23732 H 2383.38 -3.44374 1.61824 0
M  V30 23733 H 2382.89 -2.35648 3.08369 0
M  V30 23734 H 2380.99 -3.60145 0.955307 0
M  V30 23735 H 2381.11 -3.87328 2.81982 0
M  V30 23736 H 2379.47 -2.11458 1.41977 0
M  V30 23737 H 2380.25 -1.63233 3.0201 0
M  V30 23738 N 2382.7 -1.10314 -1.12555 0
M  V30 23739 C 2383.94 -0.854575 -1.85678 0
M  V30 23740 C 2384.3 0.608811 -1.82092 0
M  V30 23741 O 2385.5 0.973673 -2.50546 0
M  V30 23742 C 2383.77 -1.38632 -3.29418 0
M  V30 23743 S 2385.33 -1.273 -4.19929 0
M  V30 23744 H 2382.15 -0.308839 -0.640421 0
M  V30 23745 H 2384.75 -1.40833 -1.35596 0
M  V30 23746 H 2383.46 -2.44543 -3.29586 0
M  V30 23747 H 2382.99 -0.829087 -3.84564 0
M  V30 23748 H 2385 -0.229863 -4.95667 0
M  V30 23749 N 2384.18 1.29948 -0.891694 0
M  V30 23750 C 2385.14 2.26221 -0.368319 0
M  V30 23751 C 2386.14 1.53056 0.492987 0
M  V30 23752 O 2387.33 1.71612 0.299183 0
M  V30 23753 C 2384.46 3.37584 0.47436 0
M  V30 23754 H 2385.65 2.74031 -1.21848 0
M  V30 23755 H 2383.21 1.41253 -0.669132 0
M  V30 23756 H 2383.94 2.95101 1.34484 0
M  V30 23757 H 2383.73 3.9184 -0.142684 0
M  V30 23758 H 2385.22 4.09226 0.832108 0
M  V30 23759 N 2385.65 0.653339 1.4342 0
M  V30 23760 C 2386.89 0.170382 2.03689 0
M  V30 23761 C 2387.26 -1.19311 1.50429 0
M  V30 23762 O 2388.46 -1.76949 2.02343 0
M  V30 23763 C 2386.73 0.180246 3.56945 0
M  V30 23764 S 2388.29 -0.234848 4.38171 0
M  V30 23765 H 2385.11 0.0720101 0.707344 0
M  V30 23766 H 2387.71 0.861701 1.75485 0
M  V30 23767 H 2386.41 1.17533 3.9321 0
M  V30 23768 H 2385.94 -0.531607 3.89792 0
M  V30 23769 H 2387.96 -1.4737 4.73811 0
M  V30 23770 N 2387.13 -1.52563 0.395266 0
M  V30 23771 C 2388.54 -1.86539 -0.0774391 0
M  V30 23772 C 2388.89 -1.31468 -1.45638 0
M  V30 23773 O 2388.02 -0.648403 -2.06457 0
M  V30 23774 C 2388.61 -3.3848 -0.147297 0
M  V30 23775 C 2387.17 -3.72146 -0.564308 0
M  V30 23776 C 2386.32 -2.75983 0.269968 0
M  V30 23777 H 2389.27 -1.46387 0.612902 0
M  V30 23778 H 2389.29 -3.68052 -0.965278 0
M  V30 23779 H 2388.8 -3.78532 0.856454 0
M  V30 23780 H 2386.9 -3.37665 -1.57521 0
M  V30 23781 H 2387.02 -4.78041 -0.318318 0
M  V30 23782 H 2385.38 -2.53311 -0.265651 0
M  V30 23783 H 2386.16 -3.18873 1.27181 0
M  V30 23784 N 2388.61 -0.125265 -1.57101 0
M  V30 23785 C 2389.54 0.819136 -2.18661 0
M  V30 23786 C 2390.52 1.27279 -1.12846 0
M  V30 23787 O 2391.71 1.33427 -1.41106 0
M  V30 23788 C 2388.84 2.0669 -2.79099 0
M  V30 23789 C 2387.79 1.75081 -3.90552 0
M  V30 23790 C 2387.12 3.0694 -4.37826 0
M  V30 23791 C 2388.42 1.01426 -5.12357 0
M  V30 23792 H 2390.11 0.30615 -2.97831 0
M  V30 23793 H 2387.66 0.145814 -1.4326 0
M  V30 23794 H 2389.61 2.73221 -3.20825 0
M  V30 23795 H 2388.33 2.60324 -1.97228 0
M  V30 23796 H 2386.99 1.10938 -3.49411 0
M  V30 23797 H 2386.64 3.58521 -3.52805 0
M  V30 23798 H 2386.34 2.86562 -5.12987 0
M  V30 23799 H 2387.86 3.74578 -4.82207 0
M  V30 23800 H 2389.28 1.58122 -5.51063 0
M  V30 23801 H 2387.67 0.911214 -5.93142 0
M  V30 23802 H 2388.74 0.00210157 -4.849 0
M  V30 23803 N 2390.09 1.56899 0.148518 0
M  V30 23804 C 2391.32 1.87424 0.876356 0
M  V30 23805 C 2391.73 0.713287 1.74807 0
M  V30 23806 O 2391.09 -0.316994 1.79726 0
M  V30 23807 C 2391.14 3.17181 1.73432 0
M  V30 23808 O 2390.86 4.28803 0.897734 0
M  V30 23809 C 2392.36 3.6121 2.56987 0
M  V30 23810 H 2389.58 0.621281 0.253478 0
M  V30 23811 H 2392.12 2.04008 0.141762 0
M  V30 23812 H 2390.28 3.02355 2.42199 0
M  V30 23813 H 2390.69 5.02991 1.48663 0
M  V30 23814 H 2392.17 4.54843 3.12765 0
M  V30 23815 H 2392.64 2.86425 3.32952 0
M  V30 23816 H 2393.25 3.78725 1.93513 0
M  V30 23817 N 2391.57 -0.417818 1.51961 0
M  V30 23818 C 2392.51 -1.52904 1.7528 0
M  V30 23819 C 2393.51 -1.57661 0.619639 0
M  V30 23820 O 2394.71 -1.61171 0.801486 0
M  V30 23821 H 2391.09 -0.508352 0.55415 0
M  V30 23822 H 2393.06 -1.30417 2.68391 0
M  V30 23823 C 2391.81 -2.90365 1.91267 0
M  V30 23824 H 2391.13 -2.87445 2.77877 0
M  V30 23825 H 2392.57 -3.67433 2.11587 0
M  V30 23826 C 2391.03 -3.30018 0.677489 0
M  V30 23827 O 2391.56 -4.01386 -0.158728 0
M  V30 23828 N 2389.77 -2.85984 0.515901 0
M  V30 23829 H 2389.31 -2.28075 1.19748 0
M  V30 23830 H 2389.27 -3.12875 -0.30926 0
M  V30 23831 N 2393.04 -1.42436 -0.674508 0
M  V30 23832 C 2394.45 -1.38216 -1.25512 0
M  V30 23833 C 2394.81 -0.0755809 -1.96054 0
M  V30 23834 O 2393.93 0.825665 -2.00029 0
M  V30 23835 C 2394.53 -2.50361 -2.28265 0
M  V30 23836 C 2393.08 -2.49472 -2.81852 0
M  V30 23837 C 2392.23 -2.29137 -1.56178 0
M  V30 23838 H 2395.18 -1.51646 -0.467875 0
M  V30 23839 H 2395.2 -2.20629 -3.10005 0
M  V30 23840 H 2394.72 -3.45442 -1.76894 0
M  V30 23841 H 2392.82 -1.5821 -3.37343 0
M  V30 23842 H 2392.93 -3.46521 -3.30848 0
M  V30 23843 H 2391.29 -1.77403 -1.82758 0
M  V30 23844 H 2392.08 -3.26274 -1.06773 0
M  V30 23845 N 2394.52 0.910841 -1.28614 0
M  V30 23846 C 2395.43 2.04678 -1.14647 0
M  V30 23847 C 2396.45 1.7385 -0.0723427 0
M  V30 23848 O 2397.62 1.99413 -0.282213 0
M  V30 23849 C 2394.69 3.37042 -0.812621 0
M  V30 23850 C 2393.75 3.81461 -1.96941 0
M  V30 23851 C 2392.98 5.07508 -1.6514 0
M  V30 23852 O 2393.21 5.67574 -0.567113 0
M  V30 23853 O 2392.14 5.4771 -2.49594 0
M  V30 23854 H 2395.97 2.19381 -2.10014 0
M  V30 23855 H 2393.55 1.03272 -1.0796 0
M  V30 23856 H 2395.43 4.16504 -0.640515 0
M  V30 23857 H 2394.11 3.23508 0.111369 0
M  V30 23858 H 2393.01 3.02814 -2.19669 0
M  V30 23859 H 2394.35 3.99562 -2.87421 0
M  V30 23860 N 2396 1.10909 1.11969 0
M  V30 23861 C 2396.95 0.757342 2.19925 0
M  V30 23862 C 2397.94 -0.248718 1.67564 0
M  V30 23863 O 2399.15 -0.108574 1.79672 0
M  V30 23864 H 2395.52 0.227 0.716921 0
M  V30 23865 H 2397.49 1.67662 2.46844 0
M  V30 23866 C 2396.24 0.210732 3.47061 0
M  V30 23867 H 2395.57 0.976117 3.87701 0
M  V30 23868 H 2397.01 0.00273292 4.24 0
M  V30 23869 C 2395.47 -1.05771 3.19866 0
M  V30 23870 O 2396 -2.13839 3.40053 0
M  V30 23871 N 2394.2 -0.978301 2.73638 0
M  V30 23872 H 2393.75 -0.0987794 2.57411 0
M  V30 23873 H 2393.71 -1.82768 2.55818 0
M  V30 23874 N 2397.48 -1.29474 0.898573 0
M  V30 23875 C 2398.41 -2.25945 0.320021 0
M  V30 23876 C 2399.39 -1.52388 -0.567162 0
M  V30 23877 O 2400.57 -1.8135 -0.514222 0
M  V30 23878 C 2397.7 -3.34303 -0.543954 0
M  V30 23879 C 2396.75 -4.25608 0.275757 0
M  V30 23880 S 2397.58 -5.08702 1.67281 0
M  V30 23881 C 2398.74 -6.20562 0.81573 0
M  V30 23882 H 2398.97 -2.74669 1.13772 0
M  V30 23883 H 2396.5 -1.37679 0.698845 0
M  V30 23884 H 2398.46 -3.97195 -1.03666 0
M  V30 23885 H 2397.12 -2.84276 -1.33588 0
M  V30 23886 H 2396.31 -5.02534 -0.384175 0
M  V30 23887 H 2395.92 -3.67361 0.70156 0
M  V30 23888 H 2398.21 -6.77489 0.0386233 0
M  V30 23889 H 2399.15 -6.90769 1.55704 0
M  V30 23890 H 2399.56 -5.63282 0.370615 0
M  V30 23891 N 2398.96 -0.660936 -1.43071 0
M  V30 23892 C 2400.2 -0.17748 -2.01721 0
M  V30 23893 C 2400.53 1.21123 -1.52182 0
M  V30 23894 O 2399.79 1.82417 -0.708691 0
M  V30 23895 C 2400.09 -0.145626 -3.57103 0
M  V30 23896 C 2399.75 -1.47713 -4.26019 0
M  V30 23897 C 2398.41 -1.84173 -4.4456 0
M  V30 23898 C 2400.77 -2.35467 -4.64978 0
M  V30 23899 C 2398.09 -3.08039 -4.99329 0
M  V30 23900 C 2400.45 -3.58631 -5.2112 0
M  V30 23901 C 2399.11 -3.95278 -5.37877 0
M  V30 23902 H 2398.38 -0.0649447 -0.738148 0
M  V30 23903 H 2401.03 -0.853175 -1.71444 0
M  V30 23904 H 2399.33 0.613542 -3.86966 0
M  V30 23905 H 2401.03 0.24543 -4.00248 0
M  V30 23906 H 2397.62 -1.18346 -4.11937 0
M  V30 23907 H 2401.8 -2.08586 -4.50339 0
M  V30 23908 H 2397.06 -3.36471 -5.10487 0
M  V30 23909 H 2401.23 -4.26841 -5.50254 0
M  V30 23910 H 2398.86 -4.91336 -5.80081 0
M  V30 23911 N 2400.43 1.52351 -0.403352 0
M  V30 23912 C 2401.66 2.06648 0.176463 0
M  V30 23913 C 2402.08 1.27196 1.38574 0
M  V30 23914 O 2401.44 0.300668 1.78789 0
M  V30 23915 C 2401.49 3.56961 0.510999 0
M  V30 23916 O 2400.59 3.79976 1.60287 0
M  V30 23917 H 2399.94 0.663789 0.016722 0
M  V30 23918 H 2402.47 1.96357 -0.574882 0
M  V30 23919 H 2402.48 4.00643 0.771291 0
M  V30 23920 H 2401.15 4.14224 -0.373033 0
M  V30 23921 H 2399.73 3.48177 1.3352 0
M  V30 23922 N 2401.91 0.133594 1.57033 0
M  V30 23923 C 2403.33 -0.222916 1.58036 0
M  V30 23924 C 2403.53 -1.65658 1.14716 0
M  V30 23925 O 2402.58 -2.38074 0.84126 0
M  V30 23926 C 2403.9 0.0236644 3.00691 0
M  V30 23927 C 2405.45 -0.0410961 3.12973 0
M  V30 23928 C 2405.92 0.177979 4.57654 0
M  V30 23929 N 2407.41 0.124446 4.63033 0
M  V30 23930 C 2408.15 0.268653 5.7277 0
M  V30 23931 N 2407.64 0.469842 6.91205 0
M  V30 23932 N 2409.44 0.207199 5.61718 0
M  V30 23933 H 2401.59 1.06985 1.83489 0
M  V30 23934 H 2403.85 0.42245 0.848669 0
M  V30 23935 H 2403.56 1.01536 3.36724 0
M  V30 23936 H 2403.43 -0.701743 3.70615 0
M  V30 23937 H 2405.82 -1.02333 2.76789 0
M  V30 23938 H 2405.9 0.716426 2.45563 0
M  V30 23939 H 2405.54 1.15725 4.9454 0
M  V30 23940 H 2405.47 -0.599705 5.23174 0
M  V30 23941 H 2407.96 -0.0269446 3.7789 0
M  V30 23942 H 2408.28 0.570347 7.70692 0
M  V30 23943 H 2406.62 0.505997 6.93156 0
M  V30 23944 H 2409.81 0.0508808 4.68072 0
M  V30 23945 H 2409.98 0.323023 6.47194 0
M  V30 23946 N 2403.39 -1.56975 -0.140195 0
M  V30 23947 C 2404.62 -1.87886 -0.866404 0
M  V30 23948 C 2405.03 -0.722547 -1.74427 0
M  V30 23949 O 2404.39 0.307458 -1.79891 0
M  V30 23950 C 2404.44 -3.18096 -1.71747 0
M  V30 23951 O 2404.16 -4.29273 -0.87498 0
M  V30 23952 C 2405.66 -3.62568 -2.55068 0
M  V30 23953 H 2402.88 -0.622616 -0.250179 0
M  V30 23954 H 2405.43 -2.0408 -0.130941 0
M  V30 23955 H 2403.58 -3.03635 -2.40592 0
M  V30 23956 H 2404 -5.03772 -1.45994 0
M  V30 23957 H 2405.47 -4.56495 -3.10348 0
M  V30 23958 H 2405.95 -2.88187 -3.31429 0
M  V30 23959 H 2406.55 -3.79746 -1.91502 0
M  V30 23960 N 2404.87 0.409753 -1.5218 0
M  V30 23961 C 2406.11 1.16594 -1.67885 0
M  V30 23962 C 2406.47 1.87791 -0.399828 0
M  V30 23963 O 2407.67 2.6529 -0.432967 0
M  V30 23964 C 2405.94 2.13443 -2.86665 0
M  V30 23965 S 2407.5 2.97177 -3.22849 0
M  V30 23966 H 2404.32 0.394992 -0.591187 0
M  V30 23967 H 2406.92 0.45334 -1.90171 0
M  V30 23968 H 2405.63 1.59824 -3.78001 0
M  V30 23969 H 2405.16 2.89243 -2.6665 0
M  V30 23970 H 2407.17 4.15385 -2.71422 0
M  V30 23971 N 2406.35 1.42792 0.666944 0
M  V30 23972 C 2407.26 1.49302 1.80959 0
M  V30 23973 C 2408.27 0.381138 1.69774 0
M  V30 23974 O 2409.45 0.633222 1.91186 0
M  V30 23975 C 2406.51 1.40051 3.17154 0
M  V30 23976 C 2405.57 2.61796 3.40237 0
M  V30 23977 C 2404.81 2.52977 4.69934 0
M  V30 23978 O 2405.03 1.56995 5.48369 0
M  V30 23979 O 2403.96 3.43246 4.94435 0
M  V30 23980 H 2407.79 2.45762 1.78423 0
M  V30 23981 H 2405.38 1.24642 0.823691 0
M  V30 23982 H 2407.26 1.37283 3.98411 0
M  V30 23983 H 2405.93 0.467194 3.20311 0
M  V30 23984 H 2404.84 2.70138 2.58798 0
M  V30 23985 H 2406.17 3.54053 3.41917 0
M  V30 23986 N 2407.82 -0.904008 1.29095 0
M  V30 23987 C 2409.05 -1.69292 1.19812 0
M  V30 23988 C 2409.47 -1.86583 -0.238448 0
M  V30 23989 O 2408.83 -1.38302 -1.17227 0
M  V30 23990 C 2408.88 -3.05732 1.91207 0
M  V30 23991 O 2407.98 -3.9375 1.22618 0
M  V30 23992 H 2407.33 -0.518019 0.415394 0
M  V30 23993 H 2409.86 -1.12964 1.70588 0
M  V30 23994 H 2409.87 -3.55902 1.99494 0
M  V30 23995 H 2408.54 -2.92466 2.95697 0
M  V30 23996 H 2407.12 -3.52184 1.2256 0
M  V30 23997 N 2409.3 -1.11501 -1.11379 0
M  V30 23998 C 2410.23 -0.796163 -2.19507 0
M  V30 23999 C 2411.21 0.235766 -1.68458 0
M  V30 24000 O 2412.4 0.0991003 -1.93947 0
M  V30 24001 C 2409.53 -0.239266 -3.46475 0
M  V30 24002 C 2408.48 -1.20314 -4.10741 0
M  V30 24003 C 2407.81 -0.506924 -5.32292 0
M  V30 24004 C 2409.11 -2.55407 -4.55593 0
M  V30 24005 H 2410.8 -1.70028 -2.46436 0
M  V30 24006 H 2408.35 -0.818956 -1.18445 0
M  V30 24007 H 2410.3 -0.00399414 -4.214 0
M  V30 24008 H 2409.03 0.70015 -3.19007 0
M  V30 24009 H 2407.68 -1.42405 -3.37811 0
M  V30 24010 H 2407.33 0.43732 -5.01095 0
M  V30 24011 H 2407.03 -1.1498 -5.76241 0
M  V30 24012 H 2408.56 -0.280459 -6.09956 0
M  V30 24013 H 2409.97 -2.374 -5.21837 0
M  V30 24014 H 2408.37 -3.15682 -5.10358 0
M  V30 24015 H 2409.44 -3.14581 -3.69007 0
M  V30 24016 N 2410.78 1.28995 -0.905426 0
M  V30 24017 C 2412.03 1.94939 -0.533227 0
M  V30 24018 C 2412.35 1.71687 0.924588 0
M  V30 24019 O 2411.62 1.05186 1.65266 0
M  V30 24020 H 2410.2 0.721313 -0.194207 0
M  V30 24021 H 2412.86 1.57139 -1.15297 0
M  V30 24022 H 2411.96 3.03666 -0.720644 0
M  V30 24023 N 2412.26 0.668514 1.42719 0
M  V30 24024 C 2413.22 -0.00444538 2.292 0
M  V30 24025 C 2414.22 -0.735314 1.43003 0
M  V30 24026 O 2415.41 -0.574261 1.64462 0
M  V30 24027 C 2412.54 -1.017 3.25377 0
M  V30 24028 H 2413.74 0.756659 2.90198 0
M  V30 24029 H 2411.29 0.430532 1.50253 0
M  V30 24030 H 2412.03 -1.80681 2.69304 0
M  V30 24031 H 2411.81 -0.496394 3.88945 0
M  V30 24032 H 2413.3 -1.48648 3.90248 0
M  V30 24033 N 2413.74 -1.52135 0.411426 0
M  V30 24034 C 2414.99 -2.01439 -0.163287 0
M  V30 24035 C 2415.31 -1.29882 -1.4545 0
M  V30 24036 O 2414.58 -0.425434 -1.91225 0
M  V30 24037 H 2413.16 -0.74431 -0.0633316 0
M  V30 24038 H 2415.82 -1.87032 0.548194 0
M  V30 24039 H 2414.91 -3.10043 -0.357762 0
M  V30 24040 N 2415.22 -0.14192 -1.5696 0
M  V30 24041 C 2416.46 0.509449 -1.95574 0
M  V30 24042 C 2416.78 1.65734 -1.02749 0
M  V30 24043 O 2416.05 1.95702 -0.0880655 0
M  V30 24044 H 2414.63 0.191192 -0.722118 0
M  V30 24045 H 2417.3 -0.21623 -1.93697 0
M  V30 24046 H 2416.39 0.888948 -2.99172 0
M  V30 24047 N 2416.69 1.57047 0.131868 0
M  V30 24048 C 2417.92 1.88069 0.855186 0
M  V30 24049 C 2418.33 0.729848 1.74556 0
M  V30 24050 O 2417.67 -0.308931 1.81084 0
M  V30 24051 C 2417.74 3.13967 1.75114 0
M  V30 24052 C 2417.4 4.45093 1.03639 0
M  V30 24053 C 2418.4 5.18486 0.383185 0
M  V30 24054 C 2416.08 4.91806 1.02139 0
M  V30 24055 C 2418.08 6.36805 -0.275459 0
M  V30 24056 C 2415.76 6.10045 0.35894 0
M  V30 24057 C 2416.76 6.82391 -0.288341 0
M  V30 24058 O 2416.45 7.98382 -0.940251 0
M  V30 24059 H 2416.18 0.627332 0.251853 0
M  V30 24060 H 2418.74 2.05021 0.124746 0
M  V30 24061 H 2416.97 2.93064 2.5229 0
M  V30 24062 H 2418.65 3.31113 2.34774 0
M  V30 24063 H 2419.42 4.83458 0.386477 0
M  V30 24064 H 2415.3 4.35408 1.51463 0
M  V30 24065 H 2418.84 6.93211 -0.78127 0
M  V30 24066 H 2414.74 6.44532 0.353367 0
M  V30 24067 H 2415.51 8.14143 -0.843433 0
M  V30 24068 N 2418.17 -0.401677 1.52395 0
M  V30 24069 C 2419.59 -0.740839 1.41364 0
M  V30 24070 C 2419.79 -1.94567 0.524017 0
M  V30 24071 O 2418.84 -2.52499 -0.00736765 0
M  V30 24072 C 2420.16 -0.987797 2.84012 0
M  V30 24073 C 2421.7 -1.09005 2.93406 0
M  V30 24074 C 2422.18 -1.36972 4.37038 0
M  V30 24075 N 2423.67 -1.43821 4.40306 0
M  V30 24076 C 2424.41 -1.67102 5.48511 0
M  V30 24077 N 2423.9 -1.87937 6.66822 0
M  V30 24078 N 2425.69 -1.69178 5.36037 0
M  V30 24079 H 2417.85 0.391299 2.08764 0
M  V30 24080 H 2420.11 0.112815 0.941263 0
M  V30 24081 H 2419.81 -0.174773 3.51265 0
M  V30 24082 H 2419.69 -1.90594 3.25505 0
M  V30 24083 H 2422.08 -1.89366 2.26328 0
M  V30 24084 H 2422.16 -0.150105 2.55359 0
M  V30 24085 H 2421.8 -0.571264 5.04677 0
M  V30 24086 H 2421.73 -2.32231 4.72627 0
M  V30 24087 H 2424.22 -1.2948 3.55026 0
M  V30 24088 H 2424.53 -2.05172 7.45067 0
M  V30 24089 H 2422.88 -1.85187 6.69874 0
M  V30 24090 H 2426.07 -1.52443 4.42582 0
M  V30 24091 H 2426.24 -1.86982 6.20437 0
M  V30 24092 N 2419.65 -1.43144 -0.659362 0
M  V30 24093 C 2420.89 -1.45934 -1.43118 0
M  V30 24094 C 2421.25 -0.0789635 -1.91838 0
M  V30 24095 O 2422.45 0.0184437 -2.68794 0
M  V30 24096 C 2420.73 -2.46774 -2.58529 0
M  V30 24097 S 2422.28 -2.6839 -3.47149 0
M  V30 24098 H 2419.1 -0.516504 -0.488615 0
M  V30 24099 H 2421.7 -1.79864 -0.766096 0
M  V30 24100 H 2420.41 -3.45813 -2.21001 0
M  V30 24101 H 2419.94 -2.1432 -3.29894 0
M  V30 24102 H 2421.95 -1.97853 -4.55048 0
M  V30 24103 N 2421.13 0.897149 -1.29572 0
M  V30 24104 C 2422.36 1.68127 -1.20585 0
M  V30 24105 C 2422.77 1.87355 0.233148 0
M  V30 24106 O 2422.13 1.41238 1.15577 0
M  V30 24107 C 2422.18 3.06437 -1.91777 0
M  V30 24108 O 2421.9 2.88086 -3.30058 0
M  V30 24109 C 2423.4 4.00851 -1.89298 0
M  V30 24110 H 2420.62 0.525029 -0.417835 0
M  V30 24111 H 2423.16 1.12174 -1.70989 0
M  V30 24112 H 2421.32 3.59159 -1.45202 0
M  V30 24113 H 2421.73 3.75742 -3.65948 0
M  V30 24114 H 2423.21 4.95306 -2.43671 0
M  V30 24115 H 2423.68 4.30515 -0.869089 0
M  V30 24116 H 2424.29 3.54061 -2.35628 0
M  V30 24117 N 2422.61 1.1209 1.10786 0
M  V30 24118 C 2423.57 0.788615 2.15206 0
M  V30 24119 C 2424.57 -0.195289 1.5961 0
M  V30 24120 O 2425.76 0.0300499 1.74174 0
M  V30 24121 C 2422.89 0.171234 3.4047 0
M  V30 24122 H 2424.08 1.71373 2.46113 0
M  V30 24123 H 2421.64 0.923674 1.26087 0
M  V30 24124 H 2422.37 -0.763777 3.15178 0
M  V30 24125 H 2422.16 0.879581 3.82107 0
M  V30 24126 H 2423.65 -0.0448866 4.17576 0
M  V30 24127 N 2424.08 -1.28513 0.912254 0
M  V30 24128 C 2425.32 -1.96813 0.551712 0
M  V30 24129 C 2425.69 -1.70242 -0.887795 0
M  V30 24130 O 2426.89 -2.321 -1.35584 0
M  V30 24131 C 2425.16 -3.4713 0.850616 0
M  V30 24132 S 2426.72 -4.3473 0.596267 0
M  V30 24133 H 2423.54 -0.681045 0.204203 0
M  V30 24134 H 2426.14 -1.5607 1.17738 0
M  V30 24135 H 2424.84 -3.63964 1.89626 0
M  V30 24136 H 2424.37 -3.9282 0.21354 0
M  V30 24137 H 2426.39 -4.93108 -0.553067 0
M  V30 24138 N 2425.56 -0.676073 -1.42362 0
M  V30 24139 C 2426.47 0.00149265 -2.346 0
M  V30 24140 C 2427.49 0.787458 -1.55162 0
M  V30 24141 O 2428.66 0.729488 -1.87724 0
M  V30 24142 C 2425.73 0.940239 -3.33707 0
M  V30 24143 C 2424.79 0.148664 -4.29043 0
M  V30 24144 C 2424.02 1.0427 -5.23415 0
M  V30 24145 O 2424.25 2.28222 -5.22753 0
M  V30 24146 O 2423.18 0.50282 -5.99796 0
M  V30 24147 H 2427.01 -0.758319 -2.9408 0
M  V30 24148 H 2424.59 -0.436314 -1.42887 0
M  V30 24149 H 2426.47 1.4791 -3.94589 0
M  V30 24150 H 2425.15 1.67988 -2.76698 0
M  V30 24151 H 2424.06 -0.434335 -3.7157 0
M  V30 24152 H 2425.39 -0.551891 -4.89096 0
M  V30 24153 N 2427.04 1.51915 -0.419488 0
M  V30 24154 C 2428.45 1.86639 0.0477525 0
M  V30 24155 C 2428.8 1.33769 1.43528 0
M  V30 24156 O 2427.93 0.681167 2.054 0
M  V30 24157 C 2428.52 3.38671 0.0934289 0
M  V30 24158 C 2427.08 3.72997 0.505031 0
M  V30 24159 C 2426.23 2.75518 -0.31384 0
M  V30 24160 H 2429.18 1.45394 -0.636113 0
M  V30 24161 H 2429.2 3.69542 0.906602 0
M  V30 24162 H 2428.71 3.77122 -0.916567 0
M  V30 24163 H 2426.81 3.40129 1.52129 0
M  V30 24164 H 2426.93 4.78487 0.242225 0
M  V30 24165 H 2425.29 2.53701 0.225318 0
M  V30 24166 H 2426.07 3.16809 -1.32238 0
M  V30 24167 N 2428.52 0.150242 1.56882 0
M  V30 24168 C 2429.77 -0.49907 1.95841 0
M  V30 24169 C 2430.09 -1.65186 1.03626 0
M  V30 24170 O 2429.36 -1.95652 0.0984428 0
M  V30 24171 H 2427.94 -0.18736 0.723122 0
M  V30 24172 H 2430.6 0.2265 1.93579 0
M  V30 24173 H 2429.7 -0.873069 2.9964 0
M  V30 24174 N 2430 -1.57115 -0.123538 0
M  V30 24175 C 2431.23 -1.8852 -0.8452 0
M  V30 24176 C 2431.63 -0.739095 -1.74167 0
M  V30 24177 O 2430.98 0.299323 -1.81245 0
M  V30 24178 C 2431.04 -3.14891 -1.73446 0
M  V30 24179 C 2430.7 -4.45637 -1.01277 0
M  V30 24180 C 2431.7 -5.18682 -0.355683 0
M  V30 24181 C 2429.39 -4.92341 -0.995293 0
M  V30 24182 C 2431.38 -6.36649 0.309226 0
M  V30 24183 C 2429.07 -6.10227 -0.326583 0
M  V30 24184 C 2430.06 -6.82229 0.324526 0
M  V30 24185 O 2429.75 -7.97873 0.982578 0
M  V30 24186 H 2429.48 -0.628659 -0.248523 0
M  V30 24187 H 2432.04 -2.05084 -0.113871 0
M  V30 24188 H 2430.27 -2.94398 -2.50732 0
M  V30 24189 H 2431.96 -3.32354 -2.33015 0
M  V30 24190 H 2432.72 -4.83656 -0.360833 0
M  V30 24191 H 2428.6 -4.36205 -1.49151 0
M  V30 24192 H 2432.15 -6.92787 0.818022 0
M  V30 24193 H 2428.04 -6.4471 -0.319181 0
M  V30 24194 H 2428.81 -8.13684 0.886597 0
M  V30 24195 N 2431.47 0.393589 -1.52606 0
M  V30 24196 C 2432.7 1.1604 -1.71296 0
M  V30 24197 C 2433.12 1.83855 -0.429292 0
M  V30 24198 O 2432.47 1.72498 0.595891 0
M  V30 24199 C 2432.53 2.21188 -2.85934 0
M  V30 24200 O 2432.25 1.56138 -4.09332 0
M  V30 24201 C 2433.75 3.10631 -3.16265 0
M  V30 24202 H 2430.97 0.348094 -0.573647 0
M  V30 24203 H 2433.51 0.461057 -1.99235 0
M  V30 24204 H 2431.67 2.86765 -2.6047 0
M  V30 24205 H 2432.08 2.2597 -4.73326 0
M  V30 24206 H 2433.55 3.80449 -3.99953 0
M  V30 24207 H 2434.03 3.7388 -2.30457 0
M  V30 24208 H 2434.64 2.50704 -3.43551 0
M  V30 24209 N 2432.95 1.43492 0.651762 0
M  V30 24210 C 2434.2 1.44899 1.40885 0
M  V30 24211 C 2434.52 0.0749429 1.94856 0
M  V30 24212 O 2433.79 -0.889925 1.7452 0
M  V30 24213 H 2432.37 0.533487 0.522877 0
M  V30 24214 H 2435.03 1.79106 0.768578 0
M  V30 24215 H 2434.13 2.1624 2.25048 0
M  V30 24216 N 2434.43 -0.890264 1.30046 0
M  V30 24217 C 2435.36 -2.00089 1.1179 0
M  V30 24218 C 2436.38 -1.62679 0.0626593 0
M  V30 24219 O 2437.56 -1.7582 0.308143 0
M  V30 24220 C 2434.66 -3.31975 0.681585 0
M  V30 24221 C 2433.84 -3.97855 1.81742 0
M  V30 24222 C 2432.9 -5.08038 1.37054 0
M  V30 24223 O 2431.92 -5.29957 2.07687 0
M  V30 24224 N 2433.12 -5.79976 0.246627 0
M  V30 24225 H 2435.89 -2.16302 2.07445 0
M  V30 24226 H 2433.45 -1.06303 1.22112 0
M  V30 24227 H 2435.44 -4.03044 0.365746 0
M  V30 24228 H 2434.01 -3.12065 -0.182773 0
M  V30 24229 H 2433.23 -3.20028 2.30165 0
M  V30 24230 H 2434.52 -4.3861 2.57873 0
M  V30 24231 H 2433.92 -5.64665 -0.342051 0
M  V30 24232 H 2432.48 -6.51799 -0.00978981 0
M  V30 24233 N 2435.91 -1.12676 -1.1019 0
M  V30 24234 C 2437.14 -0.905245 -1.85712 0
M  V30 24235 C 2437.55 0.549076 -1.81057 0
M  V30 24236 O 2436.89 1.39149 -1.1993 0
M  V30 24237 C 2436.95 -1.30522 -3.34969 0
M  V30 24238 C 2436.62 -2.77135 -3.6338 0
M  V30 24239 C 2437.61 -3.7532 -3.59766 0
M  V30 24240 C 2435.3 -3.14103 -3.91975 0
M  V30 24241 C 2437.29 -5.08486 -3.84345 0
M  V30 24242 C 2434.98 -4.47451 -4.1621 0
M  V30 24243 C 2435.98 -5.44451 -4.12386 0
M  V30 24244 O 2435.66 -6.75394 -4.36002 0
M  V30 24245 H 2435.4 -0.323234 -0.593714 0
M  V30 24246 H 2437.95 -1.50115 -1.40195 0
M  V30 24247 H 2436.18 -0.65253 -3.81155 0
M  V30 24248 H 2437.87 -1.05743 -3.91884 0
M  V30 24249 H 2438.64 -3.48105 -3.3771 0
M  V30 24250 H 2434.51 -2.39209 -3.94081 0
M  V30 24251 H 2438.06 -5.84188 -3.81275 0
M  V30 24252 H 2433.96 -4.74393 -4.37746 0
M  V30 24253 H 2434.72 -6.81378 -4.53504 0
M  V30 24254 N 2437.39 1.28028 -0.919057 0
M  V30 24255 C 2438.63 1.96518 -0.562141 0
M  V30 24256 C 2438.99 1.7071 0.878754 0
M  V30 24257 O 2440.19 2.32816 1.34351 0
M  V30 24258 C 2438.46 3.46674 -0.869014 0
M  V30 24259 S 2440.02 4.34408 -0.619313 0
M  V30 24260 H 2436.84 0.679952 -0.207811 0
M  V30 24261 H 2439.44 1.55444 -1.18564 0
M  V30 24262 H 2438.15 3.62954 -1.91554 0
M  V30 24263 H 2437.68 3.92701 -0.23437 0
M  V30 24264 H 2439.69 4.93394 0.526908 0
M  V30 24265 N 2438.86 0.683613 1.42002 0
M  V30 24266 C 2439.77 0.0109488 2.34597 0
M  V30 24267 C 2440.79 -0.779218 1.55577 0
M  V30 24268 O 2441.97 -0.719522 1.88109 0
M  V30 24269 C 2439.03 -0.922529 3.34201 0
M  V30 24270 C 2438.09 -0.125908 4.29115 0
M  V30 24271 C 2437.33 -1.01493 5.23961 0
M  V30 24272 O 2437.55 -2.25447 5.23956 0
M  V30 24273 O 2436.48 -0.471004 6.00054 0
M  V30 24274 H 2440.31 0.773904 2.93674 0
M  V30 24275 H 2437.89 0.443886 1.42653 0
M  V30 24276 H 2439.78 -1.45816 3.95368 0
M  V30 24277 H 2438.45 -1.66518 2.77585 0
M  V30 24278 H 2437.36 0.454034 3.71335 0
M  V30 24279 H 2438.69 0.577822 4.88797 0
M  V30 24280 N 2440.34 -1.5169 0.427538 0
M  V30 24281 C 2441.28 -2.25235 -0.424481 0
M  V30 24282 C 2442.29 -1.28882 -0.994648 0
M  V30 24283 O 2443.48 -1.54703 -0.890455 0
M  V30 24284 C 2440.58 -2.98498 -1.60474 0
M  V30 24285 C 2439.75 -4.2187 -1.1552 0
M  V30 24286 C 2438.81 -4.77797 -2.20446 0
M  V30 24287 O 2437.84 -5.39896 -1.80281 0
M  V30 24288 N 2439.04 -4.60973 -3.52823 0
M  V30 24289 H 2441.8 -2.98993 0.205802 0
M  V30 24290 H 2439.36 -1.59865 0.255895 0
M  V30 24291 H 2441.36 -3.32803 -2.3027 0
M  V30 24292 H 2439.93 -2.27813 -2.14057 0
M  V30 24293 H 2439.15 -3.93171 -0.284667 0
M  V30 24294 H 2440.43 -5.0195 -0.832085 0
M  V30 24295 H 2439.83 -4.11488 -3.88193 0
M  V30 24296 H 2438.39 -4.99666 -4.18542 0
M  V30 24297 N 2441.82 -0.15856 -1.568 0
M  V30 24298 C 2443.06 0.492255 -1.98384 0
M  V30 24299 C 2443.43 1.61273 -1.04187 0
M  V30 24300 O 2444.63 2.32521 -1.3486 0
M  V30 24301 C 2442.9 0.974706 -3.43852 0
M  V30 24302 S 2444.46 1.6285 -4.07462 0
M  V30 24303 H 2441.27 0.158781 -0.693044 0
M  V30 24304 H 2443.88 -0.253008 -1.93856 0
M  V30 24305 H 2442.58 0.148616 -4.10131 0
M  V30 24306 H 2442.11 1.75431 -3.52118 0
M  V30 24307 H 2444.13 2.9162 -4.01463 0
M  V30 24308 N 2443.3 1.57178 0.115204 0
M  V30 24309 C 2444.55 1.84686 0.820694 0
M  V30 24310 C 2444.87 0.74431 1.80236 0
M  V30 24311 O 2444.14 -0.231341 1.94529 0
M  V30 24312 H 2442.72 0.681417 0.306072 0
M  V30 24313 H 2445.38 1.94635 0.101622 0
M  V30 24314 H 2444.48 2.80735 1.36361 0
M  V30 24315 N 2444.78 -0.38549 1.52813 0
M  V30 24316 C 2446.19 -0.963265 1.59932 0
M  V30 24317 C 2446.54 -1.90867 0.454335 0
M  V30 24318 O 2445.66 -2.12244 -0.422094 0
M  V30 24319 C 2446.26 -1.75381 2.89874 0
M  V30 24320 C 2444.82 -2.28124 2.99393 0
M  V30 24321 C 2443.97 -1.08779 2.55073 0
M  V30 24322 H 2446.92 -0.164921 1.57841 0
M  V30 24323 H 2446.94 -2.61336 2.76557 0
M  V30 24324 H 2446.45 -1.06548 3.73188 0
M  V30 24325 H 2444.55 -3.00259 2.20624 0
M  V30 24326 H 2444.66 -2.5737 4.04101 0
M  V30 24327 H 2443.03 -1.44886 2.09476 0
M  V30 24328 H 2443.81 -0.414747 3.40785 0
M  V30 24329 N 2446.26 -1.43835 -0.644143 0
M  V30 24330 C 2447.5 -1.45644 -1.40115 0
M  V30 24331 C 2447.82 -0.0852755 -1.94813 0
M  V30 24332 O 2447.09 0.880657 -1.74989 0
M  V30 24333 H 2445.67 -0.536253 -0.520041 0
M  V30 24334 H 2448.34 -1.79511 -0.759069 0
M  V30 24335 H 2447.43 -2.17431 -2.23898 0
M  V30 24336 N 2447.73 0.883355 -1.30517 0
M  V30 24337 C 2448.96 1.66597 -1.22184 0
M  V30 24338 C 2449.37 1.87946 0.217474 0
M  V30 24339 O 2448.71 1.42817 1.15538 0
M  V30 24340 C 2448.78 3.06332 -1.88152 0
M  V30 24341 C 2448.44 3.08148 -3.37482 0
M  V30 24342 C 2449.44 2.87086 -4.33448 0
M  V30 24343 C 2447.12 3.29694 -3.78955 0
M  V30 24344 C 2449.12 2.8753 -5.68863 0
M  V30 24345 C 2446.8 3.29767 -5.14487 0
M  V30 24346 C 2447.8 3.08709 -6.09252 0
M  V30 24347 O 2447.49 3.08601 -7.42307 0
M  V30 24348 H 2447.22 0.526572 -0.423907 0
M  V30 24349 H 2449.78 1.11185 -1.72705 0
M  V30 24350 H 2448.01 3.63414 -1.32163 0
M  V30 24351 H 2449.69 3.66753 -1.73917 0
M  V30 24352 H 2450.46 2.70236 -4.02738 0
M  V30 24353 H 2446.34 3.45119 -3.05637 0
M  V30 24354 H 2449.88 2.71012 -6.42805 0
M  V30 24355 H 2445.78 3.46153 -5.44838 0
M  V30 24356 H 2446.55 3.24756 -7.51316 0
M  V30 24357 N 2449.21 1.13259 1.09591 0
M  V30 24358 C 2450.46 0.894612 1.82001 0
M  V30 24359 C 2450.79 -0.577874 1.85403 0
M  V30 24360 O 2450.07 -1.42756 1.32102 0
M  V30 24361 C 2450.35 1.48102 3.28234 0
M  V30 24362 C 2450.2 3.02249 3.33115 0
M  V30 24363 C 2451.52 1.14781 4.24869 0
M  V30 24364 H 2448.64 0.326435 0.660764 0
M  V30 24365 H 2451.28 1.4006 1.28386 0
M  V30 24366 H 2449.43 1.05069 3.74022 0
M  V30 24367 H 2451.1 3.54026 2.95742 0
M  V30 24368 H 2449.35 3.37328 2.7275 0
M  V30 24369 H 2450.02 3.38378 4.36124 0
M  V30 24370 H 2452.49 1.51964 3.87358 0
M  V30 24371 H 2451.37 1.58462 5.25529 0
M  V30 24372 H 2451.63 0.0612626 4.42058 0
M  V30 24373 N 2450.69 -1.27539 0.925834 0
M  V30 24374 C 2451.94 -1.94066 0.564172 0
M  V30 24375 C 2452.26 -1.73136 -0.897157 0
M  V30 24376 O 2451.53 -1.07802 -1.63571 0
M  V30 24377 H 2450.11 -0.718132 0.205658 0
M  V30 24378 H 2452.77 -1.55285 1.17782 0
M  V30 24379 H 2451.87 -3.02481 0.768863 0
M  V30 24380 N 2452.17 -0.691135 -1.41637 0
M  V30 24381 C 2453.12 -0.0115608 -2.32597 0
M  V30 24382 C 2454.11 0.773269 -1.50721 0
M  V30 24383 O 2455.32 0.679391 -1.66686 0
M  V30 24384 H 2451.69 0.0150613 -0.751849 0
M  V30 24385 H 2453.66 -0.795841 -2.87592 0
M  V30 24386 C 2452.41 0.914113 -3.35469 0
M  V30 24387 H 2451.73 0.319617 -3.9852 0
M  V30 24388 H 2453.17 1.35801 -4.01664 0
M  V30 24389 C 2451.63 2.02821 -2.69008 0
M  V30 24390 O 2452.16 3.11651 -2.53449 0
M  V30 24391 N 2450.37 1.80465 -2.27773 0
M  V30 24392 H 2449.92 0.919573 -2.40628 0
M  V30 24393 H 2449.87 2.55193 -1.8364 0
M  V30 24394 N 2453.65 1.51461 -0.435577 0
M  V30 24395 C 2455.06 1.86679 0.0279543 0
M  V30 24396 C 2455.41 1.35283 1.42102 0
M  V30 24397 O 2454.53 0.702914 2.04666 0
M  V30 24398 C 2455.13 3.38751 0.0575031 0
M  V30 24399 C 2453.69 3.73511 0.465441 0
M  V30 24400 C 2452.83 2.7517 -0.343045 0
M  V30 24401 H 2455.78 1.44711 -0.651499 0
M  V30 24402 H 2455.81 3.70482 0.867356 0
M  V30 24403 H 2455.32 3.76128 -0.956514 0
M  V30 24404 H 2453.42 3.41723 1.48513 0
M  V30 24405 H 2453.53 4.78717 0.191462 0
M  V30 24406 H 2451.9 2.53926 0.198397 0
M  V30 24407 H 2452.68 3.15389 -1.3559 0
M  V30 24408 N 2455.12 0.166873 1.56714 0
M  V30 24409 C 2456.35 -0.488798 2.01558 0
M  V30 24410 C 2456.77 -1.56313 1.04633 0
M  V30 24411 O 2456.13 -1.81283 0.0251623 0
M  V30 24412 C 2456.18 -1.04812 3.45032 0
M  V30 24413 O 2455.28 -2.1623 3.51167 0
M  V30 24414 H 2454.63 -0.117515 0.653518 0
M  V30 24415 H 2457.16 0.269457 2.02818 0
M  V30 24416 H 2457.17 -1.37184 3.84245 0
M  V30 24417 H 2455.84 -0.261499 4.15077 0
M  V30 24418 H 2454.42 -1.84936 3.2381 0
M  V30 24419 N 2456.6 -1.57237 -0.106866 0
M  V30 24420 C 2457.85 -1.8576 -0.813697 0
M  V30 24421 C 2458.18 -0.754346 -1.7895 0
M  V30 24422 O 2457.46 0.238757 -1.93029 0
M  V30 24423 C 2457.74 -3.24897 -1.55288 0
M  V30 24424 C 2457.59 -4.45836 -0.595851 0
M  V30 24425 C 2458.91 -3.61768 -2.50624 0
M  V30 24426 H 2456.03 -0.675665 -0.294357 0
M  V30 24427 H 2458.67 -1.89841 -0.0776138 0
M  V30 24428 H 2456.82 -3.21548 -2.18035 0
M  V30 24429 H 2458.49 -4.61294 0.0237073 0
M  V30 24430 H 2456.74 -4.33703 0.0916953 0
M  V30 24431 H 2457.41 -5.39889 -1.14995 0
M  V30 24432 H 2459.88 -3.65985 -1.97976 0
M  V30 24433 H 2458.76 -4.60076 -2.99368 0
M  V30 24434 H 2459.02 -2.89827 -3.33845 0
M  V30 24435 N 2458.08 0.377381 -1.53015 0
M  V30 24436 C 2459.01 1.48146 -1.74887 0
M  V30 24437 C 2460.03 1.50139 -0.62946 0
M  V30 24438 O 2461.21 1.53831 -0.905443 0
M  V30 24439 C 2458.31 2.86956 -1.80304 0
M  V30 24440 C 2457.49 3.08795 -3.09781 0
M  V30 24441 C 2456.55 4.27653 -3.06593 0
M  V30 24442 O 2455.57 4.23396 -3.80426 0
M  V30 24443 N 2456.77 5.34451 -2.26588 0
M  V30 24444 H 2459.54 1.29766 -2.7015 0
M  V30 24445 H 2457.1 0.567004 -1.51647 0
M  V30 24446 H 2459.09 3.64588 -1.75663 0
M  V30 24447 H 2457.66 2.98639 -0.923772 0
M  V30 24448 H 2456.88 2.18926 -3.27819 0
M  V30 24449 H 2458.17 3.20248 -3.95372 0
M  V30 24450 H 2457.57 5.40768 -1.6609 0
M  V30 24451 H 2456.13 6.10705 -2.27776 0
M  V30 24452 N 2459.56 1.44175 0.636506 0
M  V30 24453 C 2460.81 1.46385 1.39341 0
M  V30 24454 C 2461.13 0.0956057 1.94765 0
M  V30 24455 O 2460.4 -0.871365 1.75454 0
M  V30 24456 H 2458.98 0.539003 0.517189 0
M  V30 24457 H 2461.64 1.79911 0.749538 0
M  V30 24458 H 2460.74 2.18615 2.22742 0
M  V30 24459 N 2461.04 -0.876421 1.30983 0
M  V30 24460 C 2462.28 -1.62572 1.20061 0
M  V30 24461 C 2462.61 -1.93481 -0.242913 0
M  V30 24462 O 2461.88 -1.57726 -1.16187 0
M  V30 24463 H 2460.46 -0.602669 0.44136 0
M  V30 24464 H 2463.12 -1.0496 1.64224 0
M  V30 24465 H 2462.21 -2.57216 1.76767 0
M  V30 24466 N 2462.51 -1.13839 -1.08989 0
M  V30 24467 C 2463.45 -0.77765 -2.15604 0
M  V30 24468 C 2464.46 0.202711 -1.61533 0
M  V30 24469 O 2465.65 -0.0181369 -1.78491 0
M  V30 24470 C 2462.75 -0.132682 -3.3864 0
M  V30 24471 C 2461.92 -1.14627 -4.22113 0
M  V30 24472 C 2460.98 -0.526166 -5.23563 0
M  V30 24473 O 2460.01 -1.18745 -5.56676 0
M  V30 24474 N 2461.21 0.699765 -5.76267 0
M  V30 24475 H 2463.97 -1.6951 -2.47156 0
M  V30 24476 H 2461.53 -1.032 -1.24745 0
M  V30 24477 H 2463.53 0.294519 -4.03627 0
M  V30 24478 H 2462.1 0.687795 -3.0494 0
M  V30 24479 H 2461.32 -1.75061 -3.53196 0
M  V30 24480 H 2462.6 -1.83117 -4.74706 0
M  V30 24481 H 2462 1.25571 -5.51587 0
M  V30 24482 H 2460.56 1.06956 -6.42965 0
M  V30 24483 N 2463.99 1.27046 -0.932584 0
M  V30 24484 C 2465.23 1.95911 -0.582953 0
M  V30 24485 C 2465.6 1.71632 0.860599 0
M  V30 24486 O 2466.8 2.34228 1.31874 0
M  V30 24487 C 2465.07 3.45733 -0.905734 0
M  V30 24488 S 2466.63 4.33726 -0.665353 0
M  V30 24489 H 2463.45 0.67771 -0.215012 0
M  V30 24490 H 2466.05 1.54177 -1.20206 0
M  V30 24491 H 2464.75 3.60902 -1.95392 0
M  V30 24492 H 2464.28 3.92431 -0.276008 0
M  V30 24493 H 2466.3 4.93926 0.474548 0
M  V30 24494 N 2465.47 0.698636 1.41269 0
M  V30 24495 C 2466.4 0.04967 2.33447 0
M  V30 24496 C 2467.38 -0.763871 1.51984 0
M  V30 24497 O 2468.57 -0.716225 1.8051 0
M  V30 24498 C 2465.7 -0.885208 3.35829 0
M  V30 24499 C 2464.65 -0.178537 4.27627 0
M  V30 24500 C 2463.98 -1.22798 5.20408 0
M  V30 24501 C 2465.28 0.957023 5.13457 0
M  V30 24502 H 2466.97 0.819561 2.87965 0
M  V30 24503 H 2464.52 0.395562 1.3846 0
M  V30 24504 H 2466.47 -1.34847 3.99242 0
M  V30 24505 H 2465.19 -1.6868 2.79669 0
M  V30 24506 H 2463.85 0.264724 3.65643 0
M  V30 24507 H 2463.5 -2.02218 4.60561 0
M  V30 24508 H 2463.2 -0.760136 5.82663 0
M  V30 24509 H 2464.72 -1.69169 5.86698 0
M  V30 24510 H 2466.14 0.573905 5.7042 0
M  V30 24511 H 2464.54 1.35216 5.84668 0
M  V30 24512 H 2465.61 1.79532 4.5044 0
M  V30 24513 N 2466.95 -1.51228 0.443603 0
M  V30 24514 C 2468.36 -1.86691 -0.0180538 0
M  V30 24515 C 2468.71 -1.36035 -1.41382 0
M  V30 24516 O 2467.84 -0.713758 -2.0429 0
M  V30 24517 C 2468.43 -3.38777 -0.0395375 0
M  V30 24518 C 2466.99 -3.73753 -0.445627 0
M  V30 24519 C 2466.14 -2.74984 0.357633 0
M  V30 24520 H 2469.09 -1.44363 0.659164 0
M  V30 24521 H 2469.11 -3.70937 -0.847696 0
M  V30 24522 H 2468.62 -3.75616 0.976448 0
M  V30 24523 H 2466.72 -3.42506 -1.46698 0
M  V30 24524 H 2466.83 -4.78812 -0.166071 0
M  V30 24525 H 2465.2 -2.54028 -0.184928 0
M  V30 24526 H 2465.98 -3.14665 1.37261 0
M  V30 24527 N 2468.43 -0.175182 -1.56623 0
M  V30 24528 C 2469.34 0.766003 -2.21742 0
M  V30 24529 C 2470.35 1.25015 -1.21025 0
M  V30 24530 O 2471.53 1.30148 -1.537 0
M  V30 24531 C 2468.59 1.9765 -2.84843 0
M  V30 24532 C 2467.65 1.53885 -4.00772 0
M  V30 24533 C 2466.89 2.69165 -4.60854 0
M  V30 24534 O 2467.11 3.86134 -4.1983 0
M  V30 24535 O 2466.04 2.43018 -5.50659 0
M  V30 24536 H 2469.87 0.241532 -3.02738 0
M  V30 24537 H 2467.46 0.0531958 -1.49305 0
M  V30 24538 H 2469.34 2.68436 -3.24838 0
M  V30 24539 H 2468.01 2.48995 -2.06841 0
M  V30 24540 H 2466.92 0.800376 -3.65438 0
M  V30 24541 H 2468.25 1.07227 -4.80378 0
M  V30 24542 N 2469.91 1.57292 0.0985263 0
M  V30 24543 C 2471.13 1.90117 0.816285 0
M  V30 24544 C 2471.55 0.768539 1.7245 0
M  V30 24545 O 2470.91 -0.259655 1.80643 0
M  V30 24546 C 2470.96 3.22538 1.63253 0
M  V30 24547 O 2470.68 4.31442 0.760859 0
M  V30 24548 C 2472.18 3.69203 2.45365 0
M  V30 24549 H 2469.4 0.629031 0.233584 0
M  V30 24550 H 2471.94 2.04356 0.076787 0
M  V30 24551 H 2470.1 3.09907 2.32457 0
M  V30 24552 H 2470.51 5.07466 1.32586 0
M  V30 24553 H 2471.99 4.64563 2.98136 0
M  V30 24554 H 2472.46 2.96873 3.23672 0
M  V30 24555 H 2473.07 3.8469 1.81367 0
M  V30 24556 N 2471.38 -0.369261 1.53213 0
M  V30 24557 C 2472.33 -1.4725 1.80056 0
M  V30 24558 C 2473.33 -1.55609 0.669484 0
M  V30 24559 O 2474.53 -1.5854 0.852355 0
M  V30 24560 H 2470.91 -0.490465 0.570042 0
M  V30 24561 H 2472.88 -1.21812 2.72405 0
M  V30 24562 C 2471.63 -2.84133 2.00408 0
M  V30 24563 H 2470.95 -2.78459 2.86881 0
M  V30 24564 H 2472.39 -3.60515 2.2317 0
M  V30 24565 C 2470.85 -3.27695 0.782139 0
M  V30 24566 O 2471.38 -4.01688 -0.0309499 0
M  V30 24567 N 2469.58 -2.84198 0.606623 0
M  V30 24568 H 2469.13 -2.2415 1.26943 0
M  V30 24569 H 2469.09 -3.13701 -0.209564 0
M  V30 24570 N 2472.86 -1.4451 -0.628851 0
M  V30 24571 C 2473.79 -1.47541 -1.75398 0
M  V30 24572 C 2474.81 -0.368534 -1.58574 0
M  V30 24573 O 2476 -0.634405 -1.66846 0
M  V30 24574 C 2473.1 -1.29583 -3.13148 0
M  V30 24575 C 2472.27 -2.53558 -3.56409 0
M  V30 24576 C 2471.33 -2.30466 -4.73046 0
M  V30 24577 O 2470.35 -3.03966 -4.81242 0
M  V30 24578 N 2471.56 -1.3367 -5.64901 0
M  V30 24579 H 2474.32 -2.44537 -1.73268 0
M  V30 24580 H 2471.88 -1.39979 -0.813487 0
M  V30 24581 H 2473.87 -1.11978 -3.889 0
M  V30 24582 H 2472.44 -0.409425 -3.09907 0
M  V30 24583 H 2471.66 -2.86423 -2.70842 0
M  V30 24584 H 2472.95 -3.36012 -3.82065 0
M  V30 24585 H 2472.35 -0.729703 -5.60974 0
M  V30 24586 H 2470.91 -1.22043 -6.40272 0
M  V30 24587 N 2474.34 0.869463 -1.31446 0
M  V30 24588 C 2475.3 1.95828 -1.19097 0
M  V30 24589 C 2476.3 1.60367 -0.117934 0
M  V30 24590 O 2477.49 1.70285 -0.367238 0
M  V30 24591 C 2474.62 3.30686 -0.828223 0
M  V30 24592 H 2475.82 2.08208 -2.15846 0
M  V30 24593 H 2473.37 1.05782 -1.15065 0
M  V30 24594 H 2474.11 3.24006 0.138085 0
M  V30 24595 H 2473.89 3.57797 -1.60387 0
M  V30 24596 H 2475.38 4.1052 -0.76573 0
M  V30 24597 N 2475.82 1.14415 1.08383 0
M  V30 24598 C 2477.23 0.923564 1.62257 0
M  V30 24599 C 2477.58 -0.537562 1.88692 0
M  V30 24600 O 2476.7 -1.40652 1.64457 0
M  V30 24601 C 2477.3 1.67008 2.94778 0
M  V30 24602 C 2475.86 1.49506 3.45434 0
M  V30 24603 C 2475.01 1.69242 2.19665 0
M  V30 24604 H 2477.96 1.29592 0.916064 0
M  V30 24605 H 2477.98 1.13341 3.63227 0
M  V30 24606 H 2477.49 2.73346 2.75506 0
M  V30 24607 H 2475.59 0.455162 3.69809 0
M  V30 24608 H 2475.7 2.26518 4.22169 0
M  V30 24609 H 2474.07 1.11808 2.28847 0
M  V30 24610 H 2474.85 2.76923 2.029 0
M  V30 24611 N 2477.3 -1.26549 0.939309 0
M  V30 24612 C 2478.23 -2.28821 0.465084 0
M  V30 24613 C 2479.21 -1.63168 -0.480663 0
M  V30 24614 O 2480.39 -1.90387 -0.382921 0
M  V30 24615 C 2477.52 -3.46231 -0.27228 0
M  V30 24616 C 2476.48 -4.23959 0.586734 0
M  V30 24617 C 2475.8 -5.33964 -0.280479 0
M  V30 24618 C 2477.1 -4.88168 1.85713 0
M  V30 24619 H 2478.8 -2.68739 1.31984 0
M  V30 24620 H 2476.34 -1.2919 0.636084 0
M  V30 24621 H 2478.29 -4.16887 -0.61506 0
M  V30 24622 H 2477.02 -3.05262 -1.16116 0
M  V30 24623 H 2475.68 -3.55065 0.912383 0
M  V30 24624 H 2475.33 -4.89236 -1.16865 0
M  V30 24625 H 2475.03 -5.8688 0.290863 0
M  V30 24626 H 2476.55 -6.07459 -0.618571 0
M  V30 24627 H 2477.96 -5.51049 1.5817 0
M  V30 24628 H 2476.36 -5.51193 2.37289 0
M  V30 24629 H 2477.43 -4.11215 2.56964 0
M  V30 24630 N 2478.77 -0.706118 -1.40896 0
M  V30 24631 C 2480.02 -0.241924 -2.01352 0
M  V30 24632 C 2480.35 1.15885 -1.55834 0
M  V30 24633 O 2479.63 1.78429 -0.774177 0
M  V30 24634 C 2479.91 -0.311374 -3.58751 0
M  V30 24635 C 2479.76 -1.74985 -4.14367 0
M  V30 24636 C 2481.08 0.322845 -4.38914 0
M  V30 24637 H 2478.2 -0.0893815 -0.73156 0
M  V30 24638 H 2480.84 -0.896832 -1.67502 0
M  V30 24639 H 2478.99 0.246234 -3.87719 0
M  V30 24640 H 2480.67 -2.36211 -3.96235 0
M  V30 24641 H 2478.91 -2.28063 -3.69012 0
M  V30 24642 H 2479.58 -1.7499 -5.23529 0
M  V30 24643 H 2482.06 -0.152162 -4.15822 0
M  V30 24644 H 2480.93 0.243759 -5.48358 0
M  V30 24645 H 2481.19 1.40506 -4.19178 0
M  V30 24646 N 2480.25 1.50991 -0.451617 0
M  V30 24647 C 2481.5 2.025 0.110202 0
M  V30 24648 C 2481.83 1.33426 1.41107 0
M  V30 24649 O 2481.11 0.453692 1.89135 0
M  V30 24650 C 2481.39 3.58727 0.314208 0
M  V30 24651 C 2481.24 4.38399 -1.00631 0
M  V30 24652 C 2482.56 4.26704 1.07759 0
M  V30 24653 H 2479.68 0.73599 0.0385767 0
M  V30 24654 H 2482.32 1.80496 -0.593406 0
M  V30 24655 H 2480.47 3.77607 0.913535 0
M  V30 24656 H 2482.14 4.31136 -1.64072 0
M  V30 24657 H 2480.39 4.02914 -1.60757 0
M  V30 24658 H 2481.06 5.45914 -0.817437 0
M  V30 24659 H 2483.53 4.1218 0.569788 0
M  V30 24660 H 2482.41 5.35865 1.18911 0
M  V30 24661 H 2482.67 3.88536 2.10932 0
M  V30 24662 N 2481.73 0.183486 1.56528 0
M  V30 24663 C 2482.64 -0.754233 2.22145 0
M  V30 24664 C 2483.66 -1.24372 1.21687 0
M  V30 24665 O 2484.83 -1.29331 1.54388 0
M  V30 24666 C 2481.9 -1.96136 2.85887 0
M  V30 24667 C 2480.96 -1.51758 4.01582 0
M  V30 24668 C 2480.19 -2.66717 4.62275 0
M  V30 24669 O 2480.41 -3.83902 4.21872 0
M  V30 24670 O 2479.35 -2.40094 5.5194 0
M  V30 24671 H 2483.17 -0.225473 3.02862 0
M  V30 24672 H 2480.76 -0.045277 1.49331 0
M  V30 24673 H 2482.64 -2.6671 3.26257 0
M  V30 24674 H 2481.32 -2.47895 2.08158 0
M  V30 24675 H 2480.22 -0.780985 3.65857 0
M  V30 24676 H 2481.56 -1.04678 4.8094 0
M  V30 24677 N 2483.21 -1.57342 -0.0901833 0
M  V30 24678 C 2484.45 -1.86613 -0.793949 0
M  V30 24679 C 2484.79 -0.773284 -1.7814 0
M  V30 24680 O 2484.06 0.21827 -1.93271 0
M  V30 24681 C 2484.34 -3.26525 -1.51833 0
M  V30 24682 C 2484.2 -4.46443 -0.548531 0
M  V30 24683 C 2485.52 -3.64405 -2.46773 0
M  V30 24684 H 2482.64 -0.678749 -0.287174 0
M  V30 24685 H 2485.28 -1.89913 -0.0574742 0
M  V30 24686 H 2483.43 -3.23843 -2.14612 0
M  V30 24687 H 2485.1 -4.61243 0.0726324 0
M  V30 24688 H 2483.34 -4.33581 0.13769 0
M  V30 24689 H 2484.01 -5.41078 -1.09262 0
M  V30 24690 H 2486.49 -3.68064 -1.94083 0
M  V30 24691 H 2485.37 -4.63226 -2.94471 0
M  V30 24692 H 2485.63 -2.93352 -3.30753 0
M  V30 24693 N 2484.69 0.36113 -1.53407 0
M  V30 24694 C 2485.64 1.44284 -1.76539 0
M  V30 24695 C 2486.62 1.48473 -0.620045 0
M  V30 24696 O 2487.81 1.53639 -0.878861 0
M  V30 24697 C 2484.94 2.81661 -1.96271 0
M  V30 24698 C 2484.03 2.81933 -3.1682 0
M  V30 24699 N 2484.42 2.51848 -4.38642 0
M  V30 24700 C 2482.72 3.13091 -3.17632 0
M  V30 24701 C 2483.42 2.5991 -5.20405 0
M  V30 24702 N 2482.39 2.94806 -4.56717 0
M  V30 24703 H 2486.2 1.19894 -2.68333 0
M  V30 24704 H 2483.71 0.569353 -1.52092 0
M  V30 24705 H 2485.71 3.59578 -2.10972 0
M  V30 24706 H 2484.37 3.07011 -1.05708 0
M  V30 24707 H 2485.38 2.25361 -4.66297 0
M  V30 24708 H 2482.05 3.43727 -2.36977 0
M  V30 24709 H 2483.44 2.39958 -6.2759 0
M  V30 24710 N 2486.16 1.44842 0.621179 0
M  V30 24711 C 2487.58 1.42779 1.20296 0
M  V30 24712 C 2487.93 0.148293 1.95639 0
M  V30 24713 O 2487.05 -0.750857 2.02956 0
M  V30 24714 C 2487.65 2.58661 2.18815 0
M  V30 24715 C 2486.21 2.59761 2.72399 0
M  V30 24716 C 2485.35 2.34776 1.47566 0
M  V30 24717 H 2488.3 1.53278 0.41127 0
M  V30 24718 H 2488.32 2.31983 3.01603 0
M  V30 24719 H 2487.84 3.51769 1.63951 0
M  V30 24720 H 2485.94 1.70621 3.31239 0
M  V30 24721 H 2486.05 3.58561 3.17759 0
M  V30 24722 H 2484.41 1.84064 1.76047 0
M  V30 24723 H 2485.2 3.30012 0.945896 0
M  V30 24724 N 2487.64 -0.862479 1.31905 0
M  V30 24725 C 2488.61 -1.95193 1.20134 0
M  V30 24726 C 2489.61 -1.60302 0.126437 0
M  V30 24727 O 2490.8 -1.70088 0.376264 0
M  V30 24728 C 2487.93 -3.30242 0.845749 0
M  V30 24729 H 2489.12 -2.0706 2.16947 0
M  V30 24730 H 2486.67 -1.0517 1.15624 0
M  V30 24731 H 2487.41 -3.24075 -0.1209 0
M  V30 24732 H 2487.19 -3.56941 1.62282 0
M  V30 24733 H 2488.68 -4.10108 0.78749 0
M  V30 24734 N 2489.12 -1.14988 -1.07775 0
M  V30 24735 C 2490.54 -0.891619 -1.32372 0
M  V30 24736 C 2490.74 0.463754 -1.96091 0
M  V30 24737 O 2489.79 1.20663 -2.21803 0
M  V30 24738 C 2491.11 -2.02929 -2.21902 0
M  V30 24739 C 2492.65 -2.06333 -2.35363 0
M  V30 24740 C 2493.13 -3.19411 -3.28239 0
M  V30 24741 N 2494.62 -3.1903 -3.35818 0
M  V30 24742 C 2495.35 -4.03166 -4.07732 0
M  V30 24743 N 2494.85 -4.97355 -4.82297 0
M  V30 24744 N 2496.64 -3.91204 -4.03629 0
M  V30 24745 H 2488.79 -2.02274 -0.648003 0
M  V30 24746 H 2491.06 -0.881763 -0.348134 0
M  V30 24747 H 2490.76 -3.00743 -1.82336 0
M  V30 24748 H 2490.64 -1.95795 -3.22404 0
M  V30 24749 H 2493.02 -1.09121 -2.74184 0
M  V30 24750 H 2493.11 -2.17535 -1.34581 0
M  V30 24751 H 2492.75 -4.16872 -2.90138 0
M  V30 24752 H 2492.68 -3.05445 -4.28965 0
M  V30 24753 H 2495.17 -2.50816 -2.82666 0
M  V30 24754 H 2495.48 -5.58004 -5.34651 0
M  V30 24755 H 2493.83 -5.01347 -4.81328 0
M  V30 24756 H 2497.02 -3.16934 -3.44486 0
M  V30 24757 H 2497.19 -4.56998 -4.59409 0
M  V30 24758 N 2490.6 1.26049 -0.946007 0
M  V30 24759 C 2491.82 1.98148 -0.61256 0
M  V30 24760 C 2492.25 1.69928 0.806594 0
M  V30 24761 O 2491.61 0.950135 1.54409 0
M  V30 24762 C 2491.65 3.50021 -0.867043 0
M  V30 24763 O 2490.76 4.12359 0.0584609 0
M  V30 24764 H 2490.1 0.621477 -0.233801 0
M  V30 24765 H 2492.63 1.60392 -1.27025 0
M  V30 24766 H 2492.64 4.00281 -0.789862 0
M  V30 24767 H 2491.31 3.6989 -1.90142 0
M  V30 24768 H 2489.89 3.72834 -0.0701897 0
M  V30 24769 N 2492.08 0.71358 1.4052 0
M  V30 24770 C 2493.33 0.249228 2.00154 0
M  V30 24771 C 2493.64 -1.16359 1.57226 0
M  V30 24772 O 2494.84 -1.72635 2.09545 0
M  V30 24773 C 2493.3 0.394663 3.5773 0
M  V30 24774 C 2492.91 1.814 4.09632 0
M  V30 24775 C 2494.65 -0.00899903 4.24499 0
M  V30 24776 C 2492.56 1.91012 5.59704 0
M  V30 24777 H 2491.49 0.0894246 0.748678 0
M  V30 24778 H 2494.14 0.88438 1.60782 0
M  V30 24779 H 2492.52 -0.30904 3.94792 0
M  V30 24780 H 2493.7 2.54791 3.8395 0
M  V30 24781 H 2492.01 2.16894 3.55452 0
M  V30 24782 H 2494.61 0.0421344 5.34683 0
M  V30 24783 H 2494.95 -1.05058 4.02826 0
M  V30 24784 H 2495.48 0.645076 3.92535 0
M  V30 24785 H 2492.22 2.93285 5.86229 0
M  V30 24786 H 2491.74 1.22029 5.87255 0
M  V30 24787 H 2493.42 1.68131 6.24773 0
M  V30 24788 N 2493.55 -1.50749 0.459618 0
M  V30 24789 C 2494.8 -2.02556 -0.099461 0
M  V30 24790 C 2495.13 -1.34173 -1.40397 0
M  V30 24791 O 2494.41 -0.463716 -1.88891 0
M  V30 24792 C 2494.69 -3.58888 -0.295179 0
M  V30 24793 C 2494.54 -4.37859 1.02954 0
M  V30 24794 C 2495.86 -4.27269 -1.05495 0
M  V30 24795 H 2492.98 -0.736184 -0.0346731 0
M  V30 24796 H 2495.62 -1.80178 0.60297 0
M  V30 24797 H 2493.77 -3.78086 -0.893497 0
M  V30 24798 H 2495.45 -4.3026 1.66356 0
M  V30 24799 H 2493.69 -4.02056 1.62892 0
M  V30 24800 H 2494.36 -5.45473 0.846377 0
M  V30 24801 H 2496.84 -4.12477 -0.547921 0
M  V30 24802 H 2495.71 -5.36488 -1.16068 0
M  V30 24803 H 2495.97 -3.89649 -2.08868 0
M  V30 24804 N 2495.03 -0.191784 -1.56429 0
M  V30 24805 C 2496.44 0.321396 -1.83913 0
M  V30 24806 C 2496.79 1.61621 -1.11234 0
M  V30 24807 O 2495.92 2.13178 -0.372058 0
M  V30 24808 C 2496.51 0.589903 -3.33625 0
M  V30 24809 C 2495.07 1.04746 -3.61532 0
M  V30 24810 C 2494.22 0.094284 -2.7714 0
M  V30 24811 H 2497.17 -0.415639 -1.5316 0
M  V30 24812 H 2497.19 1.4396 -3.52215 0
M  V30 24813 H 2496.7 -0.352656 -3.86494 0
M  V30 24814 H 2494.81 2.00441 -3.14092 0
M  V30 24815 H 2494.92 0.942466 -4.69739 0
M  V30 24816 H 2493.28 0.595546 -2.4764 0
M  V30 24817 H 2494.07 -0.842659 -3.32797 0
M  V30 24818 N 2496.51 1.57387 0.0818378 0
M  V30 24819 C 2497.44 1.99702 1.1248 0
M  V30 24820 C 2498.46 0.901484 1.35562 0
M  V30 24821 O 2499.64 1.17948 1.3398 0
M  V30 24822 C 2496.74 2.31217 2.47774 0
M  V30 24823 C 2495.92 3.62489 2.44786 0
M  V30 24824 C 2494.98 3.81789 3.6211 0
M  V30 24825 O 2494 4.53492 3.43997 0
M  V30 24826 N 2495.2 3.23375 4.82088 0
M  V30 24827 H 2497.97 2.89784 0.764534 0
M  V30 24828 H 2495.53 1.59622 0.270636 0
M  V30 24829 H 2497.52 2.4131 3.24887 0
M  V30 24830 H 2496.09 1.47075 2.7584 0
M  V30 24831 H 2495.31 3.63243 1.53128 0
M  V30 24832 H 2496.6 4.48703 2.39881 0
M  V30 24833 H 2496 2.65157 4.99708 0
M  V30 24834 H 2494.56 3.38933 5.56747 0
M  V30 24835 N 2497.99 -0.35299 1.53596 0
M  V30 24836 C 2499.24 -1.09212 1.70051 0
M  V30 24837 C 2499.56 -1.89462 0.46144 0
M  V30 24838 O 2498.83 -1.88745 -0.5246 0
M  V30 24839 H 2497.41 -0.406179 0.626919 0
M  V30 24840 H 2500.07 -0.396551 1.90823 0
M  V30 24841 H 2499.17 -1.77484 2.56722 0
M  V30 24842 N 2499.47 -1.45169 -0.613489 0
M  V30 24843 C 2500.72 -1.48583 -1.36994 0
M  V30 24844 C 2501.04 -0.126579 -1.94589 0
M  V30 24845 O 2500.31 0.843341 -1.76818 0
M  V30 24846 H 2498.89 -0.547163 -0.508549 0
M  V30 24847 H 2501.55 -1.81081 -0.720821 0
M  V30 24848 H 2500.64 -2.22131 -2.19236 0
M  V30 24849 N 2500.95 0.855472 -1.32361 0
M  V30 24850 C 2502.17 1.64729 -1.26013 0
M  V30 24851 C 2502.6 1.87339 0.169035 0
M  V30 24852 O 2501.95 1.42558 1.12013 0
M  V30 24853 C 2502 2.98425 -2.02422 0
M  V30 24854 O 2501.11 3.88927 -1.37147 0
M  V30 24855 H 2500.45 0.502245 -0.434334 0
M  V30 24856 H 2502.98 1.06555 -1.74663 0
M  V30 24857 H 2502.99 3.48253 -2.12565 0
M  V30 24858 H 2501.66 2.8129 -3.06348 0
M  V30 24859 H 2500.24 3.47393 -1.35546 0
M  V30 24860 N 2502.42 1.15558 1.07164 0
M  V30 24861 C 2503.37 0.822507 2.12647 0
M  V30 24862 C 2504.36 -0.194101 1.59725 0
M  V30 24863 O 2505.55 0.00543513 1.76999 0
M  V30 24864 C 2502.68 0.315632 3.41846 0
M  V30 24865 C 2501.76 1.36251 4.01617 0
M  V30 24866 N 2502.16 2.57038 4.35621 0
M  V30 24867 C 2500.45 1.21569 4.29112 0
M  V30 24868 C 2501.15 3.24153 4.83011 0
M  V30 24869 N 2500.13 2.51539 4.81901 0
M  V30 24870 H 2503.93 1.74115 2.36772 0
M  V30 24871 H 2501.45 1.04132 1.2462 0
M  V30 24872 H 2503.44 0.0586588 4.16859 0
M  V30 24873 H 2502.1 -0.597049 3.19164 0
M  V30 24874 H 2503.11 2.94166 4.26247 0
M  V30 24875 H 2499.79 0.363061 4.15918 0
M  V30 24876 H 2501.18 4.27208 5.18597 0
M  V30 24877 N 2503.9 -1.25546 0.952678 0
M  V30 24878 C 2505.13 -1.9782 0.623059 0
M  V30 24879 C 2505.55 -1.70354 -0.79757 0
M  V30 24880 O 2504.91 -0.95831 -1.53903 0
M  V30 24881 C 2504.96 -3.49556 0.885593 0
M  V30 24882 O 2504.06 -4.12384 -0.0365917 0
M  V30 24883 H 2503.4 -0.620228 0.237093 0
M  V30 24884 H 2505.93 -1.59716 1.27874 0
M  V30 24885 H 2505.94 -3.99857 0.811079 0
M  V30 24886 H 2504.62 -3.68877 1.92101 0
M  V30 24887 H 2503.19 -3.72791 0.089961 0
M  V30 24888 N 2505.38 -0.721022 -1.40139 0
M  V30 24889 C 2506.31 -0.0868031 -2.33339 0
M  V30 24890 C 2507.29 0.739596 -1.5318 0
M  V30 24891 O 2508.48 0.687417 -1.81627 0
M  V30 24892 C 2505.61 0.831668 -3.37195 0
M  V30 24893 C 2504.56 0.110483 -4.27857 0
M  V30 24894 C 2503.89 1.14503 -5.22296 0
M  V30 24895 C 2505.19 -1.03859 -5.1187 0
M  V30 24896 H 2506.88 -0.86527 -2.86624 0
M  V30 24897 H 2504.43 -0.41754 -1.37814 0
M  V30 24898 H 2506.38 1.28478 -4.01337 0
M  V30 24899 H 2505.1 1.64209 -2.82317 0
M  V30 24900 H 2503.76 -0.322861 -3.65176 0
M  V30 24901 H 2503.41 1.94865 -4.6372 0
M  V30 24902 H 2503.11 0.667344 -5.83798 0
M  V30 24903 H 2504.63 1.59814 -5.89315 0
M  V30 24904 H 2506.05 -0.664582 -5.69435 0
M  V30 24905 H 2504.44 -1.445 -5.82443 0
M  V30 24906 H 2505.51 -1.86676 -4.47527 0
M  V30 24907 N 2506.86 1.50503 -0.467606 0
M  V30 24908 C 2508.27 1.59136 -0.121561 0
M  V30 24909 C 2508.47 1.47605 1.37167 0
M  V30 24910 O 2507.53 1.33275 2.14462 0
M  V30 24911 C 2508.84 2.93172 -0.668652 0
M  V30 24912 C 2510.39 3.06558 -0.63177 0
M  V30 24913 C 2510.87 4.43162 -1.15635 0
M  V30 24914 N 2512.36 4.49565 -1.11561 0
M  V30 24915 C 2513.09 5.53648 -1.49204 0
M  V30 24916 N 2512.59 6.65002 -1.9428 0
M  V30 24917 N 2514.38 5.44172 -1.40829 0
M  V30 24918 H 2506.53 1.56242 -1.43882 0
M  V30 24919 H 2508.79 0.738187 -0.594797 0
M  V30 24920 H 2508.5 3.07075 -1.71459 0
M  V30 24921 H 2508.37 3.77039 -0.110276 0
M  V30 24922 H 2510.76 2.92304 0.405246 0
M  V30 24923 H 2510.84 2.24456 -1.22691 0
M  V30 24924 H 2510.49 4.58165 -2.19198 0
M  V30 24925 H 2510.42 5.2385 -0.537457 0
M  V30 24926 H 2512.91 3.69658 -0.78496 0
M  V30 24927 H 2513.22 7.40478 -2.21161 0
M  V30 24928 H 2511.57 6.6613 -1.9823 0
M  V30 24929 H 2514.76 4.56066 -1.05458 0
M  V30 24930 H 2514.93 6.25169 -1.70492 0
M  V30 24931 N 2508.34 0.200077 1.56325 0
M  V30 24932 C 2509.58 -0.439484 1.99619 0
M  V30 24933 C 2509.94 -1.58454 1.08426 0
M  V30 24934 O 2511.14 -2.28864 1.40977 0
M  V30 24935 C 2509.41 -0.883197 3.46315 0
M  V30 24936 S 2510.97 -1.51989 4.11637 0
M  V30 24937 H 2507.79 -0.140351 0.69701 0
M  V30 24938 H 2510.39 0.304316 1.93117 0
M  V30 24939 H 2509.09 -0.0398246 4.10381 0
M  V30 24940 H 2508.63 -1.66034 3.56646 0
M  V30 24941 H 2510.64 -2.80873 4.09054 0
M  V30 24942 N 2509.81 -1.57429 -0.0734901 0
M  V30 24943 C 2510.75 -2.00296 -1.11419 0
M  V30 24944 C 2511.76 -0.90866 -1.35082 0
M  V30 24945 O 2512.95 -1.18656 -1.33353 0
M  V30 24946 C 2510.05 -2.32528 -2.46544 0
M  V30 24947 C 2509.22 -3.63782 -2.42861 0
M  V30 24948 C 2508.28 -3.83704 -3.6008 0
M  V30 24949 O 2507.31 -4.5531 -3.41587 0
M  V30 24950 N 2508.51 -3.25927 -4.80366 0
M  V30 24951 H 2511.27 -2.90186 -0.749155 0
M  V30 24952 H 2508.83 -1.59763 -0.262167 0
M  V30 24953 H 2510.83 -2.4303 -3.23603 0
M  V30 24954 H 2509.4 -1.48536 -2.75056 0
M  V30 24955 H 2508.62 -3.6405 -1.51199 0
M  V30 24956 H 2509.9 -4.49969 -2.37498 0
M  V30 24957 H 2509.3 -2.67803 -4.98295 0
M  V30 24958 H 2507.86 -3.41881 -5.54942 0
M  V30 24959 N 2511.29 0.344839 -1.53781 0
M  V30 24960 C 2512.54 1.08684 -1.71218 0
M  V30 24961 C 2512.87 1.88344 -0.473314 0
M  V30 24962 O 2512.15 1.8715 0.529647 0
M  V30 24963 C 2512.43 2.02909 -2.97489 0
M  V30 24964 C 2512.28 1.2672 -4.31581 0
M  V30 24965 C 2513.6 3.02745 -3.19427 0
M  V30 24966 H 2510.72 0.393724 -0.623017 0
M  V30 24967 H 2513.36 0.36553 -1.86451 0
M  V30 24968 H 2511.51 2.64416 -2.84634 0
M  V30 24969 H 2513.18 0.67837 -4.56285 0
M  V30 24970 H 2511.43 0.569197 -4.3005 0
M  V30 24971 H 2512.1 1.95793 -5.16109 0
M  V30 24972 H 2514.57 2.51351 -3.31605 0
M  V30 24973 H 2513.45 3.65878 -4.09176 0
M  V30 24974 H 2513.71 3.74053 -2.35663 0
M  V30 24975 N 2512.77 1.45492 0.605781 0
M  V30 24976 C 2513.99 1.53363 1.39623 0
M  V30 24977 C 2514.42 0.167678 1.87351 0
M  V30 24978 O 2513.78 -0.848023 1.60244 0
M  V30 24979 C 2513.83 2.52385 2.57554 0
M  V30 24980 O 2512.93 2.04291 3.58244 0
M  V30 24981 H 2512.27 0.516919 0.416762 0
M  V30 24982 H 2514.8 1.90862 0.73707 0
M  V30 24983 H 2514.81 2.71249 3.04775 0
M  V30 24984 H 2513.49 3.5159 2.22165 0
M  V30 24985 H 2512.06 1.95311 3.1766 0
M  V30 24986 N 2514.25 -0.848441 1.32813 0
M  V30 24987 C 2515.5 -1.59989 1.23482 0
M  V30 24988 C 2515.82 -1.93953 -0.201819 0
M  V30 24989 O 2515.09 -1.60155 -1.12815 0
M  V30 24990 H 2513.67 -0.593172 0.454045 0
M  V30 24991 H 2516.33 -1.01452 1.66413 0
M  V30 24992 H 2515.43 -2.53408 1.82183 0
M  V30 24993 N 2515.73 -1.16125 -1.06549 0
M  V30 24994 C 2516.95 -0.965767 -1.83542 0
M  V30 24995 C 2517.38 0.48107 -1.81844 0
M  V30 24996 O 2516.73 1.34352 -1.21735 0
M  V30 24997 C 2516.78 -1.49462 -3.28167 0
M  V30 24998 O 2515.89 -0.699228 -4.06429 0
M  V30 24999 H 2515.23 -0.343874 -0.56802 0
M  V30 25000 H 2517.76 -1.54301 -1.34359 0
M  V30 25001 H 2517.77 -1.51098 -3.7899 0
M  V30 25002 H 2516.44 -2.5479 -3.28717 0
M  V30 25003 H 2515.02 -0.753164 -3.65215 0
M  V30 25004 N 2517.2 1.25039 -0.959323 0
M  V30 25005 C 2518.62 1.74769 -0.6567 0
M  V30 25006 C 2518.97 1.77881 0.827821 0
M  V30 25007 O 2518.09 1.40272 1.64781 0
M  V30 25008 C 2518.69 3.17387 -1.18535 0
M  V30 25009 C 2517.25 3.64659 -0.932798 0
M  V30 25010 C 2516.39 2.43562 -1.32563 0
M  V30 25011 H 2519.34 1.1086 -1.1356 0
M  V30 25012 H 2519.36 3.76538 -0.547649 0
M  V30 25013 H 2518.88 3.15091 -2.26582 0
M  V30 25014 H 2516.98 3.72364 0.132505 0
M  V30 25015 H 2517.09 4.52557 -1.57256 0
M  V30 25016 H 2515.45 2.43591 -0.743999 0
M  V30 25017 H 2516.24 2.43953 -2.41541 0
M  V30 25018 N 2518.68 0.728444 1.39755 0
M  V30 25019 C 2520.09 0.344321 1.83497 0
M  V30 25020 C 2520.44 -1.12318 1.6087 0
M  V30 25021 O 2519.57 -1.86571 1.09637 0
M  V30 25022 C 2520.16 0.61817 3.33113 0
M  V30 25023 C 2518.72 0.287615 3.753 0
M  V30 25024 C 2517.87 0.884094 2.62829 0
M  V30 25025 H 2520.82 0.926601 1.2884 0
M  V30 25026 H 2520.84 -0.112282 3.80334 0
M  V30 25027 H 2520.35 1.68631 3.4955 0
M  V30 25028 H 2518.46 -0.774948 3.64452 0
M  V30 25029 H 2518.57 0.765595 4.72943 0
M  V30 25030 H 2516.93 0.311194 2.52792 0
M  V30 25031 H 2517.72 1.95676 2.82074 0
M  V30 25032 N 2520.16 -1.50253 0.475581 0
M  V30 25033 C 2521.11 -2.25526 -0.334985 0
M  V30 25034 C 2522.09 -1.29301 -0.957603 0
M  V30 25035 O 2523.29 -1.54176 -0.869409 0
M  V30 25036 C 2520.42 -3.12836 -1.4138 0
M  V30 25037 C 2519.5 -4.16511 -0.798689 0
M  V30 25038 N 2519.89 -5.05731 0.0836704 0
M  V30 25039 C 2518.19 -4.33168 -1.06213 0
M  V30 25040 C 2518.89 -5.80085 0.433215 0
M  V30 25041 N 2517.87 -5.43258 -0.192704 0
M  V30 25042 H 2521.67 -2.91872 0.344664 0
M  V30 25043 H 2519.18 -1.59789 0.290014 0
M  V30 25044 H 2521.18 -3.65372 -2.00771 0
M  V30 25045 H 2519.84 -2.48039 -2.09539 0
M  V30 25046 H 2520.85 -5.15917 0.452806 0
M  V30 25047 H 2517.53 -3.79588 -1.73837 0
M  V30 25048 H 2518.92 -6.61923 1.15357 0
M  V30 25049 N 2521.64 -0.208365 -1.56217 0
M  V30 25050 C 2522.87 0.431488 -2.02044 0
M  V30 25051 C 2523.28 1.54817 -1.08758 0
M  V30 25052 O 2522.62 1.83494 -0.0870331 0
M  V30 25053 C 2522.68 1.03627 -3.44241 0
M  V30 25054 C 2522.35 0.0566699 -4.56965 0
M  V30 25055 C 2523.34 -0.738864 -5.14623 0
M  V30 25056 C 2521.03 -0.0582619 -5.02266 0
M  V30 25057 C 2523.02 -1.63616 -6.16043 0
M  V30 25058 C 2520.71 -0.959107 -6.03527 0
M  V30 25059 C 2521.71 -1.74661 -6.6029 0
M  V30 25060 O 2521.39 -2.63234 -7.59581 0
M  V30 25061 H 2521.13 0.111302 -0.666774 0
M  V30 25062 H 2523.68 -0.318313 -2.02919 0
M  V30 25063 H 2521.91 1.83491 -3.40394 0
M  V30 25064 H 2523.6 1.58215 -3.73795 0
M  V30 25065 H 2524.37 -0.660448 -4.80482 0
M  V30 25066 H 2520.24 0.544553 -4.57772 0
M  V30 25067 H 2523.79 -2.25128 -6.60275 0
M  V30 25068 H 2519.69 -1.03859 -6.3709 0
M  V30 25069 H 2520.45 -2.57161 -7.77052 0
M  V30 25070 N 2523.12 1.57465 0.0651402 0
M  V30 25071 C 2524.36 1.87574 0.76303 0
M  V30 25072 C 2524.69 0.800993 1.77241 0
M  V30 25073 O 2523.95 -0.202282 1.94652 0
M  V30 25074 C 2524.25 3.24364 1.50075 0
M  V30 25075 C 2523.91 4.46467 0.630738 0
M  V30 25076 C 2522.57 4.79609 0.390998 0
M  V30 25077 C 2524.93 5.21193 0.0278549 0
M  V30 25078 C 2522.25 5.84886 -0.460997 0
M  V30 25079 C 2524.61 6.27372 -0.811632 0
M  V30 25080 C 2523.27 6.59011 -1.06118 0
M  V30 25081 H 2522.54 0.686383 0.279212 0
M  V30 25082 H 2525.19 1.91485 0.0236389 0
M  V30 25083 H 2523.49 3.16275 2.31252 0
M  V30 25084 H 2525.19 3.44897 2.04565 0
M  V30 25085 H 2521.78 4.20531 0.827727 0
M  V30 25086 H 2525.96 4.95896 0.200175 0
M  V30 25087 H 2521.22 6.07794 -0.663014 0
M  V30 25088 H 2525.39 6.84433 -1.28549 0
M  V30 25089 H 2523.02 7.40414 -1.72313 0
M  V30 25090 N 2524.59 -0.336679 1.53962 0
M  V30 25091 C 2525.82 -1.09443 1.75231 0
M  V30 25092 C 2526.23 -1.8262 0.494634 0
M  V30 25093 O 2525.58 -1.75469 -0.543734 0
M  V30 25094 C 2525.64 -2.14775 2.88292 0
M  V30 25095 C 2525.3 -1.61113 4.27658 0
M  V30 25096 C 2526.3 -1.05981 5.08983 0
M  V30 25097 C 2523.98 -1.65752 4.74164 0
M  V30 25098 C 2525.98 -0.562017 6.34917 0
M  V30 25099 C 2523.66 -1.15585 6.0007 0
M  V30 25100 C 2524.66 -0.609028 6.80279 0
M  V30 25101 O 2524.35 -0.114858 8.03818 0
M  V30 25102 H 2524.08 -0.331946 0.588887 0
M  V30 25103 H 2526.64 -0.39253 2.01614 0
M  V30 25104 H 2524.87 -2.88543 2.57448 0
M  V30 25105 H 2526.56 -2.76168 2.97466 0
M  V30 25106 H 2527.32 -1.01714 4.74214 0
M  V30 25107 H 2523.2 -2.07253 4.11785 0
M  V30 25108 H 2526.74 -0.134545 6.9747 0
M  V30 25109 H 2522.64 -1.19555 6.34332 0
M  V30 25110 H 2523.41 -0.231507 8.18173 0
M  V30 25111 N 2526.07 -1.45812 -0.598057 0
M  V30 25112 C 2527.32 -1.51537 -1.35676 0
M  V30 25113 C 2527.67 -0.158674 -1.91745 0
M  V30 25114 O 2526.97 0.830694 -1.72656 0
M  V30 25115 C 2527.16 -2.53771 -2.51665 0
M  V30 25116 C 2526.99 -3.99248 -2.06956 0
M  V30 25117 C 2525.76 -4.6712 -1.92685 0
M  V30 25118 C 2527.96 -4.87503 -1.63846 0
M  V30 25119 N 2525.94 -5.97278 -1.41886 0
M  V30 25120 C 2527.31 -6.07365 -1.24531 0
M  V30 25121 C 2529.37 -4.74283 -1.51524 0
M  V30 25122 C 2528.07 -7.15471 -0.741228 0
M  V30 25123 C 2530.09 -5.82446 -1.0252 0
M  V30 25124 C 2529.46 -7.01471 -0.641745 0
M  V30 25125 H 2525.56 -0.609421 -0.490031 0
M  V30 25126 H 2528.14 -1.8234 -0.682655 0
M  V30 25127 H 2526.31 -2.24904 -3.16659 0
M  V30 25128 H 2528.04 -2.49585 -3.18574 0
M  V30 25129 H 2524.8 -4.22411 -2.14162 0
M  V30 25130 H 2525.22 -6.66514 -1.18692 0
M  V30 25131 H 2529.86 -3.82667 -1.79793 0
M  V30 25132 H 2527.58 -8.06868 -0.446101 0
M  V30 25133 H 2531.17 -5.74254 -0.933987 0
M  V30 25134 H 2530.05 -7.83741 -0.268393 0
M  V30 25135 N 2527.55 0.841385 -1.33261 0
M  V30 25136 C 2528.78 1.63383 -1.27753 0
M  V30 25137 C 2529.2 1.87508 0.149155 0
M  V30 25138 O 2528.56 1.43738 1.10495 0
M  V30 25139 C 2528.61 2.96261 -2.05576 0
M  V30 25140 O 2527.71 3.87451 -1.41264 0
M  V30 25141 H 2527.05 0.49761 -0.439636 0
M  V30 25142 H 2529.58 1.04696 -1.75784 0
M  V30 25143 H 2529.59 3.45979 -2.16247 0
M  V30 25144 H 2528.27 2.78025 -3.09314 0
M  V30 25145 H 2526.84 3.45935 -1.39223 0
M  V30 25146 N 2529.03 1.16688 1.05932 0
M  V30 25147 C 2530.45 0.912565 1.30937 0
M  V30 25148 C 2530.65 -0.432499 1.96804 0
M  V30 25149 O 2529.7 -1.17119 2.23695 0
M  V30 25150 C 2531.01 2.06433 2.18645 0
M  V30 25151 C 2532.56 2.10051 2.32051 0
M  V30 25152 C 2533.04 3.24592 3.23116 0
M  V30 25153 N 2534.53 3.24333 3.307 0
M  V30 25154 C 2535.26 4.09601 4.01266 0
M  V30 25155 N 2534.76 5.04965 4.74323 0
M  V30 25156 N 2536.55 3.97576 3.97354 0
M  V30 25157 H 2528.7 2.03279 0.615741 0
M  V30 25158 H 2530.97 0.88719 0.334062 0
M  V30 25159 H 2530.67 3.03606 1.77529 0
M  V30 25160 H 2530.55 2.00899 3.19248 0
M  V30 25161 H 2532.93 1.13469 2.72413 0
M  V30 25162 H 2533.01 2.19649 1.31103 0
M  V30 25163 H 2532.66 4.21435 2.83469 0
M  V30 25164 H 2532.59 3.1223 4.24052 0
M  V30 25165 H 2535.08 2.55281 2.78639 0
M  V30 25166 H 2535.39 5.66439 5.25706 0
M  V30 25167 H 2533.74 5.08941 4.73291 0
M  V30 25168 H 2536.93 3.22375 3.394 0
M  V30 25169 H 2537.1 4.64249 4.5208 0
M  V30 25170 N 2530.51 -1.24529 0.96594 0
M  V30 25171 C 2531.42 -2.29162 0.502194 0
M  V30 25172 C 2532.43 -1.68449 -0.435987 0
M  V30 25173 O 2533.61 -1.99008 -0.309462 0
M  V30 25174 C 2530.67 -3.46112 -0.201895 0
M  V30 25175 C 2529.74 -4.2223 0.775895 0
M  V30 25176 C 2528.97 -5.33596 0.105311 0
M  V30 25177 O 2529.19 -5.5956 -1.10674 0
M  V30 25178 O 2528.13 -5.96606 0.796579 0
M  V30 25179 H 2531.95 -2.70943 1.37199 0
M  V30 25180 H 2529.54 -1.30188 0.732898 0
M  V30 25181 H 2531.42 -4.17143 -0.59749 0
M  V30 25182 H 2530.09 -3.06311 -1.04668 0
M  V30 25183 H 2529 -3.53582 1.22191 0
M  V30 25184 H 2530.33 -4.65844 1.58904 0
M  V30 25185 N 2531.99 -0.735845 -1.39367 0
M  V30 25186 C 2533.26 -0.210429 -1.94465 0
M  V30 25187 C 2533.64 1.28796 -1.67257 0
M  V30 25188 O 2532.99 2.05394 -1.00127 0
M  V30 25189 C 2533.2 -0.544958 -3.44719 0
M  V30 25190 C 2534.55 -0.494763 -4.21708 0
M  V30 25191 O 2535.57 -0.482199 -3.52921 0
M  V30 25192 O 2534.43 -0.490043 -5.44298 0
M  V30 25193 H 2531.53 -0.0386811 -0.826095 0
M  V30 25194 H 2534.07 -0.814761 -1.48861 0
M  V30 25195 H 2532.84 -1.58051 -3.5796 0
M  V30 25196 H 2532.47 0.0883001 -3.97502 0
M  V30 25197 N 2533.46 1.49999 -0.483543 0
M  V30 25198 C 2534.71 2.01989 0.0669915 0
M  V30 25199 C 2535.03 1.36673 1.39088 0
M  V30 25200 O 2534.3 0.516185 1.88977 0
M  V30 25201 H 2532.88 0.746484 0.0277475 0
M  V30 25202 H 2535.54 1.84203 -0.636805 0
M  V30 25203 H 2534.64 3.11397 0.209429 0
M  V30 25204 N 2534.94 0.216646 1.56104 0
M  V30 25205 C 2536.36 -0.138832 1.58995 0
M  V30 25206 C 2536.56 -1.59344 1.23336 0
M  V30 25207 O 2535.61 -2.3328 0.966275 0
M  V30 25208 C 2536.93 0.183021 3.00143 0
M  V30 25209 C 2538.47 0.124862 3.12751 0
M  V30 25210 C 2538.95 0.420321 4.56067 0
M  V30 25211 N 2540.44 0.369715 4.61722 0
M  V30 25212 C 2541.18 0.571889 5.70541 0
M  V30 25213 N 2540.67 0.835574 6.87743 0
M  V30 25214 N 2542.46 0.504662 5.5983 0
M  V30 25215 H 2534.62 1.16561 1.7756 0
M  V30 25216 H 2536.88 0.466843 0.825083 0
M  V30 25217 H 2536.58 1.19242 3.30869 0
M  V30 25218 H 2536.46 -0.504301 3.73814 0
M  V30 25219 H 2538.85 -0.875174 2.81824 0
M  V30 25220 H 2538.93 0.845586 2.4142 0
M  V30 25221 H 2538.57 1.41777 4.87711 0
M  V30 25222 H 2538.5 -0.321539 5.25617 0
M  V30 25223 H 2540.99 0.173405 3.77502 0
M  V30 25224 H 2541.3 0.978073 7.66586 0
M  V30 25225 H 2539.65 0.872713 6.89499 0
M  V30 25226 H 2542.84 0.298924 4.67145 0
M  V30 25227 H 2543.01 0.665632 6.44572 0
M  V30 25228 N 2536.42 -1.57498 -0.0567885 0
M  V30 25229 C 2537.83 -1.76563 -0.606827 0
M  V30 25230 C 2538.18 -0.844125 -1.77113 0
M  V30 25231 O 2537.31 -0.0319291 -2.16376 0
M  V30 25232 C 2537.9 -3.20184 -1.1076 0
M  V30 25233 C 2536.46 -3.40542 -1.60338 0
M  V30 25234 C 2535.61 -2.72202 -0.529263 0
M  V30 25235 H 2538.56 -1.57793 0.16942 0
M  V30 25236 H 2538.58 -3.2517 -1.97597 0
M  V30 25237 H 2538.09 -3.87228 -0.259992 0
M  V30 25238 H 2536.19 -2.78633 -2.47374 0
M  V30 25239 H 2536.31 -4.49053 -1.66998 0
M  V30 25240 H 2534.67 -2.35181 -0.977852 0
M  V30 25241 H 2535.45 -3.41912 0.308412 0
M  V30 25242 N 2537.9 0.328509 -1.54138 0
M  V30 25243 C 2539.14 1.06861 -1.72361 0
M  V30 25244 C 2539.48 1.87831 -0.493264 0
M  V30 25245 O 2538.75 1.87701 0.509767 0
M  V30 25246 C 2539.03 1.99742 -2.99625 0
M  V30 25247 C 2538.89 1.22135 -4.32901 0
M  V30 25248 C 2540.21 2.9934 -3.2262 0
M  V30 25249 H 2537.33 0.387094 -0.627158 0
M  V30 25250 H 2539.97 0.345734 -1.86828 0
M  V30 25251 H 2538.12 2.61382 -2.87422 0
M  V30 25252 H 2539.79 0.629936 -4.56979 0
M  V30 25253 H 2538.03 0.523553 -4.30629 0
M  V30 25254 H 2538.7 1.90308 -5.18157 0
M  V30 25255 H 2541.18 2.4782 -3.34252 0
M  V30 25256 H 2540.06 3.61517 -4.13033 0
M  V30 25257 H 2540.32 3.71532 -2.39617 0
M  V30 25258 N 2539.38 1.46127 0.590316 0
M  V30 25259 C 2540.79 1.45299 1.1724 0
M  V30 25260 C 2541.14 0.189758 1.9528 0
M  V30 25261 O 2540.26 -0.707638 2.04503 0
M  V30 25262 C 2540.86 2.63244 2.1328 0
M  V30 25263 C 2539.42 2.65481 2.66828 0
M  V30 25264 C 2538.56 2.37853 1.42553 0
M  V30 25265 H 2541.51 1.54116 0.378665 0
M  V30 25266 H 2541.54 2.38328 2.96614 0
M  V30 25267 H 2541.05 3.55168 1.56453 0
M  V30 25268 H 2539.15 1.77609 3.27545 0
M  V30 25269 H 2539.26 3.65221 3.10082 0
M  V30 25270 H 2537.63 1.87756 1.72104 0
M  V30 25271 H 2538.41 3.31944 0.875683 0
M  V30 25272 N 2540.85 -0.834306 1.33705 0
M  V30 25273 C 2542.08 -1.62703 1.28618 0
M  V30 25274 C 2542.5 -1.87584 -0.139209 0
M  V30 25275 O 2541.86 -1.44322 -1.09731 0
M  V30 25276 C 2541.91 -2.95167 2.07144 0
M  V30 25277 O 2541.01 -3.86696 1.43317 0
M  V30 25278 H 2540.35 -0.495272 0.442269 0
M  V30 25279 H 2542.88 -1.03762 1.76336 0
M  V30 25280 H 2542.89 -3.44827 2.18079 0
M  V30 25281 H 2541.57 -2.7638 3.10784 0
M  V30 25282 H 2540.15 -3.45192 1.41056 0
M  V30 25283 N 2542.33 -1.17248 -1.05312 0
M  V30 25284 C 2543.58 -0.958225 -1.77939 0
M  V30 25285 C 2543.9 0.514523 -1.8809 0
M  V30 25286 O 2543.17 1.37357 -1.39678 0
M  V30 25287 H 2541.75 -0.351545 -0.659109 0
M  V30 25288 H 2544.41 -1.47701 -1.27163 0
M  V30 25289 H 2543.51 -1.38551 -2.79661 0
M  V30 25290 N 2543.81 1.24015 -0.972531 0
M  V30 25291 C 2545.04 1.96264 -0.654837 0
M  V30 25292 C 2545.45 1.72085 0.776678 0
M  V30 25293 O 2544.81 1.00751 1.52169 0
M  V30 25294 C 2544.86 3.49439 -0.925981 0
M  V30 25295 O 2544.58 3.72794 -2.30122 0
M  V30 25296 C 2546.08 4.38898 -0.623146 0
M  V30 25297 H 2543.3 0.625096 -0.243918 0
M  V30 25298 H 2545.85 1.57715 -1.30178 0
M  V30 25299 H 2544 3.86033 -0.325176 0
M  V30 25300 H 2544.42 4.67143 -2.38491 0
M  V30 25301 H 2545.89 5.45208 -0.863285 0
M  V30 25302 H 2546.37 4.36963 0.442677 0
M  V30 25303 H 2546.97 4.079 -1.20407 0
M  V30 25304 N 2545.29 0.743226 1.38974 0
M  V30 25305 C 2546.22 0.0689631 2.29096 0
M  V30 25306 C 2547.23 -0.694765 1.47231 0
M  V30 25307 O 2548.42 -0.537567 1.70213 0
M  V30 25308 C 2545.52 -0.92649 3.2599 0
M  V30 25309 C 2544.7 -0.22257 4.36833 0
M  V30 25310 C 2543.75 -1.1273 5.13983 0
M  V30 25311 O 2542.78 -0.601695 5.66011 0
M  V30 25312 N 2543.98 -2.45632 5.25971 0
M  V30 25313 H 2546.75 0.842897 2.87603 0
M  V30 25314 H 2544.31 0.593136 1.50644 0
M  V30 25315 H 2546.3 -1.53453 3.74479 0
M  V30 25316 H 2544.87 -1.60157 2.68456 0
M  V30 25317 H 2544.09 0.566052 3.90115 0
M  V30 25318 H 2545.38 0.26493 5.0811 0
M  V30 25319 H 2544.78 -2.90802 4.85233 0
M  V30 25320 H 2543.33 -3.01512 5.7787 0
M  V30 25321 N 2546.77 -1.4974 0.491491 0
M  V30 25322 C 2547.7 -2.26833 -0.328569 0
M  V30 25323 C 2548.71 -1.32985 -0.93909 0
M  V30 25324 O 2549.9 -1.58341 -0.824039 0
M  V30 25325 C 2547 -3.05036 -1.47669 0
M  V30 25326 C 2546.17 -4.2639 -0.97523 0
M  V30 25327 C 2545.23 -4.86717 -1.99982 0
M  V30 25328 O 2544.26 -5.47056 -1.5722 0
M  V30 25329 N 2545.46 -4.75523 -3.32954 0
M  V30 25330 H 2548.23 -2.97851 0.33243 0
M  V30 25331 H 2545.79 -1.58636 0.323469 0
M  V30 25332 H 2547.78 -3.4227 -2.15948 0
M  V30 25333 H 2546.35 -2.36686 -2.04202 0
M  V30 25334 H 2545.57 -3.94024 -0.117653 0
M  V30 25335 H 2546.86 -5.05027 -0.618442 0
M  V30 25336 H 2546.25 -4.27582 -3.70392 0
M  V30 25337 H 2544.81 -5.16968 -3.96973 0
M  V30 25338 N 2548.24 -0.224922 -1.55987 0
M  V30 25339 C 2549.66 0.130398 -1.59066 0
M  V30 25340 C 2549.86 1.58688 -1.24179 0
M  V30 25341 O 2548.92 2.32764 -0.978633 0
M  V30 25342 C 2550.23 -0.198935 -3.00041 0
M  V30 25343 C 2551.78 -0.141446 -3.1268 0
M  V30 25344 C 2552.25 -0.444502 -4.55838 0
M  V30 25345 N 2553.74 -0.394196 -4.6152 0
M  V30 25346 C 2554.48 -0.602138 -5.7023 0
M  V30 25347 N 2553.97 -0.872035 -6.8729 0
M  V30 25348 N 2555.77 -0.534344 -5.59554 0
M  V30 25349 H 2547.92 -1.17501 -1.76939 0
M  V30 25350 H 2550.18 -0.471212 -0.822596 0
M  V30 25351 H 2549.89 -1.20995 -3.30232 0
M  V30 25352 H 2549.76 0.48447 -3.74076 0
M  V30 25353 H 2552.15 0.860215 -2.82284 0
M  V30 25354 H 2552.23 -0.858377 -2.40968 0
M  V30 25355 H 2551.87 -1.44362 -4.86952 0
M  V30 25356 H 2551.8 0.29366 -5.25781 0
M  V30 25357 H 2554.29 -0.193422 -3.77405 0
M  V30 25358 H 2554.61 -1.01871 -7.66056 0
M  V30 25359 H 2552.95 -0.909266 -6.89026 0
M  V30 25360 H 2556.14 -0.323694 -4.66979 0
M  V30 25361 H 2556.32 -0.699806 -6.4421 0
M  V30 25362 N 2549.72 1.57526 0.0484352 0
M  V30 25363 C 2550.67 2.01734 1.06243 0
M  V30 25364 C 2551.66 0.903268 1.33154 0
M  V30 25365 O 2552.85 1.16719 1.33063 0
M  V30 25366 C 2549.98 2.48425 2.36939 0
M  V30 25367 C 2549.06 3.66614 2.13202 0
M  V30 25368 N 2549.45 4.80006 1.59462 0
M  V30 25369 C 2547.75 3.73614 2.43574 0
M  V30 25370 C 2548.45 5.61738 1.51082 0
M  V30 25371 N 2547.43 5.06273 1.97961 0
M  V30 25372 H 2551.23 2.86833 0.640625 0
M  V30 25373 H 2548.75 1.60384 0.255105 0
M  V30 25374 H 2550.74 2.78347 3.10369 0
M  V30 25375 H 2549.4 1.64723 2.79815 0
M  V30 25376 H 2550.41 5.01833 1.27999 0
M  V30 25377 H 2547.09 3.00674 2.89657 0
M  V30 25378 H 2548.48 6.62803 1.10187 0
M  V30 25379 N 2551.2 -0.32033 1.5431 0
M  V30 25380 C 2552.13 -1.41553 1.80265 0
M  V30 25381 C 2553.15 -1.47699 0.684749 0
M  V30 25382 O 2554.33 -1.50365 0.961913 0
M  V30 25383 C 2551.43 -2.80066 1.9083 0
M  V30 25384 C 2550.61 -2.97085 3.21028 0
M  V30 25385 C 2549.67 -4.15979 3.22254 0
M  V30 25386 O 2548.69 -4.08985 3.95878 0
M  V30 25387 N 2549.89 -5.25674 2.46267 0
M  V30 25388 H 2552.66 -1.19651 2.7478 0
M  V30 25389 H 2550.22 -0.510331 1.53646 0
M  V30 25390 H 2552.21 -3.57817 1.89074 0
M  V30 25391 H 2550.78 -2.95005 1.03397 0
M  V30 25392 H 2550 -2.06608 3.35718 0
M  V30 25393 H 2551.29 -3.05353 4.06985 0
M  V30 25394 H 2550.69 -5.34232 1.86046 0
M  V30 25395 H 2549.25 -6.01831 2.50285 0
M  V30 25396 N 2552.68 -1.46438 -0.582558 0
M  V30 25397 C 2553.93 -1.51456 -1.33812 0
M  V30 25398 C 2554.25 -0.167826 -1.94276 0
M  V30 25399 O 2553.52 0.805646 -1.78567 0
M  V30 25400 H 2552.1 -0.557827 -0.496828 0
M  V30 25401 H 2554.76 -1.82569 -0.682249 0
M  V30 25402 H 2553.86 -2.26731 -2.14475 0
M  V30 25403 N 2554.16 0.827204 -1.34146 0
M  V30 25404 C 2555.38 1.62019 -1.29479 0
M  V30 25405 C 2555.81 1.87655 0.129259 0
M  V30 25406 O 2555.16 1.44902 1.08964 0
M  V30 25407 C 2555.21 2.94064 -2.08707 0
M  V30 25408 O 2554.32 3.85931 -1.45366 0
M  V30 25409 H 2553.66 0.492919 -0.444889 0
M  V30 25410 H 2556.19 1.02826 -1.76884 0
M  V30 25411 H 2556.2 3.43666 -2.19904 0
M  V30 25412 H 2554.87 2.74728 -3.12245 0
M  V30 25413 H 2553.45 3.44439 -1.42885 0
M  V30 25414 N 2555.63 1.17805 1.04688 0
M  V30 25415 C 2556.54 0.914189 2.16055 0
M  V30 25416 C 2557.56 -0.119472 1.73589 0
M  V30 25417 O 2558.74 0.0609822 2.01308 0
M  V30 25418 C 2555.8 0.436663 3.43939 0
M  V30 25419 C 2554.86 1.53753 4.00822 0
M  V30 25420 C 2554.1 1.0827 5.22603 0
M  V30 25421 O 2554.32 -0.0611242 5.70367 0
M  V30 25422 O 2553.25 1.87785 5.71857 0
M  V30 25423 H 2557.08 1.84588 2.41166 0
M  V30 25424 H 2554.66 0.959354 1.14528 0
M  V30 25425 H 2556.55 0.178131 4.21023 0
M  V30 25426 H 2555.22 -0.466813 3.20316 0
M  V30 25427 H 2554.13 1.85 3.25155 0
M  V30 25428 H 2555.46 2.4169 4.28774 0
M  V30 25429 N 2557.11 -1.23497 0.979094 0
M  V30 25430 C 2558.04 -2.27226 0.537646 0
M  V30 25431 C 2559.02 -1.64614 -0.42851 0
M  V30 25432 O 2560.21 -1.91509 -0.322157 0
M  V30 25433 C 2557.34 -3.46922 -0.161991 0
M  V30 25434 C 2556.29 -4.21878 0.721317 0
M  V30 25435 C 2555.62 -5.34586 -0.110461 0
M  V30 25436 C 2556.92 -4.82013 2.01149 0
M  V30 25437 H 2558.61 -2.64404 1.40467 0
M  V30 25438 H 2556.16 -1.27101 0.676863 0
M  V30 25439 H 2558.11 -4.18633 -0.482119 0
M  V30 25440 H 2556.84 -3.08801 -1.06345 0
M  V30 25441 H 2555.49 -3.51983 1.02488 0
M  V30 25442 H 2555.14 -4.92706 -1.01242 0
M  V30 25443 H 2554.84 -5.85657 0.477428 0
M  V30 25444 H 2556.37 -6.09119 -0.424999 0
M  V30 25445 H 2557.78 -5.45738 1.75622 0
M  V30 25446 H 2556.18 -5.43365 2.54705 0
M  V30 25447 H 2557.25 -4.02831 2.69916 0
M  V30 25448 N 2558.59 -0.750586 -1.38578 0
M  V30 25449 C 2559.54 -0.0966349 -2.27795 0
M  V30 25450 C 2560.53 0.696386 -1.45049 0
M  V30 25451 O 2561.72 0.562834 -1.67813 0
M  V30 25452 C 2558.85 0.798026 -3.33896 0
M  V30 25453 C 2557.93 -0.00168124 -4.241 0
M  V30 25454 N 2558.32 -1.03656 -4.95065 0
M  V30 25455 C 2556.62 0.225596 -4.45429 0
M  V30 25456 C 2557.32 -1.52014 -5.61486 0
M  V30 25457 N 2556.3 -0.835968 -5.37134 0
M  V30 25458 H 2560.1 -0.889277 -2.80123 0
M  V30 25459 H 2557.61 -0.586349 -1.51445 0
M  V30 25460 H 2559.61 1.28212 -3.96695 0
M  V30 25461 H 2558.27 1.58965 -2.83126 0
M  V30 25462 H 2559.28 -1.41828 -4.98102 0
M  V30 25463 H 2555.96 0.990801 -4.05573 0
M  V30 25464 H 2557.35 -2.38199 -6.2826 0
M  V30 25465 N 2560.07 1.49477 -0.499425 0
M  V30 25466 C 2561.32 2.02449 0.0456543 0
M  V30 25467 C 2561.64 1.37924 1.3714 0
M  V30 25468 O 2560.9 0.503578 1.8911 0
M  V30 25469 C 2561.2 3.56536 0.248362 0
M  V30 25470 C 2560.86 4.3969 -0.999185 0
M  V30 25471 C 2559.53 4.62132 -1.34116 0
M  V30 25472 C 2561.88 4.88073 -1.8285 0
M  V30 25473 C 2559.21 5.30203 -2.512 0
M  V30 25474 C 2561.56 5.57432 -2.99086 0
M  V30 25475 C 2560.22 5.78121 -3.33666 0
M  V30 25476 H 2559.49 0.740812 0.0167061 0
M  V30 25477 H 2562.14 1.79794 -0.659262 0
M  V30 25478 H 2560.44 3.77861 1.03579 0
M  V30 25479 H 2562.14 3.95114 0.684535 0
M  V30 25480 H 2558.73 4.22461 -0.722804 0
M  V30 25481 H 2562.92 4.70564 -1.57745 0
M  V30 25482 H 2558.17 5.44424 -2.78231 0
M  V30 25483 H 2562.35 5.93897 -3.63674 0
M  V30 25484 H 2559.97 6.30642 -4.24494 0
M  V30 25485 N 2561.55 0.233191 1.55865 0
M  V30 25486 C 2562.96 -0.272521 1.847 0
M  V30 25487 C 2563.31 -1.58615 1.1548 0
M  V30 25488 O 2562.43 -2.12116 0.428447 0
M  V30 25489 C 2563.03 -0.50124 3.35072 0
M  V30 25490 C 2561.59 -0.95124 3.64182 0
M  V30 25491 C 2560.74 -0.0207721 2.77292 0
M  V30 25492 H 2563.69 0.456101 1.52005 0
M  V30 25493 H 2563.71 -1.34571 3.55909 0
M  V30 25494 H 2563.22 0.455004 3.85424 0
M  V30 25495 H 2561.32 -1.92043 3.19296 0
M  V30 25496 H 2561.43 -0.817592 4.72072 0
M  V30 25497 H 2559.8 -0.529679 2.49131 0
M  V30 25498 H 2560.58 0.930599 3.30446 0
M  V30 25499 N 2563.03 -1.57549 -0.0400806 0
M  V30 25500 C 2564.25 -1.93407 -0.748897 0
M  V30 25501 C 2564.68 -0.832304 -1.68684 0
M  V30 25502 O 2564.03 0.212787 -1.80047 0
M  V30 25503 C 2564.08 -3.28307 -1.49154 0
M  V30 25504 O 2563.19 -3.19778 -2.60414 0
M  V30 25505 H 2562.53 -0.632464 -0.202201 0
M  V30 25506 H 2565.06 -2.046 0.00115682 0
M  V30 25507 H 2565.07 -3.62937 -1.86389 0
M  V30 25508 H 2563.74 -4.08063 -0.803568 0
M  V30 25509 H 2562.32 -2.96762 -2.25803 0
M  V30 25510 N 2564.5 0.312142 -1.54478 0
M  V30 25511 C 2565.75 1.05027 -1.73485 0
M  V30 25512 C 2566.08 1.87297 -0.513158 0
M  V30 25513 O 2565.36 1.88231 0.48983 0
M  V30 25514 C 2565.64 1.96553 -3.01727 0
M  V30 25515 C 2565.49 1.17537 -4.34172 0
M  V30 25516 C 2566.81 2.95901 -3.25777 0
M  V30 25517 H 2563.93 0.380421 -0.631228 0
M  V30 25518 H 2566.57 0.325899 -1.87184 0
M  V30 25519 H 2564.72 2.58319 -2.90178 0
M  V30 25520 H 2566.4 0.581432 -4.57621 0
M  V30 25521 H 2564.64 0.477849 -4.3116 0
M  V30 25522 H 2565.31 1.84802 -5.20146 0
M  V30 25523 H 2567.79 2.44261 -3.36862 0
M  V30 25524 H 2566.66 3.57116 -4.16845 0
M  V30 25525 H 2566.92 3.6897 -2.43544 0
M  V30 25526 N 2565.98 1.46745 0.574784 0
M  V30 25527 C 2566.91 1.53949 1.69801 0
M  V30 25528 C 2567.93 0.427134 1.57097 0
M  V30 25529 O 2569.12 0.695892 1.64376 0
M  V30 25530 C 2566.22 1.41116 3.08123 0
M  V30 25531 C 2565.39 2.66611 3.46753 0
M  V30 25532 C 2564.45 2.47864 4.64166 0
M  V30 25533 O 2563.47 3.21617 4.69629 0
M  V30 25534 N 2564.68 1.54544 5.5955 0
M  V30 25535 H 2567.44 2.50799 1.64073 0
M  V30 25536 H 2565 1.42901 0.760975 0
M  V30 25537 H 2566.99 1.26334 3.84476 0
M  V30 25538 H 2565.56 0.524163 3.08174 0
M  V30 25539 H 2564.78 2.96278 2.60025 0
M  V30 25540 H 2566.07 3.4996 3.69331 0
M  V30 25541 H 2565.47 0.937402 5.57879 0
M  V30 25542 H 2564.03 1.45722 6.35302 0
M  V30 25543 N 2567.46 -0.820078 1.34583 0
M  V30 25544 C 2568.87 -1.39307 1.243 0
M  V30 25545 C 2569.22 -1.95767 -0.130317 0
M  V30 25546 O 2568.35 -1.90274 -1.03077 0
M  V30 25547 C 2568.94 -2.53247 2.25058 0
M  V30 25548 C 2567.5 -3.06446 2.18558 0
M  V30 25549 C 2566.65 -1.79333 2.11506 0
M  V30 25550 H 2569.6 -0.624236 1.45907 0
M  V30 25551 H 2569.62 -3.31421 1.86923 0
M  V30 25552 H 2569.13 -2.12125 3.25 0
M  V30 25553 H 2567.23 -3.52067 1.21982 0
M  V30 25554 H 2567.35 -3.65344 3.09937 0
M  V30 25555 H 2565.71 -2.00344 1.57271 0
M  V30 25556 H 2566.49 -1.40381 3.13286 0
M  V30 25557 N 2568.94 -1.18359 -1.04062 0
M  V30 25558 C 2570.16 -1.00448 -1.81452 0
M  V30 25559 C 2570.59 0.44239 -1.82824 0
M  V30 25560 O 2569.95 1.31739 -1.24557 0
M  V30 25561 C 2569.99 -1.5639 -3.24923 0
M  V30 25562 O 2569.1 -0.78528 -4.04854 0
M  V30 25563 H 2568.44 -0.355845 -0.560598 0
M  V30 25564 H 2570.97 -1.57116 -1.31056 0
M  V30 25565 H 2570.98 -1.59103 -3.757 0
M  V30 25566 H 2569.65 -2.61705 -3.23239 0
M  V30 25567 H 2568.23 -0.830462 -3.63535 0
M  V30 25568 N 2570.42 1.22976 -0.98563 0
M  V30 25569 C 2571.69 1.87 -0.573632 0
M  V30 25570 C 2572.07 1.88557 0.949179 0
M  V30 25571 O 2571.42 1.37089 1.82808 0
M  V30 25572 C 2571.63 3.28241 -1.1857 0
M  V30 25573 C 2572.98 4.04793 -1.2817 0
M  V30 25574 O 2574 3.3748 -1.13955 0
M  V30 25575 O 2572.86 5.25271 -1.50841 0
M  V30 25576 H 2569.96 0.803952 -0.193883 0
M  V30 25577 H 2572.5 1.30811 -1.08105 0
M  V30 25578 H 2571.27 3.21702 -2.22764 0
M  V30 25579 H 2570.9 3.92026 -0.663432 0
M  V30 25580 N 2571.89 0.757924 1.38178 0
M  V30 25581 C 2572.86 0.141326 2.28764 0
M  V30 25582 C 2573.86 -0.642881 1.4739 0
M  V30 25583 O 2575.05 -0.468507 1.67782 0
M  V30 25584 C 2572.18 -0.808011 3.31186 0
M  V30 25585 H 2573.37 0.939683 2.84798 0
M  V30 25586 H 2570.92 0.525216 1.47211 0
M  V30 25587 H 2571.66 -1.63188 2.8025 0
M  V30 25588 H 2571.44 -0.248035 3.91315 0
M  V30 25589 H 2572.93 -1.23529 3.98911 0
M  V30 25590 N 2573.37 -1.4921 0.507345 0
M  V30 25591 C 2574.62 -2.0207 -0.0348484 0
M  V30 25592 C 2574.94 -1.38869 -1.36896 0
M  V30 25593 O 2574.21 -0.546184 -1.88132 0
M  V30 25594 H 2572.79 -0.746831 -0.0158681 0
M  V30 25595 H 2575.45 -1.83167 0.66603 0
M  V30 25596 H 2574.55 -3.1169 -0.159862 0
M  V30 25597 N 2574.85 -0.241454 -1.55739 0
M  V30 25598 C 2576.1 0.385371 -1.99105 0
M  V30 25599 C 2576.43 1.57986 -1.12933 0
M  V30 25600 O 2575.7 1.93555 -0.191483 0
M  V30 25601 C 2575.99 0.800554 -3.51089 0
M  V30 25602 C 2575.84 -0.398953 -4.48027 0
M  V30 25603 C 2577.16 1.64952 -4.08018 0
M  V30 25604 H 2574.28 0.138601 -0.72385 0
M  V30 25605 H 2576.92 -0.341675 -1.86903 0
M  V30 25606 H 2575.07 1.42003 -3.61618 0
M  V30 25607 H 2576.74 -1.03734 -4.49485 0
M  V30 25608 H 2574.99 -1.043 -4.21075 0
M  V30 25609 H 2575.66 -0.0652026 -5.51961 0
M  V30 25610 H 2578.13 1.12665 -4.00557 0
M  V30 25611 H 2577.01 1.90889 -5.14638 0
M  V30 25612 H 2577.27 2.61955 -3.56135 0
M  V30 25613 N 2576.33 1.57568 0.0317248 0
M  V30 25614 C 2577.56 1.93127 0.73385 0
M  V30 25615 C 2577.97 0.839382 1.69561 0
M  V30 25616 O 2577.31 -0.193143 1.82682 0
M  V30 25617 C 2577.37 3.24468 1.54792 0
M  V30 25618 C 2577.04 4.50783 0.751225 0
M  V30 25619 C 2578.03 5.19873 0.0526719 0
M  V30 25620 C 2575.72 4.97306 0.706552 0
M  V30 25621 C 2577.71 6.33764 -0.679885 0
M  V30 25622 C 2575.4 6.11093 -0.0297524 0
M  V30 25623 C 2576.4 6.79176 -0.721733 0
M  V30 25624 O 2576.08 7.90787 -1.44609 0
M  V30 25625 H 2575.82 0.642079 0.211448 0
M  V30 25626 H 2578.37 2.05399 -0.00589225 0
M  V30 25627 H 2576.6 3.08516 2.33142 0
M  V30 25628 H 2578.29 3.45374 2.13241 0
M  V30 25629 H 2579.06 4.84937 0.0782335 0
M  V30 25630 H 2574.93 4.44159 1.23466 0
M  V30 25631 H 2578.48 6.86839 -1.22055 0
M  V30 25632 H 2574.38 6.45475 -0.0572465 0
M  V30 25633 H 2575.14 8.07131 -1.35949 0
M  V30 25634 N 2577.81 -0.303946 1.54641 0
M  V30 25635 C 2579.06 -1.03714 1.72992 0
M  V30 25636 C 2579.37 -1.88528 0.521201 0
M  V30 25637 O 2580.57 -2.6509 0.586454 0
M  V30 25638 C 2579.03 -1.89364 3.06054 0
M  V30 25639 C 2578.64 -1.09567 4.34395 0
M  V30 25640 C 2580.38 -2.62301 3.33764 0
M  V30 25641 C 2578.29 -1.94476 5.5851 0
M  V30 25642 H 2577.22 -0.390936 0.644737 0
M  V30 25643 H 2579.87 -0.294296 1.81125 0
M  V30 25644 H 2578.25 -2.67624 2.91879 0
M  V30 25645 H 2579.43 -0.359404 4.59396 0
M  V30 25646 H 2577.74 -0.482252 4.13598 0
M  V30 25647 H 2580.34 -3.26173 4.23692 0
M  V30 25648 H 2580.68 -3.30976 2.52509 0
M  V30 25649 H 2581.21 -1.91091 3.48897 0
M  V30 25650 H 2577.95 -1.30276 6.42424 0
M  V30 25651 H 2577.47 -2.65783 5.37698 0
M  V30 25652 H 2579.15 -2.52594 5.95655 0
M  V30 25653 N 2579.28 -1.47047 -0.566994 0
M  V30 25654 C 2580.52 -1.5474 -1.33547 0
M  V30 25655 C 2580.89 -0.200805 -1.90947 0
M  V30 25656 O 2582.09 -0.152536 -2.68367 0
M  V30 25657 C 2580.36 -2.62716 -2.42312 0
M  V30 25658 S 2581.92 -2.89924 -3.29377 0
M  V30 25659 H 2578.74 -0.546533 -0.454778 0
M  V30 25660 H 2581.34 -1.84372 -0.650158 0
M  V30 25661 H 2580.04 -3.59168 -1.98561 0
M  V30 25662 H 2579.57 -2.34867 -3.15597 0
M  V30 25663 H 2581.59 -2.26392 -4.41544 0
M  V30 25664 N 2580.76 0.812929 -1.35016 0
M  V30 25665 C 2581.99 1.60118 -1.31034 0
M  V30 25666 C 2582.41 1.88458 0.113525 0
M  V30 25667 O 2581.76 1.48303 1.0636 0
M  V30 25668 C 2581.81 2.93621 -2.10877 0
M  V30 25669 O 2581.53 2.66512 -3.47711 0
M  V30 25670 C 2583.04 3.88 -2.14407 0
M  V30 25671 H 2580.26 0.497393 -0.450379 0
M  V30 25672 H 2582.8 1.01072 -1.77777 0
M  V30 25673 H 2580.95 3.49197 -1.6775 0
M  V30 25674 H 2581.37 3.51708 -3.89103 0
M  V30 25675 H 2582.84 4.78807 -2.74677 0
M  V30 25676 H 2583.32 4.24117 -1.14112 0
M  V30 25677 H 2583.93 3.3836 -2.57668 0
M  V30 25678 N 2582.24 1.18909 1.03433 0
M  V30 25679 C 2583.48 0.999422 1.783 0
M  V30 25680 C 2583.84 -0.462186 1.86354 0
M  V30 25681 O 2585.05 -0.771497 2.5749 0
M  V30 25682 C 2583.32 1.64371 3.17359 0
M  V30 25683 S 2584.88 1.60267 4.08485 0
M  V30 25684 H 2581.69 0.358753 0.613854 0
M  V30 25685 H 2584.3 1.51163 1.23976 0
M  V30 25686 H 2583 2.6996 3.09111 0
M  V30 25687 H 2582.53 1.13206 3.7676 0
M  V30 25688 H 2584.55 0.623019 4.92273 0
M  V30 25689 N 2583.72 -1.22452 0.992137 0
M  V30 25690 C 2585.13 -1.43296 0.702739 0
M  V30 25691 C 2585.33 -1.87933 -0.726876 0
M  V30 25692 O 2584.39 -2.03273 -1.49788 0
M  V30 25693 C 2585.7 -2.47506 1.70766 0
M  V30 25694 C 2587.25 -2.61306 1.72302 0
M  V30 25695 C 2587.73 -3.68737 2.71656 0
M  V30 25696 N 2589.22 -3.76194 2.70245 0
M  V30 25697 C 2589.95 -4.58911 3.43786 0
M  V30 25698 N 2589.45 -5.45626 4.26924 0
M  V30 25699 N 2591.24 -4.53214 3.32495 0
M  V30 25700 H 2583.39 -0.917837 1.91545 0
M  V30 25701 H 2585.66 -0.465148 0.82604 0
M  V30 25702 H 2585.36 -2.21652 2.73063 0
M  V30 25703 H 2585.24 -3.46096 1.49991 0
M  V30 25704 H 2587.62 -2.86505 0.707039 0
M  V30 25705 H 2587.7 -1.62994 1.97146 0
M  V30 25706 H 2587.35 -3.44286 3.73403 0
M  V30 25707 H 2587.28 -4.66617 2.44082 0
M  V30 25708 H 2589.77 -3.14234 2.09918 0
M  V30 25709 H 2590.08 -6.05763 4.79866 0
M  V30 25710 H 2588.43 -5.4521 4.31011 0
M  V30 25711 H 2591.62 -3.84494 2.66987 0
M  V30 25712 H 2591.79 -5.17448 3.90067 0
M  V30 25713 N 2585.2 -0.765242 -1.37774 0
M  V30 25714 C 2586.14 -0.134839 -2.32209 0
M  V30 25715 C 2587.14 0.692288 -1.54608 0
M  V30 25716 O 2588.34 0.590079 -1.70053 0
M  V30 25717 H 2584.72 -0.0248137 -0.75159 0
M  V30 25718 H 2586.69 -0.947168 -2.82969 0
M  V30 25719 C 2585.44 0.735004 -3.39843 0
M  V30 25720 H 2584.76 0.107921 -3.99654 0
M  V30 25721 H 2586.2 1.14318 -4.08298 0
M  V30 25722 C 2584.66 1.88276 -2.79381 0
M  V30 25723 O 2585.19 2.97778 -2.69613 0
M  V30 25724 N 2583.4 1.68138 -2.37019 0
M  V30 25725 H 2582.94 0.790729 -2.45164 0
M  V30 25726 H 2582.9 2.451 -1.96909 0
M  V30 25727 N 2586.67 1.48939 -0.515251 0
M  V30 25728 C 2587.6 2.32215 0.244587 0
M  V30 25729 C 2588.59 1.41159 0.949111 0
M  V30 25730 O 2589.77 1.70058 0.937753 0
M  V30 25731 C 2586.9 3.22015 1.30091 0
M  V30 25732 C 2585.85 4.21978 0.715412 0
M  V30 25733 C 2585.18 5.00811 1.8733 0
M  V30 25734 C 2586.48 5.2142 -0.303073 0
M  V30 25735 H 2588.17 2.95991 -0.450553 0
M  V30 25736 H 2585.72 1.42338 -0.218123 0
M  V30 25737 H 2587.67 3.79092 1.84031 0
M  V30 25738 H 2586.4 2.56211 2.02543 0
M  V30 25739 H 2585.06 3.66067 0.197651 0
M  V30 25740 H 2584.7 4.31443 2.58585 0
M  V30 25741 H 2584.4 5.68459 1.48754 0
M  V30 25742 H 2585.93 5.60736 2.41677 0
M  V30 25743 H 2587.34 5.73107 0.148701 0
M  V30 25744 H 2585.74 5.97038 -0.605425 0
M  V30 25745 H 2586.81 4.69456 -1.21403 0
M  V30 25746 N 2588.15 0.249709 1.55609 0
M  V30 25747 C 2589.1 -0.662635 2.18159 0
M  V30 25748 C 2590.09 -1.13715 1.13832 0
M  V30 25749 O 2591.28 -1.08645 1.39733 0
M  V30 25750 C 2588.41 -1.858 2.88675 0
M  V30 25751 C 2587.49 -1.40185 4.00261 0
M  V30 25752 N 2587.89 -0.660125 5.01474 0
M  V30 25753 C 2586.18 -1.68691 4.12867 0
M  V30 25754 C 2586.88 -0.423593 5.80156 0
M  V30 25755 N 2585.86 -0.988627 5.34534 0
M  V30 25756 H 2589.66 -0.0878171 2.93769 0
M  V30 25757 H 2587.18 0.0521468 1.62316 0
M  V30 25758 H 2589.17 -2.52264 3.31917 0
M  V30 25759 H 2587.83 -2.43702 2.14569 0
M  V30 25760 H 2588.84 -0.309956 5.16972 0
M  V30 25761 H 2585.52 -2.27711 3.49934 0
M  V30 25762 H 2586.91 0.168734 6.71688 0
M  V30 25763 N 2589.63 -1.57583 -0.0233682 0
M  V30 25764 C 2590.56 -2.03739 -1.04991 0
M  V30 25765 C 2591.58 -0.951176 -1.32123 0
M  V30 25766 O 2592.77 -1.22839 -1.2951 0
M  V30 25767 C 2589.87 -2.40254 -2.39022 0
M  V30 25768 C 2589.04 -3.71324 -2.31164 0
M  V30 25769 C 2588.1 -3.94965 -3.47691 0
M  V30 25770 O 2587.12 -4.65947 -3.26928 0
M  V30 25771 N 2588.33 -3.41045 -4.69754 0
M  V30 25772 H 2591.09 -2.92422 -0.656456 0
M  V30 25773 H 2588.65 -1.60516 -0.211207 0
M  V30 25774 H 2590.64 -2.53202 -3.15707 0
M  V30 25775 H 2589.21 -1.57211 -2.70191 0
M  V30 25776 H 2588.43 -3.68676 -1.39541 0
M  V30 25777 H 2589.72 -4.57297 -2.23063 0
M  V30 25778 H 2589.12 -2.83521 -4.89523 0
M  V30 25779 H 2587.68 -3.59363 -5.43785 0
M  V30 25780 N 2591.11 0.29574 -1.548 0
M  V30 25781 C 2592.33 1.05343 -1.78655 0
M  V30 25782 C 2592.76 1.79973 -0.546926 0
M  V30 25783 O 2592.12 1.7419 0.502732 0
M  V30 25784 C 2592.17 2.00555 -2.99683 0
M  V30 25785 O 2591.27 3.08948 -2.73176 0
M  V30 25786 H 2590.61 0.302356 -0.591166 0
M  V30 25787 H 2593.14 0.331562 -2.01896 0
M  V30 25788 H 2593.15 2.42926 -3.27797 0
M  V30 25789 H 2591.83 1.45643 -3.89565 0
M  V30 25790 H 2590.4 2.71055 -2.56093 0
M  V30 25791 N 2592.59 1.47346 0.559187 0
M  V30 25792 C 2593.54 1.60088 1.68744 0
M  V30 25793 C 2594.53 0.468278 1.62799 0
M  V30 25794 O 2595.74 0.646006 1.68008 0
M  V30 25795 H 2592.11 0.503769 0.55832 0
M  V30 25796 H 2594.08 2.54904 1.55133 0
M  V30 25797 C 2592.83 1.63048 3.07101 0
M  V30 25798 H 2592.15 2.49547 3.12356 0
M  V30 25799 H 2593.59 1.76013 3.8574 0
M  V30 25800 C 2592.05 0.363416 3.34934 0
M  V30 25801 O 2592.58 -0.536346 3.98103 0
M  V30 25802 N 2590.79 0.244051 2.89573 0
M  V30 25803 H 2590.34 0.977175 2.38346 0
M  V30 25804 H 2590.29 -0.602782 3.08567 0
M  V30 25805 N 2594.07 -0.805758 1.35445 0
M  V30 25806 C 2595.29 -1.59421 1.31881 0
M  V30 25807 C 2595.71 -1.88516 -0.103529 0
M  V30 25808 O 2595.07 -1.48865 -1.05572 0
M  V30 25809 C 2595.12 -2.92498 2.12431 0
M  V30 25810 O 2594.84 -2.64664 3.4912 0
M  V30 25811 C 2596.34 -3.86858 2.16462 0
M  V30 25812 H 2593.56 -0.494998 0.45301 0
M  V30 25813 H 2596.1 -1.00128 1.7831 0
M  V30 25814 H 2594.26 -3.48303 1.69599 0
M  V30 25815 H 2594.67 -3.4964 3.90963 0
M  V30 25816 H 2596.15 -4.77344 2.77213 0
M  V30 25817 H 2596.62 -4.23506 1.1636 0
M  V30 25818 H 2597.23 -3.36988 2.59459 0
M  V30 25819 N 2595.54 -1.19456 -1.02801 0
M  V30 25820 C 2596.77 -1.02367 -1.80377 0
M  V30 25821 C 2597.19 0.422975 -1.83283 0
M  V30 25822 O 2596.55 1.30411 -1.25947 0
M  V30 25823 C 2596.6 -1.59827 -3.23246 0
M  V30 25824 O 2595.7 -0.828176 -4.03999 0
M  V30 25825 H 2595.04 -0.361771 -0.556792 0
M  V30 25826 H 2597.57 -1.58498 -1.29382 0
M  V30 25827 H 2597.58 -1.63079 -3.73991 0
M  V30 25828 H 2596.26 -2.65118 -3.20445 0
M  V30 25829 H 2594.84 -0.868973 -3.62634 0
M  V30 25830 N 2597.02 1.21924 -0.998617 0
M  V30 25831 C 2598.44 1.42921 -0.710328 0
M  V30 25832 C 2598.64 1.88316 0.7169 0
M  V30 25833 O 2597.69 2.04064 1.48708 0
M  V30 25834 C 2599.01 2.46597 -1.72076 0
M  V30 25835 C 2600.55 2.60389 -1.73686 0
M  V30 25836 C 2601.03 3.67291 -2.73607 0
M  V30 25837 N 2602.52 3.74755 -2.72236 0
M  V30 25838 C 2603.26 4.57081 -3.46214 0
M  V30 25839 N 2602.75 5.43354 -4.29812 0
M  V30 25840 N 2604.54 4.51445 -3.34894 0
M  V30 25841 H 2596.7 0.907666 -1.92029 0
M  V30 25842 H 2598.96 0.460761 -0.828495 0
M  V30 25843 H 2598.66 2.20201 -2.74234 0
M  V30 25844 H 2598.54 3.45296 -1.51824 0
M  V30 25845 H 2600.93 2.86126 -0.722223 0
M  V30 25846 H 2601.01 1.61946 -1.98008 0
M  V30 25847 H 2600.65 3.42301 -3.75223 0
M  V30 25848 H 2600.58 4.65316 -2.46553 0
M  V30 25849 H 2603.07 3.13116 -2.11581 0
M  V30 25850 H 2603.38 6.0321 -4.83071 0
M  V30 25851 H 2601.73 5.42917 -4.33897 0
M  V30 25852 H 2604.92 3.83073 -2.69022 0
M  V30 25853 H 2605.09 5.15372 -3.92805 0
M  V30 25854 N 2598.5 0.772537 1.37367 0
M  V30 25855 C 2599.46 0.165582 2.28601 0
M  V30 25856 C 2600.46 -0.627212 1.48063 0
M  V30 25857 O 2601.65 -0.450685 1.68269 0
M  V30 25858 C 2598.78 -0.772839 3.32024 0
M  V30 25859 H 2599.98 0.969836 2.83785 0
M  V30 25860 H 2597.53 0.540801 1.46646 0
M  V30 25861 H 2598.27 -1.60207 2.81965 0
M  V30 25862 H 2598.05 -0.206517 3.91556 0
M  V30 25863 H 2599.54 -1.19291 4.00199 0
M  V30 25864 N 2599.98 -1.48664 0.523142 0
M  V30 25865 C 2600.89 -2.33292 -0.247365 0
M  V30 25866 C 2601.9 -1.46054 -0.945743 0
M  V30 25867 O 2603.08 -1.79045 -0.922221 0
M  V30 25868 C 2600.14 -3.22015 -1.28481 0
M  V30 25869 C 2599.21 -4.25121 -0.597517 0
M  V30 25870 C 2598.44 -5.09604 -1.58554 0
M  V30 25871 O 2598.66 -4.95954 -2.81754 0
M  V30 25872 O 2597.6 -5.91223 -1.12869 0
M  V30 25873 H 2601.42 -3.00408 0.445922 0
M  V30 25874 H 2599.01 -1.46673 0.284154 0
M  V30 25875 H 2600.89 -3.76914 -1.88452 0
M  V30 25876 H 2599.56 -2.57567 -1.96063 0
M  V30 25877 H 2598.47 -3.74076 0.0425064 0
M  V30 25878 H 2599.8 -4.92187 0.0362382 0
M  V30 25879 N 2601.46 -0.257958 -1.55475 0
M  V30 25880 C 2602.39 0.630873 -2.24816 0
M  V30 25881 C 2603.37 1.17257 -1.23226 0
M  V30 25882 O 2604.55 1.20988 -1.51906 0
M  V30 25883 C 2601.68 1.82293 -2.95612 0
M  V30 25884 C 2600.64 1.41352 -4.03985 0
M  V30 25885 C 2599.96 2.6873 -4.62264 0
M  V30 25886 C 2601.26 0.576389 -5.1911 0
M  V30 25887 H 2602.96 0.0526351 -2.99354 0
M  V30 25888 H 2600.5 0.0238757 -1.4398 0
M  V30 25889 H 2602.45 2.45047 -3.42826 0
M  V30 25890 H 2601.18 2.42672 -2.18581 0
M  V30 25891 H 2599.84 0.809261 -3.57556 0
M  V30 25892 H 2599.49 3.27331 -3.81921 0
M  V30 25893 H 2599.19 2.42055 -5.35428 0
M  V30 25894 H 2600.71 3.32363 -5.12218 0
M  V30 25895 H 2602.12 1.10851 -5.62481 0
M  V30 25896 H 2600.52 0.405246 -5.9873 0
M  V30 25897 H 2601.59 -0.408861 -4.83173 0
M  V30 25898 N 2602.93 1.57593 0.0150108 0
M  V30 25899 C 2603.86 2.10505 1.01044 0
M  V30 25900 C 2604.85 1.01074 1.36814 0
M  V30 25901 O 2606.03 1.28675 1.45452 0
M  V30 25902 C 2603.16 2.59602 2.30703 0
M  V30 25903 C 2602.11 3.73425 2.09136 0
M  V30 25904 C 2601.44 4.0878 3.44678 0
M  V30 25905 C 2602.74 5.01301 1.4661 0
M  V30 25906 H 2604.43 2.93926 0.569926 0
M  V30 25907 H 2601.98 1.41394 0.272699 0
M  V30 25908 H 2603.93 2.95243 3.00682 0
M  V30 25909 H 2602.66 1.73284 2.7684 0
M  V30 25910 H 2601.32 3.38155 1.41586 0
M  V30 25911 H 2600.96 3.19507 3.8849 0
M  V30 25912 H 2600.66 4.85456 3.31068 0
M  V30 25913 H 2602.19 4.46967 4.15996 0
M  V30 25914 H 2603.6 5.34809 2.06525 0
M  V30 25915 H 2602 5.82682 1.43534 0
M  V30 25916 H 2603.07 4.82958 0.433526 0
M  V30 25917 N 2604.41 -0.287527 1.54955 0
M  V30 25918 C 2605.66 -1.02254 1.75134 0
M  V30 25919 C 2605.99 -1.86457 0.542891 0
M  V30 25920 O 2605.27 -1.88986 -0.459823 0
M  V30 25921 C 2605.55 -1.91728 3.04815 0
M  V30 25922 C 2605.4 -1.10615 4.35987 0
M  V30 25923 C 2606.72 -2.90681 3.30443 0
M  V30 25924 H 2603.84 -0.37033 0.637201 0
M  V30 25925 H 2606.48 -0.296079 1.87679 0
M  V30 25926 H 2604.63 -2.5367 2.94251 0
M  V30 25927 H 2606.3 -0.508555 4.58488 0
M  V30 25928 H 2604.55 -0.409195 4.31866 0
M  V30 25929 H 2605.22 -1.76503 5.23021 0
M  V30 25930 H 2607.69 -2.38871 3.40705 0
M  V30 25931 H 2606.57 -3.50439 4.22473 0
M  V30 25932 H 2606.83 -3.65049 2.49383 0
M  V30 25933 N 2605.89 -1.47641 -0.551365 0
M  V30 25934 C 2607.12 -1.58191 -1.33354 0
M  V30 25935 C 2607.53 -0.234232 -1.87341 0
M  V30 25936 O 2606.89 0.773401 -1.65302 0
M  V30 25937 C 2606.94 -2.61177 -2.49938 0
M  V30 25938 O 2606.66 -3.90713 -1.9818 0
M  V30 25939 C 2608.16 -2.81966 -3.42067 0
M  V30 25940 H 2605.38 -0.534005 -0.4063 0
M  V30 25941 H 2607.93 -1.93305 -0.667333 0
M  V30 25942 H 2606.08 -2.2898 -3.12485 0
M  V30 25943 H 2606.5 -4.47036 -2.74334 0
M  V30 25944 H 2607.97 -3.57876 -4.20272 0
M  V30 25945 H 2608.45 -1.90002 -3.95975 0
M  V30 25946 H 2609.05 -3.15383 -2.85331 0
M  V30 25947 N 2607.37 0.798563 -1.3587 0
M  V30 25948 C 2608.28 1.94226 -1.31581 0
M  V30 25949 C 2609.29 1.72611 -0.219421 0
M  V30 25950 O 2610.47 1.96304 -0.450201 0
M  V30 25951 C 2607.54 3.28942 -1.09534 0
M  V30 25952 C 2606.6 3.63398 -2.28562 0
M  V30 25953 C 2605.83 4.91686 -2.07558 0
M  V30 25954 O 2606.05 5.60725 -1.04609 0
M  V30 25955 O 2604.99 5.24586 -2.95115 0
M  V30 25956 H 2608.81 2.00792 -2.27851 0
M  V30 25957 H 2606.4 0.937505 -1.16324 0
M  V30 25958 H 2608.28 4.09577 -0.991199 0
M  V30 25959 H 2606.95 3.23288 -0.163207 0
M  V30 25960 H 2605.86 2.83107 -2.44543 0
M  V30 25961 H 2607.19 3.73766 -3.2025 0
M  V30 25962 N 2608.85 1.19999 1.02166 0
M  V30 25963 C 2609.81 0.946077 2.08763 0
M  V30 25964 C 2610.81 -0.0763563 1.60619 0
M  V30 25965 O 2612 0.159165 1.73471 0
M  V30 25966 C 2609.13 0.423314 3.38262 0
M  V30 25967 H 2610.32 1.89157 2.32722 0
M  V30 25968 H 2607.88 1.01466 1.18888 0
M  V30 25969 H 2608.61 -0.527881 3.19975 0
M  V30 25970 H 2608.4 1.1606 3.7453 0
M  V30 25971 H 2609.89 0.264985 4.16758 0
M  V30 25972 N 2610.32 -1.21392 1.00507 0
M  V30 25973 C 2611.74 -1.72212 0.721112 0
M  V30 25974 C 2612.09 -1.80831 -0.761231 0
M  V30 25975 O 2611.21 -1.46291 -1.59461 0
M  V30 25976 C 2611.81 -3.12769 1.30233 0
M  V30 25977 C 2610.37 -3.60945 1.0675 0
M  V30 25978 C 2609.51 -2.38474 1.41511 0
M  V30 25979 H 2612.46 -1.06568 1.17596 0
M  V30 25980 H 2612.48 -3.74246 0.687021 0
M  V30 25981 H 2612 -3.06464 2.3812 0
M  V30 25982 H 2610.1 -3.726 0.00578711 0
M  V30 25983 H 2610.21 -4.46408 1.73944 0
M  V30 25984 H 2608.57 -2.40662 0.833894 0
M  V30 25985 H 2609.36 -2.3482 2.50429 0
M  V30 25986 N 2611.8 -0.779811 -1.36955 0
M  V30 25987 C 2613.03 -0.35826 -2.04282 0
M  V30 25988 C 2613.45 1.01408 -1.58423 0
M  V30 25989 O 2612.81 1.65141 -0.748208 0
M  V30 25990 C 2612.86 -0.419542 -3.58151 0
M  V30 25991 O 2611.96 0.57707 -4.08343 0
M  V30 25992 H 2611.3 -0.15371 -0.645964 0
M  V30 25993 H 2613.83 -1.05825 -1.75106 0
M  V30 25994 H 2613.84 -0.279707 -4.0704 0
M  V30 25995 H 2612.52 -1.42068 -3.90883 0
M  V30 25996 H 2611.1 0.39969 -3.70752 0
M  V30 25997 N 2613.28 1.48384 -0.531019 0
M  V30 25998 C 2614.23 2.29639 0.231183 0
M  V30 25999 C 2615.2 1.37431 0.932839 0
M  V30 26000 O 2616.38 1.66395 0.933663 0
M  V30 26001 C 2613.52 3.20822 1.2715 0
M  V30 26002 C 2612.64 4.28108 0.57858 0
M  V30 26003 C 2611.77 5.0647 1.60192 0
M  V30 26004 C 2610.81 6.05558 0.892518 0
M  V30 26005 N 2609.95 6.76975 1.86145 0
M  V30 26006 H 2614.79 2.94304 -0.4679 0
M  V30 26007 H 2612.32 1.45086 -0.242581 0
M  V30 26008 H 2614.28 3.72088 1.88696 0
M  V30 26009 H 2612.91 2.58079 1.93895 0
M  V30 26010 H 2611.96 3.80101 -0.150849 0
M  V30 26011 H 2613.28 4.98795 0.0216188 0
M  V30 26012 H 2612.43 5.61755 2.29164 0
M  V30 26013 H 2611.17 4.35625 2.19277 0
M  V30 26014 H 2610.17 5.49476 0.188732 0
M  V30 26015 H 2611.4 6.78402 0.307759 0
M  V30 26016 H 2609.34 6.08879 2.44136 0
M  V30 26017 H 2609.26 7.43741 1.35595 0
M  V30 26018 H 2610.53 7.36848 2.54312 0
M  V30 26019 N 2614.76 0.2662 1.55336 0
M  V30 26020 C 2616.17 -0.233282 1.85237 0
M  V30 26021 C 2616.52 -1.5613 1.18819 0
M  V30 26022 O 2615.65 -2.1116 0.473344 0
M  V30 26023 C 2616.24 -0.430054 3.36059 0
M  V30 26024 C 2614.8 -0.873777 3.66118 0
M  V30 26025 C 2613.95 0.0380503 2.77274 0
M  V30 26026 H 2616.9 0.48824 1.51003 0
M  V30 26027 H 2616.92 -1.26992 3.58683 0
M  V30 26028 H 2616.43 0.536656 3.84372 0
M  V30 26029 H 2614.53 -1.85227 3.23298 0
M  V30 26030 H 2614.64 -0.717274 4.737 0
M  V30 26031 H 2613.01 -0.476716 2.50199 0
M  V30 26032 H 2613.79 1.00048 3.28398 0
M  V30 26033 N 2616.24 -1.57599 -0.0066531 0
M  V30 26034 C 2617.49 -1.89456 -0.692045 0
M  V30 26035 C 2617.8 -0.867617 -1.75305 0
M  V30 26036 O 2619 -1.07618 -2.4926 0
M  V30 26037 C 2617.46 -3.36291 -1.28204 0
M  V30 26038 C 2617.07 -4.47267 -0.256213 0
M  V30 26039 C 2618.81 -3.77267 -1.94601 0
M  V30 26040 C 2616.72 -5.85175 -0.855825 0
M  V30 26041 H 2615.65 -0.706927 -0.26224 0
M  V30 26042 H 2618.3 -1.83424 0.0528012 0
M  V30 26043 H 2616.68 -3.37139 -2.07734 0
M  V30 26044 H 2617.86 -4.57924 0.514003 0
M  V30 26045 H 2616.17 -4.15267 0.306935 0
M  V30 26046 H 2618.77 -4.77633 -2.40355 0
M  V30 26047 H 2619.11 -3.10432 -2.77376 0
M  V30 26048 H 2619.64 -3.7869 -1.21815 0
M  V30 26049 H 2616.38 -6.55466 -0.0670009 0
M  V30 26050 H 2615.9 -5.78194 -1.59535 0
M  V30 26051 H 2617.58 -6.32621 -1.35646 0
M  V30 26052 N 2617.72 0.279305 -1.55105 0
M  V30 26053 C 2618.94 1.03014 -1.79432 0
M  V30 26054 C 2619.36 1.80164 -0.564488 0
M  V30 26055 O 2618.72 1.76442 0.466295 0
M  V30 26056 C 2618.77 1.99368 -3.01553 0
M  V30 26057 O 2618.49 1.25345 -4.19786 0
M  V30 26058 C 2619.99 2.86315 -3.38435 0
M  V30 26059 H 2617.21 0.304584 -0.597888 0
M  V30 26060 H 2619.75 0.312 -2.02106 0
M  V30 26061 H 2617.91 2.66654 -2.81024 0
M  V30 26062 H 2618.32 1.90237 -4.88784 0
M  V30 26063 H 2619.8 3.49733 -4.27072 0
M  V30 26064 H 2620.27 3.55755 -2.57555 0
M  V30 26065 H 2620.88 2.2453 -3.61201 0
M  V30 26066 N 2619.19 1.47931 0.543528 0
M  V30 26067 C 2620.44 1.55487 1.30198 0
M  V30 26068 C 2620.77 0.222235 1.92924 0
M  V30 26069 O 2620.05 -0.770498 1.78588 0
M  V30 26070 C 2620.33 2.68311 2.40169 0
M  V30 26071 C 2620.18 4.11236 1.82222 0
M  V30 26072 C 2621.5 2.76967 3.42019 0
M  V30 26073 H 2618.62 0.566004 0.472026 0
M  V30 26074 H 2621.26 1.80047 0.606883 0
M  V30 26075 H 2619.41 2.47501 2.99459 0
M  V30 26076 H 2621.09 4.43448 1.27088 0
M  V30 26077 H 2619.33 4.18871 1.12824 0
M  V30 26078 H 2620 4.85976 2.61785 0
M  V30 26079 H 2622.48 2.95779 2.92667 0
M  V30 26080 H 2621.35 3.57661 4.16377 0
M  V30 26081 H 2621.61 1.84575 4.01727 0
M  V30 26082 N 2620.67 -0.791347 1.36292 0
M  V30 26083 C 2621.9 -1.58013 1.33564 0
M  V30 26084 C 2622.31 -1.88615 -0.0835285 0
M  V30 26085 O 2621.67 -1.49976 -1.03988 0
M  V30 26086 C 2621.72 -2.90229 2.15522 0
M  V30 26087 O 2621.44 -2.60946 3.51907 0
M  V30 26088 C 2622.94 -3.8454 2.20553 0
M  V30 26089 H 2620.16 -0.490165 0.458235 0
M  V30 26090 H 2622.71 -0.982314 1.79362 0
M  V30 26091 H 2620.86 -3.46484 1.73284 0
M  V30 26092 H 2621.28 -3.45474 3.9465 0
M  V30 26093 H 2622.75 -4.74377 2.8226 0
M  V30 26094 H 2623.23 -4.22248 1.20845 0
M  V30 26095 H 2623.83 -3.34218 2.63018 0
M  V30 26096 N 2622.15 -1.2054 -1.01528 0
M  V30 26097 C 2623.4 -1.01786 -1.75406 0
M  V30 26098 C 2623.73 0.448781 -1.88943 0
M  V30 26099 O 2623 1.33317 -1.41622 0
M  V30 26100 C 2623.29 -1.70361 -3.17252 0
M  V30 26101 C 2623.14 -3.24479 -3.11502 0
M  V30 26102 C 2624.46 -1.43777 -4.15952 0
M  V30 26103 H 2621.58 -0.371178 -0.636707 0
M  V30 26104 H 2624.22 -1.48572 -1.18433 0
M  V30 26105 H 2622.37 -1.30585 -3.65896 0
M  V30 26106 H 2624.04 -3.73558 -2.70652 0
M  V30 26107 H 2622.28 -3.55316 -2.48864 0
M  V30 26108 H 2622.96 -3.67618 -4.11778 0
M  V30 26109 H 2625.43 -1.78287 -3.75969 0
M  V30 26110 H 2624.31 -1.94288 -5.13365 0
M  V30 26111 H 2624.57 -0.365641 -4.40585 0
M  V30 26112 N 2623.63 1.20858 -1.01149 0
M  V30 26113 C 2624.54 2.2714 -0.5869 0
M  V30 26114 C 2625.55 1.69951 0.373168 0
M  V30 26115 O 2626.73 2.0002 0.235388 0
M  V30 26116 C 2623.79 3.46623 0.0732993 0
M  V30 26117 C 2622.86 4.1906 -0.932068 0
M  V30 26118 C 2622.09 5.32838 -0.303279 0
M  V30 26119 O 2622.31 5.63282 0.898296 0
M  V30 26120 O 2621.25 5.93238 -1.01746 0
M  V30 26121 H 2625.07 2.65665 -1.4716 0
M  V30 26122 H 2622.66 1.27378 -0.780712 0
M  V30 26123 H 2624.54 4.19073 0.442259 0
M  V30 26124 H 2623.21 3.09984 0.932274 0
M  V30 26125 H 2622.12 3.48803 -1.3523 0
M  V30 26126 H 2623.45 4.59625 -1.76084 0
M  V30 26127 N 2625.11 0.787064 1.3654 0
M  V30 26128 C 2626.02 0.184937 2.3387 0
M  V30 26129 C 2627.03 -0.661668 1.60928 0
M  V30 26130 O 2628.21 -0.578006 1.92928 0
M  V30 26131 C 2625.27 -0.672085 3.40123 0
M  V30 26132 C 2624.33 0.192746 4.28867 0
M  V30 26133 C 2623.57 -0.623468 5.30046 0
M  V30 26134 O 2623.79 -1.8596 5.39236 0
M  V30 26135 O 2622.72 -0.024601 6.01895 0
M  V30 26136 H 2626.55 0.989613 2.87124 0
M  V30 26137 H 2624.13 0.54848 1.38968 0
M  V30 26138 H 2626.02 -1.16087 4.05095 0
M  V30 26139 H 2624.69 -1.45469 2.89172 0
M  V30 26140 H 2623.6 0.72823 3.66944 0
M  V30 26141 H 2624.93 0.938807 4.83164 0
M  V30 26142 N 2626.58 -1.48101 0.53888 0
M  V30 26143 C 2627.52 -2.27763 -0.256238 0
M  V30 26144 C 2628.53 -1.35905 -0.896306 0
M  V30 26145 O 2629.72 -1.60882 -0.773247 0
M  V30 26146 C 2626.82 -3.0958 -1.3789 0
M  V30 26147 C 2625.99 -4.29276 -0.839084 0
M  V30 26148 C 2625.05 -4.92833 -1.84397 0
M  V30 26149 O 2624.08 -5.51781 -1.39736 0
M  V30 26150 N 2625.28 -4.85875 -3.17657 0
M  V30 26151 H 2628.04 -2.96642 0.42702 0
M  V30 26152 H 2625.6 -1.57526 0.373774 0
M  V30 26153 H 2627.6 -3.48967 -2.04949 0
M  V30 26154 H 2626.17 -2.43063 -1.96568 0
M  V30 26155 H 2625.39 -3.94199 0.00776216 0
M  V30 26156 H 2626.67 -5.06739 -0.457459 0
M  V30 26157 H 2626.07 -4.3915 -3.56601 0
M  V30 26158 H 2624.63 -5.29336 -3.80325 0
M  V30 26159 N 2628.06 -0.274434 -1.55192 0
M  V30 26160 C 2629.48 0.0797262 -1.59401 0
M  V30 26161 C 2629.68 1.54657 -1.29165 0
M  V30 26162 O 2628.73 2.29533 -1.05219 0
M  V30 26163 C 2630.05 -0.294291 -2.99256 0
M  V30 26164 C 2631.59 -0.240851 -3.12072 0
M  V30 26165 C 2632.07 -0.589298 -4.54193 0
M  V30 26166 N 2633.56 -0.540825 -4.60032 0
M  V30 26167 C 2634.3 -0.783247 -5.68025 0
M  V30 26168 N 2633.79 -1.09025 -6.84168 0
M  V30 26169 N 2635.58 -0.712091 -5.57571 0
M  V30 26170 H 2627.74 -1.2307 -1.73111 0
M  V30 26171 H 2630 -0.497143 -0.807188 0
M  V30 26172 H 2629.7 -1.3144 -3.26215 0
M  V30 26173 H 2629.58 0.365215 -3.75428 0
M  V30 26174 H 2631.97 0.769973 -2.84878 0
M  V30 26175 H 2632.05 -0.934605 -2.38115 0
M  V30 26176 H 2631.69 -1.59781 -4.82113 0
M  V30 26177 H 2631.62 0.126238 -5.26449 0
M  V30 26178 H 2634.11 -0.313393 -3.76598 0
M  V30 26179 H 2634.42 -1.26191 -7.62427 0
M  V30 26180 H 2632.77 -1.12801 -6.85785 0
M  V30 26181 H 2635.96 -0.472096 -4.65713 0
M  V30 26182 H 2636.13 -0.904402 -6.41658 0
M  V30 26183 N 2629.54 1.576 -0.00170483 0
M  V30 26184 C 2630.76 1.95325 0.697355 0
M  V30 26185 C 2631.19 0.876735 1.66418 0
M  V30 26186 O 2630.55 -0.164976 1.80548 0
M  V30 26187 C 2630.6 3.32146 1.40397 0
M  V30 26188 O 2629.7 3.2657 2.51844 0
M  V30 26189 H 2629.04 0.637603 0.185362 0
M  V30 26190 H 2631.57 2.04525 -0.0554025 0
M  V30 26191 H 2631.58 3.67751 1.76701 0
M  V30 26192 H 2630.26 4.1005 0.695095 0
M  V30 26193 H 2628.83 3.02644 2.17856 0
M  V30 26194 N 2631.02 -0.271076 1.55251 0
M  V30 26195 C 2631.95 -1.35746 1.84677 0
M  V30 26196 C 2632.96 -1.45446 0.731392 0
M  V30 26197 O 2634.15 -1.47228 1.00926 0
M  V30 26198 C 2631.25 -2.73854 1.99643 0
M  V30 26199 C 2630.42 -2.86721 3.30317 0
M  V30 26200 C 2629.48 -4.05517 3.35325 0
M  V30 26201 O 2628.51 -3.96184 4.08689 0
M  V30 26202 N 2629.71 -5.17573 2.62867 0
M  V30 26203 H 2632.48 -1.10848 2.78447 0
M  V30 26204 H 2630.04 -0.461191 1.55192 0
M  V30 26205 H 2632.03 -3.51621 2.00362 0
M  V30 26206 H 2630.6 -2.91566 1.1273 0
M  V30 26207 H 2629.82 -1.95823 3.42121 0
M  V30 26208 H 2631.11 -2.92251 4.16493 0
M  V30 26209 H 2630.51 -5.28042 2.02948 0
M  V30 26210 H 2629.06 -5.93564 2.69305 0
M  V30 26211 N 2632.5 -1.48217 -0.535675 0
M  V30 26212 C 2633.72 -1.5985 -1.32147 0
M  V30 26213 C 2634.15 -0.256874 -1.86338 0
M  V30 26214 O 2633.5 0.770603 -1.64108 0
M  V30 26215 C 2633.55 -2.64386 -2.45219 0
M  V30 26216 O 2632.66 -2.2115 -3.48089 0
M  V30 26217 H 2632 -0.536215 -0.391624 0
M  V30 26218 H 2634.53 -1.94162 -0.645168 0
M  V30 26219 H 2634.54 -2.85481 -2.91486 0
M  V30 26220 H 2633.21 -3.6179 -2.05137 0
M  V30 26221 H 2631.79 -2.10244 -3.0798 0
M  V30 26222 N 2633.97 0.784108 -1.3671 0
M  V30 26223 C 2635.22 1.54449 -1.31429 0
M  V30 26224 C 2635.55 1.93917 0.104726 0
M  V30 26225 O 2634.83 1.63122 1.05931 0
M  V30 26226 C 2635.11 2.81796 -2.24194 0
M  V30 26227 C 2634.96 2.4866 -3.74817 0
M  V30 26228 C 2636.28 3.83654 -2.15633 0
M  V30 26229 H 2633.4 0.560329 -0.478749 0
M  V30 26230 H 2636.04 0.900468 -1.67307 0
M  V30 26231 H 2634.19 3.36752 -1.93728 0
M  V30 26232 H 2635.87 1.99714 -4.15827 0
M  V30 26233 H 2634.11 1.81528 -3.93992 0
M  V30 26234 H 2634.78 3.39638 -4.35144 0
M  V30 26235 H 2637.26 3.38159 -2.42461 0
M  V30 26236 H 2636.13 4.70501 -2.82702 0
M  V30 26237 H 2636.39 4.27007 -1.1453 0
M  V30 26238 N 2635.45 1.21076 1.00888 0
M  V30 26239 C 2636.87 0.967279 1.26948 0
M  V30 26240 C 2637.07 -0.348638 1.98461 0
M  V30 26241 O 2636.12 -1.07526 2.28461 0
M  V30 26242 C 2637.44 2.15521 2.09693 0
M  V30 26243 C 2638.99 2.19704 2.22933 0
M  V30 26244 C 2639.46 3.38005 3.09058 0
M  V30 26245 N 2640.95 3.38067 3.16647 0
M  V30 26246 C 2641.69 4.26252 3.83532 0
M  V30 26247 N 2641.18 5.24628 4.52479 0
M  V30 26248 N 2642.98 4.14071 3.80134 0
M  V30 26249 H 2635.13 2.05708 0.528969 0
M  V30 26250 H 2637.39 0.900561 0.296132 0
M  V30 26251 H 2637.1 3.10862 1.64492 0
M  V30 26252 H 2636.97 2.14259 3.1044 0
M  V30 26253 H 2639.36 1.24921 2.67355 0
M  V30 26254 H 2639.44 2.25012 1.21669 0
M  V30 26255 H 2639.08 4.33079 2.6534 0
M  V30 26256 H 2639.01 3.29935 4.10427 0
M  V30 26257 H 2641.5 2.66869 2.67561 0
M  V30 26258 H 2641.82 5.88226 5.01208 0
M  V30 26259 H 2640.16 5.28557 4.51279 0
M  V30 26260 H 2643.35 3.3648 3.25421 0
M  V30 26261 H 2643.52 4.83006 4.31983 0
M  V30 26262 N 2636.93 -1.2032 1.01789 0
M  V30 26263 C 2638.34 -1.71437 0.739337 0
M  V30 26264 C 2638.69 -1.81628 -0.742009 0
M  V30 26265 O 2637.82 -1.47974 -1.57901 0
M  V30 26266 C 2638.41 -3.11371 1.33543 0
M  V30 26267 C 2636.97 -3.59793 1.10572 0
M  V30 26268 C 2636.12 -2.3696 1.44032 0
M  V30 26269 H 2639.07 -1.05315 1.1872 0
M  V30 26270 H 2639.09 -3.73497 0.726676 0
M  V30 26271 H 2638.6 -3.03921 2.41357 0
M  V30 26272 H 2636.7 -3.72572 0.045306 0
M  V30 26273 H 2636.82 -4.44538 1.78668 0
M  V30 26274 H 2635.18 -2.39764 0.859373 0
M  V30 26275 H 2635.96 -2.32151 2.52905 0
M  V30 26276 N 2638.41 -0.794293 -1.3612 0
M  V30 26277 C 2639.66 -0.368211 -1.98717 0
M  V30 26278 C 2639.98 1.06503 -1.63347 0
M  V30 26279 O 2639.25 1.73489 -0.909856 0
M  V30 26280 H 2637.83 -0.133159 -0.735036 0
M  V30 26281 H 2640.49 -1.01741 -1.66237 0
M  V30 26282 H 2639.59 -0.463977 -3.08632 0
M  V30 26283 N 2639.89 1.47813 -0.546727 0
M  V30 26284 C 2640.85 2.28358 0.196247 0
M  V30 26285 C 2641.85 1.36347 0.852413 0
M  V30 26286 O 2643.04 1.59079 0.709885 0
M  V30 26287 C 2640.17 3.15724 1.28574 0
M  V30 26288 H 2641.36 2.95512 -0.511138 0
M  V30 26289 H 2638.92 1.53329 -0.303275 0
M  V30 26290 H 2639.65 2.53238 2.02585 0
M  V30 26291 H 2639.44 3.83426 0.820161 0
M  V30 26292 H 2640.93 3.76438 1.80787 0
M  V30 26293 N 2641.36 0.28266 1.55044 0
M  V30 26294 C 2642.64 -0.384132 1.91791 0
M  V30 26295 C 2643.02 -1.73133 1.20781 0
M  V30 26296 O 2642.37 -2.25998 0.337229 0
M  V30 26297 C 2642.58 -0.516954 3.4515 0
M  V30 26298 C 2643.93 -0.796354 4.17065 0
M  V30 26299 O 2644.95 -0.601474 3.51085 0
M  V30 26300 O 2643.81 -1.16953 5.33839 0
M  V30 26301 H 2640.9 -0.211544 0.799486 0
M  V30 26302 H 2643.45 0.329369 1.66473 0
M  V30 26303 H 2642.22 0.430841 3.88921 0
M  V30 26304 H 2641.85 -1.27963 3.76445 0
M  V30 26305 N 2642.84 -1.57597 0.0100627 0
M  V30 26306 C 2644.09 -1.91284 -0.673663 0
M  V30 26307 C 2644.42 -0.885009 -1.72862 0
M  V30 26308 O 2643.7 0.0949146 -1.94268 0
M  V30 26309 C 2643.98 -3.3552 -1.3076 0
M  V30 26310 C 2643.83 -4.49028 -0.263499 0
M  V30 26311 C 2645.15 -3.79362 -2.23098 0
M  V30 26312 H 2642.27 -0.695638 -0.243427 0
M  V30 26313 H 2644.91 -1.89894 0.0634197 0
M  V30 26314 H 2643.06 -3.36836 -1.93582 0
M  V30 26315 H 2644.73 -4.59847 0.365819 0
M  V30 26316 H 2642.98 -4.31828 0.413153 0
M  V30 26317 H 2643.65 -5.46932 -0.746302 0
M  V30 26318 H 2646.12 -3.79662 -1.70282 0
M  V30 26319 H 2645 -4.81015 -2.64415 0
M  V30 26320 H 2645.26 -3.13792 -3.11427 0
M  V30 26321 N 2644.32 0.262839 -1.55393 0
M  V30 26322 C 2645.55 1.01105 -1.80514 0
M  V30 26323 C 2645.96 1.79555 -0.583565 0
M  V30 26324 O 2645.32 1.76927 0.447554 0
M  V30 26325 C 2645.37 1.96159 -3.03651 0
M  V30 26326 O 2645.09 1.20886 -4.21092 0
M  V30 26327 C 2646.59 2.82709 -3.41453 0
M  V30 26328 H 2643.81 0.298225 -0.601085 0
M  V30 26329 H 2646.36 0.290546 -2.02425 0
M  V30 26330 H 2644.51 2.63658 -2.83837 0
M  V30 26331 H 2644.93 1.85042 -4.90775 0
M  V30 26332 H 2646.4 3.45184 -4.30757 0
M  V30 26333 H 2646.88 3.53004 -2.61314 0
M  V30 26334 H 2647.48 2.20686 -3.63562 0
M  V30 26335 N 2645.8 1.48499 0.527807 0
M  V30 26336 C 2647.05 1.56627 1.28352 0
M  V30 26337 C 2647.37 0.24113 1.93 0
M  V30 26338 O 2646.63 -0.768767 1.79968 0
M  V30 26339 C 2646.93 2.65489 2.39271 0
M  V30 26340 C 2646.59 4.07856 1.92261 0
M  V30 26341 C 2645.26 4.46605 1.79158 0
M  V30 26342 C 2647.61 4.97066 1.56763 0
M  V30 26343 C 2644.94 5.72366 1.28895 0
M  V30 26344 C 2647.29 6.23319 1.07961 0
M  V30 26345 C 2645.95 6.60922 0.93477 0
M  V30 26346 H 2645.22 0.57314 0.469672 0
M  V30 26347 H 2647.87 1.82225 0.588749 0
M  V30 26348 H 2646.17 2.33759 3.14426 0
M  V30 26349 H 2647.87 2.68993 2.97395 0
M  V30 26350 H 2644.46 3.77256 2.03411 0
M  V30 26351 H 2648.64 4.67806 1.65745 0
M  V30 26352 H 2643.9 6.00223 1.1637 0
M  V30 26353 H 2648.07 6.9184 0.795653 0
M  V30 26354 H 2645.7 7.58258 0.543098 0
M  V30 26355 N 2647.28 -0.776847 1.37123 0
M  V30 26356 C 2648.53 -1.53047 1.31375 0
M  V30 26357 C 2648.84 -1.95339 -0.100982 0
M  V30 26358 O 2650.05 -2.70043 -0.280905 0
M  V30 26359 C 2648.5 -2.76342 2.30572 0
M  V30 26360 C 2648.11 -2.41169 3.77547 0
M  V30 26361 C 2649.85 -3.54297 2.33824 0
M  V30 26362 C 2647.76 -3.60935 4.68487 0
M  V30 26363 H 2646.69 -0.574572 0.488244 0
M  V30 26364 H 2649.34 -0.851343 1.62556 0
M  V30 26365 H 2647.72 -3.46118 1.92402 0
M  V30 26366 H 2648.9 -1.79209 4.24524 0
M  V30 26367 H 2647.21 -1.76398 3.7719 0
M  V30 26368 H 2649.81 -4.43305 2.98973 0
M  V30 26369 H 2650.15 -3.9379 1.35037 0
M  V30 26370 H 2650.69 -2.91513 2.70675 0
M  V30 26371 H 2647.42 -3.26527 5.68384 0
M  V30 26372 H 2646.94 -4.22017 4.26218 0
M  V30 26373 H 2648.62 -4.2781 4.85373 0
M  V30 26374 N 2648.76 -1.2161 -1.00244 0
M  V30 26375 C 2650 -1.04634 -1.75588 0
M  V30 26376 C 2650.36 0.412615 -1.87514 0
M  V30 26377 O 2651.56 0.702957 -2.59445 0
M  V30 26378 C 2649.83 -1.72727 -3.1289 0
M  V30 26379 S 2651.39 -1.71041 -4.04092 0
M  V30 26380 H 2648.21 -0.374902 -0.604127 0
M  V30 26381 H 2650.81 -1.54397 -1.19925 0
M  V30 26382 H 2649.51 -2.78061 -3.01845 0
M  V30 26383 H 2649.05 -1.23155 -3.73626 0
M  V30 26384 H 2651.06 -0.753318 -4.90448 0
M  V30 26385 N 2650.23 1.19778 -1.02425 0
M  V30 26386 C 2651.46 1.9331 -0.73749 0
M  V30 26387 C 2651.88 1.75224 0.702992 0
M  V30 26388 O 2651.23 1.07114 1.47759 0
M  V30 26389 C 2651.28 3.45197 -1.07336 0
M  V30 26390 O 2651.01 3.62698 -2.45727 0
M  V30 26391 C 2652.51 4.3586 -0.808737 0
M  V30 26392 H 2649.73 0.614188 -0.270211 0
M  V30 26393 H 2652.27 1.52052 -1.3675 0
M  V30 26394 H 2650.43 3.84306 -0.488613 0
M  V30 26395 H 2650.84 4.56607 -2.58089 0
M  V30 26396 H 2652.31 5.41056 -1.09375 0
M  V30 26397 H 2652.79 4.38448 0.256948 0
M  V30 26398 H 2653.4 4.02426 -1.37599 0
M  V30 26399 N 2651.71 0.801501 1.35697 0
M  V30 26400 C 2652.67 0.214034 2.28198 0
M  V30 26401 C 2653.67 -0.595665 1.4936 0
M  V30 26402 O 2654.86 -0.414891 1.69187 0
M  V30 26403 C 2652 -0.702238 3.33589 0
M  V30 26404 H 2653.19 1.02981 2.81664 0
M  V30 26405 H 2650.74 0.571785 1.45466 0
M  V30 26406 H 2651.48 -1.5419 2.853 0
M  V30 26407 H 2651.26 -0.123415 3.91906 0
M  V30 26408 H 2652.75 -1.10775 4.02639 0
M  V30 26409 N 2653.19 -1.47521 0.554558 0
M  V30 26410 C 2654.14 -2.29978 -0.19462 0
M  V30 26411 C 2655.11 -1.38898 -0.910857 0
M  V30 26412 O 2656.29 -1.6786 -0.907073 0
M  V30 26413 C 2653.43 -3.22805 -1.2203 0
M  V30 26414 C 2652.54 -4.28974 -0.510398 0
M  V30 26415 C 2651.68 -5.08955 -1.52114 0
M  V30 26416 C 2650.72 -6.06901 -0.796066 0
M  V30 26417 N 2649.86 -6.7985 -1.75351 0
M  V30 26418 H 2654.7 -2.93522 0.514662 0
M  V30 26419 H 2652.23 -1.44682 0.265632 0
M  V30 26420 H 2654.19 -3.75043 -1.82753 0
M  V30 26421 H 2652.82 -2.61131 -1.89765 0
M  V30 26422 H 2651.87 -3.79813 0.211301 0
M  V30 26423 H 2653.18 -4.98767 0.0577379 0
M  V30 26424 H 2652.34 -5.6533 -2.20198 0
M  V30 26425 H 2651.08 -4.39058 -2.12319 0
M  V30 26426 H 2650.08 -5.49707 -0.101291 0
M  V30 26427 H 2651.31 -6.78806 -0.199792 0
M  V30 26428 H 2649.25 -6.12686 -2.34419 0
M  V30 26429 H 2649.17 -7.45804 -1.23745 0
M  V30 26430 H 2650.44 -7.40801 -2.42557 0
M  V30 26431 N 2654.67 -0.290879 -1.54892 0
M  V30 26432 C 2655.89 0.327084 -2.04805 0
M  V30 26433 C 2656.32 1.47504 -1.16723 0
M  V30 26434 O 2655.68 1.80509 -0.169139 0
M  V30 26435 C 2655.72 0.770627 -3.52269 0
M  V30 26436 O 2654.83 1.8764 -3.67239 0
M  V30 26437 H 2654.17 0.0652111 -0.66079 0
M  V30 26438 H 2656.7 -0.429774 -2.00035 0
M  V30 26439 H 2656.71 1.06216 -3.93932 0
M  V30 26440 H 2655.38 -0.0691691 -4.15842 0
M  V30 26441 H 2653.96 1.5862 -3.37482 0
M  V30 26442 N 2656.15 1.57589 -0.0184203 0
M  V30 26443 C 2657.09 2.09566 0.966985 0
M  V30 26444 C 2658.06 0.995249 1.32981 0
M  V30 26445 O 2659.25 1.26881 1.42499 0
M  V30 26446 C 2656.39 2.61865 2.24768 0
M  V30 26447 C 2655.5 3.85876 1.94225 0
M  V30 26448 C 2654.64 4.26608 3.1651 0
M  V30 26449 C 2653.67 5.43406 2.81738 0
M  V30 26450 N 2652.81 5.79345 3.96616 0
M  V30 26451 H 2657.65 2.93484 0.516822 0
M  V30 26452 H 2655.19 1.4507 0.243518 0
M  V30 26453 H 2657.15 2.90273 2.99662 0
M  V30 26454 H 2655.78 1.80794 2.6742 0
M  V30 26455 H 2654.83 3.64264 1.09619 0
M  V30 26456 H 2656.14 4.70856 1.64608 0
M  V30 26457 H 2655.29 4.56396 3.99735 0
M  V30 26458 H 2654.03 3.40374 3.4928 0
M  V30 26459 H 2653.04 5.13323 1.96924 0
M  V30 26460 H 2654.26 6.31331 2.50196 0
M  V30 26461 H 2652.21 4.96067 4.29248 0
M  V30 26462 H 2652.13 6.5894 3.70586 0
M  V30 26463 H 2653.39 6.13733 4.80575 0
M  V30 26464 N 2657.62 -0.254594 1.5553 0
M  V30 26465 C 2658.85 -1.00569 1.81385 0
M  V30 26466 C 2659.27 -1.7846 0.59445 0
M  V30 26467 O 2658.63 -1.75462 -0.456372 0
M  V30 26468 C 2658.68 -1.92539 3.04895 0
M  V30 26469 O 2657.78 -3.01596 2.81271 0
M  V30 26470 H 2657.12 -0.286576 0.598974 0
M  V30 26471 H 2659.65 -0.277917 2.02704 0
M  V30 26472 H 2659.66 -2.3415 3.34123 0
M  V30 26473 H 2658.34 -1.35263 3.9329 0
M  V30 26474 H 2656.92 -2.64169 2.6319 0
M  V30 26475 N 2659.1 -1.48777 -0.519925 0
M  V30 26476 C 2660.51 -1.50727 -1.10174 0
M  V30 26477 C 2660.86 -0.282712 -1.94152 0
M  V30 26478 O 2659.99 0.609261 -2.07646 0
M  V30 26479 C 2660.58 -2.7312 -2.00477 0
M  V30 26480 C 2659.14 -2.77909 -2.53857 0
M  V30 26481 C 2658.29 -2.44383 -1.31042 0
M  V30 26482 H 2661.24 -1.55747 -0.304703 0
M  V30 26483 H 2661.26 -2.52208 -2.84906 0
M  V30 26484 H 2660.77 -3.62228 -1.39329 0
M  V30 26485 H 2658.87 -1.93034 -3.18698 0
M  V30 26486 H 2658.99 -3.79599 -2.92304 0
M  V30 26487 H 2657.35 -1.95754 -1.62949 0
M  V30 26488 H 2658.13 -3.35744 -0.716311 0
M  V30 26489 N 2660.58 0.769564 -1.37534 0
M  V30 26490 C 2661.54 1.86454 -1.33295 0
M  V30 26491 C 2662.54 1.5905 -0.236565 0
M  V30 26492 O 2663.73 1.67092 -0.49254 0
M  V30 26493 C 2660.86 3.23631 -1.07124 0
M  V30 26494 H 2662.06 1.91623 -2.30696 0
M  V30 26495 H 2659.61 0.96955 -1.22594 0
M  V30 26496 H 2660.35 3.24138 -0.102635 0
M  V30 26497 H 2660.13 3.44914 -1.86485 0
M  V30 26498 H 2661.62 4.03709 -1.06813 0
M  V30 26499 N 2662.06 1.22139 0.995977 0
M  V30 26500 C 2663.29 1.06877 1.76807 0
M  V30 26501 C 2663.7 -0.383834 1.85266 0
M  V30 26502 O 2663.04 -1.27786 1.31971 0
M  V30 26503 C 2663.1 1.6015 3.21858 0
M  V30 26504 C 2662.77 3.08726 3.36953 0
M  V30 26505 C 2663.76 4.06186 3.24513 0
M  V30 26506 C 2661.45 3.48118 3.62103 0
M  V30 26507 C 2663.44 5.41025 3.37003 0
M  V30 26508 C 2661.13 4.83106 3.74235 0
M  V30 26509 C 2662.13 5.79368 3.61692 0
M  V30 26510 O 2661.81 7.11906 3.73423 0
M  V30 26511 H 2661.55 0.375375 0.562201 0
M  V30 26512 H 2664.1 1.62127 1.2611 0
M  V30 26513 H 2662.33 0.993046 3.73732 0
M  V30 26514 H 2664.02 1.40596 3.80772 0
M  V30 26515 H 2664.79 3.77096 3.04997 0
M  V30 26516 H 2660.66 2.73718 3.70944 0
M  V30 26517 H 2664.21 6.16143 3.2713 0
M  V30 26518 H 2660.11 5.11878 3.93257 0
M  V30 26519 H 2660.87 7.19442 3.90315 0
M  V30 26520 N 2663.54 -1.19233 1.03059 0
M  V30 26521 C 2664.76 -1.92916 0.747731 0
M  V30 26522 C 2665.18 -1.75594 -0.693689 0
M  V30 26523 O 2664.54 -1.07896 -1.47189 0
M  V30 26524 C 2664.59 -3.44623 1.09165 0
M  V30 26525 O 2664.31 -3.6139 2.47647 0
M  V30 26526 C 2665.81 -4.35425 0.83184 0
M  V30 26527 H 2663.03 -0.612747 0.273464 0
M  V30 26528 H 2665.57 -1.51324 1.37554 0
M  V30 26529 H 2663.73 -3.84042 0.508987 0
M  V30 26530 H 2664.14 -4.55232 2.60507 0
M  V30 26531 H 2665.62 -5.40468 1.12243 0
M  V30 26532 H 2666.09 -4.38578 -0.233692 0
M  V30 26533 H 2666.7 -4.0169 1.39732 0
M  V30 26534 N 2665.01 -0.808686 -1.3527 0
M  V30 26535 C 2665.94 -0.235022 -2.32314 0
M  V30 26536 C 2666.93 0.640682 -1.57573 0
M  V30 26537 O 2668.11 0.570518 -1.85631 0
M  V30 26538 C 2665.24 0.615541 -3.41802 0
M  V30 26539 C 2664.19 -0.161842 -4.27694 0
M  V30 26540 C 2663.52 0.810556 -5.28521 0
M  V30 26541 C 2664.82 -1.36202 -5.04229 0
M  V30 26542 H 2666.51 -1.0458 -2.80541 0
M  V30 26543 H 2664.06 -0.504339 -1.34879 0
M  V30 26544 H 2666.01 1.02695 -4.08695 0
M  V30 26545 H 2664.74 1.45923 -2.92189 0
M  V30 26546 H 2663.4 -0.554446 -3.62383 0
M  V30 26547 H 2663.04 1.6498 -4.75174 0
M  V30 26548 H 2662.74 0.294719 -5.8686 0
M  V30 26549 H 2664.27 1.22012 -5.98285 0
M  V30 26550 H 2665.68 -1.02538 -5.64056 0
M  V30 26551 H 2664.08 -1.81249 -5.72074 0
M  V30 26552 H 2665.15 -2.14759 -4.34749 0
M  V30 26553 N 2666.49 1.47225 -0.562374 0
M  V30 26554 C 2667.74 2.0276 -0.0403117 0
M  V30 26555 C 2668.07 1.43526 1.30821 0
M  V30 26556 O 2667.35 0.592737 1.85248 0
M  V30 26557 C 2667.63 3.60069 0.0472477 0
M  V30 26558 C 2667.48 4.29726 -1.32873 0
M  V30 26559 C 2668.8 4.33521 0.758106 0
M  V30 26560 H 2665.92 0.736824 -0.0161235 0
M  V30 26561 H 2668.56 1.75597 -0.725659 0
M  V30 26562 H 2666.71 3.83343 0.630919 0
M  V30 26563 H 2668.38 4.17778 -1.956 0
M  V30 26564 H 2666.63 3.89879 -1.90202 0
M  V30 26565 H 2667.3 5.38346 -1.22013 0
M  V30 26566 H 2669.77 4.15271 0.262473 0
M  V30 26567 H 2668.65 5.43209 0.788345 0
M  V30 26568 H 2668.91 4.03112 1.8153 0
M  V30 26569 N 2667.97 0.299089 1.54736 0
M  V30 26570 C 2669.22 -0.304087 2.01114 0
M  V30 26571 C 2669.57 -1.51672 1.18378 0
M  V30 26572 O 2668.86 -1.8994 0.251668 0
M  V30 26573 C 2669.06 -0.713773 3.502 0
M  V30 26574 C 2668.89 0.457609 4.47366 0
M  V30 26575 C 2667.66 0.94902 4.96308 0
M  V30 26576 C 2669.86 1.30195 4.97548 0
M  V30 26577 N 2667.84 2.08737 5.77323 0
M  V30 26578 C 2669.21 2.28781 5.76246 0
M  V30 26579 C 2671.26 1.33254 4.79737 0
M  V30 26580 C 2669.97 3.30201 6.3903 0
M  V30 26581 C 2671.99 2.33531 5.43339 0
M  V30 26582 C 2671.35 3.30847 6.21868 0
M  V30 26583 H 2667.45 -0.0757855 0.778319 0
M  V30 26584 H 2670.04 0.428569 1.89925 0
M  V30 26585 H 2668.21 -1.41561 3.61684 0
M  V30 26586 H 2669.94 -1.29633 3.83376 0
M  V30 26587 H 2666.7 0.524312 4.70689 0
M  V30 26588 H 2667.12 2.66088 6.22516 0
M  V30 26589 H 2671.76 0.593903 4.18608 0
M  V30 26590 H 2669.48 4.04985 6.99295 0
M  V30 26591 H 2673.07 2.36669 5.31487 0
M  V30 26592 H 2671.95 4.0717 6.7021 0
M  V30 26593 N 2669.45 -1.57577 0.0267774 0
M  V30 26594 C 2670.68 -1.96002 -0.662627 0
M  V30 26595 C 2671.09 -0.903146 -1.65797 0
M  V30 26596 O 2670.45 0.115285 -1.82136 0
M  V30 26597 C 2670.5 -3.34491 -1.37107 0
M  V30 26598 O 2670.22 -4.36124 -0.415606 0
M  V30 26599 C 2671.72 -3.87533 -2.15251 0
M  V30 26600 H 2668.94 -0.645603 -0.182859 0
M  V30 26601 H 2671.49 -2.0432 0.0858475 0
M  V30 26602 H 2669.64 -3.27399 -2.07096 0
M  V30 26603 H 2670.05 -5.16397 -0.918405 0
M  V30 26604 H 2671.53 -4.86786 -2.60277 0
M  V30 26605 H 2672.01 -3.21654 -2.99057 0
M  V30 26606 H 2672.61 -3.97886 -1.50224 0
M  V30 26607 N 2670.93 0.246342 -1.55663 0
M  V30 26608 C 2672.34 0.594881 -1.48099 0
M  V30 26609 C 2672.54 1.88309 -0.717077 0
M  V30 26610 O 2671.6 2.51292 -0.246663 0
M  V30 26611 C 2672.91 0.697094 -2.92508 0
M  V30 26612 C 2674.46 0.789383 -3.02882 0
M  V30 26613 C 2674.93 0.923153 -4.486 0
M  V30 26614 N 2676.43 0.988009 -4.5254 0
M  V30 26615 C 2677.16 1.11079 -5.62538 0
M  V30 26616 N 2676.66 1.19907 -6.82345 0
M  V30 26617 N 2678.45 1.14399 -5.50336 0
M  V30 26618 H 2670.6 -0.599314 -2.03769 0
M  V30 26619 H 2672.86 -0.206926 -0.925141 0
M  V30 26620 H 2672.57 -0.179457 -3.51242 0
M  V30 26621 H 2672.44 1.56884 -3.43026 0
M  V30 26622 H 2674.83 1.65639 -2.44229 0
M  V30 26623 H 2674.91 -0.107527 -2.55574 0
M  V30 26624 H 2674.56 0.0607034 -5.07864 0
M  V30 26625 H 2674.49 1.83511 -4.9359 0
M  V30 26626 H 2676.98 0.931102 -3.6625 0
M  V30 26627 H 2677.29 1.29184 -7.61926 0
M  V30 26628 H 2675.63 1.16864 -6.85104 0
M  V30 26629 H 2678.83 1.0715 -4.55671 0
M  V30 26630 H 2679 1.23623 -6.36099 0
M  V30 26631 N 2672.4 1.4905 0.512027 0
M  V30 26632 C 2673.33 1.67812 1.62362 0
M  V30 26633 C 2674.32 0.526837 1.61736 0
M  V30 26634 O 2675.5 0.761435 1.7865 0
M  V30 26635 C 2672.63 1.7344 3.00892 0
M  V30 26636 C 2671.58 2.88248 3.16382 0
M  V30 26637 C 2670.91 2.7898 4.56152 0
M  V30 26638 C 2672.21 4.29327 2.97449 0
M  V30 26639 H 2673.9 2.60875 1.46916 0
M  V30 26640 H 2671.45 1.25542 0.705357 0
M  V30 26641 H 2673.4 1.85152 3.78546 0
M  V30 26642 H 2672.13 0.769675 3.17401 0
M  V30 26643 H 2670.79 2.7612 2.4115 0
M  V30 26644 H 2670.43 1.80438 4.69522 0
M  V30 26645 H 2670.13 3.56029 4.67458 0
M  V30 26646 H 2671.66 2.92684 5.35881 0
M  V30 26647 H 2673.07 4.42193 3.64881 0
M  V30 26648 H 2671.47 5.07513 3.20236 0
M  V30 26649 H 2672.54 4.44539 1.93684 0
M  V30 26650 N 2673.88 -0.762259 1.3794 0
M  V30 26651 C 2674.83 -1.86624 1.30979 0
M  V30 26652 C 2675.82 -1.59705 0.195743 0
M  V30 26653 O 2677.01 -1.71673 0.430968 0
M  V30 26654 C 2674.14 -3.24221 1.12852 0
M  V30 26655 C 2673.22 -3.5706 2.28843 0
M  V30 26656 N 2673.61 -3.61015 3.54262 0
M  V30 26657 C 2671.91 -3.87278 2.21205 0
M  V30 26658 C 2672.61 -3.90874 4.30805 0
M  V30 26659 N 2671.59 -4.0726 3.60056 0
M  V30 26660 H 2675.39 -1.87947 2.25949 0
M  V30 26661 H 2672.91 -0.959183 1.31047 0
M  V30 26662 H 2674.9 -4.03212 1.0595 0
M  V30 26663 H 2673.56 -3.24155 0.188081 0
M  V30 26664 H 2674.57 -3.42988 3.88046 0
M  V30 26665 H 2671.25 -3.94979 1.35271 0
M  V30 26666 H 2672.64 -4.0063 5.39393 0
M  V30 26667 N 2675.36 -1.22666 -0.989486 0
M  V30 26668 C 2676.31 -0.997072 -2.10146 0
M  V30 26669 C 2677.3 0.0609485 -1.6929 0
M  V30 26670 O 2678.51 -0.0917839 -1.79766 0
M  V30 26671 H 2674.88 -0.305271 -0.687251 0
M  V30 26672 H 2676.85 -1.94057 -2.26681 0
M  V30 26673 C 2675.6 -0.595145 -3.42569 0
M  V30 26674 H 2674.93 -1.40096 -3.74451 0
M  V30 26675 H 2676.37 -0.473943 -4.21343 0
M  V30 26676 C 2674.83 0.695667 -3.29639 0
M  V30 26677 O 2675.36 1.74721 -3.61712 0
M  V30 26678 N 2673.56 0.668123 -2.82815 0
M  V30 26679 H 2673.11 -0.187915 -2.56914 0
M  V30 26680 H 2673.07 1.53205 -2.74546 0
M  V30 26681 N 2676.84 1.18685 -1.0369 0
M  V30 26682 C 2678.09 1.88198 -0.736605 0
M  V30 26683 C 2678.41 1.8051 0.737633 0
M  V30 26684 O 2677.68 1.22091 1.53201 0
M  V30 26685 H 2676.26 0.6967 -0.269479 0
M  V30 26686 H 2678.92 1.4405 -1.31285 0
M  V30 26687 H 2678.02 2.9433 -1.03807 0
M  V30 26688 N 2678.32 0.815849 1.34839 0
M  V30 26689 C 2679.26 0.230705 2.29644 0
M  V30 26690 C 2680.23 -0.640506 1.53254 0
M  V30 26691 O 2681.42 -0.58364 1.81654 0
M  V30 26692 C 2678.56 -0.607215 3.39716 0
M  V30 26693 C 2677.67 0.285455 4.31056 0
M  V30 26694 C 2676.81 -0.561353 5.28226 0
M  V30 26695 C 2675.85 0.331143 6.11204 0
M  V30 26696 N 2674.98 -0.476179 7.00483 0
M  V30 26697 H 2679.82 1.04455 2.79094 0
M  V30 26698 H 2677.36 0.526619 1.3735 0
M  V30 26699 H 2679.32 -1.10828 4.0221 0
M  V30 26700 H 2677.95 -1.38624 2.91519 0
M  V30 26701 H 2677 0.904686 3.69486 0
M  V30 26702 H 2678.31 0.972016 4.89237 0
M  V30 26703 H 2677.47 -1.12718 5.96137 0
M  V30 26704 H 2676.21 -1.28145 4.70564 0
M  V30 26705 H 2675.21 0.909165 5.42231 0
M  V30 26706 H 2676.44 1.04924 6.70945 0
M  V30 26707 H 2674.38 -1.18008 6.45299 0
M  V30 26708 H 2674.3 0.152141 7.55847 0
M  V30 26709 H 2675.57 -1.02498 7.72732 0
M  V30 26710 N 2679.8 -1.46924 0.570174 0
M  V30 26711 C 2680.73 -2.32963 -0.158233 0
M  V30 26712 C 2681.71 -1.44584 -0.896067 0
M  V30 26713 O 2682.89 -1.73422 -0.873991 0
M  V30 26714 C 2680.02 -3.26621 -1.1805 0
M  V30 26715 C 2678.98 -4.24343 -0.558305 0
M  V30 26716 C 2678.3 -5.07418 -1.68614 0
M  V30 26717 C 2679.6 -5.19936 0.496386 0
M  V30 26718 H 2681.3 -2.94114 0.560098 0
M  V30 26719 H 2678.84 -1.41431 0.2708 0
M  V30 26720 H 2680.79 -3.85661 -1.69834 0
M  V30 26721 H 2679.52 -2.63552 -1.92894 0
M  V30 26722 H 2678.18 -3.66548 -0.0616513 0
M  V30 26723 H 2677.83 -4.40743 -2.42394 0
M  V30 26724 H 2677.53 -5.73589 -1.27554 0
M  V30 26725 H 2679.05 -5.69319 -2.20699 0
M  V30 26726 H 2680.46 -5.73264 0.064106 0
M  V30 26727 H 2678.86 -5.9438 0.826595 0
M  V30 26728 H 2679.93 -4.64627 1.38743 0
M  V30 26729 N 2681.27 -0.307291 -1.54575 0
M  V30 26730 C 2682.68 0.184088 -1.8579 0
M  V30 26731 C 2683.04 1.52925 -1.22916 0
M  V30 26732 O 2682.16 2.0983 -0.529163 0
M  V30 26733 C 2682.76 0.340803 -3.37082 0
M  V30 26734 C 2681.31 0.776401 -3.68306 0
M  V30 26735 C 2680.46 -0.111551 -2.77076 0
M  V30 26736 H 2683.41 -0.528105 -1.49655 0
M  V30 26737 H 2683.43 1.17437 -3.61924 0
M  V30 26738 H 2682.95 -0.638376 -3.82814 0
M  V30 26739 H 2681.05 1.76591 -3.28095 0
M  V30 26740 H 2681.16 0.591429 -4.75436 0
M  V30 26741 H 2679.52 0.410212 -2.51375 0
M  V30 26742 H 2680.31 -1.0872 -3.2563 0
M  V30 26743 N 2682.75 1.57561 -0.0351337 0
M  V30 26744 C 2683.98 1.96351 0.652223 0
M  V30 26745 C 2684.39 0.911926 1.65316 0
M  V30 26746 O 2683.75 -0.105625 1.82194 0
M  V30 26747 C 2683.8 3.35213 1.35331 0
M  V30 26748 O 2683.52 4.36338 0.392472 0
M  V30 26749 C 2685.02 3.88669 2.13192 0
M  V30 26750 H 2682.24 0.646564 0.179433 0
M  V30 26751 H 2684.79 2.04271 -0.0966819 0
M  V30 26752 H 2682.94 3.28493 2.05356 0
M  V30 26753 H 2683.36 5.16877 0.891007 0
M  V30 26754 H 2684.83 4.88159 2.57691 0
M  V30 26755 H 2685.31 3.23236 2.97347 0
M  V30 26756 H 2685.91 3.98677 1.48111 0
M  V30 26757 N 2684.23 -0.238084 1.55791 0
M  V30 26758 C 2685.65 -0.587019 1.48412 0
M  V30 26759 C 2685.85 -1.87926 0.727053 0
M  V30 26760 O 2684.9 -2.51158 0.259986 0
M  V30 26761 C 2686.21 -0.681572 2.92874 0
M  V30 26762 C 2687.76 -0.773309 3.03297 0
M  V30 26763 C 2688.24 -0.899349 4.49083 0
M  V30 26764 N 2689.73 -0.963995 4.53058 0
M  V30 26765 C 2690.46 -1.08094 5.63119 0
M  V30 26766 N 2689.96 -1.16287 6.82971 0
M  V30 26767 N 2691.75 -1.11479 5.50935 0
M  V30 26768 H 2683.9 0.610112 2.03449 0
M  V30 26769 H 2686.17 0.211829 0.92403 0
M  V30 26770 H 2685.87 0.198082 3.51142 0
M  V30 26771 H 2685.75 -1.55063 3.43854 0
M  V30 26772 H 2688.13 -1.64341 2.45104 0
M  V30 26773 H 2688.21 0.121079 2.55513 0
M  V30 26774 H 2687.86 -0.0337693 5.07889 0
M  V30 26775 H 2687.79 -1.80891 4.94556 0
M  V30 26776 H 2690.28 -0.911666 3.66738 0
M  V30 26777 H 2690.59 -1.25142 7.626 0
M  V30 26778 H 2688.94 -1.13229 6.85714 0
M  V30 26779 H 2692.13 -1.04732 4.56233 0
M  V30 26780 H 2692.3 -1.20247 6.36745 0
M  V30 26781 N 2685.71 -1.4932 -0.504115 0
M  V30 26782 C 2686.67 -1.65247 -1.58827 0
M  V30 26783 C 2687.67 -0.524412 -1.52008 0
M  V30 26784 O 2688.86 -0.790797 -1.55216 0
M  V30 26785 C 2685.99 -1.64692 -2.98478 0
M  V30 26786 H 2687.19 -2.61942 -1.46036 0
M  V30 26787 H 2684.74 -1.38304 -0.72812 0
M  V30 26788 H 2685.47 -0.695699 -3.1675 0
M  V30 26789 H 2685.26 -2.46612 -3.04836 0
M  V30 26790 H 2686.75 -1.79082 -3.77252 0
M  V30 26791 N 2687.19 0.754933 -1.38342 0
M  V30 26792 C 2688.12 1.87661 -1.2984 0
M  V30 26793 C 2689.1 1.61648 -0.175687 0
M  V30 26794 O 2690.28 1.85169 -0.352778 0
M  V30 26795 C 2687.41 3.23244 -1.01147 0
M  V30 26796 C 2686.45 3.68147 -2.15338 0
M  V30 26797 S 2687.29 3.79842 -3.77466 0
M  V30 26798 C 2688.44 5.18247 -3.50957 0
M  V30 26799 H 2688.68 1.94586 -2.24774 0
M  V30 26800 H 2686.21 0.917775 -1.24162 0
M  V30 26801 H 2688.17 4.01545 -0.852757 0
M  V30 26802 H 2686.83 3.14 -0.0793336 0
M  V30 26803 H 2686.02 4.66487 -1.90804 0
M  V30 26804 H 2685.62 2.96996 -2.27309 0
M  V30 26805 H 2687.91 6.03958 -3.06988 0
M  V30 26806 H 2688.86 5.47801 -4.48686 0
M  V30 26807 H 2689.27 4.8698 -2.855 0
M  V30 26808 N 2688.66 1.23189 0.982967 0
M  V30 26809 C 2689.94 0.970737 1.69812 0
M  V30 26810 C 2690.32 -0.511388 2.04812 0
M  V30 26811 O 2689.67 -1.48195 1.73927 0
M  V30 26812 C 2689.88 1.87837 2.9414 0
M  V30 26813 C 2691.23 2.14032 3.66709 0
M  V30 26814 O 2692.25 1.85366 3.04168 0
M  V30 26815 O 2691.11 2.62637 4.79254 0
M  V30 26816 H 2688.2 0.365897 0.741652 0
M  V30 26817 H 2690.75 1.3422 1.03842 0
M  V30 26818 H 2689.52 2.88043 2.64853 0
M  V30 26819 H 2689.14 1.50912 3.67847 0
M  V30 26820 N 2690.14 -1.18133 1.04318 0
M  V30 26821 C 2691.39 -1.88177 0.748053 0
M  V30 26822 C 2691.72 -1.80508 -0.724379 0
M  V30 26823 O 2690.97 -1.20168 -1.54461 0
M  V30 26824 C 2691.27 -3.37956 1.16277 0
M  V30 26825 C 2690.94 -3.65829 2.63591 0
M  V30 26826 C 2689.6 -3.73145 3.03835 0
M  V30 26827 C 2691.95 -3.7801 3.58829 0
M  V30 26828 C 2689.28 -3.90125 4.382 0
M  V30 26829 C 2691.63 -3.96506 4.92916 0
M  V30 26830 C 2690.29 -4.02059 5.32827 0
M  V30 26831 H 2689.56 -0.688587 0.273732 0
M  V30 26832 H 2692.21 -1.39808 1.30866 0
M  V30 26833 H 2690.52 -3.8832 0.521007 0
M  V30 26834 H 2692.21 -3.90497 0.911741 0
M  V30 26835 H 2688.8 -3.60753 2.31421 0
M  V30 26836 H 2692.99 -3.71687 3.28881 0
M  V30 26837 H 2688.24 -3.92669 4.68638 0
M  V30 26838 H 2692.42 -4.04873 5.66614 0
M  V30 26839 H 2690.04 -4.14968 6.3695 0
M  V30 26840 N 2691.62 -0.822988 -1.34405 0
M  V30 26841 C 2692.57 -0.233206 -2.31428 0
M  V30 26842 C 2693.56 0.62609 -1.57405 0
M  V30 26843 O 2694.77 0.517423 -1.72403 0
M  V30 26844 H 2691.14 -0.0566689 -0.749862 0
M  V30 26845 H 2693.11 -1.06633 -2.78697 0
M  V30 26846 C 2691.86 0.590203 -3.42654 0
M  V30 26847 H 2691.19 -0.0616831 -3.99752 0
M  V30 26848 H 2692.63 0.968981 -4.12779 0
M  V30 26849 C 2691.09 1.76257 -2.87115 0
M  V30 26850 O 2691.62 2.86075 -2.82 0
M  V30 26851 N 2689.82 1.57934 -2.43937 0
M  V30 26852 H 2689.37 0.686035 -2.48297 0
M  V30 26853 H 2689.33 2.36528 -2.07127 0
M  V30 26854 N 2693.1 1.4662 -0.577957 0
M  V30 26855 C 2694.35 2.02006 -0.0616015 0
M  V30 26856 C 2694.67 1.45242 1.30114 0
M  V30 26857 O 2693.94 0.635322 1.85312 0
M  V30 26858 H 2692.52 0.746738 -0.0197823 0
M  V30 26859 H 2695.18 1.7978 -0.752663 0
M  V30 26860 H 2694.28 3.12098 0.0109689 0
M  V30 26861 N 2694.58 0.315484 1.5441 0
M  V30 26862 C 2695.83 -0.29036 1.99599 0
M  V30 26863 C 2696.14 -1.5388 1.20749 0
M  V30 26864 O 2697.34 -2.22014 1.56275 0
M  V30 26865 C 2695.8 -0.567908 3.55391 0
M  V30 26866 C 2695.41 0.663023 4.43067 0
M  V30 26867 C 2697.15 -1.13415 4.09069 0
M  V30 26868 C 2695.06 0.357825 5.90317 0
M  V30 26869 H 2693.99 -0.112272 0.745594 0
M  V30 26870 H 2696.64 0.426449 1.78476 0
M  V30 26871 H 2695.02 -1.34469 3.7247 0
M  V30 26872 H 2696.2 1.43877 4.37763 0
M  V30 26873 H 2694.51 1.14891 4.00236 0
M  V30 26874 H 2697.11 -1.37698 5.16666 0
M  V30 26875 H 2697.45 -2.08099 3.60556 0
M  V30 26876 H 2697.98 -0.418736 3.9559 0
M  V30 26877 H 2694.72 1.27362 6.43008 0
M  V30 26878 H 2694.24 -0.380367 5.98593 0
M  V30 26879 H 2695.92 -0.0353146 6.4699 0
M  V30 26880 N 2696.05 -1.5754 0.0434891 0
M  V30 26881 C 2696.98 -2.1411 -0.931613 0
M  V30 26882 C 2697.97 -1.06082 -1.32969 0
M  V30 26883 O 2699.15 -1.33985 -1.40576 0
M  V30 26884 C 2696.28 -2.67986 -2.20909 0
M  V30 26885 C 2695.23 -3.8093 -1.95132 0
M  V30 26886 C 2694.56 -4.21291 -3.29269 0
M  V30 26887 C 2695.86 -5.06397 -1.27904 0
M  V30 26888 H 2697.55 -2.95838 -0.460445 0
M  V30 26889 H 2695.1 -1.42309 -0.220033 0
M  V30 26890 H 2697.05 -3.06199 -2.89517 0
M  V30 26891 H 2695.78 -1.83439 -2.70218 0
M  V30 26892 H 2694.44 -3.43177 -1.28939 0
M  V30 26893 H 2694.08 -3.33706 -3.76364 0
M  V30 26894 H 2693.78 -4.97409 -3.12823 0
M  V30 26895 H 2695.31 -4.62098 -3.99121 0
M  V30 26896 H 2696.72 -5.42105 -1.86534 0
M  V30 26897 H 2695.12 -5.87607 -1.21809 0
M  V30 26898 H 2696.19 -4.84234 -0.253981 0
M  V30 26899 N 2697.53 0.229818 -1.55915 0
M  V30 26900 C 2698.76 0.97253 -1.82618 0
M  V30 26901 C 2699.18 1.78277 -0.62152 0
M  V30 26902 O 2698.53 1.77837 0.409925 0
M  V30 26903 C 2698.58 1.89674 -3.07744 0
M  V30 26904 O 2698.3 1.11926 -4.23561 0
M  V30 26905 C 2699.81 2.75403 -3.47373 0
M  V30 26906 H 2697.03 0.285408 -0.607275 0
M  V30 26907 H 2699.57 0.247543 -2.02996 0
M  V30 26908 H 2697.72 2.57578 -2.89365 0
M  V30 26909 H 2698.14 1.7459 -4.94589 0
M  V30 26910 H 2699.61 3.35969 -4.37982 0
M  V30 26911 H 2700.09 3.47381 -2.68743 0
M  V30 26912 H 2700.7 2.12925 -3.68162 0
M  V30 26913 N 2699.01 1.49585 0.49619 0
M  V30 26914 C 2700.26 1.58561 1.24665 0
M  V30 26915 C 2700.57 0.279737 1.93589 0
M  V30 26916 O 2701.78 0.248095 2.70364 0
M  V30 26917 C 2700.23 2.79783 2.26384 0
M  V30 26918 C 2699.84 4.17148 1.63377 0
M  V30 26919 C 2701.59 2.98091 3.02228 0
M  V30 26920 C 2699.49 5.29587 2.63234 0
M  V30 26921 H 2698.42 0.590397 0.468985 0
M  V30 26922 H 2701.07 1.75979 0.519954 0
M  V30 26923 H 2699.46 2.55869 3.02237 0
M  V30 26924 H 2700.63 4.51218 0.934831 0
M  V30 26925 H 2698.95 4.04237 0.99905 0
M  V30 26926 H 2701.54 3.79264 3.76913 0
M  V30 26927 H 2701.89 2.08838 3.60129 0
M  V30 26928 H 2702.42 3.22067 2.3349 0
M  V30 26929 H 2699.16 6.20915 2.10108 0
M  V30 26930 H 2698.68 4.99965 3.31354 0
M  V30 26931 H 2700.36 5.59121 3.25566 0
M  V30 26932 N 2700.49 -0.747586 1.3874 0
M  V30 26933 C 2701.9 -1.05146 1.20069 0
M  V30 26934 C 2702.1 -2.01429 0.0535189 0
M  V30 26935 O 2701.16 -2.45297 -0.598817 0
M  V30 26936 C 2702.47 -1.62579 2.52959 0
M  V30 26937 C 2704.02 -1.74721 2.59695 0
M  V30 26938 C 2704.5 -2.35566 3.92776 0
M  V30 26939 N 2705.99 -2.4299 3.94348 0
M  V30 26940 C 2706.72 -2.90977 4.94085 0
M  V30 26941 N 2706.22 -3.38954 6.0422 0
M  V30 26942 N 2708.01 -2.90072 4.81472 0
M  V30 26943 H 2700.16 -0.108771 2.12121 0
M  V30 26944 H 2702.43 -0.110882 0.941493 0
M  V30 26945 H 2702.13 -0.992991 3.37391 0
M  V30 26946 H 2702.01 -2.6156 2.71783 0
M  V30 26947 H 2704.39 -2.37127 1.75655 0
M  V30 26948 H 2704.47 -0.744283 2.44733 0
M  V30 26949 H 2704.12 -1.73792 4.77241 0
M  V30 26950 H 2704.05 -3.36512 4.05052 0
M  V30 26951 H 2706.54 -2.09064 3.14802 0
M  V30 26952 H 2706.85 -3.74044 6.76248 0
M  V30 26953 H 2705.2 -3.36996 6.07831 0
M  V30 26954 H 2708.39 -2.51905 3.9454 0
M  V30 26955 H 2708.56 -3.27157 5.5935 0
M  V30 26956 N 2701.97 -1.23709 -0.97642 0
M  V30 26957 C 2702.91 -1.0193 -2.09076 0
M  V30 26958 C 2703.91 0.0429896 -1.69345 0
M  V30 26959 O 2705.11 -0.110845 -1.79658 0
M  V30 26960 H 2701.49 -0.312543 -0.683974 0
M  V30 26961 H 2703.46 -1.96451 -2.2461 0
M  V30 26962 C 2702.21 -0.631445 -3.41918 0
M  V30 26963 H 2701.53 -1.44059 -3.72944 0
M  V30 26964 H 2702.97 -0.518606 -4.20816 0
M  V30 26965 C 2701.43 0.660665 -3.30359 0
M  V30 26966 O 2701.96 1.70875 -3.63545 0
M  V30 26967 N 2700.17 0.638089 -2.83508 0
M  V30 26968 H 2699.71 -0.215153 -2.567 0
M  V30 26969 H 2699.67 1.50284 -2.76156 0
M  V30 26970 N 2703.44 1.17579 -1.04943 0
M  V30 26971 C 2704.69 1.88055 -0.759145 0
M  V30 26972 C 2705.02 1.80682 0.711887 0
M  V30 26973 O 2704.3 1.2131 1.52033 0
M  V30 26974 C 2704.58 3.38185 -1.23706 0
M  V30 26975 C 2704.43 3.54322 -2.77084 0
M  V30 26976 C 2705.75 4.32124 -0.83409 0
M  V30 26977 H 2702.87 0.682863 -0.277249 0
M  V30 26978 H 2705.51 1.38284 -1.30298 0
M  V30 26979 H 2703.66 3.80704 -0.774404 0
M  V30 26980 H 2705.34 3.20836 -3.31455 0
M  V30 26981 H 2703.58 2.96684 -3.16482 0
M  V30 26982 H 2704.25 4.59698 -3.05585 0
M  V30 26983 H 2706.73 3.97432 -1.23235 0
M  V30 26984 H 2705.6 5.35709 -1.19613 0
M  V30 26985 H 2705.86 4.41322 0.262117 0
M  V30 26986 N 2704.92 0.830104 1.33967 0
M  V30 26987 C 2705.85 0.21452 2.28194 0
M  V30 26988 C 2706.87 -0.599725 1.51351 0
M  V30 26989 O 2708.06 -0.42823 1.73287 0
M  V30 26990 C 2705.16 -0.717298 3.31222 0
M  V30 26991 C 2704.33 0.0556899 4.37365 0
M  V30 26992 C 2703.39 -0.79814 5.20112 0
M  V30 26993 O 2702.41 -0.240516 5.68692 0
M  V30 26994 N 2703.62 -2.11685 5.40527 0
M  V30 26995 H 2706.38 1.0241 2.8166 0
M  V30 26996 H 2703.94 0.687739 1.46567 0
M  V30 26997 H 2705.93 -1.29327 3.8348 0
M  V30 26998 H 2704.5 -1.4276 2.78098 0
M  V30 26999 H 2703.72 0.813004 3.85725 0
M  V30 27000 H 2705.01 0.587533 5.05396 0
M  V30 27001 H 2704.41 -2.59354 5.02745 0
M  V30 27002 H 2702.97 -2.64151 5.95875 0
M  V30 27003 N 2706.4 -1.46311 0.585725 0
M  V30 27004 C 2707.33 -2.33118 -0.133516 0
M  V30 27005 C 2708.31 -1.45527 -0.880682 0
M  V30 27006 O 2709.5 -1.74339 -0.855548 0
M  V30 27007 C 2706.63 -3.27855 -1.14579 0
M  V30 27008 C 2705.58 -4.24911 -0.513266 0
M  V30 27009 C 2704.91 -5.09178 -1.63222 0
M  V30 27010 C 2706.21 -5.1938 0.551504 0
M  V30 27011 H 2707.9 -2.93504 0.591261 0
M  V30 27012 H 2705.45 -1.41136 0.285786 0
M  V30 27013 H 2707.4 -3.87441 -1.65734 0
M  V30 27014 H 2706.12 -2.65583 -1.90088 0
M  V30 27015 H 2704.78 -3.66593 -0.0227705 0
M  V30 27016 H 2704.43 -4.43289 -2.37706 0
M  V30 27017 H 2704.13 -5.74909 -1.21463 0
M  V30 27018 H 2705.66 -5.71628 -2.14648 0
M  V30 27019 H 2707.07 -5.73164 0.124905 0
M  V30 27020 H 2705.47 -5.9347 0.88959 0
M  V30 27021 H 2706.54 -4.6313 1.43663 0
M  V30 27022 N 2707.88 -0.323668 -1.54241 0
M  V30 27023 C 2709.1 0.283568 -2.05452 0
M  V30 27024 C 2709.53 1.44995 -1.19826 0
M  V30 27025 O 2708.89 1.8011 -0.20739 0
M  V30 27026 C 2708.94 0.695732 -3.53825 0
M  V30 27027 O 2708.04 1.79809 -3.71137 0
M  V30 27028 H 2707.38 0.0511801 -0.662025 0
M  V30 27029 H 2709.91 -0.472108 -1.99079 0
M  V30 27030 H 2709.92 0.978365 -3.96096 0
M  V30 27031 H 2708.6 -0.15736 -4.15602 0
M  V30 27032 H 2707.17 1.51425 -3.40771 0
M  V30 27033 N 2709.36 1.57515 -0.0518432 0
M  V30 27034 C 2710.63 1.84068 0.661694 0
M  V30 27035 C 2711.01 0.940384 1.88997 0
M  V30 27036 O 2710.36 0.0015942 2.285 0
M  V30 27037 C 2710.57 3.33812 1.01835 0
M  V30 27038 C 2711.92 4.00843 1.40036 0
M  V30 27039 O 2712.94 3.38441 1.11067 0
M  V30 27040 O 2711.8 5.10869 1.94102 0
M  V30 27041 H 2708.9 0.759739 0.326688 0
M  V30 27042 H 2711.44 1.69505 -0.0812575 0
M  V30 27043 H 2710.22 3.91031 0.145134 0
M  V30 27044 H 2709.84 3.53565 1.81873 0
M  V30 27045 N 2710.84 -0.221546 1.56035 0
M  V30 27046 C 2711.8 -1.25807 1.91586 0
M  V30 27047 C 2712.8 -1.39804 0.794449 0
M  V30 27048 O 2713.99 -1.38069 1.0622 0
M  V30 27049 C 2711.12 -2.63188 2.16668 0
M  V30 27050 H 2712.31 -0.954885 2.84292 0
M  V30 27051 H 2709.87 -0.461961 1.49317 0
M  V30 27052 H 2710.6 -2.98605 1.26514 0
M  V30 27053 H 2710.39 -2.54405 2.98363 0
M  V30 27054 H 2711.88 -3.37984 2.45268 0
M  V30 27055 N 2712.31 -1.49846 -0.48825 0
M  V30 27056 C 2713.56 -1.59659 -1.23909 0
M  V30 27057 C 2713.88 -0.291039 -1.92816 0
M  V30 27058 O 2713.15 0.690453 -1.83329 0
M  V30 27059 H 2711.73 -0.588294 -0.460347 0
M  V30 27060 H 2714.39 -1.86538 -0.564761 0
M  V30 27061 H 2713.49 -2.39912 -1.99621 0
M  V30 27062 N 2713.79 0.740218 -1.39135 0
M  V30 27063 C 2715.02 1.52947 -1.39337 0
M  V30 27064 C 2715.43 1.88795 0.0134676 0
M  V30 27065 O 2714.79 1.53732 0.983497 0
M  V30 27066 C 2714.84 2.8203 -2.26145 0
M  V30 27067 O 2714.56 2.47706 -3.61349 0
M  V30 27068 C 2716.06 3.7609 -2.34673 0
M  V30 27069 H 2713.28 0.47282 -0.476111 0
M  V30 27070 H 2715.83 0.915068 -1.82885 0
M  V30 27071 H 2713.98 3.39814 -1.86024 0
M  V30 27072 H 2714.4 3.30588 -4.072 0
M  V30 27073 H 2715.87 4.63574 -2.99672 0
M  V30 27074 H 2716.35 4.17472 -1.36433 0
M  V30 27075 H 2716.95 3.24226 -2.75242 0
M  V30 27076 N 2715.27 1.24225 0.969846 0
M  V30 27077 C 2716.5 1.10603 1.74501 0
M  V30 27078 C 2716.91 -0.34445 1.86038 0
M  V30 27079 O 2716.25 -1.24958 1.34652 0
M  V30 27080 C 2716.31 1.66941 3.18388 0
M  V30 27081 C 2715.98 3.15804 3.30328 0
M  V30 27082 C 2716.97 4.12978 3.15824 0
M  V30 27083 C 2714.66 3.55721 3.54638 0
M  V30 27084 C 2716.65 5.48051 3.25451 0
M  V30 27085 C 2714.34 4.90936 3.63903 0
M  V30 27086 C 2715.34 5.8691 3.49322 0
M  V30 27087 O 2715.03 7.19667 3.58239 0
M  V30 27088 H 2714.76 0.387216 0.554112 0
M  V30 27089 H 2717.31 1.64766 1.22643 0
M  V30 27090 H 2715.54 1.0721 3.71541 0
M  V30 27091 H 2717.23 1.48641 3.77704 0
M  V30 27092 H 2718 3.83481 2.9693 0
M  V30 27093 H 2713.88 2.81525 3.65054 0
M  V30 27094 H 2717.42 6.22943 3.13987 0
M  V30 27095 H 2713.32 5.20105 3.8231 0
M  V30 27096 H 2714.08 7.27559 3.74967 0
M  V30 27097 N 2716.75 -1.1702 1.05565 0
M  V30 27098 C 2717.99 -1.8765 0.769107 0
M  V30 27099 C 2718.33 -1.81057 -0.702295 0
M  V30 27100 O 2717.6 -1.22115 -1.51388 0
M  V30 27101 C 2717.88 -3.37524 1.25498 0
M  V30 27102 C 2717.74 -3.52848 2.78959 0
M  V30 27103 C 2719.06 -4.31675 0.856994 0
M  V30 27104 H 2716.18 -0.681383 0.280866 0
M  V30 27105 H 2718.82 -1.37591 1.3103 0
M  V30 27106 H 2716.97 -3.80288 0.794583 0
M  V30 27107 H 2718.64 -3.19073 3.33151 0
M  V30 27108 H 2716.88 -2.95001 3.18051 0
M  V30 27109 H 2717.55 -4.5807 3.08019 0
M  V30 27110 H 2720.03 -3.96773 1.25341 0
M  V30 27111 H 2718.91 -5.35067 1.22452 0
M  V30 27112 H 2719.17 -4.41455 -0.238709 0
M  V30 27113 N 2718.23 -0.837197 -1.33524 0
M  V30 27114 C 2719.47 -0.43815 -1.99649 0
M  V30 27115 C 2719.83 0.983787 -1.64881 0
M  V30 27116 O 2721.03 1.48647 -2.23959 0
M  V30 27117 C 2719.3 -0.650523 -3.5143 0
M  V30 27118 S 2720.86 -0.346447 -4.3743 0
M  V30 27119 H 2717.68 -0.164884 -0.691617 0
M  V30 27120 H 2720.28 -1.08612 -1.62554 0
M  V30 27121 H 2718.98 -1.68482 -3.74222 0
M  V30 27122 H 2718.52 0.0116618 -3.93398 0
M  V30 27123 H 2720.53 0.834418 -4.89134 0
M  V30 27124 N 2719.7 1.45999 -0.593476 0
M  V30 27125 C 2720.93 2.06708 -0.0891297 0
M  V30 27126 C 2721.35 1.44048 1.22048 0
M  V30 27127 O 2720.7 0.549581 1.74028 0
M  V30 27128 C 2720.75 3.61428 0.0719628 0
M  V30 27129 O 2720.48 4.21746 -1.18582 0
M  V30 27130 C 2721.98 4.39091 0.60941 0
M  V30 27131 H 2719.2 0.668095 -0.0623745 0
M  V30 27132 H 2721.74 1.87462 -0.817204 0
M  V30 27133 H 2719.9 3.80065 0.750302 0
M  V30 27134 H 2720.31 5.14752 -1.00649 0
M  V30 27135 H 2721.78 5.47903 0.671267 0
M  V30 27136 H 2722.26 4.07884 1.62871 0
M  V30 27137 H 2722.87 4.25286 -0.0344148 0
M  V30 27138 N 2721.18 0.331843 1.54067 0
M  V30 27139 C 2722.43 -0.267704 2.00319 0
M  V30 27140 C 2722.75 -1.52001 1.22151 0
M  V30 27141 O 2722.02 -1.93176 0.325527 0
M  V30 27142 H 2720.6 -0.101909 0.740016 0
M  V30 27143 H 2723.26 0.4503 1.89627 0
M  V30 27144 H 2722.36 -0.518331 3.07766 0
M  V30 27145 N 2722.66 -1.57485 0.0601958 0
M  V30 27146 C 2723.89 -1.97778 -0.624381 0
M  V30 27147 C 2724.31 -0.937896 -1.63049 0
M  V30 27148 O 2723.67 0.0978527 -1.81036 0
M  V30 27149 C 2723.72 -3.37128 -1.27973 0
M  V30 27150 O 2722.82 -3.35692 -2.3955 0
M  V30 27151 H 2722.16 -0.644043 -0.16157 0
M  V30 27152 H 2724.69 -2.04178 0.131272 0
M  V30 27153 H 2724.7 -3.74056 -1.6293 0
M  V30 27154 H 2723.38 -4.12348 -0.542428 0
M  V30 27155 H 2721.95 -3.10521 -2.06473 0
M  V30 27156 N 2724.14 0.213268 -1.5615 0
M  V30 27157 C 2725.09 1.28391 -1.93955 0
M  V30 27158 C 2726.08 1.48086 -0.822618 0
M  V30 27159 O 2727.29 1.49162 -1.00751 0
M  V30 27160 H 2723.66 0.430635 -0.616488 0
M  V30 27161 H 2725.63 0.937927 -2.83276 0
M  V30 27162 C 2724.38 2.62533 -2.27973 0
M  V30 27163 H 2723.7 2.48188 -3.13437 0
M  V30 27164 H 2725.14 3.36238 -2.58303 0
M  V30 27165 C 2723.6 3.18165 -1.10781 0
M  V30 27166 O 2724.13 3.99962 -0.373272 0
M  V30 27167 N 2722.34 2.76654 -0.889426 0
M  V30 27168 H 2721.89 2.10244 -1.48847 0
M  V30 27169 H 2721.84 3.14218 -0.107055 0
M  V30 27170 N 2725.62 1.50103 0.480296 0
M  V30 27171 C 2726.55 1.62922 1.59786 0
M  V30 27172 C 2727.53 0.477585 1.55428 0
M  V30 27173 O 2728.71 0.695882 1.75185 0
M  V30 27174 C 2725.84 1.60331 2.98348 0
M  V30 27175 C 2724.88 2.80943 3.20894 0
M  V30 27176 S 2725.72 4.42365 3.01784 0
M  V30 27177 C 2726.87 4.42452 4.42704 0
M  V30 27178 H 2727.11 2.57457 1.48672 0
M  V30 27179 H 2724.64 1.39251 0.666971 0
M  V30 27180 H 2726.6 1.59521 3.78237 0
M  V30 27181 H 2725.26 0.670473 3.06861 0
M  V30 27182 H 2724.45 2.75408 4.22097 0
M  V30 27183 H 2724.05 2.79272 2.48763 0
M  V30 27184 H 2726.35 4.15447 5.35173 0
M  V30 27185 H 2727.29 5.44003 4.53284 0
M  V30 27186 H 2727.7 3.72271 4.24352 0
M  V30 27187 N 2727.09 -0.732829 1.39526 0
M  V30 27188 C 2728.34 -1.49243 1.36867 0
M  V30 27189 C 2728.67 -1.94469 -0.0346776 0
M  V30 27190 O 2727.92 -1.67264 -1.01593 0
M  V30 27191 C 2728.22 -2.74463 2.2892 0
M  V30 27192 C 2727.89 -2.48094 3.76511 0
M  V30 27193 C 2726.55 -2.40612 4.16725 0
M  V30 27194 C 2728.9 -2.25589 4.6985 0
M  V30 27195 C 2726.23 -2.08669 5.48338 0
M  V30 27196 C 2728.58 -1.95164 6.01742 0
M  V30 27197 C 2727.25 -1.86152 6.41018 0
M  V30 27198 H 2726.52 -0.54612 0.500834 0
M  V30 27199 H 2729.16 -0.840928 1.72048 0
M  V30 27200 H 2727.47 -3.44367 1.86865 0
M  V30 27201 H 2729.17 -3.32498 2.24156 0
M  V30 27202 H 2725.76 -2.54797 3.4464 0
M  V30 27203 H 2729.94 -2.30336 4.39612 0
M  V30 27204 H 2725.2 -2.00216 5.77688 0
M  V30 27205 H 2729.37 -1.76759 6.73594 0
M  V30 27206 H 2727 -1.61166 7.4292 0
M  V30 27207 N 2728.57 -1.24737 -0.963244 0
M  V30 27208 C 2729.54 -1.0446 -2.04011 0
M  V30 27209 C 2730.54 -0.00036382 -1.608 0
M  V30 27210 O 2731.73 -0.241749 -1.72514 0
M  V30 27211 C 2728.86 -0.584221 -3.35857 0
M  V30 27212 H 2730.05 -2.00045 -2.23433 0
M  V30 27213 H 2727.6 -1.07023 -1.13912 0
M  V30 27214 H 2728.34 0.374616 -3.22129 0
M  V30 27215 H 2728.12 -1.33797 -3.68566 0
M  V30 27216 H 2729.61 -0.463524 -4.1502 0
M  V30 27217 N 2730.05 1.16459 -1.06184 0
M  V30 27218 C 2730.98 2.19732 -0.615897 0
M  V30 27219 C 2731.96 1.58548 0.360738 0
M  V30 27220 O 2733.15 1.86557 0.269976 0
M  V30 27221 C 2730.27 3.3856 0.0972525 0
M  V30 27222 C 2729.32 4.18227 -0.835963 0
M  V30 27223 S 2730.15 4.82124 -2.3306 0
M  V30 27224 C 2731.31 6.04332 -1.62891 0
M  V30 27225 H 2731.54 2.57219 -1.49083 0
M  V30 27226 H 2729.07 1.27232 -0.874714 0
M  V30 27227 H 2731.03 4.07413 0.502492 0
M  V30 27228 H 2729.69 2.99441 0.948365 0
M  V30 27229 H 2728.89 5.03202 -0.283514 0
M  V30 27230 H 2728.49 3.54863 -1.18103 0
M  V30 27231 H 2730.78 6.71033 -0.933882 0
M  V30 27232 H 2731.72 6.64124 -2.45652 0
M  V30 27233 H 2732.13 5.53439 -1.11199 0
M  V30 27234 N 2731.53 0.844266 1.33079 0
M  V30 27235 C 2732.81 0.364295 1.92178 0
M  V30 27236 C 2733.19 -1.15098 1.76963 0
M  V30 27237 O 2732.53 -1.96788 1.16132 0
M  V30 27238 C 2732.74 0.817166 3.39298 0
M  V30 27239 C 2734.09 0.828309 4.16442 0
M  V30 27240 O 2735.12 0.761123 3.47973 0
M  V30 27241 O 2733.97 0.921021 5.38683 0
M  V30 27242 H 2731.07 0.104205 0.820409 0
M  V30 27243 H 2733.61 0.930478 1.41916 0
M  V30 27244 H 2732.39 1.85997 3.44269 0
M  V30 27245 H 2732.01 0.227855 3.96947 0
M  V30 27246 N 2733.01 -1.45682 0.60121 0
M  V30 27247 C 2733.94 -2.28645 -0.159405 0
M  V30 27248 C 2734.95 -1.39584 -0.837858 0
M  V30 27249 O 2736.14 -1.64017 -0.704316 0
M  V30 27250 C 2733.24 -3.15149 -1.24636 0
M  V30 27251 C 2732.41 -4.32449 -0.656258 0
M  V30 27252 C 2731.47 -5.0021 -1.63328 0
M  V30 27253 O 2730.5 -5.57211 -1.16207 0
M  V30 27254 N 2731.7 -4.9891 -2.96764 0
M  V30 27255 H 2734.47 -2.94564 0.552452 0
M  V30 27256 H 2732.03 -1.55799 0.44025 0
M  V30 27257 H 2734.02 -3.57346 -1.89964 0
M  V30 27258 H 2732.59 -2.51182 -1.86082 0
M  V30 27259 H 2731.81 -3.93812 0.174949 0
M  V30 27260 H 2733.1 -5.08224 -0.242122 0
M  V30 27261 H 2732.49 -4.53879 -3.37654 0
M  V30 27262 H 2731.05 -5.4499 -3.57532 0
M  V30 27263 N 2734.48 -0.340009 -1.53889 0
M  V30 27264 C 2735.73 0.257077 -2.00458 0
M  V30 27265 C 2736.05 1.51351 -1.22955 0
M  V30 27266 O 2735.32 1.93001 -0.335768 0
M  V30 27267 H 2733.9 0.0979835 -0.740546 0
M  V30 27268 H 2736.57 -0.46035 -1.89385 0
M  V30 27269 H 2735.66 0.502002 -3.08036 0
M  V30 27270 N 2735.96 1.57451 -0.0685468 0
M  V30 27271 C 2737.19 1.9769 0.610427 0
M  V30 27272 C 2737.61 0.946787 1.63344 0
M  V30 27273 O 2736.96 -0.0669548 1.82377 0
M  V30 27274 C 2737.01 3.38008 1.2819 0
M  V30 27275 O 2736.74 4.37073 0.299829 0
M  V30 27276 C 2738.24 3.93104 2.049 0
M  V30 27277 H 2735.46 0.650224 0.165678 0
M  V30 27278 H 2738 2.0402 -0.139989 0
M  V30 27279 H 2736.16 3.32775 1.98342 0
M  V30 27280 H 2736.57 5.1865 0.781169 0
M  V30 27281 H 2738.04 4.93515 2.47279 0
M  V30 27282 H 2738.52 3.2947 2.90424 0
M  V30 27283 H 2739.13 4.01729 1.39622 0
M  V30 27284 N 2737.44 -0.204984 1.56261 0
M  V30 27285 C 2738.4 -1.23768 1.9291 0
M  V30 27286 C 2739.4 -1.38953 0.809233 0
M  V30 27287 O 2740.59 -1.36935 1.07678 0
M  V30 27288 C 2737.73 -2.60875 2.19447 0
M  V30 27289 H 2738.92 -0.924678 2.85289 0
M  V30 27290 H 2736.47 -0.446098 1.49799 0
M  V30 27291 H 2737.21 -2.97246 1.29674 0
M  V30 27292 H 2736.99 -2.51226 3.01044 0
M  V30 27293 H 2738.48 -3.35364 2.48839 0
M  V30 27294 N 2738.92 -1.50356 -0.472329 0
M  V30 27295 C 2740.15 -1.65037 -1.24781 0
M  V30 27296 C 2740.56 -0.333209 -1.85836 0
M  V30 27297 O 2739.92 0.68469 -1.69169 0
M  V30 27298 C 2739.97 -2.74058 -2.35742 0
M  V30 27299 O 2739.69 -4.00668 -1.7719 0
M  V30 27300 C 2741.19 -2.99702 -3.2664 0
M  V30 27301 H 2738.41 -0.554791 -0.377423 0
M  V30 27302 H 2740.96 -1.96571 -0.563928 0
M  V30 27303 H 2739.11 -2.45223 -2.99908 0
M  V30 27304 H 2739.53 -4.60949 -2.50252 0
M  V30 27305 H 2741 -3.79651 -4.00711 0
M  V30 27306 H 2741.48 -2.10724 -3.85346 0
M  V30 27307 H 2742.08 -3.30064 -2.68212 0
M  V30 27308 N 2740.4 0.725419 -1.39912 0
M  V30 27309 C 2741.33 1.85252 -1.42141 0
M  V30 27310 C 2742.31 1.6772 -0.283542 0
M  V30 27311 O 2743.49 1.87897 -0.49075 0
M  V30 27312 C 2740.62 3.23105 -1.27359 0
M  V30 27313 C 2739.58 3.55291 -2.38646 0
M  V30 27314 C 2738.9 4.92184 -2.08947 0
M  V30 27315 C 2740.2 3.57288 -3.80976 0
M  V30 27316 H 2741.9 1.83644 -2.36464 0
M  V30 27317 H 2739.44 0.882118 -1.13819 0
M  V30 27318 H 2741.4 4.01637 -1.27537 0
M  V30 27319 H 2740.12 3.25264 -0.295083 0
M  V30 27320 H 2738.78 2.79094 -2.37701 0
M  V30 27321 H 2738.43 4.90934 -1.09511 0
M  V30 27322 H 2738.13 5.14686 -2.835 0
M  V30 27323 H 2739.65 5.73061 -2.10791 0
M  V30 27324 H 2741.07 4.25878 -3.83798 0
M  V30 27325 H 2739.46 3.91312 -4.54967 0
M  V30 27326 H 2740.53 2.56883 -4.11265 0
M  V30 27327 N 2741.88 1.25246 0.956615 0
M  V30 27328 C 2742.83 1.02145 2.03839 0
M  V30 27329 C 2743.81 -0.0409776 1.60848 0
M  V30 27330 O 2745 0.174115 1.76142 0
M  V30 27331 C 2742.13 0.640022 3.37281 0
M  V30 27332 C 2741.22 1.7391 3.86802 0
M  V30 27333 N 2741.61 2.97388 4.09138 0
M  V30 27334 C 2739.91 1.61916 4.15571 0
M  V30 27335 C 2740.61 3.68714 4.49916 0
M  V30 27336 N 2739.58 2.96326 4.55732 0
M  V30 27337 H 2743.38 1.9589 2.19099 0
M  V30 27338 H 2740.9 1.15536 1.14128 0
M  V30 27339 H 2742.9 0.455716 4.14402 0
M  V30 27340 H 2741.56 -0.290123 3.23401 0
M  V30 27341 H 2742.57 3.33454 3.96269 0
M  V30 27342 H 2739.24 0.757836 4.10564 0
M  V30 27343 H 2740.63 4.74692 4.75518 0
M  V30 27344 N 2743.35 -1.15894 1.068 0
M  V30 27345 C 2744.6 -1.86824 0.788967 0
M  V30 27346 C 2744.93 -1.81791 -0.683052 0
M  V30 27347 O 2744.21 -1.23714 -1.50084 0
M  V30 27348 C 2744.49 -3.36174 1.29071 0
M  V30 27349 C 2744.34 -3.49869 2.82686 0
M  V30 27350 C 2745.66 -4.30742 0.902731 0
M  V30 27351 H 2742.78 -0.678366 0.288077 0
M  V30 27352 H 2745.42 -1.36193 1.32482 0
M  V30 27353 H 2743.57 -3.79423 0.834873 0
M  V30 27354 H 2745.25 -3.15522 3.36517 0
M  V30 27355 H 2743.49 -2.91611 3.21162 0
M  V30 27356 H 2744.16 -4.54778 3.1286 0
M  V30 27357 H 2746.64 -3.95421 1.29542 0
M  V30 27358 H 2745.51 -5.33738 1.2812 0
M  V30 27359 H 2745.77 -4.41683 -0.191874 0
M  V30 27360 N 2744.83 -0.851312 -1.32629 0
M  V30 27361 C 2745.76 -0.250797 -2.27824 0
M  V30 27362 C 2746.78 0.575571 -1.52286 0
M  V30 27363 O 2747.97 0.400607 -1.73947 0
M  V30 27364 C 2745.07 0.664512 -3.32321 0
M  V30 27365 C 2744.24 -0.125264 -4.37221 0
M  V30 27366 C 2743.3 0.715293 -5.21316 0
M  V30 27367 O 2742.32 0.150011 -5.69002 0
M  V30 27368 N 2743.53 2.03059 -5.43827 0
M  V30 27369 H 2746.29 -1.06878 -2.79995 0
M  V30 27370 H 2743.85 -0.710969 -1.45454 0
M  V30 27371 H 2745.84 1.2321 -3.85489 0
M  V30 27372 H 2744.41 1.38318 -2.80334 0
M  V30 27373 H 2743.63 -0.874267 -3.84383 0
M  V30 27374 H 2744.92 -0.667863 -5.04398 0
M  V30 27375 H 2744.32 2.51323 -5.06807 0
M  V30 27376 H 2742.88 2.54638 -6.00002 0
M  V30 27377 N 2746.31 1.45361 -0.608928 0
M  V30 27378 C 2747.27 2.28985 0.099216 0
M  V30 27379 C 2748.27 1.3984 0.793817 0
M  V30 27380 O 2749.46 1.61947 0.641776 0
M  V30 27381 C 2746.59 3.20893 1.15067 0
M  V30 27382 H 2747.79 2.93078 -0.636015 0
M  V30 27383 H 2745.34 1.51905 -0.368034 0
M  V30 27384 H 2746.08 2.61603 1.91662 0
M  V30 27385 H 2745.86 3.8656 0.656799 0
M  V30 27386 H 2747.35 3.83768 1.64658 0
M  V30 27387 N 2747.79 0.348166 1.53706 0
M  V30 27388 C 2749.01 -0.250847 2.05877 0
M  V30 27389 C 2749.44 -1.4307 1.22117 0
M  V30 27390 O 2748.8 -1.79757 0.236017 0
M  V30 27391 C 2748.84 -0.639354 3.54887 0
M  V30 27392 O 2747.95 -1.73881 3.73951 0
M  V30 27393 H 2747.29 -0.0406414 0.662755 0
M  V30 27394 H 2749.82 0.50372 1.98302 0
M  V30 27395 H 2749.83 -0.915225 3.97602 0
M  V30 27396 H 2748.5 0.223459 4.15299 0
M  V30 27397 H 2747.08 -1.45985 3.43137 0
M  V30 27398 N 2749.27 -1.57412 0.0768958 0
M  V30 27399 C 2750.51 -1.933 -0.589884 0
M  V30 27400 C 2750.83 -0.958079 -1.69841 0
M  V30 27401 O 2750.1 -0.00706705 -1.95899 0
M  V30 27402 H 2748.68 -0.713595 -0.220888 0
M  V30 27403 H 2751.35 -1.94425 0.135951 0
M  V30 27404 H 2750.44 -2.95241 -1.0119 0
M  V30 27405 N 2750.74 0.196695 -1.56368 0
M  V30 27406 C 2751.97 0.933575 -1.8464 0
M  V30 27407 C 2752.39 1.76918 -0.659195 0
M  V30 27408 O 2751.74 1.78666 0.372111 0
M  V30 27409 C 2751.8 1.83103 -3.11698 0
M  V30 27410 O 2751.52 1.02917 -4.2584 0
M  V30 27411 C 2753.02 2.67973 -3.53137 0
M  V30 27412 H 2750.24 0.272463 -0.613193 0
M  V30 27413 H 2752.78 0.204429 -2.03476 0
M  V30 27414 H 2750.94 2.51382 -2.94764 0
M  V30 27415 H 2751.35 1.6406 -4.98181 0
M  V30 27416 H 2752.82 3.26604 -4.4501 0
M  V30 27417 H 2753.3 3.41603 -2.76051 0
M  V30 27418 H 2753.91 2.05068 -3.72595 0
M  V30 27419 N 2752.22 1.50604 0.464349 0
M  V30 27420 C 2753.15 1.72892 1.56941 0
M  V30 27421 C 2754.13 0.578025 1.59978 0
M  V30 27422 O 2755.32 0.817886 1.76137 0
M  V30 27423 C 2752.45 1.82925 2.95222 0
M  V30 27424 C 2751.4 2.98167 3.07051 0
M  V30 27425 C 2750.73 2.9335 4.47045 0
M  V30 27426 C 2752.03 4.38572 2.8364 0
M  V30 27427 H 2753.72 2.65417 1.38542 0
M  V30 27428 H 2751.27 1.27722 0.665059 0
M  V30 27429 H 2753.22 1.97101 3.72464 0
M  V30 27430 H 2751.95 0.870264 3.14792 0
M  V30 27431 H 2750.6 2.83652 2.32243 0
M  V30 27432 H 2750.25 1.95284 4.63544 0
M  V30 27433 H 2749.95 3.7072 4.55895 0
M  V30 27434 H 2751.48 3.09584 5.26298 0
M  V30 27435 H 2752.89 4.53578 3.50628 0
M  V30 27436 H 2751.29 5.17444 3.03928 0
M  V30 27437 H 2752.36 4.50475 1.79443 0
M  V30 27438 N 2753.7 -0.717989 1.40295 0
M  V30 27439 C 2754.93 -1.51217 1.41944 0
M  V30 27440 C 2755.35 -1.88089 0.0202701 0
M  V30 27441 O 2754.71 -1.53102 -0.971051 0
M  V30 27442 C 2754.76 -2.7655 2.31415 0
M  V30 27443 O 2753.86 -3.73159 1.75574 0
M  V30 27444 H 2753.2 -0.456007 0.482652 0
M  V30 27445 H 2755.73 -0.884445 1.84496 0
M  V30 27446 H 2755.74 -3.25104 2.46518 0
M  V30 27447 H 2754.42 -2.49047 3.33089 0
M  V30 27448 H 2752.99 -3.31996 1.69804 0
M  V30 27449 N 2755.18 -1.25752 -0.94996 0
M  V30 27450 C 2756.14 -1.06618 -2.02892 0
M  V30 27451 C 2757.14 -0.0174188 -1.60791 0
M  V30 27452 O 2758.33 -0.260033 -1.72248 0
M  V30 27453 C 2755.46 -0.61981 -3.35218 0
M  V30 27454 H 2756.66 -2.02403 -2.21298 0
M  V30 27455 H 2754.21 -1.08225 -1.1277 0
M  V30 27456 H 2754.94 0.340429 -3.22508 0
M  V30 27457 H 2754.73 -1.37698 -3.67126 0
M  V30 27458 H 2756.22 -0.507516 -4.14505 0
M  V30 27459 N 2756.66 1.15326 -1.07413 0
M  V30 27460 C 2758.07 1.67714 -0.82029 0
M  V30 27461 C 2758.42 1.84961 0.654507 0
M  V30 27462 O 2757.54 1.55339 1.50661 0
M  V30 27463 C 2758.14 3.04644 -1.48247 0
M  V30 27464 C 2756.7 3.54107 -1.27612 0
M  V30 27465 C 2755.84 2.29818 -1.55174 0
M  V30 27466 H 2758.8 0.99531 -1.23609 0
M  V30 27467 H 2758.82 3.69604 -0.904049 0
M  V30 27468 H 2758.33 2.9206 -2.55583 0
M  V30 27469 H 2756.43 3.71932 -0.223013 0
M  V30 27470 H 2756.54 4.35508 -1.99675 0
M  V30 27471 H 2754.91 2.35391 -0.972788 0
M  V30 27472 H 2755.69 2.1982 -2.63693 0
M  V30 27473 N 2758.13 0.858334 1.32176 0
M  V30 27474 C 2759.38 0.464205 1.97416 0
M  V30 27475 C 2759.71 -0.978484 1.67748 0
M  V30 27476 O 2758.99 -1.68719 0.967684 0
M  V30 27477 C 2759.27 0.708156 3.53068 0
M  V30 27478 C 2759.12 2.19953 3.92353 0
M  V30 27479 C 2760.44 0.166958 4.39783 0
M  V30 27480 H 2757.56 0.170132 0.717094 0
M  V30 27481 H 2760.2 1.07743 1.56497 0
M  V30 27482 H 2758.35 0.186197 3.88054 0
M  V30 27483 H 2760.03 2.78785 3.67528 0
M  V30 27484 H 2758.27 2.67662 3.41379 0
M  V30 27485 H 2758.94 2.32091 5.00837 0
M  V30 27486 H 2761.42 0.613358 4.11555 0
M  V30 27487 H 2760.29 0.367189 5.4767 0
M  V30 27488 H 2760.55 -0.930483 4.32197 0
M  V30 27489 N 2759.61 -1.45036 0.616628 0
M  V30 27490 C 2760.86 -2.02471 0.115537 0
M  V30 27491 C 2761.19 -1.48282 -1.25404 0
M  V30 27492 O 2760.47 -0.661083 -1.82921 0
M  V30 27493 C 2760.75 -3.59996 0.0864221 0
M  V30 27494 C 2760.6 -4.24499 1.4873 0
M  V30 27495 C 2761.92 -4.36036 -0.596685 0
M  V30 27496 H 2759.04 -0.735718 0.0434591 0
M  V30 27497 H 2761.68 -1.72782 0.79033 0
M  V30 27498 H 2759.83 -3.8542 -0.488209 0
M  V30 27499 H 2761.5 -4.1023 2.10971 0
M  V30 27500 H 2759.75 -3.82551 2.04541 0
M  V30 27501 H 2760.42 -5.33447 1.41909 0
M  V30 27502 H 2762.89 -4.15959 -0.108166 0
M  V30 27503 H 2761.77 -5.45761 -0.586193 0
M  V30 27504 H 2762.03 -4.09572 -1.66444 0
M  V30 27505 N 2761.09 -0.356312 -1.53519 0
M  V30 27506 C 2762.32 0.239925 -2.06008 0
M  V30 27507 C 2762.74 1.4242 -1.22874 0
M  V30 27508 O 2762.1 1.79629 -0.245547 0
M  V30 27509 C 2762.15 0.620524 -3.55221 0
M  V30 27510 O 2761.25 1.71896 -3.74867 0
M  V30 27511 H 2760.59 0.0371261 -0.662961 0
M  V30 27512 H 2763.12 -0.514229 -1.98032 0
M  V30 27513 H 2763.13 0.894127 -3.98082 0
M  V30 27514 H 2761.81 -0.24548 -4.15175 0
M  V30 27515 H 2760.38 1.44163 -3.43906 0
M  V30 27516 N 2762.57 1.57369 -0.0852427 0
M  V30 27517 C 2763.82 1.93169 0.580409 0
M  V30 27518 C 2764.13 0.968349 1.69948 0
M  V30 27519 O 2765.34 1.21968 2.42562 0
M  V30 27520 C 2763.79 3.43194 1.08379 0
M  V30 27521 C 2763.4 4.48 -0.00499263 0
M  V30 27522 C 2765.14 3.87971 1.72274 0
M  V30 27523 C 2763.05 5.89169 0.513195 0
M  V30 27524 H 2761.98 0.721014 0.220578 0
M  V30 27525 H 2764.63 1.82804 -0.159653 0
M  V30 27526 H 2763.01 3.48677 1.87724 0
M  V30 27527 H 2764.19 4.54149 -0.780112 0
M  V30 27528 H 2762.5 4.12771 -0.548526 0
M  V30 27529 H 2765.1 4.90834 2.12099 0
M  V30 27530 H 2765.44 3.26076 2.58805 0
M  V30 27531 H 2765.98 3.85148 0.995291 0
M  V30 27532 H 2762.72 6.54741 -0.315268 0
M  V30 27533 H 2762.24 5.86512 1.25554 0
M  V30 27534 H 2763.91 6.39453 0.985321 0
M  V30 27535 N 2764.05 -0.188399 1.5647 0
M  V30 27536 C 2765 -1.2377 1.91481 0
M  V30 27537 C 2765.98 -1.40662 0.781215 0
M  V30 27538 O 2767.17 -1.4292 1.04417 0
M  V30 27539 C 2764.3 -2.58102 2.26358 0
M  V30 27540 C 2763.39 -2.44975 3.46191 0
M  V30 27541 N 2763.78 -2.01537 4.63914 0
M  V30 27542 C 2762.08 -2.7585 3.50461 0
M  V30 27543 C 2762.78 -2.00463 5.46067 0
M  V30 27544 N 2761.75 -2.42221 4.86652 0
M  V30 27545 H 2765.56 -0.89329 2.79996 0
M  V30 27546 H 2763.07 -0.396793 1.57478 0
M  V30 27547 H 2765.07 -3.33903 2.49628 0
M  V30 27548 H 2763.73 -2.93361 1.39174 0
M  V30 27549 H 2764.74 -1.72141 4.88455 0
M  V30 27550 H 2761.41 -3.1526 2.7371 0
M  V30 27551 H 2762.8 -1.68722 6.50371 0
M  V30 27552 N 2765.53 -1.50848 -0.456355 0
M  V30 27553 C 2766.94 -1.55264 -1.03682 0
M  V30 27554 C 2767.29 -0.364805 -1.92779 0
M  V30 27555 O 2766.41 0.520643 -2.10043 0
M  V30 27556 C 2767.01 -2.81377 -1.88713 0
M  V30 27557 C 2765.57 -2.88426 -2.41842 0
M  V30 27558 C 2764.71 -2.49721 -1.20559 0
M  V30 27559 H 2767.66 -1.569 -0.238371 0
M  V30 27560 H 2767.69 -2.64065 -2.73952 0
M  V30 27561 H 2767.2 -3.67811 -1.2384 0
M  V30 27562 H 2765.3 -2.06378 -3.10224 0
M  V30 27563 H 2765.41 -3.91655 -2.7594 0
M  V30 27564 H 2763.78 -2.02489 -1.545 0
M  V30 27565 H 2764.56 -3.3848 -0.573266 0
M  V30 27566 N 2767 0.710538 -1.40674 0
M  V30 27567 C 2768.41 1.28989 -1.34977 0
M  V30 27568 C 2768.77 1.96183 -0.0256617 0
M  V30 27569 O 2767.89 1.97863 0.876304 0
M  V30 27570 C 2768.49 2.34562 -2.44471 0
M  V30 27571 C 2767.04 2.8811 -2.42219 0
M  V30 27572 C 2766.19 1.61959 -2.25088 0
M  V30 27573 H 2769.14 0.506317 -1.50407 0
M  V30 27574 H 2769.16 3.15519 -2.12668 0
M  V30 27575 H 2768.68 1.85628 -3.40828 0
M  V30 27576 H 2766.78 3.4126 -1.49574 0
M  V30 27577 H 2766.89 3.39559 -3.37989 0
M  V30 27578 H 2765.25 1.87213 -1.72694 0
M  V30 27579 H 2766.04 1.15042 -3.23451 0
M  V30 27580 N 2768.48 1.26254 0.943277 0
M  V30 27581 C 2769.41 1.0342 2.04541 0
M  V30 27582 C 2770.43 -0.00466249 1.62799 0
M  V30 27583 O 2771.62 0.235177 1.76944 0
M  V30 27584 C 2768.72 0.54373 3.3451 0
M  V30 27585 C 2767.89 1.65135 4.0503 0
M  V30 27586 C 2766.95 1.15929 5.13271 0
M  V30 27587 O 2765.97 1.85595 5.38092 0
M  V30 27588 N 2767.18 0.00659483 5.805 0
M  V30 27589 H 2769.94 1.98323 2.24695 0
M  V30 27590 H 2767.5 1.17612 1.11262 0
M  V30 27591 H 2769.49 0.198774 4.04212 0
M  V30 27592 H 2768.06 -0.311656 3.11043 0
M  V30 27593 H 2767.28 2.16735 3.29271 0
M  V30 27594 H 2768.57 2.39516 4.48898 0
M  V30 27595 H 2767.97 -0.575248 5.62768 0
M  V30 27596 H 2766.53 -0.279302 6.51201 0
M  V30 27597 N 2769.96 -1.14755 1.08024 0
M  V30 27598 C 2770.89 -2.21852 0.728287 0
M  V30 27599 C 2771.87 -1.67654 -0.287457 0
M  V30 27600 O 2773.06 -1.93551 -0.158693 0
M  V30 27601 C 2770.19 -3.47047 0.13261 0
M  V30 27602 C 2769.14 -4.14247 1.07627 0
M  V30 27603 C 2768.47 -5.33599 0.343001 0
M  V30 27604 C 2769.77 -4.63231 2.41276 0
M  V30 27605 H 2771.46 -2.51548 1.6237 0
M  V30 27606 H 2769.01 -1.20907 0.782146 0
M  V30 27607 H 2770.96 -4.21213 -0.125591 0
M  V30 27608 H 2769.68 -3.16703 -0.797915 0
M  V30 27609 H 2768.34 -3.4203 1.3195 0
M  V30 27610 H 2767.99 -4.99514 -0.591203 0
M  V30 27611 H 2767.69 -5.79504 0.972057 0
M  V30 27612 H 2769.21 -6.1053 0.0927611 0
M  V30 27613 H 2770.63 -5.28891 2.21241 0
M  V30 27614 H 2769.02 -5.19824 2.99839 0
M  V30 27615 H 2770.09 -3.78506 3.03086 0
M  V30 27616 N 2771.44 -0.865331 -1.31719 0
M  V30 27617 C 2772.67 -0.488286 -2.01056 0
M  V30 27618 C 2773.08 0.917971 -1.64981 0
M  V30 27619 O 2772.44 1.60067 -0.876625 0
M  V30 27620 C 2772.49 -0.630286 -3.55963 0
M  V30 27621 O 2772.21 -1.98116 -3.90745 0
M  V30 27622 C 2773.71 -0.253645 -4.42574 0
M  V30 27623 H 2770.93 -0.190748 -0.643317 0
M  V30 27624 H 2773.47 -1.16522 -1.68056 0
M  V30 27625 H 2771.63 -0.000963517 -3.874 0
M  V30 27626 H 2772.04 -1.98559 -4.85463 0
M  V30 27627 H 2773.52 -0.403971 -5.5052 0
M  V30 27628 H 2773.99 0.806819 -4.31726 0
M  V30 27629 H 2774.6 -0.858478 -4.16546 0
M  V30 27630 N 2772.92 1.44707 -0.624311 0
M  V30 27631 C 2774.16 2.02407 -0.126273 0
M  V30 27632 C 2774.49 1.48945 1.24615 0
M  V30 27633 O 2773.77 0.670774 1.82567 0
M  V30 27634 C 2774.05 3.59945 -0.105512 0
M  V30 27635 C 2773.91 4.23704 -1.5098 0
M  V30 27636 C 2775.22 4.36347 0.573552 0
M  V30 27637 H 2772.34 0.735477 -0.0473602 0
M  V30 27638 H 2774.99 1.72361 -0.799482 0
M  V30 27639 H 2773.14 3.85674 0.467762 0
M  V30 27640 H 2774.81 4.09106 -2.13144 0
M  V30 27641 H 2773.05 3.81461 -2.06567 0
M  V30 27642 H 2773.72 5.32687 -1.44736 0
M  V30 27643 H 2776.2 4.16011 0.0861056 0
M  V30 27644 H 2775.07 5.46064 0.557242 0
M  V30 27645 H 2775.33 4.10449 1.64269 0
M  V30 27646 N 2774.39 0.364449 1.53328 0
M  V30 27647 C 2775.33 -0.517253 2.23287 0
M  V30 27648 C 2776.34 -1.04709 1.24659 0
M  V30 27649 O 2777.53 -0.953664 1.50889 0
M  V30 27650 C 2774.63 -1.7268 2.91607 0
M  V30 27651 C 2773.8 -1.32865 4.16732 0
M  V30 27652 C 2772.86 -2.40014 4.68273 0
M  V30 27653 O 2771.89 -2.02452 5.31979 0
M  V30 27654 N 2773.09 -3.71583 4.45989 0
M  V30 27655 H 2775.85 0.0819918 2.99588 0
M  V30 27656 H 2773.41 0.189572 1.60786 0
M  V30 27657 H 2775.41 -2.43835 3.22997 0
M  V30 27658 H 2773.98 -2.23294 2.18766 0
M  V30 27659 H 2773.2 -0.447 3.91657 0
M  V30 27660 H 2774.48 -1.03893 4.9808 0
M  V30 27661 H 2773.88 -4.04877 3.95084 0
M  V30 27662 H 2772.44 -4.38845 4.81932 0
M  V30 27663 N 2775.87 -1.57322 0.0935872 0
M  V30 27664 C 2777.28 -1.81543 -0.435775 0
M  V30 27665 C 2777.63 -1.00909 -1.68261 0
M  V30 27666 O 2776.76 -0.238021 -2.15087 0
M  V30 27667 C 2777.35 -3.29283 -0.797378 0
M  V30 27668 C 2775.91 -3.54274 -1.27149 0
M  V30 27669 C 2775.06 -2.76008 -0.267407 0
M  V30 27670 H 2778.01 -1.5546 0.319048 0
M  V30 27671 H 2778.03 -3.42524 -1.65704 0
M  V30 27672 H 2777.54 -3.87943 0.110274 0
M  V30 27673 H 2775.64 -3.00943 -2.19691 0
M  V30 27674 H 2775.76 -4.62926 -1.23437 0
M  V30 27675 H 2774.12 -2.43431 -0.74924 0
M  V30 27676 H 2774.9 -3.37416 0.632898 0
M  V30 27677 N 2777.35 0.180099 -1.56568 0
M  V30 27678 C 2778.6 0.896361 -1.81135 0
M  V30 27679 C 2778.92 1.8316 -0.669146 0
M  V30 27680 O 2778.19 1.93406 0.311582 0
M  V30 27681 H 2776.77 0.333987 -0.668178 0
M  V30 27682 H 2779.43 0.182017 -1.94048 0
M  V30 27683 H 2778.53 1.47852 -2.74856 0
M  V30 27684 N 2778.83 1.51088 0.448349 0
M  V30 27685 C 2779.76 1.67786 1.56143 0
M  V30 27686 C 2780.77 0.558737 1.52912 0
M  V30 27687 O 2781.96 0.832698 1.57887 0
M  V30 27688 C 2779.06 1.66721 2.95055 0
M  V30 27689 C 2778.23 2.95039 3.2291 0
M  V30 27690 C 2777.29 2.8631 4.41489 0
M  V30 27691 O 2776.32 3.60261 4.40682 0
M  V30 27692 N 2777.52 2.0141 5.4444 0
M  V30 27693 H 2780.29 2.63802 1.42227 0
M  V30 27694 H 2777.85 1.48836 0.637127 0
M  V30 27695 H 2779.84 1.58464 3.72386 0
M  V30 27696 H 2778.41 0.783456 3.02623 0
M  V30 27697 H 2777.63 3.17249 2.3398 0
M  V30 27698 H 2778.92 3.80002 3.38343 0
M  V30 27699 H 2778.32 1.40683 5.47928 0
M  V30 27700 H 2776.87 1.9904 6.20666 0
M  V30 27701 N 2780.31 -0.703068 1.41049 0
M  V30 27702 C 2781.24 -1.82967 1.4507 0
M  V30 27703 C 2782.22 -1.67248 0.310189 0
M  V30 27704 O 2783.4 -1.87092 0.52058 0
M  V30 27705 C 2780.53 -3.21038 1.32484 0
M  V30 27706 C 2779.49 -3.5145 2.44268 0
M  V30 27707 C 2778.81 -4.88798 2.16751 0
M  V30 27708 C 2780.11 -3.51182 3.86612 0
M  V30 27709 H 2781.81 -1.79858 2.39356 0
M  V30 27710 H 2779.35 -0.863899 1.15208 0
M  V30 27711 H 2781.31 -3.99557 1.33911 0
M  V30 27712 H 2780.03 -3.24754 0.346792 0
M  V30 27713 H 2778.69 -2.75277 2.42111 0
M  V30 27714 H 2778.34 -4.8913 1.17307 0
M  V30 27715 H 2778.04 -5.10111 2.91652 0
M  V30 27716 H 2779.56 -5.69635 2.19882 0
M  V30 27717 H 2780.97 -4.19718 3.90525 0
M  V30 27718 H 2779.37 -3.84025 4.61134 0
M  V30 27719 H 2780.44 -2.50308 4.153 0
M  V30 27720 N 2781.78 -1.26752 -0.936569 0
M  V30 27721 C 2782.75 -1.08764 -2.0175 0
M  V30 27722 C 2783.75 -0.0344718 -1.60763 0
M  V30 27723 O 2784.94 -0.278288 -1.71963 0
M  V30 27724 C 2782.07 -0.65533 -3.34542 0
M  V30 27725 H 2783.26 -2.04739 -2.19139 0
M  V30 27726 H 2780.82 -1.09415 -1.11616 0
M  V30 27727 H 2781.55 0.306203 -3.22851 0
M  V30 27728 H 2781.34 -1.41584 -3.65645 0
M  V30 27729 H 2782.83 -0.551451 -4.13943 0
M  V30 27730 N 2783.26 1.1418 -1.08631 0
M  V30 27731 C 2784.17 2.22948 -0.730165 0
M  V30 27732 C 2785.19 1.71981 0.26433 0
M  V30 27733 O 2786.36 2.01112 0.107706 0
M  V30 27734 C 2783.43 3.46387 -0.147288 0
M  V30 27735 C 2782.49 4.12284 -1.19669 0
M  V30 27736 C 2781.72 5.2983 -0.64153 0
M  V30 27737 O 2781.95 5.67855 0.538251 0
M  V30 27738 O 2780.88 5.85567 -1.39267 0
M  V30 27739 H 2784.71 2.55768 -1.63757 0
M  V30 27740 H 2782.29 1.22155 -0.860139 0
M  V30 27741 H 2784.17 4.21037 0.174849 0
M  V30 27742 H 2782.85 3.15286 0.733248 0
M  V30 27743 H 2781.76 3.39497 -1.57139 0
M  V30 27744 H 2783.09 4.47496 -2.04958 0
M  V30 27745 N 2784.74 0.872304 1.31258 0
M  V30 27746 C 2785.99 0.4844 1.96621 0
M  V30 27747 C 2786.32 -0.963811 1.68941 0
M  V30 27748 O 2785.57 -1.69408 0.97977 0
M  V30 27749 C 2785.87 0.690951 3.50657 0
M  V30 27750 C 2785.54 2.11231 3.98362 0
M  V30 27751 C 2784.2 2.50101 4.111 0
M  V30 27752 C 2786.55 3.03917 4.23419 0
M  V30 27753 C 2783.88 3.80894 4.46247 0
M  V30 27754 C 2786.23 4.34228 4.60031 0
M  V30 27755 C 2784.89 4.73009 4.70976 0
M  V30 27756 H 2784.16 0.177254 0.719487 0
M  V30 27757 H 2786.81 1.10574 1.56351 0
M  V30 27758 H 2785.12 -0.0135093 3.91798 0
M  V30 27759 H 2786.81 0.370604 3.99284 0
M  V30 27760 H 2783.4 1.80053 3.88946 0
M  V30 27761 H 2787.59 2.75112 4.13071 0
M  V30 27762 H 2782.84 4.107 4.52918 0
M  V30 27763 H 2787.02 5.06096 4.78372 0
M  V30 27764 H 2784.64 5.74398 4.97966 0
M  V30 27765 N 2786.22 -1.44374 0.631976 0
M  V30 27766 C 2787.63 -1.568 0.297669 0
M  V30 27767 C 2787.83 -1.61936 -1.19913 0
M  V30 27768 O 2786.89 -1.56285 -1.98321 0
M  V30 27769 C 2788.2 -2.83924 0.990336 0
M  V30 27770 C 2789.75 -2.97637 0.96856 0
M  V30 27771 C 2790.23 -4.27565 1.64171 0
M  V30 27772 N 2791.72 -4.34381 1.60834 0
M  V30 27773 C 2792.45 -5.33635 2.09812 0
M  V30 27774 N 2791.95 -6.3929 2.66984 0
M  V30 27775 N 2793.74 -5.2515 2.00436 0
M  V30 27776 H 2785.89 -1.39283 1.60356 0
M  V30 27777 H 2788.16 -0.667509 0.673153 0
M  V30 27778 H 2787.86 -2.86117 2.04524 0
M  V30 27779 H 2787.74 -3.73477 0.528629 0
M  V30 27780 H 2790.12 -2.94997 -0.0778728 0
M  V30 27781 H 2790.2 -2.0943 1.46877 0
M  V30 27782 H 2789.85 -4.30965 2.6876 0
M  V30 27783 H 2789.78 -5.14632 1.11633 0
M  V30 27784 H 2792.27 -3.58644 1.19093 0
M  V30 27785 H 2792.58 -7.11311 3.02087 0
M  V30 27786 H 2790.93 -6.39973 2.71035 0
M  V30 27787 H 2794.12 -4.4152 1.55491 0
M  V30 27788 H 2794.29 -6.02348 2.38917 0
M  V30 27789 N 2787.7 -0.372575 -1.53133 0
M  V30 27790 C 2788.94 0.214908 -2.03267 0
M  V30 27791 C 2789.3 1.45422 -1.25365 0
M  V30 27792 O 2790.5 2.11778 -1.6554 0
M  V30 27793 C 2788.77 0.492835 -3.53986 0
M  V30 27794 S 2790.33 1.05299 -4.25978 0
M  V30 27795 H 2787.15 0.0620165 -0.70829 0
M  V30 27796 H 2789.75 -0.517058 -1.88538 0
M  V30 27797 H 2788.46 -0.416513 -4.08281 0
M  V30 27798 H 2787.99 1.25368 -3.72889 0
M  V30 27799 H 2790 2.33671 -4.37735 0
M  V30 27800 N 2789.17 1.5727 -0.101929 0
M  V30 27801 C 2790.4 1.99364 0.571724 0
M  V30 27802 C 2790.82 0.980796 1.60505 0
M  V30 27803 O 2790.18 -0.0498199 1.81232 0
M  V30 27804 C 2790.23 3.40402 1.1899 0
M  V30 27805 O 2789.33 3.41926 2.30566 0
M  V30 27806 H 2788.68 0.6481 0.144437 0
M  V30 27807 H 2791.21 2.03759 -0.185361 0
M  V30 27808 H 2791.22 3.78244 1.52955 0
M  V30 27809 H 2789.89 4.13641 0.432911 0
M  V30 27810 H 2788.47 3.15886 1.98167 0
M  V30 27811 N 2790.65 -0.171793 1.56661 0
M  V30 27812 C 2791.62 -1.19648 1.95492 0
M  V30 27813 C 2792.62 -1.37206 0.838525 0
M  V30 27814 O 2793.81 -1.3462 1.10558 0
M  V30 27815 C 2790.94 -2.56162 2.24931 0
M  V30 27816 H 2792.13 -0.863956 2.87186 0
M  V30 27817 H 2789.68 -0.414223 1.50711 0
M  V30 27818 H 2790.42 -2.94429 1.35949 0
M  V30 27819 H 2790.2 -2.44784 3.06306 0
M  V30 27820 H 2791.69 -3.3001 2.55897 0
M  V30 27821 N 2792.13 -1.51324 -0.44033 0
M  V30 27822 C 2793.36 -1.67647 -1.21252 0
M  V30 27823 C 2793.77 -0.372552 -1.85088 0
M  V30 27824 O 2793.13 0.648653 -1.70584 0
M  V30 27825 C 2793.18 -2.78997 -2.29876 0
M  V30 27826 O 2792.9 -4.04337 -1.68652 0
M  V30 27827 C 2794.4 -3.06563 -3.20209 0
M  V30 27828 H 2791.62 -0.562672 -0.36557 0
M  V30 27829 H 2794.17 -1.97723 -0.522105 0
M  V30 27830 H 2792.32 -2.51529 -2.94639 0
M  V30 27831 H 2792.74 -4.66154 -2.40418 0
M  V30 27832 H 2794.21 -3.88065 -3.92568 0
M  V30 27833 H 2794.69 -2.18851 -3.8079 0
M  V30 27834 H 2795.29 -3.35679 -2.6115 0
M  V30 27835 N 2793.61 0.695578 -1.41419 0
M  V30 27836 C 2794.86 1.45274 -1.40498 0
M  V30 27837 C 2795.18 1.94994 -0.0149881 0
M  V30 27838 O 2794.45 1.71701 0.94317 0
M  V30 27839 H 2793.03 0.539035 -0.517156 0
M  V30 27840 H 2795.69 0.82329 -1.76658 0
M  V30 27841 H 2794.79 2.31591 -2.09218 0
M  V30 27842 N 2795.09 1.27247 0.929833 0
M  V30 27843 C 2796.31 1.16377 1.71672 0
M  V30 27844 C 2796.74 -0.275991 1.86064 0
M  V30 27845 O 2796.1 -1.1999 1.35912 0
M  V30 27846 C 2796.14 1.85008 3.09523 0
M  V30 27847 O 2795.25 1.1466 3.9614 0
M  V30 27848 H 2794.59 0.404873 0.526283 0
M  V30 27849 H 2797.12 1.68278 1.16378 0
M  V30 27850 H 2797.13 1.92283 3.59849 0
M  V30 27851 H 2795.8 2.89744 2.98364 0
M  V30 27852 H 2794.38 1.15439 3.54582 0
M  V30 27853 N 2796.57 -1.13603 1.09235 0
M  V30 27854 C 2797.98 -1.66388 0.846868 0
M  V30 27855 C 2798.33 -1.85979 -0.624998 0
M  V30 27856 O 2797.45 -1.57716 -1.48171 0
M  V30 27857 C 2798.05 -3.02247 1.53075 0
M  V30 27858 C 2796.61 -3.52032 1.3323 0
M  V30 27859 C 2795.75 -2.2732 1.5881 0
M  V30 27860 H 2798.7 -0.975519 1.25177 0
M  V30 27861 H 2798.73 -3.68119 0.962735 0
M  V30 27862 H 2798.24 -2.87957 2.60197 0
M  V30 27863 H 2796.34 -3.7153 0.282156 0
M  V30 27864 H 2796.45 -4.32276 2.06578 0
M  V30 27865 H 2794.82 -2.33814 1.01011 0
M  V30 27866 H 2795.6 -2.15597 2.67157 0
M  V30 27867 N 2798.04 -0.879253 -1.30793 0
M  V30 27868 C 2799.27 -0.509584 -2.00526 0
M  V30 27869 C 2799.69 0.900421 -1.65945 0
M  V30 27870 O 2799.04 1.59129 -0.893553 0
M  V30 27871 C 2799.09 -0.668005 -3.55274 0
M  V30 27872 O 2798.82 -2.02249 -3.88622 0
M  V30 27873 C 2800.32 -0.300572 -4.4228 0
M  V30 27874 H 2797.54 -0.19756 -0.641257 0
M  V30 27875 H 2800.08 -1.18298 -1.66811 0
M  V30 27876 H 2798.24 -0.0420524 -3.87377 0
M  V30 27877 H 2798.65 -2.03697 -4.8333 0
M  V30 27878 H 2800.12 -0.462339 -5.5006 0
M  V30 27879 H 2800.6 0.760984 -4.32557 0
M  V30 27880 H 2801.21 -0.902609 -4.15612 0
M  V30 27881 N 2799.52 1.44037 -0.639624 0
M  V30 27882 C 2800.93 1.85292 -0.228899 0
M  V30 27883 C 2801.28 1.53531 1.22158 0
M  V30 27884 O 2800.41 0.977552 1.93062 0
M  V30 27885 C 2801 3.36326 -0.408651 0
M  V30 27886 C 2799.56 3.76364 -0.0523615 0
M  V30 27887 C 2798.71 2.67843 -0.718006 0
M  V30 27888 H 2801.66 1.34382 -0.844218 0
M  V30 27889 H 2801.68 3.78888 0.349901 0
M  V30 27890 H 2801.19 3.59411 -1.46442 0
M  V30 27891 H 2799.29 3.58893 1.00134 0
M  V30 27892 H 2799.41 4.76805 -0.468345 0
M  V30 27893 H 2797.77 2.54243 -0.152504 0
M  V30 27894 H 2798.55 2.93759 -1.77653 0
M  V30 27895 N 2801 0.380691 1.52933 0
M  V30 27896 C 2802.23 -0.204563 2.05886 0
M  V30 27897 C 2802.64 -1.41221 1.25308 0
M  V30 27898 O 2802 -1.80058 0.297536 0
M  V30 27899 C 2802.05 -0.583186 3.56765 0
M  V30 27900 O 2801.77 0.576475 4.34291 0
M  V30 27901 C 2803.27 -1.22522 4.26032 0
M  V30 27902 H 2800.49 -0.0328874 0.670194 0
M  V30 27903 H 2803.04 0.543431 1.97147 0
M  V30 27904 H 2801.19 -1.28108 3.65605 0
M  V30 27905 H 2801.61 0.267211 5.23819 0
M  V30 27906 H 2803.08 -1.44058 5.32871 0
M  V30 27907 H 2803.56 -2.19004 3.80702 0
M  V30 27908 H 2804.16 -0.568333 4.21486 0
M  V30 27909 N 2802.48 -1.57214 0.110268 0
M  V30 27910 C 2803.41 -2.17869 -0.839964 0
M  V30 27911 C 2804.39 -1.11626 -1.2835 0
M  V30 27912 O 2805.57 -1.39826 -1.34767 0
M  V30 27913 C 2802.7 -2.77114 -2.09344 0
M  V30 27914 C 2801.66 -3.88863 -1.788 0
M  V30 27915 C 2800.98 -4.34877 -3.11104 0
M  V30 27916 C 2802.28 -5.11366 -1.06311 0
M  V30 27917 H 2803.98 -2.97525 -0.334555 0
M  V30 27918 H 2801.52 -1.43114 -0.159477 0
M  V30 27919 H 2803.48 -3.18203 -2.76269 0
M  V30 27920 H 2802.2 -1.94735 -2.62194 0
M  V30 27921 H 2800.86 -3.48337 -1.14267 0
M  V30 27922 H 2800.51 -3.49368 -3.61871 0
M  V30 27923 H 2800.21 -5.10229 -2.91444 0
M  V30 27924 H 2801.73 -4.78611 -3.79162 0
M  V30 27925 H 2803.15 -5.49529 -1.63374 0
M  V30 27926 H 2801.54 -5.92245 -0.967772 0
M  V30 27927 H 2802.61 -4.84876 -0.0483717 0
M  V30 27928 N 2803.96 0.163482 -1.5675 0
M  V30 27929 C 2804.87 1.22206 -2.00257 0
M  V30 27930 C 2805.88 1.47986 -0.91522 0
M  V30 27931 O 2807.06 1.5998 -1.22345 0
M  V30 27932 C 2804.12 2.53942 -2.36039 0
M  V30 27933 C 2803.18 2.35956 -3.58641 0
M  V30 27934 C 2802.42 3.61409 -3.92707 0
M  V30 27935 O 2802.64 4.66913 -3.27641 0
M  V30 27936 O 2801.57 3.55053 -4.86026 0
M  V30 27937 H 2805.4 0.882743 -2.90588 0
M  V30 27938 H 2802.98 0.370952 -1.44721 0
M  V30 27939 H 2804.87 3.31639 -2.59988 0
M  V30 27940 H 2803.54 2.87437 -1.48868 0
M  V30 27941 H 2802.45 1.56264 -3.39901 0
M  V30 27942 H 2803.78 2.07382 -4.46378 0
M  V30 27943 N 2805.43 1.51555 0.432299 0
M  V30 27944 C 2806.68 1.65677 1.17994 0
M  V30 27945 C 2807.03 0.370793 1.88793 0
M  V30 27946 O 2806.33 -0.63366 1.80818 0
M  V30 27947 C 2806.52 2.80168 2.21902 0
M  V30 27948 C 2806.35 4.19776 1.61302 0
M  V30 27949 C 2805.12 4.8564 1.39576 0
M  V30 27950 C 2807.32 5.02692 1.08651 0
M  V30 27951 N 2805.3 6.09347 0.746267 0
M  V30 27952 C 2806.67 6.17442 0.562576 0
M  V30 27953 C 2808.73 4.88185 0.978745 0
M  V30 27954 C 2807.43 7.19276 -0.058528 0
M  V30 27955 C 2809.46 5.90232 0.371528 0
M  V30 27956 C 2808.82 7.04257 -0.141835 0
M  V30 27957 H 2804.92 0.660107 0.419265 0
M  V30 27958 H 2807.5 1.88797 0.475776 0
M  V30 27959 H 2805.67 2.58703 2.89702 0
M  V30 27960 H 2807.4 2.83445 2.88862 0
M  V30 27961 H 2804.16 4.43596 1.6589 0
M  V30 27962 H 2804.58 6.75576 0.438815 0
M  V30 27963 H 2809.22 4.00279 1.3615 0
M  V30 27964 H 2806.94 8.06827 -0.453404 0
M  V30 27965 H 2810.53 5.81077 0.289983 0
M  V30 27966 H 2809.41 7.81868 -0.604308 0
M  V30 27967 N 2806.91 -0.688069 1.41786 0
M  V30 27968 C 2808.14 -1.4767 1.44917 0
M  V30 27969 C 2808.55 -1.88715 0.0566118 0
M  V30 27970 O 2807.91 -1.57276 -0.925762 0
M  V30 27971 C 2807.96 -2.73442 2.36456 0
M  V30 27972 O 2807.68 -2.34124 3.70294 0
M  V30 27973 C 2809.18 -3.67121 2.4847 0
M  V30 27974 H 2806.4 -0.454824 0.493332 0
M  V30 27975 H 2808.95 -0.846561 1.86155 0
M  V30 27976 H 2807.1 -3.32676 1.98508 0
M  V30 27977 H 2807.52 -3.15248 4.19189 0
M  V30 27978 H 2808.99 -4.52133 3.1667 0
M  V30 27979 H 2809.47 -4.1212 1.51833 0
M  V30 27980 H 2810.07 -3.13787 2.87085 0
M  V30 27981 N 2808.39 -1.27739 -0.923072 0
M  V30 27982 C 2809.64 -1.14122 -1.66795 0
M  V30 27983 C 2809.96 0.312507 -1.9248 0
M  V30 27984 O 2809.23 1.21798 -1.53435 0
M  V30 27985 H 2807.81 -0.419347 -0.618189 0
M  V30 27986 H 2810.47 -1.60333 -1.10812 0
M  V30 27987 H 2809.57 -1.67379 -2.63421 0
M  V30 27988 N 2809.87 1.13022 -1.09836 0
M  V30 27989 C 2811.12 1.84029 -0.835329 0
M  V30 27990 C 2811.44 1.84167 0.640912 0
M  V30 27991 O 2810.71 1.3004 1.46514 0
M  V30 27992 H 2809.29 0.681436 -0.30603 0
M  V30 27993 H 2811.95 1.36888 -1.38736 0
M  V30 27994 H 2811.05 2.88414 -1.19263 0
M  V30 27995 N 2811.35 0.886177 1.30325 0
M  V30 27996 C 2812.76 0.555585 1.78242 0
M  V30 27997 C 2813.11 -0.928283 1.72851 0
M  V30 27998 O 2812.23 -1.7254 1.3061 0
M  V30 27999 C 2812.83 1.00174 3.23652 0
M  V30 28000 C 2811.39 0.722536 3.694 0
M  V30 28001 C 2810.53 1.18404 2.50751 0
M  V30 28002 H 2813.49 1.07028 1.17178 0
M  V30 28003 H 2813.51 0.331218 3.79056 0
M  V30 28004 H 2813.02 2.08174 3.27544 0
M  V30 28005 H 2811.12 -0.345431 3.70995 0
M  V30 28006 H 2811.23 1.31093 4.60816 0
M  V30 28007 H 2809.6 0.603347 2.47451 0
M  V30 28008 H 2810.38 2.27181 2.57379 0
M  V30 28009 N 2812.82 -1.43695 0.647253 0
M  V30 28010 C 2814.07 -2.01482 0.157911 0
M  V30 28011 C 2814.39 -1.51285 -1.23036 0
M  V30 28012 O 2813.66 -0.723014 -1.8207 0
M  V30 28013 H 2812.24 -0.744944 0.0553876 0
M  V30 28014 H 2814.91 -1.75985 0.837581 0
M  V30 28015 H 2814 -3.11795 0.13795 0
M  V30 28016 N 2814.3 -0.388796 -1.52729 0
M  V30 28017 C 2815.55 0.193173 -2.01175 0
M  V30 28018 C 2815.87 1.47362 -1.27708 0
M  V30 28019 O 2815.14 1.91835 -0.396999 0
M  V30 28020 H 2813.72 0.074374 -0.743288 0
M  V30 28021 H 2816.38 -0.520369 -1.87825 0
M  V30 28022 H 2815.48 0.403749 -3.09477 0
M  V30 28023 N 2815.78 1.57153 -0.118604 0
M  V30 28024 C 2816.71 2.12364 0.86221 0
M  V30 28025 C 2817.73 1.06627 1.23023 0
M  V30 28026 O 2818.91 1.34 1.17924 0
M  V30 28027 C 2816.01 2.60798 2.1642 0
M  V30 28028 C 2815.19 3.90629 1.96794 0
M  V30 28029 C 2814.25 4.24665 3.10719 0
M  V30 28030 O 2813.27 4.93489 2.8365 0
M  V30 28031 N 2814.47 3.81953 4.37141 0
M  V30 28032 H 2817.24 2.97145 0.390512 0
M  V30 28033 H 2814.8 1.61766 0.0658306 0
M  V30 28034 H 2816.79 2.80598 2.91628 0
M  V30 28035 H 2815.36 1.80899 2.5494 0
M  V30 28036 H 2814.58 3.79742 1.05781 0
M  V30 28037 H 2815.87 4.75523 1.80985 0
M  V30 28038 H 2815.27 3.26443 4.62008 0
M  V30 28039 H 2813.83 4.06862 5.09221 0
M  V30 28040 N 2817.26 -0.155167 1.56834 0
M  V30 28041 C 2818.19 -1.19372 2.0068 0
M  V30 28042 C 2819.17 -1.45265 0.884998 0
M  V30 28043 O 2820.35 -1.56324 1.15223 0
M  V30 28044 C 2817.48 -2.52886 2.38046 0
M  V30 28045 C 2816.44 -2.41531 3.53336 0
M  V30 28046 C 2815.76 -3.79681 3.76492 0
M  V30 28047 C 2817.06 -1.90631 4.86268 0
M  V30 28048 H 2818.76 -0.829182 2.87689 0
M  V30 28049 H 2816.3 -0.397421 1.38407 0
M  V30 28050 H 2818.26 -3.25758 2.67319 0
M  V30 28051 H 2816.98 -2.9116 1.47965 0
M  V30 28052 H 2815.64 -1.71112 3.24216 0
M  V30 28053 H 2815.29 -4.15377 2.83675 0
M  V30 28054 H 2814.99 -3.72948 4.54074 0
M  V30 28055 H 2816.51 -4.54115 4.08182 0
M  V30 28056 H 2817.93 -2.5329 5.14312 0
M  V30 28057 H 2816.32 -1.94808 5.676 0
M  V30 28058 H 2817.39 -0.861512 4.77185 0
M  V30 28059 N 2818.74 -1.51782 -0.424256 0
M  V30 28060 C 2820.15 -1.57428 -1.00365 0
M  V30 28061 C 2820.5 -0.405614 -1.91961 0
M  V30 28062 O 2819.62 0.475972 -2.11101 0
M  V30 28063 C 2820.22 -2.85316 -1.82702 0
M  V30 28064 C 2818.78 -2.93491 -2.35669 0
M  V30 28065 C 2817.92 -2.52222 -1.15235 0
M  V30 28066 H 2820.88 -1.5737 -0.205037 0
M  V30 28067 H 2820.9 -2.69817 -2.68289 0
M  V30 28068 H 2820.41 -3.70355 -1.16011 0
M  V30 28069 H 2818.51 -2.12912 -3.05777 0
M  V30 28070 H 2818.62 -3.9742 -2.67571 0
M  V30 28071 H 2816.99 -2.05721 -1.5017 0
M  V30 28072 H 2817.77 -3.3962 -0.501341 0
M  V30 28073 N 2820.21 0.68054 -1.42149 0
M  V30 28074 C 2821.18 1.77599 -1.44883 0
M  V30 28075 C 2822.18 1.57224 -0.337236 0
M  V30 28076 O 2823.37 1.63621 -0.597807 0
M  V30 28077 C 2820.5 3.16164 -1.27489 0
M  V30 28078 H 2821.69 1.76564 -2.42415 0
M  V30 28079 H 2819.25 0.889622 -1.28512 0
M  V30 28080 H 2819.98 3.22829 -0.308567 0
M  V30 28081 H 2819.77 3.32356 -2.08043 0
M  V30 28082 H 2821.26 3.96098 -1.32272 0
M  V30 28083 N 2821.69 1.28226 0.916285 0
M  V30 28084 C 2822.64 1.11935 2.01839 0
M  V30 28085 C 2823.61 0.0171896 1.66091 0
M  V30 28086 O 2824.79 0.181651 1.89933 0
M  V30 28087 C 2821.93 0.784563 3.36063 0
M  V30 28088 C 2821.05 1.96551 3.84697 0
M  V30 28089 C 2820.18 1.57157 5.0742 0
M  V30 28090 C 2819.22 2.71932 5.48379 0
M  V30 28091 N 2818.36 2.33048 6.62294 0
M  V30 28092 H 2823.2 2.06236 2.15106 0
M  V30 28093 H 2820.74 1.02649 1.05364 0
M  V30 28094 H 2822.69 0.571221 4.13271 0
M  V30 28095 H 2821.32 -0.121508 3.22571 0
M  V30 28096 H 2820.38 2.29106 3.03669 0
M  V30 28097 H 2821.69 2.8261 4.11015 0
M  V30 28098 H 2820.84 1.32015 5.92163 0
M  V30 28099 H 2819.58 0.682238 4.82905 0
M  V30 28100 H 2818.59 2.97776 4.62179 0
M  V30 28101 H 2819.81 3.61504 5.74884 0
M  V30 28102 H 2817.76 1.46581 6.39414 0
M  V30 28103 H 2817.67 3.12643 6.88324 0
M  V30 28104 H 2818.94 2.11183 7.50348 0
M  V30 28105 N 2823.17 -1.12438 1.10433 0
M  V30 28106 C 2824.13 -2.16353 0.75658 0
M  V30 28107 C 2825.13 -1.59302 -0.218962 0
M  V30 28108 O 2826.32 -1.74199 0.0041903 0
M  V30 28109 C 2823.46 -3.40686 0.120672 0
M  V30 28110 H 2824.65 -2.48629 1.677 0
M  V30 28111 H 2822.2 -1.27444 0.904854 0
M  V30 28112 H 2822.94 -3.14009 -0.810481 0
M  V30 28113 H 2822.72 -3.83371 0.82276 0
M  V30 28114 H 2824.21 -4.17463 -0.106871 0
M  V30 28115 N 2824.65 -0.893076 -1.29853 0
M  V30 28116 C 2825.58 -0.32315 -2.26911 0
M  V30 28117 C 2826.59 0.526831 -1.5404 0
M  V30 28118 O 2827.78 0.345065 -1.75133 0
M  V30 28119 C 2824.88 0.55845 -3.34267 0
M  V30 28120 C 2824.06 -0.264299 -4.36601 0
M  V30 28121 C 2823.12 0.549079 -5.23327 0
M  V30 28122 O 2822.14 -0.0310883 -5.69192 0
M  V30 28123 N 2823.34 1.85655 -5.50011 0
M  V30 28124 H 2826.11 -1.15731 -2.76453 0
M  V30 28125 H 2823.67 -0.756884 -1.43118 0
M  V30 28126 H 2825.66 1.10883 -3.89213 0
M  V30 28127 H 2824.23 1.29329 -2.84592 0
M  V30 28128 H 2823.45 -0.996113 -3.81407 0
M  V30 28129 H 2824.74 -0.827995 -5.02018 0
M  V30 28130 H 2824.14 2.35072 -5.14546 0
M  V30 28131 H 2822.69 2.3542 -6.078 0
M  V30 28132 N 2826.13 1.4335 -0.654865 0
M  V30 28133 C 2827.38 2.01014 -0.16625 0
M  V30 28134 C 2827.69 1.5228 1.22761 0
M  V30 28135 O 2828.9 2.02228 1.81153 0
M  V30 28136 C 2827.35 3.59056 -0.246404 0
M  V30 28137 C 2826.96 4.16782 -1.64306 0
M  V30 28138 C 2828.7 4.24099 0.184522 0
M  V30 28139 C 2826.61 5.67123 -1.67705 0
M  V30 28140 H 2825.54 0.751736 -0.0583901 0
M  V30 28141 H 2828.19 1.64302 -0.81714 0
M  V30 28142 H 2826.57 3.93177 0.472023 0
M  V30 28143 H 2827.75 3.94158 -2.38697 0
M  V30 28144 H 2826.06 3.64116 -2.0201 0
M  V30 28145 H 2828.66 5.344 0.178994 0
M  V30 28146 H 2829 3.98137 1.21625 0
M  V30 28147 H 2829.54 3.94867 -0.48221 0
M  V30 28148 H 2826.27 5.97855 -2.68793 0
M  V30 28149 H 2825.79 5.91799 -0.976417 0
M  V30 28150 H 2827.47 6.31191 -1.42153 0
M  V30 28151 N 2827.61 0.39689 1.52521 0
M  V30 28152 C 2828.56 -0.451682 2.23481 0
M  V30 28153 C 2829.54 -1.02348 1.24152 0
M  V30 28154 O 2830.73 -0.948322 1.49452 0
M  V30 28155 C 2827.86 -1.57439 3.0507 0
M  V30 28156 C 2826.95 -1.01397 4.118 0
M  V30 28157 N 2827.34 -0.179145 5.05483 0
M  V30 28158 C 2825.64 -1.28571 4.27066 0
M  V30 28159 C 2826.34 0.131304 5.81552 0
M  V30 28160 N 2825.31 -0.47464 5.41524 0
M  V30 28161 H 2829.11 0.192585 2.93268 0
M  V30 28162 H 2826.63 0.206619 1.6108 0
M  V30 28163 H 2828.63 -2.19479 3.5445 0
M  V30 28164 H 2827.29 -2.22141 2.3682 0
M  V30 28165 H 2828.3 0.184201 5.17572 0
M  V30 28166 H 2824.97 -1.93321 3.70045 0
M  V30 28167 H 2826.36 0.808178 6.67022 0
M  V30 28168 N 2829.08 -1.57088 0.126936 0
M  V30 28169 C 2830.33 -1.95079 -0.528088 0
M  V30 28170 C 2830.65 -1.01163 -1.66707 0
M  V30 28171 O 2829.92 -0.0693872 -1.95777 0
M  V30 28172 H 2828.5 -0.720261 -0.198074 0
M  V30 28173 H 2831.16 -1.93894 0.197738 0
M  V30 28174 H 2830.26 -2.98311 -0.917455 0
M  V30 28175 N 2830.56 0.146848 -1.56914 0
M  V30 28176 C 2831.81 0.857738 -1.82995 0
M  V30 28177 C 2832.13 1.81699 -0.707846 0
M  V30 28178 O 2831.4 1.94024 0.270487 0
M  V30 28179 H 2829.98 0.319739 -0.675112 0
M  V30 28180 H 2832.64 0.140815 -1.94391 0
M  V30 28181 H 2831.74 1.41989 -2.77931 0
M  V30 28182 N 2832.04 1.52005 0.4162 0
M  V30 28183 C 2833.29 1.64946 1.16085 0
M  V30 28184 C 2833.6 0.381962 1.91834 0
M  V30 28185 O 2834.81 0.39106 2.68669 0
M  V30 28186 C 2833.26 2.9139 2.11235 0
M  V30 28187 C 2832.87 4.25221 1.41035 0
M  V30 28188 C 2834.62 3.13693 2.86002 0
M  V30 28189 C 2832.52 5.42795 2.34792 0
M  V30 28190 H 2831.45 0.614427 0.43703 0
M  V30 28191 H 2834.1 1.78488 0.42594 0
M  V30 28192 H 2832.49 2.7153 2.88249 0
M  V30 28193 H 2833.66 4.55539 0.694336 0
M  V30 28194 H 2831.97 4.08965 0.783368 0
M  V30 28195 H 2834.57 3.9871 3.56279 0
M  V30 28196 H 2834.91 2.27634 3.48552 0
M  V30 28197 H 2835.45 3.33991 2.16089 0
M  V30 28198 H 2832.19 6.31179 1.76899 0
M  V30 28199 H 2831.71 5.16826 3.04386 0
M  V30 28200 H 2833.39 5.75592 2.9547 0
M  V30 28201 N 2833.52 -0.672992 1.42508 0
M  V30 28202 C 2834.45 -1.79848 1.48919 0
M  V30 28203 C 2835.43 -1.66552 0.345595 0
M  V30 28204 O 2836.61 -1.85946 0.560148 0
M  V30 28205 C 2833.74 -3.18156 1.39263 0
M  V30 28206 C 2832.7 -3.46189 2.51668 0
M  V30 28207 C 2832.02 -4.8409 2.2707 0
M  V30 28208 C 2833.32 -3.42902 3.93974 0
M  V30 28209 H 2835.02 -1.74741 2.43117 0
M  V30 28210 H 2832.56 -0.839267 1.17014 0
M  V30 28211 H 2834.52 -3.96627 1.42356 0
M  V30 28212 H 2833.24 -3.23945 0.415599 0
M  V30 28213 H 2831.9 -2.7008 2.47896 0
M  V30 28214 H 2831.55 -4.86532 1.27656 0
M  V30 28215 H 2831.25 -5.03809 3.02407 0
M  V30 28216 H 2832.77 -5.64843 2.31915 0
M  V30 28217 H 2834.19 -4.1134 3.9934 0
M  V30 28218 H 2832.58 -3.74157 4.69176 0
M  V30 28219 H 2833.65 -2.41442 4.20516 0
M  V30 28220 N 2835 -1.2871 -0.909472 0
M  V30 28221 C 2836.41 -1.0651 -1.1886 0
M  V30 28222 C 2836.61 0.189828 -2.00604 0
M  V30 28223 O 2835.67 0.890314 -2.36283 0
M  V30 28224 C 2836.98 -2.31503 -1.91903 0
M  V30 28225 C 2838.53 -2.36725 -2.04769 0
M  V30 28226 C 2839 -3.61495 -2.81221 0
M  V30 28227 N 2840.49 -3.6216 -2.88781 0
M  V30 28228 C 2841.23 -4.55381 -3.48447 0
M  V30 28229 N 2840.73 -5.58925 -4.09359 0
M  V30 28230 N 2842.52 -4.42969 -3.46027 0
M  V30 28231 H 2834.67 -2.09261 -0.363831 0
M  V30 28232 H 2836.93 -0.921245 -0.223633 0
M  V30 28233 H 2836.64 -3.2295 -1.39269 0
M  V30 28234 H 2836.51 -2.3825 -2.92432 0
M  V30 28235 H 2838.9 -1.45771 -2.56583 0
M  V30 28236 H 2838.98 -2.33969 -1.03404 0
M  V30 28237 H 2838.62 -4.52794 -2.30086 0
M  V30 28238 H 2838.55 -3.61506 -3.82911 0
M  V30 28239 H 2841.05 -2.87287 -2.45508 0
M  V30 28240 H 2841.36 -6.26195 -4.5288 0
M  V30 28241 H 2839.7 -5.62746 -4.0785 0
M  V30 28242 H 2842.89 -3.61275 -2.97654 0
M  V30 28243 H 2843.07 -5.15806 -3.92235 0
M  V30 28244 N 2836.47 1.1185 -1.11028 0
M  V30 28245 C 2837.4 2.19843 -0.786851 0
M  V30 28246 C 2838.38 1.68357 0.242905 0
M  V30 28247 O 2839.57 1.93903 0.107321 0
M  V30 28248 C 2836.7 3.46573 -0.224577 0
M  V30 28249 C 2835.65 4.11248 -1.18572 0
M  V30 28250 C 2834.98 5.32502 -0.484355 0
M  V30 28251 C 2836.28 4.56671 -2.53473 0
M  V30 28252 H 2837.97 2.47155 -1.68982 0
M  V30 28253 H 2835.52 1.18791 -0.813927 0
M  V30 28254 H 2837.47 4.21398 0.0138694 0
M  V30 28255 H 2836.2 3.18707 0.713666 0
M  V30 28256 H 2834.86 3.38412 -1.40972 0
M  V30 28257 H 2834.5 5.00905 0.458558 0
M  V30 28258 H 2834.2 5.76723 -1.12536 0
M  V30 28259 H 2835.73 6.10069 -0.2546 0
M  V30 28260 H 2837.14 5.22839 -2.35186 0
M  V30 28261 H 2835.54 5.11691 -3.13516 0
M  V30 28262 H 2836.61 3.70338 -3.13014 0
M  V30 28263 N 2837.95 0.89995 1.29378 0
M  V30 28264 C 2839.36 0.574459 1.77643 0
M  V30 28265 C 2839.71 -0.909898 1.73825 0
M  V30 28266 O 2838.84 -1.71145 1.32432 0
M  V30 28267 C 2839.43 1.03601 3.22571 0
M  V30 28268 C 2837.99 0.761675 3.68613 0
M  V30 28269 C 2837.14 1.21056 2.49481 0
M  V30 28270 H 2840.09 1.08265 1.16036 0
M  V30 28271 H 2840.11 0.371404 3.78683 0
M  V30 28272 H 2839.62 2.11637 3.25317 0
M  V30 28273 H 2837.72 -0.306062 3.71341 0
M  V30 28274 H 2837.84 1.35973 4.594 0
M  V30 28275 H 2836.2 0.629558 2.46797 0
M  V30 28276 H 2836.98 2.29898 2.54955 0
M  V30 28277 N 2839.43 -1.43001 0.662458 0
M  V30 28278 C 2840.39 -2.29196 -0.0141613 0
M  V30 28279 C 2841.39 -1.4269 -0.741369 0
M  V30 28280 O 2842.58 -1.64217 -0.581228 0
M  V30 28281 C 2839.72 -3.24943 -1.03078 0
M  V30 28282 H 2840.91 -2.90516 0.744351 0
M  V30 28283 H 2838.46 -1.50435 0.424159 0
M  V30 28284 H 2839.2 -2.68536 -1.81821 0
M  V30 28285 H 2838.98 -3.88731 -0.512877 0
M  V30 28286 H 2840.47 -3.89614 -1.50301 0
M  V30 28287 N 2840.91 -0.404973 -1.52308 0
M  V30 28288 C 2842.15 0.17242 -2.02066 0
M  V30 28289 C 2842.49 1.45143 -1.29024 0
M  V30 28290 O 2841.76 1.9044 -0.395317 0
M  V30 28291 C 2842.05 0.42437 -3.57591 0
M  V30 28292 C 2841.9 -0.871022 -4.41286 0
M  V30 28293 C 2843.22 1.2083 -4.23188 0
M  V30 28294 H 2840.34 0.0611906 -0.734455 0
M  V30 28295 H 2842.98 -0.537622 -1.82235 0
M  V30 28296 H 2841.13 1.02922 -3.74619 0
M  V30 28297 H 2842.8 -1.50736 -4.35977 0
M  V30 28298 H 2841.04 -1.48292 -4.07667 0
M  V30 28299 H 2841.71 -0.649179 -5.48169 0
M  V30 28300 H 2844.19 0.696266 -4.10233 0
M  V30 28301 H 2843.07 1.35333 -5.31955 0
M  V30 28302 H 2843.33 2.2278 -3.81866 0
M  V30 28303 N 2842.39 1.57018 -0.135265 0
M  V30 28304 C 2843.3 2.19721 0.822187 0
M  V30 28305 C 2844.31 1.17805 1.28055 0
M  V30 28306 O 2845.49 1.50338 1.34017 0
M  V30 28307 C 2842.55 2.79721 2.04835 0
M  V30 28308 C 2841.61 3.96725 1.64035 0
M  V30 28309 C 2840.85 4.53854 2.80806 0
M  V30 28310 O 2841.07 4.09867 3.96693 0
M  V30 28311 O 2840 5.44296 2.56953 0
M  V30 28312 H 2843.83 3.02025 0.318499 0
M  V30 28313 H 2841.42 1.49122 0.0911759 0
M  V30 28314 H 2843.3 3.17902 2.76616 0
M  V30 28315 H 2841.97 2.00437 2.54179 0
M  V30 28316 H 2840.88 3.63283 0.893119 0
M  V30 28317 H 2842.21 4.77494 1.19418 0
M  V30 28318 N 2843.86 -0.138524 1.5699 0
M  V30 28319 C 2845.28 -0.697724 1.73172 0
M  V30 28320 C 2845.63 -1.81259 0.750984 0
M  V30 28321 O 2844.75 -2.1625 -0.080511 0
M  V30 28322 C 2845.35 -1.27242 3.13998 0
M  V30 28323 C 2843.91 -1.77811 3.31753 0
M  V30 28324 C 2843.05 -0.669944 2.69086 0
M  V30 28325 H 2846 0.0872257 1.5846 0
M  V30 28326 H 2846.02 -2.14221 3.14467 0
M  V30 28327 H 2845.54 -0.460787 3.85355 0
M  V30 28328 H 2843.64 -2.61514 2.65407 0
M  V30 28329 H 2843.75 -1.90099 4.39772 0
M  V30 28330 H 2842.11 -1.0987 2.29784 0
M  V30 28331 H 2842.9 0.13039 3.43052 0
M  V30 28332 N 2845.34 -1.52224 -0.408133 0
M  V30 28333 C 2846.57 -1.70181 -1.17669 0
M  V30 28334 C 2846.99 -0.411728 -1.84256 0
M  V30 28335 O 2846.34 0.612324 -1.71921 0
M  V30 28336 C 2846.39 -2.8381 -2.23906 0
M  V30 28337 O 2846.11 -4.07823 -1.60037 0
M  V30 28338 C 2847.62 -3.13286 -3.13634 0
M  V30 28339 H 2844.84 -0.5703 -0.353552 0
M  V30 28340 H 2847.38 -1.98786 -0.480048 0
M  V30 28341 H 2845.53 -2.57722 -2.89237 0
M  V30 28342 H 2845.95 -4.71149 -2.30476 0
M  V30 28343 H 2847.42 -3.96305 -3.84248 0
M  V30 28344 H 2847.9 -2.26879 -3.76062 0
M  V30 28345 H 2848.51 -3.41143 -2.53971 0
M  V30 28346 N 2846.82 0.665425 -1.42863 0
M  V30 28347 C 2848.1 1.42195 -1.34313 0
M  V30 28348 C 2848.48 2.11095 0.0149894 0
M  V30 28349 O 2847.83 2.0392 1.03097 0
M  V30 28350 C 2848.04 2.41669 -2.51787 0
M  V30 28351 C 2849.38 3.06034 -2.94327 0
M  V30 28352 O 2850.41 2.51997 -2.51746 0
M  V30 28353 O 2849.27 4.03978 -3.68054 0
M  V30 28354 H 2846.36 0.634704 -0.53017 0
M  V30 28355 H 2848.91 0.693359 -1.54889 0
M  V30 28356 H 2847.68 1.89621 -3.42286 0
M  V30 28357 H 2847.3 3.21997 -2.33247 0
M  V30 28358 N 2848.3 1.29191 0.902633 0
M  V30 28359 C 2849.23 1.09875 2.01147 0
M  V30 28360 C 2850.24 0.0471332 1.62732 0
M  V30 28361 O 2851.43 0.291351 1.76106 0
M  V30 28362 C 2848.53 0.649876 3.32611 0
M  V30 28363 C 2847.71 1.77937 3.99571 0
M  V30 28364 C 2846.76 1.322 5.09323 0
M  V30 28365 O 2845.79 2.0262 5.31915 0
M  V30 28366 N 2846.99 0.191273 5.80185 0
M  V30 28367 H 2849.76 2.05371 2.18272 0
M  V30 28368 H 2847.32 1.21092 1.07463 0
M  V30 28369 H 2849.31 0.32727 4.03375 0
M  V30 28370 H 2847.88 -0.212542 3.11877 0
M  V30 28371 H 2847.1 2.27101 3.22209 0
M  V30 28372 H 2848.39 2.53676 4.41051 0
M  V30 28373 H 2847.79 -0.395917 5.64313 0
M  V30 28374 H 2846.34 -0.0719855 6.5176 0
M  V30 28375 N 2849.78 -1.1126 1.1162 0
M  V30 28376 C 2850.74 -2.15538 0.779485 0
M  V30 28377 C 2851.74 -1.59525 -0.202053 0
M  V30 28378 O 2852.93 -1.74185 0.0226663 0
M  V30 28379 C 2850.06 -3.40539 0.1568 0
M  V30 28380 H 2851.25 -2.46837 1.70328 0
M  V30 28381 H 2848.81 -1.26478 0.918321 0
M  V30 28382 H 2849.54 -3.14851 -0.77713 0
M  V30 28383 H 2849.33 -3.82476 0.863375 0
M  V30 28384 H 2850.82 -4.17553 -0.0625876 0
M  V30 28385 N 2851.25 -0.906798 -1.28899 0
M  V30 28386 C 2852.19 -0.347199 -2.26555 0
M  V30 28387 C 2853.2 0.510463 -1.5459 0
M  V30 28388 O 2854.39 0.32647 -1.75489 0
M  V30 28389 C 2851.49 0.522965 -3.34841 0
M  V30 28390 C 2850.66 -0.310591 -4.36296 0
M  V30 28391 C 2849.72 0.493542 -5.2388 0
M  V30 28392 O 2848.75 -0.0914569 -5.69127 0
M  V30 28393 N 2849.95 1.79811 -5.5195 0
M  V30 28394 H 2852.71 -1.18657 -2.7521 0
M  V30 28395 H 2850.27 -0.772021 -1.42308 0
M  V30 28396 H 2852.27 1.06749 -3.90367 0
M  V30 28397 H 2850.84 1.26304 -2.85948 0
M  V30 28398 H 2850.06 -1.03651 -3.80329 0
M  V30 28399 H 2851.34 -0.881194 -5.01111 0
M  V30 28400 H 2850.74 2.29601 -5.1701 0
M  V30 28401 H 2849.3 2.28961 -6.10263 0
M  V30 28402 N 2852.73 1.42648 -0.670032 0
M  V30 28403 C 2853.96 2.05646 -0.198288 0
M  V30 28404 C 2854.37 1.50404 1.14784 0
M  V30 28405 O 2853.71 0.636665 1.72314 0
M  V30 28406 C 2853.78 3.59464 -0.0507764 0
M  V30 28407 C 2853.44 4.37375 -1.32485 0
M  V30 28408 C 2854.44 4.6834 -2.25729 0
M  V30 28409 C 2852.12 4.77096 -1.57112 0
M  V30 28410 C 2854.12 5.37957 -3.41879 0
M  V30 28411 C 2851.8 5.46454 -2.73553 0
M  V30 28412 C 2852.8 5.76808 -3.65761 0
M  V30 28413 O 2852.49 6.44745 -4.80166 0
M  V30 28414 H 2852.22 0.66928 -0.0950839 0
M  V30 28415 H 2854.77 1.83855 -0.915778 0
M  V30 28416 H 2853 3.79895 0.722248 0
M  V30 28417 H 2854.69 4.04113 0.380481 0
M  V30 28418 H 2855.46 4.38157 -2.07951 0
M  V30 28419 H 2851.34 4.52866 -0.862148 0
M  V30 28420 H 2854.88 5.61566 -4.13871 0
M  V30 28421 H 2850.78 5.76055 -2.91258 0
M  V30 28422 H 2851.55 6.63234 -4.79648 0
M  V30 28423 N 2854.21 0.413044 1.52091 0
M  V30 28424 C 2855.14 -0.401527 2.30022 0
M  V30 28425 C 2856.12 -1.04267 1.34397 0
M  V30 28426 O 2857.31 -1.05094 1.63306 0
M  V30 28427 C 2854.44 -1.51632 3.1245 0
M  V30 28428 C 2853.39 -0.999977 4.16154 0
M  V30 28429 C 2852.72 -2.20867 4.86952 0
M  V30 28430 C 2854.02 -0.0512839 5.22275 0
M  V30 28431 H 2855.71 0.248757 2.98365 0
M  V30 28432 H 2853.26 0.121077 1.4349 0
M  V30 28433 H 2855.21 -2.09319 3.65737 0
M  V30 28434 H 2853.93 -2.19454 2.41883 0
M  V30 28435 H 2852.59 -0.445485 3.63883 0
M  V30 28436 H 2852.24 -2.87252 4.1291 0
M  V30 28437 H 2851.94 -1.86968 5.57061 0
M  V30 28438 H 2853.47 -2.79153 5.43053 0
M  V30 28439 H 2854.88 -0.537076 5.70779 0
M  V30 28440 H 2853.28 0.199082 5.9977 0
M  V30 28441 H 2854.35 0.892819 4.7661 0
M  V30 28442 N 2855.69 -1.56945 0.143591 0
M  V30 28443 C 2856.93 -1.97905 -0.511163 0
M  V30 28444 C 2857.29 -1.02643 -1.6226 0
M  V30 28445 O 2858.49 -1.32635 -2.33798 0
M  V30 28446 C 2856.77 -3.42906 -1.00747 0
M  V30 28447 S 2858.32 -4.0589 -1.6673 0
M  V30 28448 H 2855.14 -0.691497 -0.165387 0
M  V30 28449 H 2857.74 -1.94089 0.234498 0
M  V30 28450 H 2856.45 -4.0997 -0.187745 0
M  V30 28451 H 2855.98 -3.50428 -1.78783 0
M  V30 28452 H 2857.99 -3.98662 -2.95437 0
M  V30 28453 N 2857.17 0.130197 -1.57061 0
M  V30 28454 C 2858.58 0.483386 -1.52104 0
M  V30 28455 C 2858.78 1.82471 -0.854784 0
M  V30 28456 O 2857.84 2.4877 -0.432386 0
M  V30 28457 C 2859.15 0.478198 -2.96873 0
M  V30 28458 C 2860.7 0.562538 -3.07903 0
M  V30 28459 C 2861.18 0.587849 -4.54212 0
M  V30 28460 N 2862.67 0.649603 -4.58622 0
M  V30 28461 C 2863.4 0.690451 -5.69228 0
M  V30 28462 N 2862.9 0.689622 -6.89359 0
M  V30 28463 N 2864.69 0.73261 -5.57305 0
M  V30 28464 H 2856.84 -0.748814 -1.98763 0
M  V30 28465 H 2859.1 -0.274981 -0.907243 0
M  V30 28466 H 2858.81 -0.439506 -3.48943 0
M  V30 28467 H 2858.68 1.31007 -3.53719 0
M  V30 28468 H 2861.07 1.47066 -2.55843 0
M  V30 28469 H 2861.15 -0.296809 -2.54072 0
M  V30 28470 H 2860.8 -0.316185 -5.06915 0
M  V30 28471 H 2860.73 1.46392 -5.05843 0
M  V30 28472 H 2863.22 0.656862 -3.72147 0
M  V30 28473 H 2863.53 0.723104 -7.6941 0
M  V30 28474 H 2861.88 0.657226 -6.91885 0
M  V30 28475 H 2865.07 0.730544 -4.62364 0
M  V30 28476 H 2865.24 0.760977 -6.43516 0
M  V30 28477 N 2858.65 1.52438 0.400055 0
M  V30 28478 C 2859.61 1.75795 1.47067 0
M  V30 28479 C 2860.61 0.627882 1.48035 0
M  V30 28480 O 2861.8 0.895843 1.494 0
M  V30 28481 C 2858.93 1.84863 2.86424 0
M  V30 28482 H 2860.12 2.7138 1.27644 0
M  V30 28483 H 2857.68 1.42992 0.631116 0
M  V30 28484 H 2858.41 0.912249 3.11205 0
M  V30 28485 H 2858.2 2.67026 2.87123 0
M  V30 28486 H 2859.69 2.04645 3.6402 0
M  V30 28487 N 2860.12 -0.657839 1.43214 0
M  V30 28488 C 2861.07 -1.76394 1.44462 0
M  V30 28489 C 2862.06 -1.57813 0.313668 0
M  V30 28490 O 2863.25 -1.68003 0.557123 0
M  V30 28491 C 2860.38 -3.14957 1.36591 0
M  V30 28492 C 2859.46 -3.39101 2.54698 0
M  V30 28493 N 2859.86 -3.33742 3.80065 0
M  V30 28494 C 2858.15 -3.69803 2.49323 0
M  V30 28495 C 2858.85 -3.57841 4.58612 0
M  V30 28496 N 2857.83 -3.7943 3.89273 0
M  V30 28497 H 2861.63 -1.70669 2.39268 0
M  V30 28498 H 2859.15 -0.859333 1.37801 0
M  V30 28499 H 2861.14 -3.94242 1.35568 0
M  V30 28500 H 2859.8 -3.21867 0.428013 0
M  V30 28501 H 2860.81 -3.13259 4.12419 0
M  V30 28502 H 2857.49 -3.83856 1.64197 0
M  V30 28503 H 2858.88 -3.59515 5.67625 0
M  V30 28504 N 2861.6 -1.29668 -0.895769 0
M  V30 28505 C 2862.83 -1.20888 -1.68526 0
M  V30 28506 C 2863.25 0.226563 -1.86731 0
M  V30 28507 O 2862.61 1.16344 -1.39046 0
M  V30 28508 C 2862.66 -1.9315 -3.04509 0
M  V30 28509 O 2861.76 -1.25122 -3.92961 0
M  V30 28510 H 2861.1 -0.418684 -0.515364 0
M  V30 28511 H 2863.63 -1.71304 -1.11875 0
M  V30 28512 H 2863.64 -2.01756 -3.54625 0
M  V30 28513 H 2862.32 -2.97553 -2.90577 0
M  V30 28514 H 2860.89 -1.248 -3.51396 0
M  V30 28515 N 2863.08 1.10667 -1.12208 0
M  V30 28516 C 2864.3 1.86904 -0.898971 0
M  V30 28517 C 2864.73 1.79992 0.546314 0
M  V30 28518 O 2864.09 1.16812 1.38653 0
M  V30 28519 C 2864.14 3.33342 -1.37534 0
M  V30 28520 O 2863.24 4.08686 -0.552252 0
M  V30 28521 H 2862.58 0.580048 -0.323173 0
M  V30 28522 H 2865.11 1.39834 -1.49357 0
M  V30 28523 H 2865.12 3.84191 -1.37337 0
M  V30 28524 H 2863.8 3.37689 -2.42773 0
M  V30 28525 H 2862.37 3.67693 -0.621012 0
M  V30 28526 N 2864.56 0.913621 1.28416 0
M  V30 28527 C 2865.52 0.406663 2.25563 0
M  V30 28528 C 2866.52 -0.466938 1.53871 0
M  V30 28529 O 2867.71 -0.270012 1.72095 0
M  V30 28530 C 2864.84 -0.416993 3.3834 0
M  V30 28531 H 2866.04 1.26482 2.71923 0
M  V30 28532 H 2863.59 0.693011 1.40097 0
M  V30 28533 H 2864.32 -1.29456 2.97341 0
M  V30 28534 H 2864.11 0.209171 3.91542 0
M  V30 28535 H 2865.6 -0.76253 4.10579 0
M  V30 28536 N 2866.04 -1.4229 0.677588 0
M  V30 28537 C 2867.28 -2.01102 0.200613 0
M  V30 28538 C 2867.6 -1.5386 -1.198 0
M  V30 28539 O 2866.87 -0.761471 -1.80495 0
M  V30 28540 H 2865.45 -0.743601 0.0711765 0
M  V30 28541 H 2868.12 -1.74168 0.874721 0
M  V30 28542 H 2867.21 -3.11432 0.204055 0
M  V30 28543 N 2867.51 -0.421104 -1.5187 0
M  V30 28544 C 2868.45 0.434025 -2.25053 0
M  V30 28545 C 2869.46 1.0001 -1.28459 0
M  V30 28546 O 2870.65 0.897005 -1.54325 0
M  V30 28547 C 2867.75 1.61738 -2.97815 0
M  V30 28548 C 2866.92 1.17307 -4.21376 0
M  V30 28549 C 2865.98 2.22469 -4.76858 0
M  V30 28550 O 2865.01 1.82568 -5.39127 0
M  V30 28551 N 2866.21 3.54774 -4.59473 0
M  V30 28552 H 2868.97 -0.193125 -2.99077 0
M  V30 28553 H 2866.53 -0.249116 -1.59972 0
M  V30 28554 H 2868.53 2.31679 -3.31824 0
M  V30 28555 H 2867.1 2.1502 -2.26903 0
M  V30 28556 H 2866.32 0.301331 -3.93047 0
M  V30 28557 H 2867.6 0.853356 -5.01593 0
M  V30 28558 H 2867 3.89934 -4.09839 0
M  V30 28559 H 2865.56 4.20656 -4.97887 0
M  V30 28560 N 2868.99 1.56866 -0.151912 0
M  V30 28561 C 2869.92 2.14145 0.81697 0
M  V30 28562 C 2870.94 1.09212 1.20733 0
M  V30 28563 O 2872.13 1.36471 1.15056 0
M  V30 28564 C 2869.23 2.6533 2.1084 0
M  V30 28565 C 2868.4 3.94715 1.88464 0
M  V30 28566 C 2867.46 4.3116 3.01641 0
M  V30 28567 O 2866.48 4.99395 2.73118 0
M  V30 28568 N 2867.69 3.9114 4.2894 0
M  V30 28569 H 2870.45 2.97906 0.327395 0
M  V30 28570 H 2868.01 1.61869 0.0315028 0
M  V30 28571 H 2870 2.8672 2.85611 0
M  V30 28572 H 2868.57 1.86266 2.51045 0
M  V30 28573 H 2867.79 3.819 0.977021 0
M  V30 28574 H 2869.08 4.79255 1.70857 0
M  V30 28575 H 2868.48 3.36169 4.5498 0
M  V30 28576 H 2867.04 4.17572 5.00477 0
M  V30 28577 N 2870.47 -0.121866 1.57128 0
M  V30 28578 C 2871.72 -0.831386 1.84975 0
M  V30 28579 C 2872.05 -1.79662 0.737236 0
M  V30 28580 O 2871.32 -1.92792 -0.257165 0
M  V30 28581 C 2871.61 -1.58381 3.234 0
M  V30 28582 C 2871.46 -0.638367 4.45247 0
M  V30 28583 C 2872.78 -2.54064 3.5936 0
M  V30 28584 H 2869.9 -0.300791 0.672825 0
M  V30 28585 H 2872.54 -0.0957254 1.89759 0
M  V30 28586 H 2870.69 -2.21093 3.19453 0
M  V30 28587 H 2872.36 -0.0203115 4.61296 0
M  V30 28588 H 2870.61 0.0503062 4.33771 0
M  V30 28589 H 2871.28 -1.20141 5.38767 0
M  V30 28590 H 2873.75 -2.01459 3.64079 0
M  V30 28591 H 2872.63 -3.03744 4.57199 0
M  V30 28592 H 2872.89 -3.36596 2.86628 0
M  V30 28593 N 2871.95 -1.52648 -0.391965 0
M  V30 28594 C 2872.91 -1.76573 -1.46132 0
M  V30 28595 C 2873.91 -0.635724 -1.477 0
M  V30 28596 O 2875.1 -0.903754 -1.48923 0
M  V30 28597 C 2872.23 -1.86379 -2.85439 0
M  V30 28598 H 2873.43 -2.72053 -1.26203 0
M  V30 28599 H 2870.98 -1.43324 -0.623523 0
M  V30 28600 H 2871.71 -0.92874 -3.10717 0
M  V30 28601 H 2871.5 -2.68544 -2.85703 0
M  V30 28602 H 2872.99 -2.06572 -3.62929 0
M  V30 28603 N 2873.43 0.650235 -1.43561 0
M  V30 28604 C 2874.84 0.966246 -1.27027 0
M  V30 28605 C 2875.04 2.00582 -0.192152 0
M  V30 28606 O 2874.1 2.48839 0.428415 0
M  V30 28607 C 2875.41 1.44767 -2.63558 0
M  V30 28608 C 2876.96 1.56416 -2.71114 0
M  V30 28609 C 2877.43 2.07949 -4.0807 0
M  V30 28610 N 2878.93 2.15247 -4.1015 0
M  V30 28611 C 2879.66 2.56249 -5.12956 0
M  V30 28612 N 2879.16 2.96526 -6.26134 0
M  V30 28613 N 2880.95 2.56215 -5.0031 0
M  V30 28614 H 2873.1 -0.0376131 -2.12367 0
M  V30 28615 H 2875.36 0.0457616 -0.946895 0
M  V30 28616 H 2875.07 0.758211 -3.4343 0
M  V30 28617 H 2874.94 2.42216 -2.89156 0
M  V30 28618 H 2877.33 2.24463 -1.91573 0
M  V30 28619 H 2877.41 0.573923 -2.49278 0
M  V30 28620 H 2877.06 1.40503 -4.88079 0
M  V30 28621 H 2876.99 3.07809 -4.27272 0
M  V30 28622 H 2879.48 1.86882 -3.28456 0
M  V30 28623 H 2879.79 3.2657 -7.00408 0
M  V30 28624 H 2878.13 2.94323 -6.29602 0
M  V30 28625 H 2881.33 2.24128 -4.10956 0
M  V30 28626 H 2881.5 2.87847 -5.80558 0
M  V30 28627 N 2874.9 1.30141 0.88888 0
M  V30 28628 C 2875.87 1.16177 1.97574 0
M  V30 28629 C 2876.87 0.0941142 1.60524 0
M  V30 28630 O 2878.06 0.341919 1.70811 0
M  V30 28631 C 2875.19 0.779041 3.31879 0
M  V30 28632 H 2876.38 2.12731 2.11389 0
M  V30 28633 H 2873.94 1.13482 1.07478 0
M  V30 28634 H 2874.67 -0.186168 3.23765 0
M  V30 28635 H 2874.46 1.55058 3.60138 0
M  V30 28636 H 2875.95 0.704704 4.11611 0
M  V30 28637 N 2876.38 -1.1007 1.12794 0
M  V30 28638 C 2877.63 -1.82379 0.886889 0
M  V30 28639 C 2877.96 -1.85156 -0.585728 0
M  V30 28640 O 2877.24 -1.31495 -1.43315 0
M  V30 28641 C 2877.52 -3.28859 1.46709 0
M  V30 28642 C 2877.37 -3.34393 3.00835 0
M  V30 28643 C 2878.69 -4.25351 1.12979 0
M  V30 28644 H 2875.81 -0.662142 0.323631 0
M  V30 28645 H 2878.45 -1.28979 1.39515 0
M  V30 28646 H 2876.6 -3.74464 1.03482 0
M  V30 28647 H 2878.27 -2.9724 3.52769 0
M  V30 28648 H 2876.52 -2.74177 3.36169 0
M  V30 28649 H 2877.19 -4.37554 3.36527 0
M  V30 28650 H 2879.66 -3.87999 1.5032 0
M  V30 28651 H 2878.54 -5.26196 1.56232 0
M  V30 28652 H 2878.8 -4.4208 0.0425229 0
M  V30 28653 N 2877.86 -0.920419 -1.2793 0
M  V30 28654 C 2878.79 -0.431064 -2.29487 0
M  V30 28655 C 2879.77 0.504833 -1.62436 0
M  V30 28656 O 2880.96 0.411142 -1.89798 0
M  V30 28657 C 2878.09 0.323648 -3.45789 0
M  V30 28658 C 2877.04 -0.523732 -4.24784 0
M  V30 28659 C 2876.37 0.359716 -5.33489 0
M  V30 28660 C 2877.67 -1.78445 -4.90871 0
M  V30 28661 H 2879.36 -1.2798 -2.70669 0
M  V30 28662 H 2876.91 -0.616836 -1.3012 0
M  V30 28663 H 2878.86 0.676879 -4.15928 0
M  V30 28664 H 2877.58 1.20634 -3.03504 0
M  V30 28665 H 2876.24 -0.859572 -3.5638 0
M  V30 28666 H 2875.89 1.24115 -4.87447 0
M  V30 28667 H 2875.59 -0.203709 -5.87247 0
M  V30 28668 H 2877.11 0.708681 -6.06473 0
M  V30 28669 H 2878.53 -1.49973 -5.53336 0
M  V30 28670 H 2876.93 -2.2908 -5.54655 0
M  V30 28671 H 2878 -2.50831 -4.14984 0
M  V30 28672 N 2879.34 1.41929 -0.685124 0
M  V30 28673 C 2880.29 2.27998 0.00973287 0
M  V30 28674 C 2881.27 1.41643 0.76329 0
M  V30 28675 O 2882.46 1.65005 0.640503 0
M  V30 28676 C 2879.59 3.2981 0.952914 0
M  V30 28677 C 2878.68 4.23646 0.196156 0
M  V30 28678 N 2879.07 4.99361 -0.804489 0
M  V30 28679 C 2877.37 4.43892 0.433135 0
M  V30 28680 C 2878.07 5.67966 -1.25656 0
M  V30 28681 N 2877.05 5.40449 -0.584495 0
M  V30 28682 H 2880.85 2.83967 -0.757636 0
M  V30 28683 H 2878.36 1.54016 -0.515064 0
M  V30 28684 H 2880.36 3.90283 1.46578 0
M  V30 28685 H 2879.02 2.75402 1.72 0
M  V30 28686 H 2880.03 5.04175 -1.18438 0
M  V30 28687 H 2876.71 4.00509 1.17892 0
M  V30 28688 H 2878.1 6.38688 -2.08633 0
M  V30 28689 N 2880.82 0.429152 1.51644 0
M  V30 28690 C 2882.06 -0.140251 2.02314 0
M  V30 28691 C 2882.4 -1.43072 1.31317 0
M  V30 28692 O 2881.67 -1.89787 0.425565 0
M  V30 28693 C 2881.95 -0.367427 3.58221 0
M  V30 28694 C 2881.81 0.941117 4.39844 0
M  V30 28695 C 2883.13 -1.14082 4.25057 0
M  V30 28696 H 2880.24 -0.0494983 0.735336 0
M  V30 28697 H 2882.89 0.566546 1.81357 0
M  V30 28698 H 2881.04 -0.96949 3.76209 0
M  V30 28699 H 2882.71 1.57653 4.33524 0
M  V30 28700 H 2880.95 1.54758 4.05256 0
M  V30 28701 H 2881.62 0.736306 5.47067 0
M  V30 28702 H 2884.1 -0.630913 4.11289 0
M  V30 28703 H 2882.97 -1.26853 5.34041 0
M  V30 28704 H 2883.24 -2.16676 3.85362 0
M  V30 28705 N 2882.29 -1.56783 0.160229 0
M  V30 28706 C 2883.24 -2.14008 -0.786423 0
M  V30 28707 C 2884.23 -1.07136 -1.20044 0
M  V30 28708 O 2885.42 -1.33285 -1.16466 0
M  V30 28709 C 2882.55 -2.77566 -2.02019 0
M  V30 28710 C 2881.64 -3.9158 -1.62867 0
M  V30 28711 N 2882.03 -4.96873 -0.946088 0
M  V30 28712 C 2880.32 -4.02534 -1.92047 0
M  V30 28713 C 2881.03 -5.7678 -0.754983 0
M  V30 28714 N 2880 -5.27999 -1.29298 0
M  V30 28715 H 2883.8 -2.92784 -0.255828 0
M  V30 28716 H 2881.32 -1.62349 -0.0408493 0
M  V30 28717 H 2883.31 -3.16933 -2.70849 0
M  V30 28718 H 2881.97 -2.00267 -2.55584 0
M  V30 28719 H 2882.99 -5.1435 -0.605365 0
M  V30 28720 H 2879.66 -3.36326 -2.47368 0
M  V30 28721 H 2881.05 -6.71553 -0.21602 0
M  V30 28722 N 2883.77 0.113531 -1.57191 0
M  V30 28723 C 2885.02 0.818729 -1.84773 0
M  V30 28724 C 2885.34 1.80157 -0.746228 0
M  V30 28725 O 2884.61 1.94554 0.229271 0
M  V30 28726 H 2883.19 0.305347 -0.681742 0
M  V30 28727 H 2885.85 0.0995502 -1.94646 0
M  V30 28728 H 2884.95 1.36062 -2.8088 0
M  V30 28729 N 2885.25 1.52854 0.383864 0
M  V30 28730 C 2886.5 1.67816 1.12616 0
M  V30 28731 C 2886.82 0.423174 1.90353 0
M  V30 28732 O 2886.09 -0.562521 1.8765 0
M  V30 28733 H 2884.67 0.618609 0.418727 0
M  V30 28734 H 2887.33 1.89985 0.434917 0
M  V30 28735 H 2886.43 2.53094 1.8262 0
M  V30 28736 N 2886.73 -0.642612 1.43904 0
M  V30 28737 C 2887.98 -1.3996 1.45793 0
M  V30 28738 C 2888.3 -1.94804 0.0873486 0
M  V30 28739 O 2887.57 -1.75083 -0.878794 0
M  V30 28740 H 2886.15 -0.51947 0.536806 0
M  V30 28741 H 2888.81 -0.757158 1.79592 0
M  V30 28742 H 2887.91 -2.23666 2.17669 0
M  V30 28743 N 2888.21 -1.30611 -0.881966 0
M  V30 28744 C 2889.46 -1.19371 -1.6308 0
M  V30 28745 C 2889.78 0.251113 -1.93376 0
M  V30 28746 O 2889.05 1.16855 -1.57232 0
M  V30 28747 H 2887.63 -0.438802 -0.604535 0
M  V30 28748 H 2890.29 -1.63778 -1.05655 0
M  V30 28749 H 2889.38 -1.75675 -2.57963 0
M  V30 28750 N 2889.69 1.0947 -1.13376 0
M  V30 28751 C 2891.1 1.6313 -0.908039 0
M  V30 28752 C 2891.45 1.88171 0.555543 0
M  V30 28753 O 2890.57 1.63107 1.42215 0
M  V30 28754 C 2891.17 2.96358 -1.64187 0
M  V30 28755 C 2889.73 3.46845 -1.46203 0
M  V30 28756 C 2888.87 2.2127 -1.67138 0
M  V30 28757 H 2891.82 0.928388 -1.28711 0
M  V30 28758 H 2891.85 3.64292 -1.0987 0
M  V30 28759 H 2891.36 2.78101 -2.70705 0
M  V30 28760 H 2889.46 3.70227 -0.419853 0
M  V30 28761 H 2889.57 4.24311 -2.22479 0
M  V30 28762 H 2887.94 2.29904 -1.0962 0
M  V30 28763 H 2888.72 2.05533 -2.74975 0
M  V30 28764 N 2891.16 0.92719 1.2744 0
M  V30 28765 C 2892.58 0.627355 1.46753 0
M  V30 28766 C 2892.78 -0.823517 1.83903 0
M  V30 28767 O 2891.84 -1.60145 1.95217 0
M  V30 28768 C 2893.15 1.57679 2.56043 0
M  V30 28769 C 2894.7 1.58496 2.69904 0
M  V30 28770 C 2895.17 2.52135 3.82351 0
M  V30 28771 N 2896.66 2.50339 3.89724 0
M  V30 28772 C 2897.4 3.19483 4.76149 0
M  V30 28773 N 2896.89 3.98005 5.67066 0
M  V30 28774 N 2898.69 3.08504 4.69874 0
M  V30 28775 H 2890.84 1.86519 1.0161 0
M  V30 28776 H 2893.1 0.800762 0.507429 0
M  V30 28777 H 2892.81 2.6118 2.35537 0
M  V30 28778 H 2892.68 1.3181 3.5342 0
M  V30 28779 H 2895.07 0.557259 2.89791 0
M  V30 28780 H 2895.15 1.88413 1.73015 0
M  V30 28781 H 2894.79 3.55015 3.63217 0
M  V30 28782 H 2894.72 2.19514 4.78666 0
M  V30 28783 H 2897.21 1.93312 3.24714 0
M  V30 28784 H 2897.53 4.47751 6.29872 0
M  V30 28785 H 2895.87 4.02108 5.66863 0
M  V30 28786 H 2899.06 2.46653 3.97844 0
M  V30 28787 H 2899.24 3.62661 5.37011 0
M  V30 28788 N 2892.64 -1.41564 0.692641 0
M  V30 28789 C 2893.89 -2.01574 0.2227 0
M  V30 28790 C 2894.22 -1.54721 -1.17367 0
M  V30 28791 O 2893.5 -0.757116 -1.79159 0
M  V30 28792 C 2893.78 -3.59032 0.277127 0
M  V30 28793 C 2893.63 -4.16018 1.71023 0
M  V30 28794 C 2894.95 -4.38586 -0.364713 0
M  V30 28795 H 2892.07 -0.73238 0.0823968 0
M  V30 28796 H 2894.71 -1.6835 0.880807 0
M  V30 28797 H 2892.86 -3.87466 -0.28322 0
M  V30 28798 H 2894.53 -3.98471 2.3242 0
M  V30 28799 H 2892.78 -3.71171 2.24531 0
M  V30 28800 H 2893.45 -5.25175 1.69987 0
M  V30 28801 H 2895.92 -4.15948 0.112477 0
M  V30 28802 H 2894.8 -5.48101 -0.296073 0
M  V30 28803 H 2895.06 -4.17819 -1.44499 0
M  V30 28804 N 2894.12 -0.437188 -1.51415 0
M  V30 28805 C 2895.05 0.410131 -2.25501 0
M  V30 28806 C 2896.06 0.986421 -1.29513 0
M  V30 28807 O 2897.25 0.880587 -1.55267 0
M  V30 28808 C 2894.35 1.5857 -2.99514 0
M  V30 28809 C 2893.53 1.12831 -4.22597 0
M  V30 28810 C 2892.59 2.17399 -4.79191 0
M  V30 28811 O 2891.61 1.7684 -5.41033 0
M  V30 28812 N 2892.81 3.49881 -4.6321 0
M  V30 28813 H 2895.58 -0.224836 -2.98855 0
M  V30 28814 H 2893.14 -0.266069 -1.59699 0
M  V30 28815 H 2895.13 2.28146 -3.34262 0
M  V30 28816 H 2893.7 2.12602 -2.29171 0
M  V30 28817 H 2892.92 0.259626 -3.93344 0
M  V30 28818 H 2894.21 0.800107 -5.0247 0
M  V30 28819 H 2893.61 3.85565 -4.13951 0
M  V30 28820 H 2892.16 4.15352 -5.02321 0
M  V30 28821 N 2895.6 1.56696 -0.168541 0
M  V30 28822 C 2896.84 1.9709 0.47783 0
M  V30 28823 C 2897.18 1.0544 1.63083 0
M  V30 28824 O 2896.45 0.100985 1.94238 0
M  V30 28825 C 2896.73 3.46972 0.96346 0
M  V30 28826 C 2896.59 4.49401 -0.189522 0
M  V30 28827 C 2897.91 3.99879 1.83806 0
M  V30 28828 H 2895.03 0.716596 0.172217 0
M  V30 28829 H 2897.67 1.88293 -0.254116 0
M  V30 28830 H 2895.82 3.546 1.58717 0
M  V30 28831 H 2897.49 4.53835 -0.826531 0
M  V30 28832 H 2895.73 4.25482 -0.845441 0
M  V30 28833 H 2896.4 5.51665 0.192349 0
M  V30 28834 H 2898.88 3.94865 1.31228 0
M  V30 28835 H 2897.76 5.05173 2.14688 0
M  V30 28836 H 2898.02 3.43528 2.78282 0
M  V30 28837 N 2897.08 -0.105193 1.57249 0
M  V30 28838 C 2898.3 -0.828231 1.90145 0
M  V30 28839 C 2898.73 -1.71981 0.761841 0
M  V30 28840 O 2898.08 -1.79013 -0.287054 0
M  V30 28841 C 2898.13 -1.62602 3.21859 0
M  V30 28842 O 2897.24 -2.73414 3.08737 0
M  V30 28843 H 2896.58 -0.228181 0.623562 0
M  V30 28844 H 2899.11 -0.0834466 2.0443 0
M  V30 28845 H 2899.12 -2.01237 3.54919 0
M  V30 28846 H 2897.79 -0.971616 4.04391 0
M  V30 28847 H 2896.37 -2.37881 2.87171 0
M  V30 28848 N 2898.55 -1.53055 -0.375752 0
M  V30 28849 C 2899.97 -1.60542 -0.953062 0
M  V30 28850 C 2900.32 -0.466479 -1.90574 0
M  V30 28851 O 2899.44 0.408571 -2.12508 0
M  V30 28852 C 2900.04 -2.90985 -1.73532 0
M  V30 28853 C 2898.6 -3.0084 -2.26213 0
M  V30 28854 C 2897.74 -2.55761 -1.07153 0
M  V30 28855 H 2900.69 -1.57943 -0.154867 0
M  V30 28856 H 2900.71 -2.78216 -2.5957 0
M  V30 28857 H 2900.23 -3.73859 -1.04169 0
M  V30 28858 H 2898.33 -2.22532 -2.98848 0
M  V30 28859 H 2898.44 -4.05731 -2.54792 0
M  V30 28860 H 2896.8 -2.10394 -1.4355 0
M  V30 28861 H 2897.59 -3.41043 -0.39304 0
M  V30 28862 N 2900.03 0.634971 -1.44242 0
M  V30 28863 C 2900.94 1.77588 -1.53296 0
M  V30 28864 C 2901.96 1.68883 -0.418861 0
M  V30 28865 O 2903.13 1.89728 -0.675652 0
M  V30 28866 C 2900.2 3.13956 -1.47081 0
M  V30 28867 C 2899.26 3.34321 -2.6931 0
M  V30 28868 C 2898.49 4.64183 -2.63382 0
M  V30 28869 O 2898.72 5.44736 -1.69171 0
M  V30 28870 O 2897.65 4.86666 -3.54174 0
M  V30 28871 H 2901.48 1.72904 -2.49676 0
M  V30 28872 H 2899.06 0.795723 -1.26446 0
M  V30 28873 H 2900.94 3.95254 -1.46124 0
M  V30 28874 H 2899.62 3.19191 -0.538429 0
M  V30 28875 H 2898.53 2.52716 -2.75836 0
M  V30 28876 H 2899.86 3.33945 -3.61582 0
M  V30 28877 N 2901.51 1.31076 0.875027 0
M  V30 28878 C 2902.93 1.09624 1.15995 0
M  V30 28879 C 2903.13 -0.136575 2.01037 0
M  V30 28880 O 2902.18 -0.827355 2.3856 0
M  V30 28881 C 2903.5 2.36509 1.85698 0
M  V30 28882 C 2905.04 2.42071 1.98421 0
M  V30 28883 C 2905.52 3.68824 2.71538 0
M  V30 28884 N 2907.01 3.69689 2.79077 0
M  V30 28885 C 2907.74 4.6446 3.36251 0
M  V30 28886 N 2907.24 5.69582 3.94396 0
M  V30 28887 N 2909.03 4.51988 3.34161 0
M  V30 28888 H 2901.18 2.10152 0.308221 0
M  V30 28889 H 2903.45 0.92685 0.199129 0
M  V30 28890 H 2903.15 3.26529 1.30658 0
M  V30 28891 H 2903.03 2.4592 2.86013 0
M  V30 28892 H 2905.41 1.52523 2.52628 0
M  V30 28893 H 2905.5 2.36628 0.971641 0
M  V30 28894 H 2905.14 4.58736 2.18 0
M  V30 28895 H 2905.07 3.71531 3.73192 0
M  V30 28896 H 2907.56 2.93696 2.37805 0
M  V30 28897 H 2907.87 6.37982 4.36118 0
M  V30 28898 H 2906.22 5.73362 3.92786 0
M  V30 28899 H 2909.41 3.6904 2.87971 0
M  V30 28900 H 2909.58 5.26024 3.78421 0
M  V30 28901 N 2902.99 -1.08867 1.13955 0
M  V30 28902 C 2904.22 -1.84911 0.928203 0
M  V30 28903 C 2904.63 -1.81407 -0.523165 0
M  V30 28904 O 2903.99 -1.21434 -1.36235 0
M  V30 28905 C 2904.04 -3.32649 1.41515 0
M  V30 28906 O 2903.76 -3.3614 2.80965 0
M  V30 28907 C 2905.26 -4.25514 1.24307 0
M  V30 28908 H 2902.48 -0.583892 0.330622 0
M  V30 28909 H 2905.03 -1.37525 1.51351 0
M  V30 28910 H 2903.18 -3.77442 0.872715 0
M  V30 28911 H 2903.59 -4.2833 3.02711 0
M  V30 28912 H 2905.07 -5.27309 1.63246 0
M  V30 28913 H 2905.55 -4.38809 0.185397 0
M  V30 28914 H 2906.15 -3.86543 1.77382 0
M  V30 28915 N 2904.47 -0.933936 -1.26946 0
M  V30 28916 C 2905.4 -0.395176 -2.25768 0
M  V30 28917 C 2906.41 0.477557 -1.55638 0
M  V30 28918 O 2907.6 0.289173 -1.76142 0
M  V30 28919 C 2904.7 0.451823 -3.35875 0
M  V30 28920 C 2903.87 -0.403066 -4.35539 0
M  V30 28921 C 2902.93 0.382308 -5.24809 0
M  V30 28922 O 2901.96 -0.212157 -5.68804 0
M  V30 28923 N 2903.16 1.68063 -5.55639 0
M  V30 28924 H 2905.93 -1.24468 -2.72631 0
M  V30 28925 H 2903.49 -0.802033 -1.40638 0
M  V30 28926 H 2905.48 0.984447 -3.92544 0
M  V30 28927 H 2904.05 1.2021 -2.88563 0
M  V30 28928 H 2903.27 -1.11695 -3.78045 0
M  V30 28929 H 2904.56 -0.987289 -4.99129 0
M  V30 28930 H 2903.95 2.18583 -5.21764 0
M  V30 28931 H 2902.51 2.15964 -6.14982 0
M  V30 28932 N 2905.94 1.41194 -0.700139 0
M  V30 28933 C 2907.19 2.01453 -0.233387 0
M  V30 28934 C 2907.52 1.55341 1.16545 0
M  V30 28935 O 2906.8 0.766606 1.78755 0
M  V30 28936 C 2907.08 3.5888 -0.296163 0
M  V30 28937 C 2906.93 4.15105 -1.73227 0
M  V30 28938 C 2908.25 4.38773 0.341448 0
M  V30 28939 H 2905.37 0.731932 -0.0862796 0
M  V30 28940 H 2908.01 1.67881 -0.889723 0
M  V30 28941 H 2906.16 3.87611 0.262667 0
M  V30 28942 H 2907.84 3.97232 -2.3453 0
M  V30 28943 H 2906.08 3.69975 -2.26497 0
M  V30 28944 H 2906.75 5.24266 -1.7277 0
M  V30 28945 H 2909.23 4.15882 -0.134534 0
M  V30 28946 H 2908.1 5.4825 0.267002 0
M  V30 28947 H 2908.36 4.18579 1.42281 0
M  V30 28948 N 2907.42 0.445212 1.51181 0
M  V30 28949 C 2908.37 -0.380355 2.24805 0
M  V30 28950 C 2909.36 -0.983459 1.27346 0
M  V30 28951 O 2910.55 -0.900295 1.52393 0
M  V30 28952 C 2907.68 -1.47654 3.09924 0
M  V30 28953 C 2906.76 -0.882444 4.14818 0
M  V30 28954 N 2907.15 -0.0182389 5.05797 0
M  V30 28955 C 2905.45 -1.14919 4.3094 0
M  V30 28956 C 2906.15 0.316254 5.8084 0
M  V30 28957 N 2905.13 -0.302118 5.4276 0
M  V30 28958 H 2908.93 0.285789 2.92507 0
M  V30 28959 H 2906.45 0.257761 1.60341 0
M  V30 28960 H 2908.44 -2.08091 3.61253 0
M  V30 28961 H 2907.1 -2.14494 2.43767 0
M  V30 28962 H 2908.11 0.34877 5.16724 0
M  V30 28963 H 2904.79 -1.8145 3.76008 0
M  V30 28964 H 2906.18 1.01998 6.64113 0
M  V30 28965 N 2908.9 -1.56605 0.176849 0
M  V30 28966 C 2909.86 -2.17014 -0.737391 0
M  V30 28967 C 2910.86 -1.11967 -1.15412 0
M  V30 28968 O 2912.05 -1.37451 -1.07018 0
M  V30 28969 C 2909.19 -2.75748 -2.0044 0
M  V30 28970 H 2910.38 -2.99154 -0.211403 0
M  V30 28971 H 2907.93 -1.56131 -0.0727308 0
M  V30 28972 H 2908.67 -1.97357 -2.57334 0
M  V30 28973 H 2908.45 -3.52629 -1.7145 0
M  V30 28974 H 2909.94 -3.22192 -2.65673 0
M  V30 28975 N 2910.38 0.0968524 -1.57302 0
M  V30 28976 C 2911.63 0.799085 -1.85631 0
M  V30 28977 C 2911.95 1.79355 -0.765294 0
M  V30 28978 O 2911.22 1.94786 0.208623 0
M  V30 28979 H 2909.8 0.298099 -0.684942 0
M  V30 28980 H 2912.46 0.0788999 -1.9474 0
M  V30 28981 H 2911.56 1.33075 -2.82307 0
M  V30 28982 N 2911.86 1.53252 0.36763 0
M  V30 28983 C 2913.27 1.42979 0.709166 0
M  V30 28984 C 2913.47 0.567227 1.93351 0
M  V30 28985 O 2912.53 0.0488793 2.52453 0
M  V30 28986 C 2913.84 2.86142 0.924287 0
M  V30 28987 C 2915.39 2.95761 1.02443 0
M  V30 28988 C 2915.86 4.39981 1.27203 0
M  V30 28989 N 2917.36 4.43401 1.33978 0
M  V30 28990 C 2918.09 5.52097 1.54842 0
M  V30 28991 N 2917.59 6.70843 1.73037 0
M  V30 28992 N 2919.38 5.39672 1.57195 0
M  V30 28993 H 2911.53 2.07841 -0.437705 0
M  V30 28994 H 2913.79 0.938517 -0.133754 0
M  V30 28995 H 2913.5 3.51568 0.0964837 0
M  V30 28996 H 2913.37 3.2967 1.83296 0
M  V30 28997 H 2915.76 2.3049 1.84277 0
M  V30 28998 H 2915.84 2.5563 0.0931852 0
M  V30 28999 H 2915.49 5.05824 0.458704 0
M  V30 29000 H 2915.42 4.77683 2.21646 0
M  V30 29001 H 2917.91 3.57822 1.21539 0
M  V30 29002 H 2918.22 7.49452 1.88525 0
M  V30 29003 H 2916.56 6.73833 1.70219 0
M  V30 29004 H 2919.76 4.45868 1.42547 0
M  V30 29005 H 2919.93 6.24448 1.73115 0
M  V30 29006 N 2913.34 -0.627313 1.44577 0
M  V30 29007 C 2914.56 -1.41391 1.5105 0
M  V30 29008 C 2914.98 -1.88305 0.136601 0
M  V30 29009 O 2914.34 -1.61061 -0.858223 0
M  V30 29010 C 2914.39 -2.63167 2.47841 0
M  V30 29011 O 2914.11 -2.18208 3.79891 0
M  V30 29012 C 2915.61 -3.56252 2.63817 0
M  V30 29013 H 2912.83 -0.433491 0.512179 0
M  V30 29014 H 2915.37 -0.766844 1.89578 0
M  V30 29015 H 2913.53 -3.23957 2.12439 0
M  V30 29016 H 2913.94 -2.97185 4.32182 0
M  V30 29017 H 2915.42 -4.38295 3.35562 0
M  V30 29018 H 2915.89 -4.0531 1.69176 0
M  V30 29019 H 2916.5 -3.01328 3.00136 0
M  V30 29020 N 2914.81 -1.31539 -0.868063 0
M  V30 29021 C 2916.06 -1.21513 -1.62365 0
M  V30 29022 C 2916.39 0.225786 -1.92883 0
M  V30 29023 O 2915.67 1.15925 -1.56178 0
M  V30 29024 C 2915.95 -2.06134 -2.95264 0
M  V30 29025 C 2915.8 -3.58534 -2.71612 0
M  V30 29026 C 2917.12 -1.91219 -3.96388 0
M  V30 29027 H 2914.24 -0.442772 -0.58917 0
M  V30 29028 H 2916.88 -1.61348 -1.00333 0
M  V30 29029 H 2915.03 -1.7229 -3.48207 0
M  V30 29030 H 2916.71 -4.02524 -2.25327 0
M  V30 29031 H 2914.95 -3.8187 -2.05811 0
M  V30 29032 H 2915.62 -4.13053 -3.66185 0
M  V30 29033 H 2918.1 -2.2084 -3.5266 0
M  V30 29034 H 2916.97 -2.52726 -4.87258 0
M  V30 29035 H 2917.23 -0.876029 -4.33334 0
M  V30 29036 N 2916.29 1.08262 -1.1453 0
M  V30 29037 C 2917.71 1.32749 -0.886 0
M  V30 29038 C 2917.91 1.95892 0.472062 0
M  V30 29039 O 2916.96 2.2129 1.21602 0
M  V30 29040 C 2918.28 2.2276 -2.01986 0
M  V30 29041 C 2919.82 2.36236 -2.05333 0
M  V30 29042 C 2920.3 3.2959 -3.18016 0
M  V30 29043 N 2921.79 3.37168 -3.17604 0
M  V30 29044 C 2922.53 4.09437 -4.01434 0
M  V30 29045 N 2922.02 4.84401 -4.95306 0
M  V30 29046 N 2923.81 4.05283 -3.89489 0
M  V30 29047 H 2915.97 0.656572 -2.01997 0
M  V30 29048 H 2918.23 0.351869 -0.88028 0
M  V30 29049 H 2917.93 1.8361 -2.99967 0
M  V30 29050 H 2917.81 3.23231 -1.94426 0
M  V30 29051 H 2920.2 2.74644 -1.07957 0
M  V30 29052 H 2920.28 1.35502 -2.16963 0
M  V30 29053 H 2919.92 2.91903 -4.15638 0
M  V30 29054 H 2919.85 4.30256 -3.03623 0
M  V30 29055 H 2922.34 2.83726 -2.49615 0
M  V30 29056 H 2922.65 5.37012 -5.55732 0
M  V30 29057 H 2921 4.83449 -4.99302 0
M  V30 29058 H 2924.19 3.45826 -3.15471 0
M  V30 29059 H 2924.36 4.61342 -4.55047 0
M  V30 29060 N 2917.77 0.940655 1.26449 0
M  V30 29061 C 2918.7 0.467519 2.28772 0
M  V30 29062 C 2919.68 -0.478927 1.63219 0
M  V30 29063 O 2920.87 -0.380895 1.90428 0
M  V30 29064 C 2918 -0.268595 3.4626 0
M  V30 29065 C 2916.95 0.591246 4.23897 0
M  V30 29066 C 2916.28 -0.274797 5.33993 0
M  V30 29067 C 2917.58 1.86232 4.8797 0
M  V30 29068 H 2919.27 1.3227 2.68598 0
M  V30 29069 H 2916.82 0.637458 1.29122 0
M  V30 29070 H 2918.77 -0.610623 4.16952 0
M  V30 29071 H 2917.49 -1.15791 3.05385 0
M  V30 29072 H 2916.15 0.916161 3.54968 0
M  V30 29073 H 2915.8 -1.16345 4.8936 0
M  V30 29074 H 2915.5 0.297109 5.86848 0
M  V30 29075 H 2917.02 -0.612106 6.07524 0
M  V30 29076 H 2918.44 1.58757 5.5088 0
M  V30 29077 H 2916.83 2.37875 5.5094 0
M  V30 29078 H 2917.9 2.57402 4.10941 0
M  V30 29079 N 2919.25 -1.40821 0.707617 0
M  V30 29080 C 2920.48 -2.05048 0.252742 0
M  V30 29081 C 2920.89 -1.53394 -1.10755 0
M  V30 29082 O 2920.23 -0.682127 -1.70566 0
M  V30 29083 C 2920.29 -3.59203 0.146064 0
M  V30 29084 C 2919.95 -4.33708 1.44035 0
M  V30 29085 C 2920.95 -4.62191 2.38067 0
M  V30 29086 C 2918.64 -4.72763 1.69706 0
M  V30 29087 C 2920.63 -5.28703 3.56022 0
M  V30 29088 C 2918.32 -5.39009 2.87945 0
M  V30 29089 C 2919.32 -5.66908 3.80925 0
M  V30 29090 O 2919 -6.31788 4.97091 0
M  V30 29091 H 2918.74 -0.666523 0.112795 0
M  V30 29092 H 2921.29 -1.81362 0.964202 0
M  V30 29093 H 2919.52 -3.81677 -0.621271 0
M  V30 29094 H 2921.21 -4.0498 -0.273204 0
M  V30 29095 H 2921.97 -4.32489 2.19495 0
M  V30 29096 H 2917.85 -4.50421 0.981915 0
M  V30 29097 H 2921.4 -5.50396 4.28614 0
M  V30 29098 H 2917.29 -5.6813 3.06429 0
M  V30 29099 H 2918.06 -6.50284 4.97064 0
M  V30 29100 N 2920.73 -0.453223 -1.50943 0
M  V30 29101 C 2921.97 0.106858 -2.0412 0
M  V30 29102 C 2922.33 1.38573 -1.32897 0
M  V30 29103 O 2923.53 2.02706 -1.76533 0
M  V30 29104 C 2921.8 0.304502 -3.561 0
M  V30 29105 S 2923.36 0.825708 -4.30961 0
M  V30 29106 H 2920.18 0.0243844 -0.710582 0
M  V30 29107 H 2922.78 -0.616272 -1.85533 0
M  V30 29108 H 2921.48 -0.632349 -4.05499 0
M  V30 29109 H 2921.02 1.05426 -3.7901 0
M  V30 29110 H 2923.03 2.10139 -4.49506 0
M  V30 29111 N 2922.2 1.56509 -0.185151 0
M  V30 29112 C 2923.62 1.58683 0.170837 0
M  V30 29113 C 2923.82 1.201 1.61797 0
M  V30 29114 O 2922.88 0.919079 2.35179 0
M  V30 29115 C 2924.19 3.0045 -0.122512 0
M  V30 29116 C 2925.74 3.12939 -0.0618249 0
M  V30 29117 C 2926.21 4.56821 -0.32835 0
M  V30 29118 N 2927.7 4.62373 -0.276614 0
M  V30 29119 C 2928.44 5.71577 -0.456823 0
M  V30 29120 N 2927.93 6.89287 -0.696841 0
M  V30 29121 N 2929.73 5.60733 -0.391767 0
M  V30 29122 H 2921.88 1.79872 -1.1296 0
M  V30 29123 H 2924.14 0.834321 -0.450124 0
M  V30 29124 H 2923.85 3.33204 -1.12552 0
M  V30 29125 H 2923.72 3.72722 0.579513 0
M  V30 29126 H 2926.11 2.80003 0.931776 0
M  V30 29127 H 2926.19 2.43074 -0.796774 0
M  V30 29128 H 2925.83 4.90468 -1.31922 0
M  V30 29129 H 2925.76 5.24863 0.427373 0
M  V30 29130 H 2928.25 3.77775 -0.0973123 0
M  V30 29131 H 2928.57 7.68401 -0.823426 0
M  V30 29132 H 2926.91 6.91117 -0.733619 0
M  V30 29133 H 2930.1 4.67652 -0.204745 0
M  V30 29134 H 2930.28 6.45782 -0.535632 0
M  V30 29135 N 2923.68 -0.0885089 1.57351 0
M  V30 29136 C 2924.64 -1.09117 2.01559 0
M  V30 29137 C 2925.64 -1.32568 0.910076 0
M  V30 29138 O 2926.83 -1.2857 1.17539 0
M  V30 29139 C 2923.97 -2.43878 2.38194 0
M  V30 29140 H 2925.16 -0.71051 2.91362 0
M  V30 29141 H 2922.71 -0.333752 1.52695 0
M  V30 29142 H 2923.45 -2.86808 1.51365 0
M  V30 29143 H 2923.23 -2.28203 3.1885 0
M  V30 29144 H 2924.72 -3.15981 2.7303 0
M  V30 29145 N 2925.16 -1.53445 -0.359498 0
M  V30 29146 C 2926.12 -1.79633 -1.42354 0
M  V30 29147 C 2927.12 -0.66691 -1.46318 0
M  V30 29148 O 2928.31 -0.935139 -1.46972 0
M  V30 29149 C 2925.44 -1.92392 -2.81422 0
M  V30 29150 H 2926.64 -2.74669 -1.20404 0
M  V30 29151 H 2924.19 -1.44615 -0.592982 0
M  V30 29152 H 2924.93 -0.994439 -3.08677 0
M  V30 29153 H 2924.71 -2.74544 -2.79943 0
M  V30 29154 H 2926.2 -2.14224 -3.58466 0
M  V30 29155 N 2926.64 0.619637 -1.44908 0
M  V30 29156 C 2927.89 1.37623 -1.48001 0
M  V30 29157 C 2928.21 1.94641 -0.118329 0
M  V30 29158 O 2927.48 1.76459 0.850829 0
M  V30 29159 H 2926.06 0.510864 -0.545002 0
M  V30 29160 H 2928.72 0.728491 -1.80773 0
M  V30 29161 H 2927.81 2.20175 -2.212 0
M  V30 29162 N 2928.12 1.31997 0.861075 0
M  V30 29163 C 2929.36 1.22372 1.61718 0
M  V30 29164 C 2929.7 -0.215553 1.93 0
M  V30 29165 O 2928.97 -1.15095 1.56791 0
M  V30 29166 C 2929.25 2.07697 2.94167 0
M  V30 29167 C 2929.11 3.5997 2.69707 0
M  V30 29168 C 2930.43 1.93319 3.95368 0
M  V30 29169 H 2927.54 0.445891 0.586814 0
M  V30 29170 H 2930.19 1.61878 0.994759 0
M  V30 29171 H 2928.34 1.74134 3.47289 0
M  V30 29172 H 2930.01 4.03713 2.23189 0
M  V30 29173 H 2928.25 3.82956 2.03783 0
M  V30 29174 H 2928.92 4.14989 3.63989 0
M  V30 29175 H 2931.4 2.22708 3.51483 0
M  V30 29176 H 2930.27 2.55307 4.85911 0
M  V30 29177 H 2930.54 0.898998 4.32863 0
M  V30 29178 N 2929.59 -1.07653 1.15103 0
M  V30 29179 C 2931.01 -1.61665 0.933876 0
M  V30 29180 C 2931.36 -1.89031 -0.525536 0
M  V30 29181 O 2930.48 -1.65349 -1.39602 0
M  V30 29182 C 2931.08 -2.93708 1.68881 0
M  V30 29183 C 2929.64 -3.44475 1.51703 0
M  V30 29184 C 2928.78 -2.18583 1.70637 0
M  V30 29185 H 2931.73 -0.907794 1.30172 0
M  V30 29186 H 2931.75 -3.62498 1.15651 0
M  V30 29187 H 2931.27 -2.7376 2.75095 0
M  V30 29188 H 2929.37 -3.69512 0.4787 0
M  V30 29189 H 2929.48 -4.20718 2.29201 0
M  V30 29190 H 2927.84 -2.2813 1.13263 0
M  V30 29191 H 2928.63 -2.01132 2.7821 0
M  V30 29192 N 2931.07 -0.947348 -1.25949 0
M  V30 29193 C 2932.3 -0.614668 -1.98082 0
M  V30 29194 C 2932.72 0.804785 -1.70014 0
M  V30 29195 O 2932.08 1.54308 -0.951777 0
M  V30 29196 C 2932.13 -0.870767 -3.49929 0
M  V30 29197 O 2931.23 0.0540726 -4.12365 0
M  V30 29198 H 2930.57 -0.234462 -0.621228 0
M  V30 29199 H 2933.1 -1.27196 -1.60257 0
M  V30 29200 H 2933.11 -0.794121 -4.00197 0
M  V30 29201 H 2931.79 -1.90535 -3.69688 0
M  V30 29202 H 2930.37 -0.0741572 -3.72826 0
M  V30 29203 N 2932.55 1.40444 -0.715075 0
M  V30 29204 C 2933.51 2.2909 -0.0709129 0
M  V30 29205 C 2934.51 1.45343 0.6879 0
M  V30 29206 O 2935.7 1.66262 0.519879 0
M  V30 29207 C 2932.84 3.28544 0.909471 0
M  V30 29208 H 2934.03 2.87553 -0.851661 0
M  V30 29209 H 2931.58 1.48757 -0.4797 0
M  V30 29210 H 2932.32 2.75099 1.71729 0
M  V30 29211 H 2932.1 3.90367 0.368249 0
M  V30 29212 H 2933.59 3.94924 1.35737 0
M  V30 29213 N 2934.03 0.461222 1.507 0
M  V30 29214 C 2935.26 -0.0951392 2.06681 0
M  V30 29215 C 2935.67 -1.3438 1.32618 0
M  V30 29216 O 2935.03 -1.78228 0.392562 0
M  V30 29217 C 2935.08 -0.393253 3.59355 0
M  V30 29218 O 2934.8 0.805872 4.30624 0
M  V30 29219 C 2936.3 -0.997669 4.31928 0
M  V30 29220 H 2933.52 0.00268438 0.670995 0
M  V30 29221 H 2936.07 0.647171 1.9399 0
M  V30 29222 H 2934.22 -1.08548 3.71882 0
M  V30 29223 H 2934.63 0.5445 5.21666 0
M  V30 29224 H 2936.11 -1.15609 5.39758 0
M  V30 29225 H 2936.59 -1.98516 3.91776 0
M  V30 29226 H 2937.19 -0.344114 4.23906 0
M  V30 29227 N 2935.51 -1.56408 0.193449 0
M  V30 29228 C 2936.76 -1.96708 -0.44596 0
M  V30 29229 C 2937.07 -1.08312 -1.62874 0
M  V30 29230 O 2938.27 -1.38388 -2.33583 0
M  V30 29231 C 2936.73 -3.49844 -0.844801 0
M  V30 29232 C 2936.34 -4.46901 0.313598 0
M  V30 29233 C 2938.08 -3.98917 -1.45139 0
M  V30 29234 C 2935.99 -5.91305 -0.10611 0
M  V30 29235 H 2934.92 -0.734496 -0.170385 0
M  V30 29236 H 2937.57 -1.8127 0.285204 0
M  V30 29237 H 2935.95 -3.60781 -1.63258 0
M  V30 29238 H 2937.13 -4.47696 1.09111 0
M  V30 29239 H 2935.44 -4.08012 0.831572 0
M  V30 29240 H 2938.04 -5.04279 -1.77783 0
M  V30 29241 H 2938.38 -3.4313 -2.35728 0
M  V30 29242 H 2938.91 -3.91089 -0.727606 0
M  V30 29243 H 2935.65 -6.51014 0.765557 0
M  V30 29244 H 2935.17 -5.93768 -0.848519 0
M  V30 29245 H 2936.85 -6.44722 -0.542474 0
M  V30 29246 N 2936.98 0.0801629 -1.57396 0
M  V30 29247 C 2938.21 0.794042 -1.91057 0
M  V30 29248 C 2938.63 1.71541 -0.788613 0
M  V30 29249 O 2937.98 1.80934 0.238555 0
M  V30 29250 C 2938.04 1.59478 -3.24421 0
M  V30 29251 O 2937.76 0.710456 -4.32301 0
M  V30 29252 C 2939.26 2.4104 -3.72041 0
M  V30 29253 H 2936.48 0.226227 -0.631714 0
M  V30 29254 H 2939.02 0.0529325 -2.04431 0
M  V30 29255 H 2937.18 2.28825 -3.12599 0
M  V30 29256 H 2937.59 1.26654 -5.08978 0
M  V30 29257 H 2939.06 2.92694 -4.68011 0
M  V30 29258 H 2939.54 3.20185 -3.0063 0
M  V30 29259 H 2940.15 1.76865 -3.8678 0
M  V30 29260 N 2938.46 1.53634 0.351355 0
M  V30 29261 C 2939.71 1.71699 1.09046 0
M  V30 29262 C 2940.06 0.470347 1.86562 0
M  V30 29263 O 2939.36 -0.536921 1.83923 0
M  V30 29264 C 2939.55 2.91537 2.06739 0
M  V30 29265 C 2939.38 4.27736 1.38824 0
M  V30 29266 C 2938.15 4.92356 1.13637 0
M  V30 29267 C 2940.35 5.07745 0.818513 0
M  V30 29268 N 2938.33 6.12446 0.422216 0
M  V30 29269 C 2939.7 6.19556 0.234493 0
M  V30 29270 C 2941.76 4.92687 0.718592 0
M  V30 29271 C 2940.46 7.17955 -0.439718 0
M  V30 29272 C 2942.48 5.91371 0.0581363 0
M  V30 29273 C 2941.85 7.02515 -0.514947 0
M  V30 29274 H 2937.95 0.681403 0.383685 0
M  V30 29275 H 2940.53 1.91054 0.375029 0
M  V30 29276 H 2938.7 2.73696 2.75581 0
M  V30 29277 H 2940.43 2.98358 2.73431 0
M  V30 29278 H 2937.19 4.51766 1.42142 0
M  V30 29279 H 2937.61 6.76953 0.0800902 0
M  V30 29280 H 2942.25 4.06933 1.14741 0
M  V30 29281 H 2939.97 8.03289 -0.880448 0
M  V30 29282 H 2943.56 5.81797 -0.0184405 0
M  V30 29283 H 2942.44 7.77566 -1.01791 0
M  V30 29284 N 2939.94 -0.611943 1.45234 0
M  V30 29285 C 2941.36 -0.932228 1.29544 0
M  V30 29286 C 2941.56 -2.00002 0.245265 0
M  V30 29287 O 2940.61 -2.49887 -0.362289 0
M  V30 29288 C 2941.93 -1.37729 2.67304 0
M  V30 29289 C 2943.47 -1.49173 2.75166 0
M  V30 29290 C 2943.95 -1.97056 4.1344 0
M  V30 29291 N 2945.44 -2.04297 4.15713 0
M  V30 29292 C 2946.17 -2.42559 5.1957 0
M  V30 29293 N 2945.67 -2.79821 6.33776 0
M  V30 29294 N 2947.46 -2.4286 5.06927 0
M  V30 29295 H 2939.61 0.0939052 2.12192 0
M  V30 29296 H 2941.88 -0.0206402 0.947775 0
M  V30 29297 H 2941.58 -0.66689 3.45319 0
M  V30 29298 H 2941.46 -2.34465 2.95476 0
M  V30 29299 H 2943.84 -2.19305 1.97457 0
M  V30 29300 H 2943.93 -0.50763 2.50713 0
M  V30 29301 H 2943.57 -1.27513 4.91633 0
M  V30 29302 H 2943.5 -2.96373 4.35283 0
M  V30 29303 H 2945.99 -1.78108 3.33296 0
M  V30 29304 H 2946.3 -3.07885 7.08821 0
M  V30 29305 H 2944.65 -2.77527 6.37184 0
M  V30 29306 H 2947.84 -2.13153 4.16753 0
M  V30 29307 H 2948.01 -2.72353 5.87986 0
M  V30 29308 N 2941.42 -1.32452 -0.854063 0
M  V30 29309 C 2942.37 -1.21438 -1.96269 0
M  V30 29310 C 2943.34 -0.0964142 -1.6582 0
M  V30 29311 O 2944.52 -0.272063 -1.8885 0
M  V30 29312 C 2941.66 -0.94401 -3.31937 0
M  V30 29313 C 2940.77 -2.14682 -3.74881 0
M  V30 29314 C 2939.91 -1.81188 -4.99344 0
M  V30 29315 C 2938.95 -2.97786 -5.3478 0
M  V30 29316 N 2938.08 -2.64382 -6.5042 0
M  V30 29317 H 2942.92 -2.16264 -2.05021 0
M  V30 29318 H 2940.46 -1.07559 -1.00346 0
M  V30 29319 H 2942.42 -0.767747 -4.10075 0
M  V30 29320 H 2941.05 -0.032533 -3.22784 0
M  V30 29321 H 2940.1 -2.43333 -2.92392 0
M  V30 29322 H 2941.41 -3.01898 -3.97063 0
M  V30 29323 H 2940.57 -1.60117 -5.8519 0
M  V30 29324 H 2939.31 -0.911861 -4.791 0
M  V30 29325 H 2938.31 -3.19488 -4.47445 0
M  V30 29326 H 2939.54 -3.88521 -5.56981 0
M  V30 29327 H 2937.48 -1.76921 -6.31692 0
M  V30 29328 H 2937.4 -3.45128 -6.72624 0
M  V30 29329 H 2938.67 -2.46742 -7.39418 0
M  V30 29330 N 2942.9 1.07041 -1.15672 0
M  V30 29331 C 2943.81 2.17853 -0.870473 0
M  V30 29332 C 2944.82 1.73313 0.154422 0
M  V30 29333 O 2946 2.0139 -0.0204113 0
M  V30 29334 C 2943.06 3.44749 -0.367279 0
M  V30 29335 C 2942.13 4.03839 -1.45646 0
M  V30 29336 C 2941.36 5.24678 -0.977184 0
M  V30 29337 O 2941.58 5.70128 0.176027 0
M  V30 29338 O 2940.52 5.75524 -1.76225 0
M  V30 29339 H 2944.34 2.44836 -1.79692 0
M  V30 29340 H 2941.93 1.16438 -0.936085 0
M  V30 29341 H 2943.81 4.21297 -0.0932687 0
M  V30 29342 H 2942.48 3.19311 0.531254 0
M  V30 29343 H 2941.39 3.28816 -1.78412 0
M  V30 29344 H 2942.72 4.33556 -2.33002 0
M  V30 29345 N 2944.38 0.954014 1.25445 0
M  V30 29346 C 2945.62 0.607261 1.92761 0
M  V30 29347 C 2945.94 -0.858368 1.75092 0
M  V30 29348 O 2945.21 -1.6113 1.11418 0
M  V30 29349 H 2943.79 0.221604 0.713373 0
M  V30 29350 H 2946.46 1.21212 1.52623 0
M  V30 29351 H 2945.55 0.836051 3.00694 0
M  V30 29352 N 2945.85 -1.40063 0.722513 0
M  V30 29353 C 2947.1 -2.00362 0.26449 0
M  V30 29354 C 2947.42 -1.57594 -1.14844 0
M  V30 29355 O 2946.69 -0.818508 -1.77981 0
M  V30 29356 H 2945.27 -0.74096 0.0947976 0
M  V30 29357 H 2947.93 -1.71297 0.929689 0
M  V30 29358 H 2947.03 -3.10625 0.303031 0
M  V30 29359 N 2947.33 -0.469207 -1.50453 0
M  V30 29360 C 2948.56 0.0864528 -2.0722 0
M  V30 29361 C 2948.98 1.32913 -1.331 0
M  V30 29362 O 2948.34 1.77313 -0.378115 0
M  V30 29363 C 2948.39 0.355321 -3.58845 0
M  V30 29364 O 2947.49 1.43615 -3.86586 0
M  V30 29365 H 2946.83 -0.0121531 -0.663889 0
M  V30 29366 H 2949.36 -0.659708 -1.93672 0
M  V30 29367 H 2949.37 0.596376 -4.03618 0
M  V30 29368 H 2948.05 -0.55277 -4.1221 0
M  V30 29369 H 2946.62 1.18256 -3.53652 0
M  V30 29370 N 2948.81 1.56303 -0.201741 0
M  V30 29371 C 2949.74 2.22396 0.711511 0
M  V30 29372 C 2950.72 1.18919 1.21623 0
M  V30 29373 O 2951.91 1.47446 1.26386 0
M  V30 29374 C 2949.04 2.88848 1.92831 0
M  V30 29375 C 2947.99 3.98626 1.55824 0
M  V30 29376 C 2947.32 4.52276 2.8522 0
M  V30 29377 C 2948.62 5.16694 0.763158 0
M  V30 29378 H 2950.31 2.98969 0.160521 0
M  V30 29379 H 2947.86 1.43801 0.0757663 0
M  V30 29380 H 2949.81 3.33769 2.57247 0
M  V30 29381 H 2948.53 2.0969 2.50395 0
M  V30 29382 H 2947.19 3.54406 0.937638 0
M  V30 29383 H 2946.84 3.69872 3.40887 0
M  V30 29384 H 2946.54 5.26353 2.61201 0
M  V30 29385 H 2948.06 4.99903 3.50613 0
M  V30 29386 H 2949.48 5.58119 1.31057 0
M  V30 29387 H 2947.87 5.9688 0.62083 0
M  V30 29388 H 2948.94 4.84333 -0.234407 0
M  V30 29389 N 2950.29 -0.0718147 1.57436 0
M  V30 29390 C 2951.7 -0.623647 1.75976 0
M  V30 29391 C 2952.05 -1.7791 0.827186 0
M  V30 29392 O 2951.17 -2.16397 0.0112805 0
M  V30 29393 C 2951.77 -1.1381 3.19112 0
M  V30 29394 C 2950.33 -1.6358 3.38996 0
M  V30 29395 C 2949.48 -0.555213 2.71685 0
M  V30 29396 H 2952.43 0.154356 1.57948 0
M  V30 29397 H 2952.45 -2.00691 3.2327 0
M  V30 29398 H 2951.96 -0.29693 3.86962 0
M  V30 29399 H 2950.06 -2.50022 2.7626 0
M  V30 29400 H 2950.17 -1.71276 4.47439 0
M  V30 29401 H 2948.54 -1.00025 2.34237 0
M  V30 29402 H 2949.32 0.275772 3.42191 0
M  V30 29403 N 2951.77 -1.53818 -0.343203 0
M  V30 29404 C 2953.18 -1.62527 -0.918794 0
M  V30 29405 C 2953.53 -0.506798 -1.89542 0
M  V30 29406 O 2952.65 0.363403 -2.13327 0
M  V30 29407 C 2953.25 -2.946 -1.67321 0
M  V30 29408 C 2951.81 -3.05571 -2.19781 0
M  V30 29409 C 2950.95 -2.57976 -1.01703 0
M  V30 29410 H 2953.9 -1.58236 -0.12133 0
M  V30 29411 H 2953.93 -2.83659 -2.5361 0
M  V30 29412 H 2953.44 -3.75984 -0.962157 0
M  V30 29413 H 2951.54 -2.28821 -2.94061 0
M  V30 29414 H 2951.65 -4.11045 -2.46128 0
M  V30 29415 H 2950.02 -2.13392 -1.39054 0
M  V30 29416 H 2950.8 -3.418 -0.320611 0
M  V30 29417 N 2953.24 0.604233 -1.45557 0
M  V30 29418 C 2954.18 1.72868 -1.50497 0
M  V30 29419 C 2955.19 1.57925 -0.395396 0
M  V30 29420 O 2956.38 1.65745 -0.662633 0
M  V30 29421 C 2953.48 3.10903 -1.34879 0
M  V30 29422 C 2952.65 3.52054 -2.5957 0
M  V30 29423 C 2951.71 4.69066 -2.38461 0
M  V30 29424 O 2950.74 4.76013 -3.1209 0
M  V30 29425 N 2951.94 5.6255 -1.43239 0
M  V30 29426 H 2954.7 1.69092 -2.47443 0
M  V30 29427 H 2952.26 0.789611 -1.41339 0
M  V30 29428 H 2954.26 3.86943 -1.18563 0
M  V30 29429 H 2952.83 3.09168 -0.461967 0
M  V30 29430 H 2952.05 2.65941 -2.90979 0
M  V30 29431 H 2953.33 3.76307 -3.42448 0
M  V30 29432 H 2952.73 5.59655 -0.824813 0
M  V30 29433 H 2951.29 6.38109 -1.32893 0
M  V30 29434 N 2954.72 1.32903 0.847027 0
M  V30 29435 C 2955.68 1.22404 1.93778 0
M  V30 29436 C 2956.68 0.145136 1.60144 0
M  V30 29437 O 2957.87 0.396088 1.69637 0
M  V30 29438 C 2955.01 0.884232 3.29233 0
M  V30 29439 H 2956.2 2.19349 2.04514 0
M  V30 29440 H 2953.75 1.16844 1.03813 0
M  V30 29441 H 2954.49 -0.0830707 3.24194 0
M  V30 29442 H 2954.27 1.66437 3.55023 0
M  V30 29443 H 2955.76 0.835298 4.09161 0
M  V30 29444 N 2956.2 -1.06426 1.16238 0
M  V30 29445 C 2957.62 -1.31322 0.907007 0
M  V30 29446 C 2957.82 -1.96619 -0.440837 0
M  V30 29447 O 2956.87 -2.23196 -1.18066 0
M  V30 29448 C 2958.18 -2.19518 2.05505 0
M  V30 29449 C 2959.73 -2.32939 2.09065 0
M  V30 29450 C 2960.21 -3.24489 3.2322 0
M  V30 29451 N 2961.7 -3.32072 3.22928 0
M  V30 29452 C 2962.43 -4.02999 4.07897 0
M  V30 29453 N 2961.93 -4.7646 5.02949 0
M  V30 29454 N 2963.72 -3.99036 3.95888 0
M  V30 29455 H 2955.87 -0.624353 2.03016 0
M  V30 29456 H 2958.14 -0.33782 0.885766 0
M  V30 29457 H 2957.84 -1.78814 3.0285 0
M  V30 29458 H 2957.72 -3.20097 1.99544 0
M  V30 29459 H 2960.1 -2.72891 1.12313 0
M  V30 29460 H 2960.18 -1.32033 2.19091 0
M  V30 29461 H 2959.83 -2.85253 4.2023 0
M  V30 29462 H 2959.76 -4.25371 3.1043 0
M  V30 29463 H 2962.25 -2.79719 2.54098 0
M  V30 29464 H 2962.56 -5.28102 5.64205 0
M  V30 29465 H 2960.91 -4.75444 5.0693 0
M  V30 29466 H 2964.1 -3.40763 3.20933 0
M  V30 29467 H 2964.27 -4.54044 4.62329 0
M  V30 29468 N 2957.68 -0.960653 -1.24937 0
M  V30 29469 C 2958.9 -0.635643 -1.97419 0
M  V30 29470 C 2959.33 0.786707 -1.70858 0
M  V30 29471 O 2958.69 1.5329 -0.96809 0
M  V30 29472 C 2958.73 -0.907833 -3.48985 0
M  V30 29473 O 2957.84 0.0103328 -4.12399 0
M  V30 29474 H 2957.18 -0.241038 -0.618706 0
M  V30 29475 H 2959.71 -1.28889 -1.58899 0
M  V30 29476 H 2959.72 -0.836523 -3.99332 0
M  V30 29477 H 2958.39 -1.94446 -3.67646 0
M  V30 29478 H 2956.97 -0.113696 -3.72727 0
M  V30 29479 N 2959.16 1.39677 -0.729931 0
M  V30 29480 C 2960.07 2.34435 -0.0880735 0
M  V30 29481 C 2961.08 1.58055 0.727647 0
M  V30 29482 O 2962.26 1.90373 0.657287 0
M  V30 29483 C 2959.32 3.37053 0.812152 0
M  V30 29484 C 2958.38 4.29297 -0.0152435 0
M  V30 29485 C 2957.62 5.27014 0.842109 0
M  V30 29486 O 2957.84 5.31085 2.08098 0
M  V30 29487 O 2956.77 6.01278 0.273465 0
M  V30 29488 H 2960.6 2.90971 -0.87004 0
M  V30 29489 H 2958.19 1.41117 -0.490547 0
M  V30 29490 H 2960.07 3.99948 1.32738 0
M  V30 29491 H 2958.74 2.8291 1.57302 0
M  V30 29492 H 2957.65 3.69641 -0.575876 0
M  V30 29493 H 2958.98 4.86633 -0.738215 0
M  V30 29494 N 2960.63 0.47718 1.50202 0
M  V30 29495 C 2962.05 0.131691 1.59056 0
M  V30 29496 C 2962.25 -1.36225 1.48476 0
M  V30 29497 O 2961.31 -2.13609 1.34638 0
M  V30 29498 C 2962.62 0.687306 2.9274 0
M  V30 29499 C 2964.17 0.651277 3.06149 0
M  V30 29500 C 2964.64 1.18454 4.42417 0
M  V30 29501 N 2966.13 1.14421 4.48845 0
M  V30 29502 C 2966.87 1.52727 5.52686 0
M  V30 29503 N 2966.36 1.98511 6.63751 0
M  V30 29504 N 2968.16 1.44292 5.43265 0
M  V30 29505 H 2960.31 1.44874 1.55323 0
M  V30 29506 H 2962.57 0.599486 0.734385 0
M  V30 29507 H 2962.28 1.7341 3.05977 0
M  V30 29508 H 2962.15 0.134282 3.76961 0
M  V30 29509 H 2964.54 -0.386626 2.92556 0
M  V30 29510 H 2964.62 1.24118 2.2367 0
M  V30 29511 H 2964.26 2.22111 4.5676 0
M  V30 29512 H 2964.19 0.570801 5.23497 0
M  V30 29513 H 2966.68 0.808481 3.6915 0
M  V30 29514 H 2967 2.25872 7.39055 0
M  V30 29515 H 2965.34 2.02468 6.64855 0
M  V30 29516 H 2968.53 1.0836 4.55385 0
M  V30 29517 H 2968.71 1.7447 6.24071 0
M  V30 29518 N 2962.11 -1.56194 0.210027 0
M  V30 29519 C 2963.34 -2.02383 -0.429961 0
M  V30 29520 C 2963.76 -1.09001 -1.54157 0
M  V30 29521 O 2963.11 -0.0975176 -1.82239 0
M  V30 29522 C 2963.16 -3.48177 -0.972372 0
M  V30 29523 O 2962.88 -4.37997 0.0949001 0
M  V30 29524 C 2964.39 -4.09955 -1.68676 0
M  V30 29525 H 2961.61 -0.6625 -0.106463 0
M  V30 29526 H 2964.15 -2.01931 0.323107 0
M  V30 29527 H 2962.3 -3.49281 -1.67576 0
M  V30 29528 H 2962.72 -5.23577 -0.311038 0
M  V30 29529 H 2964.19 -5.13774 -2.01842 0
M  V30 29530 H 2964.67 -3.5428 -2.59581 0
M  V30 29531 H 2965.28 -4.12668 -1.02885 0
M  V30 29532 N 2963.59 0.0634645 -1.57472 0
M  V30 29533 C 2964.87 0.794507 -1.78737 0
M  V30 29534 C 2965.25 1.95367 -0.79968 0
M  V30 29535 O 2964.6 2.279 0.165481 0
M  V30 29536 C 2964.81 1.2597 -3.25473 0
M  V30 29537 C 2966.15 1.68969 -3.89531 0
M  V30 29538 O 2967.18 1.35515 -3.29415 0
M  V30 29539 O 2966.04 2.30935 -4.95309 0
M  V30 29540 H 2963.13 0.381363 -0.733819 0
M  V30 29541 H 2965.68 0.042896 -1.69646 0
M  V30 29542 H 2964.45 0.430652 -3.88923 0
M  V30 29543 H 2964.07 2.07237 -3.39321 0
M  V30 29544 N 2965.07 1.53998 0.33504 0
M  V30 29545 C 2966.32 1.70867 1.07179 0
M  V30 29546 C 2966.63 0.483112 1.8954 0
M  V30 29547 O 2967.84 0.532926 2.66218 0
M  V30 29548 C 2966.29 3.02177 1.95492 0
M  V30 29549 C 2965.9 4.32099 1.18297 0
M  V30 29550 C 2967.64 3.28412 2.68972 0
M  V30 29551 C 2965.55 5.54478 2.05689 0
M  V30 29552 H 2964.48 0.636729 0.403846 0
M  V30 29553 H 2967.13 1.80495 0.330729 0
M  V30 29554 H 2965.51 2.86428 2.73451 0
M  V30 29555 H 2966.69 4.58579 0.451888 0
M  V30 29556 H 2965 4.12542 0.565484 0
M  V30 29557 H 2967.6 4.17035 3.34643 0
M  V30 29558 H 2967.94 2.4579 3.35996 0
M  V30 29559 H 2968.48 3.44976 1.98081 0
M  V30 29560 H 2965.22 6.39669 1.43193 0
M  V30 29561 H 2964.74 5.32234 2.76562 0
M  V30 29562 H 2966.41 5.90445 2.64544 0
M  V30 29563 N 2966.55 -0.596505 1.45875 0
M  V30 29564 C 2967.51 -1.6885 1.54991 0
M  V30 29565 C 2968.51 -1.5499 0.428329 0
M  V30 29566 O 2969.7 -1.59858 0.692186 0
M  V30 29567 C 2966.83 -3.08193 1.45705 0
M  V30 29568 H 2968.02 -1.6213 2.52297 0
M  V30 29569 H 2965.58 -0.813183 1.3348 0
M  V30 29570 H 2966.31 -3.2048 0.496261 0
M  V30 29571 H 2966.1 -3.19661 2.27067 0
M  V30 29572 H 2967.59 -3.87713 1.5514 0
M  V30 29573 N 2968.02 -1.3335 -0.839967 0
M  V30 29574 C 2969.25 -1.27781 -1.62726 0
M  V30 29575 C 2969.67 0.151472 -1.88191 0
M  V30 29576 O 2969.02 1.09327 -1.4613 0
M  V30 29577 C 2969.08 -2.04919 -2.9781 0
M  V30 29578 O 2968.8 -3.42271 -2.73463 0
M  V30 29579 C 2970.3 -2.06547 -3.92241 0
M  V30 29580 H 2967.52 -0.440266 -0.506366 0
M  V30 29581 H 2970.06 -1.75704 -1.04634 0
M  V30 29582 H 2968.22 -1.6068 -3.52506 0
M  V30 29583 H 2968.63 -3.81938 -3.59476 0
M  V30 29584 H 2970.1 -2.64975 -4.84244 0
M  V30 29585 H 2970.58 -1.05544 -4.2633 0
M  V30 29586 H 2971.19 -2.50799 -3.43482 0
M  V30 29587 N 2969.5 1.05808 -1.16801 0
M  V30 29588 C 2970.43 2.15363 -0.902279 0
M  V30 29589 C 2971.41 1.69408 0.153321 0
M  V30 29590 O 2972.6 1.942 0.00438619 0
M  V30 29591 C 2969.73 3.44895 -0.407972 0
M  V30 29592 C 2968.68 4.04384 -1.40204 0
M  V30 29593 C 2968.01 5.29186 -0.765941 0
M  V30 29594 C 2969.31 4.42593 -2.77324 0
M  V30 29595 H 2971 2.3785 -1.81846 0
M  V30 29596 H 2968.55 1.14309 -0.875751 0
M  V30 29597 H 2970.5 4.20879 -0.209524 0
M  V30 29598 H 2969.23 3.22042 0.543723 0
M  V30 29599 H 2967.88 3.30463 -1.58712 0
M  V30 29600 H 2967.53 5.02632 0.192394 0
M  V30 29601 H 2967.23 5.69947 -1.42949 0
M  V30 29602 H 2968.76 6.07862 -0.577626 0
M  V30 29603 H 2970.17 5.09637 -2.6257 0
M  V30 29604 H 2968.57 4.94353 -3.40198 0
M  V30 29605 H 2969.64 3.53225 -3.32205 0
M  V30 29606 N 2970.98 0.967265 1.24426 0
M  V30 29607 C 2971.91 0.515939 2.27729 0
M  V30 29608 C 2972.89 -0.444198 1.64198 0
M  V30 29609 O 2974.08 -0.340417 1.91193 0
M  V30 29610 C 2971.21 -0.195088 3.46752 0
M  V30 29611 C 2970.16 0.681027 4.22547 0
M  V30 29612 C 2969.49 -0.161467 5.34456 0
M  V30 29613 C 2970.79 1.96541 4.8391 0
M  V30 29614 H 2972.48 1.37937 2.65732 0
M  V30 29615 H 2970.03 0.664704 1.27741 0
M  V30 29616 H 2971.98 -0.522044 4.18154 0
M  V30 29617 H 2970.7 -1.09287 3.07773 0
M  V30 29618 H 2969.36 0.991248 3.52945 0
M  V30 29619 H 2969.01 -1.05938 4.91717 0
M  V30 29620 H 2968.71 0.421521 5.86086 0
M  V30 29621 H 2970.23 -0.483104 6.08686 0
M  V30 29622 H 2971.65 1.70406 5.47389 0
M  V30 29623 H 2970.05 2.49508 5.45771 0
M  V30 29624 H 2971.12 2.6606 4.05389 0
M  V30 29625 N 2972.46 -1.39288 0.737328 0
M  V30 29626 C 2973.71 -1.99702 0.283164 0
M  V30 29627 C 2974.02 -1.59178 -1.13674 0
M  V30 29628 O 2975.23 -2.12445 -1.69054 0
M  V30 29629 C 2973.68 -3.57008 0.455324 0
M  V30 29630 C 2973.29 -4.06494 1.88326 0
M  V30 29631 C 2975.04 -4.24453 0.0630532 0
M  V30 29632 C 2972.94 -5.56381 2.00485 0
M  V30 29633 H 2971.87 -0.747053 0.102119 0
M  V30 29634 H 2974.52 -1.59258 0.911543 0
M  V30 29635 H 2972.91 -3.9526 -0.241987 0
M  V30 29636 H 2974.08 -3.79571 2.61272 0
M  V30 29637 H 2972.39 -3.51719 2.22896 0
M  V30 29638 H 2974.99 -5.34535 0.132881 0
M  V30 29639 H 2975.33 -4.04551 -0.982057 0
M  V30 29640 H 2975.87 -3.91383 0.711608 0
M  V30 29641 H 2972.61 -5.81166 3.03193 0
M  V30 29642 H 2972.13 -5.851 1.31979 0
M  V30 29643 H 2973.81 -6.21829 1.78711 0
M  V30 29644 N 2973.94 -0.485139 -1.49947 0
M  V30 29645 C 2975.35 -0.0334369 -1.8667 0
M  V30 29646 C 2975.7 1.37577 -1.39882 0
M  V30 29647 O 2974.82 2.02244 -0.769823 0
M  V30 29648 C 2975.42 -0.0539021 -3.38757 0
M  V30 29649 C 2973.98 0.342387 -3.7484 0
M  V30 29650 C 2973.13 -0.433329 -2.73893 0
M  V30 29651 H 2976.08 -0.698724 -1.4249 0
M  V30 29652 H 2976.1 0.74508 -3.73134 0
M  V30 29653 H 2975.61 -1.07966 -3.7278 0
M  V30 29654 H 2973.71 1.37197 -3.46421 0
M  V30 29655 H 2973.82 0.0339661 -4.79088 0
M  V30 29656 H 2972.19 0.114804 -2.54441 0
M  V30 29657 H 2972.97 -1.45886 -3.1076 0
M  V30 29658 N 2975.42 1.56081 -0.218307 0
M  V30 29659 C 2976.38 2.18893 0.679594 0
M  V30 29660 C 2977.38 1.14988 1.12403 0
M  V30 29661 O 2978.57 1.4024 1.03336 0
M  V30 29662 C 2975.7 2.80965 1.93058 0
M  V30 29663 H 2976.89 2.99609 0.132013 0
M  V30 29664 H 2974.45 1.56269 0.0313099 0
M  V30 29665 H 2975.18 2.0411 2.52011 0
M  V30 29666 H 2974.97 3.57051 1.6204 0
M  V30 29667 H 2976.46 3.29123 2.57037 0
M  V30 29668 N 2976.89 -0.0551124 1.57504 0
M  V30 29669 C 2978.14 -0.749976 1.87238 0
M  V30 29670 C 2978.46 -1.7789 0.8133 0
M  V30 29671 O 2979.66 -2.52451 0.999025 0
M  V30 29672 C 2978.12 -1.38485 3.3219 0
M  V30 29673 C 2977.73 -0.393629 4.46267 0
M  V30 29674 C 2979.47 -2.0611 3.71105 0
M  V30 29675 C 2977.38 -1.03536 5.82266 0
M  V30 29676 H 2976.31 -0.283854 0.698529 0
M  V30 29677 H 2978.96 -0.00362772 1.835 0
M  V30 29678 H 2977.34 -2.18003 3.30592 0
M  V30 29679 H 2978.51 0.372946 4.59288 0
M  V30 29680 H 2976.83 0.179093 4.16015 0
M  V30 29681 H 2979.43 -2.54929 4.70016 0
M  V30 29682 H 2979.77 -2.86791 3.01756 0
M  V30 29683 H 2980.3 -1.33402 3.74765 0
M  V30 29684 H 2977.04 -0.268529 6.5495 0
M  V30 29685 H 2976.56 -1.7724 5.73015 0
M  V30 29686 H 2978.24 -1.55036 6.2815 0
M  V30 29687 N 2978.37 -1.54173 -0.326869 0
M  V30 29688 C 2979.6 -1.76179 -1.08483 0
M  V30 29689 C 2980.01 -0.508819 -1.81814 0
M  V30 29690 O 2979.37 0.520331 -1.74925 0
M  V30 29691 C 2979.42 -2.9528 -2.08547 0
M  V30 29692 O 2979.14 -4.15733 -1.38194 0
M  V30 29693 C 2980.64 -3.29471 -2.96587 0
M  V30 29694 H 2977.86 -0.588239 -0.322825 0
M  V30 29695 H 2980.41 -2.01051 -0.374001 0
M  V30 29696 H 2978.56 -2.72692 -2.75169 0
M  V30 29697 H 2978.98 -4.82703 -2.05177 0
M  V30 29698 H 2980.45 -4.16116 -3.62701 0
M  V30 29699 H 2980.93 -2.46494 -3.63507 0
M  V30 29700 H 2981.53 -3.54126 -2.35531 0
M  V30 29701 N 2979.85 0.58876 -1.4619 0
M  V30 29702 C 2981.08 1.37337 -1.54746 0
M  V30 29703 C 2981.49 1.87877 -0.186479 0
M  V30 29704 O 2980.85 1.6328 0.815219 0
M  V30 29705 C 2980.9 2.56504 -2.54732 0
M  V30 29706 O 2980.62 2.08059 -3.85543 0
M  V30 29707 C 2982.12 3.49132 -2.7317 0
M  V30 29708 H 2979.34 0.419759 -0.523492 0
M  V30 29709 H 2981.89 0.716312 -1.91544 0
M  V30 29710 H 2980.04 3.18211 -2.20954 0
M  V30 29711 H 2980.46 2.85622 -4.3991 0
M  V30 29712 H 2981.93 4.29244 -3.47065 0
M  V30 29713 H 2982.41 4.00682 -1.79863 0
M  V30 29714 H 2983.01 2.93265 -3.08019 0
M  V30 29715 N 2981.33 1.33794 0.832883 0
M  V30 29716 C 2982.29 1.24452 1.92469 0
M  V30 29717 C 2983.29 0.162113 1.59981 0
M  V30 29718 O 2984.48 0.414058 1.69208 0
M  V30 29719 C 2981.61 0.919102 3.28276 0
M  V30 29720 H 2982.81 2.21506 2.02176 0
M  V30 29721 H 2980.36 1.17938 1.02568 0
M  V30 29722 H 2981.09 -0.048681 3.24263 0
M  V30 29723 H 2980.88 1.70193 3.53238 0
M  V30 29724 H 2982.37 0.878648 4.08252 0
M  V30 29725 N 2982.81 -1.05187 1.1736 0
M  V30 29726 C 2984.08 -1.7509 0.871944 0
M  V30 29727 C 2984.46 -2.01549 -0.627785 0
M  V30 29728 O 2983.81 -1.65159 -1.57907 0
M  V30 29729 C 2984.02 -3.0441 1.70692 0
M  V30 29730 C 2985.37 -3.78359 1.92691 0
M  V30 29731 O 2986.39 -3.14279 1.67651 0
M  V30 29732 O 2985.25 -4.93501 2.34774 0
M  V30 29733 H 2982.35 -0.761381 0.322845 0
M  V30 29734 H 2984.89 -1.11355 1.28056 0
M  V30 29735 H 2983.66 -2.80906 2.7241 0
M  V30 29736 H 2983.29 -3.75882 1.29608 0
M  V30 29737 N 2984.28 -0.97385 -1.23911 0
M  V30 29738 C 2985.25 -0.513819 -2.23366 0
M  V30 29739 C 2986.25 0.392992 -1.55924 0
M  V30 29740 O 2987.44 0.187596 -1.73187 0
M  V30 29741 C 2984.57 0.255092 -3.39944 0
M  V30 29742 H 2985.76 -1.39312 -2.65579 0
M  V30 29743 H 2983.31 -0.759063 -1.36631 0
M  V30 29744 H 2984.05 1.15122 -3.03179 0
M  V30 29745 H 2983.83 -0.395742 -3.90098 0
M  V30 29746 H 2985.32 0.565769 -4.1375 0
M  V30 29747 N 2985.76 1.38895 -0.744705 0
M  V30 29748 C 2987.01 1.99916 -0.296333 0
M  V30 29749 C 2987.33 1.59401 1.12323 0
M  V30 29750 O 2986.6 0.84672 1.76656 0
M  V30 29751 H 2985.18 0.739359 -0.106574 0
M  V30 29752 H 2987.84 1.69797 -0.956823 0
M  V30 29753 H 2986.94 3.10104 -0.352411 0
M  V30 29754 N 2987.24 0.493084 1.49688 0
M  V30 29755 C 2988.49 -0.0542359 2.02427 0
M  V30 29756 C 2988.82 -1.37723 1.37341 0
M  V30 29757 O 2988.07 -1.89322 0.495557 0
M  V30 29758 C 2988.37 -0.263473 3.56428 0
M  V30 29759 C 2988.04 0.980537 4.40109 0
M  V30 29760 C 2986.7 1.32156 4.62697 0
M  V30 29761 C 2989.05 1.8078 4.88844 0
M  V30 29762 C 2986.38 2.4895 5.31263 0
M  V30 29763 C 2988.73 2.9672 5.58695 0
M  V30 29764 C 2987.39 3.31212 5.7953 0
M  V30 29765 H 2986.66 -0.0198463 0.740734 0
M  V30 29766 H 2989.31 0.651634 1.80072 0
M  V30 29767 H 2987.62 -1.0518 3.77418 0
M  V30 29768 H 2989.31 -0.701279 3.9482 0
M  V30 29769 H 2985.9 0.704889 4.22764 0
M  V30 29770 H 2990.09 1.55749 4.71228 0
M  V30 29771 H 2985.34 2.7592 5.45599 0
M  V30 29772 H 2989.52 3.61154 5.95433 0
M  V30 29773 H 2987.14 4.21817 6.32436 0
M  V30 29774 N 2988.72 -1.55963 0.226582 0
M  V30 29775 C 2989.95 -2.02534 -0.407879 0
M  V30 29776 C 2990.36 -1.10557 -1.53538 0
M  V30 29777 O 2989.7 -0.108442 -1.8338 0
M  V30 29778 C 2989.76 -3.45427 -0.996021 0
M  V30 29779 C 2989.43 -4.57 -0.00333619 0
M  V30 29780 C 2990.42 -5.13726 0.798872 0
M  V30 29781 C 2988.11 -5.02164 0.116875 0
M  V30 29782 C 2990.1 -6.14091 1.70795 0
M  V30 29783 C 2987.79 -6.02366 1.02948 0
M  V30 29784 C 2988.79 -6.58206 1.82355 0
M  V30 29785 O 2988.47 -7.56457 2.72081 0
M  V30 29786 H 2988.21 -0.668028 -0.103513 0
M  V30 29787 H 2990.76 -2.02533 0.341973 0
M  V30 29788 H 2988.99 -3.42512 -1.79506 0
M  V30 29789 H 2990.68 -3.75616 -1.53842 0
M  V30 29790 H 2991.45 -4.79679 0.716477 0
M  V30 29791 H 2987.32 -4.58377 -0.491092 0
M  V30 29792 H 2990.87 -6.57603 2.32818 0
M  V30 29793 H 2986.77 -6.35834 1.11287 0
M  V30 29794 H 2987.53 -7.73998 2.66212 0
M  V30 29795 N 2990.2 0.0467589 -1.57531 0
M  V30 29796 C 2991.13 1.05264 -2.08427 0
M  V30 29797 C 2992.11 1.38823 -0.982966 0
M  V30 29798 O 2993.29 1.48015 -1.25718 0
M  V30 29799 C 2990.42 2.35887 -2.54902 0
M  V30 29800 C 2989.38 2.16617 -3.69136 0
M  V30 29801 C 2988.7 3.52844 -4.01753 0
M  V30 29802 C 2990 1.56681 -4.98245 0
M  V30 29803 H 2991.7 0.629029 -2.92718 0
M  V30 29804 H 2989.24 0.301131 -1.40816 0
M  V30 29805 H 2991.2 3.06569 -2.89125 0
M  V30 29806 H 2989.92 2.80275 -1.67671 0
M  V30 29807 H 2988.58 1.48371 -3.35234 0
M  V30 29808 H 2988.23 3.94848 -3.11615 0
M  V30 29809 H 2987.93 3.40782 -4.78687 0
M  V30 29810 H 2989.45 4.24917 -4.38495 0
M  V30 29811 H 2990.86 2.17259 -5.30539 0
M  V30 29812 H 2989.26 1.55244 -5.79672 0
M  V30 29813 H 2990.33 0.530742 -4.81987 0
M  V30 29814 N 2991.67 1.54344 0.318688 0
M  V30 29815 C 2992.91 1.7451 1.06422 0
M  V30 29816 C 2993.28 0.510605 1.85086 0
M  V30 29817 O 2994.48 0.589693 2.62252 0
M  V30 29818 C 2992.75 2.98831 1.96048 0
M  V30 29819 S 2994.31 3.39921 2.77487 0
M  V30 29820 H 2991.13 0.613593 0.359199 0
M  V30 29821 H 2993.73 1.92527 0.339645 0
M  V30 29822 H 2992.43 3.86822 1.37102 0
M  V30 29823 H 2991.96 2.83351 2.72903 0
M  V30 29824 H 2993.98 2.95603 3.98539 0
M  V30 29825 N 2993.15 -0.580999 1.465 0
M  V30 29826 C 2994.4 -1.34113 1.52123 0
M  V30 29827 C 2994.73 -1.93427 0.173065 0
M  V30 29828 O 2994.01 -1.76569 -0.815698 0
M  V30 29829 C 2994.29 -2.4692 2.62112 0
M  V30 29830 C 2994.14 -1.92629 4.06465 0
M  V30 29831 C 2995.46 -3.48957 2.68173 0
M  V30 29832 H 2992.58 -0.486277 0.553808 0
M  V30 29833 H 2995.22 -0.652507 1.78444 0
M  V30 29834 H 2993.37 -3.05661 2.39799 0
M  V30 29835 H 2995.04 -1.38332 4.4007 0
M  V30 29836 H 2993.29 -1.23448 4.15864 0
M  V30 29837 H 2993.96 -2.74068 4.79157 0
M  V30 29838 H 2996.43 -3.00099 2.88235 0
M  V30 29839 H 2995.31 -4.25344 3.46949 0
M  V30 29840 H 2995.57 -4.06294 1.74291 0
M  V30 29841 N 2994.63 -1.34234 -0.825776 0
M  V30 29842 C 2995.59 -1.25471 -1.91806 0
M  V30 29843 C 2996.59 -0.170595 -1.59893 0
M  V30 29844 O 2997.78 -0.423026 -1.68986 0
M  V30 29845 C 2994.92 -0.936498 -3.27784 0
M  V30 29846 H 2996.11 -2.22575 -2.00999 0
M  V30 29847 H 2993.66 -1.18481 -1.01941 0
M  V30 29848 H 2994.4 0.0314838 -3.24285 0
M  V30 29849 H 2994.18 -1.72064 -3.5233 0
M  V30 29850 H 2995.67 -0.900286 -4.0778 0
M  V30 29851 N 2996.11 1.04563 -1.17917 0
M  V30 29852 C 2997.34 1.81338 -0.996192 0
M  V30 29853 C 2997.75 1.83223 0.455477 0
M  V30 29854 O 2997.11 1.26407 1.31634 0
M  V30 29855 C 2997.16 3.27168 -1.53764 0
M  V30 29856 O 2996.88 3.25481 -2.93247 0
M  V30 29857 C 2998.38 4.20608 -1.40014 0
M  V30 29858 H 2995.6 0.571219 -0.352065 0
M  V30 29859 H 2998.15 1.31813 -1.56351 0
M  V30 29860 H 2996.3 3.73943 -1.0122 0
M  V30 29861 H 2996.71 4.168 -3.184 0
M  V30 29862 H 2998.19 5.20887 -1.82704 0
M  V30 29863 H 2998.67 4.37818 -0.348131 0
M  V30 29864 H 2999.27 3.79693 -1.91606 0
M  V30 29865 N 2997.59 0.980408 1.23393 0
M  V30 29866 C 2998.81 0.66697 1.96383 0
M  V30 29867 C 2999.24 -0.759426 1.72088 0
M  V30 29868 O 2998.59 -1.5173 0.992355 0
M  V30 29869 C 2998.64 0.963238 3.47497 0
M  V30 29870 O 2997.75 0.0552775 4.12363 0
M  V30 29871 H 2997.09 0.25085 0.614793 0
M  V30 29872 H 2999.62 1.314 1.56828 0
M  V30 29873 H 2999.63 0.899947 3.97951 0
M  V30 29874 H 2998.3 2.0027 3.64506 0
M  V30 29875 H 2996.88 0.172979 3.72499 0
M  V30 29876 N 2999.06 -1.38498 0.75206 0
M  V30 29877 C 3000.48 -1.82887 0.375417 0
M  V30 29878 C 3000.83 -1.62753 -1.09572 0
M  V30 29879 O 2999.95 -1.12788 -1.84683 0
M  V30 29880 C 3000.55 -3.32016 0.674621 0
M  V30 29881 C 2999.11 -3.74757 0.351274 0
M  V30 29882 C 2998.25 -2.61291 0.928577 0
M  V30 29883 H 3001.2 -1.27249 0.948335 0
M  V30 29884 H 3001.22 -3.8047 -0.0477112 0
M  V30 29885 H 3000.74 -3.46638 1.74539 0
M  V30 29886 H 2998.84 -3.65715 -0.712978 0
M  V30 29887 H 2998.95 -4.71576 0.845758 0
M  V30 29888 H 2997.31 -2.52227 0.354056 0
M  V30 29889 H 2998.1 -2.78713 2.00435 0
M  V30 29890 N 3000.54 -0.501015 -1.49424 0
M  V30 29891 C 3001.51 0.266376 -2.27647 0
M  V30 29892 C 3002.51 0.893938 -1.33661 0
M  V30 29893 O 3003.7 0.758468 -1.56821 0
M  V30 29894 C 3000.83 1.38222 -3.11621 0
M  V30 29895 H 3002.02 -0.420025 -2.96944 0
M  V30 29896 H 2999.57 -0.255982 -1.5419 0
M  V30 29897 H 3000.31 2.10277 -2.46889 0
M  V30 29898 H 3000.09 0.937679 -3.80723 0
M  V30 29899 H 3001.58 1.92277 -3.70701 0
M  V30 29900 N 3002.02 1.5584 -0.234849 0
M  V30 29901 C 3003.27 1.98253 0.392448 0
M  V30 29902 C 3003.59 1.12406 1.59342 0
M  V30 29903 O 3002.86 0.204089 1.94834 0
M  V30 29904 H 3001.44 0.732195 0.147986 0
M  V30 29905 H 3004.1 1.92072 -0.330838 0
M  V30 29906 H 3003.2 3.03922 0.709776 0
M  V30 29907 N 3003.5 -0.038404 1.57553 0
M  V30 29908 C 3004.73 -0.743107 1.93095 0
M  V30 29909 C 3005.14 -1.6939 0.833817 0
M  V30 29910 O 3004.5 -1.81503 -0.1905 0
M  V30 29911 C 3004.55 -1.50821 3.28535 0
M  V30 29912 O 3004.27 -0.595589 4.34033 0
M  V30 29913 C 3005.77 -2.31091 3.78301 0
M  V30 29914 H 3002.99 -0.209399 0.63749 0
M  V30 29915 H 3005.54 0.00128748 2.045 0
M  V30 29916 H 3003.69 -2.20456 3.18556 0
M  V30 29917 H 3004.11 -1.13115 5.12157 0
M  V30 29918 H 3005.58 -2.80183 4.75607 0
M  V30 29919 H 3006.06 -3.12102 3.09013 0
M  V30 29920 H 3006.66 -1.66548 3.91334 0
M  V30 29921 N 3004.98 -1.54511 -0.310498 0
M  V30 29922 C 3005.94 -1.84071 -1.36567 0
M  V30 29923 C 3006.94 -0.713122 -1.44122 0
M  V30 29924 O 3008.13 -0.981424 -1.43923 0
M  V30 29925 C 3005.26 -2.01248 -2.75159 0
M  V30 29926 H 3006.46 -2.7836 -1.11605 0
M  V30 29927 H 3004.01 -1.46428 -0.546674 0
M  V30 29928 H 3004.74 -1.09214 -3.05357 0
M  V30 29929 H 3004.53 -2.83311 -2.71067 0
M  V30 29930 H 3006.02 -2.2552 -3.51469 0
M  V30 29931 N 3006.46 0.573222 -1.46806 0
M  V30 29932 C 3007.39 1.69637 -1.5413 0
M  V30 29933 C 3008.4 1.57051 -0.428805 0
M  V30 29934 O 3009.59 1.64302 -0.69764 0
M  V30 29935 C 3006.69 3.07972 -1.41443 0
M  V30 29936 C 3005.86 3.46469 -2.6698 0
M  V30 29937 C 3004.92 4.63902 -2.48357 0
M  V30 29938 O 3003.95 4.69286 -3.22117 0
M  V30 29939 N 3005.15 5.59386 -1.55139 0
M  V30 29940 H 3007.91 1.63806 -2.50974 0
M  V30 29941 H 3005.48 0.759453 -1.42982 0
M  V30 29942 H 3007.47 3.84341 -1.26744 0
M  V30 29943 H 3006.04 3.08118 -0.527442 0
M  V30 29944 H 3005.26 2.59709 -2.96555 0
M  V30 29945 H 3006.55 3.68958 -3.50353 0
M  V30 29946 H 3005.94 5.57779 -0.943338 0
M  V30 29947 H 3004.5 6.35146 -1.46398 0
M  V30 29948 N 3007.93 1.3467 0.818645 0
M  V30 29949 C 3008.9 1.26487 1.91138 0
M  V30 29950 C 3009.9 0.179072 1.598 0
M  V30 29951 O 3011.09 0.431982 1.68759 0
M  V30 29952 C 3008.22 0.953868 3.27283 0
M  V30 29953 H 3009.41 2.23637 1.99816 0
M  V30 29954 H 3006.96 1.19019 1.01312 0
M  V30 29955 H 3007.7 -0.0142857 3.24297 0
M  V30 29956 H 3007.48 1.7393 3.51413 0
M  V30 29957 H 3008.97 0.921899 4.07297 0
M  V30 29958 N 3009.41 -1.03936 1.1847 0
M  V30 29959 C 3010.83 -1.29369 0.934658 0
M  V30 29960 C 3011.03 -1.97509 -0.399033 0
M  V30 29961 O 3010.08 -2.2565 -1.13305 0
M  V30 29962 C 3011.4 -2.1511 2.10115 0
M  V30 29963 C 3012.94 -2.28452 2.13959 0
M  V30 29964 C 3013.42 -3.1756 3.3003 0
M  V30 29965 N 3014.91 -3.25148 3.29899 0
M  V30 29966 C 3015.65 -3.94256 4.16353 0
M  V30 29967 N 3015.14 -4.65684 5.12943 0
M  V30 29968 N 3016.93 -3.90548 4.04263 0
M  V30 29969 H 3009.09 -0.581149 2.04295 0
M  V30 29970 H 3011.35 -0.318955 0.892733 0
M  V30 29971 H 3011.05 -1.7235 3.06575 0
M  V30 29972 H 3010.93 -3.15792 2.06289 0
M  V30 29973 H 3013.32 -2.70448 1.18076 0
M  V30 29974 H 3013.4 -1.27356 2.21842 0
M  V30 29975 H 3013.04 -2.76276 4.26186 0
M  V30 29976 H 3012.97 -4.18691 3.19383 0
M  V30 29977 H 3015.46 -2.74266 2.59974 0
M  V30 29978 H 3015.77 -5.16016 5.7528 0
M  V30 29979 H 3014.12 -4.64584 5.16901 0
M  V30 29980 H 3017.31 -3.33879 3.28089 0
M  V30 29981 H 3017.48 -4.44136 4.71856 0
M  V30 29982 N 3010.89 -0.986938 -1.22871 0
M  V30 29983 C 3012.14 -0.654945 -1.9077 0
M  V30 29984 C 3012.45 0.815919 -1.7777 0
M  V30 29985 O 3013.66 1.25925 -2.40531 0
M  V30 29986 C 3012.11 -1.12087 -3.42001 0
M  V30 29987 C 3011.72 -2.61654 -3.6365 0
M  V30 29988 C 3013.47 -0.862927 -4.15637 0
M  V30 29989 C 3011.37 -3.0188 -5.08549 0
M  V30 29990 H 3010.3 -0.241264 -0.714358 0
M  V30 29991 H 3012.95 -1.19571 -1.39194 0
M  V30 29992 H 3011.34 -0.508276 -3.92725 0
M  V30 29993 H 3012.51 -3.28208 -3.23444 0
M  V30 29994 H 3010.82 -2.85265 -3.03336 0
M  V30 29995 H 3013.42 -1.13924 -5.22423 0
M  V30 29996 H 3013.76 0.200963 -4.15815 0
M  V30 29997 H 3014.3 -1.43742 -3.70922 0
M  V30 29998 H 3011.04 -4.0742 -5.13507 0
M  V30 29999 H 3010.56 -2.40025 -5.4968 0
M  V30 30000 H 3012.24 -2.92849 -5.7693 0
M  V30 30001 N 3012.37 1.38098 -0.759394 0
M  V30 30002 C 3013.3 2.29 -0.095695 0
M  V30 30003 C 3014.31 1.48031 0.677535 0
M  V30 30004 O 3015.5 1.70829 0.517666 0
M  V30 30005 C 3012.6 3.27049 0.888383 0
M  V30 30006 C 3011.77 4.37063 0.171575 0
M  V30 30007 C 3010.83 5.15264 1.06723 0
M  V30 30008 O 3009.86 5.66674 0.535599 0
M  V30 30009 N 3011.06 5.28801 2.39477 0
M  V30 30010 H 3013.83 2.86599 -0.876404 0
M  V30 30011 H 3011.39 1.49941 -0.610676 0
M  V30 30012 H 3013.38 3.76244 1.49072 0
M  V30 30013 H 3011.95 2.70306 1.57013 0
M  V30 30014 H 3011.17 3.89428 -0.611541 0
M  V30 30015 H 3012.46 5.07766 -0.324211 0
M  V30 30016 H 3011.86 4.88594 2.85119 0
M  V30 30017 H 3010.41 5.8135 2.94747 0
M  V30 30018 N 3013.85 0.508932 1.49156 0
M  V30 30019 C 3015.09 -0.0328112 2.02773 0
M  V30 30020 C 3015.42 -1.3591 1.38716 0
M  V30 30021 O 3014.7 -1.87265 0.525569 0
M  V30 30022 C 3014.98 -0.177025 3.59665 0
M  V30 30023 C 3014.84 1.17295 4.34237 0
M  V30 30024 C 3016.15 -0.913901 4.30507 0
M  V30 30025 H 3013.27 -0.0104502 0.736926 0
M  V30 30026 H 3015.92 0.661883 1.78099 0
M  V30 30027 H 3014.07 -0.768707 3.80819 0
M  V30 30028 H 3015.74 1.80412 4.24558 0
M  V30 30029 H 3013.98 1.76023 3.96483 0
M  V30 30030 H 3014.65 1.02526 5.42395 0
M  V30 30031 H 3017.13 -0.412011 4.14055 0
M  V30 30032 H 3016 -0.983664 5.40014 0
M  V30 30033 H 3016.26 -1.95944 3.96306 0
M  V30 30034 N 3015.32 -1.55714 0.243111 0
M  V30 30035 C 3016.57 -1.99146 -0.383252 0
M  V30 30036 C 3016.9 -1.13101 -1.57866 0
M  V30 30037 O 3016.18 -0.193543 -1.93535 0
M  V30 30038 C 3016.46 -3.51174 -0.796818 0
M  V30 30039 C 3016.31 -4.47985 0.403721 0
M  V30 30040 C 3017.63 -4.08193 -1.64518 0
M  V30 30041 H 3014.75 -0.723997 -0.137831 0
M  V30 30042 H 3017.39 -1.86866 0.343663 0
M  V30 30043 H 3015.54 -3.61769 -1.41618 0
M  V30 30044 H 3017.22 -4.49375 1.04212 0
M  V30 30045 H 3015.46 -4.20964 1.04748 0
M  V30 30046 H 3016.13 -5.51954 0.0710764 0
M  V30 30047 H 3018.61 -4.00676 -1.12239 0
M  V30 30048 H 3017.48 -5.14841 -1.90341 0
M  V30 30049 H 3017.74 -3.56414 -2.61575 0
M  V30 30050 N 3016.8 0.030048 -1.57571 0
M  V30 30051 C 3018.05 0.722126 -1.89508 0
M  V30 30052 C 3018.38 1.75058 -0.84073 0
M  V30 30053 O 3017.66 1.93964 0.144324 0
M  V30 30054 C 3017.94 1.39256 -3.32084 0
M  V30 30055 C 3017.79 0.377689 -4.48212 0
M  V30 30056 C 3019.11 2.3268 -3.73561 0
M  V30 30057 H 3016.23 0.261051 -0.689218 0
M  V30 30058 H 3018.87 -0.0150722 -1.89994 0
M  V30 30059 H 3017.02 2.02092 -3.318 0
M  V30 30060 H 3018.69 -0.248672 -4.60629 0
M  V30 30061 H 3016.94 -0.303121 -4.3274 0
M  V30 30062 H 3017.61 0.885251 -5.44855 0
M  V30 30063 H 3020.08 1.7989 -3.75205 0
M  V30 30064 H 3018.96 2.76571 -4.7413 0
M  V30 30065 H 3019.22 3.19312 -3.05765 0
M  V30 30066 N 3018.28 1.54674 0.3023 0
M  V30 30067 C 3019.21 1.88535 1.37756 0
M  V30 30068 C 3020.19 0.74414 1.52959 0
M  V30 30069 O 3021.38 0.99976 1.66489 0
M  V30 30070 C 3018.51 2.13151 2.74197 0
M  V30 30071 C 3017.46 3.28998 2.7376 0
M  V30 30072 C 3016.79 3.39029 4.13477 0
M  V30 30073 C 3018.09 4.66136 2.35616 0
M  V30 30074 H 3019.78 2.78593 1.09665 0
M  V30 30075 H 3017.33 1.34045 0.526107 0
M  V30 30076 H 3019.28 2.35425 3.49504 0
M  V30 30077 H 3018 1.19863 3.0381 0
M  V30 30078 H 3016.66 3.06645 2.00909 0
M  V30 30079 H 3016.31 2.43261 4.40265 0
M  V30 30080 H 3016.01 4.16901 4.14086 0
M  V30 30081 H 3017.53 3.63562 4.90566 0
M  V30 30082 H 3018.95 4.88149 3.00639 0
M  V30 30083 H 3017.35 5.46712 2.4744 0
M  V30 30084 H 3018.42 4.66941 1.30745 0
M  V30 30085 N 3019.76 -0.565428 1.47108 0
M  V30 30086 C 3020.98 -1.3534 1.57155 0
M  V30 30087 C 3021.41 -1.86817 0.21928 0
M  V30 30088 O 3020.77 -1.62522 -0.80351 0
M  V30 30089 C 3020.81 -2.50496 2.59392 0
M  V30 30090 O 3019.92 -3.52474 2.14092 0
M  V30 30091 H 3019.26 -0.402348 0.528216 0
M  V30 30092 H 3021.79 -0.684155 1.92822 0
M  V30 30093 H 3021.8 -2.97179 2.79551 0
M  V30 30094 H 3020.47 -2.12384 3.57583 0
M  V30 30095 H 3019.05 -3.12153 2.03997 0
M  V30 30096 N 3021.24 -1.35102 -0.811492 0
M  V30 30097 C 3022.2 -1.27499 -1.90465 0
M  V30 30098 C 3023.2 -0.187544 -1.59703 0
M  V30 30099 O 3024.39 -0.440925 -1.68527 0
M  V30 30100 C 3021.52 -0.971211 -3.26773 0
M  V30 30101 H 3022.71 -2.24694 -1.98627 0
M  V30 30102 H 3020.27 -1.19555 -1.00679 0
M  V30 30103 H 3021 -0.0029127 -3.243 0
M  V30 30104 H 3020.79 -1.75791 -3.50485 0
M  V30 30105 H 3022.28 -0.943486 -4.06802 0
M  V30 30106 N 3022.71 1.03306 -1.19019 0
M  V30 30107 C 3023.94 1.80809 -1.01602 0
M  V30 30108 C 3024.36 1.83102 0.43074 0
M  V30 30109 O 3023.72 1.25393 1.30943 0
M  V30 30110 C 3023.77 3.2392 -1.58455 0
M  V30 30111 O 3022.87 4.04346 -0.811043 0
M  V30 30112 H 3022.22 0.558321 -0.359408 0
M  V30 30113 H 3024.75 1.30053 -1.57948 0
M  V30 30114 H 3024.76 3.74679 -1.61492 0
M  V30 30115 H 3023.43 3.21566 -2.63758 0
M  V30 30116 H 3022.01 3.62999 -0.853593 0
M  V30 30117 N 3024.19 0.99344 1.22346 0
M  V30 30118 C 3025.47 0.585528 1.8663 0
M  V30 30119 C 3025.85 -0.937154 1.89158 0
M  V30 30120 O 3025.2 -1.81932 1.3825 0
M  V30 30121 C 3025.41 1.20658 3.27479 0
M  V30 30122 C 3026.76 1.30745 4.03969 0
M  V30 30123 O 3027.78 1.16101 3.36748 0
M  V30 30124 O 3026.64 1.54183 5.243 0
M  V30 30125 H 3023.73 0.198998 0.802701 0
M  V30 30126 H 3026.28 1.08935 1.3012 0
M  V30 30127 H 3025.05 2.24808 3.20277 0
M  V30 30128 H 3024.67 0.688381 3.91596 0
M  V30 30129 N 3025.67 -1.37693 0.766707 0
M  V30 30130 C 3026.63 -2.28669 0.155889 0
M  V30 30131 C 3027.63 -1.47796 -0.633483 0
M  V30 30132 O 3028.82 -1.68076 -0.457814 0
M  V30 30133 C 3025.96 -3.31694 -0.786907 0
M  V30 30134 H 3027.15 -2.84194 0.957798 0
M  V30 30135 H 3024.7 -1.46874 0.534579 0
M  V30 30136 H 3025.44 -2.81283 -1.61401 0
M  V30 30137 H 3025.22 -3.91465 -0.223113 0
M  V30 30138 H 3026.71 -3.9969 -1.20987 0
M  V30 30139 N 3027.15 -0.516835 -1.48884 0
M  V30 30140 C 3028.37 0.0204836 -2.0739 0
M  V30 30141 C 3028.8 1.28612 -1.37261 0
M  V30 30142 O 3028.16 1.76021 -0.434335 0
M  V30 30143 C 3028.2 0.240977 -3.59794 0
M  V30 30144 O 3027.31 1.31244 -3.90959 0
M  V30 30145 H 3026.65 -0.033268 -0.663166 0
M  V30 30146 H 3029.18 -0.720989 -1.91476 0
M  V30 30147 H 3029.19 0.467666 -4.05311 0
M  V30 30148 H 3027.86 -0.683632 -4.10243 0
M  V30 30149 H 3026.44 1.06945 -3.57236 0
M  V30 30150 N 3028.63 1.55583 -0.251365 0
M  V30 30151 C 3030.04 1.85006 0.250948 0
M  V30 30152 C 3030.39 1.17323 1.57257 0
M  V30 30153 O 3029.51 0.453173 2.11602 0
M  V30 30154 C 3030.11 3.35634 0.462102 0
M  V30 30155 C 3028.67 3.65267 0.908673 0
M  V30 30156 C 3027.81 2.77298 -0.0115905 0
M  V30 30157 H 3030.77 1.51462 -0.473809 0
M  V30 30158 H 3030.79 3.57455 1.30408 0
M  V30 30159 H 3030.3 3.84866 -0.499954 0
M  V30 30160 H 3028.4 3.21516 1.88304 0
M  V30 30161 H 3028.51 4.72994 0.762443 0
M  V30 30162 H 3026.88 2.49733 0.500568 0
M  V30 30163 H 3027.66 3.29338 -0.9691 0
M  V30 30164 N 3030.1 -0.0216912 1.57585 0
M  V30 30165 C 3031.52 -0.567346 1.77871 0
M  V30 30166 C 3031.87 -1.75189 0.883368 0
M  V30 30167 O 3030.99 -2.16252 0.0801199 0
M  V30 30168 C 3031.59 -1.036 3.22572 0
M  V30 30169 C 3030.15 -1.52712 3.44029 0
M  V30 30170 C 3029.29 -0.468497 2.73314 0
M  V30 30171 H 3032.24 0.204527 1.57377 0
M  V30 30172 H 3032.26 -1.90304 3.29491 0
M  V30 30173 H 3031.78 -0.173671 3.87711 0
M  V30 30174 H 3029.88 -2.41106 2.84075 0
M  V30 30175 H 3029.99 -1.56954 4.52661 0
M  V30 30176 H 3028.35 -0.925222 2.37301 0
M  V30 30177 H 3029.14 0.384498 3.4114 0
M  V30 30178 N 3031.58 -1.54832 -0.294093 0
M  V30 30179 C 3032.99 -1.65368 -0.866622 0
M  V30 30180 C 3033.35 -0.566843 -1.87833 0
M  V30 30181 O 3032.47 0.295351 -2.14375 0
M  V30 30182 C 3033.07 -2.99774 -1.57864 0
M  V30 30183 C 3031.62 -3.12408 -2.09948 0
M  V30 30184 C 3030.77 -2.61081 -0.934446 0
M  V30 30185 H 3033.72 -1.58541 -0.0709273 0
M  V30 30186 H 3033.74 -2.91584 -2.44457 0
M  V30 30187 H 3033.26 -3.78855 -0.842053 0
M  V30 30188 H 3031.36 -2.3806 -2.86632 0
M  V30 30189 H 3031.47 -4.18667 -2.32927 0
M  V30 30190 H 3029.83 -2.17707 -1.32195 0
M  V30 30191 H 3030.62 -3.42647 -0.211708 0
M  V30 30192 N 3033.06 0.557619 -1.47405 0
M  V30 30193 C 3034.31 1.31676 -1.54238 0
M  V30 30194 C 3034.64 1.93128 -0.203816 0
M  V30 30195 O 3033.92 1.77844 0.787505 0
M  V30 30196 C 3034.2 2.42718 -2.66007 0
M  V30 30197 C 3034.05 1.86138 -4.09478 0
M  V30 30198 C 3035.37 3.44647 -2.73691 0
M  V30 30199 H 3032.49 0.477405 -0.561474 0
M  V30 30200 H 3035.13 0.624036 -1.7946 0
M  V30 30201 H 3033.28 3.01807 -2.44632 0
M  V30 30202 H 3034.95 1.31313 -4.42215 0
M  V30 30203 H 3033.2 1.16816 -4.17776 0
M  V30 30204 H 3033.87 2.6641 -4.83456 0
M  V30 30205 H 3036.34 2.95476 -2.92973 0
M  V30 30206 H 3035.22 4.19771 -3.53672 0
M  V30 30207 H 3035.48 4.0347 -1.80733 0
M  V30 30208 N 3034.54 1.35531 0.804316 0
M  V30 30209 C 3035.49 1.28638 1.91627 0
M  V30 30210 C 3036.46 0.157891 1.65348 0
M  V30 30211 O 3037.64 0.341967 1.8771 0
M  V30 30212 C 3034.78 1.06656 3.28205 0
M  V30 30213 C 3033.89 2.28447 3.66655 0
M  V30 30214 C 3033.03 1.99596 4.92275 0
M  V30 30215 C 3032.07 3.17429 5.23359 0
M  V30 30216 N 3031.21 2.8834 6.4016 0
M  V30 30217 H 3036.05 2.23724 1.96854 0
M  V30 30218 H 3033.58 1.1121 0.962852 0
M  V30 30219 H 3035.54 0.919415 4.06943 0
M  V30 30220 H 3034.17 0.15231 3.2244 0
M  V30 30221 H 3033.22 2.54018 2.83159 0
M  V30 30222 H 3034.53 3.16427 3.85585 0
M  V30 30223 H 3033.69 1.81726 5.78844 0
M  V30 30224 H 3032.43 1.08905 4.75385 0
M  V30 30225 H 3031.43 3.35875 4.35279 0
M  V30 30226 H 3032.66 4.08926 5.42178 0
M  V30 30227 H 3030.6 2.00244 6.24691 0
M  V30 30228 H 3030.52 3.69854 6.59351 0
M  V30 30229 H 3031.79 2.74015 7.29751 0
M  V30 30230 N 3036.02 -1.02674 1.19565 0
M  V30 30231 C 3037.27 -1.75512 0.993895 0
M  V30 30232 C 3037.58 -1.89724 -0.475849 0
M  V30 30233 O 3038.79 -2.59554 -0.796479 0
M  V30 30234 C 3037.24 -3.15625 1.72942 0
M  V30 30235 C 3036.85 -3.0946 3.23942 0
M  V30 30236 C 3038.59 -3.92744 1.61099 0
M  V30 30237 C 3036.5 -4.44517 3.90075 0
M  V30 30238 H 3035.43 -0.657954 0.368255 0
M  V30 30239 H 3038.08 -1.14889 1.43083 0
M  V30 30240 H 3036.46 -3.76729 1.22031 0
M  V30 30241 H 3037.64 -2.57724 3.81988 0
M  V30 30242 H 3035.95 -2.45837 3.36085 0
M  V30 30243 H 3038.55 -4.92646 2.07856 0
M  V30 30244 H 3038.89 -4.12441 0.565487 0
M  V30 30245 H 3039.43 -3.38246 2.09367 0
M  V30 30246 H 3036.16 -4.30024 4.94732 0
M  V30 30247 H 3035.68 -4.963 3.36818 0
M  V30 30248 H 3037.36 -5.13394 3.93745 0
M  V30 30249 N 3037.5 -0.999914 -1.21817 0
M  V30 30250 C 3038.41 -0.565199 -2.2769 0
M  V30 30251 C 3039.42 0.389368 -1.69588 0
M  V30 30252 O 3040.6 0.254464 -1.99786 0
M  V30 30253 C 3037.66 0.106371 -3.46537 0
M  V30 30254 C 3036.72 -0.892038 -4.1993 0
M  V30 30255 C 3035.96 -0.252421 -5.33103 0
M  V30 30256 O 3036.18 0.952004 -5.62399 0
M  V30 30257 O 3035.11 -0.960802 -5.94182 0
M  V30 30258 H 3038.94 -1.44618 -2.67057 0
M  V30 30259 H 3036.52 -0.768522 -1.28118 0
M  V30 30260 H 3038.41 0.482228 -4.18632 0
M  V30 30261 H 3037.08 0.961811 -3.09081 0
M  V30 30262 H 3035.99 -1.31896 -3.50078 0
M  V30 30263 H 3037.32 -1.7169 -4.61284 0
M  V30 30264 N 3038.97 1.37284 -0.773999 0
M  V30 30265 C 3040.2 2.04432 -0.349597 0
M  V30 30266 C 3040.62 1.57992 1.02079 0
M  V30 30267 O 3039.98 0.741201 1.65457 0
M  V30 30268 C 3040.03 3.58326 -0.404355 0
M  V30 30269 O 3039.13 4.08094 0.594375 0
M  V30 30270 H 3038.47 0.64661 -0.15097 0
M  V30 30271 H 3041 1.75553 -1.05082 0
M  V30 30272 H 3041.01 4.07155 -0.26245 0
M  V30 30273 H 3039.69 3.91482 -1.4041 0
M  V30 30274 H 3038.27 3.70579 0.415403 0
M  V30 30275 N 3040.45 0.524724 1.48608 0
M  V30 30276 C 3041.68 -0.00948494 2.07398 0
M  V30 30277 C 3042.1 -1.27882 1.37941 0
M  V30 30278 O 3041.46 -1.75788 0.443664 0
M  V30 30279 C 3041.51 -0.221893 3.59917 0
M  V30 30280 O 3040.61 -1.29169 3.91649 0
M  V30 30281 H 3039.95 0.0367845 0.66298 0
M  V30 30282 H 3042.48 0.731134 1.91091 0
M  V30 30283 H 3042.49 -0.446165 4.05553 0
M  V30 30284 H 3041.17 0.705378 4.09875 0
M  V30 30285 H 3039.74 -1.05049 3.57798 0
M  V30 30286 N 3041.93 -1.55447 0.259613 0
M  V30 30287 C 3043.15 -2.04104 -0.368281 0
M  V30 30288 C 3043.58 -1.13728 -1.49825 0
M  V30 30289 O 3042.94 -0.132737 -1.80813 0
M  V30 30290 C 3042.99 -3.50645 -0.841445 0
M  V30 30291 O 3042.09 -3.63384 -1.95001 0
M  V30 30292 H 3041.43 -0.659342 -0.0785112 0
M  V30 30293 H 3043.96 -2.00861 0.389385 0
M  V30 30294 H 3043.97 -3.91712 -1.14131 0
M  V30 30295 H 3042.65 -4.15897 -0.014627 0
M  V30 30296 H 3041.22 -3.34218 -1.65387 0
M  V30 30297 N 3043.41 0.0133338 -1.57594 0
M  V30 30298 C 3044.82 0.557905 -1.78169 0
M  V30 30299 C 3045.17 1.74718 -0.892646 0
M  V30 30300 O 3044.29 2.16206 -0.0915871 0
M  V30 30301 C 3044.89 1.01888 -3.23116 0
M  V30 30302 C 3043.45 1.50886 -3.44834 0
M  V30 30303 C 3042.6 0.453996 -2.73558 0
M  V30 30304 H 3045.55 -0.21287 -1.57266 0
M  V30 30305 H 3045.57 1.88554 -3.30496 0
M  V30 30306 H 3045.08 0.153107 -3.87798 0
M  V30 30307 H 3043.18 2.39597 -2.85349 0
M  V30 30308 H 3043.29 1.54551 -4.53487 0
M  V30 30309 H 3041.66 0.912624 -2.37788 0
M  V30 30310 H 3042.44 -0.402584 -3.40931 0
M  V30 30311 N 3044.89 1.54985 0.285878 0
M  V30 30312 C 3046.11 1.79322 1.04204 0
M  V30 30313 C 3046.54 0.558374 1.79621 0
M  V30 30314 O 3045.89 -0.491631 1.74507 0
M  V30 30315 C 3045.94 3.00954 1.98643 0
M  V30 30316 O 3045.05 2.75137 3.07202 0
M  V30 30317 H 3044.39 0.593079 0.298586 0
M  V30 30318 H 3046.92 2.02103 0.3187 0
M  V30 30319 H 3046.93 3.29337 2.40834 0
M  V30 30320 H 3045.6 3.90484 1.4316 0
M  V30 30321 H 3044.18 2.57814 2.69418 0
M  V30 30322 N 3046.36 -0.549794 1.47699 0
M  V30 30323 C 3047.61 -1.30856 1.54934 0
M  V30 30324 C 3047.94 -1.93017 0.214055 0
M  V30 30325 O 3047.22 -1.78259 -0.778062 0
M  V30 30326 C 3047.5 -2.41304 2.67291 0
M  V30 30327 C 3047.35 -1.83964 4.1046 0
M  V30 30328 C 3048.67 -3.4319 2.75515 0
M  V30 30329 H 3045.79 -0.474421 0.563998 0
M  V30 30330 H 3048.43 -0.61451 1.79788 0
M  V30 30331 H 3046.58 -3.00505 2.46229 0
M  V30 30332 H 3048.26 -1.28966 4.42906 0
M  V30 30333 H 3046.5 -1.14599 4.18389 0
M  V30 30334 H 3047.17 -2.63842 4.84862 0
M  V30 30335 H 3049.65 -2.93918 2.94536 0
M  V30 30336 H 3048.52 -4.17889 3.55893 0
M  V30 30337 H 3048.78 -4.02506 1.8287 0
M  V30 30338 N 3047.84 -1.35955 -0.797117 0
M  V30 30339 C 3049.07 -1.32893 -1.58578 0
M  V30 30340 C 3049.49 0.0915233 -1.88578 0
M  V30 30341 O 3048.84 1.04622 -1.49534 0
M  V30 30342 C 3048.89 -2.14289 -2.9114 0
M  V30 30343 O 3048.61 -3.50798 -2.62436 0
M  V30 30344 C 3050.12 -2.18921 -3.85472 0
M  V30 30345 H 3047.34 -0.456153 -0.492103 0
M  V30 30346 H 3049.88 -1.78944 -0.989908 0
M  V30 30347 H 3048.03 -1.71814 -3.47216 0
M  V30 30348 H 3048.45 -3.93182 -3.47143 0
M  V30 30349 H 3049.92 -2.80246 -4.75569 0
M  V30 30350 H 3050.4 -1.19054 -4.22756 0
M  V30 30351 H 3051.01 -2.61599 -3.3533 0
M  V30 30352 N 3049.32 1.02038 -1.20108 0
M  V30 30353 C 3050.23 2.13965 -0.962089 0
M  V30 30354 C 3051.25 1.73812 0.0807748 0
M  V30 30355 O 3052.42 2.01122 -0.105809 0
M  V30 30356 C 3049.49 3.42881 -0.513169 0
M  V30 30357 C 3048.55 3.97298 -1.62643 0
M  V30 30358 C 3047.78 5.20061 -1.19884 0
M  V30 30359 O 3048 5.70362 -0.0659426 0
M  V30 30360 O 3046.94 5.67532 -2.00477 0
M  V30 30361 H 3050.76 2.36994 -1.89914 0
M  V30 30362 H 3048.35 1.12363 -0.984628 0
M  V30 30363 H 3050.23 4.20522 -0.271871 0
M  V30 30364 H 3048.91 3.21277 0.395345 0
M  V30 30365 H 3047.81 3.20953 -1.92197 0
M  V30 30366 H 3049.15 4.23283 -2.51181 0
M  V30 30367 N 3050.8 1.00636 1.21285 0
M  V30 30368 C 3052.05 0.688471 1.90012 0
M  V30 30369 C 3052.37 -0.783333 1.78575 0
M  V30 30370 O 3051.64 -1.56259 1.18152 0
M  V30 30371 H 3050.22 0.251661 0.703332 0
M  V30 30372 H 3052.88 1.27576 1.47344 0
M  V30 30373 H 3051.98 0.962833 2.96877 0
M  V30 30374 N 3052.28 -1.36872 0.781268 0
M  V30 30375 C 3053.21 -2.28819 0.132115 0
M  V30 30376 C 3054.22 -1.49091 -0.653899 0
M  V30 30377 O 3055.41 -1.71631 -0.490423 0
M  V30 30378 C 3052.51 -3.28421 -0.83624 0
M  V30 30379 C 3051.68 -4.37281 -0.10202 0
M  V30 30380 C 3050.74 -5.16896 -0.985126 0
M  V30 30381 O 3049.77 -5.67455 -0.445378 0
M  V30 30382 N 3050.97 -5.32544 -2.31034 0
M  V30 30383 H 3053.74 -2.85169 0.921888 0
M  V30 30384 H 3051.3 -1.48951 0.634453 0
M  V30 30385 H 3053.29 -3.78568 -1.43068 0
M  V30 30386 H 3051.86 -2.7277 -1.52693 0
M  V30 30387 H 3051.08 -3.88405 0.673418 0
M  V30 30388 H 3052.37 -5.07186 0.404951 0
M  V30 30389 H 3051.76 -4.93068 -2.7731 0
M  V30 30390 H 3050.32 -5.85965 -2.85461 0
M  V30 30391 N 3053.75 -0.532597 -1.48328 0
M  V30 30392 C 3054.98 -0.00357936 -2.069 0
M  V30 30393 C 3055.4 1.279 -1.38878 0
M  V30 30394 O 3054.75 1.76152 -0.47715 0
M  V30 30395 C 3054.81 0.221353 -3.60822 0
M  V30 30396 O 3054.53 -1.01041 -4.26289 0
M  V30 30397 C 3056.03 0.790454 -4.36196 0
M  V30 30398 H 3053.25 -0.0346953 -0.670102 0
M  V30 30399 H 3055.79 -0.738989 -1.90681 0
M  V30 30400 H 3053.95 0.906818 -3.76637 0
M  V30 30401 H 3054.36 -0.792774 -5.18474 0
M  V30 30402 H 3055.83 0.897252 -5.44659 0
M  V30 30403 H 3056.31 1.79598 -4.00801 0
M  V30 30404 H 3056.92 0.141471 -4.25065 0
M  V30 30405 N 3055.23 1.55307 -0.267853 0
M  V30 30406 C 3056.16 2.25213 0.616545 0
M  V30 30407 C 3057.14 1.23971 1.1647 0
M  V30 30408 O 3058.33 1.52674 1.20018 0
M  V30 30409 C 3055.46 2.96767 1.80407 0
M  V30 30410 C 3054.41 4.04876 1.38777 0
M  V30 30411 C 3053.74 4.63966 2.65781 0
M  V30 30412 C 3055.04 5.19466 0.543323 0
M  V30 30413 H 3056.73 2.99381 0.0335731 0
M  V30 30414 H 3054.28 1.43992 0.0147074 0
M  V30 30415 H 3056.23 3.44379 2.4286 0
M  V30 30416 H 3054.96 2.20122 2.41276 0
M  V30 30417 H 3053.61 3.58064 0.786478 0
M  V30 30418 H 3053.26 3.83997 3.24892 0
M  V30 30419 H 3052.96 5.36958 2.38641 0
M  V30 30420 H 3054.49 5.14324 3.29095 0
M  V30 30421 H 3055.9 5.63176 1.07267 0
M  V30 30422 H 3054.3 5.98976 0.367114 0
M  V30 30423 H 3055.37 4.82903 -0.439618 0
M  V30 30424 N 3056.71 -0.00497598 1.57599 0
M  V30 30425 C 3057.99 -0.727622 1.81563 0
M  V30 30426 C 3058.37 -1.92265 0.871638 0
M  V30 30427 O 3057.72 -2.28357 -0.0807831 0
M  V30 30428 C 3057.93 -1.13803 3.29924 0
M  V30 30429 C 3059.27 -1.54396 3.95534 0
M  V30 30430 O 3060.3 -1.23196 3.34217 0
M  V30 30431 O 3059.16 -2.12393 5.03539 0
M  V30 30432 H 3056.25 -0.353865 0.747468 0
M  V30 30433 H 3058.8 0.0200965 1.69688 0
M  V30 30434 H 3057.57 -0.286009 3.90253 0
M  V30 30435 H 3057.19 -1.94501 3.46778 0
M  V30 30436 N 3058.19 -1.55135 -0.277654 0
M  V30 30437 C 3059.12 -1.90703 -1.34739 0
M  V30 30438 C 3060.1 -0.76838 -1.51756 0
M  V30 30439 O 3061.28 -1.02612 -1.64877 0
M  V30 30440 C 3058.41 -2.17486 -2.70771 0
M  V30 30441 C 3057.37 -3.33312 -2.68491 0
M  V30 30442 C 3056.69 -3.45564 -4.08031 0
M  V30 30443 C 3057.99 -4.69825 -2.2817 0
M  V30 30444 H 3059.69 -2.80302 -1.05219 0
M  V30 30445 H 3057.23 -1.34865 -0.504715 0
M  V30 30446 H 3059.19 -2.40955 -3.45714 0
M  V30 30447 H 3057.91 -1.24681 -3.01864 0
M  V30 30448 H 3056.57 -3.09803 -1.96005 0
M  V30 30449 H 3056.22 -2.50234 -4.36339 0
M  V30 30450 H 3055.92 -4.23436 -4.07401 0
M  V30 30451 H 3057.44 -3.71321 -4.8472 0
M  V30 30452 H 3058.86 -4.9287 -2.92835 0
M  V30 30453 H 3057.25 -5.50579 -2.38711 0
M  V30 30454 H 3058.32 -4.68962 -1.23299 0
M  V30 30455 N 3059.67 0.541953 -1.47989 0
M  V30 30456 C 3060.61 1.66864 -1.62047 0
M  V30 30457 C 3061.61 1.62241 -0.487246 0
M  V30 30458 O 3062.81 1.67243 -0.66557 0
M  V30 30459 H 3059.19 0.552403 -0.51025 0
M  V30 30460 H 3061.16 1.52148 -2.56697 0
M  V30 30461 C 3059.91 3.05177 -1.6662 0
M  V30 30462 H 3059.23 3.09423 -2.53175 0
M  V30 30463 H 3060.67 3.8366 -1.80503 0
M  V30 30464 C 3059.13 3.34487 -0.40248 0
M  V30 30465 O 3059.66 3.98702 0.489849 0
M  V30 30466 N 3057.87 2.89269 -0.277829 0
M  V30 30467 H 3057.41 2.3719 -1.00492 0
M  V30 30468 H 3057.37 3.0925 0.56673 0
M  V30 30469 N 3061.15 1.36376 0.789896 0
M  V30 30470 C 3062.39 1.31961 1.56095 0
M  V30 30471 C 3062.75 -0.100163 1.91739 0
M  V30 30472 O 3063.95 -0.268866 2.67452 0
M  V30 30473 C 3062.22 2.21606 2.80402 0
M  V30 30474 S 3063.78 2.34869 3.70651 0
M  V30 30475 H 3060.6 0.46872 0.534624 0
M  V30 30476 H 3063.2 1.71942 0.930387 0
M  V30 30477 H 3061.9 3.23712 2.52267 0
M  V30 30478 H 3061.44 1.82643 3.48432 0
M  V30 30479 H 3063.45 1.54584 4.71506 0
M  V30 30480 N 3062.62 -1.014 1.20647 0
M  V30 30481 C 3063.87 -1.75298 1.01973 0
M  V30 30482 C 3064.2 -1.88991 -0.44677 0
M  V30 30483 O 3063.48 -1.41764 -1.33166 0
M  V30 30484 C 3063.76 -3.17071 1.70699 0
M  V30 30485 C 3063.61 -3.11156 3.2481 0
M  V30 30486 C 3064.93 -4.15799 1.44219 0
M  V30 30487 H 3062.05 -0.636312 0.371856 0
M  V30 30488 H 3064.69 -1.18275 1.48698 0
M  V30 30489 H 3062.84 -3.65757 1.30974 0
M  V30 30490 H 3064.52 -2.70254 3.73846 0
M  V30 30491 H 3062.76 -2.48486 3.5558 0
M  V30 30492 H 3063.43 -4.11386 3.68056 0
M  V30 30493 H 3065.91 -3.75779 1.78687 0
M  V30 30494 H 3064.78 -5.13158 1.94834 0
M  V30 30495 H 3065.04 -4.40546 0.37033 0
M  V30 30496 N 3064.1 -1.01278 -1.2075 0
M  V30 30497 C 3065.35 -0.700958 -1.90301 0
M  V30 30498 C 3065.68 0.767111 -1.78407 0
M  V30 30499 O 3064.96 1.55691 -1.16578 0
M  V30 30500 C 3065.24 -1.13248 -3.41829 0
M  V30 30501 C 3065.09 -2.66058 -3.62675 0
M  V30 30502 C 3066.41 -0.700814 -4.34484 0
M  V30 30503 H 3063.53 -0.256119 -0.691066 0
M  V30 30504 H 3066.17 -1.25984 -1.42225 0
M  V30 30505 H 3064.32 -0.656969 -3.82905 0
M  V30 30506 H 3065.99 -3.21432 -3.30876 0
M  V30 30507 H 3064.24 -3.0721 -3.06276 0
M  V30 30508 H 3064.91 -2.91304 -4.68877 0
M  V30 30509 H 3067.38 -1.10955 -4.01034 0
M  V30 30510 H 3066.26 -1.03083 -5.39134 0
M  V30 30511 H 3066.52 0.397703 -4.40308 0
M  V30 30512 N 3065.58 1.36456 -0.788516 0
M  V30 30513 C 3066.54 2.28392 -0.192249 0
M  V30 30514 C 3067.54 1.48785 0.60989 0
M  V30 30515 O 3068.73 1.68784 0.431017 0
M  V30 30516 C 3065.86 3.32903 0.734038 0
M  V30 30517 H 3067.06 2.82634 -1.00289 0
M  V30 30518 H 3064.61 1.46005 -0.557878 0
M  V30 30519 H 3065.35 2.83815 1.56905 0
M  V30 30520 H 3065.13 3.9177 0.160806 0
M  V30 30521 H 3066.62 4.01564 1.14612 0
M  V30 30522 N 3067.06 0.540456 1.48043 0
M  V30 30523 C 3068.31 0.0101722 2.02097 0
M  V30 30524 C 3068.63 -1.33769 1.41884 0
M  V30 30525 O 3067.9 -1.86869 0.587956 0
M  V30 30526 H 3066.48 0.000771847 0.747 0
M  V30 30527 H 3069.14 0.706666 1.81638 0
M  V30 30528 H 3068.23 -0.0903925 3.11969 0
M  V30 30529 N 3068.54 -1.55163 0.276085 0
M  V30 30530 C 3069.76 -2.04483 -0.346612 0
M  V30 30531 C 3070.19 -1.1531 -1.48611 0
M  V30 30532 O 3069.54 -0.151907 -1.80662 0
M  V30 30533 C 3069.59 -3.51518 -0.804207 0
M  V30 30534 O 3068.7 -3.65432 -1.91136 0
M  V30 30535 H 3068.04 -0.660138 -0.0715135 0
M  V30 30536 H 3070.57 -2.00436 0.410667 0
M  V30 30537 H 3070.58 -3.929 -1.0997 0
M  V30 30538 H 3069.25 -4.1589 0.0294854 0
M  V30 30539 H 3067.83 -3.35953 -1.61833 0
M  V30 30540 N 3070.01 -0.00338196 -1.576 0
M  V30 30541 C 3070.98 0.971801 -2.07578 0
M  V30 30542 C 3071.98 1.27036 -0.985819 0
M  V30 30543 O 3073.17 1.21498 -1.24835 0
M  V30 30544 C 3070.3 2.29576 -2.52007 0
M  V30 30545 H 3071.49 0.53943 -2.95009 0
M  V30 30546 H 3069.04 0.244159 -1.54381 0
M  V30 30547 H 3069.78 2.77495 -1.6783 0
M  V30 30548 H 3069.56 2.09225 -3.31613 0
M  V30 30549 H 3071.05 2.99525 -2.90988 0
M  V30 30550 N 3071.49 1.5528 0.269423 0
M  V30 30551 C 3072.44 1.84793 1.3355 0
M  V30 30552 C 3073.43 0.707093 1.4453 0
M  V30 30553 O 3074.62 0.968519 1.48151 0
M  V30 30554 C 3071.75 2.12646 2.69512 0
M  V30 30555 C 3070.83 3.32998 2.62627 0
M  V30 30556 N 3071.22 4.52819 2.25363 0
M  V30 30557 C 3069.52 3.35659 2.93682 0
M  V30 30558 C 3070.22 5.34917 2.28558 0
M  V30 30559 N 3069.2 4.73413 2.67173 0
M  V30 30560 H 3073 2.74977 1.03753 0
M  V30 30561 H 3070.51 1.55204 0.478059 0
M  V30 30562 H 3072.51 2.31946 3.4642 0
M  V30 30563 H 3071.17 1.23747 3.00195 0
M  V30 30564 H 3072.18 4.78853 1.97282 0
M  V30 30565 H 3068.86 2.56964 3.29053 0
M  V30 30566 H 3070.25 6.40729 2.02278 0
M  V30 30567 N 3072.97 -0.534097 1.48274 0
M  V30 30568 C 3073.93 -1.62124 1.62013 0
M  V30 30569 C 3074.93 -1.53034 0.49368 0
M  V30 30570 O 3076.12 -1.56778 0.759364 0
M  V30 30571 C 3073.25 -3.01736 1.58645 0
M  V30 30572 H 3074.45 -1.51284 2.58946 0
M  V30 30573 H 3072 -0.755837 1.36809 0
M  V30 30574 H 3072.74 -3.18087 0.631741 0
M  V30 30575 H 3072.52 -3.09743 2.4042 0
M  V30 30576 H 3074.01 -3.80784 1.71445 0
M  V30 30577 N 3074.45 -1.36793 -0.782652 0
M  V30 30578 C 3075.38 -1.27539 -1.90437 0
M  V30 30579 C 3076.39 -0.193455 -1.61647 0
M  V30 30580 O 3077.58 -0.448723 -1.72768 0
M  V30 30581 C 3074.68 -0.946698 -3.25409 0
M  V30 30582 C 3073.85 -2.13189 -3.81928 0
M  V30 30583 C 3072.91 -1.77519 -4.95352 0
M  V30 30584 O 3071.94 -2.49687 -5.11512 0
M  V30 30585 N 3073.14 -0.712857 -5.76106 0
M  V30 30586 H 3075.91 -2.24189 -1.98895 0
M  V30 30587 H 3073.47 -1.30275 -0.961247 0
M  V30 30588 H 3075.46 -0.689113 -3.9879 0
M  V30 30589 H 3074.03 -0.0691141 -3.12524 0
M  V30 30590 H 3073.25 -2.55188 -3.00454 0
M  V30 30591 H 3074.54 -2.92355 -4.16421 0
M  V30 30592 H 3073.94 -0.113762 -5.65586 0
M  V30 30593 H 3072.49 -0.515109 -6.49761 0
M  V30 30594 N 3075.93 1.00759 -1.21184 0
M  V30 30595 C 3077.17 1.74755 -1.02901 0
M  V30 30596 C 3077.51 1.89225 0.436741 0
M  V30 30597 O 3076.78 1.42468 1.32412 0
M  V30 30598 C 3077.06 3.16161 -1.72378 0
M  V30 30599 C 3076.92 3.0943 -3.26456 0
M  V30 30600 C 3078.24 4.15028 -1.46422 0
M  V30 30601 H 3075.35 0.634331 -0.375225 0
M  V30 30602 H 3078 1.17485 -1.49323 0
M  V30 30603 H 3076.15 3.65057 -1.32912 0
M  V30 30604 H 3077.82 2.68268 -3.75274 0
M  V30 30605 H 3076.06 2.46597 -3.56893 0
M  V30 30606 H 3076.73 4.09429 -3.70233 0
M  V30 30607 H 3079.21 3.74827 -1.80677 0
M  V30 30608 H 3078.08 5.12117 -1.97553 0
M  V30 30609 H 3078.35 4.40344 -0.393688 0
M  V30 30610 N 3077.4 1.01917 1.20211 0
M  V30 30611 C 3078.63 0.729289 1.93621 0
M  V30 30612 C 3079.05 -0.710413 1.74924 0
M  V30 30613 O 3078.4 -1.48212 1.06487 0
M  V30 30614 C 3078.46 1.05871 3.45649 0
M  V30 30615 O 3078.18 2.44187 3.63737 0
M  V30 30616 C 3079.68 0.790253 4.36199 0
M  V30 30617 H 3076.9 0.267605 0.615328 0
M  V30 30618 H 3079.44 1.36104 1.5263 0
M  V30 30619 H 3077.6 0.472317 3.8451 0
M  V30 30620 H 3078.01 2.56151 4.57697 0
M  V30 30621 H 3079.48 1.0708 5.41514 0
M  V30 30622 H 3079.96 -0.275532 4.38335 0
M  V30 30623 H 3080.57 1.35892 4.03005 0
M  V30 30624 N 3078.88 -1.36036 0.795742 0
M  V30 30625 C 3080.13 -1.99805 0.380703 0
M  V30 30626 C 3080.48 -1.62011 -1.0378 0
M  V30 30627 O 3079.78 -0.867861 -1.70818 0
M  V30 30628 C 3079.97 -3.54038 0.4891 0
M  V30 30629 C 3079.8 -4.06813 1.91659 0
M  V30 30630 C 3078.57 -4.3667 2.54259 0
M  V30 30631 C 3080.77 -4.26124 2.87963 0
M  V30 30632 N 3078.75 -4.75307 3.88531 0
M  V30 30633 C 3080.12 -4.67637 4.07082 0
M  V30 30634 C 3082.18 -4.08308 2.84937 0
M  V30 30635 C 3080.88 -4.93198 5.23591 0
M  V30 30636 C 3082.9 -4.35019 4.0064 0
M  V30 30637 C 3082.27 -4.76794 5.18504 0
M  V30 30638 H 3078.37 -0.759348 0.186856 0
M  V30 30639 H 3080.95 -1.64932 1.03468 0
M  V30 30640 H 3079.12 -3.88166 -0.134825 0
M  V30 30641 H 3080.85 -4.04669 0.0496967 0
M  V30 30642 H 3077.61 -4.266 2.05693 0
M  V30 30643 H 3078.03 -4.98901 4.57632 0
M  V30 30644 H 3082.67 -3.75162 1.9497 0
M  V30 30645 H 3080.39 -5.25223 6.14139 0
M  V30 30646 H 3083.98 -4.22798 3.99666 0
M  V30 30647 H 3082.86 -4.97062 6.06547 0
M  V30 30648 N 3080.36 -0.5483 -1.47755 0
M  V30 30649 C 3081.59 -0.0254866 -2.06584 0
M  V30 30650 C 3082 1.26968 -1.4027 0
M  V30 30651 O 3081.34 1.77038 -0.490221 0
M  V30 30652 C 3081.4 0.250238 -3.58628 0
M  V30 30653 C 3081.07 -0.954166 -4.46928 0
M  V30 30654 C 3082.06 -1.85741 -4.85588 0
M  V30 30655 C 3079.75 -1.16633 -4.88571 0
M  V30 30656 C 3081.74 -2.95658 -5.64681 0
M  V30 30657 C 3079.43 -2.2686 -5.67431 0
M  V30 30658 C 3080.43 -3.16205 -6.05395 0
M  V30 30659 O 3080.12 -4.24523 -6.82668 0
M  V30 30660 H 3079.85 -0.0387383 -0.674889 0
M  V30 30661 H 3082.4 -0.758697 -1.90874 0
M  V30 30662 H 3080.63 1.03765 -3.72518 0
M  V30 30663 H 3082.32 0.717348 -3.99511 0
M  V30 30664 H 3083.09 -1.70552 -4.54023 0
M  V30 30665 H 3078.97 -0.480119 -4.58493 0
M  V30 30666 H 3082.51 -3.65421 -5.94233 0
M  V30 30667 H 3078.41 -2.42026 -5.98409 0
M  V30 30668 H 3079.18 -4.22459 -7.01049 0
M  V30 30669 N 3081.84 1.55014 -0.28431 0
M  V30 30670 C 3083.25 1.59448 0.0695749 0
M  V30 30671 C 3083.45 1.30147 1.53831 0
M  V30 30672 O 3082.51 1.06678 2.28858 0
M  V30 30673 C 3083.82 2.99063 -0.313339 0
M  V30 30674 C 3085.37 3.11912 -0.260717 0
M  V30 30675 C 3085.85 4.53809 -0.618206 0
M  V30 30676 N 3087.34 4.59678 -0.570106 0
M  V30 30677 C 3088.07 5.67515 -0.8194 0
M  V30 30678 N 3087.57 6.8346 -1.13379 0
M  V30 30679 N 3089.36 5.57107 -0.74758 0
M  V30 30680 H 3081.51 1.72324 -1.2417 0
M  V30 30681 H 3083.78 0.804006 -0.502273 0
M  V30 30682 H 3083.48 3.25372 -1.33515 0
M  V30 30683 H 3083.36 3.75653 0.341303 0
M  V30 30684 H 3085.74 2.85362 0.751819 0
M  V30 30685 H 3085.82 2.37515 -0.949748 0
M  V30 30686 H 3085.47 4.81085 -1.62847 0
M  V30 30687 H 3085.4 5.26518 0.0927144 0
M  V30 30688 H 3087.89 3.76391 -0.337366 0
M  V30 30689 H 3088.2 7.61608 -1.31043 0
M  V30 30690 H 3086.55 6.85053 -1.17166 0
M  V30 30691 H 3089.74 4.65403 -0.50174 0
M  V30 30692 H 3089.91 6.41069 -0.945241 0
M  V30 30693 N 3083.32 0.0117398 1.57596 0
M  V30 30694 C 3084.73 -0.344479 1.55838 0
M  V30 30695 C 3084.93 -1.74034 1.0156 0
M  V30 30696 O 3083.99 -2.43867 0.654606 0
M  V30 30697 C 3085.3 -0.208971 2.99973 0
M  V30 30698 C 3086.85 -0.283037 3.11718 0
M  V30 30699 C 3087.32 -0.176519 4.5766 0
M  V30 30700 N 3088.82 -0.234052 4.62608 0
M  V30 30701 C 3089.55 -0.175151 5.73132 0
M  V30 30702 N 3089.05 -0.066167 6.92768 0
M  V30 30703 N 3090.84 -0.227874 5.61638 0
M  V30 30704 H 3082.99 0.924726 1.91213 0
M  V30 30705 H 3085.25 0.355546 0.878801 0
M  V30 30706 H 3084.96 0.751886 3.43569 0
M  V30 30707 H 3084.83 -0.986286 3.64077 0
M  V30 30708 H 3087.22 -1.23434 2.68045 0
M  V30 30709 H 3087.3 0.524354 2.50368 0
M  V30 30710 H 3086.95 0.771294 5.02009 0
M  V30 30711 H 3086.88 -1.00255 5.16969 0
M  V30 30712 H 3089.37 -0.319137 3.7655 0
M  V30 30713 H 3089.68 -0.0274407 7.72795 0
M  V30 30714 H 3088.02 -0.0316281 6.94993 0
M  V30 30715 H 3091.22 -0.311294 4.67064 0
M  V30 30716 H 3091.39 -0.178507 6.47754 0
M  V30 30717 N 3084.79 -1.55421 -0.261185 0
M  V30 30718 C 3086.04 -1.76234 -0.989241 0
M  V30 30719 C 3086.36 -0.5731 -1.86388 0
M  V30 30720 O 3085.63 0.411626 -1.91527 0
M  V30 30721 H 3084.21 -0.649927 -0.368245 0
M  V30 30722 H 3086.88 -1.92841 -0.282569 0
M  V30 30723 H 3085.97 -2.66805 -1.6193 0
M  V30 30724 N 3086.27 0.526227 -1.48555 0
M  V30 30725 C 3087.52 1.27932 -1.56454 0
M  V30 30726 C 3087.84 1.93494 -0.241874 0
M  V30 30727 O 3087.11 1.81513 0.736886 0
M  V30 30728 H 3085.69 0.47517 -0.576388 0
M  V30 30729 H 3088.35 0.612051 -1.8504 0
M  V30 30730 H 3087.45 2.05662 -2.34754 0
M  V30 30731 N 3087.75 1.37206 0.775387 0
M  V30 30732 C 3088.98 1.3557 1.56957 0
M  V30 30733 C 3089.4 -0.0575224 1.88012 0
M  V30 30734 O 3088.76 -1.03353 1.48956 0
M  V30 30735 C 3088.81 2.19781 2.85882 0
M  V30 30736 O 3087.91 1.59994 3.801 0
M  V30 30737 H 3087.25 0.463383 0.475575 0
M  V30 30738 H 3089.78 1.80681 0.959978 0
M  V30 30739 H 3089.79 2.32865 3.3502 0
M  V30 30740 H 3088.47 3.22506 2.62607 0
M  V30 30741 H 3087.04 1.5593 3.38733 0
M  V30 30742 N 3089.23 -1.00115 1.21716 0
M  V30 30743 C 3090.16 -2.10813 1.004 0
M  V30 30744 C 3091.14 -1.69946 -0.0723203 0
M  V30 30745 O 3092.32 -1.93999 0.0882739 0
M  V30 30746 C 3089.45 -3.42556 0.572061 0
M  V30 30747 C 3088.41 -3.97235 1.59338 0
M  V30 30748 C 3087.73 -5.24929 1.01755 0
M  V30 30749 C 3089.03 -4.28858 2.98125 0
M  V30 30750 H 3090.73 -2.28903 1.92987 0
M  V30 30751 H 3088.27 -1.10001 0.929292 0
M  V30 30752 H 3090.23 -4.194 0.410092 0
M  V30 30753 H 3088.95 -3.2427 -0.389453 0
M  V30 30754 H 3087.61 -3.22515 1.74298 0
M  V30 30755 H 3087.26 -5.02977 0.0476375 0
M  V30 30756 H 3086.96 -5.62478 1.69979 0
M  V30 30757 H 3088.48 -6.04414 0.866987 0
M  V30 30758 H 3089.9 -4.96529 2.86586 0
M  V30 30759 H 3088.29 -4.77559 3.63397 0
M  V30 30760 H 3089.36 -3.36973 3.4868 0
M  V30 30761 N 3090.71 -1.02553 -1.19669 0
M  V30 30762 C 3092.12 -0.750238 -1.70963 0
M  V30 30763 C 3092.47 0.730429 -1.82097 0
M  V30 30764 O 3091.59 1.56955 -1.48976 0
M  V30 30765 C 3092.19 -1.35523 -3.10514 0
M  V30 30766 C 3090.75 -1.12861 -3.59081 0
M  V30 30767 C 3089.9 -1.45538 -2.36038 0
M  V30 30768 H 3092.85 -1.19388 -1.04557 0
M  V30 30769 H 3092.87 -0.750443 -3.73026 0
M  V30 30770 H 3092.38 -2.43288 -3.02379 0
M  V30 30771 H 3090.48 -0.0690282 -3.72536 0
M  V30 30772 H 3090.59 -1.81495 -4.43392 0
M  V30 30773 H 3088.96 -0.874622 -2.39212 0
M  V30 30774 H 3089.74 -2.54378 -2.30536 0
M  V30 30775 N 3092.19 1.35612 -0.802945 0
M  V30 30776 C 3093.6 1.81367 -0.443035 0
M  V30 30777 C 3093.95 1.66707 1.03456 0
M  V30 30778 O 3093.07 1.19564 1.8037 0
M  V30 30779 C 3093.67 3.29283 -0.797382 0
M  V30 30780 C 3092.23 3.73195 -0.49012 0
M  V30 30781 C 3091.37 2.57664 -1.02491 0
M  V30 30782 H 3094.32 1.23642 -0.99491 0
M  V30 30783 H 3094.35 3.80385 -0.0935307 0
M  V30 30784 H 3093.86 3.39921 -1.87284 0
M  V30 30785 H 3091.96 3.68109 0.576754 0
M  V30 30786 H 3092.07 4.68112 -1.0202 0
M  V30 30787 H 3090.44 2.50739 -0.447424 0
M  V30 30788 H 3091.22 2.71081 -2.10641 0
M  V30 30789 N 3093.66 0.556128 1.47462 0
M  V30 30790 C 3094.61 -0.212552 2.27007 0
M  V30 30791 C 3095.6 -0.886288 1.3429 0
M  V30 30792 O 3096.79 -0.784773 1.58652 0
M  V30 30793 C 3093.92 -1.24258 3.20023 0
M  V30 30794 C 3093 -0.572311 4.20221 0
M  V30 30795 N 3093.4 0.356999 5.04539 0
M  V30 30796 C 3091.69 -0.826364 4.38278 0
M  V30 30797 C 3092.39 0.746236 5.76894 0
M  V30 30798 N 3091.37 0.10132 5.43506 0
M  V30 30799 H 3095.17 0.501976 2.89581 0
M  V30 30800 H 3092.69 0.375988 1.57988 0
M  V30 30801 H 3094.68 -1.80721 3.75693 0
M  V30 30802 H 3093.34 -1.95821 2.59006 0
M  V30 30803 H 3094.35 0.731102 5.12714 0
M  V30 30804 H 3091.03 -1.53059 3.88432 0
M  V30 30805 H 3092.42 1.50979 6.54717 0
M  V30 30806 N 3095.14 -1.54861 0.292527 0
M  V30 30807 C 3096.37 -2.04378 -0.322078 0
M  V30 30808 C 3096.78 -1.17019 -1.48162 0
M  V30 30809 O 3096.14 -0.193982 -1.81466 0
M  V30 30810 C 3096.19 -3.52842 -0.786444 0
M  V30 30811 O 3095.91 -4.36878 0.326939 0
M  V30 30812 C 3097.41 -4.1832 -1.46708 0
M  V30 30813 H 3094.63 -0.667212 -0.0711956 0
M  V30 30814 H 3097.18 -1.99935 0.429692 0
M  V30 30815 H 3095.33 -3.57673 -1.48826 0
M  V30 30816 H 3095.75 -5.2449 -0.0330636 0
M  V30 30817 H 3097.22 -5.23751 -1.74324 0
M  V30 30818 H 3097.7 -3.67542 -2.40436 0
M  V30 30819 H 3098.3 -4.17541 -0.808662 0
M  V30 30820 N 3096.62 -0.0200973 -1.57587 0
M  V30 30821 C 3097.55 0.993323 -2.06557 0
M  V30 30822 C 3098.56 1.2945 -0.98725 0
M  V30 30823 O 3099.75 1.26073 -1.26364 0
M  V30 30824 C 3096.85 2.32305 -2.46754 0
M  V30 30825 C 3096.03 2.20836 -3.77558 0
M  V30 30826 C 3095.09 3.36667 -4.04403 0
M  V30 30827 O 3094.11 3.13955 -4.74785 0
M  V30 30828 N 3095.31 4.6017 -3.5387 0
M  V30 30829 H 3098.08 0.575565 -2.94121 0
M  V30 30830 H 3095.64 0.166861 -1.61038 0
M  V30 30831 H 3097.63 3.08604 -2.61812 0
M  V30 30832 H 3096.2 2.65753 -1.64603 0
M  V30 30833 H 3095.42 1.29321 -3.72384 0
M  V30 30834 H 3096.71 2.10367 -4.63274 0
M  V30 30835 H 3096.11 4.81518 -2.96912 0
M  V30 30836 H 3094.66 5.33668 -3.74222 0
M  V30 30837 N 3098.1 1.55557 0.252939 0
M  V30 30838 C 3099.34 1.77368 0.983275 0
M  V30 30839 C 3099.68 0.58429 1.85202 0
M  V30 30840 O 3098.95 -0.417611 1.89964 0
M  V30 30841 C 3099.23 3.09011 1.84891 0
M  V30 30842 C 3099.09 4.38343 1.00875 0
M  V30 30843 C 3100.41 3.36836 2.83248 0
M  V30 30844 H 3097.53 0.645292 0.356044 0
M  V30 30845 H 3100.17 1.88292 0.254199 0
M  V30 30846 H 3098.32 2.99829 2.47052 0
M  V30 30847 H 3099.99 4.59507 0.406299 0
M  V30 30848 H 3098.23 4.3267 0.312894 0
M  V30 30849 H 3098.9 5.26822 1.64809 0
M  V30 30850 H 3101.38 3.45942 2.31222 0
M  V30 30851 H 3100.26 4.30175 3.40941 0
M  V30 30852 H 3100.52 2.57453 3.59403 0
M  V30 30853 N 3099.58 -0.518341 1.48832 0
M  V30 30854 C 3100.53 -1.61822 1.60617 0
M  V30 30855 C 3101.51 -1.54105 0.462658 0
M  V30 30856 O 3102.7 -1.61928 0.714717 0
M  V30 30857 C 3099.83 -3.00504 1.65989 0
M  V30 30858 C 3098.92 -3.13281 2.85859 0
M  V30 30859 N 3099.31 -2.95998 4.10145 0
M  V30 30860 C 3097.61 -3.44355 2.83435 0
M  V30 30861 C 3098.31 -3.125 4.90631 0
M  V30 30862 N 3097.28 -3.40599 4.23666 0
M  V30 30863 H 3101.08 -1.47086 2.54446 0
M  V30 30864 H 3098.6 -0.724077 1.45365 0
M  V30 30865 H 3100.6 -3.79526 1.72527 0
M  V30 30866 H 3099.26 -3.16322 0.732848 0
M  V30 30867 H 3100.27 -2.72523 4.40399 0
M  V30 30868 H 3096.94 -3.66458 2.00036 0
M  V30 30869 H 3098.33 -3.03776 5.99308 0
M  V30 30870 N 3101.05 -1.37615 -0.7681 0
M  V30 30871 C 3102.3 -1.32762 -1.52377 0
M  V30 30872 C 3102.62 0.0863222 -1.94809 0
M  V30 30873 O 3101.89 1.03109 -1.6657 0
M  V30 30874 H 3100.47 -0.488458 -0.565171 0
M  V30 30875 H 3103.13 -1.72143 -0.913944 0
M  V30 30876 H 3102.23 -1.96905 -2.42146 0
M  V30 30877 N 3102.53 0.994677 -1.22245 0
M  V30 30878 C 3103.76 1.77485 -1.07302 0
M  V30 30879 C 3104.18 1.84379 0.37227 0
M  V30 30880 O 3103.54 1.29496 1.26888 0
M  V30 30881 C 3103.59 3.18715 -1.6868 0
M  V30 30882 O 3102.69 4.01561 -0.939272 0
M  V30 30883 H 3102.03 0.546604 -0.376988 0
M  V30 30884 H 3104.56 1.24962 -1.62005 0
M  V30 30885 H 3104.57 3.69351 -1.73331 0
M  V30 30886 H 3103.25 3.13012 -2.73855 0
M  V30 30887 H 3101.82 3.60099 -0.968647 0
M  V30 30888 N 3104.01 1.03186 1.19123 0
M  V30 30889 C 3105.43 0.749471 1.40908 0
M  V30 30890 C 3105.63 -0.664695 1.90221 0
M  V30 30891 O 3104.68 -1.43024 2.08087 0
M  V30 30892 C 3105.99 1.78811 2.41758 0
M  V30 30893 C 3107.54 1.808 2.555 0
M  V30 30894 C 3108.02 2.83632 3.59607 0
M  V30 30895 N 3109.51 2.82468 3.67105 0
M  V30 30896 C 3110.24 3.58688 4.4736 0
M  V30 30897 N 3109.74 4.44632 5.31295 0
M  V30 30898 N 3111.53 3.47216 4.42038 0
M  V30 30899 H 3103.68 1.94459 0.854365 0
M  V30 30900 H 3105.95 0.840886 0.437738 0
M  V30 30901 H 3105.65 2.80203 2.12554 0
M  V30 30902 H 3105.53 1.61289 3.40978 0
M  V30 30903 H 3107.91 0.800853 2.84025 0
M  V30 30904 H 3107.99 2.02399 1.56424 0
M  V30 30905 H 3107.64 3.8452 3.31823 0
M  V30 30906 H 3107.57 2.59291 4.5834 0
M  V30 30907 H 3110.06 2.20136 3.07162 0
M  V30 30908 H 3110.37 4.99522 5.89659 0
M  V30 30909 H 3108.72 4.48704 5.30745 0
M  V30 30910 H 3111.91 2.79484 3.75508 0
M  V30 30911 H 3112.08 4.06868 5.04343 0
M  V30 30912 N 3105.49 -1.35184 0.810125 0
M  V30 30913 C 3106.42 -2.32289 0.237494 0
M  V30 30914 C 3107.4 -1.57641 -0.639005 0
M  V30 30915 O 3108.58 -1.85691 -0.568542 0
M  V30 30916 C 3105.71 -3.41867 -0.611903 0
M  V30 30917 C 3104.67 -4.27676 0.166393 0
M  V30 30918 C 3103.99 -5.28607 -0.804931 0
M  V30 30919 C 3105.29 -5.04083 1.36738 0
M  V30 30920 H 3106.99 -2.8043 1.04879 0
M  V30 30921 H 3104.53 -1.34826 0.505774 0
M  V30 30922 H 3106.49 -4.08804 -1.0226 0
M  V30 30923 H 3105.21 -2.92344 -1.45612 0
M  V30 30924 H 3103.87 -3.62324 0.558302 0
M  V30 30925 H 3103.52 -4.7535 -1.64474 0
M  V30 30926 H 3103.22 -5.86891 -0.288474 0
M  V30 30927 H 3104.74 -5.98415 -1.21375 0
M  V30 30928 H 3106.16 -5.63946 1.03138 0
M  V30 30929 H 3104.55 -5.71881 1.81858 0
M  V30 30930 H 3105.62 -4.3452 2.15221 0
M  V30 30931 N 3106.97 -0.56394 -1.47165 0
M  V30 30932 C 3108.38 -0.224201 -1.58017 0
M  V30 30933 C 3108.58 1.27336 -1.56166 0
M  V30 30934 O 3107.64 2.05396 -1.46863 0
M  V30 30935 C 3108.95 -0.856812 -2.88235 0
M  V30 30936 C 3110.5 -0.828663 -3.01831 0
M  V30 30937 C 3110.97 -1.44047 -4.34758 0
M  V30 30938 N 3112.47 -1.40396 -4.41411 0
M  V30 30939 C 3113.2 -1.8469 -5.42842 0
M  V30 30940 N 3112.7 -2.36872 -6.51048 0
M  V30 30941 N 3114.49 -1.7572 -5.33928 0
M  V30 30942 H 3106.64 -1.53684 -1.46612 0
M  V30 30943 H 3108.9 -0.641283 -0.698184 0
M  V30 30944 H 3108.61 -1.90955 -2.95346 0
M  V30 30945 H 3108.48 -0.353832 -3.75537 0
M  V30 30946 H 3110.87 0.215399 -2.94313 0
M  V30 30947 H 3110.95 -1.36947 -2.16054 0
M  V30 30948 H 3110.6 -2.48363 -4.43033 0
M  V30 30949 H 3110.53 -0.875044 -5.19279 0
M  V30 30950 H 3113.02 -1.02233 -3.63809 0
M  V30 30951 H 3113.33 -2.68577 -7.24628 0
M  V30 30952 H 3111.67 -2.40886 -6.51919 0
M  V30 30953 H 3114.87 -1.34726 -4.48293 0
M  V30 30954 H 3115.04 -2.10558 -6.12837 0
M  V30 30955 N 3108.44 1.54704 -0.300735 0
M  V30 30956 C 3109.37 2.2647 0.568635 0
M  V30 30957 C 3110.36 1.26413 1.13814 0
M  V30 30958 O 3111.54 1.55185 1.16753 0
M  V30 30959 C 3108.67 3.00527 1.74071 0
M  V30 30960 C 3107.62 4.07729 1.30158 0
M  V30 30961 C 3106.95 4.69499 2.5588 0
M  V30 30962 C 3108.25 5.20502 0.433015 0
M  V30 30963 H 3109.94 2.99385 -0.0299377 0
M  V30 30964 H 3107.49 1.43991 -0.0158388 0
M  V30 30965 H 3109.44 3.49453 2.355 0
M  V30 30966 H 3108.17 2.2519 2.36552 0
M  V30 30967 H 3106.83 3.59652 0.71035 0
M  V30 30968 H 3106.47 3.90802 3.16674 0
M  V30 30969 H 3106.17 5.41899 2.27198 0
M  V30 30970 H 3107.7 5.21189 3.18111 0
M  V30 30971 H 3109.11 5.65324 0.95297 0
M  V30 30972 H 3107.51 5.9962 0.23998 0
M  V30 30973 H 3108.58 4.81862 -0.54195 0
M  V30 30974 N 3109.92 0.0284543 1.57574 0
M  V30 30975 C 3111.33 -0.510471 1.79586 0
M  V30 30976 C 3111.68 -1.7229 0.938656 0
M  V30 30977 O 3110.81 -2.15887 0.148878 0
M  V30 30978 C 3111.4 -0.932855 3.25704 0
M  V30 30979 C 3109.96 -1.4169 3.48713 0
M  V30 30980 C 3109.11 -0.381308 2.74666 0
M  V30 30981 H 3112.06 0.254492 1.56646 0
M  V30 30982 H 3112.08 -1.79726 3.35379 0
M  V30 30983 H 3111.59 -0.0502353 3.88067 0
M  V30 30984 H 3109.7 -2.31947 2.91602 0
M  V30 30985 H 3109.81 -1.42473 4.57426 0
M  V30 30986 H 3108.17 -0.849258 2.40124 0
M  V30 30987 H 3108.96 0.492835 3.39744 0
M  V30 30988 N 3111.4 -1.55689 -0.244686 0
M  V30 30989 C 3112.33 -1.86954 -1.32592 0
M  V30 30990 C 3113.35 -0.755973 -1.44184 0
M  V30 30991 O 3114.53 -1.03411 -1.45494 0
M  V30 30992 C 3111.63 -2.04263 -2.70426 0
M  V30 30993 C 3110.81 -3.35136 -2.81074 0
M  V30 30994 C 3109.87 -3.4216 -3.99767 0
M  V30 30995 O 3108.89 -4.15355 -3.8919 0
M  V30 30996 N 3110.09 -2.71614 -5.13036 0
M  V30 30997 H 3112.86 -2.80288 -1.06106 0
M  V30 30998 H 3110.42 -1.55953 -0.434783 0
M  V30 30999 H 3112.41 -2.06301 -3.4817 0
M  V30 31000 H 3110.98 -1.17663 -2.8961 0
M  V30 31001 H 3110.2 -3.45396 -1.89988 0
M  V30 31002 H 3111.49 -4.21394 -2.8514 0
M  V30 31003 H 3110.89 -2.11881 -5.24521 0
M  V30 31004 H 3109.45 -2.79341 -5.88907 0
M  V30 31005 N 3112.88 0.510441 -1.49105 0
M  V30 31006 C 3114.12 1.26703 -1.58349 0
M  V30 31007 C 3114.46 1.92381 -0.265155 0
M  V30 31008 O 3113.73 1.8026 0.730526 0
M  V30 31009 C 3114.02 2.34133 -2.73594 0
M  V30 31010 C 3113.87 1.73017 -4.15193 0
M  V30 31011 C 3115.19 3.35765 -2.84517 0
M  V30 31012 H 3112.31 0.459301 -0.576378 0
M  V30 31013 H 3114.95 0.566626 -1.81354 0
M  V30 31014 H 3113.1 2.93872 -2.5411 0
M  V30 31015 H 3114.77 1.17178 -4.46169 0
M  V30 31016 H 3113.01 1.03466 -4.21281 0
M  V30 31017 H 3113.68 2.50894 -4.91687 0
M  V30 31018 H 3116.16 2.86006 -3.02225 0
M  V30 31019 H 3115.04 4.08306 -3.66848 0
M  V30 31020 H 3115.3 3.97516 -1.93478 0
M  V30 31021 N 3114.36 1.38021 0.760791 0
M  V30 31022 C 3115.58 1.37227 1.55511 0
M  V30 31023 C 3116.01 -0.0375779 1.88062 0
M  V30 31024 O 3115.36 -1.01767 1.50044 0
M  V30 31025 C 3115.41 2.22801 2.83535 0
M  V30 31026 O 3114.52 1.64016 3.78381 0
M  V30 31027 H 3113.86 0.468401 0.470634 0
M  V30 31028 H 3116.39 1.81689 0.94076 0
M  V30 31029 H 3116.4 2.36405 3.32531 0
M  V30 31030 H 3115.07 3.25273 2.59172 0
M  V30 31031 H 3113.65 1.59514 3.3706 0
M  V30 31032 N 3115.83 -0.98818 1.22771 0
M  V30 31033 C 3117.25 -1.54293 1.05122 0
M  V30 31034 C 3117.6 -1.92408 -0.38387 0
M  V30 31035 O 3116.72 -1.75249 -1.26952 0
M  V30 31036 C 3117.32 -2.80372 1.90203 0
M  V30 31037 C 3115.88 -3.32273 1.76837 0
M  V30 31038 C 3115.02 -2.05323 1.86381 0
M  V30 31039 H 3117.97 -0.808734 1.36547 0
M  V30 31040 H 3117.99 -3.52921 1.42222 0
M  V30 31041 H 3117.51 -2.52599 2.94644 0
M  V30 31042 H 3115.61 -3.64943 0.751476 0
M  V30 31043 H 3115.72 -4.02557 2.59778 0
M  V30 31044 H 3114.08 -2.191 1.29873 0
M  V30 31045 H 3114.87 -1.79941 2.92363 0
M  V30 31046 N 3117.31 -1.03816 -1.18575 0
M  V30 31047 C 3118.28 -0.631499 -2.20329 0
M  V30 31048 C 3119.28 0.309788 -1.57788 0
M  V30 31049 O 3120.47 0.0955292 -1.73938 0
M  V30 31050 C 3117.6 0.0745363 -3.40819 0
M  V30 31051 H 3118.79 -1.53194 -2.57821 0
M  V30 31052 H 3116.34 -0.830421 -1.32415 0
M  V30 31053 H 3117.08 0.988892 -3.08855 0
M  V30 31054 H 3116.86 -0.601968 -3.87452 0
M  V30 31055 H 3118.35 0.345654 -4.16167 0
M  V30 31056 N 3118.79 1.34753 -0.817283 0
M  V30 31057 C 3120.07 1.92873 -0.325502 0
M  V30 31058 C 3120.45 1.74608 1.1864 0
M  V30 31059 O 3119.8 1.12144 1.99088 0
M  V30 31060 C 3120.01 3.40876 -0.74864 0
M  V30 31061 C 3121.35 4.18027 -0.744238 0
M  V30 31062 O 3122.38 3.49436 -0.69086 0
M  V30 31063 O 3121.24 5.40429 -0.812302 0
M  V30 31064 H 3118.33 0.822342 -0.0876542 0
M  V30 31065 H 3120.88 1.43762 -0.901696 0
M  V30 31066 H 3119.65 3.47946 -1.79023 0
M  V30 31067 H 3119.27 3.97325 -0.147833 0
M  V30 31068 N 3120.27 0.571737 1.46864 0
M  V30 31069 C 3121.49 0.0565019 2.07323 0
M  V30 31070 C 3121.92 -1.23429 1.4194 0
M  V30 31071 O 3121.28 -1.74287 0.499364 0
M  V30 31072 C 3121.33 -0.107276 3.6044 0
M  V30 31073 O 3120.43 -1.16643 3.95561 0
M  V30 31074 H 3119.77 0.0578581 0.661474 0
M  V30 31075 H 3122.3 0.791558 1.88668 0
M  V30 31076 H 3122.31 -0.316915 4.06767 0
M  V30 31077 H 3120.99 0.83542 4.07423 0
M  V30 31078 H 3119.56 -0.936125 3.60959 0
M  V30 31079 N 3121.75 -1.54542 0.308935 0
M  V30 31080 C 3123 -1.999 -0.297412 0
M  V30 31081 C 3123.32 -1.19881 -1.53797 0
M  V30 31082 O 3122.59 -0.296814 -1.93638 0
M  V30 31083 H 3121.17 -0.738421 -0.112884 0
M  V30 31084 H 3123.83 -1.90274 0.422101 0
M  V30 31085 H 3122.92 -3.06962 -0.563962 0
M  V30 31086 N 3123.23 -0.0368104 -1.57557 0
M  V30 31087 C 3124.14 0.957979 -2.14149 0
M  V30 31088 C 3125.15 1.35171 -1.09566 0
M  V30 31089 O 3126.33 1.43156 -1.41663 0
M  V30 31090 C 3123.39 2.21926 -2.66364 0
M  V30 31091 C 3122.45 1.88523 -3.85691 0
M  V30 31092 C 3121.69 3.08638 -4.35406 0
M  V30 31093 O 3121.91 4.21547 -3.84258 0
M  V30 31094 O 3120.84 2.90488 -5.27163 0
M  V30 31095 H 3124.67 0.506744 -2.99442 0
M  V30 31096 H 3122.25 0.184249 -1.4826 0
M  V30 31097 H 3124.14 2.95955 -2.99981 0
M  V30 31098 H 3122.81 2.66215 -1.8415 0
M  V30 31099 H 3121.72 1.11855 -3.56986 0
M  V30 31100 H 3123.05 1.49044 -4.69091 0
M  V30 31101 N 3124.7 1.55817 0.236426 0
M  V30 31102 C 3125.93 1.8194 0.978841 0
M  V30 31103 C 3126.34 0.611678 1.79039 0
M  V30 31104 O 3125.68 -0.429141 1.78617 0
M  V30 31105 C 3125.75 3.01575 1.95685 0
M  V30 31106 C 3125.41 4.37181 1.33124 0
M  V30 31107 C 3126.41 5.14771 0.728495 0
M  V30 31108 C 3124.09 4.83889 1.34746 0
M  V30 31109 C 3126.09 6.37223 0.150315 0
M  V30 31110 C 3123.77 6.06287 0.765432 0
M  V30 31111 C 3124.77 6.82794 0.167896 0
M  V30 31112 O 3124.46 8.02879 -0.405117 0
M  V30 31113 H 3124.19 0.609118 0.293175 0
M  V30 31114 H 3126.75 2.03731 0.261349 0
M  V30 31115 H 3124.98 2.75566 2.71293 0
M  V30 31116 H 3126.66 3.147 2.56357 0
M  V30 31117 H 3127.43 4.79799 0.708392 0
M  V30 31118 H 3123.31 4.24324 1.80195 0
M  V30 31119 H 3126.85 6.96881 -0.316708 0
M  V30 31120 H 3122.75 6.40735 0.782897 0
M  V30 31121 H 3123.52 8.17957 -0.297993 0
M  V30 31122 N 3126.18 -0.502526 1.49373 0
M  V30 31123 C 3127.43 -1.25861 1.59018 0
M  V30 31124 C 3127.76 -1.92238 0.275353 0
M  V30 31125 O 3127.04 -1.80645 -0.720956 0
M  V30 31126 C 3127.32 -2.32678 2.74832 0
M  V30 31127 C 3127.17 -1.70813 4.16105 0
M  V30 31128 C 3128.49 -3.34251 2.86294 0
M  V30 31129 H 3125.61 -0.456237 0.578806 0
M  V30 31130 H 3128.25 -0.557 1.81652 0
M  V30 31131 H 3126.4 -2.9252 2.55665 0
M  V30 31132 H 3128.07 -1.1481 4.46784 0
M  V30 31133 H 3126.32 -1.0123 4.21823 0
M  V30 31134 H 3126.99 -2.48283 4.93011 0
M  V30 31135 H 3129.46 -2.84399 3.03738 0
M  V30 31136 H 3128.34 -4.06355 3.69008 0
M  V30 31137 H 3128.6 -3.96484 1.95583 0
M  V30 31138 N 3127.66 -1.38422 -0.75346 0
M  V30 31139 C 3128.9 -1.36053 -1.52542 0
M  V30 31140 C 3129.26 0.0492919 -1.91937 0
M  V30 31141 O 3130.46 0.197861 -2.68071 0
M  V30 31142 C 3128.74 -2.28963 -2.74428 0
M  V30 31143 S 3130.29 -2.44614 -3.64293 0
M  V30 31144 H 3127.11 -0.48273 -0.522009 0
M  V30 31145 H 3129.71 -1.74348 -0.884472 0
M  V30 31146 H 3128.42 -3.30286 -2.43596 0
M  V30 31147 H 3127.95 -1.91817 -3.43467 0
M  V30 31148 H 3129.96 -1.6703 -4.67242 0
M  V30 31149 N 3129.14 0.981655 -1.23294 0
M  V30 31150 C 3130.55 1.24762 -0.995317 0
M  V30 31151 C 3130.75 1.99188 0.304344 0
M  V30 31152 O 3129.81 2.30799 1.0241 0
M  V30 31153 C 3131.12 2.0484 -2.20139 0
M  V30 31154 C 3132.67 2.17984 -2.24615 0
M  V30 31155 C 3133.15 3.01452 -3.44805 0
M  V30 31156 N 3134.64 3.09037 -3.45036 0
M  V30 31157 C 3135.37 3.73942 -4.34689 0
M  V30 31158 N 3134.87 4.40681 -5.34577 0
M  V30 31159 N 3136.66 3.70816 -4.22436 0
M  V30 31160 H 3128.81 0.483016 -2.06835 0
M  V30 31161 H 3131.07 0.275998 -0.906934 0
M  V30 31162 H 3130.78 1.57527 -3.14449 0
M  V30 31163 H 3130.65 3.0559 -2.21121 0
M  V30 31164 H 3133.04 2.64506 -1.30845 0
M  V30 31165 H 3133.12 1.16627 -2.27666 0
M  V30 31166 H 3132.77 2.55627 -4.38882 0
M  V30 31167 H 3132.7 4.02976 -3.38996 0
M  V30 31168 H 3135.19 2.6155 -2.72763 0
M  V30 31169 H 3135.5 4.87981 -5.99245 0
M  V30 31170 H 3133.85 4.39393 -5.38478 0
M  V30 31171 H 3137.04 3.17845 -3.43645 0
M  V30 31172 H 3137.21 4.21117 -4.92508 0
M  V30 31173 N 3130.62 1.04444 1.18022 0
M  V30 31174 C 3131.86 0.751166 1.88376 0
M  V30 31175 C 3132.19 -0.719539 1.80378 0
M  V30 31176 O 3131.47 -1.52546 1.20665 0
M  V30 31177 C 3131.75 1.22271 3.38706 0
M  V30 31178 C 3131.61 2.7558 3.55494 0
M  V30 31179 C 3132.92 0.815764 4.32473 0
M  V30 31180 H 3130.04 0.274352 0.684032 0
M  V30 31181 H 3132.69 1.29711 1.38835 0
M  V30 31182 H 3130.84 0.758259 3.81028 0
M  V30 31183 H 3132.51 3.30092 3.22238 0
M  V30 31184 H 3130.75 3.15222 2.98023 0
M  V30 31185 H 3131.42 3.03634 4.60989 0
M  V30 31186 H 3133.9 1.21549 3.97951 0
M  V30 31187 H 3132.77 1.17341 5.36211 0
M  V30 31188 H 3133.03 -0.280823 4.41207 0
M  V30 31189 N 3132.09 -1.34317 0.824418 0
M  V30 31190 C 3133 -2.33271 0.249361 0
M  V30 31191 C 3134.02 -1.62692 -0.617037 0
M  V30 31192 O 3135.2 -1.94448 -0.524582 0
M  V30 31193 C 3132.26 -3.41847 -0.578034 0
M  V30 31194 C 3131.32 -4.28172 0.310941 0
M  V30 31195 C 3130.55 -5.31564 -0.47706 0
M  V30 31196 O 3130.78 -5.44159 -1.71019 0
M  V30 31197 O 3129.71 -6.01734 0.141393 0
M  V30 31198 H 3133.54 -2.84286 1.06842 0
M  V30 31199 H 3131.12 -1.37402 0.586594 0
M  V30 31200 H 3133 -4.08142 -1.04871 0
M  V30 31201 H 3131.68 -2.93074 -1.37439 0
M  V30 31202 H 3130.59 -3.64796 0.829145 0
M  V30 31203 H 3131.92 -4.80391 1.07169 0
M  V30 31204 N 3133.57 -0.579517 -1.46558 0
M  V30 31205 C 3134.52 0.168372 -2.3199 0
M  V30 31206 C 3135.51 0.887526 -1.44289 0
M  V30 31207 O 3136.72 0.806277 -1.60932 0
M  V30 31208 H 3133.09 0.0731668 -0.748432 0
M  V30 31209 H 3135.07 -0.571024 -2.92885 0
M  V30 31210 C 3133.81 1.17084 -3.27394 0
M  V30 31211 H 3133.14 0.626889 -3.94855 0
M  V30 31212 H 3134.58 1.6646 -3.89958 0
M  V30 31213 C 3133.04 2.23019 -2.52515 0
M  V30 31214 O 3133.57 3.3032 -2.28586 0
M  V30 31215 N 3131.77 1.97541 -2.13133 0
M  V30 31216 H 3131.32 1.10293 -2.32794 0
M  V30 31217 H 3131.28 2.68632 -1.63352 0
M  V30 31218 N 3135.05 1.54376 -0.317127 0
M  V30 31219 C 3136.3 2.00055 0.286807 0
M  V30 31220 C 3136.62 1.20695 1.53159 0
M  V30 31221 O 3135.89 0.307079 1.93478 0
M  V30 31222 H 3134.47 0.73901 0.108966 0
M  V30 31223 H 3137.13 1.90048 -0.432185 0
M  V30 31224 H 3136.23 3.07257 0.547675 0
M  V30 31225 N 3136.53 0.0451655 1.57535 0
M  V30 31226 C 3137.75 -0.643225 1.97173 0
M  V30 31227 C 3138.18 -1.63937 0.922295 0
M  V30 31228 O 3137.54 -1.80934 -0.115123 0
M  V30 31229 C 3137.58 -1.31184 3.35891 0
M  V30 31230 O 3136.69 -2.42743 3.33391 0
M  V30 31231 H 3136.03 -0.167708 0.642472 0
M  V30 31232 H 3138.56 0.111783 2.04294 0
M  V30 31233 H 3138.57 -1.66492 3.72484 0
M  V30 31234 H 3137.24 -0.581751 4.11811 0
M  V30 31235 H 3135.82 -2.09427 3.08537 0
M  V30 31236 N 3138.01 -1.5594 -0.228159 0
M  V30 31237 C 3139.25 -1.78293 -0.951637 0
M  V30 31238 C 3139.58 -0.612507 -1.85131 0
M  V30 31239 O 3138.85 0.370908 -1.92357 0
M  V30 31240 H 3137.43 -0.657591 -0.354376 0
M  V30 31241 H 3140.09 -1.93397 -0.241601 0
M  V30 31242 H 3139.18 -2.7018 -1.56234 0
M  V30 31243 N 3139.48 0.494597 -1.49638 0
M  V30 31244 C 3140.9 1.076 -1.52575 0
M  V30 31245 C 3141.25 1.93645 -0.315625 0
M  V30 31246 O 3140.37 2.0865 0.573929 0
M  V30 31247 C 3140.97 1.95812 -2.76483 0
M  V30 31248 C 3139.53 2.49104 -2.82178 0
M  V30 31249 C 3138.67 1.26875 -2.46572 0
M  V30 31250 H 3141.62 0.278224 -1.56242 0
M  V30 31251 H 3141.64 2.80584 -2.57008 0
M  V30 31252 H 3141.16 1.33161 -3.64541 0
M  V30 31253 H 3139.26 3.15376 -1.98416 0
M  V30 31254 H 3139.37 2.85818 -3.84506 0
M  V30 31255 H 3137.73 1.59603 -1.98491 0
M  V30 31256 H 3138.52 0.659222 -3.36911 0
M  V30 31257 N 3140.96 1.3882 0.746109 0
M  V30 31258 C 3141.91 1.3665 1.85998 0
M  V30 31259 C 3142.88 0.227878 1.64529 0
M  V30 31260 O 3144.06 0.421273 1.86091 0
M  V30 31261 C 3141.2 1.2048 3.23386 0
M  V30 31262 C 3140.32 2.43793 3.56636 0
M  V30 31263 C 3139.45 2.20296 4.83367 0
M  V30 31264 C 3138.49 3.39341 5.09425 0
M  V30 31265 N 3137.63 3.15231 6.27354 0
M  V30 31266 H 3142.47 2.31872 1.87188 0
M  V30 31267 H 3140.01 1.15193 0.914817 0
M  V30 31268 H 3141.96 1.09119 4.02677 0
M  V30 31269 H 3140.59 0.288931 3.21504 0
M  V30 31270 H 3139.65 2.65799 2.72131 0
M  V30 31271 H 3140.96 3.32496 3.71817 0
M  V30 31272 H 3140.11 2.06113 5.70616 0
M  V30 31273 H 3138.85 1.28969 4.70338 0
M  V30 31274 H 3137.86 3.54034 4.20642 0
M  V30 31275 H 3139.08 4.31553 5.24346 0
M  V30 31276 H 3137.03 2.26559 6.15635 0
M  V30 31277 H 3136.94 3.97487 6.43071 0
M  V30 31278 H 3138.21 3.0472 7.17472 0
M  V30 31279 N 3142.44 -0.975103 1.23812 0
M  V30 31280 C 3143.35 -2.10247 1.04084 0
M  V30 31281 C 3144.37 -1.73992 -0.0162098 0
M  V30 31282 O 3145.54 -2.00591 0.180381 0
M  V30 31283 C 3142.61 -3.4074 0.640073 0
M  V30 31284 C 3141.67 -3.90988 1.77277 0
M  V30 31285 C 3140.9 -5.15253 1.39103 0
M  V30 31286 O 3141.12 -5.69724 0.277583 0
M  V30 31287 O 3140.06 -5.59701 2.21402 0
M  V30 31288 H 3143.88 -2.29782 1.98579 0
M  V30 31289 H 3141.47 -1.08631 1.02565 0
M  V30 31290 H 3143.35 -4.19223 0.427758 0
M  V30 31291 H 3142.03 -3.22523 -0.275833 0
M  V30 31292 H 3140.93 -3.13599 2.03977 0
M  V30 31293 H 3142.27 -4.13669 2.66718 0
M  V30 31294 N 3143.92 -1.05068 -1.17467 0
M  V30 31295 C 3144.88 -0.654832 -2.19647 0
M  V30 31296 C 3145.88 0.293035 -1.58107 0
M  V30 31297 O 3147.07 0.0770754 -1.74029 0
M  V30 31298 C 3144.2 0.0383838 -3.40878 0
M  V30 31299 H 3145.4 -1.5592 -2.56182 0
M  V30 31300 H 3142.95 -0.844419 -1.31527 0
M  V30 31301 H 3143.68 0.956078 -3.09886 0
M  V30 31302 H 3143.47 -0.643029 -3.86791 0
M  V30 31303 H 3144.96 0.301494 -4.1651 0
M  V30 31304 N 3145.4 1.33878 -0.831529 0
M  V30 31305 C 3146.62 2.02766 -0.435989 0
M  V30 31306 C 3147.05 1.62179 0.952861 0
M  V30 31307 O 3146.4 0.810709 1.62164 0
M  V30 31308 C 3146.45 3.56288 -0.55597 0
M  V30 31309 O 3145.56 4.10248 0.420754 0
M  V30 31310 H 3144.9 0.639625 -0.178259 0
M  V30 31311 H 3147.43 1.70939 -1.12433 0
M  V30 31312 H 3147.44 4.05675 -0.434902 0
M  V30 31313 H 3146.11 3.85174 -1.56887 0
M  V30 31314 H 3144.69 3.72007 0.257854 0
M  V30 31315 N 3146.87 0.587281 1.46249 0
M  V30 31316 C 3148.12 0.0722997 2.0157 0
M  V30 31317 C 3148.44 -1.29731 1.46387 0
M  V30 31318 O 3149.64 -1.90389 1.93557 0
M  V30 31319 C 3148.1 0.0786422 3.59814 0
M  V30 31320 C 3147.71 1.44685 4.23993 0
M  V30 31321 C 3149.45 -0.382156 4.22776 0
M  V30 31322 C 3147.36 1.41067 5.74329 0
M  V30 31323 H 3146.29 0.0232594 0.753641 0
M  V30 31324 H 3148.94 0.739606 1.67935 0
M  V30 31325 H 3147.32 -0.65492 3.90547 0
M  V30 31326 H 3148.49 2.20051 4.04863 0
M  V30 31327 H 3146.81 1.84805 3.73143 0
M  V30 31328 H 3149.41 -0.428088 5.32984 0
M  V30 31329 H 3149.75 -1.40065 3.9203 0
M  V30 31330 H 3150.28 0.297487 3.96686 0
M  V30 31331 H 3147.02 2.40612 6.09743 0
M  V30 31332 H 3146.54 0.69929 5.9571 0
M  V30 31333 H 3148.22 1.12554 6.37135 0
M  V30 31334 N 3148.35 -1.54206 0.325309 0
M  V30 31335 C 3149.58 -2.05015 -0.278654 0
M  V30 31336 C 3150 -1.20135 -1.45647 0
M  V30 31337 O 3149.35 -0.23243 -1.81014 0
M  V30 31338 C 3149.4 -3.54431 -0.711424 0
M  V30 31339 O 3149.12 -4.36087 0.419534 0
M  V30 31340 C 3150.63 -4.21338 -1.37801 0
M  V30 31341 H 3147.85 -0.668572 -0.0570271 0
M  V30 31342 H 3150.39 -1.98978 0.472005 0
M  V30 31343 H 3148.54 -3.60749 -1.41205 0
M  V30 31344 H 3148.96 -5.24442 0.0781958 0
M  V30 31345 H 3150.43 -5.27331 -1.63175 0
M  V30 31346 H 3150.91 -3.72559 -2.32586 0
M  V30 31347 H 3151.52 -4.19163 -0.719913 0
M  V30 31348 N 3149.83 -0.0535194 -1.57509 0
M  V30 31349 C 3151.08 0.620657 -1.93069 0
M  V30 31350 C 3151.41 1.70356 -0.932343 0
M  V30 31351 O 3150.69 1.94456 0.0413051 0
M  V30 31352 C 3150.97 1.21457 -3.38999 0
M  V30 31353 C 3150.82 0.139571 -4.49583 0
M  V30 31354 C 3152.14 2.12552 -3.8537 0
M  V30 31355 H 3149.26 0.22415 -0.702087 0
M  V30 31356 H 3151.9 -0.115763 -1.89647 0
M  V30 31357 H 3150.05 1.8422 -3.42046 0
M  V30 31358 H 3151.72 -0.492492 -4.58664 0
M  V30 31359 H 3149.97 -0.532081 -4.30524 0
M  V30 31360 H 3150.64 0.595191 -5.48782 0
M  V30 31361 H 3153.11 1.59748 -3.84213 0
M  V30 31362 H 3151.99 2.5105 -4.88124 0
M  V30 31363 H 3152.25 3.02655 -3.22261 0
M  V30 31364 N 3151.31 1.56059 0.219886 0
M  V30 31365 C 3152.53 1.8358 0.965041 0
M  V30 31366 C 3152.96 0.634055 1.77091 0
M  V30 31367 O 3152.32 -0.417174 1.76435 0
M  V30 31368 C 3152.37 3.09108 1.857 0
M  V30 31369 O 3151.47 2.87919 2.95256 0
M  V30 31370 H 3150.81 0.605209 0.273163 0
M  V30 31371 H 3153.34 2.03272 0.232695 0
M  V30 31372 H 3153.35 3.39256 2.26649 0
M  V30 31373 H 3152.03 3.96205 1.26469 0
M  V30 31374 H 3150.6 2.69009 2.58241 0
M  V30 31375 N 3152.79 -0.486655 1.49898 0
M  V30 31376 C 3154.03 -1.24167 1.60344 0
M  V30 31377 C 3154.37 -1.91935 0.295727 0
M  V30 31378 O 3153.64 -1.81399 -0.701756 0
M  V30 31379 C 3153.92 -2.2975 2.77285 0
M  V30 31380 C 3153.78 -1.6639 4.17893 0
M  V30 31381 C 3155.1 -3.31196 2.89823 0
M  V30 31382 H 3152.22 -0.450073 0.583612 0
M  V30 31383 H 3154.86 -0.537702 1.82233 0
M  V30 31384 H 3153.01 -2.89792 2.58753 0
M  V30 31385 H 3154.68 -1.10065 4.47977 0
M  V30 31386 H 3152.92 -0.967505 4.22873 0
M  V30 31387 H 3153.59 -2.4304 4.95616 0
M  V30 31388 H 3156.07 -2.81161 3.06737 0
M  V30 31389 H 3154.95 -4.02418 3.73297 0
M  V30 31390 H 3155.21 -3.94387 1.99777 0
M  V30 31391 N 3154.27 -1.39214 -0.738737 0
M  V30 31392 C 3155.2 -1.40367 -1.866 0
M  V30 31393 C 3156.18 -0.267525 -1.67983 0
M  V30 31394 O 3157.36 -0.472798 -1.88357 0
M  V30 31395 C 3154.49 -1.2427 -3.24306 0
M  V30 31396 C 3153.45 -2.35245 -3.57552 0
M  V30 31397 C 3152.77 -2.04241 -4.94155 0
M  V30 31398 C 3154.07 -3.77549 -3.60907 0
M  V30 31399 H 3155.77 -2.34701 -1.85892 0
M  V30 31400 H 3153.31 -1.12972 -0.892939 0
M  V30 31401 H 3155.26 -1.23699 -4.02836 0
M  V30 31402 H 3153.99 -0.264032 -3.25531 0
M  V30 31403 H 3152.65 -2.35027 -2.8135 0
M  V30 31404 H 3152.3 -1.04821 -4.91957 0
M  V30 31405 H 3152 -2.78576 -5.17368 0
M  V30 31406 H 3153.52 -2.05313 -5.75047 0
M  V30 31407 H 3154.93 -3.79717 -4.29521 0
M  V30 31408 H 3153.33 -4.51212 -3.95636 0
M  V30 31409 H 3154.4 -4.08795 -2.60796 0
M  V30 31410 N 3155.74 0.968523 -1.24328 0
M  V30 31411 C 3156.69 2.04805 -1.00195 0
M  V30 31412 C 3157.68 1.60801 0.0563242 0
M  V30 31413 O 3158.87 1.763 -0.157299 0
M  V30 31414 C 3156 3.37877 -0.607809 0
M  V30 31415 C 3155.08 3.88444 -1.70211 0
M  V30 31416 N 3155.48 4.11957 -2.9347 0
M  V30 31417 C 3153.77 4.17097 -1.57943 0
M  V30 31418 C 3154.47 4.53414 -3.64404 0
M  V30 31419 N 3153.45 4.58539 -2.91964 0
M  V30 31420 H 3157.25 2.20958 -1.9379 0
M  V30 31421 H 3154.77 1.15225 -1.14442 0
M  V30 31422 H 3156.76 4.14818 -0.416152 0
M  V30 31423 H 3155.42 3.2311 0.32097 0
M  V30 31424 H 3156.43 3.99433 -3.29657 0
M  V30 31425 H 3153.11 4.11269 -0.718625 0
M  V30 31426 H 3154.5 4.80026 -4.70133 0
M  V30 31427 N 3157.22 1.0569 1.16908 0
M  V30 31428 C 3158.47 0.768442 1.86921 0
M  V30 31429 C 3158.79 -0.706889 1.81736 0
M  V30 31430 O 3158.06 -1.51107 1.24673 0
M  V30 31431 H 3156.64 0.281265 0.692025 0
M  V30 31432 H 3159.3 1.33711 1.41801 0
M  V30 31433 H 3158.4 1.08788 2.92526 0
M  V30 31434 N 3158.7 -1.33435 0.838617 0
M  V30 31435 C 3159.93 -2.01999 0.44768 0
M  V30 31436 C 3160.34 -1.63098 -0.951024 0
M  V30 31437 O 3159.7 -0.844197 -1.61801 0
M  V30 31438 C 3159.75 -3.57161 0.558441 0
M  V30 31439 O 3159.47 -3.94657 1.90203 0
M  V30 31440 C 3160.97 -4.42995 0.164426 0
M  V30 31441 H 3158.19 -0.647029 0.177748 0
M  V30 31442 H 3160.74 -1.7037 1.13112 0
M  V30 31443 H 3158.89 -3.87323 -0.0770882 0
M  V30 31444 H 3159.31 -4.89365 1.88738 0
M  V30 31445 H 3160.78 -5.51222 0.292973 0
M  V30 31446 H 3161.26 -4.30013 -0.893638 0
M  V30 31447 H 3161.86 -4.18191 0.77438 0
M  V30 31448 N 3160.18 -0.595029 -1.45935 0
M  V30 31449 C 3161.13 0.152291 -2.27491 0
M  V30 31450 C 3162.11 0.850372 -1.36592 0
M  V30 31451 O 3163.3 0.742434 -1.60676 0
M  V30 31452 C 3160.43 1.15729 -3.23205 0
M  V30 31453 C 3159.52 0.460696 -4.2159 0
M  V30 31454 N 3159.91 -0.490643 -5.03415 0
M  V30 31455 C 3158.21 0.709872 -4.40314 0
M  V30 31456 C 3158.91 -0.898926 -5.74712 0
M  V30 31457 N 3157.88 -0.245385 -5.43046 0
M  V30 31458 H 3161.69 -0.578577 -2.88149 0
M  V30 31459 H 3159.2 -0.417744 -1.56935 0
M  V30 31460 H 3161.2 1.70697 -3.80353 0
M  V30 31461 H 3159.86 1.88885 -2.64107 0
M  V30 31462 H 3160.87 -0.866782 -5.10595 0
M  V30 31463 H 3157.55 1.42706 -3.92353 0
M  V30 31464 H 3158.94 -1.68285 -6.50484 0
M  V30 31465 N 3161.66 1.54031 -0.333483 0
M  V30 31466 C 3162.88 2.05629 0.270481 0
M  V30 31467 C 3163.31 1.20746 1.44229 0
M  V30 31468 O 3162.66 0.218854 1.79974 0
M  V30 31469 C 3162.71 3.54261 0.673189 0
M  V30 31470 O 3161.82 3.72274 1.77442 0
M  V30 31471 H 3161.16 0.662337 0.0469637 0
M  V30 31472 H 3163.69 1.98774 -0.484774 0
M  V30 31473 H 3163.7 3.96711 0.953124 0
M  V30 31474 H 3162.37 4.15494 -0.18382 0
M  V30 31475 H 3160.95 3.41728 1.49253 0
M  V30 31476 N 3163.13 0.0618717 1.57479 0
M  V30 31477 C 3164.38 -0.608302 1.92728 0
M  V30 31478 C 3164.7 -1.70747 0.941829 0
M  V30 31479 O 3163.97 -1.95897 -0.0116264 0
M  V30 31480 H 3162.55 -0.227688 0.711454 0
M  V30 31481 H 3165.21 0.117393 1.94546 0
M  V30 31482 H 3164.31 -1.04002 2.94262 0
M  V30 31483 N 3164.61 -1.56173 -0.211607 0
M  V30 31484 C 3166.02 -1.69729 -0.777746 0
M  V30 31485 C 3166.37 -0.665612 -1.84564 0
M  V30 31486 O 3165.5 0.1813 -2.15639 0
M  V30 31487 C 3166.09 -3.07721 -1.41751 0
M  V30 31488 C 3164.65 -3.23098 -1.93093 0
M  V30 31489 C 3163.8 -2.65667 -0.794739 0
M  V30 31490 H 3166.75 -1.58695 0.0132118 0
M  V30 31491 H 3166.77 -3.04132 -2.28657 0
M  V30 31492 H 3166.28 -3.82786 -0.640047 0
M  V30 31493 H 3164.39 -2.52919 -2.7361 0
M  V30 31494 H 3164.5 -4.30425 -2.10406 0
M  V30 31495 H 3162.86 -2.24409 -1.20469 0
M  V30 31496 H 3163.65 -3.43287 -0.0297805 0
M  V30 31497 N 3166.09 0.478699 -1.50154 0
M  V30 31498 C 3167.32 1.25948 -1.64779 0
M  V30 31499 C 3167.74 1.85221 -0.327827 0
M  V30 31500 O 3167.1 1.6693 0.707388 0
M  V30 31501 C 3167.15 2.34947 -2.73555 0
M  V30 31502 O 3166.25 3.39393 -2.34279 0
M  V30 31503 H 3165.59 0.370867 -0.550775 0
M  V30 31504 H 3168.12 0.570571 -1.96483 0
M  V30 31505 H 3168.13 2.80375 -2.96402 0
M  V30 31506 H 3166.81 1.91175 -3.69358 0
M  V30 31507 H 3165.38 2.99729 -2.21849 0
M  V30 31508 N 3167.57 1.39603 0.731343 0
M  V30 31509 C 3168.8 1.40105 1.51836 0
M  V30 31510 C 3169.21 -0.00523308 1.89199 0
M  V30 31511 O 3168.55 -0.987846 1.54878 0
M  V30 31512 C 3168.61 2.21333 2.83288 0
M  V30 31513 C 3168.28 3.69924 2.68338 0
M  V30 31514 C 3169.27 4.62922 2.36642 0
M  V30 31515 C 3166.96 4.13553 2.85095 0
M  V30 31516 C 3168.95 5.97531 2.2189 0
M  V30 31517 C 3166.64 5.48237 2.69961 0
M  V30 31518 C 3167.64 6.40041 2.38404 0
M  V30 31519 O 3167.32 7.72244 2.23369 0
M  V30 31520 H 3167.06 0.48031 0.475687 0
M  V30 31521 H 3169.61 1.84089 0.911064 0
M  V30 31522 H 3167.84 1.72102 3.46291 0
M  V30 31523 H 3169.53 2.13967 3.44925 0
M  V30 31524 H 3170.3 4.30514 2.23344 0
M  V30 31525 H 3166.17 3.42428 3.08649 0
M  V30 31526 H 3169.72 6.69153 1.97181 0
M  V30 31527 H 3165.62 5.80235 2.82839 0
M  V30 31528 H 3166.38 7.83009 2.38411 0
M  V30 31529 N 3169.05 -0.961916 1.2484 0
M  V30 31530 C 3170.27 -1.74045 1.11875 0
M  V30 31531 C 3170.69 -1.85926 -0.328176 0
M  V30 31532 O 3170.05 -1.35175 -1.22613 0
M  V30 31533 C 3170.1 -3.15798 1.75936 0
M  V30 31534 O 3169.82 -3.04507 3.14972 0
M  V30 31535 C 3171.32 -4.09963 1.68657 0
M  V30 31536 H 3168.54 -0.545609 0.390579 0
M  V30 31537 H 3171.08 -1.20729 1.6506 0
M  V30 31538 H 3169.24 -3.66082 1.2674 0
M  V30 31539 H 3169.65 -3.93875 3.46356 0
M  V30 31540 H 3171.13 -5.07063 2.18153 0
M  V30 31541 H 3171.6 -4.3438 0.648907 0
M  V30 31542 H 3172.21 -3.65592 2.17307 0
M  V30 31543 N 3170.52 -1.06308 -1.16346 0
M  V30 31544 C 3171.94 -0.804249 -1.6849 0
M  V30 31545 C 3172.29 0.672126 -1.84328 0
M  V30 31546 O 3171.41 1.52136 -1.53894 0
M  V30 31547 C 3172.01 -1.45333 -3.06045 0
M  V30 31548 C 3170.57 -1.24227 -3.55309 0
M  V30 31549 C 3169.71 -1.52974 -2.31288 0
M  V30 31550 H 3172.66 -1.22654 -1.00706 0
M  V30 31551 H 3172.68 -0.868739 -3.7045 0
M  V30 31552 H 3172.2 -2.52784 -2.94485 0
M  V30 31553 H 3170.3 -0.187513 -3.72128 0
M  V30 31554 H 3170.41 -1.9551 -4.37393 0
M  V30 31555 H 3168.77 -0.950283 -2.36309 0
M  V30 31556 H 3169.56 -2.61584 -2.22326 0
M  V30 31557 N 3172 1.32989 -0.845682 0
M  V30 31558 C 3173.25 1.9785 -0.445346 0
M  V30 31559 C 3173.58 1.66806 0.994446 0
M  V30 31560 O 3172.86 0.95154 1.69635 0
M  V30 31561 C 3173.14 3.53728 -0.674433 0
M  V30 31562 C 3172.99 3.94434 -2.16199 0
M  V30 31563 C 3174.31 4.39922 -0.124985 0
M  V30 31564 H 3171.43 0.718685 -0.163282 0
M  V30 31565 H 3174.07 1.57518 -1.06245 0
M  V30 31566 H 3172.22 3.88214 -0.149159 0
M  V30 31567 H 3173.89 3.70171 -2.75265 0
M  V30 31568 H 3172.14 3.43918 -2.64392 0
M  V30 31569 H 3172.81 5.03029 -2.27301 0
M  V30 31570 H 3175.28 4.12121 -0.574058 0
M  V30 31571 H 3174.16 5.47996 -0.314912 0
M  V30 31572 H 3174.42 4.3129 0.971682 0
M  V30 31573 N 3173.48 0.60276 1.45618 0
M  V30 31574 C 3174.89 0.181669 1.85814 0
M  V30 31575 C 3175.24 -1.26026 1.50372 0
M  V30 31576 O 3174.37 -1.95487 0.928102 0
M  V30 31577 C 3174.96 0.322926 3.37258 0
M  V30 31578 C 3173.52 -0.0434378 3.76375 0
M  V30 31579 C 3172.67 0.649609 2.69584 0
M  V30 31580 H 3175.62 0.809745 1.36487 0
M  V30 31581 H 3175.64 -0.446213 3.77875 0
M  V30 31582 H 3175.15 1.37248 3.63022 0
M  V30 31583 H 3173.25 -1.09235 3.56228 0
M  V30 31584 H 3173.37 0.346849 4.77843 0
M  V30 31585 H 3171.73 0.0877507 2.54549 0
M  V30 31586 H 3172.51 1.7012 2.98185 0
M  V30 31587 N 3174.96 -1.53852 0.341647 0
M  V30 31588 C 3176.21 -2.00486 -0.254944 0
M  V30 31589 C 3176.53 -1.23116 -1.5122 0
M  V30 31590 O 3175.8 -0.337821 -1.92965 0
M  V30 31591 H 3174.38 -0.74065 -0.0971954 0
M  V30 31592 H 3177.04 -1.89336 0.462366 0
M  V30 31593 H 3176.14 -3.0809 -0.498724 0
M  V30 31594 N 3176.44 -0.0702223 -1.57443 0
M  V30 31595 C 3177.66 0.611775 -1.98172 0
M  V30 31596 C 3178.09 1.62449 -0.948259 0
M  V30 31597 O 3177.44 1.81094 0.0863235 0
M  V30 31598 C 3177.49 1.25824 -3.37936 0
M  V30 31599 O 3176.6 2.37408 -3.37211 0
M  V30 31600 H 3175.94 0.157466 -0.645059 0
M  V30 31601 H 3178.47 -0.144271 -2.04091 0
M  V30 31602 H 3178.48 1.60545 -3.75086 0
M  V30 31603 H 3177.15 0.516162 -4.12685 0
M  V30 31604 H 3175.73 2.04492 -3.11829 0
M  V30 31605 N 3177.91 1.56283 0.203321 0
M  V30 31606 C 3179.14 1.84243 0.941394 0
M  V30 31607 C 3179.56 0.651689 1.77196 0
M  V30 31608 O 3178.91 -0.379681 1.78507 0
M  V30 31609 C 3178.97 3.10919 1.84423 0
M  V30 31610 O 3178.69 4.254 1.04721 0
M  V30 31611 C 3180.19 3.51997 2.69467 0
M  V30 31612 H 3177.41 0.612032 0.27506 0
M  V30 31613 H 3179.95 2.03387 0.213053 0
M  V30 31614 H 3178.11 2.93696 2.5263 0
M  V30 31615 H 3178.52 4.97481 1.6617 0
M  V30 31616 H 3179.99 4.43622 3.28487 0
M  V30 31617 H 3180.47 2.74601 3.4277 0
M  V30 31618 H 3181.08 3.71723 2.06645 0
M  V30 31619 N 3179.39 -0.470729 1.50406 0
M  V30 31620 C 3180.81 -0.80451 1.3784 0
M  V30 31621 C 3181.01 -1.96753 0.434778 0
M  V30 31622 O 3180.07 -2.52203 -0.122462 0
M  V30 31623 C 3181.38 -1.11624 2.79214 0
M  V30 31624 C 3182.93 -1.22267 2.88132 0
M  V30 31625 C 3183.4 -1.56753 4.3034 0
M  V30 31626 N 3184.89 -1.63743 4.33292 0
M  V30 31627 C 3185.63 -1.91932 5.40324 0
M  V30 31628 N 3185.12 -2.18139 6.57562 0
M  V30 31629 N 3186.92 -1.93437 5.27767 0
M  V30 31630 H 3179.07 0.295726 2.10331 0
M  V30 31631 H 3181.33 0.0697899 0.945428 0
M  V30 31632 H 3181.04 -0.334717 3.50104 0
M  V30 31633 H 3180.91 -2.05234 3.16479 0
M  V30 31634 H 3183.3 -1.99486 2.17461 0
M  V30 31635 H 3183.38 -0.266355 2.54409 0
M  V30 31636 H 3183.02 -0.800729 5.01548 0
M  V30 31637 H 3182.95 -2.53535 4.61549 0
M  V30 31638 H 3185.44 -1.45529 3.48755 0
M  V30 31639 H 3185.76 -2.38923 7.34939 0
M  V30 31640 H 3184.1 -2.15531 6.60736 0
M  V30 31641 H 3187.29 -1.7246 4.35172 0
M  V30 31642 H 3187.47 -2.1507 6.11268 0
M  V30 31643 N 3180.87 -1.39989 -0.72393 0
M  V30 31644 C 3182.28 -1.3374 -1.30271 0
M  V30 31645 C 3182.63 -0.0069403 -1.96199 0
M  V30 31646 O 3181.76 0.895145 -1.97018 0
M  V30 31647 C 3182.35 -2.42221 -2.36884 0
M  V30 31648 C 3180.91 -2.39458 -2.90408 0
M  V30 31649 C 3180.06 -2.23532 -1.64099 0
M  V30 31650 H 3183.01 -1.49917 -0.520646 0
M  V30 31651 H 3183.03 -2.09648 -3.17534 0
M  V30 31652 H 3182.54 -3.39041 -1.88872 0
M  V30 31653 H 3180.64 -1.4631 -3.42672 0
M  V30 31654 H 3180.76 -3.34733 -3.42769 0
M  V30 31655 H 3179.12 -1.709 -1.88852 0
M  V30 31656 H 3179.9 -3.22338 -1.18123 0
M  V30 31657 N 3182.35 0.955282 -1.25348 0
M  V30 31658 C 3183.6 1.69419 -1.09453 0
M  V30 31659 C 3183.91 1.92175 0.364425 0
M  V30 31660 O 3185.12 2.63757 0.643797 0
M  V30 31661 C 3183.57 3.05005 -1.9105 0
M  V30 31662 C 3183.18 2.90047 -3.41433 0
M  V30 31663 C 3184.93 3.82683 -1.83723 0
M  V30 31664 C 3182.83 4.21019 -4.15328 0
M  V30 31665 H 3181.76 0.635365 -0.405989 0
M  V30 31666 H 3184.41 1.06351 -1.49538 0
M  V30 31667 H 3182.8 3.68973 -1.43788 0
M  V30 31668 H 3183.97 2.35015 -3.96364 0
M  V30 31669 H 3182.28 2.25824 -3.49846 0
M  V30 31670 H 3184.88 4.79689 -2.36225 0
M  V30 31671 H 3185.22 4.08443 -0.804991 0
M  V30 31672 H 3185.76 3.25464 -2.28732 0
M  V30 31673 H 3182.5 4.00448 -5.18962 0
M  V30 31674 H 3182.02 4.75819 -3.6518 0
M  V30 31675 H 3183.7 4.89565 -4.23008 0
M  V30 31676 N 3183.83 1.06924 1.1578 0
M  V30 31677 C 3185.24 0.793921 1.38452 0
M  V30 31678 C 3185.44 -0.603841 1.92239 0
M  V30 31679 O 3184.5 -1.36331 2.12532 0
M  V30 31680 C 3185.81 1.86412 2.35947 0
M  V30 31681 C 3187.36 1.88837 2.49619 0
M  V30 31682 C 3187.84 2.94929 3.50401 0
M  V30 31683 N 3189.33 2.94004 3.57933 0
M  V30 31684 C 3190.06 3.72739 4.35722 0
M  V30 31685 N 3189.56 4.6131 5.1688 0
M  V30 31686 N 3191.35 3.61103 4.30768 0
M  V30 31687 H 3183.5 1.97079 0.792067 0
M  V30 31688 H 3185.76 0.854387 0.410764 0
M  V30 31689 H 3185.47 2.86823 2.03532 0
M  V30 31690 H 3185.34 1.72055 3.35674 0
M  V30 31691 H 3187.73 0.890808 2.81334 0
M  V30 31692 H 3187.81 2.07273 1.49906 0
M  V30 31693 H 3187.46 3.94882 3.19422 0
M  V30 31694 H 3187.39 2.73742 4.49859 0
M  V30 31695 H 3189.88 2.29796 3.00003 0
M  V30 31696 H 3190.19 5.18029 5.73468 0
M  V30 31697 H 3188.54 4.65362 5.16201 0
M  V30 31698 H 3191.73 2.91289 3.66427 0
M  V30 31699 H 3191.9 4.22708 4.91144 0
M  V30 31700 N 3185.31 -1.32538 0.852723 0
M  V30 31701 C 3186.55 -1.96584 0.451394 0
M  V30 31702 C 3186.87 -1.68239 -0.997743 0
M  V30 31703 O 3188.07 -2.26008 -1.50441 0
M  V30 31704 C 3186.53 -3.51865 0.756252 0
M  V30 31705 C 3186.14 -3.89071 2.22099 0
M  V30 31706 C 3187.88 -4.22392 0.422553 0
M  V30 31707 C 3185.79 -5.37388 2.46917 0
M  V30 31708 H 3184.72 -0.73571 0.165065 0
M  V30 31709 H 3187.37 -1.5096 1.04324 0
M  V30 31710 H 3185.75 -3.95889 0.0938683 0
M  V30 31711 H 3186.93 -3.56062 2.925 0
M  V30 31712 H 3185.24 -3.31563 2.51902 0
M  V30 31713 H 3187.84 -5.31486 0.585424 0
M  V30 31714 H 3188.18 -4.11418 -0.635665 0
M  V30 31715 H 3188.71 -3.83944 1.04075 0
M  V30 31716 H 3185.45 -5.5338 3.51356 0
M  V30 31717 H 3184.97 -5.71809 1.81092 0
M  V30 31718 H 3186.65 -6.04446 2.30769 0
M  V30 31719 N 3186.78 -0.610474 -1.45296 0
M  V30 31720 C 3187.69 0.108434 -2.34349 0
M  V30 31721 C 3188.71 0.85737 -1.51411 0
M  V30 31722 O 3189.89 0.814304 -1.84204 0
M  V30 31723 C 3186.95 1.09138 -3.29074 0
M  V30 31724 C 3186.01 0.344089 -4.27919 0
M  V30 31725 C 3185.24 1.28021 -5.18118 0
M  V30 31726 O 3185.47 2.51815 -5.11806 0
M  V30 31727 O 3184.4 0.775716 -5.9688 0
M  V30 31728 H 3188.23 -0.623474 -2.97231 0
M  V30 31729 H 3185.81 -0.370725 -1.44727 0
M  V30 31730 H 3187.69 1.65744 -3.87436 0
M  V30 31731 H 3186.37 1.80427 -2.68752 0
M  V30 31732 H 3185.28 -0.264502 -3.73164 0
M  V30 31733 H 3186.61 -0.328362 -4.91103 0
M  V30 31734 N 3188.26 1.53669 -0.349801 0
M  V30 31735 C 3189.67 1.86227 0.132783 0
M  V30 31736 C 3190.02 1.27087 1.49477 0
M  V30 31737 O 3189.15 0.586826 2.08291 0
M  V30 31738 C 3189.74 3.37893 0.247716 0
M  V30 31739 C 3188.3 3.70307 0.674538 0
M  V30 31740 C 3187.45 2.76663 -0.187918 0
M  V30 31741 H 3190.4 1.48142 -0.569174 0
M  V30 31742 H 3190.42 3.65025 1.07412 0
M  V30 31743 H 3189.93 3.80908 -0.743702 0
M  V30 31744 H 3188.03 3.3284 1.67476 0
M  V30 31745 H 3188.15 4.76886 0.460093 0
M  V30 31746 H 3186.51 2.52411 0.340734 0
M  V30 31747 H 3187.29 3.22508 -1.17658 0
M  V30 31748 N 3189.74 0.0785709 1.57404 0
M  V30 31749 C 3190.96 -0.601257 1.98493 0
M  V30 31750 C 3191.39 -1.61944 0.956861 0
M  V30 31751 O 3190.75 -1.81138 -0.0767184 0
M  V30 31752 C 3190.8 -1.2403 3.38599 0
M  V30 31753 O 3189.9 -2.35616 3.38465 0
M  V30 31754 H 3189.24 -0.154042 0.645885 0
M  V30 31755 H 3191.77 0.155092 2.04011 0
M  V30 31756 H 3191.78 -1.58554 3.75932 0
M  V30 31757 H 3190.46 -0.494269 4.12953 0
M  V30 31758 H 3189.03 -2.02835 3.1291 0
M  V30 31759 N 3191.22 -1.56389 -0.19503 0
M  V30 31760 C 3192.44 -1.85092 -0.935713 0
M  V30 31761 C 3192.87 -0.662149 -1.7606 0
M  V30 31762 O 3192.23 0.389052 -1.77076 0
M  V30 31763 C 3192.27 -3.12023 -1.80759 0
M  V30 31764 O 3191.38 -2.9258 -2.90638 0
M  V30 31765 H 3190.72 -0.609478 -0.2635 0
M  V30 31766 H 3193.25 -2.03617 -0.200326 0
M  V30 31767 H 3193.26 -3.42818 -2.21223 0
M  V30 31768 H 3191.93 -3.98167 -1.2015 0
M  V30 31769 H 3190.51 -2.73083 -2.53929 0
M  V30 31770 N 3192.7 0.462746 -1.50653 0
M  V30 31771 C 3193.92 1.24193 -1.66105 0
M  V30 31772 C 3194.35 1.84863 -0.347453 0
M  V30 31773 O 3193.7 1.67671 0.689643 0
M  V30 31774 C 3193.75 2.32032 -2.76031 0
M  V30 31775 O 3192.86 3.36889 -2.37865 0
M  V30 31776 H 3192.2 0.365005 -0.554678 0
M  V30 31777 H 3194.73 0.549699 -1.97077 0
M  V30 31778 H 3194.74 2.77215 -2.99359 0
M  V30 31779 H 3193.41 1.87247 -3.71364 0
M  V30 31780 H 3191.99 2.97359 -2.25016 0
M  V30 31781 N 3194.17 1.40371 0.716495 0
M  V30 31782 C 3195.12 1.37044 1.82217 0
M  V30 31783 C 3196.11 0.248144 1.58975 0
M  V30 31784 O 3197.3 0.487177 1.70163 0
M  V30 31785 C 3194.43 1.23451 3.20335 0
M  V30 31786 C 3193.52 2.40458 3.49343 0
M  V30 31787 N 3193.91 3.6594 3.49173 0
M  V30 31788 C 3192.2 2.33818 3.79796 0
M  V30 31789 C 3192.91 4.43423 3.76498 0
M  V30 31790 N 3191.88 3.73251 3.95202 0
M  V30 31791 H 3195.68 2.32006 1.80417 0
M  V30 31792 H 3193.2 1.3413 0.915579 0
M  V30 31793 H 3195.19 1.1915 3.99511 0
M  V30 31794 H 3193.85 0.294554 3.23361 0
M  V30 31795 H 3194.87 3.99113 3.30044 0
M  V30 31796 H 3191.54 1.48184 3.90318 0
M  V30 31797 H 3192.93 5.52274 3.82679 0
M  V30 31798 N 3195.65 -0.948621 1.25853 0
M  V30 31799 C 3196.9 -1.69646 1.11122 0
M  V30 31800 C 3197.23 -1.91094 -0.345962 0
M  V30 31801 O 3196.51 -1.48624 -1.25464 0
M  V30 31802 C 3196.79 -3.07577 1.87266 0
M  V30 31803 C 3196.64 -2.93501 3.40847 0
M  V30 31804 C 3197.96 -4.0757 1.66057 0
M  V30 31805 H 3195.08 -0.615706 0.405062 0
M  V30 31806 H 3197.72 -1.10226 1.54758 0
M  V30 31807 H 3195.87 -3.583 1.50178 0
M  V30 31808 H 3197.54 -2.50057 3.87646 0
M  V30 31809 H 3195.79 -2.29288 3.68252 0
M  V30 31810 H 3196.46 -3.91298 3.89345 0
M  V30 31811 H 3198.93 -3.65779 1.98355 0
M  V30 31812 H 3197.81 -5.02109 2.21761 0
M  V30 31813 H 3198.07 -4.37964 0.603333 0
M  V30 31814 N 3197.13 -1.07536 -1.15212 0
M  V30 31815 C 3198.09 -0.701275 -2.18208 0
M  V30 31816 C 3199.09 0.259432 -1.58693 0
M  V30 31817 O 3200.28 0.0401438 -1.74154 0
M  V30 31818 C 3197.42 -0.0339302 -3.40883 0
M  V30 31819 H 3198.61 -1.61319 -2.52817 0
M  V30 31820 H 3196.16 -0.872127 -1.29706 0
M  V30 31821 H 3196.9 0.890132 -3.11845 0
M  V30 31822 H 3196.68 -0.724928 -3.8534 0
M  V30 31823 H 3198.17 0.213079 -4.17056 0
M  V30 31824 N 3198.61 1.32084 -0.85974 0
M  V30 31825 C 3199.52 2.32528 -0.311121 0
M  V30 31826 C 3200.53 1.64271 0.573686 0
M  V30 31827 O 3201.71 1.95771 0.472843 0
M  V30 31828 C 3198.78 3.4326 0.487196 0
M  V30 31829 C 3197.84 4.27198 -0.424354 0
M  V30 31830 C 3197.07 5.32642 0.335957 0
M  V30 31831 O 3197.29 5.48502 1.56531 0
M  V30 31832 O 3196.23 6.01147 -0.300882 0
M  V30 31833 H 3200.05 2.81353 -1.14341 0
M  V30 31834 H 3197.64 1.35799 -0.622818 0
M  V30 31835 H 3199.52 4.10779 0.940131 0
M  V30 31836 H 3198.19 2.96615 1.2962 0
M  V30 31837 H 3197.1 3.62469 -0.925573 0
M  V30 31838 H 3198.43 4.77381 -1.19868 0
M  V30 31839 N 3200.09 0.618171 1.4497 0
M  V30 31840 C 3201.33 0.117285 2.01759 0
M  V30 31841 C 3201.66 -1.2606 1.48775 0
M  V30 31842 O 3200.93 -1.83489 0.686184 0
M  V30 31843 H 3199.51 0.0403676 0.745908 0
M  V30 31844 H 3202.17 0.801954 1.77636 0
M  V30 31845 H 3201.26 0.0751026 3.1201 0
M  V30 31846 N 3201.56 -1.53481 0.357946 0
M  V30 31847 C 3202.5 -2.23066 -0.526714 0
M  V30 31848 C 3203.51 -1.24214 -1.05237 0
M  V30 31849 O 3204.7 -1.50483 -0.960052 0
M  V30 31850 C 3201.8 -2.90873 -1.73914 0
M  V30 31851 C 3200.97 -4.16165 -1.34631 0
M  V30 31852 C 3200.03 -4.67251 -2.41997 0
M  V30 31853 O 3199.06 -5.31116 -2.04705 0
M  V30 31854 N 3200.26 -4.4441 -3.7347 0
M  V30 31855 H 3203.02 -2.9962 0.0692913 0
M  V30 31856 H 3200.58 -1.60865 0.182755 0
M  V30 31857 H 3202.58 -3.2196 -2.45202 0
M  V30 31858 H 3201.15 -2.17818 -2.24219 0
M  V30 31859 H 3200.37 -3.91464 -0.463599 0
M  V30 31860 H 3201.65 -4.97635 -1.06004 0
M  V30 31861 H 3201.05 -3.93364 -4.06548 0
M  V30 31862 H 3199.61 -4.80067 -4.40884 0
M  V30 31863 N 3203.04 -0.0869173 -1.5736 0
M  V30 31864 C 3204.27 0.587314 -1.98389 0
M  V30 31865 C 3204.69 1.62228 -0.965786 0
M  V30 31866 O 3204.04 1.82443 0.045666 0
M  V30 31867 C 3204.09 1.24236 -3.39481 0
M  V30 31868 O 3203.81 0.248801 -4.37393 0
M  V30 31869 C 3205.32 2.00299 -3.95469 0
M  V30 31870 H 3202.54 0.158078 -0.652114 0
M  V30 31871 H 3205.08 -0.16379 -2.03843 0
M  V30 31872 H 3203.23 1.94445 -3.35067 0
M  V30 31873 H 3203.65 0.720587 -5.19527 0
M  V30 31874 H 3205.12 2.41502 -4.96367 0
M  V30 31875 H 3205.6 2.86559 -3.32837 0
M  V30 31876 H 3206.21 1.34924 -4.03331 0
M  V30 31877 N 3204.52 1.5649 0.186734 0
M  V30 31878 C 3205.45 1.98234 1.23391 0
M  V30 31879 C 3206.43 0.855551 1.47018 0
M  V30 31880 O 3207.62 1.1205 1.58614 0
M  V30 31881 C 3204.75 2.32903 2.57631 0
M  V30 31882 C 3203.7 3.48398 2.48601 0
M  V30 31883 C 3203.03 3.68766 3.8719 0
M  V30 31884 C 3204.33 4.82329 2.0039 0
M  V30 31885 H 3206.02 2.8596 0.886976 0
M  V30 31886 H 3203.57 1.37578 0.425226 0
M  V30 31887 H 3205.52 2.60702 3.31078 0
M  V30 31888 H 3204.24 1.42069 2.94082 0
M  V30 31889 H 3202.9 3.20703 1.77609 0
M  V30 31890 H 3202.55 2.75248 4.21008 0
M  V30 31891 H 3202.25 4.46468 3.82021 0
M  V30 31892 H 3203.77 3.98949 4.62246 0
M  V30 31893 H 3205.19 5.09105 2.63601 0
M  V30 31894 H 3203.59 5.6356 2.06204 0
M  V30 31895 H 3204.66 4.75353 0.957478 0
M  V30 31896 N 3206 -0.45475 1.50897 0
M  V30 31897 C 3207.28 -1.21573 1.53229 0
M  V30 31898 C 3207.66 -2.09148 0.286395 0
M  V30 31899 O 3207 -2.16545 -0.729431 0
M  V30 31900 C 3207.21 -2.03266 2.83697 0
M  V30 31901 C 3208.56 -2.60902 3.34985 0
M  V30 31902 O 3209.59 -2.13494 2.85129 0
M  V30 31903 O 3208.44 -3.47323 4.21935 0
M  V30 31904 H 3205.54 -0.552553 0.615316 0
M  V30 31905 H 3208.08 -0.465237 1.63198 0
M  V30 31906 H 3206.86 -1.38836 3.65842 0
M  V30 31907 H 3206.48 -2.85417 2.76808 0
M  V30 31908 N 3207.48 -1.40749 -0.709041 0
M  V30 31909 C 3208.41 -1.44293 -1.8358 0
M  V30 31910 C 3209.39 -0.303096 -1.67378 0
M  V30 31911 O 3210.57 -0.512645 -1.87311 0
M  V30 31912 C 3207.7 -1.31121 -3.21597 0
M  V30 31913 C 3206.66 -2.42776 -3.52482 0
M  V30 31914 C 3205.98 -2.14677 -4.89712 0
M  V30 31915 C 3207.28 -3.8512 -3.52817 0
M  V30 31916 H 3208.98 -2.38591 -1.80871 0
M  V30 31917 H 3206.52 -1.1484 -0.868775 0
M  V30 31918 H 3208.48 -1.32216 -4.00121 0
M  V30 31919 H 3207.2 -0.333022 -3.24898 0
M  V30 31920 H 3205.86 -2.40942 -2.76301 0
M  V30 31921 H 3205.51 -1.15233 -4.89623 0
M  V30 31922 H 3205.21 -2.89487 -5.11342 0
M  V30 31923 H 3206.73 -2.17465 -5.70562 0
M  V30 31924 H 3208.14 -3.88742 -4.2137 0
M  V30 31925 H 3206.54 -4.59502 -3.85976 0
M  V30 31926 H 3207.61 -4.14235 -2.52066 0
M  V30 31927 N 3208.96 0.941933 -1.26354 0
M  V30 31928 C 3209.9 2.06186 -1.07657 0
M  V30 31929 C 3210.9 1.694 -0.00372719 0
M  V30 31930 O 3212.1 1.79284 -0.160348 0
M  V30 31931 H 3208.48 0.675095 -0.331286 0
M  V30 31932 H 3210.45 2.19107 -2.0257 0
M  V30 31933 C 3209.2 3.40047 -0.725496 0
M  V30 31934 H 3208.52 3.68829 -1.54289 0
M  V30 31935 H 3209.96 4.19226 -0.634457 0
M  V30 31936 C 3208.42 3.32055 0.56931 0
M  V30 31937 O 3208.95 3.68119 1.60784 0
M  V30 31938 N 3207.16 2.8516 0.559663 0
M  V30 31939 H 3206.7 2.56009 -0.285862 0
M  V30 31940 H 3206.66 2.80195 1.42612 0
M  V30 31941 N 3210.43 1.08146 1.1464 0
M  V30 31942 C 3211.67 0.818986 1.87275 0
M  V30 31943 C 3212.04 -0.64345 1.80897 0
M  V30 31944 O 3213.24 -1.02131 2.48642 0
M  V30 31945 C 3211.51 1.3232 3.32003 0
M  V30 31946 S 3213.07 1.19263 4.22282 0
M  V30 31947 H 3209.89 0.296561 0.646199 0
M  V30 31948 H 3212.49 1.3822 1.38259 0
M  V30 31949 H 3211.19 2.38208 3.34193 0
M  V30 31950 H 3210.72 0.755548 3.86076 0
M  V30 31951 H 3212.74 0.13523 4.96016 0
M  V30 31952 N 3211.91 -1.31626 0.866732 0
M  V30 31953 C 3213.16 -1.97116 0.476766 0
M  V30 31954 C 3213.49 -1.68367 -0.967783 0
M  V30 31955 O 3212.77 -0.978407 -1.681 0
M  V30 31956 C 3213.05 -3.5261 0.730623 0
M  V30 31957 C 3212.9 -3.90944 2.22447 0
M  V30 31958 C 3214.22 -4.39668 0.194957 0
M  V30 31959 H 3211.34 -0.715996 0.174695 0
M  V30 31960 H 3213.98 -1.55808 1.08738 0
M  V30 31961 H 3212.13 -3.87927 0.210902 0
M  V30 31962 H 3213.8 -3.65745 2.8112 0
M  V30 31963 H 3212.05 -3.39668 2.6983 0
M  V30 31964 H 3212.72 -4.99349 2.35275 0
M  V30 31965 H 3215.19 -4.11156 0.639551 0
M  V30 31966 H 3214.07 -5.47426 0.402054 0
M  V30 31967 H 3214.33 -4.32781 -0.902944 0
M  V30 31968 N 3213.39 -0.62585 -1.4464 0
M  V30 31969 C 3214.64 -0.128427 -2.02393 0
M  V30 31970 C 3214.97 1.24457 -1.49078 0
M  V30 31971 O 3214.24 1.82496 -0.672717 0
M  V30 31972 C 3214.53 -0.109343 -3.59934 0
M  V30 31973 C 3214.38 -1.5143 -4.23543 0
M  V30 31974 C 3215.7 0.568909 -4.36407 0
M  V30 31975 H 3212.82 -0.0481428 -0.735426 0
M  V30 31976 H 3215.46 -0.801316 -1.72276 0
M  V30 31977 H 3213.61 0.463658 -3.85723 0
M  V30 31978 H 3215.28 -2.13579 -4.08879 0
M  V30 31979 H 3213.52 -2.06973 -3.81241 0
M  V30 31980 H 3214.2 -1.45303 -5.32533 0
M  V30 31981 H 3216.67 0.0816785 -4.1602 0
M  V30 31982 H 3215.55 0.551431 -5.46123 0
M  V30 31983 H 3215.81 1.63832 -4.10623 0
M  V30 31984 N 3214.87 1.53289 -0.36608 0
M  V30 31985 C 3216.28 1.86358 0.113023 0
M  V30 31986 C 3216.63 1.28665 1.48121 0
M  V30 31987 O 3215.75 0.608885 2.07657 0
M  V30 31988 C 3216.35 3.38137 0.211864 0
M  V30 31989 C 3214.91 3.71001 0.635224 0
M  V30 31990 C 3214.06 2.76448 -0.217251 0
M  V30 31991 H 3217.01 1.4753 -0.584855 0
M  V30 31992 H 3217.03 3.66143 1.03534 0
M  V30 31993 H 3216.54 3.80097 -0.784061 0
M  V30 31994 H 3214.64 3.34598 1.63936 0
M  V30 31995 H 3214.75 4.77347 0.409487 0
M  V30 31996 H 3213.12 2.52758 0.313944 0
M  V30 31997 H 3213.9 3.21242 -1.21072 0
M  V30 31998 N 3216.35 0.0952613 1.57312 0
M  V30 31999 C 3217.59 -0.567285 1.93975 0
M  V30 32000 C 3217.91 -1.68711 0.977835 0
M  V30 32001 O 3217.18 -1.95877 0.0299288 0
M  V30 32002 H 3215.76 -0.212545 0.716124 0
M  V30 32003 H 3218.43 0.158632 1.94253 0
M  V30 32004 H 3217.52 -0.977371 2.96402 0
M  V30 32005 N 3217.82 -1.56587 -0.178432 0
M  V30 32006 C 3218.76 -1.9241 -1.24543 0
M  V30 32007 C 3219.77 -0.816446 -1.40847 0
M  V30 32008 O 3220.96 -1.09489 -1.40977 0
M  V30 32009 C 3218.06 -2.15548 -2.61519 0
M  V30 32010 C 3217.23 -3.46756 -2.66606 0
M  V30 32011 C 3216.29 -3.58807 -3.84895 0
M  V30 32012 O 3215.32 -4.31488 -3.71223 0
M  V30 32013 N 3216.52 -2.93129 -5.01055 0
M  V30 32014 H 3219.28 -2.84537 -0.941225 0
M  V30 32015 H 3216.84 -1.57656 -0.368247 0
M  V30 32016 H 3218.84 -2.20882 -3.39106 0
M  V30 32017 H 3217.41 -1.2984 -2.84359 0
M  V30 32018 H 3216.63 -3.53143 -1.75167 0
M  V30 32019 H 3217.91 -4.33108 -2.6701 0
M  V30 32020 H 3217.31 -2.33937 -5.15063 0
M  V30 32021 H 3215.87 -3.04067 -5.76529 0
M  V30 32022 N 3219.3 0.446741 -1.51136 0
M  V30 32023 C 3220.26 1.52403 -1.7119 0
M  V30 32024 C 3221.26 1.49895 -0.582064 0
M  V30 32025 O 3222.45 1.52084 -0.849478 0
M  V30 32026 C 3219.59 2.91973 -1.75968 0
M  V30 32027 H 3220.78 1.35929 -2.67326 0
M  V30 32028 H 3218.33 0.674788 -1.40983 0
M  V30 32029 H 3219.07 3.13863 -0.81612 0
M  V30 32030 H 3218.85 2.95199 -2.5807 0
M  V30 32031 H 3220.34 3.70141 -1.93354 0
M  V30 32032 N 3220.78 1.41123 0.701567 0
M  V30 32033 C 3221.73 1.38969 1.80753 0
M  V30 32034 C 3222.71 0.264992 1.58703 0
M  V30 32035 O 3223.91 0.505198 1.69637 0
M  V30 32036 C 3221.03 1.26842 3.19008 0
M  V30 32037 C 3220.12 2.4415 3.46773 0
M  V30 32038 N 3220.51 3.69623 3.45272 0
M  V30 32039 C 3218.81 2.37833 3.77295 0
M  V30 32040 C 3219.51 4.47391 3.71774 0
M  V30 32041 N 3218.49 3.77422 3.91221 0
M  V30 32042 H 3222.29 2.33907 1.77946 0
M  V30 32043 H 3219.8 1.35094 0.901301 0
M  V30 32044 H 3221.8 1.2338 3.98225 0
M  V30 32045 H 3220.46 0.328834 3.23031 0
M  V30 32046 H 3221.47 4.02591 3.25792 0
M  V30 32047 H 3218.15 1.52315 3.88724 0
M  V30 32048 H 3219.54 5.56301 3.768 0
M  V30 32049 N 3222.26 -0.935219 1.26852 0
M  V30 32050 C 3223.22 -2.01634 1.08979 0
M  V30 32051 C 3224.22 -1.60759 0.0361826 0
M  V30 32052 O 3225.41 -1.71933 0.280118 0
M  V30 32053 C 3222.54 -3.34472 0.65889 0
M  V30 32054 H 3223.74 -2.18921 2.04972 0
M  V30 32055 H 3221.29 -1.11499 1.09533 0
M  V30 32056 H 3222.02 -3.22884 -0.302768 0
M  V30 32057 H 3221.81 -3.65494 1.41973 0
M  V30 32058 H 3223.3 -4.13884 0.555856 0
M  V30 32059 N 3223.74 -1.08752 -1.14065 0
M  V30 32060 C 3224.67 -0.678558 -2.18925 0
M  V30 32061 C 3225.68 0.276135 -1.60441 0
M  V30 32062 O 3226.87 0.0632475 -1.78388 0
M  V30 32063 C 3223.97 0.0218256 -3.38893 0
M  V30 32064 C 3223.14 -0.952657 -4.269 0
M  V30 32065 C 3222.2 -0.286951 -5.25417 0
M  V30 32066 O 3221.23 -0.932453 -5.6151 0
M  V30 32067 N 3222.43 0.96173 -5.72478 0
M  V30 32068 H 3225.2 -1.58067 -2.54627 0
M  V30 32069 H 3222.76 -0.974064 -1.2932 0
M  V30 32070 H 3224.75 0.478208 -4.01865 0
M  V30 32071 H 3223.32 0.826088 -3.01487 0
M  V30 32072 H 3222.54 -1.58779 -3.60809 0
M  V30 32073 H 3223.83 -1.61287 -4.8256 0
M  V30 32074 H 3223.22 1.50585 -5.4529 0
M  V30 32075 H 3221.78 1.36155 -6.37421 0
M  V30 32076 N 3225.21 1.31165 -0.873701 0
M  V30 32077 C 3226.46 1.96861 -0.487213 0
M  V30 32078 C 3226.79 1.68878 0.958841 0
M  V30 32079 O 3226.07 0.987308 1.67578 0
M  V30 32080 C 3226.35 3.52218 -0.749312 0
M  V30 32081 C 3226.2 3.89759 -2.24517 0
M  V30 32082 C 3227.52 4.39558 -0.218271 0
M  V30 32083 H 3224.64 0.71506 -0.17849 0
M  V30 32084 H 3227.28 1.55229 -1.09563 0
M  V30 32085 H 3225.43 3.8781 -0.231472 0
M  V30 32086 H 3227.11 3.64249 -2.83055 0
M  V30 32087 H 3225.35 3.38232 -2.71627 0
M  V30 32088 H 3226.02 4.98095 -2.3792 0
M  V30 32089 H 3228.5 4.10811 -0.661346 0
M  V30 32090 H 3227.37 5.47205 -0.43108 0
M  V30 32091 H 3227.63 4.33254 0.87998 0
M  V30 32092 N 3226.69 0.633512 1.44307 0
M  V30 32093 C 3227.92 0.1461 2.06384 0
M  V30 32094 C 3228.34 -1.18029 1.47359 0
M  V30 32095 O 3227.69 -1.72447 0.597364 0
M  V30 32096 C 3227.74 0.0277357 3.61489 0
M  V30 32097 O 3227.46 1.30167 4.18316 0
M  V30 32098 C 3228.97 -0.48809 4.40605 0
M  V30 32099 H 3226.19 0.0807749 0.66612 0
M  V30 32100 H 3228.73 0.868589 1.85137 0
M  V30 32101 H 3226.88 -0.645206 3.81989 0
M  V30 32102 H 3227.3 1.14806 5.11781 0
M  V30 32103 H 3228.77 -0.519916 5.49546 0
M  V30 32104 H 3229.25 -1.51561 4.12221 0
M  V30 32105 H 3229.86 0.151683 4.25029 0
M  V30 32106 N 3228.17 -1.53093 0.374204 0
M  V30 32107 C 3229.42 -2.02358 -0.205634 0
M  V30 32108 C 3229.77 -1.25635 -1.45717 0
M  V30 32109 O 3229.06 -0.344011 -1.88486 0
M  V30 32110 C 3229.26 -3.53265 -0.542117 0
M  V30 32111 C 3229.09 -4.44601 0.675264 0
M  V30 32112 C 3227.86 -4.91089 1.18996 0
M  V30 32113 C 3230.06 -4.90605 1.54308 0
M  V30 32114 N 3228.04 -5.66455 2.36647 0
M  V30 32115 C 3229.41 -5.64401 2.56615 0
M  V30 32116 C 3231.46 -4.72667 1.56495 0
M  V30 32117 C 3230.17 -6.22165 3.60976 0
M  V30 32118 C 3232.19 -5.31302 2.59754 0
M  V30 32119 C 3231.55 -6.04991 3.60784 0
M  V30 32120 H 3227.65 -0.781089 -0.0377334 0
M  V30 32121 H 3230.24 -1.87608 0.520694 0
M  V30 32122 H 3228.41 -3.68158 -1.23751 0
M  V30 32123 H 3230.14 -3.89243 -1.10779 0
M  V30 32124 H 3226.9 -4.67571 0.753263 0
M  V30 32125 H 3227.32 -6.08797 2.96134 0
M  V30 32126 H 3231.96 -4.15213 0.797369 0
M  V30 32127 H 3229.68 -6.78709 4.3861 0
M  V30 32128 H 3233.27 -5.19312 2.6231 0
M  V30 32129 H 3232.15 -6.49553 4.39375 0
M  V30 32130 N 3229.65 -0.103603 -1.57259 0
M  V30 32131 C 3230.6 0.863064 -2.11034 0
M  V30 32132 C 3231.58 1.23829 -1.02739 0
M  V30 32133 O 3232.77 1.21195 -1.28999 0
M  V30 32134 C 3229.9 2.11894 -2.70103 0
M  V30 32135 C 3228.99 1.76878 -3.85454 0
M  V30 32136 N 3229.38 1.1246 -4.93139 0
M  V30 32137 C 3227.68 2.06434 -3.95349 0
M  V30 32138 C 3228.38 0.962426 -5.73683 0
M  V30 32139 N 3227.36 1.48248 -5.22995 0
M  V30 32140 H 3231.16 0.361213 -2.91672 0
M  V30 32141 H 3228.67 0.0993509 -1.62096 0
M  V30 32142 H 3230.67 2.82099 -3.06962 0
M  V30 32143 H 3229.33 2.62638 -1.90923 0
M  V30 32144 H 3230.34 0.790399 -5.11833 0
M  V30 32145 H 3227.02 2.59332 -3.2719 0
M  V30 32146 H 3228.41 0.45798 -6.70337 0
M  V30 32147 N 3231.13 1.56679 0.170126 0
M  V30 32148 C 3232.07 1.96502 1.21061 0
M  V30 32149 C 3233.04 0.829117 1.43927 0
M  V30 32150 O 3234.23 1.08933 1.56647 0
M  V30 32151 C 3231.37 2.33114 2.54464 0
M  V30 32152 C 3230.48 3.59887 2.38967 0
M  V30 32153 C 3229.62 3.85706 3.65245 0
M  V30 32154 C 3228.66 5.05824 3.44687 0
M  V30 32155 N 3227.79 5.27769 4.63038 0
M  V30 32156 H 3232.63 2.852 0.864005 0
M  V30 32157 H 3230.17 1.41118 0.415218 0
M  V30 32158 H 3232.13 2.52363 3.32218 0
M  V30 32159 H 3230.76 1.47525 2.87117 0
M  V30 32160 H 3229.81 3.48545 1.52384 0
M  V30 32161 H 3231.12 4.47798 2.19723 0
M  V30 32162 H 3230.28 4.0533 4.51434 0
M  V30 32163 H 3229.01 2.96173 3.8747 0
M  V30 32164 H 3228.02 4.86097 2.56885 0
M  V30 32165 H 3229.24 5.96889 3.23883 0
M  V30 32166 H 3227.19 4.41187 4.85479 0
M  V30 32167 H 3227.11 6.09906 4.46711 0
M  V30 32168 H 3228.38 5.51873 5.50506 0
M  V30 32169 N 3232.6 -0.43872 1.5137 0
M  V30 32170 C 3234.02 -0.775091 1.39515 0
M  V30 32171 C 3234.22 -1.95787 0.476414 0
M  V30 32172 O 3233.28 -2.52406 -0.0689388 0
M  V30 32173 C 3234.59 -1.05676 2.81519 0
M  V30 32174 C 3236.14 -1.16128 2.9066 0
M  V30 32175 C 3236.61 -1.47589 4.33568 0
M  V30 32176 N 3238.1 -1.54516 4.36668 0
M  V30 32177 C 3238.84 -1.80428 5.44273 0
M  V30 32178 N 3238.33 -2.04142 6.62041 0
M  V30 32179 N 3240.13 -1.82199 5.31752 0
M  V30 32180 H 3232.28 0.340274 2.09657 0
M  V30 32181 H 3234.54 0.0898281 0.943735 0
M  V30 32182 H 3234.25 -0.260379 3.50735 0
M  V30 32183 H 3234.12 -1.98475 3.20761 0
M  V30 32184 H 3236.51 -1.94829 2.21643 0
M  V30 32185 H 3236.59 -0.212331 2.54917 0
M  V30 32186 H 3236.23 -0.694163 5.03134 0
M  V30 32187 H 3236.16 -2.43688 4.66823 0
M  V30 32188 H 3238.65 -1.38099 3.51763 0
M  V30 32189 H 3238.97 -2.2328 7.39842 0
M  V30 32190 H 3237.31 -2.01467 6.65159 0
M  V30 32191 H 3240.5 -1.63191 4.38733 0
M  V30 32192 H 3240.68 -2.02056 6.15693 0
M  V30 32193 N 3234.08 -1.41493 -0.694073 0
M  V30 32194 C 3235.33 -1.40653 -1.45125 0
M  V30 32195 C 3235.65 -0.0170631 -1.94993 0
M  V30 32196 O 3234.92 0.941342 -1.71801 0
M  V30 32197 H 3233.5 -0.517729 -0.538484 0
M  V30 32198 H 3236.16 -1.76745 -0.82141 0
M  V30 32199 H 3235.26 -2.09464 -2.31368 0
M  V30 32200 N 3235.56 0.928479 -1.27346 0
M  V30 32201 C 3236.81 1.67277 -1.13414 0
M  V30 32202 C 3237.13 1.92345 0.320664 0
M  V30 32203 O 3236.4 1.52917 1.22447 0
M  V30 32204 H 3234.98 0.619961 -0.416722 0
M  V30 32205 H 3237.64 1.1149 -1.59862 0
M  V30 32206 H 3236.74 2.64128 -1.66261 0
M  V30 32207 N 3237.04 1.09355 1.13486 0
M  V30 32208 C 3238.26 0.851114 1.89132 0
M  V30 32209 C 3238.69 -0.591944 1.78543 0
M  V30 32210 O 3238.05 -1.41581 1.13246 0
M  V30 32211 C 3238.09 1.29007 3.36734 0
M  V30 32212 O 3237.2 0.448065 4.09959 0
M  V30 32213 H 3236.54 0.308306 0.588084 0
M  V30 32214 H 3239.07 1.4575 1.4359 0
M  V30 32215 H 3239.08 1.27515 3.87561 0
M  V30 32216 H 3237.75 2.34101 3.43758 0
M  V30 32217 H 3236.33 0.527235 3.69154 0
M  V30 32218 N 3238.52 -1.307 0.880644 0
M  V30 32219 C 3239.45 -2.30704 0.360292 0
M  V30 32220 C 3240.43 -1.60807 -0.554544 0
M  V30 32221 O 3241.61 -1.88444 -0.469312 0
M  V30 32222 C 3238.74 -3.4463 -0.429827 0
M  V30 32223 C 3237.7 -4.26193 0.392861 0
M  V30 32224 C 3237.02 -5.3213 -0.523596 0
M  V30 32225 C 3238.32 -4.96126 1.63266 0
M  V30 32226 H 3240.02 -2.74476 1.19596 0
M  V30 32227 H 3237.56 -1.31955 0.576531 0
M  V30 32228 H 3239.52 -4.1365 -0.804459 0
M  V30 32229 H 3238.24 -2.99651 -1.2991 0
M  V30 32230 H 3236.9 -3.58855 0.749577 0
M  V30 32231 H 3236.55 -4.834 -1.39046 0
M  V30 32232 H 3236.25 -5.87595 0.0230304 0
M  V30 32233 H 3237.77 -6.04007 -0.89484 0
M  V30 32234 H 3239.19 -5.57686 1.32886 0
M  V30 32235 H 3237.58 -5.61437 2.11916 0
M  V30 32236 H 3238.65 -4.22501 2.37952 0
M  V30 32237 N 3240 -0.641156 -1.43969 0
M  V30 32238 C 3241.41 -0.23087 -1.85267 0
M  V30 32239 C 3241.76 1.21995 -1.53661 0
M  V30 32240 O 3240.88 1.92958 -0.979606 0
M  V30 32241 C 3241.48 -0.41223 -3.36283 0
M  V30 32242 C 3240.04 -0.0563666 -3.76358 0
M  V30 32243 C 3239.18 -0.720856 -2.67767 0
M  V30 32244 H 3242.13 -0.845647 -1.34293 0
M  V30 32245 H 3242.16 0.345869 -3.78925 0
M  V30 32246 H 3241.67 -1.46824 -3.59255 0
M  V30 32247 H 3239.77 0.997519 -3.58999 0
M  V30 32248 H 3239.88 -0.473419 -4.76755 0
M  V30 32249 H 3238.25 -0.155209 -2.54227 0
M  V30 32250 H 3239.03 -1.77966 -2.9357 0
M  V30 32251 N 3241.47 1.52892 -0.382318 0
M  V30 32252 C 3242.44 2.24858 0.444041 0
M  V30 32253 C 3243.44 1.26241 0.995982 0
M  V30 32254 O 3244.63 1.50392 0.879087 0
M  V30 32255 C 3241.76 2.99824 1.62229 0
M  V30 32256 H 3242.95 2.99323 -0.185915 0
M  V30 32257 H 3240.5 1.55722 -0.134302 0
M  V30 32258 H 3241.24 2.29642 2.28987 0
M  V30 32259 H 3241.02 3.72199 1.2333 0
M  V30 32260 H 3242.51 3.54485 2.2075 0
M  V30 32261 N 3242.95 0.111941 1.57202 0
M  V30 32262 C 3244.37 -0.244674 1.57713 0
M  V30 32263 C 3244.57 -1.67223 1.12422 0
M  V30 32264 O 3243.62 -2.3921 0.808371 0
M  V30 32265 C 3244.94 -0.0177761 3.00695 0
M  V30 32266 C 3246.48 -0.0842231 3.12887 0
M  V30 32267 C 3246.96 0.114893 4.57856 0
M  V30 32268 N 3248.45 0.0606237 4.6316 0
M  V30 32269 C 3249.19 0.189694 5.73086 0
M  V30 32270 N 3248.68 0.374542 6.91787 0
M  V30 32271 N 3250.47 0.129768 5.6195 0
M  V30 32272 H 3242.63 1.04446 1.84945 0
M  V30 32273 H 3244.89 0.410715 0.854411 0
M  V30 32274 H 3244.59 0.968861 3.38092 0
M  V30 32275 H 3244.47 -0.75275 3.69613 0
M  V30 32276 H 3246.86 -1.06138 2.75352 0
M  V30 32277 H 3246.94 0.682517 2.46527 0
M  V30 32278 H 3246.58 1.08899 4.96088 0
M  V30 32279 H 3246.51 -0.671747 5.22298 0
M  V30 32280 H 3249 -0.0790192 3.77817 0
M  V30 32281 H 3249.31 0.464084 7.71405 0
M  V30 32282 H 3247.66 0.410425 6.93787 0
M  V30 32283 H 3250.85 -0.0136292 4.68098 0
M  V30 32284 H 3251.02 0.233802 6.47578 0
M  V30 32285 N 3244.43 -1.56767 -0.161814 0
M  V30 32286 C 3245.38 -1.93554 -1.20502 0
M  V30 32287 C 3246.36 -0.804977 -1.39316 0
M  V30 32288 O 3247.56 -1.06828 -1.41127 0
M  V30 32289 C 3244.68 -2.30706 -2.54223 0
M  V30 32290 C 3243.77 -3.50299 -2.39064 0
M  V30 32291 N 3244.16 -4.67268 -1.93634 0
M  V30 32292 C 3242.46 -3.55092 -2.69862 0
M  V30 32293 C 3243.16 -5.49391 -1.91166 0
M  V30 32294 N 3242.14 -4.90693 -2.33926 0
M  V30 32295 H 3245.94 -2.81471 -0.845637 0
M  V30 32296 H 3243.45 -1.58129 -0.370007 0
M  V30 32297 H 3245.45 -2.5526 -3.29618 0
M  V30 32298 H 3244.11 -1.44133 -2.90957 0
M  V30 32299 H 3245.12 -4.91306 -1.63826 0
M  V30 32300 H 3241.8 -2.79021 -3.10569 0
M  V30 32301 H 3243.19 -6.53141 -1.57659 0
M  V30 32302 N 3245.91 0.430686 -1.51601 0
M  V30 32303 C 3246.84 1.54174 -1.69597 0
M  V30 32304 C 3247.85 1.52249 -0.576545 0
M  V30 32305 O 3249.04 1.56905 -0.851067 0
M  V30 32306 C 3246.14 2.93089 -1.70153 0
M  V30 32307 C 3245.31 3.19445 -2.98787 0
M  V30 32308 C 3244.37 4.38118 -2.91443 0
M  V30 32309 O 3243.4 4.36447 -3.6538 0
M  V30 32310 N 3244.6 5.42052 -2.0775 0
M  V30 32311 H 3247.37 1.39139 -2.65444 0
M  V30 32312 H 3244.93 0.619714 -1.4957 0
M  V30 32313 H 3246.92 3.70511 -1.628 0
M  V30 32314 H 3245.49 3.01688 -0.81872 0
M  V30 32315 H 3244.71 2.30261 -3.19958 0
M  V30 32316 H 3246 3.33885 -3.83925 0
M  V30 32317 H 3245.4 5.46248 -1.47068 0
M  V30 32318 H 3243.95 6.18301 -2.0627 0
M  V30 32319 N 3247.39 1.4186 0.686559 0
M  V30 32320 C 3248.61 1.45075 1.47516 0
M  V30 32321 C 3249.03 0.05862 1.88709 0
M  V30 32322 O 3248.39 -0.924088 1.57375 0
M  V30 32323 C 3248.44 2.36747 2.7319 0
M  V30 32324 O 3248.16 3.70543 2.3373 0
M  V30 32325 C 3249.66 2.4886 3.66856 0
M  V30 32326 H 3246.88 0.493816 0.454299 0
M  V30 32327 H 3249.42 1.86245 0.844579 0
M  V30 32328 H 3247.58 1.98862 3.32465 0
M  V30 32329 H 3247.99 4.19524 3.14801 0
M  V30 32330 H 3249.47 3.17151 4.51795 0
M  V30 32331 H 3249.94 1.52272 4.11959 0
M  V30 32332 H 3250.55 2.87419 3.13481 0
M  V30 32333 N 3248.86 -0.921712 1.27837 0
M  V30 32334 C 3249.81 -2.00945 1.07727 0
M  V30 32335 C 3250.8 -1.609 0.00339504 0
M  V30 32336 O 3251.99 -1.75594 0.222624 0
M  V30 32337 C 3249.12 -3.35388 0.732791 0
M  V30 32338 C 3248.2 -3.81859 1.84511 0
M  V30 32339 N 3248.6 -4.00781 3.08558 0
M  V30 32340 C 3246.89 -4.10948 1.73315 0
M  V30 32341 C 3247.59 -4.39577 3.80982 0
M  V30 32342 N 3246.57 -4.47387 3.08781 0
M  V30 32343 H 3250.37 -2.13614 2.01858 0
M  V30 32344 H 3247.89 -1.10898 1.18639 0
M  V30 32345 H 3249.88 -4.12987 0.569822 0
M  V30 32346 H 3248.54 -3.24078 -0.200828 0
M  V30 32347 H 3249.55 -3.86922 3.44255 0
M  V30 32348 H 3246.23 -4.08318 0.870769 0
M  V30 32349 H 3247.62 -4.62246 4.87625 0
M  V30 32350 N 3250.34 -1.09956 -1.12905 0
M  V30 32351 C 3251.59 -0.837287 -1.8394 0
M  V30 32352 C 3251.91 0.638951 -1.84235 0
M  V30 32353 O 3251.18 1.46376 -1.30196 0
M  V30 32354 H 3249.76 -0.306755 -0.68111 0
M  V30 32355 H 3252.42 -1.38882 -1.3674 0
M  V30 32356 H 3251.52 -1.1957 -2.88287 0
M  V30 32357 N 3251.82 1.30231 -0.887563 0
M  V30 32358 C 3253.04 2.00734 -0.521597 0
M  V30 32359 C 3253.47 1.66075 0.883217 0
M  V30 32360 O 3252.83 0.878759 1.5858 0
M  V30 32361 C 3252.88 3.5361 -0.706583 0
M  V30 32362 O 3251.98 4.11663 0.246375 0
M  V30 32363 H 3251.32 0.631489 -0.205227 0
M  V30 32364 H 3253.85 1.66016 -1.19582 0
M  V30 32365 H 3253.86 4.03466 -0.606572 0
M  V30 32366 H 3252.54 3.78174 -1.73083 0
M  V30 32367 H 3251.11 3.72766 0.0998407 0
M  V30 32368 N 3253.3 0.648782 1.43627 0
M  V30 32369 C 3254.23 -0.0320375 2.33478 0
M  V30 32370 C 3255.21 -0.816579 1.49218 0
M  V30 32371 O 3256.39 -0.778943 1.77894 0
M  V30 32372 C 3253.52 -1.00216 3.32527 0
M  V30 32373 C 3252.48 -0.328044 4.26741 0
M  V30 32374 C 3251.8 -1.40931 5.15793 0
M  V30 32375 C 3253.1 0.776792 5.16491 0
M  V30 32376 H 3254.8 0.718308 2.90656 0
M  V30 32377 H 3252.34 0.346876 1.3976 0
M  V30 32378 H 3254.3 -1.48733 3.9428 0
M  V30 32379 H 3253.02 -1.78362 2.73596 0
M  V30 32380 H 3251.68 0.136633 3.66345 0
M  V30 32381 H 3251.33 -2.18208 4.53204 0
M  V30 32382 H 3251.03 -0.963529 5.79646 0
M  V30 32383 H 3252.55 -1.89592 5.8042 0
M  V30 32384 H 3253.97 0.373979 5.72079 0
M  V30 32385 H 3252.36 1.14677 5.89041 0
M  V30 32386 H 3253.43 1.63663 4.56446 0
M  V30 32387 N 3254.78 -1.52688 0.390421 0
M  V30 32388 C 3255.71 -2.294 -0.435629 0
M  V30 32389 C 3256.69 -1.32834 -1.0625 0
M  V30 32390 O 3257.87 -1.61728 -1.07506 0
M  V30 32391 C 3255 -3.10165 -1.56254 0
M  V30 32392 C 3253.96 -4.14624 -1.06165 0
M  V30 32393 C 3253.28 -4.83619 -2.28071 0
M  V30 32394 C 3254.58 -5.22141 -0.12881 0
M  V30 32395 H 3256.28 -2.98701 0.204437 0
M  V30 32396 H 3253.82 -1.43654 0.0997629 0
M  V30 32397 H 3255.78 -3.62589 -2.14725 0
M  V30 32398 H 3254.5 -2.38599 -2.23021 0
M  V30 32399 H 3253.16 -3.63182 -0.499455 0
M  V30 32400 H 3252.81 -4.08601 -2.93351 0
M  V30 32401 H 3252.51 -5.54224 -1.95217 0
M  V30 32402 H 3254.03 -5.38849 -2.87183 0
M  V30 32403 H 3255.44 -5.69919 -0.621749 0
M  V30 32404 H 3253.84 -5.99999 0.110024 0
M  V30 32405 H 3254.91 -4.77883 0.821968 0
M  V30 32406 N 3256.25 -0.120276 -1.5714 0
M  V30 32407 C 3257.67 0.236307 -1.57841 0
M  V30 32408 C 3257.87 1.66624 -1.13307 0
M  V30 32409 O 3256.93 2.38778 -0.821046 0
M  V30 32410 C 3258.24 0.00182926 -3.007 0
M  V30 32411 C 3259.79 0.0676288 -3.12927 0
M  V30 32412 C 3260.26 -0.139172 -4.57788 0
M  V30 32413 N 3261.75 -0.0851854 -4.63122 0
M  V30 32414 C 3262.49 -0.220084 -5.72977 0
M  V30 32415 N 3261.98 -0.411224 -6.91578 0
M  V30 32416 N 3263.78 -0.159568 -5.61873 0
M  V30 32417 H 3255.93 -1.05425 -1.84389 0
M  V30 32418 H 3258.19 -0.41524 -0.85222 0
M  V30 32419 H 3257.9 -0.986777 -3.37573 0
M  V30 32420 H 3257.77 0.733138 -3.70007 0
M  V30 32421 H 3260.16 1.04676 -2.75911 0
M  V30 32422 H 3260.24 -0.695581 -2.46161 0
M  V30 32423 H 3259.88 -1.11529 -4.95504 0
M  V30 32424 H 3259.81 0.644039 -5.22647 0
M  V30 32425 H 3262.3 0.0589815 -3.77854 0
M  V30 32426 H 3262.62 -0.504987 -7.71148 0
M  V30 32427 H 3260.96 -0.447213 -6.9356 0
M  V30 32428 H 3264.15 -0.0111954 -4.68099 0
M  V30 32429 H 3264.33 -0.268141 -6.47445 0
M  V30 32430 N 3257.73 1.56851 0.153498 0
M  V30 32431 C 3258.66 2.00807 1.19159 0
M  V30 32432 C 3259.64 0.886544 1.4517 0
M  V30 32433 O 3260.83 1.1539 1.56201 0
M  V30 32434 C 3257.96 2.38315 2.52632 0
M  V30 32435 C 3256.91 3.53593 2.41155 0
M  V30 32436 C 3256.24 3.76896 3.79281 0
M  V30 32437 C 3257.54 4.86471 1.90114 0
M  V30 32438 H 3259.23 2.87777 0.82612 0
M  V30 32439 H 3256.78 1.38449 0.395948 0
M  V30 32440 H 3258.73 2.67666 3.25474 0
M  V30 32441 H 3257.46 1.48275 2.91002 0
M  V30 32442 H 3256.11 3.24398 1.70767 0
M  V30 32443 H 3255.76 2.84117 4.15074 0
M  V30 32444 H 3255.46 4.54471 3.72464 0
M  V30 32445 H 3256.99 4.08665 4.5368 0
M  V30 32446 H 3258.4 5.14581 2.52743 0
M  V30 32447 H 3256.8 5.67807 1.94204 0
M  V30 32448 H 3257.87 4.77277 0.856433 0
M  V30 32449 N 3259.21 -0.42264 1.51827 0
M  V30 32450 C 3260.16 -1.51279 1.70583 0
M  V30 32451 C 3261.14 -1.5085 0.559726 0
M  V30 32452 O 3262.34 -1.57055 0.816251 0
M  V30 32453 C 3259.47 -2.89339 1.84764 0
M  V30 32454 C 3258.55 -2.94468 3.05204 0
M  V30 32455 N 3258.94 -2.69315 4.28139 0
M  V30 32456 C 3257.24 -3.25633 3.04761 0
M  V30 32457 C 3257.94 -2.80665 5.09512 0
M  V30 32458 N 3256.92 -3.12966 4.44469 0
M  V30 32459 H 3260.72 -1.30607 2.63285 0
M  V30 32460 H 3258.23 -0.630165 1.49675 0
M  V30 32461 H 3260.23 -3.67786 1.96315 0
M  V30 32462 H 3258.89 -3.11021 0.932533 0
M  V30 32463 H 3259.9 -2.43964 4.56839 0
M  V30 32464 H 3256.58 -3.52995 2.22937 0
M  V30 32465 H 3257.97 -2.65047 6.17414 0
M  V30 32466 N 3260.69 -1.42222 -0.679027 0
M  V30 32467 C 3261.62 -1.41314 -1.80452 0
M  V30 32468 C 3262.63 -0.312827 -1.59766 0
M  V30 32469 O 3263.82 -0.575641 -1.68963 0
M  V30 32470 C 3260.92 -1.18547 -3.1749 0
M  V30 32471 C 3260.1 -2.40933 -3.65062 0
M  V30 32472 C 3259.15 -2.13774 -4.80819 0
M  V30 32473 O 3258.18 -2.86942 -4.91582 0
M  V30 32474 N 3259.38 -1.13823 -5.69231 0
M  V30 32475 H 3262.15 -2.38325 -1.81718 0
M  V30 32476 H 3259.71 -1.37047 -0.861964 0
M  V30 32477 H 3261.7 -0.983027 -3.9258 0
M  V30 32478 H 3260.27 -0.300746 -3.1115 0
M  V30 32479 H 3259.49 -2.76772 -2.80697 0
M  V30 32480 H 3260.78 -3.22438 -3.93587 0
M  V30 32481 H 3260.18 -0.532986 -5.63184 0
M  V30 32482 H 3258.73 -0.995667 -6.4415 0
M  V30 32483 N 3262.17 0.91492 -1.28324 0
M  V30 32484 C 3263.41 1.6664 -1.15581 0
M  V30 32485 C 3263.75 1.91944 0.295175 0
M  V30 32486 O 3263.02 1.51898 1.2148 0
M  V30 32487 C 3263.3 3.02503 -1.95355 0
M  V30 32488 C 3263.16 2.84361 -3.48509 0
M  V30 32489 C 3264.48 4.03024 -1.76805 0
M  V30 32490 H 3261.59 0.60475 -0.421244 0
M  V30 32491 H 3264.24 1.06085 -1.57626 0
M  V30 32492 H 3262.39 3.54192 -1.59625 0
M  V30 32493 H 3264.06 2.39692 -3.94139 0
M  V30 32494 H 3262.3 2.19444 -3.74202 0
M  V30 32495 H 3262.97 3.80838 -3.99583 0
M  V30 32496 H 3265.45 3.60392 -2.07983 0
M  V30 32497 H 3264.32 4.96053 -2.34996 0
M  V30 32498 H 3264.59 4.3621 -0.719239 0
M  V30 32499 N 3263.64 1.10553 1.1232 0
M  V30 32500 C 3264.87 0.870903 1.87678 0
M  V30 32501 C 3265.29 -0.578702 1.79712 0
M  V30 32502 O 3264.64 -1.39905 1.17188 0
M  V30 32503 C 3264.7 1.31219 3.36844 0
M  V30 32504 O 3264.42 2.70495 3.44621 0
M  V30 32505 C 3265.92 1.11164 4.29136 0
M  V30 32506 H 3263.14 0.312511 0.593783 0
M  V30 32507 H 3265.68 1.47051 1.42114 0
M  V30 32508 H 3263.84 0.756236 3.79947 0
M  V30 32509 H 3264.25 2.89397 4.37436 0
M  V30 32510 H 3265.72 1.46954 5.3208 0
M  V30 32511 H 3266.2 0.0503735 4.39171 0
M  V30 32512 H 3266.81 1.65412 3.91815 0
M  V30 32513 N 3265.12 -1.29758 0.894457 0
M  V30 32514 C 3266.53 -1.77884 0.566923 0
M  V30 32515 C 3266.88 -1.73438 -0.917258 0
M  V30 32516 O 3266.01 -1.31706 -1.71705 0
M  V30 32517 C 3266.6 -3.23008 1.02232 0
M  V30 32518 C 3265.16 -3.68932 0.746043 0
M  V30 32519 C 3264.31 -2.49992 1.19998 0
M  V30 32520 H 3267.26 -1.16494 1.07772 0
M  V30 32521 H 3267.28 -3.78837 0.355348 0
M  V30 32522 H 3266.79 -3.26212 2.10256 0
M  V30 32523 H 3264.9 -3.71208 -0.321801 0
M  V30 32524 H 3265.01 -4.59972 1.34025 0
M  V30 32525 H 3263.37 -2.47061 0.61909 0
M  V30 32526 H 3264.16 -2.55927 2.28815 0
M  V30 32527 N 3266.6 -0.65639 -1.4328 0
M  V30 32528 C 3267.56 0.023877 -2.29188 0
M  V30 32529 C 3268.56 0.747411 -1.42374 0
M  V30 32530 O 3269.75 0.588184 -1.6397 0
M  V30 32531 C 3266.89 1.04455 -3.24503 0
M  V30 32532 H 3268.08 -0.732029 -2.90829 0
M  V30 32533 H 3265.63 -0.417778 -1.50613 0
M  V30 32534 H 3266.37 1.82958 -2.67763 0
M  V30 32535 H 3266.15 0.529352 -3.8851 0
M  V30 32536 H 3267.64 1.51951 -3.88974 0
M  V30 32537 N 3268.08 1.52478 -0.398513 0
M  V30 32538 C 3269.36 1.94138 0.238742 0
M  V30 32539 C 3269.74 1.33465 1.63555 0
M  V30 32540 O 3269.08 0.506311 2.2282 0
M  V30 32541 C 3269.29 3.48061 0.255802 0
M  V30 32542 C 3270.64 4.21875 0.480302 0
M  V30 32543 O 3271.67 3.54615 0.335617 0
M  V30 32544 O 3270.53 5.41125 0.764559 0
M  V30 32545 H 3267.62 0.813136 0.150792 0
M  V30 32546 H 3270.17 1.63523 -0.453688 0
M  V30 32547 H 3268.94 3.84577 -0.722239 0
M  V30 32548 H 3268.56 3.85006 0.992772 0
M  V30 32549 N 3269.56 0.128608 1.57074 0
M  V30 32550 C 3270.78 -0.537804 2.00306 0
M  V30 32551 C 3271.21 -1.58818 1.0079 0
M  V30 32552 O 3270.57 -1.8129 -0.019052 0
M  V30 32553 C 3270.61 -1.13195 3.42373 0
M  V30 32554 O 3269.72 -2.24729 3.4579 0
M  V30 32555 H 3269.06 -0.133416 0.650458 0
M  V30 32556 H 3271.59 0.219918 2.03415 0
M  V30 32557 H 3271.6 -1.46513 3.80786 0
M  V30 32558 H 3270.27 -0.362641 4.14316 0
M  V30 32559 H 3268.85 -1.92777 3.19204 0
M  V30 32560 N 3271.04 -1.5693 -0.145178 0
M  V30 32561 C 3272.28 -1.83086 -0.85579 0
M  V30 32562 C 3272.6 -0.709779 -1.81624 0
M  V30 32563 O 3271.87 0.268422 -1.94052 0
M  V30 32564 H 3270.45 -0.675452 -0.31902 0
M  V30 32565 H 3273.12 -1.94406 -0.138746 0
M  V30 32566 H 3272.21 -2.78082 -1.41693 0
M  V30 32567 N 3272.51 0.414582 -1.52049 0
M  V30 32568 C 3273.42 1.52954 -1.77882 0
M  V30 32569 C 3274.44 1.60828 -0.664108 0
M  V30 32570 O 3275.62 1.77645 -0.948914 0
M  V30 32571 C 3272.68 2.88741 -1.91911 0
M  V30 32572 C 3271.74 2.90798 -3.15808 0
M  V30 32573 C 3270.97 4.20108 -3.29158 0
M  V30 32574 O 3271.2 5.13713 -2.47901 0
M  V30 32575 O 3270.13 4.28912 -4.22277 0
M  V30 32576 H 3273.96 1.34062 -2.72509 0
M  V30 32577 H 3271.54 0.599893 -1.36827 0
M  V30 32578 H 3273.42 3.69286 -2.02992 0
M  V30 32579 H 3272.1 3.07712 -1.00473 0
M  V30 32580 H 3271.01 2.09126 -3.10189 0
M  V30 32581 H 3272.34 2.76775 -4.07009 0
M  V30 32582 N 3273.99 1.4258 0.671475 0
M  V30 32583 C 3275.22 1.46418 1.45757 0
M  V30 32584 C 3275.63 0.0750175 1.89051 0
M  V30 32585 O 3274.97 -0.921268 1.58929 0
M  V30 32586 C 3275.03 2.33149 2.73645 0
M  V30 32587 C 3274.7 3.80972 2.52407 0
M  V30 32588 C 3275.7 4.72542 2.16795 0
M  V30 32589 C 3273.38 4.25273 2.67298 0
M  V30 32590 C 3275.37 6.06405 1.96347 0
M  V30 32591 C 3273.06 5.59194 2.46465 0
M  V30 32592 C 3274.06 6.49576 2.11044 0
M  V30 32593 O 3273.75 7.81023 1.90414 0
M  V30 32594 H 3273.48 0.500053 0.454887 0
M  V30 32595 H 3276.03 1.87788 0.832165 0
M  V30 32596 H 3274.26 1.86635 3.3868 0
M  V30 32597 H 3275.95 2.28404 3.35539 0
M  V30 32598 H 3276.72 4.39599 2.04884 0
M  V30 32599 H 3272.6 3.55211 2.93847 0
M  V30 32600 H 3276.14 6.76914 1.68623 0
M  V30 32601 H 3272.04 5.91709 2.57975 0
M  V30 32602 H 3272.81 7.92416 2.04986 0
M  V30 32603 N 3275.47 -0.908102 1.28807 0
M  V30 32604 C 3276.72 -1.66025 1.16463 0
M  V30 32605 C 3277.05 -1.92097 -0.284991 0
M  V30 32606 O 3276.32 -1.5254 -1.20673 0
M  V30 32607 C 3276.61 -3.01463 1.96957 0
M  V30 32608 C 3276.46 -2.82509 3.50012 0
M  V30 32609 C 3277.78 -4.0208 1.78939 0
M  V30 32610 H 3274.9 -0.602507 0.424446 0
M  V30 32611 H 3277.54 -1.05247 1.58187 0
M  V30 32612 H 3275.69 -3.53341 1.61501 0
M  V30 32613 H 3277.36 -2.37598 3.95405 0
M  V30 32614 H 3275.6 -2.17456 3.7536 0
M  V30 32615 H 3276.28 -3.78713 4.01597 0
M  V30 32616 H 3278.75 -3.59284 2.09891 0
M  V30 32617 H 3277.63 -4.94799 2.37623 0
M  V30 32618 H 3277.89 -4.35823 0.742362 0
M  V30 32619 N 3276.95 -1.11147 -1.11732 0
M  V30 32620 C 3278.19 -0.86835 -1.85038 0
M  V30 32621 C 3278.55 0.595262 -1.82539 0
M  V30 32622 O 3279.75 0.955027 -2.51262 0
M  V30 32623 C 3278.02 -1.41076 -3.28378 0
M  V30 32624 S 3279.58 -1.30417 -4.18971 0
M  V30 32625 H 3276.4 -0.313589 -0.638109 0
M  V30 32626 H 3279 -1.41837 -1.34546 0
M  V30 32627 H 3277.71 -2.46985 -3.2776 0
M  V30 32628 H 3277.24 -0.857643 -3.83938 0
M  V30 32629 H 3279.25 -0.266693 -4.95483 0
M  V30 32630 N 3278.43 1.29282 -0.901326 0
M  V30 32631 C 3279.38 2.25273 -0.351602 0
M  V30 32632 C 3280.36 1.51947 0.529249 0
M  V30 32633 O 3281.55 1.73068 0.371001 0
M  V30 32634 C 3278.68 3.40741 0.41837 0
M  V30 32635 C 3277.77 4.21403 -0.477494 0
M  V30 32636 N 3278.16 4.80309 -1.58546 0
M  V30 32637 C 3276.46 4.45148 -0.275583 0
M  V30 32638 C 3277.16 5.40886 -2.1405 0
M  V30 32639 N 3276.13 5.24363 -1.43333 0
M  V30 32640 H 3279.93 2.68377 -1.19795 0
M  V30 32641 H 3277.45 1.43911 -0.752563 0
M  V30 32642 H 3279.45 4.08576 0.82895 0
M  V30 32643 H 3278.11 2.99173 1.26196 0
M  V30 32644 H 3279.12 4.79044 -1.96818 0
M  V30 32645 H 3275.79 4.14129 0.529508 0
M  V30 32646 H 3277.18 5.97568 -3.07184 0
M  V30 32647 N 3279.9 0.663979 1.4293 0
M  V30 32648 C 3281.15 0.182043 2.01981 0
M  V30 32649 C 3281.48 -1.20461 1.52325 0
M  V30 32650 O 3280.76 -1.80648 0.720866 0
M  V30 32651 C 3281.04 0.204734 3.59518 0
M  V30 32652 C 3280.89 1.62607 4.19379 0
M  V30 32653 C 3282.21 -0.453003 4.37762 0
M  V30 32654 H 3279.33 0.0676244 0.733891 0
M  V30 32655 H 3281.97 0.84671 1.70091 0
M  V30 32656 H 3280.12 -0.361227 3.86817 0
M  V30 32657 H 3281.8 2.24344 4.03072 0
M  V30 32658 H 3280.04 2.17008 3.7562 0
M  V30 32659 H 3280.71 1.59371 5.28493 0
M  V30 32660 H 3283.19 0.0286505 4.1609 0
M  V30 32661 H 3282.06 -0.406442 5.47393 0
M  V30 32662 H 3282.32 -1.52888 4.14823 0
M  V30 32663 N 3281.38 -1.52265 0.406593 0
M  V30 32664 C 3282.63 -2.02084 -0.170269 0
M  V30 32665 C 3282.96 -1.29178 -1.45005 0
M  V30 32666 O 3282.24 -0.397344 -1.90398 0
M  V30 32667 C 3282.52 -3.57636 -0.420564 0
M  V30 32668 C 3282.37 -4.41193 0.875718 0
M  V30 32669 C 3283.69 -4.23316 -1.20379 0
M  V30 32670 H 3280.81 -0.73452 -0.060409 0
M  V30 32671 H 3283.45 -1.82178 0.539561 0
M  V30 32672 H 3281.6 -3.74728 -1.02523 0
M  V30 32673 H 3283.27 -4.35817 1.512 0
M  V30 32674 H 3281.52 -4.07509 1.48725 0
M  V30 32675 H 3282.19 -5.481 0.655012 0
M  V30 32676 H 3284.66 -4.10307 -0.6919 0
M  V30 32677 H 3283.54 -5.32099 -1.34767 0
M  V30 32678 H 3283.8 -3.82103 -2.22373 0
M  V30 32679 N 3282.86 -0.136936 -1.57004 0
M  V30 32680 C 3284.11 0.515656 -1.95411 0
M  V30 32681 C 3284.43 1.66059 -1.02222 0
M  V30 32682 O 3283.7 1.95729 -0.0818516 0
M  V30 32683 H 3282.28 0.193484 -0.721507 0
M  V30 32684 H 3284.94 -0.21008 -1.93764 0
M  V30 32685 H 3284.04 0.898442 -2.98889 0
M  V30 32686 N 3284.34 1.57005 0.136853 0
M  V30 32687 C 3285.57 1.8807 0.862403 0
M  V30 32688 C 3285.98 0.726258 1.74273 0
M  V30 32689 O 3285.34 -0.303629 1.79957 0
M  V30 32690 C 3285.39 3.18461 1.7107 0
M  V30 32691 O 3285.11 4.29459 0.865842 0
M  V30 32692 C 3286.61 3.6311 2.54296 0
M  V30 32693 H 3283.83 0.623148 0.248854 0
M  V30 32694 H 3286.38 2.04108 0.126597 0
M  V30 32695 H 3284.53 3.04146 2.39946 0
M  V30 32696 H 3284.94 5.04081 1.44921 0
M  V30 32697 H 3286.42 4.57155 3.09376 0
M  V30 32698 H 3286.9 2.88891 3.30815 0
M  V30 32699 H 3287.5 3.80153 1.90693 0
M  V30 32700 N 3285.82 -0.406513 1.52267 0
M  V30 32701 C 3287.04 -1.17942 1.706 0
M  V30 32702 C 3287.47 -1.83446 0.415825 0
M  V30 32703 O 3286.82 -1.70115 -0.626938 0
M  V30 32704 C 3286.87 -2.21628 2.84453 0
M  V30 32705 O 3285.98 -3.27828 2.50205 0
M  V30 32706 H 3285.32 -0.344167 0.567843 0
M  V30 32707 H 3287.85 -0.476176 1.98982 0
M  V30 32708 H 3287.86 -2.65914 3.09441 0
M  V30 32709 H 3286.53 -1.73335 3.78058 0
M  V30 32710 H 3285.11 -2.88803 2.35897 0
M  V30 32711 N 3287.29 -1.42934 -0.663904 0
M  V30 32712 C 3288.54 -1.43699 -1.42109 0
M  V30 32713 C 3288.86 -0.0584201 -1.94912 0
M  V30 32714 O 3288.13 0.904689 -1.73759 0
M  V30 32715 H 3286.71 -0.529035 -0.527381 0
M  V30 32716 H 3289.38 -1.78448 -0.783735 0
M  V30 32717 H 3288.47 -2.14324 -2.26873 0
M  V30 32718 N 3288.77 0.901258 -1.29287 0
M  V30 32719 C 3290.18 1.46684 -1.15501 0
M  V30 32720 C 3290.53 1.94595 0.250412 0
M  V30 32721 O 3289.66 1.83578 1.14578 0
M  V30 32722 C 3290.25 2.66603 -2.09065 0
M  V30 32723 C 3288.81 3.19302 -1.99307 0
M  V30 32724 C 3287.96 1.91996 -2.00082 0
M  V30 32725 H 3290.91 0.712748 -1.41794 0
M  V30 32726 H 3290.93 3.42285 -1.66196 0
M  V30 32727 H 3290.44 2.31702 -3.11345 0
M  V30 32728 H 3288.55 3.589 -1.00109 0
M  V30 32729 H 3288.66 3.83705 -2.86892 0
M  V30 32730 H 3287.02 2.09633 -1.44658 0
M  V30 32731 H 3287.81 1.59374 -3.04064 0
M  V30 32732 N 3290.25 1.11738 1.11141 0
M  V30 32733 C 3291.18 0.800833 2.19337 0
M  V30 32734 C 3292.16 -0.23218 1.68508 0
M  V30 32735 O 3293.35 -0.0949722 1.93968 0
M  V30 32736 C 3290.48 0.24664 3.46423 0
M  V30 32737 C 3289.43 1.21188 4.10484 0
M  V30 32738 C 3288.76 0.518251 5.32183 0
M  V30 32739 C 3290.06 2.56376 4.55048 0
M  V30 32740 H 3291.75 1.70552 2.46074 0
M  V30 32741 H 3289.3 0.821475 1.1827 0
M  V30 32742 H 3291.25 0.0129629 4.21398 0
M  V30 32743 H 3289.97 -0.693358 3.19155 0
M  V30 32744 H 3288.63 1.43124 3.37507 0
M  V30 32745 H 3288.28 -0.426654 5.01187 0
M  V30 32746 H 3287.98 1.16206 5.75995 0
M  V30 32747 H 3289.5 0.29344 6.09894 0
M  V30 32748 H 3290.92 2.38511 5.21331 0
M  V30 32749 H 3289.32 3.16767 5.09685 0
M  V30 32750 H 3290.39 3.15366 3.68337 0
M  V30 32751 N 3291.73 -1.28802 0.90817 0
M  V30 32752 C 3292.64 -2.31213 0.397208 0
M  V30 32753 C 3293.65 -1.66287 -0.512322 0
M  V30 32754 O 3294.83 -1.97391 -0.399859 0
M  V30 32755 C 3291.9 -3.44832 -0.359462 0
M  V30 32756 C 3290.96 -4.25328 0.582613 0
M  V30 32757 C 3290.19 -5.33521 -0.13804 0
M  V30 32758 O 3290.41 -5.53933 -1.36066 0
M  V30 32759 O 3289.35 -5.99617 0.523787 0
M  V30 32760 H 3293.17 -2.76916 1.24705 0
M  V30 32761 H 3290.76 -1.33394 0.67279 0
M  V30 32762 H 3292.64 -4.13985 -0.787025 0
M  V30 32763 H 3291.31 -3.01221 -1.18523 0
M  V30 32764 H 3290.22 -3.58784 1.05946 0
M  V30 32765 H 3291.55 -4.72603 1.37503 0
M  V30 32766 N 3293.21 -0.67155 -1.42576 0
M  V30 32767 C 3294.17 -0.000432769 -2.292 0
M  V30 32768 C 3295.17 0.732268 -1.43159 0
M  V30 32769 O 3296.36 0.57076 -1.64584 0
M  V30 32770 C 3293.49 1.01007 -3.25592 0
M  V30 32771 H 3294.68 -0.762834 -2.90036 0
M  V30 32772 H 3292.24 -0.433729 -1.50162 0
M  V30 32773 H 3292.97 1.80107 -2.69688 0
M  V30 32774 H 3292.76 0.488115 -3.8905 0
M  V30 32775 H 3294.25 1.47817 -3.90563 0
M  V30 32776 N 3294.68 1.52047 -0.414663 0
M  V30 32777 C 3295.91 2.06773 0.161101 0
M  V30 32778 C 3296.33 1.28222 1.37625 0
M  V30 32779 O 3295.69 0.313947 1.78561 0
M  V30 32780 C 3295.74 3.57331 0.484457 0
M  V30 32781 O 3294.84 3.81157 1.57459 0
M  V30 32782 H 3294.19 0.663895 0.0117886 0
M  V30 32783 H 3296.72 1.95925 -0.589459 0
M  V30 32784 H 3296.73 4.01205 0.741496 0
M  V30 32785 H 3295.4 4.13935 -0.403805 0
M  V30 32786 H 3293.98 3.49159 1.30928 0
M  V30 32787 N 3296.16 0.145261 1.56929 0
M  V30 32788 C 3297.41 -0.507036 1.96359 0
M  V30 32789 C 3297.74 -1.6463 1.03008 0
M  V30 32790 O 3297.02 -1.94366 0.0721387 0
M  V30 32791 C 3297.3 -1.01486 3.45503 0
M  V30 32792 C 3297.15 0.122787 4.49632 0
M  V30 32793 C 3298.47 -1.89722 3.97107 0
M  V30 32794 H 3295.59 -0.182835 0.713961 0
M  V30 32795 H 3298.23 0.226135 1.88649 0
M  V30 32796 H 3296.38 -1.63964 3.52205 0
M  V30 32797 H 3298.05 0.759068 4.55012 0
M  V30 32798 H 3296.3 0.782184 4.2669 0
M  V30 32799 H 3296.97 -0.274223 5.51318 0
M  V30 32800 H 3299.44 -1.37075 3.92873 0
M  V30 32801 H 3298.32 -2.22164 5.01931 0
M  V30 32802 H 3298.58 -2.83352 3.39359 0
M  V30 32803 N 3297.64 -1.57075 -0.128525 0
M  V30 32804 C 3298.57 -2.02677 -1.15949 0
M  V30 32805 C 3299.55 -0.909527 -1.43742 0
M  V30 32806 O 3300.74 -1.1786 -1.54346 0
M  V30 32807 C 3297.87 -2.42304 -2.48809 0
M  V30 32808 C 3296.82 -3.57385 -2.35499 0
M  V30 32809 C 3296.15 -3.82882 -3.73236 0
M  V30 32810 C 3297.45 -4.89434 -1.8235 0
M  V30 32811 H 3299.14 -2.89055 -0.780232 0
M  V30 32812 H 3296.69 -1.39062 -0.373872 0
M  V30 32813 H 3298.64 -2.7281 -3.21174 0
M  V30 32814 H 3297.36 -1.52886 -2.88606 0
M  V30 32815 H 3296.02 -3.27074 -1.65584 0
M  V30 32816 H 3295.67 -2.90684 -4.10502 0
M  V30 32817 H 3295.37 -4.60339 -3.65187 0
M  V30 32818 H 3296.9 -4.15831 -4.47121 0
M  V30 32819 H 3298.31 -5.18537 -2.44524 0
M  V30 32820 H 3296.71 -5.70825 -1.85146 0
M  V30 32821 H 3297.78 -4.78579 -0.780394 0
M  V30 32822 N 3299.12 0.398432 -1.5248 0
M  V30 32823 C 3300.37 1.14608 -1.67311 0
M  V30 32824 C 3300.7 1.89884 -0.407128 0
M  V30 32825 O 3299.97 1.85182 0.594801 0
M  V30 32826 C 3300.26 2.13193 -2.90208 0
M  V30 32827 C 3300.11 1.41742 -4.26883 0
M  V30 32828 C 3301.43 3.13735 -3.08639 0
M  V30 32829 H 3298.55 0.415281 -0.60886 0
M  V30 32830 H 3301.19 0.430541 -1.85058 0
M  V30 32831 H 3299.34 2.74213 -2.75208 0
M  V30 32832 H 3301.01 0.837597 -4.53632 0
M  V30 32833 H 3299.25 0.719312 -4.27795 0
M  V30 32834 H 3299.93 2.13731 -5.08943 0
M  V30 32835 H 3302.4 2.62799 -3.22608 0
M  V30 32836 H 3301.28 3.7997 -3.96124 0
M  V30 32837 H 3301.54 3.82069 -2.22431 0
M  V30 32838 N 3300.6 1.43284 0.656314 0
M  V30 32839 C 3301.83 1.48171 1.44406 0
M  V30 32840 C 3302.24 0.0986348 1.88542 0
M  V30 32841 O 3301.6 -0.890499 1.593 0
M  V30 32842 C 3301.65 2.42489 2.68107 0
M  V30 32843 O 3301.37 3.75417 2.25817 0
M  V30 32844 C 3302.87 2.56586 3.61495 0
M  V30 32845 H 3300.09 0.503341 0.443722 0
M  V30 32846 H 3302.63 1.87994 0.804884 0
M  V30 32847 H 3300.79 2.05869 3.28172 0
M  V30 32848 H 3301.2 4.26107 3.05832 0
M  V30 32849 H 3302.68 3.26663 4.44966 0
M  V30 32850 H 3303.15 1.60976 4.08636 0
M  V30 32851 H 3303.76 2.94004 3.07314 0
M  V30 32852 N 3302.08 -0.894389 1.29763 0
M  V30 32853 C 3303.32 -1.64004 1.17412 0
M  V30 32854 C 3303.64 -1.93695 -0.272321 0
M  V30 32855 O 3304.84 -2.66528 -0.517222 0
M  V30 32856 C 3303.3 -2.95542 2.05385 0
M  V30 32857 C 3302.91 -2.73426 3.54883 0
M  V30 32858 C 3304.65 -3.73482 2.01772 0
M  V30 32859 C 3302.56 -4.00723 4.34942 0
M  V30 32860 H 3301.49 -0.615271 0.435841 0
M  V30 32861 H 3304.14 -0.990956 1.54442 0
M  V30 32862 H 3302.52 -3.61692 1.61228 0
M  V30 32863 H 3303.7 -2.15836 4.07126 0
M  V30 32864 H 3302.01 -2.08876 3.60222 0
M  V30 32865 H 3304.61 -4.67872 2.58843 0
M  V30 32866 H 3304.95 -4.04137 0.998947 0
M  V30 32867 H 3305.48 -3.1418 2.43999 0
M  V30 32868 H 3302.22 -3.75232 5.37477 0
M  V30 32869 H 3301.74 -4.57853 3.87466 0
M  V30 32870 H 3303.42 -4.68825 4.45884 0
M  V30 32871 N 3303.55 -1.12326 -1.10547 0
M  V30 32872 C 3304.46 -0.803071 -2.20427 0
M  V30 32873 C 3305.48 0.207644 -1.72757 0
M  V30 32874 O 3306.66 0.0415269 -2.01357 0
M  V30 32875 C 3303.72 -0.261093 -3.45715 0
M  V30 32876 C 3302.78 -1.33159 -4.08126 0
M  V30 32877 C 3302.01 -0.81538 -5.27435 0
M  V30 32878 O 3302.24 0.351261 -5.69317 0
M  V30 32879 O 3301.17 -1.58444 -5.80671 0
M  V30 32880 H 3305 -1.72078 -2.50246 0
M  V30 32881 H 3302.58 -0.899836 -1.19261 0
M  V30 32882 H 3304.46 0.0363266 -4.21384 0
M  V30 32883 H 3303.14 0.629193 -3.17526 0
M  V30 32884 H 3302.05 -1.68216 -3.34147 0
M  V30 32885 H 3303.38 -2.1956 -4.40516 0
M  V30 32886 N 3305.03 1.28319 -0.914988 0
M  V30 32887 C 3305.99 2.2552 -0.409063 0
M  V30 32888 C 3306.99 1.53921 0.4653 0
M  V30 32889 O 3308.18 1.72123 0.26818 0
M  V30 32890 C 3305.32 3.38384 0.413393 0
M  V30 32891 H 3306.51 2.71789 -1.26771 0
M  V30 32892 H 3304.06 1.40023 -0.694501 0
M  V30 32893 H 3304.8 2.97479 1.29139 0
M  V30 32894 H 3304.58 3.91519 -0.213337 0
M  V30 32895 H 3306.07 4.1066 0.75816 0
M  V30 32896 N 3306.51 0.679102 1.42218 0
M  V30 32897 C 3307.73 0.210133 2.06333 0
M  V30 32898 C 3308.16 -1.1256 1.50705 0
M  V30 32899 O 3307.52 -1.70103 0.627271 0
M  V30 32900 C 3307.57 0.160386 3.60243 0
M  V30 32901 O 3306.67 -0.869801 4.03123 0
M  V30 32902 H 3306.01 0.106765 0.65536 0
M  V30 32903 H 3308.54 0.929326 1.82276 0
M  V30 32904 H 3308.55 -0.0143123 4.07997 0
M  V30 32905 H 3307.23 1.13533 4.00104 0
M  V30 32906 H 3305.8 -0.665796 3.66908 0
M  V30 32907 N 3307.99 -1.51825 0.42272 0
M  V30 32908 C 3309.23 -2.02253 -0.148826 0
M  V30 32909 C 3309.57 -1.30709 -1.43627 0
M  V30 32910 O 3308.84 -0.417516 -1.89966 0
M  V30 32911 C 3309.12 -3.58062 -0.382609 0
M  V30 32912 C 3308.98 -4.40239 0.922463 0
M  V30 32913 C 3310.3 -4.24569 -1.15883 0
M  V30 32914 H 3307.42 -0.735119 -0.052615 0
M  V30 32915 H 3310.06 -1.81595 0.558853 0
M  V30 32916 H 3308.21 -3.75795 -0.985429 0
M  V30 32917 H 3309.88 -4.34189 1.55814 0
M  V30 32918 H 3308.12 -4.05908 1.53039 0
M  V30 32919 H 3308.79 -5.47374 0.713109 0
M  V30 32920 H 3311.27 -4.11018 -0.648343 0
M  V30 32921 H 3310.15 -5.33498 -1.29116 0
M  V30 32922 H 3310.41 -3.8444 -2.18308 0
M  V30 32923 N 3309.47 -0.153581 -1.5685 0
M  V30 32924 C 3310.71 0.495877 -1.95509 0
M  V30 32925 C 3311.03 1.65577 -1.04132 0
M  V30 32926 O 3312.23 2.37029 -1.32398 0
M  V30 32927 C 3310.69 0.933561 -3.47581 0
M  V30 32928 C 3310.3 -0.199763 -4.47554 0
M  V30 32929 C 3312.04 1.55244 -3.95094 0
M  V30 32930 C 3309.95 0.256559 -5.90843 0
M  V30 32931 H 3308.88 0.189022 -0.729922 0
M  V30 32932 H 3311.53 -0.238979 -1.81937 0
M  V30 32933 H 3309.91 1.72387 -3.56509 0
M  V30 32934 H 3311.09 -0.976823 -4.50327 0
M  V30 32935 H 3309.4 -0.727466 -4.09996 0
M  V30 32936 H 3312 1.90559 -4.99591 0
M  V30 32937 H 3312.34 2.44384 -3.3702 0
M  V30 32938 H 3312.87 0.826901 -3.89111 0
M  V30 32939 H 3309.61 -0.59963 -6.52752 0
M  V30 32940 H 3309.13 0.999354 -5.91416 0
M  V30 32941 H 3310.81 0.706376 -6.43132 0
M  V30 32942 N 3310.94 1.57141 0.120193 0
M  V30 32943 C 3312.35 1.73975 0.677466 0
M  V30 32944 C 3312.71 0.772086 1.8037 0
M  V30 32945 O 3311.83 -0.0552682 2.16329 0
M  V30 32946 C 3312.43 3.15462 1.23569 0
M  V30 32947 C 3310.98 3.33806 1.73927 0
M  V30 32948 C 3310.13 2.69849 0.638495 0
M  V30 32949 H 3313.08 1.58348 -0.105713 0
M  V30 32950 H 3313.1 3.16946 2.10536 0
M  V30 32951 H 3312.62 3.85866 0.415783 0
M  V30 32952 H 3310.72 2.68441 2.58399 0
M  V30 32953 H 3310.83 4.4196 1.84954 0
M  V30 32954 H 3309.19 2.31051 1.07181 0
M  V30 32955 H 3309.98 3.42877 -0.170416 0
M  V30 32956 N 3312.42 -0.39034 1.5269 0
M  V30 32957 C 3313.67 -1.13326 1.67337 0
M  V30 32958 C 3313.99 -1.90531 0.415101 0
M  V30 32959 O 3313.26 -1.8741 -0.570471 0
M  V30 32960 H 3311.84 -0.421346 0.616828 0
M  V30 32961 H 3314.5 -0.442967 1.89799 0
M  V30 32962 H 3313.6 -1.83691 2.52317 0
M  V30 32963 N 3313.9 -1.4363 -0.648706 0
M  V30 32964 C 3315.31 -1.40457 -1.22998 0
M  V30 32965 C 3315.66 -0.110931 -1.95886 0
M  V30 32966 O 3314.79 0.789451 -2.01486 0
M  V30 32967 C 3315.38 -2.54438 -2.23712 0
M  V30 32968 C 3313.94 -2.54515 -2.77306 0
M  V30 32969 C 3313.09 -2.31917 -1.5202 0
M  V30 32970 H 3316.04 -1.52466 -0.440446 0
M  V30 32971 H 3316.06 -2.26185 -3.05975 0
M  V30 32972 H 3315.57 -3.48577 -1.70634 0
M  V30 32973 H 3313.67 -1.64269 -3.34435 0
M  V30 32974 H 3313.79 -3.52432 -3.24544 0
M  V30 32975 H 3312.15 -1.8067 -1.79528 0
M  V30 32976 H 3312.93 -3.28146 -1.0087 0
M  V30 32977 N 3315.38 0.887495 -1.30236 0
M  V30 32978 C 3316.63 1.63379 -1.1828 0
M  V30 32979 C 3316.94 1.93837 0.262045 0
M  V30 32980 O 3318.15 2.66798 0.50308 0
M  V30 32981 C 3316.6 2.94449 -2.06949 0
M  V30 32982 C 3316.21 2.71541 -3.56328 0
M  V30 32983 C 3317.95 3.72406 -2.03749 0
M  V30 32984 C 3315.86 3.98411 -4.37061 0
M  V30 32985 H 3314.79 0.612951 -0.439098 0
M  V30 32986 H 3317.44 0.982751 -1.54965 0
M  V30 32987 H 3315.82 3.60832 -1.63144 0
M  V30 32988 H 3317 2.13674 -4.08265 0
M  V30 32989 H 3315.31 2.06962 -3.61325 0
M  V30 32990 H 3317.91 4.66493 -2.61321 0
M  V30 32991 H 3318.25 4.03602 -1.02037 0
M  V30 32992 H 3318.79 3.12882 -2.45662 0
M  V30 32993 H 3315.53 3.72376 -5.39459 0
M  V30 32994 H 3315.05 4.55792 -3.89889 0
M  V30 32995 H 3316.72 4.66454 -4.48364 0
M  V30 32996 N 3316.86 1.12911 1.0995 0
M  V30 32997 C 3318.27 0.901115 1.63514 0
M  V30 32998 C 3318.62 -0.563514 1.87933 0
M  V30 32999 O 3317.74 -1.42905 1.62503 0
M  V30 33000 C 3318.34 1.62929 2.97051 0
M  V30 33001 C 3316.9 1.44732 3.47462 0
M  V30 33002 C 3316.04 1.66198 2.21976 0
M  V30 33003 H 3319 1.28317 0.933836 0
M  V30 33004 H 3319.02 1.08324 3.64755 0
M  V30 33005 H 3318.53 2.69524 2.79246 0
M  V30 33006 H 3316.63 0.404155 3.70402 0
M  V30 33007 H 3316.74 2.20678 4.2525 0
M  V30 33008 H 3315.11 1.08644 2.30366 0
M  V30 33009 H 3315.89 2.74101 2.06697 0
M  V30 33010 N 3318.33 -1.27832 0.92178 0
M  V30 33011 C 3319.75 -1.76642 0.604527 0
M  V30 33012 C 3320.1 -1.75345 -0.880263 0
M  V30 33013 O 3319.22 -1.35318 -1.68873 0
M  V30 33014 C 3319.82 -3.20767 1.09061 0
M  V30 33015 C 3318.38 -3.67267 0.824131 0
M  V30 33016 C 3317.52 -2.4739 1.25274 0
M  V30 33017 H 3320.47 -1.14182 1.10219 0
M  V30 33018 H 3320.49 -3.77998 0.435625 0
M  V30 33019 H 3320.01 -3.21678 2.17128 0
M  V30 33020 H 3318.11 -3.71807 -0.24299 0
M  V30 33021 H 3318.22 -4.57026 1.43751 0
M  V30 33022 H 3316.58 -2.45693 0.671357 0
M  V30 33023 H 3317.37 -2.51016 2.34192 0
M  V30 33024 N 3319.81 -0.686634 -1.41856 0
M  V30 33025 C 3321.06 -0.214153 -2.01666 0
M  V30 33026 C 3321.39 1.18022 -1.54222 0
M  V30 33027 O 3320.67 1.79479 -0.749514 0
M  V30 33028 C 3320.95 -0.261905 -3.59146 0
M  V30 33029 C 3320.8 -1.69258 -4.16739 0
M  V30 33030 C 3322.12 0.383301 -4.38428 0
M  V30 33031 H 3319.24 -0.0792914 -0.732722 0
M  V30 33032 H 3321.88 -0.873663 -1.68722 0
M  V30 33033 H 3320.03 0.299642 -3.87343 0
M  V30 33034 H 3321.7 -2.30729 -3.99452 0
M  V30 33035 H 3319.95 -2.22956 -3.7212 0
M  V30 33036 H 3320.62 -1.67759 -5.25891 0
M  V30 33037 H 3323.09 -0.0948432 -4.15992 0
M  V30 33038 H 3321.97 0.319305 -5.4797 0
M  V30 33039 H 3322.23 1.46269 -4.17202 0
M  V30 33040 N 3321.29 1.51599 -0.430766 0
M  V30 33041 C 3322.71 1.59385 -0.0827182 0
M  V30 33042 C 3322.91 1.44217 1.40726 0
M  V30 33043 O 3321.96 1.28006 2.17648 0
M  V30 33044 C 3323.28 2.94715 -0.596962 0
M  V30 33045 C 3324.82 3.08007 -0.556826 0
M  V30 33046 C 3325.3 4.4585 -1.04793 0
M  V30 33047 N 3326.79 4.52151 -1.00565 0
M  V30 33048 C 3327.52 5.57121 -1.35659 0
M  V30 33049 N 3327.02 6.69541 -1.78006 0
M  V30 33050 N 3328.81 5.47445 -1.27518 0
M  V30 33051 H 3320.96 1.59704 -1.4003 0
M  V30 33052 H 3323.23 0.752472 -0.576619 0
M  V30 33053 H 3322.93 3.11164 -1.63919 0
M  V30 33054 H 3322.81 3.77196 -0.0183005 0
M  V30 33055 H 3325.19 2.91229 0.476406 0
M  V30 33056 H 3325.28 2.27381 -1.17181 0
M  V30 33057 H 3324.92 4.63374 -2.0796 0
M  V30 33058 H 3324.85 5.25005 -0.409553 0
M  V30 33059 H 3327.34 3.71462 -0.694583 0
M  V30 33060 H 3327.65 7.45651 -2.03039 0
M  V30 33061 H 3326 6.70766 -1.81927 0
M  V30 33062 H 3329.19 4.58502 -0.94305 0
M  V30 33063 H 3329.36 6.29141 -1.55197 0
M  V30 33064 N 3322.77 0.161897 1.56766 0
M  V30 33065 C 3324.02 -0.485502 1.9577 0
M  V30 33066 C 3324.33 -1.65023 1.05009 0
M  V30 33067 O 3325.54 -2.36324 1.33653 0
M  V30 33068 C 3323.99 -0.915115 3.48071 0
M  V30 33069 C 3323.6 0.223495 4.47442 0
M  V30 33070 C 3325.34 -1.53146 3.95912 0
M  V30 33071 C 3323.25 -0.225222 5.90971 0
M  V30 33072 H 3322.18 -0.185148 0.730915 0
M  V30 33073 H 3324.83 0.248624 1.81808 0
M  V30 33074 H 3323.21 -1.70494 3.57418 0
M  V30 33075 H 3324.39 1.00069 4.49803 0
M  V30 33076 H 3322.7 0.749199 4.09605 0
M  V30 33077 H 3325.3 -1.87907 5.00595 0
M  V30 33078 H 3325.64 -2.42593 3.38311 0
M  V30 33079 H 3326.18 -0.806253 3.89544 0
M  V30 33080 H 3322.92 0.634238 6.52424 0
M  V30 33081 H 3322.44 -0.967976 5.91938 0
M  V30 33082 H 3324.11 -0.67226 6.43498 0
M  V30 33083 N 3324.25 -1.57203 -0.111858 0
M  V30 33084 C 3325.16 -2.04167 -1.15556 0
M  V30 33085 C 3326.17 -0.96338 -1.44897 0
M  V30 33086 O 3327.35 -1.27539 -1.55871 0
M  V30 33087 C 3324.41 -2.44261 -2.46044 0
M  V30 33088 C 3323.47 -3.66205 -2.24037 0
M  V30 33089 C 3322.71 -4.04377 -3.48303 0
M  V30 33090 O 3322.93 -3.42814 -4.55889 0
M  V30 33091 O 3321.86 -4.97436 -3.38882 0
M  V30 33092 H 3325.69 -2.93333 -0.786727 0
M  V30 33093 H 3323.28 -1.45863 -0.32317 0
M  V30 33094 H 3325.16 -2.70751 -3.22912 0
M  V30 33095 H 3323.83 -1.58238 -2.82387 0
M  V30 33096 H 3322.74 -3.44854 -1.45004 0
M  V30 33097 H 3324.07 -4.52955 -1.92594 0
M  V30 33098 N 3325.72 0.382237 -1.52894 0
M  V30 33099 C 3326.95 1.15213 -1.72455 0
M  V30 33100 C 3327.37 1.82761 -0.444957 0
M  V30 33101 O 3326.73 1.71091 0.599795 0
M  V30 33102 C 3326.78 2.17074 -2.87943 0
M  V30 33103 O 3325.88 3.23806 -2.55388 0
M  V30 33104 H 3325.23 0.335089 -0.573246 0
M  V30 33105 H 3327.76 0.44446 -1.99714 0
M  V30 33106 H 3327.77 2.60957 -3.13632 0
M  V30 33107 H 3326.44 1.67298 -3.80768 0
M  V30 33108 H 3325.02 2.85013 -2.40462 0
M  V30 33109 N 3327.2 1.43972 0.64108 0
M  V30 33110 C 3328.43 1.49913 1.43321 0
M  V30 33111 C 3328.85 0.121941 1.87704 0
M  V30 33112 O 3328.21 -0.886848 1.58129 0
M  V30 33113 C 3328.26 2.46029 2.63632 0
M  V30 33114 O 3327.36 1.95494 3.6312 0
M  V30 33115 H 3326.7 0.506603 0.429243 0
M  V30 33116 H 3329.23 1.89008 0.783394 0
M  V30 33117 H 3329.24 2.63736 3.11299 0
M  V30 33118 H 3327.92 3.46068 2.30672 0
M  V30 33119 H 3326.5 1.87506 3.22329 0
M  V30 33120 N 3328.68 -0.880575 1.30704 0
M  V30 33121 C 3329.91 -1.67103 1.22846 0
M  V30 33122 C 3330.33 -1.86982 -0.204755 0
M  V30 33123 O 3329.69 -1.40394 -1.14713 0
M  V30 33124 C 3329.74 -3.02234 1.9669 0
M  V30 33125 O 3328.84 -3.91474 1.297 0
M  V30 33126 H 3328.18 -0.510442 0.42467 0
M  V30 33127 H 3330.71 -1.09868 1.72598 0
M  V30 33128 H 3330.72 -3.52246 2.05881 0
M  V30 33129 H 3329.4 -2.87085 3.00924 0
M  V30 33130 H 3327.97 -3.49916 1.28892 0
M  V30 33131 N 3330.16 -1.13492 -1.09349 0
M  V30 33132 C 3331.38 -0.920722 -1.85843 0
M  V30 33133 C 3331.81 0.525271 -1.80617 0
M  V30 33134 O 3331.17 1.3728 -1.18422 0
M  V30 33135 C 3331.22 -1.41415 -3.31714 0
M  V30 33136 O 3330.32 -0.59991 -4.08013 0
M  V30 33137 H 3329.66 -0.32992 -0.576237 0
M  V30 33138 H 3332.19 -1.50979 -1.38082 0
M  V30 33139 H 3332.2 -1.41812 -3.82562 0
M  V30 33140 H 3330.88 -2.46698 -3.34833 0
M  V30 33141 H 3329.45 -0.663881 -3.66943 0
M  V30 33142 N 3331.64 1.27341 -0.928546 0
M  V30 33143 C 3332.87 1.98435 -0.585769 0
M  V30 33144 C 3333.28 1.69262 0.83641 0
M  V30 33145 O 3332.64 0.953653 1.55601 0
M  V30 33146 C 3332.69 3.52465 -0.803154 0
M  V30 33147 O 3332.41 3.80617 -2.16938 0
M  V30 33148 C 3333.91 4.4081 -0.469205 0
M  V30 33149 H 3331.13 0.633247 -0.221898 0
M  V30 33150 H 3333.67 1.62173 -1.2458 0
M  V30 33151 H 3331.83 3.86934 -0.189914 0
M  V30 33152 H 3332.24 4.75201 -2.22001 0
M  V30 33153 H 3333.72 5.47894 -0.672002 0
M  V30 33154 H 3334.19 4.35147 0.595288 0
M  V30 33155 H 3334.8 4.11863 -1.06062 0
M  V30 33156 N 3333.12 0.694147 1.4149 0
M  V30 33157 C 3334.36 0.224845 2.0155 0
M  V30 33158 C 3334.69 -1.17202 1.54846 0
M  V30 33159 O 3333.97 -1.79079 0.759022 0
M  V30 33160 C 3334.25 0.280947 3.59002 0
M  V30 33161 C 3334.11 1.71466 4.15836 0
M  V30 33162 C 3335.42 -0.360045 4.38625 0
M  V30 33163 H 3332.54 0.0831761 0.732291 0
M  V30 33164 H 3335.19 0.882598 1.68256 0
M  V30 33165 H 3333.34 -0.279096 3.87496 0
M  V30 33166 H 3335.01 2.32844 3.98223 0
M  V30 33167 H 3333.25 2.24926 3.70932 0
M  V30 33168 H 3333.92 1.70546 5.24994 0
M  V30 33169 H 3336.4 0.116903 4.15936 0
M  V30 33170 H 3335.27 -0.29024 5.48132 0
M  V30 33171 H 3335.53 -1.44054 4.17972 0
M  V30 33172 N 3334.59 -1.51368 0.438799 0
M  V30 33173 C 3335.56 -2.26351 -0.36028 0
M  V30 33174 C 3336.56 -1.29851 -0.948442 0
M  V30 33175 O 3337.75 -1.53551 -0.822665 0
M  V30 33176 C 3334.88 -3.05639 -1.50989 0
M  V30 33177 H 3336.07 -2.98427 0.296879 0
M  V30 33178 H 3333.62 -1.55116 0.192005 0
M  V30 33179 H 3334.36 -2.37983 -2.20306 0
M  V30 33180 H 3334.14 -3.7652 -1.09431 0
M  V30 33181 H 3335.63 -3.62433 -2.07441 0
M  V30 33182 N 3336.07 -0.170208 -1.56678 0
M  V30 33183 C 3336.98 0.77304 -2.21498 0
M  V30 33184 C 3338 1.25399 -1.20628 0
M  V30 33185 O 3339.17 1.30635 -1.53286 0
M  V30 33186 C 3336.24 1.98553 -2.84214 0
M  V30 33187 C 3335.3 1.55157 -4.00281 0
M  V30 33188 C 3334.53 2.70626 -4.59997 0
M  V30 33189 O 3334.76 3.87465 -4.18602 0
M  V30 33190 O 3333.69 2.44765 -5.49885 0
M  V30 33191 H 3337.52 0.251142 -3.0266 0
M  V30 33192 H 3335.1 0.0579358 -1.49288 0
M  V30 33193 H 3336.98 2.69466 -3.23984 0
M  V30 33194 H 3335.66 2.49651 -2.06049 0
M  V30 33195 H 3334.56 0.811974 -3.65182 0
M  V30 33196 H 3335.9 1.08752 -4.80035 0
M  V30 33197 N 3337.55 1.5726 0.10352 0
M  V30 33198 C 3338.8 1.85291 0.806947 0
M  V30 33199 C 3339.12 0.757684 1.79678 0
M  V30 33200 O 3338.39 -0.216878 1.94696 0
M  V30 33201 H 3336.97 0.683672 0.301 0
M  V30 33202 H 3339.63 1.94705 0.0871544 0
M  V30 33203 H 3338.73 2.81741 1.34271 0
M  V30 33204 N 3339.03 -0.374123 1.53095 0
M  V30 33205 C 3339.96 -1.47773 1.75202 0
M  V30 33206 C 3340.97 -1.50004 0.632654 0
M  V30 33207 O 3342.16 -1.53638 0.908715 0
M  V30 33208 C 3339.26 -2.86572 1.80914 0
M  V30 33209 C 3338.43 -3.08135 3.10438 0
M  V30 33210 C 3337.49 -4.26999 3.07503 0
M  V30 33211 O 3336.52 -4.22586 3.81327 0
M  V30 33212 N 3337.72 -5.33968 2.27725 0
M  V30 33213 H 3340.49 -1.29191 2.70425 0
M  V30 33214 H 3338.05 -0.563775 1.51767 0
M  V30 33215 H 3340.04 -3.64214 1.76439 0
M  V30 33216 H 3338.61 -2.98442 0.930126 0
M  V30 33217 H 3337.83 -2.18228 3.28284 0
M  V30 33218 H 3339.12 -3.19406 3.96052 0
M  V30 33219 H 3338.52 -5.40414 1.67241 0
M  V30 33220 H 3337.07 -6.10219 2.29076 0
M  V30 33221 N 3340.51 -1.4431 -0.633436 0
M  V30 33222 C 3341.73 -1.5045 -1.4203 0
M  V30 33223 C 3342.15 -0.128618 -1.88361 0
M  V30 33224 O 3341.51 0.865043 -1.60696 0
M  V30 33225 C 3341.56 -2.46723 -2.64215 0
M  V30 33226 O 3341.28 -3.78962 -2.19816 0
M  V30 33227 C 3342.78 -2.62304 -3.57367 0
M  V30 33228 H 3340 -0.510336 -0.435658 0
M  V30 33229 H 3342.54 -1.89251 -0.774874 0
M  V30 33230 H 3340.7 -2.11064 -3.24855 0
M  V30 33231 H 3341.11 -4.30919 -2.99014 0
M  V30 33232 H 3342.59 -3.33701 -4.39713 0
M  V30 33233 H 3343.06 -1.67457 -4.06023 0
M  V30 33234 H 3343.67 -2.98856 -3.02598 0
M  V30 33235 N 3341.98 0.873632 -1.3117 0
M  V30 33236 C 3342.91 1.99644 -1.21097 0
M  V30 33237 C 3343.9 1.69812 -0.0989982 0
M  V30 33238 O 3345.08 1.92127 -0.282973 0
M  V30 33239 C 3342.21 3.35064 -0.913743 0
M  V30 33240 C 3341.16 3.79192 -1.98489 0
M  V30 33241 C 3340.49 5.1203 -1.54042 0
M  V30 33242 C 3341.79 3.96693 -3.39752 0
M  V30 33243 H 3343.48 2.08329 -2.15033 0
M  V30 33244 H 3341.03 1.00095 -1.03523 0
M  V30 33245 H 3342.98 4.13147 -0.829893 0
M  V30 33246 H 3341.71 3.26542 0.0612897 0
M  V30 33247 H 3340.37 3.03346 -2.05857 0
M  V30 33248 H 3340.01 4.99947 -0.553349 0
M  V30 33249 H 3339.71 5.42526 -2.25697 0
M  V30 33250 H 3341.24 5.92627 -1.47058 0
M  V30 33251 H 3342.65 4.65182 -3.3508 0
M  V30 33252 H 3341.05 4.38582 -4.09592 0
M  V30 33253 H 3342.12 3.00189 -3.80808 0
M  V30 33254 N 3343.46 1.1407 1.08746 0
M  V30 33255 C 3344.74 0.817691 1.77688 0
M  V30 33256 C 3345.12 -0.689466 1.99523 0
M  V30 33257 O 3344.47 -1.62911 1.60225 0
M  V30 33258 C 3344.68 1.6125 3.09515 0
M  V30 33259 C 3346.03 1.80965 3.84105 0
M  V30 33260 O 3347.05 1.57907 3.19286 0
M  V30 33261 O 3345.91 2.19487 5.00487 0
M  V30 33262 H 3343 0.299279 0.770948 0
M  V30 33263 H 3345.55 1.24571 1.1524 0
M  V30 33264 H 3344.32 2.63643 2.8915 0
M  V30 33265 H 3343.94 1.17988 3.7969 0
M  V30 33266 N 3344.94 -1.26847 0.935286 0
M  V30 33267 C 3345.87 -2.28968 0.457817 0
M  V30 33268 C 3346.85 -1.63014 -0.485841 0
M  V30 33269 O 3348.04 -1.90265 -0.388964 0
M  V30 33270 C 3345.17 -3.46143 -0.283271 0
M  V30 33271 C 3344.12 -4.24143 0.573271 0
M  V30 33272 C 3343.45 -5.33872 -0.297431 0
M  V30 33273 C 3344.75 -4.88755 1.84162 0
M  V30 33274 H 3346.44 -2.69157 1.3113 0
M  V30 33275 H 3343.99 -1.29391 0.631979 0
M  V30 33276 H 3345.94 -4.1669 -0.628292 0
M  V30 33277 H 3344.66 -3.04892 -1.17084 0
M  V30 33278 H 3343.32 -3.55353 0.901105 0
M  V30 33279 H 3342.97 -4.88862 -1.18418 0
M  V30 33280 H 3342.67 -5.86969 0.272229 0
M  V30 33281 H 3344.19 -6.07259 -0.637854 0
M  V30 33282 H 3345.61 -5.51548 1.5642 0
M  V30 33283 H 3344.01 -5.51944 2.35538 0
M  V30 33284 H 3345.08 -4.12028 2.55657 0
M  V30 33285 N 3346.42 -0.701641 -1.4112 0
M  V30 33286 C 3347.64 -0.242933 -2.05972 0
M  V30 33287 C 3348.07 1.10148 -1.52476 0
M  V30 33288 O 3347.43 1.69083 -0.654253 0
M  V30 33289 C 3347.47 -0.217677 -3.59942 0
M  V30 33290 O 3346.58 0.805558 -4.04456 0
M  V30 33291 H 3345.92 -0.117178 -0.653579 0
M  V30 33292 H 3348.45 -0.958207 -1.80775 0
M  V30 33293 H 3348.46 -0.0505984 -4.07969 0
M  V30 33294 H 3347.13 -1.19884 -3.98247 0
M  V30 33295 H 3345.71 0.60734 -3.67921 0
M  V30 33296 N 3347.9 1.51133 -0.446821 0
M  V30 33297 C 3349.14 2.04073 0.11551 0
M  V30 33298 C 3349.5 1.32308 1.39135 0
M  V30 33299 O 3350.7 1.75672 2.03452 0
M  V30 33300 C 3348.97 3.55968 0.319595 0
M  V30 33301 S 3350.53 4.30607 0.843969 0
M  V30 33302 H 3347.35 0.710472 0.0273964 0
M  V30 33303 H 3349.95 1.85792 -0.608401 0
M  V30 33304 H 3348.66 4.05764 -0.615153 0
M  V30 33305 H 3348.19 3.7856 1.07032 0
M  V30 33306 H 3350.2 4.48611 2.12043 0
M  V30 33307 N 3349.37 0.178515 1.56586 0
M  V30 33308 C 3350.62 -0.465271 1.97391 0
M  V30 33309 C 3350.95 -1.62408 1.06477 0
M  V30 33310 O 3350.23 -1.94169 0.11335 0
M  V30 33311 C 3350.51 -0.941347 3.47578 0
M  V30 33312 C 3350.36 0.218133 4.49271 0
M  V30 33313 C 3351.68 -1.81256 4.01041 0
M  V30 33314 H 3348.8 -0.16765 0.717678 0
M  V30 33315 H 3351.44 0.2661 1.88127 0
M  V30 33316 H 3349.59 -1.56456 3.55603 0
M  V30 33317 H 3351.27 0.855412 4.53299 0
M  V30 33318 H 3349.51 0.872515 4.24935 0
M  V30 33319 H 3350.18 -0.157218 5.51776 0
M  V30 33320 H 3352.66 -1.28711 3.95693 0
M  V30 33321 H 3351.53 -2.11467 5.0653 0
M  V30 33322 H 3351.79 -2.76089 3.45293 0
M  V30 33323 N 3350.85 -1.57312 -0.0951784 0
M  V30 33324 C 3352.1 -1.8636 -0.79987 0
M  V30 33325 C 3352.43 -0.767624 -1.78385 0
M  V30 33326 O 3351.71 0.224405 -1.93201 0
M  V30 33327 C 3351.99 -3.26042 -1.52869 0
M  V30 33328 C 3351.84 -4.46266 -0.562702 0
M  V30 33329 C 3353.16 -3.6362 -2.47928 0
M  V30 33330 H 3350.28 -0.677834 -0.289327 0
M  V30 33331 H 3352.92 -1.89894 -0.0635035 0
M  V30 33332 H 3351.07 -3.2316 -2.15639 0
M  V30 33333 H 3352.74 -4.61264 0.0579879 0
M  V30 33334 H 3350.99 -4.33623 0.123924 0
M  V30 33335 H 3351.66 -5.40729 -1.10979 0
M  V30 33336 H 3354.13 -3.67446 -1.9525 0
M  V30 33337 H 3353.01 -4.62288 -2.9594 0
M  V30 33338 H 3353.27 -2.923 -3.31682 0
M  V30 33339 N 3352.33 0.365999 -1.53291 0
M  V30 33340 C 3353.29 1.43114 -1.79028 0
M  V30 33341 C 3354.29 1.46599 -0.660702 0
M  V30 33342 O 3355.48 1.47367 -0.928901 0
M  V30 33343 C 3352.62 2.82235 -1.91197 0
M  V30 33344 H 3353.81 1.21568 -2.74156 0
M  V30 33345 H 3351.36 0.599107 -1.44362 0
M  V30 33346 H 3352.1 3.09096 -0.981345 0
M  V30 33347 H 3351.88 2.81104 -2.73355 0
M  V30 33348 H 3353.37 3.59371 -2.12702 0
M  V30 33349 N 3353.81 1.44644 0.625774 0
M  V30 33350 C 3355.06 1.47417 1.38249 0
M  V30 33351 C 3355.38 0.110077 1.94689 0
M  V30 33352 O 3354.65 -0.858302 1.76097 0
M  V30 33353 H 3353.23 0.542832 0.513169 0
M  V30 33354 H 3355.89 1.80463 0.736147 0
M  V30 33355 H 3354.99 2.20264 2.21111 0
M  V30 33356 N 3355.29 -0.866663 1.31631 0
M  V30 33357 C 3356.22 -1.9804 1.15381 0
M  V30 33358 C 3357.23 -1.6254 0.0919919 0
M  V30 33359 O 3358.42 -1.75236 0.339805 0
M  V30 33360 C 3355.52 -3.30692 0.741353 0
M  V30 33361 C 3354.69 -3.94512 1.88889 0
M  V30 33362 C 3353.75 -5.05483 1.46195 0
M  V30 33363 O 3352.78 -5.26125 2.17212 0
M  V30 33364 N 3353.98 -5.79437 0.351198 0
M  V30 33365 H 3356.75 -2.12526 2.11313 0
M  V30 33366 H 3354.31 -1.04083 1.24009 0
M  V30 33367 H 3356.3 -4.02319 0.438384 0
M  V30 33368 H 3354.87 -3.12344 -0.126455 0
M  V30 33369 H 3354.09 -3.15824 2.359 0
M  V30 33370 H 3355.38 -4.33888 2.65742 0
M  V30 33371 H 3354.77 -5.6519 -0.240146 0
M  V30 33372 H 3353.33 -6.51711 0.107778 0
M  V30 33373 N 3356.77 -1.14645 -1.0814 0
M  V30 33374 C 3357.73 -0.838627 -2.13307 0
M  V30 33375 C 3358.73 0.157984 -1.60022 0
M  V30 33376 O 3359.92 -0.0706927 -1.74057 0
M  V30 33377 C 3357.05 -0.25065 -3.39977 0
M  V30 33378 H 3358.24 -1.7707 -2.42046 0
M  V30 33379 H 3355.8 -0.95285 -1.23897 0
M  V30 33380 H 3356.53 0.690008 -3.16874 0
M  V30 33381 H 3356.32 -0.968523 -3.7995 0
M  V30 33382 H 3357.81 -0.0525849 -4.17567 0
M  V30 33383 N 3358.24 1.26349 -0.942 0
M  V30 33384 C 3359.19 2.2404 -0.423093 0
M  V30 33385 C 3360.18 1.53553 0.480641 0
M  V30 33386 O 3361.37 1.74161 0.315752 0
M  V30 33387 C 3358.5 3.419 0.309754 0
M  V30 33388 C 3357.58 4.19671 -0.611319 0
M  V30 33389 N 3357.98 4.75022 -1.73746 0
M  V30 33390 C 3356.27 4.44046 -0.417064 0
M  V30 33391 C 3356.97 5.33802 -2.3115 0
M  V30 33392 N 3355.95 5.19537 -1.59943 0
M  V30 33393 H 3359.75 2.6443 -1.28273 0
M  V30 33394 H 3357.27 1.41443 -0.797966 0
M  V30 33395 H 3359.26 4.11006 0.698545 0
M  V30 33396 H 3357.92 3.03037 1.16614 0
M  V30 33397 H 3358.93 4.7254 -2.11959 0
M  V30 33398 H 3355.61 4.15604 0.397488 0
M  V30 33399 H 3357 5.87493 -3.26039 0
M  V30 33400 N 3359.72 0.709115 1.40746 0
M  V30 33401 C 3360.68 0.0612009 2.29118 0
M  V30 33402 C 3361.68 -0.694055 1.4505 0
M  V30 33403 O 3362.87 -0.526922 1.6604 0
M  V30 33404 C 3360.01 -0.92339 3.28156 0
M  V30 33405 H 3361.2 0.839464 2.87911 0
M  V30 33406 H 3358.75 0.47339 1.48959 0
M  V30 33407 H 3359.49 -1.72894 2.74369 0
M  V30 33408 H 3359.27 -0.384794 3.90207 0
M  V30 33409 H 3360.76 -1.3741 3.94345 0
M  V30 33410 N 3361.2 -1.50894 0.454829 0
M  V30 33411 C 3362.13 -2.25964 -0.383786 0
M  V30 33412 C 3363.14 -1.30655 -0.97124 0
M  V30 33413 O 3364.33 -1.56284 -0.862406 0
M  V30 33414 C 3361.43 -3.01344 -1.55064 0
M  V30 33415 C 3360.61 -4.23885 -1.07892 0
M  V30 33416 C 3359.67 -4.81696 -2.11792 0
M  V30 33417 O 3358.69 -5.4306 -1.70513 0
M  V30 33418 N 3359.89 -4.67262 -3.44451 0
M  V30 33419 H 3362.66 -2.98573 0.259698 0
M  V30 33420 H 3360.22 -1.59377 0.284689 0
M  V30 33421 H 3362.21 -3.36902 -2.2423 0
M  V30 33422 H 3360.78 -2.31636 -2.09913 0
M  V30 33423 H 3360 -3.9362 -0.213703 0
M  V30 33424 H 3361.29 -5.03369 -0.741412 0
M  V30 33425 H 3360.69 -4.18423 -3.80708 0
M  V30 33426 H 3359.24 -5.07134 -4.09461 0
M  V30 33427 N 3362.68 -0.186817 -1.56489 0
M  V30 33428 C 3363.92 0.454796 -1.97635 0
M  V30 33429 C 3364.26 1.61841 -1.07337 0
M  V30 33430 O 3363.53 1.94107 -0.123646 0
M  V30 33431 C 3363.81 0.922901 -3.48073 0
M  V30 33432 C 3363.67 -0.241956 -4.49149 0
M  V30 33433 C 3364.99 1.79127 -4.01997 0
M  V30 33434 H 3362.11 0.163842 -0.718557 0
M  V30 33435 H 3364.75 -0.276073 -1.87984 0
M  V30 33436 H 3362.9 1.54568 -3.56428 0
M  V30 33437 H 3364.57 -0.879439 -4.52839 0
M  V30 33438 H 3362.81 -0.895039 -4.24466 0
M  V30 33439 H 3363.48 0.127954 -5.51852 0
M  V30 33440 H 3365.96 1.26611 -3.9637 0
M  V30 33441 H 3364.84 2.08778 -5.07645 0
M  V30 33442 H 3365.1 2.74254 -3.46752 0
M  V30 33443 N 3364.16 1.57361 0.0868344 0
M  V30 33444 C 3365.38 1.90718 0.802134 0
M  V30 33445 C 3365.8 0.781334 1.71874 0
M  V30 33446 O 3365.16 -0.246223 1.80831 0
M  V30 33447 C 3365.21 3.23742 1.60852 0
M  V30 33448 O 3364.93 4.31996 0.728775 0
M  V30 33449 C 3366.43 3.71016 2.42615 0
M  V30 33450 H 3363.65 0.630749 0.228903 0
M  V30 33451 H 3366.19 2.04407 0.0615981 0
M  V30 33452 H 3364.35 3.11626 2.30148 0
M  V30 33453 H 3364.76 5.08437 1.28811 0
M  V30 33454 H 3366.24 4.66766 2.94675 0
M  V30 33455 H 3366.71 2.9927 3.21456 0
M  V30 33456 H 3367.32 3.86027 1.78503 0
M  V30 33457 N 3365.63 -0.357865 1.53483 0
M  V30 33458 C 3366.88 -1.09773 1.71235 0
M  V30 33459 C 3367.23 -1.8676 0.462434 0
M  V30 33460 O 3366.53 -1.83694 -0.544713 0
M  V30 33461 C 3366.72 -2.07973 2.90658 0
M  V30 33462 C 3366.55 -1.40636 4.27143 0
M  V30 33463 C 3365.32 -1.15723 4.9187 0
M  V30 33464 C 3367.52 -0.840029 5.07393 0
M  V30 33465 N 3365.5 -0.448175 6.12262 0
M  V30 33466 C 3366.87 -0.260754 6.19451 0
M  V30 33467 C 3368.93 -0.739471 4.92378 0
M  V30 33468 C 3367.63 0.40928 7.18135 0
M  V30 33469 C 3369.66 -0.0832045 5.91341 0
M  V30 33470 C 3369.02 0.485162 7.02727 0
M  V30 33471 H 3365.12 -0.38657 0.67977 0
M  V30 33472 H 3367.7 -0.383125 1.90893 0
M  V30 33473 H 3365.87 -2.76739 2.72525 0
M  V30 33474 H 3367.6 -2.74693 2.97196 0
M  V30 33475 H 3364.36 -1.44056 4.51159 0
M  V30 33476 H 3364.78 -0.108786 6.76913 0
M  V30 33477 H 3369.42 -1.16465 4.06443 0
M  V30 33478 H 3367.14 0.846388 8.03655 0
M  V30 33479 H 3370.73 -0.00622256 5.818 0
M  V30 33480 H 3369.61 0.984939 7.7799 0
M  V30 33481 N 3367.11 -1.44974 -0.618094 0
M  V30 33482 C 3368.34 -1.51727 -1.40223 0
M  V30 33483 C 3368.75 -0.145131 -1.88643 0
M  V30 33484 O 3368.09 0.861648 -1.62238 0
M  V30 33485 C 3368.15 -2.43144 -2.64804 0
M  V30 33486 C 3367.82 -3.90078 -2.38094 0
M  V30 33487 C 3368.82 -4.80262 -1.99108 0
M  V30 33488 C 3366.5 -4.349 -2.5133 0
M  V30 33489 C 3368.49 -6.13274 -1.73705 0
M  V30 33490 C 3366.18 -5.67956 -2.25542 0
M  V30 33491 C 3367.18 -6.56962 -1.8679 0
M  V30 33492 O 3366.87 -7.87552 -1.61296 0
M  V30 33493 H 3366.6 -0.516592 -0.436015 0
M  V30 33494 H 3369.15 -1.90747 -0.761896 0
M  V30 33495 H 3367.38 -1.99076 -3.3152 0
M  V30 33496 H 3369.07 -2.407 -3.26831 0
M  V30 33497 H 3369.84 -4.46901 -1.88427 0
M  V30 33498 H 3365.72 -3.65872 -2.80462 0
M  V30 33499 H 3369.26 -6.82706 -1.43383 0
M  V30 33500 H 3365.16 -6.00876 -2.35836 0
M  V30 33501 H 3365.93 -7.99478 -1.75435 0
M  V30 33502 N 3368.59 0.85967 -1.32089 0
M  V30 33503 C 3369.54 1.96782 -1.20605 0
M  V30 33504 C 3370.51 1.65859 -0.0893841 0
M  V30 33505 O 3371.69 1.88964 -0.264055 0
M  V30 33506 C 3368.83 3.32335 -0.92993 0
M  V30 33507 C 3367.94 3.75788 -2.13091 0
M  V30 33508 C 3367.08 5.00107 -1.7907 0
M  V30 33509 C 3366.12 5.36038 -2.95517 0
M  V30 33510 N 3365.26 6.51535 -2.61622 0
M  V30 33511 H 3370.1 2.05936 -2.15393 0
M  V30 33512 H 3367.63 1.00801 -1.07133 0
M  V30 33513 H 3369.59 4.10397 -0.750357 0
M  V30 33514 H 3368.22 3.22794 -0.0188496 0
M  V30 33515 H 3367.27 2.93421 -2.42092 0
M  V30 33516 H 3368.58 3.98339 -3.00212 0
M  V30 33517 H 3367.74 5.85864 -1.57635 0
M  V30 33518 H 3366.48 4.79482 -0.891543 0
M  V30 33519 H 3365.48 4.48796 -3.17589 0
M  V30 33520 H 3366.71 5.58623 -3.86157 0
M  V30 33521 H 3364.65 6.32436 -1.74242 0
M  V30 33522 H 3364.57 6.74081 -3.42274 0
M  V30 33523 H 3365.84 7.40457 -2.43605 0
M  V30 33524 N 3370.07 1.15217 1.0753 0
M  V30 33525 C 3371.48 0.894434 1.32182 0
M  V30 33526 C 3371.68 -0.459579 1.96189 0
M  V30 33527 O 3370.74 -1.20191 2.2206 0
M  V30 33528 C 3372.05 2.03401 2.21469 0
M  V30 33529 C 3373.6 2.06833 2.34924 0
M  V30 33530 C 3374.08 3.20108 3.27559 0
M  V30 33531 N 3375.57 3.19744 3.35138 0
M  V30 33532 C 3376.3 4.04032 4.06873 0
M  V30 33533 N 3375.8 4.9838 4.81237 0
M  V30 33534 N 3377.59 3.92062 4.02795 0
M  V30 33535 H 3369.74 2.02411 0.643696 0
M  V30 33536 H 3372 0.882502 0.346256 0
M  V30 33537 H 3371.71 3.0113 1.81696 0
M  V30 33538 H 3371.58 1.96481 3.21986 0
M  V30 33539 H 3373.97 1.09704 2.73951 0
M  V30 33540 H 3374.05 2.17821 1.34118 0
M  V30 33541 H 3373.7 4.17488 2.8925 0
M  V30 33542 H 3373.63 3.06357 4.28314 0
M  V30 33543 H 3376.12 2.51417 2.82131 0
M  V30 33544 H 3376.43 5.5914 5.33462 0
M  V30 33545 H 3374.78 5.0237 4.8026 0
M  V30 33546 H 3377.97 3.17667 3.4381 0
M  V30 33547 H 3378.14 4.57975 4.58435 0
M  V30 33548 N 3371.55 -1.25848 0.948687 0
M  V30 33549 C 3372.79 -1.93017 0.599084 0
M  V30 33550 C 3373.12 -1.74726 -0.865783 0
M  V30 33551 O 3372.39 -1.10734 -1.616 0
M  V30 33552 H 3370.97 -0.714306 0.218577 0
M  V30 33553 H 3373.63 -1.53135 1.20564 0
M  V30 33554 H 3372.72 -3.01045 0.823297 0
M  V30 33555 N 3373.02 -0.716569 -1.40368 0
M  V30 33556 C 3374.27 -0.255994 -2.00472 0
M  V30 33557 C 3374.59 1.15511 -1.57106 0
M  V30 33558 O 3373.86 1.78326 -0.810956 0
M  V30 33559 H 3372.44 -0.0916557 -0.741356 0
M  V30 33560 H 3375.11 -0.922419 -1.7169 0
M  V30 33561 H 3374.2 -0.289861 -3.10751 0
M  V30 33562 N 3374.5 1.50651 -0.462825 0
M  V30 33563 C 3375.73 2.07181 0.0952362 0
M  V30 33564 C 3376.15 1.32535 1.33476 0
M  V30 33565 O 3375.51 0.370596 1.77472 0
M  V30 33566 C 3375.56 3.58691 0.370529 0
M  V30 33567 O 3374.66 3.85973 1.45253 0
M  V30 33568 H 3374 0.663934 -0.00933869 0
M  V30 33569 H 3376.53 1.9395 -0.651492 0
M  V30 33570 H 3376.54 4.03361 0.61348 0
M  V30 33571 H 3375.22 4.12441 -0.535291 0
M  V30 33572 H 3373.8 3.53148 1.19754 0
M  V30 33573 N 3375.98 0.195113 1.56388 0
M  V30 33574 C 3376.91 -0.720932 2.22092 0
M  V30 33575 C 3377.89 -1.22126 1.18403 0
M  V30 33576 O 3379.08 -1.2701 1.46909 0
M  V30 33577 C 3376.21 -1.94054 2.88028 0
M  V30 33578 C 3375.16 -1.57513 3.97962 0
M  V30 33579 C 3374.49 -2.87135 4.51063 0
M  V30 33580 C 3375.79 -0.785054 5.16366 0
M  V30 33581 H 3377.48 -0.173193 2.98899 0
M  V30 33582 H 3375.03 -0.0818615 1.43767 0
M  V30 33583 H 3376.98 -2.5866 3.32676 0
M  V30 33584 H 3375.7 -2.51281 2.08627 0
M  V30 33585 H 3374.36 -0.952653 3.54006 0
M  V30 33586 H 3374.01 -3.42451 3.68424 0
M  V30 33587 H 3373.71 -2.6343 5.25241 0
M  V30 33588 H 3375.23 -3.52729 4.98412 0
M  V30 33589 H 3376.65 -1.33421 5.57559 0
M  V30 33590 H 3375.05 -0.646126 5.96611 0
M  V30 33591 H 3376.12 0.213874 4.84428 0
M  V30 33592 N 3377.46 -1.57404 -0.0784879 0
M  V30 33593 C 3378.87 -1.7571 -0.631101 0
M  V30 33594 C 3379.22 -0.819637 -1.78259 0
M  V30 33595 O 3378.35 -0.00210716 -2.164 0
M  V30 33596 C 3378.94 -3.18627 -1.15162 0
M  V30 33597 C 3377.5 -3.383 -1.65015 0
M  V30 33598 C 3376.65 -2.71447 -0.566725 0
M  V30 33599 H 3379.6 -1.58012 0.147659 0
M  V30 33600 H 3379.62 -3.22416 -2.02059 0
M  V30 33601 H 3379.13 -3.86833 -0.313331 0
M  V30 33602 H 3377.23 -2.75198 -2.51191 0
M  V30 33603 H 3377.34 -4.46709 -1.73171 0
M  V30 33604 H 3375.71 -2.33811 -1.01017 0
M  V30 33605 H 3376.49 -3.42304 0.261264 0
M  V30 33606 N 3378.94 0.34972 -1.53671 0
M  V30 33607 C 3379.9 1.41207 -1.80536 0
M  V30 33608 C 3380.9 1.4589 -0.676213 0
M  V30 33609 O 3382.09 1.46374 -0.944479 0
M  V30 33610 C 3379.22 2.80191 -1.9418 0
M  V30 33611 H 3380.41 1.18653 -2.7543 0
M  V30 33612 H 3377.97 0.583762 -1.44989 0
M  V30 33613 H 3378.7 3.08037 -1.01407 0
M  V30 33614 H 3378.49 2.78189 -2.76321 0
M  V30 33615 H 3379.98 3.57095 -2.16502 0
M  V30 33616 N 3380.41 1.45299 0.610397 0
M  V30 33617 C 3381.83 1.29643 0.930849 0
M  V30 33618 C 3382.03 0.247393 1.99976 0
M  V30 33619 O 3381.09 -0.35963 2.49926 0
M  V30 33620 C 3382.4 2.6745 1.37444 0
M  V30 33621 C 3383.95 2.75325 1.4888 0
M  V30 33622 C 3384.42 4.1365 1.96616 0
M  V30 33623 N 3385.91 4.1593 2.03854 0
M  V30 33624 C 3386.65 5.19828 2.42006 0
M  V30 33625 N 3386.14 6.34074 2.79146 0
M  V30 33626 N 3387.94 5.07186 2.42321 0
M  V30 33627 H 3380.09 2.12182 -0.0961632 0
M  V30 33628 H 3382.35 0.947797 0.0196316 0
M  V30 33629 H 3382.06 3.4539 0.663215 0
M  V30 33630 H 3381.93 2.95725 2.3415 0
M  V30 33631 H 3384.32 1.9769 2.19095 0
M  V30 33632 H 3384.4 2.50766 0.504962 0
M  V30 33633 H 3384.04 4.91768 1.2699 0
M  V30 33634 H 3383.97 4.35598 2.95909 0
M  V30 33635 H 3386.46 3.33485 1.77753 0
M  V30 33636 H 3386.78 7.09148 3.07131 0
M  V30 33637 H 3385.12 6.37479 2.76849 0
M  V30 33638 H 3388.31 4.1698 2.12709 0
M  V30 33639 H 3388.49 5.88276 2.71727 0
M  V30 33640 N 3381.89 -0.852653 1.32543 0
M  V30 33641 C 3382.84 -1.94952 1.18227 0
M  V30 33642 C 3383.83 -1.60655 0.0886797 0
M  V30 33643 O 3385.02 -1.74167 0.315389 0
M  V30 33644 C 3382.15 -3.31032 0.909542 0
M  V30 33645 C 3381.23 -3.71542 2.04493 0
M  V30 33646 N 3381.62 -3.83862 3.29369 0
M  V30 33647 C 3379.92 -4.01183 1.94855 0
M  V30 33648 C 3380.62 -4.18764 4.03747 0
M  V30 33649 N 3379.6 -4.3039 3.32062 0
M  V30 33650 H 3383.4 -2.02613 2.12897 0
M  V30 33651 H 3380.92 -1.04454 1.24351 0
M  V30 33652 H 3382.91 -4.09386 0.787937 0
M  V30 33653 H 3381.57 -3.24687 -0.0287592 0
M  V30 33654 H 3382.58 -3.6813 3.64281 0
M  V30 33655 H 3379.26 -4.03129 1.08599 0
M  V30 33656 H 3380.65 -4.35748 5.11442 0
M  V30 33657 N 3383.37 -1.15786 -1.06918 0
M  V30 33658 C 3384.3 -0.816413 -2.14167 0
M  V30 33659 C 3385.32 0.173542 -1.61872 0
M  V30 33660 O 3386.5 -0.0503286 -1.78429 0
M  V30 33661 C 3383.6 -0.193742 -3.38346 0
M  V30 33662 C 3382.78 -1.22222 -4.19977 0
M  V30 33663 C 3381.84 -0.620516 -5.22529 0
M  V30 33664 O 3380.86 -1.28766 -5.54444 0
M  V30 33665 N 3382.06 0.595709 -5.77435 0
M  V30 33666 H 3384.83 -1.73941 -2.44059 0
M  V30 33667 H 3382.39 -1.05434 -1.22863 0
M  V30 33668 H 3384.38 0.221668 -4.04092 0
M  V30 33669 H 3382.95 0.632681 -3.06131 0
M  V30 33670 H 3382.17 -1.81403 -3.49981 0
M  V30 33671 H 3383.46 -1.9165 -4.71326 0
M  V30 33672 H 3382.86 1.15602 -5.53762 0
M  V30 33673 H 3381.42 0.953416 -6.44789 0
M  V30 33674 N 3384.85 1.25343 -0.955348 0
M  V30 33675 C 3386.09 1.93364 -0.611422 0
M  V30 33676 C 3386.43 1.74634 0.849499 0
M  V30 33677 O 3385.7 1.09188 1.6096 0
M  V30 33678 C 3385.99 3.46739 -0.971793 0
M  V30 33679 C 3385.84 3.74692 -2.4885 0
M  V30 33680 C 3387.16 4.3728 -0.497372 0
M  V30 33681 H 3384.28 0.702261 -0.223603 0
M  V30 33682 H 3386.92 1.47947 -1.19213 0
M  V30 33683 H 3385.07 3.85553 -0.477636 0
M  V30 33684 H 3386.74 3.4551 -3.05647 0
M  V30 33685 H 3384.98 3.20273 -2.92588 0
M  V30 33686 H 3385.65 4.81955 -2.69115 0
M  V30 33687 H 3388.13 4.05773 -0.921268 0
M  V30 33688 H 3387.01 5.43355 -0.778209 0
M  V30 33689 H 3387.27 4.37973 0.602666 0
M  V30 33690 N 3386.33 0.724003 1.39986 0
M  V30 33691 C 3387.74 0.39843 1.54547 0
M  V30 33692 C 3387.94 -1.09192 1.6935 0
M  V30 33693 O 3387 -1.87801 1.68781 0
M  V30 33694 C 3388.31 1.17184 2.76927 0
M  V30 33695 C 3389.86 1.15898 2.90752 0
M  V30 33696 C 3390.34 1.91473 4.16056 0
M  V30 33697 N 3391.83 1.88583 4.23073 0
M  V30 33698 C 3392.56 2.43877 5.18953 0
M  V30 33699 N 3392.06 3.07761 6.20689 0
M  V30 33700 N 3393.85 2.33971 5.11091 0
M  V30 33701 H 3386 1.69026 1.28624 0
M  V30 33702 H 3388.26 0.714905 0.622587 0
M  V30 33703 H 3387.97 2.22596 2.72294 0
M  V30 33704 H 3387.84 0.769006 3.69278 0
M  V30 33705 H 3390.23 0.11303 2.94883 0
M  V30 33706 H 3390.31 1.60111 1.99495 0
M  V30 33707 H 3389.96 2.96063 4.12686 0
M  V30 33708 H 3389.89 1.44674 5.06337 0
M  V30 33709 H 3392.38 1.42033 3.50193 0
M  V30 33710 H 3392.69 3.47447 6.9029 0
M  V30 33711 H 3391.04 3.11847 6.21109 0
M  V30 33712 H 3394.23 1.83714 4.30543 0
M  V30 33713 H 3394.4 2.77363 5.85639 0
M  V30 33714 N 3387.81 -1.50403 0.470808 0
M  V30 33715 C 3389.05 -2.01925 -0.0841139 0
M  V30 33716 C 3389.37 -1.35489 -1.40242 0
M  V30 33717 O 3388.64 -0.500145 -1.89408 0
M  V30 33718 H 3387.22 -0.746222 -0.0340753 0
M  V30 33719 H 3389.89 -1.84736 0.621165 0
M  V30 33720 H 3388.98 -3.11208 -0.235822 0
M  V30 33721 N 3389.28 -0.203404 -1.56282 0
M  V30 33722 C 3390.51 0.441623 -2.02644 0
M  V30 33723 C 3390.93 1.53828 -1.08252 0
M  V30 33724 O 3390.29 1.81174 -0.0674655 0
M  V30 33725 C 3390.34 0.967308 -3.47384 0
M  V30 33726 O 3389.44 2.07975 -3.56118 0
M  V30 33727 H 3388.78 0.10223 -0.656083 0
M  V30 33728 H 3391.31 -0.316719 -2.02134 0
M  V30 33729 H 3391.32 1.28179 -3.87342 0
M  V30 33730 H 3390 0.164552 -4.15574 0
M  V30 33731 H 3388.58 1.77328 -3.28038 0
M  V30 33732 N 3390.76 1.57444 0.0701393 0
M  V30 33733 C 3392.18 1.53838 0.424964 0
M  V30 33734 C 3392.38 0.923825 1.79075 0
M  V30 33735 O 3391.43 0.527045 2.46938 0
M  V30 33736 C 3392.75 2.98483 0.36451 0
M  V30 33737 C 3394.29 3.09827 0.444577 0
M  V30 33738 C 3394.77 4.56125 0.414013 0
M  V30 33739 N 3396.26 4.60768 0.474038 0
M  V30 33740 C 3397 5.71449 0.472629 0
M  V30 33741 N 3396.49 6.91489 0.425937 0
M  V30 33742 N 3398.28 5.59696 0.51931 0
M  V30 33743 H 3390.44 1.95759 -0.824151 0
M  V30 33744 H 3392.7 0.896083 -0.309417 0
M  V30 33745 H 3392.4 3.47011 -0.572404 0
M  V30 33746 H 3392.28 3.58462 1.17408 0
M  V30 33747 H 3394.67 2.61271 1.37191 0
M  V30 33748 H 3394.75 2.52754 -0.393592 0
M  V30 33749 H 3394.39 5.05338 -0.509483 0
M  V30 33750 H 3394.32 5.11063 1.26974 0
M  V30 33751 H 3396.81 3.74384 0.514305 0
M  V30 33752 H 3397.12 7.71609 0.428833 0
M  V30 33753 H 3395.47 6.9389 0.3926 0
M  V30 33754 H 3398.66 4.64816 0.553491 0
M  V30 33755 H 3398.83 6.45952 0.514742 0
M  V30 33756 N 3392.24 -0.341566 1.53854 0
M  V30 33757 C 3393.17 -1.42509 1.84968 0
M  V30 33758 C 3394.15 -1.54804 0.704972 0
M  V30 33759 O 3395.34 -1.68979 0.957066 0
M  V30 33760 C 3392.47 -2.79533 2.06104 0
M  V30 33761 C 3391.42 -2.82044 3.21924 0
M  V30 33762 C 3390.75 -4.21971 3.28396 0
M  V30 33763 C 3392.05 -2.47402 4.59988 0
M  V30 33764 H 3393.74 -1.1672 2.75712 0
M  V30 33765 H 3391.29 -0.56005 1.32663 0
M  V30 33766 H 3393.24 -3.55382 2.26454 0
M  V30 33767 H 3391.96 -3.06762 1.12093 0
M  V30 33768 H 3390.62 -2.08648 3.01433 0
M  V30 33769 H 3390.27 -4.46313 2.31977 0
M  V30 33770 H 3389.97 -4.24562 4.06228 0
M  V30 33771 H 3391.49 -4.9966 3.5096 0
M  V30 33772 H 3392.91 -3.12965 4.8034 0
M  V30 33773 H 3391.3 -2.61273 5.40237 0
M  V30 33774 H 3392.37 -1.42586 4.63462 0
M  V30 33775 N 3393.72 -1.45621 -0.602683 0
M  V30 33776 C 3394.95 -1.53206 -1.38606 0
M  V30 33777 C 3395.36 -0.165131 -1.88478 0
M  V30 33778 O 3394.7 0.844392 -1.63143 0
M  V30 33779 C 3394.76 -2.45939 -2.6221 0
M  V30 33780 C 3394.42 -3.92581 -2.33943 0
M  V30 33781 C 3395.42 -4.82347 -1.94003 0
M  V30 33782 C 3393.11 -4.37542 -2.46703 0
M  V30 33783 C 3395.1 -6.15082 -1.67191 0
M  V30 33784 C 3392.79 -5.70316 -2.19505 0
M  V30 33785 C 3393.79 -6.58906 -1.79811 0
M  V30 33786 O 3393.47 -7.89219 -1.52934 0
M  V30 33787 H 3393.21 -0.521187 -0.430511 0
M  V30 33788 H 3395.76 -1.91544 -0.741622 0
M  V30 33789 H 3393.99 -2.02581 -3.2939 0
M  V30 33790 H 3395.68 -2.44153 -3.24259 0
M  V30 33791 H 3396.44 -4.48874 -1.83676 0
M  V30 33792 H 3392.32 -3.68826 -2.76565 0
M  V30 33793 H 3395.87 -6.84188 -1.36134 0
M  V30 33794 H 3391.76 -6.03343 -2.2945 0
M  V30 33795 H 3392.53 -8.01294 -1.66946 0
M  V30 33796 N 3395.2 0.845612 -1.32993 0
M  V30 33797 C 3396.44 1.59533 -1.23418 0
M  V30 33798 C 3396.76 1.94572 0.200244 0
M  V30 33799 O 3397.96 2.68264 0.417946 0
M  V30 33800 C 3396.42 2.87716 -2.16212 0
M  V30 33801 C 3396.03 2.60067 -3.64787 0
M  V30 33802 C 3397.77 3.65736 -2.15494 0
M  V30 33803 C 3395.68 3.84305 -4.49515 0
M  V30 33804 H 3394.61 0.598671 -0.458376 0
M  V30 33805 H 3397.26 0.932953 -1.58013 0
M  V30 33806 H 3395.64 3.55459 -1.74541 0
M  V30 33807 H 3396.82 2.00577 -4.14856 0
M  V30 33808 H 3395.13 1.95362 -3.67726 0
M  V30 33809 H 3397.73 4.57943 -2.76029 0
M  V30 33810 H 3398.07 4.00151 -1.14825 0
M  V30 33811 H 3398.6 3.04908 -2.55492 0
M  V30 33812 H 3395.34 3.55025 -5.51033 0
M  V30 33813 H 3394.86 4.43157 -4.04192 0
M  V30 33814 H 3396.54 4.51953 -4.62977 0
M  V30 33815 N 3396.67 1.16351 1.06302 0
M  V30 33816 C 3397.92 0.944972 1.79099 0
M  V30 33817 C 3398.25 -0.527218 1.87218 0
M  V30 33818 O 3397.5 -1.40727 1.35994 0
M  V30 33819 C 3397.8 1.51746 3.23586 0
M  V30 33820 C 3397.47 3.01196 3.35547 0
M  V30 33821 C 3396.13 3.41992 3.38519 0
M  V30 33822 C 3398.48 3.9719 3.37475 0
M  V30 33823 C 3395.81 4.77402 3.41034 0
M  V30 33824 C 3398.16 5.32486 3.41528 0
M  V30 33825 C 3396.83 5.72763 3.42782 0
M  V30 33826 H 3396.1 0.34579 0.655371 0
M  V30 33827 H 3398.74 1.45065 1.25014 0
M  V30 33828 H 3397.05 0.93323 3.80523 0
M  V30 33829 H 3398.75 1.32405 3.7851 0
M  V30 33830 H 3395.34 2.68667 3.3394 0
M  V30 33831 H 3399.52 3.66738 3.3439 0
M  V30 33832 H 3394.78 5.07937 3.40308 0
M  V30 33833 H 3398.95 6.06656 3.41967 0
M  V30 33834 H 3396.58 6.77669 3.44483 0
M  V30 33835 N 3398.15 -1.24835 0.961982 0
M  V30 33836 C 3399.08 -2.24831 0.445369 0
M  V30 33837 C 3400.1 -1.56663 -0.44277 0
M  V30 33838 O 3401.29 -1.76743 -0.249865 0
M  V30 33839 C 3398.39 -3.36798 -0.376894 0
M  V30 33840 C 3397.56 -4.34533 0.499984 0
M  V30 33841 C 3396.62 -5.25531 -0.26531 0
M  V30 33842 O 3395.64 -5.68191 0.338807 0
M  V30 33843 N 3396.85 -5.59245 -1.55644 0
M  V30 33844 H 3399.61 -2.69791 1.3051 0
M  V30 33845 H 3397.17 -1.38817 0.833162 0
M  V30 33846 H 3399.16 -3.94639 -0.896762 0
M  V30 33847 H 3397.73 -2.91169 -1.13752 0
M  V30 33848 H 3396.95 -3.75463 1.20088 0
M  V30 33849 H 3398.24 -4.96806 1.09823 0
M  V30 33850 H 3397.64 -5.26504 -2.06906 0
M  V30 33851 H 3396.2 -6.1964 -2.02212 0
M  V30 33852 N 3399.63 -0.731417 -1.396 0
M  V30 33853 C 3400.59 -0.0976439 -2.28992 0
M  V30 33854 C 3401.59 0.670891 -1.46136 0
M  V30 33855 O 3402.78 0.50044 -1.66857 0
M  V30 33856 C 3399.91 0.871066 -3.29583 0
M  V30 33857 H 3401.11 -0.885162 -2.8654 0
M  V30 33858 H 3398.66 -0.497028 -1.48187 0
M  V30 33859 H 3399.4 1.68507 -2.77085 0
M  V30 33860 H 3399.18 0.322666 -3.9077 0
M  V30 33861 H 3400.67 1.31119 -3.96481 0
M  V30 33862 N 3401.11 1.50152 -0.478778 0
M  V30 33863 C 3402.33 2.07271 0.0732565 0
M  V30 33864 C 3402.76 1.33944 1.32063 0
M  V30 33865 O 3402.12 0.389398 1.77069 0
M  V30 33866 C 3402.16 3.59064 0.332465 0
M  V30 33867 O 3401.27 3.87492 1.41151 0
M  V30 33868 H 3400.61 0.663798 -0.0163801 0
M  V30 33869 H 3403.14 1.93248 -0.672027 0
M  V30 33870 H 3403.15 4.03989 0.570664 0
M  V30 33871 H 3401.82 4.1185 -0.579006 0
M  V30 33872 H 3400.4 3.54398 1.16002 0
M  V30 33873 N 3402.59 0.211689 1.56172 0
M  V30 33874 C 3404 -0.297949 1.84307 0
M  V30 33875 C 3404.35 -1.60192 1.13283 0
M  V30 33876 O 3403.47 -2.12687 0.399175 0
M  V30 33877 C 3404.07 -0.547369 3.34349 0
M  V30 33878 C 3402.63 -1.00134 3.62836 0
M  V30 33879 C 3401.77 -0.0589839 2.77237 0
M  V30 33880 H 3404.73 0.435109 1.52619 0
M  V30 33881 H 3404.75 -1.39463 3.5402 0
M  V30 33882 H 3404.26 0.401845 3.86014 0
M  V30 33883 H 3402.36 -1.96425 3.16619 0
M  V30 33884 H 3402.47 -0.882571 4.70901 0
M  V30 33885 H 3400.84 -0.563962 2.48378 0
M  V30 33886 H 3401.62 0.884971 3.31697 0
M  V30 33887 N 3404.06 -1.57479 -0.0617887 0
M  V30 33888 C 3405.03 -2.03382 -1.0568 0
M  V30 33889 C 3406.03 -0.932446 -1.31004 0
M  V30 33890 O 3407.22 -1.19704 -1.26556 0
M  V30 33891 C 3404.35 -2.42299 -2.398 0
M  V30 33892 H 3405.54 -2.92526 -0.660955 0
M  V30 33893 H 3403.1 -1.5324 -0.307787 0
M  V30 33894 H 3403.83 -1.56212 -2.84198 0
M  V30 33895 H 3403.62 -3.22678 -2.22759 0
M  V30 33896 H 3405.11 -2.78354 -3.11302 0
M  V30 33897 N 3405.54 0.333401 -1.54033 0
M  V30 33898 C 3406.82 1.09013 -1.62406 0
M  V30 33899 C 3407.2 2.06211 -0.451689 0
M  V30 33900 O 3406.55 2.21656 0.555047 0
M  V30 33901 C 3406.76 1.8008 -2.98952 0
M  V30 33902 C 3408.11 2.33457 -3.54659 0
M  V30 33903 O 3409.13 1.90161 -3.01193 0
M  V30 33904 O 3407.99 3.12696 -4.48201 0
M  V30 33905 H 3405.08 0.50191 -0.657279 0
M  V30 33906 H 3407.63 0.334081 -1.66379 0
M  V30 33907 H 3406.4 1.09326 -3.75717 0
M  V30 33908 H 3406.02 2.62518 -2.98614 0
M  V30 33909 N 3407.02 1.45939 0.594952 0
M  V30 33910 C 3407.98 1.55171 1.68685 0
M  V30 33911 C 3408.98 0.429978 1.54945 0
M  V30 33912 O 3410.17 0.693887 1.59784 0
M  V30 33913 C 3407.31 1.46033 3.08038 0
M  V30 33914 H 3408.5 2.52469 1.61862 0
M  V30 33915 H 3406.05 1.33567 0.811762 0
M  V30 33916 H 3406.79 0.499671 3.20427 0
M  V30 33917 H 3406.57 2.27407 3.19419 0
M  V30 33918 H 3408.06 1.55553 3.87548 0
M  V30 33919 N 3408.5 -0.838547 1.3344 0
M  V30 33920 C 3409.75 -1.59067 1.24668 0
M  V30 33921 C 3410.07 -1.94097 -0.187399 0
M  V30 33922 O 3409.34 -1.60989 -1.11622 0
M  V30 33923 H 3407.92 -0.589781 0.45844 0
M  V30 33924 H 3410.58 -1.00213 1.67163 0
M  V30 33925 H 3409.68 -2.52048 1.84061 0
M  V30 33926 N 3409.98 -1.16914 -1.05683 0
M  V30 33927 C 3410.91 -0.839082 -2.13289 0
M  V30 33928 C 3411.92 0.156363 -1.62047 0
M  V30 33929 O 3413.11 -0.0692506 -1.78366 0
M  V30 33930 C 3410.21 -0.229617 -3.38121 0
M  V30 33931 C 3409.38 -1.2667 -4.18657 0
M  V30 33932 C 3408.44 -0.675902 -5.21841 0
M  V30 33933 O 3407.47 -1.3464 -5.53047 0
M  V30 33934 N 3408.67 0.534431 -5.78035 0
M  V30 33935 H 3411.44 -1.7652 -2.422 0
M  V30 33936 H 3409 -1.06731 -1.21738 0
M  V30 33937 H 3410.99 0.178797 -4.04305 0
M  V30 33938 H 3409.56 0.600176 -3.06784 0
M  V30 33939 H 3408.78 -1.85105 -3.48037 0
M  V30 33940 H 3410.07 -1.96638 -4.69266 0
M  V30 33941 H 3409.46 1.09722 -5.54957 0
M  V30 33942 H 3408.02 0.884973 -6.45764 0
M  V30 33943 N 3411.45 1.24323 -0.968589 0
M  V30 33944 C 3412.68 1.96186 -0.647662 0
M  V30 33945 C 3413.09 1.72044 0.787237 0
M  V30 33946 O 3412.44 1.00158 1.53994 0
M  V30 33947 C 3412.5 3.49462 -0.843579 0
M  V30 33948 C 3412.16 3.97304 -2.25829 0
M  V30 33949 C 3413.16 4.06907 -3.23609 0
M  V30 33950 C 3410.84 4.30604 -2.58622 0
M  V30 33951 C 3412.84 4.49146 -4.52268 0
M  V30 33952 C 3410.52 4.72527 -3.87507 0
M  V30 33953 C 3411.52 4.81763 -4.84142 0
M  V30 33954 O 3411.21 5.22749 -6.10728 0
M  V30 33955 H 3410.94 0.631742 -0.240579 0
M  V30 33956 H 3413.5 1.59084 -1.29929 0
M  V30 33957 H 3411.73 3.86465 -0.134784 0
M  V30 33958 H 3413.42 4.02535 -0.521604 0
M  V30 33959 H 3414.18 3.81397 -2.99603 0
M  V30 33960 H 3410.06 4.22634 -1.84123 0
M  V30 33961 H 3413.6 4.5627 -5.27697 0
M  V30 33962 H 3409.5 4.97485 -4.11314 0
M  V30 33963 H 3410.27 5.40896 -6.14308 0
M  V30 33964 N 3412.93 0.73881 1.3921 0
M  V30 33965 C 3414.18 0.288852 2.00732 0
M  V30 33966 C 3414.51 -1.12217 1.58496 0
M  V30 33967 O 3413.79 -1.76573 0.81561 0
M  V30 33968 C 3414.07 0.395019 3.57927 0
M  V30 33969 C 3413.92 1.84608 4.1017 0
M  V30 33970 C 3415.24 -0.220318 4.39548 0
M  V30 33971 H 3412.36 0.106431 0.729275 0
M  V30 33972 H 3415 0.935681 1.65363 0
M  V30 33973 H 3413.15 -0.155676 3.88188 0
M  V30 33974 H 3414.82 2.45395 3.90614 0
M  V30 33975 H 3413.07 2.36613 3.63588 0
M  V30 33976 H 3413.74 1.87161 5.19302 0
M  V30 33977 H 3416.21 0.249171 4.15353 0
M  V30 33978 H 3415.09 -0.115709 5.48778 0
M  V30 33979 H 3415.35 -1.30684 4.22344 0
M  V30 33980 N 3414.41 -1.49895 0.486734 0
M  V30 33981 C 3415.65 -2.04308 -0.0613628 0
M  V30 33982 C 3416.01 -1.35951 -1.35578 0
M  V30 33983 O 3417.22 -1.81004 -1.98723 0
M  V30 33984 C 3415.49 -3.5669 -0.225104 0
M  V30 33985 S 3417.05 -4.32694 -0.729505 0
M  V30 33986 H 3413.86 -0.710949 -0.00854988 0
M  V30 33987 H 3416.47 -1.84114 0.657447 0
M  V30 33988 H 3415.17 -4.0399 0.722518 0
M  V30 33989 H 3414.7 -3.81265 -0.969572 0
M  V30 33990 H 3416.72 -4.54076 -2.00074 0
M  V30 33991 N 3415.89 -0.219968 -1.56057 0
M  V30 33992 C 3417.31 0.135448 -1.59024 0
M  V30 33993 C 3417.51 1.59081 -1.23675 0
M  V30 33994 O 3416.56 2.33073 -0.971238 0
M  V30 33995 C 3417.87 -0.189408 -3.00103 0
M  V30 33996 C 3419.42 -0.131518 -3.12724 0
M  V30 33997 C 3419.9 -0.430027 -4.55977 0
M  V30 33998 N 3421.39 -0.379541 -4.61642 0
M  V30 33999 C 3422.12 -0.584031 -5.70418 0
M  V30 34000 N 3421.62 -0.850209 -6.87563 0
M  V30 34001 N 3423.41 -0.516576 -5.59721 0
M  V30 34002 H 3415.56 -1.16938 -1.77311 0
M  V30 34003 H 3417.83 -0.468598 -0.824088 0
M  V30 34004 H 3417.53 -1.19946 -3.30614 0
M  V30 34005 H 3417.41 0.496344 -3.7392 0
M  V30 34006 H 3419.79 0.869173 -2.8201 0
M  V30 34007 H 3419.87 -0.850722 -2.41239 0
M  V30 34008 H 3419.52 -1.42815 -4.87408 0
M  V30 34009 H 3419.45 0.310351 -5.25685 0
M  V30 34010 H 3421.94 -0.181439 -3.77464 0
M  V30 34011 H 3422.25 -0.994386 -7.66376 0
M  V30 34012 H 3420.6 -0.887386 -6.89312 0
M  V30 34013 H 3423.79 -0.308866 -4.6708 0
M  V30 34014 H 3423.96 -0.679349 -6.44429 0
M  V30 34015 N 3417.37 1.57509 0.0534363 0
M  V30 34016 C 3418.33 2.0394 1.046 0
M  V30 34017 C 3419.33 0.93938 1.30508 0
M  V30 34018 O 3420.52 1.20374 1.2592 0
M  V30 34019 C 3417.65 2.43567 2.38512 0
M  V30 34020 H 3418.85 2.92872 0.645432 0
M  V30 34021 H 3416.4 1.53401 0.299656 0
M  V30 34022 H 3417.13 1.57717 2.83365 0
M  V30 34023 H 3416.92 3.23855 2.21044 0
M  V30 34024 H 3418.41 2.80001 3.09821 0
M  V30 34025 N 3418.85 -0.325228 1.54208 0
M  V30 34026 C 3420.07 -1.08733 1.76612 0
M  V30 34027 C 3420.5 -1.80984 0.512481 0
M  V30 34028 O 3419.85 -1.73199 -0.535882 0
M  V30 34029 C 3419.9 -2.06238 2.95801 0
M  V30 34030 O 3419.01 -3.14105 2.6723 0
M  V30 34031 H 3418.35 -0.313583 0.585288 0
M  V30 34032 H 3420.88 -0.370031 2.01226 0
M  V30 34033 H 3420.89 -2.49137 3.23102 0
M  V30 34034 H 3419.56 -1.53051 3.86715 0
M  V30 34035 H 3418.14 -2.75892 2.50874 0
M  V30 34036 N 3420.32 -1.46252 -0.587204 0
M  V30 34037 C 3421.27 -1.56839 -1.71768 0
M  V30 34038 C 3422.27 -0.437125 -1.63663 0
M  V30 34039 O 3423.47 -0.613827 -1.6921 0
M  V30 34040 H 3419.85 -0.493022 -0.567832 0
M  V30 34041 H 3421.82 -2.51897 -1.5997 0
M  V30 34042 C 3420.57 -1.57157 -3.10156 0
M  V30 34043 H 3419.89 -2.43541 -3.17061 0
M  V30 34044 H 3421.33 -1.6862 -3.89029 0
M  V30 34045 C 3419.79 -0.299433 -3.35567 0
M  V30 34046 O 3420.32 0.612221 -3.97007 0
M  V30 34047 N 3418.52 -0.188746 -2.89986 0
M  V30 34048 H 3418.07 -0.931512 -2.40168 0
M  V30 34049 H 3418.03 0.661558 -3.07361 0
M  V30 34050 N 3421.8 0.831459 -1.33883 0
M  V30 34051 C 3423.05 1.58404 -1.2551 0
M  V30 34052 C 3423.37 1.94194 0.177103 0
M  V30 34053 O 3422.64 1.61578 1.10767 0
M  V30 34054 H 3421.22 0.587341 -0.461562 0
M  V30 34055 H 3423.88 0.993251 -1.67692 0
M  V30 34056 H 3422.98 2.51068 -1.85395 0
M  V30 34057 N 3423.28 1.17472 1.05062 0
M  V30 34058 C 3424.21 0.836065 2.12333 0
M  V30 34059 C 3425.19 -0.197705 1.61394 0
M  V30 34060 O 3426.37 -0.0789417 1.88335 0
M  V30 34061 C 3423.5 0.247399 3.37795 0
M  V30 34062 C 3422.55 1.25676 4.07563 0
M  V30 34063 S 3423.38 2.80861 4.55936 0
M  V30 34064 C 3424.54 2.23478 5.84644 0
M  V30 34065 H 3424.77 1.74457 2.40732 0
M  V30 34066 H 3422.3 0.999516 1.17682 0
M  V30 34067 H 3424.26 -0.085752 4.1041 0
M  V30 34068 H 3422.92 -0.63907 3.0753 0
M  V30 34069 H 3422.11 0.793553 4.97714 0
M  V30 34070 H 3421.72 1.53563 3.4102 0
M  V30 34071 H 3424.01 1.61115 6.58064 0
M  V30 34072 H 3424.95 3.11888 6.35713 0
M  V30 34073 H 3425.36 1.6688 5.39269 0
M  V30 34074 N 3424.76 -1.23807 0.975168 0
M  V30 34075 C 3425.67 -2.28782 0.519211 0
M  V30 34076 C 3426.68 -1.68769 -0.423457 0
M  V30 34077 O 3427.86 -1.99233 -0.294664 0
M  V30 34078 C 3424.92 -3.46252 -0.176168 0
M  V30 34079 C 3423.99 -4.21642 0.807252 0
M  V30 34080 C 3423.22 -5.33503 0.144963 0
M  V30 34081 O 3423.44 -5.60367 -1.06512 0
M  V30 34082 O 3422.38 -5.95997 0.840894 0
M  V30 34083 H 3426.2 -2.69916 1.39208 0
M  V30 34084 H 3423.79 -1.2964 0.742553 0
M  V30 34085 H 3425.67 -4.17575 -0.566474 0
M  V30 34086 H 3424.34 -3.0708 -1.02389 0
M  V30 34087 H 3423.25 -3.52664 1.24816 0
M  V30 34088 H 3424.58 -4.6465 1.62362 0
M  V30 34089 N 3426.24 -0.746182 -1.38816 0
M  V30 34090 C 3427.2 -0.121926 -2.28875 0
M  V30 34091 C 3428.2 0.655354 -1.46839 0
M  V30 34092 O 3429.39 0.482715 -1.67378 0
M  V30 34093 C 3426.52 0.83606 -3.30489 0
M  V30 34094 H 3427.71 -0.915503 -2.85585 0
M  V30 34095 H 3425.27 -0.512717 -1.47651 0
M  V30 34096 H 3426 1.65559 -2.78856 0
M  V30 34097 H 3425.79 0.281202 -3.9109 0
M  V30 34098 H 3427.28 1.26907 -3.9785 0
M  V30 34099 N 3427.71 1.49635 -0.494676 0
M  V30 34100 C 3428.94 2.07337 0.0512686 0
M  V30 34101 C 3429.36 1.35337 1.30635 0
M  V30 34102 O 3428.72 0.408157 1.76646 0
M  V30 34103 C 3428.77 3.59397 0.294362 0
M  V30 34104 O 3427.87 3.88967 1.37033 0
M  V30 34105 H 3427.21 0.663587 -0.0234196 0
M  V30 34106 H 3429.74 1.92525 -0.692485 0
M  V30 34107 H 3429.75 4.04572 0.527783 0
M  V30 34108 H 3428.43 4.11213 -0.622656 0
M  V30 34109 H 3427.01 3.55609 1.12236 0
M  V30 34110 N 3429.19 0.228241 1.55939 0
M  V30 34111 C 3430.44 -0.402032 1.97653 0
M  V30 34112 C 3430.75 -1.60421 1.11913 0
M  V30 34113 O 3431.96 -2.30443 1.43556 0
M  V30 34114 C 3430.42 -0.766662 3.51639 0
M  V30 34115 C 3430.02 0.413069 4.46092 0
M  V30 34116 C 3431.77 -1.36217 4.02051 0
M  V30 34117 C 3429.67 0.0256321 5.91394 0
M  V30 34118 H 3428.6 -0.153981 0.73811 0
M  V30 34119 H 3431.26 0.325511 1.8059 0
M  V30 34120 H 3429.64 -1.55181 3.64328 0
M  V30 34121 H 3430.81 1.19057 4.45154 0
M  V30 34122 H 3429.13 0.922252 4.06058 0
M  V30 34123 H 3431.72 -1.66506 5.08114 0
M  V30 34124 H 3432.07 -2.28026 3.48296 0
M  V30 34125 H 3432.6 -0.640309 3.92613 0
M  V30 34126 H 3429.34 0.910383 6.49147 0
M  V30 34127 H 3428.86 -0.716044 5.95511 0
M  V30 34128 H 3430.54 -0.398725 6.4577 0
M  V30 34129 N 3430.67 -1.57536 -0.0450825 0
M  V30 34130 C 3431.9 -1.92778 -0.751286 0
M  V30 34131 C 3432.31 -0.826628 -1.69742 0
M  V30 34132 O 3431.67 0.198192 -1.81421 0
M  V30 34133 C 3431.72 -3.27893 -1.52212 0
M  V30 34134 O 3431.44 -4.33776 -0.613982 0
M  V30 34135 C 3432.94 -3.77318 -2.32693 0
M  V30 34136 H 3430.16 -0.636596 -0.212099 0
M  V30 34137 H 3432.71 -2.04499 -0.00738146 0
M  V30 34138 H 3430.86 -3.17618 -2.21805 0
M  V30 34139 H 3431.28 -5.11673 -1.15285 0
M  V30 34140 H 3432.75 -4.74415 -2.82196 0
M  V30 34141 H 3433.23 -3.07687 -3.13409 0
M  V30 34142 H 3433.83 -3.90624 -1.68205 0
M  V30 34143 N 3432.15 0.317045 -1.54378 0
M  V30 34144 C 3433.39 1.05578 -1.73151 0
M  V30 34145 C 3433.73 1.87459 -0.507209 0
M  V30 34146 O 3433 1.88075 0.495804 0
M  V30 34147 C 3433.29 1.9751 -3.01101 0
M  V30 34148 C 3433.14 1.18915 -4.33796 0
M  V30 34149 C 3434.46 2.96934 -3.24836 0
M  V30 34150 H 3431.58 0.382423 -0.630017 0
M  V30 34151 H 3434.22 0.33184 -1.8708 0
M  V30 34152 H 3432.37 2.59239 -2.89357 0
M  V30 34153 H 3434.04 0.595959 -4.57434 0
M  V30 34154 H 3432.28 0.491536 -4.31006 0
M  V30 34155 H 3432.95 1.86452 -5.19557 0
M  V30 34156 H 3435.43 2.45329 -3.36085 0
M  V30 34157 H 3434.31 3.58438 -4.15709 0
M  V30 34158 H 3434.57 3.69741 -2.42371 0
M  V30 34159 N 3433.63 1.46561 0.57944 0
M  V30 34160 C 3434.85 1.55617 1.36348 0
M  V30 34161 C 3435.27 0.198438 1.87754 0
M  V30 34162 O 3434.63 -0.804805 1.63796 0
M  V30 34163 C 3434.68 2.5636 2.54876 0
M  V30 34164 O 3434.4 3.8686 2.056 0
M  V30 34165 C 3435.9 2.75387 3.47386 0
M  V30 34166 H 3433.12 0.526154 0.416417 0
M  V30 34167 H 3435.66 1.91997 0.704101 0
M  V30 34168 H 3433.82 2.22975 3.16798 0
M  V30 34169 H 3434.23 4.41719 2.82815 0
M  V30 34170 H 3435.71 3.49791 4.27025 0
M  V30 34171 H 3436.18 1.82411 3.99529 0
M  V30 34172 H 3436.79 3.0988 2.91297 0
M  V30 34173 N 3435.1 -0.824347 1.34322 0
M  V30 34174 C 3436.35 -1.58282 1.26785 0
M  V30 34175 C 3436.68 -1.93521 -0.162248 0
M  V30 34176 O 3435.96 -1.59905 -1.10727 0
M  V30 34177 C 3436.24 -2.88327 2.1573 0
M  V30 34178 C 3436.09 -2.59678 3.6727 0
M  V30 34179 C 3437.41 -3.89887 2.04148 0
M  V30 34180 H 3434.53 -0.574294 0.461904 0
M  V30 34181 H 3437.17 -0.94974 1.6456 0
M  V30 34182 H 3435.32 -3.42355 1.83645 0
M  V30 34183 H 3437 -2.11971 4.09715 0
M  V30 34184 H 3435.24 -1.93144 3.8843 0
M  V30 34185 H 3435.91 -3.52406 4.24869 0
M  V30 34186 H 3438.39 -3.45208 2.32316 0
M  V30 34187 H 3437.26 -4.78686 2.6861 0
M  V30 34188 H 3437.52 -4.30219 1.01803 0
M  V30 34189 N 3436.58 -1.18028 -1.04437 0
M  V30 34190 C 3437.81 -0.998121 -1.81232 0
M  V30 34191 C 3438.23 0.453527 -1.83272 0
M  V30 34192 O 3437.58 1.31499 -1.26547 0
M  V30 34193 C 3437.63 -1.54112 -3.27004 0
M  V30 34194 O 3437.35 -2.93593 -3.25169 0
M  V30 34195 C 3438.86 -1.40462 -4.20458 0
M  V30 34196 H 3436.08 -0.352673 -0.570844 0
M  V30 34197 H 3438.62 -1.56491 -1.31646 0
M  V30 34198 H 3436.77 -1.01618 -3.73835 0
M  V30 34199 H 3437.19 -3.18843 -4.1646 0
M  V30 34200 H 3438.66 -1.83258 -5.20692 0
M  V30 34201 H 3439.14 -0.35279 -4.37781 0
M  V30 34202 H 3439.75 -1.9201 -3.79489 0
M  V30 34203 N 3438.06 1.23288 -0.98172 0
M  V30 34204 C 3439.31 1.9136 -0.650049 0
M  V30 34205 C 3439.63 1.7696 0.819153 0
M  V30 34206 O 3438.9 1.1498 1.58608 0
M  V30 34207 H 3437.48 0.70826 -0.237439 0
M  V30 34208 H 3440.14 1.49885 -1.24582 0
M  V30 34209 H 3439.24 2.98757 -0.902824 0
M  V30 34210 N 3439.54 0.753533 1.38418 0
M  V30 34211 C 3440.77 0.320485 2.04403 0
M  V30 34212 C 3441.18 -1.05116 1.56832 0
M  V30 34213 O 3440.54 -1.66763 0.741364 0
M  V30 34214 C 3440.59 0.334 3.59954 0
M  V30 34215 O 3440.31 1.65151 4.05779 0
M  V30 34216 C 3441.81 -0.11292 4.43156 0
M  V30 34217 H 3439.03 0.136938 0.656878 0
M  V30 34218 H 3441.58 1.02237 1.7711 0
M  V30 34219 H 3439.73 -0.319147 3.86083 0
M  V30 34220 H 3440.14 1.57766 5.0021 0
M  V30 34221 H 3441.62 -0.0523025 5.51975 0
M  V30 34222 H 3442.1 -1.16079 4.23583 0
M  V30 34223 H 3442.7 0.511352 4.22215 0
M  V30 34224 N 3441.02 -1.49371 0.502605 0
M  V30 34225 C 3441.95 -2.27071 -0.311703 0
M  V30 34226 C 3442.96 -1.33679 -0.929181 0
M  V30 34227 O 3444.15 -1.58949 -0.812249 0
M  V30 34228 C 3441.25 -3.06125 -1.45398 0
M  V30 34229 C 3440.42 -4.27102 -0.943516 0
M  V30 34230 C 3439.48 -4.8819 -1.9636 0
M  V30 34231 O 3438.51 -5.4821 -1.5315 0
M  V30 34232 N 3439.71 -4.77984 -3.29411 0
M  V30 34233 H 3442.48 -2.97595 0.354555 0
M  V30 34234 H 3440.04 -1.58391 0.335249 0
M  V30 34235 H 3442.03 -3.43865 -2.13398 0
M  V30 34236 H 3440.6 -2.38197 -2.02437 0
M  V30 34237 H 3439.82 -3.94101 -0.0883679 0
M  V30 34238 H 3441.11 -5.05473 -0.580894 0
M  V30 34239 H 3440.5 -4.30323 -3.67204 0
M  V30 34240 H 3439.06 -5.19904 -3.9312 0
M  V30 34241 N 3442.49 -0.236508 -1.55815 0
M  V30 34242 C 3443.74 0.390338 -1.98295 0
M  V30 34243 C 3444.06 1.59222 -1.12576 0
M  V30 34244 O 3443.33 1.94812 -0.206162 0
M  V30 34245 H 3441.91 0.147207 -0.732352 0
M  V30 34246 H 3444.58 -0.332881 -1.92036 0
M  V30 34247 H 3443.67 0.706541 -3.03997 0
M  V30 34248 N 3443.97 1.57557 0.0367273 0
M  V30 34249 C 3444.94 2.05038 1.02431 0
M  V30 34250 C 3445.94 0.953169 1.29504 0
M  V30 34251 O 3447.13 1.21702 1.24636 0
M  V30 34252 C 3444.26 2.46083 2.35915 0
M  V30 34253 H 3445.45 2.9354 0.614333 0
M  V30 34254 H 3443 1.5371 0.283369 0
M  V30 34255 H 3443.74 1.60713 2.81677 0
M  V30 34256 H 3443.52 3.26181 2.17597 0
M  V30 34257 H 3445.01 2.83271 3.06834 0
M  V30 34258 N 3445.45 -0.308854 1.54544 0
M  V30 34259 C 3446.4 -1.40071 1.85696 0
M  V30 34260 C 3447.39 -1.52862 0.730031 0
M  V30 34261 O 3448.6 -1.55073 0.913912 0
M  V30 34262 H 3444.97 -0.467718 0.58885 0
M  V30 34263 H 3446.95 -1.11029 2.76975 0
M  V30 34264 C 3445.69 -2.7605 2.11404 0
M  V30 34265 H 3445.02 -2.66987 2.97587 0
M  V30 34266 H 3446.46 -3.5148 2.37145 0
M  V30 34267 C 3444.92 -3.24374 0.910127 0
M  V30 34268 O 3445.45 -4.015 0.126701 0
M  V30 34269 N 3443.65 -2.81599 0.717679 0
M  V30 34270 H 3443.2 -2.18996 1.35641 0
M  V30 34271 H 3443.16 -3.14282 -0.0863033 0
M  V30 34272 N 3446.93 -1.46867 -0.571659 0
M  V30 34273 C 3447.86 -1.61134 -1.68991 0
M  V30 34274 C 3448.84 -0.461251 -1.63727 0
M  V30 34275 O 3450.03 -0.688845 -1.81572 0
M  V30 34276 C 3447.16 -1.61177 -3.07635 0
M  V30 34277 C 3446.11 -2.75267 -3.27737 0
M  V30 34278 C 3445.44 -2.60376 -4.67021 0
M  V30 34279 C 3446.74 -4.16995 -3.14504 0
M  V30 34280 H 3448.43 -2.54745 -1.57307 0
M  V30 34281 H 3445.98 -1.22598 -0.755361 0
M  V30 34282 H 3447.93 -1.69751 -3.85697 0
M  V30 34283 H 3446.65 -0.641179 -3.20244 0
M  V30 34284 H 3445.31 -2.66181 -2.52078 0
M  V30 34285 H 3444.96 -1.61376 -4.7641 0
M  V30 34286 H 3444.66 -3.36907 -4.81422 0
M  V30 34287 H 3446.18 -2.70857 -5.47237 0
M  V30 34288 H 3447.6 -4.27134 -3.82399 0
M  V30 34289 H 3445.99 -4.94199 -3.40422 0
M  V30 34290 H 3447.06 -4.36375 -2.11436 0
M  V30 34291 N 3448.41 0.817212 -1.34757 0
M  V30 34292 C 3449.37 1.91003 -1.2669 0
M  V30 34293 C 3450.37 1.59781 -0.180773 0
M  V30 34294 O 3451.56 1.68713 -0.433777 0
M  V30 34295 C 3448.69 3.27181 -0.95735 0
M  V30 34296 H 3449.89 1.99578 -2.2385 0
M  V30 34297 H 3447.44 1.01185 -1.19127 0
M  V30 34298 H 3448.17 3.24298 0.0108347 0
M  V30 34299 H 3447.96 3.51227 -1.74304 0
M  V30 34300 H 3449.45 4.07199 -0.926233 0
M  V30 34301 N 3449.89 1.1858 1.0381 0
M  V30 34302 C 3451.12 1.00626 1.80438 0
M  V30 34303 C 3451.52 -0.448419 1.83809 0
M  V30 34304 O 3450.87 -1.32325 1.27419 0
M  V30 34305 C 3450.93 1.48791 3.27264 0
M  V30 34306 C 3450.59 2.96748 3.47548 0
M  V30 34307 C 3451.59 3.94584 3.38526 0
M  V30 34308 C 3449.27 3.35236 3.74061 0
M  V30 34309 C 3451.27 5.28902 3.55726 0
M  V30 34310 C 3448.96 4.69717 3.90908 0
M  V30 34311 C 3449.95 5.66359 3.81741 0
M  V30 34312 O 3449.64 6.98405 3.98102 0
M  V30 34313 H 3449.37 0.355475 0.57499 0
M  V30 34314 H 3451.93 1.57616 1.31706 0
M  V30 34315 H 3450.16 0.861679 3.76977 0
M  V30 34316 H 3451.85 1.27188 3.85458 0
M  V30 34317 H 3452.61 3.66194 3.18004 0
M  V30 34318 H 3448.49 2.60572 3.80293 0
M  V30 34319 H 3452.04 6.0432 3.48487 0
M  V30 34320 H 3447.93 4.97806 4.10925 0
M  V30 34321 H 3448.7 7.05345 4.15248 0
M  V30 34322 N 3451.36 -1.22766 0.988245 0
M  V30 34323 C 3452.77 -1.73189 0.697311 0
M  V30 34324 C 3453.13 -1.79764 -0.786079 0
M  V30 34325 O 3452.25 -1.4408 -1.61462 0
M  V30 34326 C 3452.85 -3.14535 1.25911 0
M  V30 34327 C 3451.4 -3.62382 1.01765 0
M  V30 34328 C 3450.55 -2.40402 1.38211 0
M  V30 34329 H 3453.5 -1.08179 1.16116 0
M  V30 34330 H 3453.52 -3.75158 0.635381 0
M  V30 34331 H 3453.04 -3.09717 2.33874 0
M  V30 34332 H 3451.14 -3.72572 -0.0455615 0
M  V30 34333 H 3451.25 -4.48763 1.67775 0
M  V30 34334 H 3449.61 -2.41789 0.800649 0
M  V30 34335 H 3450.4 -2.38249 2.47169 0
M  V30 34336 N 3452.84 -0.760864 -1.38017 0
M  V30 34337 C 3453.8 -0.146195 -2.28733 0
M  V30 34338 C 3454.8 0.639742 -1.47526 0
M  V30 34339 O 3455.99 0.464935 -1.67881 0
M  V30 34340 C 3453.13 0.800961 -3.31357 0
M  V30 34341 H 3454.32 -0.945742 -2.84597 0
M  V30 34342 H 3451.87 -0.528348 -1.47099 0
M  V30 34343 H 3452.61 1.62592 -2.80597 0
M  V30 34344 H 3452.39 0.239706 -3.91367 0
M  V30 34345 H 3453.88 1.2268 -3.99173 0
M  V30 34346 N 3454.32 1.49102 -0.510519 0
M  V30 34347 C 3455.57 2.02077 0.0305475 0
M  V30 34348 C 3455.89 1.3916 1.366 0
M  V30 34349 O 3455.16 0.550187 1.88015 0
M  V30 34350 H 3453.74 0.746864 0.0142785 0
M  V30 34351 H 3456.4 1.83025 -0.669927 0
M  V30 34352 H 3455.5 3.11724 0.153228 0
M  V30 34353 N 3455.8 0.244768 1.55688 0
M  V30 34354 C 3457.02 -0.38774 2.03743 0
M  V30 34355 C 3457.45 -1.50904 1.12293 0
M  V30 34356 O 3456.81 -1.80932 0.115477 0
M  V30 34357 C 3456.85 -0.874866 3.49826 0
M  V30 34358 O 3455.96 -1.9846 3.61507 0
M  V30 34359 H 3455.3 -0.0847992 0.658563 0
M  V30 34360 H 3457.83 0.3702 2.01223 0
M  V30 34361 H 3457.84 -1.17864 3.90605 0
M  V30 34362 H 3456.51 -0.0543121 4.15865 0
M  V30 34363 H 3455.09 -1.68568 3.32625 0
M  V30 34364 N 3457.28 -1.57574 -0.0283712 0
M  V30 34365 C 3458.5 -1.93564 -0.730797 0
M  V30 34366 C 3458.92 -0.844585 -1.68856 0
M  V30 34367 O 3458.28 0.178939 -1.81621 0
M  V30 34368 C 3458.33 -3.29489 -1.48726 0
M  V30 34369 O 3458.05 -4.34403 -0.56794 0
M  V30 34370 C 3459.55 -3.79765 -2.28678 0
M  V30 34371 H 3456.77 -0.63881 -0.205335 0
M  V30 34372 H 3459.31 -2.04495 0.0143088 0
M  V30 34373 H 3457.47 -3.19953 -2.18424 0
M  V30 34374 H 3457.88 -5.12867 -1.09852 0
M  V30 34375 H 3459.36 -4.77381 -2.77149 0
M  V30 34376 H 3459.83 -3.10994 -3.10128 0
M  V30 34377 H 3460.44 -3.92386 -1.64053 0
M  V30 34378 N 3458.75 0.300654 -1.54706 0
M  V30 34379 C 3459.69 1.39246 -1.82053 0
M  V30 34380 C 3460.7 1.46815 -0.703502 0
M  V30 34381 O 3461.89 1.49127 -0.980983 0
M  V30 34382 C 3458.99 2.77614 -1.94381 0
M  V30 34383 C 3458.16 2.92973 -3.24786 0
M  V30 34384 C 3457.22 4.11842 -3.27525 0
M  V30 34385 O 3456.25 4.03911 -4.01054 0
M  V30 34386 N 3457.45 5.22495 -2.52942 0
M  V30 34387 H 3460.21 1.16142 -2.76281 0
M  V30 34388 H 3457.77 0.490723 -1.54284 0
M  V30 34389 H 3459.77 3.55381 -1.93615 0
M  V30 34390 H 3458.34 2.93664 -1.07146 0
M  V30 34391 H 3457.56 2.02316 -3.38322 0
M  V30 34392 H 3458.84 3.00146 -4.1084 0
M  V30 34393 H 3458.24 5.31819 -1.92834 0
M  V30 34394 H 3456.8 5.98595 -2.57929 0
M  V30 34395 N 3460.23 1.47168 0.563863 0
M  V30 34396 C 3461.64 1.4739 1.146 0
M  V30 34397 C 3461.99 0.22495 1.94906 0
M  V30 34398 O 3461.12 -0.670636 2.05746 0
M  V30 34399 C 3461.71 2.67048 2.08497 0
M  V30 34400 C 3460.27 2.7025 2.61996 0
M  V30 34401 C 3459.42 2.40385 1.3824 0
M  V30 34402 H 3462.37 1.54774 0.350805 0
M  V30 34403 H 3462.39 2.43639 2.92267 0
M  V30 34404 H 3461.9 3.57932 1.50021 0
M  V30 34405 H 3460.01 1.83488 3.24288 0
M  V30 34406 H 3460.12 3.70754 3.03444 0
M  V30 34407 H 3458.48 1.9083 1.68689 0
M  V30 34408 H 3459.27 3.33469 0.815667 0
M  V30 34409 N 3461.71 -0.810054 1.35188 0
M  V30 34410 C 3462.96 -1.56205 1.27604 0
M  V30 34411 C 3463.27 -1.95035 -0.148586 0
M  V30 34412 O 3464.48 -2.69278 -0.346673 0
M  V30 34413 C 3462.93 -2.81882 2.23764 0
M  V30 34414 C 3462.54 -2.50304 3.71554 0
M  V30 34415 C 3464.29 -3.59894 2.25115 0
M  V30 34416 C 3462.19 -3.72252 4.59546 0
M  V30 34417 H 3461.12 -0.586308 0.474088 0
M  V30 34418 H 3463.77 -0.89073 1.60431 0
M  V30 34419 H 3462.16 -3.50707 1.83904 0
M  V30 34420 H 3463.33 -1.89508 4.20028 0
M  V30 34421 H 3461.65 -1.85544 3.72777 0
M  V30 34422 H 3464.24 -4.50464 2.88074 0
M  V30 34423 H 3464.59 -3.96966 1.25394 0
M  V30 34424 H 3465.12 -2.98027 2.63486 0
M  V30 34425 H 3461.86 -3.4029 5.60252 0
M  V30 34426 H 3461.38 -4.32285 4.158 0
M  V30 34427 H 3463.06 -4.39519 4.74797 0
M  V30 34428 N 3463.19 -1.19129 -1.0318 0
M  V30 34429 C 3464.6 -0.942876 -1.28771 0
M  V30 34430 C 3464.8 0.386448 -1.9776 0
M  V30 34431 O 3463.86 1.11866 -2.26367 0
M  V30 34432 C 3465.17 -2.1148 -2.13768 0
M  V30 34433 C 3466.72 -2.1541 -2.27085 0
M  V30 34434 C 3467.2 -3.32045 -3.15452 0
M  V30 34435 N 3468.69 -3.31962 -3.2304 0
M  V30 34436 C 3469.42 -4.18855 -3.91597 0
M  V30 34437 N 3468.92 -5.15897 -4.62409 0
M  V30 34438 N 3470.71 -4.06741 -3.87966 0
M  V30 34439 H 3462.86 -2.04661 -0.568129 0
M  V30 34440 H 3465.13 -0.894746 -0.313264 0
M  V30 34441 H 3464.83 -3.07666 -1.70394 0
M  V30 34442 H 3464.71 -2.08295 -3.14472 0
M  V30 34443 H 3467.09 -1.19796 -2.6969 0
M  V30 34444 H 3467.17 -2.22649 -1.25941 0
M  V30 34445 H 3466.82 -4.27936 -2.73556 0
M  V30 34446 H 3466.75 -3.22042 -4.16649 0
M  V30 34447 H 3469.24 -2.61715 -2.72606 0
M  V30 34448 H 3469.55 -5.78554 -5.12342 0
M  V30 34449 H 3467.9 -5.19849 -4.61284 0
M  V30 34450 H 3471.09 -3.30208 -3.31783 0
M  V30 34451 H 3471.26 -4.74674 -4.41122 0
M  V30 34452 N 3464.67 1.2224 -0.994741 0
M  V30 34453 C 3465.92 1.9035 -0.667079 0
M  V30 34454 C 3466.23 1.78286 0.804583 0
M  V30 34455 O 3467.43 2.41328 1.24391 0
M  V30 34456 C 3465.89 3.4128 -1.14262 0
M  V30 34457 C 3465.5 3.61977 -2.63964 0
M  V30 34458 C 3467.24 4.15079 -0.889375 0
M  V30 34459 C 3465.15 5.06617 -3.05112 0
M  V30 34460 H 3464.08 0.712807 -0.245808 0
M  V30 34461 H 3466.73 1.3843 -1.20455 0
M  V30 34462 H 3465.11 3.92393 -0.533272 0
M  V30 34463 H 3466.29 3.21348 -3.30261 0
M  V30 34464 H 3464.6 3.01513 -2.87191 0
M  V30 34465 H 3467.2 5.21687 -1.17248 0
M  V30 34466 H 3467.54 4.15934 0.174483 0
M  V30 34467 H 3468.07 3.69999 -1.46101 0
M  V30 34468 H 3464.81 5.10902 -4.10681 0
M  V30 34469 H 3464.33 5.48141 -2.4352 0
M  V30 34470 H 3466.01 5.75054 -2.96516 0
M  V30 34471 N 3466.14 0.768172 1.37611 0
M  V30 34472 C 3467.05 0.15269 2.34103 0
M  V30 34473 C 3468.07 -0.683783 1.60001 0
M  V30 34474 O 3469.25 -0.604538 1.92113 0
M  V30 34475 C 3466.31 -0.718894 3.39165 0
M  V30 34476 C 3465.37 0.133625 4.29092 0
M  V30 34477 C 3464.61 -0.696454 5.29136 0
M  V30 34478 O 3464.83 -1.93374 5.36622 0
M  V30 34479 O 3463.76 -0.107546 6.01804 0
M  V30 34480 H 3467.59 0.94995 2.88461 0
M  V30 34481 H 3465.17 0.529277 1.3971 0
M  V30 34482 H 3467.06 -1.21658 4.03457 0
M  V30 34483 H 3465.73 -1.4944 2.8714 0
M  V30 34484 H 3464.64 0.677592 3.67912 0
M  V30 34485 H 3465.97 0.872133 4.84412 0
M  V30 34486 N 3467.62 -1.48829 0.518419 0
M  V30 34487 C 3469.03 -1.86549 0.0750101 0
M  V30 34488 C 3469.38 -1.42912 -1.34427 0
M  V30 34489 O 3468.51 -0.814683 -2.00479 0
M  V30 34490 C 3469.1 -3.38553 0.129348 0
M  V30 34491 C 3467.66 -3.75509 -0.258805 0
M  V30 34492 C 3466.81 -2.7286 0.494233 0
M  V30 34493 H 3469.76 -1.40899 0.730291 0
M  V30 34494 H 3469.78 -3.74701 -0.661778 0
M  V30 34495 H 3469.29 -3.70283 1.16243 0
M  V30 34496 H 3467.4 -3.49391 -1.29447 0
M  V30 34497 H 3467.51 -4.79045 0.0727611 0
M  V30 34498 H 3465.87 -2.54634 -0.0580981 0
M  V30 34499 H 3466.66 -3.07434 1.52773 0
M  V30 34500 N 3469.1 -0.253021 -1.55556 0
M  V30 34501 C 3470.33 0.37693 -2.03946 0
M  V30 34502 C 3470.75 1.50306 -1.13091 0
M  V30 34503 O 3470.11 1.80868 -0.125071 0
M  V30 34504 C 3470.16 0.856301 -3.50285 0
M  V30 34505 O 3469.26 1.9654 -3.62555 0
M  V30 34506 H 3468.6 0.0813055 -0.659003 0
M  V30 34507 H 3471.13 -0.380866 -2.01024 0
M  V30 34508 H 3471.14 1.15791 -3.91224 0
M  V30 34509 H 3469.82 0.0322571 -4.15887 0
M  V30 34510 H 3468.39 1.66802 -3.33514 0
M  V30 34511 N 3470.58 1.57587 0.0200142 0
M  V30 34512 C 3471.8 1.94345 0.724207 0
M  V30 34513 C 3472.23 0.853718 1.6761 0
M  V30 34514 O 3471.59 -0.189841 1.80303 0
M  V30 34515 C 3471.63 3.3018 1.44961 0
M  V30 34516 O 3470.74 3.23069 2.56321 0
M  V30 34517 H 3470.08 0.634988 0.194131 0
M  V30 34518 H 3472.61 2.04582 -0.0272116 0
M  V30 34519 H 3472.62 3.65281 1.81752 0
M  V30 34520 H 3471.29 4.09053 0.751538 0
M  V30 34521 H 3469.87 2.99613 2.22006 0
M  V30 34522 N 3472.06 -0.292445 1.54863 0
M  V30 34523 C 3473.28 -1.04963 1.78879 0
M  V30 34524 C 3473.71 -1.79856 0.550755 0
M  V30 34525 O 3473.06 -1.74297 -0.499024 0
M  V30 34526 C 3473.11 -1.99917 3.00109 0
M  V30 34527 O 3472.22 -3.08366 2.73833 0
M  V30 34528 H 3471.56 -0.301097 0.591808 0
M  V30 34529 H 3474.09 -0.327265 2.01966 0
M  V30 34530 H 3474.1 -2.42228 3.28313 0
M  V30 34531 H 3472.77 -1.44814 3.89874 0
M  V30 34532 H 3471.35 -2.70509 2.5667 0
M  V30 34533 N 3473.53 -1.47465 -0.55605 0
M  V30 34534 C 3474.47 -1.56099 -1.67827 0
M  V30 34535 C 3475.48 -0.447104 -1.5654 0
M  V30 34536 O 3476.67 -0.716768 -1.63477 0
M  V30 34537 C 3473.77 -1.45028 -3.06301 0
M  V30 34538 C 3472.94 -2.71005 -3.43329 0
M  V30 34539 C 3472 -2.53754 -4.60972 0
M  V30 34540 O 3471.03 -3.27572 -4.65495 0
M  V30 34541 N 3472.23 -1.61657 -5.57537 0
M  V30 34542 H 3474.99 -2.52868 -1.60866 0
M  V30 34543 H 3472.55 -1.43859 -0.742715 0
M  V30 34544 H 3474.55 -1.3122 -3.82836 0
M  V30 34545 H 3473.12 -0.563365 -3.07482 0
M  V30 34546 H 3472.34 -2.99565 -2.56231 0
M  V30 34547 H 3473.62 -3.54635 -3.64844 0
M  V30 34548 H 3473.02 -1.00837 -5.5664 0
M  V30 34549 H 3471.58 -1.53801 -6.33395 0
M  V30 34550 N 3475.01 0.802873 -1.35616 0
M  V30 34551 C 3476.26 1.56245 -1.29288 0
M  V30 34552 C 3476.59 1.93755 0.13144 0
M  V30 34553 O 3475.87 1.61647 1.08169 0
M  V30 34554 C 3476.15 2.84859 -2.2029 0
M  V30 34555 C 3476 2.53802 -3.71355 0
M  V30 34556 C 3477.32 3.86589 -2.10325 0
M  V30 34557 H 3474.44 0.566873 -0.470982 0
M  V30 34558 H 3477.08 0.923439 -1.6605 0
M  V30 34559 H 3475.23 3.3939 -1.89069 0
M  V30 34560 H 3476.91 2.05426 -4.13035 0
M  V30 34561 H 3475.15 1.8694 -3.91453 0
M  V30 34562 H 3475.82 3.45603 -4.30422 0
M  V30 34563 H 3478.3 3.41468 -2.37778 0
M  V30 34564 H 3477.17 4.74352 -2.76191 0
M  V30 34565 H 3477.43 4.28545 -1.08634 0
M  V30 34566 N 3476.49 1.19674 1.02547 0
M  V30 34567 C 3477.45 0.939444 2.09062 0
M  V30 34568 C 3478.45 -0.0814555 1.60594 0
M  V30 34569 O 3479.64 0.153657 1.73521 0
M  V30 34570 C 3476.78 0.412573 3.38394 0
M  V30 34571 H 3477.97 1.88417 2.33322 0
M  V30 34572 H 3475.52 1.01088 1.1921 0
M  V30 34573 H 3476.26 -0.538038 3.19806 0
M  V30 34574 H 3476.04 1.1487 3.74896 0
M  V30 34575 H 3477.53 0.251752 4.1684 0
M  V30 34576 N 3477.97 -1.21711 1.00121 0
M  V30 34577 C 3478.88 -2.2763 0.567622 0
M  V30 34578 C 3479.9 -1.69629 -0.387563 0
M  V30 34579 O 3481.07 -1.99813 -0.252337 0
M  V30 34580 C 3478.14 -3.46548 -0.102684 0
M  V30 34581 C 3477.2 -4.19835 0.896506 0
M  V30 34582 C 3476.43 -5.33076 0.258094 0
M  V30 34583 O 3476.65 -5.625 -0.946019 0
M  V30 34584 O 3475.59 -5.94079 0.967125 0
M  V30 34585 H 3479.41 -2.66903 1.44902 0
M  V30 34586 H 3477 -1.28036 0.769885 0
M  V30 34587 H 3478.88 -4.18683 -0.477773 0
M  V30 34588 H 3477.56 -3.09183 -0.958521 0
M  V30 34589 H 3476.46 -3.49937 1.32268 0
M  V30 34590 H 3477.8 -4.61101 1.72181 0
M  V30 34591 N 3479.45 -0.775459 -1.37202 0
M  V30 34592 C 3480.7 -0.340791 -1.99206 0
M  V30 34593 C 3481.02 1.08744 -1.61863 0
M  V30 34594 O 3480.29 1.74726 -0.885861 0
M  V30 34595 H 3478.87 -0.123017 -0.736801 0
M  V30 34596 H 3481.53 -0.994409 -1.67623 0
M  V30 34597 H 3480.62 -0.4214 -3.09242 0
M  V30 34598 N 3480.93 1.48552 -0.526305 0
M  V30 34599 C 3481.86 2.27538 0.275539 0
M  V30 34600 C 3482.87 1.3514 0.907796 0
M  V30 34601 O 3484.06 1.60221 0.786859 0
M  V30 34602 C 3481.16 3.08399 1.4051 0
M  V30 34603 C 3480.33 4.28549 0.875448 0
M  V30 34604 C 3479.39 4.91252 1.88568 0
M  V30 34605 O 3478.42 5.50577 1.44409 0
M  V30 34606 N 3479.62 4.83164 3.21765 0
M  V30 34607 H 3482.38 2.96994 -0.401855 0
M  V30 34608 H 3479.95 1.57838 -0.360406 0
M  V30 34609 H 3481.94 3.47217 2.079 0
M  V30 34610 H 3480.51 2.41388 1.98622 0
M  V30 34611 H 3479.73 3.94192 0.0256587 0
M  V30 34612 H 3481.02 5.06333 0.500404 0
M  V30 34613 H 3480.41 4.3611 3.60311 0
M  V30 34614 H 3478.97 5.26092 3.84799 0
M  V30 34615 N 3482.4 0.261267 1.55419 0
M  V30 34616 C 3483.63 -0.363189 2.03687 0
M  V30 34617 C 3484.05 -1.5049 1.1401 0
M  V30 34618 O 3483.4 -1.8182 0.157381 0
M  V30 34619 C 3483.45 -0.857373 3.51186 0
M  V30 34620 O 3483.18 0.238853 4.37448 0
M  V30 34621 C 3484.68 -1.55106 4.15279 0
M  V30 34622 H 3481.9 -0.0846239 0.665642 0
M  V30 34623 H 3484.44 0.389323 2.0076 0
M  V30 34624 H 3482.6 -1.56002 3.54601 0
M  V30 34625 H 3483.01 -0.138729 5.24317 0
M  V30 34626 H 3484.48 -1.84841 5.20133 0
M  V30 34627 H 3484.96 -2.47793 3.62623 0
M  V30 34628 H 3485.57 -0.892622 4.15827 0
M  V30 34629 N 3483.88 -1.57596 -0.0116567 0
M  V30 34630 C 3484.81 -2.1072 -1.00595 0
M  V30 34631 C 3485.79 -1.01364 -1.36599 0
M  V30 34632 O 3486.98 -1.28984 -1.45178 0
M  V30 34633 C 3484.11 -2.60093 -2.3015 0
M  V30 34634 C 3483.06 -3.73869 -2.08341 0
M  V30 34635 C 3482.39 -4.09513 -3.43807 0
M  V30 34636 C 3483.69 -5.01612 -1.45543 0
M  V30 34637 H 3485.38 -2.94046 -0.563669 0
M  V30 34638 H 3482.93 -1.41452 -0.269689 0
M  V30 34639 H 3484.88 -2.95882 -3.00053 0
M  V30 34640 H 3483.6 -1.73873 -2.7647 0
M  V30 34641 H 3482.26 -3.38456 -1.40866 0
M  V30 34642 H 3481.91 -3.20333 -3.87809 0
M  V30 34643 H 3481.61 -4.8616 -3.30034 0
M  V30 34644 H 3483.14 -4.47851 -4.15044 0
M  V30 34645 H 3484.55 -5.35247 -2.05387 0
M  V30 34646 H 3482.95 -5.82986 -1.42294 0
M  V30 34647 H 3484.02 -4.83049 -0.423246 0
M  V30 34648 N 3485.36 0.284228 -1.55016 0
M  V30 34649 C 3486.64 1.03791 -1.65792 0
M  V30 34650 C 3487.02 2.0467 -0.517065 0
M  V30 34651 O 3486.36 2.2331 0.484248 0
M  V30 34652 C 3486.57 1.70477 -3.0453 0
M  V30 34653 C 3487.92 2.22056 -3.61906 0
M  V30 34654 O 3488.95 1.80483 -3.0709 0
M  V30 34655 O 3487.81 2.98278 -4.57922 0
M  V30 34656 H 3484.9 0.480745 -0.672914 0
M  V30 34657 H 3487.45 0.280979 -1.67358 0
M  V30 34658 H 3486.22 0.973172 -3.79005 0
M  V30 34659 H 3485.84 2.52885 -3.06814 0
M  V30 34660 N 3486.84 1.47758 0.548222 0
M  V30 34661 C 3487.77 1.63802 1.66406 0
M  V30 34662 C 3488.75 0.48724 1.62972 0
M  V30 34663 O 3489.93 0.717644 1.80454 0
M  V30 34664 C 3487.06 1.66051 3.05032 0
M  V30 34665 C 3486.02 2.80447 3.23317 0
M  V30 34666 C 3485.34 2.67773 4.62819 0
M  V30 34667 C 3486.64 4.21945 3.0783 0
M  V30 34668 H 3488.34 2.57215 1.53234 0
M  V30 34669 H 3485.88 1.23784 0.735761 0
M  V30 34670 H 3487.84 1.75866 3.82948 0
M  V30 34671 H 3486.56 0.692046 3.19184 0
M  V30 34672 H 3485.22 2.70157 2.47812 0
M  V30 34673 H 3484.87 1.68935 4.73783 0
M  V30 34674 H 3484.57 3.44524 4.76001 0
M  V30 34675 H 3486.09 2.79529 5.42859 0
M  V30 34676 H 3487.51 4.33164 3.75555 0
M  V30 34677 H 3485.9 4.99553 3.32517 0
M  V30 34678 H 3486.97 4.39683 2.04467 0
M  V30 34679 N 3488.32 -0.79567 1.3604 0
M  V30 34680 C 3489.26 -1.92944 1.29906 0
M  V30 34681 C 3490.26 -1.68309 0.191972 0
M  V30 34682 O 3491.46 -1.76392 0.358608 0
M  V30 34683 H 3487.84 -0.634094 0.404263 0
M  V30 34684 H 3489.81 -1.95237 2.25666 0
M  V30 34685 C 3488.56 -3.29877 1.09892 0
M  V30 34686 H 3487.88 -3.49397 1.94324 0
M  V30 34687 H 3489.32 -4.09578 1.09645 0
M  V30 34688 C 3487.78 -3.36325 -0.196743 0
M  V30 34689 O 3488.31 -3.83707 -1.18876 0
M  V30 34690 N 3486.52 -2.89613 -0.239274 0
M  V30 34691 H 3486.06 -2.51246 0.568616 0
M  V30 34692 H 3486.02 -2.94309 -1.10588 0
M  V30 34693 N 3489.79 -1.20217 -1.0191 0
M  V30 34694 C 3491.03 -1.02205 -1.77013 0
M  V30 34695 C 3491.4 0.438418 -1.86928 0
M  V30 34696 O 3492.6 0.738645 -2.58452 0
M  V30 34697 C 3490.87 -1.68399 -3.15241 0
M  V30 34698 S 3492.43 -1.65456 -4.06411 0
M  V30 34699 H 3489.25 -0.366541 -0.609236 0
M  V30 34700 H 3491.85 -1.52729 -1.22041 0
M  V30 34701 H 3490.55 -2.73874 -3.05648 0
M  V30 34702 H 3490.08 -1.17995 -3.75288 0
M  V30 34703 H 3492.1 -0.685657 -4.9144 0
M  V30 34704 N 3491.27 1.21178 -1.00765 0
M  V30 34705 C 3492.52 1.90596 -0.692884 0
M  V30 34706 C 3492.85 1.7808 0.774667 0
M  V30 34707 O 3492.13 1.15917 1.56184 0
M  V30 34708 C 3492.41 3.42306 -1.11798 0
M  V30 34709 C 3492.26 3.638 -2.64518 0
M  V30 34710 C 3493.58 4.34777 -0.68239 0
M  V30 34711 H 3490.7 0.692145 -0.253187 0
M  V30 34712 H 3493.34 1.42758 -1.2538 0
M  V30 34713 H 3491.49 3.8318 -0.640732 0
M  V30 34714 H 3493.16 3.32236 -3.20026 0
M  V30 34715 H 3491.41 3.07575 -3.05908 0
M  V30 34716 H 3492.08 4.70108 -2.89314 0
M  V30 34717 H 3494.55 4.01501 -1.09254 0
M  V30 34718 H 3493.43 5.39566 -1.00796 0
M  V30 34719 H 3493.69 4.40135 0.416364 0
M  V30 34720 N 3492.75 0.782725 1.36789 0
M  V30 34721 C 3494 0.352568 1.99712 0
M  V30 34722 C 3494.33 -1.07118 1.61986 0
M  V30 34723 O 3493.6 -1.73889 0.871372 0
M  V30 34724 C 3493.89 0.508691 3.56489 0
M  V30 34725 C 3493.74 1.97564 4.0409 0
M  V30 34726 C 3495.06 -0.0803673 4.40027 0
M  V30 34727 H 3492.18 0.129579 0.725519 0
M  V30 34728 H 3494.82 0.987816 1.62303 0
M  V30 34729 H 3492.97 -0.0320981 3.88487 0
M  V30 34730 H 3494.64 2.57698 3.82609 0
M  V30 34731 H 3492.89 2.48061 3.55877 0
M  V30 34732 H 3493.56 2.03588 5.13085 0
M  V30 34733 H 3496.03 0.381186 4.1435 0
M  V30 34734 H 3494.91 0.0589389 5.48868 0
M  V30 34735 H 3495.17 -1.17181 4.26287 0
M  V30 34736 N 3494.23 -1.48271 0.534176 0
M  V30 34737 C 3495.64 -1.86459 0.0947919 0
M  V30 34738 C 3495.99 -1.4433 -1.32903 0
M  V30 34739 O 3495.12 -0.835901 -1.99604 0
M  V30 34740 C 3495.71 -3.38397 0.165249 0
M  V30 34741 C 3494.27 -3.75763 -0.218963 0
M  V30 34742 C 3493.42 -2.72321 0.523145 0
M  V30 34743 H 3496.37 -1.40116 0.745194 0
M  V30 34744 H 3496.39 -3.75382 -0.621999 0
M  V30 34745 H 3495.9 -3.69029 1.20164 0
M  V30 34746 H 3494 -3.50745 -1.25734 0
M  V30 34747 H 3494.11 -4.78941 0.123566 0
M  V30 34748 H 3492.48 -2.54681 -0.0310875 0
M  V30 34749 H 3493.26 -3.05796 1.56025 0
M  V30 34750 N 3495.71 -0.269505 -1.55279 0
M  V30 34751 C 3496.95 0.348189 -1.99078 0
M  V30 34752 C 3497.28 1.56798 -1.15928 0
M  V30 34753 O 3496.55 1.94331 -0.247438 0
M  V30 34754 H 3495.13 0.13164 -0.735309 0
M  V30 34755 H 3497.79 -0.37354 -1.91287 0
M  V30 34756 H 3496.88 0.6419 -3.05428 0
M  V30 34757 N 3497.18 1.576 0.00329885 0
M  V30 34758 C 3498.12 2.0506 1.02388 0
M  V30 34759 C 3499.13 0.967924 1.30901 0
M  V30 34760 O 3500.32 1.24478 1.27935 0
M  V30 34761 C 3497.42 2.43278 2.35943 0
M  V30 34762 C 3496.59 3.74238 2.26417 0
M  V30 34763 C 3495.65 3.99361 3.42633 0
M  V30 34764 O 3494.68 4.70072 3.20968 0
M  V30 34765 N 3495.88 3.46999 4.65373 0
M  V30 34766 H 3498.64 2.93234 0.619164 0
M  V30 34767 H 3496.2 1.60772 0.190749 0
M  V30 34768 H 3498.2 2.57202 3.12457 0
M  V30 34769 H 3496.77 1.60639 2.68167 0
M  V30 34770 H 3495.99 3.70423 1.34834 0
M  V30 34771 H 3497.27 4.601 2.17221 0
M  V30 34772 H 3496.67 2.89732 4.85873 0
M  V30 34773 H 3495.23 3.66258 5.39164 0
M  V30 34774 N 3498.66 -0.276003 1.55164 0
M  V30 34775 C 3499.89 -1.0306 1.79982 0
M  V30 34776 C 3500.31 -1.79262 0.5698 0
M  V30 34777 O 3499.67 -1.74816 -0.480509 0
M  V30 34778 C 3499.72 -1.96723 3.02213 0
M  V30 34779 O 3498.82 -3.05444 2.77088 0
M  V30 34780 H 3498.16 -0.294803 0.594968 0
M  V30 34781 H 3500.69 -0.305825 2.02301 0
M  V30 34782 H 3500.7 -2.38732 3.30864 0
M  V30 34783 H 3499.38 -1.4067 3.91388 0
M  V30 34784 H 3497.96 -2.67771 2.59524 0
M  V30 34785 N 3500.14 -1.48046 -0.540378 0
M  V30 34786 C 3501.09 -1.58197 -1.64188 0
M  V30 34787 C 3502.07 -0.43973 -1.54775 0
M  V30 34788 O 3503.27 -0.6906 -1.62972 0
M  V30 34789 C 3500.4 -1.6151 -3.02935 0
M  V30 34790 C 3499.48 -2.81177 -3.1749 0
M  V30 34791 N 3499.87 -4.05706 -3.02054 0
M  V30 34792 C 3498.17 -2.78292 -3.48525 0
M  V30 34793 C 3498.87 -4.85938 -3.19749 0
M  V30 34794 N 3497.85 -4.18563 -3.46851 0
M  V30 34795 H 3501.65 -2.52234 -1.50848 0
M  V30 34796 H 3499.16 -1.44274 -0.745576 0
M  V30 34797 H 3501.16 -1.66874 -3.82045 0
M  V30 34798 H 3499.82 -0.685809 -3.17375 0
M  V30 34799 H 3500.83 -4.36305 -2.79031 0
M  V30 34800 H 3497.51 -1.94574 -3.69388 0
M  V30 34801 H 3498.9 -5.94732 -3.12639 0
M  V30 34802 N 3501.62 0.788444 -1.3646 0
M  V30 34803 C 3502.58 1.88273 -1.30713 0
M  V30 34804 C 3503.58 1.59361 -0.214624 0
M  V30 34805 O 3504.77 1.67755 -0.469466 0
M  V30 34806 C 3501.9 3.25077 -1.02653 0
M  V30 34807 H 3503.1 1.94784 -2.28033 0
M  V30 34808 H 3500.65 0.986353 -1.21247 0
M  V30 34809 H 3501.38 3.24248 -0.0579562 0
M  V30 34810 H 3501.17 3.47451 -1.81714 0
M  V30 34811 H 3502.66 4.05142 -1.0124 0
M  V30 34812 N 3503.1 1.20755 1.01271 0
M  V30 34813 C 3504.03 0.917665 2.10028 0
M  V30 34814 C 3505.04 -0.0961126 1.62516 0
M  V30 34815 O 3506.23 0.135402 1.77986 0
M  V30 34816 C 3503.33 0.35495 3.37036 0
M  V30 34817 C 3502.5 1.42121 4.13667 0
M  V30 34818 C 3501.56 0.869115 5.18973 0
M  V30 34819 O 3500.59 1.55073 5.47669 0
M  V30 34820 N 3501.79 -0.319529 5.7962 0
M  V30 34821 H 3504.56 1.85387 2.35482 0
M  V30 34822 H 3502.12 1.11175 1.17693 0
M  V30 34823 H 3504.11 -0.0286183 4.0469 0
M  V30 34824 H 3502.68 -0.485901 3.08801 0
M  V30 34825 H 3501.9 1.97895 3.40927 0
M  V30 34826 H 3503.19 2.13919 4.61645 0
M  V30 34827 H 3502.58 -0.890492 5.58647 0
M  V30 34828 H 3501.14 -0.644693 6.48604 0
M  V30 34829 N 3504.58 -1.20642 1.01406 0
M  V30 34830 C 3505.82 -1.90226 0.702982 0
M  V30 34831 C 3506.15 -1.78489 -0.765212 0
M  V30 34832 O 3505.43 -1.16744 -1.55567 0
M  V30 34833 C 3505.71 -3.41708 1.13612 0
M  V30 34834 C 3505.57 -3.62392 2.66443 0
M  V30 34835 C 3506.88 -4.34409 0.705438 0
M  V30 34836 H 3504 -0.690793 0.256855 0
M  V30 34837 H 3506.65 -1.42091 1.26136 0
M  V30 34838 H 3504.8 -3.82835 0.661044 0
M  V30 34839 H 3506.47 -3.30534 3.21784 0
M  V30 34840 H 3504.71 -3.05948 3.07535 0
M  V30 34841 H 3505.38 -4.68567 2.91803 0
M  V30 34842 H 3507.86 -4.00916 1.11382 0
M  V30 34843 H 3506.73 -5.39024 1.03656 0
M  V30 34844 H 3506.99 -4.4035 -0.393017 0
M  V30 34845 N 3506.05 -0.789968 -1.36372 0
M  V30 34846 C 3507.28 -0.374566 -2.03481 0
M  V30 34847 C 3507.7 1.0092 -1.59563 0
M  V30 34848 O 3507.05 1.64739 -0.785318 0
M  V30 34849 C 3507.1 -0.429318 -3.58942 0
M  V30 34850 O 3506.83 -1.75852 -4.01258 0
M  V30 34851 C 3508.33 -0.00461521 -4.433 0
M  V30 34852 H 3505.55 -0.154306 -0.653017 0
M  V30 34853 H 3508.09 -1.06897 -1.74337 0
M  V30 34854 H 3506.25 0.216672 -3.86794 0
M  V30 34855 H 3506.66 -1.70973 -4.95851 0
M  V30 34856 H 3508.13 -0.0940623 -5.5192 0
M  V30 34857 H 3508.61 1.04808 -4.26511 0
M  V30 34858 H 3509.22 -0.623115 -4.20711 0
M  V30 34859 N 3507.53 1.47986 -0.542031 0
M  V30 34860 C 3508.78 2.0339 -0.0205378 0
M  V30 34861 C 3509.13 1.41052 1.30852 0
M  V30 34862 O 3508.43 0.55136 1.83495 0
M  V30 34863 C 3508.62 3.57101 0.146145 0
M  V30 34864 C 3508.45 4.34342 -1.1652 0
M  V30 34865 C 3507.22 4.74821 -1.72838 0
M  V30 34866 C 3509.42 4.70416 -2.07877 0
M  V30 34867 N 3507.4 5.36645 -2.98136 0
M  V30 34868 C 3508.77 5.32385 -3.17752 0
M  V30 34869 C 3510.82 4.52346 -2.08057 0
M  V30 34870 C 3509.53 5.78192 -4.27886 0
M  V30 34871 C 3511.55 4.99142 -3.17193 0
M  V30 34872 C 3510.92 5.61146 -4.25787 0
M  V30 34873 H 3507.01 0.780444 -0.0493095 0
M  V30 34874 H 3509.6 1.80659 -0.725973 0
M  V30 34875 H 3507.77 3.79631 0.820681 0
M  V30 34876 H 3509.5 3.99143 0.668332 0
M  V30 34877 H 3506.26 4.56303 -1.26825 0
M  V30 34878 H 3506.68 5.72113 -3.6196 0
M  V30 34879 H 3511.32 4.03779 -1.25389 0
M  V30 34880 H 3509.04 6.25758 -5.11324 0
M  V30 34881 H 3512.63 4.86942 -3.18401 0
M  V30 34882 H 3511.51 5.96698 -5.08843 0
M  V30 34883 N 3509.01 0.277736 1.55133 0
M  V30 34884 C 3509.96 -0.623177 2.19318 0
M  V30 34885 C 3510.94 -1.11643 1.15864 0
M  V30 34886 O 3512.14 -1.06107 1.4167 0
M  V30 34887 C 3509.26 -1.80563 2.91979 0
M  V30 34888 C 3508.35 -1.32943 4.02724 0
M  V30 34889 N 3508.74 -0.569566 5.02583 0
M  V30 34890 C 3507.04 -1.61217 4.15843 0
M  V30 34891 C 3507.74 -0.318881 5.80825 0
M  V30 34892 N 3506.72 -0.892051 5.36231 0
M  V30 34893 H 3510.52 -0.0348153 2.93879 0
M  V30 34894 H 3508.03 0.0814156 1.62196 0
M  V30 34895 H 3510.03 -2.46236 3.36413 0
M  V30 34896 H 3508.69 -2.39792 2.18929 0
M  V30 34897 H 3509.7 -0.216658 5.17447 0
M  V30 34898 H 3506.38 -2.21362 3.53985 0
M  V30 34899 H 3507.77 0.28986 6.71274 0
M  V30 34900 N 3510.49 -1.57599 0.00505908 0
M  V30 34901 C 3511.43 -2.08739 -0.984717 0
M  V30 34902 C 3512.4 -0.983939 -1.3382 0
M  V30 34903 O 3513.59 -1.25668 -1.43569 0
M  V30 34904 C 3510.73 -2.5995 -2.2698 0
M  V30 34905 C 3509.84 -3.84216 -1.97489 0
M  V30 34906 C 3508.98 -4.23909 -3.20116 0
M  V30 34907 C 3508.02 -5.40998 -2.86335 0
M  V30 34908 N 3507.15 -5.75961 -4.01514 0
M  V30 34909 H 3511.99 -2.93035 -0.541686 0
M  V30 34910 H 3509.53 -1.44859 -0.255809 0
M  V30 34911 H 3511.49 -2.87722 -3.02112 0
M  V30 34912 H 3510.12 -1.78521 -2.68943 0
M  V30 34913 H 3509.17 -3.63321 -1.12703 0
M  V30 34914 H 3510.48 -4.69444 -1.68594 0
M  V30 34915 H 3509.64 -4.5299 -4.0359 0
M  V30 34916 H 3508.38 -3.37401 -3.52154 0
M  V30 34917 H 3507.38 -5.11635 -2.01269 0
M  V30 34918 H 3508.61 -6.29187 -2.55539 0
M  V30 34919 H 3506.55 -4.9241 -4.33438 0
M  V30 34920 H 3506.47 -6.55774 -3.7616 0
M  V30 34921 H 3507.74 -6.09636 -4.85761 0
M  V30 34922 N 3511.97 0.267771 -1.55309 0
M  V30 34923 C 3513.38 0.615234 -1.47265 0
M  V30 34924 C 3513.58 1.89279 -0.691058 0
M  V30 34925 O 3512.64 2.51608 -0.212009 0
M  V30 34926 C 3513.95 0.737339 -2.9152 0
M  V30 34927 C 3515.5 0.831048 -3.01766 0
M  V30 34928 C 3515.97 0.984887 -4.47285 0
M  V30 34929 N 3517.46 1.05028 -4.51136 0
M  V30 34930 C 3518.2 1.18821 -5.60954 0
M  V30 34931 N 3517.7 1.29299 -6.80627 0
M  V30 34932 N 3519.49 1.21972 -5.48707 0
M  V30 34933 H 3511.64 -0.571176 -2.04576 0
M  V30 34934 H 3513.9 -0.194157 -0.927905 0
M  V30 34935 H 3513.61 -0.131036 -3.51456 0
M  V30 34936 H 3513.48 1.61597 -3.40832 0
M  V30 34937 H 3515.87 1.68989 -2.41923 0
M  V30 34938 H 3515.95 -0.0722959 -2.55698 0
M  V30 34939 H 3515.59 0.130686 -5.07732 0
M  V30 34940 H 3515.52 1.90296 -4.91014 0
M  V30 34941 H 3518.02 0.981487 -3.64932 0
M  V30 34942 H 3518.33 1.39672 -7.60073 0
M  V30 34943 H 3516.67 1.26294 -6.83429 0
M  V30 34944 H 3519.86 1.1342 -4.54152 0
M  V30 34945 H 3520.04 1.32377 -6.34335 0
M  V30 34946 N 3513.44 1.48331 0.532519 0
M  V30 34947 C 3514.69 1.5591 1.28594 0
M  V30 34948 C 3515.01 0.233669 1.93595 0
M  V30 34949 O 3514.28 -0.744573 1.81199 0
M  V30 34950 H 3512.86 0.574368 0.477609 0
M  V30 34951 H 3515.52 1.84779 0.619889 0
M  V30 34952 H 3514.62 2.3388 2.06655 0
M  V30 34953 N 3514.92 -0.781196 1.36876 0
M  V30 34954 C 3516.17 -1.53636 1.31302 0
M  V30 34955 C 3516.49 -1.94718 -0.104907 0
M  V30 34956 O 3515.76 -1.65578 -1.04693 0
M  V30 34957 H 3514.34 -0.569806 0.483042 0
M  V30 34958 H 3517 -0.930329 1.71263 0
M  V30 34959 H 3516.1 -2.44014 1.94586 0
M  V30 34960 N 3516.4 -1.21291 -1.0063 0
M  V30 34961 C 3517.62 -1.05604 -1.78501 0
M  V30 34962 C 3518.05 0.389847 -1.84016 0
M  V30 34963 O 3517.41 1.28118 -1.28279 0
M  V30 34964 C 3517.46 -1.65631 -3.2031 0
M  V30 34965 O 3516.56 -0.900912 -4.02439 0
M  V30 34966 H 3515.9 -0.371755 -0.550176 0
M  V30 34967 H 3518.43 -1.60805 -1.26502 0
M  V30 34968 H 3518.44 -1.69798 -3.70989 0
M  V30 34969 H 3517.12 -2.70855 -3.15611 0
M  V30 34970 H 3515.69 -0.934241 -3.61007 0
M  V30 34971 N 3517.88 1.20103 -1.02045 0
M  V30 34972 C 3518.81 2.2527 -0.61446 0
M  V30 34973 C 3519.79 1.65974 0.37239 0
M  V30 34974 O 3520.97 1.92492 0.256971 0
M  V30 34975 C 3518.1 3.47272 0.0441474 0
M  V30 34976 C 3517.06 4.19187 -0.864092 0
M  V30 34977 C 3516.38 5.34653 -0.0710491 0
M  V30 34978 C 3517.68 4.74908 -2.17394 0
M  V30 34979 H 3519.38 2.59484 -1.4936 0
M  V30 34980 H 3516.92 1.2473 -0.719612 0
M  V30 34981 H 3518.88 4.20028 0.339751 0
M  V30 34982 H 3517.6 3.12233 0.958027 0
M  V30 34983 H 3516.26 3.48301 -1.14376 0
M  V30 34984 H 3515.91 4.95858 0.844601 0
M  V30 34985 H 3515.61 5.83699 -0.675933 0
M  V30 34986 H 3517.13 6.10211 0.218011 0
M  V30 34987 H 3518.55 5.39463 -1.94044 0
M  V30 34988 H 3516.94 5.34407 -2.73001 0
M  V30 34989 H 3518.01 3.93438 -2.83434 0
M  V30 34990 N 3519.36 0.797189 1.35951 0
M  V30 34991 C 3520.77 0.435343 1.81553 0
M  V30 34992 C 3521.12 -1.04161 1.66267 0
M  V30 34993 O 3520.24 -1.80875 1.18799 0
M  V30 34994 C 3520.84 0.783416 3.29618 0
M  V30 34995 C 3519.4 0.474296 3.734 0
M  V30 34996 C 3518.54 1.01398 2.58096 0
M  V30 34997 H 3521.5 0.989659 1.24062 0
M  V30 34998 H 3521.52 0.077405 3.80421 0
M  V30 34999 H 3521.03 1.85842 3.40712 0
M  V30 35000 H 3519.13 -0.592353 3.67861 0
M  V30 35001 H 3519.24 1.00034 4.6854 0
M  V30 35002 H 3517.61 0.436791 2.50927 0
M  V30 35003 H 3518.39 2.0949 2.71972 0
M  V30 35004 N 3520.83 -1.47696 0.549872 0
M  V30 35005 C 3522.08 -2.02787 0.0231201 0
M  V30 35006 C 3522.41 -1.42411 -1.32033 0
M  V30 35007 O 3521.69 -0.577011 -1.85744 0
M  V30 35008 C 3521.97 -3.60016 -0.077773 0
M  V30 35009 C 3521.82 -4.30838 1.29225 0
M  V30 35010 C 3523.14 -4.32863 -0.794833 0
M  V30 35011 H 3520.26 -0.736934 0.00987602 0
M  V30 35012 H 3522.9 -1.76206 0.710745 0
M  V30 35013 H 3521.05 -3.82794 -0.663396 0
M  V30 35014 H 3522.73 -4.19421 1.92051 0
M  V30 35015 H 3520.97 -3.91478 1.8689 0
M  V30 35016 H 3521.64 -5.39361 1.17445 0
M  V30 35017 H 3524.12 -4.15034 -0.29767 0
M  V30 35018 H 3522.99 -5.42521 -0.83437 0
M  V30 35019 H 3523.25 -4.01558 -1.84941 0
M  V30 35020 N 3522.31 -0.285959 -1.54984 0
M  V30 35021 C 3523.73 0.0678781 -1.59456 0
M  V30 35022 C 3523.93 1.53693 -1.30311 0
M  V30 35023 O 3522.98 2.28744 -1.06922 0
M  V30 35024 C 3524.3 -0.316522 -2.99029 0
M  V30 35025 C 3525.85 -0.264036 -3.11884 0
M  V30 35026 C 3526.32 -0.623035 -4.53743 0
M  V30 35027 N 3527.81 -0.574998 -4.59617 0
M  V30 35028 C 3528.55 -0.825439 -5.67428 0
M  V30 35029 N 3528.04 -1.14106 -6.83339 0
M  V30 35030 N 3529.84 -0.753508 -5.57027 0
M  V30 35031 H 3521.99 -1.24353 -1.72192 0
M  V30 35032 H 3524.25 -0.503128 -0.803471 0
M  V30 35033 H 3523.96 -1.33861 -3.25229 0
M  V30 35034 H 3523.83 0.337305 -3.75689 0
M  V30 35035 H 3526.22 0.748781 -2.85442 0
M  V30 35036 H 3526.3 -0.952275 -2.37414 0
M  V30 35037 H 3525.94 -1.63359 -4.80912 0
M  V30 35038 H 3525.87 0.0871113 -5.26528 0
M  V30 35039 H 3528.36 -0.341371 -3.76355 0
M  V30 35040 H 3528.68 -1.31854 -7.61469 0
M  V30 35041 H 3527.02 -1.17895 -6.84928 0
M  V30 35042 H 3530.21 -0.506693 -4.6535 0
M  V30 35043 H 3530.38 -0.952063 -6.40968 0
M  V30 35044 N 3523.79 1.57594 -0.0134169 0
M  V30 35045 C 3524.74 2.05747 0.982445 0
M  V30 35046 C 3525.72 0.954824 1.29506 0
M  V30 35047 O 3526.92 1.21851 1.2838 0
M  V30 35048 C 3524.05 2.57531 2.27008 0
M  V30 35049 C 3523.13 3.74698 1.98651 0
M  V30 35050 N 3523.52 4.85893 1.40503 0
M  V30 35051 C 3521.82 3.82885 2.28725 0
M  V30 35052 C 3522.52 5.67233 1.28923 0
M  V30 35053 N 3521.5 5.13651 1.77942 0
M  V30 35054 H 3525.3 2.89126 0.527575 0
M  V30 35055 H 3522.81 1.61261 0.191972 0
M  V30 35056 H 3524.81 2.90311 2.99207 0
M  V30 35057 H 3523.47 1.75576 2.73136 0
M  V30 35058 H 3524.48 5.0647 1.08208 0
M  V30 35059 H 3521.16 3.11809 2.77635 0
M  V30 35060 H 3522.55 6.66617 0.840934 0
M  V30 35061 N 3525.27 -0.259531 1.55448 0
M  V30 35062 C 3526.2 -1.3437 1.85681 0
M  V30 35063 C 3527.21 -1.44898 0.74218 0
M  V30 35064 O 3528.4 -1.46474 1.02018 0
M  V30 35065 C 3525.5 -2.72362 2.01673 0
M  V30 35066 C 3524.68 -2.84259 3.32439 0
M  V30 35067 C 3523.73 -4.03013 3.38329 0
M  V30 35068 O 3522.76 -3.93136 4.11622 0
M  V30 35069 N 3523.96 -5.15605 2.66706 0
M  V30 35070 H 3526.73 -1.08776 2.79263 0
M  V30 35071 H 3524.29 -0.449645 1.55531 0
M  V30 35072 H 3526.28 -3.50122 2.02969 0
M  V30 35073 H 3524.85 -2.9072 1.14894 0
M  V30 35074 H 3524.07 -1.93275 3.43567 0
M  V30 35075 H 3525.36 -2.89148 4.18654 0
M  V30 35076 H 3524.76 -5.26519 2.06867 0
M  V30 35077 H 3523.31 -5.91546 2.73709 0
M  V30 35078 N 3526.75 -1.48611 -0.524645 0
M  V30 35079 C 3527.97 -1.6057 -1.30479 0
M  V30 35080 C 3528.39 -0.267985 -1.86888 0
M  V30 35081 O 3527.75 0.743459 -1.6667 0
M  V30 35082 C 3527.8 -2.65643 -2.45186 0
M  V30 35083 O 3527.52 -3.94224 -1.911 0
M  V30 35084 C 3529.02 -2.8809 -3.36926 0
M  V30 35085 H 3526.24 -0.541246 -0.396602 0
M  V30 35086 H 3528.78 -1.94477 -0.632357 0
M  V30 35087 H 3526.94 -2.34579 -3.08304 0
M  V30 35088 H 3527.35 -4.51912 -2.66226 0
M  V30 35089 H 3528.83 -3.65398 -4.13749 0
M  V30 35090 H 3529.3 -1.97113 -3.92483 0
M  V30 35091 H 3529.91 -3.20478 -2.79596 0
M  V30 35092 N 3528.22 0.773926 -1.37289 0
M  V30 35093 C 3529.17 1.87728 -1.29392 0
M  V30 35094 C 3530.16 1.59865 -0.182196 0
M  V30 35095 O 3531.35 1.72032 -0.416397 0
M  V30 35096 C 3528.48 3.25166 -1.101 0
M  V30 35097 C 3527.57 3.58987 -2.25807 0
M  V30 35098 N 3527.96 3.64006 -3.51189 0
M  V30 35099 C 3526.25 3.8914 -2.17913 0
M  V30 35100 C 3526.96 3.94512 -4.27475 0
M  V30 35101 N 3525.93 4.10298 -3.5659 0
M  V30 35102 H 3529.73 1.89856 -2.24348 0
M  V30 35103 H 3527.25 0.970259 -1.3023 0
M  V30 35104 H 3529.24 4.04096 -1.02528 0
M  V30 35105 H 3527.9 3.24303 -0.160592 0
M  V30 35106 H 3528.92 3.46265 -3.85124 0
M  V30 35107 H 3525.59 3.96111 -1.31917 0
M  V30 35108 H 3526.98 4.05189 -5.35977 0
M  V30 35109 N 3529.7 1.21823 0.99985 0
M  V30 35110 C 3530.95 1.03653 1.73495 0
M  V30 35111 C 3531.27 -0.430237 1.90195 0
M  V30 35112 O 3530.54 -1.30999 1.45657 0
M  V30 35113 H 3529.12 0.380552 0.642798 0
M  V30 35114 H 3531.78 1.53218 1.20458 0
M  V30 35115 H 3530.88 1.50869 2.73212 0
M  V30 35116 N 3531.18 -1.1956 1.0268 0
M  V30 35117 C 3532.41 -1.93693 0.741458 0
M  V30 35118 C 3532.83 -1.74862 -0.693173 0
M  V30 35119 O 3532.19 -1.04956 -1.47831 0
M  V30 35120 C 3532.24 -3.43566 1.0952 0
M  V30 35121 O 3531.34 -4.11851 0.212668 0
M  V30 35122 H 3530.68 -0.604768 0.274139 0
M  V30 35123 H 3533.21 -1.51697 1.37292 0
M  V30 35124 H 3533.22 -3.94225 1.05122 0
M  V30 35125 H 3531.9 -3.56595 2.1404 0
M  V30 35126 H 3530.47 -3.71567 0.315065 0
M  V30 35127 N 3532.66 -0.804387 -1.35526 0
M  V30 35128 C 3533.59 -0.227645 -2.32388 0
M  V30 35129 C 3534.57 0.645681 -1.57369 0
M  V30 35130 O 3535.75 0.576409 -1.85449 0
M  V30 35131 C 3532.88 0.62639 -3.41605 0
M  V30 35132 C 3531.84 -0.148262 -4.27743 0
M  V30 35133 C 3531.16 0.827332 -5.28261 0
M  V30 35134 C 3532.46 -1.346 -5.04658 0
M  V30 35135 H 3534.16 -1.03689 -2.80872 0
M  V30 35136 H 3531.7 -0.500054 -1.35039 0
M  V30 35137 H 3533.66 1.03992 -4.08367 0
M  V30 35138 H 3532.38 1.4685 -2.91724 0
M  V30 35139 H 3531.04 -0.542938 -3.62557 0
M  V30 35140 H 3530.69 1.66488 -4.74648 0
M  V30 35141 H 3530.39 0.31335 -5.86764 0
M  V30 35142 H 3531.91 1.23911 -5.97895 0
M  V30 35143 H 3533.33 -1.00746 -5.64378 0
M  V30 35144 H 3531.72 -1.79432 -5.72647 0
M  V30 35145 H 3532.79 -2.13377 -4.35429 0
M  V30 35146 N 3534.14 1.47403 -0.557697 0
M  V30 35147 C 3535.07 2.32821 0.177978 0
M  V30 35148 C 3536.05 1.43819 0.908293 0
M  V30 35149 O 3537.23 1.72674 0.888662 0
M  V30 35150 C 3534.36 3.25609 1.20815 0
M  V30 35151 C 3533.32 4.23854 0.594261 0
M  V30 35152 C 3532.64 5.05971 1.7291 0
M  V30 35153 C 3533.94 5.20338 -0.452288 0
M  V30 35154 H 3535.64 2.94579 -0.535143 0
M  V30 35155 H 3533.18 1.41655 -0.2588 0
M  V30 35156 H 3535.14 3.84207 1.73098 0
M  V30 35157 H 3533.86 2.61907 1.95122 0
M  V30 35158 H 3532.52 3.66483 0.0927254 0
M  V30 35159 H 3532.17 4.38672 2.46122 0
M  V30 35160 H 3531.87 5.72487 1.32412 0
M  V30 35161 H 3533.39 5.67428 2.25517 0
M  V30 35162 H 3534.81 5.73298 -0.0155018 0
M  V30 35163 H 3533.2 5.95059 -0.776173 0
M  V30 35164 H 3534.27 4.65787 -1.34799 0
M  V30 35165 N 3535.62 0.294175 1.5483 0
M  V30 35166 C 3537.03 -0.0594208 1.59489 0
M  V30 35167 C 3537.23 -1.52999 1.31124 0
M  V30 35168 O 3536.29 -2.28174 1.08133 0
M  V30 35169 C 3537.6 0.332376 2.98857 0
M  V30 35170 C 3539.15 0.280573 3.1174 0
M  V30 35171 C 3539.62 0.64709 4.53406 0
M  V30 35172 N 3541.11 0.599364 4.59306 0
M  V30 35173 C 3541.85 0.855519 5.66982 0
M  V30 35174 N 3541.35 1.17729 6.82724 0
M  V30 35175 N 3543.14 0.783038 5.56619 0
M  V30 35176 H 3535.29 1.25265 1.7153 0
M  V30 35177 H 3537.55 0.507382 0.800792 0
M  V30 35178 H 3537.26 1.35584 3.24515 0
M  V30 35179 H 3537.13 -0.317376 3.75862 0
M  V30 35180 H 3539.52 -0.733633 2.85835 0
M  V30 35181 H 3539.6 0.964852 2.36906 0
M  V30 35182 H 3539.24 1.65907 4.80039 0
M  V30 35183 H 3539.17 -0.059187 5.26567 0
M  V30 35184 H 3541.67 0.361325 3.76169 0
M  V30 35185 H 3541.98 1.3589 7.60759 0
M  V30 35186 H 3540.32 1.21525 6.84293 0
M  V30 35187 H 3543.51 0.531364 4.65074 0
M  V30 35188 H 3543.69 0.986041 6.40454 0
M  V30 35189 N 3537.09 -1.57585 0.0217743 0
M  V30 35190 C 3538.02 -2.12806 -0.961032 0
M  V30 35191 C 3539 -1.04239 -1.34418 0
M  V30 35192 O 3540.19 -1.32035 -1.4241 0
M  V30 35193 C 3537.32 -2.64916 -2.24581 0
M  V30 35194 C 3536.27 -3.78204 -2.00363 0
M  V30 35195 C 3535.6 -4.16713 -3.35043 0
M  V30 35196 C 3536.9 -5.04586 -1.3487 0
M  V30 35197 H 3538.59 -2.95176 -0.501171 0
M  V30 35198 H 3536.14 -1.41992 -0.239624 0
M  V30 35199 H 3538.09 -3.0218 -2.93709 0
M  V30 35200 H 3536.82 -1.79698 -2.7272 0
M  V30 35201 H 3535.48 -3.41367 -1.33656 0
M  V30 35202 H 3535.12 -3.28487 -3.80927 0
M  V30 35203 H 3534.82 -4.93051 -3.19648 0
M  V30 35204 H 3536.35 -4.56554 -4.05451 0
M  V30 35205 H 3537.76 -5.39483 -1.93987 0
M  V30 35206 H 3536.16 -5.85873 -1.29896 0
M  V30 35207 H 3537.23 -4.83838 -0.320689 0
M  V30 35208 N 3538.57 0.251283 -1.55584 0
M  V30 35209 C 3539.8 0.996158 -1.80998 0
M  V30 35210 C 3540.21 1.79615 -0.594566 0
M  V30 35211 O 3539.55 1.78199 0.446165 0
M  V30 35212 C 3539.61 1.98554 -2.99694 0
M  V30 35213 C 3539.28 1.37289 -4.35891 0
M  V30 35214 C 3540.28 0.777582 -5.14052 0
M  V30 35215 C 3537.96 1.39357 -4.82581 0
M  V30 35216 C 3539.95 0.211113 -6.3705 0
M  V30 35217 C 3537.64 0.823251 -6.05529 0
M  V30 35218 C 3538.64 0.233043 -6.82602 0
M  V30 35219 O 3538.33 -0.328486 -8.03229 0
M  V30 35220 H 3538.06 0.298974 -0.606293 0
M  V30 35221 H 3540.61 0.280777 -2.03472 0
M  V30 35222 H 3538.84 2.73911 -2.72965 0
M  V30 35223 H 3540.53 2.59348 -3.12239 0
M  V30 35224 H 3541.3 0.754144 -4.79101 0
M  V30 35225 H 3537.18 1.84235 -4.22585 0
M  V30 35226 H 3540.72 -0.250196 -6.97151 0
M  V30 35227 H 3536.62 0.844002 -6.39958 0
M  V30 35228 H 3537.39 -0.219929 -8.18204 0
M  V30 35229 N 3540.05 1.48887 0.516757 0
M  V30 35230 C 3540.98 1.60494 1.63629 0
M  V30 35231 C 3541.99 0.488451 1.553 0
M  V30 35232 O 3543.18 0.759859 1.61519 0
M  V30 35233 C 3540.28 1.53098 3.02348 0
M  V30 35234 C 3539.46 2.80012 3.36024 0
M  V30 35235 C 3538.52 2.65887 4.54082 0
M  V30 35236 O 3537.54 3.39798 4.56646 0
M  V30 35237 N 3538.74 1.76382 5.53055 0
M  V30 35238 H 3541.51 2.57044 1.54105 0
M  V30 35239 H 3539.07 1.45777 0.704312 0
M  V30 35240 H 3541.06 1.41324 3.79222 0
M  V30 35241 H 3539.63 0.64469 3.0588 0
M  V30 35242 H 3538.85 3.06254 2.48198 0
M  V30 35243 H 3540.14 3.64184 3.55314 0
M  V30 35244 H 3539.54 1.1556 5.53771 0
M  V30 35245 H 3538.09 1.7054 6.29094 0
M  V30 35246 N 3541.53 -0.766635 1.37697 0
M  V30 35247 C 3542.49 -1.8617 1.33692 0
M  V30 35248 C 3543.49 -1.59 0.23995 0
M  V30 35249 O 3544.68 -1.66987 0.496095 0
M  V30 35250 C 3541.81 -3.23403 1.07812 0
M  V30 35251 H 3543.01 -1.91132 2.31103 0
M  V30 35252 H 3540.56 -0.966939 1.22801 0
M  V30 35253 H 3541.29 -3.24115 0.109534 0
M  V30 35254 H 3541.08 -3.44516 1.87219 0
M  V30 35255 H 3542.57 -4.0348 1.07672 0
M  V30 35256 N 3543.01 -1.22351 -0.993375 0
M  V30 35257 C 3544.23 -1.07491 -1.77371 0
M  V30 35258 C 3544.66 0.370308 -1.84419 0
M  V30 35259 O 3544.01 1.2675 -1.29631 0
M  V30 35260 C 3544.06 -1.69019 -3.18535 0
M  V30 35261 O 3543.17 -0.943545 -4.01461 0
M  V30 35262 H 3542.51 -0.37757 -0.546202 0
M  V30 35263 H 3545.04 -1.62138 -1.24789 0
M  V30 35264 H 3545.05 -1.73724 -3.69167 0
M  V30 35265 H 3543.72 -2.74188 -3.1272 0
M  V30 35266 H 3542.3 -0.972478 -3.59996 0
M  V30 35267 N 3544.48 1.19014 -1.03313 0
M  V30 35268 C 3545.89 1.70482 -0.761109 0
M  V30 35269 C 3546.25 1.82558 0.718819 0
M  V30 35270 O 3545.37 1.49973 1.56004 0
M  V30 35271 C 3545.97 3.09645 -1.37498 0
M  V30 35272 C 3544.52 3.58355 -1.15145 0
M  V30 35273 C 3543.67 2.35107 -1.47038 0
M  V30 35274 H 3546.62 1.03795 -1.20051 0
M  V30 35275 H 3546.64 3.72541 -0.77418 0
M  V30 35276 H 3546.16 3.00823 -2.45208 0
M  V30 35277 H 3544.26 3.72485 -0.0927476 0
M  V30 35278 H 3544.37 4.42227 -1.84315 0
M  V30 35279 H 3542.73 2.3865 -0.889836 0
M  V30 35280 H 3543.52 2.28911 -2.55841 0
M  V30 35281 N 3545.96 0.811563 1.35098 0
M  V30 35282 C 3546.92 0.230987 2.28033 0
M  V30 35283 C 3547.92 -0.584548 1.49799 0
M  V30 35284 O 3549.11 -0.402307 1.69491 0
M  V30 35285 C 3546.25 -0.677428 3.34101 0
M  V30 35286 H 3547.44 1.05072 2.80891 0
M  V30 35287 H 3544.99 0.582579 1.45037 0
M  V30 35288 H 3545.73 -1.52065 2.86438 0
M  V30 35289 H 3545.51 -0.0942874 3.91987 0
M  V30 35290 H 3547 -1.0778 4.03452 0
M  V30 35291 N 3547.44 -1.47105 0.565506 0
M  V30 35292 C 3548.72 -1.95588 -0.0215014 0
M  V30 35293 C 3549.1 -1.50815 -1.47709 0
M  V30 35294 O 3548.44 -0.750814 -2.15813 0
M  V30 35295 C 3548.65 -3.48748 0.132613 0
M  V30 35296 C 3550 -4.24599 -0.00846127 0
M  V30 35297 O 3551.03 -3.56148 0.0605769 0
M  V30 35298 O 3549.89 -5.4627 -0.158423 0
M  V30 35299 H 3546.98 -0.824858 -0.0594866 0
M  V30 35300 H 3549.53 -1.57468 0.632614 0
M  V30 35301 H 3548.3 -3.74168 1.14518 0
M  V30 35302 H 3547.92 -3.93655 -0.558732 0
M  V30 35303 N 3548.92 -0.302382 -1.54672 0
M  V30 35304 C 3550.14 0.311855 -2.05042 0
M  V30 35305 C 3550.57 1.46632 -1.17816 0
M  V30 35306 O 3549.93 1.80379 -0.182549 0
M  V30 35307 C 3549.97 0.744427 -3.52832 0
M  V30 35308 O 3549.08 1.84906 -3.68624 0
M  V30 35309 H 3548.42 0.0602986 -0.661256 0
M  V30 35310 H 3550.95 -0.444628 -1.9971 0
M  V30 35311 H 3550.96 1.03286 -3.9471 0
M  V30 35312 H 3549.63 -0.100071 -4.1578 0
M  V30 35313 H 3548.21 1.56107 -3.38652 0
M  V30 35314 N 3550.4 1.57571 -0.0301311 0
M  V30 35315 C 3551.64 1.91463 0.647008 0
M  V30 35316 C 3551.97 0.907236 1.7261 0
M  V30 35317 O 3551.24 -0.0510923 1.95833 0
M  V30 35318 H 3549.82 0.706723 0.241975 0
M  V30 35319 H 3552.48 1.94743 -0.0781727 0
M  V30 35320 H 3551.57 2.92107 1.0991 0
M  V30 35321 N 3551.87 -0.243029 1.55715 0
M  V30 35322 C 3552.78 -1.32237 1.93779 0
M  V30 35323 C 3553.8 -1.52451 0.838736 0
M  V30 35324 O 3554.98 -1.65998 1.14047 0
M  V30 35325 C 3552.04 -2.65623 2.22812 0
M  V30 35326 C 3551.1 -2.53898 3.46171 0
M  V30 35327 C 3550.34 -3.80923 3.73809 0
M  V30 35328 O 3550.56 -4.82979 3.03458 0
M  V30 35329 O 3549.49 -3.79323 4.6733 0
M  V30 35330 H 3553.32 -1.02946 2.8572 0
M  V30 35331 H 3550.9 -0.444109 1.42647 0
M  V30 35332 H 3552.79 -3.44438 2.42777 0
M  V30 35333 H 3551.46 -2.94639 1.3405 0
M  V30 35334 H 3550.37 -1.73356 3.31509 0
M  V30 35335 H 3551.7 -2.29826 4.35248 0
M  V30 35336 N 3553.35 -1.49159 -0.508854 0
M  V30 35337 C 3554.58 -1.61711 -1.28582 0
M  V30 35338 C 3554.99 -0.284662 -1.87046 0
M  V30 35339 O 3554.33 0.73893 -1.68183 0
M  V30 35340 C 3554.4 -2.62117 -2.46038 0
M  V30 35341 C 3554.06 -4.06664 -2.08503 0
M  V30 35342 C 3555.06 -4.93709 -1.62935 0
M  V30 35343 C 3552.74 -4.52345 -2.18378 0
M  V30 35344 C 3554.74 -6.2447 -1.27736 0
M  V30 35345 C 3552.42 -5.83122 -1.82791 0
M  V30 35346 C 3553.42 -6.69007 -1.37543 0
M  V30 35347 O 3553.11 -7.97347 -1.02433 0
M  V30 35348 H 3552.84 -0.547511 -0.396494 0
M  V30 35349 H 3555.39 -1.95873 -0.618306 0
M  V30 35350 H 3553.62 -2.23119 -3.1584 0
M  V30 35351 H 3555.31 -2.6428 -3.08076 0
M  V30 35352 H 3556.08 -4.59647 -1.54758 0
M  V30 35353 H 3551.96 -3.85668 -2.52549 0
M  V30 35354 H 3555.5 -6.91461 -0.923467 0
M  V30 35355 H 3551.4 -6.16714 -1.90615 0
M  V30 35356 H 3552.17 -8.10289 -1.15648 0
M  V30 35357 N 3554.83 0.759322 -1.38102 0
M  V30 35358 C 3556.08 1.52053 -1.34193 0
M  V30 35359 C 3556.41 1.94075 0.0697316 0
M  V30 35360 O 3555.68 1.65006 1.02972 0
M  V30 35361 C 3555.97 2.77706 -2.29241 0
M  V30 35362 C 3555.82 2.41859 -3.79242 0
M  V30 35363 C 3557.14 3.79702 -2.22518 0
M  V30 35364 H 3554.26 0.551602 -0.488778 0
M  V30 35365 H 3556.9 0.870144 -1.68904 0
M  V30 35366 H 3555.05 3.33203 -1.9977 0
M  V30 35367 H 3556.72 1.92181 -4.19361 0
M  V30 35368 H 3554.97 1.74392 -3.97203 0
M  V30 35369 H 3555.64 3.31734 -4.41199 0
M  V30 35370 H 3558.11 3.33731 -2.48521 0
M  V30 35371 H 3556.99 4.65325 -2.91143 0
M  V30 35372 H 3557.25 4.24872 -1.22213 0
M  V30 35373 N 3556.31 1.22876 0.986873 0
M  V30 35374 C 3557.55 1.06862 1.74241 0
M  V30 35375 C 3557.91 -0.388703 1.88024 0
M  V30 35376 O 3559.11 -0.669861 2.6032 0
M  V30 35377 C 3557.38 1.76698 3.10665 0
M  V30 35378 S 3558.94 1.76173 4.01881 0
M  V30 35379 H 3555.76 0.382565 0.599304 0
M  V30 35380 H 3558.36 1.55911 1.17949 0
M  V30 35381 H 3557.07 2.81882 2.9828 0
M  V30 35382 H 3556.6 1.27903 3.72027 0
M  V30 35383 H 3558.61 0.815713 4.89449 0
M  V30 35384 N 3557.79 -1.18464 1.03942 0
M  V30 35385 C 3559.2 -1.40428 0.758428 0
M  V30 35386 C 3559.4 -1.9064 -0.65257 0
M  V30 35387 O 3558.46 -2.08994 -1.41696 0
M  V30 35388 C 3559.77 -2.40615 1.80347 0
M  V30 35389 C 3561.32 -2.54344 1.82423 0
M  V30 35390 C 3561.79 -3.57793 2.85916 0
M  V30 35391 N 3563.29 -3.65299 2.84799 0
M  V30 35392 C 3564.02 -4.45067 3.61529 0
M  V30 35393 N 3563.52 -5.28453 4.48006 0
M  V30 35394 N 3565.31 -4.39818 3.50024 0
M  V30 35395 H 3557.46 -0.841966 1.94999 0
M  V30 35396 H 3559.72 -0.432375 0.843656 0
M  V30 35397 H 3559.43 -2.10766 2.8155 0
M  V30 35398 H 3559.3 -3.39944 1.63457 0
M  V30 35399 H 3561.69 -2.8351 0.818922 0
M  V30 35400 H 3561.77 -1.55132 2.03391 0
M  V30 35401 H 3561.42 -3.29368 3.86625 0
M  V30 35402 H 3561.35 -4.5668 2.62204 0
M  V30 35403 H 3563.84 -3.05754 2.22087 0
M  V30 35404 H 3564.15 -5.86466 5.03267 0
M  V30 35405 H 3562.49 -5.27877 4.52074 0
M  V30 35406 H 3565.69 -3.73721 2.81869 0
M  V30 35407 H 3565.86 -5.01742 4.10071 0
M  V30 35408 N 3559.26 -0.818716 -1.34665 0
M  V30 35409 C 3560.51 -0.405394 -1.98707 0
M  V30 35410 C 3560.84 1.02785 -1.64769 0
M  V30 35411 O 3560.12 1.71517 -0.91717 0
M  V30 35412 C 3560.4 -0.603029 -3.55015 0
M  V30 35413 C 3560.25 -2.08208 -3.98709 0
M  V30 35414 C 3561.57 -0.0363262 -4.40085 0
M  V30 35415 H 3558.69 -0.148769 -0.721829 0
M  V30 35416 H 3561.33 -1.0305 -1.59627 0
M  V30 35417 H 3559.48 -0.0709135 -3.88435 0
M  V30 35418 H 3561.16 -2.67751 -3.75642 0
M  V30 35419 H 3559.4 -2.57409 -3.49175 0
M  V30 35420 H 3560.07 -2.1712 -5.07507 0
M  V30 35421 H 3562.55 -0.49091 -4.13194 0
M  V30 35422 H 3561.42 -0.204441 -5.48519 0
M  V30 35423 H 3561.68 1.05838 -4.29244 0
M  V30 35424 N 3560.74 1.46803 -0.573299 0
M  V30 35425 C 3561.67 2.32996 0.153275 0
M  V30 35426 C 3562.65 1.44775 0.892988 0
M  V30 35427 O 3563.84 1.73607 0.870298 0
M  V30 35428 C 3560.97 3.26872 1.17354 0
M  V30 35429 C 3559.92 4.24461 0.549272 0
M  V30 35430 C 3559.25 5.07776 1.67533 0
M  V30 35431 C 3560.55 5.19829 -0.507451 0
M  V30 35432 H 3562.24 2.93994 -0.566356 0
M  V30 35433 H 3559.79 1.41373 -0.27381 0
M  V30 35434 H 3561.74 3.86022 1.69013 0
M  V30 35435 H 3560.47 2.63962 1.92333 0
M  V30 35436 H 3559.12 3.6656 0.0538498 0
M  V30 35437 H 3558.77 4.41258 2.41455 0
M  V30 35438 H 3558.47 5.73859 1.26333 0
M  V30 35439 H 3560 5.69788 2.19486 0
M  V30 35440 H 3561.41 5.73249 -0.0763069 0
M  V30 35441 H 3559.81 5.94203 -0.839243 0
M  V30 35442 H 3560.88 4.64331 -1.39731 0
M  V30 35443 N 3562.22 0.31058 1.54509 0
M  V30 35444 C 3563.47 -0.295285 1.99931 0
M  V30 35445 C 3563.79 -1.5367 1.20044 0
M  V30 35446 O 3563.06 -1.93607 0.298875 0
M  V30 35447 H 3561.64 -0.112098 0.738541 0
M  V30 35448 H 3564.3 0.424125 1.90229 0
M  V30 35449 H 3563.4 -0.560695 3.07022 0
M  V30 35450 N 3563.7 -1.57553 0.0384871 0
M  V30 35451 C 3564.92 -1.96899 -0.651578 0
M  V30 35452 C 3565.35 -0.915337 -1.64326 0
M  V30 35453 O 3564.71 0.122792 -1.80884 0
M  V30 35454 C 3564.76 -3.35332 -1.32607 0
M  V30 35455 O 3563.86 -3.32359 -2.44154 0
M  V30 35456 H 3563.2 -0.641755 -0.17043 0
M  V30 35457 H 3565.73 -2.0434 0.103122 0
M  V30 35458 H 3565.74 -3.71775 -1.6807 0
M  V30 35459 H 3564.42 -4.11561 -0.599203 0
M  V30 35460 H 3562.99 -3.07646 -2.10733 0
M  V30 35461 N 3565.18 0.234767 -1.55842 0
M  V30 35462 C 3566.4 0.982514 -1.82651 0
M  V30 35463 C 3566.83 1.77688 -0.617128 0
M  V30 35464 O 3566.19 1.76029 0.433991 0
M  V30 35465 C 3566.23 1.88641 -3.07322 0
M  V30 35466 O 3565.34 2.9799 -2.85089 0
M  V30 35467 H 3564.68 0.278925 -0.602575 0
M  V30 35468 H 3567.21 0.252081 -2.03041 0
M  V30 35469 H 3567.22 2.29876 -3.37077 0
M  V30 35470 H 3565.89 1.30244 -3.9498 0
M  V30 35471 H 3564.47 2.60796 -2.66533 0
M  V30 35472 N 3566.66 1.49427 0.500936 0
M  V30 35473 C 3567.9 1.59152 1.25692 0
M  V30 35474 C 3568.23 0.277399 1.92209 0
M  V30 35475 O 3567.51 -0.719033 1.80721 0
M  V30 35476 C 3567.79 2.7508 2.32386 0
M  V30 35477 C 3567.65 4.16286 1.7037 0
M  V30 35478 C 3568.96 2.86649 3.33947 0
M  V30 35479 H 3566.08 0.579291 0.455621 0
M  V30 35480 H 3568.73 1.81711 0.555067 0
M  V30 35481 H 3566.88 2.55976 2.92248 0
M  V30 35482 H 3568.55 4.46906 1.14335 0
M  V30 35483 H 3566.79 4.21931 1.00781 0
M  V30 35484 H 3567.46 4.93275 2.47758 0
M  V30 35485 H 3569.94 3.0404 2.84075 0
M  V30 35486 H 3568.81 3.6944 4.05962 0
M  V30 35487 H 3569.07 1.96005 3.96276 0
M  V30 35488 N 3568.13 -0.751987 1.38502 0
M  V30 35489 C 3569.54 -1.32939 1.31088 0
M  V30 35490 C 3569.9 -1.96173 -0.0325903 0
M  V30 35491 O 3569.02 -1.95175 -0.934657 0
M  V30 35492 C 3569.62 -2.41716 2.374 0
M  V30 35493 C 3568.17 -2.95173 2.33559 0
M  V30 35494 C 3567.32 -1.6857 2.20181 0
M  V30 35495 H 3570.27 -0.550745 1.48837 0
M  V30 35496 H 3570.29 -3.21694 2.03208 0
M  V30 35497 H 3569.81 -1.95664 3.35167 0
M  V30 35498 H 3567.91 -3.4555 1.39377 0
M  V30 35499 H 3568.02 -3.49444 3.27759 0
M  V30 35500 H 3566.38 -1.92257 1.6706 0
M  V30 35501 H 3567.17 -1.24593 3.19893 0
M  V30 35502 N 3569.61 -1.23398 -0.980343 0
M  V30 35503 C 3570.54 -1.03964 -2.09078 0
M  V30 35504 C 3571.52 0.0434647 -1.70044 0
M  V30 35505 O 3572.71 -0.121189 -1.93821 0
M  V30 35506 C 3569.84 -0.630121 -3.41536 0
M  V30 35507 C 3568.79 -1.66058 -3.94473 0
M  V30 35508 C 3568.12 -1.1065 -5.23126 0
M  V30 35509 C 3569.42 -3.05361 -4.23736 0
M  V30 35510 H 3571.11 -1.96844 -2.25594 0
M  V30 35511 H 3568.66 -0.947829 -1.08408 0
M  V30 35512 H 3570.61 -0.481218 -4.18643 0
M  V30 35513 H 3569.33 0.334358 -3.24884 0
M  V30 35514 H 3567.99 -1.79747 -3.1951 0
M  V30 35515 H 3567.64 -0.133002 -5.02824 0
M  V30 35516 H 3567.34 -1.79501 -5.59511 0
M  V30 35517 H 3568.87 -0.96945 -6.02855 0
M  V30 35518 H 3570.28 -2.94973 -4.91593 0
M  V30 35519 H 3568.68 -3.71451 -4.71322 0
M  V30 35520 H 3569.75 -3.54349 -3.31006 0
M  V30 35521 N 3571.09 1.17911 -1.04569 0
M  V30 35522 C 3572 2.25366 -0.651714 0
M  V30 35523 C 3573.02 1.7095 0.32434 0
M  V30 35524 O 3574.19 2.00612 0.178004 0
M  V30 35525 C 3571.26 3.4669 -0.0260061 0
M  V30 35526 C 3570.32 4.16218 -1.05171 0
M  V30 35527 C 3569.55 5.3175 -0.455764 0
M  V30 35528 O 3569.77 5.65624 0.736599 0
M  V30 35529 O 3568.71 5.90081 -1.18695 0
M  V30 35530 H 3572.53 2.61341 -1.54708 0
M  V30 35531 H 3570.12 1.2509 -0.816874 0
M  V30 35532 H 3572 4.20168 0.322052 0
M  V30 35533 H 3570.68 3.12527 0.84311 0
M  V30 35534 H 3569.58 3.44787 -1.45165 0
M  V30 35535 H 3570.92 4.54393 -1.89176 0
M  V30 35536 N 3572.57 0.825847 1.34229 0
M  V30 35537 C 3573.53 0.25516 2.27775 0
M  V30 35538 C 3574.53 -0.568627 1.5041 0
M  V30 35539 O 3575.72 -0.384307 1.69908 0
M  V30 35540 C 3572.85 -0.641954 3.34801 0
M  V30 35541 H 3574.05 1.08045 2.79761 0
M  V30 35542 H 3571.6 0.59793 1.44411 0
M  V30 35543 H 3572.33 -1.49019 2.88035 0
M  V30 35544 H 3572.12 -0.0527067 3.92065 0
M  V30 35545 H 3573.61 -1.03495 4.04572 0
M  V30 35546 N 3574.05 -1.46497 0.581077 0
M  V30 35547 C 3575.27 -2.07283 0.0697018 0
M  V30 35548 C 3575.7 -1.42723 -1.22522 0
M  V30 35549 O 3575.05 -0.510452 -1.73966 0
M  V30 35550 C 3575.1 -3.60501 -0.0843231 0
M  V30 35551 O 3574.21 -3.96295 -1.14122 0
M  V30 35552 H 3573.55 -0.661093 0.0620688 0
M  V30 35553 H 3576.08 -1.8816 0.803555 0
M  V30 35554 H 3576.09 -4.06961 -0.291009 0
M  V30 35555 H 3574.76 -4.06883 0.861345 0
M  V30 35556 H 3573.34 -3.61547 -0.913122 0
M  V30 35557 N 3575.52 -0.31877 -1.54343 0
M  V30 35558 C 3576.77 0.285664 -2.00778 0
M  V30 35559 C 3577.1 1.52162 -1.20666 0
M  V30 35560 O 3576.38 1.9236 -0.287708 0
M  V30 35561 C 3576.66 0.624587 -3.54642 0
M  V30 35562 C 3576.51 -0.621741 -4.45482 0
M  V30 35563 C 3577.83 1.44413 -4.15732 0
M  V30 35564 H 3574.95 0.102354 -0.729858 0
M  V30 35565 H 3577.59 -0.434397 -1.84968 0
M  V30 35566 H 3575.74 1.23805 -3.68245 0
M  V30 35567 H 3577.42 -1.26006 -4.43757 0
M  V30 35568 H 3575.66 -1.25156 -4.15353 0
M  V30 35569 H 3576.33 -0.340203 -5.50951 0
M  V30 35570 H 3578.81 0.925627 -4.05674 0
M  V30 35571 H 3577.68 1.65004 -5.23512 0
M  V30 35572 H 3577.94 2.4388 -3.68748 0
M  V30 35573 N 3577 1.5753 -0.0468419 0
M  V30 35574 C 3577.93 2.14308 0.927054 0
M  V30 35575 C 3578.91 1.06364 1.32743 0
M  V30 35576 O 3580.1 1.34284 1.40291 0
M  V30 35577 C 3577.23 2.68455 2.20338 0
M  V30 35578 C 3576.18 3.81344 1.94321 0
M  V30 35579 C 3575.51 4.21991 3.28371 0
M  V30 35580 C 3576.81 5.06668 1.26826 0
M  V30 35581 H 3578.5 2.95936 0.454147 0
M  V30 35582 H 3576.05 1.42356 0.217004 0
M  V30 35583 H 3578 3.06815 2.88865 0
M  V30 35584 H 3576.72 1.84014 2.69827 0
M  V30 35585 H 3575.38 3.43451 1.28208 0
M  V30 35586 H 3575.03 3.34506 3.75653 0
M  V30 35587 H 3574.73 4.98074 3.11763 0
M  V30 35588 H 3576.26 4.62947 3.98136 0
M  V30 35589 H 3577.67 5.42501 1.8538 0
M  V30 35590 H 3576.07 5.87865 1.20558 0
M  V30 35591 H 3577.14 4.84287 0.243674 0
M  V30 35592 N 3578.48 -0.226499 1.55964 0
M  V30 35593 C 3579.73 -0.953028 1.79012 0
M  V30 35594 C 3580.06 -1.84183 0.615641 0
M  V30 35595 O 3579.33 -1.90645 -0.385308 0
M  V30 35596 C 3579.62 -1.79619 3.12104 0
M  V30 35597 C 3579.47 -0.934209 4.39992 0
M  V30 35598 C 3580.79 -2.7749 3.41595 0
M  V30 35599 H 3577.91 -0.34504 0.651242 0
M  V30 35600 H 3580.55 -0.222203 1.88696 0
M  V30 35601 H 3578.7 -2.41928 3.03979 0
M  V30 35602 H 3580.37 -0.328248 4.60131 0
M  V30 35603 H 3578.62 -0.239411 4.33139 0
M  V30 35604 H 3579.29 -1.55844 5.29544 0
M  V30 35605 H 3581.76 -2.25317 3.49816 0
M  V30 35606 H 3580.64 -3.33591 4.35899 0
M  V30 35607 H 3580.9 -3.54981 2.63516 0
M  V30 35608 N 3579.96 -1.4969 -0.493005 0
M  V30 35609 C 3581.19 -1.63302 -1.27044 0
M  V30 35610 C 3581.6 -0.307567 -1.86278 0
M  V30 35611 O 3580.96 0.707939 -1.6821 0
M  V30 35612 C 3581.01 -2.70784 -2.39496 0
M  V30 35613 O 3580.73 -3.98189 -1.82695 0
M  V30 35614 C 3582.23 -2.95172 -3.30739 0
M  V30 35615 H 3579.45 -0.549537 -0.385032 0
M  V30 35616 H 3582 -1.95775 -0.590964 0
M  V30 35617 H 3580.15 -2.41066 -3.03259 0
M  V30 35618 H 3580.56 -4.57457 -2.5658 0
M  V30 35619 H 3582.04 -3.74092 -4.05905 0
M  V30 35620 H 3582.52 -2.05394 -3.88214 0
M  V30 35621 H 3583.12 -3.26337 -2.72735 0
M  V30 35622 N 3581.44 0.744631 -1.38899 0
M  V30 35623 C 3582.69 1.49939 -1.34912 0
M  V30 35624 C 3583 1.95522 0.0553636 0
M  V30 35625 O 3584.2 2.70625 0.217803 0
M  V30 35626 C 3582.66 2.70885 -2.36958 0
M  V30 35627 C 3582.27 2.32291 -3.83073 0
M  V30 35628 C 3584.01 3.48743 -2.4203 0
M  V30 35629 C 3581.92 3.49902 -4.76783 0
M  V30 35630 H 3580.85 0.563021 -0.501521 0
M  V30 35631 H 3583.5 0.813172 -1.64499 0
M  V30 35632 H 3581.88 3.41533 -2.00428 0
M  V30 35633 H 3583.06 1.69252 -4.28591 0
M  V30 35634 H 3581.37 1.67547 -3.81205 0
M  V30 35635 H 3583.97 4.36206 -3.09238 0
M  V30 35636 H 3584.31 3.90531 -1.44191 0
M  V30 35637 H 3584.84 2.85116 -2.77405 0
M  V30 35638 H 3581.58 3.13173 -5.7585 0
M  V30 35639 H 3581.1 4.11955 -4.35951 0
M  V30 35640 H 3582.78 4.16366 -4.95226 0
M  V30 35641 N 3582.91 1.23916 0.973785 0
M  V30 35642 C 3583.82 1.04307 2.10136 0
M  V30 35643 C 3584.84 -0.0143582 1.73994 0
M  V30 35644 O 3586.02 0.182516 2.00571 0
M  V30 35645 C 3583.08 0.643699 3.40672 0
M  V30 35646 C 3582.14 1.77693 3.90799 0
M  V30 35647 C 3581.38 1.39651 5.15105 0
M  V30 35648 O 3581.6 0.283646 5.69694 0
M  V30 35649 O 3580.53 2.21998 5.59465 0
M  V30 35650 H 3584.36 1.98824 2.29571 0
M  V30 35651 H 3581.94 1.02681 1.08522 0
M  V30 35652 H 3583.83 0.432219 4.19178 0
M  V30 35653 H 3582.5 -0.272401 3.22552 0
M  V30 35654 H 3581.41 2.04311 3.13382 0
M  V30 35655 H 3582.74 2.67158 4.13385 0
M  V30 35656 N 3584.39 -1.17355 1.05193 0
M  V30 35657 C 3585.8 -1.69249 0.788135 0
M  V30 35658 C 3586.15 -1.83678 -0.689685 0
M  V30 35659 O 3585.28 -1.52436 -1.53598 0
M  V30 35660 C 3585.87 -3.07418 1.42406 0
M  V30 35661 C 3584.43 -3.56478 1.20831 0
M  V30 35662 C 3583.58 -2.32738 1.5076 0
M  V30 35663 H 3586.53 -1.01872 1.21687 0
M  V30 35664 H 3586.55 -3.71262 0.83335 0
M  V30 35665 H 3586.06 -2.96884 2.49963 0
M  V30 35666 H 3584.17 -3.7229 0.151995 0
M  V30 35667 H 3584.28 -4.39239 1.91327 0
M  V30 35668 H 3582.64 -2.37205 0.92769 0
M  V30 35669 H 3583.43 -2.24812 2.5945 0
M  V30 35670 N 3585.87 -0.832954 -1.3379 0
M  V30 35671 C 3586.83 -0.267236 -2.27637 0
M  V30 35672 C 3587.83 0.560643 -1.5071 0
M  V30 35673 O 3589.02 0.375291 -1.70109 0
M  V30 35674 C 3586.16 0.624189 -3.35137 0
M  V30 35675 H 3587.35 -1.09527 -2.79184 0
M  V30 35676 H 3584.9 -0.60558 -1.44092 0
M  V30 35677 H 3585.64 1.47489 -2.88821 0
M  V30 35678 H 3585.42 0.0319138 -3.92087 0
M  V30 35679 H 3586.91 1.01348 -4.05115 0
M  V30 35680 N 3587.35 1.46186 -0.588837 0
M  V30 35681 C 3588.6 2.01955 -0.076612 0
M  V30 35682 C 3588.92 1.46205 1.29031 0
M  V30 35683 O 3588.19 0.649076 1.84835 0
M  V30 35684 H 3586.77 0.74657 -0.0253312 0
M  V30 35685 H 3589.43 1.79216 -0.766002 0
M  V30 35686 H 3588.53 3.12098 -0.012225 0
M  V30 35687 N 3588.83 0.32695 1.54171 0
M  V30 35688 C 3590.05 -0.279195 2.05512 0
M  V30 35689 C 3590.48 -1.44739 1.20134 0
M  V30 35690 O 3589.83 -1.80065 0.211223 0
M  V30 35691 C 3589.88 -0.6882 3.53972 0
M  V30 35692 O 3588.99 -1.79018 3.71519 0
M  V30 35693 H 3588.33 -0.049771 0.662132 0
M  V30 35694 H 3590.86 0.476344 1.98978 0
M  V30 35695 H 3590.87 -0.969932 3.96303 0
M  V30 35696 H 3589.54 0.166205 4.15568 0
M  V30 35697 H 3588.12 -1.507 3.41092 0
M  V30 35698 N 3590.3 -1.57503 0.0551955 0
M  V30 35699 C 3591.55 -1.93135 -0.618602 0
M  V30 35700 C 3591.88 -0.934155 -1.70256 0
M  V30 35701 O 3591.16 0.0392357 -1.9446 0
M  V30 35702 C 3591.44 -3.39128 -1.21097 0
M  V30 35703 C 3591.29 -4.49598 -0.134786 0
M  V30 35704 C 3592.61 -3.85596 -2.12141 0
M  V30 35705 H 3589.73 -0.702325 -0.223403 0
M  V30 35706 H 3592.37 -1.89635 0.117781 0
M  V30 35707 H 3590.52 -3.42242 -1.83856 0
M  V30 35708 H 3592.2 -4.58611 0.497372 0
M  V30 35709 H 3590.44 -4.30468 0.536662 0
M  V30 35710 H 3591.11 -5.48845 -0.589351 0
M  V30 35711 H 3593.59 -3.84383 -1.59339 0
M  V30 35712 H 3592.46 -4.88391 -2.5053 0
M  V30 35713 H 3592.72 -3.22583 -3.02312 0
M  V30 35714 N 3591.78 0.218225 -1.56082 0
M  V30 35715 C 3593.19 0.784934 -1.69398 0
M  V30 35716 C 3593.54 1.84845 -0.657782 0
M  V30 35717 O 3592.67 2.1556 0.19044 0
M  V30 35718 C 3593.26 1.43055 -3.07117 0
M  V30 35719 C 3591.82 1.94461 -3.22276 0
M  V30 35720 C 3590.97 0.805993 -2.65328 0
M  V30 35721 H 3593.92 -0.00648449 -1.58699 0
M  V30 35722 H 3593.94 2.29944 -3.0316 0
M  V30 35723 H 3593.45 0.656268 -3.82511 0
M  V30 35724 H 3591.56 2.7468 -2.51757 0
M  V30 35725 H 3591.67 2.12229 -4.29529 0
M  V30 35726 H 3590.03 1.21419 -2.23896 0
M  V30 35727 H 3590.82 0.0443325 -3.43271 0
M  V30 35728 N 3593.26 1.4995 0.485059 0
M  V30 35729 C 3594.22 1.67256 1.5671 0
M  V30 35730 C 3595.22 0.543727 1.51328 0
M  V30 35731 O 3596.41 0.810499 1.54196 0
M  V30 35732 C 3593.55 1.6848 2.96357 0
M  V30 35733 H 3594.74 2.6378 1.42688 0
M  V30 35734 H 3592.29 1.3922 0.710449 0
M  V30 35735 H 3593.03 0.735979 3.15838 0
M  V30 35736 H 3592.81 2.50474 3.01671 0
M  V30 35737 H 3594.3 1.83871 3.74941 0
M  V30 35738 N 3594.74 -0.737255 1.39292 0
M  V30 35739 C 3595.67 -1.8645 1.40565 0
M  V30 35740 C 3596.65 -1.67955 0.269312 0
M  V30 35741 O 3597.84 -1.88306 0.474802 0
M  V30 35742 C 3594.97 -3.24173 1.24615 0
M  V30 35743 C 3593.92 -3.57302 2.35625 0
M  V30 35744 C 3593.25 -4.93938 2.04767 0
M  V30 35745 C 3594.55 -3.60505 3.77933 0
M  V30 35746 H 3596.24 -1.85642 2.34899 0
M  V30 35747 H 3593.79 -0.891736 1.13067 0
M  V30 35748 H 3595.74 -4.02704 1.24128 0
M  V30 35749 H 3594.46 -3.25503 0.267496 0
M  V30 35750 H 3593.12 -2.811 2.35327 0
M  V30 35751 H 3592.77 -4.91845 1.05345 0
M  V30 35752 H 3592.47 -5.17071 2.79126 0
M  V30 35753 H 3593.99 -5.74828 2.05925 0
M  V30 35754 H 3595.41 -4.29117 3.80173 0
M  V30 35755 H 3593.8 -3.95156 4.51633 0
M  V30 35756 H 3594.87 -2.6036 4.09073 0
M  V30 35757 N 3596.22 -1.24431 -0.967199 0
M  V30 35758 C 3597.47 -1.08216 -1.70686 0
M  V30 35759 C 3597.79 0.379659 -1.91268 0
M  V30 35760 O 3597.06 1.27091 -1.49079 0
M  V30 35761 H 3595.64 -0.397461 -0.632482 0
M  V30 35762 H 3598.3 -1.56358 -1.16354 0
M  V30 35763 H 3597.39 -1.5806 -2.69116 0
M  V30 35764 N 3597.7 1.16795 -1.05814 0
M  V30 35765 C 3598.94 1.87486 -0.773099 0
M  V30 35766 C 3599.27 1.81206 0.69844 0
M  V30 35767 O 3598.55 1.22437 1.51127 0
M  V30 35768 C 3598.83 3.37256 -1.26216 0
M  V30 35769 C 3598.69 3.52253 -2.7971 0
M  V30 35770 C 3600 4.31492 -0.86618 0
M  V30 35771 H 3597.12 0.680784 -0.282316 0
M  V30 35772 H 3599.77 1.37311 -1.31322 0
M  V30 35773 H 3597.92 3.80118 -0.802675 0
M  V30 35774 H 3599.59 3.18364 -3.3383 0
M  V30 35775 H 3597.83 2.94324 -3.18679 0
M  V30 35776 H 3598.5 4.57414 -3.08993 0
M  V30 35777 H 3600.98 3.96505 -1.26185 0
M  V30 35778 H 3599.85 5.34805 -1.23591 0
M  V30 35779 H 3600.11 4.41505 0.229313 0
M  V30 35780 N 3599.17 0.840037 1.33346 0
M  V30 35781 C 3600.4 0.449829 2.01951 0
M  V30 35782 C 3600.82 -0.949288 1.63199 0
M  V30 35783 O 3600.17 -1.61711 0.845919 0
M  V30 35784 C 3600.22 0.562241 3.57101 0
M  V30 35785 O 3599.95 1.90623 3.94455 0
M  V30 35786 C 3601.45 0.16914 4.42977 0
M  V30 35787 H 3598.67 0.178436 0.64684 0
M  V30 35788 H 3601.21 1.13293 1.70249 0
M  V30 35789 H 3599.37 -0.0729664 3.87331 0
M  V30 35790 H 3599.78 1.89258 4.89164 0
M  V30 35791 H 3601.25 0.298839 5.5119 0
M  V30 35792 H 3601.73 -0.889061 4.30107 0
M  V30 35793 H 3602.34 0.778829 4.18108 0
M  V30 35794 N 3600.65 -1.45872 0.596582 0
M  V30 35795 C 3602.06 -1.85889 0.17379 0
M  V30 35796 C 3602.41 -1.49837 -1.26662 0
M  V30 35797 O 3601.54 -0.919807 -1.95879 0
M  V30 35798 C 3602.13 -3.37391 0.308626 0
M  V30 35799 C 3600.69 -3.76353 -0.0593923 0
M  V30 35800 C 3599.84 -2.69857 0.638175 0
M  V30 35801 H 3602.79 -1.36829 0.803952 0
M  V30 35802 H 3602.81 -3.77682 -0.462227 0
M  V30 35803 H 3602.32 -3.636 1.35707 0
M  V30 35804 H 3600.42 -3.55762 -1.10744 0
M  V30 35805 H 3600.54 -4.77986 0.32659 0
M  V30 35806 H 3598.9 -2.54584 0.0769594 0
M  V30 35807 H 3599.68 -2.98903 1.68854 0
M  V30 35808 N 3602.13 -0.335122 -1.53996 0
M  V30 35809 C 3603.36 0.265594 -2.05188 0
M  V30 35810 C 3603.77 1.44879 -1.2106 0
M  V30 35811 O 3603.13 1.80862 -0.243951 0
M  V30 35812 C 3603.18 0.688842 -3.54876 0
M  V30 35813 O 3602.9 -0.447293 -4.35811 0
M  V30 35814 C 3604.4 1.35116 -4.22207 0
M  V30 35815 H 3601.62 0.0527688 -0.668922 0
M  V30 35816 H 3604.17 -0.484665 -1.98674 0
M  V30 35817 H 3602.32 1.38906 -3.61641 0
M  V30 35818 H 3602.74 -0.111588 -5.24381 0
M  V30 35819 H 3604.21 1.59814 -5.28359 0
M  V30 35820 H 3604.69 2.30209 -3.74033 0
M  V30 35821 H 3605.29 0.693209 -4.19613 0
M  V30 35822 N 3603.61 1.57472 -0.0635475 0
M  V30 35823 C 3604.85 1.9346 0.60835 0
M  V30 35824 C 3605.19 0.943171 1.69758 0
M  V30 35825 O 3604.46 -0.0289225 1.94478 0
M  V30 35826 C 3604.74 3.39765 1.19296 0
M  V30 35827 C 3604.6 4.49663 0.110941 0
M  V30 35828 C 3605.92 3.86715 2.10094 0
M  V30 35829 H 3603.04 0.7035 0.219675 0
M  V30 35830 H 3605.68 1.89569 -0.127836 0
M  V30 35831 H 3603.83 3.43212 1.82038 0
M  V30 35832 H 3605.5 4.58341 -0.521686 0
M  V30 35833 H 3603.74 4.30177 -0.559484 0
M  V30 35834 H 3604.41 5.4915 0.560236 0
M  V30 35835 H 3606.89 3.85223 1.57298 0
M  V30 35836 H 3605.77 4.89713 2.47937 0
M  V30 35837 H 3606.03 3.24182 3.00597 0
M  V30 35838 N 3605.09 -0.209945 1.56195 0
M  V30 35839 C 3606.5 -0.560154 1.49447 0
M  V30 35840 C 3606.7 -1.86584 0.760831 0
M  V30 35841 O 3605.76 -2.50648 0.305245 0
M  V30 35842 C 3607.07 -0.628635 2.94056 0
M  V30 35843 C 3608.62 -0.718477 3.04642 0
M  V30 35844 C 3609.09 -0.818201 4.50632 0
M  V30 35845 N 3610.58 -0.88212 4.54723 0
M  V30 35846 C 3611.32 -0.979193 5.64977 0
M  V30 35847 N 3610.82 -1.03949 6.84957 0
M  V30 35848 N 3612.61 -1.01523 5.52856 0
M  V30 35849 H 3604.76 0.646709 2.02315 0
M  V30 35850 H 3607.02 0.228462 0.920059 0
M  V30 35851 H 3606.73 0.261386 3.50727 0
M  V30 35852 H 3606.6 -1.48836 3.46595 0
M  V30 35853 H 3608.99 -1.59893 2.48028 0
M  V30 35854 H 3609.07 0.167147 2.55253 0
M  V30 35855 H 3608.71 0.0578449 5.07867 0
M  V30 35856 H 3608.64 -1.71941 4.97739 0
M  V30 35857 H 3611.14 -0.845368 3.68323 0
M  V30 35858 H 3611.45 -1.11366 7.64734 0
M  V30 35859 H 3609.79 -1.00842 6.87645 0
M  V30 35860 H 3612.98 -0.964859 4.58048 0
M  V30 35861 H 3613.16 -1.08743 6.38811 0
M  V30 35862 N 3606.56 -1.50205 -0.4771 0
M  V30 35863 C 3607.81 -1.60135 -1.22636 0
M  V30 35864 C 3608.13 -0.304367 -1.93217 0
M  V30 35865 O 3609.33 -0.282505 -2.70026 0
M  V30 35866 C 3607.79 -2.82643 -2.22802 0
M  V30 35867 C 3607.4 -4.19194 -1.58051 0
M  V30 35868 C 3609.14 -3.01916 -2.98408 0
M  V30 35869 C 3607.05 -5.32896 -2.56469 0
M  V30 35870 H 3605.98 -0.596322 -0.461429 0
M  V30 35871 H 3608.63 -1.76627 -0.497502 0
M  V30 35872 H 3607.01 -2.59697 -2.98954 0
M  V30 35873 H 3608.18 -4.52372 -0.877294 0
M  V30 35874 H 3606.5 -4.05477 -0.947492 0
M  V30 35875 H 3609.1 -3.84033 -3.72052 0
M  V30 35876 H 3609.44 -2.13407 -3.5744 0
M  V30 35877 H 3609.97 -3.25015 -2.29369 0
M  V30 35878 H 3606.71 -6.2354 -2.02184 0
M  V30 35879 H 3606.23 -5.04144 -3.2496 0
M  V30 35880 H 3607.91 -5.63221 -3.18419 0
M  V30 35881 N 3608.04 0.729857 -1.39681 0
M  V30 35882 C 3608.95 1.87427 -1.41097 0
M  V30 35883 C 3609.97 1.71303 -0.305172 0
M  V30 35884 O 3611.14 1.93816 -0.547474 0
M  V30 35885 C 3608.21 3.23075 -1.25792 0
M  V30 35886 C 3607.27 3.51555 -2.46389 0
M  V30 35887 C 3606.5 4.80731 -2.31804 0
M  V30 35888 O 3606.73 5.54815 -1.32424 0
M  V30 35889 O 3605.66 5.09227 -3.20892 0
M  V30 35890 H 3609.49 1.89188 -2.37575 0
M  V30 35891 H 3607.07 0.878368 -1.20851 0
M  V30 35892 H 3608.95 4.04128 -1.19409 0
M  V30 35893 H 3607.63 3.22073 -0.324121 0
M  V30 35894 H 3606.54 2.70568 -2.58348 0
M  V30 35895 H 3607.87 3.57341 -3.3848 0
M  V30 35896 N 3609.52 1.24942 0.960587 0
M  V30 35897 C 3610.75 1.12156 1.74458 0
M  V30 35898 C 3611.17 -0.321282 1.85336 0
M  V30 35899 O 3610.53 -1.23268 1.32946 0
M  V30 35900 C 3610.58 1.77405 3.13942 0
M  V30 35901 O 3609.68 1.04965 3.98818 0
M  V30 35902 H 3609.02 0.391919 0.536 0
M  V30 35903 H 3611.55 1.6539 1.20447 0
M  V30 35904 H 3611.56 1.8345 3.64431 0
M  V30 35905 H 3610.24 2.82382 3.05341 0
M  V30 35906 H 3608.81 1.06758 3.57291 0
M  V30 35907 N 3611 -1.16233 1.06432 0
M  V30 35908 C 3612.22 -1.91237 0.802705 0
M  V30 35909 C 3612.65 -1.76979 -0.637191 0
M  V30 35910 O 3612.01 -1.09606 -1.44417 0
M  V30 35911 C 3612.05 -3.39908 1.20395 0
M  V30 35912 O 3611.16 -4.10966 0.343588 0
M  V30 35913 H 3610.5 -0.59574 0.29324 0
M  V30 35914 H 3613.03 -1.47253 1.42048 0
M  V30 35915 H 3613.04 -3.90681 1.17611 0
M  V30 35916 H 3611.71 -3.49605 2.25276 0
M  V30 35917 H 3610.29 -3.70376 0.433117 0
M  V30 35918 N 3612.48 -0.847097 -1.32899 0
M  V30 35919 C 3613.7 -0.459623 -2.02243 0
M  V30 35920 C 3614.13 0.933869 -1.6328 0
M  V30 35921 O 3613.48 1.61207 -0.82958 0
M  V30 35922 C 3613.53 -0.597512 -3.55615 0
M  V30 35923 O 3612.64 0.372847 -4.10711 0
M  V30 35924 H 3611.98 -0.185712 -0.637501 0
M  V30 35925 H 3614.51 -1.1442 -1.69615 0
M  V30 35926 H 3614.52 -0.482217 -4.0514 0
M  V30 35927 H 3613.19 -1.61372 -3.83317 0
M  V30 35928 H 3611.77 0.214421 -3.72283 0
M  V30 35929 N 3613.95 1.45554 -0.604309 0
M  V30 35930 C 3615.18 2.07146 -0.10267 0
M  V30 35931 C 3615.6 1.44654 1.20236 0
M  V30 35932 O 3614.96 0.538064 1.73132 0
M  V30 35933 C 3615.01 3.6059 0.0269597 0
M  V30 35934 O 3614.11 3.98061 1.07803 0
M  V30 35935 H 3613.46 0.660022 -0.0725783 0
M  V30 35936 H 3615.99 1.86858 -0.833388 0
M  V30 35937 H 3616 4.07372 0.226228 0
M  V30 35938 H 3614.67 4.05461 -0.925968 0
M  V30 35939 H 3613.25 3.62954 0.855488 0
M  V30 35940 N 3615.43 0.343284 1.53816 0
M  V30 35941 C 3616.36 -0.547975 2.22553 0
M  V30 35942 C 3617.38 -1.06417 1.23204 0
M  V30 35943 O 3618.57 -0.974367 1.4956 0
M  V30 35944 C 3615.67 -1.76682 2.892 0
M  V30 35945 C 3614.84 -1.38596 4.14861 0
M  V30 35946 C 3613.9 -2.46445 4.64921 0
M  V30 35947 O 3612.92 -2.09764 5.29139 0
M  V30 35948 N 3614.13 -3.77694 4.40826 0
M  V30 35949 H 3616.89 0.0406977 2.99672 0
M  V30 35950 H 3614.45 0.167396 1.61032 0
M  V30 35951 H 3616.44 -2.48263 3.19606 0
M  V30 35952 H 3615.01 -2.26287 2.15668 0
M  V30 35953 H 3614.23 -0.500932 3.91004 0
M  V30 35954 H 3615.52 -1.10747 4.96601 0
M  V30 35955 H 3614.92 -4.10283 3.89467 0
M  V30 35956 H 3613.48 -4.45445 4.75838 0
M  V30 35957 N 3616.91 -1.57436 0.0718977 0
M  V30 35958 C 3618.16 -1.9378 -0.598082 0
M  V30 35959 C 3618.49 -0.95216 -1.69256 0
M  V30 35960 O 3617.76 0.0186084 -1.94491 0
M  V30 35961 C 3618.05 -3.40393 -1.17493 0
M  V30 35962 C 3617.9 -4.49716 -0.0870928 0
M  V30 35963 C 3619.22 -3.87824 -2.0804 0
M  V30 35964 H 3616.34 -0.704655 -0.215942 0
M  V30 35965 H 3618.98 -1.89499 0.137888 0
M  V30 35966 H 3617.13 -3.44173 -1.80215 0
M  V30 35967 H 3618.8 -4.58058 0.545986 0
M  V30 35968 H 3617.05 -4.29874 0.582289 0
M  V30 35969 H 3617.72 -5.49439 -0.531105 0
M  V30 35970 H 3620.19 -3.86051 -1.55253 0
M  V30 35971 H 3619.07 -4.91021 -2.45336 0
M  V30 35972 H 3619.33 -3.25771 -2.98874 0
M  V30 35973 N 3618.39 0.201658 -1.56305 0
M  V30 35974 C 3619.35 1.23357 -1.93173 0
M  V30 35975 C 3620.35 1.38781 -0.812188 0
M  V30 35976 O 3621.54 1.36705 -1.07969 0
M  V30 35977 C 3618.67 2.60407 -2.20002 0
M  V30 35978 H 3619.87 0.918604 -2.85485 0
M  V30 35979 H 3617.42 0.442909 -1.49893 0
M  V30 35980 H 3618.15 2.96969 -1.30306 0
M  V30 35981 H 3617.94 2.50585 -3.01578 0
M  V30 35982 H 3619.43 3.34833 -2.49553 0
M  V30 35983 N 3619.87 1.50456 0.469128 0
M  V30 35984 C 3620.78 1.72252 1.59268 0
M  V30 35985 C 3621.79 0.605697 1.63117 0
M  V30 35986 O 3622.97 0.884254 1.8095 0
M  V30 35987 C 3620.03 1.81377 2.95471 0
M  V30 35988 C 3619.09 3.05119 3.01994 0
M  V30 35989 C 3618.33 3.13799 4.31701 0
M  V30 35990 O 3618.55 2.2922 5.22316 0
M  V30 35991 O 3617.48 4.0654 4.43857 0
M  V30 35992 H 3621.31 2.67498 1.438 0
M  V30 35993 H 3618.9 1.34575 0.648831 0
M  V30 35994 H 3620.78 1.89547 3.76364 0
M  V30 35995 H 3619.45 0.893148 3.11134 0
M  V30 35996 H 3618.36 3.02448 2.20173 0
M  V30 35997 H 3619.69 3.96766 2.91269 0
M  V30 35998 N 3621.34 -0.722439 1.40066 0
M  V30 35999 C 3622.59 -1.47929 1.377 0
M  V30 36000 C 3622.91 -1.94987 -0.0222265 0
M  V30 36001 O 3622.18 -1.69869 -0.975765 0
M  V30 36002 H 3620.76 -0.548806 0.506775 0
M  V30 36003 H 3623.43 -0.856853 1.75054 0
M  V30 36004 H 3622.52 -2.35541 2.0476 0
M  V30 36005 N 3622.82 -1.2545 -0.953947 0
M  V30 36006 C 3623.76 -1.01683 -2.0541 0
M  V30 36007 C 3624.77 0.0184646 -1.6279 0
M  V30 36008 O 3625.96 -0.220167 -1.77137 0
M  V30 36009 C 3623.06 -0.51535 -3.34959 0
M  V30 36010 C 3622.23 -1.61695 -4.06415 0
M  V30 36011 C 3621.29 -1.11573 -5.14235 0
M  V30 36012 O 3620.32 -1.81026 -5.39646 0
M  V30 36013 N 3621.52 0.0426207 -5.80484 0
M  V30 36014 H 3624.28 -1.96411 -2.26369 0
M  V30 36015 H 3621.84 -1.16664 -1.12255 0
M  V30 36016 H 3623.84 -0.164497 -4.04366 0
M  V30 36017 H 3622.41 0.338015 -3.10767 0
M  V30 36018 H 3621.63 -2.13935 -3.31097 0
M  V30 36019 H 3622.91 -2.35701 -4.50913 0
M  V30 36020 H 3622.31 0.62294 -5.6226 0
M  V30 36021 H 3620.87 0.334501 -6.50941 0
M  V30 36022 N 3624.3 1.15667 -1.07047 0
M  V30 36023 C 3625.53 1.90267 -0.812779 0
M  V30 36024 C 3625.94 1.77848 0.633691 0
M  V30 36025 O 3625.3 1.1283 1.43442 0
M  V30 36026 C 3625.35 3.4072 -1.20799 0
M  V30 36027 O 3625.07 3.52776 -2.5977 0
M  V30 36028 C 3626.57 4.32351 -0.97915 0
M  V30 36029 H 3623.79 0.603112 -0.294104 0
M  V30 36030 H 3626.34 1.46568 -1.42611 0
M  V30 36031 H 3624.49 3.82093 -0.639043 0
M  V30 36032 H 3624.91 4.46128 -2.75808 0
M  V30 36033 H 3626.38 5.36347 -1.30522 0
M  V30 36034 H 3626.86 4.39118 0.084698 0
M  V30 36035 H 3627.46 3.96716 -1.53285 0
M  V30 36036 N 3625.78 0.854133 1.32447 0
M  V30 36037 C 3626.71 0.313737 2.31383 0
M  V30 36038 C 3627.69 -0.58683 1.59657 0
M  V30 36039 O 3628.88 -0.507184 1.8746 0
M  V30 36040 C 3626.01 -0.499174 3.43694 0
M  V30 36041 C 3624.96 0.306914 4.26898 0
M  V30 36042 C 3624.29 -0.630701 5.30967 0
M  V30 36043 C 3625.59 1.53237 4.99315 0
M  V30 36044 H 3627.28 1.14042 2.7683 0
M  V30 36045 H 3624.83 0.549829 1.3309 0
M  V30 36046 H 3626.78 -0.887636 4.11945 0
M  V30 36047 H 3625.5 -1.35921 2.96973 0
M  V30 36048 H 3624.16 0.677124 3.60292 0
M  V30 36049 H 3623.81 -1.48757 4.805 0
M  V30 36050 H 3623.51 -0.0953603 5.87523 0
M  V30 36051 H 3625.03 -1.01635 6.02082 0
M  V30 36052 H 3626.45 1.21623 5.60251 0
M  V30 36053 H 3624.84 2.00561 5.65593 0
M  V30 36054 H 3625.91 2.29391 4.27209 0
M  V30 36055 N 3627.26 -1.45231 0.61202 0
M  V30 36056 C 3628.53 -1.95558 0.0407344 0
M  V30 36057 C 3628.91 -1.55438 -1.42836 0
M  V30 36058 O 3628.26 -0.819093 -2.13315 0
M  V30 36059 C 3628.47 -3.4815 0.243498 0
M  V30 36060 C 3629.82 -4.24411 0.126626 0
M  V30 36061 O 3630.84 -3.55775 0.173852 0
M  V30 36062 O 3629.7 -5.46498 0.0154487 0
M  V30 36063 H 3626.8 -0.826333 -0.0332143 0
M  V30 36064 H 3629.34 -1.55375 0.682391 0
M  V30 36065 H 3628.12 -3.70335 1.26364 0
M  V30 36066 H 3627.74 -3.95233 -0.433211 0
M  V30 36067 N 3628.74 -0.351436 -1.53632 0
M  V30 36068 C 3629.67 0.493869 -2.28217 0
M  V30 36069 C 3630.65 1.09597 -1.30087 0
M  V30 36070 O 3631.83 1.11588 -1.5894 0
M  V30 36071 C 3628.96 1.64097 -3.06088 0
M  V30 36072 C 3627.92 1.16682 -4.11788 0
M  V30 36073 C 3627.24 2.40305 -4.77658 0
M  V30 36074 C 3628.54 0.261651 -5.21644 0
M  V30 36075 H 3630.24 -0.128353 -2.99125 0
M  V30 36076 H 3627.78 -0.0631715 -1.43861 0
M  V30 36077 H 3629.73 2.23884 -3.57007 0
M  V30 36078 H 3628.46 2.29021 -2.32846 0
M  V30 36079 H 3627.12 0.59172 -3.61793 0
M  V30 36080 H 3626.77 3.03654 -4.01003 0
M  V30 36081 H 3626.47 2.09259 -5.49076 0
M  V30 36082 H 3627.99 3.00804 -5.31366 0
M  V30 36083 H 3629.4 0.766589 -5.68152 0
M  V30 36084 H 3627.8 0.0427077 -6.00085 0
M  V30 36085 H 3628.87 -0.700083 -4.7982 0
M  V30 36086 N 3630.21 1.57396 -0.0802459 0
M  V30 36087 C 3631.16 2.14414 0.90163 0
M  V30 36088 C 3632.16 1.08317 1.30245 0
M  V30 36089 O 3633.36 1.26684 1.27871 0
M  V30 36090 H 3629.74 0.685701 0.308736 0
M  V30 36091 H 3631.71 2.95762 0.395882 0
M  V30 36092 C 3630.46 2.72738 2.15661 0
M  V30 36093 H 3629.78 3.54054 1.85704 0
M  V30 36094 H 3631.22 3.16219 2.82456 0
M  V30 36095 C 3629.68 1.67906 2.92077 0
M  V30 36096 O 3630.21 1.1091 3.86085 0
M  V30 36097 N 3628.41 1.38743 2.5534 0
M  V30 36098 H 3627.96 1.85281 1.78965 0
M  V30 36099 H 3627.92 0.688371 3.06772 0
M  V30 36100 N 3631.69 -0.193366 1.56409 0
M  V30 36101 C 3632.93 -0.920236 1.82513 0
M  V30 36102 C 3633.3 -1.80373 0.657989 0
M  V30 36103 O 3634.5 -2.56652 0.798959 0
M  V30 36104 C 3632.77 -1.71348 3.13647 0
M  V30 36105 S 3634.33 -2.49213 3.61162 0
M  V30 36106 H 3631.14 -0.308623 0.640526 0
M  V30 36107 H 3633.75 -0.183508 1.94637 0
M  V30 36108 H 3632.45 -1.05508 3.96606 0
M  V30 36109 H 3631.98 -2.49199 3.04406 0
M  V30 36110 H 3634 -3.73441 3.26736 0
M  V30 36111 N 3633.17 -1.50702 -0.461142 0
M  V30 36112 C 3634.1 -1.73226 -1.56573 0
M  V30 36113 C 3635.08 -0.581429 -1.59854 0
M  V30 36114 O 3636.27 -0.821633 -1.75963 0
M  V30 36115 C 3633.4 -1.83553 -2.94832 0
M  V30 36116 C 3632.35 -2.9882 -3.06416 0
M  V30 36117 C 3631.68 -2.94301 -4.4642 0
M  V30 36118 C 3632.98 -4.39175 -2.82706 0
M  V30 36119 H 3634.67 -2.65712 -1.37977 0
M  V30 36120 H 3632.22 -1.27863 -0.662339 0
M  V30 36121 H 3634.17 -1.97893 -3.72043 0
M  V30 36122 H 3632.89 -0.876962 -3.14606 0
M  V30 36123 H 3631.55 -2.84146 -2.31639 0
M  V30 36124 H 3631.2 -1.9627 -4.63127 0
M  V30 36125 H 3630.9 -3.7169 -4.55105 0
M  V30 36126 H 3632.42 -3.10704 -5.25638 0
M  V30 36127 H 3633.84 -4.54323 -3.49662 0
M  V30 36128 H 3632.23 -5.18089 -3.02826 0
M  V30 36129 H 3633.3 -4.50856 -1.78484 0
M  V30 36130 N 3634.65 0.715001 -1.40447 0
M  V30 36131 C 3635.89 1.47707 -1.38962 0
M  V30 36132 C 3636.23 1.94198 0.00795285 0
M  V30 36133 O 3635.5 1.68199 0.976702 0
M  V30 36134 C 3635.78 2.70272 -2.3796 0
M  V30 36135 C 3635.64 2.29671 -3.86744 0
M  V30 36136 C 3636.96 3.72431 -2.34485 0
M  V30 36137 H 3634.08 0.535773 -0.506079 0
M  V30 36138 H 3636.72 0.815968 -1.71587 0
M  V30 36139 H 3634.87 3.26679 -2.1027 0
M  V30 36140 H 3636.54 1.78742 -4.25263 0
M  V30 36141 H 3634.78 1.61667 -4.0255 0
M  V30 36142 H 3635.45 3.1753 -4.51529 0
M  V30 36143 H 3637.93 3.25655 -2.59013 0
M  V30 36144 H 3636.81 4.55827 -3.05799 0
M  V30 36145 H 3637.07 4.20769 -1.35668 0
M  V30 36146 N 3636.13 1.25954 0.947281 0
M  V30 36147 C 3637.09 1.0705 2.02665 0
M  V30 36148 C 3638.09 0.0208409 1.60786 0
M  V30 36149 O 3639.28 0.263699 1.72193 0
M  V30 36150 C 3636.41 0.626943 3.35085 0
M  V30 36151 H 3637.6 2.02874 2.20867 0
M  V30 36152 H 3635.16 1.08464 1.1254 0
M  V30 36153 H 3635.89 -0.333564 3.2258 0
M  V30 36154 H 3635.68 1.38479 3.66832 0
M  V30 36155 H 3637.17 0.516337 4.14396 0
M  V30 36156 N 3637.6 -1.15097 1.07659 0
M  V30 36157 C 3638.85 -1.8559 0.800058 0
M  V30 36158 C 3639.17 -1.8291 -0.675941 0
M  V30 36159 O 3638.44 -1.2722 -1.48969 0
M  V30 36160 H 3637.02 -0.687152 0.29297 0
M  V30 36161 H 3639.69 -1.39511 1.36098 0
M  V30 36162 H 3638.78 -2.90637 1.13738 0
M  V30 36163 N 3639.08 -0.861145 -1.31993 0
M  V30 36164 C 3640.01 -0.267721 -2.27631 0
M  V30 36165 C 3641.03 0.564238 -1.5271 0
M  V30 36166 O 3642.22 0.387669 -1.74239 0
M  V30 36167 C 3639.32 0.639797 -3.32806 0
M  V30 36168 C 3638.49 -0.157753 -4.37115 0
M  V30 36169 C 3637.55 0.676532 -5.21833 0
M  V30 36170 O 3636.57 0.107722 -5.69098 0
M  V30 36171 N 3637.78 1.99012 -5.45321 0
M  V30 36172 H 3640.54 -1.08955 -2.79193 0
M  V30 36173 H 3638.1 -0.721759 -1.44922 0
M  V30 36174 H 3640.09 1.20342 -3.86394 0
M  V30 36175 H 3638.66 1.36231 -2.81354 0
M  V30 36176 H 3637.88 -0.902808 -3.83723 0
M  V30 36177 H 3639.17 -0.705329 -5.03887 0
M  V30 36178 H 3638.57 2.4755 -5.08661 0
M  V30 36179 H 3637.13 2.50172 -6.01878 0
M  V30 36180 N 3640.56 1.44905 -0.619713 0
M  V30 36181 C 3641.52 2.29053 0.0821962 0
M  V30 36182 C 3642.52 1.40426 0.783403 0
M  V30 36183 O 3643.71 1.6242 0.629723 0
M  V30 36184 C 3640.85 3.21739 1.12679 0
M  V30 36185 H 3642.04 2.92597 -0.657778 0
M  V30 36186 H 3639.59 1.51628 -0.379313 0
M  V30 36187 H 3640.33 2.6302 1.89713 0
M  V30 36188 H 3640.11 3.87037 0.628054 0
M  V30 36189 H 3641.6 3.84981 1.61801 0
M  V30 36190 N 3642.04 0.359579 1.53443 0
M  V30 36191 C 3642.99 -0.506045 2.22313 0
M  V30 36192 C 3643.97 -1.05345 1.2162 0
M  V30 36193 O 3645.16 -0.984485 1.47095 0
M  V30 36194 C 3642.29 -1.64832 3.0114 0
M  V30 36195 C 3641.38 -1.11409 4.09205 0
M  V30 36196 N 3641.77 -0.302357 5.04895 0
M  V30 36197 C 3640.07 -1.38947 4.23804 0
M  V30 36198 C 3640.77 -0.0105495 5.81699 0
M  V30 36199 N 3639.75 -0.606553 5.40205 0
M  V30 36200 H 3643.55 0.121013 2.93651 0
M  V30 36201 H 3641.06 0.167278 1.61536 0
M  V30 36202 H 3643.06 -2.28057 3.48992 0
M  V30 36203 H 3641.72 -2.2785 2.31332 0
M  V30 36204 H 3642.73 0.0579334 5.17868 0
M  V30 36205 H 3639.41 -2.02287 3.65221 0
M  V30 36206 H 3640.8 0.645281 6.68794 0
M  V30 36207 N 3643.52 -1.57351 0.0885919 0
M  V30 36208 C 3644.48 -2.12529 -0.858141 0
M  V30 36209 C 3645.48 -1.05307 -1.2152 0
M  V30 36210 O 3646.67 -1.31222 -1.14571 0
M  V30 36211 C 3643.8 -2.64052 -2.15614 0
M  V30 36212 H 3644.99 -2.97494 -0.379128 0
M  V30 36213 H 3642.55 -1.55476 -0.160327 0
M  V30 36214 H 3643.28 -1.82588 -2.68015 0
M  V30 36215 H 3643.07 -3.42441 -1.90989 0
M  V30 36216 H 3644.56 -3.06758 -2.83353 0
M  V30 36217 N 3644.99 0.185069 -1.5651 0
M  V30 36218 C 3645.93 1.25358 -1.9188 0
M  V30 36219 C 3646.94 1.41192 -0.810468 0
M  V30 36220 O 3648.13 1.4144 -1.0889 0
M  V30 36221 C 3645.23 2.6243 -2.14438 0
M  V30 36222 C 3644.4 2.68074 -3.45623 0
M  V30 36223 C 3643.46 3.86412 -3.57172 0
M  V30 36224 O 3642.49 3.73049 -4.29911 0
M  V30 36225 N 3643.69 5.02293 -2.91002 0
M  V30 36226 H 3646.45 0.953278 -2.84135 0
M  V30 36227 H 3644.01 0.374927 -1.57499 0
M  V30 36228 H 3646.01 3.4004 -2.19443 0
M  V30 36229 H 3644.58 2.84907 -1.28634 0
M  V30 36230 H 3643.8 1.76663 -3.52397 0
M  V30 36231 H 3645.08 2.68844 -4.31973 0
M  V30 36232 H 3644.48 5.1605 -2.31752 0
M  V30 36233 H 3643.04 5.77813 -3.01621 0
M  V30 36234 N 3646.47 1.50945 0.453144 0
M  V30 36235 C 3647.72 1.6307 1.20565 0
M  V30 36236 C 3648.05 0.338408 1.91229 0
M  V30 36237 O 3647.33 -0.661174 1.82917 0
M  V30 36238 C 3647.61 2.82334 2.23517 0
M  V30 36239 C 3647.46 4.21496 1.5704 0
M  V30 36240 C 3648.78 2.97128 3.24658 0
M  V30 36241 H 3645.9 0.593493 0.436961 0
M  V30 36242 H 3648.54 1.83385 0.496976 0
M  V30 36243 H 3646.69 2.65144 2.83956 0
M  V30 36244 H 3648.36 4.50318 1.00059 0
M  V30 36245 H 3646.61 4.24923 0.873068 0
M  V30 36246 H 3647.28 5.00907 2.3194 0
M  V30 36247 H 3649.75 3.12924 2.74259 0
M  V30 36248 H 3648.63 3.82168 3.94003 0
M  V30 36249 H 3648.89 2.08513 3.89839 0
M  V30 36250 N 3647.95 -0.707543 1.40825 0
M  V30 36251 C 3649.18 -1.49653 1.42869 0
M  V30 36252 C 3649.59 -1.88775 0.0305995 0
M  V30 36253 O 3648.95 -1.55986 -0.947349 0
M  V30 36254 C 3649 -2.76675 2.32666 0
M  V30 36255 O 3648.72 -2.39205 3.67032 0
M  V30 36256 C 3650.22 -3.7051 2.43387 0
M  V30 36257 H 3647.44 -0.461579 0.487017 0
M  V30 36258 H 3649.99 -0.872134 1.8497 0
M  V30 36259 H 3648.14 -3.3538 1.93904 0
M  V30 36260 H 3648.56 -3.20995 4.14805 0
M  V30 36261 H 3650.03 -4.56454 3.10409 0
M  V30 36262 H 3650.51 -4.14174 1.4614 0
M  V30 36263 H 3651.11 -3.17713 2.82734 0
M  V30 36264 N 3649.43 -1.26454 -0.940588 0
M  V30 36265 C 3650.67 -1.13209 -1.68983 0
M  V30 36266 C 3651.03 0.321212 -1.897 0
M  V30 36267 O 3650.32 1.23247 -1.467 0
M  V30 36268 C 3650.52 -1.83527 -3.0668 0
M  V30 36269 C 3650.35 -3.35545 -2.99399 0
M  V30 36270 C 3649.12 -4.04836 -3.02383 0
M  V30 36271 C 3651.31 -4.31727 -2.79492 0
M  V30 36272 N 3649.3 -5.43522 -2.85408 0
M  V30 36273 C 3650.67 -5.57593 -2.71091 0
M  V30 36274 C 3652.72 -4.21972 -2.6428 0
M  V30 36275 C 3651.42 -6.74815 -2.49031 0
M  V30 36276 C 3653.45 -5.38902 -2.43594 0
M  V30 36277 C 3652.81 -6.63716 -2.35925 0
M  V30 36278 H 3648.91 -0.469052 -0.625711 0
M  V30 36279 H 3651.5 -1.59749 -1.11303 0
M  V30 36280 H 3649.67 -1.3946 -3.62499 0
M  V30 36281 H 3651.4 -1.62898 -3.70468 0
M  V30 36282 H 3648.15 -3.56201 -3.12118 0
M  V30 36283 H 3648.58 -6.16345 -2.80086 0
M  V30 36284 H 3653.22 -3.26209 -2.68975 0
M  V30 36285 H 3650.94 -7.70675 -2.43077 0
M  V30 36286 H 3654.52 -5.33225 -2.32728 0
M  V30 36287 H 3653.4 -7.5267 -2.20131 0
M  V30 36288 N 3650.91 1.14525 -1.08268 0
M  V30 36289 C 3651.86 2.17592 -0.681015 0
M  V30 36290 C 3652.84 1.58105 0.298625 0
M  V30 36291 O 3654.03 1.76652 0.11087 0
M  V30 36292 C 3651.16 3.43181 -0.0903486 0
M  V30 36293 C 3650.25 4.09702 -1.09569 0
M  V30 36294 N 3650.64 4.51567 -2.27861 0
M  V30 36295 C 3648.94 4.36172 -0.93113 0
M  V30 36296 C 3649.64 5.03265 -2.91717 0
M  V30 36297 N 3648.61 4.97387 -2.19334 0
M  V30 36298 H 3652.42 2.47701 -1.58182 0
M  V30 36299 H 3649.93 1.31193 -0.957192 0
M  V30 36300 H 3651.93 4.16343 0.215355 0
M  V30 36301 H 3650.59 3.14551 0.805458 0
M  V30 36302 H 3651.6 4.44654 -2.65525 0
M  V30 36303 H 3648.27 4.17405 -0.0890073 0
M  V30 36304 H 3649.66 5.45546 -3.92211 0
M  V30 36305 N 3652.39 0.868133 1.31534 0
M  V30 36306 C 3653.33 0.320642 2.28562 0
M  V30 36307 C 3654.3 -0.579874 1.55649 0
M  V30 36308 O 3655.49 -0.511907 1.83805 0
M  V30 36309 C 3652.63 -0.473439 3.41837 0
M  V30 36310 C 3651.74 0.454387 4.29604 0
M  V30 36311 C 3650.88 -0.353639 5.30022 0
M  V30 36312 C 3649.91 0.570731 6.09433 0
M  V30 36313 N 3649.05 -0.200934 7.01812 0
M  V30 36314 H 3653.89 1.15326 2.7478 0
M  V30 36315 H 3651.43 0.580111 1.35178 0
M  V30 36316 H 3653.39 -0.949591 4.06249 0
M  V30 36317 H 3652.02 -1.27077 2.96734 0
M  V30 36318 H 3651.07 1.04898 3.65651 0
M  V30 36319 H 3652.38 1.16325 4.85046 0
M  V30 36320 H 3651.53 -0.892379 6.00101 0
M  V30 36321 H 3650.27 -1.0958 4.7523 0
M  V30 36322 H 3649.28 1.12124 5.38245 0
M  V30 36323 H 3650.5 1.31172 6.66311 0
M  V30 36324 H 3648.45 -0.925944 6.49432 0
M  V30 36325 H 3648.37 0.448627 7.54668 0
M  V30 36326 H 3649.63 -0.720964 7.76159 0
M  V30 36327 N 3653.86 -1.44574 0.627389 0
M  V30 36328 C 3655.28 -1.56893 0.29269 0
M  V30 36329 C 3655.48 -1.61554 -1.20426 0
M  V30 36330 O 3654.54 -1.55654 -1.98816 0
M  V30 36331 C 3655.85 -2.84237 0.981317 0
M  V30 36332 C 3657.4 -2.97943 0.959105 0
M  V30 36333 C 3657.87 -4.28084 1.62812 0
M  V30 36334 N 3659.36 -4.34889 1.59454 0
M  V30 36335 C 3660.1 -5.34299 2.08116 0
M  V30 36336 N 3659.59 -6.40134 2.64953 0
M  V30 36337 N 3661.39 -5.25783 1.98767 0
M  V30 36338 H 3653.54 -1.39792 1.59913 0
M  V30 36339 H 3655.8 -0.669643 0.671031 0
M  V30 36340 H 3655.51 -2.86765 2.03615 0
M  V30 36341 H 3655.38 -3.73643 0.516768 0
M  V30 36342 H 3657.77 -2.94971 -0.0872384 0
M  V30 36343 H 3657.85 -2.09895 1.46211 0
M  V30 36344 H 3657.49 -4.31816 2.6739 0
M  V30 36345 H 3657.42 -5.14983 1.09998 0
M  V30 36346 H 3659.91 -3.5902 1.17954 0
M  V30 36347 H 3660.23 -7.12267 2.99827 0
M  V30 36348 H 3658.57 -6.4083 2.69002 0
M  V30 36349 H 3661.76 -4.42012 1.54088 0
M  V30 36350 H 3661.94 -6.03103 2.37003 0
M  V30 36351 N 3655.34 -0.367711 -1.5325 0
M  V30 36352 C 3656.59 0.220878 -2.00889 0
M  V30 36353 C 3656.91 1.49108 -1.25665 0
M  V30 36354 O 3656.18 1.92364 -0.370525 0
M  V30 36355 H 3654.76 0.0846102 -0.742193 0
M  V30 36356 H 3657.42 -0.494435 -1.88524 0
M  V30 36357 H 3656.52 0.44636 -3.08892 0
M  V30 36358 N 3656.82 1.57302 -0.0969353 0
M  V30 36359 C 3658.07 1.94035 0.56522 0
M  V30 36360 C 3658.39 0.97963 1.68607 0
M  V30 36361 O 3657.66 0.0320133 1.95874 0
M  V30 36362 H 3656.24 0.71635 0.211783 0
M  V30 36363 H 3658.9 1.94236 -0.1607 0
M  V30 36364 H 3658 2.96505 0.974216 0
M  V30 36365 N 3658.3 -0.176766 1.56606 0
M  V30 36366 C 3659.52 -0.914048 1.86172 0
M  V30 36367 C 3659.95 -1.75275 0.682651 0
M  V30 36368 O 3659.31 -1.77518 -0.36836 0
M  V30 36369 C 3659.35 -1.77105 3.14112 0
M  V30 36370 O 3658.46 -2.87204 2.95952 0
M  V30 36371 H 3657.8 -0.256369 0.612512 0
M  V30 36372 H 3660.33 -0.17655 2.03837 0
M  V30 36373 H 3660.34 -2.17207 3.45377 0
M  V30 36374 H 3659.01 -1.15495 3.99542 0
M  V30 36375 H 3657.59 -2.50724 2.76028 0
M  V30 36376 N 3659.78 -1.51183 -0.445132 0
M  V30 36377 C 3660.71 -1.74877 -1.54727 0
M  V30 36378 C 3661.69 -0.598351 -1.59229 0
M  V30 36379 O 3662.87 -0.84025 -1.75081 0
M  V30 36380 C 3660 -1.86669 -2.92868 0
M  V30 36381 C 3658.96 -3.02053 -3.03229 0
M  V30 36382 C 3658.28 -2.9902 -4.43274 0
M  V30 36383 C 3659.58 -4.42149 -2.78032 0
M  V30 36384 H 3661.28 -2.6716 -1.35151 0
M  V30 36385 H 3658.82 -1.28559 -0.648741 0
M  V30 36386 H 3660.77 -2.01828 -3.69923 0
M  V30 36387 H 3659.5 -0.910281 -3.13658 0
M  V30 36388 H 3658.16 -2.86587 -2.28612 0
M  V30 36389 H 3657.81 -2.01171 -4.6102 0
M  V30 36390 H 3657.51 -3.76496 -4.51137 0
M  V30 36391 H 3659.03 -3.16261 -5.22313 0
M  V30 36392 H 3660.44 -4.58006 -3.44823 0
M  V30 36393 H 3658.84 -5.21272 -2.97314 0
M  V30 36394 H 3659.91 -4.52724 -1.73692 0
M  V30 36395 N 3661.25 0.700065 -1.41198 0
M  V30 36396 C 3662.66 1.27982 -1.35932 0
M  V30 36397 C 3663.02 1.96159 -0.0402404 0
M  V30 36398 O 3662.14 1.98509 0.861576 0
M  V30 36399 C 3662.74 2.32739 -2.46207 0
M  V30 36400 C 3661.29 2.86302 -2.44353 0
M  V30 36401 C 3660.44 1.60282 -2.26286 0
M  V30 36402 H 3663.39 0.495125 -1.50779 0
M  V30 36403 H 3663.41 3.1393 -2.15007 0
M  V30 36404 H 3662.93 1.8309 -3.42198 0
M  V30 36405 H 3661.03 3.40139 -1.52105 0
M  V30 36406 H 3661.14 3.37038 -3.40503 0
M  V30 36407 H 3659.5 1.85925 -1.74081 0
M  V30 36408 H 3660.29 1.12635 -3.24297 0
M  V30 36409 N 3662.73 1.26951 0.933869 0
M  V30 36410 C 3663.69 1.09193 2.01518 0
M  V30 36411 C 3664.69 0.0378933 1.60755 0
M  V30 36412 O 3665.88 0.281947 1.71903 0
M  V30 36413 C 3663.02 0.662449 3.34402 0
M  V30 36414 H 3664.21 2.05205 2.18703 0
M  V30 36415 H 3661.76 1.09652 1.11383 0
M  V30 36416 H 3662.5 -0.299331 3.22916 0
M  V30 36417 H 3662.28 1.42362 3.65343 0
M  V30 36418 H 3663.77 0.56026 4.13825 0
M  V30 36419 N 3664.21 -1.13949 1.08873 0
M  V30 36420 C 3665.63 -1.37085 0.817306 0
M  V30 36421 C 3665.83 -1.93237 -0.571125 0
M  V30 36422 O 3664.88 -2.14816 -1.32704 0
M  V30 36423 C 3666.19 -2.32749 1.9039 0
M  V30 36424 C 3667.74 -2.46378 1.93047 0
M  V30 36425 C 3668.22 -3.45345 3.00834 0
M  V30 36426 N 3669.71 -3.52891 3.00037 0
M  V30 36427 C 3670.44 -4.29333 3.8008 0
M  V30 36428 N 3669.94 -5.08976 4.70017 0
M  V30 36429 N 3671.73 -4.24576 3.68363 0
M  V30 36430 H 3663.88 -0.758502 1.98395 0
M  V30 36431 H 3666.15 -0.396203 0.861236 0
M  V30 36432 H 3665.85 -1.98635 2.90236 0
M  V30 36433 H 3665.73 -3.32705 1.77728 0
M  V30 36434 H 3668.11 -2.79781 0.938431 0
M  V30 36435 H 3668.19 -1.46366 2.09787 0
M  V30 36436 H 3667.84 -3.12673 4.00247 0
M  V30 36437 H 3667.77 -4.45148 2.81338 0
M  V30 36438 H 3670.26 -2.9606 2.34855 0
M  V30 36439 H 3670.57 -5.64593 5.27688 0
M  V30 36440 H 3668.92 -5.08228 4.74056 0
M  V30 36441 H 3672.11 -3.6143 2.97466 0
M  V30 36442 H 3672.28 -4.83898 4.30983 0
M  V30 36443 N 3665.69 -0.875096 -1.31072 0
M  V30 36444 C 3666.64 -0.306144 -2.25935 0
M  V30 36445 C 3667.62 0.559755 -1.50849 0
M  V30 36446 O 3668.81 0.405794 -1.72286 0
M  V30 36447 C 3665.94 0.486936 -3.39829 0
M  V30 36448 C 3665.03 -0.392495 -4.2228 0
M  V30 36449 N 3665.42 -1.48836 -4.83406 0
M  V30 36450 C 3663.72 -0.18584 -4.45613 0
M  V30 36451 C 3664.42 -2.0311 -5.45088 0
M  V30 36452 N 3663.39 -1.3274 -5.27144 0
M  V30 36453 H 3667.2 -1.14364 -2.70736 0
M  V30 36454 H 3664.71 -0.723416 -1.45398 0
M  V30 36455 H 3666.71 0.9111 -4.06823 0
M  V30 36456 H 3665.37 1.32198 -2.9657 0
M  V30 36457 H 3666.38 -1.87126 -4.82912 0
M  V30 36458 H 3663.06 0.612837 -4.12978 0
M  V30 36459 H 3664.45 -2.95082 -6.03636 0
M  V30 36460 N 3667.17 1.44239 -0.635047 0
M  V30 36461 C 3668.1 2.28955 0.105998 0
M  V30 36462 C 3669.11 1.41502 0.805051 0
M  V30 36463 O 3670.3 1.65616 0.665843 0
M  V30 36464 C 3667.4 3.17972 1.17246 0
M  V30 36465 C 3666.57 4.33863 0.555149 0
M  V30 36466 C 3665.63 5.03886 1.51609 0
M  V30 36467 O 3664.66 5.59772 1.03171 0
M  V30 36468 N 3665.86 5.05701 2.85039 0
M  V30 36469 H 3668.63 2.93195 -0.621051 0
M  V30 36470 H 3666.19 1.54729 -0.476493 0
M  V30 36471 H 3668.18 3.61682 1.81572 0
M  V30 36472 H 3666.75 2.55456 1.80169 0
M  V30 36473 H 3665.97 3.93296 -0.266814 0
M  V30 36474 H 3667.26 5.0865 0.12344 0
M  V30 36475 H 3666.65 4.61636 3.26969 0
M  V30 36476 H 3665.21 5.53186 3.44715 0
M  V30 36477 N 3668.64 0.375833 1.53053 0
M  V30 36478 C 3669.89 -0.21095 2.017 0
M  V30 36479 C 3670.22 -1.47579 1.26231 0
M  V30 36480 O 3669.5 -1.9116 0.358903 0
M  V30 36481 C 3669.78 -0.492534 3.56716 0
M  V30 36482 C 3669.63 0.78665 4.42868 0
M  V30 36483 C 3670.95 -1.28884 4.20805 0
M  V30 36484 H 3668.07 -0.0751955 0.733154 0
M  V30 36485 H 3670.71 0.502747 1.83228 0
M  V30 36486 H 3668.86 -1.10052 3.72587 0
M  V30 36487 H 3670.54 1.42389 4.38775 0
M  V30 36488 H 3668.78 1.40485 4.10422 0
M  V30 36489 H 3669.45 0.544451 5.49308 0
M  V30 36490 H 3671.93 -0.774426 4.0883 0
M  V30 36491 H 3670.8 -1.4546 5.29276 0
M  V30 36492 H 3671.06 -2.30026 3.77545 0
M  V30 36493 N 3670.12 -1.57248 0.105276 0
M  V30 36494 C 3671.07 -2.11125 -0.860817 0
M  V30 36495 C 3672.06 -1.02871 -1.23719 0
M  V30 36496 O 3673.25 -1.29128 -1.21058 0
M  V30 36497 C 3670.38 -2.70328 -2.11607 0
M  V30 36498 C 3669.46 -3.85642 -1.76467 0
M  V30 36499 N 3669.85 -4.93259 -1.11935 0
M  V30 36500 C 3668.15 -3.95569 -2.06013 0
M  V30 36501 C 3668.85 -5.73785 -0.956321 0
M  V30 36502 N 3667.83 -5.23152 -1.47692 0
M  V30 36503 H 3671.63 -2.9171 -0.358109 0
M  V30 36504 H 3669.15 -1.62106 -0.0976258 0
M  V30 36505 H 3671.14 -3.07262 -2.81772 0
M  V30 36506 H 3669.8 -1.91202 -2.62434 0
M  V30 36507 H 3670.81 -5.11917 -0.784952 0
M  V30 36508 H 3667.49 -3.27466 -2.58984 0
M  V30 36509 H 3668.88 -6.70386 -0.450847 0
M  V30 36510 N 3671.6 0.168458 -1.56697 0
M  V30 36511 C 3672.85 0.882875 -1.81796 0
M  V30 36512 C 3673.17 1.82657 -0.682739 0
M  V30 36513 O 3672.44 1.93632 0.2972 0
M  V30 36514 H 3671.02 0.329012 -0.670641 0
M  V30 36515 H 3673.68 0.167591 -1.94178 0
M  V30 36516 H 3672.78 1.45806 -2.75948 0
M  V30 36517 N 3673.08 1.51417 0.437109 0
M  V30 36518 C 3674.3 1.68189 1.21356 0
M  V30 36519 C 3674.73 0.37878 1.84247 0
M  V30 36520 O 3674.09 -0.661085 1.68818 0
M  V30 36521 C 3674.13 2.7993 2.27314 0
M  V30 36522 O 3673.24 2.43549 3.32803 0
M  V30 36523 H 3672.58 0.560793 0.355537 0
M  V30 36524 H 3675.11 1.97982 0.516169 0
M  V30 36525 H 3675.12 3.04021 2.72094 0
M  V30 36526 H 3673.79 3.74489 1.80916 0
M  V30 36527 H 3672.37 2.3003 2.93497 0
M  V30 36528 N 3674.56 -0.692567 1.41567 0
M  V30 36529 C 3675.97 -1.00353 1.24102 0
M  V30 36530 C 3676.17 -2.01064 0.132521 0
M  V30 36531 O 3675.23 -2.47458 -0.502099 0
M  V30 36532 C 3676.54 -1.52528 2.59144 0
M  V30 36533 C 3678.09 -1.64396 2.66351 0
M  V30 36534 C 3678.56 -2.19971 4.01717 0
M  V30 36535 N 3680.06 -2.27328 4.03579 0
M  V30 36536 C 3680.79 -2.71364 5.05123 0
M  V30 36537 N 3680.29 -3.14983 6.17056 0
M  V30 36538 N 3682.08 -2.70955 4.92483 0
M  V30 36539 H 3674.23 -0.0254486 2.12385 0
M  V30 36540 H 3676.49 -0.0738518 0.945119 0
M  V30 36541 H 3676.2 -0.85983 3.41028 0
M  V30 36542 H 3676.07 -2.50694 2.81838 0
M  V30 36543 H 3678.46 -2.30052 1.84825 0
M  V30 36544 H 3678.54 -0.647673 2.47465 0
M  V30 36545 H 3678.19 -1.5493 4.83693 0
M  V30 36546 H 3678.12 -3.20358 4.17945 0
M  V30 36547 H 3680.61 -1.9655 3.22764 0
M  V30 36548 H 3680.92 -3.47219 6.90405 0
M  V30 36549 H 3679.26 -3.12884 6.20587 0
M  V30 36550 H 3682.46 -2.36229 4.04121 0
M  V30 36551 H 3682.63 -3.04955 5.71757 0
M  V30 36552 N 3676.03 -1.27445 -0.927123 0
M  V30 36553 C 3676.96 -1.12738 -2.04481 0
M  V30 36554 C 3677.95 -0.0286961 -1.70076 0
M  V30 36555 O 3679.13 -0.203286 -1.93133 0
M  V30 36556 C 3676.26 -0.774411 -3.38556 0
M  V30 36557 C 3675.21 -1.82639 -3.87075 0
M  V30 36558 C 3674.54 -1.32738 -5.17962 0
M  V30 36559 C 3675.84 -3.23058 -4.10403 0
M  V30 36560 H 3677.53 -2.06235 -2.17043 0
M  V30 36561 H 3675.08 -0.992956 -1.0429 0
M  V30 36562 H 3677.03 -0.658346 -4.16226 0
M  V30 36563 H 3675.76 0.196263 -3.2601 0
M  V30 36564 H 3674.42 -1.93137 -3.11598 0
M  V30 36565 H 3674.06 -0.346147 -5.01808 0
M  V30 36566 H 3673.76 -2.03071 -5.51395 0
M  V30 36567 H 3675.29 -1.22427 -5.98201 0
M  V30 36568 H 3676.7 -3.15558 -4.7864 0
M  V30 36569 H 3675.1 -3.91107 -4.55143 0
M  V30 36570 H 3676.17 -3.68069 -3.15679 0
M  V30 36571 N 3677.51 1.1337 -1.09476 0
M  V30 36572 C 3678.93 1.3665 -0.824565 0
M  V30 36573 C 3679.13 1.93537 0.560869 0
M  V30 36574 O 3678.18 2.15516 1.31563 0
M  V30 36575 C 3679.5 2.31736 -1.91622 0
M  V30 36576 C 3681.05 2.4535 -1.94351 0
M  V30 36577 C 3681.52 3.43744 -3.02661 0
M  V30 36578 N 3683.01 3.51295 -3.01904 0
M  V30 36579 C 3683.75 4.27311 -3.82352 0
M  V30 36580 N 3683.24 5.06476 -4.72709 0
M  V30 36581 N 3685.04 4.22617 -3.70609 0
M  V30 36582 H 3677.19 0.74797 -1.98794 0
M  V30 36583 H 3679.45 0.391631 -0.863325 0
M  V30 36584 H 3679.16 1.97093 -2.91286 0
M  V30 36585 H 3679.03 3.31758 -1.7949 0
M  V30 36586 H 3681.42 2.7928 -0.953256 0
M  V30 36587 H 3681.5 1.45251 -2.1056 0
M  V30 36588 H 3681.14 3.10546 -4.019 0
M  V30 36589 H 3681.07 4.4365 -2.83694 0
M  V30 36590 H 3683.56 2.9481 -2.36422 0
M  V30 36591 H 3683.88 5.61787 -5.30675 0
M  V30 36592 H 3682.22 5.05707 -4.76745 0
M  V30 36593 H 3685.41 3.59847 -2.99379 0
M  V30 36594 H 3685.58 4.81606 -4.33543 0
M  V30 36595 N 3678.99 0.882035 1.30606 0
M  V30 36596 C 3679.92 0.362747 2.30665 0
M  V30 36597 C 3680.9 -0.552833 1.60866 0
M  V30 36598 O 3682.09 -0.467306 1.88494 0
M  V30 36599 C 3679.22 -0.426159 3.44675 0
M  V30 36600 C 3678.17 0.397397 4.26151 0
M  V30 36601 C 3677.5 -0.517933 5.32186 0
M  V30 36602 C 3678.8 1.63794 4.95952 0
M  V30 36603 H 3680.49 1.19888 2.74349 0
M  V30 36604 H 3678.04 0.577935 1.31894 0
M  V30 36605 H 3679.99 -0.800057 4.13735 0
M  V30 36606 H 3678.71 -1.29591 2.99789 0
M  V30 36607 H 3677.37 0.753395 3.58775 0
M  V30 36608 H 3677.02 -1.38531 4.83547 0
M  V30 36609 H 3676.72 0.0292834 5.87593 0
M  V30 36610 H 3678.24 -0.888411 6.04102 0
M  V30 36611 H 3679.66 1.3348 5.57545 0
M  V30 36612 H 3678.06 2.12513 5.61211 0
M  V30 36613 H 3679.13 2.38401 4.22247 0
M  V30 36614 N 3680.47 -1.439 0.642688 0
M  V30 36615 C 3681.4 -2.33462 -0.0419345 0
M  V30 36616 C 3682.38 -1.4887 -0.822897 0
M  V30 36617 O 3683.56 -1.77562 -0.786477 0
M  V30 36618 C 3680.69 -3.32099 -1.01625 0
M  V30 36619 C 3679.65 -4.26598 -0.346131 0
M  V30 36620 C 3678.97 -5.15191 -1.43116 0
M  V30 36621 C 3680.27 -5.16816 0.75489 0
M  V30 36622 H 3681.97 -2.90958 0.70598 0
M  V30 36623 H 3679.51 -1.39905 0.340949 0
M  V30 36624 H 3681.47 -3.93646 -1.50403 0
M  V30 36625 H 3680.19 -2.72837 -1.7952 0
M  V30 36626 H 3678.85 -3.664 0.121102 0
M  V30 36627 H 3678.5 -4.52275 -2.20127 0
M  V30 36628 H 3678.2 -5.79233 -0.988092 0
M  V30 36629 H 3679.72 -5.79611 -1.92051 0
M  V30 36630 H 3681.14 -5.72232 0.349725 0
M  V30 36631 H 3679.53 -5.89522 1.12179 0
M  V30 36632 H 3680.6 -4.57135 1.61726 0
M  V30 36633 N 3681.95 -0.383945 -1.52852 0
M  V30 36634 C 3682.88 0.488777 -2.23928 0
M  V30 36635 C 3683.89 1.03113 -1.25982 0
M  V30 36636 O 3685.08 0.934372 -1.52091 0
M  V30 36637 C 3682.18 1.68952 -2.93783 0
M  V30 36638 C 3681.35 1.27548 -4.1839 0
M  V30 36639 C 3680.41 2.34032 -4.71292 0
M  V30 36640 O 3679.44 1.95661 -5.34514 0
M  V30 36641 N 3680.64 3.65873 -4.50685 0
M  V30 36642 H 3683.41 -0.120136 -2.99459 0
M  V30 36643 H 3680.97 -0.210032 -1.60532 0
M  V30 36644 H 3682.96 2.39702 -3.26075 0
M  V30 36645 H 3681.53 2.2049 -2.21592 0
M  V30 36646 H 3680.75 0.397088 -3.92195 0
M  V30 36647 H 3682.04 0.975418 -4.99363 0
M  V30 36648 H 3681.44 3.99812 -4.00208 0
M  V30 36649 H 3679.99 4.32672 -4.87481 0
M  V30 36650 N 3683.43 1.5719 -0.113614 0
M  V30 36651 C 3684.67 1.95298 0.546495 0
M  V30 36652 C 3685 0.996701 1.66672 0
M  V30 36653 O 3684.28 0.032964 1.94472 0
M  V30 36654 C 3684.56 3.43389 1.08427 0
M  V30 36655 C 3684.42 4.49788 -0.032172 0
M  V30 36656 C 3685.73 3.93203 1.97684 0
M  V30 36657 H 3682.85 0.710132 0.197183 0
M  V30 36658 H 3685.5 1.89067 -0.188081 0
M  V30 36659 H 3683.65 3.4883 1.71027 0
M  V30 36660 H 3685.32 4.56449 -0.66724 0
M  V30 36661 H 3683.56 4.28179 -0.696058 0
M  V30 36662 H 3684.23 5.50654 0.385244 0
M  V30 36663 H 3686.71 3.90032 1.44963 0
M  V30 36664 H 3685.58 4.97353 2.32231 0
M  V30 36665 H 3685.84 3.33581 2.90131 0
M  V30 36666 N 3684.9 -0.160146 1.56784 0
M  V30 36667 C 3686.13 -0.890227 1.86769 0
M  V30 36668 C 3686.55 -1.75332 0.700307 0
M  V30 36669 O 3685.9 -1.79486 -0.33031 0
M  V30 36670 C 3685.95 -1.75779 3.15886 0
M  V30 36671 O 3685.68 -0.9295 4.28126 0
M  V30 36672 C 3687.18 -2.59658 3.59295 0
M  V30 36673 H 3684.4 -0.258077 0.619385 0
M  V30 36674 H 3686.94 -0.156884 2.03897 0
M  V30 36675 H 3685.1 -2.44434 3.00551 0
M  V30 36676 H 3685.51 -1.52388 5.01875 0
M  V30 36677 H 3686.98 -3.16128 4.52512 0
M  V30 36678 H 3687.46 -3.35067 2.83949 0
M  V30 36679 H 3688.07 -1.96316 3.7728 0
M  V30 36680 N 3686.38 -1.51647 -0.429072 0
M  V30 36681 C 3687.79 -1.57109 -1.00865 0
M  V30 36682 C 3688.14 -0.399517 -1.92089 0
M  V30 36683 O 3687.27 0.482672 -2.10948 0
M  V30 36684 C 3687.86 -2.84735 -1.83607 0
M  V30 36685 C 3686.42 -2.92741 -2.366 0
M  V30 36686 C 3685.57 -2.51855 -1.16035 0
M  V30 36687 H 3688.52 -1.57304 -0.210032 0
M  V30 36688 H 3688.54 -2.68964 -2.69145 0
M  V30 36689 H 3688.05 -3.69985 -1.17186 0
M  V30 36690 H 3686.15 -2.1194 -3.06451 0
M  V30 36691 H 3686.27 -3.96569 -2.68831 0
M  V30 36692 H 3684.63 -2.05243 -1.50823 0
M  V30 36693 H 3685.41 -3.39459 -0.512121 0
M  V30 36694 N 3687.86 0.685049 -1.41932 0
M  V30 36695 C 3688.82 1.78058 -1.44318 0
M  V30 36696 C 3689.82 1.5733 -0.332243 0
M  V30 36697 O 3691.01 1.6381 -0.592609 0
M  V30 36698 C 3688.14 3.16567 -1.26484 0
M  V30 36699 H 3689.34 1.77333 -2.41853 0
M  V30 36700 H 3686.89 0.893698 -1.28229 0
M  V30 36701 H 3687.63 3.22925 -0.298316 0
M  V30 36702 H 3687.41 3.33015 -2.06987 0
M  V30 36703 H 3688.9 3.96516 -1.31013 0
M  V30 36704 N 3689.34 1.27935 0.920351 0
M  V30 36705 C 3690.61 1.05416 1.64763 0
M  V30 36706 C 3690.99 -0.40868 2.07106 0
M  V30 36707 O 3690.34 -1.39342 1.81096 0
M  V30 36708 C 3690.55 2.02262 2.84413 0
M  V30 36709 C 3691.9 2.32042 3.55586 0
M  V30 36710 O 3692.92 2.00294 2.94552 0
M  V30 36711 O 3691.78 2.86195 4.65569 0
M  V30 36712 H 3688.88 0.402404 0.722496 0
M  V30 36713 H 3691.42 1.39228 0.970239 0
M  V30 36714 H 3690.2 3.00884 2.50168 0
M  V30 36715 H 3689.82 1.69056 3.59869 0
M  V30 36716 N 3690.82 -1.12788 1.10076 0
M  V30 36717 C 3692.04 -1.88586 0.863139 0
M  V30 36718 C 3692.47 -1.78916 -0.580564 0
M  V30 36719 O 3691.82 -1.14145 -1.40857 0
M  V30 36720 C 3691.87 -3.35906 1.31148 0
M  V30 36721 O 3690.98 -4.09665 0.47416 0
M  V30 36722 H 3690.32 -0.586109 0.312045 0
M  V30 36723 H 3692.85 -1.42659 1.46661 0
M  V30 36724 H 3692.86 -3.86742 1.2998 0
M  V30 36725 H 3691.53 -3.42261 2.36285 0
M  V30 36726 H 3690.11 -3.68811 0.55073 0
M  V30 36727 N 3692.29 -0.888949 -1.30136 0
M  V30 36728 C 3693.54 -0.508393 -1.95601 0
M  V30 36729 C 3693.86 0.946347 -1.70497 0
M  V30 36730 O 3693.13 1.6659 -1.03076 0
M  V30 36731 H 3691.71 -0.185018 -0.723725 0
M  V30 36732 H 3694.37 -1.13289 -1.58592 0
M  V30 36733 H 3693.47 -0.681968 -3.04558 0
M  V30 36734 N 3693.77 1.43557 -0.65031 0
M  V30 36735 C 3694.68 2.34559 0.0437664 0
M  V30 36736 C 3695.7 1.53717 0.815289 0
M  V30 36737 O 3696.87 1.86379 0.763197 0
M  V30 36738 C 3693.94 3.31959 1.00022 0
M  V30 36739 C 3693 4.28705 0.225951 0
M  V30 36740 C 3692.23 5.21451 1.13685 0
M  V30 36741 O 3692.46 5.18556 2.37605 0
M  V30 36742 O 3691.39 5.98793 0.610819 0
M  V30 36743 H 3695.22 2.95399 -0.705204 0
M  V30 36744 H 3692.8 1.4365 -0.410496 0
M  V30 36745 H 3694.68 3.9186 1.54997 0
M  V30 36746 H 3693.36 2.73626 1.72947 0
M  V30 36747 H 3692.26 3.72292 -0.367309 0
M  V30 36748 H 3693.6 4.90011 -0.463669 0
M  V30 36749 N 3695.25 0.392045 1.52646 0
M  V30 36750 C 3696.48 -0.188982 2.05734 0
M  V30 36751 C 3696.89 -1.40836 1.2634 0
M  V30 36752 O 3696.23 -1.81169 0.303898 0
M  V30 36753 C 3696.29 -0.620964 3.54096 0
M  V30 36754 C 3695.96 0.485329 4.54416 0
M  V30 36755 C 3696.95 1.34359 5.02239 0
M  V30 36756 C 3694.64 0.653142 4.98035 0
M  V30 36757 C 3696.63 2.35477 5.92308 0
M  V30 36758 C 3694.32 1.66765 5.87905 0
M  V30 36759 C 3695.32 2.51688 6.34935 0
M  V30 36760 O 3695.01 3.51405 7.23028 0
M  V30 36761 H 3694.74 -0.0314905 0.675266 0
M  V30 36762 H 3697.29 0.55657 1.97716 0
M  V30 36763 H 3695.52 -1.41854 3.59742 0
M  V30 36764 H 3697.21 -1.12797 3.89912 0
M  V30 36765 H 3697.98 1.22527 4.69268 0
M  V30 36766 H 3693.86 0.00184174 4.61 0
M  V30 36767 H 3697.4 3.01797 6.28939 0
M  V30 36768 H 3693.3 1.78635 6.2029 0
M  V30 36769 H 3694.06 3.47446 7.41096 0
M  V30 36770 N 3696.73 -1.57127 0.121948 0
M  V30 36771 C 3697.97 -1.95585 -0.53613 0
M  V30 36772 C 3698.31 -1.00553 -1.66141 0
M  V30 36773 O 3697.58 -0.0432769 -1.94452 0
M  V30 36774 C 3697.87 -3.43959 -1.06604 0
M  V30 36775 C 3697.72 -4.49765 0.0560249 0
M  V30 36776 C 3699.04 -3.94246 -1.95596 0
M  V30 36777 H 3696.16 -0.711168 -0.193414 0
M  V30 36778 H 3698.8 -1.88964 0.198105 0
M  V30 36779 H 3696.95 -3.49732 -1.69174 0
M  V30 36780 H 3698.62 -4.56089 0.691437 0
M  V30 36781 H 3696.86 -4.27804 0.718755 0
M  V30 36782 H 3697.53 -5.50851 -0.356036 0
M  V30 36783 H 3700.01 -3.90795 -1.42892 0
M  V30 36784 H 3698.89 -4.98577 -2.29591 0
M  V30 36785 H 3699.15 -3.35115 -2.88358 0
M  V30 36786 N 3698.21 0.151829 -1.56867 0
M  V30 36787 C 3699.45 0.871522 -1.84889 0
M  V30 36788 C 3699.81 1.78565 -0.70558 0
M  V30 36789 O 3701.01 2.54443 -0.866725 0
M  V30 36790 C 3699.28 1.62972 -3.1808 0
M  V30 36791 S 3700.84 2.3955 -3.67643 0
M  V30 36792 H 3697.66 0.291532 -0.648483 0
M  V30 36793 H 3700.26 0.131839 -1.95055 0
M  V30 36794 H 3698.97 0.949551 -3.99264 0
M  V30 36795 H 3698.5 2.41041 -3.10906 0
M  V30 36796 H 3700.51 3.64647 -3.36522 0
M  V30 36797 N 3699.68 1.51872 0.421024 0
M  V30 36798 C 3701.1 1.4041 0.758756 0
M  V30 36799 C 3701.3 0.499231 1.95218 0
M  V30 36800 O 3700.36 -0.0394772 2.52469 0
M  V30 36801 C 3701.67 2.82733 1.02384 0
M  V30 36802 C 3703.22 2.91996 1.12728 0
M  V30 36803 C 3703.69 4.35261 1.42519 0
M  V30 36804 N 3705.18 4.38442 1.49409 0
M  V30 36805 C 3705.92 5.46342 1.74064 0
M  V30 36806 N 3705.41 6.64378 1.96402 0
M  V30 36807 N 3707.21 5.33842 1.75981 0
M  V30 36808 H 3699.36 2.09245 -0.364719 0
M  V30 36809 H 3701.62 0.942622 -0.100836 0
M  V30 36810 H 3701.33 3.51015 0.219429 0
M  V30 36811 H 3701.2 3.23055 1.94718 0
M  V30 36812 H 3703.59 2.23902 1.92229 0
M  V30 36813 H 3703.67 2.55148 0.182566 0
M  V30 36814 H 3703.31 5.0391 0.635397 0
M  V30 36815 H 3703.24 4.69635 2.38223 0
M  V30 36816 H 3705.73 3.53351 1.33984 0
M  V30 36817 H 3706.05 7.42397 2.14631 0
M  V30 36818 H 3704.39 6.67465 1.93691 0
M  V30 36819 H 3707.58 4.40607 1.58059 0
M  V30 36820 H 3707.76 6.18009 1.94857 0
M  V30 36821 N 3701.16 -0.677513 1.42294 0
M  V30 36822 C 3702.41 -1.4397 1.4283 0
M  V30 36823 C 3702.74 -1.94151 0.0435382 0
M  V30 36824 O 3702.02 -1.70729 -0.931764 0
M  V30 36825 C 3702.3 -2.63868 2.45042 0
M  V30 36826 C 3702.15 -2.19337 3.92698 0
M  V30 36827 C 3703.47 -3.66083 2.44277 0
M  V30 36828 H 3700.59 -0.522167 0.520106 0
M  V30 36829 H 3703.23 -0.770188 1.7369 0
M  V30 36830 H 3701.38 -3.20989 2.18857 0
M  V30 36831 H 3703.05 -1.67404 4.29853 0
M  V30 36832 H 3701.3 -1.50937 4.06694 0
M  V30 36833 H 3701.97 -3.05447 4.59789 0
M  V30 36834 H 3704.44 -3.18674 2.67556 0
M  V30 36835 H 3703.32 -4.47559 3.17777 0
M  V30 36836 H 3703.58 -4.17024 1.46776 0
M  V30 36837 N 3702.64 -1.28421 -0.913554 0
M  V30 36838 C 3703.89 -1.15758 -1.66517 0
M  V30 36839 C 3704.22 0.293132 -1.91975 0
M  V30 36840 O 3703.49 1.21318 -1.52027 0
M  V30 36841 C 3703.78 -1.95677 -3.02295 0
M  V30 36842 C 3703.63 -3.48812 -2.8399 0
M  V30 36843 C 3704.95 -1.77233 -4.02835 0
M  V30 36844 H 3702.07 -0.421888 -0.604301 0
M  V30 36845 H 3704.71 -1.57739 -1.05917 0
M  V30 36846 H 3702.86 -1.60002 -3.54022 0
M  V30 36847 H 3704.53 -3.94394 -2.39272 0
M  V30 36848 H 3702.78 -3.74435 -2.19045 0
M  V30 36849 H 3703.45 -3.99988 -3.80412 0
M  V30 36850 H 3705.92 -2.08367 -3.6017 0
M  V30 36851 H 3704.8 -2.35524 -4.95802 0
M  V30 36852 H 3705.06 -0.723881 -4.36133 0
M  V30 36853 N 3704.12 1.12202 -1.10672 0
M  V30 36854 C 3705.37 1.83403 -0.848982 0
M  V30 36855 C 3705.69 1.84638 0.627208 0
M  V30 36856 O 3704.96 1.31125 1.45544 0
M  V30 36857 H 3703.54 0.679143 -0.311086 0
M  V30 36858 H 3706.2 1.35853 -1.39749 0
M  V30 36859 H 3705.3 2.8752 -1.21403 0
M  V30 36860 N 3705.6 0.895838 1.29663 0
M  V30 36861 C 3706.82 0.534368 2.00398 0
M  V30 36862 C 3707.25 -0.872625 1.66634 0
M  V30 36863 O 3706.6 -1.58017 0.888839 0
M  V30 36864 C 3706.65 0.729085 3.53153 0
M  V30 36865 O 3705.76 -0.220158 4.11812 0
M  V30 36866 H 3705.1 0.209244 0.630169 0
M  V30 36867 H 3707.63 1.20637 1.65251 0
M  V30 36868 H 3707.64 0.63225 4.03071 0
M  V30 36869 H 3706.31 1.75487 3.77064 0
M  V30 36870 H 3704.89 -0.0761031 3.72822 0
M  V30 36871 N 3707.07 -1.43211 0.657914 0
M  V30 36872 C 3708.3 -2.06622 0.17948 0
M  V30 36873 C 3708.72 -1.49017 -1.14785 0
M  V30 36874 O 3708.08 -0.60195 -1.71015 0
M  V30 36875 C 3708.13 -3.60442 0.106889 0
M  V30 36876 O 3707.23 -4.01787 -0.929549 0
M  V30 36877 H 3706.58 -0.656873 0.0970246 0
M  V30 36878 H 3709.11 -1.83636 0.902165 0
M  V30 36879 H 3709.12 -4.07931 -0.0748783 0
M  V30 36880 H 3707.79 -4.01745 1.07581 0
M  V30 36881 H 3706.37 -3.65879 -0.72019 0
M  V30 36882 N 3708.55 -0.400135 -1.52436 0
M  V30 36883 C 3709.8 0.178217 -2.01313 0
M  V30 36884 C 3710.12 1.46409 -1.288 0
M  V30 36885 O 3709.39 1.91535 -0.411245 0
M  V30 36886 H 3707.97 0.0688482 -0.74382 0
M  V30 36887 H 3710.63 -0.534313 -1.87433 0
M  V30 36888 H 3709.73 0.380739 -3.09769 0
M  V30 36889 N 3710.03 1.57061 -0.13028 0
M  V30 36890 C 3711.26 1.99933 0.532381 0
M  V30 36891 C 3711.67 1.01016 1.59503 0
M  V30 36892 O 3711.03 0.00466366 1.82499 0
M  V30 36893 C 3711.08 3.42778 1.14827 0
M  V30 36894 O 3710.8 4.37913 0.128086 0
M  V30 36895 C 3712.3 4.00842 1.89317 0
M  V30 36896 H 3709.52 0.656225 0.140035 0
M  V30 36897 H 3712.07 2.03314 -0.219941 0
M  V30 36898 H 3710.22 3.40302 1.85131 0
M  V30 36899 H 3710.64 5.21316 0.577043 0
M  V30 36900 H 3712.11 5.02839 2.27722 0
M  V30 36901 H 3712.59 3.40613 2.77271 0
M  V30 36902 H 3713.19 4.06898 1.2375 0
M  V30 36903 N 3711.51 -0.143508 1.56945 0
M  V30 36904 C 3712.44 -1.20226 1.95136 0
M  V30 36905 C 3713.45 -1.38994 0.847618 0
M  V30 36906 O 3714.64 -1.38503 1.12602 0
M  V30 36907 C 3711.74 -2.56652 2.2132 0
M  V30 36908 C 3710.92 -2.58816 3.52609 0
M  V30 36909 C 3709.98 -3.76807 3.67292 0
M  V30 36910 O 3709 -3.61519 4.3965 0
M  V30 36911 N 3710.2 -4.94401 3.04217 0
M  V30 36912 H 3712.97 -0.87761 2.86563 0
M  V30 36913 H 3710.53 -0.333037 1.58438 0
M  V30 36914 H 3712.52 -3.34102 2.28381 0
M  V30 36915 H 3711.09 -2.81397 1.36142 0
M  V30 36916 H 3710.31 -1.67258 3.56957 0
M  V30 36917 H 3711.6 -2.57296 4.38949 0
M  V30 36918 H 3711 -5.09724 2.45353 0
M  V30 36919 H 3709.55 -5.69613 3.16834 0
M  V30 36920 N 3712.99 -1.52093 -0.412964 0
M  V30 36921 C 3713.9 -1.78045 -1.52765 0
M  V30 36922 C 3714.91 -0.665819 -1.60757 0
M  V30 36923 O 3716.09 -0.950803 -1.77543 0
M  V30 36924 C 3713.15 -1.92218 -2.88536 0
M  V30 36925 C 3712.22 -3.16117 -2.90462 0
M  V30 36926 C 3711.45 -3.29605 -4.19757 0
M  V30 36927 O 3711.67 -2.48447 -5.13449 0
M  V30 36928 O 3710.61 -4.22734 -4.28462 0
M  V30 36929 H 3714.43 -2.72651 -1.33772 0
M  V30 36930 H 3712.02 -1.36891 -0.598437 0
M  V30 36931 H 3713.9 -2.03385 -3.6907 0
M  V30 36932 H 3712.57 -1.00801 -3.07605 0
M  V30 36933 H 3711.48 -3.10411 -2.08796 0
M  V30 36934 H 3712.81 -4.07303 -2.76342 0
M  V30 36935 N 3714.47 0.669957 -1.42651 0
M  V30 36936 C 3715.43 1.76518 -1.46199 0
M  V30 36937 C 3716.43 1.56969 -0.348911 0
M  V30 36938 O 3717.62 1.63172 -0.60995 0
M  V30 36939 C 3714.75 3.15208 -1.29835 0
M  V30 36940 H 3715.94 1.74758 -2.43721 0
M  V30 36941 H 3713.5 0.880047 -1.2917 0
M  V30 36942 H 3714.23 3.2259 -0.33255 0
M  V30 36943 H 3714.02 3.30801 -2.10507 0
M  V30 36944 H 3715.51 3.95105 -1.35211 0
M  V30 36945 N 3715.94 1.28904 0.90673 0
M  V30 36946 C 3717.17 1.19455 1.69545 0
M  V30 36947 C 3717.59 -0.242386 1.86532 0
M  V30 36948 O 3716.95 -1.17519 1.38054 0
M  V30 36949 C 3717 1.90561 3.06135 0
M  V30 36950 O 3716.1 1.21786 3.94007 0
M  V30 36951 H 3715.44 0.414299 0.518895 0
M  V30 36952 H 3717.97 1.70349 1.13324 0
M  V30 36953 H 3717.98 1.98742 3.56322 0
M  V30 36954 H 3716.66 2.95079 2.93089 0
M  V30 36955 H 3715.24 1.21816 3.52442 0
M  V30 36956 N 3717.42 -1.11614 1.11266 0
M  V30 36957 C 3718.67 -1.83584 0.861671 0
M  V30 36958 C 3719 -1.84332 -0.611189 0
M  V30 36959 O 3718.28 -1.29508 -1.45114 0
M  V30 36960 C 3718.56 -3.3085 1.42163 0
M  V30 36961 C 3718.41 -3.38507 2.96198 0
M  V30 36962 C 3719.73 -4.26868 1.07106 0
M  V30 36963 H 3716.85 -0.666539 0.314475 0
M  V30 36964 H 3719.49 -1.30889 1.37724 0
M  V30 36965 H 3717.64 -3.75855 0.98312 0
M  V30 36966 H 3719.31 -3.02074 3.48639 0
M  V30 36967 H 3717.56 -2.78784 3.32358 0
M  V30 36968 H 3718.23 -4.42151 3.30465 0
M  V30 36969 H 3720.7 -3.90034 1.44959 0
M  V30 36970 H 3719.58 -5.28299 1.48966 0
M  V30 36971 H 3719.84 -4.42096 -0.0184043 0
M  V30 36972 N 3718.9 -0.902701 -1.29186 0
M  V30 36973 C 3719.83 -0.399397 -2.30059 0
M  V30 36974 C 3720.81 0.52717 -1.61725 0
M  V30 36975 O 3722 0.43726 -1.89213 0
M  V30 36976 C 3719.13 0.37127 -3.4531 0
M  V30 36977 C 3718.08 -0.465143 -4.25465 0
M  V30 36978 C 3717.41 0.433202 -5.32942 0
M  V30 36979 C 3718.71 -1.71664 -4.93284 0
M  V30 36980 H 3720.4 -1.24238 -2.72407 0
M  V30 36981 H 3717.95 -0.598845 -1.30957 0
M  V30 36982 H 3719.9 0.734134 -4.14956 0
M  V30 36983 H 3718.62 1.24806 -3.01813 0
M  V30 36984 H 3717.28 -0.810378 -3.57531 0
M  V30 36985 H 3716.93 1.30821 -4.8569 0
M  V30 36986 H 3716.63 -0.122761 -5.87472 0
M  V30 36987 H 3718.15 0.792192 -6.05439 0
M  V30 36988 H 3719.57 -1.42333 -5.55351 0
M  V30 36989 H 3717.96 -2.21415 -5.57759 0
M  V30 36990 H 3719.03 -2.45089 -4.18401 0
M  V30 36991 N 3720.38 1.4286 -0.6655 0
M  V30 36992 C 3721.62 2.01962 -0.184192 0
M  V30 36993 C 3721.96 1.52453 1.20298 0
M  V30 36994 O 3721.23 0.722788 1.80571 0
M  V30 36995 C 3721.51 3.59496 -0.20856 0
M  V30 36996 C 3721.37 4.19206 -1.63053 0
M  V30 36997 C 3722.69 4.3781 0.448344 0
M  V30 36998 H 3719.81 0.733819 -0.0684053 0
M  V30 36999 H 3722.45 1.7 -0.84852 0
M  V30 37000 H 3720.6 3.86855 0.357111 0
M  V30 37001 H 3722.27 4.02833 -2.24773 0
M  V30 37002 H 3720.51 3.75388 -2.17407 0
M  V30 37003 H 3721.18 5.28323 -1.59934 0
M  V30 37004 H 3723.66 4.16087 -0.0330784 0
M  V30 37005 H 3722.54 5.47436 0.400616 0
M  V30 37006 H 3722.8 4.14985 1.52446 0
M  V30 37007 N 3721.86 0.408213 1.52221 0
M  V30 37008 C 3723.08 -0.167393 2.06222 0
M  V30 37009 C 3723.5 -1.38938 1.27835 0
M  V30 37010 O 3722.86 -1.79492 0.329965 0
M  V30 37011 C 3722.91 -0.518741 3.57759 0
M  V30 37012 O 3722.63 0.654715 4.3318 0
M  V30 37013 C 3724.13 -1.14818 4.28173 0
M  V30 37014 H 3721.35 -0.0207936 0.670678 0
M  V30 37015 H 3723.89 0.578903 1.96135 0
M  V30 37016 H 3722.05 -1.21493 3.67856 0
M  V30 37017 H 3722.46 0.36165 5.23252 0
M  V30 37018 H 3723.94 -1.34423 5.35382 0
M  V30 37019 H 3724.41 -2.12101 3.8459 0
M  V30 37020 H 3725.02 -0.492217 4.22442 0
M  V30 37021 N 3723.33 -1.56989 0.138607 0
M  V30 37022 C 3724.58 -1.95027 -0.51451 0
M  V30 37023 C 3724.9 -1.02547 -1.66563 0
M  V30 37024 O 3726.1 -1.3013 -2.38282 0
M  V30 37025 C 3724.56 -3.46674 -0.966686 0
M  V30 37026 C 3724.17 -4.47725 0.157047 0
M  V30 37027 C 3725.91 -3.93595 -1.59007 0
M  V30 37028 C 3723.82 -5.90572 -0.312927 0
M  V30 37029 H 3722.75 -0.728085 -0.195978 0
M  V30 37030 H 3725.4 -1.82157 0.221607 0
M  V30 37031 H 3723.78 -3.54848 -1.75781 0
M  V30 37032 H 3724.95 -4.51239 0.933807 0
M  V30 37033 H 3723.27 -4.10672 0.68831 0
M  V30 37034 H 3725.87 -4.9775 -1.95317 0
M  V30 37035 H 3726.21 -3.34672 -2.47589 0
M  V30 37036 H 3726.74 -3.88304 -0.863993 0
M  V30 37037 H 3723.48 -6.53294 0.537315 0
M  V30 37038 H 3723 -5.90436 -1.05574 0
M  V30 37039 H 3724.68 -6.42429 -0.767713 0
M  V30 37040 N 3724.81 0.135183 -1.57019 0
M  V30 37041 C 3725.74 1.1919 -1.95771 0
M  V30 37042 C 3726.76 1.38542 -0.854977 0
M  V30 37043 O 3727.95 1.37904 -1.13335 0
M  V30 37044 C 3725.05 2.55475 -2.22678 0
M  V30 37045 C 3724.22 2.56943 -3.53976 0
M  V30 37046 C 3723.28 3.74853 -3.69285 0
M  V30 37047 O 3722.3 3.59183 -4.41561 0
M  V30 37048 N 3723.51 4.92781 -3.06835 0
M  V30 37049 H 3726.27 0.8624 -2.87024 0
M  V30 37050 H 3723.83 0.32463 -1.58612 0
M  V30 37051 H 3725.82 3.32886 -2.3015 0
M  V30 37052 H 3724.39 2.80671 -1.37633 0
M  V30 37053 H 3723.61 1.65362 -3.57839 0
M  V30 37054 H 3724.9 2.54965 -4.40307 0
M  V30 37055 H 3724.3 5.08416 -2.48052 0
M  V30 37056 H 3722.86 5.67925 -3.19851 0
M  V30 37057 N 3726.29 1.5231 0.404892 0
M  V30 37058 C 3727.22 1.72189 1.51273 0
M  V30 37059 C 3728.24 0.602303 1.51249 0
M  V30 37060 O 3729.42 0.877576 1.55438 0
M  V30 37061 C 3726.52 1.75104 2.90158 0
M  V30 37062 C 3725.7 3.04166 3.14327 0
M  V30 37063 C 3724.76 2.98837 4.33108 0
M  V30 37064 O 3723.78 3.72735 4.30183 0
M  V30 37065 N 3724.98 2.1692 5.38448 0
M  V30 37066 H 3727.75 2.67767 1.34613 0
M  V30 37067 H 3725.31 1.506 0.594238 0
M  V30 37068 H 3727.3 1.69065 3.67694 0
M  V30 37069 H 3725.87 0.869809 3.00255 0
M  V30 37070 H 3725.09 3.23821 2.24797 0
M  V30 37071 H 3726.38 3.89537 3.2732 0
M  V30 37072 H 3725.78 1.56319 5.43674 0
M  V30 37073 H 3724.34 2.16735 6.14711 0
M  V30 37074 N 3727.77 -0.662382 1.43004 0
M  V30 37075 C 3729.18 -0.976981 1.26203 0
M  V30 37076 C 3729.38 -2.00737 0.175139 0
M  V30 37077 O 3728.44 -2.48467 -0.449496 0
M  V30 37078 C 3729.75 -1.46997 2.62321 0
M  V30 37079 C 3731.3 -1.58709 2.69778 0
M  V30 37080 C 3731.78 -2.11401 4.06293 0
M  V30 37081 N 3733.27 -2.18716 4.0831 0
M  V30 37082 C 3734 -2.60589 5.10765 0
M  V30 37083 N 3733.5 -3.01824 6.23598 0
M  V30 37084 N 3735.29 -2.60447 4.9812 0
M  V30 37085 H 3727.44 0.0196071 2.12391 0
M  V30 37086 H 3729.71 -0.0537878 0.946473 0
M  V30 37087 H 3729.41 -0.7873 3.42775 0
M  V30 37088 H 3729.29 -2.44659 2.87092 0
M  V30 37089 H 3731.67 -2.26079 1.89663 0
M  V30 37090 H 3731.75 -0.595037 2.48783 0
M  V30 37091 H 3731.4 -1.44636 4.86871 0
M  V30 37092 H 3731.33 -3.11421 4.24647 0
M  V30 37093 H 3733.82 -1.8966 3.2686 0
M  V30 37094 H 3734.13 -3.32496 6.97614 0
M  V30 37095 H 3732.48 -2.9965 6.27084 0
M  V30 37096 H 3735.67 -2.27604 4.09041 0
M  V30 37097 H 3735.84 -2.92759 5.78097 0
M  V30 37098 N 3729.25 -1.29383 -0.899882 0
M  V30 37099 C 3730.18 -1.1705 -2.02043 0
M  V30 37100 C 3731.16 -0.0647652 -1.69977 0
M  V30 37101 O 3732.34 -0.244207 -1.92658 0
M  V30 37102 C 3729.47 -0.84605 -3.36837 0
M  V30 37103 C 3728.43 -1.90809 -3.83114 0
M  V30 37104 C 3727.75 -1.43695 -5.1503 0
M  V30 37105 C 3729.05 -3.31691 -4.03458 0
M  V30 37106 H 3730.75 -2.10792 -2.12619 0
M  V30 37107 H 3728.29 -1.01485 -1.0216 0
M  V30 37108 H 3730.25 -0.746486 -4.14736 0
M  V30 37109 H 3728.97 0.127068 -3.26353 0
M  V30 37110 H 3727.63 -1.99703 -3.07432 0
M  V30 37111 H 3727.28 -0.45251 -5.0096 0
M  V30 37112 H 3726.98 -2.14721 -5.46963 0
M  V30 37113 H 3728.5 -1.35088 -5.95469 0
M  V30 37114 H 3729.91 -3.25639 -4.71839 0
M  V30 37115 H 3728.31 -4.00673 -4.46745 0
M  V30 37116 H 3729.38 -3.74682 -3.07801 0
M  V30 37117 N 3730.72 1.11022 -1.11856 0
M  V30 37118 C 3731.95 1.87189 -0.893032 0
M  V30 37119 C 3732.37 1.79817 0.552026 0
M  V30 37120 O 3731.73 1.16371 1.39023 0
M  V30 37121 C 3731.78 3.33777 -1.36475 0
M  V30 37122 O 3730.88 4.08859 -0.539274 0
M  V30 37123 H 3730.23 0.581071 -0.32133 0
M  V30 37124 H 3732.76 1.40308 -1.48912 0
M  V30 37125 H 3732.77 3.84625 -1.36117 0
M  V30 37126 H 3731.44 3.38458 -2.417 0
M  V30 37127 H 3730.02 3.67888 -0.609335 0
M  V30 37128 N 3732.2 0.90954 1.28706 0
M  V30 37129 C 3733.45 0.539447 1.94767 0
M  V30 37130 C 3733.77 -0.919102 1.71981 0
M  V30 37131 O 3733.04 -1.64929 1.05713 0
M  V30 37132 H 3731.62 0.196509 0.720689 0
M  V30 37133 H 3734.28 1.15798 1.5677 0
M  V30 37134 H 3733.38 0.730335 3.03435 0
M  V30 37135 N 3733.68 -1.42505 0.673067 0
M  V30 37136 C 3734.91 -2.0642 0.201385 0
M  V30 37137 C 3735.33 -1.50226 -1.13198 0
M  V30 37138 O 3734.69 -0.620054 -1.70367 0
M  V30 37139 C 3734.74 -3.60308 0.145113 0
M  V30 37140 O 3733.84 -4.02751 -0.886882 0
M  V30 37141 H 3733.18 -0.655807 0.103986 0
M  V30 37142 H 3735.71 -1.82669 0.921591 0
M  V30 37143 H 3735.72 -4.07988 -0.0316075 0
M  V30 37144 H 3734.4 -4.00581 1.11836 0
M  V30 37145 H 3732.97 -3.66623 -0.681343 0
M  V30 37146 N 3735.16 -0.41628 -1.52003 0
M  V30 37147 C 3736.11 0.423186 -2.24038 0
M  V30 37148 C 3737.09 1.00758 -1.25446 0
M  V30 37149 O 3738.28 0.929213 -1.50647 0
M  V30 37150 C 3735.41 1.53542 -3.0705 0
M  V30 37151 C 3734.5 0.961445 -4.13058 0
M  V30 37152 N 3734.89 0.11476 -5.0567 0
M  V30 37153 C 3733.19 1.23122 -4.28669 0
M  V30 37154 C 3733.89 -0.205352 -5.81337 0
M  V30 37155 N 3732.87 0.405641 -5.42084 0
M  V30 37156 H 3736.67 -0.229916 -2.92999 0
M  V30 37157 H 3734.18 -0.227115 -1.60804 0
M  V30 37158 H 3736.18 2.14948 -3.57216 0
M  V30 37159 H 3734.84 2.19107 -2.39629 0
M  V30 37160 H 3735.85 -0.250097 -5.17296 0
M  V30 37161 H 3732.53 1.88592 -3.72477 0
M  V30 37162 H 3733.92 -0.893055 -6.65939 0
M  V30 37163 N 3736.64 1.56914 -0.146931 0
M  V30 37164 C 3737.86 2.0092 0.51439 0
M  V30 37165 C 3738.29 1.02636 1.57631 0
M  V30 37166 O 3737.64 0.00210665 1.813 0
M  V30 37167 C 3737.69 3.43671 1.09191 0
M  V30 37168 O 3736.8 3.48389 2.20678 0
M  V30 37169 H 3736.14 0.651971 0.125816 0
M  V30 37170 H 3738.67 2.03144 -0.243643 0
M  V30 37171 H 3738.68 3.8247 1.4206 0
M  V30 37172 H 3737.35 4.14711 0.314263 0
M  V30 37173 H 3735.93 3.21432 1.89039 0
M  V30 37174 N 3738.11 -0.126854 1.57089 0
M  V30 37175 C 3739.05 -1.1815 1.96401 0
M  V30 37176 C 3740.06 -1.38087 0.862312 0
M  V30 37177 O 3741.25 -1.37301 1.14064 0
M  V30 37178 C 3738.35 -2.54291 2.2403 0
M  V30 37179 C 3737.52 -2.55062 3.55334 0
M  V30 37180 C 3736.58 -3.7289 3.71268 0
M  V30 37181 O 3735.61 -3.56836 4.4346 0
M  V30 37182 N 3736.81 -4.91146 3.09444 0
M  V30 37183 H 3739.57 -0.847166 2.87477 0
M  V30 37184 H 3737.13 -0.316214 1.58782 0
M  V30 37185 H 3739.13 -3.31661 2.31912 0
M  V30 37186 H 3737.7 -2.79937 1.39119 0
M  V30 37187 H 3736.92 -1.63462 3.58711 0
M  V30 37188 H 3738.2 -2.52626 4.41653 0
M  V30 37189 H 3737.6 -5.07093 2.50745 0
M  V30 37190 H 3736.16 -5.66221 3.22858 0
M  V30 37191 N 3739.59 -1.52523 -0.396809 0
M  V30 37192 C 3740.84 -1.66855 -1.14034 0
M  V30 37193 C 3741.16 -0.407021 -1.90705 0
M  V30 37194 O 3740.43 0.57841 -1.87166 0
M  V30 37195 H 3739.01 -0.615036 -0.423957 0
M  V30 37196 H 3741.67 -1.8961 -0.451008 0
M  V30 37197 H 3740.77 -2.51536 -1.84759 0
M  V30 37198 N 3741.07 0.654789 -1.43354 0
M  V30 37199 C 3742.32 1.4168 -1.45102 0
M  V30 37200 C 3742.65 1.94057 -0.0744205 0
M  V30 37201 O 3741.93 1.7219 0.904484 0
M  V30 37202 C 3742.21 2.59937 -2.49209 0
M  V30 37203 C 3742.06 2.13062 -3.96137 0
M  V30 37204 C 3743.38 3.62151 -2.5007 0
M  V30 37205 H 3740.5 0.513826 -0.528348 0
M  V30 37206 H 3743.14 0.742458 -1.74893 0
M  V30 37207 H 3741.29 3.17466 -2.23936 0
M  V30 37208 H 3742.96 1.60545 -4.32462 0
M  V30 37209 H 3741.21 1.44448 -4.09044 0
M  V30 37210 H 3741.88 2.98093 -4.64591 0
M  V30 37211 H 3744.35 3.14377 -2.72592 0
M  V30 37212 H 3743.23 4.42447 -3.24857 0
M  V30 37213 H 3743.49 4.14636 -1.53392 0
M  V30 37214 N 3742.55 1.29858 0.893007 0
M  V30 37215 C 3743.51 1.15549 1.97942 0
M  V30 37216 C 3744.51 0.0890172 1.60553 0
M  V30 37217 O 3745.7 0.336494 1.70919 0
M  V30 37218 C 3742.83 0.7685 3.32125 0
M  V30 37219 H 3744.03 2.12059 2.12064 0
M  V30 37220 H 3741.58 1.1314 1.07838 0
M  V30 37221 H 3742.32 -0.196447 3.23704 0
M  V30 37222 H 3742.1 1.53913 3.60629 0
M  V30 37223 H 3743.59 0.691632 4.11833 0
M  V30 37224 N 3744.03 -1.10427 1.12443 0
M  V30 37225 C 3745.26 -1.85902 0.901323 0
M  V30 37226 C 3745.67 -1.80941 -0.552897 0
M  V30 37227 O 3745.01 -1.19636 -1.39402 0
M  V30 37228 C 3745.07 -3.35244 1.29814 0
M  V30 37229 C 3744.73 -3.63964 2.76368 0
M  V30 37230 C 3745.73 -3.60557 3.74559 0
M  V30 37231 C 3743.42 -3.92637 3.13275 0
M  V30 37232 C 3745.41 -3.85417 5.07673 0
M  V30 37233 C 3743.1 -4.17154 4.46571 0
M  V30 37234 C 3744.1 -4.13534 5.43579 0
M  V30 37235 O 3743.78 -4.37427 6.74472 0
M  V30 37236 H 3743.52 -0.594395 0.32198 0
M  V30 37237 H 3746.07 -1.40512 1.49819 0
M  V30 37238 H 3744.3 -3.81292 0.644483 0
M  V30 37239 H 3745.99 -3.92107 1.04915 0
M  V30 37240 H 3746.75 -3.38444 3.47391 0
M  V30 37241 H 3742.63 -3.94585 2.38377 0
M  V30 37242 H 3746.18 -3.82507 5.83381 0
M  V30 37243 H 3742.07 -4.38746 4.73468 0
M  V30 37244 H 3742.84 -4.54941 6.8042 0
M  V30 37245 N 3745.51 -0.916353 -1.28221 0
M  V30 37246 C 3746.92 -0.597034 -1.76897 0
M  V30 37247 C 3747.27 0.887688 -1.7497 0
M  V30 37248 O 3746.39 1.69445 -1.34601 0
M  V30 37249 C 3746.99 -1.077 -3.21226 0
M  V30 37250 C 3745.55 -0.808555 -3.67613 0
M  V30 37251 C 3744.69 -1.24224 -2.47919 0
M  V30 37252 H 3747.64 -1.09734 -1.14648 0
M  V30 37253 H 3747.67 -0.419597 -3.78179 0
M  V30 37254 H 3747.18 -2.15762 -3.22596 0
M  V30 37255 H 3745.28 0.258749 -3.717 0
M  V30 37256 H 3745.39 -1.41813 -4.57631 0
M  V30 37257 H 3743.76 -0.660935 -2.45975 0
M  V30 37258 H 3744.54 -2.33126 -2.52006 0
M  V30 37259 N 3746.98 1.42146 -0.680615 0
M  V30 37260 C 3748.23 2.01755 -0.205602 0
M  V30 37261 C 3748.56 1.5372 1.18675 0
M  V30 37262 O 3747.84 0.741899 1.79795 0
M  V30 37263 C 3748.12 3.59254 -0.246678 0
M  V30 37264 C 3747.97 4.17453 -1.6749 0
M  V30 37265 C 3749.29 4.38261 0.401883 0
M  V30 37266 H 3746.41 0.733052 -0.0761846 0
M  V30 37267 H 3749.05 1.69091 -0.866503 0
M  V30 37268 H 3747.2 3.87212 0.316059 0
M  V30 37269 H 3748.88 4.00427 -2.29033 0
M  V30 37270 H 3747.12 3.73061 -2.21377 0
M  V30 37271 H 3747.79 5.26597 -1.65528 0
M  V30 37272 H 3750.27 4.16028 -0.0772081 0
M  V30 37273 H 3749.14 5.4783 0.342531 0
M  V30 37274 H 3749.4 4.16579 1.48036 0
M  V30 37275 N 3748.46 0.424336 1.5178 0
M  V30 37276 C 3749.88 0.075961 1.59419 0
M  V30 37277 C 3750.08 -1.41336 1.43619 0
M  V30 37278 O 3749.13 -2.18189 1.27082 0
M  V30 37279 C 3750.45 0.584463 2.94965 0
M  V30 37280 C 3751.99 0.543764 3.0824 0
M  V30 37281 C 3752.47 1.02903 4.4629 0
M  V30 37282 N 3753.96 0.986472 4.52574 0
M  V30 37283 C 3754.7 1.33296 5.57691 0
M  V30 37284 N 3754.19 1.75166 6.7029 0
M  V30 37285 N 3755.98 1.25196 5.4798 0
M  V30 37286 H 3748.14 1.39351 1.60296 0
M  V30 37287 H 3750.4 0.573424 0.75491 0
M  V30 37288 H 3750.1 1.62599 3.11857 0
M  V30 37289 H 3749.98 0.00231066 3.772 0
M  V30 37290 H 3752.37 -0.488747 2.91025 0
M  V30 37291 H 3752.45 1.16216 2.27876 0
M  V30 37292 H 3752.09 2.05994 4.64251 0
M  V30 37293 H 3752.02 0.387294 5.25174 0
M  V30 37294 H 3754.51 0.67883 3.71753 0
M  V30 37295 H 3754.82 1.99876 7.46505 0
M  V30 37296 H 3753.17 1.79082 6.71531 0
M  V30 37297 H 3756.36 0.923605 4.58898 0
M  V30 37298 H 3756.53 1.52528 6.29793 0
M  V30 37299 N 3749.94 -1.56833 0.15525 0
M  V30 37300 C 3751.19 -1.95562 -0.493796 0
M  V30 37301 C 3751.5 -1.04308 -1.65466 0
M  V30 37302 O 3752.71 -1.3265 -2.36888 0
M  V30 37303 C 3751.16 -3.4768 -0.929862 0
M  V30 37304 C 3750.77 -4.47533 0.204526 0
M  V30 37305 C 3752.52 -3.95259 -1.54823 0
M  V30 37306 C 3750.42 -5.9087 -0.250271 0
M  V30 37307 H 3749.35 -0.730123 -0.188245 0
M  V30 37308 H 3752 -1.81912 0.240915 0
M  V30 37309 H 3750.39 -3.56692 -1.72008 0
M  V30 37310 H 3751.56 -4.50223 0.981614 0
M  V30 37311 H 3749.87 -4.09919 0.731828 0
M  V30 37312 H 3752.47 -4.99794 -1.90027 0
M  V30 37313 H 3752.81 -3.37279 -2.44025 0
M  V30 37314 H 3753.35 -3.89199 -0.822759 0
M  V30 37315 H 3750.09 -6.52687 0.606576 0
M  V30 37316 H 3749.61 -5.91522 -0.99306 0
M  V30 37317 H 3751.29 -6.43207 -0.699532 0
M  V30 37318 N 3751.42 0.118521 -1.57154 0
M  V30 37319 C 3752.33 1.1642 -2.03675 0
M  V30 37320 C 3753.34 1.45304 -0.957229 0
M  V30 37321 O 3754.52 1.5641 -1.26877 0
M  V30 37322 C 3751.58 2.47077 -2.43215 0
M  V30 37323 C 3750.65 2.25587 -3.65252 0
M  V30 37324 C 3749.88 3.50014 -4.02897 0
M  V30 37325 O 3750.1 4.57338 -3.40879 0
M  V30 37326 O 3749.04 3.40987 -4.95995 0
M  V30 37327 H 3752.86 0.799154 -2.92997 0
M  V30 37328 H 3750.45 0.329351 -1.45725 0
M  V30 37329 H 3752.33 3.24056 -2.6938 0
M  V30 37330 H 3751 2.83055 -1.57039 0
M  V30 37331 H 3749.91 1.46465 -3.44237 0
M  V30 37332 H 3751.24 1.94513 -4.52135 0
M  V30 37333 N 3752.9 1.52731 0.388715 0
M  V30 37334 C 3754.12 1.71965 1.15943 0
M  V30 37335 C 3754.55 0.437205 1.82948 0
M  V30 37336 O 3753.9 -0.607042 1.70835 0
M  V30 37337 C 3753.95 2.8702 2.18293 0
M  V30 37338 O 3753.06 2.54013 3.24886 0
M  V30 37339 H 3752.4 0.571821 0.337516 0
M  V30 37340 H 3754.93 1.99524 0.452922 0
M  V30 37341 H 3754.94 3.12523 2.62284 0
M  V30 37342 H 3753.61 3.80055 1.68911 0
M  V30 37343 H 3752.19 2.39251 2.8603 0
M  V30 37344 N 3754.37 -0.647178 1.43699 0
M  V30 37345 C 3755.6 -1.43955 1.49304 0
M  V30 37346 C 3756.02 -1.87754 0.113983 0
M  V30 37347 O 3755.38 -1.57751 -0.893543 0
M  V30 37348 C 3755.43 -2.64673 2.44909 0
M  V30 37349 O 3754.53 -3.63945 1.93953 0
M  V30 37350 H 3753.87 -0.431387 0.504779 0
M  V30 37351 H 3756.4 -0.791399 1.88674 0
M  V30 37352 H 3756.41 -3.12414 2.62414 0
M  V30 37353 H 3755.09 -2.32137 3.45087 0
M  V30 37354 H 3753.67 -3.23121 1.86138 0
M  V30 37355 N 3755.85 -1.3033 -0.886108 0
M  V30 37356 C 3757.08 -1.22137 -1.67623 0
M  V30 37357 C 3757.5 0.212679 -1.86894 0
M  V30 37358 O 3756.86 1.15308 -1.39907 0
M  V30 37359 C 3756.91 -1.95407 -3.03065 0
M  V30 37360 O 3756.01 -1.28039 -3.9202 0
M  V30 37361 H 3755.35 -0.422502 -0.512238 0
M  V30 37362 H 3757.88 -1.72131 -1.10599 0
M  V30 37363 H 3757.89 -2.04386 -3.53115 0
M  V30 37364 H 3756.57 -2.99704 -2.88358 0
M  V30 37365 H 3755.15 -1.27408 -3.50459 0
M  V30 37366 N 3757.33 1.0983 -1.13028 0
M  V30 37367 C 3758.29 2.14528 -0.80687 0
M  V30 37368 C 3759.29 1.5977 0.181722 0
M  V30 37369 O 3760.48 1.74142 -0.0448461 0
M  V30 37370 C 3757.62 3.40312 -0.200153 0
M  V30 37371 H 3758.81 2.44648 -1.73457 0
M  V30 37372 H 3756.36 1.25298 -0.934353 0
M  V30 37373 H 3757.1 3.15815 0.736973 0
M  V30 37374 H 3756.88 3.81346 -0.912012 0
M  V30 37375 H 3758.37 4.17599 0.00940907 0
M  V30 37376 N 3758.81 0.92314 1.27734 0
M  V30 37377 C 3760.03 0.576755 1.99219 0
M  V30 37378 C 3760.46 -0.837083 1.68447 0
M  V30 37379 O 3759.82 -1.56096 0.922157 0
M  V30 37380 C 3759.86 0.80383 3.51527 0
M  V30 37381 O 3758.97 -0.132757 4.12186 0
M  V30 37382 H 3758.31 0.222564 0.625589 0
M  V30 37383 H 3760.84 1.24115 1.62655 0
M  V30 37384 H 3760.85 0.717605 4.0164 0
M  V30 37385 H 3759.52 1.83446 3.73257 0
M  V30 37386 H 3758.1 0.00299512 3.729 0
M  V30 37387 N 3760.29 -1.41783 0.688143 0
M  V30 37388 C 3761.22 -2.33478 0.0323609 0
M  V30 37389 C 3762.2 -1.51413 -0.775118 0
M  V30 37390 O 3763.38 -1.79974 -0.729589 0
M  V30 37391 C 3760.51 -3.35164 -0.910082 0
M  V30 37392 C 3759.47 -4.27483 -0.210237 0
M  V30 37393 C 3758.79 -5.19483 -1.26653 0
M  V30 37394 C 3760.09 -5.14153 0.918929 0
M  V30 37395 H 3761.79 -2.88564 0.798189 0
M  V30 37396 H 3759.33 -1.3875 0.385286 0
M  V30 37397 H 3761.29 -3.98231 -1.37803 0
M  V30 37398 H 3760.01 -2.78411 -1.70749 0
M  V30 37399 H 3758.67 -3.65829 0.237608 0
M  V30 37400 H 3758.32 -4.5905 -2.05627 0
M  V30 37401 H 3758.02 -5.82083 -0.803314 0
M  V30 37402 H 3759.54 -5.85427 -1.73514 0
M  V30 37403 H 3760.95 -5.7083 0.531599 0
M  V30 37404 H 3759.35 -5.85654 1.30877 0
M  V30 37405 H 3760.42 -4.51759 1.76188 0
M  V30 37406 N 3761.76 -0.432379 -1.51553 0
M  V30 37407 C 3762.73 0.369872 -2.26196 0
M  V30 37408 C 3763.73 0.953938 -1.29448 0
M  V30 37409 O 3764.92 0.829167 -1.53201 0
M  V30 37410 C 3762.05 1.52283 -3.04996 0
M  V30 37411 H 3763.24 -0.284225 -2.9855 0
M  V30 37412 H 3760.8 -0.185428 -1.55196 0
M  V30 37413 H 3761.53 2.21313 -2.37047 0
M  V30 37414 H 3761.32 1.11026 -3.76053 0
M  V30 37415 H 3762.81 2.08976 -3.61551 0
M  V30 37416 N 3763.24 1.56749 -0.163565 0
M  V30 37417 C 3764.19 2.18892 0.786706 0
M  V30 37418 C 3765.18 1.15068 1.24321 0
M  V30 37419 O 3766.39 1.33284 1.20976 0
M  V30 37420 H 3762.77 0.701103 0.271954 0
M  V30 37421 H 3764.74 2.97445 0.238548 0
M  V30 37422 C 3763.49 2.83786 2.009 0
M  V30 37423 H 3762.81 3.634 1.66675 0
M  V30 37424 H 3764.25 3.30747 2.65297 0
M  V30 37425 C 3762.71 1.83152 2.82766 0
M  V30 37426 O 3763.24 1.3122 3.79663 0
M  V30 37427 N 3761.44 1.52083 2.47627 0
M  V30 37428 H 3760.99 1.94507 1.68892 0
M  V30 37429 H 3760.95 0.850017 3.02691 0
M  V30 37430 N 3764.72 -0.110185 1.57214 0
M  V30 37431 C 3765.97 -0.814794 1.84947 0
M  V30 37432 C 3766.29 -1.79997 0.750061 0
M  V30 37433 O 3765.56 -1.94602 -0.22513 0
M  V30 37434 H 3764.14 -0.303895 0.68239 0
M  V30 37435 H 3766.8 -0.0954073 1.94666 0
M  V30 37436 H 3765.9 -1.35464 2.81169 0
M  V30 37437 N 3766.2 -1.52935 -0.38061 0
M  V30 37438 C 3767.15 -1.7469 -1.46518 0
M  V30 37439 C 3768.13 -0.601114 -1.4925 0
M  V30 37440 O 3769.32 -0.859252 -1.54745 0
M  V30 37441 C 3766.45 -1.92673 -2.84134 0
M  V30 37442 C 3765.54 -3.13209 -2.85939 0
M  V30 37443 N 3765.93 -4.35403 -2.57405 0
M  V30 37444 C 3764.23 -3.13625 -3.17105 0
M  V30 37445 C 3764.93 -5.17058 -2.66507 0
M  V30 37446 N 3763.91 -4.52931 -3.0059 0
M  V30 37447 H 3767.71 -2.66787 -1.23297 0
M  V30 37448 H 3765.22 -1.51356 -0.588649 0
M  V30 37449 H 3767.22 -2.06382 -3.62232 0
M  V30 37450 H 3765.88 -1.01795 -3.08331 0
M  V30 37451 H 3766.89 -4.63393 -2.31273 0
M  V30 37452 H 3763.57 -2.32586 -3.46713 0
M  V30 37453 H 3764.96 -6.24488 -2.4792 0
M  V30 37454 N 3767.68 0.639548 -1.4404 0
M  V30 37455 C 3768.9 1.42667 -1.49846 0
M  V30 37456 C 3769.32 1.88414 -0.120632 0
M  V30 37457 O 3768.68 1.60328 0.871847 0
M  V30 37458 C 3768.73 2.65259 -2.45601 0
M  V30 37459 O 3768.45 2.21421 -3.78027 0
M  V30 37460 C 3769.95 3.58476 -2.60787 0
M  V30 37461 H 3767.17 0.437817 -0.508485 0
M  V30 37462 H 3769.71 0.782889 -1.88921 0
M  V30 37463 H 3767.87 3.25747 -2.09685 0
M  V30 37464 H 3768.28 3.00838 -4.29647 0
M  V30 37465 H 3769.76 4.41124 -3.31834 0
M  V30 37466 H 3770.23 4.0673 -1.65734 0
M  V30 37467 H 3770.84 3.03862 -2.9757 0
M  V30 37468 N 3769.15 1.30798 0.879184 0
M  V30 37469 C 3770.08 1.2025 2.00156 0
M  V30 37470 C 3771.07 0.0917989 1.69852 0
M  V30 37471 O 3772.25 0.274826 1.92246 0
M  V30 37472 C 3769.38 0.899531 3.35449 0
M  V30 37473 C 3768.33 1.96879 3.8003 0
M  V30 37474 C 3767.66 1.5187 5.12679 0
M  V30 37475 C 3768.96 3.38068 3.9813 0
M  V30 37476 H 3770.65 2.14148 2.09239 0
M  V30 37477 H 3768.2 1.03098 1.00533 0
M  V30 37478 H 3770.15 0.812372 4.13495 0
M  V30 37479 H 3768.88 -0.0751316 3.26514 0
M  V30 37480 H 3767.54 2.04569 3.04216 0
M  V30 37481 H 3767.18 0.532151 5.00177 0
M  V30 37482 H 3766.88 2.23395 5.43478 0
M  V30 37483 H 3768.41 1.44544 5.93245 0
M  V30 37484 H 3769.82 3.33105 4.66599 0
M  V30 37485 H 3768.22 4.0773 4.40314 0
M  V30 37486 H 3769.29 3.79532 3.01801 0
M  V30 37487 N 3770.63 -1.09229 1.13608 0
M  V30 37488 C 3771.91 -1.78033 0.810151 0
M  V30 37489 C 3772.29 -1.99229 -0.697918 0
M  V30 37490 O 3771.64 -1.59533 -1.63589 0
M  V30 37491 C 3771.85 -3.10195 1.59937 0
M  V30 37492 C 3773.2 -3.84869 1.79335 0
M  V30 37493 O 3774.22 -3.19953 1.56553 0
M  V30 37494 O 3773.08 -5.01413 2.17364 0
M  V30 37495 H 3770.17 -0.77221 0.296008 0
M  V30 37496 H 3772.72 -1.15767 1.24081 0
M  V30 37497 H 3771.49 -2.90265 2.62415 0
M  V30 37498 H 3771.11 -3.80187 1.16378 0
M  V30 37499 N 3772.11 -0.929901 -1.27242 0
M  V30 37500 C 3773.04 -0.448106 -2.2916 0
M  V30 37501 C 3774.02 0.492747 -1.62807 0
M  V30 37502 O 3775.21 0.397026 -1.90098 0
M  V30 37503 C 3772.34 0.297942 -3.4602 0
M  V30 37504 C 3771.29 -0.555286 -4.24383 0
M  V30 37505 C 3770.62 0.320059 -5.33741 0
M  V30 37506 C 3771.92 -1.82088 -4.89532 0
M  V30 37507 H 3773.61 -1.29988 -2.6971 0
M  V30 37508 H 3771.16 -0.626488 -1.29658 0
M  V30 37509 H 3773.11 0.645951 -4.1642 0
M  V30 37510 H 3771.83 1.18376 -3.04392 0
M  V30 37511 H 3770.49 -0.886033 -3.55732 0
M  V30 37512 H 3770.14 1.20489 -4.88356 0
M  V30 37513 H 3769.84 -0.247344 -5.87079 0
M  V30 37514 H 3771.37 0.663591 -6.06983 0
M  V30 37515 H 3772.78 -1.54081 -5.52207 0
M  V30 37516 H 3771.18 -2.33196 -5.52937 0
M  V30 37517 H 3772.25 -2.53908 -4.13108 0
M  V30 37518 N 3773.59 1.41416 -0.695653 0
M  V30 37519 C 3774.54 2.32592 -0.0189864 0
M  V30 37520 C 3775.53 1.50967 0.768454 0
M  V30 37521 O 3776.74 1.66902 0.674066 0
M  V30 37522 H 3773.11 0.751893 0.012661 0
M  V30 37523 H 3775.08 2.87336 -0.805018 0
M  V30 37524 C 3773.83 3.35759 0.903399 0
M  V30 37525 H 3773.16 3.9862 0.306893 0
M  V30 37526 H 3774.6 4.02096 1.34518 0
M  V30 37527 C 3773.05 2.69654 2.01961 0
M  V30 37528 O 3773.58 2.54443 3.1084 0
M  V30 37529 N 3771.79 2.28348 1.79737 0
M  V30 37530 H 3771.34 2.4092 0.911886 0
M  V30 37531 H 3771.3 1.84454 2.54606 0
M  V30 37532 N 3775.07 0.44041 1.51321 0
M  V30 37533 C 3776.31 -0.12416 2.04023 0
M  V30 37534 C 3776.67 -1.39694 1.31717 0
M  V30 37535 O 3777.87 -2.04195 1.74808 0
M  V30 37536 C 3776.14 -0.334682 3.5583 0
M  V30 37537 S 3777.7 -0.862216 4.30246 0
M  V30 37538 H 3774.52 -0.0304079 0.710349 0
M  V30 37539 H 3777.12 0.60052 1.86048 0
M  V30 37540 H 3775.83 0.597947 4.06021 0
M  V30 37541 H 3775.36 -1.08635 3.78103 0
M  V30 37542 H 3777.37 -2.13943 4.47708 0
M  V30 37543 N 3776.55 -1.5666 0.171876 0
M  V30 37544 C 3777.48 -2.20997 -0.753822 0
M  V30 37545 C 3778.46 -1.16576 -1.23871 0
M  V30 37546 O 3779.64 -1.45007 -1.29176 0
M  V30 37547 C 3776.77 -2.85116 -1.98309 0
M  V30 37548 C 3775.73 -3.9558 -1.63403 0
M  V30 37549 C 3775.05 -4.46751 -2.93799 0
M  V30 37550 C 3776.35 -5.15144 -0.861623 0
M  V30 37551 H 3778.05 -2.98609 -0.217545 0
M  V30 37552 H 3775.59 -1.4363 -0.103195 0
M  V30 37553 H 3777.54 -3.28799 -2.6357 0
M  V30 37554 H 3776.27 -2.04874 -2.54351 0
M  V30 37555 H 3774.93 -3.52553 -1.0051 0
M  V30 37556 H 3774.58 -3.63299 -3.47883 0
M  V30 37557 H 3774.28 -5.21273 -2.71198 0
M  V30 37558 H 3775.8 -4.93121 -3.60089 0
M  V30 37559 H 3777.21 -5.55517 -1.41684 0
M  V30 37560 H 3775.61 -5.95587 -0.734623 0
M  V30 37561 H 3776.68 -4.84692 0.141936 0
M  V30 37562 N 3778.02 0.101846 -1.57271 0
M  V30 37563 C 3779.27 0.807763 -1.86019 0
M  V30 37564 C 3779.6 1.78709 -0.760055 0
M  V30 37565 O 3778.88 1.93104 0.232593 0
M  V30 37566 C 3779.16 1.5425 -3.25391 0
M  V30 37567 C 3779.01 0.581615 -4.46024 0
M  V30 37568 C 3780.33 2.49467 -3.62566 0
M  V30 37569 H 3777.45 0.292198 -0.676601 0
M  V30 37570 H 3780.09 0.0715527 -1.89865 0
M  V30 37571 H 3778.24 2.17007 -3.22243 0
M  V30 37572 H 3779.92 -0.038434 -4.61284 0
M  V30 37573 H 3778.16 -0.105541 -4.33672 0
M  V30 37574 H 3778.83 1.1327 -5.40253 0
M  V30 37575 H 3781.31 1.96806 -3.66615 0
M  V30 37576 H 3780.18 2.97897 -4.6103 0
M  V30 37577 H 3780.44 3.32918 -2.90891 0
M  V30 37578 N 3779.5 1.53135 0.372494 0
M  V30 37579 C 3780.46 1.7842 1.43872 0
M  V30 37580 C 3781.46 0.654481 1.46878 0
M  V30 37581 O 3782.65 0.922645 1.4776 0
M  V30 37582 C 3779.79 1.89999 2.83043 0
M  V30 37583 H 3780.98 2.73638 1.22729 0
M  V30 37584 H 3778.53 1.44107 0.605221 0
M  V30 37585 H 3779.27 0.968233 3.09509 0
M  V30 37586 H 3779.05 2.72161 2.8226 0
M  V30 37587 H 3780.54 2.11177 3.60269 0
M  V30 37588 N 3780.98 -0.6319 1.44377 0
M  V30 37589 C 3782.2 -1.42364 1.50822 0
M  V30 37590 C 3782.63 -1.87623 0.133891 0
M  V30 37591 O 3781.99 -1.5869 -0.876761 0
M  V30 37592 C 3782.04 -2.6206 2.47703 0
M  V30 37593 O 3781.14 -3.61867 1.97802 0
M  V30 37594 H 3780.48 -0.426009 0.509326 0
M  V30 37595 H 3783.01 -0.771343 1.89503 0
M  V30 37596 H 3783.02 -3.09613 2.65713 0
M  V30 37597 H 3781.7 -2.28464 3.4753 0
M  V30 37598 H 3780.27 -3.21128 1.89555 0
M  V30 37599 N 3782.46 -1.31262 -0.872235 0
M  V30 37600 C 3783.39 -1.1454 -1.98528 0
M  V30 37601 C 3784.4 -0.0851008 -1.62577 0
M  V30 37602 O 3785.59 -0.332374 -1.75378 0
M  V30 37603 C 3782.69 -0.727328 -3.31003 0
M  V30 37604 C 3781.86 -1.87214 -3.95309 0
M  V30 37605 C 3780.92 -1.44051 -5.06099 0
M  V30 37606 O 3779.95 -2.14979 -5.27041 0
M  V30 37607 N 3781.15 -0.326632 -5.7958 0
M  V30 37608 H 3783.92 -2.1041 -2.13419 0
M  V30 37609 H 3781.48 -1.23567 -1.04608 0
M  V30 37610 H 3783.47 -0.421325 -4.02501 0
M  V30 37611 H 3782.04 0.139695 -3.12288 0
M  V30 37612 H 3781.26 -2.34559 -3.16821 0
M  V30 37613 H 3782.55 -2.639 -4.3501 0
M  V30 37614 H 3781.95 0.264102 -5.65083 0
M  V30 37615 H 3780.5 -0.0801503 -6.51751 0
M  V30 37616 N 3783.94 1.08625 -1.14186 0
M  V30 37617 C 3784.9 2.1366 -0.829578 0
M  V30 37618 C 3785.9 1.59954 0.164766 0
M  V30 37619 O 3787.09 1.74085 -0.0633137 0
M  V30 37620 C 3784.22 3.4008 -0.236236 0
M  V30 37621 H 3785.41 2.42794 -1.76043 0
M  V30 37622 H 3782.97 1.243 -0.947589 0
M  V30 37623 H 3783.7 3.16579 0.703435 0
M  V30 37624 H 3783.49 3.80357 -0.952408 0
M  V30 37625 H 3784.98 4.17585 -0.0348834 0
M  V30 37626 N 3785.41 0.936635 1.26747 0
M  V30 37627 C 3786.83 0.625101 1.75924 0
M  V30 37628 C 3787.18 -0.85974 1.7636 0
M  V30 37629 O 3786.3 -1.67282 1.3728 0
M  V30 37630 C 3786.9 1.12797 3.19472 0
M  V30 37631 C 3785.46 0.866936 3.6628 0
M  V30 37632 C 3784.6 1.28152 2.45911 0
M  V30 37633 H 3787.55 1.11544 1.12888 0
M  V30 37634 H 3787.57 0.479709 3.77464 0
M  V30 37635 H 3787.09 2.20867 3.19123 0
M  V30 37636 H 3785.19 -0.199582 3.72065 0
M  V30 37637 H 3785.3 1.49075 4.55317 0
M  V30 37638 H 3783.66 0.699984 2.44892 0
M  V30 37639 H 3784.45 2.37106 2.48266 0
M  V30 37640 N 3786.89 -1.41045 0.703143 0
M  V30 37641 C 3787.84 -2.27992 0.0193024 0
M  V30 37642 C 3788.83 -1.42603 -0.745191 0
M  V30 37643 O 3790.02 -1.65807 -0.619438 0
M  V30 37644 C 3787.15 -3.30996 -0.910837 0
M  V30 37645 C 3786.23 -4.23862 -0.142191 0
M  V30 37646 N 3786.62 -4.98296 0.868015 0
M  V30 37647 C 3784.92 -4.44407 -0.376573 0
M  V30 37648 C 3785.62 -5.6632 1.32878 0
M  V30 37649 N 3784.6 -5.3966 0.653271 0
M  V30 37650 H 3788.4 -2.82979 0.793737 0
M  V30 37651 H 3785.92 -1.53347 0.534636 0
M  V30 37652 H 3787.91 -3.92118 -1.41596 0
M  V30 37653 H 3786.57 -2.7757 -1.68479 0
M  V30 37654 H 3787.58 -5.02626 1.24849 0
M  V30 37655 H 3784.26 -4.01978 -1.12782 0
M  V30 37656 H 3785.65 -6.35979 2.16749 0
M  V30 37657 N 3788.37 -0.448429 -1.51086 0
M  V30 37658 C 3789.6 0.112658 -2.06593 0
M  V30 37659 C 3790.01 1.355 -1.31474 0
M  V30 37660 O 3789.37 1.78554 -0.377438 0
M  V30 37661 C 3789.42 0.423705 -3.59008 0
M  V30 37662 O 3789.14 -0.769335 -4.31292 0
M  V30 37663 C 3790.64 1.03425 -4.31066 0
M  V30 37664 H 3787.86 0.00300447 -0.670993 0
M  V30 37665 H 3790.41 -0.630701 -1.94531 0
M  V30 37666 H 3788.56 1.11697 -3.70948 0
M  V30 37667 H 3788.98 -0.500253 -5.22109 0
M  V30 37668 H 3790.45 1.20181 -5.38758 0
M  V30 37669 H 3790.93 2.0183 -3.90079 0
M  V30 37670 H 3791.53 0.380041 -4.23599 0
M  V30 37671 N 3789.85 1.56567 -0.180181 0
M  V30 37672 C 3791.1 1.96323 0.462621 0
M  V30 37673 C 3791.41 1.06927 1.63786 0
M  V30 37674 O 3792.62 1.36402 2.34748 0
M  V30 37675 C 3791.07 3.49116 0.874431 0
M  V30 37676 C 3790.68 4.47151 -0.275698 0
M  V30 37677 C 3792.42 3.97673 1.48515 0
M  V30 37678 C 3790.33 5.91194 0.156237 0
M  V30 37679 H 3789.26 0.733026 0.176606 0
M  V30 37680 H 3791.91 1.81505 -0.269825 0
M  V30 37681 H 3790.29 3.59384 1.66311 0
M  V30 37682 H 3791.47 4.48605 -1.05312 0
M  V30 37683 H 3789.78 4.08702 -0.79695 0
M  V30 37684 H 3792.38 5.02754 1.82052 0
M  V30 37685 H 3792.72 3.41119 2.38628 0
M  V30 37686 H 3793.26 3.90458 0.760737 0
M  V30 37687 H 3790 6.5164 -0.710336 0
M  V30 37688 H 3789.52 5.93027 0.898828 0
M  V30 37689 H 3791.19 6.44239 0.597115 0
M  V30 37690 N 3791.33 -0.0935042 1.57322 0
M  V30 37691 C 3792.55 -0.810211 1.90376 0
M  V30 37692 C 3792.97 -1.72204 0.774041 0
M  V30 37693 O 3792.33 -1.80725 -0.253887 0
M  V30 37694 C 3792.38 -1.62223 3.23057 0
M  V30 37695 O 3792.1 -0.747081 4.31683 0
M  V30 37696 C 3793.6 -2.44185 3.69984 0
M  V30 37697 H 3790.82 -0.231574 0.629773 0
M  V30 37698 H 3793.36 -0.0702625 2.04379 0
M  V30 37699 H 3791.52 -2.31467 3.10647 0
M  V30 37700 H 3791.93 -1.30965 5.07886 0
M  V30 37701 H 3793.41 -2.96651 4.65513 0
M  V30 37702 H 3793.88 -3.22722 2.97904 0
M  V30 37703 H 3794.49 -1.80137 3.85267 0
M  V30 37704 N 3792.8 -1.5333 -0.364368 0
M  V30 37705 C 3794.05 -1.70768 -1.10498 0
M  V30 37706 C 3794.41 -0.454513 -1.86954 0
M  V30 37707 O 3793.7 0.552495 -1.83461 0
M  V30 37708 C 3793.89 -2.89774 -2.09203 0
M  V30 37709 C 3793.72 -4.26543 -1.42446 0
M  V30 37710 C 3792.49 -4.91375 -1.17807 0
M  V30 37711 C 3794.69 -5.07033 -0.86153 0
M  V30 37712 N 3792.67 -6.12066 -0.474125 0
M  V30 37713 C 3794.04 -6.19335 -0.287011 0
M  V30 37714 C 3796.1 -4.9206 -0.760337 0
M  V30 37715 C 3794.8 -7.18302 0.378834 0
M  V30 37716 C 3796.83 -5.91301 -0.108271 0
M  V30 37717 C 3796.19 -7.02927 0.455368 0
M  V30 37718 H 3792.29 -0.678126 -0.389448 0
M  V30 37719 H 3794.87 -1.90729 -0.391213 0
M  V30 37720 H 3793.04 -2.7135 -2.77892 0
M  V30 37721 H 3794.77 -2.96029 -2.75951 0
M  V30 37722 H 3791.53 -4.50545 -1.45967 0
M  V30 37723 H 3791.95 -6.7686 -0.13748 0
M  V30 37724 H 3796.6 -4.05945 -1.18187 0
M  V30 37725 H 3794.31 -8.04007 0.812313 0
M  V30 37726 H 3797.9 -5.81792 -0.0308855 0
M  V30 37727 H 3796.78 -7.78401 0.95195 0
M  V30 37728 N 3794.28 0.624234 -1.4471 0
M  V30 37729 C 3795.51 1.40865 -1.51131 0
M  V30 37730 C 3795.92 1.88702 -0.137133 0
M  V30 37731 O 3795.26 1.61872 0.868518 0
M  V30 37732 C 3795.33 2.65832 -2.4202 0
M  V30 37733 C 3794.99 2.39745 -3.89065 0
M  V30 37734 C 3795.99 2.01142 -4.79414 0
M  V30 37735 C 3793.67 2.53172 -4.33831 0
M  V30 37736 C 3795.67 1.76304 -6.12532 0
M  V30 37737 C 3793.35 2.27947 -5.66995 0
M  V30 37738 C 3794.35 1.89573 -6.56164 0
M  V30 37739 O 3794.04 1.64633 -7.86862 0
M  V30 37740 H 3793.77 0.438201 -0.514739 0
M  V30 37741 H 3796.32 0.769975 -1.90422 0
M  V30 37742 H 3794.55 3.32361 -1.97669 0
M  V30 37743 H 3796.24 3.27848 -2.39312 0
M  V30 37744 H 3797.01 1.9032 -4.46098 0
M  V30 37745 H 3792.89 2.8201 -3.6468 0
M  V30 37746 H 3796.43 1.46276 -6.82092 0
M  V30 37747 H 3792.33 2.38381 -5.99871 0
M  V30 37748 H 3793.1 1.78822 -7.98727 0
M  V30 37749 N 3795.76 1.31723 0.865262 0
M  V30 37750 C 3796.71 1.19769 1.97292 0
M  V30 37751 C 3797.68 0.0823524 1.65896 0
M  V30 37752 O 3798.86 0.256043 1.89074 0
M  V30 37753 C 3796 0.915834 3.32726 0
M  V30 37754 C 3795.12 2.11496 3.76688 0
M  V30 37755 C 3794.25 1.76948 5.00862 0
M  V30 37756 C 3793.29 2.93242 5.37286 0
M  V30 37757 N 3792.43 2.58858 6.52638 0
M  V30 37758 H 3797.27 2.14518 2.06848 0
M  V30 37759 H 3794.8 1.06705 1.01255 0
M  V30 37760 H 3796.76 0.732953 4.10711 0
M  V30 37761 H 3795.39 0.00516591 3.228 0
M  V30 37762 H 3794.44 2.40846 2.94444 0
M  V30 37763 H 3795.76 2.98521 3.99608 0
M  V30 37764 H 3794.91 1.5515 5.86527 0
M  V30 37765 H 3793.65 0.87121 4.79855 0
M  V30 37766 H 3792.65 3.15683 4.50138 0
M  V30 37767 H 3793.88 3.83785 5.60255 0
M  V30 37768 H 3791.82 1.71559 6.33169 0
M  V30 37769 H 3791.74 3.39413 6.75525 0
M  V30 37770 H 3793.01 2.40464 7.41483 0
M  V30 37771 N 3797.24 -1.08018 1.14761 0
M  V30 37772 C 3798.65 -1.3256 0.888823 0
M  V30 37773 C 3798.85 -1.95992 -0.467892 0
M  V30 37774 O 3797.91 -2.21548 -1.21131 0
M  V30 37775 C 3799.22 -2.2233 2.0246 0
M  V30 37776 C 3800.77 -2.35798 2.05835 0
M  V30 37777 C 3801.25 -3.28913 3.18717 0
M  V30 37778 N 3802.74 -3.36491 3.18321 0
M  V30 37779 C 3803.47 -4.08582 4.02304 0
M  V30 37780 N 3802.97 -4.83346 4.96335 0
M  V30 37781 N 3804.76 -4.04453 3.90351 0
M  V30 37782 H 3796.91 -0.652271 2.02137 0
M  V30 37783 H 3799.18 -0.349994 0.881027 0
M  V30 37784 H 3798.88 -1.82971 3.00357 0
M  V30 37785 H 3798.76 -3.22816 1.95114 0
M  V30 37786 H 3801.14 -2.74413 1.08542 0
M  V30 37787 H 3801.22 -1.3504 2.17251 0
M  V30 37788 H 3800.87 -2.91018 4.16259 0
M  V30 37789 H 3800.8 -4.29609 3.04538 0
M  V30 37790 H 3803.29 -2.83194 2.50219 0
M  V30 37791 H 3803.6 -5.35828 5.56874 0
M  V30 37792 H 3801.95 -4.82385 5.0033 0
M  V30 37793 H 3805.14 -3.45154 3.16206 0
M  V30 37794 H 3805.31 -4.60373 4.56027 0
M  V30 37795 N 3798.72 -0.943344 -1.26249 0
M  V30 37796 C 3799.96 -0.590897 -1.93269 0
M  V30 37797 C 3800.29 0.873182 -1.74358 0
M  V30 37798 O 3799.56 1.62068 -1.10048 0
M  V30 37799 H 3798.14 -0.215548 -0.715226 0
M  V30 37800 H 3800.8 -1.19914 -1.53645 0
M  V30 37801 H 3799.89 -0.810528 -3.01392 0
M  V30 37802 N 3800.2 1.4067 -0.710613 0
M  V30 37803 C 3801.44 2.00579 -0.247494 0
M  V30 37804 C 3801.76 1.56614 1.16176 0
M  V30 37805 O 3801.03 0.803389 1.78669 0
M  V30 37806 H 3799.61 0.741738 -0.0885122 0
M  V30 37807 H 3802.28 1.72079 -0.915133 0
M  V30 37808 H 3801.37 3.10871 -0.276685 0
M  V30 37809 N 3801.67 0.456435 1.50846 0
M  V30 37810 C 3802.9 -0.104018 2.07139 0
M  V30 37811 C 3803.32 -1.34037 1.31968 0
M  V30 37812 O 3802.68 -1.77627 0.363069 0
M  V30 37813 C 3802.73 -0.385731 3.58531 0
M  V30 37814 O 3801.83 -1.46888 3.85354 0
M  V30 37815 H 3801.17 0.00652413 0.663968 0
M  V30 37816 H 3803.7 0.643265 1.94225 0
M  V30 37817 H 3803.71 -0.630574 4.03098 0
M  V30 37818 H 3802.39 0.517803 4.12664 0
M  V30 37819 H 3800.97 -1.2125 3.52637 0
M  V30 37820 N 3803.15 -1.56469 0.188482 0
M  V30 37821 C 3804.08 -2.21784 -0.73034 0
M  V30 37822 C 3805.06 -1.17884 -1.22627 0
M  V30 37823 O 3806.25 -1.46369 -1.27631 0
M  V30 37824 C 3803.38 -2.87203 -1.95273 0
M  V30 37825 C 3802.33 -3.97291 -1.59198 0
M  V30 37826 C 3801.66 -4.49842 -2.89044 0
M  V30 37827 C 3802.96 -5.16029 -0.806936 0
M  V30 37828 H 3804.65 -2.98823 -0.185862 0
M  V30 37829 H 3802.2 -1.43731 -0.0879552 0
M  V30 37830 H 3804.15 -3.31576 -2.60068 0
M  V30 37831 H 3802.87 -2.0756 -2.52163 0
M  V30 37832 H 3801.53 -3.53599 -0.967651 0
M  V30 37833 H 3801.18 -3.66969 -3.4401 0
M  V30 37834 H 3800.88 -5.2412 -2.65654 0
M  V30 37835 H 3802.41 -4.96912 -3.54839 0
M  V30 37836 H 3803.82 -5.56988 -1.35784 0
M  V30 37837 H 3802.22 -5.96332 -0.671412 0
M  V30 37838 H 3803.29 -4.84514 0.193336 0
M  V30 37839 N 3804.63 0.0851597 -1.5737 0
M  V30 37840 C 3806.04 0.638544 -1.75441 0
M  V30 37841 C 3806.39 1.78605 -0.812073 0
M  V30 37842 O 3805.52 2.16399 0.00706624 0
M  V30 37843 C 3806.11 1.16512 -3.18136 0
M  V30 37844 C 3804.67 1.66448 -3.37597 0
M  V30 37845 C 3803.82 0.578227 -2.71204 0
M  V30 37846 H 3806.77 -0.140959 -1.58073 0
M  V30 37847 H 3806.79 2.03424 -3.21557 0
M  V30 37848 H 3806.3 0.329726 -3.86697 0
M  V30 37849 H 3804.4 2.52355 -2.74131 0
M  V30 37850 H 3804.52 1.75063 -4.45971 0
M  V30 37851 H 3802.88 1.02007 -2.33381 0
M  V30 37852 H 3803.66 -0.246751 -3.42412 0
M  V30 37853 N 3806.11 1.53521 0.356231 0
M  V30 37854 C 3807.33 1.74385 1.1227 0
M  V30 37855 C 3807.76 0.475913 1.8198 0
M  V30 37856 O 3807.12 -0.570669 1.72084 0
M  V30 37857 C 3807.16 2.91586 2.12156 0
M  V30 37858 O 3806.27 2.60848 3.19425 0
M  V30 37859 H 3805.61 0.578851 0.325311 0
M  V30 37860 H 3808.14 2.0044 0.410498 0
M  V30 37861 H 3808.15 3.18017 2.55596 0
M  V30 37862 H 3806.82 3.83553 1.60811 0
M  V30 37863 H 3805.4 2.45265 2.80891 0
M  V30 37864 N 3807.59 -0.616551 1.45039 0
M  V30 37865 C 3809 -0.936336 1.29247 0
M  V30 37866 C 3809.2 -2.00079 0.238914 0
M  V30 37867 O 3808.26 -2.49771 -0.370221 0
M  V30 37868 C 3809.57 -1.38577 2.66865 0
M  V30 37869 C 3811.12 -1.50046 2.74691 0
M  V30 37870 C 3811.59 -1.98368 4.12812 0
M  V30 37871 N 3813.08 -2.05616 4.15062 0
M  V30 37872 C 3813.82 -2.44207 5.18797 0
M  V30 37873 N 3813.32 -2.81831 6.32885 0
M  V30 37874 N 3815.11 -2.44468 5.06154 0
M  V30 37875 H 3807.26 0.0871678 2.12221 0
M  V30 37876 H 3809.52 -0.0236492 0.947705 0
M  V30 37877 H 3809.23 -0.67785 3.45106 0
M  V30 37878 H 3809.1 -2.35402 2.9473 0
M  V30 37879 H 3811.49 -2.19931 1.9676 0
M  V30 37880 H 3811.57 -0.515587 2.5055 0
M  V30 37881 H 3811.21 -1.29073 4.91226 0
M  V30 37882 H 3811.14 -2.97753 4.34339 0
M  V30 37883 H 3813.64 -1.79165 3.32729 0
M  V30 37884 H 3813.95 -3.10134 7.07839 0
M  V30 37885 H 3812.29 -2.79548 6.363 0
M  V30 37886 H 3815.48 -2.14475 4.16075 0
M  V30 37887 H 3815.66 -2.74219 5.87118 0
M  V30 37888 N 3809.06 -1.3218 -0.858264 0
M  V30 37889 C 3810.01 -1.174 -1.95452 0
M  V30 37890 C 3811 -0.0818685 -1.60692 0
M  V30 37891 O 3812.19 -0.308003 -1.743 0
M  V30 37892 C 3809.32 -0.895501 -3.31415 0
M  V30 37893 C 3808.4 -2.02916 -3.72405 0
M  V30 37894 N 3808.8 -3.27738 -3.85255 0
M  V30 37895 C 3807.09 -1.93152 -4.02005 0
M  V30 37896 C 3807.79 -4.01968 -4.20472 0
M  V30 37897 N 3806.77 -3.30234 -4.31794 0
M  V30 37898 H 3810.57 -2.12036 -2.03514 0
M  V30 37899 H 3808.09 -1.23907 -1.0498 0
M  V30 37900 H 3810.08 -0.770576 -4.09717 0
M  V30 37901 H 3808.74 0.0425228 -3.24672 0
M  V30 37902 H 3809.75 -3.62717 -3.69671 0
M  V30 37903 H 3806.43 -1.06889 -4.03585 0
M  V30 37904 H 3807.82 -5.0959 -4.37912 0
M  V30 37905 N 3810.54 1.07407 -1.15332 0
M  V30 37906 C 3811.47 2.14511 -0.807327 0
M  V30 37907 C 3812.49 1.61797 0.180402 0
M  V30 37908 O 3813.68 1.78449 -0.0427644 0
M  V30 37909 C 3810.78 3.38425 -0.179397 0
M  V30 37910 C 3809.95 4.20491 -1.20441 0
M  V30 37911 C 3809.01 5.22787 -0.59836 0
M  V30 37912 O 3808.03 5.54985 -1.26415 0
M  V30 37913 N 3809.24 5.77178 0.620182 0
M  V30 37914 H 3812 2.44794 -1.72905 0
M  V30 37915 H 3809.56 1.23309 -1.04912 0
M  V30 37916 H 3811.55 4.03995 0.238796 0
M  V30 37917 H 3810.12 3.0586 0.645652 0
M  V30 37918 H 3809.34 3.50747 -1.79918 0
M  V30 37919 H 3810.63 4.72134 -1.8965 0
M  V30 37920 H 3810.03 5.53267 1.17948 0
M  V30 37921 H 3808.59 6.44379 0.98074 0
M  V30 37922 N 3812.02 0.950026 1.25747 0
M  V30 37923 C 3813.27 0.598022 1.92631 0
M  V30 37924 C 3813.58 -0.868334 1.75269 0
M  V30 37925 O 3814.79 -1.3301 2.36687 0
M  V30 37926 C 3813.24 1.01885 3.45178 0
M  V30 37927 C 3812.85 2.50743 3.71257 0
M  V30 37928 C 3814.6 0.739157 4.18015 0
M  V30 37929 C 3812.5 2.8665 5.17287 0
M  V30 37930 H 3811.43 0.219951 0.721206 0
M  V30 37931 H 3814.08 1.15386 1.42683 0
M  V30 37932 H 3812.47 0.391464 3.9406 0
M  V30 37933 H 3813.64 3.18461 3.33045 0
M  V30 37934 H 3811.95 2.76135 3.11671 0
M  V30 37935 H 3814.55 0.983648 5.25574 0
M  V30 37936 H 3814.89 -0.324317 4.15035 0
M  V30 37937 H 3815.43 1.32667 3.75026 0
M  V30 37938 H 3812.17 3.91996 5.25376 0
M  V30 37939 H 3811.69 2.23601 5.56563 0
M  V30 37940 H 3813.37 2.75592 5.8537 0
M  V30 37941 N 3813.5 -1.40291 0.718063 0
M  V30 37942 C 3814.74 -2.01139 0.259022 0
M  V30 37943 C 3815.08 -1.56813 -1.14557 0
M  V30 37944 O 3814.35 -0.789308 -1.77764 0
M  V30 37945 C 3814.63 -3.58474 0.341841 0
M  V30 37946 C 3814.49 -4.12866 1.78499 0
M  V30 37947 C 3815.81 -4.39173 -0.285545 0
M  V30 37948 H 3812.93 -0.730774 0.0955934 0
M  V30 37949 H 3815.57 -1.66734 0.91103 0
M  V30 37950 H 3813.72 -3.87914 -0.213286 0
M  V30 37951 H 3815.39 -3.94213 2.39569 0
M  V30 37952 H 3813.63 -3.67061 2.3119 0
M  V30 37953 H 3814.3 -5.22023 1.79432 0
M  V30 37954 H 3816.78 -4.15677 0.187484 0
M  V30 37955 H 3815.66 -5.48546 -0.197163 0
M  V30 37956 H 3815.92 -4.20357 -1.36939 0
M  V30 37957 N 3814.98 -0.464428 -1.50602 0
M  V30 37958 C 3816.22 0.0926729 -2.01887 0
M  V30 37959 C 3816.55 1.40815 -1.34893 0
M  V30 37960 O 3815.82 1.89618 -0.492111 0
M  V30 37961 H 3814.4 0.0372383 -0.746071 0
M  V30 37962 H 3817.06 -0.613329 -1.84998 0
M  V30 37963 H 3816.15 0.249013 -3.11105 0
M  V30 37964 N 3816.45 1.56367 -0.196777 0
M  V30 37965 C 3817.68 2.02455 0.450209 0
M  V30 37966 C 3818.1 1.07599 1.54285 0
M  V30 37967 O 3817.46 0.0597848 1.81201 0
M  V30 37968 C 3817.51 3.46971 0.982026 0
M  V30 37969 O 3816.61 3.55233 2.09483 0
M  V30 37970 H 3815.96 0.655644 0.10501 0
M  V30 37971 H 3818.49 2.02266 -0.308148 0
M  V30 37972 H 3818.5 3.86796 1.2982 0
M  V30 37973 H 3817.17 4.15501 0.182167 0
M  V30 37974 H 3815.75 3.27284 1.78717 0
M  V30 37975 N 3817.93 -0.0768128 1.57413 0
M  V30 37976 C 3819.35 -0.431481 1.53657 0
M  V30 37977 C 3819.55 -1.79465 0.916225 0
M  V30 37978 O 3818.6 -2.47159 0.516573 0
M  V30 37979 C 3819.92 -0.37716 2.98325 0
M  V30 37980 C 3821.47 -0.457707 3.09635 0
M  V30 37981 C 3821.94 -0.433344 4.55945 0
M  V30 37982 N 3823.43 -0.493566 4.60563 0
M  V30 37983 C 3824.17 -0.496849 5.71243 0
M  V30 37984 N 3823.66 -0.455246 6.91303 0
M  V30 37985 N 3825.46 -0.543031 5.59471 0
M  V30 37986 H 3817.61 0.815846 1.96106 0
M  V30 37987 H 3819.87 0.305615 0.897387 0
M  V30 37988 H 3819.58 0.557689 3.4725 0
M  V30 37989 H 3819.45 -1.18926 3.57962 0
M  V30 37990 H 3821.84 -1.38298 2.60687 0
M  V30 37991 H 3821.92 0.382874 2.52918 0
M  V30 37992 H 3821.56 0.488057 5.0555 0
M  V30 37993 H 3821.49 -1.29139 5.1052 0
M  V30 37994 H 3823.98 -0.530171 3.74163 0
M  V30 37995 H 3824.3 -0.461538 7.71421 0
M  V30 37996 H 3822.64 -0.422011 6.93718 0
M  V30 37997 H 3825.83 -0.57319 4.64577 0
M  V30 37998 H 3826 -0.54212 6.45728 0
M  V30 37999 N 3819.41 -1.53708 -0.348084 0
M  V30 38000 C 3820.34 -1.84363 -1.43292 0
M  V30 38001 C 3821.32 -0.698403 -1.55101 0
M  V30 38002 O 3822.51 -0.949894 -1.69383 0
M  V30 38003 C 3819.64 -2.04917 -2.80404 0
M  V30 38004 C 3818.59 -3.20726 -2.83406 0
M  V30 38005 C 3817.92 -3.26605 -4.2336 0
M  V30 38006 C 3819.22 -4.58936 -2.4935 0
M  V30 38007 H 3820.91 -2.75214 -1.17887 0
M  V30 38008 H 3818.46 -1.32424 -0.565669 0
M  V30 38009 H 3820.41 -2.24946 -3.56339 0
M  V30 38010 H 3819.13 -1.10791 -3.07234 0
M  V30 38011 H 3817.79 -3.00546 -2.09924 0
M  V30 38012 H 3817.44 -2.30083 -4.47293 0
M  V30 38013 H 3817.14 -4.04424 -4.2628 0
M  V30 38014 H 3818.66 -3.48838 -5.01143 0
M  V30 38015 H 3820.08 -4.79009 -3.14998 0
M  V30 38016 H 3818.48 -5.39125 -2.63561 0
M  V30 38017 H 3819.55 -4.62854 -1.44549 0
M  V30 38018 N 3820.89 0.608851 -1.45364 0
M  V30 38019 C 3822.3 0.929469 -1.29742 0
M  V30 38020 C 3822.5 1.99949 -0.249521 0
M  V30 38021 O 3821.56 2.49964 0.35697 0
M  V30 38022 C 3822.87 1.37159 -2.67596 0
M  V30 38023 C 3824.42 1.48587 -2.75483 0
M  V30 38024 C 3824.9 1.96176 -4.13859 0
M  V30 38025 N 3826.39 2.03412 -4.16147 0
M  V30 38026 C 3827.12 2.41453 -5.20085 0
M  V30 38027 N 3826.62 2.78471 -6.3437 0
M  V30 38028 N 3828.41 2.41781 -5.07443 0
M  V30 38029 H 3820.56 -0.0984211 -2.12172 0
M  V30 38030 H 3822.83 0.018623 -0.947817 0
M  V30 38031 H 3822.53 0.659539 -3.45461 0
M  V30 38032 H 3822.41 2.33835 -2.95974 0
M  V30 38033 H 3824.79 2.18884 -1.97923 0
M  V30 38034 H 3824.87 0.502293 -2.5082 0
M  V30 38035 H 3824.52 1.26466 -4.91903 0
M  V30 38036 H 3824.45 2.95445 -4.35912 0
M  V30 38037 H 3826.94 1.77398 -3.33674 0
M  V30 38038 H 3827.25 3.06376 -7.09474 0
M  V30 38039 H 3825.6 2.7617 -6.37774 0
M  V30 38040 H 3828.79 2.12266 -4.17206 0
M  V30 38041 H 3828.96 2.71101 -5.88564 0
M  V30 38042 N 3822.37 1.32633 0.851242 0
M  V30 38043 C 3823.62 1.22741 1.60055 0
M  V30 38044 C 3823.93 -0.208491 1.94486 0
M  V30 38045 O 3825.13 -0.429314 2.68084 0
M  V30 38046 C 3823.59 2.1499 2.8863 0
M  V30 38047 C 3823.2 3.63681 2.61611 0
M  V30 38048 C 3824.94 2.13942 3.66646 0
M  V30 38049 C 3822.85 4.47882 3.86207 0
M  V30 38050 H 3821.78 0.455834 0.600609 0
M  V30 38051 H 3824.43 1.57617 0.939643 0
M  V30 38052 H 3822.81 1.73033 3.56196 0
M  V30 38053 H 3823.99 4.14002 2.02334 0
M  V30 38054 H 3822.3 3.66895 1.96919 0
M  V30 38055 H 3824.9 2.74086 4.59109 0
M  V30 38056 H 3825.24 1.13128 4.00634 0
M  V30 38057 H 3825.77 2.54197 3.05988 0
M  V30 38058 H 3822.51 5.49523 3.57358 0
M  V30 38059 H 3822.03 4.0231 4.44867 0
M  V30 38060 H 3823.71 4.61057 4.53912 0
M  V30 38061 N 3823.84 -1.06794 1.159 0
M  V30 38062 C 3825.26 -1.60967 0.945865 0
M  V30 38063 C 3825.61 -1.89416 -0.511474 0
M  V30 38064 O 3824.73 -1.66382 -1.38369 0
M  V30 38065 C 3825.33 -2.92445 1.71059 0
M  V30 38066 C 3823.89 -3.43338 1.54258 0
M  V30 38067 C 3823.03 -2.17308 1.72257 0
M  V30 38068 H 3825.98 -0.898095 1.30843 0
M  V30 38069 H 3826 -3.61629 1.18342 0
M  V30 38070 H 3825.52 -2.71708 2.77122 0
M  V30 38071 H 3823.62 -3.69146 0.506147 0
M  V30 38072 H 3823.73 -4.19003 2.32322 0
M  V30 38073 H 3822.09 -2.27282 1.14956 0
M  V30 38074 H 3822.88 -1.99059 2.79697 0
M  V30 38075 N 3825.32 -0.956681 -1.25241 0
M  V30 38076 C 3826.25 -0.435834 -2.25018 0
M  V30 38077 C 3827.27 0.449407 -1.56474 0
M  V30 38078 O 3828.46 0.257355 -1.76635 0
M  V30 38079 C 3825.56 0.391167 -3.36635 0
M  V30 38080 C 3824.73 -0.481559 -4.34741 0
M  V30 38081 C 3823.79 0.287585 -5.25414 0
M  V30 38082 O 3822.81 -0.314718 -5.68329 0
M  V30 38083 N 3824.02 1.58013 -5.5858 0
M  V30 38084 H 3826.78 -1.29365 -2.70342 0
M  V30 38085 H 3824.34 -0.82727 -1.39168 0
M  V30 38086 H 3826.33 0.913483 -3.94256 0
M  V30 38087 H 3824.9 1.14985 -2.90684 0
M  V30 38088 H 3824.12 -1.18496 -3.75969 0
M  V30 38089 H 3825.41 -1.07716 -4.97267 0
M  V30 38090 H 3824.81 2.09136 -5.25622 0
M  V30 38091 H 3823.37 2.04837 -6.18777 0
M  V30 38092 N 3826.8 1.39908 -0.725493 0
M  V30 38093 C 3828.05 2.00999 -0.269685 0
M  V30 38094 C 3828.38 1.57418 1.13724 0
M  V30 38095 O 3827.65 0.798724 1.77343 0
M  V30 38096 C 3827.94 3.58287 -0.360847 0
M  V30 38097 C 3827.79 4.11913 -1.80686 0
M  V30 38098 C 3829.11 4.39318 0.26225 0
M  V30 38099 H 3826.23 0.730257 -0.0994675 0
M  V30 38100 H 3828.87 1.66249 -0.919859 0
M  V30 38101 H 3827.02 3.88022 0.192711 0
M  V30 38102 H 3828.69 3.92937 -2.41656 0
M  V30 38103 H 3826.94 3.6583 -2.33133 0
M  V30 38104 H 3827.61 5.21064 -1.82198 0
M  V30 38105 H 3830.08 4.15572 -0.209525 0
M  V30 38106 H 3828.96 5.48643 0.16807 0
M  V30 38107 H 3829.22 4.21077 1.34708 0
M  V30 38108 N 3828.28 0.472408 1.50353 0
M  V30 38109 C 3829.51 -0.079777 2.06746 0
M  V30 38110 C 3829.92 -1.33391 1.33613 0
M  V30 38111 O 3829.28 -1.77931 0.405797 0
M  V30 38112 C 3829.33 -0.366537 3.59637 0
M  V30 38113 O 3829.05 0.837852 4.30014 0
M  V30 38114 C 3830.55 -0.965542 4.32657 0
M  V30 38115 H 3827.77 0.00767083 0.670956 0
M  V30 38116 H 3830.32 0.661569 1.93503 0
M  V30 38117 H 3828.47 -1.05782 3.72678 0
M  V30 38118 H 3828.88 0.583253 5.21247 0
M  V30 38119 H 3830.36 -1.11595 5.40602 0
M  V30 38120 H 3830.84 -1.95599 3.9324 0
M  V30 38121 H 3831.44 -0.312602 4.2415 0
M  V30 38122 N 3829.76 -1.5626 0.205067 0
M  V30 38123 C 3831.17 -1.84179 -0.305759 0
M  V30 38124 C 3831.52 -1.12603 -1.6067 0
M  V30 38125 O 3830.64 -0.390155 -2.12854 0
M  V30 38126 C 3831.24 -3.34114 -0.561538 0
M  V30 38127 C 3829.8 -3.62409 -1.01671 0
M  V30 38128 C 3828.95 -2.7721 -0.0707357 0
M  V30 38129 H 3831.9 -1.52802 0.428636 0
M  V30 38130 H 3831.92 -3.53426 -1.40963 0
M  V30 38131 H 3831.43 -3.86181 0.385478 0
M  V30 38132 H 3829.53 -3.15784 -1.97766 0
M  V30 38133 H 3829.64 -4.70522 -0.902524 0
M  V30 38134 H 3828.01 -2.48137 -0.574486 0
M  V30 38135 H 3828.79 -3.3207 0.870902 0
M  V30 38136 N 3831.24 0.0684638 -1.57451 0
M  V30 38137 C 3832.2 1.06542 -2.02932 0
M  V30 38138 C 3833.2 1.31398 -0.926884 0
M  V30 38139 O 3834.39 1.27063 -1.19167 0
M  V30 38140 C 3831.52 2.40825 -2.4128 0
M  V30 38141 H 3832.71 0.673349 -2.92243 0
M  V30 38142 H 3830.27 0.31428 -1.53108 0
M  V30 38143 H 3831 2.84858 -1.55005 0
M  V30 38144 H 3830.79 2.24125 -3.21731 0
M  V30 38145 H 3832.28 3.12479 -2.77032 0
M  V30 38146 N 3832.71 1.5389 0.339928 0
M  V30 38147 C 3833.99 1.61942 1.097 0
M  V30 38148 C 3834.37 0.442944 2.06401 0
M  V30 38149 O 3833.72 -0.564438 2.21419 0
M  V30 38150 C 3833.93 2.98186 1.81345 0
M  V30 38151 C 3835.28 3.53666 2.34959 0
M  V30 38152 O 3836.3 3.00384 1.91436 0
M  V30 38153 O 3835.16 4.46871 3.14593 0
M  V30 38154 H 3832.25 0.655145 0.504692 0
M  V30 38155 H 3834.8 1.66236 0.341131 0
M  V30 38156 H 3833.57 3.75251 1.10917 0
M  V30 38157 H 3833.19 2.97498 2.63781 0
M  V30 38158 N 3834.19 -0.601133 1.45685 0
M  V30 38159 C 3835.42 -1.39132 1.53808 0
M  V30 38160 C 3835.84 -1.87297 0.173658 0
M  V30 38161 O 3835.2 -1.60514 -0.842903 0
M  V30 38162 C 3835.25 -2.56747 2.53206 0
M  V30 38163 O 3834.35 -3.5759 2.05433 0
M  V30 38164 H 3833.69 -0.415109 0.518247 0
M  V30 38165 H 3836.22 -0.730973 1.91097 0
M  V30 38166 H 3836.23 -3.03908 2.72221 0
M  V30 38167 H 3834.91 -2.21041 3.52298 0
M  V30 38168 H 3833.48 -3.17035 1.96324 0
M  V30 38169 N 3835.67 -1.33083 -0.844196 0
M  V30 38170 C 3836.92 -1.23992 -1.59594 0
M  V30 38171 C 3837.24 0.195626 -1.94016 0
M  V30 38172 O 3836.51 1.12303 -1.60514 0
M  V30 38173 H 3835.09 -0.455936 -0.591719 0
M  V30 38174 H 3837.75 -1.66736 -1.00921 0
M  V30 38175 H 3836.85 -1.82991 -2.52826 0
M  V30 38176 N 3837.15 1.06178 -1.16464 0
M  V30 38177 C 3838.06 2.172 -0.886639 0
M  V30 38178 C 3839.07 1.73423 0.141538 0
M  V30 38179 O 3840.25 2.01369 -0.0353771 0
M  V30 38180 C 3837.31 3.44467 -0.392889 0
M  V30 38181 C 3836.38 4.02745 -1.48643 0
M  V30 38182 C 3835.61 5.23937 -1.01615 0
M  V30 38183 O 3835.83 5.70243 0.133653 0
M  V30 38184 O 3834.77 5.74199 -1.80498 0
M  V30 38185 H 3838.59 2.43494 -1.81506 0
M  V30 38186 H 3836.18 1.15739 -0.944712 0
M  V30 38187 H 3838.06 4.21216 -0.124575 0
M  V30 38188 H 3836.73 3.19697 0.50751 0
M  V30 38189 H 3835.64 3.27481 -1.8085 0
M  V30 38190 H 3836.97 4.31812 -2.36218 0
M  V30 38191 N 3838.63 0.96331 1.24732 0
M  V30 38192 C 3839.86 0.63934 1.96459 0
M  V30 38193 C 3840.26 -0.794523 1.71709 0
M  V30 38194 O 3839.61 -1.54417 0.995043 0
M  V30 38195 C 3839.67 0.828757 3.49817 0
M  V30 38196 C 3839.33 2.24142 3.98258 0
M  V30 38197 C 3840.33 3.21881 4.08275 0
M  V30 38198 C 3838.01 2.56794 4.31697 0
M  V30 38199 C 3840.01 4.5036 4.51059 0
M  V30 38200 C 3837.7 3.855 4.74165 0
M  V30 38201 C 3838.69 4.82096 4.83811 0
M  V30 38202 O 3838.38 6.08507 5.25333 0
M  V30 38203 H 3838.11 0.237899 0.632756 0
M  V30 38204 H 3840.67 1.29254 1.59633 0
M  V30 38205 H 3838.9 0.1184 3.86519 0
M  V30 38206 H 3840.59 0.504536 4.02752 0
M  V30 38207 H 3841.35 2.97983 3.82663 0
M  V30 38208 H 3837.23 1.8233 4.23411 0
M  V30 38209 H 3840.78 5.25758 4.58503 0
M  V30 38210 H 3836.67 4.09201 4.99224 0
M  V30 38211 H 3837.44 6.12009 5.43495 0
M  V30 38212 N 3840.1 -1.39522 0.732902 0
M  V30 38213 C 3841.35 -2.00853 0.280341 0
M  V30 38214 C 3841.68 -1.58019 -1.12888 0
M  V30 38215 O 3840.96 -0.808117 -1.76917 0
M  V30 38216 C 3841.24 -3.58091 0.379843 0
M  V30 38217 C 3841.09 -4.10949 1.82868 0
M  V30 38218 C 3842.41 -4.39451 -0.238949 0
M  V30 38219 H 3839.53 -0.729719 0.103339 0
M  V30 38220 H 3842.17 -1.65758 0.928663 0
M  V30 38221 H 3840.32 -3.88118 -0.17213 0
M  V30 38222 H 3842 -3.9165 2.43737 0
M  V30 38223 H 3840.24 -3.64588 2.3507 0
M  V30 38224 H 3840.91 -5.20091 1.84958 0
M  V30 38225 H 3843.39 -4.15455 0.231561 0
M  V30 38226 H 3842.26 -5.48724 -0.138971 0
M  V30 38227 H 3842.52 -4.21786 -1.32473 0
M  V30 38228 N 3841.58 -0.480375 -1.501 0
M  V30 38229 C 3842.82 0.070023 -2.0428 0
M  V30 38230 C 3843.19 1.36153 -1.35375 0
M  V30 38231 O 3844.39 1.99488 -1.8016 0
M  V30 38232 C 3842.66 0.240222 -3.56592 0
M  V30 38233 S 3844.22 0.74784 -4.3238 0
M  V30 38234 H 3841.03 0.0115636 -0.710906 0
M  V30 38235 H 3843.64 -0.649636 -1.84391 0
M  V30 38236 H 3842.34 -0.705386 -4.04293 0
M  V30 38237 H 3841.87 0.985725 -3.8085 0
M  V30 38238 H 3843.89 2.01997 -4.53223 0
M  V30 38239 N 3843.06 1.56149 -0.213351 0
M  V30 38240 C 3844.01 2.16554 0.713333 0
M  V30 38241 C 3844.99 1.11149 1.16339 0
M  V30 38242 O 3846.19 1.37161 1.11875 0
M  V30 38243 C 3843.31 2.84263 1.92482 0
M  V30 38244 C 3842.4 3.96883 1.49482 0
M  V30 38245 N 3842.79 4.99798 0.776897 0
M  V30 38246 C 3841.09 4.08821 1.78274 0
M  V30 38247 C 3841.79 5.7901 0.55878 0
M  V30 38248 N 3840.77 5.32083 1.11302 0
M  V30 38249 H 3844.57 2.93484 0.156305 0
M  V30 38250 H 3842.08 1.62394 -0.0142777 0
M  V30 38251 H 3844.08 3.25943 2.59936 0
M  V30 38252 H 3842.74 2.08827 2.48639 0
M  V30 38253 H 3843.75 5.16108 0.430438 0
M  V30 38254 H 3840.43 3.44529 2.3581 0
M  V30 38255 H 3841.82 6.71899 -0.012039 0
M  V30 38256 N 3844.54 -0.0601128 1.57485 0
M  V30 38257 C 3845.78 -0.758159 1.88095 0
M  V30 38258 C 3846.12 -1.76631 0.807169 0
M  V30 38259 O 3845.39 -1.93653 -0.181313 0
M  V30 38260 C 3845.68 -1.45568 3.29366 0
M  V30 38261 C 3845.53 -0.463155 4.47409 0
M  V30 38262 C 3846.85 -2.39767 3.69053 0
M  V30 38263 H 3843.97 -0.274157 0.68411 0
M  V30 38264 H 3846.61 -0.0211882 1.89988 0
M  V30 38265 H 3844.76 -2.08387 3.27883 0
M  V30 38266 H 3846.43 0.160722 4.6102 0
M  V30 38267 H 3844.67 0.220484 4.33239 0
M  V30 38268 H 3845.34 -0.989068 5.43067 0
M  V30 38269 H 3847.82 -1.87017 3.71704 0
M  V30 38270 H 3846.7 -2.85569 4.68766 0
M  V30 38271 H 3846.96 -3.25089 2.99616 0
M  V30 38272 N 3846.02 -1.54068 -0.331762 0
M  V30 38273 C 3847.24 -1.7615 -1.09481 0
M  V30 38274 C 3847.67 -0.504804 -1.812 0
M  V30 38275 O 3847.02 0.54322 -1.72971 0
M  V30 38276 C 3847.07 -2.94924 -2.0749 0
M  V30 38277 O 3846.18 -2.65896 -3.15235 0
M  V30 38278 H 3845.52 -0.583953 -0.316061 0
M  V30 38279 H 3848.05 -2.01067 -0.378558 0
M  V30 38280 H 3848.06 -3.22043 -2.50505 0
M  V30 38281 H 3846.73 -3.86062 -1.54689 0
M  V30 38282 H 3845.31 -2.49702 -2.76953 0
M  V30 38283 N 3847.49 0.593399 -1.46002 0
M  V30 38284 C 3848.44 1.72432 -1.56109 0
M  V30 38285 C 3849.44 1.63847 -0.430183 0
M  V30 38286 O 3850.64 1.69469 -0.606648 0
M  V30 38287 H 3847.02 0.569917 -0.490611 0
M  V30 38288 H 3848.99 1.61036 -2.51217 0
M  V30 38289 C 3847.74 3.1082 -1.55841 0
M  V30 38290 H 3847.06 3.18091 -2.42194 0
M  V30 38291 H 3848.5 3.8974 -1.66969 0
M  V30 38292 C 3846.96 3.35691 -0.285205 0
M  V30 38293 O 3847.49 3.96744 0.629045 0
M  V30 38294 N 3845.7 2.90064 -0.176451 0
M  V30 38295 H 3845.24 2.40561 -0.921323 0
M  V30 38296 H 3845.2 3.07078 0.674582 0
M  V30 38297 N 3848.97 1.33529 0.837127 0
M  V30 38298 C 3850.22 1.24837 1.58934 0
M  V30 38299 C 3850.54 -0.185334 1.94117 0
M  V30 38300 O 3849.81 -1.11451 1.61107 0
M  V30 38301 H 3848.39 0.459068 0.589293 0
M  V30 38302 H 3851.05 1.67269 1.00035 0
M  V30 38303 H 3850.15 1.84329 2.51852 0
M  V30 38304 N 3850.45 -1.05559 1.17026 0
M  V30 38305 C 3851.41 -2.11386 0.885934 0
M  V30 38306 C 3852.41 -1.60334 -0.122299 0
M  V30 38307 O 3853.6 -1.73856 0.109447 0
M  V30 38308 C 3850.74 -3.39335 0.32632 0
M  V30 38309 H 3851.93 -2.38041 1.82418 0
M  V30 38310 H 3849.48 -1.21744 0.980212 0
M  V30 38311 H 3850.22 -3.18333 -0.619252 0
M  V30 38312 H 3850 -3.77698 1.05292 0
M  V30 38313 H 3851.49 -4.17346 0.145587 0
M  V30 38314 N 3851.93 -0.969911 -1.2422 0
M  V30 38315 C 3853.18 -0.631759 -1.91972 0
M  V30 38316 C 3853.5 0.836001 -1.7617 0
M  V30 38317 O 3852.77 1.59698 -1.13461 0
M  V30 38318 H 3851.35 -0.23067 -0.710493 0
M  V30 38319 H 3854.01 -1.23146 -1.51067 0
M  V30 38320 H 3853.11 -0.874275 -2.99604 0
M  V30 38321 N 3853.41 1.39131 -0.740291 0
M  V30 38322 C 3854.63 2.05224 -0.299641 0
M  V30 38323 C 3855.06 1.55456 1.05901 0
M  V30 38324 O 3854.41 0.700633 1.67215 0
M  V30 38325 C 3854.46 3.59205 -0.316855 0
M  V30 38326 O 3853.57 4.06524 0.693715 0
M  V30 38327 H 3852.91 0.650099 -0.135157 0
M  V30 38328 H 3855.44 1.78064 -1.00769 0
M  V30 38329 H 3855.45 4.07674 -0.163085 0
M  V30 38330 H 3854.12 3.94789 -1.30821 0
M  V30 38331 H 3852.7 3.69456 0.505647 0
M  V30 38332 N 3854.88 0.488329 1.49844 0
M  V30 38333 C 3856.3 0.143508 1.58954 0
M  V30 38334 C 3856.5 -1.35118 1.49484 0
M  V30 38335 O 3855.56 -2.12602 1.36222 0
M  V30 38336 C 3856.87 0.709042 2.92221 0
M  V30 38337 C 3858.42 0.67401 3.05657 0
M  V30 38338 C 3858.89 1.21739 4.41524 0
M  V30 38339 N 3860.38 1.17754 4.47983 0
M  V30 38340 C 3861.12 1.5683 5.51536 0
M  V30 38341 N 3860.61 2.03438 6.62257 0
M  V30 38342 N 3862.41 1.48325 5.42177 0
M  V30 38343 H 3854.56 1.46025 1.54242 0
M  V30 38344 H 3856.82 0.604927 0.729909 0
M  V30 38345 H 3856.53 1.75679 3.0468 0
M  V30 38346 H 3856.4 0.162292 3.76851 0
M  V30 38347 H 3858.79 -0.364874 2.92836 0
M  V30 38348 H 3858.87 1.25776 2.22742 0
M  V30 38349 H 3858.51 2.25499 4.55096 0
M  V30 38350 H 3858.44 0.60969 5.23059 0
M  V30 38351 H 3860.93 0.835892 3.68539 0
M  V30 38352 H 3861.25 2.31358 7.37356 0
M  V30 38353 H 3859.59 2.07403 6.63332 0
M  V30 38354 H 3862.78 1.11741 4.54567 0
M  V30 38355 H 3862.96 1.79103 6.22757 0
M  V30 38356 N 3856.36 -1.56034 0.221629 0
M  V30 38357 C 3857.27 -2.2392 -0.699798 0
M  V30 38358 C 3858.29 -1.24685 -1.21365 0
M  V30 38359 O 3859.46 -1.57498 -1.25525 0
M  V30 38360 C 3856.53 -2.90588 -1.89101 0
M  V30 38361 C 3855.59 -4.05166 -1.41913 0
M  V30 38362 C 3854.82 -4.68646 -2.55356 0
M  V30 38363 O 3855.05 -4.31114 -3.73492 0
M  V30 38364 O 3853.98 -5.57635 -2.26554 0
M  V30 38365 H 3857.81 -3.03322 -0.151498 0
M  V30 38366 H 3855.39 -1.49397 -0.00882194 0
M  V30 38367 H 3857.27 -3.32669 -2.58669 0
M  V30 38368 H 3855.95 -2.14146 -2.42741 0
M  V30 38369 H 3854.86 -3.67654 -0.691471 0
M  V30 38370 H 3856.19 -4.83351 -0.929104 0
M  V30 38371 N 3857.84 0.0517601 -1.57515 0
M  V30 38372 C 3859.07 0.759451 -1.92458 0
M  V30 38373 C 3859.48 1.70091 -0.819426 0
M  V30 38374 O 3858.84 1.81335 0.205881 0
M  V30 38375 C 3858.89 1.536 -3.27245 0
M  V30 38376 O 3858.61 0.632365 -4.33512 0
M  V30 38377 C 3860.11 2.3429 -3.76328 0
M  V30 38378 H 3857.33 0.214796 -0.635692 0
M  V30 38379 H 3859.88 0.0160503 -2.04494 0
M  V30 38380 H 3858.03 2.23149 -3.16675 0
M  V30 38381 H 3858.45 1.17453 -5.1118 0
M  V30 38382 H 3859.92 2.84205 -4.73214 0
M  V30 38383 H 3860.4 3.1471 -3.06356 0
M  V30 38384 H 3861 1.69859 -3.89907 0
M  V30 38385 N 3859.32 1.54242 0.323587 0
M  V30 38386 C 3860.54 1.76728 1.08545 0
M  V30 38387 C 3860.97 0.514407 1.80929 0
M  V30 38388 O 3860.33 -0.534039 1.73256 0
M  V30 38389 C 3860.38 2.9602 2.05923 0
M  V30 38390 O 3859.48 2.67564 3.1382 0
M  V30 38391 H 3858.82 0.585621 0.31296 0
M  V30 38392 H 3861.35 2.01265 0.367889 0
M  V30 38393 H 3861.36 3.23367 2.48793 0
M  V30 38394 H 3860.04 3.86877 1.52639 0
M  V30 38395 H 3858.61 2.51168 2.75625 0
M  V30 38396 N 3860.8 -0.585648 1.46314 0
M  V30 38397 C 3861.73 -1.70521 1.59514 0
M  V30 38398 C 3862.71 -1.6416 0.445607 0
M  V30 38399 O 3863.89 -1.82222 0.671487 0
M  V30 38400 C 3861.02 -3.09159 1.58234 0
M  V30 38401 C 3859.98 -3.30349 2.72128 0
M  V30 38402 C 3859.3 -4.69484 2.55908 0
M  V30 38403 C 3860.6 -3.18469 4.13975 0
M  V30 38404 H 3862.3 -1.59731 2.53232 0
M  V30 38405 H 3859.84 -0.767025 1.21872 0
M  V30 38406 H 3861.8 -3.873 1.66063 0
M  V30 38407 H 3860.52 -3.20842 0.610591 0
M  V30 38408 H 3859.18 -2.54607 2.63763 0
M  V30 38409 H 3858.83 -4.77928 1.56823 0
M  V30 38410 H 3858.53 -4.84615 3.32298 0
M  V30 38411 H 3860.05 -5.49797 2.65623 0
M  V30 38412 H 3861.47 -3.86457 4.23466 0
M  V30 38413 H 3859.86 -3.45122 4.90928 0
M  V30 38414 H 3860.93 -2.1559 4.34337 0
M  V30 38415 N 3862.28 -1.33971 -0.830033 0
M  V30 38416 C 3863.52 -1.25271 -1.58082 0
M  V30 38417 C 3863.84 0.177523 -1.94793 0
M  V30 38418 O 3865.04 0.38661 -2.68733 0
M  V30 38419 C 3863.5 -2.19555 -2.85173 0
M  V30 38420 C 3863.11 -3.67797 -2.55792 0
M  V30 38421 C 3864.85 -2.19748 -3.63196 0
M  V30 38422 C 3862.76 -4.53969 -3.79033 0
M  V30 38423 H 3861.69 -0.465332 -0.593281 0
M  V30 38424 H 3864.34 -1.59091 -0.914449 0
M  V30 38425 H 3862.72 -1.78678 -3.53398 0
M  V30 38426 H 3863.9 -4.17168 -1.95722 0
M  V30 38427 H 3862.21 -3.69981 -1.91057 0
M  V30 38428 H 3864.81 -2.81355 -4.5469 0
M  V30 38429 H 3865.15 -1.19487 -3.98784 0
M  V30 38430 H 3865.68 -2.59033 -3.01905 0
M  V30 38431 H 3862.42 -5.55139 -3.4857 0
M  V30 38432 H 3861.94 -4.09337 -4.3841 0
M  V30 38433 H 3863.62 -4.6822 -4.46519 0
M  V30 38434 N 3863.75 1.04937 -1.17584 0
M  V30 38435 C 3865 1.78248 -0.96724 0
M  V30 38436 C 3865.33 1.87581 0.502678 0
M  V30 38437 O 3864.61 1.37748 1.37316 0
M  V30 38438 C 3864.89 3.21999 -1.61211 0
M  V30 38439 C 3864.74 3.20662 -3.1543 0
M  V30 38440 C 3866.06 4.19897 -1.31812 0
M  V30 38441 H 3863.18 0.64707 -0.352802 0
M  V30 38442 H 3865.82 1.22637 -1.45121 0
M  V30 38443 H 3863.97 3.69484 -1.20058 0
M  V30 38444 H 3865.65 2.81233 -3.65658 0
M  V30 38445 H 3863.89 2.58932 -3.48047 0
M  V30 38446 H 3864.56 4.22131 -3.55681 0
M  V30 38447 H 3867.04 3.80919 -1.67452 0
M  V30 38448 H 3865.91 5.18716 -1.79514 0
M  V30 38449 H 3866.17 4.41451 -0.239382 0
M  V30 38450 N 3865.23 0.976485 1.23703 0
M  V30 38451 C 3866.46 0.6611 1.96054 0
M  V30 38452 C 3866.87 -0.77118 1.72332 0
M  V30 38453 O 3866.23 -1.51847 1.01236 0
M  V30 38454 C 3866.28 0.937132 3.49142 0
M  V30 38455 O 3866 2.31311 3.72057 0
M  V30 38456 C 3867.5 0.637154 4.38697 0
M  V30 38457 H 3864.72 0.245912 0.624314 0
M  V30 38458 H 3867.27 1.30681 1.57299 0
M  V30 38459 H 3865.42 0.337498 3.85927 0
M  V30 38460 H 3865.84 2.39981 4.66379 0
M  V30 38461 H 3867.31 0.880686 5.44929 0
M  V30 38462 H 3867.79 -0.428725 4.37102 0
M  V30 38463 H 3868.39 1.21709 4.07513 0
M  V30 38464 N 3866.71 -1.38737 0.747659 0
M  V30 38465 C 3867.96 -1.99487 0.297997 0
M  V30 38466 C 3868.27 -1.60018 -1.12488 0
M  V30 38467 O 3869.48 -2.13696 -1.67471 0
M  V30 38468 C 3867.93 -3.5666 0.481843 0
M  V30 38469 C 3867.54 -4.05083 1.91342 0
M  V30 38470 C 3869.29 -4.24395 0.0945948 0
M  V30 38471 C 3867.19 -5.54876 2.04614 0
M  V30 38472 H 3866.12 -0.746273 0.107668 0
M  V30 38473 H 3868.77 -1.58576 0.923353 0
M  V30 38474 H 3867.16 -3.95429 -0.212606 0
M  V30 38475 H 3868.33 -3.77618 2.64085 0
M  V30 38476 H 3866.64 -3.50053 2.25503 0
M  V30 38477 H 3869.24 -5.34421 0.172601 0
M  V30 38478 H 3869.58 -4.05269 -0.951966 0
M  V30 38479 H 3870.12 -3.90844 0.740675 0
M  V30 38480 H 3866.86 -5.78897 3.07503 0
M  V30 38481 H 3866.38 -5.84103 1.36324 0
M  V30 38482 H 3868.06 -6.20484 1.83328 0
M  V30 38483 N 3868.19 -0.496268 -1.49583 0
M  V30 38484 C 3869.12 0.321326 -2.26936 0
M  V30 38485 C 3870.13 0.934839 -1.33284 0
M  V30 38486 O 3871.32 0.81898 -1.58603 0
M  V30 38487 C 3868.42 1.46695 -3.05506 0
M  V30 38488 C 3867.59 0.961612 -4.26699 0
M  V30 38489 C 3866.65 1.98428 -4.87353 0
M  V30 38490 O 3865.68 1.55473 -5.47555 0
M  V30 38491 N 3866.88 3.31434 -4.76583 0
M  V30 38492 H 3869.65 -0.341937 -2.97743 0
M  V30 38493 H 3867.21 -0.328532 -1.58532 0
M  V30 38494 H 3869.2 2.14854 -3.42958 0
M  V30 38495 H 3867.77 2.03445 -2.37337 0
M  V30 38496 H 3866.99 0.105073 -3.9406 0
M  V30 38497 H 3868.28 0.602316 -5.05222 0
M  V30 38498 H 3867.68 3.69025 -4.28763 0
M  V30 38499 H 3866.23 3.9532 -5.18233 0
M  V30 38500 N 3869.67 1.55914 -0.2299 0
M  V30 38501 C 3870.91 1.98127 0.398741 0
M  V30 38502 C 3871.23 1.119 1.59698 0
M  V30 38503 O 3870.5 0.197902 1.94898 0
M  V30 38504 H 3869.08 0.731721 0.15031 0
M  V30 38505 H 3871.75 1.92176 -0.324738 0
M  V30 38506 H 3870.84 3.03695 0.719421 0
M  V30 38507 N 3871.14 -0.043406 1.5754 0
M  V30 38508 C 3872.37 -0.752978 1.93249 0
M  V30 38509 C 3872.79 -1.68859 0.828742 0
M  V30 38510 O 3872.15 -1.80002 -0.216586 0
M  V30 38511 C 3872.2 -1.49847 3.27991 0
M  V30 38512 O 3871.3 -2.61088 3.19228 0
M  V30 38513 H 3870.64 -0.203536 0.632036 0
M  V30 38514 H 3873.17 -0.00316179 2.046 0
M  V30 38515 H 3873.18 -1.87155 3.62543 0
M  V30 38516 H 3871.86 -0.812179 4.07893 0
M  V30 38517 H 3870.44 -2.26429 2.96284 0
M  V30 38518 N 3872.62 -1.54412 -0.315402 0
M  V30 38519 C 3873.87 -1.72665 -1.0503 0
M  V30 38520 C 3874.19 -0.507537 -1.88279 0
M  V30 38521 O 3873.46 0.478384 -1.89969 0
M  V30 38522 H 3872.04 -0.636645 -0.390759 0
M  V30 38523 H 3874.7 -1.91734 -0.349866 0
M  V30 38524 H 3873.8 -2.60976 -1.71166 0
M  V30 38525 N 3874.1 0.57788 -1.46623 0
M  V30 38526 C 3875.33 1.36668 -1.56002 0
M  V30 38527 C 3875.75 1.86997 -0.203433 0
M  V30 38528 O 3875.11 1.61835 0.81726 0
M  V30 38529 C 3875.16 2.52686 -2.57258 0
M  V30 38530 O 3874.26 3.54277 -2.11096 0
M  V30 38531 H 3873.6 0.406812 -0.524786 0
M  V30 38532 H 3876.13 0.700478 -1.92235 0
M  V30 38533 H 3876.14 2.99538 -2.77021 0
M  V30 38534 H 3874.82 2.15408 -3.5577 0
M  V30 38535 H 3873.39 3.13872 -2.01343 0
M  V30 38536 N 3875.58 1.34409 0.822917 0
M  V30 38537 C 3876.8 1.29995 1.61605 0
M  V30 38538 C 3877.23 -0.123268 1.87696 0
M  V30 38539 O 3876.59 -1.08501 1.45249 0
M  V30 38540 C 3876.63 2.09645 2.93397 0
M  V30 38541 O 3875.74 1.46597 3.85465 0
M  V30 38542 H 3875.08 0.446461 0.491497 0
M  V30 38543 H 3877.61 1.77212 1.02261 0
M  V30 38544 H 3877.62 2.21 3.42962 0
M  V30 38545 H 3876.29 3.13121 2.7373 0
M  V30 38546 H 3874.87 1.43984 3.43981 0
M  V30 38547 N 3877.06 -1.04312 1.18139 0
M  V30 38548 C 3878.01 -2.10577 0.874155 0
M  V30 38549 C 3878.99 -1.60151 -0.155066 0
M  V30 38550 O 3880.18 -1.76933 0.0486269 0
M  V30 38551 C 3877.31 -3.40974 0.39896 0
M  V30 38552 C 3876.4 -3.98173 1.46011 0
M  V30 38553 N 3876.79 -4.29218 2.67592 0
M  V30 38554 C 3875.09 -4.26017 1.32005 0
M  V30 38555 C 3875.79 -4.74957 3.35843 0
M  V30 38556 N 3874.76 -4.7562 2.63224 0
M  V30 38557 H 3878.57 -2.32453 1.79841 0
M  V30 38558 H 3876.08 -1.22042 1.07142 0
M  V30 38559 H 3878.08 -4.16591 0.160368 0
M  V30 38560 H 3876.74 -3.20526 -0.518985 0
M  V30 38561 H 3877.75 -4.18942 3.0448 0
M  V30 38562 H 3874.42 -4.14909 0.46445 0
M  V30 38563 H 3875.81 -5.08018 4.39736 0
M  V30 38564 N 3878.53 -0.983032 -1.23184 0
M  V30 38565 C 3879.78 -0.654343 -1.91954 0
M  V30 38566 C 3880.11 0.810388 -1.76483 0
M  V30 38567 O 3879.39 1.58488 -1.12747 0
M  V30 38568 C 3879.67 -1.04879 -3.44489 0
M  V30 38569 C 3879.52 -2.57135 -3.69055 0
M  V30 38570 C 3880.84 -0.594655 -4.36064 0
M  V30 38571 H 3877.96 -0.239191 -0.697106 0
M  V30 38572 H 3880.6 -1.22479 -1.45255 0
M  V30 38573 H 3878.75 -0.5634 -3.84393 0
M  V30 38574 H 3880.43 -3.13268 -3.38616 0
M  V30 38575 H 3878.67 -2.9965 -3.13676 0
M  V30 38576 H 3879.34 -2.79784 -4.75841 0
M  V30 38577 H 3881.82 -1.01143 -4.0362 0
M  V30 38578 H 3880.69 -0.89905 -5.41487 0
M  V30 38579 H 3880.95 0.504956 -4.39207 0
M  V30 38580 N 3880.01 1.38338 -0.755006 0
M  V30 38581 C 3881.42 1.82806 -0.379308 0
M  V30 38582 C 3881.77 1.62986 1.09225 0
M  V30 38583 O 3880.9 1.13181 1.84443 0
M  V30 38584 C 3881.49 3.31871 -0.681686 0
M  V30 38585 C 3880.05 3.74682 -0.359249 0
M  V30 38586 C 3879.2 2.61092 -0.934136 0
M  V30 38587 H 3882.15 1.27047 -0.951042 0
M  V30 38588 H 3882.17 3.80479 0.0396134 0
M  V30 38589 H 3881.68 3.46265 -1.75277 0
M  V30 38590 H 3879.79 3.65866 0.705192 0
M  V30 38591 H 3879.9 4.71395 -0.855793 0
M  V30 38592 H 3878.26 2.52151 -0.359423 0
M  V30 38593 H 3879.05 2.78285 -2.01028 0
M  V30 38594 N 3881.49 0.504194 1.49317 0
M  V30 38595 C 3882.72 -0.0380656 2.07365 0
M  V30 38596 C 3883.14 -1.29771 1.36166 0
M  V30 38597 O 3882.5 -1.76382 0.419396 0
M  V30 38598 C 3882.55 -0.271472 3.59577 0
M  V30 38599 O 3881.65 -1.34554 3.89832 0
M  V30 38600 H 3880.99 0.0276445 0.663424 0
M  V30 38601 H 3883.52 0.70473 1.9208 0
M  V30 38602 H 3883.53 -0.502012 4.049 0
M  V30 38603 H 3882.21 0.648827 4.10808 0
M  V30 38604 H 3880.78 -1.0997 3.56316 0
M  V30 38605 N 3882.97 -1.5579 0.238166 0
M  V30 38606 C 3884.21 -1.99023 -0.389573 0
M  V30 38607 C 3884.55 -1.12599 -1.58225 0
M  V30 38608 O 3883.82 -0.187397 -1.93595 0
M  V30 38609 C 3884.11 -3.50919 -0.807963 0
M  V30 38610 C 3883.96 -4.4811 0.389495 0
M  V30 38611 C 3885.28 -4.07669 -1.65813 0
M  V30 38612 H 3882.4 -0.723556 -0.140129 0
M  V30 38613 H 3885.04 -1.86974 0.337729 0
M  V30 38614 H 3883.19 -3.61317 -1.42766 0
M  V30 38615 H 3884.86 -4.49703 1.02785 0
M  V30 38616 H 3883.1 -4.21294 1.03411 0
M  V30 38617 H 3883.77 -5.51974 0.0535519 0
M  V30 38618 H 3886.25 -4.00318 -1.13511 0
M  V30 38619 H 3885.13 -5.14234 -1.91975 0
M  V30 38620 H 3885.39 -3.55581 -2.62706 0
M  V30 38621 N 3884.45 0.0350506 -1.57561 0
M  V30 38622 C 3885.67 0.742719 -1.93645 0
M  V30 38623 C 3886.1 1.68417 -0.837685 0
M  V30 38624 O 3885.45 1.80114 0.207038 0
M  V30 38625 C 3885.5 1.48105 -3.28781 0
M  V30 38626 O 3884.61 2.59392 -3.20608 0
M  V30 38627 H 3883.95 0.200181 -0.633106 0
M  V30 38628 H 3886.48 -0.00768867 -2.04599 0
M  V30 38629 H 3886.49 1.85229 -3.6353 0
M  V30 38630 H 3885.16 0.790536 -4.08318 0
M  V30 38631 H 3883.74 2.24854 -2.97481 0
M  V30 38632 N 3885.92 1.54577 0.307209 0
M  V30 38633 C 3887.34 1.64627 0.880611 0
M  V30 38634 C 3887.69 0.550898 1.88307 0
M  V30 38635 O 3886.81 -0.313515 2.14117 0
M  V30 38636 C 3887.41 2.98425 1.604 0
M  V30 38637 C 3885.97 3.10617 2.12589 0
M  V30 38638 C 3885.11 2.6028 0.956547 0
M  V30 38639 H 3888.06 1.58476 0.084366 0
M  V30 38640 H 3888.08 2.89501 2.4692 0
M  V30 38641 H 3887.6 3.78127 0.874143 0
M  V30 38642 H 3885.7 2.35622 2.8864 0
M  V30 38643 H 3885.81 4.16677 2.36468 0
M  V30 38644 H 3884.17 2.16579 1.34036 0
M  V30 38645 H 3884.96 3.42455 0.24075 0
M  V30 38646 N 3887.4 -0.570096 1.46927 0
M  V30 38647 C 3888.81 -1.15224 1.46902 0
M  V30 38648 C 3889.16 -1.95 0.216686 0
M  V30 38649 O 3888.29 -2.0546 -0.679352 0
M  V30 38650 C 3888.88 -2.09627 2.66162 0
M  V30 38651 C 3887.44 -2.63139 2.69137 0
M  V30 38652 C 3886.59 -1.39257 2.39797 0
M  V30 38653 H 3889.54 -0.357363 1.54624 0
M  V30 38654 H 3889.56 -2.93298 2.42398 0
M  V30 38655 H 3889.07 -1.51537 3.57293 0
M  V30 38656 H 3887.18 -3.25063 1.82112 0
M  V30 38657 H 3887.29 -3.05013 3.69464 0
M  V30 38658 H 3885.65 -1.69496 1.90113 0
M  V30 38659 H 3886.44 -0.829796 3.33121 0
M  V30 38660 N 3888.88 -1.34844 -0.815777 0
M  V30 38661 C 3890.13 -1.26941 -1.56745 0
M  V30 38662 C 3890.44 0.156853 -1.9497 0
M  V30 38663 O 3891.65 0.358085 -2.69128 0
M  V30 38664 C 3890.11 -2.22567 -2.82828 0
M  V30 38665 C 3889.71 -3.70489 -2.51877 0
M  V30 38666 C 3891.46 -2.23588 -3.60845 0
M  V30 38667 C 3889.36 -4.57964 -3.74196 0
M  V30 38668 H 3888.29 -0.471598 -0.588312 0
M  V30 38669 H 3890.95 -1.60052 -0.897523 0
M  V30 38670 H 3889.33 -1.82416 -3.51483 0
M  V30 38671 H 3890.5 -4.19221 -1.91287 0
M  V30 38672 H 3888.82 -3.71987 -1.87123 0
M  V30 38673 H 3891.41 -2.86162 -4.51681 0
M  V30 38674 H 3891.76 -1.2371 -3.97494 0
M  V30 38675 H 3892.29 -2.6222 -2.99141 0
M  V30 38676 H 3889.03 -5.58805 -3.42662 0
M  V30 38677 H 3888.55 -4.13964 -4.34044 0
M  V30 38678 H 3890.23 -4.72929 -4.41528 0
M  V30 38679 N 3890.36 1.03684 -1.1869 0
M  V30 38680 C 3891.78 1.2917 -0.937409 0
M  V30 38681 C 3891.98 1.97594 0.394828 0
M  V30 38682 O 3891.03 2.25891 1.12825 0
M  V30 38683 C 3892.34 2.14662 -2.10572 0
M  V30 38684 C 3893.89 2.27996 -2.14445 0
M  V30 38685 C 3894.37 3.16857 -3.30705 0
M  V30 38686 N 3895.86 3.24445 -3.3059 0
M  V30 38687 C 3896.59 3.93369 -4.17191 0
M  V30 38688 N 3896.09 4.64591 -5.13933 0
M  V30 38689 N 3897.88 3.89687 -4.05093 0
M  V30 38690 H 3890.03 0.5768 -2.04418 0
M  V30 38691 H 3892.3 0.317054 -0.89341 0
M  V30 38692 H 3892 1.71697 -3.06941 0
M  V30 38693 H 3891.88 3.15352 -2.06961 0
M  V30 38694 H 3894.26 2.70196 -1.18652 0
M  V30 38695 H 3894.34 1.26884 -2.22113 0
M  V30 38696 H 3893.99 2.75368 -4.26773 0
M  V30 38697 H 3893.92 4.1801 -3.20273 0
M  V30 38698 H 3896.41 2.73712 -2.60557 0
M  V30 38699 H 3896.72 5.1479 -5.76377 0
M  V30 38700 H 3895.07 4.63483 -5.17888 0
M  V30 38701 H 3898.26 3.3318 -3.28799 0
M  V30 38702 H 3898.43 4.4313 -4.728 0
M  V30 38703 N 3891.84 0.989551 1.22661 0
M  V30 38704 C 3893.09 0.659003 1.90631 0
M  V30 38705 C 3893.4 -0.812134 1.77943 0
M  V30 38706 O 3894.61 -1.25413 2.40799 0
M  V30 38707 C 3893.06 1.12815 3.41761 0
M  V30 38708 C 3892.67 2.62427 3.63092 0
M  V30 38709 C 3894.41 0.871771 4.15452 0
M  V30 38710 C 3892.32 3.02962 5.07906 0
M  V30 38711 H 3891.25 0.242784 0.713843 0
M  V30 38712 H 3893.9 1.19867 1.3894 0
M  V30 38713 H 3892.28 0.516633 3.92615 0
M  V30 38714 H 3893.46 3.28895 3.22745 0
M  V30 38715 H 3891.77 2.8591 3.02728 0
M  V30 38716 H 3894.37 1.15036 5.22179 0
M  V30 38717 H 3894.71 -0.192113 4.15856 0
M  V30 38718 H 3895.25 1.44531 3.70615 0
M  V30 38719 H 3891.98 4.08512 5.12639 0
M  V30 38720 H 3891.5 2.41194 5.49168 0
M  V30 38721 H 3893.18 2.94076 5.76306 0
M  V30 38722 N 3893.32 -1.37936 0.762332 0
M  V30 38723 C 3894.23 -2.34165 0.142765 0
M  V30 38724 C 3895.24 -1.5971 -0.690559 0
M  V30 38725 O 3896.42 -1.91855 -0.612677 0
M  V30 38726 C 3893.48 -3.38857 -0.733265 0
M  V30 38727 C 3892.54 -4.29145 0.115434 0
M  V30 38728 C 3891.78 -5.28836 -0.718879 0
M  V30 38729 O 3892 -5.35797 -1.95647 0
M  V30 38730 O 3890.93 -6.01753 -0.133056 0
M  V30 38731 H 3894.76 -2.88861 0.937713 0
M  V30 38732 H 3892.34 -1.39934 0.523349 0
M  V30 38733 H 3894.23 -4.02937 -1.23367 0
M  V30 38734 H 3892.9 -2.86504 -1.50656 0
M  V30 38735 H 3891.81 -3.68196 0.66199 0
M  V30 38736 H 3893.14 -4.84777 0.85159 0
M  V30 38737 N 3894.79 -0.512106 -1.49048 0
M  V30 38738 C 3896.02 0.027068 -2.07382 0
M  V30 38739 C 3896.44 1.29047 -1.36852 0
M  V30 38740 O 3895.8 1.76158 -0.428744 0
M  V30 38741 C 3895.85 0.252399 -3.59716 0
M  V30 38742 O 3894.95 1.32484 -3.9054 0
M  V30 38743 H 3894.29 -0.0311624 -0.663268 0
M  V30 38744 H 3896.82 -0.714907 -1.91704 0
M  V30 38745 H 3896.83 0.480532 -4.0516 0
M  V30 38746 H 3895.51 -0.670604 -4.10458 0
M  V30 38747 H 3894.09 1.08078 -3.56894 0
M  V30 38748 N 3896.27 1.55662 -0.246424 0
M  V30 38749 C 3897.5 2.03784 0.385572 0
M  V30 38750 C 3897.92 1.12453 1.50784 0
M  V30 38751 O 3897.28 0.117402 1.80919 0
M  V30 38752 C 3897.33 3.49919 0.871142 0
M  V30 38753 O 3896.43 3.61718 1.98075 0
M  V30 38754 H 3895.77 0.658653 0.0840983 0
M  V30 38755 H 3898.3 2.01183 -0.372341 0
M  V30 38756 H 3898.31 3.9073 1.17448 0
M  V30 38757 H 3896.99 4.1587 0.0498866 0
M  V30 38758 H 3895.56 3.32804 1.68214 0
M  V30 38759 N 3897.75 -0.0266943 1.57577 0
M  V30 38760 C 3898.97 -0.732439 1.94036 0
M  V30 38761 C 3899.4 -1.67971 0.846605 0
M  V30 38762 O 3898.76 -1.80221 -0.197483 0
M  V30 38763 C 3898.81 -1.46359 3.29562 0
M  V30 38764 O 3897.91 -2.57688 3.21979 0
M  V30 38765 H 3897.25 -0.196821 0.634159 0
M  V30 38766 H 3899.78 0.0185389 2.04592 0
M  V30 38767 H 3899.79 -1.83299 3.64507 0
M  V30 38768 H 3898.47 -0.768871 4.08731 0
M  V30 38769 H 3897.04 -2.23274 2.98669 0
M  V30 38770 N 3899.23 -1.54738 -0.299007 0
M  V30 38771 C 3900.64 -1.65092 -0.871868 0
M  V30 38772 C 3900.99 -0.560876 -1.88012 0
M  V30 38773 O 3900.11 0.302156 -2.1428 0
M  V30 38774 C 3900.71 -2.99271 -1.58815 0
M  V30 38775 C 3899.27 -3.1174 -2.10939 0
M  V30 38776 C 3898.42 -2.60783 -0.94273 0
M  V30 38777 H 3901.37 -1.58518 -0.0759605 0
M  V30 38778 H 3901.39 -2.90806 -2.45382 0
M  V30 38779 H 3900.9 -3.78586 -0.854078 0
M  V30 38780 H 3899 -2.37149 -2.87387 0
M  V30 38781 H 3899.11 -4.17925 -2.34255 0
M  V30 38782 H 3897.48 -2.17287 -1.32886 0
M  V30 38783 H 3898.26 -3.42578 -0.222585 0
M  V30 38784 N 3900.71 0.562296 -1.47228 0
M  V30 38785 C 3901.93 1.34523 -1.57198 0
M  V30 38786 C 3902.35 1.8751 -0.220336 0
M  V30 38787 O 3901.71 1.64724 0.785635 0
M  V30 38788 C 3901.76 2.51867 -2.59317 0
M  V30 38789 O 3901.48 2.01071 -3.89233 0
M  V30 38790 C 3902.98 3.44148 -2.79423 0
M  V30 38791 H 3900.2 0.410248 -0.530978 0
M  V30 38792 H 3902.74 0.681646 -1.92805 0
M  V30 38793 H 3900.9 3.14174 -2.26657 0
M  V30 38794 H 3901.31 2.7764 -4.4499 0
M  V30 38795 H 3902.79 4.22914 -3.5475 0
M  V30 38796 H 3903.26 3.97373 -1.87061 0
M  V30 38797 H 3903.87 2.87661 -3.13259 0
M  V30 38798 N 3902.18 1.35274 0.808615 0
M  V30 38799 C 3903.43 1.28624 1.56792 0
M  V30 38800 C 3903.76 -0.139652 1.93697 0
M  V30 38801 O 3903.04 -1.08854 1.61187 0
M  V30 38802 C 3903.32 2.1908 2.8579 0
M  V30 38803 C 3903.17 3.70276 2.55374 0
M  V30 38804 C 3904.49 2.08684 3.87478 0
M  V30 38805 H 3901.61 0.468574 0.568865 0
M  V30 38806 H 3904.25 1.65657 0.93047 0
M  V30 38807 H 3902.4 1.87628 3.40188 0
M  V30 38808 H 3904.08 4.12161 2.07175 0
M  V30 38809 H 3902.32 3.90657 1.88598 0
M  V30 38810 H 3902.99 4.28953 3.47424 0
M  V30 38811 H 3905.47 2.36329 3.42473 0
M  V30 38812 H 3904.34 2.74178 4.75518 0
M  V30 38813 H 3904.6 1.06817 4.29002 0
M  V30 38814 N 3903.66 -1.03053 1.19239 0
M  V30 38815 C 3904.91 -1.76687 0.995475 0
M  V30 38816 C 3905.24 -1.88357 -0.472772 0
M  V30 38817 O 3904.52 -1.39915 -1.35107 0
M  V30 38818 C 3904.8 -3.19393 1.66313 0
M  V30 38819 C 3904.65 -3.15603 3.20491 0
M  V30 38820 C 3905.97 -4.17747 1.38475 0
M  V30 38821 H 3903.09 -0.641376 0.363051 0
M  V30 38822 H 3905.73 -1.20313 1.47054 0
M  V30 38823 H 3903.88 -3.67527 1.25921 0
M  V30 38824 H 3905.55 -2.7538 3.70086 0
M  V30 38825 H 3903.8 -2.53362 3.52122 0
M  V30 38826 H 3904.47 -4.16419 3.62352 0
M  V30 38827 H 3906.94 -3.78206 1.73491 0
M  V30 38828 H 3905.82 -5.15794 1.87744 0
M  V30 38829 H 3906.08 -4.41015 0.309583 0
M  V30 38830 N 3905.14 -0.996042 -1.22134 0
M  V30 38831 C 3906.05 -0.557967 -2.27868 0
M  V30 38832 C 3907.07 0.394751 -1.69463 0
M  V30 38833 O 3908.24 0.260805 -1.99704 0
M  V30 38834 C 3905.31 0.117373 -3.46501 0
M  V30 38835 C 3904.37 -0.878701 -4.20211 0
M  V30 38836 C 3903.6 -0.235494 -5.3318 0
M  V30 38837 O 3903.82 0.969855 -5.62094 0
M  V30 38838 O 3902.76 -0.941933 -5.94484 0
M  V30 38839 H 3906.58 -1.4377 -2.67514 0
M  V30 38840 H 3904.17 -0.76445 -1.28361 0
M  V30 38841 H 3906.05 0.495517 -4.18477 0
M  V30 38842 H 3904.73 0.971619 -3.08774 0
M  V30 38843 H 3903.63 -1.30784 -3.50495 0
M  V30 38844 H 3904.97 -1.70225 -4.61827 0
M  V30 38845 N 3906.62 1.37529 -0.769636 0
M  V30 38846 C 3907.87 1.99349 -0.332344 0
M  V30 38847 C 3908.19 1.61401 1.09429 0
M  V30 38848 O 3907.46 0.878446 1.751 0
M  V30 38849 H 3906.04 0.737316 -0.119892 0
M  V30 38850 H 3908.7 1.68043 -0.987294 0
M  V30 38851 H 3907.8 3.09418 -0.408287 0
M  V30 38852 N 3908.1 0.520003 1.48774 0
M  V30 38853 C 3909.03 -0.285182 2.27419 0
M  V30 38854 C 3910.04 -0.913517 1.34754 0
M  V30 38855 O 3911.23 -0.793644 1.59886 0
M  V30 38856 C 3908.33 -1.41816 3.07801 0
M  V30 38857 C 3907.5 -0.893607 4.28175 0
M  V30 38858 C 3906.56 -1.90649 4.90448 0
M  V30 38859 O 3905.59 -1.46742 5.4996 0
M  V30 38860 N 3906.79 -3.2381 4.81796 0
M  V30 38861 H 3909.56 0.389262 2.97161 0
M  V30 38862 H 3907.12 0.353712 1.57989 0
M  V30 38863 H 3909.11 -2.0937 3.46332 0
M  V30 38864 H 3907.68 -1.99643 2.40544 0
M  V30 38865 H 3906.9 -0.0423686 3.94177 0
M  V30 38866 H 3908.19 -0.521863 5.06117 0
M  V30 38867 H 3907.58 -3.62157 4.34579 0
M  V30 38868 H 3906.14 -3.87026 5.24456 0
M  V30 38869 N 3909.57 -1.55529 0.254676 0
M  V30 38870 C 3910.8 -2.03532 -0.37182 0
M  V30 38871 C 3911.22 -1.13371 -1.50972 0
M  V30 38872 O 3910.57 -0.149672 -1.81885 0
M  V30 38873 C 3910.63 -3.50819 -0.872253 0
M  V30 38874 O 3910.35 -4.37546 0.220307 0
M  V30 38875 C 3911.85 -4.14618 -1.56865 0
M  V30 38876 H 3909.07 -0.665278 -0.0874448 0
M  V30 38877 H 3911.61 -2.00923 0.380809 0
M  V30 38878 H 3909.77 -3.53937 -1.57504 0
M  V30 38879 H 3910.18 -5.24253 -0.160954 0
M  V30 38880 H 3911.65 -5.19344 -1.87044 0
M  V30 38881 H 3912.13 -3.61569 -2.49328 0
M  V30 38882 H 3912.74 -4.15445 -0.910241 0
M  V30 38883 N 3911.05 0.0183372 -1.57589 0
M  V30 38884 C 3911.98 1.01488 -2.10291 0
M  V30 38885 C 3912.96 1.37027 -1.00785 0
M  V30 38886 O 3914.15 1.45724 -1.28368 0
M  V30 38887 C 3911.28 2.3125 -2.59115 0
M  V30 38888 C 3910.23 2.09924 -3.72983 0
M  V30 38889 C 3909.56 3.4554 -4.08052 0
M  V30 38890 C 3910.86 1.47668 -5.0099 0
M  V30 38891 H 3912.55 0.576129 -2.93805 0
M  V30 38892 H 3910.1 0.275683 -1.41336 0
M  V30 38893 H 3912.05 3.01304 -2.94608 0
M  V30 38894 H 3910.78 2.77205 -1.72699 0
M  V30 38895 H 3909.43 1.423 -3.37855 0
M  V30 38896 H 3909.08 3.89163 -3.18686 0
M  V30 38897 H 3908.78 3.32092 -4.84756 0
M  V30 38898 H 3910.31 4.16939 -4.46088 0
M  V30 38899 H 3911.72 2.07654 -5.34371 0
M  V30 38900 H 3910.12 1.44764 -5.82377 0
M  V30 38901 H 3911.19 0.443719 -4.82866 0
M  V30 38902 N 3912.53 1.54894 0.290797 0
M  V30 38903 C 3913.81 1.6535 1.04493 0
M  V30 38904 C 3914.19 0.508384 2.04887 0
M  V30 38905 O 3913.54 -0.493709 2.23103 0
M  V30 38906 C 3913.75 3.03804 1.71767 0
M  V30 38907 C 3915.09 3.60962 2.23588 0
M  V30 38908 O 3916.12 3.06322 1.81783 0
M  V30 38909 O 3914.98 4.56653 3.00217 0
M  V30 38910 H 3912.07 0.67087 0.483593 0
M  V30 38911 H 3914.62 1.67237 0.288071 0
M  V30 38912 H 3913.39 3.78589 0.989229 0
M  V30 38913 H 3913.01 3.0574 2.54183 0
M  V30 38914 N 3914.01 -0.55448 1.47524 0
M  V30 38915 C 3914.94 -1.67099 1.63095 0
M  V30 38916 C 3915.92 -1.63177 0.480327 0
M  V30 38917 O 3917.1 -1.80756 0.709988 0
M  V30 38918 C 3914.23 -3.05733 1.64756 0
M  V30 38919 C 3913.19 -3.24503 2.79074 0
M  V30 38920 C 3912.51 -4.6395 2.65809 0
M  V30 38921 C 3913.81 -3.09616 4.20637 0
M  V30 38922 H 3915.51 -1.54323 2.56563 0
M  V30 38923 H 3913.05 -0.741002 1.23471 0
M  V30 38924 H 3915.01 -3.8369 1.74241 0
M  V30 38925 H 3913.73 -3.19474 0.678509 0
M  V30 38926 H 3912.39 -2.48955 2.69104 0
M  V30 38927 H 3912.04 -4.74495 1.66925 0
M  V30 38928 H 3911.74 -4.77458 3.42503 0
M  V30 38929 H 3913.26 -5.44039 2.77225 0
M  V30 38930 H 3914.68 -3.77388 4.31568 0
M  V30 38931 H 3913.07 -3.34631 4.98138 0
M  V30 38932 H 3914.14 -2.06329 4.38813 0
M  V30 38933 N 3915.49 -1.35701 -0.80143 0
M  V30 38934 C 3916.43 -1.29087 -1.93493 0
M  V30 38935 C 3917.43 -0.184836 -1.68389 0
M  V30 38936 O 3918.63 -0.351128 -1.76542 0
M  V30 38937 H 3915.01 -0.401571 -0.635802 0
M  V30 38938 H 3916.98 -2.24837 -1.96191 0
M  V30 38939 C 3915.73 -1.08493 -3.3034 0
M  V30 38940 H 3915.05 -1.92842 -3.50217 0
M  V30 38941 H 3916.49 -1.07908 -4.10039 0
M  V30 38942 C 3914.95 0.210998 -3.36239 0
M  V30 38943 O 3915.48 1.20501 -3.832 0
M  V30 38944 N 3913.69 0.251549 -2.89509 0
M  V30 38945 H 3913.23 -0.55796 -2.51485 0
M  V30 38946 H 3913.19 1.11834 -2.93837 0
M  V30 38947 N 3916.96 1.02419 -1.19783 0
M  V30 38948 C 3918.2 1.77445 -1.01453 0
M  V30 38949 C 3918.57 1.8674 0.446338 0
M  V30 38950 O 3919.77 2.58137 0.749594 0
M  V30 38951 C 3918.04 3.15952 -1.67061 0
M  V30 38952 S 3919.6 4.07109 -1.63732 0
M  V30 38953 H 3916.42 0.610784 -0.363955 0
M  V30 38954 H 3919.02 1.22687 -1.52211 0
M  V30 38955 H 3917.72 3.06807 -2.72576 0
M  V30 38956 H 3917.25 3.75784 -1.16403 0
M  V30 38957 H 3919.27 4.91726 -0.664818 0
M  V30 38958 N 3918.44 1.0025 1.21604 0
M  V30 38959 C 3919.69 0.684799 1.90888 0
M  V30 38960 C 3920.02 -0.782209 1.7775 0
M  V30 38961 O 3919.3 -1.56674 1.15254 0
M  V30 38962 C 3919.58 1.10346 3.42777 0
M  V30 38963 C 3919.43 2.62973 3.64918 0
M  V30 38964 C 3920.75 0.663953 4.35063 0
M  V30 38965 H 3917.87 0.250251 0.693212 0
M  V30 38966 H 3920.51 1.24774 1.43288 0
M  V30 38967 H 3918.66 0.624483 3.83448 0
M  V30 38968 H 3920.34 3.18615 3.3359 0
M  V30 38969 H 3918.58 3.04602 3.08869 0
M  V30 38970 H 3919.25 2.87319 4.7133 0
M  V30 38971 H 3921.73 1.07551 4.0196 0
M  V30 38972 H 3920.6 0.985082 5.39988 0
M  V30 38973 H 3920.86 -0.435018 4.39955 0
M  V30 38974 N 3919.92 -1.37119 0.776919 0
M  V30 38975 C 3921.17 -1.99859 0.344099 0
M  V30 38976 C 3921.5 -1.6153 -1.07803 0
M  V30 38977 O 3920.78 -0.863993 -1.74257 0
M  V30 38978 C 3921.06 -3.56701 0.493574 0
M  V30 38979 C 3920.91 -4.04923 1.95849 0
M  V30 38980 C 3922.23 -4.39989 -0.0990197 0
M  V30 38981 H 3919.35 -0.726062 0.126502 0
M  V30 38982 H 3921.99 -1.6272 0.980927 0
M  V30 38983 H 3920.14 -3.8847 -0.0485661 0
M  V30 38984 H 3921.81 -3.83698 2.56074 0
M  V30 38985 H 3920.06 -3.56925 2.4655 0
M  V30 38986 H 3920.73 -5.13943 2.01411 0
M  V30 38987 H 3923.2 -4.14508 0.363618 0
M  V30 38988 H 3922.08 -5.48888 0.0356713 0
M  V30 38989 H 3922.34 -4.25787 -1.18987 0
M  V30 38990 N 3921.4 -0.527886 -1.48496 0
M  V30 38991 C 3922.36 0.225272 -2.2809 0
M  V30 38992 C 3923.36 0.869684 -1.35252 0
M  V30 38993 O 3924.55 0.730058 -1.58164 0
M  V30 38994 C 3921.68 1.32578 -3.14063 0
M  V30 38995 H 3922.88 -0.473517 -2.96138 0
M  V30 38996 H 3920.43 -0.283751 -1.53703 0
M  V30 38997 H 3921.17 2.05789 -2.50642 0
M  V30 38998 H 3920.95 0.868855 -3.82352 0
M  V30 38999 H 3922.44 1.85559 -3.74109 0
M  V30 39000 N 3922.88 1.55391 -0.26292 0
M  V30 39001 C 3924.29 1.59337 0.091542 0
M  V30 39002 C 3924.49 1.28015 1.5561 0
M  V30 39003 O 3923.55 1.03514 2.30306 0
M  V30 39004 C 3924.86 2.99466 -0.272096 0
M  V30 39005 C 3926.41 3.12242 -0.217708 0
M  V30 39006 C 3926.89 4.54617 -0.555608 0
M  V30 39007 N 3928.38 4.6042 -0.506704 0
M  V30 39008 C 3929.11 5.6859 -0.741113 0
M  V30 39009 N 3928.61 6.84957 -1.0395 0
M  V30 39010 N 3930.4 5.58084 -0.670734 0
M  V30 39011 H 3922.55 1.74019 -1.21783 0
M  V30 39012 H 3924.81 0.810852 -0.491145 0
M  V30 39013 H 3924.52 3.27181 -1.29018 0
M  V30 39014 H 3924.39 3.75147 0.393039 0
M  V30 39015 H 3926.78 2.84299 0.791073 0
M  V30 39016 H 3926.86 2.38801 -0.916926 0
M  V30 39017 H 3926.51 4.83284 -1.56202 0
M  V30 39018 H 3926.44 5.26341 0.165265 0
M  V30 39019 H 3928.93 3.7682 -0.285463 0
M  V30 39020 H 3929.24 7.63342 -1.20535 0
M  V30 39021 H 3927.59 6.86602 -1.07714 0
M  V30 39022 H 3930.78 4.6605 -0.437555 0
M  V30 39023 H 3930.95 6.42311 -0.856805 0
M  V30 39024 N 3924.36 -0.00997961 1.57597 0
M  V30 39025 C 3925.29 -1.03256 2.04624 0
M  V30 39026 C 3926.3 -1.3131 0.962366 0
M  V30 39027 O 3927.49 -1.28462 1.23935 0
M  V30 39028 C 3924.59 -2.36972 2.42276 0
M  V30 39029 C 3923.76 -2.28001 3.73275 0
M  V30 39030 C 3922.82 -3.44323 3.97905 0
M  V30 39031 O 3921.85 -3.22958 4.68707 0
M  V30 39032 N 3923.05 -4.66839 3.45023 0
M  V30 39033 H 3925.81 -0.631589 2.92969 0
M  V30 39034 H 3923.38 -0.197562 1.6069 0
M  V30 39035 H 3925.37 -3.13545 2.55875 0
M  V30 39036 H 3923.94 -2.68846 1.59501 0
M  V30 39037 H 3923.16 -1.36404 3.69848 0
M  V30 39038 H 3924.45 -2.1917 4.59176 0
M  V30 39039 H 3923.84 -4.87096 2.87669 0
M  V30 39040 H 3922.4 -5.40712 3.6397 0
M  V30 39041 N 3925.83 -1.55046 -0.282578 0
M  V30 39042 C 3927.24 -1.66007 -0.854309 0
M  V30 39043 C 3927.6 -0.580786 -1.87407 0
M  V30 39044 O 3926.72 0.279412 -2.14589 0
M  V30 39045 C 3927.32 -3.00939 -1.55632 0
M  V30 39046 C 3925.87 -3.1396 -2.07621 0
M  V30 39047 C 3925.02 -2.61768 -0.915018 0
M  V30 39048 H 3927.97 -1.5859 -0.0591432 0
M  V30 39049 H 3927.99 -2.93392 -2.42283 0
M  V30 39050 H 3927.51 -3.7947 -0.813875 0
M  V30 39051 H 3925.61 -2.40184 -2.84855 0
M  V30 39052 H 3925.72 -4.20386 -2.29809 0
M  V30 39053 H 3924.08 -2.18684 -1.30574 0
M  V30 39054 H 3924.87 -3.42794 -0.186238 0
M  V30 39055 N 3927.31 0.546649 -1.47816 0
M  V30 39056 C 3928.24 1.66829 -1.57164 0
M  V30 39057 C 3929.26 1.56252 -0.457063 0
M  V30 39058 O 3930.45 1.63017 -0.727162 0
M  V30 39059 C 3927.55 3.05371 -1.46975 0
M  V30 39060 C 3926.72 3.41597 -2.73186 0
M  V30 39061 C 3925.78 4.59347 -2.56684 0
M  V30 39062 O 3924.8 4.634 -3.30529 0
M  V30 39063 N 3926.01 5.56496 -1.65203 0
M  V30 39064 H 3928.77 1.59252 -2.53887 0
M  V30 39065 H 3926.33 0.73354 -1.44329 0
M  V30 39066 H 3928.32 3.81993 -1.33655 0
M  V30 39067 H 3926.89 3.07117 -0.582932 0
M  V30 39068 H 3926.11 2.54318 -3.01191 0
M  V30 39069 H 3927.4 3.62579 -3.56951 0
M  V30 39070 H 3926.8 5.55987 -1.04379 0
M  V30 39071 H 3925.36 6.32402 -1.57831 0
M  V30 39072 N 3928.79 1.36124 0.794222 0
M  V30 39073 C 3929.75 1.29914 1.88826 0
M  V30 39074 C 3930.75 0.207867 1.59451 0
M  V30 39075 O 3931.94 0.462351 1.67952 0
M  V30 39076 C 3929.07 1.01275 3.25509 0
M  V30 39077 H 3930.27 2.27205 1.95749 0
M  V30 39078 H 3927.82 1.20827 0.991484 0
M  V30 39079 H 3928.56 0.0442105 3.2427 0
M  V30 39080 H 3928.34 1.8024 3.48218 0
M  V30 39081 H 3929.83 0.995214 4.05568 0
M  V30 39082 N 3930.27 -1.01782 1.20325 0
M  V30 39083 C 3931.52 -1.74769 1.00691 0
M  V30 39084 C 3931.83 -1.90072 -0.461736 0
M  V30 39085 O 3933.04 -2.60139 -0.777168 0
M  V30 39086 C 3931.49 -3.14331 1.75283 0
M  V30 39087 C 3931.1 -3.07044 3.26233 0
M  V30 39088 C 3932.84 -3.91536 1.64013 0
M  V30 39089 C 3930.75 -4.41606 3.93367 0
M  V30 39090 H 3929.68 -0.6552 0.373135 0
M  V30 39091 H 3932.33 -1.13822 1.43933 0
M  V30 39092 H 3930.71 -3.75811 1.24827 0
M  V30 39093 H 3931.89 -2.54879 3.83893 0
M  V30 39094 H 3930.2 -2.43333 3.37902 0
M  V30 39095 H 3932.8 -4.91087 2.11512 0
M  V30 39096 H 3933.14 -4.1201 0.596123 0
M  V30 39097 H 3933.68 -3.36681 2.11875 0
M  V30 39098 H 3930.41 -4.26335 4.97914 0
M  V30 39099 H 3929.93 -4.93783 3.40497 0
M  V30 39100 H 3931.61 -5.10454 3.9755 0
M  V30 39101 N 3931.75 -1.00894 -1.21071 0
M  V30 39102 C 3932.99 -0.689248 -1.89558 0
M  V30 39103 C 3933.31 0.783722 -1.79213 0
M  V30 39104 O 3934.51 1.21566 -2.42763 0
M  V30 39105 C 3932.97 -1.18238 -3.39923 0
M  V30 39106 C 3932.58 -2.6817 -3.58871 0
M  V30 39107 C 3934.32 -0.937756 -4.14013 0
M  V30 39108 C 3932.23 -3.11004 -5.03022 0
M  V30 39109 H 3931.16 -0.25411 -0.70989 0
M  V30 39110 H 3933.81 -1.22062 -1.37015 0
M  V30 39111 H 3932.19 -0.579029 -3.91744 0
M  V30 39112 H 3933.37 -3.33988 -3.17472 0
M  V30 39113 H 3931.68 -2.9069 -2.98141 0
M  V30 39114 H 3934.28 -1.23329 -5.20283 0
M  V30 39115 H 3934.62 0.12593 -4.16109 0
M  V30 39116 H 3935.15 -1.50409 -3.68269 0
M  V30 39117 H 3931.89 -4.16616 -5.06075 0
M  V30 39118 H 3931.41 -2.499 -5.45261 0
M  V30 39119 H 3933.09 -3.03207 -5.71554 0
M  V30 39120 N 3933.22 1.36705 -0.78418 0
M  V30 39121 C 3934.45 2.03638 -0.365937 0
M  V30 39122 C 3934.87 1.59134 1.01596 0
M  V30 39123 O 3934.22 0.778327 1.65071 0
M  V30 39124 C 3934.28 3.5912 -0.414098 0
M  V30 39125 O 3934 4.02 -1.74149 0
M  V30 39126 C 3935.5 4.43298 0.0141767 0
M  V30 39127 H 3932.72 0.653665 -0.151537 0
M  V30 39128 H 3935.26 1.74788 -1.06157 0
M  V30 39129 H 3933.42 3.86698 0.233066 0
M  V30 39130 H 3933.83 4.96572 -1.6887 0
M  V30 39131 H 3935.3 5.51955 -0.0706651 0
M  V30 39132 H 3935.78 4.26063 1.06615 0
M  V30 39133 H 3936.39 4.20971 -0.605275 0
M  V30 39134 N 3934.7 0.535753 1.48214 0
M  V30 39135 C 3935.95 0.0119158 2.03397 0
M  V30 39136 C 3936.3 -1.31448 1.40496 0
M  V30 39137 O 3935.6 -1.83728 0.543577 0
M  V30 39138 C 3935.79 -0.161282 3.57036 0
M  V30 39139 C 3935.62 1.14678 4.34832 0
M  V30 39140 C 3934.39 1.70823 4.7555 0
M  V30 39141 C 3936.59 2.05881 4.71293 0
M  V30 39142 N 3934.57 2.95858 5.37904 0
M  V30 39143 C 3935.94 3.15492 5.33727 0
M  V30 39144 C 3938 2.06137 4.53224 0
M  V30 39145 C 3936.7 4.25431 5.80001 0
M  V30 39146 C 3938.72 3.15074 5.00482 0
M  V30 39147 C 3938.09 4.23404 5.62946 0
M  V30 39148 H 3934.19 0.0460006 0.780646 0
M  V30 39149 H 3936.77 0.718308 1.80965 0
M  V30 39150 H 3934.94 -0.836766 3.79279 0
M  V30 39151 H 3936.67 -0.685246 3.98856 0
M  V30 39152 H 3933.43 1.24889 4.56837 0
M  V30 39153 H 3933.85 3.59532 5.73643 0
M  V30 39154 H 3938.49 1.23676 4.04307 0
M  V30 39155 H 3936.21 5.08667 6.2792 0
M  V30 39156 H 3939.8 3.16334 4.88287 0
M  V30 39157 H 3938.68 5.06309 5.98849 0
M  V30 39158 N 3936.18 -1.5525 0.271158 0
M  V30 39159 C 3937.41 -2.03619 -0.349705 0
M  V30 39160 C 3937.82 -1.14909 -1.50308 0
M  V30 39161 O 3937.16 -0.160919 -1.82994 0
M  V30 39162 C 3937.22 -3.48138 -0.896679 0
M  V30 39163 C 3936.89 -4.56822 0.127553 0
M  V30 39164 C 3937.88 -5.11227 0.945679 0
M  V30 39165 C 3935.57 -5.01623 0.26065 0
M  V30 39166 C 3937.56 -6.08948 1.88313 0
M  V30 39167 C 3935.25 -5.99171 1.20158 0
M  V30 39168 C 3936.25 -6.52714 2.01132 0
M  V30 39169 O 3935.94 -7.48354 2.93634 0
M  V30 39170 H 3935.67 -0.670718 -0.0843374 0
M  V30 39171 H 3938.22 -2.01471 0.399839 0
M  V30 39172 H 3936.45 -3.47513 -1.69622 0
M  V30 39173 H 3938.14 -3.79868 -1.43021 0
M  V30 39174 H 3938.91 -4.7743 0.853567 0
M  V30 39175 H 3934.79 -4.59595 -0.359608 0
M  V30 39176 H 3938.33 -6.50665 2.51557 0
M  V30 39177 H 3934.23 -6.32386 1.29452 0
M  V30 39178 H 3935 -7.66056 2.88271 0
M  V30 39179 N 3937.66 0.00162173 -1.576 0
M  V30 39180 C 3938.61 0.993557 -2.0832 0
M  V30 39181 C 3939.58 1.34236 -0.978257 0
M  V30 39182 O 3940.76 1.44101 -1.25058 0
M  V30 39183 C 3937.9 2.2808 -2.58986 0
M  V30 39184 C 3937.01 1.99116 -3.83375 0
M  V30 39185 C 3936.15 3.2191 -4.22549 0
M  V30 39186 C 3935.19 2.88626 -5.39779 0
M  V30 39187 N 3934.32 4.03952 -5.74254 0
M  V30 39188 H 3939.16 0.554103 -2.92803 0
M  V30 39189 H 3936.7 0.261947 -1.44749 0
M  V30 39190 H 3938.66 3.03329 -2.86439 0
M  V30 39191 H 3937.29 2.69697 -1.77379 0
M  V30 39192 H 3936.34 1.14242 -3.6284 0
M  V30 39193 H 3937.65 1.70582 -4.68725 0
M  V30 39194 H 3936.81 4.05506 -4.51275 0
M  V30 39195 H 3935.55 3.53581 -3.35905 0
M  V30 39196 H 3934.55 2.03436 -5.10778 0
M  V30 39197 H 3935.78 2.58204 -6.28098 0
M  V30 39198 H 3933.72 4.35522 -4.90568 0
M  V30 39199 H 3933.64 3.78936 -6.54174 0
M  V30 39200 H 3934.91 4.88341 -6.07571 0
M  V30 39201 N 3939.14 1.55194 0.274352 0
M  V30 39202 C 3940.55 1.47003 0.621472 0
M  V30 39203 C 3940.75 0.683028 1.89571 0
M  V30 39204 O 3939.81 0.201341 2.51696 0
M  V30 39205 C 3941.12 2.91205 0.74969 0
M  V30 39206 C 3942.67 3.01411 0.843833 0
M  V30 39207 C 3943.14 4.46864 1.00384 0
M  V30 39208 N 3944.64 4.50686 1.06939 0
M  V30 39209 C 3945.37 5.60445 1.21197 0
M  V30 39210 N 3944.87 6.80073 1.32183 0
M  V30 39211 N 3946.66 5.48185 1.24297 0
M  V30 39212 H 3938.81 2.04816 -0.562498 0
M  V30 39213 H 3941.07 0.928719 -0.190222 0
M  V30 39214 H 3940.78 3.51508 -0.116136 0
M  V30 39215 H 3940.65 3.40144 1.6304 0
M  V30 39216 H 3943.04 2.41205 1.70013 0
M  V30 39217 H 3943.12 2.55726 -0.061456 0
M  V30 39218 H 3942.77 5.07672 0.152208 0
M  V30 39219 H 3942.7 4.90203 1.92376 0
M  V30 39220 H 3945.19 3.64512 0.996948 0
M  V30 39221 H 3945.5 7.59475 1.42893 0
M  V30 39222 H 3943.84 6.82887 1.2919 0
M  V30 39223 H 3947.04 4.53667 1.15344 0
M  V30 39224 H 3947.21 6.33768 1.35065 0
M  V30 39225 N 3940.61 -0.538802 1.48104 0
M  V30 39226 C 3941.86 -1.29254 1.55364 0
M  V30 39227 C 3942.18 -1.93692 0.225461 0
M  V30 39228 O 3941.45 -1.80881 -0.752248 0
M  V30 39229 H 3940.03 -0.480039 0.572339 0
M  V30 39230 H 3942.7 -0.627717 1.84515 0
M  V30 39231 H 3941.79 -2.07645 2.33002 0
M  V30 39232 N 3942.09 -1.36544 -0.786992 0
M  V30 39233 C 3943.34 -1.3065 -1.54192 0
M  V30 39234 C 3943.66 0.113161 -1.94671 0
M  V30 39235 O 3942.93 1.05394 -1.65133 0
M  V30 39236 H 3941.51 -0.480623 -0.571849 0
M  V30 39237 H 3944.17 -1.70867 -0.93758 0
M  V30 39238 H 3943.27 -1.93549 -2.44837 0
M  V30 39239 N 3943.57 1.01143 -1.20863 0
M  V30 39240 C 3944.8 1.78947 -1.04846 0
M  V30 39241 C 3945.22 1.83849 0.397644 0
M  V30 39242 O 3944.58 1.27735 1.2866 0
M  V30 39243 C 3944.63 3.21009 -1.64272 0
M  V30 39244 O 3943.73 4.02818 -0.883844 0
M  V30 39245 H 3943.07 0.551747 -0.36942 0
M  V30 39246 H 3945.6 1.27183 -1.60268 0
M  V30 39247 H 3945.61 3.71705 -1.68224 0
M  V30 39248 H 3944.29 3.16756 -2.69515 0
M  V30 39249 H 3942.86 3.614 -0.918929 0
M  V30 39250 N 3945.05 1.01535 1.20534 0
M  V30 39251 C 3945.98 0.604905 2.25529 0
M  V30 39252 C 3946.96 -0.379423 1.65814 0
M  V30 39253 O 3948.14 -0.265128 1.92382 0
M  V30 39254 C 3945.27 -0.0588682 3.4725 0
M  V30 39255 C 3944.23 0.846315 4.19549 0
M  V30 39256 C 3943.55 0.0483841 5.34678 0
M  V30 39257 C 3944.85 2.15378 4.75825 0
M  V30 39258 H 3946.55 1.48259 2.60115 0
M  V30 39259 H 3944.09 0.714319 1.25034 0
M  V30 39260 H 3946.05 -0.357553 4.1988 0
M  V30 39261 H 3944.77 -0.971255 3.11824 0
M  V30 39262 H 3943.43 1.12898 3.48783 0
M  V30 39263 H 3943.08 -0.865613 4.95496 0
M  V30 39264 H 3942.78 0.651183 5.83981 0
M  V30 39265 H 3944.3 -0.243876 6.10113 0
M  V30 39266 H 3945.72 1.91755 5.4028 0
M  V30 39267 H 3944.11 2.70733 5.35559 0
M  V30 39268 H 3945.18 2.81763 3.94636 0
M  V30 39269 N 3946.53 -1.36288 0.791419 0
M  V30 39270 C 3947.94 -1.81736 0.427643 0
M  V30 39271 C 3948.29 -1.65824 -1.04865 0
M  V30 39272 O 3947.41 -1.18031 -1.81377 0
M  V30 39273 C 3948.01 -3.29947 0.769436 0
M  V30 39274 C 3946.57 -3.73597 0.458463 0
M  V30 39275 C 3945.71 -2.58524 1.00303 0
M  V30 39276 H 3948.67 -1.24481 0.984391 0
M  V30 39277 H 3948.69 -3.80451 0.0612779 0
M  V30 39278 H 3948.2 -3.41496 1.84396 0
M  V30 39279 H 3946.3 -3.67607 -0.607941 0
M  V30 39280 H 3946.41 -4.6896 0.980474 0
M  V30 39281 H 3944.78 -2.5111 0.42615 0
M  V30 39282 H 3945.56 -2.72858 2.08335 0
M  V30 39283 N 3948.01 -0.543606 -1.47928 0
M  V30 39284 C 3949.23 -0.016927 -2.07393 0
M  V30 39285 C 3949.66 1.26115 -1.39559 0
M  V30 39286 O 3949.01 1.75208 -0.466013 0
M  V30 39287 C 3949.06 0.176041 -3.6017 0
M  V30 39288 O 3948.17 1.24171 -3.93263 0
M  V30 39289 H 3947.51 -0.0452243 -0.662458 0
M  V30 39290 H 3950.04 -0.755409 -1.90144 0
M  V30 39291 H 3950.05 0.394483 -4.06088 0
M  V30 39292 H 3948.72 -0.757517 -4.08943 0
M  V30 39293 H 3947.3 1.00484 -3.59106 0
M  V30 39294 N 3949.48 1.55104 -0.279387 0
M  V30 39295 C 3950.9 1.59425 0.074637 0
M  V30 39296 C 3951.1 1.29658 1.54244 0
M  V30 39297 O 3950.16 1.05951 2.29196 0
M  V30 39298 C 3951.47 2.99161 -0.303843 0
M  V30 39299 C 3953.02 3.11993 -0.250813 0
M  V30 39300 C 3953.49 4.54003 -0.603795 0
M  V30 39301 N 3954.98 4.59857 -0.555509 0
M  V30 39302 C 3955.72 5.67772 -0.801378 0
M  V30 39303 N 3955.21 6.83816 -1.11209 0
M  V30 39304 N 3957.01 5.57341 -0.729888 0
M  V30 39305 H 3949.16 1.72717 -1.23622 0
M  V30 39306 H 3951.42 0.805597 -0.499718 0
M  V30 39307 H 3951.13 3.25794 -1.32481 0
M  V30 39308 H 3951 3.75542 0.353228 0
M  V30 39309 H 3953.39 2.85122 0.760875 0
M  V30 39310 H 3953.47 2.37815 -0.942202 0
M  V30 39311 H 3953.11 4.816 -1.61319 0
M  V30 39312 H 3953.04 5.26486 0.109431 0
M  V30 39313 H 3955.53 3.76496 -0.325414 0
M  V30 39314 H 3955.85 7.62021 -1.28625 0
M  V30 39315 H 3954.19 6.85421 -1.1499 0
M  V30 39316 H 3957.38 4.6556 -0.486961 0
M  V30 39317 H 3957.56 6.41366 -0.924883 0
M  V30 39318 N 3950.96 0.0067362 1.57599 0
M  V30 39319 C 3951.91 -0.991158 2.05329 0
M  V30 39320 C 3952.9 -1.2991 0.949325 0
M  V30 39321 O 3954.09 -1.28896 1.21305 0
M  V30 39322 C 3951.22 -2.28098 2.56567 0
M  V30 39323 C 3950.3 -2.00238 3.73852 0
M  V30 39324 N 3950.69 -1.42562 4.85294 0
M  V30 39325 C 3948.99 -2.30347 3.81912 0
M  V30 39326 C 3949.69 -1.31326 5.66682 0
M  V30 39327 N 3948.67 -1.80118 5.12892 0
M  V30 39328 H 3952.47 -0.539827 2.889 0
M  V30 39329 H 3949.98 -0.198807 1.61179 0
M  V30 39330 H 3951.98 -3.00435 2.8904 0
M  V30 39331 H 3950.64 -2.73877 1.74417 0
M  V30 39332 H 3951.65 -1.10354 5.06006 0
M  V30 39333 H 3948.33 -2.78955 3.10629 0
M  V30 39334 H 3949.72 -0.869185 6.66254 0
M  V30 39335 N 3952.44 -1.55337 -0.266118 0
M  V30 39336 C 3953.37 -1.85109 -1.35156 0
M  V30 39337 C 3954.38 -0.736031 -1.45212 0
M  V30 39338 O 3955.57 -1.01396 -1.46905 0
M  V30 39339 C 3952.67 -2.00516 -2.73215 0
M  V30 39340 C 3951.85 -3.31231 -2.85665 0
M  V30 39341 C 3950.91 -3.36618 -4.04444 0
M  V30 39342 O 3949.93 -4.09952 -3.94877 0
M  V30 39343 N 3951.13 -2.64518 -5.16731 0
M  V30 39344 H 3953.9 -2.788 -1.09959 0
M  V30 39345 H 3951.46 -1.55339 -0.456234 0
M  V30 39346 H 3953.45 -2.01483 -3.5098 0
M  V30 39347 H 3952.02 -1.13661 -2.91204 0
M  V30 39348 H 3951.24 -3.42745 -1.9473 0
M  V30 39349 H 3952.53 -4.17424 -2.9092 0
M  V30 39350 H 3951.93 -2.04633 -5.27392 0
M  V30 39351 H 3950.48 -2.71199 -5.92701 0
M  V30 39352 N 3953.92 0.53094 -1.48387 0
M  V30 39353 C 3955.15 1.31158 -1.60016 0
M  V30 39354 C 3955.56 1.87 -0.26006 0
M  V30 39355 O 3954.92 1.66353 0.750518 0
M  V30 39356 C 3954.97 2.4631 -2.64601 0
M  V30 39357 O 3954.69 1.9277 -3.9341 0
M  V30 39358 C 3956.19 3.38144 -2.8666 0
M  V30 39359 H 3953.41 0.398893 -0.53956 0
M  V30 39360 H 3955.95 0.640596 -1.94208 0
M  V30 39361 H 3954.11 3.09295 -2.3327 0
M  V30 39362 H 3954.52 2.68139 -4.50779 0
M  V30 39363 H 3956 4.15294 -3.63641 0
M  V30 39364 H 3956.47 3.93315 -1.95448 0
M  V30 39365 H 3957.08 2.80952 -3.1929 0
M  V30 39366 N 3955.4 1.36959 0.779739 0
M  V30 39367 C 3956.35 1.28595 1.88274 0
M  V30 39368 C 3957.33 0.175417 1.59941 0
M  V30 39369 O 3958.52 0.409101 1.72207 0
M  V30 39370 C 3955.65 1.0872 3.2563 0
M  V30 39371 C 3954.74 2.24283 3.59941 0
M  V30 39372 N 3955.13 3.49642 3.65491 0
M  V30 39373 C 3953.43 2.16262 3.9006 0
M  V30 39374 C 3954.13 4.25799 3.96321 0
M  V30 39375 N 3953.1 3.54848 4.11806 0
M  V30 39376 H 3956.9 2.23541 1.90805 0
M  V30 39377 H 3954.42 1.29817 0.975771 0
M  V30 39378 H 3956.42 1.00814 4.04527 0
M  V30 39379 H 3955.08 0.146843 3.24368 0
M  V30 39380 H 3956.09 3.83653 3.47895 0
M  V30 39381 H 3952.76 1.30237 3.96667 0
M  V30 39382 H 3954.15 5.34255 4.07457 0
M  V30 39383 N 3956.87 -1.00501 1.21398 0
M  V30 39384 C 3958.12 -1.73933 1.02916 0
M  V30 39385 C 3958.44 -1.9001 -0.438296 0
M  V30 39386 O 3957.71 -1.45101 -1.31615 0
M  V30 39387 H 3956.29 -0.644405 0.377824 0
M  V30 39388 H 3958.95 -1.21107 1.52706 0
M  V30 39389 H 3958.05 -2.73849 1.4971 0
M  V30 39390 N 3958.35 -1.02172 -1.19994 0
M  V30 39391 C 3959.58 -0.733241 -1.94006 0
M  V30 39392 C 3960 0.700579 -1.74567 0
M  V30 39393 O 3959.36 1.48274 -1.04328 0
M  V30 39394 C 3959.41 -1.08063 -3.44027 0
M  V30 39395 O 3958.51 -0.195208 -4.11938 0
M  V30 39396 H 3957.85 -0.271573 -0.605924 0
M  V30 39397 H 3960.38 -1.36648 -1.52278 0
M  V30 39398 H 3960.39 -1.0345 -3.94667 0
M  V30 39399 H 3959.07 -2.12526 -3.57499 0
M  V30 39400 H 3957.64 -0.299311 -3.71697 0
M  V30 39401 N 3959.83 1.35866 -0.798635 0
M  V30 39402 C 3960.78 2.27317 -0.176315 0
M  V30 39403 C 3961.76 1.47398 0.645184 0
M  V30 39404 O 3962.96 1.6968 0.503746 0
M  V30 39405 C 3960.08 3.36485 0.680657 0
M  V30 39406 C 3959.17 4.23834 -0.150136 0
M  V30 39407 N 3959.56 4.91133 -1.20922 0
M  V30 39408 C 3957.86 4.45946 0.0695351 0
M  V30 39409 C 3958.56 5.55821 -1.71575 0
M  V30 39410 N 3957.54 5.33878 -1.02348 0
M  V30 39411 H 3961.34 2.76839 -0.986789 0
M  V30 39412 H 3958.85 1.493 -0.639004 0
M  V30 39413 H 3960.85 4.0094 1.14247 0
M  V30 39414 H 3959.51 2.88517 1.48957 0
M  V30 39415 H 3960.52 4.92832 -1.59177 0
M  V30 39416 H 3957.2 4.08793 0.848223 0
M  V30 39417 H 3958.59 6.19537 -2.60046 0
M  V30 39418 N 3961.31 0.551443 1.47638 0
M  V30 39419 C 3962.24 -0.187846 2.32743 0
M  V30 39420 C 3963.22 -0.914381 1.43433 0
M  V30 39421 O 3964.4 -0.895974 1.72296 0
M  V30 39422 C 3961.53 -1.22194 3.25094 0
M  V30 39423 C 3960.49 -0.612223 4.23599 0
M  V30 39424 C 3959.81 -1.75053 5.05233 0
M  V30 39425 C 3961.11 0.430226 5.20525 0
M  V30 39426 H 3962.81 0.52265 2.94803 0
M  V30 39427 H 3960.35 0.252793 1.41764 0
M  V30 39428 H 3962.31 -1.74725 3.8347 0
M  V30 39429 H 3961.03 -1.9623 2.61077 0
M  V30 39430 H 3959.69 -0.10826 3.6644 0
M  V30 39431 H 3959.34 -2.47979 4.37625 0
M  V30 39432 H 3959.04 -1.34838 5.7192 0
M  V30 39433 H 3960.56 -2.27921 5.66467 0
M  V30 39434 H 3961.98 -0.00880091 5.73299 0
M  V30 39435 H 3960.37 0.750941 5.95383 0
M  V30 39436 H 3961.44 1.32823 4.66354 0
M  V30 39437 N 3962.79 -1.54953 0.287609 0
M  V30 39438 C 3964.2 -1.59463 -0.0661812 0
M  V30 39439 C 3964.4 -1.30474 -1.53554 0
M  V30 39440 O 3963.46 -1.07165 -2.2863 0
M  V30 39441 C 3964.77 -2.98996 0.319704 0
M  V30 39442 C 3966.32 -3.11856 0.267355 0
M  V30 39443 C 3966.79 -4.53676 0.627864 0
M  V30 39444 N 3968.29 -4.59556 0.579889 0
M  V30 39445 C 3969.02 -5.67339 0.831477 0
M  V30 39446 N 3968.52 -6.83217 1.14833 0
M  V30 39447 N 3970.31 -5.56946 0.759435 0
M  V30 39448 H 3962.46 -1.72059 1.24537 0
M  V30 39449 H 3964.72 -0.802935 0.503983 0
M  V30 39450 H 3964.43 -3.25087 1.34207 0
M  V30 39451 H 3964.3 -3.75725 -0.333307 0
M  V30 39452 H 3966.69 -2.85522 -0.745743 0
M  V30 39453 H 3966.77 -2.37312 0.954801 0
M  V30 39454 H 3966.42 -4.80738 1.63871 0
M  V30 39455 H 3966.35 -5.26537 -0.0815081 0
M  V30 39456 H 3968.84 -3.76318 0.345376 0
M  V30 39457 H 3969.15 -7.61328 1.32664 0
M  V30 39458 H 3967.49 -6.84802 1.18624 0
M  V30 39459 H 3970.69 -4.65295 0.511644 0
M  V30 39460 H 3970.86 -6.40866 0.958883 0
M  V30 39461 N 3964.26 -0.0150939 -1.57593 0
M  V30 39462 C 3965.19 0.970044 -2.12397 0
M  V30 39463 C 3966.18 1.34859 -1.03668 0
M  V30 39464 O 3967.36 1.42968 -1.3143 0
M  V30 39465 C 3964.49 2.25702 -2.63962 0
M  V30 39466 C 3963.44 2.01965 -3.77352 0
M  V30 39467 C 3962.77 3.36807 -4.15289 0
M  V30 39468 C 3964.07 1.37008 -5.0401 0
M  V30 39469 H 3965.76 0.513679 -2.94961 0
M  V30 39470 H 3963.31 0.245641 -1.41889 0
M  V30 39471 H 3965.26 2.94988 -3.00932 0
M  V30 39472 H 3963.99 2.73479 -1.7854 0
M  V30 39473 H 3962.65 1.35101 -3.40798 0
M  V30 39474 H 3962.29 3.82316 -3.26869 0
M  V30 39475 H 3961.99 3.21735 -4.91691 0
M  V30 39476 H 3963.52 4.07383 -4.54831 0
M  V30 39477 H 3964.93 1.96272 -5.38656 0
M  V30 39478 H 3963.33 1.32378 -5.85317 0
M  V30 39479 H 3964.4 0.341196 -4.83698 0
M  V30 39480 N 3965.74 1.55476 0.257876 0
M  V30 39481 C 3966.69 1.8578 1.32173 0
M  V30 39482 C 3967.68 0.717814 1.44001 0
M  V30 39483 O 3968.87 0.979502 1.47427 0
M  V30 39484 C 3966 2.14643 2.67924 0
M  V30 39485 C 3965.08 3.3494 2.60146 0
M  V30 39486 N 3965.47 4.54481 2.21992 0
M  V30 39487 C 3963.77 3.37832 2.9118 0
M  V30 39488 C 3964.47 5.36601 2.24576 0
M  V30 39489 N 3963.45 4.75385 2.63647 0
M  V30 39490 H 3967.25 2.75741 1.01706 0
M  V30 39491 H 3964.77 1.55555 0.466512 0
M  V30 39492 H 3966.76 2.34514 3.44686 0
M  V30 39493 H 3965.42 1.25974 2.99267 0
M  V30 39494 H 3966.43 4.80306 1.93718 0
M  V30 39495 H 3963.11 2.59402 3.27134 0
M  V30 39496 H 3964.5 6.42214 1.97511 0
M  V30 39497 N 3967.22 -0.523064 1.48667 0
M  V30 39498 C 3968.15 -1.64308 1.59799 0
M  V30 39499 C 3969.17 -1.55505 0.481863 0
M  V30 39500 O 3970.35 -1.6184 0.753005 0
M  V30 39501 C 3967.45 -3.02994 1.51815 0
M  V30 39502 C 3966.63 -3.37208 2.78585 0
M  V30 39503 C 3965.69 -4.55205 2.6396 0
M  V30 39504 O 3964.71 -4.58082 3.3786 0
M  V30 39505 N 3965.91 -5.53798 1.74036 0
M  V30 39506 H 3968.68 -1.55193 2.56389 0
M  V30 39507 H 3966.24 -0.710486 1.45478 0
M  V30 39508 H 3968.23 -3.79818 1.39716 0
M  V30 39509 H 3966.8 -3.0615 0.631718 0
M  V30 39510 H 3966.02 -2.49494 3.05199 0
M  V30 39511 H 3967.31 -3.56854 3.62674 0
M  V30 39512 H 3966.71 -5.54256 1.13211 0
M  V30 39513 H 3965.27 -6.29811 1.67872 0
M  V30 39514 N 3968.7 -1.37371 -0.772465 0
M  V30 39515 C 3969.63 -1.27443 -1.89297 0
M  V30 39516 C 3970.61 -0.155116 -1.61858 0
M  V30 39517 O 3971.79 -0.329201 -1.85603 0
M  V30 39518 C 3968.92 -0.970282 -3.24505 0
M  V30 39519 C 3967.97 -2.10639 -3.70855 0
M  V30 39520 S 3968.8 -3.72605 -3.84612 0
M  V30 39521 C 3969.96 -3.44338 -5.22668 0
M  V30 39522 H 3970.19 -2.22282 -1.97429 0
M  V30 39523 H 3967.72 -1.22985 -0.93349 0
M  V30 39524 H 3969.68 -0.801624 -4.02597 0
M  V30 39525 H 3968.34 -0.039396 -3.14075 0
M  V30 39526 H 3967.53 -1.84856 -4.68876 0
M  V30 39527 H 3967.14 -2.23514 -2.99863 0
M  V30 39528 H 3969.43 -2.99282 -6.07813 0
M  V30 39529 H 3970.37 -4.41684 -5.53463 0
M  V30 39530 H 3970.78 -2.79284 -4.90572 0
M  V30 39531 N 3970.18 0.998553 -1.21929 0
M  V30 39532 C 3971.4 1.77825 -1.06738 0
M  V30 39533 C 3971.83 1.8426 0.378122 0
M  V30 39534 O 3971.18 1.29092 1.27298 0
M  V30 39535 C 3971.23 3.19249 -1.67668 0
M  V30 39536 O 3970.34 4.01857 -0.926518 0
M  V30 39537 H 3969.68 0.547798 -0.375251 0
M  V30 39538 H 3972.21 1.25476 -1.61608 0
M  V30 39539 H 3972.22 3.699 -1.72157 0
M  V30 39540 H 3970.89 3.1388 -2.72859 0
M  V30 39541 H 3969.47 3.60405 -0.957209 0
M  V30 39542 N 3971.65 1.02807 1.1945 0
M  V30 39543 C 3972.9 0.725135 1.89393 0
M  V30 39544 C 3973.23 -0.744329 1.79369 0
M  V30 39545 O 3972.51 -1.54194 1.18551 0
M  V30 39546 C 3972.79 1.17592 3.40359 0
M  V30 39547 C 3972.64 2.70655 3.59258 0
M  V30 39548 C 3973.96 0.756087 4.33557 0
M  V30 39549 H 3971.08 0.264899 0.687748 0
M  V30 39550 H 3973.72 1.27785 1.40609 0
M  V30 39551 H 3971.87 0.705677 3.82037 0
M  V30 39552 H 3973.55 3.25619 3.26756 0
M  V30 39553 H 3971.79 3.11085 3.02339 0
M  V30 39554 H 3972.46 2.97252 4.65129 0
M  V30 39555 H 3974.94 1.16053 3.99588 0
M  V30 39556 H 3973.81 1.0994 5.37777 0
M  V30 39557 H 3974.07 -0.341599 4.40778 0
M  V30 39558 N 3973.13 -1.35441 0.805829 0
M  V30 39559 C 3974.1 -2.28129 0.221318 0
M  V30 39560 C 3975.1 -1.4955 -0.590893 0
M  V30 39561 O 3976.29 -1.69319 -0.409488 0
M  V30 39562 C 3973.42 -3.33811 -0.691585 0
M  V30 39563 H 3974.61 -2.81334 1.0388 0
M  V30 39564 H 3972.16 -1.45283 0.576426 0
M  V30 39565 H 3972.9 -2.85791 -1.53278 0
M  V30 39566 H 3972.68 -3.91943 -0.110903 0
M  V30 39567 H 3974.17 -4.02991 -1.09489 0
M  V30 39568 N 3974.61 -0.559265 -1.47343 0
M  V30 39569 C 3975.89 0.0297924 -1.95577 0
M  V30 39570 C 3976.27 1.48347 -1.50188 0
M  V30 39571 O 3975.62 2.16129 -0.741658 0
M  V30 39572 C 3975.83 -0.117828 -3.48801 0
M  V30 39573 C 3977.17 0.0264603 -4.24592 0
M  V30 39574 O 3978.2 -0.0454789 -3.56171 0
M  V30 39575 O 3977.06 0.181579 -5.46198 0
M  V30 39576 H 3974.15 0.0629827 -0.824598 0
M  V30 39577 H 3976.7 -0.625933 -1.57734 0
M  V30 39578 H 3975.47 -1.12931 -3.7465 0
M  V30 39579 H 3975.09 0.575414 -3.93414 0
M  V30 39580 N 3976.09 1.54799 -0.295822 0
M  V30 39581 C 3977.31 2.04908 0.320544 0
M  V30 39582 C 3977.74 1.17193 1.4713 0
M  V30 39583 O 3977.1 0.174901 1.80454 0
M  V30 39584 C 3977.14 3.52514 0.759377 0
M  V30 39585 O 3976.25 3.67837 1.86467 0
M  V30 39586 H 3975.59 0.660995 0.0631012 0
M  V30 39587 H 3978.12 1.99897 -0.436158 0
M  V30 39588 H 3978.13 3.94269 1.04958 0
M  V30 39589 H 3976.8 4.15818 -0.0824445 0
M  V30 39590 H 3975.38 3.37987 1.57541 0
M  V30 39591 N 3977.57 0.0234513 1.57583 0
M  V30 39592 C 3978.82 -0.655119 1.91187 0
M  V30 39593 C 3979.14 -1.72993 0.899911 0
M  V30 39594 O 3978.41 -1.9581 -0.0593934 0
M  V30 39595 H 3976.99 -0.244969 0.705691 0
M  V30 39596 H 3979.65 0.0699167 1.94775 0
M  V30 39597 H 3978.74 -1.11147 2.91638 0
M  V30 39598 N 3979.05 -1.5561 -0.249627 0
M  V30 39599 C 3979.96 -1.93217 -1.33058 0
M  V30 39600 C 3980.97 -0.832266 -1.52805 0
M  V30 39601 O 3982.15 -1.13342 -1.6648 0
M  V30 39602 C 3979.21 -2.21684 -2.66565 0
M  V30 39603 C 3978.27 -3.45091 -2.55364 0
M  V30 39604 C 3977.51 -3.72191 -3.82504 0
M  V30 39605 O 3977.73 -3.01408 -4.84261 0
M  V30 39606 O 3976.66 -4.65718 -3.81301 0
M  V30 39607 H 3980.49 -2.85281 -1.04156 0
M  V30 39608 H 3978.07 -1.42457 -0.450152 0
M  V30 39609 H 3979.96 -2.41314 -3.45464 0
M  V30 39610 H 3978.63 -1.32799 -2.95205 0
M  V30 39611 H 3977.54 -3.30771 -1.7476 0
M  V30 39612 H 3978.87 -4.3427 -2.31669 0
M  V30 39613 N 3980.52 0.515172 -1.48942 0
M  V30 39614 C 3981.75 1.29266 -1.61164 0
M  V30 39615 C 3982.16 1.87165 -0.27673 0
M  V30 39616 O 3981.5 1.67868 0.746053 0
M  V30 39617 C 3981.57 2.47147 -2.61072 0
M  V30 39618 C 3981.23 2.10225 -4.05777 0
M  V30 39619 C 3982.23 1.65026 -4.93014 0
M  V30 39620 C 3979.91 2.20294 -4.51416 0
M  V30 39621 C 3981.91 1.30382 -6.23923 0
M  V30 39622 C 3979.59 1.85261 -5.82342 0
M  V30 39623 C 3980.59 1.40378 -6.68418 0
M  V30 39624 O 3980.28 1.05812 -7.96906 0
M  V30 39625 H 3980.01 0.398811 -0.545825 0
M  V30 39626 H 3982.57 0.626603 -1.95609 0
M  V30 39627 H 3980.8 3.16783 -2.21778 0
M  V30 39628 H 3982.48 3.09193 -2.62972 0
M  V30 39629 H 3983.25 1.56705 -4.58986 0
M  V30 39630 H 3979.13 2.54182 -3.84594 0
M  V30 39631 H 3982.67 0.95277 -6.91063 0
M  V30 39632 H 3978.57 1.93227 -6.159 0
M  V30 39633 H 3979.34 1.19082 -8.09791 0
M  V30 39634 N 3982 1.37779 0.765169 0
M  V30 39635 C 3983.25 1.33547 1.5262 0
M  V30 39636 C 3983.58 -0.0779579 1.94043 0
M  V30 39637 O 3982.86 -1.0367 1.64568 0
M  V30 39638 C 3983.14 2.28061 2.78675 0
M  V30 39639 C 3982.99 3.78213 2.43465 0
M  V30 39640 C 3984.31 2.20906 3.80642 0
M  V30 39641 H 3981.43 0.486435 0.553669 0
M  V30 39642 H 3984.07 1.68533 0.877297 0
M  V30 39643 H 3982.22 1.98356 3.34047 0
M  V30 39644 H 3983.89 4.18543 1.93957 0
M  V30 39645 H 3982.14 3.9646 1.76074 0
M  V30 39646 H 3982.81 4.39789 3.33601 0
M  V30 39647 H 3985.28 2.47105 3.34781 0
M  V30 39648 H 3984.16 2.89167 4.66555 0
M  V30 39649 H 3984.42 1.20411 4.25386 0
M  V30 39650 N 3983.48 -0.992073 1.22457 0
M  V30 39651 C 3984.72 -1.74692 1.06122 0
M  V30 39652 C 3985.08 -1.87858 -0.39667 0
M  V30 39653 O 3986.28 -2.60033 -0.68089 0
M  V30 39654 C 3984.56 -3.11411 1.75379 0
M  V30 39655 S 3986.11 -4.02624 1.74468 0
M  V30 39656 H 3982.93 -0.60092 0.380021 0
M  V30 39657 H 3985.53 -1.18608 1.5541 0
M  V30 39658 H 3984.24 -2.99472 2.80615 0
M  V30 39659 H 3983.77 -3.72566 1.26325 0
M  V30 39660 H 3985.78 -4.89791 0.794957 0
M  V30 39661 N 3984.96 -1.03439 -1.18904 0
M  V30 39662 C 3986.37 -0.752469 -1.40748 0
M  V30 39663 C 3986.57 0.660645 -1.90362 0
M  V30 39664 O 3985.63 1.42581 -2.08391 0
M  V30 39665 C 3986.94 -1.79325 -2.41377 0
M  V30 39666 C 3988.49 -1.81344 -2.55115 0
M  V30 39667 C 3988.97 -2.84397 -3.59002 0
M  V30 39668 N 3990.46 -2.83248 -3.66503 0
M  V30 39669 C 3991.19 -3.59639 -4.46595 0
M  V30 39670 N 3990.69 -4.45762 -5.30347 0
M  V30 39671 N 3992.48 -3.48156 -4.41298 0
M  V30 39672 H 3984.63 -1.94641 -0.850224 0
M  V30 39673 H 3986.89 -0.841816 -0.435947 0
M  V30 39674 H 3986.6 -2.80654 -2.11958 0
M  V30 39675 H 3986.47 -1.62014 -3.40634 0
M  V30 39676 H 3988.86 -0.806897 -2.83854 0
M  V30 39677 H 3988.94 -2.02731 -1.55993 0
M  V30 39678 H 3988.59 -3.85226 -3.31004 0
M  V30 39679 H 3988.52 -2.60266 -4.57787 0
M  V30 39680 H 3991.01 -2.20789 -3.06693 0
M  V30 39681 H 3991.32 -5.00776 -5.88594 0
M  V30 39682 H 3989.67 -4.49832 -5.29789 0
M  V30 39683 H 3992.86 -2.80282 -3.74913 0
M  V30 39684 H 3993.03 -4.07941 -5.03476 0
M  V30 39685 N 3986.44 1.35011 -0.813001 0
M  V30 39686 C 3987.4 2.28008 -0.233413 0
M  V30 39687 C 3988.4 1.49861 0.582954 0
M  V30 39688 O 3989.59 1.69534 0.400503 0
M  V30 39689 C 3986.72 3.34173 0.673872 0
M  V30 39690 H 3987.91 2.80779 -1.05371 0
M  V30 39691 H 3985.47 1.44975 -0.584122 0
M  V30 39692 H 3986.2 2.86599 1.51761 0
M  V30 39693 H 3985.99 3.91996 0.0901159 0
M  V30 39694 H 3987.48 4.03566 1.07351 0
M  V30 39695 N 3987.91 0.567071 1.47044 0
M  V30 39696 C 3988.86 -0.188035 2.31839 0
M  V30 39697 C 3989.86 -0.899727 1.43531 0
M  V30 39698 O 3991.06 -0.819892 1.60243 0
M  V30 39699 H 3987.44 -0.0795094 0.747785 0
M  V30 39700 H 3989.41 0.546173 2.93359 0
M  V30 39701 C 3988.16 -1.19855 3.26389 0
M  V30 39702 H 3987.48 -0.660343 3.94309 0
M  V30 39703 H 3988.92 -1.6976 3.88533 0
M  V30 39704 C 3987.38 -2.25152 2.50615 0
M  V30 39705 O 3987.91 -3.32246 2.25777 0
M  V30 39706 N 3986.11 -1.99341 2.11451 0
M  V30 39707 H 3985.66 -1.12262 2.31851 0
M  V30 39708 H 3985.62 -2.70008 1.61069 0
M  V30 39709 N 3989.39 -1.5464 0.304027 0
M  V30 39710 C 3990.34 -2.25086 -0.586435 0
M  V30 39711 C 3991.33 -1.25794 -1.13456 0
M  V30 39712 O 3992.54 -1.43635 -1.08485 0
M  V30 39713 H 3988.91 -0.72274 -0.207727 0
M  V30 39714 H 3990.89 -2.98385 0.0302206 0
M  V30 39715 C 3989.63 -3.00721 -1.74534 0
M  V30 39716 H 3988.96 -3.7693 -1.3328 0
M  V30 39717 H 3990.4 -3.5329 -2.34441 0
M  V30 39718 C 3988.86 -2.07867 -2.65128 0
M  V30 39719 O 3989.39 -1.64869 -3.66307 0
M  V30 39720 N 3987.59 -1.7376 -2.32929 0
M  V30 39721 H 3987.14 -2.08923 -1.50694 0
M  V30 39722 H 3987.1 -1.11909 -2.93809 0
M  V30 39723 N 3990.87 -0.0318079 -1.57568 0
M  V30 39724 C 3991.82 0.967137 -2.1154 0
M  V30 39725 C 3992.81 1.33515 -1.0426 0
M  V30 39726 O 3994.02 1.31706 -1.22692 0
M  V30 39727 H 3990.39 0.329676 -0.675883 0
M  V30 39728 H 3992.36 0.486643 -2.94405 0
M  V30 39729 C 3991.11 2.23946 -2.65977 0
M  V30 39730 H 3990.44 1.96503 -3.48176 0
M  V30 39731 H 3991.88 2.92046 -3.07384 0
M  V30 39732 C 3990.33 2.97102 -1.58845 0
M  V30 39733 O 3990.86 3.89313 -0.989853 0
M  V30 39734 N 3989.07 2.59486 -1.30826 0
M  V30 39735 H 3988.62 1.84578 -1.7969 0
M  V30 39736 H 3988.58 3.08743 -0.593712 0
M  V30 39737 N 3992.35 1.55741 0.241371 0
M  V30 39738 C 3993.6 1.77032 0.966576 0
M  V30 39739 C 3993.91 0.596763 1.86274 0
M  V30 39740 O 3995.12 0.692821 2.62511 0
M  V30 39741 C 3993.57 3.13438 1.76875 0
M  V30 39742 C 3993.18 4.38458 0.919697 0
M  V30 39743 C 3994.92 3.44065 2.48635 0
M  V30 39744 C 3992.83 5.65894 1.71808 0
M  V30 39745 H 3991.76 0.659969 0.364632 0
M  V30 39746 H 3994.41 1.82164 0.221056 0
M  V30 39747 H 3992.79 3.02428 2.55643 0
M  V30 39748 H 3993.97 4.60472 0.173955 0
M  V30 39749 H 3992.28 4.15206 0.315161 0
M  V30 39750 H 3994.88 4.36494 3.08831 0
M  V30 39751 H 3995.22 2.65644 3.20529 0
M  V30 39752 H 3995.76 3.56315 1.76873 0
M  V30 39753 H 3992.5 6.47153 1.04278 0
M  V30 39754 H 3992.02 5.47974 2.43895 0
M  V30 39755 H 3993.69 6.05352 2.28381 0
M  V30 39756 N 3993.83 -0.507266 1.49213 0
M  V30 39757 C 3995.1 -1.2686 1.48882 0
M  V30 39758 C 3995.48 -2.10022 0.213044 0
M  V30 39759 O 3994.83 -2.1386 -0.804748 0
M  V30 39760 C 3995.04 -2.13068 2.76411 0
M  V30 39761 C 3996.39 -2.72463 3.25652 0
M  V30 39762 O 3997.41 -2.23339 2.77485 0
M  V30 39763 O 3996.27 -3.61873 4.09525 0
M  V30 39764 H 3993.37 -0.573743 0.595607 0
M  V30 39765 H 3995.91 -0.522051 1.6147 0
M  V30 39766 H 3994.68 -1.51551 3.6076 0
M  V30 39767 H 3994.31 -2.94927 2.66653 0
M  V30 39768 N 3995.3 -1.38182 -0.757851 0
M  V30 39769 C 3996.27 -1.34874 -1.85315 0
M  V30 39770 C 3997.27 -0.250069 -1.58844 0
M  V30 39771 O 3998.46 -0.506718 -1.66667 0
M  V30 39772 C 3995.59 -1.09869 -3.2271 0
M  V30 39773 H 3996.78 -2.32315 -1.89657 0
M  V30 39774 H 3994.34 -1.23414 -0.9591 0
M  V30 39775 H 3995.07 -0.130169 -3.24039 0
M  V30 39776 H 3994.86 -1.89409 -3.43317 0
M  V30 39777 H 3996.35 -1.10239 -4.02787 0
M  V30 39778 N 3996.78 0.985565 -1.22981 0
M  V30 39779 C 3997.71 2.09517 -1.03077 0
M  V30 39780 C 3998.69 1.70025 0.0506726 0
M  V30 39781 O 3999.88 1.93871 -0.112972 0
M  V30 39782 C 3997.01 3.418 -0.615638 0
M  V30 39783 C 3995.96 3.95173 -1.64384 0
M  V30 39784 C 3995.29 5.2359 -1.08432 0
M  V30 39785 C 3996.59 4.25026 -3.03562 0
M  V30 39786 H 3998.28 2.26427 -1.95886 0
M  V30 39787 H 3995.83 1.08808 -0.943225 0
M  V30 39788 H 3997.78 4.18844 -0.463467 0
M  V30 39789 H 3996.51 3.24739 0.348128 0
M  V30 39790 H 3995.16 3.20269 -1.78391 0
M  V30 39791 H 3994.81 5.02876 -0.111685 0
M  V30 39792 H 3994.51 5.60267 -1.77128 0
M  V30 39793 H 3996.04 6.0326 -0.943886 0
M  V30 39794 H 3997.45 4.92839 -2.92886 0
M  V30 39795 H 3995.85 4.72892 -3.69449 0
M  V30 39796 H 3996.92 3.32505 -3.52943 0
M  V30 39797 N 3998.26 1.04068 1.18353 0
M  V30 39798 C 3999.17 0.642155 2.2564 0
M  V30 39799 C 4000.19 -0.331584 1.70811 0
M  V30 39800 O 4001.36 -0.186507 2.00535 0
M  V30 39801 C 3998.43 0.0113094 3.46698 0
M  V30 39802 C 3997.49 1.03405 4.1666 0
M  V30 39803 C 3996.72 0.433218 5.31939 0
M  V30 39804 O 3996.94 -0.760569 5.65307 0
M  V30 39805 O 3995.88 1.16192 5.90579 0
M  V30 39806 H 3999.7 1.53599 2.61994 0
M  V30 39807 H 3997.29 0.811564 1.25435 0
M  V30 39808 H 3999.17 -0.33986 4.20027 0
M  V30 39809 H 3997.85 -0.856351 3.12167 0
M  V30 39810 H 3996.75 1.43702 3.45399 0
M  V30 39811 H 3998.09 1.87248 4.55191 0
M  V30 39812 N 3999.74 -1.34578 0.820149 0
M  V30 39813 C 4000.7 -2.27881 0.245502 0
M  V30 39814 C 4001.7 -1.50168 -0.574998 0
M  V30 39815 O 4002.89 -1.69744 -0.391506 0
M  V30 39816 C 4000.02 -3.34526 -0.65614 0
M  V30 39817 H 4001.22 -2.80217 1.06858 0
M  V30 39818 H 3998.77 -1.44663 0.591803 0
M  V30 39819 H 3999.5 -2.874 -1.50239 0
M  V30 39820 H 3999.29 -3.92039 -0.0693262 0
M  V30 39821 H 4000.78 -4.0413 -1.05209 0
M  V30 39822 N 4001.22 -0.574861 -1.46742 0
M  V30 39823 C 4002.44 -0.0609143 -2.07311 0
M  V30 39824 C 4002.87 1.23126 -1.42202 0
M  V30 39825 O 4002.22 1.74181 -0.503073 0
M  V30 39826 C 4002.27 0.0996043 -3.60462 0
M  V30 39827 O 4001.38 1.15801 -3.95808 0
M  V30 39828 H 4000.72 -0.0592658 -0.66135 0
M  V30 39829 H 4003.25 -0.795571 -1.88499 0
M  V30 39830 H 4003.26 0.308257 -4.06834 0
M  V30 39831 H 4001.93 -0.844089 -4.07244 0
M  V30 39832 H 4000.51 0.928441 -3.61157 0
M  V30 39833 N 4002.69 1.54476 -0.312224 0
M  V30 39834 C 4003.94 1.99537 0.294572 0
M  V30 39835 C 4004.26 1.20424 1.54135 0
M  V30 39836 O 4005.46 1.55807 2.22343 0
M  V30 39837 C 4003.92 3.5527 0.575408 0
M  V30 39838 C 4003.53 4.43206 -0.653669 0
M  V30 39839 C 4005.27 4.08829 1.14278 0
M  V30 39840 C 4003.18 5.90391 -0.345364 0
M  V30 39841 H 4002.11 0.745356 0.113846 0
M  V30 39842 H 4004.76 1.78566 -0.422681 0
M  V30 39843 H 4003.14 3.72186 1.35255 0
M  V30 39844 H 4004.31 4.38065 -1.42952 0
M  V30 39845 H 4002.63 4.00478 -1.14046 0
M  V30 39846 H 4005.23 5.16374 1.38788 0
M  V30 39847 H 4005.57 3.60116 2.0886 0
M  V30 39848 H 4006.1 3.95501 0.427085 0
M  V30 39849 H 4002.84 6.43275 -1.26005 0
M  V30 39850 H 4002.36 5.98511 0.393001 0
M  V30 39851 H 4004.04 6.46981 0.048971 0
M  V30 39852 N 4004.17 0.0401637 1.57549 0
M  V30 39853 C 4005.42 -0.637003 1.92536 0
M  V30 39854 C 4005.75 -1.7114 0.917866 0
M  V30 39855 O 4005.03 -1.94414 -0.0577898 0
M  V30 39856 C 4005.31 -1.24327 3.37957 0
M  V30 39857 C 4005.16 -0.177682 4.49449 0
M  V30 39858 C 4006.48 -2.15811 3.83554 0
M  V30 39859 H 4003.6 -0.230095 0.700161 0
M  V30 39860 H 4006.24 0.0996801 1.89738 0
M  V30 39861 H 4004.39 -1.87113 3.40472 0
M  V30 39862 H 4006.06 0.453588 4.59065 0
M  V30 39863 H 4004.31 0.495562 4.3096 0
M  V30 39864 H 4004.98 -0.641696 5.48257 0
M  V30 39865 H 4007.45 -1.62999 3.82845 0
M  V30 39866 H 4006.33 -2.55179 4.85978 0
M  V30 39867 H 4006.59 -3.05376 3.19684 0
M  V30 39868 N 4005.65 -1.55866 -0.233109 0
M  V30 39869 C 4006.9 -1.77542 -0.957174 0
M  V30 39870 C 4007.21 -0.606633 -1.85955 0
M  V30 39871 O 4008.42 -0.706733 -2.6214 0
M  V30 39872 C 4006.87 -3.14372 -1.7521 0
M  V30 39873 C 4006.48 -4.3894 -0.896432 0
M  V30 39874 C 4008.23 -3.45379 -2.46807 0
M  V30 39875 C 4006.13 -5.66797 -1.68804 0
M  V30 39876 H 4005.06 -0.661894 -0.361127 0
M  V30 39877 H 4007.71 -1.82278 -0.211392 0
M  V30 39878 H 4006.1 -3.0378 -2.54035 0
M  V30 39879 H 4007.27 -4.60557 -0.149533 0
M  V30 39880 H 4005.59 -4.15367 -0.293138 0
M  V30 39881 H 4008.18 -4.38126 -3.06512 0
M  V30 39882 H 4008.53 -2.6734 -3.19116 0
M  V30 39883 H 4009.06 -3.57248 -1.74981 0
M  V30 39884 H 4005.8 -6.47696 -1.00844 0
M  V30 39885 H 4005.32 -5.49259 -2.40986 0
M  V30 39886 H 4007 -6.06555 -2.25168 0
M  V30 39887 N 4007.13 0.499346 -1.4948 0
M  V30 39888 C 4008.35 1.28206 -1.63027 0
M  V30 39889 C 4008.78 1.85655 -0.30227 0
M  V30 39890 O 4008.14 1.6594 0.730326 0
M  V30 39891 C 4008.19 2.38694 -2.70291 0
M  V30 39892 O 4007.29 3.42589 -2.29579 0
M  V30 39893 H 4006.63 0.378422 -0.545612 0
M  V30 39894 H 4009.16 0.597594 -1.95678 0
M  V30 39895 H 4009.17 2.84433 -2.9251 0
M  V30 39896 H 4007.85 1.96247 -3.66688 0
M  V30 39897 H 4006.42 3.02758 -2.17698 0
M  V30 39898 N 4008.61 1.38582 0.750513 0
M  V30 39899 C 4009.85 1.35158 1.51195 0
M  V30 39900 C 4010.19 -0.0573726 1.94115 0
M  V30 39901 O 4009.46 -1.01919 1.65659 0
M  V30 39902 C 4009.74 2.31004 2.76241 0
M  V30 39903 C 4009.6 3.80774 2.39439 0
M  V30 39904 C 4010.92 2.24931 3.78278 0
M  V30 39905 H 4008.04 0.49228 0.548479 0
M  V30 39906 H 4010.68 1.69454 0.859372 0
M  V30 39907 H 4008.83 2.01888 3.31924 0
M  V30 39908 H 4010.5 4.20577 1.89507 0
M  V30 39909 H 4008.74 3.98305 1.71859 0
M  V30 39910 H 4009.41 4.43302 3.28918 0
M  V30 39911 H 4011.89 2.50641 3.32142 0
M  V30 39912 H 4010.77 2.941 4.63462 0
M  V30 39913 H 4011.03 1.24916 4.24085 0
M  V30 39914 N 4010.09 -0.979029 1.23502 0
M  V30 39915 C 4011.31 -1.76104 1.09554 0
M  V30 39916 C 4011.74 -1.84839 -0.34876 0
M  V30 39917 O 4011.09 -1.31101 -1.25228 0
M  V30 39918 C 4011.14 -3.16541 1.72725 0
M  V30 39919 O 4010.25 -4.00333 0.990333 0
M  V30 39920 H 4009.59 -0.541759 0.383918 0
M  V30 39921 H 4012.12 -1.22889 1.63583 0
M  V30 39922 H 4012.13 -3.67114 1.7802 0
M  V30 39923 H 4010.8 -3.09499 2.77818 0
M  V30 39924 H 4009.38 -3.58837 1.01442 0
M  V30 39925 N 4011.56 -1.04695 -1.178 0
M  V30 39926 C 4012.97 -0.780953 -1.69582 0
M  V30 39927 C 4013.33 0.697465 -1.83384 0
M  V30 39928 O 4012.45 1.54243 -1.51783 0
M  V30 39929 C 4013.05 -1.41102 -3.08019 0
M  V30 39930 C 4011.6 -1.19319 -3.56987 0
M  V30 39931 C 4010.75 -1.49772 -2.33375 0
M  V30 39932 H 4013.7 -1.21255 -1.02387 0
M  V30 39933 H 4013.72 -0.817605 -3.71612 0
M  V30 39934 H 4013.24 -2.48702 -2.97941 0
M  V30 39935 H 4011.34 -0.136212 -3.72351 0
M  V30 39936 H 4011.45 -1.89463 -4.40046 0
M  V30 39937 H 4009.81 -0.917627 -2.37596 0
M  V30 39938 H 4010.6 -2.58495 -2.2591 0
M  V30 39939 N 4013.04 1.34141 -0.827275 0
M  V30 39940 C 4014.27 2.02903 -0.429549 0
M  V30 39941 C 4014.69 1.61876 0.958005 0
M  V30 39942 O 4014.05 0.805557 1.62421 0
M  V30 39943 C 4014.1 3.56463 -0.544655 0
M  V30 39944 O 4013.2 4.10112 0.433777 0
M  V30 39945 H 4012.54 0.640187 -0.176227 0
M  V30 39946 H 4015.07 1.71295 -1.1189 0
M  V30 39947 H 4015.08 4.05812 -0.42202 0
M  V30 39948 H 4013.76 3.8567 -1.55664 0
M  V30 39949 H 4012.33 3.71924 0.269663 0
M  V30 39950 N 4014.52 0.582635 1.46435 0
M  V30 39951 C 4015.48 -0.140462 2.28769 0
M  V30 39952 C 4016.48 -0.818886 1.38387 0
M  V30 39953 O 4017.67 -0.670854 1.60764 0
M  V30 39954 C 4014.8 -1.20831 3.18768 0
M  V30 39955 H 4016 0.5831 2.94177 0
M  V30 39956 H 4013.55 0.340602 1.52544 0
M  V30 39957 H 4014.29 -1.96345 2.58107 0
M  V30 39958 H 4014.07 -0.726349 3.85314 0
M  V30 39959 H 4015.56 -1.71547 3.80738 0
M  V30 39960 N 4016 -1.54309 0.320412 0
M  V30 39961 C 4017.25 -2.00115 -0.282548 0
M  V30 39962 C 4017.57 -1.21021 -1.52902 0
M  V30 39963 O 4016.84 -0.311197 -1.93412 0
M  V30 39964 H 4015.42 -0.73924 -0.107393 0
M  V30 39965 H 4018.08 -1.89955 0.436229 0
M  V30 39966 H 4017.17 -3.07373 -0.541135 0
M  V30 39967 N 4017.48 -0.0485183 -1.57525 0
M  V30 39968 C 4018.7 0.639027 -1.9731 0
M  V30 39969 C 4019.13 1.6374 -0.925782 0
M  V30 39970 O 4018.48 1.80958 0.111272 0
M  V30 39971 C 4018.53 1.30469 -3.3617 0
M  V30 39972 O 4017.64 2.42032 -3.33907 0
M  V30 39973 H 4016.98 0.16634 -0.642827 0
M  V30 39974 H 4019.51 -0.116131 -2.0427 0
M  V30 39975 H 4019.52 1.65699 -3.72838 0
M  V30 39976 H 4018.19 0.572985 -4.11934 0
M  V30 39977 H 4016.77 2.0877 -3.08982 0
M  V30 39978 N 4018.95 1.55988 0.224839 0
M  V30 39979 C 4020.36 1.69064 0.792108 0
M  V30 39980 C 4020.72 0.649941 1.85122 0
M  V30 39981 O 4019.84 -0.199576 2.15478 0
M  V30 39982 C 4020.44 3.06508 1.44355 0
M  V30 39983 C 4018.99 3.21449 1.95825 0
M  V30 39984 C 4018.14 2.64984 0.817234 0
M  V30 39985 H 4021.09 1.587 0.000242937 0
M  V30 39986 H 4021.11 3.02182 2.31227 0
M  V30 39987 H 4020.63 3.82229 0.672477 0
M  V30 39988 H 4018.73 2.50591 2.75745 0
M  V30 39989 H 4018.84 4.28626 2.14048 0
M  V30 39990 H 4017.2 2.23379 1.22367 0
M  V30 39991 H 4017.99 3.43249 0.0588836 0
M  V30 39992 N 4020.43 -0.491412 1.49743 0
M  V30 39993 C 4021.66 -1.2734 1.63705 0
M  V30 39994 C 4022.08 -1.85493 0.312112 0
M  V30 39995 O 4021.44 -1.66325 -0.721515 0
M  V30 39996 C 4021.49 -2.37258 2.71553 0
M  V30 39997 O 4020.59 -3.41367 2.31393 0
M  V30 39998 H 4019.93 -0.375523 0.547611 0
M  V30 39999 H 4022.46 -0.587208 1.95992 0
M  V30 40000 H 4022.47 -2.82878 2.94014 0
M  V30 40001 H 4021.15 -1.94299 3.67723 0
M  V30 40002 H 4019.72 -3.01599 2.193 0
M  V30 40003 N 4021.91 -1.38978 -0.743153 0
M  V30 40004 C 4022.87 -1.36832 -1.83874 0
M  V30 40005 C 4023.87 -0.266902 -1.58569 0
M  V30 40006 O 4025.06 -0.524367 -1.66121 0
M  V30 40007 C 4022.2 -1.13286 -3.21526 0
M  V30 40008 H 4023.39 -2.34314 -1.87182 0
M  V30 40009 H 4020.94 -1.24424 -0.945957 0
M  V30 40010 H 4021.68 -0.164531 -3.23882 0
M  V30 40011 H 4021.46 -1.9304 -3.41289 0
M  V30 40012 H 4022.95 -1.14505 -4.01595 0
M  V30 40013 N 4023.39 0.972465 -1.2402 0
M  V30 40014 C 4024.8 1.52941 -1.07079 0
M  V30 40015 C 4025.15 1.92881 0.359337 0
M  V30 40016 O 4024.28 1.76851 1.2471 0
M  V30 40017 C 4024.87 2.77927 -1.93758 0
M  V30 40018 C 4023.43 3.29995 -1.81054 0
M  V30 40019 C 4022.58 2.02933 -1.8898 0
M  V30 40020 H 4025.53 0.79128 -1.37566 0
M  V30 40021 H 4025.55 3.51081 -1.46705 0
M  V30 40022 H 4025.06 2.48827 -2.97837 0
M  V30 40023 H 4023.16 3.63957 -0.797889 0
M  V30 40024 H 4023.27 3.99216 -2.64883 0
M  V30 40025 H 4021.64 2.17429 -1.32653 0
M  V30 40026 H 4022.42 1.76204 -2.94631 0
M  V30 40027 N 4024.87 1.05318 1.17243 0
M  V30 40028 C 4026.11 0.762504 1.87164 0
M  V30 40029 C 4026.44 -0.712655 1.81511 0
M  V30 40030 O 4025.71 -1.51502 1.24193 0
M  V30 40031 H 4024.29 0.279066 0.692915 0
M  V30 40032 H 4026.95 1.3326 1.42224 0
M  V30 40033 H 4026.04 1.07859 2.9287 0
M  V30 40034 N 4026.34 -1.33701 0.834377 0
M  V30 40035 C 4027.57 -2.02672 0.440304 0
M  V30 40036 C 4027.99 -1.62382 -0.949407 0
M  V30 40037 O 4027.35 -0.814159 -1.61991 0
M  V30 40038 C 4027.4 -3.56169 0.563552 0
M  V30 40039 O 4026.5 -4.10337 -0.412021 0
M  V30 40040 H 4025.85 -0.639244 0.17962 0
M  V30 40041 H 4028.38 -1.70699 1.12797 0
M  V30 40042 H 4028.39 -4.05582 0.443535 0
M  V30 40043 H 4027.06 -3.84839 1.57707 0
M  V30 40044 H 4025.64 -3.72061 -0.249936 0
M  V30 40045 N 4027.82 -0.590393 -1.46124 0
M  V30 40046 C 4029.05 -0.0828989 -2.07234 0
M  V30 40047 C 4029.47 1.21611 -1.435 0
M  V30 40048 O 4028.83 1.73637 -0.521519 0
M  V30 40049 C 4028.88 0.0613668 -3.60548 0
M  V30 40050 O 4027.98 1.11596 -3.97014 0
M  V30 40051 H 4027.32 -0.066277 -0.660684 0
M  V30 40052 H 4029.85 -0.815519 -1.87644 0
M  V30 40053 H 4029.86 0.26509 -4.07138 0
M  V30 40054 H 4028.54 -0.887236 -4.06326 0
M  V30 40055 H 4027.12 0.890083 -3.62121 0
M  V30 40056 N 4029.3 1.54136 -0.328591 0
M  V30 40057 C 4030.23 2.20765 0.577749 0
M  V30 40058 C 4031.21 1.18644 1.11186 0
M  V30 40059 O 4032.4 1.47403 1.17493 0
M  V30 40060 C 4029.52 2.87331 1.79328 0
M  V30 40061 C 4028.57 4.03215 1.38996 0
M  V30 40062 S 4029.4 5.33831 0.422405 0
M  V30 40063 C 4030.56 6.03893 1.6451 0
M  V30 40064 H 4030.79 2.97298 0.0117804 0
M  V30 40065 H 4028.32 1.53988 -0.11267 0
M  V30 40066 H 4030.28 3.26304 2.4907 0
M  V30 40067 H 4028.94 2.10593 2.33044 0
M  V30 40068 H 4028.14 4.48672 2.29585 0
M  V30 40069 H 4027.74 3.65942 0.772185 0
M  V30 40070 H 4030.03 6.26378 2.58181 0
M  V30 40071 H 4030.97 6.97289 1.2326 0
M  V30 40072 H 4031.38 5.33865 1.83436 0
M  V30 40073 N 4030.78 0.0568716 1.57497 0
M  V30 40074 C 4032.19 -0.477996 1.80477 0
M  V30 40075 C 4032.54 -1.70568 0.969579 0
M  V30 40076 O 4031.67 -2.15584 0.187794 0
M  V30 40077 C 4032.26 -0.873955 3.27334 0
M  V30 40078 C 4030.82 -1.35377 3.51212 0
M  V30 40079 C 4029.97 -0.331704 2.75309 0
M  V30 40080 H 4032.92 0.282705 1.56162 0
M  V30 40081 H 4032.94 -1.73647 3.38566 0
M  V30 40082 H 4032.45 0.0197692 3.88095 0
M  V30 40083 H 4030.55 -2.26649 2.95738 0
M  V30 40084 H 4030.66 -1.342 4.59921 0
M  V30 40085 H 4029.03 -0.805808 2.41617 0
M  V30 40086 H 4029.81 0.554035 3.388 0
M  V30 40087 N 4032.26 -1.56105 -0.216564 0
M  V30 40088 C 4033.51 -1.78547 -0.938289 0
M  V30 40089 C 4033.82 -0.626322 -1.85301 0
M  V30 40090 O 4035.02 -0.734497 -2.61376 0
M  V30 40091 C 4033.48 -3.16212 -1.71866 0
M  V30 40092 C 4033.09 -4.39866 -0.849826 0
M  V30 40093 C 4034.83 -3.47977 -2.4313 0
M  V30 40094 C 4032.74 -5.68556 -1.62783 0
M  V30 40095 H 4031.67 -0.665687 -0.354086 0
M  V30 40096 H 4034.32 -1.82492 -0.192047 0
M  V30 40097 H 4032.7 -3.06457 -2.50799 0
M  V30 40098 H 4033.88 -4.6069 -0.100676 0
M  V30 40099 H 4032.19 -4.15654 -0.249066 0
M  V30 40100 H 4034.79 -4.41352 -3.01848 0
M  V30 40101 H 4035.13 -2.7071 -3.16263 0
M  V30 40102 H 4035.66 -3.59084 -1.71182 0
M  V30 40103 H 4032.4 -6.4873 -0.939687 0
M  V30 40104 H 4031.92 -5.51785 -2.35147 0
M  V30 40105 H 4033.6 -6.08909 -2.18722 0
M  V30 40106 N 4033.73 0.483463 -1.50001 0
M  V30 40107 C 4035.15 0.816167 -1.37153 0
M  V30 40108 C 4035.35 1.97115 -0.418081 0
M  V30 40109 O 4034.41 2.5209 0.14384 0
M  V30 40110 C 4035.72 1.13987 -2.78258 0
M  V30 40111 C 4037.27 1.24705 -2.87085 0
M  V30 40112 C 4037.74 1.60395 -4.28996 0
M  V30 40113 N 4039.23 1.67411 -4.31889 0
M  V30 40114 C 4039.97 1.96506 -5.38677 0
M  V30 40115 N 4039.46 2.23706 -6.55689 0
M  V30 40116 N 4041.26 1.97905 -5.26108 0
M  V30 40117 H 4033.41 -0.277884 -2.10574 0
M  V30 40118 H 4035.67 -0.061772 -0.945985 0
M  V30 40119 H 4035.38 0.364387 -3.49807 0
M  V30 40120 H 4035.25 2.0791 -3.14727 0
M  V30 40121 H 4037.64 2.01323 -2.15762 0
M  V30 40122 H 4037.72 0.287914 -2.54175 0
M  V30 40123 H 4037.36 0.843222 -5.00851 0
M  V30 40124 H 4037.29 2.57439 -4.59383 0
M  V30 40125 H 4039.78 1.48481 -3.47508 0
M  V30 40126 H 4040.1 2.45145 -7.32887 0
M  V30 40127 H 4038.44 2.21125 -6.58885 0
M  V30 40128 H 4041.63 1.76143 -4.33695 0
M  V30 40129 H 4041.81 2.20245 -6.09423 0
M  V30 40130 N 4035.21 1.39371 0.735772 0
M  V30 40131 C 4036.46 1.35864 1.49077 0
M  V30 40132 C 4036.77 -0.0429128 1.95553 0
M  V30 40133 O 4037.98 -0.200566 2.70758 0
M  V30 40134 C 4036.44 2.38678 2.69371 0
M  V30 40135 C 4036.04 3.84544 2.29847 0
M  V30 40136 C 4037.79 2.44246 3.47195 0
M  V30 40137 C 4035.7 4.79002 3.46859 0
M  V30 40138 H 4034.63 0.505096 0.559816 0
M  V30 40139 H 4037.28 1.65013 0.802681 0
M  V30 40140 H 4035.66 2.02598 3.4025 0
M  V30 40141 H 4036.83 4.2966 1.66519 0
M  V30 40142 H 4035.15 3.82264 1.65116 0
M  V30 40143 H 4037.74 3.12009 4.34228 0
M  V30 40144 H 4038.09 1.46675 3.89605 0
M  V30 40145 H 4038.62 2.79215 2.83344 0
M  V30 40146 H 4035.36 5.77832 3.095 0
M  V30 40147 H 4034.88 4.38565 4.0917 0
M  V30 40148 H 4036.56 4.97867 4.13204 0
M  V30 40149 N 4036.69 -0.965875 1.24534 0
M  V30 40150 C 4037.6 -2.09468 1.05643 0
M  V30 40151 C 4038.62 -1.74 -0.00327904 0
M  V30 40152 O 4039.79 -2.00451 0.195283 0
M  V30 40153 C 4036.86 -3.40255 0.665378 0
M  V30 40154 C 4035.92 -3.8966 1.80177 0
M  V30 40155 C 4035.15 -5.14205 1.42928 0
M  V30 40156 O 4035.38 -5.69502 0.319915 0
M  V30 40157 O 4034.31 -5.5804 2.25556 0
M  V30 40158 H 4038.14 -2.283 2.00281 0
M  V30 40159 H 4035.72 -1.07866 1.0337 0
M  V30 40160 H 4037.6 -4.18894 0.458901 0
M  V30 40161 H 4036.28 -3.22719 -0.251857 0
M  V30 40162 H 4035.18 -3.12074 2.06302 0
M  V30 40163 H 4036.52 -4.11676 2.69785 0
M  V30 40164 N 4038.17 -1.05938 -1.16683 0
M  V30 40165 C 4039.39 -0.794591 -1.91575 0
M  V30 40166 C 4039.82 0.644687 -1.76707 0
M  V30 40167 O 4039.18 1.4488 -1.08993 0
M  V30 40168 C 4039.23 -1.18953 -3.40415 0
M  V30 40169 O 4038.33 -0.326164 -4.11108 0
M  V30 40170 H 4037.67 -0.290712 -0.596978 0
M  V30 40171 H 4040.2 -1.41423 -1.47854 0
M  V30 40172 H 4040.21 -1.15954 -3.91176 0
M  V30 40173 H 4038.89 -2.23792 -3.50556 0
M  V30 40174 H 4037.46 -0.417412 -3.70556 0
M  V30 40175 N 4039.65 1.33256 -0.841456 0
M  V30 40176 C 4040.87 2.02436 -0.451046 0
M  V30 40177 C 4041.3 1.62883 0.940782 0
M  V30 40178 O 4040.66 0.822738 1.61557 0
M  V30 40179 C 4040.7 3.55865 -0.582432 0
M  V30 40180 O 4039.81 4.10549 0.390254 0
M  V30 40181 H 4039.15 0.638282 -0.183008 0
M  V30 40182 H 4041.68 1.70098 -1.137 0
M  V30 40183 H 4041.69 4.05341 -0.465038 0
M  V30 40184 H 4040.36 3.83998 -1.59745 0
M  V30 40185 H 4038.94 3.72189 0.230201 0
M  V30 40186 N 4041.13 0.598134 1.45809 0
M  V30 40187 C 4042.35 0.0938879 2.07187 0
M  V30 40188 C 4042.78 -1.20848 1.44143 0
M  V30 40189 O 4042.13 -1.73358 0.53072 0
M  V30 40190 C 4042.18 -0.0422452 3.60575 0
M  V30 40191 O 4041.29 -1.09489 3.976 0
M  V30 40192 H 4040.63 0.0697798 0.660323 0
M  V30 40193 H 4043.16 0.825459 1.87209 0
M  V30 40194 H 4043.17 -0.243495 4.07273 0
M  V30 40195 H 4041.84 0.908772 4.0585 0
M  V30 40196 H 4040.42 -0.870866 3.62588 0
M  V30 40197 N 4042.6 -1.5396 0.33676 0
M  V30 40198 C 4043.83 -2.05686 -0.266104 0
M  V30 40199 C 4044.25 -1.21053 -1.43971 0
M  V30 40200 O 4043.61 -0.222684 -1.79927 0
M  V30 40201 C 4043.66 -3.54403 -0.665648 0
M  V30 40202 O 4042.76 -3.72651 -1.76649 0
M  V30 40203 H 4042.1 -0.662436 -0.0455539 0
M  V30 40204 H 4044.63 -1.9867 0.489004 0
M  V30 40205 H 4044.64 -3.96913 -0.944678 0
M  V30 40206 H 4043.32 -4.15454 0.192662 0
M  V30 40207 H 4041.9 -3.42045 -1.48525 0
M  V30 40208 N 4044.08 -0.0652232 -1.57465 0
M  V30 40209 C 4045.03 0.914269 -2.08866 0
M  V30 40210 C 4046.02 1.26297 -0.996886 0
M  V30 40211 O 4047.21 1.24305 -1.26005 0
M  V30 40212 C 4044.34 2.18418 -2.64856 0
M  V30 40213 C 4043.42 1.86225 -3.81026 0
M  V30 40214 N 4043.81 1.24452 -4.9025 0
M  V30 40215 C 4042.11 2.16013 -3.90198 0
M  V30 40216 C 4042.81 1.10204 -5.71166 0
M  V30 40217 N 4041.79 1.60958 -5.19224 0
M  V30 40218 H 4045.59 0.432231 -2.90704 0
M  V30 40219 H 4043.1 0.138849 -1.61805 0
M  V30 40220 H 4045.1 2.895 -2.99992 0
M  V30 40221 H 4043.76 2.67215 -1.84462 0
M  V30 40222 H 4044.77 0.914977 -5.09753 0
M  V30 40223 H 4041.45 2.67234 -3.20769 0
M  V30 40224 H 4042.84 0.62131 -6.69021 0
M  V30 40225 N 4045.56 1.56218 0.208282 0
M  V30 40226 C 4046.81 1.80112 0.932072 0
M  V30 40227 C 4047.14 0.637094 1.83452 0
M  V30 40228 O 4046.41 -0.363033 1.91082 0
M  V30 40229 C 4046.7 3.14179 1.75964 0
M  V30 40230 C 4046.55 4.41052 0.882796 0
M  V30 40231 C 4047.87 3.4481 2.73484 0
M  V30 40232 H 4044.99 0.655224 0.337417 0
M  V30 40233 H 4047.63 1.88943 0.200166 0
M  V30 40234 H 4045.78 3.06782 2.38364 0
M  V30 40235 H 4047.45 4.60482 0.274526 0
M  V30 40236 H 4045.69 4.33389 0.188845 0
M  V30 40237 H 4046.37 5.31327 1.49653 0
M  V30 40238 H 4048.84 3.52422 2.21219 0
M  V30 40239 H 4047.72 4.39763 3.28481 0
M  V30 40240 H 4047.98 2.67641 3.51882 0
M  V30 40241 N 4047.04 -0.475502 1.50256 0
M  V30 40242 C 4048 -1.55642 1.6825 0
M  V30 40243 C 4049 -1.50979 0.553352 0
M  V30 40244 O 4050.19 -1.53677 0.820301 0
M  V30 40245 C 4047.32 -2.95278 1.70364 0
M  V30 40246 H 4048.52 -1.41006 2.64684 0
M  V30 40247 H 4046.07 -0.70157 1.3967 0
M  V30 40248 H 4046.8 -3.15363 0.756075 0
M  V30 40249 H 4046.59 -3.0007 2.5239 0
M  V30 40250 H 4048.08 -3.73763 1.86255 0
M  V30 40251 N 4048.52 -1.39759 -0.72837 0
M  V30 40252 C 4049.43 -1.41296 -1.87276 0
M  V30 40253 C 4050.44 -0.306995 -1.7127 0
M  V30 40254 O 4051.62 -0.549536 -1.93758 0
M  V30 40255 C 4048.68 -1.26135 -3.22941 0
M  V30 40256 C 4047.74 -2.46763 -3.51293 0
M  V30 40257 C 4046.98 -2.32315 -4.80484 0
M  V30 40258 O 4047.2 -1.33015 -5.54674 0
M  V30 40259 O 4046.13 -3.21434 -5.08885 0
M  V30 40260 H 4049.96 -2.37776 -1.88935 0
M  V30 40261 H 4047.54 -1.20945 -0.877082 0
M  V30 40262 H 4049.43 -1.19839 -4.04001 0
M  V30 40263 H 4048.1 -0.327549 -3.22039 0
M  V30 40264 H 4047.01 -2.58636 -2.70293 0
M  V30 40265 H 4048.34 -3.3886 -3.5698 0
M  V30 40266 N 4049.99 0.959257 -1.25044 0
M  V30 40267 C 4051.24 1.69993 -1.09301 0
M  V30 40268 C 4051.56 1.91506 0.367473 0
M  V30 40269 O 4050.83 1.49885 1.26139 0
M  V30 40270 H 4049.41 0.629938 -0.40148 0
M  V30 40271 H 4052.07 1.15356 -1.57096 0
M  V30 40272 H 4051.17 2.68104 -1.5977 0
M  V30 40273 N 4051.47 1.06556 1.16119 0
M  V30 40274 C 4052.38 0.689872 2.24227 0
M  V30 40275 C 4053.4 -0.295277 1.71476 0
M  V30 40276 O 4054.57 -0.143928 2.00885 0
M  V30 40277 C 4051.64 0.0848467 3.46596 0
M  V30 40278 C 4050.7 1.1222 4.14373 0
M  V30 40279 C 4049.93 0.545953 5.309 0
M  V30 40280 O 4050.16 -0.640488 5.66793 0
M  V30 40281 O 4049.09 1.28693 5.87981 0
M  V30 40282 H 4052.92 1.59122 2.58677 0
M  V30 40283 H 4050.5 0.837988 1.23686 0
M  V30 40284 H 4052.38 -0.25069 4.20654 0
M  V30 40285 H 4051.06 -0.789943 3.13913 0
M  V30 40286 H 4049.97 1.50996 3.42273 0
M  V30 40287 H 4051.3 1.96861 4.51117 0
M  V30 40288 N 4052.95 -1.32808 0.848511 0
M  V30 40289 C 4054.18 -2.0166 0.462679 0
M  V30 40290 C 4054.59 -1.638 -0.938877 0
M  V30 40291 O 4053.95 -0.856198 -1.61169 0
M  V30 40292 C 4054 -3.56736 0.584968 0
M  V30 40293 O 4053.72 -3.93233 1.93131 0
M  V30 40294 C 4055.22 -4.42861 0.197343 0
M  V30 40295 H 4052.44 -0.64569 0.182551 0
M  V30 40296 H 4054.99 -1.69525 1.14375 0
M  V30 40297 H 4053.14 -3.8737 -0.048302 0
M  V30 40298 H 4053.56 -4.87949 1.92369 0
M  V30 40299 H 4055.03 -5.50989 0.333929 0
M  V30 40300 H 4055.51 -4.30665 -0.861657 0
M  V30 40301 H 4056.11 -4.17604 0.805436 0
M  V30 40302 N 4054.43 -0.605858 -1.45489 0
M  V30 40303 C 4055.36 0.101336 -2.3328 0
M  V30 40304 C 4056.34 0.860517 -1.46728 0
M  V30 40305 O 4057.52 0.83141 -1.75503 0
M  V30 40306 C 4054.65 1.10044 -3.29405 0
M  V30 40307 C 4053.61 0.454585 -4.25579 0
M  V30 40308 C 4052.93 1.56181 -5.11382 0
M  V30 40309 C 4054.23 -0.623119 -5.1857 0
M  V30 40310 H 4055.93 -0.631704 -2.9266 0
M  V30 40311 H 4053.47 -0.305233 -1.40728 0
M  V30 40312 H 4055.43 1.60372 -3.89691 0
M  V30 40313 H 4054.15 1.86405 -2.6818 0
M  V30 40314 H 4052.81 -0.0278164 -3.66589 0
M  V30 40315 H 4052.46 2.31566 -4.46527 0
M  V30 40316 H 4052.16 1.13518 -5.7653 0
M  V30 40317 H 4053.68 2.0674 -5.74535 0
M  V30 40318 H 4055.1 -0.203981 -5.72937 0
M  V30 40319 H 4053.49 -0.971396 -5.92186 0
M  V30 40320 H 4054.56 -1.5004 -4.61103 0
M  V30 40321 N 4055.91 1.53779 -0.34492 0
M  V30 40322 C 4057.18 1.93183 0.30652 0
M  V30 40323 C 4057.56 1.27661 1.68125 0
M  V30 40324 O 4056.91 0.428042 2.24455 0
M  V30 40325 C 4057.12 3.46953 0.377423 0
M  V30 40326 C 4058.47 4.19936 0.627611 0
M  V30 40327 O 4059.49 3.53224 0.459482 0
M  V30 40328 O 4058.35 5.38119 0.953416 0
M  V30 40329 H 4055.45 0.807363 0.179149 0
M  V30 40330 H 4057.99 1.6501 -0.396197 0
M  V30 40331 H 4056.76 3.86868 -0.587243 0
M  V30 40332 H 4056.39 3.81297 1.12687 0
M  V30 40333 N 4057.38 0.0735731 1.57428 0
M  V30 40334 C 4058.31 -0.890546 2.15851 0
M  V30 40335 C 4059.3 -1.30918 1.08602 0
M  V30 40336 O 4060.48 -1.37992 1.36645 0
M  V30 40337 C 4057.61 -2.1575 2.72157 0
M  V30 40338 C 4056.56 -1.87821 3.84587 0
M  V30 40339 C 4055.89 -3.21161 4.27504 0
M  V30 40340 C 4057.19 -1.18208 5.08748 0
M  V30 40341 H 4058.88 -0.403852 2.96664 0
M  V30 40342 H 4056.43 -0.192811 1.42703 0
M  V30 40343 H 4058.38 -2.83615 3.11673 0
M  V30 40344 H 4057.11 -2.66665 1.88567 0
M  V30 40345 H 4055.77 -1.2236 3.45577 0
M  V30 40346 H 4055.41 -3.69921 3.40834 0
M  V30 40347 H 4055.11 -3.03264 5.03294 0
M  V30 40348 H 4056.64 -3.90221 4.69638 0
M  V30 40349 H 4058.05 -1.76145 5.45569 0
M  V30 40350 H 4056.45 -1.10563 5.89827 0
M  V30 40351 H 4057.52 -0.16144 4.84631 0
M  V30 40352 N 4058.86 -1.56326 -0.199995 0
M  V30 40353 C 4059.81 -1.95039 -1.26739 0
M  V30 40354 C 4060.8 -0.835169 -1.47381 0
M  V30 40355 O 4062.01 -1.02015 -1.483 0
M  V30 40356 H 4058.39 -0.620124 -0.425382 0
M  V30 40357 H 4060.36 -2.84063 -0.913827 0
M  V30 40358 C 4059.11 -2.30195 -2.60587 0
M  V30 40359 H 4058.43 -3.15534 -2.45517 0
M  V30 40360 H 4059.87 -2.6115 -3.34031 0
M  V30 40361 C 4058.33 -1.1348 -3.17213 0
M  V30 40362 O 4058.86 -0.407238 -3.9963 0
M  V30 40363 N 4057.06 -0.912897 -2.75889 0
M  V30 40364 H 4056.61 -1.50628 -2.08971 0
M  V30 40365 H 4056.57 -0.133746 -3.14115 0
M  V30 40366 N 4060.34 0.467527 -1.50506 0
M  V30 40367 C 4061.58 1.22915 -1.63313 0
M  V30 40368 C 4061.94 1.8918 -0.327875 0
M  V30 40369 O 4063.15 2.66749 -0.331417 0
M  V30 40370 C 4061.42 2.24226 -2.78311 0
M  V30 40371 S 4062.98 3.0928 -3.11273 0
M  V30 40372 H 4059.79 0.417264 -0.575684 0
M  V30 40373 H 4062.4 0.525579 -1.88303 0
M  V30 40374 H 4061.1 1.74132 -3.71626 0
M  V30 40375 H 4060.63 2.99207 -2.55418 0
M  V30 40376 H 4062.65 4.2544 -2.55374 0
M  V30 40377 N 4061.82 1.40143 0.720948 0
M  V30 40378 C 4063.06 1.38335 1.48294 0
M  V30 40379 C 4063.4 -0.016185 1.94193 0
M  V30 40380 O 4062.67 -0.983823 1.67783 0
M  V30 40381 C 4062.96 2.36812 2.71279 0
M  V30 40382 C 4062.81 3.85767 2.31309 0
M  V30 40383 C 4064.13 2.32904 3.73422 0
M  V30 40384 H 4061.25 0.503803 0.537914 0
M  V30 40385 H 4063.89 1.71239 0.823235 0
M  V30 40386 H 4062.04 2.08883 3.27567 0
M  V30 40387 H 4063.71 4.24502 1.80544 0
M  V30 40388 H 4061.95 4.01861 1.63372 0
M  V30 40389 H 4062.62 4.50179 3.19441 0
M  V30 40390 H 4065.1 2.5763 3.2675 0
M  V30 40391 H 4063.98 3.03864 4.57119 0
M  V30 40392 H 4064.24 1.33883 4.2134 0
M  V30 40393 N 4063.3 -0.952612 1.25551 0
M  V30 40394 C 4064.54 -1.69998 1.10583 0
M  V30 40395 C 4064.88 -1.90983 -0.352027 0
M  V30 40396 O 4064.15 -1.48224 -1.25936 0
M  V30 40397 C 4064.43 -3.0817 1.86289 0
M  V30 40398 C 4064.29 -2.94582 3.39914 0
M  V30 40399 C 4065.61 -4.08095 1.64762 0
M  V30 40400 H 4062.72 -0.616989 0.403105 0
M  V30 40401 H 4065.37 -1.10717 1.54408 0
M  V30 40402 H 4063.52 -3.58775 1.4904 0
M  V30 40403 H 4065.19 -2.51287 3.8685 0
M  V30 40404 H 4063.43 -2.30456 3.67522 0
M  V30 40405 H 4064.1 -3.92532 3.88101 0
M  V30 40406 H 4066.58 -3.66407 1.97193 0
M  V30 40407 H 4065.45 -5.0281 2.20166 0
M  V30 40408 H 4065.72 -4.38153 0.589425 0
M  V30 40409 N 4064.77 -1.0717 -1.15553 0
M  V30 40410 C 4066.19 -0.816748 -1.67887 0
M  V30 40411 C 4066.54 0.658409 -1.84823 0
M  V30 40412 O 4065.66 1.50988 -1.55021 0
M  V30 40413 C 4066.26 -1.47604 -3.04957 0
M  V30 40414 C 4064.82 -1.26864 -3.54376 0
M  V30 40415 C 4063.96 -1.54688 -2.30145 0
M  V30 40416 H 4066.91 -1.23399 -0.997917 0
M  V30 40417 H 4066.93 -0.896245 -3.69794 0
M  V30 40418 H 4066.45 -2.54966 -2.92599 0
M  V30 40419 H 4064.55 -0.215162 -3.71978 0
M  V30 40420 H 4064.66 -1.98755 -4.35928 0
M  V30 40421 H 4063.02 -0.967818 -2.35596 0
M  V30 40422 H 4063.81 -2.63229 -2.20376 0
M  V30 40423 N 4066.25 1.32356 -0.855542 0
M  V30 40424 C 4067.5 1.96832 -0.458449 0
M  V30 40425 C 4067.82 1.68034 0.989431 0
M  V30 40426 O 4067.09 0.988025 1.69159 0
M  V30 40427 H 4065.67 0.728199 -0.16654 0
M  V30 40428 H 4068.33 1.61424 -1.09216 0
M  V30 40429 H 4067.43 3.06195 -0.604239 0
M  V30 40430 N 4067.73 0.613565 1.45166 0
M  V30 40431 C 4068.66 -0.139975 2.28772 0
M  V30 40432 C 4069.68 -0.825969 1.40291 0
M  V30 40433 O 4070.87 -0.690356 1.6461 0
M  V30 40434 C 4067.97 -1.21954 3.16197 0
M  V30 40435 C 4067.14 -0.619495 4.32991 0
M  V30 40436 C 4066.2 -1.59072 5.0158 0
M  V30 40437 O 4065.22 -1.11469 5.58178 0
M  V30 40438 N 4066.43 -2.92514 5.01414 0
M  V30 40439 H 4069.19 0.577457 2.94084 0
M  V30 40440 H 4066.75 0.453471 1.5542 0
M  V30 40441 H 4068.74 -1.86921 3.58946 0
M  V30 40442 H 4067.31 -1.83942 2.52753 0
M  V30 40443 H 4066.53 0.208399 3.93649 0
M  V30 40444 H 4067.82 -0.198936 5.08411 0
M  V30 40445 H 4067.22 -3.33786 4.56731 0
M  V30 40446 H 4065.78 -3.52889 5.48008 0
M  V30 40447 N 4069.21 -1.53594 0.353071 0
M  V30 40448 C 4070.17 -2.23969 -0.486871 0
M  V30 40449 C 4071.17 -1.24317 -1.01989 0
M  V30 40450 O 4072.36 -1.48687 -0.907627 0
M  V30 40451 C 4069.49 -2.96674 -1.67921 0
M  V30 40452 H 4070.69 -2.99623 0.128759 0
M  V30 40453 H 4068.24 -1.5595 0.104561 0
M  V30 40454 H 4068.98 -2.25231 -2.33327 0
M  V30 40455 H 4068.76 -3.69778 -1.3041 0
M  V30 40456 H 4070.25 -3.50207 -2.27474 0
M  V30 40457 N 4070.69 -0.0819208 -1.57387 0
M  V30 40458 C 4071.64 0.892064 -2.09824 0
M  V30 40459 C 4072.62 1.25233 -1.01023 0
M  V30 40460 O 4073.81 1.22961 -1.27317 0
M  V30 40461 C 4070.94 2.15597 -2.67157 0
M  V30 40462 C 4070.03 1.82173 -3.8298 0
M  V30 40463 N 4070.42 1.19245 -4.91543 0
M  V30 40464 C 4068.72 2.11863 -3.92467 0
M  V30 40465 C 4069.42 1.04139 -5.72302 0
M  V30 40466 N 4068.39 1.55442 -5.20902 0
M  V30 40467 H 4072.2 0.401374 -2.91146 0
M  V30 40468 H 4069.71 0.12168 -1.61944 0
M  V30 40469 H 4071.71 2.86302 -3.03045 0
M  V30 40470 H 4070.37 2.65244 -1.87285 0
M  V30 40471 H 4071.38 0.86086 -5.10695 0
M  V30 40472 H 4068.06 2.63816 -3.23585 0
M  V30 40473 H 4069.45 0.550316 -6.69643 0
M  V30 40474 N 4072.17 1.5643 0.191702 0
M  V30 40475 C 4073.13 1.93954 1.22124 0
M  V30 40476 C 4074.13 0.821009 1.38261 0
M  V30 40477 O 4075.32 1.08838 1.36015 0
M  V30 40478 C 4072.45 2.21655 2.59001 0
M  V30 40479 H 4073.64 2.86064 0.900408 0
M  V30 40480 H 4071.2 1.50172 0.433356 0
M  V30 40481 H 4071.93 1.32194 2.96134 0
M  V30 40482 H 4071.72 3.03168 2.4866 0
M  V30 40483 H 4073.21 2.51679 3.33237 0
M  V30 40484 N 4073.64 -0.459538 1.50751 0
M  V30 40485 C 4074.58 -1.57382 1.66624 0
M  V30 40486 C 4075.59 -1.53322 0.547385 0
M  V30 40487 O 4076.78 -1.585 0.820969 0
M  V30 40488 C 4073.88 -2.96282 1.64529 0
M  V30 40489 C 4073.05 -3.25088 2.92637 0
M  V30 40490 C 4072.11 -4.436 2.83029 0
M  V30 40491 O 4071.14 -4.43341 3.56984 0
M  V30 40492 N 4072.34 -5.45918 1.97368 0
M  V30 40493 H 4075.1 -1.44179 2.6274 0
M  V30 40494 H 4072.66 -0.648144 1.4836 0
M  V30 40495 H 4074.66 -3.7355 1.55699 0
M  V30 40496 H 4073.23 -3.03196 0.760998 0
M  V30 40497 H 4072.45 -2.36325 3.15506 0
M  V30 40498 H 4073.73 -3.41151 3.77483 0
M  V30 40499 H 4073.13 -5.48956 1.36617 0
M  V30 40500 H 4071.69 -6.22125 1.94433 0
M  V30 40501 N 4075.12 -1.40523 -0.713506 0
M  V30 40502 C 4076.37 -1.3912 -1.47559 0
M  V30 40503 C 4076.7 0.00588625 -1.94199 0
M  V30 40504 O 4075.98 0.974912 -1.68302 0
M  V30 40505 C 4076.26 -2.38247 -2.70019 0
M  V30 40506 C 4076.11 -3.86988 -2.2926 0
M  V30 40507 C 4077.43 -2.34881 -3.72181 0
M  V30 40508 H 4074.55 -0.506649 -0.535234 0
M  V30 40509 H 4077.19 -1.71673 -0.814142 0
M  V30 40510 H 4075.34 -2.10617 -3.26455 0
M  V30 40511 H 4077.01 -4.25453 -1.7829 0
M  V30 40512 H 4075.26 -4.02721 -1.61239 0
M  V30 40513 H 4075.93 -4.51867 -3.17049 0
M  V30 40514 H 4078.4 -2.59359 -3.2538 0
M  V30 40515 H 4077.28 -3.06284 -4.55501 0
M  V30 40516 H 4077.54 -1.36116 -4.20624 0
M  V30 40517 N 4076.6 0.94594 -1.26054 0
M  V30 40518 C 4077.83 1.72606 -1.14082 0
M  V30 40519 C 4078.24 1.86329 0.304473 0
M  V30 40520 O 4077.6 1.36725 1.20882 0
M  V30 40521 C 4077.65 3.13532 -1.79944 0
M  V30 40522 O 4077.37 3.00471 -3.18824 0
M  V30 40523 C 4078.87 4.07782 -1.73864 0
M  V30 40524 H 4076.09 0.540591 -0.397495 0
M  V30 40525 H 4078.64 1.18617 -1.66584 0
M  V30 40526 H 4076.79 3.64438 -1.31391 0
M  V30 40527 H 4077.21 3.89433 -3.51344 0
M  V30 40528 H 4078.68 5.04244 -2.24592 0
M  V30 40529 H 4079.16 4.33518 -0.704171 0
M  V30 40530 H 4079.76 3.62795 -2.21945 0
M  V30 40531 N 4078.08 1.07781 1.14983 0
M  V30 40532 C 4079.32 0.814653 1.86373 0
M  V30 40533 C 4079.68 -0.652353 1.81003 0
M  V30 40534 O 4078.97 -1.47297 1.22533 0
M  V30 40535 C 4079.17 1.26265 3.34353 0
M  V30 40536 C 4078.99 2.77166 3.54131 0
M  V30 40537 C 4077.76 3.44832 3.6935 0
M  V30 40538 C 4079.96 3.75355 3.51587 0
M  V30 40539 N 4077.94 4.8433 3.77223 0
M  V30 40540 C 4079.32 5.00716 3.65628 0
M  V30 40541 C 4081.37 3.6845 3.34887 0
M  V30 40542 C 4080.07 6.19993 3.64694 0
M  V30 40543 C 4082.1 4.87195 3.35253 0
M  V30 40544 C 4081.46 6.11392 3.49828 0
M  V30 40545 H 4077.56 0.350724 0.69894 0
M  V30 40546 H 4080.14 1.37492 1.37855 0
M  V30 40547 H 4078.32 0.730025 3.81478 0
M  V30 40548 H 4080.05 0.946572 3.93474 0
M  V30 40549 H 4076.8 2.95242 3.7031 0
M  V30 40550 H 4077.23 5.56944 3.84893 0
M  V30 40551 H 4081.87 2.7337 3.22534 0
M  V30 40552 H 4079.59 7.15389 3.75824 0
M  V30 40553 H 4083.17 4.83534 3.23553 0
M  V30 40554 H 4082.05 7.01737 3.5005 0
M  V30 40555 N 4079.56 -1.31901 0.862549 0
M  V30 40556 C 4080.51 -2.26217 0.28457 0
M  V30 40557 C 4081.49 -1.50308 -0.574124 0
M  V30 40558 O 4082.68 -1.7189 -0.422216 0
M  V30 40559 C 4079.81 -3.39349 -0.519341 0
M  V30 40560 C 4078.9 -4.22635 0.352182 0
M  V30 40561 N 4079.29 -4.84804 1.44217 0
M  V30 40562 C 4077.59 -4.4577 0.143311 0
M  V30 40563 C 4078.29 -5.47002 1.97899 0
M  V30 40564 N 4077.26 -5.28387 1.27703 0
M  V30 40565 H 4081.06 -2.71815 1.11775 0
M  V30 40566 H 4078.58 -1.46081 0.709509 0
M  V30 40567 H 4080.58 -4.05935 -0.949878 0
M  V30 40568 H 4079.24 -2.95295 -1.35022 0
M  V30 40569 H 4080.25 -4.84676 1.8251 0
M  V30 40570 H 4076.92 -4.12374 -0.652217 0
M  V30 40571 H 4078.31 -6.06424 2.89308 0
M  V30 40572 N 4081.03 -0.621255 -1.44838 0
M  V30 40573 C 4081.98 0.0895411 -2.30626 0
M  V30 40574 C 4082.95 0.846568 -1.42907 0
M  V30 40575 O 4084.14 0.82958 -1.71821 0
M  V30 40576 C 4081.28 1.07182 -3.28034 0
M  V30 40577 C 4080.39 0.314243 -4.30856 0
M  V30 40578 C 4079.52 1.28746 -5.15362 0
M  V30 40579 C 4078.56 0.518474 -6.099 0
M  V30 40580 N 4077.7 1.44166 -6.8714 0
M  V30 40581 H 4082.54 -0.647981 -2.9087 0
M  V30 40582 H 4080.08 -0.331335 -1.4332 0
M  V30 40583 H 4082.04 1.6546 -3.82987 0
M  V30 40584 H 4080.67 1.77659 -2.69513 0
M  V30 40585 H 4079.72 -0.384286 -3.78454 0
M  V30 40586 H 4081.03 -0.28513 -4.97984 0
M  V30 40587 H 4080.18 1.94188 -5.74783 0
M  V30 40588 H 4078.92 1.92076 -4.48284 0
M  V30 40589 H 4077.93 -0.149496 -5.49597 0
M  V30 40590 H 4079.15 -0.109971 -6.79011 0
M  V30 40591 H 4077.1 2.06235 -6.22739 0
M  V30 40592 H 4077.02 0.89606 -7.50671 0
M  V30 40593 H 4078.28 2.08522 -7.51092 0
M  V30 40594 N 4082.51 1.53405 -0.361211 0
M  V30 40595 C 4083.93 1.59597 -0.0099759 0
M  V30 40596 C 4084.13 1.37652 1.47154 0
M  V30 40597 O 4083.18 1.17951 2.23257 0
M  V30 40598 C 4084.5 2.9713 -0.461994 0
M  V30 40599 C 4086.05 3.10225 -0.415841 0
M  V30 40600 C 4086.52 4.50164 -0.843603 0
M  V30 40601 N 4088.01 4.56266 -0.798488 0
M  V30 40602 C 4088.75 5.62726 -1.10121 0
M  V30 40603 N 4088.24 6.7696 -1.473 0
M  V30 40604 N 4090.04 5.52689 -1.0243 0
M  V30 40605 H 4082.19 1.65922 -1.32604 0
M  V30 40606 H 4084.45 0.777975 -0.541718 0
M  V30 40607 H 4084.16 3.18313 -1.49564 0
M  V30 40608 H 4084.03 3.76887 0.153664 0
M  V30 40609 H 4086.42 2.88755 0.608668 0
M  V30 40610 H 4086.5 2.32487 -1.06694 0
M  V30 40611 H 4086.14 4.72372 -1.86621 0
M  V30 40612 H 4086.07 5.26326 -0.169802 0
M  V30 40613 H 4088.56 3.74242 -0.524529 0
M  V30 40614 H 4088.88 7.54131 -1.68837 0
M  V30 40615 H 4087.22 6.78362 -1.51161 0
M  V30 40616 H 4090.41 4.62324 -0.73306 0
M  V30 40617 H 4090.58 6.35561 -1.26356 0
M  V30 40618 N 4083.99 0.0902663 1.57341 0
M  V30 40619 C 4085.24 -0.57344 1.93794 0
M  V30 40620 C 4085.56 -1.69021 0.972473 0
M  V30 40621 O 4084.83 -1.95886 0.0237097 0
M  V30 40622 H 4083.41 -0.214818 0.715445 0
M  V30 40623 H 4086.07 0.152464 1.94303 0
M  V30 40624 H 4085.17 -0.986777 2.9609 0
M  V30 40625 N 4085.47 -1.56529 -0.183403 0
M  V30 40626 C 4086.72 -1.80945 -0.900182 0
M  V30 40627 C 4087.04 -0.665278 -1.833 0
M  V30 40628 O 4086.31 0.315663 -1.9334 0
M  V30 40629 H 4084.89 -0.667471 -0.335397 0
M  V30 40630 H 4087.55 -1.94009 -0.186112 0
M  V30 40631 H 4086.65 -2.74544 -1.48432 0
M  V30 40632 N 4086.95 0.451537 -1.50993 0
M  V30 40633 C 4088.17 1.22955 -1.67023 0
M  V30 40634 C 4088.6 1.846 -0.361182 0
M  V30 40635 O 4087.95 1.68179 0.677164 0
M  V30 40636 C 4088 2.29975 -2.77748 0
M  V30 40637 O 4087.11 3.35112 -2.40362 0
M  V30 40638 H 4086.45 0.360872 -0.557375 0
M  V30 40639 H 4088.98 0.535038 -1.9748 0
M  V30 40640 H 4088.99 2.74983 -3.01411 0
M  V30 40641 H 4087.66 1.84482 -3.72746 0
M  V30 40642 H 4086.24 2.95679 -2.27219 0
M  V30 40643 N 4088.42 1.409 0.706044 0
M  V30 40644 C 4089.35 1.44684 1.83273 0
M  V30 40645 C 4090.34 0.306658 1.67313 0
M  V30 40646 O 4091.52 0.51663 1.87202 0
M  V30 40647 C 4088.65 1.31806 3.21317 0
M  V30 40648 C 4087.6 2.43526 3.51965 0
M  V30 40649 C 4086.93 2.15719 4.89254 0
M  V30 40650 C 4088.23 3.8587 3.51997 0
M  V30 40651 H 4089.92 2.38976 1.80363 0
M  V30 40652 H 4087.47 1.15025 0.866329 0
M  V30 40653 H 4089.42 1.33067 3.99839 0
M  V30 40654 H 4088.15 0.339936 3.24826 0
M  V30 40655 H 4086.81 2.4153 2.75788 0
M  V30 40656 H 4086.45 1.16275 4.89376 0
M  V30 40657 H 4086.15 2.90575 5.10725 0
M  V30 40658 H 4087.68 2.18679 5.70098 0
M  V30 40659 H 4089.09 3.89638 4.20542 0
M  V30 40660 H 4087.49 4.60323 3.84997 0
M  V30 40661 H 4088.56 4.14771 2.51184 0
M  V30 40662 N 4089.9 -0.939242 1.26554 0
M  V30 40663 C 4091.31 -1.50049 1.11096 0
M  V30 40664 C 4091.66 -1.93766 -0.308071 0
M  V30 40665 O 4090.79 -1.80095 -1.19977 0
M  V30 40666 C 4091.38 -2.72692 2.01058 0
M  V30 40667 C 4089.94 -3.25078 1.8974 0
M  V30 40668 C 4089.09 -1.97851 1.94294 0
M  V30 40669 H 4092.04 -0.754528 1.39616 0
M  V30 40670 H 4092.06 -3.47068 1.55961 0
M  V30 40671 H 4091.57 -2.40843 3.04329 0
M  V30 40672 H 4089.68 -3.61713 0.894105 0
M  V30 40673 H 4089.79 -3.92053 2.75374 0
M  V30 40674 H 4088.15 -2.13835 1.38371 0
M  V30 40675 H 4088.94 -1.6833 2.99199 0
M  V30 40676 N 4091.38 -1.08389 -1.14409 0
M  V30 40677 C 4092.61 -0.835048 -1.89847 0
M  V30 40678 C 4093.03 0.60706 -1.78035 0
M  V30 40679 O 4092.39 1.42536 -1.12041 0
M  V30 40680 C 4092.44 -1.26147 -3.37815 0
M  V30 40681 O 4091.54 -0.413292 -4.10324 0
M  V30 40682 H 4090.88 -0.303309 -0.590677 0
M  V30 40683 H 4093.41 -1.44527 -1.44821 0
M  V30 40684 H 4093.42 -1.24225 -3.88629 0
M  V30 40685 H 4092.1 -2.31178 -3.4573 0
M  V30 40686 H 4090.67 -0.495919 -3.69588 0
M  V30 40687 N 4092.86 1.31442 -0.869532 0
M  V30 40688 C 4093.81 2.26063 -0.296563 0
M  V30 40689 C 4094.79 1.50611 0.566145 0
M  V30 40690 O 4095.98 1.72112 0.413094 0
M  V30 40691 C 4093.11 3.3962 0.501337 0
M  V30 40692 C 4092.2 4.22442 -0.37459 0
M  V30 40693 N 4092.59 4.84033 -1.46786 0
M  V30 40694 C 4090.89 4.45687 -0.166949 0
M  V30 40695 C 4091.59 5.45945 -2.00797 0
M  V30 40696 N 4090.57 5.27702 -1.30504 0
M  V30 40697 H 4094.37 2.71219 -1.13215 0
M  V30 40698 H 4091.88 1.45703 -0.717246 0
M  V30 40699 H 4093.88 4.06433 0.928337 0
M  V30 40700 H 4092.54 2.96007 1.33454 0
M  V30 40701 H 4093.55 4.83701 -1.85077 0
M  V30 40702 H 4090.23 4.12714 0.630338 0
M  V30 40703 H 4091.62 6.04881 -2.9252 0
M  V30 40704 N 4094.34 0.628927 1.44507 0
M  V30 40705 C 4095.29 -0.0991543 2.27784 0
M  V30 40706 C 4096.27 -0.81826 1.3854 0
M  V30 40707 O 4097.46 -0.704731 1.62365 0
M  V30 40708 C 4094.59 -1.08154 3.25818 0
M  V30 40709 C 4093.68 -0.362174 4.22551 0
M  V30 40710 N 4094.07 0.608003 5.02132 0
M  V30 40711 C 4092.37 -0.606912 4.41851 0
M  V30 40712 C 4093.07 1.03282 5.72458 0
M  V30 40713 N 4092.04 0.372062 5.42325 0
M  V30 40714 H 4095.85 0.645671 2.8672 0
M  V30 40715 H 4093.36 0.454258 1.55917 0
M  V30 40716 H 4095.36 -1.61773 3.84233 0
M  V30 40717 H 4094.02 -1.8267 2.68444 0
M  V30 40718 H 4095.03 0.985715 5.08433 0
M  V30 40719 H 4091.7 -1.3351 3.95577 0
M  V30 40720 H 4093.09 1.83421 6.4638 0
M  V30 40721 N 4095.82 -1.53211 0.369342 0
M  V30 40722 C 4096.75 -2.23451 -0.510122 0
M  V30 40723 C 4097.76 -1.24993 -1.04311 0
M  V30 40724 O 4098.95 -1.51193 -0.948842 0
M  V30 40725 C 4096.05 -2.92157 -1.71748 0
M  V30 40726 C 4095.22 -4.17154 -1.31534 0
M  V30 40727 C 4094.28 -4.69037 -2.38518 0
M  V30 40728 O 4093.31 -5.32623 -2.00752 0
M  V30 40729 N 4094.51 -4.47173 -3.70157 0
M  V30 40730 H 4097.27 -2.9956 0.0915557 0
M  V30 40731 H 4094.84 -1.60725 0.194704 0
M  V30 40732 H 4096.83 -3.23773 -2.42802 0
M  V30 40733 H 4095.4 -2.19478 -2.22594 0
M  V30 40734 H 4094.62 -3.91798 -0.434494 0
M  V30 40735 H 4095.91 -4.98409 -1.02302 0
M  V30 40736 H 4095.3 -3.96375 -4.03613 0
M  V30 40737 H 4093.86 -4.8333 -4.37304 0
M  V30 40738 N 4097.29 -0.0986092 -1.57291 0
M  V30 40739 C 4098.52 0.572555 -1.9882 0
M  V30 40740 C 4098.94 1.61506 -0.977815 0
M  V30 40741 O 4098.29 1.82472 0.0321064 0
M  V30 40742 C 4098.34 1.2171 -3.40395 0
M  V30 40743 O 4098.07 0.216289 -4.37566 0
M  V30 40744 C 4099.57 1.97354 -3.96946 0
M  V30 40745 H 4096.79 0.153228 -0.65327 0
M  V30 40746 H 4099.33 -0.178934 -2.03716 0
M  V30 40747 H 4097.49 1.9195 -3.36503 0
M  V30 40748 H 4097.9 0.681958 -5.20048 0
M  V30 40749 H 4099.37 2.37807 -4.98148 0
M  V30 40750 H 4099.85 2.84077 -3.34958 0
M  V30 40751 H 4100.46 1.31923 -4.04322 0
M  V30 40752 N 4098.77 1.56624 0.175099 0
M  V30 40753 C 4100.19 1.50658 0.526725 0
M  V30 40754 C 4100.39 0.802205 1.84843 0
M  V30 40755 O 4099.44 0.361002 2.49906 0
M  V30 40756 C 4100.76 2.95383 0.562977 0
M  V30 40757 C 4102.3 3.06167 0.650439 0
M  V30 40758 C 4102.78 4.52343 0.717618 0
M  V30 40759 N 4104.27 4.56575 0.78061 0
M  V30 40760 C 4105.01 5.67018 0.853099 0
M  V30 40761 N 4104.5 6.87103 0.886656 0
M  V30 40762 N 4106.29 5.5498 0.891829 0
M  V30 40763 H 4098.45 2.00824 -0.691615 0
M  V30 40764 H 4100.71 0.914742 -0.2489 0
M  V30 40765 H 4100.41 3.50058 -0.339447 0
M  V30 40766 H 4100.29 3.49824 1.41078 0
M  V30 40767 H 4102.68 2.51529 1.54329 0
M  V30 40768 H 4102.76 2.54818 -0.223964 0
M  V30 40769 H 4102.4 5.07612 -0.17096 0
M  V30 40770 H 4102.33 5.01445 1.60811 0
M  V30 40771 H 4104.82 3.70115 0.763113 0
M  V30 40772 H 4105.13 7.67025 0.943037 0
M  V30 40773 H 4103.48 6.89721 0.854996 0
M  V30 40774 H 4106.67 4.60084 0.862588 0
M  V30 40775 H 4106.84 6.41074 0.94486 0
M  V30 40776 N 4100.25 -0.443523 1.5123 0
M  V30 40777 C 4101.5 -1.19111 1.63269 0
M  V30 40778 C 4101.82 -1.91866 0.348185 0
M  V30 40779 O 4101.09 -1.85299 -0.635691 0
M  V30 40780 H 4099.67 -0.442669 0.601709 0
M  V30 40781 H 4102.33 -0.509101 1.88133 0
M  V30 40782 H 4101.43 -1.92407 2.45736 0
M  V30 40783 N 4101.73 -1.41272 -0.698562 0
M  V30 40784 C 4102.95 -1.44017 -1.49244 0
M  V30 40785 C 4103.38 -0.0462219 -1.88043 0
M  V30 40786 O 4102.74 0.949833 -1.54428 0
M  V30 40787 C 4102.78 -2.35209 -2.7333 0
M  V30 40788 O 4101.89 -1.80706 -3.70701 0
M  V30 40789 H 4101.23 -0.488899 -0.449304 0
M  V30 40790 H 4103.76 -1.85699 -0.858903 0
M  V30 40791 H 4103.77 -2.50981 -3.21671 0
M  V30 40792 H 4102.44 -3.36494 -2.44427 0
M  V30 40793 H 4101.02 -1.74369 -3.29621 0
M  V30 40794 N 4103.21 0.932517 -1.27051 0
M  V30 40795 C 4104.62 1.2076 -1.04351 0
M  V30 40796 C 4104.82 2.00229 0.225946 0
M  V30 40797 O 4103.88 2.3464 0.932746 0
M  V30 40798 C 4105.19 1.96044 -2.28007 0
M  V30 40799 C 4106.74 2.09002 -2.32996 0
M  V30 40800 C 4107.21 2.8769 -3.56369 0
M  V30 40801 N 4108.7 2.9526 -3.56898 0
M  V30 40802 C 4109.44 3.56596 -4.49028 0
M  V30 40803 N 4108.94 4.19364 -5.51458 0
M  V30 40804 N 4110.73 3.53953 -4.36662 0
M  V30 40805 H 4102.88 0.401479 -2.08571 0
M  V30 40806 H 4105.14 0.240197 -0.917066 0
M  V30 40807 H 4104.85 1.45066 -3.20388 0
M  V30 40808 H 4104.72 2.96678 -2.32942 0
M  V30 40809 H 4107.11 2.59168 -1.41124 0
M  V30 40810 H 4107.19 1.07603 -2.32067 0
M  V30 40811 H 4106.83 2.38208 -4.48575 0
M  V30 40812 H 4106.76 3.89363 -3.54548 0
M  V30 40813 H 4109.26 2.50645 -2.82817 0
M  V30 40814 H 4109.57 4.6409 -6.17932 0
M  V30 40815 H 4107.91 4.17924 -5.55306 0
M  V30 40816 H 4111.1 3.04116 -3.55853 0
M  V30 40817 H 4111.28 4.01466 -5.08654 0
M  V30 40818 N 4104.68 1.08995 1.13833 0
M  V30 40819 C 4105.61 0.747109 2.21225 0
M  V30 40820 C 4106.59 -0.273203 1.67892 0
M  V30 40821 O 4107.78 -0.142244 1.93678 0
M  V30 40822 C 4104.91 0.162089 3.46922 0
M  V30 40823 C 4103.86 1.11142 4.13318 0
M  V30 40824 C 4103.19 0.388321 5.33288 0
M  V30 40825 C 4104.49 2.45203 4.61165 0
M  V30 40826 H 4106.18 1.64501 2.5016 0
M  V30 40827 H 4103.73 0.79239 1.20238 0
M  V30 40828 H 4105.68 -0.0898013 4.21304 0
M  V30 40829 H 4104.41 -0.77098 3.1737 0
M  V30 40830 H 4103.07 1.34851 3.40897 0
M  V30 40831 H 4102.71 -0.548744 4.99998 0
M  V30 40832 H 4102.41 1.02125 5.78657 0
M  V30 40833 H 4103.94 0.144626 6.10429 0
M  V30 40834 H 4105.35 2.25727 5.26992 0
M  V30 40835 H 4103.75 3.04244 5.17258 0
M  V30 40836 H 4104.82 3.0629 3.75918 0
M  V30 40837 N 4106.16 -1.30979 0.87649 0
M  V30 40838 C 4107.58 -1.49101 0.56931 0
M  V30 40839 C 4107.78 -1.80532 -0.895017 0
M  V30 40840 O 4106.83 -1.88786 -1.67679 0
M  V30 40841 C 4108.15 -2.6203 1.47515 0
M  V30 40842 C 4109.69 -2.75913 1.47787 0
M  V30 40843 C 4110.17 -3.91946 2.36944 0
M  V30 40844 N 4111.66 -3.99243 2.3486 0
M  V30 40845 C 4112.4 -4.88314 3.00561 0
M  V30 40846 N 4111.89 -5.82241 3.75456 0
M  V30 40847 N 4113.68 -4.81613 2.89836 0
M  V30 40848 H 4105.84 -1.08847 1.8239 0
M  V30 40849 H 4108.1 -0.538447 0.780243 0
M  V30 40850 H 4107.8 -2.456 2.51741 0
M  V30 40851 H 4107.68 -3.58318 1.17847 0
M  V30 40852 H 4110.07 -2.91753 0.443164 0
M  V30 40853 H 4110.15 -1.80272 1.81482 0
M  V30 40854 H 4109.79 -3.76863 3.40495 0
M  V30 40855 H 4109.72 -4.86908 2.0057 0
M  V30 40856 H 4112.21 -3.32046 1.80426 0
M  V30 40857 H 4112.52 -6.4695 4.22701 0
M  V30 40858 H 4110.87 -5.82199 3.79564 0
M  V30 40859 H 4114.06 -4.07212 2.30859 0
M  V30 40860 H 4114.23 -5.50823 3.41319 0
M  V30 40861 N 4107.64 -0.636582 -1.44171 0
M  V30 40862 C 4108.57 0.0518308 -2.33442 0
M  V30 40863 C 4109.55 0.8292 -1.4852 0
M  V30 40864 O 4110.74 0.793997 -1.77227 0
M  V30 40865 C 4107.87 1.03032 -3.31665 0
M  V30 40866 C 4106.82 0.364212 -4.26448 0
M  V30 40867 C 4106.15 1.45299 -5.1458 0
M  V30 40868 C 4107.45 -0.732975 -5.17131 0
M  V30 40869 H 4109.14 -0.69364 -2.91254 0
M  V30 40870 H 4106.69 -0.335015 -1.40049 0
M  V30 40871 H 4108.64 1.5207 -3.93005 0
M  V30 40872 H 4107.36 1.80675 -2.72074 0
M  V30 40873 H 4106.02 -0.105569 -3.66448 0
M  V30 40874 H 4105.67 2.22043 -4.51338 0
M  V30 40875 H 4105.37 1.01264 -5.78809 0
M  V30 40876 H 4106.89 1.94507 -5.78791 0
M  V30 40877 H 4108.31 -0.325464 -5.72375 0
M  V30 40878 H 4106.7 -1.09679 -5.89992 0
M  V30 40879 H 4107.77 -1.59787 -4.57817 0
M  V30 40880 N 4109.12 1.53013 -0.377462 0
M  V30 40881 C 4110.07 2.22889 0.480066 0
M  V30 40882 C 4111.05 1.22841 1.03918 0
M  V30 40883 O 4112.24 1.48234 0.967251 0
M  V30 40884 C 4109.37 3.03043 1.61306 0
M  V30 40885 C 4108.46 4.10478 1.06625 0
M  V30 40886 N 4108.85 5.05214 0.243413 0
M  V30 40887 C 4107.15 4.25397 1.33992 0
M  V30 40888 C 4107.85 5.81672 -0.0573381 0
M  V30 40889 N 4106.82 5.40877 0.543467 0
M  V30 40890 H 4110.63 2.9349 -0.155275 0
M  V30 40891 H 4108.14 1.6133 -0.186118 0
M  V30 40892 H 4110.14 3.5163 2.23969 0
M  V30 40893 H 4108.8 2.33976 2.25134 0
M  V30 40894 H 4109.81 5.17765 -0.118367 0
M  V30 40895 H 4106.49 3.67557 1.98011 0
M  V30 40896 H 4107.88 6.67996 -0.723288 0
M  V30 40897 N 4110.6 0.106949 1.57237 0
M  V30 40898 C 4111.55 -0.85857 2.11217 0
M  V30 40899 C 4112.53 -1.2361 1.03002 0
M  V30 40900 O 4113.72 -1.2092 1.29257 0
M  V30 40901 C 4110.85 -2.11319 2.70553 0
M  V30 40902 C 4109.94 -1.76057 3.8583 0
M  V30 40903 N 4110.33 -1.1141 4.93378 0
M  V30 40904 C 4108.63 -2.05592 3.95788 0
M  V30 40905 C 4109.33 -0.950214 5.73887 0
M  V30 40906 N 4108.3 -1.47135 5.23309 0
M  V30 40907 H 4112.11 -0.355004 2.91748 0
M  V30 40908 H 4109.62 -0.0959007 1.62117 0
M  V30 40909 H 4111.62 -2.81445 3.07562 0
M  V30 40910 H 4110.28 -2.62231 1.91481 0
M  V30 40911 H 4111.29 -0.779504 5.12 0
M  V30 40912 H 4107.96 -2.58635 3.27741 0
M  V30 40913 H 4109.35 -0.443712 6.70433 0
M  V30 40914 N 4112.07 -1.56715 -0.166791 0
M  V30 40915 C 4113.32 -1.8252 -0.883991 0
M  V30 40916 C 4113.65 -0.685509 -1.81699 0
M  V30 40917 O 4112.93 0.312243 -1.91977 0
M  V30 40918 C 4113.21 -3.18734 -1.67573 0
M  V30 40919 C 4113.06 -4.43237 -0.765549 0
M  V30 40920 C 4114.38 -3.5194 -2.64246 0
M  V30 40921 H 4111.5 -0.66394 -0.319926 0
M  V30 40922 H 4114.14 -1.89407 -0.150001 0
M  V30 40923 H 4112.29 -3.12994 -2.30146 0
M  V30 40924 H 4113.97 -4.61048 -0.152341 0
M  V30 40925 H 4112.21 -4.33737 -0.0738735 0
M  V30 40926 H 4112.88 -5.35108 -1.35513 0
M  V30 40927 H 4115.36 -3.58163 -2.11798 0
M  V30 40928 H 4114.23 -4.48317 -3.16706 0
M  V30 40929 H 4114.49 -2.76876 -3.44662 0
M  V30 40930 N 4113.55 0.435497 -1.51463 0
M  V30 40931 C 4114.78 1.21177 -1.68318 0
M  V30 40932 C 4115.2 1.84206 -0.380741 0
M  V30 40933 O 4114.56 1.68888 0.659288 0
M  V30 40934 C 4114.61 2.27016 -2.80172 0
M  V30 40935 O 4113.71 3.32543 -2.43903 0
M  V30 40936 H 4113.05 0.35494 -0.561171 0
M  V30 40937 H 4115.58 0.514062 -1.98037 0
M  V30 40938 H 4115.59 2.71771 -3.0431 0
M  V30 40939 H 4114.27 1.80518 -3.74681 0
M  V30 40940 H 4112.85 2.93252 -2.30343 0
M  V30 40941 N 4115.03 1.41641 0.69106 0
M  V30 40942 C 4116.44 1.36744 1.27114 0
M  V30 40943 C 4116.79 0.0527298 1.96129 0
M  V30 40944 O 4115.92 -0.848918 1.99054 0
M  V30 40945 C 4116.51 2.47684 2.31167 0
M  V30 40946 C 4115.07 2.46171 2.8474 0
M  V30 40947 C 4114.22 2.27301 1.58837 0
M  V30 40948 H 4117.17 1.51091 0.485515 0
M  V30 40949 H 4117.19 2.17002 3.12555 0
M  V30 40950 H 4116.7 3.43357 1.80907 0
M  V30 40951 H 4114.8 1.54268 3.39164 0
M  V30 40952 H 4114.92 3.42642 3.34863 0
M  V30 40953 H 4113.28 1.75261 1.84812 0
M  V30 40954 H 4114.06 3.25007 1.10567 0
M  V30 40955 N 4116.51 -0.925766 1.27543 0
M  V30 40956 C 4117.47 -2.00819 1.10474 0
M  V30 40957 C 4118.47 -1.60728 0.0481285 0
M  V30 40958 O 4119.66 -1.7172 0.292887 0
M  V30 40959 C 4116.79 -3.33973 0.683728 0
M  V30 40960 H 4117.99 -2.17392 2.06593 0
M  V30 40961 H 4115.54 -1.10682 1.10359 0
M  V30 40962 H 4116.27 -3.231 -0.278764 0
M  V30 40963 H 4116.06 -3.64429 1.44686 0
M  V30 40964 H 4117.55 -4.1346 0.586599 0
M  V30 40965 N 4117.99 -1.09597 -1.13253 0
M  V30 40966 C 4119.26 -0.745442 -1.80838 0
M  V30 40967 C 4119.64 0.769288 -1.96584 0
M  V30 40968 O 4118.99 1.69234 -1.53532 0
M  V30 40969 C 4119.2 -1.4865 -3.1576 0
M  V30 40970 C 4120.55 -1.65344 -3.91084 0
M  V30 40971 O 4121.57 -1.44916 -3.25389 0
M  V30 40972 O 4120.43 -1.99146 -5.08923 0
M  V30 40973 H 4117.53 -0.267977 -0.782379 0
M  V30 40974 H 4120.07 -1.19827 -1.20165 0
M  V30 40975 H 4118.84 -2.5178 -2.99537 0
M  V30 40976 H 4118.47 -1.02596 -3.84135 0
M  V30 40977 N 4119.46 1.30512 -0.883424 0
M  V30 40978 C 4120.69 2.00899 -0.515221 0
M  V30 40979 C 4121.11 1.65794 0.888486 0
M  V30 40980 O 4120.47 0.87372 1.58858 0
M  V30 40981 C 4120.52 3.53832 -0.695353 0
M  V30 40982 O 4119.62 4.11583 0.259444 0
M  V30 40983 H 4118.97 0.632137 -0.203221 0
M  V30 40984 H 4121.5 1.66395 -1.19054 0
M  V30 40985 H 4121.51 4.03656 -0.593759 0
M  V30 40986 H 4120.18 3.78721 -1.71881 0
M  V30 40987 H 4118.76 3.72733 0.111675 0
M  V30 40988 N 4120.94 0.644219 1.43832 0
M  V30 40989 C 4122.19 0.153658 2.01515 0
M  V30 40990 C 4122.51 -1.23356 1.51025 0
M  V30 40991 O 4121.78 -1.82222 0.719169 0
M  V30 40992 H 4120.36 0.0538151 0.745059 0
M  V30 40993 H 4123.02 0.833864 1.76161 0
M  V30 40994 H 4122.12 0.131368 3.11823 0
M  V30 40995 N 4122.42 -1.52811 0.385571 0
M  V30 40996 C 4123.33 -2.3007 -0.458809 0
M  V30 40997 C 4124.35 -1.36833 -1.07483 0
M  V30 40998 O 4125.52 -1.69901 -1.08145 0
M  V30 40999 C 4122.59 -3.08975 -1.57275 0
M  V30 41000 C 4121.65 -4.17913 -0.982217 0
M  V30 41001 C 4120.88 -4.93046 -2.04307 0
M  V30 41002 O 4121.1 -4.68232 -3.25753 0
M  V30 41003 O 4120.04 -5.78486 -1.66246 0
M  V30 41004 H 4123.86 -3.03221 0.17047 0
M  V30 41005 H 4121.45 -1.48651 0.14939 0
M  V30 41006 H 4123.33 -3.58184 -2.21996 0
M  V30 41007 H 4122.01 -2.3864 -2.18706 0
M  V30 41008 H 4120.91 -3.72908 -0.298363 0
M  V30 41009 H 4122.25 -4.90471 -0.412175 0
M  V30 41010 N 4123.9 -0.115287 -1.57178 0
M  V30 41011 C 4125.13 0.550636 -1.99127 0
M  V30 41012 C 4125.54 1.60999 -0.99378 0
M  V30 41013 O 4124.88 1.83687 0.0220195 0
M  V30 41014 C 4124.94 1.23874 -3.37484 0
M  V30 41015 C 4124.61 0.327768 -4.55823 0
M  V30 41016 C 4125.6 -0.432145 -5.18101 0
M  V30 41017 C 4123.29 0.239924 -5.01727 0
M  V30 41018 C 4125.28 -1.26767 -6.24667 0
M  V30 41019 C 4122.97 -0.599238 -6.08155 0
M  V30 41020 C 4123.97 -1.35167 -6.69492 0
M  V30 41021 O 4123.65 -2.17691 -7.73864 0
M  V30 41022 H 4123.39 0.150677 -0.658993 0
M  V30 41023 H 4125.94 -0.197324 -2.0445 0
M  V30 41024 H 4124.17 2.03369 -3.28904 0
M  V30 41025 H 4125.86 1.8012 -3.63747 0
M  V30 41026 H 4126.63 -0.374129 -4.83555 0
M  V30 41027 H 4122.5 0.81527 -4.53734 0
M  V30 41028 H 4126.05 -1.85545 -6.72472 0
M  V30 41029 H 4121.95 -0.658661 -6.42131 0
M  V30 41030 H 4122.71 -2.10592 -7.90945 0
M  V30 41031 N 4125.38 1.56801 0.158477 0
M  V30 41032 C 4126.62 1.82986 0.874299 0
M  V30 41033 C 4126.96 0.695135 1.81333 0
M  V30 41034 O 4126.23 -0.302057 1.9214 0
M  V30 41035 C 4126.51 3.19618 1.6588 0
M  V30 41036 C 4126.37 4.43637 0.742032 0
M  V30 41037 C 4127.69 3.53337 2.62376 0
M  V30 41038 H 4124.81 0.665627 0.3164 0
M  V30 41039 H 4127.45 1.89484 0.139954 0
M  V30 41040 H 4125.6 3.1421 2.28483 0
M  V30 41041 H 4127.27 4.61123 0.127888 0
M  V30 41042 H 4125.51 4.3377 0.0508703 0
M  V30 41043 H 4126.18 5.35819 1.32673 0
M  V30 41044 H 4128.66 3.59282 2.09895 0
M  V30 41045 H 4127.54 4.49991 3.14324 0
M  V30 41046 H 4127.8 2.787 3.43189 0
M  V30 41047 N 4126.86 -0.427458 1.51692 0
M  V30 41048 C 4128.1 -1.18542 1.66514 0
M  V30 41049 C 4128.46 -1.88244 0.377918 0
M  V30 41050 O 4129.66 -2.65777 0.402024 0
M  V30 41051 C 4127.93 -2.16769 2.84159 0
M  V30 41052 S 4129.49 -3.00919 3.19364 0
M  V30 41053 H 4126.31 -0.401854 0.586544 0
M  V30 41054 H 4128.91 -0.475469 1.8963 0
M  V30 41055 H 4127.61 -1.64218 3.76113 0
M  V30 41056 H 4127.15 -2.9233 2.63262 0
M  V30 41057 H 4129.16 -4.18519 2.66564 0
M  V30 41058 N 4128.33 -1.42005 -0.683539 0
M  V30 41059 C 4129.75 -1.24739 -0.995609 0
M  V30 41060 C 4129.95 -0.145321 -2.00975 0
M  V30 41061 O 4129.01 0.486332 -2.47772 0
M  V30 41062 C 4130.32 -2.6011 -1.50875 0
M  V30 41063 C 4131.87 -2.67393 -1.62697 0
M  V30 41064 C 4132.34 -4.0311 -2.17409 0
M  V30 41065 N 4133.83 -4.05019 -2.24754 0
M  V30 41066 C 4134.57 -5.0684 -2.68142 0
M  V30 41067 N 4134.06 -6.19049 -3.11048 0
M  V30 41068 N 4135.86 -4.94199 -2.67813 0
M  V30 41069 H 4128.01 -2.12397 -0.0119247 0
M  V30 41070 H 4130.27 -0.94557 -0.0678323 0
M  V30 41071 H 4129.98 -3.41568 -0.838098 0
M  V30 41072 H 4129.85 -2.83428 -2.48894 0
M  V30 41073 H 4132.24 -1.86286 -2.2887 0
M  V30 41074 H 4132.32 -2.47872 -0.631903 0
M  V30 41075 H 4131.96 -4.8467 -1.51847 0
M  V30 41076 H 4131.89 -4.19977 -3.1769 0
M  V30 41077 H 4134.38 -3.24009 -1.94491 0
M  V30 41078 H 4134.7 -6.92602 -3.42816 0
M  V30 41079 H 4133.04 -6.22567 -3.08926 0
M  V30 41080 H 4136.23 -4.05617 -2.33651 0
M  V30 41081 H 4136.41 -5.73687 -3.01308 0
M  V30 41082 N 4129.81 0.918989 -1.28033 0
M  V30 41083 C 4131.06 1.67006 -1.15051 0
M  V30 41084 C 4131.39 1.91849 0.301267 0
M  V30 41085 O 4130.67 1.51511 1.21961 0
M  V30 41086 C 4130.95 3.03122 -1.94394 0
M  V30 41087 C 4130.8 2.85466 -3.47605 0
M  V30 41088 C 4132.12 4.03583 -1.75524 0
M  V30 41089 H 4129.24 0.606084 -0.419322 0
M  V30 41090 H 4131.88 1.06584 -1.57289 0
M  V30 41091 H 4130.03 3.54697 -1.58499 0
M  V30 41092 H 4131.7 2.40942 -3.93376 0
M  V30 41093 H 4129.95 2.20631 -3.73503 0
M  V30 41094 H 4130.62 3.82104 -3.98372 0
M  V30 41095 H 4133.09 3.6105 -2.06838 0
M  V30 41096 H 4131.97 4.96796 -2.3342 0
M  V30 41097 H 4132.23 4.36436 -0.705386 0
M  V30 41098 N 4131.29 1.10196 1.12671 0
M  V30 41099 C 4132.22 0.692437 2.17441 0
M  V30 41100 C 4133.2 -0.305017 1.59714 0
M  V30 41101 O 4134.38 -0.204506 1.87387 0
M  V30 41102 C 4131.51 0.02132 3.38693 0
M  V30 41103 C 4130.56 0.981851 4.15045 0
M  V30 41104 S 4131.39 2.49794 4.7367 0
M  V30 41105 C 4132.55 1.83946 5.9826 0
M  V30 41106 H 4132.78 1.57996 2.51842 0
M  V30 41107 H 4130.31 0.918716 1.24093 0
M  V30 41108 H 4132.27 -0.359569 4.08922 0
M  V30 41109 H 4130.93 -0.842965 3.02577 0
M  V30 41110 H 4130.12 0.459486 5.01901 0
M  V30 41111 H 4129.73 1.30453 3.50511 0
M  V30 41112 H 4132.02 1.1682 6.67352 0
M  V30 41113 H 4132.96 2.68749 6.55118 0
M  V30 41114 H 4133.37 1.30503 5.49208 0
M  V30 41115 N 4132.77 -1.30042 0.890333 0
M  V30 41116 C 4134.02 -1.95547 0.510474 0
M  V30 41117 C 4134.34 -1.70598 -0.944532 0
M  V30 41118 O 4133.61 -1.03253 -1.6648 0
M  V30 41119 H 4132.19 -0.723527 0.185788 0
M  V30 41120 H 4134.85 -1.58472 1.13458 0
M  V30 41121 H 4133.94 -3.04485 0.685209 0
M  V30 41122 N 4134.25 -0.651838 -1.43488 0
M  V30 41123 C 4135.47 -0.170719 -2.06696 0
M  V30 41124 C 4135.9 1.15415 -1.48529 0
M  V30 41125 O 4135.25 1.71269 -0.594695 0
M  V30 41126 C 4135.3 -0.0916091 -3.60484 0
M  V30 41127 O 4134.41 0.946573 -4.0139 0
M  V30 41128 H 4133.75 -0.0942392 -0.657278 0
M  V30 41129 H 4136.28 -0.894372 -1.84017 0
M  V30 41130 H 4136.29 0.0921702 -4.07896 0
M  V30 41131 H 4134.96 -1.05877 -4.02197 0
M  V30 41132 H 4133.54 0.735694 -3.65571 0
M  V30 41133 N 4135.72 1.52604 -0.39367 0
M  V30 41134 C 4136.95 2.06532 0.189581 0
M  V30 41135 C 4137.37 1.26313 1.39379 0
M  V30 41136 O 4136.73 0.289309 1.78977 0
M  V30 41137 C 4136.78 3.56629 0.533655 0
M  V30 41138 O 4135.88 3.78951 1.62697 0
M  V30 41139 H 4135.22 0.66367 0.0209366 0
M  V30 41140 H 4137.75 1.96719 -0.562402 0
M  V30 41141 H 4137.76 4.00146 0.796716 0
M  V30 41142 H 4136.44 4.14452 -0.346723 0
M  V30 41143 H 4135.02 3.47322 1.35728 0
M  V30 41144 N 4137.2 0.12362 1.57114 0
M  V30 41145 C 4138.45 -0.532205 1.94967 0
M  V30 41146 C 4138.77 -1.6692 1.00811 0
M  V30 41147 O 4138.04 -1.95791 0.0652546 0
M  V30 41148 H 4136.62 -0.199594 0.719841 0
M  V30 41149 H 4139.28 0.193644 1.93936 0
M  V30 41150 H 4138.38 -0.92375 2.98116 0
M  V30 41151 N 4138.68 -1.56883 -0.15016 0
M  V30 41152 C 4140.09 -1.7265 -0.710543 0
M  V30 41153 C 4140.44 -0.737525 -1.8181 0
M  V30 41154 O 4139.57 0.0965415 -2.16185 0
M  V30 41155 C 4140.16 -3.13046 -1.29567 0
M  V30 41156 C 4138.72 -3.30426 -1.80265 0
M  V30 41157 C 4137.87 -2.68581 -0.689876 0
M  V30 41158 H 4140.82 -1.5852 0.0754752 0
M  V30 41159 H 4140.84 -3.1287 -2.16547 0
M  V30 41160 H 4140.35 -3.85003 -0.489344 0
M  V30 41161 H 4138.45 -2.63461 -2.63475 0
M  V30 41162 H 4138.57 -4.3835 -1.93354 0
M  V30 41163 H 4136.93 -2.28963 -1.1157 0
M  V30 41164 H 4137.71 -3.4314 0.104952 0
M  V30 41165 N 4140.16 0.419408 -1.51917 0
M  V30 41166 C 4141.09 1.51736 -1.77478 0
M  V30 41167 C 4142.07 1.5819 -0.625291 0
M  V30 41168 O 4143.25 1.7363 -0.869846 0
M  V30 41169 C 4140.38 2.89658 -1.91613 0
M  V30 41170 C 4139.34 2.98059 -3.07156 0
M  V30 41171 C 4138.66 4.38134 -3.065 0
M  V30 41172 C 4139.96 2.70487 -4.46804 0
M  V30 41173 H 4141.66 1.30597 -2.69416 0
M  V30 41174 H 4139.2 0.626827 -1.29641 0
M  V30 41175 H 4141.16 3.66444 -2.08078 0
M  V30 41176 H 4139.88 3.12068 -0.963387 0
M  V30 41177 H 4138.54 2.23715 -2.90426 0
M  V30 41178 H 4138.19 4.57539 -2.08967 0
M  V30 41179 H 4137.89 4.44682 -3.84099 0
M  V30 41180 H 4139.41 5.1687 -3.25081 0
M  V30 41181 H 4140.83 3.37 -4.63793 0
M  V30 41182 H 4139.22 2.88423 -5.26243 0
M  V30 41183 H 4140.29 1.65983 -4.55607 0
M  V30 41184 N 4141.64 1.42366 0.675998 0
M  V30 41185 C 4142.55 1.4815 1.81903 0
M  V30 41186 C 4143.56 0.37035 1.70013 0
M  V30 41187 O 4144.74 0.621069 1.91585 0
M  V30 41188 C 4141.8 1.38034 3.18037 0
M  V30 41189 C 4140.86 2.59631 3.41892 0
M  V30 41190 C 4140.1 2.49988 4.71531 0
M  V30 41191 O 4140.32 1.53509 5.49355 0
M  V30 41192 O 4139.25 3.40099 4.96605 0
M  V30 41193 H 4143.08 2.44624 1.7998 0
M  V30 41194 H 4140.67 1.24117 0.831589 0
M  V30 41195 H 4142.55 1.34751 3.99275 0
M  V30 41196 H 4141.22 0.446845 3.20601 0
M  V30 41197 H 4140.13 2.68489 2.60508 0
M  V30 41198 H 4141.46 3.51875 3.44158 0
M  V30 41199 N 4143.11 -0.912187 1.28518 0
M  V30 41200 C 4144.08 -1.99636 1.12598 0
M  V30 41201 C 4145.08 -1.60668 0.0651731 0
M  V30 41202 O 4146.27 -1.714 0.311084 0
M  V30 41203 C 4143.4 -3.33229 0.719112 0
M  V30 41204 H 4144.59 -2.15188 2.08888 0
M  V30 41205 H 4142.15 -1.09506 1.11527 0
M  V30 41206 H 4142.88 -3.23377 -0.244479 0
M  V30 41207 H 4142.67 -3.62874 1.48543 0
M  V30 41208 H 4144.16 -4.12814 0.630418 0
M  V30 41209 N 4144.59 -1.10792 -1.12085 0
M  V30 41210 C 4145.82 -0.87513 -1.88033 0
M  V30 41211 C 4146.24 0.56916 -1.79282 0
M  V30 41212 O 4145.6 1.40127 -1.15039 0
M  V30 41213 C 4145.65 -1.33284 -3.35064 0
M  V30 41214 O 4144.75 -0.500235 -4.09355 0
M  V30 41215 H 4144.09 -0.31577 -0.584111 0
M  V30 41216 H 4146.62 -1.47567 -1.41722 0
M  V30 41217 H 4146.63 -1.3244 -3.85906 0
M  V30 41218 H 4145.31 -2.38459 -3.40749 0
M  V30 41219 H 4143.89 -0.574202 -3.68453 0
M  V30 41220 N 4146.07 1.29568 -0.897217 0
M  V30 41221 C 4147.32 1.9595 -0.522642 0
M  V30 41222 C 4147.65 1.7058 0.928224 0
M  V30 41223 O 4146.92 1.01737 1.6577 0
M  V30 41224 C 4147.21 3.50809 -0.81272 0
M  V30 41225 C 4147.06 3.85646 -2.31511 0
M  V30 41226 C 4148.38 4.39093 -0.297519 0
M  V30 41227 H 4145.5 0.711724 -0.191358 0
M  V30 41228 H 4148.14 1.53228 -1.12345 0
M  V30 41229 H 4146.29 3.87329 -0.301384 0
M  V30 41230 H 4147.96 3.59084 -2.89579 0
M  V30 41231 H 4146.21 3.33278 -2.77684 0
M  V30 41232 H 4146.88 4.93722 -2.46865 0
M  V30 41233 H 4149.35 4.09551 -0.735337 0
M  V30 41234 H 4148.23 5.46338 -0.52971 0
M  V30 41235 H 4148.49 4.3477 0.80169 0
M  V30 41236 N 4147.55 0.659438 1.4314 0
M  V30 41237 C 4148.48 -0.0146856 2.33495 0
M  V30 41238 C 4149.46 -0.805467 1.49821 0
M  V30 41239 O 4150.64 -0.765701 1.78468 0
M  V30 41240 C 4147.77 -0.977424 3.33262 0
M  V30 41241 C 4146.73 -0.296321 4.26973 0
M  V30 41242 C 4146.05 -1.37094 5.16826 0
M  V30 41243 C 4147.35 0.815154 5.159 0
M  V30 41244 H 4149.05 0.739888 2.90114 0
M  V30 41245 H 4146.59 0.357253 1.39498 0
M  V30 41246 H 4148.55 -1.45798 3.95374 0
M  V30 41247 H 4147.27 -1.76323 2.74914 0
M  V30 41248 H 4145.93 0.163855 3.66234 0
M  V30 41249 H 4145.58 -2.14834 4.54813 0
M  V30 41250 H 4145.28 -0.920426 5.80346 0
M  V30 41251 H 4146.8 -1.85274 5.81813 0
M  V30 41252 H 4148.22 0.416483 5.71785 0
M  V30 41253 H 4146.61 1.19051 5.88172 0
M  V30 41254 H 4147.68 1.6705 4.55217 0
M  V30 41255 N 4149.03 -1.52393 0.401757 0
M  V30 41256 C 4150.27 -2.02029 -0.176684 0
M  V30 41257 C 4150.61 -1.28717 -1.45415 0
M  V30 41258 O 4149.88 -0.391297 -1.90523 0
M  V30 41259 C 4150.16 -3.575 -0.431917 0
M  V30 41260 C 4150.02 -4.41469 0.861706 0
M  V30 41261 C 4151.34 -4.22932 -1.21723 0
M  V30 41262 H 4148.45 -0.734325 -0.0627407 0
M  V30 41263 H 4151.1 -1.82348 0.533774 0
M  V30 41264 H 4149.25 -3.74401 -1.03712 0
M  V30 41265 H 4150.92 -4.36295 1.49816 0
M  V30 41266 H 4149.16 -4.07979 1.47431 0
M  V30 41267 H 4149.83 -5.48305 0.637607 0
M  V30 41268 H 4152.31 -4.10085 -0.704923 0
M  V30 41269 H 4151.18 -5.31668 -1.36456 0
M  V30 41270 H 4151.45 -3.81395 -2.23585 0
M  V30 41271 N 4150.5 -0.131951 -1.57047 0
M  V30 41272 C 4151.73 0.530253 -1.9999 0
M  V30 41273 C 4152.15 1.59396 -1.01185 0
M  V30 41274 O 4151.5 1.82499 -0.00660576 0
M  V30 41275 C 4151.56 1.14462 -3.429 0
M  V30 41276 O 4151.28 0.123426 -4.37926 0
M  V30 41277 C 4152.78 1.8889 -4.01043 0
M  V30 41278 H 4150 0.139336 -0.656374 0
M  V30 41279 H 4152.54 -0.222105 -2.0329 0
M  V30 41280 H 4150.7 1.84769 -3.40498 0
M  V30 41281 H 4151.11 0.571495 -5.21377 0
M  V30 41282 H 4152.58 2.27187 -5.03081 0
M  V30 41283 H 4153.06 2.76909 -3.40908 0
M  V30 41284 H 4153.67 1.23317 -4.0703 0
M  V30 41285 N 4151.98 1.5696 0.141838 0
M  V30 41286 C 4153.23 1.8282 0.852034 0
M  V30 41287 C 4153.54 0.714019 1.82102 0
M  V30 41288 O 4154.75 0.858366 2.57574 0
M  V30 41289 C 4153.21 3.24052 1.56583 0
M  V30 41290 C 4152.81 4.4342 0.638993 0
M  V30 41291 C 4154.56 3.59181 2.26251 0
M  V30 41292 C 4152.47 5.75675 1.35471 0
M  V30 41293 H 4151.4 0.681823 0.321922 0
M  V30 41294 H 4154.05 1.83201 0.104759 0
M  V30 41295 H 4152.43 3.18074 2.35892 0
M  V30 41296 H 4153.6 4.60646 -0.11924 0
M  V30 41297 H 4151.92 4.16369 0.0504681 0
M  V30 41298 H 4154.51 4.55251 2.80447 0
M  V30 41299 H 4154.86 2.85491 3.02987 0
M  V30 41300 H 4155.39 3.66843 1.53855 0
M  V30 41301 H 4152.13 6.52474 0.629099 0
M  V30 41302 H 4151.65 5.62375 2.08552 0
M  V30 41303 H 4153.33 6.18651 1.89421 0
M  V30 41304 N 4153.46 -0.411345 1.52137 0
M  V30 41305 C 4154.37 -1.52575 1.78207 0
M  V30 41306 C 4155.39 -1.60686 0.66753 0
M  V30 41307 O 4156.56 -1.77442 0.952692 0
M  V30 41308 C 4153.63 -2.88331 1.92525 0
M  V30 41309 C 4152.69 -2.90126 3.16426 0
M  V30 41310 C 4151.92 -4.19406 3.30051 0
M  V30 41311 O 4152.14 -5.13184 2.48994 0
M  V30 41312 O 4151.08 -4.28012 4.23189 0
M  V30 41313 H 4154.9 -1.33482 2.72793 0
M  V30 41314 H 4152.49 -0.59698 1.36954 0
M  V30 41315 H 4154.37 -3.68853 2.03778 0
M  V30 41316 H 4153.05 -3.07498 1.01128 0
M  V30 41317 H 4151.95 -2.08465 3.10633 0
M  V30 41318 H 4153.29 -2.75909 4.07597 0
M  V30 41319 N 4154.94 -1.42722 -0.668439 0
M  V30 41320 C 4155.9 -1.46387 -1.76362 0
M  V30 41321 C 4156.9 -0.350581 -1.56932 0
M  V30 41322 O 4158.09 -0.611686 -1.63107 0
M  V30 41323 C 4155.22 -1.3017 -3.15069 0
M  V30 41324 H 4156.42 -2.43906 -1.74498 0
M  V30 41325 H 4153.97 -1.29263 -0.878672 0
M  V30 41326 H 4154.71 -0.335982 -3.22555 0
M  V30 41327 H 4154.49 -2.10859 -3.30576 0
M  V30 41328 H 4155.98 -1.35632 -3.9496 0
M  V30 41329 N 4156.42 0.905358 -1.29 0
M  V30 41330 C 4157.64 1.69417 -1.19635 0
M  V30 41331 C 4158.07 1.86557 0.2404 0
M  V30 41332 O 4157.43 1.38179 1.17372 0
M  V30 41333 C 4157.47 3.05932 -1.90887 0
M  V30 41334 O 4156.58 3.93878 -1.22205 0
M  V30 41335 H 4155.92 0.518454 -0.414851 0
M  V30 41336 H 4158.45 1.13142 -1.7047 0
M  V30 41337 H 4158.46 3.56111 -1.99121 0
M  V30 41338 H 4157.13 2.92775 -2.95391 0
M  V30 41339 H 4155.71 3.52312 -1.22191 0
M  V30 41340 N 4157.9 1.11385 1.11495 0
M  V30 41341 C 4159.14 0.860643 1.82859 0
M  V30 41342 C 4159.46 -0.615438 1.85033 0
M  V30 41343 O 4158.73 -1.44706 1.32049 0
M  V30 41344 H 4157.31 0.315404 0.677148 0
M  V30 41345 H 4159.98 1.40612 1.34961 0
M  V30 41346 H 4159.07 1.23232 2.86741 0
M  V30 41347 N 4159.37 -1.2909 0.904076 0
M  V30 41348 C 4160.6 -2.00053 0.547117 0
M  V30 41349 C 4161.02 -1.67186 -0.861997 0
M  V30 41350 O 4160.38 -0.898882 -1.57448 0
M  V30 41351 C 4160.43 -3.52681 0.751557 0
M  V30 41352 O 4159.53 -4.11944 -0.193931 0
M  V30 41353 H 4158.87 -0.628824 0.213252 0
M  V30 41354 H 4161.4 -1.6448 1.21686 0
M  V30 41355 H 4161.41 -4.02661 0.657902 0
M  V30 41356 H 4160.09 -3.75939 1.77884 0
M  V30 41357 H 4158.67 -3.72863 -0.0523625 0
M  V30 41358 N 4160.85 -0.66702 -1.42789 0
M  V30 41359 C 4162.08 -0.192633 -2.06503 0
M  V30 41360 C 4162.5 1.13833 -1.49745 0
M  V30 41361 O 4161.86 1.70629 -0.612827 0
M  V30 41362 C 4161.91 -0.129838 -3.60366 0
M  V30 41363 O 4161.01 0.903947 -4.02371 0
M  V30 41364 H 4160.35 -0.101205 -0.656242 0
M  V30 41365 H 4162.88 -0.913839 -1.83058 0
M  V30 41366 H 4162.89 0.0489022 -4.07971 0
M  V30 41367 H 4161.57 -1.10137 -4.01052 0
M  V30 41368 H 4160.14 0.696879 -3.6633 0
M  V30 41369 N 4162.33 1.52178 -0.409833 0
M  V30 41370 C 4163.29 2.25622 0.403411 0
M  V30 41371 C 4164.29 1.28017 0.97305 0
M  V30 41372 O 4165.48 1.51953 0.851818 0
M  V30 41373 C 4162.61 3.02702 1.56794 0
M  V30 41374 H 4163.81 2.98939 -0.239874 0
M  V30 41375 H 4161.36 1.55454 -0.162368 0
M  V30 41376 H 4162.1 2.33735 2.24807 0
M  V30 41377 H 4161.88 3.74363 1.16596 0
M  V30 41378 H 4163.37 3.58409 2.1432 0
M  V30 41379 N 4163.81 0.140278 1.56974 0
M  V30 41380 C 4165.05 -0.513268 1.96197 0
M  V30 41381 C 4165.39 -1.64956 1.02485 0
M  V30 41382 O 4164.66 -1.94388 0.0659673 0
M  V30 41383 C 4164.94 -1.02583 3.45179 0
M  V30 41384 C 4164.8 0.108511 4.49669 0
M  V30 41385 C 4166.12 -1.90982 3.96502 0
M  V30 41386 H 4163.24 -0.185101 0.713377 0
M  V30 41387 H 4165.88 0.220145 1.8872 0
M  V30 41388 H 4164.03 -1.65081 3.51682 0
M  V30 41389 H 4165.7 0.744618 4.55251 0
M  V30 41390 H 4163.94 0.768633 4.26936 0
M  V30 41391 H 4164.61 -0.291726 5.51229 0
M  V30 41392 H 4167.09 -1.38322 3.92436 0
M  V30 41393 H 4165.97 -2.23756 5.01223 0
M  V30 41394 H 4166.23 -2.84428 3.38457 0
M  V30 41395 N 4165.29 -1.57033 -0.133512 0
M  V30 41396 C 4166.24 -1.95696 -1.16992 0
M  V30 41397 C 4167.22 -0.829975 -1.37841 0
M  V30 41398 O 4168.41 -1.09356 -1.39177 0
M  V30 41399 C 4165.54 -2.35254 -2.50021 0
M  V30 41400 C 4164.63 -3.54554 -2.32707 0
M  V30 41401 N 4165.02 -4.70685 -1.85175 0
M  V30 41402 C 4163.32 -3.59902 -2.63413 0
M  V30 41403 C 4164.02 -5.5275 -1.81225 0
M  V30 41404 N 4162.99 -4.94833 -2.25037 0
M  V30 41405 H 4166.79 -2.82951 -0.79473 0
M  V30 41406 H 4164.31 -1.5877 -0.341425 0
M  V30 41407 H 4166.31 -2.61163 -3.2496 0
M  V30 41408 H 4164.97 -1.49357 -2.8831 0
M  V30 41409 H 4165.98 -4.94181 -1.54937 0
M  V30 41410 H 4162.65 -2.84578 -3.05486 0
M  V30 41411 H 4164.04 -6.55878 -1.45853 0
M  V30 41412 N 4166.76 0.403271 -1.52353 0
M  V30 41413 C 4168.01 1.15138 -1.66946 0
M  V30 41414 C 4168.34 1.90013 -0.401097 0
M  V30 41415 O 4167.62 1.84992 0.600678 0
M  V30 41416 C 4167.9 2.14113 -2.8953 0
M  V30 41417 C 4167.75 1.43097 -4.26431 0
M  V30 41418 C 4169.07 3.14714 -3.07642 0
M  V30 41419 H 4166.19 0.417212 -0.607539 0
M  V30 41420 H 4168.83 0.436414 -1.8492 0
M  V30 41421 H 4166.98 2.75085 -2.74336 0
M  V30 41422 H 4168.66 0.851995 -4.53364 0
M  V30 41423 H 4166.9 0.73289 -4.27564 0
M  V30 41424 H 4167.57 2.15346 -5.08262 0
M  V30 41425 H 4170.05 2.63822 -3.21772 0
M  V30 41426 H 4168.92 3.81225 -3.94916 0
M  V30 41427 H 4169.18 3.82773 -2.21217 0
M  V30 41428 N 4168.24 1.43075 0.66086 0
M  V30 41429 C 4169.65 1.39409 1.24185 0
M  V30 41430 C 4170 0.0943198 1.95973 0
M  V30 41431 O 4169.13 -0.806505 2.00809 0
M  V30 41432 C 4169.72 2.52532 2.25861 0
M  V30 41433 C 4168.28 2.52155 2.79454 0
M  V30 41434 C 4167.43 2.3062 1.5398 0
M  V30 41435 H 4170.38 1.52087 0.453357 0
M  V30 41436 H 4170.4 2.23583 3.07882 0
M  V30 41437 H 4169.91 3.47117 1.73583 0
M  V30 41438 H 4168.01 1.61428 3.35815 0
M  V30 41439 H 4168.13 3.49668 3.2752 0
M  V30 41440 H 4166.49 1.79142 1.81053 0
M  V30 41441 H 4167.27 3.27279 1.03649 0
M  V30 41442 N 4169.72 -0.898504 1.29478 0
M  V30 41443 C 4170.68 -1.9843 1.14709 0
M  V30 41444 C 4171.68 -1.6059 0.0822104 0
M  V30 41445 O 4172.87 -1.7106 0.329246 0
M  V30 41446 C 4170.01 -3.32448 0.754415 0
M  V30 41447 H 4171.2 -2.12961 2.11158 0
M  V30 41448 H 4168.75 -1.08317 1.12682 0
M  V30 41449 H 4169.49 -3.23618 -0.210167 0
M  V30 41450 H 4169.27 -3.61278 1.52383 0
M  V30 41451 H 4170.76 -4.12122 0.674167 0
M  V30 41452 N 4171.2 -1.11974 -1.10903 0
M  V30 41453 C 4172.61 -0.88722 -1.64272 0
M  V30 41454 C 4172.96 0.579427 -1.87449 0
M  V30 41455 O 4172.09 1.44278 -1.61285 0
M  V30 41456 C 4172.68 -1.60405 -2.98422 0
M  V30 41457 C 4171.24 -1.41781 -3.48676 0
M  V30 41458 C 4170.39 -1.6431 -2.23377 0
M  V30 41459 H 4173.34 -1.2752 -0.944681 0
M  V30 41460 H 4173.36 -1.05228 -3.6566 0
M  V30 41461 H 4172.87 -2.67147 -2.81521 0
M  V30 41462 H 4170.97 -0.372737 -3.70731 0
M  V30 41463 H 4171.08 -2.17065 -4.27106 0
M  V30 41464 H 4169.45 -1.06687 -2.31279 0
M  V30 41465 H 4170.23 -2.72339 -2.09013 0
M  V30 41466 N 4172.68 1.28609 -0.910909 0
M  V30 41467 C 4173.92 1.9471 -0.54152 0
M  V30 41468 C 4174.25 1.72079 0.917272 0
M  V30 41469 O 4173.52 1.05888 1.64817 0
M  V30 41470 H 4172.1 0.72048 -0.197276 0
M  V30 41471 H 4174.76 1.56647 -1.15965 0
M  V30 41472 H 4173.85 3.03357 -0.733563 0
M  V30 41473 N 4174.15 0.674583 1.42433 0
M  V30 41474 C 4175.4 0.196368 2.01144 0
M  V30 41475 C 4175.72 -1.20124 1.53607 0
M  V30 41476 O 4174.99 -1.80655 0.757659 0
M  V30 41477 H 4173.57 0.0696068 0.74375 0
M  V30 41478 H 4176.24 0.871043 1.74353 0
M  V30 41479 H 4175.33 0.197481 3.11475 0
M  V30 41480 N 4175.63 -1.51958 0.417898 0
M  V30 41481 C 4176.6 -2.25833 -0.39144 0
M  V30 41482 C 4177.6 -1.28531 -0.966247 0
M  V30 41483 O 4178.79 -1.52403 -0.843748 0
M  V30 41484 C 4175.92 -3.03529 -1.55187 0
M  V30 41485 H 4177.11 -2.98808 0.255724 0
M  V30 41486 H 4174.66 -1.55366 0.17061 0
M  V30 41487 H 4175.4 -2.34924 -2.23564 0
M  V30 41488 H 4175.18 -3.74976 -1.14609 0
M  V30 41489 H 4176.67 -3.5954 -2.12416 0
M  V30 41490 N 4177.11 -0.1486 -1.56898 0
M  V30 41491 C 4178.52 0.371959 -1.82957 0
M  V30 41492 C 4178.87 1.64625 -1.06738 0
M  V30 41493 O 4178 2.14122 -0.313166 0
M  V30 41494 C 4178.59 0.681624 -3.31872 0
M  V30 41495 C 4177.15 1.1467 -3.58508 0
M  V30 41496 C 4176.3 0.170626 -2.76775 0
M  V30 41497 H 4179.25 -0.373271 -1.54248 0
M  V30 41498 H 4179.27 1.53612 -3.48114 0
M  V30 41499 H 4178.78 -0.246006 -3.8732 0
M  V30 41500 H 4176.88 2.09021 -3.08449 0
M  V30 41501 H 4177 1.07157 -4.66963 0
M  V30 41502 H 4175.36 0.663568 -2.45904 0
M  V30 41503 H 4176.14 -0.750622 -3.34993 0
M  V30 41504 N 4178.59 1.57102 0.125182 0
M  V30 41505 C 4180 1.73759 0.682986 0
M  V30 41506 C 4180.35 0.766356 1.80614 0
M  V30 41507 O 4179.48 -0.0621362 2.16311 0
M  V30 41508 C 4180.07 3.15068 1.2457 0
M  V30 41509 C 4178.63 3.33252 1.74986 0
M  V30 41510 C 4177.78 2.69645 0.647059 0
M  V30 41511 H 4180.73 1.5838 -0.100685 0
M  V30 41512 H 4180.75 3.16276 2.11542 0
M  V30 41513 H 4180.26 3.85732 0.428032 0
M  V30 41514 H 4178.36 2.6762 2.5925 0
M  V30 41515 H 4178.47 4.41371 1.86356 0
M  V30 41516 H 4176.84 2.30709 1.07914 0
M  V30 41517 H 4177.62 3.42929 -0.159529 0
M  V30 41518 N 4180.07 -0.395186 1.52565 0
M  V30 41519 C 4181.32 -1.13798 1.66532 0
M  V30 41520 C 4181.63 -1.91289 0.408396 0
M  V30 41521 O 4182.83 -2.68104 0.428096 0
M  V30 41522 C 4181.29 -2.07194 2.94277 0
M  V30 41523 C 4180.9 -1.35154 4.27127 0
M  V30 41524 C 4182.64 -2.81646 3.17609 0
M  V30 41525 C 4180.55 -2.27279 5.45984 0
M  V30 41526 H 4179.48 -0.42851 0.620399 0
M  V30 41527 H 4182.13 -0.401271 1.79059 0
M  V30 41528 H 4180.51 -2.84475 2.75482 0
M  V30 41529 H 4181.69 -0.631412 4.56454 0
M  V30 41530 H 4180 -0.726862 4.10007 0
M  V30 41531 H 4182.6 -3.50743 4.03588 0
M  V30 41532 H 4182.94 -3.45378 2.32421 0
M  V30 41533 H 4183.47 -2.1146 3.36941 0
M  V30 41534 H 4180.21 -1.68173 6.3356 0
M  V30 41535 H 4179.73 -2.97225 5.20977 0
M  V30 41536 H 4181.41 -2.875 5.79614 0
M  V30 41537 N 4181.54 -1.43423 -0.653263 0
M  V30 41538 C 4182.96 -1.26823 -0.968926 0
M  V30 41539 C 4183.16 -0.187918 -2.00622 0
M  V30 41540 O 4182.22 0.433666 -2.48748 0
M  V30 41541 C 4183.53 -2.63252 -1.45323 0
M  V30 41542 C 4185.08 -2.70783 -1.56988 0
M  V30 41543 C 4185.55 -4.0763 -2.0881 0
M  V30 41544 N 4187.04 -4.09695 -2.16112 0
M  V30 41545 C 4187.78 -5.12414 -2.57331 0
M  V30 41546 N 4187.27 -6.25507 -2.97847 0
M  V30 41547 N 4189.07 -4.99768 -2.5727 0
M  V30 41548 H 4181.22 -2.12374 0.0331305 0
M  V30 41549 H 4183.48 -0.946796 -0.0477601 0
M  V30 41550 H 4183.19 -3.43269 -0.765458 0
M  V30 41551 H 4183.06 -2.88644 -2.42826 0
M  V30 41552 H 4185.45 -1.91099 -2.24867 0
M  V30 41553 H 4185.53 -2.49157 -0.579184 0
M  V30 41554 H 4185.17 -4.87782 -1.41533 0
M  V30 41555 H 4185.1 -4.26621 -3.0871 0
M  V30 41556 H 4187.59 -3.28061 -1.87575 0
M  V30 41557 H 4187.91 -6.99717 -3.28048 0
M  V30 41558 H 4186.25 -6.2898 -2.95651 0
M  V30 41559 H 4189.44 -4.10482 -2.24994 0
M  V30 41560 H 4189.62 -5.7995 -2.89072 0
M  V30 41561 N 4183.02 0.891625 -1.29953 0
M  V30 41562 C 4184.27 1.63754 -1.17761 0
M  V30 41563 C 4184.58 1.93753 0.268197 0
M  V30 41564 O 4185.79 2.66637 0.511548 0
M  V30 41565 C 4184.25 2.95104 -2.06013 0
M  V30 41566 C 4183.85 2.72671 -3.55464 0
M  V30 41567 C 4185.6 3.73051 -2.02566 0
M  V30 41568 C 4183.51 3.99797 -4.35794 0
M  V30 41569 H 4182.44 0.614342 -0.43715 0
M  V30 41570 H 4185.09 0.987666 -1.54653 0
M  V30 41571 H 4183.47 3.61348 -1.61998 0
M  V30 41572 H 4184.64 2.14969 -4.07584 0
M  V30 41573 H 4182.96 2.08108 -3.60666 0
M  V30 41574 H 4185.55 4.6732 -2.59838 0
M  V30 41575 H 4185.9 4.03923 -1.00755 0
M  V30 41576 H 4186.43 3.1366 -2.44668 0
M  V30 41577 H 4183.17 3.74087 -5.38274 0
M  V30 41578 H 4182.69 4.57028 -3.8844 0
M  V30 41579 H 4184.37 4.67875 -4.4688 0
M  V30 41580 N 4184.5 1.12561 1.10308 0
M  V30 41581 C 4185.41 0.80776 2.20255 0
M  V30 41582 C 4186.43 -0.203966 1.728 0
M  V30 41583 O 4187.6 -0.0372412 2.01366 0
M  V30 41584 C 4184.67 0.26845 3.45659 0
M  V30 41585 C 4183.73 1.34027 4.07842 0
M  V30 41586 C 4182.96 0.826604 5.2726 0
M  V30 41587 O 4183.19 -0.339144 5.69391 0
M  V30 41588 O 4182.12 1.5968 5.80333 0
M  V30 41589 H 4185.95 1.7261 2.49879 0
M  V30 41590 H 4183.53 0.902373 1.1907 0
M  V30 41591 H 4185.41 -0.0273581 4.21391 0
M  V30 41592 H 4184.09 -0.622433 3.17659 0
M  V30 41593 H 4182.99 1.68927 3.33788 0
M  V30 41594 H 4184.33 2.20497 4.40048 0
M  V30 41595 N 4185.98 -1.28124 0.917717 0
M  V30 41596 C 4187.39 -1.76833 0.598916 0
M  V30 41597 C 4187.74 -1.75064 -0.885826 0
M  V30 41598 O 4186.87 -1.34781 -1.69301 0
M  V30 41599 C 4187.46 -3.21111 1.08042 0
M  V30 41600 C 4186.02 -3.67527 0.812466 0
M  V30 41601 C 4185.17 -2.47787 1.24487 0
M  V30 41602 H 4188.12 -1.14531 1.09856 0
M  V30 41603 H 4188.14 -3.78134 0.423621 0
M  V30 41604 H 4187.65 -3.22366 2.16106 0
M  V30 41605 H 4185.75 -3.71728 -0.254793 0
M  V30 41606 H 4185.87 -4.5748 1.42299 0
M  V30 41607 H 4184.23 -2.45905 0.663553 0
M  V30 41608 H 4185.01 -2.51758 2.33394 0
M  V30 41609 N 4187.46 -0.682127 -1.42073 0
M  V30 41610 C 4188.68 -0.214524 -2.06288 0
M  V30 41611 C 4189.11 1.12239 -1.50944 0
M  V30 41612 O 4188.47 1.69969 -0.63089 0
M  V30 41613 C 4188.51 -0.168052 -3.60208 0
M  V30 41614 O 4187.62 0.86122 -4.03307 0
M  V30 41615 H 4186.96 -0.10816 -0.655132 0
M  V30 41616 H 4189.49 -0.933203 -1.82078 0
M  V30 41617 H 4189.5 0.00562867 -4.08 0
M  V30 41618 H 4188.17 -1.14385 -3.99861 0
M  V30 41619 H 4186.75 0.657985 -3.67049 0
M  V30 41620 N 4188.94 1.51735 -0.425951 0
M  V30 41621 C 4190.16 2.06887 0.14573 0
M  V30 41622 C 4190.59 1.29241 1.36669 0
M  V30 41623 O 4189.94 0.327208 1.78323 0
M  V30 41624 C 4189.99 3.57681 0.457888 0
M  V30 41625 O 4189.1 3.82316 1.54622 0
M  V30 41626 H 4188.44 0.663965 0.00685452 0
M  V30 41627 H 4190.97 1.95481 -0.604002 0
M  V30 41628 H 4190.98 4.01745 0.71166 0
M  V30 41629 H 4189.65 4.13624 -0.434556 0
M  V30 41630 H 4188.23 3.50123 1.2833 0
M  V30 41631 N 4190.41 0.156919 1.56817 0
M  V30 41632 C 4191.64 -0.501587 2.01243 0
M  V30 41633 C 4192.06 -1.56974 1.03638 0
M  V30 41634 O 4191.42 -1.81295 0.0136507 0
M  V30 41635 C 4191.47 -1.07001 3.44359 0
M  V30 41636 O 4190.57 -2.18455 3.49787 0
M  V30 41637 H 4189.91 -0.121662 0.652759 0
M  V30 41638 H 4192.44 0.256573 2.02985 0
M  V30 41639 H 4192.45 -1.39621 3.83367 0
M  V30 41640 H 4191.13 -0.287851 4.14903 0
M  V30 41641 H 4189.71 -1.86988 3.22629 0
M  V30 41642 N 4191.89 -1.57166 -0.116849 0
M  V30 41643 C 4193.31 -1.52509 -0.470446 0
M  V30 41644 C 4193.51 -0.870256 -1.81738 0
M  V30 41645 O 4192.56 -0.453505 -2.48394 0
M  V30 41646 C 4193.88 -2.97269 -0.45296 0
M  V30 41647 C 4195.42 -3.0837 -0.536359 0
M  V30 41648 C 4195.9 -4.54695 -0.549239 0
M  V30 41649 N 4197.39 -4.59158 -0.610617 0
M  V30 41650 C 4198.13 -5.69794 -0.642066 0
M  V30 41651 N 4197.62 -6.8992 -0.631031 0
M  V30 41652 N 4199.41 -5.57908 -0.685237 0
M  V30 41653 H 4191.57 -1.98119 0.765673 0
M  V30 41654 H 4193.83 -0.904874 0.282678 0
M  V30 41655 H 4193.53 -3.48557 0.469135 0
M  V30 41656 H 4193.41 -3.54819 -1.27997 0
M  V30 41657 H 4195.8 -2.57083 -1.44887 0
M  V30 41658 H 4195.88 -2.53811 0.318383 0
M  V30 41659 H 4195.52 -5.06628 0.359239 0
M  V30 41660 H 4195.45 -5.07068 -1.42089 0
M  V30 41661 H 4197.94 -3.72692 -0.625222 0
M  V30 41662 H 4198.25 -7.69996 -0.657711 0
M  V30 41663 H 4196.6 -6.92419 -0.598422 0
M  V30 41664 H 4199.79 -4.62968 -0.691237 0
M  V30 41665 H 4199.96 -6.4414 -0.706279 0
M  V30 41666 N 4193.37 0.38709 -1.52772 0
M  V30 41667 C 4194.62 1.13361 -1.68158 0
M  V30 41668 C 4194.95 1.89577 -0.421228 0
M  V30 41669 O 4194.22 1.85619 0.581023 0
M  V30 41670 C 4194.51 2.1103 -2.91784 0
M  V30 41671 C 4194.36 1.38566 -4.27925 0
M  V30 41672 C 4195.68 3.11433 -3.10962 0
M  V30 41673 H 4192.8 0.410745 -0.61193 0
M  V30 41674 H 4195.44 0.416776 -1.85373 0
M  V30 41675 H 4193.59 2.7216 -2.77239 0
M  V30 41676 H 4195.26 0.803862 -4.54242 0
M  V30 41677 H 4193.5 0.6875 -4.28317 0
M  V30 41678 H 4194.18 2.09943 -5.10517 0
M  V30 41679 H 4196.65 2.60395 -3.24552 0
M  V30 41680 H 4195.53 3.77015 -3.98937 0
M  V30 41681 H 4195.79 3.80405 -2.25265 0
M  V30 41682 N 4194.85 1.43768 0.645648 0
M  V30 41683 C 4195.81 1.49174 1.74011 0
M  V30 41684 C 4196.81 0.375504 1.56354 0
M  V30 41685 O 4198 0.637558 1.62114 0
M  V30 41686 C 4195.13 1.35166 3.12958 0
M  V30 41687 H 4196.33 2.46652 1.70596 0
M  V30 41688 H 4193.88 1.30645 0.857996 0
M  V30 41689 H 4194.61 0.387256 3.2198 0
M  V30 41690 H 4194.4 2.16092 3.2718 0
M  V30 41691 H 4195.89 1.41898 3.92753 0
M  V30 41692 N 4196.33 -0.884721 1.30424 0
M  V30 41693 C 4197.24 -2.02325 1.18751 0
M  V30 41694 C 4198.25 -1.73668 0.107385 0
M  V30 41695 O 4199.43 -1.98803 0.322367 0
M  V30 41696 C 4196.49 -3.35335 0.88042 0
M  V30 41697 C 4195.55 -3.77412 2.04594 0
M  V30 41698 C 4194.79 -5.04075 1.7534 0
M  V30 41699 O 4195.01 -5.66315 0.681449 0
M  V30 41700 O 4193.94 -5.42566 2.60588 0
M  V30 41701 H 4197.77 -2.15101 2.14395 0
M  V30 41702 H 4195.35 -1.01074 1.1002 0
M  V30 41703 H 4197.24 -4.15127 0.724373 0
M  V30 41704 H 4195.91 -3.23667 -0.0461104 0
M  V30 41705 H 4194.82 -2.98323 2.25731 0
M  V30 41706 H 4196.15 -3.93685 2.9542 0
M  V30 41707 N 4197.8 -1.13144 -1.09709 0
M  V30 41708 C 4199.05 -0.889625 -1.81466 0
M  V30 41709 C 4199.37 0.585923 -1.85989 0
M  V30 41710 O 4198.64 1.42587 -1.34335 0
M  V30 41711 H 4197.22 -0.326137 -0.672044 0
M  V30 41712 H 4199.88 -1.42741 -1.32707 0
M  V30 41713 H 4198.98 -1.27778 -2.84744 0
M  V30 41714 N 4199.28 1.27635 -0.924498 0
M  V30 41715 C 4200.21 2.26054 -0.378427 0
M  V30 41716 C 4201.23 1.5528 0.489083 0
M  V30 41717 O 4202.42 1.75923 0.302224 0
M  V30 41718 C 4199.52 3.3553 0.476712 0
M  V30 41719 C 4198.69 4.35826 -0.370764 0
M  V30 41720 C 4197.75 5.24511 0.421207 0
M  V30 41721 O 4196.77 5.68946 -0.16998 0
M  V30 41722 N 4197.98 5.54378 1.72177 0
M  V30 41723 H 4200.74 2.73547 -1.22443 0
M  V30 41724 H 4198.3 1.41229 -0.791584 0
M  V30 41725 H 4200.29 3.91803 1.01352 0
M  V30 41726 H 4198.86 2.87663 1.22346 0
M  V30 41727 H 4198.08 3.78862 -1.08889 0
M  V30 41728 H 4199.37 4.99848 -0.950256 0
M  V30 41729 H 4198.77 5.20129 2.22445 0
M  V30 41730 H 4197.33 6.13364 2.20518 0
M  V30 41731 N 4200.76 0.689652 1.41709 0
M  V30 41732 C 4201.99 0.226974 2.05651 0
M  V30 41733 C 4202.4 -1.12155 1.51877 0
M  V30 41734 O 4201.76 -1.6997 0.664574 0
M  V30 41735 C 4201.81 0.169567 3.61102 0
M  V30 41736 O 4201.53 1.46482 4.12886 0
M  V30 41737 C 4203.03 -0.314816 4.42181 0
M  V30 41738 H 4200.25 0.106852 0.662438 0
M  V30 41739 H 4202.8 0.94057 1.81586 0
M  V30 41740 H 4200.95 -0.494812 3.84227 0
M  V30 41741 H 4201.37 1.348 5.06882 0
M  V30 41742 H 4202.84 -0.303868 5.51163 0
M  V30 41743 H 4203.32 -1.35268 4.17851 0
M  V30 41744 H 4203.92 0.318352 4.24107 0
M  V30 41745 N 4202.24 -1.51507 0.433991 0
M  V30 41746 C 4203.17 -2.30554 -0.369749 0
M  V30 41747 C 4204.15 -1.35822 -1.02402 0
M  V30 41748 O 4205.33 -1.64741 -1.0283 0
M  V30 41749 C 4202.46 -3.14513 -1.47306 0
M  V30 41750 C 4201.42 -4.17495 -0.942458 0
M  V30 41751 C 4200.74 -4.89953 -2.14127 0
M  V30 41752 C 4202.04 -5.22296 0.0207876 0
M  V30 41753 H 4203.74 -2.97993 0.289903 0
M  V30 41754 H 4201.28 -1.43309 0.140866 0
M  V30 41755 H 4203.24 -3.6859 -2.04253 0
M  V30 41756 H 4201.96 -2.44888 -2.16096 0
M  V30 41757 H 4200.62 -3.64463 -0.395232 0
M  V30 41758 H 4200.27 -4.16835 -2.81528 0
M  V30 41759 H 4199.97 -5.59588 -1.79264 0
M  V30 41760 H 4201.49 -5.46853 -2.71633 0
M  V30 41761 H 4202.91 -5.71466 -0.458265 0
M  V30 41762 H 4201.3 -5.99438 0.281823 0
M  V30 41763 H 4202.37 -4.75332 0.9585 0
M  V30 41764 N 4203.72 -0.165233 -1.56731 0
M  V30 41765 C 4204.99 0.527311 -1.88358 0
M  V30 41766 C 4205.37 1.81728 -1.07415 0
M  V30 41767 O 4204.72 2.27894 -0.166276 0
M  V30 41768 C 4204.93 0.775115 -3.40284 0
M  V30 41769 C 4206.28 1.10782 -4.09893 0
M  V30 41770 O 4207.3 0.86386 -3.45566 0
M  V30 41771 O 4206.16 1.56777 -5.23529 0
M  V30 41772 H 4203.26 0.271083 -0.781309 0
M  V30 41773 H 4205.8 -0.203213 -1.68479 0
M  V30 41774 H 4204.57 -0.137069 -3.9106 0
M  V30 41775 H 4204.2 1.55917 -3.65753 0
M  V30 41776 N 4205.19 1.57226 0.108512 0
M  V30 41777 C 4206.12 2.04137 1.13359 0
M  V30 41778 C 4207.11 0.927758 1.42572 0
M  V30 41779 O 4208.29 1.19816 1.52833 0
M  V30 41780 C 4205.42 2.45453 2.45703 0
M  V30 41781 C 4204.37 3.60355 2.30929 0
M  V30 41782 C 4203.7 3.87604 3.6833 0
M  V30 41783 C 4205 4.91716 1.76103 0
M  V30 41784 H 4206.69 2.90025 0.743359 0
M  V30 41785 H 4204.24 1.39527 0.356132 0
M  V30 41786 H 4206.19 2.76878 3.17674 0
M  V30 41787 H 4204.92 1.56549 2.86636 0
M  V30 41788 H 4203.58 3.29156 1.61406 0
M  V30 41789 H 4203.22 2.95888 4.06767 0
M  V30 41790 H 4202.92 4.64952 3.59295 0
M  V30 41791 H 4204.45 4.21491 4.41789 0
M  V30 41792 H 4205.86 5.21609 2.37901 0
M  V30 41793 H 4204.26 5.73136 1.77862 0
M  V30 41794 H 4205.33 4.79534 0.719386 0
M  V30 41795 N 4206.67 -0.378982 1.52975 0
M  V30 41796 C 4207.62 -1.46352 1.78465 0
M  V30 41797 C 4208.59 -1.53757 0.628335 0
M  V30 41798 O 4209.77 -1.69856 0.869114 0
M  V30 41799 C 4206.91 -2.83463 1.96832 0
M  V30 41800 C 4206.03 -2.8513 3.24538 0
M  V30 41801 C 4205.16 -4.13732 3.33165 0
M  V30 41802 C 4204.2 -4.0949 4.54956 0
M  V30 41803 N 4203.34 -5.29716 4.6081 0
M  V30 41804 H 4208.18 -1.23916 2.71014 0
M  V30 41805 H 4205.72 -0.600958 1.34264 0
M  V30 41806 H 4207.67 -3.63097 2.05466 0
M  V30 41807 H 4206.3 -3.04327 1.07633 0
M  V30 41808 H 4205.36 -1.97808 3.24925 0
M  V30 41809 H 4206.67 -2.77865 4.14237 0
M  V30 41810 H 4205.82 -5.01775 3.41037 0
M  V30 41811 H 4204.56 -4.23732 2.41458 0
M  V30 41812 H 4203.57 -3.19834 4.47198 0
M  V30 41813 H 4204.79 -4.01103 5.4799 0
M  V30 41814 H 4202.74 -5.40327 3.71999 0
M  V30 41815 H 4202.65 -5.24567 5.44395 0
M  V30 41816 H 4203.92 -6.19628 4.72949 0
M  V30 41817 N 4208.15 -1.44108 -0.638015 0
M  V30 41818 C 4209.39 -1.48045 -1.40933 0
M  V30 41819 C 4209.75 -0.107467 -1.91699 0
M  V30 41820 O 4210.96 -0.0215082 -2.68791 0
M  V30 41821 C 4209.23 -2.50589 -2.54833 0
M  V30 41822 S 4210.79 -2.7352 -3.43121 0
M  V30 41823 H 4207.6 -0.523709 -0.480884 0
M  V30 41824 H 4210.21 -1.80983 -0.739279 0
M  V30 41825 H 4208.91 -3.4906 -2.15837 0
M  V30 41826 H 4208.44 -2.192 -3.26673 0
M  V30 41827 H 4210.46 -2.04594 -4.52057 0
M  V30 41828 N 4209.63 0.877792 -1.30891 0
M  V30 41829 C 4210.87 1.63262 -1.20306 0
M  V30 41830 C 4211.21 1.9271 0.24008 0
M  V30 41831 O 4210.48 1.55315 1.17079 0
M  V30 41832 C 4210.77 2.96784 -2.03939 0
M  V30 41833 C 4210.62 2.74263 -3.56511 0
M  V30 41834 C 4211.94 3.97795 -1.88275 0
M  V30 41835 H 4209.06 0.592437 -0.438392 0
M  V30 41836 H 4211.7 1.01526 -1.606 0
M  V30 41837 H 4209.85 3.49475 -1.69704 0
M  V30 41838 H 4211.52 2.28305 -4.00842 0
M  V30 41839 H 4209.76 2.08636 -3.80333 0
M  V30 41840 H 4210.43 3.69237 -4.10327 0
M  V30 41841 H 4212.91 3.54287 -2.1822 0
M  V30 41842 H 4211.79 4.89119 -2.49107 0
M  V30 41843 H 4212.05 4.33971 -0.843878 0
M  V30 41844 N 4211.11 1.13725 1.09108 0
M  V30 41845 C 4212.35 0.902351 1.81619 0
M  V30 41846 C 4212.69 -0.569976 1.85647 0
M  V30 41847 O 4211.96 -1.42193 1.32708 0
M  V30 41848 C 4212.24 1.49498 3.27601 0
M  V30 41849 C 4212.1 3.03665 3.31825 0
M  V30 41850 C 4213.42 1.16588 4.24376 0
M  V30 41851 H 4210.53 0.329245 0.659369 0
M  V30 41852 H 4213.18 1.40606 1.27789 0
M  V30 41853 H 4211.33 1.0666 3.73572 0
M  V30 41854 H 4213 3.55281 2.94233 0
M  V30 41855 H 4211.24 3.38486 2.71311 0
M  V30 41856 H 4211.91 3.40232 4.3468 0
M  V30 41857 H 4214.39 1.53611 3.86708 0
M  V30 41858 H 4213.26 1.60697 5.2485 0
M  V30 41859 H 4213.53 0.080079 4.42027 0
M  V30 41860 N 4212.58 -1.27143 0.931254 0
M  V30 41861 C 4214 -1.76188 0.617638 0
M  V30 41862 C 4214.35 -1.75994 -0.867208 0
M  V30 41863 O 4213.47 -1.36569 -1.67862 0
M  V30 41864 C 4214.07 -3.19947 1.11442 0
M  V30 41865 C 4212.63 -3.66644 0.851402 0
M  V30 41866 C 4211.77 -2.46452 1.27109 0
M  V30 41867 H 4214.72 -1.1336 1.11064 0
M  V30 41868 H 4214.74 -3.77664 0.463704 0
M  V30 41869 H 4214.26 -3.20056 2.19513 0
M  V30 41870 H 4212.36 -3.71977 -0.215352 0
M  V30 41871 H 4212.47 -4.55945 1.47144 0
M  V30 41872 H 4210.83 -2.45187 0.689597 0
M  V30 41873 H 4211.62 -2.49268 2.36051 0
M  V30 41874 N 4214.06 -0.697157 -1.41342 0
M  V30 41875 C 4215.31 -0.228343 -2.00806 0
M  V30 41876 C 4215.63 1.17665 -1.55499 0
M  V30 41877 O 4214.9 1.79427 -0.786304 0
M  V30 41878 H 4213.48 -0.0814304 -0.742548 0
M  V30 41879 H 4216.14 -0.898671 -1.72945 0
M  V30 41880 H 4215.24 -0.247009 -3.11121 0
M  V30 41881 N 4215.54 1.51274 -0.44202 0
M  V30 41882 C 4216.47 2.2563 0.40293 0
M  V30 41883 C 4217.49 1.29827 0.982282 0
M  V30 41884 O 4218.68 1.55548 0.875625 0
M  V30 41885 C 4215.78 3.00019 1.57613 0
M  V30 41886 C 4214.95 4.22955 1.11482 0
M  V30 41887 C 4214.01 4.79883 2.15868 0
M  V30 41888 O 4213.03 5.41595 1.75111 0
M  V30 41889 N 4214.24 4.64325 3.484 0
M  V30 41890 H 4217 2.98782 -0.234375 0
M  V30 41891 H 4214.56 1.59613 -0.271167 0
M  V30 41892 H 4216.55 3.34989 2.27078 0
M  V30 41893 H 4215.12 2.29849 2.11869 0
M  V30 41894 H 4214.34 3.93425 0.247067 0
M  V30 41895 H 4215.63 5.02722 0.784062 0
M  V30 41896 H 4215.03 4.1518 3.84242 0
M  V30 41897 H 4213.59 5.03644 4.13746 0
M  V30 41898 N 4217.02 0.173543 1.56642 0
M  V30 41899 C 4217.98 -0.74197 2.16858 0
M  V30 41900 C 4218.98 -1.15648 1.11723 0
M  V30 41901 O 4220.17 -1.07308 1.37225 0
M  V30 41902 C 4217.3 -2.01021 2.75324 0
M  V30 41903 H 4218.5 -0.217717 2.99109 0
M  V30 41904 H 4216.05 -0.0760262 1.56115 0
M  V30 41905 H 4216.79 -2.5775 1.96813 0
M  V30 41906 H 4216.57 -1.72194 3.52267 0
M  V30 41907 H 4218.06 -2.66352 3.21631 0
M  V30 41908 N 4218.5 -1.57281 -0.100172 0
M  V30 41909 C 4219.45 -1.98134 -1.12814 0
M  V30 41910 C 4220.43 -0.859026 -1.3605 0
M  V30 41911 O 4221.62 -1.12283 -1.36826 0
M  V30 41912 C 4218.75 -2.40505 -2.44974 0
M  V30 41913 C 4217.84 -3.5941 -2.25134 0
M  V30 41914 N 4218.23 -4.74507 -1.75149 0
M  V30 41915 C 4216.53 -3.65409 -2.5572 0
M  V30 41916 C 4217.23 -5.5647 -1.6946 0
M  V30 41917 N 4216.2 -4.99495 -2.1449 0
M  V30 41918 H 4220.01 -2.84573 -0.734533 0
M  V30 41919 H 4217.52 -1.59459 -0.30767 0
M  V30 41920 H 4219.52 -2.67997 -3.19348 0
M  V30 41921 H 4218.18 -1.55439 -2.85077 0
M  V30 41922 H 4219.19 -4.97356 -1.4442 0
M  V30 41923 H 4215.87 -2.90994 -2.99381 0
M  V30 41924 H 4217.26 -6.58825 -1.31908 0
M  V30 41925 N 4219.98 0.370864 -1.53174 0
M  V30 41926 C 4220.94 1.43682 -1.78573 0
M  V30 41927 C 4221.94 1.46808 -0.656044 0
M  V30 41928 O 4223.13 1.47661 -0.924217 0
M  V30 41929 C 4220.26 2.8284 -1.903 0
M  V30 41930 H 4221.45 1.22437 -2.73768 0
M  V30 41931 H 4219.01 0.603687 -1.44171 0
M  V30 41932 H 4219.74 3.09406 -0.971526 0
M  V30 41933 H 4219.53 2.8197 -2.72461 0
M  V30 41934 H 4221.02 3.60044 -2.1156 0
M  V30 41935 N 4221.45 1.44444 0.630363 0
M  V30 41936 C 4222.39 1.47357 1.75552 0
M  V30 41937 C 4223.4 0.366874 1.58612 0
M  V30 41938 O 4224.59 0.632658 1.66912 0
M  V30 41939 C 4221.69 1.29255 3.13283 0
M  V30 41940 C 4220.86 2.53184 3.56674 0
M  V30 41941 C 4219.92 2.2997 4.73286 0
M  V30 41942 O 4218.95 3.03462 4.81559 0
M  V30 41943 N 4220.15 1.33078 5.6504 0
M  V30 41944 H 4222.91 2.44355 1.73524 0
M  V30 41945 H 4220.47 1.39893 0.814952 0
M  V30 41946 H 4222.47 1.11571 3.89017 0
M  V30 41947 H 4221.04 0.406181 3.0995 0
M  V30 41948 H 4220.26 2.8614 2.71141 0
M  V30 41949 H 4221.54 3.35612 3.82416 0
M  V30 41950 H 4220.94 0.723831 5.6105 0
M  V30 41951 H 4219.5 1.21373 6.404 0
M  V30 41952 N 4222.93 -0.870838 1.31355 0
M  V30 41953 C 4224.18 -1.62621 1.2117 0
M  V30 41954 C 4224.51 -1.92835 -0.229856 0
M  V30 41955 O 4223.79 -1.55933 -1.16254 0
M  V30 41956 C 4224.07 -2.95699 2.0551 0
M  V30 41957 C 4223.92 -2.72369 3.5796 0
M  V30 41958 C 4225.24 -3.96791 1.90382 0
M  V30 41959 H 4222.36 -0.590104 0.441528 0
M  V30 41960 H 4225 -1.00673 1.61136 0
M  V30 41961 H 4223.15 -3.4857 1.71555 0
M  V30 41962 H 4224.82 -2.26176 4.02047 0
M  V30 41963 H 4223.07 -2.06616 3.81434 0
M  V30 41964 H 4223.74 -3.67056 4.12279 0
M  V30 41965 H 4226.21 -3.53125 2.20096 0
M  V30 41966 H 4225.09 -4.87791 2.51697 0
M  V30 41967 H 4225.35 -4.33518 0.866881 0
M  V30 41968 N 4224.41 -1.14302 -1.08503 0
M  V30 41969 C 4225.64 -0.934102 -1.84614 0
M  V30 41970 C 4226.05 0.517371 -1.81573 0
M  V30 41971 O 4225.41 1.35846 -1.21869 0
M  V30 41972 C 4225.46 -1.42577 -3.32196 0
M  V30 41973 O 4225.18 -2.82037 -3.35242 0
M  V30 41974 C 4226.68 -1.25665 -4.25115 0
M  V30 41975 H 4223.9 -0.332485 -0.582834 0
M  V30 41976 H 4226.45 -1.5179 -1.37041 0
M  V30 41977 H 4224.6 -0.88476 -3.77161 0
M  V30 41978 H 4225.02 -3.04077 -4.27361 0
M  V30 41979 H 4226.49 -1.64928 -5.26785 0
M  V30 41980 H 4226.97 -0.199405 -4.38747 0
M  V30 41981 H 4227.57 -1.78615 -3.85975 0
M  V30 41982 N 4225.89 1.26648 -0.937984 0
M  V30 41983 C 4227.13 1.94526 -0.594233 0
M  V30 41984 C 4227.49 1.7227 0.856786 0
M  V30 41985 O 4226.78 1.04724 1.60448 0
M  V30 41986 C 4226.98 3.46686 -0.868539 0
M  V30 41987 C 4226.8 3.83739 -2.34467 0
M  V30 41988 C 4225.57 4.06661 -2.99925 0
M  V30 41989 C 4227.77 3.92537 -3.32293 0
M  V30 41990 N 4225.75 4.30573 -4.37584 0
M  V30 41991 C 4227.13 4.20945 -4.55198 0
M  V30 41992 C 4229.18 3.75152 -3.27361 0
M  V30 41993 C 4227.88 4.33776 -5.73787 0
M  V30 41994 C 4229.91 3.89214 -4.45271 0
M  V30 41995 C 4229.27 4.18017 -5.66958 0
M  V30 41996 H 4225.37 0.73473 -0.26776 0
M  V30 41997 H 4227.95 1.52794 -1.20673 0
M  V30 41998 H 4226.13 3.87352 -0.285116 0
M  V30 41999 H 4227.86 4.01767 -0.486379 0
M  V30 42000 H 4224.61 4.01894 -2.50555 0
M  V30 42001 H 4225.04 4.46568 -5.08829 0
M  V30 42002 H 4229.68 3.51915 -2.34341 0
M  V30 42003 H 4227.4 4.55836 -6.67263 0
M  V30 42004 H 4230.98 3.77169 -4.42984 0
M  V30 42005 H 4229.86 4.28659 -6.56674 0
M  V30 42006 N 4227.37 0.704643 1.4097 0
M  V30 42007 C 4228.32 0.0217286 2.2799 0
M  V30 42008 C 4229.3 -0.743673 1.42683 0
M  V30 42009 O 4230.49 -0.617674 1.65873 0
M  V30 42010 C 4227.62 -0.907315 3.31093 0
M  V30 42011 C 4226.71 -0.13768 4.23876 0
M  V30 42012 N 4227.1 0.873317 4.98204 0
M  V30 42013 C 4225.4 -0.371843 4.44447 0
M  V30 42014 C 4226.1 1.33481 5.66178 0
M  V30 42015 N 4225.07 0.659013 5.39591 0
M  V30 42016 H 4228.87 0.796748 2.82894 0
M  V30 42017 H 4226.39 0.536267 1.5329 0
M  V30 42018 H 4228.39 -1.41178 3.92268 0
M  V30 42019 H 4227.05 -1.68183 2.77749 0
M  V30 42020 H 4228.06 1.25384 5.02493 0
M  V30 42021 H 4224.73 -1.12354 4.02098 0
M  V30 42022 H 4226.12 2.17426 6.35748 0
M  V30 42023 N 4228.84 -1.51038 0.450036 0
M  V30 42024 C 4229.79 -2.28054 -0.354972 0
M  V30 42025 C 4230.76 -1.32188 -1.00576 0
M  V30 42026 O 4231.95 -1.61105 -1.02224 0
M  V30 42027 C 4229.09 -3.1348 -1.44305 0
M  V30 42028 C 4228.2 -4.24355 -0.809139 0
M  V30 42029 C 4227.33 -4.97071 -1.87334 0
M  V30 42030 C 4226.37 -5.99848 -1.21854 0
M  V30 42031 N 4225.51 -6.65923 -2.22465 0
M  V30 42032 H 4230.35 -2.96403 0.308136 0
M  V30 42033 H 4227.89 -1.46185 0.163803 0
M  V30 42034 H 4229.85 -3.61344 -2.08533 0
M  V30 42035 H 4228.48 -2.47221 -2.07562 0
M  V30 42036 H 4227.53 -3.8036 -0.0548269 0
M  V30 42037 H 4228.84 -4.97949 -0.291201 0
M  V30 42038 H 4227.99 -5.48547 -2.59193 0
M  V30 42039 H 4226.73 -4.23135 -2.42503 0
M  V30 42040 H 4225.74 -5.47653 -0.485464 0
M  V30 42041 H 4226.96 -6.75747 -0.674005 0
M  V30 42042 H 4224.91 -5.94792 -2.76691 0
M  V30 42043 H 4224.83 -7.35324 -1.75598 0
M  V30 42044 H 4226.09 -7.22025 -2.93769 0
M  V30 42045 N 4230.32 -0.181847 -1.56547 0
M  V30 42046 C 4231.74 0.174186 -1.58647 0
M  V30 42047 C 4231.94 1.6205 -1.19759 0
M  V30 42048 O 4230.99 2.35373 -0.914113 0
M  V30 42049 C 4232.31 -0.11617 -3.00476 0
M  V30 42050 C 4233.86 -0.0552194 -3.12951 0
M  V30 42051 C 4234.33 -0.318707 -4.5689 0
M  V30 42052 N 4235.82 -0.266854 -4.62431 0
M  V30 42053 C 4236.56 -0.444757 -5.71673 0
M  V30 42054 N 4236.05 -0.68229 -6.89432 0
M  V30 42055 N 4237.85 -0.379931 -5.60815 0
M  V30 42056 H 4230 -1.1258 -1.8011 0
M  V30 42057 H 4232.26 -0.448362 -0.83527 0
M  V30 42058 H 4231.97 -1.11848 -3.33441 0
M  V30 42059 H 4231.84 0.587379 -3.72599 0
M  V30 42060 H 4234.23 0.937685 -2.79806 0
M  V30 42061 H 4234.31 -0.791642 -2.43242 0
M  V30 42062 H 4233.95 -1.30887 -4.90745 0
M  V30 42063 H 4233.88 0.43845 -5.24772 0
M  V30 42064 H 4236.37 -0.0893381 -3.77794 0
M  V30 42065 H 4236.69 -0.807205 -7.68573 0
M  V30 42066 H 4235.03 -0.719029 -6.91271 0
M  V30 42067 H 4238.22 -0.194874 -4.67694 0
M  V30 42068 H 4238.39 -0.522 -6.45894 0
M  V30 42069 N 4231.8 1.57332 0.09183 0
M  V30 42070 C 4233.05 1.85886 0.793154 0
M  V30 42071 C 4233.37 0.771016 1.7911 0
M  V30 42072 O 4232.64 -0.202403 1.94852 0
M  V30 42073 H 4231.22 0.68589 0.295911 0
M  V30 42074 H 4233.88 1.94764 0.0726824 0
M  V30 42075 H 4232.98 2.82731 1.32173 0
M  V30 42076 N 4233.28 -0.362736 1.53369 0
M  V30 42077 C 4234.53 -1.10289 1.69354 0
M  V30 42078 C 4234.85 -1.89751 0.4494 0
M  V30 42079 O 4234.12 -1.88408 -0.536575 0
M  V30 42080 H 4232.7 -0.410151 0.624328 0
M  V30 42081 H 4235.36 -0.40866 1.90568 0
M  V30 42082 H 4234.46 -1.7911 2.55589 0
M  V30 42083 N 4234.76 -1.44777 -0.622694 0
M  V30 42084 C 4235.7 -1.52603 -1.75542 0
M  V30 42085 C 4236.7 -0.397085 -1.6468 0
M  V30 42086 O 4237.9 -0.572381 -1.70657 0
M  V30 42087 H 4234.28 -0.479029 -0.579686 0
M  V30 42088 H 4236.25 -2.47921 -1.66065 0
M  V30 42089 C 4235 -1.49547 -3.13896 0
M  V30 42090 H 4234.32 -2.35737 -3.22906 0
M  V30 42091 H 4235.76 -1.59083 -3.93025 0
M  V30 42092 C 4234.22 -0.217514 -3.36197 0
M  V30 42093 O 4234.75 0.708852 -3.95396 0
M  V30 42094 N 4232.96 -0.117975 -2.9036 0
M  V30 42095 H 4232.5 -0.872669 -2.42368 0
M  V30 42096 H 4232.46 0.736313 -3.05656 0
M  V30 42097 N 4236.23 0.863859 -1.31815 0
M  V30 42098 C 4237.16 1.98739 -1.22577 0
M  V30 42099 C 4238.15 1.69733 -0.111615 0
M  V30 42100 O 4239.33 1.91912 -0.297243 0
M  V30 42101 C 4236.46 3.34376 -0.938618 0
M  V30 42102 C 4235.41 3.77706 -2.01301 0
M  V30 42103 C 4234.74 5.10871 -1.57843 0
M  V30 42104 C 4236.04 3.94158 -3.42691 0
M  V30 42105 H 4237.73 2.06725 -2.16576 0
M  V30 42106 H 4235.28 0.993228 -1.04264 0
M  V30 42107 H 4237.23 4.12519 -0.860573 0
M  V30 42108 H 4235.96 3.26579 0.0370209 0
M  V30 42109 H 4234.62 3.01807 -2.08105 0
M  V30 42110 H 4234.26 4.99522 -0.590488 0
M  V30 42111 H 4233.96 5.40834 -2.29723 0
M  V30 42112 H 4235.49 5.91517 -1.51458 0
M  V30 42113 H 4236.9 4.62679 -3.38527 0
M  V30 42114 H 4235.3 4.35526 -4.1284 0
M  V30 42115 H 4236.37 2.97351 -3.83028 0
M  V30 42116 N 4237.71 1.14875 1.07895 0
M  V30 42117 C 4239.12 0.930462 1.61862 0
M  V30 42118 C 4239.47 -0.529525 1.88919 0
M  V30 42119 O 4238.6 -1.39951 1.65054 0
M  V30 42120 C 4239.19 1.68261 2.94064 0
M  V30 42121 C 4237.75 1.50975 3.44795 0
M  V30 42122 C 4236.9 1.70175 2.18942 0
M  V30 42123 H 4239.85 1.2998 0.910539 0
M  V30 42124 H 4239.87 1.14886 3.62742 0
M  V30 42125 H 4239.38 2.74517 2.7434 0
M  V30 42126 H 4237.49 0.470899 3.69612 0
M  V30 42127 H 4237.6 2.28313 4.21201 0
M  V30 42128 H 4235.96 1.12782 2.28369 0
M  V30 42129 H 4236.75 2.77785 2.01719 0
M  V30 42130 N 4239.19 -1.26148 0.944687 0
M  V30 42131 C 4240.15 -2.24504 0.461587 0
M  V30 42132 C 4241.15 -1.54965 -0.429249 0
M  V30 42133 O 4242.34 -1.72702 -0.227935 0
M  V30 42134 C 4239.48 -3.39257 -0.334303 0
M  V30 42135 H 4240.67 -2.68756 1.3308 0
M  V30 42136 H 4238.22 -1.38364 0.726992 0
M  V30 42137 H 4238.96 -3.00412 -1.22161 0
M  V30 42138 H 4238.74 -3.90915 0.304657 0
M  V30 42139 H 4240.23 -4.12318 -0.662109 0
M  V30 42140 N 4240.67 -0.712109 -1.40594 0
M  V30 42141 C 4242.08 -0.385313 -1.54879 0
M  V30 42142 C 4242.28 1.10623 -1.68418 0
M  V30 42143 O 4241.34 1.89225 -1.67183 0
M  V30 42144 C 4242.65 -1.14832 -2.7791 0
M  V30 42145 C 4244.2 -1.13429 -2.91724 0
M  V30 42146 C 4244.68 -1.87938 -4.17664 0
M  V30 42147 N 4246.17 -1.8499 -4.24656 0
M  V30 42148 C 4246.9 -2.39468 -5.21002 0
M  V30 42149 N 4246.4 -3.02487 -6.23276 0
M  V30 42150 N 4248.19 -2.2963 -5.13056 0
M  V30 42151 H 4240.34 -1.67929 -1.30052 0
M  V30 42152 H 4242.61 -0.709601 -0.628626 0
M  V30 42153 H 4242.31 -2.20279 -2.74171 0
M  V30 42154 H 4242.19 -0.737671 -3.69917 0
M  V30 42155 H 4244.57 -0.0880256 -2.94969 0
M  V30 42156 H 4244.65 -1.58413 -2.00845 0
M  V30 42157 H 4244.3 -2.92553 -4.15181 0
M  V30 42158 H 4244.23 -1.40376 -5.07545 0
M  V30 42159 H 4246.72 -1.39059 -3.51384 0
M  V30 42160 H 4247.03 -3.41582 -6.93211 0
M  V30 42161 H 4245.38 -3.0657 -6.2373 0
M  V30 42162 H 4248.57 -1.80057 -4.32085 0
M  V30 42163 H 4248.74 -2.72388 -5.8797 0
M  V30 42164 N 4242.15 1.50797 -0.45804 0
M  V30 42165 C 4243.1 2.2512 0.361242 0
M  V30 42166 C 4244.08 1.28176 0.972605 0
M  V30 42167 O 4245.27 1.53153 0.887316 0
M  V30 42168 C 4242.4 3.11168 1.45016 0
M  V30 42169 C 4241.49 4.15552 0.847171 0
M  V30 42170 N 4241.88 5.05794 -0.0247326 0
M  V30 42171 C 4240.18 4.31901 1.11254 0
M  V30 42172 C 4240.88 5.8055 -0.365589 0
M  V30 42173 N 4239.85 5.42997 0.255996 0
M  V30 42174 H 4243.66 2.92254 -0.310629 0
M  V30 42175 H 4241.17 1.60117 -0.271374 0
M  V30 42176 H 4243.17 3.63008 2.05015 0
M  V30 42177 H 4241.83 2.45581 2.12415 0
M  V30 42178 H 4242.84 5.16409 -0.392656 0
M  V30 42179 H 4239.51 3.77536 1.78249 0
M  V30 42180 H 4240.9 6.63222 -1.07636 0
M  V30 42181 N 4243.63 0.190147 1.56449 0
M  V30 42182 C 4244.56 -0.764469 2.16075 0
M  V30 42183 C 4245.57 -1.18032 1.12126 0
M  V30 42184 O 4246.76 -1.11691 1.39239 0
M  V30 42185 C 4243.86 -2.04302 2.70396 0
M  V30 42186 C 4243.03 -1.78775 3.99197 0
M  V30 42187 C 4242.09 -2.91029 4.38393 0
M  V30 42188 O 4241.12 -2.6085 5.05911 0
M  V30 42189 N 4242.32 -4.19268 4.01491 0
M  V30 42190 H 4245.08 -0.254599 2.98617 0
M  V30 42191 H 4242.65 0.00800778 1.61898 0
M  V30 42192 H 4244.64 -2.78529 2.93605 0
M  V30 42193 H 4243.21 -2.46425 1.92337 0
M  V30 42194 H 4242.43 -0.883534 3.84171 0
M  V30 42195 H 4243.72 -1.59111 4.83282 0
M  V30 42196 H 4243.11 -4.46641 3.47172 0
M  V30 42197 H 4241.67 -4.90138 4.29661 0
M  V30 42198 N 4245.1 -1.57379 -0.083485 0
M  V30 42199 C 4246.35 -1.86949 -0.785998 0
M  V30 42200 C 4246.68 -0.78086 -1.7781 0
M  V30 42201 O 4245.96 0.210041 -1.93363 0
M  V30 42202 C 4246.24 -3.27169 -1.50442 0
M  V30 42203 C 4246.09 -4.46672 -0.529522 0
M  V30 42204 C 4247.41 -3.65453 -2.45219 0
M  V30 42205 H 4244.53 -0.679965 -0.284282 0
M  V30 42206 H 4247.17 -1.89936 -0.0493897 0
M  V30 42207 H 4245.32 -3.24753 -2.13231 0
M  V30 42208 H 4247 -4.61208 0.0922653 0
M  V30 42209 H 4245.24 -4.33519 0.156145 0
M  V30 42210 H 4245.91 -5.41539 -1.06958 0
M  V30 42211 H 4248.39 -3.68887 -1.92514 0
M  V30 42212 H 4247.26 -4.64475 -2.92496 0
M  V30 42213 H 4247.52 -2.94757 -3.29501 0
M  V30 42214 N 4246.58 0.354597 -1.53559 0
M  V30 42215 C 4247.53 1.43532 -1.77152 0
M  V30 42216 C 4248.52 1.48208 -0.626359 0
M  V30 42217 O 4249.71 1.53264 -0.885393 0
M  V30 42218 C 4246.84 2.80823 -1.97468 0
M  V30 42219 C 4245.92 2.80582 -3.18017 0
M  V30 42220 N 4246.31 2.49978 -4.3971 0
M  V30 42221 C 4244.61 3.11736 -3.18962 0
M  V30 42222 C 4245.31 2.57693 -5.21507 0
M  V30 42223 N 4244.29 2.92859 -4.57968 0
M  V30 42224 H 4248.09 1.18751 -2.68841 0
M  V30 42225 H 4245.6 0.562874 -1.52333 0
M  V30 42226 H 4247.6 3.58677 -2.12501 0
M  V30 42227 H 4246.26 3.06559 -1.07014 0
M  V30 42228 H 4247.27 2.23374 -4.67252 0
M  V30 42229 H 4243.95 3.42715 -2.38438 0
M  V30 42230 H 4245.34 2.37285 -6.28606 0
M  V30 42231 N 4248.06 1.45105 0.615008 0
M  V30 42232 C 4249.31 1.4844 1.3715 0
M  V30 42233 C 4249.63 0.124543 1.94602 0
M  V30 42234 O 4248.9 -0.845191 1.7673 0
M  V30 42235 H 4247.48 0.54663 0.509121 0
M  V30 42236 H 4250.14 1.81005 0.722716 0
M  V30 42237 H 4249.24 2.21901 2.19468 0
M  V30 42238 N 4249.54 -0.856857 1.32271 0
M  V30 42239 C 4250.95 -1.4268 1.20414 0
M  V30 42240 C 4251.3 -1.95333 -0.184219 0
M  V30 42241 O 4250.42 -1.87361 -1.08281 0
M  V30 42242 C 4251.02 -2.59354 2.17993 0
M  V30 42243 C 4249.58 -3.12353 2.10029 0
M  V30 42244 C 4248.73 -1.85094 2.06484 0
M  V30 42245 H 4251.68 -0.664211 1.44132 0
M  V30 42246 H 4251.7 -3.36447 1.77718 0
M  V30 42247 H 4251.21 -2.21001 3.1903 0
M  V30 42248 H 4249.31 -3.55295 1.12233 0
M  V30 42249 H 4249.42 -3.73747 2.9975 0
M  V30 42250 H 4247.79 -2.04602 1.5169 0
M  V30 42251 H 4248.57 -1.48961 3.09298 0
M  V30 42252 N 4251.02 -1.15446 -1.07285 0
M  V30 42253 C 4251.95 -0.874818 -2.16493 0
M  V30 42254 C 4252.93 0.174853 -1.69199 0
M  V30 42255 O 4254.11 0.0290821 -1.94178 0
M  V30 42256 C 4251.24 -0.364079 -3.45386 0
M  V30 42257 C 4250.2 -1.3505 -4.06135 0
M  V30 42258 C 4249.52 -0.698583 -5.30117 0
M  V30 42259 C 4250.82 -2.71673 -4.46084 0
M  V30 42260 H 4252.52 -1.78806 -2.40143 0
M  V30 42261 H 4250.06 -0.861144 -1.15414 0
M  V30 42262 H 4252.01 -0.155984 -4.21111 0
M  V30 42263 H 4250.74 0.584633 -3.21325 0
M  V30 42264 H 4249.4 -1.54497 -3.32455 0
M  V30 42265 H 4249.05 0.256298 -5.02347 0
M  V30 42266 H 4248.75 -1.35689 -5.71719 0
M  V30 42267 H 4250.27 -0.500278 -6.08547 0
M  V30 42268 H 4251.68 -2.56068 -5.12935 0
M  V30 42269 H 4250.08 -3.33884 -4.98639 0
M  V30 42270 H 4251.15 -3.27686 -3.57421 0
M  V30 42271 N 4252.49 1.25646 -0.951364 0
M  V30 42272 C 4253.42 2.28366 -0.486938 0
M  V30 42273 C 4254.4 1.6362 0.465043 0
M  V30 42274 O 4255.59 1.90745 0.364703 0
M  V30 42275 C 4252.72 3.46476 0.239168 0
M  V30 42276 C 4251.67 4.23379 -0.627237 0
M  V30 42277 C 4251 5.34208 0.22942 0
M  V30 42278 C 4252.3 4.8637 -1.90371 0
M  V30 42279 H 4253.99 2.67465 -1.34547 0
M  V30 42280 H 4251.54 1.28576 -0.648405 0
M  V30 42281 H 4253.49 4.17456 0.575178 0
M  V30 42282 H 4252.22 3.06358 1.13192 0
M  V30 42283 H 4250.88 3.54177 -0.946285 0
M  V30 42284 H 4250.52 4.9033 1.12183 0
M  V30 42285 H 4250.22 5.86575 -0.346955 0
M  V30 42286 H 4251.75 6.08022 0.560471 0
M  V30 42287 H 4253.16 5.49512 -1.63431 0
M  V30 42288 H 4251.56 5.489 -2.42547 0
M  V30 42289 H 4252.63 4.08739 -2.60883 0
M  V30 42290 N 4253.97 0.719555 1.40215 0
M  V30 42291 C 4255.39 0.393522 1.54672 0
M  V30 42292 C 4255.59 -1.09729 1.69003 0
M  V30 42293 O 4254.64 -1.88336 1.68184 0
M  V30 42294 C 4255.96 1.16305 2.77297 0
M  V30 42295 C 4257.5 1.14974 2.91118 0
M  V30 42296 C 4257.98 1.90151 4.16661 0
M  V30 42297 N 4259.47 1.87239 4.23669 0
M  V30 42298 C 4260.21 2.42228 5.19724 0
M  V30 42299 N 4259.7 3.05789 6.21663 0
M  V30 42300 N 4261.49 2.32347 5.11831 0
M  V30 42301 H 4253.65 1.68617 1.2916 0
M  V30 42302 H 4255.91 0.712925 0.624854 0
M  V30 42303 H 4255.61 2.2173 2.72999 0
M  V30 42304 H 4255.49 0.757278 3.6952 0
M  V30 42305 H 4257.88 0.103667 2.94918 0
M  V30 42306 H 4257.96 1.59476 2.00002 0
M  V30 42307 H 4257.6 2.94751 4.13623 0
M  V30 42308 H 4257.53 1.43066 5.06794 0
M  V30 42309 H 4260.02 1.4092 3.50642 0
M  V30 42310 H 4260.33 3.45254 6.9139 0
M  V30 42311 H 4258.68 3.09874 6.22096 0
M  V30 42312 H 4261.87 1.82346 4.31124 0
M  V30 42313 H 4262.04 2.75503 5.86517 0
M  V30 42314 N 4255.45 -1.50552 0.466031 0
M  V30 42315 C 4256.38 -2.31286 -0.320762 0
M  V30 42316 C 4257.36 -1.37964 -0.994984 0
M  V30 42317 O 4258.55 -1.66885 -0.993128 0
M  V30 42318 C 4255.68 -3.17566 -1.40602 0
M  V30 42319 C 4254.63 -4.194 -0.853689 0
M  V30 42320 C 4253.96 -4.94385 -2.03686 0
M  V30 42321 C 4255.26 -5.22134 0.13157 0
M  V30 42322 H 4256.95 -2.97311 0.353047 0
M  V30 42323 H 4254.5 -1.42978 0.171232 0
M  V30 42324 H 4256.45 -3.7284 -1.96388 0
M  V30 42325 H 4255.17 -2.49417 -2.10853 0
M  V30 42326 H 4253.83 -3.6522 -0.317835 0
M  V30 42327 H 4253.48 -4.22713 -2.72623 0
M  V30 42328 H 4253.18 -5.63264 -1.67354 0
M  V30 42329 H 4254.7 -5.52492 -2.59972 0
M  V30 42330 H 4256.12 -5.72309 -0.336946 0
M  V30 42331 H 4254.51 -5.98705 0.40891 0
M  V30 42332 H 4255.58 -4.73192 1.05911 0
M  V30 42333 N 4256.93 -0.198441 -1.56346 0
M  V30 42334 C 4257.88 0.737752 -2.2059 0
M  V30 42335 C 4258.87 1.21727 -1.17809 0
M  V30 42336 O 4260.08 1.17977 -1.35946 0
M  V30 42337 H 4256.45 0.256269 -0.706987 0
M  V30 42338 H 4258.42 0.172232 -2.97903 0
M  V30 42339 C 4257.17 1.94529 -2.88191 0
M  V30 42340 H 4256.49 1.58539 -3.67022 0
M  V30 42341 H 4257.93 2.57863 -3.36575 0
M  V30 42342 C 4256.39 2.78616 -1.89406 0
M  V30 42343 O 4256.92 3.76646 -1.39644 0
M  V30 42344 N 4255.13 2.44178 -1.57562 0
M  V30 42345 H 4254.68 1.64518 -1.98221 0
M  V30 42346 H 4254.63 3.00723 -0.917231 0
M  V30 42347 N 4258.41 1.57421 0.0751377 0
M  V30 42348 C 4259.34 2.00179 1.11629 0
M  V30 42349 C 4260.35 0.907246 1.35177 0
M  V30 42350 O 4261.54 1.18517 1.33477 0
M  V30 42351 C 4258.64 2.3227 2.46788 0
M  V30 42352 C 4257.81 3.63528 2.43241 0
M  V30 42353 C 4256.87 3.83327 3.60482 0
M  V30 42354 O 4255.9 4.54952 3.42063 0
M  V30 42355 N 4257.1 3.25424 4.80707 0
M  V30 42356 H 4259.87 2.90107 0.752192 0
M  V30 42357 H 4257.43 1.59736 0.263839 0
M  V30 42358 H 4259.42 2.42691 3.23857 0
M  V30 42359 H 4257.99 1.48248 2.75211 0
M  V30 42360 H 4257.21 3.63892 1.5158 0
M  V30 42361 H 4258.5 4.4972 2.37969 0
M  V30 42362 H 4257.89 2.67282 4.98575 0
M  V30 42363 H 4256.45 3.413 5.553 0
M  V30 42364 N 4259.88 -0.346449 1.53745 0
M  V30 42365 C 4261.13 -1.08863 1.71104 0
M  V30 42366 C 4261.46 -1.88393 0.471343 0
M  V30 42367 O 4260.74 -1.87094 -0.531605 0
M  V30 42368 C 4261.02 -2.0322 2.97277 0
M  V30 42369 C 4260.87 -1.27171 4.31448 0
M  V30 42370 C 4262.19 -3.03079 3.1911 0
M  V30 42371 H 4259.31 -0.394376 0.622605 0
M  V30 42372 H 4261.95 -0.367481 1.86412 0
M  V30 42373 H 4260.1 -2.64714 2.84357 0
M  V30 42374 H 4261.78 -0.683145 4.56214 0
M  V30 42375 H 4260.02 -0.573698 4.2999 0
M  V30 42376 H 4260.69 -1.96333 5.15904 0
M  V30 42377 H 4263.17 -2.51698 3.31342 0
M  V30 42378 H 4262.04 -3.66306 4.08793 0
M  V30 42379 H 4262.3 -3.74299 2.35271 0
M  V30 42380 N 4261.36 -1.45429 -0.607304 0
M  V30 42381 C 4262.59 -1.53217 -1.39783 0
M  V30 42382 C 4263.01 -0.165717 -1.87369 0
M  V30 42383 O 4262.37 0.8497 -1.60156 0
M  V30 42384 C 4262.42 -2.52115 -2.57818 0
M  V30 42385 O 4261.52 -2.03916 -3.58458 0
M  V30 42386 H 4260.86 -0.516483 -0.417303 0
M  V30 42387 H 4263.39 -1.90785 -0.739067 0
M  V30 42388 H 4263.4 -2.7093 -3.05059 0
M  V30 42389 H 4262.08 -3.51358 -2.22532 0
M  V30 42390 H 4260.66 -1.94978 -3.17865 0
M  V30 42391 N 4262.84 0.84983 -1.32724 0
M  V30 42392 C 4264.25 1.42039 -1.21169 0
M  V30 42393 C 4264.6 1.95428 0.173858 0
M  V30 42394 O 4263.73 1.87933 1.07286 0
M  V30 42395 C 4264.32 2.58194 -2.19366 0
M  V30 42396 C 4262.88 3.11235 -2.11683 0
M  V30 42397 C 4262.03 1.83996 -2.07462 0
M  V30 42398 H 4264.98 0.656558 -1.44482 0
M  V30 42399 H 4265 3.355 -1.795 0
M  V30 42400 H 4264.51 2.19306 -3.20198 0
M  V30 42401 H 4262.61 3.54695 -1.14116 0
M  V30 42402 H 4262.73 3.72152 -3.01728 0
M  V30 42403 H 4261.09 2.03795 -1.52773 0
M  V30 42404 H 4261.87 1.47319 -3.10084 0
M  V30 42405 N 4264.32 1.16013 1.06671 0
M  V30 42406 C 4265.28 0.865723 2.12221 0
M  V30 42407 C 4266.28 -0.137593 1.6021 0
M  V30 42408 O 4267.47 0.0928523 1.73952 0
M  V30 42409 C 4264.6 0.293925 3.39631 0
M  V30 42410 H 4265.8 1.80138 2.39771 0
M  V30 42411 H 4263.35 0.968551 1.22673 0
M  V30 42412 H 4264.08 -0.6496 3.17727 0
M  V30 42413 H 4263.87 1.01683 3.78686 0
M  V30 42414 H 4265.36 0.105756 4.17466 0
M  V30 42415 N 4265.8 -1.25139 0.958014 0
M  V30 42416 C 4267.07 -1.8823 0.531868 0
M  V30 42417 C 4267.45 -1.86398 -0.990913 0
M  V30 42418 O 4266.8 -1.32986 -1.85814 0
M  V30 42419 C 4267.01 -3.30799 1.11235 0
M  V30 42420 C 4268.36 -4.07546 1.19128 0
M  V30 42421 O 4269.38 -3.39933 1.06415 0
M  V30 42422 O 4268.24 -5.28498 1.39112 0
M  V30 42423 H 4265.34 -0.808068 0.17594 0
M  V30 42424 H 4267.88 -1.33185 1.05166 0
M  V30 42425 H 4266.65 -3.2658 2.15548 0
M  V30 42426 H 4266.28 -3.93405 0.576011 0
M  V30 42427 N 4267.27 -0.726981 -1.39831 0
M  V30 42428 C 4268.5 -0.280045 -2.05501 0
M  V30 42429 C 4268.92 1.0738 -1.54438 0
M  V30 42430 O 4268.28 1.67876 -0.684645 0
M  V30 42431 C 4268.33 -0.282565 -3.59491 0
M  V30 42432 O 4267.43 0.732474 -4.05843 0
M  V30 42433 H 4266.78 -0.128948 -0.651359 0
M  V30 42434 H 4269.31 -0.990658 -1.79017 0
M  V30 42435 H 4269.32 -0.124176 -4.07811 0
M  V30 42436 H 4267.99 -1.27048 -3.9602 0
M  V30 42437 H 4266.57 0.540878 -3.68957 0
M  V30 42438 N 4268.75 1.50303 -0.474008 0
M  V30 42439 C 4270 2.01942 0.0798161 0
M  V30 42440 C 4270.32 1.35787 1.39953 0
M  V30 42441 O 4269.59 0.504175 1.89301 0
M  V30 42442 H 4268.17 0.746293 0.032487 0
M  V30 42443 H 4270.83 1.84604 -0.625096 0
M  V30 42444 H 4269.93 3.11257 0.229198 0
M  V30 42445 N 4270.23 0.20673 1.56238 0
M  V30 42446 C 4271.14 -0.721133 2.23242 0
M  V30 42447 C 4272.16 -1.2255 1.23522 0
M  V30 42448 O 4273.33 -1.27022 1.56293 0
M  V30 42449 C 4270.4 -1.91866 2.88771 0
M  V30 42450 C 4269.46 -1.45772 4.03793 0
M  V30 42451 C 4268.69 -2.59817 4.66188 0
M  V30 42452 O 4268.91 -3.77589 4.27531 0
M  V30 42453 O 4267.85 -2.31865 5.55448 0
M  V30 42454 H 4271.67 -0.180435 3.03164 0
M  V30 42455 H 4269.26 -0.0230774 1.49382 0
M  V30 42456 H 4271.14 -2.61831 3.30185 0
M  V30 42457 H 4269.82 -2.44774 2.1182 0
M  V30 42458 H 4268.72 -0.726522 3.66977 0
M  V30 42459 H 4270.06 -0.975184 4.82443 0
M  V30 42460 N 4271.71 -1.57458 -0.0667882 0
M  V30 42461 C 4272.94 -1.91446 -0.776654 0
M  V30 42462 C 4273.35 -0.801433 -1.71388 0
M  V30 42463 O 4272.69 0.233756 -1.82207 0
M  V30 42464 C 4272.75 -3.20942 -1.61976 0
M  V30 42465 C 4272.42 -4.49 -0.851374 0
M  V30 42466 C 4273.41 -5.19627 -0.168371 0
M  V30 42467 C 4271.1 -4.9561 -0.817066 0
M  V30 42468 C 4273.09 -6.3512 0.538655 0
M  V30 42469 C 4270.78 -6.11008 -0.106271 0
M  V30 42470 C 4271.78 -6.80614 0.570384 0
M  V30 42471 O 4271.46 -7.93809 1.26972 0
M  V30 42472 H 4271.2 -0.637214 -0.225686 0
M  V30 42473 H 4273.75 -2.05361 -0.0398266 0
M  V30 42474 H 4271.98 -3.0325 -2.39951 0
M  V30 42475 H 4273.67 -3.40542 -2.20876 0
M  V30 42476 H 4274.44 -4.84643 -0.186151 0
M  V30 42477 H 4270.31 -4.41301 -1.33321 0
M  V30 42478 H 4273.86 -6.89386 1.06737 0
M  V30 42479 H 4269.76 -6.45442 -0.0864362 0
M  V30 42480 H 4270.52 -8.09957 1.1795 0
M  V30 42481 N 4273.19 0.33829 -1.53926 0
M  V30 42482 C 4274.41 1.10227 -1.75684 0
M  V30 42483 C 4274.84 1.81412 -0.497119 0
M  V30 42484 O 4274.2 1.72739 0.550547 0
M  V30 42485 C 4274.24 2.08738 -2.94042 0
M  V30 42486 O 4273.35 3.16359 -2.64558 0
M  V30 42487 H 4272.69 0.318534 -0.582608 0
M  V30 42488 H 4275.22 0.387078 -2.00905 0
M  V30 42489 H 4275.23 2.51868 -3.20978 0
M  V30 42490 H 4273.9 1.56324 -3.85403 0
M  V30 42491 H 4272.48 2.78009 -2.48526 0
M  V30 42492 N 4274.67 1.45749 0.599583 0
M  V30 42493 C 4275.91 1.51729 1.36959 0
M  V30 42494 C 4276.27 0.158255 1.91347 0
M  V30 42495 O 4277.47 0.0927659 2.6864 0
M  V30 42496 C 4275.74 2.57257 2.48099 0
M  V30 42497 S 4277.3 2.82521 3.35749 0
M  V30 42498 H 4274.12 0.536275 0.46683 0
M  V30 42499 H 4276.72 1.8288 0.691035 0
M  V30 42500 H 4275.42 3.54659 2.06506 0
M  V30 42501 H 4274.96 2.27784 3.20746 0
M  V30 42502 H 4276.97 2.16508 4.46474 0
M  V30 42503 N 4276.14 -0.84278 1.33173 0
M  V30 42504 C 4277.08 -1.95927 1.18934 0
M  V30 42505 C 4278.09 -1.62348 0.121294 0
M  V30 42506 O 4279.28 -1.74594 0.371358 0
M  V30 42507 C 4276.38 -3.29301 0.80088 0
M  V30 42508 C 4275.55 -3.91041 1.95974 0
M  V30 42509 C 4274.61 -5.02764 1.55289 0
M  V30 42510 O 4273.64 -5.22122 2.26666 0
M  V30 42511 N 4274.84 -5.78709 0.455655 0
M  V30 42512 H 4277.6 -2.08679 2.15112 0
M  V30 42513 H 4275.16 -1.0183 1.25866 0
M  V30 42514 H 4277.16 -4.01462 0.51088 0
M  V30 42515 H 4275.73 -3.12521 -0.0700968 0
M  V30 42516 H 4274.95 -3.11518 2.41558 0
M  V30 42517 H 4276.23 -4.29024 2.73525 0
M  V30 42518 H 4275.63 -5.65531 -0.138162 0
M  V30 42519 H 4274.19 -6.5141 0.225311 0
M  V30 42520 N 4277.62 -1.16577 -1.06054 0
M  V30 42521 C 4278.87 -0.950187 -1.79163 0
M  V30 42522 C 4279.2 0.520555 -1.87093 0
M  V30 42523 O 4278.48 1.38624 -1.36432 0
M  V30 42524 C 4278.76 -1.58131 -3.23522 0
M  V30 42525 C 4278.61 -3.12356 -3.23657 0
M  V30 42526 C 4279.93 -1.27799 -4.21136 0
M  V30 42527 H 4277.05 -0.346611 -0.650407 0
M  V30 42528 H 4279.69 -1.43944 -1.24016 0
M  V30 42529 H 4277.84 -1.16527 -3.70613 0
M  V30 42530 H 4279.51 -3.62958 -2.8471 0
M  V30 42531 H 4277.76 -3.4556 -2.62242 0
M  V30 42532 H 4278.43 -3.51637 -4.25506 0
M  V30 42533 H 4280.9 -1.6381 -3.82499 0
M  V30 42534 H 4279.78 -1.74556 -5.20405 0
M  V30 42535 H 4280.04 -0.197247 -4.4166 0
M  V30 42536 N 4279.1 1.2463 -0.964637 0
M  V30 42537 C 4280.33 1.96676 -0.642362 0
M  V30 42538 C 4280.74 1.71588 0.787589 0
M  V30 42539 O 4280.1 0.997827 1.52806 0
M  V30 42540 C 4280.15 3.5002 -0.903774 0
M  V30 42541 O 4279.87 3.74248 -2.27751 0
M  V30 42542 C 4281.37 4.39285 -0.595264 0
M  V30 42543 H 4278.59 0.626632 -0.239944 0
M  V30 42544 H 4281.14 1.58538 -1.29174 0
M  V30 42545 H 4279.29 3.86232 -0.300657 0
M  V30 42546 H 4279.71 4.68648 -2.3552 0
M  V30 42547 H 4281.18 5.45745 -0.828648 0
M  V30 42548 H 4281.66 4.36673 0.470415 0
M  V30 42549 H 4282.26 4.08656 -1.17815 0
M  V30 42550 N 4280.58 0.734386 1.39444 0
M  V30 42551 C 4281.83 0.281503 2.0013 0
M  V30 42552 C 4282.15 -1.13501 1.58564 0
M  V30 42553 O 4281.42 -1.77279 0.833599 0
M  V30 42554 H 4280 0.101089 0.740128 0
M  V30 42555 H 4282.66 0.944208 1.70501 0
M  V30 42556 H 4281.75 0.32941 3.10357 0
M  V30 42557 N 4282.06 -1.50049 0.481972 0
M  V30 42558 C 4283.28 -2.07286 -0.0688449 0
M  V30 42559 C 4283.71 -1.34225 -1.31778 0
M  V30 42560 O 4283.06 -0.393166 -1.76986 0
M  V30 42561 C 4283.11 -3.59134 -0.324822 0
M  V30 42562 O 4282.22 -3.87792 -1.40326 0
M  V30 42563 H 4281.56 -0.663762 0.0177928 0
M  V30 42564 H 4284.09 -1.93105 0.676138 0
M  V30 42565 H 4284.1 -4.0411 -0.562064 0
M  V30 42566 H 4282.77 -4.11726 0.58777 0
M  V30 42567 H 4281.35 -3.54644 -1.15247 0
M  V30 42568 N 4283.53 -0.215012 -1.56126 0
M  V30 42569 C 4284.76 0.426551 -2.02966 0
M  V30 42570 C 4285.18 1.53019 -1.09393 0
M  V30 42571 O 4284.54 1.81119 -0.0809277 0
M  V30 42572 C 4284.59 0.941466 -3.48093 0
M  V30 42573 O 4283.69 2.05323 -3.57654 0
M  V30 42574 H 4283.03 0.0973515 -0.656825 0
M  V30 42575 H 4285.56 -0.331732 -2.01893 0
M  V30 42576 H 4285.57 1.25297 -3.88284 0
M  V30 42577 H 4284.25 0.133664 -4.15685 0
M  V30 42578 H 4282.83 1.74885 -3.29347 0
M  V30 42579 N 4285.01 1.57492 0.0584368 0
M  V30 42580 C 4286.26 1.87526 0.753547 0
M  V30 42581 C 4286.58 0.808834 1.77434 0
M  V30 42582 O 4285.85 -0.161027 1.95237 0
M  V30 42583 H 4284.43 0.692013 0.281296 0
M  V30 42584 H 4287.09 1.94875 0.0313536 0
M  V30 42585 H 4286.19 2.85471 1.26146 0
M  V30 42586 N 4286.49 -0.330122 1.54104 0
M  V30 42587 C 4287.72 -1.08854 1.7595 0
M  V30 42588 C 4288.13 -1.81921 0.504981 0
M  V30 42589 O 4287.49 -1.74815 -0.524022 0
M  V30 42590 C 4287.54 -2.0917 2.94839 0
M  V30 42591 O 4287.26 -1.39072 4.1544 0
M  V30 42592 C 4288.76 -2.97282 3.28844 0
M  V30 42593 H 4285.98 -0.324066 0.587556 0
M  V30 42594 H 4288.53 -0.378244 2.00972 0
M  V30 42595 H 4286.68 -2.75744 2.7211 0
M  V30 42596 H 4287.1 -2.06196 4.82269 0
M  V30 42597 H 4288.57 -3.63578 4.15349 0
M  V30 42598 H 4289.05 -3.64027 2.45726 0
M  V30 42599 H 4289.65 -2.36278 3.53628 0
M  V30 42600 N 4287.97 -1.46065 -0.591845 0
M  V30 42601 C 4288.9 -1.5879 -1.71196 0
M  V30 42602 C 4289.88 -0.438644 -1.64347 0
M  V30 42603 O 4291.06 -0.663757 -1.82505 0
M  V30 42604 C 4288.19 -1.56922 -3.09827 0
M  V30 42605 C 4287.15 -2.70725 -3.315 0
M  V30 42606 C 4286.47 -2.53915 -4.70565 0
M  V30 42607 C 4287.77 -4.12621 -3.20221 0
M  V30 42608 H 4289.47 -2.52553 -1.60803 0
M  V30 42609 H 4287.01 -1.21546 -0.772184 0
M  V30 42610 H 4288.97 -1.6442 -3.88 0
M  V30 42611 H 4287.69 -0.596985 -3.21098 0
M  V30 42612 H 4286.35 -2.62681 -2.55722 0
M  V30 42613 H 4286 -1.54795 -4.78589 0
M  V30 42614 H 4285.7 -3.30241 -4.86019 0
M  V30 42615 H 4287.22 -2.6329 -5.50918 0
M  V30 42616 H 4288.64 -4.21824 -3.88249 0
M  V30 42617 H 4287.03 -4.89461 -3.472 0
M  V30 42618 H 4288.1 -4.33419 -2.17429 0
M  V30 42619 N 4289.45 0.835705 -1.33618 0
M  V30 42620 C 4290.36 1.97778 -1.26178 0
M  V30 42621 C 4291.37 1.7315 -0.171767 0
M  V30 42622 O 4292.55 1.9747 -0.39593 0
M  V30 42623 C 4289.61 3.31836 -1.00427 0
M  V30 42624 C 4288.67 3.69559 -2.1846 0
M  V30 42625 C 4287.91 4.9722 -1.93928 0
M  V30 42626 O 4288.13 5.63395 -0.891164 0
M  V30 42627 O 4287.06 5.3252 -2.80546 0
M  V30 42628 H 4290.89 2.06996 -2.22231 0
M  V30 42629 H 4288.48 0.969208 -1.13696 0
M  V30 42630 H 4290.36 4.12153 -0.877945 0
M  V30 42631 H 4289.03 3.23615 -0.0740483 0
M  V30 42632 H 4287.94 2.89739 -2.36648 0
M  V30 42633 H 4289.27 3.8245 -3.09828 0
M  V30 42634 N 4290.92 1.17138 1.05434 0
M  V30 42635 C 4291.89 0.888183 2.11291 0
M  V30 42636 C 4292.89 -0.120593 1.60347 0
M  V30 42637 O 4294.08 0.111297 1.73844 0
M  V30 42638 C 4291.21 0.32993 3.393 0
M  V30 42639 H 4292.4 1.82671 2.37847 0
M  V30 42640 H 4289.96 0.981507 1.21639 0
M  V30 42641 H 4290.69 -0.615864 3.18398 0
M  V30 42642 H 4290.48 1.05694 3.77586 0
M  V30 42643 H 4291.97 0.150028 4.1733 0
M  V30 42644 N 4292.4 -1.24116 0.971232 0
M  V30 42645 C 4293.63 -1.96872 0.652392 0
M  V30 42646 C 4294.05 -1.7152 -0.772163 0
M  V30 42647 O 4293.41 -0.981078 -1.52462 0
M  V30 42648 C 4293.46 -3.48201 0.937449 0
M  V30 42649 O 4292.56 -4.12393 0.0247036 0
M  V30 42650 H 4291.9 -0.616636 0.246285 0
M  V30 42651 H 4294.43 -1.57798 1.30234 0
M  V30 42652 H 4294.44 -3.98607 0.870419 0
M  V30 42653 H 4293.12 -3.65981 1.97562 0
M  V30 42654 H 4291.7 -3.72617 0.145358 0
M  V30 42655 N 4293.88 -0.741771 -1.39052 0
M  V30 42656 C 4295.13 -0.293124 -2.0067 0
M  V30 42657 C 4295.46 1.11879 -1.58735 0
M  V30 42658 O 4294.73 1.76399 -0.819366 0
M  V30 42659 C 4295.02 -0.402636 -3.57842 0
M  V30 42660 C 4294.87 -1.85481 -4.09777 0
M  V30 42661 C 4296.19 0.210962 -4.39594 0
M  V30 42662 H 4293.31 -0.107983 -0.729046 0
M  V30 42663 H 4295.95 -0.939198 -1.65164 0
M  V30 42664 H 4294.1 0.147414 -3.8822 0
M  V30 42665 H 4295.77 -2.46226 -3.9009 0
M  V30 42666 H 4294.02 -2.37387 -3.63084 0
M  V30 42667 H 4294.69 -1.88266 -5.18902 0
M  V30 42668 H 4297.16 -0.25801 -4.15299 0
M  V30 42669 H 4296.04 0.104029 -5.48801 0
M  V30 42670 H 4296.3 1.29785 -4.22621 0
M  V30 42671 N 4295.36 1.49792 -0.489923 0
M  V30 42672 C 4296.29 2.31767 0.283925 0
M  V30 42673 C 4297.27 1.3953 0.972909 0
M  V30 42674 O 4298.45 1.68444 0.966453 0
M  V30 42675 C 4295.58 3.19763 1.35532 0
M  V30 42676 C 4294.54 4.20705 0.786858 0
M  V30 42677 C 4293.86 4.97563 1.95795 0
M  V30 42678 C 4295.16 5.21859 -0.21462 0
M  V30 42679 H 4296.86 2.96712 -0.400302 0
M  V30 42680 H 4294.4 1.42688 -0.193957 0
M  V30 42681 H 4296.36 3.75917 1.90432 0
M  V30 42682 H 4295.08 2.5274 2.06858 0
M  V30 42683 H 4293.74 3.65679 0.259691 0
M  V30 42684 H 4293.39 4.26996 2.65863 0
M  V30 42685 H 4293.09 5.65855 1.58371 0
M  V30 42686 H 4294.61 5.56558 2.51149 0
M  V30 42687 H 4296.03 5.72773 0.245854 0
M  V30 42688 H 4294.42 5.97979 -0.504107 0
M  V30 42689 H 4295.49 4.71447 -1.13426 0
M  V30 42690 N 4296.84 0.223289 1.5601 0
M  V30 42691 C 4298.08 -0.408546 1.98642 0
M  V30 42692 C 4298.42 -1.59292 1.11085 0
M  V30 42693 O 4297.69 -1.93765 0.168915 0
M  V30 42694 C 4297.97 -0.841412 3.50132 0
M  V30 42695 C 4297.83 0.346718 4.48462 0
M  V30 42696 C 4299.15 -1.69696 4.06068 0
M  V30 42697 H 4296.26 -0.147027 0.722186 0
M  V30 42698 H 4298.91 0.319872 1.87288 0
M  V30 42699 H 4297.06 -1.46207 3.59938 0
M  V30 42700 H 4298.73 0.984889 4.50664 0
M  V30 42701 H 4296.97 0.993862 4.22262 0
M  V30 42702 H 4297.64 0.000878897 5.52 0
M  V30 42703 H 4300.12 -1.17325 3.99217 0
M  V30 42704 H 4298.99 -1.96873 5.12379 0
M  V30 42705 H 4299.26 -2.66087 3.53058 0
M  V30 42706 N 4298.31 -1.5752 -0.0500839 0
M  V30 42707 C 4299.54 -1.92538 -0.757403 0
M  V30 42708 C 4299.96 -0.821235 -1.70003 0
M  V30 42709 O 4299.31 0.203951 -1.81357 0
M  V30 42710 C 4299.37 -3.27408 -1.53252 0
M  V30 42711 O 4299.09 -4.33579 -0.627751 0
M  V30 42712 C 4300.59 -3.76578 -2.33889 0
M  V30 42713 H 4297.81 -0.63592 -0.214119 0
M  V30 42714 H 4300.35 -2.04495 -0.0138741 0
M  V30 42715 H 4298.51 -3.16912 -2.22812 0
M  V30 42716 H 4298.92 -5.11305 -1.16909 0
M  V30 42717 H 4300.39 -4.73516 -2.83701 0
M  V30 42718 H 4300.87 -3.06691 -3.14384 0
M  V30 42719 H 4301.48 -3.90088 -1.69444 0
M  V30 42720 N 4299.79 0.321945 -1.54277 0
M  V30 42721 C 4301.04 1.05723 -1.71772 0
M  V30 42722 C 4301.35 1.89123 -0.499197 0
M  V30 42723 O 4302.56 2.65756 -0.555524 0
M  V30 42724 C 4301.02 1.92917 -3.03827 0
M  V30 42725 C 4300.62 1.14621 -4.33089 0
M  V30 42726 C 4302.37 2.66172 -3.30685 0
M  V30 42727 C 4300.28 2.00971 -5.56206 0
M  V30 42728 H 4299.21 0.398422 -0.640137 0
M  V30 42729 H 4301.86 0.315382 -1.80769 0
M  V30 42730 H 4300.24 2.71007 -2.8874 0
M  V30 42731 H 4301.41 0.412913 -4.58946 0
M  V30 42732 H 4299.73 0.530415 -4.13008 0
M  V30 42733 H 4302.32 3.31088 -4.19863 0
M  V30 42734 H 4302.67 3.33896 -2.48635 0
M  V30 42735 H 4303.2 1.95143 -3.46647 0
M  V30 42736 H 4299.94 1.37753 -6.40862 0
M  V30 42737 H 4299.46 2.7203 -5.34565 0
M  V30 42738 H 4301.14 2.59518 -5.92671 0
M  V30 42739 N 4301.27 1.46377 0.58409 0
M  V30 42740 C 4302.18 1.59418 1.72113 0
M  V30 42741 C 4303.2 0.477722 1.67314 0
M  V30 42742 O 4304.37 0.741653 1.87247 0
M  V30 42743 C 4301.44 1.57981 3.08615 0
M  V30 42744 C 4300.5 2.80848 3.24689 0
M  V30 42745 C 4299.73 2.7947 4.54678 0
M  V30 42746 O 4299.95 1.88136 5.3848 0
M  V30 42747 O 4298.89 3.70993 4.7397 0
M  V30 42748 H 4302.71 2.55575 1.64058 0
M  V30 42749 H 4300.3 1.29154 0.750972 0
M  V30 42750 H 4302.18 1.5987 3.89897 0
M  V30 42751 H 4300.86 0.649831 3.1711 0
M  V30 42752 H 4299.76 2.84513 2.42905 0
M  V30 42753 H 4301.1 3.7305 3.21083 0
M  V30 42754 N 4302.75 -0.828607 1.34059 0
M  V30 42755 C 4304.16 -1.40093 1.23413 0
M  V30 42756 C 4304.51 -1.9568 -0.142745 0
M  V30 42757 O 4303.64 -1.89616 -1.04283 0
M  V30 42758 C 4304.23 -2.54671 2.23446 0
M  V30 42759 C 4302.79 -3.07828 2.16608 0
M  V30 42760 C 4301.94 -1.80673 2.10363 0
M  V30 42761 H 4304.89 -0.633489 1.45508 0
M  V30 42762 H 4304.91 -3.32602 1.84815 0
M  V30 42763 H 4304.42 -2.14184 3.23646 0
M  V30 42764 H 4302.52 -3.52834 1.19744 0
M  V30 42765 H 4302.64 -3.67305 3.0761 0
M  V30 42766 H 4301 -2.01339 1.55996 0
M  V30 42767 H 4301.78 -1.42367 3.12388 0
M  V30 42768 N 4304.23 -1.17696 -1.04812 0
M  V30 42769 C 4305.45 -0.99294 -1.82086 0
M  V30 42770 C 4305.88 0.45399 -1.82539 0
M  V30 42771 O 4305.24 1.32527 -1.23718 0
M  V30 42772 C 4305.28 -1.54323 -3.25909 0
M  V30 42773 O 4304.39 -0.759557 -4.05345 0
M  V30 42774 H 4303.73 -0.352278 -0.562846 0
M  V30 42775 H 4306.26 -1.56281 -1.32051 0
M  V30 42776 H 4306.27 -1.56714 -3.76702 0
M  V30 42777 H 4304.94 -2.59647 -3.24894 0
M  V30 42778 H 4303.52 -0.807362 -3.64055 0
M  V30 42779 N 4305.71 1.23599 -0.977801 0
M  V30 42780 C 4306.93 1.96523 -0.662823 0
M  V30 42781 C 4307.36 1.71927 0.763056 0
M  V30 42782 O 4306.71 0.98915 1.51939 0
M  V30 42783 C 4306.76 3.47699 -0.955901 0
M  V30 42784 O 4305.87 4.12374 -0.0465734 0
M  V30 42785 H 4305.21 0.615321 -0.249552 0
M  V30 42786 H 4307.74 1.57105 -1.31069 0
M  V30 42787 H 4307.75 3.9814 -0.891545 0
M  V30 42788 H 4306.42 3.64928 -1.995 0
M  V30 42789 H 4305 3.72534 -0.165116 0
M  V30 42790 N 4307.18 0.749135 1.38657 0
M  V30 42791 C 4308.59 0.371556 1.82965 0
M  V30 42792 C 4308.95 -1.09915 1.62521 0
M  V30 42793 O 4308.07 -1.84921 1.12398 0
M  V30 42794 C 4308.67 0.667611 3.32157 0
M  V30 42795 C 4307.22 0.343363 3.74831 0
M  V30 42796 C 4306.37 0.92306 2.61486 0
M  V30 42797 H 4309.32 0.945647 1.27449 0
M  V30 42798 H 4309.34 -0.0557419 3.80459 0
M  V30 42799 H 4308.86 1.73807 3.47005 0
M  V30 42800 H 4306.96 -0.720695 3.65564 0
M  V30 42801 H 4307.07 0.835802 4.71753 0
M  V30 42802 H 4305.43 0.348731 2.52301 0
M  V30 42803 H 4306.22 1.99846 2.79135 0
M  V30 42804 N 4308.66 -1.4953 0.49786 0
M  V30 42805 C 4309.91 -2.02044 -0.0476787 0
M  V30 42806 C 4310.23 -1.37997 -1.37775 0
M  V30 42807 O 4309.5 -0.534227 -1.88475 0
M  V30 42808 H 4308.08 -0.746716 -0.02061 0
M  V30 42809 H 4310.74 -1.83586 0.654386 0
M  V30 42810 H 4309.84 -3.11583 -0.179651 0
M  V30 42811 N 4310.14 -0.23156 -1.5589 0
M  V30 42812 C 4311.55 0.274454 -1.84672 0
M  V30 42813 C 4311.9 1.58736 -1.15314 0
M  V30 42814 O 4311.03 2.12161 -0.426227 0
M  V30 42815 C 4311.62 0.504747 -3.35019 0
M  V30 42816 C 4310.18 0.955051 -3.64082 0
M  V30 42817 C 4309.33 0.0236742 -2.7729 0
M  V30 42818 H 4312.28 -0.454509 -1.52052 0
M  V30 42819 H 4312.3 1.34944 -3.55767 0
M  V30 42820 H 4311.81 -0.45097 -3.85471 0
M  V30 42821 H 4309.91 1.92377 -3.19095 0
M  V30 42822 H 4310.03 0.822532 -4.71986 0
M  V30 42823 H 4308.39 0.532286 -2.49076 0
M  V30 42824 H 4309.17 -0.92714 -3.30544 0
M  V30 42825 N 4311.62 1.57545 0.0417295 0
M  V30 42826 C 4312.87 1.87869 0.734042 0
M  V30 42827 C 4313.18 0.828383 1.77192 0
M  V30 42828 O 4314.39 1.02044 2.51594 0
M  V30 42829 C 4312.84 3.33354 1.35658 0
M  V30 42830 C 4312.45 4.46586 0.355701 0
M  V30 42831 C 4314.19 3.72842 2.0295 0
M  V30 42832 C 4312.1 5.83125 0.98586 0
M  V30 42833 H 4311.03 0.700915 0.277909 0
M  V30 42834 H 4313.68 1.83496 -0.0119619 0
M  V30 42835 H 4312.06 3.32432 2.15186 0
M  V30 42836 H 4313.24 4.58955 -0.411952 0
M  V30 42837 H 4311.55 4.15848 -0.214429 0
M  V30 42838 H 4314.15 4.72165 2.50927 0
M  V30 42839 H 4314.49 3.04181 2.84217 0
M  V30 42840 H 4315.03 3.75885 1.30214 0
M  V30 42841 H 4311.76 6.55154 0.212877 0
M  V30 42842 H 4311.28 5.745 1.72365 0
M  V30 42843 H 4312.96 6.29445 1.49694 0
M  V30 42844 N 4313.1 -0.313759 1.54445 0
M  V30 42845 C 4314.51 -0.887582 1.64252 0
M  V30 42846 C 4314.86 -1.88539 0.54291 0
M  V30 42847 O 4313.98 -2.13982 -0.322589 0
M  V30 42848 C 4314.58 -1.61663 2.97742 0
M  V30 42849 C 4313.14 -2.13904 3.09713 0
M  V30 42850 C 4312.28 -0.967572 2.59872 0
M  V30 42851 H 4315.23 -0.0910832 1.58438 0
M  V30 42852 H 4315.26 -2.48145 2.88451 0
M  V30 42853 H 4314.77 -0.890164 3.77753 0
M  V30 42854 H 4312.87 -2.89637 2.34396 0
M  V30 42855 H 4312.98 -2.38232 4.15671 0
M  V30 42856 H 4311.35 -1.34953 2.16009 0
M  V30 42857 H 4312.13 -0.255265 3.4235 0
M  V30 42858 N 4314.57 -1.46684 -0.576319 0
M  V30 42859 C 4315.54 -1.57306 -1.66695 0
M  V30 42860 C 4316.54 -0.449674 -1.54384 0
M  V30 42861 O 4317.73 -0.714178 -1.58887 0
M  V30 42862 C 4314.86 -1.49944 -3.06153 0
M  V30 42863 H 4316.05 -2.5451 -1.58634 0
M  V30 42864 H 4313.6 -1.3459 -0.794687 0
M  V30 42865 H 4314.34 -0.540435 -3.19765 0
M  V30 42866 H 4314.12 -2.31456 -3.16497 0
M  V30 42867 H 4315.61 -1.60475 -3.85535 0
M  V30 42868 N 4316.05 0.821486 -1.34497 0
M  V30 42869 C 4317.46 1.39437 -1.24154 0
M  V30 42870 C 4317.81 1.95753 0.132366 0
M  V30 42871 O 4316.94 1.90166 1.03276 0
M  V30 42872 C 4317.53 2.53483 -2.24793 0
M  V30 42873 C 4316.09 3.06675 -2.18237 0
M  V30 42874 C 4315.24 1.79554 -2.11318 0
M  V30 42875 H 4318.19 0.625763 -1.45842 0
M  V30 42876 H 4318.21 3.31617 -1.86576 0
M  V30 42877 H 4317.72 2.12465 -3.24777 0
M  V30 42878 H 4315.82 3.52194 -1.21614 0
M  V30 42879 H 4315.94 3.65668 -3.09554 0
M  V30 42880 H 4314.3 2.00509 -1.57062 0
M  V30 42881 H 4315.08 1.40709 -3.13139 0
M  V30 42882 N 4317.53 1.1825 1.04186 0
M  V30 42883 C 4318.78 0.975192 1.77015 0
M  V30 42884 C 4319.1 -0.496518 1.88573 0
M  V30 42885 O 4318.37 -1.36015 1.40985 0
M  V30 42886 H 4316.95 0.35783 0.655719 0
M  V30 42887 H 4319.61 1.4891 1.25745 0
M  V30 42888 H 4318.71 1.41218 2.78323 0
M  V30 42889 N 4319.01 -1.23079 0.984342 0
M  V30 42890 C 4319.94 -2.26995 0.547314 0
M  V30 42891 C 4320.92 -1.64795 -0.421499 0
M  V30 42892 O 4322.1 -1.91645 -0.314003 0
M  V30 42893 C 4319.23 -3.46988 -0.147222 0
M  V30 42894 C 4318.19 -4.21567 0.739268 0
M  V30 42895 C 4317.51 -5.34628 -0.0877041 0
M  V30 42896 C 4318.81 -4.81152 2.03199 0
M  V30 42897 H 4320.51 -2.63804 1.41591 0
M  V30 42898 H 4318.05 -1.26811 0.682267 0
M  V30 42899 H 4320.01 -4.18834 -0.464295 0
M  V30 42900 H 4318.73 -3.09251 -1.0503 0
M  V30 42901 H 4317.39 -3.51543 1.03986 0
M  V30 42902 H 4317.04 -4.93132 -0.991434 0
M  V30 42903 H 4316.74 -5.85449 0.502353 0
M  V30 42904 H 4318.26 -6.09295 -0.399067 0
M  V30 42905 H 4319.68 -5.44985 1.77943 0
M  V30 42906 H 4318.07 -5.42276 2.57015 0
M  V30 42907 H 4319.14 -4.01679 2.71629 0
M  V30 42908 N 4320.49 -0.756478 -1.38258 0
M  V30 42909 C 4321.45 -0.138932 -2.28779 0
M  V30 42910 C 4322.45 0.644423 -1.47322 0
M  V30 42911 O 4323.64 0.470263 -1.67732 0
M  V30 42912 C 4320.77 0.811477 -3.31101 0
M  V30 42913 H 4321.96 -0.936701 -2.84896 0
M  V30 42914 H 4319.52 -0.523676 -1.47266 0
M  V30 42915 H 4320.25 1.63482 -2.80079 0
M  V30 42916 H 4320.04 0.25213 -3.91289 0
M  V30 42917 H 4321.53 1.23946 -3.98782 0
M  V30 42918 N 4321.96 1.49264 -0.505783 0
M  V30 42919 C 4322.9 2.27136 0.30687 0
M  V30 42920 C 4323.91 1.33876 0.926334 0
M  V30 42921 O 4325.1 1.59121 0.808864 0
M  V30 42922 C 4322.2 3.06434 1.44746 0
M  V30 42923 C 4321.37 4.27302 0.934423 0
M  V30 42924 C 4320.43 4.88607 1.9532 0
M  V30 42925 O 4319.46 5.48534 1.51983 0
M  V30 42926 N 4320.66 4.78684 3.28393 0
M  V30 42927 H 4323.42 2.97519 -0.360888 0
M  V30 42928 H 4320.98 1.58319 -0.33862 0
M  V30 42929 H 4322.98 3.44319 2.12666 0
M  V30 42930 H 4321.55 2.38628 2.0193 0
M  V30 42931 H 4320.77 3.94119 0.0799799 0
M  V30 42932 H 4322.05 5.05596 0.570135 0
M  V30 42933 H 4321.45 4.31104 3.66287 0
M  V30 42934 H 4320.01 5.20739 3.92012 0
M  V30 42935 N 4323.44 0.239823 1.55765 0
M  V30 42936 C 4324.85 -0.264657 1.84815 0
M  V30 42937 C 4325.2 -1.58122 1.16154 0
M  V30 42938 O 4324.33 -2.11932 0.437472 0
M  V30 42939 C 4324.92 -0.486973 3.35282 0
M  V30 42940 C 4323.48 -0.935729 3.64583 0
M  V30 42941 C 4322.63 -0.00896854 2.77299 0
M  V30 42942 H 4325.58 0.462567 1.51809 0
M  V30 42943 H 4325.6 -1.33055 3.56478 0
M  V30 42944 H 4325.11 0.471406 3.85226 0
M  V30 42945 H 4323.22 -1.90682 3.20111 0
M  V30 42946 H 4323.33 -0.79749 4.72416 0
M  V30 42947 H 4321.69 -0.51907 2.49355 0
M  V30 42948 H 4322.48 0.944656 3.30047 0
M  V30 42949 N 4324.92 -1.57565 -0.0333739 0
M  V30 42950 C 4326.17 -1.88256 -0.724068 0
M  V30 42951 C 4326.48 -0.837769 -1.76751 0
M  V30 42952 O 4327.69 -1.03376 -2.51049 0
M  V30 42953 C 4326.14 -3.34069 -1.33888 0
M  V30 42954 C 4325.75 -4.46768 -0.332012 0
M  V30 42955 C 4327.5 -3.73914 -2.0097 0
M  V30 42956 C 4325.4 -5.8364 -0.954921 0
M  V30 42957 H 4324.33 -0.702379 -0.274188 0
M  V30 42958 H 4326.98 -1.83487 0.021693 0
M  V30 42959 H 4325.37 -3.33568 -2.1342 0
M  V30 42960 H 4326.54 -4.5873 0.436286 0
M  V30 42961 H 4324.86 -4.15728 0.23648 0
M  V30 42962 H 4327.45 -4.73489 -2.48419 0
M  V30 42963 H 4327.8 -3.05684 -2.826 0
M  V30 42964 H 4328.33 -3.7657 -1.28218 0
M  V30 42965 H 4325.07 -6.55258 -0.178129 0
M  V30 42966 H 4324.59 -5.75406 -1.69316 0
M  V30 42967 H 4326.27 -6.3023 -1.46353 0
M  V30 42968 N 4326.4 0.305564 -1.54609 0
M  V30 42969 C 4327.63 1.05887 -1.77402 0
M  V30 42970 C 4328.04 1.81585 -0.531359 0
M  V30 42971 O 4327.38 1.76529 0.50824 0
M  V30 42972 C 4327.44 2.08918 -2.92564 0
M  V30 42973 C 4327.11 1.52456 -4.3082 0
M  V30 42974 C 4328.1 0.956959 -5.11017 0
M  V30 42975 C 4325.79 1.56156 -4.7741 0
M  V30 42976 C 4327.78 0.433871 -6.35922 0
M  V30 42977 C 4325.47 1.03461 -6.02278 0
M  V30 42978 C 4326.47 0.471725 -6.81369 0
M  V30 42979 O 4326.15 -0.0472563 -8.03886 0
M  V30 42980 H 4325.89 0.320003 -0.595461 0
M  V30 42981 H 4328.44 0.351795 -2.02365 0
M  V30 42982 H 4326.67 2.83293 -2.63215 0
M  V30 42983 H 4328.36 2.70114 -3.02974 0
M  V30 42984 H 4329.13 0.921307 -4.76169 0
M  V30 42985 H 4325 1.98908 -4.15881 0
M  V30 42986 H 4328.55 -0.00612779 -6.976 0
M  V30 42987 H 4324.45 1.06739 -6.36614 0
M  V30 42988 H 4325.21 0.0664745 -8.18473 0
M  V30 42989 N 4327.88 1.46988 0.568532 0
M  V30 42990 C 4329.13 1.52294 1.32248 0
M  V30 42991 C 4329.44 0.185017 1.94723 0
M  V30 42992 O 4330.64 0.11598 2.71252 0
M  V30 42993 C 4329.1 2.68412 2.39756 0
M  V30 42994 C 4328.71 4.08686 1.83521 0
M  V30 42995 C 4330.45 2.83001 3.16403 0
M  V30 42996 C 4328.36 5.16122 2.88742 0
M  V30 42997 H 4327.29 0.566829 0.497213 0
M  V30 42998 H 4329.94 1.73235 0.605137 0
M  V30 42999 H 4328.32 2.40828 3.14353 0
M  V30 43000 H 4329.5 4.46123 1.15372 0
M  V30 43001 H 4327.81 3.98886 1.19495 0
M  V30 43002 H 4330.41 3.60436 3.94956 0
M  V30 43003 H 4330.75 1.91031 3.69882 0
M  V30 43004 H 4331.28 3.103 2.48915 0
M  V30 43005 H 4328.02 6.09932 2.40131 0
M  V30 43006 H 4327.54 4.83214 3.55336 0
M  V30 43007 H 4329.22 5.42582 3.52439 0
M  V30 43008 N 4329.35 -0.814342 1.3493 0
M  V30 43009 C 4330.26 -1.95746 1.29309 0
M  V30 43010 C 4331.28 -1.72855 0.199292 0
M  V30 43011 O 4332.46 -1.96815 0.427295 0
M  V30 43012 C 4329.52 -3.30197 1.05694 0
M  V30 43013 C 4328.58 -3.66036 2.24312 0
M  V30 43014 C 4327.82 -4.94072 2.01814 0
M  V30 43015 O 4328.04 -5.61906 0.980682 0
M  V30 43016 O 4326.97 -5.2799 2.88982 0
M  V30 43017 H 4330.8 -2.03434 2.25496 0
M  V30 43018 H 4328.38 -0.950997 1.15223 0
M  V30 43019 H 4330.27 -4.10704 0.943404 0
M  V30 43020 H 4328.94 -3.23457 0.125523 0
M  V30 43021 H 4327.85 -2.85938 2.41227 0
M  V30 43022 H 4329.18 -3.77472 3.15873 0
M  V30 43023 N 4330.83 -1.18801 -1.03557 0
M  V30 43024 C 4331.8 -0.921685 -2.09851 0
M  V30 43025 C 4332.8 0.0950678 -1.60519 0
M  V30 43026 O 4333.99 -0.13894 -1.73645 0
M  V30 43027 C 4331.12 -0.383868 -3.38732 0
M  V30 43028 H 4332.31 -1.86432 -2.34911 0
M  V30 43029 H 4329.86 -1.00073 -1.20062 0
M  V30 43030 H 4330.6 0.565132 -3.19338 0
M  V30 43031 H 4330.38 -1.11687 -3.75857 0
M  V30 43032 H 4331.87 -0.216402 -4.17039 0
M  V30 43033 N 4332.31 1.22555 -0.990855 0
M  V30 43034 C 4333.54 1.95809 -0.68363 0
M  V30 43035 C 4333.96 1.72727 0.744778 0
M  V30 43036 O 4333.32 1.00521 1.50882 0
M  V30 43037 C 4333.37 3.46666 -0.992726 0
M  V30 43038 O 4332.47 4.12301 -0.0903086 0
M  V30 43039 H 4331.81 0.612639 -0.256064 0
M  V30 43040 H 4334.34 1.55706 -1.32728 0
M  V30 43041 H 4334.35 3.97172 -0.933723 0
M  V30 43042 H 4333.03 3.62792 -2.0336 0
M  V30 43043 H 4331.6 3.72338 -0.204619 0
M  V30 43044 N 4333.79 0.763799 1.37855 0
M  V30 43045 C 4335.01 0.334431 2.04686 0
M  V30 43046 C 4335.44 -1.03247 1.57231 0
M  V30 43047 O 4334.8 -1.66002 0.728913 0
M  V30 43048 C 4334.85 0.377778 3.58616 0
M  V30 43049 O 4333.95 -0.624615 4.07642 0
M  V30 43050 H 4333.29 0.146172 0.647711 0
M  V30 43051 H 4335.82 1.03777 1.76328 0
M  V30 43052 H 4335.83 0.232256 4.07338 0
M  V30 43053 H 4334.51 1.37503 3.92512 0
M  V30 43054 H 4333.08 -0.442866 3.70261 0
M  V30 43055 N 4335.27 -1.48993 0.513692 0
M  V30 43056 C 4336.49 -2.07385 -0.0248611 0
M  V30 43057 C 4336.92 -1.3699 -1.28901 0
M  V30 43058 O 4336.28 -0.430619 -1.76112 0
M  V30 43059 C 4336.32 -3.59742 -0.248571 0
M  V30 43060 O 4335.43 -3.90681 -1.32069 0
M  V30 43061 H 4334.77 -0.663235 0.0318682 0
M  V30 43062 H 4337.3 -1.91627 0.716946 0
M  V30 43063 H 4337.31 -4.05211 -0.47622 0
M  V30 43064 H 4335.98 -4.10386 0.674971 0
M  V30 43065 H 4334.56 -3.57009 -1.07699 0
M  V30 43066 N 4336.75 -0.248081 -1.55635 0
M  V30 43067 C 4337.7 0.664918 -2.18089 0
M  V30 43068 C 4338.68 1.13834 -1.13713 0
M  V30 43069 O 4339.87 1.08791 -1.39619 0
M  V30 43070 C 4337 1.86102 -2.8848 0
M  V30 43071 C 4336.09 1.40604 -4.00114 0
M  V30 43072 N 4336.48 0.665373 -5.01404 0
M  V30 43073 C 4334.78 1.69123 -4.1269 0
M  V30 43074 C 4335.48 0.429665 -5.80111 0
M  V30 43075 N 4334.45 0.994221 -5.34431 0
M  V30 43076 H 4338.25 0.0908916 -2.93759 0
M  V30 43077 H 4335.77 -0.050448 -1.62322 0
M  V30 43078 H 4337.77 2.52611 -3.31652 0
M  V30 43079 H 4336.43 2.43926 -2.14313 0
M  V30 43080 H 4337.44 0.315366 -5.16939 0
M  V30 43081 H 4334.11 2.28077 -3.49696 0
M  V30 43082 H 4335.5 -0.161704 -6.71705 0
M  V30 43083 N 4338.22 1.5758 0.0250174 0
M  V30 43084 C 4339.47 1.89737 0.716072 0
M  V30 43085 C 4339.8 0.846314 1.74789 0
M  V30 43086 O 4339.08 -0.138131 1.94009 0
M  V30 43087 C 4339.36 3.32527 1.38195 0
M  V30 43088 C 4339.21 4.4833 0.363378 0
M  V30 43089 C 4340.53 3.74302 2.31487 0
M  V30 43090 H 4337.65 0.690048 0.25885 0
M  V30 43091 H 4340.29 1.89988 -0.0211377 0
M  V30 43092 H 4338.44 3.32443 2.01031 0
M  V30 43093 H 4340.12 4.60548 -0.263376 0
M  V30 43094 H 4338.36 4.32641 -0.316935 0
M  V30 43095 H 4339.03 5.45135 0.867852 0
M  V30 43096 H 4341.51 3.75778 1.78691 0
M  V30 43097 H 4340.38 4.75011 2.75056 0
M  V30 43098 H 4340.64 3.06783 3.18334 0
M  V30 43099 N 4339.7 -0.29736 1.54769 0
M  V30 43100 C 4340.93 -1.05098 1.78219 0
M  V30 43101 C 4341.34 -1.80809 0.543455 0
M  V30 43102 O 4340.7 -1.75887 -0.486824 0
M  V30 43103 C 4340.75 -2.02869 2.9921 0
M  V30 43104 O 4340.47 -1.30228 4.18297 0
M  V30 43105 C 4341.97 -2.90239 3.35076 0
M  V30 43106 H 4339.19 -0.31153 0.594298 0
M  V30 43107 H 4341.74 -0.33553 2.01729 0
M  V30 43108 H 4339.89 -2.6991 2.77898 0
M  V30 43109 H 4340.31 -1.9592 4.86534 0
M  V30 43110 H 4341.78 -3.54686 4.22968 0
M  V30 43111 H 4342.26 -3.58732 2.53392 0
M  V30 43112 H 4342.86 -2.28724 3.5856 0
M  V30 43113 N 4341.18 -1.47287 -0.560729 0
M  V30 43114 C 4342.09 -1.62136 -1.69555 0
M  V30 43115 C 4343.11 -0.504279 -1.66532 0
M  V30 43116 O 4344.28 -0.771348 -1.86043 0
M  V30 43117 C 4341.35 -1.62871 -3.06062 0
M  V30 43118 C 4340.41 -2.85978 -3.2018 0
M  V30 43119 C 4339.64 -2.86668 -4.50175 0
M  V30 43120 O 4339.86 -1.96679 -5.35419 0
M  V30 43121 O 4338.8 -3.78487 -4.68008 0
M  V30 43122 H 4342.62 -2.58153 -1.59971 0
M  V30 43123 H 4340.21 -1.30332 -0.73033 0
M  V30 43124 H 4342.09 -1.66053 -3.87304 0
M  V30 43125 H 4340.77 -0.700198 -3.16036 0
M  V30 43126 H 4339.67 -2.88342 -2.38348 0
M  V30 43127 H 4341.01 -3.78111 -3.15108 0
M  V30 43128 N 4342.66 0.807175 -1.3536 0
M  V30 43129 C 4343.91 1.56114 -1.28346 0
M  V30 43130 C 4344.23 1.94482 0.142047 0
M  V30 43131 O 4343.5 1.6355 1.07834 0
M  V30 43132 H 4342.08 0.578921 -0.47208 0
M  V30 43133 H 4344.74 0.962842 -1.69456 0
M  V30 43134 H 4343.83 2.47683 -1.89893 0
M  V30 43135 N 4344.14 1.19348 1.02926 0
M  V30 43136 C 4345.07 0.888633 2.11272 0
M  V30 43137 C 4346.08 -0.1185 1.62368 0
M  V30 43138 O 4347.27 0.110861 1.78155 0
M  V30 43139 C 4344.37 0.30847 3.37493 0
M  V30 43140 C 4343.54 1.36406 4.15586 0
M  V30 43141 C 4342.6 0.797512 5.20121 0
M  V30 43142 O 4341.63 1.47511 5.49754 0
M  V30 43143 N 4342.83 -0.399376 5.79125 0
M  V30 43144 H 4345.59 1.82124 2.38014 0
M  V30 43145 H 4343.16 1.09543 1.19214 0
M  V30 43146 H 4345.15 -0.084386 4.04612 0
M  V30 43147 H 4343.72 -0.528411 3.08102 0
M  V30 43148 H 4342.94 1.93178 3.43622 0
M  V30 43149 H 4344.23 2.07537 4.64549 0
M  V30 43150 H 4343.62 -0.967394 5.57367 0
M  V30 43151 H 4342.18 -0.734016 6.47654 0
M  V30 43152 N 4345.61 -1.22028 0.997341 0
M  V30 43153 C 4346.84 -1.94903 0.694281 0
M  V30 43154 C 4347.26 -1.73616 -0.741819 0
M  V30 43155 O 4346.61 -1.03799 -1.50107 0
M  V30 43156 C 4346.66 -3.47501 0.996257 0
M  V30 43157 O 4346.39 -3.68078 2.37593 0
M  V30 43158 C 4347.89 -4.37553 0.711523 0
M  V30 43159 H 4345.11 -0.62005 0.256473 0
M  V30 43160 H 4347.65 -1.55058 1.33332 0
M  V30 43161 H 4345.81 -3.85299 0.402953 0
M  V30 43162 H 4346.22 -4.62239 2.47862 0
M  V30 43163 H 4347.69 -5.43356 0.973051 0
M  V30 43164 H 4348.17 -4.37767 -0.354473 0
M  V30 43165 H 4348.78 -4.05389 1.28608 0
M  V30 43166 N 4347.09 -0.771099 -1.37448 0
M  V30 43167 C 4348.02 -0.170908 -2.32874 0
M  V30 43168 C 4349 0.683865 -1.55748 0
M  V30 43169 O 4350.19 0.62146 -1.83988 0
M  V30 43170 C 4347.32 0.709506 -3.39975 0
M  V30 43171 C 4346.27 -0.0439105 -4.27977 0
M  V30 43172 C 4345.6 0.955905 -5.26086 0
M  V30 43173 C 4346.9 -1.22254 -5.07791 0
M  V30 43174 H 4348.59 -0.968088 -2.83317 0
M  V30 43175 H 4346.14 -0.466976 -1.36218 0
M  V30 43176 H 4348.09 1.13919 -4.0571 0
M  V30 43177 H 4346.82 1.5392 -2.88056 0
M  V30 43178 H 4345.47 -0.454364 -3.63773 0
M  V30 43179 H 4345.12 1.78013 -4.70447 0
M  V30 43180 H 4344.82 0.456342 -5.85825 0
M  V30 43181 H 4346.35 1.38454 -5.94696 0
M  V30 43182 H 4347.76 -0.869536 -5.66667 0
M  V30 43183 H 4346.16 -1.65414 -5.76852 0
M  V30 43184 H 4347.23 -2.02696 -4.40503 0
M  V30 43185 N 4348.57 1.48719 -0.521586 0
M  V30 43186 C 4349.85 1.95438 0.079556 0
M  V30 43187 C 4350.23 1.46364 1.52121 0
M  V30 43188 O 4349.58 0.686415 2.17946 0
M  V30 43189 C 4349.79 3.48988 -0.0290224 0
M  V30 43190 C 4351.13 4.24387 0.134508 0
M  V30 43191 O 4352.16 3.56171 0.0451793 0
M  V30 43192 O 4351.02 5.45559 0.320524 0
M  V30 43193 H 4348.11 0.822728 0.0839479 0
M  V30 43194 H 4350.66 1.59276 -0.585588 0
M  V30 43195 H 4349.43 3.77402 -1.03359 0
M  V30 43196 H 4349.05 3.91822 0.675349 0
M  V30 43197 N 4350.05 0.256331 1.55501 0
M  V30 43198 C 4350.98 -0.633225 2.2475 0
M  V30 43199 C 4351.96 -1.17386 1.23104 0
M  V30 43200 O 4353.14 -1.21147 1.5178 0
M  V30 43201 C 4350.27 -1.82602 2.95421 0
M  V30 43202 C 4349.23 -1.41775 4.03836 0
M  V30 43203 C 4348.55 -2.69213 4.61983 0
M  V30 43204 C 4349.85 -0.581821 5.19049 0
M  V30 43205 H 4351.55 -0.0557681 2.99348 0
M  V30 43206 H 4349.09 -0.0253826 1.43978 0
M  V30 43207 H 4351.05 -2.45406 3.42569 0
M  V30 43208 H 4349.77 -2.42901 2.18327 0
M  V30 43209 H 4348.43 -0.813003 3.57471 0
M  V30 43210 H 4348.08 -3.2773 3.81578 0
M  V30 43211 H 4347.78 -2.42616 5.35174 0
M  V30 43212 H 4349.3 -3.32899 5.1187 0
M  V30 43213 H 4350.72 -1.11439 5.62365 0
M  V30 43214 H 4349.11 -0.411512 5.98687 0
M  V30 43215 H 4350.18 0.403804 4.83216 0
M  V30 43216 N 4351.53 -1.57591 -0.0166602 0
M  V30 43217 C 4352.47 -2.08466 -1.03173 0
M  V30 43218 C 4353.47 -1.00105 -1.36657 0
M  V30 43219 O 4354.67 -1.18584 -1.35417 0
M  V30 43220 H 4351.05 -0.665426 -0.350304 0
M  V30 43221 H 4353.02 -2.92769 -0.576945 0
M  V30 43222 C 4351.77 -2.58965 -2.32019 0
M  V30 43223 H 4351.09 -3.41969 -2.07117 0
M  V30 43224 H 4352.53 -2.98258 -3.0136 0
M  V30 43225 C 4350.99 -1.49634 -3.01846 0
M  V30 43226 O 4351.52 -0.869668 -3.92173 0
M  V30 43227 N 4349.73 -1.22785 -2.63386 0
M  V30 43228 H 4349.27 -1.73929 -1.90017 0
M  V30 43229 H 4349.23 -0.498491 -3.10423 0
M  V30 43230 N 4353 0.289148 -1.54925 0
M  V30 43231 C 4354.24 1.03069 -1.76511 0
M  V30 43232 C 4354.61 1.84077 -0.545865 0
M  V30 43233 O 4355.81 2.61078 -0.639679 0
M  V30 43234 C 4354.08 1.90305 -3.02521 0
M  V30 43235 S 4355.64 2.70943 -3.4516 0
M  V30 43236 H 4352.46 0.347414 -0.620342 0
M  V30 43237 H 4355.06 0.302808 -1.93141 0
M  V30 43238 H 4353.76 1.29688 -3.8937 0
M  V30 43239 H 4353.29 2.67441 -2.88512 0
M  V30 43240 H 4355.31 3.9282 -3.03162 0
M  V30 43241 N 4354.48 1.47583 0.55291 0
M  V30 43242 C 4355.73 1.54657 1.31183 0
M  V30 43243 C 4356.06 0.20998 1.93061 0
M  V30 43244 O 4355.34 -0.781823 1.78095 0
M  V30 43245 C 4355.62 2.66781 2.41868 0
M  V30 43246 C 4355.47 4.10071 1.8483 0
M  V30 43247 C 4356.79 2.7479 3.43771 0
M  V30 43248 H 4353.91 0.562996 0.47561 0
M  V30 43249 H 4356.55 1.79658 0.618303 0
M  V30 43250 H 4354.7 2.45594 3.01025 0
M  V30 43251 H 4356.37 4.42632 1.29901 0
M  V30 43252 H 4354.62 4.18146 1.15482 0
M  V30 43253 H 4355.29 4.84304 2.64865 0
M  V30 43254 H 4357.76 2.93915 2.94539 0
M  V30 43255 H 4356.64 3.5501 4.18639 0
M  V30 43256 H 4356.9 1.8202 4.02891 0
M  V30 43257 N 4355.96 -0.799985 1.35787 0
M  V30 43258 C 4357.21 -1.5597 1.2962 0
M  V30 43259 C 4357.54 -1.93782 -0.127316 0
M  V30 43260 O 4356.81 -1.61877 -1.07825 0
M  V30 43261 C 4357.1 -2.84389 2.20895 0
M  V30 43262 C 4356.95 -2.53011 3.71894 0
M  V30 43263 C 4358.27 -3.86141 2.11147 0
M  V30 43264 H 4355.39 -0.56587 0.472187 0
M  V30 43265 H 4358.03 -0.919903 1.66246 0
M  V30 43266 H 4356.18 -3.38987 1.8979 0
M  V30 43267 H 4357.85 -2.04546 4.13471 0
M  V30 43268 H 4356.1 -1.86107 3.9185 0
M  V30 43269 H 4356.77 -3.44686 4.31156 0
M  V30 43270 H 4359.24 -3.40962 2.38504 0
M  V30 43271 H 4358.12 -4.73763 2.772 0
M  V30 43272 H 4358.38 -4.28313 1.09546 0
M  V30 43273 N 4357.44 -1.19892 -1.02292 0
M  V30 43274 C 4358.85 -1.00663 -1.57238 0
M  V30 43275 C 4359.2 0.438786 -1.91231 0
M  V30 43276 O 4358.33 1.31916 -1.71543 0
M  V30 43277 C 4358.92 -1.82099 -2.85701 0
M  V30 43278 C 4357.48 -1.67254 -3.37199 0
M  V30 43279 C 4356.63 -1.80427 -2.10574 0
M  V30 43280 H 4359.58 -1.34177 -0.847487 0
M  V30 43281 H 4359.6 -1.32062 -3.56847 0
M  V30 43282 H 4359.11 -2.87293 -2.6093 0
M  V30 43283 H 4357.21 -0.64671 -3.66945 0
M  V30 43284 H 4357.32 -2.48149 -4.09828 0
M  V30 43285 H 4355.69 -1.23549 -2.22728 0
M  V30 43286 H 4356.47 -2.87093 -1.88236 0
M  V30 43287 N 4358.92 1.21498 -1.0038 0
M  V30 43288 C 4360.16 1.90157 -0.684459 0
M  V30 43289 C 4360.49 1.78409 0.787101 0
M  V30 43290 O 4359.76 1.17822 1.56508 0
M  V30 43291 H 4358.34 0.703862 -0.250176 0
M  V30 43292 H 4361 1.47613 -1.27265 0
M  V30 43293 H 4360.09 2.9708 -0.956565 0
M  V30 43294 N 4360.39 0.778378 1.37037 0
M  V30 43295 C 4361.33 0.127285 2.28846 0
M  V30 43296 C 4362.34 -0.657044 1.48952 0
M  V30 43297 O 4363.53 -0.494045 1.71527 0
M  V30 43298 C 4360.63 -0.84317 3.28244 0
M  V30 43299 C 4359.8 -0.11125 4.37258 0
M  V30 43300 C 4358.86 -0.996034 5.16687 0
M  V30 43301 O 4357.89 -0.457354 5.6736 0
M  V30 43302 N 4359.09 -2.32158 5.32056 0
M  V30 43303 H 4361.85 0.915867 2.85363 0
M  V30 43304 H 4359.41 0.631308 1.49084 0
M  V30 43305 H 4361.41 -1.43866 3.78265 0
M  V30 43306 H 4359.98 -1.53269 2.72447 0
M  V30 43307 H 4359.2 0.665219 3.88547 0
M  V30 43308 H 4360.48 0.394244 5.0727 0
M  V30 43309 H 4359.88 -2.7835 4.92481 0
M  V30 43310 H 4358.44 -2.86697 5.85361 0
M  V30 43311 N 4361.87 -1.4844 0.529465 0
M  V30 43312 C 4362.84 -2.28114 -0.222844 0
M  V30 43313 C 4363.84 -1.35345 -0.868244 0
M  V30 43314 O 4365.03 -1.58241 -0.728375 0
M  V30 43315 C 4362.16 -3.14204 -1.32244 0
M  V30 43316 H 4363.35 -2.96088 0.476668 0
M  V30 43317 H 4360.9 -1.53672 0.285387 0
M  V30 43318 H 4361.64 -2.50861 -2.05522 0
M  V30 43319 H 4361.42 -3.82445 -0.864786 0
M  V30 43320 H 4362.91 -3.74306 -1.85161 0
M  V30 43321 N 4363.35 -0.264574 -1.55363 0
M  V30 43322 C 4364.3 0.641749 -2.18782 0
M  V30 43323 C 4365.29 1.12622 -1.14914 0
M  V30 43324 O 4366.48 1.07305 -1.40765 0
M  V30 43325 C 4363.61 1.83032 -2.90438 0
M  V30 43326 C 4362.69 1.36353 -4.01583 0
M  V30 43327 N 4363.08 0.612155 -5.02082 0
M  V30 43328 C 4361.38 1.64736 -4.14461 0
M  V30 43329 C 4362.08 0.368112 -5.80534 0
M  V30 43330 N 4361.06 0.937481 -5.35455 0
M  V30 43331 H 4364.86 0.0597294 -2.93839 0
M  V30 43332 H 4362.37 -0.0676615 -1.62259 0
M  V30 43333 H 4364.37 2.49079 -3.34313 0
M  V30 43334 H 4363.03 2.41639 -2.16888 0
M  V30 43335 H 4364.04 0.26052 -5.17244 0
M  V30 43336 H 4360.72 2.24355 -3.52095 0
M  V30 43337 H 4362.11 -0.232938 -6.71496 0
M  V30 43338 N 4364.83 1.57598 0.00830251 0
M  V30 43339 C 4365.79 2.06852 0.987164 0
M  V30 43340 C 4366.79 0.976373 1.27764 0
M  V30 43341 O 4367.98 1.23931 1.22421 0
M  V30 43342 C 4365.11 2.50298 2.31438 0
M  V30 43343 H 4366.31 2.94601 0.561287 0
M  V30 43344 H 4363.86 1.54196 0.255598 0
M  V30 43345 H 4364.6 1.65768 2.78732 0
M  V30 43346 H 4364.38 3.30053 2.11678 0
M  V30 43347 H 4365.87 2.8876 3.01675 0
M  V30 43348 N 4366.31 -0.280928 1.55076 0
M  V30 43349 C 4367.24 -1.36916 1.83811 0
M  V30 43350 C 4368.25 -1.45907 0.722141 0
M  V30 43351 O 4369.44 -1.47866 0.999894 0
M  V30 43352 C 4366.54 -2.75116 1.979 0
M  V30 43353 C 4365.71 -2.88813 3.2849 0
M  V30 43354 C 4364.77 -4.07638 3.32743 0
M  V30 43355 O 4363.8 -3.98771 4.06166 0
M  V30 43356 N 4365 -5.19231 2.59575 0
M  V30 43357 H 4367.77 -1.12614 2.77738 0
M  V30 43358 H 4365.33 -0.471036 1.54896 0
M  V30 43359 H 4367.32 -3.52886 1.98125 0
M  V30 43360 H 4365.89 -2.92276 1.10877 0
M  V30 43361 H 4365.11 -1.97991 3.40871 0
M  V30 43362 H 4366.4 -2.9489 4.14629 0
M  V30 43363 H 4365.8 -5.2932 1.99591 0
M  V30 43364 H 4364.35 -5.95262 2.65531 0
M  V30 43365 N 4367.79 -1.47874 -0.545076 0
M  V30 43366 C 4369.03 -1.55351 -1.30361 0
M  V30 43367 C 4369.36 -0.220216 -1.92947 0
M  V30 43368 O 4368.64 0.772367 -1.78507 0
M  V30 43369 C 4368.92 -2.6806 -2.4045 0
M  V30 43370 C 4368.78 -4.11045 -1.82653 0
M  V30 43371 C 4370.09 -2.76609 -3.42309 0
M  V30 43372 H 4367.21 -0.56551 -0.472618 0
M  V30 43373 H 4369.86 -1.79983 -0.608767 0
M  V30 43374 H 4368.01 -2.47187 -2.99718 0
M  V30 43375 H 4369.68 -4.43315 -1.27552 0
M  V30 43376 H 4367.92 -4.18753 -1.13263 0
M  V30 43377 H 4368.59 -4.85702 -2.62293 0
M  V30 43378 H 4371.07 -2.95473 -2.92976 0
M  V30 43379 H 4369.94 -3.57225 -4.16751 0
M  V30 43380 H 4370.2 -1.84154 -4.0192 0
M  V30 43381 N 4369.26 0.792773 -1.36209 0
M  V30 43382 C 4370.49 1.58153 -1.33399 0
M  V30 43383 C 4370.91 1.88606 0.0855024 0
M  V30 43384 O 4370.26 1.49867 1.04144 0
M  V30 43385 C 4370.31 2.90454 -2.15218 0
M  V30 43386 O 4370.04 2.61315 -3.51634 0
M  V30 43387 C 4371.54 3.84771 -2.2015 0
M  V30 43388 H 4368.76 0.490644 -0.457722 0
M  V30 43389 H 4371.3 0.98419 -1.79259 0
M  V30 43390 H 4369.46 3.46666 -1.72921 0
M  V30 43391 H 4369.87 3.45886 -3.94288 0
M  V30 43392 H 4371.34 4.74672 -2.81763 0
M  V30 43393 H 4371.82 4.22374 -1.20403 0
M  V30 43394 H 4372.43 3.34493 -2.62669 0
M  V30 43395 N 4370.74 1.20433 1.01654 0
M  V30 43396 C 4371.99 1.02607 1.75623 0
M  V30 43397 C 4372.34 -0.437217 1.87366 0
M  V30 43398 O 4371.64 -1.32032 1.38846 0
M  V30 43399 C 4371.83 1.64327 3.17382 0
M  V30 43400 C 4371.66 3.16506 3.19459 0
M  V30 43401 C 4370.43 3.85482 3.26698 0
M  V30 43402 C 4372.63 4.1373 3.05503 0
M  V30 43403 N 4370.61 5.24949 3.18279 0
M  V30 43404 C 4371.98 5.39874 3.04855 0
M  V30 43405 C 4374.03 4.04928 2.8972 0
M  V30 43406 C 4372.74 6.58231 2.90043 0
M  V30 43407 C 4374.76 5.22909 2.76261 0
M  V30 43408 C 4374.13 6.47958 2.76279 0
M  V30 43409 H 4370.22 0.429701 0.653361 0
M  V30 43410 H 4372.81 1.52605 1.20913 0
M  V30 43411 H 4370.98 1.16913 3.70386 0
M  V30 43412 H 4372.71 1.39817 3.79781 0
M  V30 43413 H 4369.47 3.36341 3.33424 0
M  V30 43414 H 4369.89 5.97962 3.17444 0
M  V30 43415 H 4374.53 3.09057 2.88519 0
M  V30 43416 H 4372.25 7.54275 2.89992 0
M  V30 43417 H 4375.84 5.1791 2.65066 0
M  V30 43418 H 4374.72 7.37714 2.65983 0
M  V30 43419 N 4372.22 -1.20963 1.01023 0
M  V30 43420 C 4373.45 -1.93875 0.713877 0
M  V30 43421 C 4373.86 -1.74617 -0.728389 0
M  V30 43422 O 4373.2 -1.05327 -1.50506 0
M  V30 43423 C 4373.26 -3.46398 0.961705 0
M  V30 43424 C 4372.93 -3.8941 2.39184 0
M  V30 43425 C 4373.92 -3.95689 3.37233 0
M  V30 43426 C 4371.61 -4.21578 2.73088 0
M  V30 43427 C 4373.6 -4.33537 4.67252 0
M  V30 43428 C 4371.29 -4.59102 4.03322 0
M  V30 43429 C 4372.29 -4.65053 5.00215 0
M  V30 43430 O 4371.98 -5.01719 6.28119 0
M  V30 43431 H 4371.71 -0.623212 0.261882 0
M  V30 43432 H 4374.26 -1.54582 1.35254 0
M  V30 43433 H 4372.49 -3.85785 0.265878 0
M  V30 43434 H 4374.18 -4.00532 0.65793 0
M  V30 43435 H 4374.95 -3.71008 3.12375 0
M  V30 43436 H 4370.83 -4.16141 1.98362 0
M  V30 43437 H 4374.37 -4.38096 5.42879 0
M  V30 43438 H 4370.27 -4.83238 4.27962 0
M  V30 43439 H 4371.03 -5.19734 6.32313 0
M  V30 43440 N 4373.7 -0.785634 -1.36622 0
M  V30 43441 C 4374.64 -0.179534 -2.30101 0
M  V30 43442 C 4375.61 0.674459 -1.5179 0
M  V30 43443 O 4376.8 0.623928 -1.8031 0
M  V30 43444 C 4373.94 0.682678 -3.3828 0
M  V30 43445 C 4373.05 -0.189441 -4.31584 0
M  V30 43446 C 4372.19 0.678786 -5.26845 0
M  V30 43447 C 4371.23 -0.19502 -6.11789 0
M  V30 43448 N 4370.36 0.631973 -6.9925 0
M  V30 43449 H 4375.2 -0.982169 -2.81349 0
M  V30 43450 H 4372.74 -0.495917 -1.38489 0
M  V30 43451 H 4374.7 1.19752 -3.99644 0
M  V30 43452 H 4373.33 1.45078 -2.88361 0
M  V30 43453 H 4372.38 -0.822222 -3.71408 0
M  V30 43454 H 4373.69 -0.862882 -4.9128 0
M  V30 43455 H 4372.85 1.25959 -5.93481 0
M  V30 43456 H 4371.59 1.38587 -4.67595 0
M  V30 43457 H 4370.59 -0.788251 -5.4412 0
M  V30 43458 H 4371.82 -0.899642 -6.73115 0
M  V30 43459 H 4369.76 1.32341 -6.42512 0
M  V30 43460 H 4369.68 0.0161317 -7.55998 0
M  V30 43461 H 4370.95 1.19672 -7.70259 0
M  V30 43462 N 4375.18 1.48157 -0.53733 0
M  V30 43463 C 4376.59 1.58396 -0.195691 0
M  V30 43464 C 4376.79 1.53846 1.3013 0
M  V30 43465 O 4375.85 1.43138 2.08009 0
M  V30 43466 C 4377.16 2.89732 -0.804735 0
M  V30 43467 C 4378.71 3.03276 -0.774139 0
M  V30 43468 C 4379.18 4.37283 -1.36189 0
M  V30 43469 N 4380.67 4.43869 -1.32419 0
M  V30 43470 C 4381.41 5.46082 -1.74878 0
M  V30 43471 N 4380.91 6.55211 -2.25102 0
M  V30 43472 N 4382.7 5.37008 -1.6607 0
M  V30 43473 H 4374.85 1.49357 -1.51017 0
M  V30 43474 H 4377.11 0.709626 -0.628597 0
M  V30 43475 H 4376.82 2.98739 -1.85602 0
M  V30 43476 H 4376.69 3.76113 -0.286105 0
M  V30 43477 H 4379.08 2.93877 0.268398 0
M  V30 43478 H 4379.16 2.18486 -1.33032 0
M  V30 43479 H 4378.8 4.47436 -2.4034 0
M  V30 43480 H 4378.73 5.20771 -0.78133 0
M  V30 43481 H 4381.23 3.65592 -0.956608 0
M  V30 43482 H 4381.54 7.2935 -2.55475 0
M  V30 43483 H 4379.88 6.56154 -2.291 0
M  V30 43484 H 4383.07 4.50648 -1.26626 0
M  V30 43485 H 4383.25 6.16532 -1.99481 0
M  V30 43486 N 4376.65 0.272809 1.55221 0
M  V30 43487 C 4377.9 -0.343951 1.99152 0
M  V30 43488 C 4378.22 -1.56551 1.16261 0
M  V30 43489 O 4377.49 -1.94278 0.251574 0
M  V30 43490 H 4376.07 -0.130074 0.735588 0
M  V30 43491 H 4378.74 0.37761 1.91207 0
M  V30 43492 H 4377.83 -0.635398 3.05564 0
M  V30 43493 N 4378.13 -1.576 5.54043e-05 0
M  V30 43494 C 4379.38 -1.90194 -0.683429 0
M  V30 43495 C 4379.7 -0.874131 -1.7431 0
M  V30 43496 O 4378.97 0.088455 -1.957 0
M  V30 43497 H 4377.55 -0.701976 -0.255418 0
M  V30 43498 H 4380.21 -1.94857 0.0409945 0
M  V30 43499 H 4379.31 -2.89956 -1.15464 0
M  V30 43500 N 4379.61 0.2727 -1.55223 0
M  V30 43501 C 4380.84 1.02676 -1.80201 0
M  V30 43502 C 4381.26 1.7914 -0.573614 0
M  V30 43503 O 4380.62 1.74918 0.476787 0
M  V30 43504 C 4380.67 1.96079 -3.02631 0
M  V30 43505 O 4379.77 3.04854 -2.77737 0
M  V30 43506 H 4379.11 0.293537 -0.595594 0
M  V30 43507 H 4381.64 0.301519 -2.02366 0
M  V30 43508 H 4381.65 2.38027 -3.31372 0
M  V30 43509 H 4380.33 1.39837 -3.91687 0
M  V30 43510 H 4378.9 2.67218 -2.60094 0
M  V30 43511 N 4381.09 1.48161 0.537226 0
M  V30 43512 C 4382.02 1.65034 1.65184 0
M  V30 43513 C 4383 0.499338 1.62606 0
M  V30 43514 O 4384.18 0.731035 1.79915 0
M  V30 43515 C 4381.31 1.68313 3.03789 0
M  V30 43516 C 4380.27 2.82842 3.21224 0
M  V30 43517 C 4379.59 2.71205 4.60817 0
M  V30 43518 C 4380.89 4.24221 3.04686 0
M  V30 43519 H 4382.59 2.58347 1.51318 0
M  V30 43520 H 4380.13 1.24328 0.726541 0
M  V30 43521 H 4382.09 1.78707 3.81631 0
M  V30 43522 H 4380.81 0.715747 3.18661 0
M  V30 43523 H 4379.47 2.71991 2.45797 0
M  V30 43524 H 4379.12 1.72451 4.72514 0
M  V30 43525 H 4378.82 3.48051 4.73428 0
M  V30 43526 H 4380.34 2.83556 5.40767 0
M  V30 43527 H 4381.76 4.35943 3.72326 0
M  V30 43528 H 4380.15 5.0201 3.28795 0
M  V30 43529 H 4381.22 4.41191 2.01194 0
M  V30 43530 N 4382.57 -0.785538 1.36627 0
M  V30 43531 C 4383.98 -1.36096 1.27807 0
M  V30 43532 C 4384.33 -1.96035 -0.0804186 0
M  V30 43533 O 4383.45 -1.92837 -0.981974 0
M  V30 43534 C 4384.05 -2.47434 2.31435 0
M  V30 43535 C 4382.61 -3.00781 2.26291 0
M  V30 43536 C 4381.75 -1.73889 2.16005 0
M  V30 43537 H 4384.71 -0.586876 1.4745 0
M  V30 43538 H 4384.73 -3.26554 1.95302 0
M  V30 43539 H 4384.24 -2.03779 3.30296 0
M  V30 43540 H 4382.34 -3.48846 1.30909 0
M  V30 43541 H 4382.45 -3.57332 3.1914 0
M  V30 43542 H 4380.82 -1.96274 1.62322 0
M  V30 43543 H 4381.6 -1.32357 3.16759 0
M  V30 43544 N 4384.04 -1.20971 -1.01014 0
M  V30 43545 C 4385.01 -0.965991 -2.07849 0
M  V30 43546 C 4386.01 0.060998 -1.60684 0
M  V30 43547 O 4387.2 -0.175741 -1.73311 0
M  V30 43548 C 4384.33 -0.455632 -3.37841 0
M  V30 43549 H 4385.52 -1.91373 -2.30904 0
M  V30 43550 H 4383.08 -1.02598 -1.17913 0
M  V30 43551 H 4383.81 0.497268 -3.20465 0
M  V30 43552 H 4383.6 -1.19635 -3.73403 0
M  V30 43553 H 4385.09 -0.304814 -4.16486 0
M  V30 43554 N 4385.52 1.20426 -1.01663 0
M  V30 43555 C 4386.94 1.4185 -0.731492 0
M  V30 43556 C 4387.14 1.8936 0.688832 0
M  V30 43557 O 4386.19 2.06252 1.45659 0
M  V30 43558 C 4387.51 2.44013 -1.75722 0
M  V30 43559 C 4389.06 2.57779 -1.77536 0
M  V30 43560 C 4389.53 3.63184 -2.79036 0
M  V30 43561 N 4391.02 3.70668 -2.77776 0
M  V30 43562 C 4391.76 4.51885 -3.5297 0
M  V30 43563 N 4391.25 5.36906 -4.3784 0
M  V30 43564 N 4393.05 4.46418 -3.41567 0
M  V30 43565 H 4385.2 0.879025 -1.93357 0
M  V30 43566 H 4387.46 0.448396 -0.835251 0
M  V30 43567 H 4387.17 2.16101 -2.77477 0
M  V30 43568 H 4387.04 3.43001 -1.5694 0
M  V30 43569 H 4389.43 2.85021 -0.764669 0
M  V30 43570 H 4389.51 1.58985 -2.00393 0
M  V30 43571 H 4389.15 3.36686 -3.8027 0
M  V30 43572 H 4389.08 4.616 -2.53441 0
M  V30 43573 H 4391.57 3.09937 -2.16212 0
M  V30 43574 H 4391.89 5.95963 -4.91983 0
M  V30 43575 H 4390.23 5.36408 -4.41918 0
M  V30 43576 H 4393.42 3.79032 -2.74686 0
M  V30 43577 H 4393.59 5.09477 -4.00422 0
M  V30 43578 N 4387 0.792868 1.36203 0
M  V30 43579 C 4387.95 0.166678 2.2739 0
M  V30 43580 C 4388.93 -0.651427 1.47123 0
M  V30 43581 O 4390.13 -0.510934 1.69465 0
M  V30 43582 C 4387.26 -0.694915 3.36193 0
M  V30 43583 C 4386.34 0.132168 4.23894 0
M  V30 43584 N 4386.73 1.18839 4.91641 0
M  V30 43585 C 4385.03 -0.0884385 4.45912 0
M  V30 43586 C 4385.73 1.69218 5.56543 0
M  V30 43587 N 4384.71 1.00084 5.34307 0
M  V30 43588 H 4388.51 0.975045 2.77255 0
M  V30 43589 H 4386.02 0.632669 1.4957 0
M  V30 43590 H 4388.02 -1.15946 4.00452 0
M  V30 43591 H 4386.68 -1.50179 2.87883 0
M  V30 43592 H 4387.69 1.57087 4.93502 0
M  V30 43593 H 4384.37 -0.865544 4.08429 0
M  V30 43594 H 4385.76 2.57417 6.20634 0
M  V30 43595 N 4388.48 -1.4787 0.54518 0
M  V30 43596 C 4389.41 -2.2787 -0.246541 0
M  V30 43597 C 4390.42 -1.36285 -0.890513 0
M  V30 43598 O 4391.61 -1.6121 -0.766392 0
M  V30 43599 C 4388.71 -3.10164 -1.36571 0
M  V30 43600 C 4387.89 -4.2963 -0.820803 0
M  V30 43601 C 4386.94 -4.93613 -1.82297 0
M  V30 43602 O 4385.97 -5.52371 -1.37386 0
M  V30 43603 N 4387.17 -4.87222 -3.15586 0
M  V30 43604 H 4389.94 -2.96458 0.439643 0
M  V30 43605 H 4387.5 -1.57366 0.380476 0
M  V30 43606 H 4389.49 -3.49836 -2.03462 0
M  V30 43607 H 4388.06 -2.43898 -1.95532 0
M  V30 43608 H 4387.28 -3.94192 0.0245418 0
M  V30 43609 H 4388.57 -5.06929 -0.435884 0
M  V30 43610 H 4387.97 -4.40664 -3.54728 0
M  V30 43611 H 4386.52 -5.3095 -3.78068 0
M  V30 43612 N 4389.96 -0.281037 -1.55074 0
M  V30 43613 C 4391.18 0.337221 -2.04133 0
M  V30 43614 C 4391.6 1.49026 -1.15917 0
M  V30 43615 O 4390.96 1.81605 -0.180522 0
M  V30 43616 C 4391.01 0.812582 -3.52249 0
M  V30 43617 O 4390.73 -0.294541 -4.37109 0
M  V30 43618 C 4392.23 1.49805 -4.17221 0
M  V30 43619 H 4389.45 0.0761404 -0.666666 0
M  V30 43620 H 4391.99 -0.414857 -2.00248 0
M  V30 43621 H 4390.15 1.51473 -3.56559 0
M  V30 43622 H 4390.56 0.0719481 -5.24451 0
M  V30 43623 H 4392.04 1.78202 -5.22444 0
M  V30 43624 H 4392.51 2.43155 -3.65749 0
M  V30 43625 H 4393.12 0.839596 -4.1693 0
M  V30 43626 N 4391.44 1.57598 -0.00841331 0
M  V30 43627 C 4392.39 2.05434 0.988973 0
M  V30 43628 C 4393.37 0.950707 1.29809 0
M  V30 43629 O 4394.56 1.21442 1.28766 0
M  V30 43630 C 4391.69 2.56809 2.27824 0
M  V30 43631 C 4390.78 3.74065 1.9984 0
M  V30 43632 N 4391.17 4.85445 1.42045 0
M  V30 43633 C 4389.47 3.82157 2.2994 0
M  V30 43634 C 4390.17 5.66821 1.30723 0
M  V30 43635 N 4389.14 5.13084 1.79572 0
M  V30 43636 H 4392.94 2.88957 0.536752 0
M  V30 43637 H 4390.46 1.612 0.197091 0
M  V30 43638 H 4392.46 2.8936 3.00127 0
M  V30 43639 H 4391.12 1.74708 2.73692 0
M  V30 43640 H 4392.13 5.06124 1.09815 0
M  V30 43641 H 4388.8 3.10926 2.78624 0
M  V30 43642 H 4390.19 6.66346 0.862094 0
M  V30 43643 N 4392.91 -0.264465 1.55365 0
M  V30 43644 C 4394.16 -0.992959 1.76025 0
M  V30 43645 C 4394.48 -1.86509 0.569165 0
M  V30 43646 O 4393.75 -1.91439 -0.415668 0
M  V30 43647 H 4392.33 -0.369616 0.649148 0
M  V30 43648 H 4394.99 -0.286639 1.92781 0
M  V30 43649 H 4394.09 -1.62493 2.66463 0
M  V30 43650 N 4394.39 -1.48444 -0.529361 0
M  V30 43651 C 4395.62 -1.60411 -1.31465 0
M  V30 43652 C 4396.04 -0.264804 -1.86227 0
M  V30 43653 O 4395.4 0.76361 -1.64434 0
M  V30 43654 C 4395.45 -2.65427 -2.44092 0
M  V30 43655 O 4394.55 -2.2263 -3.47145 0
M  V30 43656 H 4393.89 -0.537877 -0.389338 0
M  V30 43657 H 4396.42 -1.94435 -0.636897 0
M  V30 43658 H 4396.43 -2.8672 -2.90269 0
M  V30 43659 H 4395.11 -3.6266 -2.03595 0
M  V30 43660 H 4393.68 -2.11554 -3.07082 0
M  V30 43661 N 4395.87 0.778281 -1.37042 0
M  V30 43662 C 4396.8 1.90029 -1.28146 0
M  V30 43663 C 4397.81 1.61584 -0.198614 0
M  V30 43664 O 4399 1.72624 -0.454236 0
M  V30 43665 C 4396.1 3.25105 -0.957082 0
M  V30 43666 C 4395.28 3.81246 -2.14408 0
M  V30 43667 C 4394.34 4.94783 -1.79099 0
M  V30 43668 O 4393.36 5.10713 -2.51319 0
M  V30 43669 N 4394.56 5.75876 -0.731245 0
M  V30 43670 H 4397.33 1.98179 -2.24823 0
M  V30 43671 H 4394.89 0.957083 -1.30581 0
M  V30 43672 H 4396.88 3.98568 -0.701841 0
M  V30 43673 H 4395.45 3.125 -0.079091 0
M  V30 43674 H 4394.67 2.99638 -2.56146 0
M  V30 43675 H 4395.96 4.15485 -2.93683 0
M  V30 43676 H 4395.36 5.65546 -0.131817 0
M  V30 43677 H 4393.91 6.49594 -0.53585 0
M  V30 43678 N 4397.35 1.21505 1.00371 0
M  V30 43679 C 4398.28 0.999552 2.11024 0
M  V30 43680 C 4399.26 -0.0759073 1.69931 0
M  V30 43681 O 4400.44 0.0841788 1.94017 0
M  V30 43682 C 4397.57 0.564829 3.42676 0
M  V30 43683 C 4396.53 1.585 3.9757 0
M  V30 43684 C 4395.85 1.00647 5.25142 0
M  V30 43685 C 4397.15 2.97219 4.29486 0
M  V30 43686 H 4398.85 1.92503 2.2931 0
M  V30 43687 H 4396.39 0.926968 1.10197 0
M  V30 43688 H 4398.35 0.401239 4.19485 0
M  V30 43689 H 4397.07 -0.396297 3.24187 0
M  V30 43690 H 4395.73 1.73617 3.22882 0
M  V30 43691 H 4395.38 0.0370208 5.02986 0
M  V30 43692 H 4395.08 1.68791 5.62835 0
M  V30 43693 H 4396.6 0.854227 6.04595 0
M  V30 43694 H 4398.02 2.85538 4.97133 0
M  V30 43695 H 4396.41 3.62388 4.78325 0
M  V30 43696 H 4397.48 3.47968 3.37708 0
M  V30 43697 N 4398.83 -1.19885 1.023 0
M  V30 43698 C 4400.24 -1.4146 0.739004 0
M  V30 43699 C 4400.44 -1.89723 -0.67878 0
M  V30 43700 O 4399.5 -2.07021 -1.44563 0
M  V30 43701 C 4400.81 -2.43077 1.77014 0
M  V30 43702 C 4402.36 -2.56833 1.78901 0
M  V30 43703 C 4402.83 -3.61699 2.80958 0
M  V30 43704 N 4404.32 -3.69189 2.79738 0
M  V30 43705 C 4405.06 -4.50007 3.55361 0
M  V30 43706 N 4404.56 -5.34577 4.40681 0
M  V30 43707 N 4406.35 -4.446 3.43929 0
M  V30 43708 H 4398.5 -0.868759 1.9382 0
M  V30 43709 H 4400.76 -0.44396 0.837618 0
M  V30 43710 H 4400.47 -2.14626 2.78619 0
M  V30 43711 H 4400.34 -3.42164 1.58756 0
M  V30 43712 H 4402.73 -2.84611 0.779774 0
M  V30 43713 H 4402.81 -1.5792 2.01233 0
M  V30 43714 H 4402.45 -3.34665 3.8205 0
M  V30 43715 H 4402.38 -4.6025 2.55886 0
M  V30 43716 H 4404.88 -3.08786 2.17852 0
M  V30 43717 H 4405.19 -5.93346 4.95137 0
M  V30 43718 H 4403.53 -5.34057 4.44756 0
M  V30 43719 H 4406.72 -3.7757 2.76692 0
M  V30 43720 H 4406.9 -5.07346 4.03118 0
M  V30 43721 N 4400.3 -0.80008 -1.35781 0
M  V30 43722 C 4401.23 -0.220266 -2.32459 0
M  V30 43723 C 4402.21 0.650675 -1.57163 0
M  V30 43724 O 4403.4 0.582294 -1.85265 0
M  V30 43725 C 4400.53 0.637233 -3.41404 0
M  V30 43726 C 4399.48 -0.134681 -4.27788 0
M  V30 43727 C 4398.81 0.8441 -5.27995 0
M  V30 43728 C 4400.11 -1.32997 -5.05083 0
M  V30 43729 H 4401.8 -1.02797 -2.812 0
M  V30 43730 H 4399.35 -0.495764 -1.35197 0
M  V30 43731 H 4401.3 1.05288 -4.08035 0
M  V30 43732 H 4400.03 1.47775 -2.91256 0
M  V30 43733 H 4398.69 -0.531424 -3.62728 0
M  V30 43734 H 4398.33 1.67994 -4.74117 0
M  V30 43735 H 4398.03 0.331977 -5.86661 0
M  V30 43736 H 4399.56 1.25809 -5.97499 0
M  V30 43737 H 4400.97 -0.989539 -5.64696 0
M  V30 43738 H 4399.37 -1.77613 -5.73214 0
M  V30 43739 H 4400.44 -2.11994 -4.36104 0
M  V30 43740 N 4401.78 1.47579 -0.553014 0
M  V30 43741 C 4402.73 2.26962 0.217343 0
M  V30 43742 C 4403.72 1.34102 0.88912 0
M  V30 43743 O 4404.91 1.58486 0.78812 0
M  V30 43744 C 4402.04 3.1976 1.24933 0
M  V30 43745 C 4401.12 4.20099 0.58118 0
M  V30 43746 N 4401.51 5.04613 -0.346349 0
M  V30 43747 C 4399.81 4.38102 0.835613 0
M  V30 43748 C 4400.51 5.7705 -0.734057 0
M  V30 43749 N 4399.49 5.43526 -0.0898478 0
M  V30 43750 H 4403.29 2.89687 -0.495863 0
M  V30 43751 H 4400.8 1.58067 -0.372653 0
M  V30 43752 H 4402.8 3.75311 1.81514 0
M  V30 43753 H 4401.46 2.58592 1.96367 0
M  V30 43754 H 4402.47 5.12867 -0.720278 0
M  V30 43755 H 4399.15 3.88108 1.53878 0
M  V30 43756 H 4400.54 6.55035 -1.49597 0
M  V30 43757 N 4403.26 0.289257 1.54923 0
M  V30 43758 C 4404.19 -0.58541 2.26042 0
M  V30 43759 C 4405.17 -1.14748 1.25566 0
M  V30 43760 O 4406.36 -1.179 1.54315 0
M  V30 43761 C 4403.49 -1.76295 2.99228 0
M  V30 43762 C 4402.44 -1.33177 4.06753 0
M  V30 43763 C 4401.77 -2.59354 4.67589 0
M  V30 43764 C 4403.07 -0.471593 5.20167 0
M  V30 43765 H 4404.76 0.00774057 2.99399 0
M  V30 43766 H 4402.31 0.00516291 1.43999 0
M  V30 43767 H 4404.26 -2.38085 3.47698 0
M  V30 43768 H 4402.98 -2.38215 2.2343 0
M  V30 43769 H 4401.64 -0.736995 3.59115 0
M  V30 43770 H 4401.29 -3.19563 3.88444 0
M  V30 43771 H 4400.99 -2.31209 5.402 0
M  V30 43772 H 4402.51 -3.21967 5.18816 0
M  V30 43773 H 4403.93 -0.994857 5.64602 0
M  V30 43774 H 4402.32 -0.284429 5.99426 0
M  V30 43775 H 4403.39 0.50621 4.8225 0
M  V30 43776 N 4404.74 -1.57591 0.016771 0
M  V30 43777 C 4405.98 -1.91569 -0.665515 0
M  V30 43778 C 4406.32 -0.892359 -1.72484 0
M  V30 43779 O 4405.59 0.0866444 -1.94307 0
M  V30 43780 C 4405.87 -3.36074 -1.2933 0
M  V30 43781 C 4405.73 -4.49136 -0.244383 0
M  V30 43782 C 4407.05 -3.80308 -2.21481 0
M  V30 43783 H 4404.17 -0.696668 -0.240463 0
M  V30 43784 H 4406.81 -1.89865 0.0715023 0
M  V30 43785 H 4404.96 -3.37657 -1.92147 0
M  V30 43786 H 4406.63 -4.59687 0.385389 0
M  V30 43787 H 4404.87 -4.31648 0.431531 0
M  V30 43788 H 4405.54 -5.47244 -0.723014 0
M  V30 43789 H 4408.02 -3.80383 -1.68665 0
M  V30 43790 H 4406.9 -4.82136 -2.62366 0
M  V30 43791 H 4407.16 -3.15115 -3.10088 0
M  V30 43792 N 4406.22 0.256222 -1.55503 0
M  V30 43793 C 4407.44 1.00759 -1.8128 0
M  V30 43794 C 4407.87 1.78522 -0.592582 0
M  V30 43795 O 4407.22 1.75414 0.458208 0
M  V30 43796 C 4407.27 1.92858 -3.04693 0
M  V30 43797 O 4406.38 3.01891 -2.80955 0
M  V30 43798 H 4405.72 0.287203 -0.598674 0
M  V30 43799 H 4408.25 0.280038 -2.02674 0
M  V30 43800 H 4408.26 2.34499 -3.33877 0
M  V30 43801 H 4406.93 1.35675 -3.93148 0
M  V30 43802 H 4405.51 2.64445 -2.62913 0
M  V30 43803 N 4407.69 1.48722 0.521481 0
M  V30 43804 C 4409.11 1.50611 1.10332 0
M  V30 43805 C 4409.46 0.28068 1.94182 0
M  V30 43806 O 4408.58 -0.611434 2.07582 0
M  V30 43807 C 4409.18 2.7291 2.00763 0
M  V30 43808 C 4407.74 2.77643 2.54148 0
M  V30 43809 C 4406.88 2.44246 1.31298 0
M  V30 43810 H 4409.83 1.55715 0.306333 0
M  V30 43811 H 4409.85 2.5191 2.85169 0
M  V30 43812 H 4409.37 3.62082 1.39708 0
M  V30 43813 H 4407.47 1.92701 3.189 0
M  V30 43814 H 4407.58 3.79293 2.92701 0
M  V30 43815 H 4405.94 1.95583 1.63154 0
M  V30 43816 H 4406.73 3.35669 0.719825 0
M  V30 43817 N 4409.17 -0.771003 1.37453 0
M  V30 43818 C 4410.14 -1.86593 1.331 0
M  V30 43819 C 4411.14 -1.59075 0.2349 0
M  V30 43820 O 4412.33 -1.67143 0.490791 0
M  V30 43821 C 4409.46 -3.23743 1.06785 0
M  V30 43822 H 4410.65 -1.91865 2.30495 0
M  V30 43823 H 4408.2 -0.970833 1.22493 0
M  V30 43824 H 4408.94 -3.24148 0.099243 0
M  V30 43825 H 4408.72 -3.45109 1.86124 0
M  V30 43826 H 4410.21 -4.0382 1.06391 0
M  V30 43827 N 4410.65 -1.22035 -0.997255 0
M  V30 43828 C 4411.93 -0.950883 -1.70931 0
M  V30 43829 C 4412.31 0.53522 -2.04202 0
M  V30 43830 O 4411.66 1.50211 -1.72188 0
M  V30 43831 C 4411.87 -1.84396 -2.96309 0
M  V30 43832 C 4413.21 -2.09745 -3.69178 0
M  V30 43833 O 4414.24 -1.81809 -3.06307 0
M  V30 43834 O 4413.1 -2.57035 -4.82281 0
M  V30 43835 H 4410.19 -0.35723 -0.745866 0
M  V30 43836 H 4412.74 -1.33001 -1.05399 0
M  V30 43837 H 4411.51 -2.84937 -2.68191 0
M  V30 43838 H 4411.13 -1.46615 -3.69581 0
M  V30 43839 N 4412.13 1.19341 -1.02934 0
M  V30 43840 C 4413.35 1.93535 -0.745579 0
M  V30 43841 C 4413.78 1.75009 0.689449 0
M  V30 43842 O 4413.14 1.0527 1.47607 0
M  V30 43843 C 4413.18 3.43332 -1.10251 0
M  V30 43844 O 4412.29 4.11805 -0.221433 0
M  V30 43845 H 4411.63 0.604183 -0.275425 0
M  V30 43846 H 4414.16 1.51405 -1.37614 0
M  V30 43847 H 4414.17 3.94 -1.05961 0
M  V30 43848 H 4412.84 3.56138 -2.14799 0
M  V30 43849 H 4411.42 3.71499 -0.322972 0
M  V30 43850 N 4413.61 0.80727 1.35355 0
M  V30 43851 C 4414.85 0.387192 1.98356 0
M  V30 43852 C 4415.18 -1.04937 1.64357 0
M  V30 43853 O 4414.45 -1.72611 0.926399 0
M  V30 43854 H 4413.03 0.14018 0.733729 0
M  V30 43855 H 4415.69 1.03326 1.65257 0
M  V30 43856 H 4414.78 0.49346 3.08174 0
M  V30 43857 N 4415.08 -1.47283 0.560833 0
M  V30 43858 C 4415.99 -2.33847 -0.187872 0
M  V30 43859 C 4417.01 -1.48415 -0.908241 0
M  V30 43860 O 4418.19 -1.81335 -0.876325 0
M  V30 43861 C 4415.25 -3.25182 -1.20239 0
M  V30 43862 C 4414.31 -4.26505 -0.489058 0
M  V30 43863 C 4413.55 -5.13477 -1.45524 0
M  V30 43864 O 4413.77 -5.02969 -2.69033 0
M  V30 43865 O 4412.7 -5.93905 -0.977754 0
M  V30 43866 H 4416.53 -2.99175 0.522282 0
M  V30 43867 H 4414.11 -1.45902 0.321415 0
M  V30 43868 H 4416 -3.81591 -1.78792 0
M  V30 43869 H 4414.67 -2.62477 -1.8944 0
M  V30 43870 H 4413.58 -3.73846 0.137759 0
M  V30 43871 H 4414.91 -4.91935 0.161572 0
M  V30 43872 N 4416.56 -0.297469 -1.54767 0
M  V30 43873 C 4417.79 0.315094 -2.04183 0
M  V30 43874 C 4418.2 1.48336 -1.17444 0
M  V30 43875 O 4417.54 1.82694 -0.191955 0
M  V30 43876 C 4417.61 0.83746 -3.4961 0
M  V30 43877 C 4417.27 -0.205072 -4.5654 0
M  V30 43878 C 4418.27 -1.03231 -5.09548 0
M  V30 43879 C 4415.95 -0.345754 -5.01109 0
M  V30 43880 C 4417.95 -1.98621 -6.05664 0
M  V30 43881 C 4415.63 -1.3031 -5.97045 0
M  V30 43882 C 4416.63 -2.12182 -6.49206 0
M  V30 43883 O 4416.32 -3.06294 -7.43263 0
M  V30 43884 H 4416.05 0.072941 -0.672053 0
M  V30 43885 H 4418.6 -0.433978 -2.00763 0
M  V30 43886 H 4416.83 1.63699 -3.50342 0
M  V30 43887 H 4418.52 1.36552 -3.82241 0
M  V30 43888 H 4419.29 -0.934479 -4.75912 0
M  V30 43889 H 4415.17 0.281548 -4.60139 0
M  V30 43890 H 4418.71 -2.62564 -6.46302 0
M  V30 43891 H 4414.61 -1.40167 -6.30098 0
M  V30 43892 H 4415.38 -3.01232 -7.61053 0
M  V30 43893 N 4418.04 1.5758 -0.0251282 0
M  V30 43894 C 4419.29 1.91919 0.655346 0
M  V30 43895 C 4419.62 0.901494 1.72008 0
M  V30 43896 O 4418.89 -0.0763386 1.9435 0
M  V30 43897 C 4419.18 3.36755 1.27546 0
M  V30 43898 C 4419.03 4.49259 0.220561 0
M  V30 43899 C 4420.35 3.81477 2.19461 0
M  V30 43900 H 4417.47 0.697933 0.236765 0
M  V30 43901 H 4420.11 1.89825 -0.0815703 0
M  V30 43902 H 4418.26 3.38671 1.90353 0
M  V30 43903 H 4419.93 4.59476 -0.409762 0
M  V30 43904 H 4418.18 4.31413 -0.454416 0
M  V30 43905 H 4418.85 5.4762 0.693983 0
M  V30 43906 H 4421.32 3.81272 1.66645 0
M  V30 43907 H 4420.2 4.83521 2.59805 0
M  V30 43908 H 4420.46 3.16755 3.08413 0
M  V30 43909 N 4419.52 -0.247971 1.55637 0
M  V30 43910 C 4420.76 -0.983529 1.79182 0
M  V30 43911 C 4421.12 -1.82565 0.594478 0
M  V30 43912 O 4422.32 -2.5929 0.708674 0
M  V30 43913 C 4420.59 -1.82217 3.0746 0
M  V30 43914 S 4422.15 -2.61697 3.52222 0
M  V30 43915 H 4418.97 -0.330844 0.629335 0
M  V30 43916 H 4421.57 -0.251494 1.93876 0
M  V30 43917 H 4420.28 -1.19319 3.92672 0
M  V30 43918 H 4419.81 -2.59697 2.95501 0
M  V30 43919 H 4421.82 -3.84644 3.1347 0
M  V30 43920 N 4421 -1.48997 -0.513587 0
M  V30 43921 C 4422.41 -1.3548 -0.843635 0
M  V30 43922 C 4422.61 -0.378283 -1.97917 0
M  V30 43923 O 4421.67 0.194601 -2.51749 0
M  V30 43924 C 4422.98 -2.75905 -1.1957 0
M  V30 43925 C 4424.53 -2.84514 -1.30464 0
M  V30 43926 C 4425.01 -4.25677 -1.69006 0
M  V30 43927 N 4426.5 -4.28428 -1.76079 0
M  V30 43928 C 4427.23 -5.34608 -2.07319 0
M  V30 43929 N 4426.73 -6.51048 -2.36871 0
M  V30 43930 N 4428.52 -5.22014 -2.08464 0
M  V30 43931 H 4420.67 -2.11091 0.235402 0
M  V30 43932 H 4422.93 -0.947038 0.0427002 0
M  V30 43933 H 4422.64 -3.49002 -0.43479 0
M  V30 43934 H 4422.51 -3.10475 -2.14209 0
M  V30 43935 H 4424.9 -2.11662 -2.05629 0
M  V30 43936 H 4424.98 -2.53543 -0.339066 0
M  V30 43937 H 4424.63 -4.99051 -0.94396 0
M  V30 43938 H 4424.56 -4.54103 -2.66642 0
M  V30 43939 H 4427.05 -3.44446 -1.55452 0
M  V30 43940 H 4427.36 -7.27799 -2.59861 0
M  V30 43941 H 4425.71 -6.54296 -2.34355 0
M  V30 43942 H 4428.9 -4.30058 -1.84846 0
M  V30 43943 H 4429.07 -6.04862 -2.32478 0
M  V30 43944 N 4422.48 0.763702 -1.3786 0
M  V30 43945 C 4423.44 1.85885 -1.34088 0
M  V30 43946 C 4424.44 1.58948 -0.243333 0
M  V30 43947 O 4425.63 1.66881 -0.499648 0
M  V30 43948 C 4422.76 3.23173 -1.085 0
M  V30 43949 H 4423.95 1.9064 -2.31509 0
M  V30 43950 H 4421.51 0.964323 -1.23006 0
M  V30 43951 H 4422.24 3.24091 -0.116432 0
M  V30 43952 H 4422.03 3.44117 -1.87952 0
M  V30 43953 H 4423.52 4.0325 -1.08531 0
M  V30 43954 N 4423.95 1.22562 0.990769 0
M  V30 43955 C 4424.92 0.998935 2.06286 0
M  V30 43956 C 4425.92 -0.0354269 1.60761 0
M  V30 43957 O 4427.11 0.203292 1.7301 0
M  V30 43958 C 4424.24 0.509322 3.37074 0
M  V30 43959 H 4425.43 1.95022 2.2783 0
M  V30 43960 H 4422.98 1.04461 1.16266 0
M  V30 43961 H 4423.72 -0.446222 3.21215 0
M  V30 43962 H 4423.5 1.2556 3.71453 0
M  V30 43963 H 4424.99 0.371035 4.15948 0
M  V30 43964 N 4425.43 -1.18793 1.03566 0
M  V30 43965 C 4426.66 -1.93137 0.755832 0
M  V30 43966 C 4427.08 -1.75372 -0.680158 0
M  V30 43967 O 4426.44 -1.06052 -1.47047 0
M  V30 43968 C 4426.49 -3.42743 1.1207 0
M  V30 43969 O 4425.59 -4.11682 0.243269 0
M  V30 43970 H 4424.93 -0.602714 0.278625 0
M  V30 43971 H 4427.46 -1.50673 1.38415 0
M  V30 43972 H 4427.47 -3.93433 1.08049 0
M  V30 43973 H 4426.15 -3.54994 2.16684 0
M  V30 43974 H 4424.72 -3.71322 0.342669 0
M  V30 43975 N 4426.91 -0.814437 -1.34925 0
M  V30 43976 C 4428.16 -0.397706 -1.98148 0
M  V30 43977 C 4428.48 1.04063 -1.64912 0
M  V30 43978 O 4427.75 1.72118 -0.93554 0
M  V30 43979 H 4426.33 -0.144069 -0.732976 0
M  V30 43980 H 4428.99 -1.04201 -1.64706 0
M  V30 43981 H 4428.09 -0.509797 -3.07908 0
M  V30 43982 N 4428.39 1.46984 -0.568636 0
M  V30 43983 C 4429.8 1.86187 -0.138284 0
M  V30 43984 C 4430.15 1.47392 1.29499 0
M  V30 43985 O 4429.27 0.882259 1.97598 0
M  V30 43986 C 4429.87 3.37919 -0.244183 0
M  V30 43987 C 4428.43 3.76171 0.131203 0
M  V30 43988 C 4427.58 2.71025 -0.58656 0
M  V30 43989 H 4430.53 1.38339 -0.777693 0
M  V30 43990 H 4430.55 3.76731 0.534218 0
M  V30 43991 H 4430.06 3.66124 -1.28744 0
M  V30 43992 H 4428.16 3.53584 1.17513 0
M  V30 43993 H 4428.27 4.78522 -0.235314 0
M  V30 43994 H 4426.64 2.54684 -0.0283617 0
M  V30 43995 H 4427.42 3.02071 -1.63119 0
M  V30 43996 N 4429.87 0.305673 1.54607 0
M  V30 43997 C 4431.11 -0.301631 1.99836 0
M  V30 43998 C 4431.43 -1.5405 1.19556 0
M  V30 43999 O 4430.7 -1.93701 0.292726 0
M  V30 44000 H 4429.28 -0.114442 0.738182 0
M  V30 44001 H 4431.95 0.418083 1.90363 0
M  V30 44002 H 4431.04 -0.57044 3.06843 0
M  V30 44003 N 4431.34 -1.57564 0.0334847 0
M  V30 44004 C 4432.75 -1.79748 -0.504735 0
M  V30 44005 C 4433.11 -0.944151 -1.71989 0
M  V30 44006 O 4432.23 -0.15577 -2.15839 0
M  V30 44007 C 4432.83 -3.26 -0.922452 0
M  V30 44008 C 4431.38 -3.49164 -1.40576 0
M  V30 44009 C 4430.53 -2.74786 -0.372537 0
M  V30 44010 H 4433.48 -1.56564 0.259492 0
M  V30 44011 H 4433.5 -3.35951 -1.78654 0
M  V30 44012 H 4433.02 -3.88082 -0.037846 0
M  V30 44013 H 4431.12 -2.92341 -2.31015 0
M  V30 44014 H 4431.23 -4.57878 -1.41012 0
M  V30 44015 H 4429.59 -2.40394 -0.841588 0
M  V30 44016 H 4430.38 -3.39585 0.503678 0
M  V30 44017 N 4432.82 0.239714 -1.55766 0
M  V30 44018 C 4433.73 1.31825 -1.9406 0
M  V30 44019 C 4434.75 1.52272 -0.841979 0
M  V30 44020 O 4435.92 1.65755 -1.144 0
M  V30 44021 C 4432.99 2.65148 -2.23377 0
M  V30 44022 C 4432.05 2.53161 -3.4671 0
M  V30 44023 C 4431.28 3.80127 -3.74619 0
M  V30 44024 O 4431.51 4.82332 -3.04486 0
M  V30 44025 O 4430.44 3.78328 -4.68136 0
M  V30 44026 H 4434.27 1.02337 -2.85938 0
M  V30 44027 H 4431.85 0.441072 -1.42741 0
M  V30 44028 H 4433.73 3.4392 -2.43509 0
M  V30 44029 H 4432.41 2.94353 -1.34676 0
M  V30 44030 H 4431.31 1.72651 -3.31877 0
M  V30 44031 H 4432.65 2.289 -4.35736 0
M  V30 44032 N 4434.3 1.49267 0.505678 0
M  V30 44033 C 4435.23 1.61705 1.62432 0
M  V30 44034 C 4436.24 0.499979 1.54932 0
M  V30 44035 O 4437.43 0.771841 1.6095 0
M  V30 44036 C 4434.53 1.55341 3.01202 0
M  V30 44037 C 4433.71 2.82502 3.33933 0
M  V30 44038 C 4432.77 2.69254 4.52094 0
M  V30 44039 O 4431.79 3.43183 4.54108 0
M  V30 44040 N 4432.99 1.80487 5.51729 0
M  V30 44041 H 4435.76 2.58183 1.5219 0
M  V30 44042 H 4433.32 1.46297 0.693459 0
M  V30 44043 H 4435.31 1.44139 3.78161 0
M  V30 44044 H 4433.88 0.667404 3.05392 0
M  V30 44045 H 4433.1 3.0809 2.45915 0
M  V30 44046 H 4434.39 3.66814 3.52597 0
M  V30 44047 H 4433.79 1.19672 5.52897 0
M  V30 44048 H 4432.34 1.7521 6.27809 0
M  V30 44049 N 4435.78 -0.756381 1.38263 0
M  V30 44050 C 4436.69 -1.90085 1.37495 0
M  V30 44051 C 4437.7 -1.71854 0.272426 0
M  V30 44052 O 4438.88 -1.94826 0.510387 0
M  V30 44053 C 4435.95 -3.25417 1.19603 0
M  V30 44054 C 4435.01 -3.56193 2.39635 0
M  V30 44055 C 4434.24 -4.85068 2.22588 0
M  V30 44056 O 4434.46 -5.57241 1.21812 0
M  V30 44057 O 4433.4 -5.15258 3.11116 0
M  V30 44058 H 4437.22 -1.93687 2.33921 0
M  V30 44059 H 4434.81 -0.901271 1.19153 0
M  V30 44060 H 4436.69 -4.06333 1.11675 0
M  V30 44061 H 4435.36 -3.22633 0.262599 0
M  V30 44062 H 4434.27 -2.75449 2.53138 0
M  V30 44063 H 4435.6 -3.63735 3.31599 0
M  V30 44064 N 4437.26 -1.23086 -0.984255 0
M  V30 44065 C 4438.22 -1.00986 -2.05753 0
M  V30 44066 C 4439.22 0.0269008 -1.60777 0
M  V30 44067 O 4440.41 -0.212464 -1.72899 0
M  V30 44068 C 4437.54 -0.527191 -3.36799 0
M  V30 44069 H 4438.73 -1.96228 -2.26792 0
M  V30 44070 H 4436.29 -1.05076 -1.1571 0
M  V30 44071 H 4437.02 0.429181 -3.21448 0
M  V30 44072 H 4436.81 -1.27528 -3.70782 0
M  V30 44073 H 4438.3 -0.393088 -4.15746 0
M  V30 44074 N 4438.73 1.18243 -1.04194 0
M  V30 44075 C 4439.96 1.92734 -0.766064 0
M  V30 44076 C 4440.38 1.75731 0.670848 0
M  V30 44077 O 4439.74 1.0683 1.46482 0
M  V30 44078 C 4439.79 3.42144 -1.13887 0
M  V30 44079 O 4438.89 4.11547 -0.265098 0
M  V30 44080 H 4438.24 0.601228 -0.281818 0
M  V30 44081 H 4440.77 1.49937 -1.39213 0
M  V30 44082 H 4440.78 3.92854 -1.10134 0
M  V30 44083 H 4439.45 3.5384 -2.18564 0
M  V30 44084 H 4438.03 3.71135 -0.362357 0
M  V30 44085 N 4440.21 0.821581 1.34491 0
M  V30 44086 C 4441.46 0.409016 1.98326 0
M  V30 44087 C 4441.79 -1.02758 1.6514 0
M  V30 44088 O 4441.04 -1.73023 0.91441 0
M  V30 44089 C 4441.34 0.556636 3.53039 0
M  V30 44090 C 4441.01 1.95875 4.06133 0
M  V30 44091 C 4439.67 2.34231 4.20344 0
M  V30 44092 C 4442.02 2.87538 4.34708 0
M  V30 44093 C 4439.35 3.63588 4.60457 0
M  V30 44094 C 4441.7 4.16357 4.76266 0
M  V30 44095 C 4440.37 4.54692 4.88683 0
M  V30 44096 H 4439.64 0.14967 0.725727 0
M  V30 44097 H 4442.28 1.04527 1.60457 0
M  V30 44098 H 4440.59 -0.16301 3.91461 0
M  V30 44099 H 4442.28 0.217966 4.00407 0
M  V30 44100 H 4438.87 1.6508 3.95533 0
M  V30 44101 H 4443.06 2.59148 4.23268 0
M  V30 44102 H 4438.31 3.93118 4.68261 0
M  V30 44103 H 4442.49 4.87473 4.97336 0
M  V30 44104 H 4440.12 5.54977 5.19523 0
M  V30 44105 N 4441.69 -1.4668 0.576422 0
M  V30 44106 C 4442.92 -2.06798 0.0650362 0
M  V30 44107 C 4443.33 -1.42616 -1.23718 0
M  V30 44108 O 4442.69 -0.529265 -1.74657 0
M  V30 44109 C 4442.74 -3.6132 -0.114075 0
M  V30 44110 O 4442.46 -4.231 1.13659 0
M  V30 44111 C 4443.96 -4.38351 -0.660536 0
M  V30 44112 H 4441.18 -0.668776 0.0545851 0
M  V30 44113 H 4443.73 -1.88402 0.795303 0
M  V30 44114 H 4441.88 -3.79165 -0.79454 0
M  V30 44115 H 4442.3 -5.1589 0.946434 0
M  V30 44116 H 4443.77 -5.47084 -0.735068 0
M  V30 44117 H 4444.25 -4.05959 -1.67613 0
M  V30 44118 H 4444.85 -4.25297 -0.0151456 0
M  V30 44119 N 4443.17 -0.313868 -1.54443 0
M  V30 44120 C 4444.41 0.292037 -2.00686 0
M  V30 44121 C 4444.75 1.52544 -1.20183 0
M  V30 44122 O 4444.02 1.92451 -0.281599 0
M  V30 44123 C 4444.31 0.635844 -3.54442 0
M  V30 44124 C 4444.16 -0.607594 -4.45677 0
M  V30 44125 C 4445.48 1.45732 -4.15271 0
M  V30 44126 H 4442.6 0.104671 -0.729529 0
M  V30 44127 H 4445.24 -0.428522 -1.85105 0
M  V30 44128 H 4443.39 1.24973 -3.6785 0
M  V30 44129 H 4445.06 -1.24596 -4.44155 0
M  V30 44130 H 4443.3 -1.23836 -4.15749 0
M  V30 44131 H 4443.97 -0.322709 -5.51056 0
M  V30 44132 H 4446.45 0.938503 -4.05378 0
M  V30 44133 H 4445.33 1.66665 -5.22986 0
M  V30 44134 H 4445.59 2.4505 -3.67971 0
M  V30 44135 N 4444.65 1.57544 -0.0418402 0
M  V30 44136 C 4445.87 1.96627 0.643859 0
M  V30 44137 C 4446.29 0.918955 1.64926 0
M  V30 44138 O 4445.65 -0.0978683 1.82237 0
M  V30 44139 C 4445.7 3.35786 1.33903 0
M  V30 44140 O 4445.42 4.36502 0.373895 0
M  V30 44141 C 4446.92 3.89573 2.11536 0
M  V30 44142 H 4444.14 0.647322 0.176679 0
M  V30 44143 H 4446.68 2.04228 -0.105376 0
M  V30 44144 H 4444.84 3.29364 2.03956 0
M  V30 44145 H 4445.25 5.17251 0.868997 0
M  V30 44146 H 4446.73 4.89251 2.55611 0
M  V30 44147 H 4447.2 3.24499 2.95968 0
M  V30 44148 H 4447.81 3.99304 1.46413 0
M  V30 44149 N 4446.12 -0.23145 1.55891 0
M  V30 44150 C 4447.37 -0.958707 1.78708 0
M  V30 44151 C 4447.7 -1.84378 0.60979 0
M  V30 44152 O 4446.98 -1.90522 -0.391359 0
M  V30 44153 C 4447.26 -1.80609 3.11532 0
M  V30 44154 C 4447.11 -0.948174 4.39693 0
M  V30 44155 C 4448.43 -2.78573 3.40713 0
M  V30 44156 H 4445.55 -0.347106 0.650143 0
M  V30 44157 H 4448.19 -0.228193 1.88625 0
M  V30 44158 H 4446.34 -2.42892 3.03209 0
M  V30 44159 H 4448.02 -0.342855 4.60024 0
M  V30 44160 H 4446.26 -0.253161 4.33061 0
M  V30 44161 H 4446.93 -1.57524 5.29046 0
M  V30 44162 H 4449.41 -2.26427 3.49099 0
M  V30 44163 H 4448.28 -3.34973 4.34838 0
M  V30 44164 H 4448.54 -3.55816 2.62388 0
M  V30 44165 N 4447.6 -1.49533 -0.497755 0
M  V30 44166 C 4449.01 -1.52348 -1.07922 0
M  V30 44167 C 4449.36 -0.311537 -1.93711 0
M  V30 44168 O 4448.49 0.578332 -2.08529 0
M  V30 44169 C 4449.08 -2.76069 -1.96396 0
M  V30 44170 C 4447.64 -2.81651 -2.49699 0
M  V30 44171 C 4446.79 -2.46304 -1.27396 0
M  V30 44172 H 4449.74 -1.56183 -0.281521 0
M  V30 44173 H 4449.76 -2.56415 -2.81126 0
M  V30 44174 H 4449.27 -3.64259 -1.3393 0
M  V30 44175 H 4447.38 -1.9775 -3.15794 0
M  V30 44176 H 4447.49 -3.83902 -2.86629 0
M  V30 44177 H 4445.85 -1.98154 -1.60022 0
M  V30 44178 H 4446.64 -3.36771 -0.666332 0
M  V30 44179 N 4449.08 0.749038 -1.38662 0
M  V30 44180 C 4450.49 1.3266 -1.31371 0
M  V30 44181 C 4450.84 1.96179 0.028415 0
M  V30 44182 O 4449.97 1.95373 0.930501 0
M  V30 44183 C 4450.56 2.41211 -2.37914 0
M  V30 44184 C 4449.12 2.94676 -2.34186 0
M  V30 44185 C 4448.27 1.68101 -2.20539 0
M  V30 44186 H 4451.22 0.547576 -1.48954 0
M  V30 44187 H 4451.24 3.21261 -2.03892 0
M  V30 44188 H 4450.75 1.9495 -3.35583 0
M  V30 44189 H 4448.85 3.45253 -1.40112 0
M  V30 44190 H 4448.97 3.48745 -3.28502 0
M  V30 44191 H 4447.33 1.91901 -1.67469 0
M  V30 44192 H 4448.11 1.23912 -3.20157 0
M  V30 44193 N 4450.56 1.23606 0.977714 0
M  V30 44194 C 4451.78 1.09741 1.75988 0
M  V30 44195 C 4452.21 -0.346793 1.84876 0
M  V30 44196 O 4451.57 -1.25089 1.31234 0
M  V30 44197 C 4451.62 1.73062 3.16357 0
M  V30 44198 O 4450.72 0.994593 4.00227 0
M  V30 44199 H 4450.06 0.384495 0.54135 0
M  V30 44200 H 4452.59 1.63714 1.22715 0
M  V30 44201 H 4452.6 1.78411 3.66925 0
M  V30 44202 H 4451.28 2.78148 3.09203 0
M  V30 44203 H 4449.85 1.01824 3.58729 0
M  V30 44204 N 4452.04 -1.17688 1.0482 0
M  V30 44205 C 4452.95 -2.25227 0.656509 0
M  V30 44206 C 4453.96 -1.71019 -0.320701 0
M  V30 44207 O 4455.14 -2.00649 -0.173734 0
M  V30 44208 C 4452.2 -3.46684 0.0333848 0
M  V30 44209 C 4451.27 -4.15993 1.06056 0
M  V30 44210 C 4450.5 -5.31652 0.46708 0
M  V30 44211 O 4450.72 -5.65779 -0.724559 0
M  V30 44212 O 4449.66 -5.89827 1.1995 0
M  V30 44213 H 4453.48 -2.61011 1.55264 0
M  V30 44214 H 4451.07 -1.24916 0.819534 0
M  V30 44215 H 4452.95 -4.20235 -0.313109 0
M  V30 44216 H 4451.62 -3.12706 -0.836456 0
M  V30 44217 H 4450.53 -3.44477 1.45898 0
M  V30 44218 H 4451.86 -4.5399 1.90143 0
M  V30 44219 N 4453.52 -0.828702 -1.34053 0
M  V30 44220 C 4454.76 -0.418699 -1.97715 0
M  V30 44221 C 4455.08 1.02308 -1.66006 0
M  V30 44222 O 4454.35 1.71116 -0.953743 0
M  V30 44223 H 4452.93 -0.151835 -0.731406 0
M  V30 44224 H 4455.6 -1.05942 -1.63592 0
M  V30 44225 H 4454.69 -0.542426 -3.0735 0
M  V30 44226 N 4454.99 1.46373 -0.584193 0
M  V30 44227 C 4456.22 2.07268 -0.0741134 0
M  V30 44228 C 4456.64 1.42984 1.22218 0
M  V30 44229 O 4456 0.514153 1.73857 0
M  V30 44230 C 4456.05 3.60519 0.0766502 0
M  V30 44231 O 4455.15 3.96537 1.13278 0
M  V30 44232 H 4454.49 0.660959 -0.0634757 0
M  V30 44233 H 4457.02 1.87988 -0.807558 0
M  V30 44234 H 4457.03 4.07022 0.282346 0
M  V30 44235 H 4455.71 4.06699 -0.870003 0
M  V30 44236 H 4454.29 3.61741 0.905425 0
M  V30 44237 N 4456.47 0.322054 1.54274 0
M  V30 44238 C 4457.7 -0.285718 2.05423 0
M  V30 44239 C 4458.12 -1.4512 1.19674 0
M  V30 44240 O 4457.48 -1.80132 0.205505 0
M  V30 44241 C 4457.53 -0.699435 3.53752 0
M  V30 44242 O 4456.63 -1.80197 3.70949 0
M  V30 44243 H 4455.97 -0.0518729 0.661971 0
M  V30 44244 H 4458.5 0.470024 1.99128 0
M  V30 44245 H 4458.51 -0.98251 3.95993 0
M  V30 44246 H 4457.19 0.15301 4.15618 0
M  V30 44247 H 4455.76 -1.51782 3.40612 0
M  V30 44248 N 4457.95 -1.5752 0.0501946 0
M  V30 44249 C 4459.18 -1.9668 -0.632504 0
M  V30 44250 C 4459.59 -0.926356 -1.64971 0
M  V30 44251 O 4458.93 0.0979555 -1.83439 0
M  V30 44252 C 4458.99 -3.32073 -1.37723 0
M  V30 44253 C 4458.66 -4.54078 -0.515971 0
M  V30 44254 C 4459.65 -5.19445 0.217539 0
M  V30 44255 C 4457.34 -5.00305 -0.447184 0
M  V30 44256 C 4459.33 -6.29375 1.00829 0
M  V30 44257 C 4457.02 -6.10113 0.347252 0
M  V30 44258 C 4458.02 -6.74508 1.07368 0
M  V30 44259 O 4457.71 -7.82204 1.85505 0
M  V30 44260 H 4457.44 -0.652199 -0.177798 0
M  V30 44261 H 4459.99 -2.05091 0.112615 0
M  V30 44262 H 4458.22 -3.20214 -2.16795 0
M  V30 44263 H 4459.91 -3.55988 -1.95007 0
M  V30 44264 H 4460.68 -4.84688 0.173858 0
M  V30 44265 H 4456.56 -4.49975 -1.00219 0
M  V30 44266 H 4460.1 -6.79569 1.5758 0
M  V30 44267 H 4456 -6.44305 0.392575 0
M  V30 44268 H 4456.76 -7.98976 1.77706 0
M  V30 44269 N 4459.43 0.223179 -1.56012 0
M  V30 44270 C 4460.84 0.572804 -1.48967 0
M  V30 44271 C 4461.04 1.87222 -0.744985 0
M  V30 44272 O 4460.1 2.50898 -0.283984 0
M  V30 44273 C 4461.41 0.653543 -2.93512 0
M  V30 44274 C 4462.96 0.74428 -3.04022 0
M  V30 44275 C 4463.44 0.856377 -4.49922 0
M  V30 44276 N 4464.93 0.92064 -4.53959 0
M  V30 44277 C 4465.66 1.02706 -5.64127 0
M  V30 44278 N 4465.16 1.09752 -6.84051 0
M  V30 44279 N 4466.95 1.06207 -5.51975 0
M  V30 44280 H 4459.1 -0.629533 -2.02856 0
M  V30 44281 H 4461.36 -0.220653 -0.921963 0
M  V30 44282 H 4461.07 -0.231641 -3.50936 0
M  V30 44283 H 4460.94 1.51769 -3.4532 0
M  V30 44284 H 4463.33 1.61991 -2.46664 0
M  V30 44285 H 4463.41 -0.1455 -2.55386 0
M  V30 44286 H 4463.06 -0.0147854 -5.07898 0
M  V30 44287 H 4462.99 1.76155 -4.96263 0
M  V30 44288 H 4465.48 0.876565 -3.67593 0
M  V30 44289 H 4465.79 1.17846 -7.63762 0
M  V30 44290 H 4464.14 1.06669 -6.86765 0
M  V30 44291 H 4467.33 1.00366 -4.57214 0
M  V30 44292 H 4467.5 1.14155 -6.37866 0
M  V30 44293 N 4460.91 1.49795 0.489818 0
M  V30 44294 C 4461.84 1.70206 1.5985 0
M  V30 44295 C 4462.82 0.550817 1.60935 0
M  V30 44296 O 4464 0.787903 1.77499 0
M  V30 44297 C 4461.13 1.77893 2.98281 0
M  V30 44298 C 4460.09 2.92918 3.12063 0
M  V30 44299 C 4459.41 2.85728 4.51955 0
M  V30 44300 C 4460.71 4.337 2.91035 0
M  V30 44301 H 4462.41 2.6303 1.43023 0
M  V30 44302 H 4459.95 1.26576 0.68662 0
M  V30 44303 H 4461.9 1.90758 3.75752 0
M  V30 44304 H 4460.63 0.816764 3.16222 0
M  V30 44305 H 4459.29 2.79674 2.37019 0
M  V30 44306 H 4458.94 1.87397 4.66789 0
M  V30 44307 H 4458.64 3.62937 4.62115 0
M  V30 44308 H 4460.16 3.00616 5.31472 0
M  V30 44309 H 4461.57 4.47568 3.58268 0
M  V30 44310 H 4459.97 5.12216 3.12657 0
M  V30 44311 H 4461.04 4.47368 1.87056 0
M  V30 44312 N 4462.38 -0.741673 1.39057 0
M  V30 44313 C 4463.8 -1.04634 1.20515 0
M  V30 44314 C 4464 -2.01404 0.0620926 0
M  V30 44315 O 4463.06 -2.45549 -0.58837 0
M  V30 44316 C 4464.37 -1.61501 2.53649 0
M  V30 44317 C 4465.92 -1.73614 2.60436 0
M  V30 44318 C 4466.39 -2.33892 3.93775 0
M  V30 44319 N 4467.88 -2.41309 3.95379 0
M  V30 44320 C 4468.62 -2.88871 4.95319 0
M  V30 44321 N 4468.11 -3.36379 6.05657 0
M  V30 44322 N 4469.91 -2.8802 4.82702 0
M  V30 44323 H 4462.06 -0.0997409 2.12166 0
M  V30 44324 H 4464.32 -0.106874 0.941956 0
M  V30 44325 H 4464.03 -0.978621 3.3781 0
M  V30 44326 H 4463.9 -2.60401 2.72894 0
M  V30 44327 H 4466.29 -2.36377 1.76663 0
M  V30 44328 H 4466.37 -0.733858 2.45047 0
M  V30 44329 H 4466.01 -1.71759 4.77976 0
M  V30 44330 H 4465.94 -3.34785 4.06481 0
M  V30 44331 H 4468.43 -2.07723 3.15689 0
M  V30 44332 H 4468.75 -3.71162 6.77834 0
M  V30 44333 H 4467.09 -3.34405 6.0926 0
M  V30 44334 H 4470.28 -2.50223 3.95608 0
M  V30 44335 H 4470.46 -3.24773 5.60738 0
M  V30 44336 N 4463.86 -1.24123 -0.971145 0
M  V30 44337 C 4465.09 -1.10673 -1.75403 0
M  V30 44338 C 4465.51 0.336983 -1.85057 0
M  V30 44339 O 4464.87 1.24391 -1.31896 0
M  V30 44340 C 4464.92 -1.74737 -3.15435 0
M  V30 44341 O 4464.02 -1.0158 -3.99694 0
M  V30 44342 H 4463.36 -0.38736 -0.539303 0
M  V30 44343 H 4465.89 -1.64363 -1.21845 0
M  V30 44344 H 4465.9 -1.80354 -3.65973 0
M  V30 44345 H 4464.58 -2.79783 -3.07724 0
M  V30 44346 H 4463.15 -1.03725 -3.58184 0
M  V30 44347 N 4465.34 1.17131 -1.05443 0
M  V30 44348 C 4466.75 1.69081 -0.791735 0
M  V30 44349 C 4467.1 1.83825 0.685774 0
M  V30 44350 O 4466.23 1.52762 1.53273 0
M  V30 44351 C 4466.82 3.07114 -1.4306 0
M  V30 44352 C 4465.38 3.5622 -1.2159 0
M  V30 44353 C 4464.53 2.32416 -1.51255 0
M  V30 44354 H 4467.48 1.01613 -1.21904 0
M  V30 44355 H 4467.5 3.71084 -0.84125 0
M  V30 44356 H 4467.01 2.96351 -2.50594 0
M  V30 44357 H 4465.11 3.72257 -0.159918 0
M  V30 44358 H 4465.23 4.38831 -1.92262 0
M  V30 44359 H 4463.59 2.37007 -0.932737 0
M  V30 44360 H 4464.37 2.24259 -2.59928 0
M  V30 44361 N 4466.82 0.835799 1.33612 0
M  V30 44362 C 4468.06 0.430665 1.98174 0
M  V30 44363 C 4468.4 -1.00679 1.66065 0
M  V30 44364 O 4467.67 -1.70336 0.938937 0
M  V30 44365 C 4467.96 0.648189 3.54218 0
M  V30 44366 C 4467.81 2.13269 3.96026 0
M  V30 44367 C 4469.13 0.092366 4.40003 0
M  V30 44368 H 4466.25 0.157949 0.719876 0
M  V30 44369 H 4468.89 1.05075 1.58301 0
M  V30 44370 H 4467.04 0.120373 3.88313 0
M  V30 44371 H 4468.71 2.72513 3.72202 0
M  V30 44372 H 4466.95 2.61835 3.45868 0
M  V30 44373 H 4467.62 2.23565 5.04701 0
M  V30 44374 H 4470.1 0.543488 4.12535 0
M  V30 44375 H 4468.98 0.274276 5.48214 0
M  V30 44376 H 4469.24 -1.00363 4.30557 0
M  V30 44377 N 4468.3 -1.46061 0.591947 0
M  V30 44378 C 4469.55 -2.01546 0.0787345 0
M  V30 44379 C 4469.86 -1.46801 -1.29263 0
M  V30 44380 O 4471.06 -1.94164 -1.8977 0
M  V30 44381 C 4469.52 -3.59787 0.0901289 0
M  V30 44382 C 4469.13 -4.23529 1.46038 0
M  V30 44383 C 4470.87 -4.22896 -0.368657 0
M  V30 44384 C 4468.78 -5.73876 1.429 0
M  V30 44385 H 4467.71 -0.753563 0.0256653 0
M  V30 44386 H 4470.36 -1.67698 0.744964 0
M  V30 44387 H 4468.74 -3.90754 -0.642448 0
M  V30 44388 H 4469.92 -4.04159 2.21342 0
M  V30 44389 H 4468.23 -3.72552 1.85995 0
M  V30 44390 H 4470.83 -5.33118 -0.41107 0
M  V30 44391 H 4471.17 -3.92475 -1.38813 0
M  V30 44392 H 4471.7 -3.96589 0.310149 0
M  V30 44393 H 4468.44 -6.08971 2.42557 0
M  V30 44394 H 4467.96 -5.95483 0.718304 0
M  V30 44395 H 4469.64 -6.36772 1.14588 0
M  V30 44396 N 4469.77 -0.330231 -1.54101 0
M  V30 44397 C 4471 0.27482 -2.05571 0
M  V30 44398 C 4471.42 1.44483 -1.20442 0
M  V30 44399 O 4470.78 1.8002 -0.215055 0
M  V30 44400 C 4470.83 0.680665 -3.54118 0
M  V30 44401 O 4469.93 1.78227 -3.71899 0
M  V30 44402 H 4469.28 0.0483616 -0.662236 0
M  V30 44403 H 4471.81 -0.480578 -1.98876 0
M  V30 44404 H 4471.82 0.961495 -3.96509 0
M  V30 44405 H 4470.49 -0.175049 -4.15531 0
M  V30 44406 H 4469.07 1.49973 -3.41412 0
M  V30 44407 N 4471.25 1.57491 -0.0585476 0
M  V30 44408 C 4472.5 1.92157 0.613078 0
M  V30 44409 C 4472.81 0.939394 1.71566 0
M  V30 44410 O 4474.02 1.17837 2.44595 0
M  V30 44411 C 4472.48 3.41307 1.14183 0
M  V30 44412 C 4472.08 4.47944 0.0709691 0
M  V30 44413 C 4473.83 3.84995 1.78828 0
M  V30 44414 C 4471.74 5.88214 0.613018 0
M  V30 44415 H 4470.67 0.717171 0.232771 0
M  V30 44416 H 4473.32 1.83049 -0.128634 0
M  V30 44417 H 4471.7 3.45444 1.93609 0
M  V30 44418 H 4472.87 4.55406 -0.702996 0
M  V30 44419 H 4471.19 4.13642 -0.478459 0
M  V30 44420 H 4473.78 4.87167 2.20391 0
M  V30 44421 H 4474.13 3.21641 2.64297 0
M  V30 44422 H 4474.66 3.83405 1.06045 0
M  V30 44423 H 4471.4 6.55182 -0.204208 0
M  V30 44424 H 4470.92 5.84299 1.3548 0
M  V30 44425 H 4472.6 6.37691 1.0936 0
M  V30 44426 N 4472.73 -0.214903 1.56128 0
M  V30 44427 C 4474.01 -0.963033 1.7025 0
M  V30 44428 C 4474.39 -2.02163 0.607711 0
M  V30 44429 O 4473.74 -2.25245 -0.384305 0
M  V30 44430 C 4473.95 -1.56745 3.11821 0
M  V30 44431 C 4475.29 -2.05717 3.71438 0
M  V30 44432 O 4476.32 -1.66626 3.14824 0
M  V30 44433 O 4475.18 -2.77586 4.70753 0
M  V30 44434 H 4472.27 -0.450296 0.693658 0
M  V30 44435 H 4474.82 -0.20616 1.68443 0
M  V30 44436 H 4473.59 -0.803398 3.82964 0
M  V30 44437 H 4473.21 -2.38968 3.17773 0
M  V30 44438 N 4474.21 -1.50053 -0.481867 0
M  V30 44439 C 4475.62 -1.53484 -1.063 0
M  V30 44440 C 4475.97 -0.332065 -1.9337 0
M  V30 44441 O 4475.1 0.556182 -2.09131 0
M  V30 44442 C 4475.69 -2.78137 -1.93456 0
M  V30 44443 C 4474.25 -2.84284 -2.46697 0
M  V30 44444 C 4473.4 -2.47641 -1.24776 0
M  V30 44445 H 4476.35 -1.56473 -0.26494 0
M  V30 44446 H 4476.37 -2.59382 -2.7839 0
M  V30 44447 H 4475.88 -3.65659 -1.30059 0
M  V30 44448 H 4473.98 -2.01088 -3.13679 0
M  V30 44449 H 4474.09 -3.8692 -2.82542 0
M  V30 44450 H 4472.46 -1.9984 -1.57911 0
M  V30 44451 H 4473.24 -3.37459 -0.630575 0
M  V30 44452 N 4475.69 0.734288 -1.39449 0
M  V30 44453 C 4477.1 1.31259 -1.3277 0
M  V30 44454 C 4477.45 1.96199 0.00760599 0
M  V30 44455 O 4476.57 1.96349 0.909727 0
M  V30 44456 C 4477.17 2.38674 -2.40459 0
M  V30 44457 C 4475.73 2.92175 -2.37299 0
M  V30 44458 C 4474.87 1.65752 -2.2231 0
M  V30 44459 H 4477.83 0.531746 -1.49526 0
M  V30 44460 H 4477.85 3.1908 -2.07288 0
M  V30 44461 H 4477.36 1.9138 -3.37632 0
M  V30 44462 H 4475.46 3.43747 -1.43766 0
M  V30 44463 H 4475.57 3.45241 -3.32183 0
M  V30 44464 H 4473.94 1.90114 -1.69495 0
M  V30 44465 H 4474.72 1.20509 -3.21454 0
M  V30 44466 N 4477.16 1.24636 0.964549 0
M  V30 44467 C 4478.39 1.11602 1.74814 0
M  V30 44468 C 4478.81 -0.327165 1.85233 0
M  V30 44469 O 4478.17 -1.2369 1.32554 0
M  V30 44470 C 4478.22 1.76408 3.14504 0
M  V30 44471 O 4477.32 1.03699 3.9915 0
M  V30 44472 H 4476.67 0.390215 0.537241 0
M  V30 44473 H 4479.2 1.65006 1.20971 0
M  V30 44474 H 4479.21 1.82292 3.65012 0
M  V30 44475 H 4477.88 2.81411 3.06236 0
M  V30 44476 H 4476.46 1.05623 3.57628 0
M  V30 44477 N 4478.64 -1.1657 1.06062 0
M  V30 44478 C 4479.87 -1.9149 0.796629 0
M  V30 44479 C 4480.29 -1.76776 -0.642806 0
M  V30 44480 O 4479.65 -1.09147 -1.44764 0
M  V30 44481 C 4479.7 -3.40288 1.19315 0
M  V30 44482 O 4478.8 -4.11073 0.330538 0
M  V30 44483 H 4478.14 -0.596668 0.291347 0
M  V30 44484 H 4480.67 -1.47703 1.4158 0
M  V30 44485 H 4480.68 -3.91053 1.1637 0
M  V30 44486 H 4479.36 -3.50318 2.24165 0
M  V30 44487 H 4477.94 -3.70512 0.421355 0
M  V30 44488 N 4480.12 -0.842873 -1.33167 0
M  V30 44489 C 4481.35 -0.454126 -2.01855 0
M  V30 44490 C 4481.76 0.945813 -1.63401 0
M  V30 44491 O 4481.12 1.61531 -0.849358 0
M  V30 44492 C 4481.17 -0.56984 -3.5698 0
M  V30 44493 O 4480.89 -1.91462 -3.94048 0
M  V30 44494 C 4482.39 -0.178568 -4.4294 0
M  V30 44495 H 4479.61 -0.179812 -0.646458 0
M  V30 44496 H 4482.16 -1.13656 -1.70008 0
M  V30 44497 H 4480.31 0.0647225 -3.87346 0
M  V30 44498 H 4480.73 -1.90299 -4.8876 0
M  V30 44499 H 4482.2 -0.31057 -5.51126 0
M  V30 44500 H 4482.68 0.879905 -4.30296 0
M  V30 44501 H 4483.28 -0.787726 -4.17941 0
M  V30 44502 N 4481.6 1.45745 -0.599685 0
M  V30 44503 C 4482.85 2.02592 -0.0919355 0
M  V30 44504 C 4483.18 1.46811 1.27123 0
M  V30 44505 O 4482.45 0.639722 1.83679 0
M  V30 44506 C 4482.74 3.60073 -0.0444663 0
M  V30 44507 C 4482.59 4.26203 -1.43774 0
M  V30 44508 C 4483.91 4.35311 0.647455 0
M  V30 44509 H 4481.03 0.736174 -0.0348829 0
M  V30 44510 H 4483.67 1.73692 -0.770142 0
M  V30 44511 H 4481.82 3.84825 0.533088 0
M  V30 44512 H 4483.49 4.12661 -2.06176 0
M  V30 44513 H 4481.73 3.84909 -2.00069 0
M  V30 44514 H 4482.41 5.35064 -1.35684 0
M  V30 44515 H 4484.88 4.15805 0.15663 0
M  V30 44516 H 4483.76 5.45041 0.64975 0
M  V30 44517 H 4484.02 4.07604 1.71205 0
M  V30 44518 N 4483.08 0.338398 1.53924 0
M  V30 44519 C 4484.01 -0.555039 2.22378 0
M  V30 44520 C 4485.02 -1.06808 1.22866 0
M  V30 44521 O 4486.21 -0.979111 1.4925 0
M  V30 44522 C 4483.31 -1.77599 2.88638 0
M  V30 44523 C 4482.48 -1.39912 4.14419 0
M  V30 44524 C 4481.54 -2.4792 4.64136 0
M  V30 44525 O 4480.57 -2.11442 5.2847 0
M  V30 44526 N 4481.77 -3.79091 4.39625 0
M  V30 44527 H 4484.54 0.0311831 2.99684 0
M  V30 44528 H 4482.1 0.162283 1.61085 0
M  V30 44529 H 4484.09 -2.49276 3.18816 0
M  V30 44530 H 4482.66 -2.26971 2.14949 0
M  V30 44531 H 4481.88 -0.513344 3.90843 0
M  V30 44532 H 4483.17 -1.12323 4.96247 0
M  V30 44533 H 4482.57 -4.11517 3.88162 0
M  V30 44534 H 4481.12 -4.46954 4.74422 0
M  V30 44535 N 4484.56 -1.57458 0.0668989 0
M  V30 44536 C 4485.49 -2.09416 -0.931528 0
M  V30 44537 C 4486.5 -1.02527 -1.2646 0
M  V30 44538 O 4487.69 -1.30053 -1.22264 0
M  V30 44539 C 4484.79 -2.53545 -2.24873 0
M  V30 44540 C 4483.96 -3.83951 -2.09524 0
M  V30 44541 C 4483.02 -4.14225 -3.24505 0
M  V30 44542 O 4482.05 -4.83902 -2.99713 0
M  V30 44543 N 4483.25 -3.67382 -4.49456 0
M  V30 44544 H 4486.01 -2.95701 -0.487944 0
M  V30 44545 H 4483.58 -1.61462 -0.118952 0
M  V30 44546 H 4485.57 -2.70863 -3.00691 0
M  V30 44547 H 4484.14 -1.72424 -2.60746 0
M  V30 44548 H 4483.36 -3.76061 -1.18202 0
M  V30 44549 H 4484.65 -4.69319 -1.96513 0
M  V30 44550 H 4484.04 -3.11085 -4.72486 0
M  V30 44551 H 4482.6 -3.89909 -5.22316 0
M  V30 44552 N 4486.03 0.20662 -1.5624 0
M  V30 44553 C 4487.28 0.926944 -1.79589 0
M  V30 44554 C 4487.6 1.84268 -0.637994 0
M  V30 44555 O 4486.87 1.9285 0.34433 0
M  V30 44556 H 4485.45 0.345269 -0.662419 0
M  V30 44557 H 4488.11 0.214892 -1.93712 0
M  V30 44558 H 4487.21 1.52491 -2.7231 0
M  V30 44559 N 4487.51 1.50306 0.473902 0
M  V30 44560 C 4488.44 1.65114 1.58965 0
M  V30 44561 C 4489.46 0.53273 1.53837 0
M  V30 44562 O 4490.65 0.805807 1.59276 0
M  V30 44563 C 4487.75 1.61695 2.97839 0
M  V30 44564 C 4486.92 2.89521 3.27866 0
M  V30 44565 C 4485.98 2.78783 4.46281 0
M  V30 44566 O 4485 3.52738 4.46727 0
M  V30 44567 N 4486.21 1.92149 5.47776 0
M  V30 44568 H 4488.97 2.61353 1.4668 0
M  V30 44569 H 4486.53 1.47735 0.662272 0
M  V30 44570 H 4488.52 1.52128 3.75019 0
M  V30 44571 H 4487.09 0.732032 3.03908 0
M  V30 44572 H 4486.31 3.13237 2.39325 0
M  V30 44573 H 4487.6 3.74211 3.44737 0
M  V30 44574 H 4487 1.31373 5.50234 0
M  V30 44575 H 4485.56 1.88488 6.23952 0
M  V30 44576 N 4488.99 -0.726883 1.39836 0
M  V30 44577 C 4490.27 -1.47898 1.28006 0
M  V30 44578 C 4490.65 -2.1083 -0.106715 0
M  V30 44579 O 4489.99 -1.99246 -1.11862 0
M  V30 44580 C 4490.2 -2.52384 2.41047 0
M  V30 44581 C 4491.55 -3.18536 2.80749 0
M  V30 44582 O 4492.58 -2.627 2.40556 0
M  V30 44583 O 4491.44 -4.19592 3.5015 0
M  V30 44584 H 4488.53 -0.657145 0.502085 0
M  V30 44585 H 4491.08 -0.760017 1.51729 0
M  V30 44586 H 4489.85 -2.04317 3.33722 0
M  V30 44587 H 4489.47 -3.31829 2.19033 0
M  V30 44588 N 4490.47 -1.25146 -0.957926 0
M  V30 44589 C 4491.43 -1.05328 -2.03565 0
M  V30 44590 C 4492.43 -0.00720853 -1.60798 0
M  V30 44591 O 4493.62 -0.249091 -1.7241 0
M  V30 44592 C 4490.75 -0.598512 -3.35605 0
M  V30 44593 H 4491.95 -2.00994 -2.22579 0
M  V30 44594 H 4489.5 -1.07506 -1.13455 0
M  V30 44595 H 4490.23 0.360901 -3.22286 0
M  V30 44596 H 4490.02 -1.35364 -3.67993 0
M  V30 44597 H 4491.51 -0.481186 -4.14818 0
M  V30 44598 N 4491.95 1.16006 -1.06679 0
M  V30 44599 C 4493.17 1.91065 -0.806773 0
M  V30 44600 C 4493.6 1.77114 0.633422 0
M  V30 44601 O 4492.95 1.09913 1.44183 0
M  V30 44602 C 4493 3.39651 -1.21118 0
M  V30 44603 O 4492.11 4.10892 -0.352334 0
M  V30 44604 H 4491.45 0.595115 -0.294507 0
M  V30 44605 H 4493.98 1.4695 -1.42362 0
M  V30 44606 H 4493.99 3.9043 -1.18442 0
M  V30 44607 H 4492.66 3.49124 -2.2602 0
M  V30 44608 H 4491.24 3.70283 -0.440998 0
M  V30 44609 N 4493.42 0.849923 1.32718 0
M  V30 44610 C 4494.67 0.450992 1.97414 0
M  V30 44611 C 4495 -0.992317 1.67282 0
M  V30 44612 O 4494.25 -1.71045 0.950905 0
M  V30 44613 C 4494.55 0.631395 3.51779 0
M  V30 44614 C 4494.22 2.04446 4.01886 0
M  V30 44615 C 4492.88 2.43095 4.15281 0
M  V30 44616 C 4495.23 2.96694 4.28511 0
M  V30 44617 C 4492.56 3.73273 4.52641 0
M  V30 44618 C 4494.91 4.26366 4.67328 0
M  V30 44619 C 4493.58 4.64956 4.78929 0
M  V30 44620 H 4492.85 0.16503 0.722389 0
M  V30 44621 H 4495.49 1.07907 1.58203 0
M  V30 44622 H 4493.8 -0.0799389 3.91718 0
M  V30 44623 H 4495.5 0.30285 3.99855 0
M  V30 44624 H 4492.09 1.73433 3.91943 0
M  V30 44625 H 4496.27 2.68068 4.17676 0
M  V30 44626 H 4491.53 4.02962 4.59817 0
M  V30 44627 H 4495.7 4.97912 4.86884 0
M  V30 44628 H 4493.33 5.65872 5.07634 0
M  V30 44629 N 4494.9 -1.45425 0.607406 0
M  V30 44630 C 4495.85 -2.3053 -0.111544 0
M  V30 44631 C 4496.82 -1.42093 -0.860166 0
M  V30 44632 O 4498 -1.71022 -0.845938 0
M  V30 44633 C 4495.14 -3.26996 -1.10307 0
M  V30 44634 C 4494.26 -4.30536 -0.355342 0
M  V30 44635 C 4493.39 -5.1411 -1.33658 0
M  V30 44636 C 4492.43 -6.09378 -0.576648 0
M  V30 44637 N 4491.57 -6.85733 -1.50716 0
M  V30 44638 H 4496.41 -2.91475 0.620196 0
M  V30 44639 H 4493.95 -1.43629 0.317644 0
M  V30 44640 H 4495.9 -3.81391 -1.69107 0
M  V30 44641 H 4494.53 -2.67805 -1.80223 0
M  V30 44642 H 4493.59 -3.78803 0.348156 0
M  V30 44643 H 4494.9 -4.98234 0.237598 0
M  V30 44644 H 4494.05 -5.72904 -1.99664 0
M  V30 44645 H 4492.79 -4.4643 -1.96345 0
M  V30 44646 H 4491.8 -5.49714 0.0970452 0
M  V30 44647 H 4493.02 -6.79085 0.0451728 0
M  V30 44648 H 4490.97 -6.20742 -2.12168 0
M  V30 44649 H 4490.88 -7.49782 -0.96765 0
M  V30 44650 H 4492.15 -7.49068 -2.1568 0
M  V30 44651 N 4496.38 -0.346557 -1.53742 0
M  V30 44652 C 4497.62 0.249342 -2.02873 0
M  V30 44653 C 4497.98 1.47527 -1.22881 0
M  V30 44654 O 4499.19 2.14555 -1.61925 0
M  V30 44655 C 4497.46 0.552785 -3.53099 0
M  V30 44656 S 4499.02 1.12507 -4.24132 0
M  V30 44657 H 4495.83 0.0740171 -0.707137 0
M  V30 44658 H 4498.44 -0.485016 -1.89388 0
M  V30 44659 H 4497.14 -0.347227 -4.08928 0
M  V30 44660 H 4496.67 1.31673 -3.7071 0
M  V30 44661 H 4498.69 2.4106 -4.3371 0
M  V30 44662 N 4497.86 1.5742 -0.0752483 0
M  V30 44663 C 4498.79 2.15945 0.888248 0
M  V30 44664 C 4499.77 1.08741 1.30803 0
M  V30 44665 O 4500.95 1.36792 1.37846 0
M  V30 44666 C 4498.08 2.72386 2.1546 0
M  V30 44667 C 4497.04 3.84787 1.87411 0
M  V30 44668 C 4496.36 4.27845 3.20706 0
M  V30 44669 C 4497.66 5.08873 1.17666 0
M  V30 44670 H 4499.36 2.96707 0.400695 0
M  V30 44671 H 4496.9 1.42724 0.191292 0
M  V30 44672 H 4498.86 3.11975 2.83284 0
M  V30 44673 H 4497.58 1.88851 2.66464 0
M  V30 44674 H 4496.24 3.45707 1.21992 0
M  V30 44675 H 4495.89 3.41227 3.69558 0
M  V30 44676 H 4495.59 5.03616 3.02729 0
M  V30 44677 H 4497.11 4.70053 3.89721 0
M  V30 44678 H 4498.53 5.45756 1.75564 0
M  V30 44679 H 4496.92 5.89944 1.09935 0
M  V30 44680 H 4497.99 4.84648 0.156283 0
M  V30 44681 N 4499.34 -0.198331 1.56347 0
M  V30 44682 C 4500.59 -0.917388 1.7963 0
M  V30 44683 C 4500.9 -1.84558 0.647905 0
M  V30 44684 O 4502.1 -2.60501 0.76495 0
M  V30 44685 C 4500.56 -1.68164 3.18196 0
M  V30 44686 C 4500.17 -0.798434 4.40828 0
M  V30 44687 C 4501.91 -2.39052 3.50791 0
M  V30 44688 C 4499.82 -1.56137 5.70417 0
M  V30 44689 H 4498.75 -0.346294 0.669774 0
M  V30 44690 H 4501.4 -0.170736 1.82704 0
M  V30 44691 H 4499.78 -2.47205 3.09363 0
M  V30 44692 H 4500.96 -0.0469045 4.60776 0
M  V30 44693 H 4499.27 -0.20054 4.15917 0
M  V30 44694 H 4501.87 -2.96677 4.44845 0
M  V30 44695 H 4502.21 -3.13082 2.74382 0
M  V30 44696 H 4502.74 -1.6698 3.61058 0
M  V30 44697 H 4499.48 -0.863913 6.49782 0
M  V30 44698 H 4499 -2.28691 5.54491 0
M  V30 44699 H 4500.68 -2.11601 6.1142 0
M  V30 44700 N 4500.81 -1.50555 -0.465925 0
M  V30 44701 C 4501.76 -1.66183 -1.561 0
M  V30 44702 C 4502.75 -0.516319 -1.52391 0
M  V30 44703 O 4503.94 -0.770962 -1.59327 0
M  V30 44704 C 4501.07 -1.76407 -2.94509 0
M  V30 44705 C 4500.16 -2.96651 -3.03083 0
M  V30 44706 N 4500.55 -4.20255 -2.81459 0
M  V30 44707 C 4498.84 -2.95315 -3.34223 0
M  V30 44708 C 4499.55 -5.01269 -2.95133 0
M  V30 44709 N 4498.52 -4.35329 -3.2556 0
M  V30 44710 H 4502.32 -2.59439 -1.38089 0
M  V30 44711 H 4499.84 -1.4781 -0.672748 0
M  V30 44712 H 4501.83 -1.85707 -3.73254 0
M  V30 44713 H 4500.49 -0.843127 -3.13563 0
M  V30 44714 H 4501.51 -4.49669 -2.5694 0
M  V30 44715 H 4498.18 -2.12741 -3.59232 0
M  V30 44716 H 4499.57 -6.09574 -2.82611 0
M  V30 44717 N 4502.29 0.719457 -1.4022 0
M  V30 44718 C 4503.57 1.47217 -1.28789 0
M  V30 44719 C 4503.95 2.10884 0.0955326 0
M  V30 44720 O 4503.3 1.99837 1.10804 0
M  V30 44721 C 4503.51 2.51102 -2.42382 0
M  V30 44722 C 4504.86 3.17043 -2.82434 0
M  V30 44723 O 4505.88 2.6142 -2.41946 0
M  V30 44724 O 4504.74 4.17729 -3.5237 0
M  V30 44725 H 4501.83 0.654473 -0.505563 0
M  V30 44726 H 4504.38 0.75196 -1.5213 0
M  V30 44727 H 4503.15 2.02545 -3.34801 0
M  V30 44728 H 4502.77 3.30663 -2.20789 0
M  V30 44729 N 4503.77 1.25652 0.951275 0
M  V30 44730 C 4505.02 1.10381 1.69294 0
M  V30 44731 C 4505.34 -0.355272 1.91736 0
M  V30 44732 O 4504.61 -1.25183 1.50686 0
M  V30 44733 H 4503.19 0.405483 0.627369 0
M  V30 44734 H 4505.85 1.57827 1.14353 0
M  V30 44735 H 4504.95 1.61474 2.67081 0
M  V30 44736 N 4505.25 -1.15438 1.07293 0
M  V30 44737 C 4506.21 -2.18356 0.696667 0
M  V30 44738 C 4507.21 -1.58638 -0.262781 0
M  V30 44739 O 4508.4 -1.74145 -0.0438197 0
M  V30 44740 C 4505.53 -3.4089 0.0267349 0
M  V30 44741 H 4506.73 -2.53157 1.60785 0
M  V30 44742 H 4504.28 -1.2989 0.869388 0
M  V30 44743 H 4505.01 -3.11656 -0.896712 0
M  V30 44744 H 4504.8 -3.85493 0.716793 0
M  V30 44745 H 4506.29 -4.1701 -0.221881 0
M  V30 44746 N 4506.73 -0.85695 -1.32265 0
M  V30 44747 C 4507.69 -0.308251 -2.27118 0
M  V30 44748 C 4508.69 0.533368 -1.51697 0
M  V30 44749 O 4509.88 0.344547 -1.70759 0
M  V30 44750 C 4507.01 0.563639 -3.36208 0
M  V30 44751 H 4508.2 -1.14545 -2.77163 0
M  V30 44752 H 4505.76 -0.631471 -1.42976 0
M  V30 44753 H 4506.49 1.42256 -2.91434 0
M  V30 44754 H 4506.28 -0.0388128 -3.92081 0
M  V30 44755 H 4507.77 0.940243 -4.06877 0
M  V30 44756 N 4508.2 1.45101 -0.61511 0
M  V30 44757 C 4509.62 1.85653 -0.197448 0
M  V30 44758 C 4509.97 1.51438 1.24744 0
M  V30 44759 O 4509.09 0.944677 1.94692 0
M  V30 44760 C 4509.69 3.36971 -0.351566 0
M  V30 44761 C 4508.25 3.76398 0.0114607 0
M  V30 44762 C 4507.39 2.69022 -0.672488 0
M  V30 44763 H 4510.34 1.35795 -0.821311 0
M  V30 44764 H 4510.36 3.7824 0.414094 0
M  V30 44765 H 4509.88 3.61843 -1.40327 0
M  V30 44766 H 4507.98 3.57143 1.06205 0
M  V30 44767 H 4508.09 4.77531 -0.387433 0
M  V30 44768 H 4506.45 2.54465 -0.109373 0
M  V30 44769 H 4507.24 2.96729 -1.72647 0
M  V30 44770 N 4509.68 0.354705 1.53557 0
M  V30 44771 C 4510.93 -0.239434 2.00274 0
M  V30 44772 C 4511.25 -1.50755 1.24628 0
M  V30 44773 O 4512.45 -2.17962 1.61879 0
M  V30 44774 C 4510.91 -0.477216 3.56722 0
M  V30 44775 C 4510.52 0.775643 4.41234 0
M  V30 44776 C 4512.26 -1.0296 4.11824 0
M  V30 44777 C 4510.17 0.508045 5.89214 0
M  V30 44778 H 4509.1 -0.093248 0.748212 0
M  V30 44779 H 4511.75 0.471763 1.77332 0
M  V30 44780 H 4510.13 -1.2494 3.75774 0
M  V30 44781 H 4511.3 1.54978 4.33957 0
M  V30 44782 H 4509.62 1.25047 3.9718 0
M  V30 44783 H 4512.22 -1.24495 5.20005 0
M  V30 44784 H 4512.56 -1.9885 3.65738 0
M  V30 44785 H 4513.09 -0.317855 3.96528 0
M  V30 44786 H 4509.83 1.43697 6.39556 0
M  V30 44787 H 4509.35 -0.2278 5.99367 0
M  V30 44788 H 4511.03 0.129466 6.4687 0
M  V30 44789 N 4511.16 -1.57378 0.0835957 0
M  V30 44790 C 4512.39 -1.98684 -0.594917 0
M  V30 44791 C 4512.81 -0.962026 -1.61637 0
M  V30 44792 O 4512.17 0.0709352 -1.81161 0
M  V30 44793 C 4512.22 -3.38993 -1.22948 0
M  V30 44794 O 4511.32 -3.39216 -2.34534 0
M  V30 44795 H 4510.66 -0.646373 -0.15198 0
M  V30 44796 H 4513.19 -2.03961 0.161604 0
M  V30 44797 H 4513.2 -3.76436 -1.57353 0
M  V30 44798 H 4511.88 -4.13108 -0.481083 0
M  V30 44799 H 4510.45 -3.13555 -2.01835 0
M  V30 44800 N 4512.64 0.190037 -1.5645 0
M  V30 44801 C 4513.57 1.2381 -1.97973 0
M  V30 44802 C 4514.55 1.47198 -0.852446 0
M  V30 44803 O 4515.74 1.5885 -1.11715 0
M  V30 44804 C 4512.87 2.58122 -2.32359 0
M  V30 44805 C 4511.82 2.49336 -3.47873 0
M  V30 44806 C 4511.15 3.87967 -3.67948 0
M  V30 44807 C 4512.45 2.01407 -4.81905 0
M  V30 44808 H 4514.14 0.89301 -2.85772 0
M  V30 44809 H 4511.69 0.428129 -1.37488 0
M  V30 44810 H 4513.64 3.31627 -2.60002 0
M  V30 44811 H 4512.36 2.94381 -1.41448 0
M  V30 44812 H 4511.02 1.78286 -3.20328 0
M  V30 44813 H 4510.67 4.21588 -2.74359 0
M  V30 44814 H 4510.37 3.82962 -4.45661 0
M  V30 44815 H 4511.89 4.63087 -3.97973 0
M  V30 44816 H 4513.31 2.64675 -5.08547 0
M  V30 44817 H 4511.7 2.07393 -5.63123 0
M  V30 44818 H 4512.77 0.96751 -4.7515 0
M  V30 44819 N 4514.12 1.508 0.457934 0
M  V30 44820 C 4515.03 1.73431 1.57983 0
M  V30 44821 C 4516.04 0.617802 1.62663 0
M  V30 44822 O 4517.22 0.897677 1.80288 0
M  V30 44823 C 4514.28 1.83568 2.94115 0
M  V30 44824 C 4513.35 3.07355 2.99719 0
M  V30 44825 C 4512.58 3.16998 4.29357 0
M  V30 44826 O 4512.8 2.33095 5.20598 0
M  V30 44827 O 4511.74 4.09828 4.40823 0
M  V30 44828 H 4515.56 2.6856 1.41808 0
M  V30 44829 H 4513.15 1.35054 0.638812 0
M  V30 44830 H 4515.03 1.92339 3.74945 0
M  V30 44831 H 4513.7 0.916246 3.10462 0
M  V30 44832 H 4512.61 3.04076 2.17919 0
M  V30 44833 H 4513.94 3.9892 2.88312 0
M  V30 44834 N 4515.6 -0.71201 1.40599 0
M  V30 44835 C 4516.84 -1.47287 1.40279 0
M  V30 44836 C 4517.2 -1.92399 0.00583576 0
M  V30 44837 O 4516.49 -1.6551 -0.965239 0
M  V30 44838 C 4516.68 -2.71031 2.32974 0
M  V30 44839 C 4516.51 -2.38022 3.81544 0
M  V30 44840 C 4515.28 -2.29187 4.50335 0
M  V30 44841 C 4517.48 -2.02059 4.72945 0
M  V30 44842 N 4515.46 -1.8889 5.84118 0
M  V30 44843 C 4516.83 -1.72391 5.95551 0
M  V30 44844 C 4518.89 -1.88726 4.60746 0
M  V30 44845 C 4517.59 -1.30731 7.0732 0
M  V30 44846 C 4519.62 -1.4847 5.7246 0
M  V30 44847 C 4518.98 -1.19702 6.94155 0
M  V30 44848 H 4515.08 -0.536899 0.568563 0
M  V30 44849 H 4517.66 -0.825362 1.7634 0
M  V30 44850 H 4515.83 -3.33526 1.99035 0
M  V30 44851 H 4517.57 -3.37396 2.23486 0
M  V30 44852 H 4514.32 -2.47045 4.04061 0
M  V30 44853 H 4514.74 -1.7127 6.54978 0
M  V30 44854 H 4519.39 -2.09627 3.67173 0
M  V30 44855 H 4517.1 -1.08573 8.00773 0
M  V30 44856 H 4520.69 -1.38727 5.65019 0
M  V30 44857 H 4519.57 -0.890208 7.79131 0
M  V30 44858 N 4517.07 -1.26155 -0.944598 0
M  V30 44859 C 4518.02 -1.07415 -2.04281 0
M  V30 44860 C 4518.99 0.0197829 -1.66088 0
M  V30 44861 O 4520.18 -0.139331 -1.90291 0
M  V30 44862 C 4517.32 -0.709568 -3.37726 0
M  V30 44863 C 4516.43 -1.8794 -3.88976 0
M  V30 44864 C 4515.56 -1.45825 -5.10792 0
M  V30 44865 C 4514.6 -2.59659 -5.54296 0
M  V30 44866 N 4513.74 -2.18249 -6.67317 0
M  V30 44867 H 4518.58 -2.01397 -2.19643 0
M  V30 44868 H 4516.12 -1.00279 -1.07622 0
M  V30 44869 H 4518.07 -0.479094 -4.1444 0
M  V30 44870 H 4516.7 0.193276 -3.22221 0
M  V30 44871 H 4515.76 -2.2229 -3.08693 0
M  V30 44872 H 4517.07 -2.73392 -4.17203 0
M  V30 44873 H 4516.22 -1.18802 -5.94955 0
M  V30 44874 H 4514.96 -0.574585 -4.84303 0
M  V30 44875 H 4513.97 -2.87415 -4.68692 0
M  V30 44876 H 4515.19 -3.48619 -5.82788 0
M  V30 44877 H 4513.14 -1.32313 -6.42518 0
M  V30 44878 H 4513.05 -2.97245 -6.95112 0
M  V30 44879 H 4514.32 -1.94429 -7.54863 0
M  V30 44880 N 4518.55 1.14868 -1.07903 0
M  V30 44881 C 4519.78 1.89658 -0.826896 0
M  V30 44882 C 4520.19 1.78314 0.620456 0
M  V30 44883 O 4519.55 1.13893 1.426 0
M  V30 44884 C 4519.6 3.39812 -1.23328 0
M  V30 44885 O 4519.32 3.50836 -2.62385 0
M  V30 44886 C 4520.82 4.31612 -1.01125 0
M  V30 44887 H 4518.04 0.60091 -0.298578 0
M  V30 44888 H 4520.59 1.45505 -1.43696 0
M  V30 44889 H 4518.74 3.81607 -0.66742 0
M  V30 44890 H 4519.16 4.44066 -2.79116 0
M  V30 44891 H 4520.63 5.35362 -1.34505 0
M  V30 44892 H 4521.11 4.39169 0.0520624 0
M  V30 44893 H 4521.71 3.95566 -1.56229 0
M  V30 44894 N 4520.03 0.863952 1.31809 0
M  V30 44895 C 4521.45 0.555057 1.49637 0
M  V30 44896 C 4521.65 -0.912203 1.79669 0
M  V30 44897 O 4520.7 -1.69473 1.87177 0
M  V30 44898 C 4522.01 1.45008 2.63426 0
M  V30 44899 C 4523.56 1.45148 2.7731 0
M  V30 44900 C 4524.04 2.33193 3.94189 0
M  V30 44901 N 4525.53 2.3104 4.01466 0
M  V30 44902 C 4526.26 2.95888 4.9116 0
M  V30 44903 N 4525.76 3.69883 5.85797 0
M  V30 44904 N 4527.55 2.85228 4.84357 0
M  V30 44905 H 4519.7 1.81343 1.10583 0
M  V30 44906 H 4521.97 0.775069 0.545868 0
M  V30 44907 H 4521.67 2.49386 2.47991 0
M  V30 44908 H 4521.55 1.14422 3.59427 0
M  V30 44909 H 4523.93 0.415304 2.92163 0
M  V30 44910 H 4524.01 1.79754 1.81995 0
M  V30 44911 H 4523.66 3.36883 3.80095 0
M  V30 44912 H 4523.59 1.95914 4.888 0
M  V30 44913 H 4526.08 1.7725 3.33753 0
M  V30 44914 H 4526.39 4.16508 6.50954 0
M  V30 44915 H 4524.74 3.73992 5.85795 0
M  V30 44916 H 4527.93 2.26963 4.09397 0
M  V30 44917 H 4528.1 3.36047 5.54055 0
M  V30 44918 N 4521.51 -1.44772 0.622796 0
M  V30 44919 C 4522.46 -2.32388 -0.0993866 0
M  V30 44920 C 4523.45 -1.46862 -0.844274 0
M  V30 44921 O 4524.66 -1.63256 -0.758117 0
M  V30 44922 H 4521.03 -0.750275 -0.0509027 0
M  V30 44923 H 4523 -2.9106 0.657772 0
M  V30 44924 C 4521.75 -3.30727 -1.07307 0
M  V30 44925 H 4521.07 -3.96542 -0.509323 0
M  V30 44926 H 4522.51 -3.9473 -1.54803 0
M  V30 44927 C 4520.97 -2.59029 -2.1542 0
M  V30 44928 O 4521.5 -2.38297 -3.23384 0
M  V30 44929 N 4519.71 -2.18907 -1.91123 0
M  V30 44930 H 4519.26 -2.35968 -1.03329 0
M  V30 44931 H 4519.21 -1.7126 -2.63662 0
M  V30 44932 N 4522.99 -0.362844 -1.53366 0
M  V30 44933 C 4523.92 0.51959 -2.23233 0
M  V30 44934 C 4524.93 1.04839 -1.24549 0
M  V30 44935 O 4526.12 0.955243 -1.50789 0
M  V30 44936 C 4523.22 1.72985 -2.91427 0
M  V30 44937 C 4522.39 1.33302 -4.16593 0
M  V30 44938 C 4521.45 2.40504 -4.68022 0
M  V30 44939 O 4520.48 2.03008 -5.31767 0
M  V30 44940 N 4521.68 3.72049 -4.456 0
M  V30 44941 H 4524.44 -0.0788563 -2.99596 0
M  V30 44942 H 4522.01 -0.187889 -1.60806 0
M  V30 44943 H 4524 2.44173 -3.22741 0
M  V30 44944 H 4522.57 2.23522 -2.18533 0
M  V30 44945 H 4521.79 0.451099 -3.9161 0
M  V30 44946 H 4523.08 1.04414 -4.97971 0
M  V30 44947 H 4522.47 4.0529 -3.9466 0
M  V30 44948 H 4521.03 4.39349 -4.81472 0
M  V30 44949 N 4524.46 1.57332 -0.0919406 0
M  V30 44950 C 4525.37 2.17371 0.882429 0
M  V30 44951 C 4526.39 1.14231 1.31253 0
M  V30 44952 O 4527.57 1.46587 1.38109 0
M  V30 44953 C 4524.63 2.73969 2.12466 0
M  V30 44954 C 4523.69 3.92054 1.74906 0
M  V30 44955 C 4522.93 4.45943 2.93207 0
M  V30 44956 O 4523.15 3.98779 4.07838 0
M  V30 44957 O 4522.08 5.37008 2.71856 0
M  V30 44958 H 4525.91 3.01033 0.401614 0
M  V30 44959 H 4523.49 1.48814 0.132238 0
M  V30 44960 H 4525.38 3.10157 2.85272 0
M  V30 44961 H 4524.05 1.93356 2.59606 0
M  V30 44962 H 4522.96 3.60683 0.992898 0
M  V30 44963 H 4524.29 4.74021 1.32532 0
M  V30 44964 N 4525.94 -0.181737 1.56549 0
M  V30 44965 C 4526.87 -1.22758 1.98627 0
M  V30 44966 C 4527.85 -1.46744 0.860241 0
M  V30 44967 O 4529.04 -1.58255 1.12556 0
M  V30 44968 C 4526.17 -2.56886 2.33724 0
M  V30 44969 C 4525.12 -2.47488 3.4919 0
M  V30 44970 C 4524.45 -3.8601 3.7 0
M  V30 44971 C 4525.75 -1.98849 4.82966 0
M  V30 44972 H 4527.44 -0.877842 2.86242 0
M  V30 44973 H 4524.99 -0.420832 1.37714 0
M  V30 44974 H 4526.94 -3.30244 2.61757 0
M  V30 44975 H 4525.67 -2.93627 1.43007 0
M  V30 44976 H 4524.32 -1.76584 3.21269 0
M  V30 44977 H 4523.97 -4.20127 2.76591 0
M  V30 44978 H 4523.67 -3.80593 4.47686 0
M  V30 44979 H 4525.2 -4.6097 4.00423 0
M  V30 44980 H 4526.61 -2.61974 5.09944 0
M  V30 44981 H 4525.01 -2.04404 5.64215 0
M  V30 44982 H 4526.08 -0.942298 4.75656 0
M  V30 44983 N 4527.42 -1.51041 -0.44993 0
M  V30 44984 C 4528.33 -1.74267 -1.57061 0
M  V30 44985 C 4529.35 -0.62642 -1.62333 0
M  V30 44986 O 4530.52 -0.907226 -1.79809 0
M  V30 44987 C 4527.59 -1.85125 -2.93138 0
M  V30 44988 C 4526.65 -3.0894 -2.98084 0
M  V30 44989 C 4525.88 -3.19271 -4.2767 0
M  V30 44990 O 4526.1 -2.35853 -5.19355 0
M  V30 44991 O 4525.04 -4.1216 -4.38643 0
M  V30 44992 H 4528.86 -2.69308 -1.40381 0
M  V30 44993 H 4526.45 -1.35391 -0.631641 0
M  V30 44994 H 4528.33 -1.94325 -3.7392 0
M  V30 44995 H 4527.01 -0.932697 -3.09972 0
M  V30 44996 H 4525.91 -3.05227 -2.16303 0
M  V30 44997 H 4527.25 -4.00443 -2.86192 0
M  V30 44998 N 4528.9 0.704544 -1.40975 0
M  V30 44999 C 4530.18 1.45843 -1.30343 0
M  V30 45000 C 4530.56 2.10973 0.0731602 0
M  V30 45001 O 4529.9 2.01001 1.08678 0
M  V30 45002 C 4530.11 2.48517 -2.45031 0
M  V30 45003 C 4531.46 3.1403 -2.85781 0
M  V30 45004 O 4532.49 2.58839 -2.44705 0
M  V30 45005 O 4531.34 4.13968 -3.56781 0
M  V30 45006 H 4528.44 0.649074 -0.512476 0
M  V30 45007 H 4530.98 0.735782 -1.52919 0
M  V30 45008 H 4529.76 1.98982 -3.3693 0
M  V30 45009 H 4529.38 3.28302 -2.24284 0
M  V30 45010 N 4530.38 1.26654 0.937895 0
M  V30 45011 C 4531.32 1.08315 2.05841 0
M  V30 45012 C 4532.32 0.00913525 1.69398 0
M  V30 45013 O 4533.52 0.16607 1.79232 0
M  V30 45014 H 4529.9 0.33344 0.674034 0
M  V30 45015 H 4531.87 2.03268 2.18459 0
M  V30 45016 C 4530.62 0.736348 3.39813 0
M  V30 45017 H 4529.94 1.55466 3.68335 0
M  V30 45018 H 4531.38 0.647838 4.19022 0
M  V30 45019 C 4529.84 -0.558707 3.32235 0
M  V30 45020 O 4530.37 -1.59608 3.6863 0
M  V30 45021 N 4528.58 -0.550557 2.85337 0
M  V30 45022 H 4528.12 0.294033 2.55916 0
M  V30 45023 H 4528.08 -1.41716 2.80649 0
M  V30 45024 N 4531.85 -1.14294 1.08511 0
M  V30 45025 C 4533.1 -1.85631 0.816647 0
M  V30 45026 C 4533.43 -1.82786 -0.655957 0
M  V30 45027 O 4532.71 -1.25931 -1.48229 0
M  V30 45028 C 4532.99 -3.34218 1.34053 0
M  V30 45029 C 4532.84 -3.45629 2.87855 0
M  V30 45030 C 4534.16 -4.29353 0.966651 0
M  V30 45031 H 4531.28 -0.674009 0.298128 0
M  V30 45032 H 4533.92 -1.34209 1.34491 0
M  V30 45033 H 4532.07 -3.78141 0.891173 0
M  V30 45034 H 4533.75 -3.10486 3.41169 0
M  V30 45035 H 4531.99 -2.86806 3.25461 0
M  V30 45036 H 4532.66 -4.50078 3.19584 0
M  V30 45037 H 4535.14 -3.93452 1.35405 0
M  V30 45038 H 4534.01 -5.31775 1.36039 0
M  V30 45039 H 4534.27 -4.4192 -0.126207 0
M  V30 45040 N 4533.33 -0.87093 -1.31349 0
M  V30 45041 C 4534.28 -0.298969 -2.26031 0
M  V30 45042 C 4535.27 0.564542 -1.50671 0
M  V30 45043 O 4536.46 0.411262 -1.72156 0
M  V30 45044 C 4533.59 0.497723 -3.39673 0
M  V30 45045 C 4532.67 -0.379086 -4.22402 0
M  V30 45046 N 4533.06 -1.47301 -4.83876 0
M  V30 45047 C 4531.36 -0.171692 -4.45669 0
M  V30 45048 C 4532.06 -2.01378 -5.45731 0
M  V30 45049 N 4531.04 -1.31065 -5.27563 0
M  V30 45050 H 4534.84 -1.13503 -2.71098 0
M  V30 45051 H 4532.36 -0.718796 -1.45627 0
M  V30 45052 H 4534.35 0.924012 -4.06531 0
M  V30 45053 H 4533.01 1.33139 -2.96149 0
M  V30 45054 H 4534.02 -1.85592 -4.83504 0
M  V30 45055 H 4530.7 0.625946 -4.12781 0
M  V30 45056 H 4532.09 -2.93164 -6.0457 0
M  V30 45057 N 4534.81 1.4444 -0.630465 0
M  V30 45058 C 4536.06 2.01267 -0.132143 0
M  V30 45059 C 4536.37 1.50176 1.25325 0
M  V30 45060 O 4537.58 1.99127 1.84555 0
M  V30 45061 C 4536.03 3.59422 -0.185488 0
M  V30 45062 C 4535.64 4.19508 -1.57216 0
M  V30 45063 C 4537.39 4.23725 0.256404 0
M  V30 45064 C 4535.29 5.69885 -1.58065 0
M  V30 45065 H 4534.22 0.752618 -0.0456356 0
M  V30 45066 H 4536.87 1.65664 -0.789164 0
M  V30 45067 H 4535.26 3.9232 0.538621 0
M  V30 45068 H 4536.43 3.98148 -2.3198 0
M  V30 45069 H 4534.75 3.67489 -1.95808 0
M  V30 45070 H 4537.34 5.3402 0.269579 0
M  V30 45071 H 4537.69 3.96017 1.28358 0
M  V30 45072 H 4538.22 3.95627 -0.415189 0
M  V30 45073 H 4534.96 6.02326 -2.58618 0
M  V30 45074 H 4534.48 5.9337 -0.875933 0
M  V30 45075 H 4536.16 6.3351 -1.3143 0
M  V30 45076 N 4536.29 0.370972 1.53172 0
M  V30 45077 C 4537.51 -0.22022 2.06228 0
M  V30 45078 C 4537.94 -1.41239 1.2423 0
M  V30 45079 O 4537.3 -1.79387 0.262708 0
M  V30 45080 C 4537.34 -0.586538 3.55798 0
M  V30 45081 O 4536.45 -1.68304 3.76494 0
M  V30 45082 H 4535.79 -0.0307866 0.663286 0
M  V30 45083 H 4538.32 0.533137 1.97532 0
M  V30 45084 H 4538.33 -0.85603 3.98919 0
M  V30 45085 H 4537 0.285159 4.14921 0
M  V30 45086 H 4535.58 -1.40869 3.45269 0
M  V30 45087 N 4537.77 -1.57281 0.100283 0
M  V30 45088 C 4539.18 -1.81727 -0.428043 0
M  V30 45089 C 4539.53 -1.01625 -1.6783 0
M  V30 45090 O 4538.65 -0.247174 -2.14984 0
M  V30 45091 C 4539.25 -3.29619 -0.783354 0
M  V30 45092 C 4537.81 -3.54812 -1.2564 0
M  V30 45093 C 4536.95 -2.76119 -0.255655 0
M  V30 45094 H 4539.91 -1.55323 0.325662 0
M  V30 45095 H 4539.93 -3.43226 -1.64244 0
M  V30 45096 H 4539.44 -3.87893 0.126787 0
M  V30 45097 H 4537.54 -3.01876 -2.18408 0
M  V30 45098 H 4537.65 -4.63447 -1.21465 0
M  V30 45099 H 4536.02 -2.43747 -0.738871 0
M  V30 45100 H 4536.8 -3.37143 0.647255 0
M  V30 45101 N 4539.25 0.173432 -1.56643 0
M  V30 45102 C 4540.19 1.2341 -1.97162 0
M  V30 45103 C 4541.19 1.45943 -0.860064 0
M  V30 45104 O 4542.39 1.46548 -1.04517 0
M  V30 45105 H 4538.77 0.414796 -0.627255 0
M  V30 45106 H 4540.74 0.865481 -2.85573 0
M  V30 45107 C 4539.49 2.56642 -2.34585 0
M  V30 45108 H 4538.81 2.40126 -3.19656 0
M  V30 45109 H 4540.25 3.2955 -2.66782 0
M  V30 45110 C 4538.71 3.15241 -1.18847 0
M  V30 45111 O 4539.24 3.98882 -0.475009 0
M  V30 45112 N 4537.45 2.74299 -0.959593 0
M  V30 45113 H 4536.99 2.06385 -1.54153 0
M  V30 45114 H 4536.95 3.13843 -0.187042 0
M  V30 45115 N 4540.72 1.51278 0.441914 0
M  V30 45116 C 4541.97 1.63396 1.18938 0
M  V30 45117 C 4542.29 0.350227 1.91829 0
M  V30 45118 O 4541.56 -0.633719 1.85367 0
M  V30 45119 H 4540.14 0.602179 0.442028 0
M  V30 45120 H 4542.8 1.88187 0.507099 0
M  V30 45121 H 4541.9 2.4594 1.92145 0
M  V30 45122 N 4542.2 -0.697058 1.41347 0
M  V30 45123 C 4543.43 -1.49091 1.44176 0
M  V30 45124 C 4543.85 -1.88038 0.0482229 0
M  V30 45125 O 4543.21 -1.54529 -0.948189 0
M  V30 45126 C 4543.26 -2.7308 2.35499 0
M  V30 45127 O 4542.36 -3.70508 1.81101 0
M  V30 45128 H 4541.7 -0.448784 0.489376 0
M  V30 45129 H 4544.23 -0.856926 1.8579 0
M  V30 45130 H 4544.24 -3.21404 2.51323 0
M  V30 45131 H 4542.92 -2.44069 3.36754 0
M  V30 45132 H 4541.49 -3.29435 1.74719 0
M  V30 45133 N 4543.68 -1.2715 -0.931165 0
M  V30 45134 C 4544.93 -1.12669 -1.67298 0
M  V30 45135 C 4545.24 0.327651 -1.92836 0
M  V30 45136 O 4546.45 0.593299 -2.64938 0
M  V30 45137 C 4544.9 -1.96841 -3.013 0
M  V30 45138 C 4544.51 -3.46911 -2.83472 0
M  V30 45139 C 4546.26 -1.90999 -3.79104 0
M  V30 45140 C 4544.16 -4.23294 -4.13009 0
M  V30 45141 H 4543.09 -0.418052 -0.627494 0
M  V30 45142 H 4545.74 -1.51542 -1.03476 0
M  V30 45143 H 4544.13 -1.50809 -3.66159 0
M  V30 45144 H 4545.3 -4.00781 -2.27401 0
M  V30 45145 H 4543.61 -3.54096 -2.19101 0
M  V30 45146 H 4546.21 -2.45345 -4.75089 0
M  V30 45147 H 4546.55 -0.882861 -4.06831 0
M  V30 45148 H 4547.09 -2.34907 -3.21035 0
M  V30 45149 H 4543.83 -5.26516 -3.90462 0
M  V30 45150 H 4543.35 -3.74202 -4.68756 0
M  V30 45151 H 4545.03 -4.32282 -4.81395 0
M  V30 45152 N 4545.16 1.13717 -1.09116 0
M  V30 45153 C 4546.41 1.84273 -0.820154 0
M  V30 45154 C 4546.72 1.84256 0.656444 0
M  V30 45155 O 4547.93 2.50672 1.04287 0
M  V30 45156 C 4546.38 3.3082 -1.41725 0
M  V30 45157 C 4545.99 3.39234 -2.92616 0
M  V30 45158 C 4547.73 4.06439 -1.22506 0
M  V30 45159 C 4545.64 4.80035 -3.45428 0
M  V30 45160 H 4544.57 0.690376 -0.303144 0
M  V30 45161 H 4547.22 1.28141 -1.31347 0
M  V30 45162 H 4545.6 3.86734 -0.851634 0
M  V30 45163 H 4546.78 2.93332 -3.55377 0
M  V30 45164 H 4545.09 2.77077 -3.10833 0
M  V30 45165 H 4547.69 5.10382 -1.5942 0
M  V30 45166 H 4548.03 4.15971 -0.165445 0
M  V30 45167 H 4548.57 3.56846 -1.75801 0
M  V30 45168 H 4545.3 4.75693 -4.50995 0
M  V30 45169 H 4544.82 5.26445 -2.87429 0
M  V30 45170 H 4546.5 5.48945 -3.42444 0
M  V30 45171 N 4546.64 0.877884 1.30885 0
M  V30 45172 C 4547.86 0.507485 2.0058 0
M  V30 45173 C 4548.28 -0.902157 1.65851 0
M  V30 45174 O 4547.64 -1.59222 0.891887 0
M  V30 45175 C 4547.69 0.664287 3.55344 0
M  V30 45176 O 4547.41 2.01842 3.88833 0
M  V30 45177 C 4548.91 0.295943 4.42311 0
M  V30 45178 H 4546.13 0.196889 0.641464 0
M  V30 45179 H 4548.67 1.18123 1.66935 0
M  V30 45180 H 4546.83 0.0379981 3.87381 0
M  V30 45181 H 4547.24 2.03191 4.83543 0
M  V30 45182 H 4548.72 0.456582 5.50108 0
M  V30 45183 H 4549.19 -0.76551 4.32477 0
M  V30 45184 H 4549.8 0.898259 4.15706 0
M  V30 45185 N 4548.11 -1.44104 0.638116 0
M  V30 45186 C 4549.36 -2.01194 0.142815 0
M  V30 45187 C 4549.68 -1.50839 -1.24527 0
M  V30 45188 O 4550.88 -2.00103 -1.83497 0
M  V30 45189 C 4549.34 -3.59318 0.204547 0
M  V30 45190 C 4548.95 -4.18669 1.59438 0
M  V30 45191 C 4550.69 -4.23855 -0.23393 0
M  V30 45192 C 4548.6 -5.69039 1.61085 0
M  V30 45193 H 4547.53 -0.752365 0.0496263 0
M  V30 45194 H 4550.18 -1.65243 0.797939 0
M  V30 45195 H 4548.56 -3.926 -0.517808 0
M  V30 45196 H 4549.73 -3.96912 2.34088 0
M  V30 45197 H 4548.05 -3.66446 1.97754 0
M  V30 45198 H 4550.65 -5.34155 -0.241255 0
M  V30 45199 H 4550.99 -3.96693 -1.26256 0
M  V30 45200 H 4551.52 -3.95402 0.436164 0
M  V30 45201 H 4548.26 -6.00946 2.61808 0
M  V30 45202 H 4547.78 -5.92897 0.907389 0
M  V30 45203 H 4549.46 -6.32804 1.34788 0
M  V30 45204 N 4549.59 -0.37909 -1.52973 0
M  V30 45205 C 4550.84 0.206656 -2.01744 0
M  V30 45206 C 4551.17 1.4731 -1.26545 0
M  V30 45207 O 4550.45 1.91083 -0.36297 0
M  V30 45208 C 4550.73 0.48494 -3.5682 0
M  V30 45209 C 4550.58 -0.796074 -4.42699 0
M  V30 45210 C 4551.9 1.27988 -4.21079 0
M  V30 45211 H 4549.02 0.0736349 -0.733312 0
M  V30 45212 H 4551.66 -0.506646 -1.8312 0
M  V30 45213 H 4549.81 1.09259 -3.7282 0
M  V30 45214 H 4551.48 -1.43322 -4.38471 0
M  V30 45215 H 4549.73 -1.41358 -4.10122 0
M  V30 45216 H 4550.4 -0.55614 -5.49191 0
M  V30 45217 H 4552.87 0.765723 -4.08994 0
M  V30 45218 H 4551.75 1.44333 -5.29584 0
M  V30 45219 H 4552.01 2.29222 -3.78034 0
M  V30 45220 N 4551.07 1.57225 -0.108623 0
M  V30 45221 C 4552.32 1.9445 0.550785 0
M  V30 45222 C 4552.64 0.992133 1.67874 0
M  V30 45223 O 4551.91 0.0465688 1.95845 0
M  V30 45224 H 4550.49 0.717904 0.206454 0
M  V30 45225 H 4553.15 1.94112 -0.17513 0
M  V30 45226 H 4552.25 2.97221 0.952154 0
M  V30 45227 N 4552.55 -0.165123 1.56733 0
M  V30 45228 C 4553.78 -0.896153 1.86485 0
M  V30 45229 C 4554.19 -1.75553 0.694737 0
M  V30 45230 O 4553.55 -1.7938 -0.336007 0
M  V30 45231 C 4553.6 -1.76781 3.15327 0
M  V30 45232 O 4553.32 -0.943088 4.27829 0
M  V30 45233 C 4554.82 -2.60797 3.58468 0
M  V30 45234 H 4552.04 -0.260042 0.618562 0
M  V30 45235 H 4554.58 -0.163356 2.03847 0
M  V30 45236 H 4552.74 -2.45387 2.99773 0
M  V30 45237 H 4553.15 -1.53981 5.01388 0
M  V30 45238 H 4554.63 -3.17563 4.51506 0
M  V30 45239 H 4555.1 -3.35967 2.82883 0
M  V30 45240 H 4555.71 -1.97513 3.76655 0
M  V30 45241 N 4554.03 -1.5151 -0.433885 0
M  V30 45242 C 4555.44 -1.39762 -0.770633 0
M  V30 45243 C 4555.64 -0.482663 -1.95634 0
M  V30 45244 O 4554.7 0.0608804 -2.52427 0
M  V30 45245 C 4556.01 -2.81855 -1.04777 0
M  V30 45246 C 4557.56 -2.91029 -1.15199 0
M  V30 45247 C 4558.03 -4.34037 -1.46204 0
M  V30 45248 N 4559.53 -4.37159 -1.53121 0
M  V30 45249 C 4560.26 -5.44846 -1.7869 0
M  V30 45250 N 4559.76 -6.62689 -2.02028 0
M  V30 45251 N 4561.55 -5.32331 -1.805 0
M  V30 45252 H 4553.7 -2.09547 0.346966 0
M  V30 45253 H 4555.96 -0.943443 0.0928405 0
M  V30 45254 H 4555.67 -3.50816 -0.24918 0
M  V30 45255 H 4555.54 -3.21393 -1.9745 0
M  V30 45256 H 4557.93 -2.22264 -1.9412 0
M  V30 45257 H 4558.01 -2.54984 -0.204192 0
M  V30 45258 H 4557.66 -5.03353 -0.678097 0
M  V30 45259 H 4557.59 -4.67599 -2.42196 0
M  V30 45260 H 4560.08 -3.52202 -1.36975 0
M  V30 45261 H 4560.39 -7.40551 -2.20917 0
M  V30 45262 H 4558.73 -6.65798 -1.99343 0
M  V30 45263 H 4561.93 -4.39251 -1.61789 0
M  V30 45264 H 4562.1 -6.16335 -2.00089 0
M  V30 45265 N 4555.5 0.689552 -1.41714 0
M  V30 45266 C 4556.92 1.26968 -1.36879 0
M  V30 45267 C 4557.27 1.96123 -0.0548169 0
M  V30 45268 O 4556.39 1.99144 0.8468 0
M  V30 45269 C 4556.99 2.30903 -2.4793 0
M  V30 45270 C 4555.55 2.84478 -2.46474 0
M  V30 45271 C 4554.69 1.58595 -2.2747 0
M  V30 45272 H 4557.64 0.483906 -1.51142 0
M  V30 45273 H 4557.66 3.12324 -2.17334 0
M  V30 45274 H 4557.18 1.80542 -3.4355 0
M  V30 45275 H 4555.28 3.38999 -1.54629 0
M  V30 45276 H 4555.39 3.34498 -3.42998 0
M  V30 45277 H 4553.75 1.84626 -1.75458 0
M  V30 45278 H 4554.54 1.10221 -3.25125 0
M  V30 45279 N 4556.98 1.27642 0.924409 0
M  V30 45280 C 4558.21 1.17107 1.71175 0
M  V30 45281 C 4558.63 -0.268069 1.8618 0
M  V30 45282 O 4557.99 -1.1941 1.36422 0
M  V30 45283 C 4558.04 1.86324 3.08732 0
M  V30 45284 O 4557.14 1.16345 3.95648 0
M  V30 45285 H 4556.48 0.407109 0.524555 0
M  V30 45286 H 4559.01 1.68772 1.1566 0
M  V30 45287 H 4559.02 1.93813 3.59027 0
M  V30 45288 H 4557.7 2.91012 2.97128 0
M  V30 45289 H 4556.28 1.16948 3.54087 0
M  V30 45290 N 4558.46 -1.13137 1.09717 0
M  V30 45291 C 4559.41 -2.20715 0.734012 0
M  V30 45292 C 4560.4 -1.67291 -0.266447 0
M  V30 45293 O 4561.61 -1.79547 -0.127593 0
M  V30 45294 H 4557.98 -0.719284 0.219396 0
M  V30 45295 H 4559.95 -2.48606 1.65039 0
M  V30 45296 C 4558.7 -3.47264 0.173971 0
M  V30 45297 H 4558.03 -3.88713 0.93501 0
M  V30 45298 H 4559.47 -4.23979 -0.0421636 0
M  V30 45299 C 4557.93 -3.18728 -1.09152 0
M  V30 45300 O 4558.46 -3.37769 -2.17427 0
M  V30 45301 N 4556.66 -2.72587 -1.00722 0
M  V30 45302 H 4556.21 -2.57292 -0.12603 0
M  V30 45303 H 4556.17 -2.53869 -1.85467 0
M  V30 45304 N 4559.94 -0.884812 -1.30418 0
M  V30 45305 C 4560.89 -0.322926 -2.25702 0
M  V30 45306 C 4561.87 0.548529 -1.51261 0
M  V30 45307 O 4563.06 0.39298 -1.72582 0
M  V30 45308 C 4560.19 0.461668 -3.40182 0
M  V30 45309 C 4559.28 -0.423866 -4.21977 0
M  V30 45310 N 4559.67 -1.52425 -4.82287 0
M  V30 45311 C 4557.97 -0.218951 -4.45462 0
M  V30 45312 C 4558.67 -2.07155 -5.43564 0
M  V30 45313 N 4557.65 -1.36653 -5.26143 0
M  V30 45314 H 4561.45 -1.16372 -2.69879 0
M  V30 45315 H 4558.96 -0.734201 -1.44856 0
M  V30 45316 H 4560.96 0.880842 -4.07488 0
M  V30 45317 H 4559.62 1.2999 -2.97544 0
M  V30 45318 H 4560.63 -1.9071 -4.81508 0
M  V30 45319 H 4557.31 0.58213 -4.13422 0
M  V30 45320 H 4558.7 -2.9956 -6.01426 0
M  V30 45321 N 4561.42 1.43763 -0.645749 0
M  V30 45322 C 4562.66 2.01499 -0.155802 0
M  V30 45323 C 4562.99 1.51156 1.23195 0
M  V30 45324 O 4562.26 0.721108 1.82145 0
M  V30 45325 H 4560.84 0.745001 -0.0546079 0
M  V30 45326 H 4563.5 1.76072 -0.835739 0
M  V30 45327 H 4562.59 3.11809 -0.134686 0
M  V30 45328 N 4562.89 0.387197 1.5277 0
M  V30 45329 C 4564.12 -0.195797 2.05971 0
M  V30 45330 C 4564.54 -1.40686 1.25908 0
M  V30 45331 O 4563.89 -1.7993 0.305197 0
M  V30 45332 C 4563.95 -0.567995 3.5701 0
M  V30 45333 O 4563.67 0.594956 4.34041 0
M  V30 45334 C 4565.17 -1.20708 4.2655 0
M  V30 45335 H 4562.39 -0.0300343 0.670327 0
M  V30 45336 H 4564.93 0.551818 1.96914 0
M  V30 45337 H 4563.09 -1.26551 3.66147 0
M  V30 45338 H 4563.5 0.289506 5.237 0
M  V30 45339 H 4564.97 -1.41789 5.33479 0
M  V30 45340 H 4565.45 -2.17381 3.81631 0
M  V30 45341 H 4566.06 -0.550387 4.21724 0
M  V30 45342 N 4564.37 -1.57165 0.116959 0
M  V30 45343 C 4565.6 -1.99185 -0.548516 0
M  V30 45344 C 4566.01 -0.995492 -1.60893 0
M  V30 45345 O 4565.35 0.0200647 -1.83689 0
M  V30 45346 C 4565.42 -3.37616 -1.23515 0
M  V30 45347 C 4565.08 -4.55858 -0.322917 0
M  V30 45348 C 4566.08 -5.18055 0.437658 0
M  V30 45349 C 4563.76 -5.01752 -0.234585 0
M  V30 45350 C 4565.76 -6.24532 1.27432 0
M  V30 45351 C 4563.44 -6.08091 0.605709 0
M  V30 45352 C 4564.44 -6.69347 1.35879 0
M  V30 45353 O 4564.13 -7.73632 2.18514 0
M  V30 45354 H 4563.86 -0.659153 -0.149976 0
M  V30 45355 H 4566.41 -2.04429 0.1995 0
M  V30 45356 H 4564.64 -3.2912 -2.03019 0
M  V30 45357 H 4566.33 -3.63938 -1.79733 0
M  V30 45358 H 4567.1 -4.83515 0.379275 0
M  V30 45359 H 4562.98 -4.5382 -0.810441 0
M  V30 45360 H 4566.52 -6.72274 1.86261 0
M  V30 45361 H 4562.42 -6.4206 0.665494 0
M  V30 45362 H 4563.19 -7.9072 2.11433 0
M  V30 45363 N 4565.85 0.156809 -1.56818 0
M  V30 45364 C 4567.27 0.509107 -1.51262 0
M  V30 45365 C 4567.47 1.83894 -0.823722 0
M  V30 45366 O 4566.52 2.49468 -0.390143 0
M  V30 45367 C 4567.84 0.528466 -2.9602 0
M  V30 45368 C 4569.38 0.614664 -3.06905 0
M  V30 45369 C 4569.86 0.664779 -4.5315 0
M  V30 45370 N 4571.35 0.727272 -4.57455 0
M  V30 45371 C 4572.08 0.786867 -5.67975 0
M  V30 45372 N 4571.58 0.806408 -6.88091 0
M  V30 45373 N 4573.37 0.826999 -5.55983 0
M  V30 45374 H 4565.52 -0.715005 -2.00004 0
M  V30 45375 H 4567.79 -0.259558 -0.911775 0
M  V30 45376 H 4567.49 -0.380277 -3.49638 0
M  V30 45377 H 4567.37 1.36986 -3.51447 0
M  V30 45378 H 4569.75 1.51383 -2.53312 0
M  V30 45379 H 4569.84 -0.253687 -2.54539 0
M  V30 45380 H 4569.48 -0.230189 -5.07378 0
M  V30 45381 H 4569.41 1.54948 -5.03288 0
M  V30 45382 H 4571.9 0.719867 -3.7098 0
M  V30 45383 H 4572.21 0.853457 -7.68073 0
M  V30 45384 H 4570.56 0.774445 -6.90672 0
M  V30 45385 H 4573.75 0.808835 -4.61059 0
M  V30 45386 H 4573.92 0.86998 -6.42133 0
M  V30 45387 N 4567.33 1.51738 0.425844 0
M  V30 45388 C 4568.57 1.66641 1.18365 0
M  V30 45389 C 4568.93 0.379921 1.88204 0
M  V30 45390 O 4570.13 0.404852 2.65734 0
M  V30 45391 C 4568.4 2.84389 2.16466 0
M  V30 45392 S 4569.96 3.19684 3.00579 0
M  V30 45393 H 4566.78 0.586972 0.40123 0
M  V30 45394 H 4569.38 1.8968 0.473451 0
M  V30 45395 H 4568.09 3.76287 1.63817 0
M  V30 45396 H 4567.62 2.63572 2.9205 0
M  V30 45397 H 4569.63 2.67009 4.18235 0
M  V30 45398 N 4568.81 -0.682027 1.42078 0
M  V30 45399 C 4570.05 -1.44423 1.42372 0
M  V30 45400 C 4570.39 -1.94164 0.0373738 0
M  V30 45401 O 4569.66 -1.70432 -0.93718 0
M  V30 45402 C 4569.94 -2.64645 2.44203 0
M  V30 45403 C 4569.8 -2.20582 3.91999 0
M  V30 45404 C 4571.12 -3.66857 2.43113 0
M  V30 45405 H 4568.24 -0.523816 0.518446 0
M  V30 45406 H 4570.88 -0.775699 1.73444 0
M  V30 45407 H 4569.03 -3.21682 2.17837 0
M  V30 45408 H 4570.7 -1.68768 4.29319 0
M  V30 45409 H 4568.94 -1.52228 4.06213 0
M  V30 45410 H 4569.61 -3.06905 4.58817 0
M  V30 45411 H 4572.09 -3.19522 2.66543 0
M  V30 45412 H 4570.97 -4.48566 3.16355 0
M  V30 45413 H 4571.23 -4.17488 1.45452 0
M  V30 45414 N 4570.29 -1.2813 -0.917626 0
M  V30 45415 C 4571.25 -1.11751 -2.00111 0
M  V30 45416 C 4572.25 -0.0583617 -1.60694 0
M  V30 45417 O 4573.44 -0.303815 -1.7153 0
M  V30 45418 C 4570.57 -0.704979 -3.33531 0
M  V30 45419 H 4571.76 -2.07973 -2.16072 0
M  V30 45420 H 4569.32 -1.11061 -1.09977 0
M  V30 45421 H 4570.05 0.258185 -3.23271 0
M  V30 45422 H 4569.84 -1.47003 -3.635 0
M  V30 45423 H 4571.33 -0.612913 -4.13078 0
M  V30 45424 N 4571.76 1.12553 -1.10316 0
M  V30 45425 C 4572.99 1.88402 -0.867151 0
M  V30 45426 C 4573.41 1.7904 0.576754 0
M  V30 45427 O 4572.77 1.14444 1.40614 0
M  V30 45428 C 4572.82 3.35626 -1.31863 0
M  V30 45429 O 4571.92 4.09563 -0.482878 0
M  V30 45430 H 4571.26 0.585444 -0.313291 0
M  V30 45431 H 4573.79 1.42347 -1.46965 0
M  V30 45432 H 4573.8 3.86464 -1.30803 0
M  V30 45433 H 4572.48 3.41757 -2.37013 0
M  V30 45434 H 4571.06 3.68693 -0.558578 0
M  V30 45435 N 4573.24 0.891716 1.29947 0
M  V30 45436 C 4574.19 0.353147 2.29904 0
M  V30 45437 C 4575.18 -0.543453 1.60446 0
M  V30 45438 O 4576.39 -0.427139 1.74859 0
M  V30 45439 H 4572.76 0.0955572 0.745904 0
M  V30 45440 H 4574.74 1.20971 2.72779 0
M  V30 45441 C 4573.48 -0.411354 3.45258 0
M  V30 45442 H 4572.81 0.269322 3.98892 0
M  V30 45443 H 4574.25 -0.753181 4.17257 0
M  V30 45444 C 4572.71 -1.611 2.95886 0
M  V30 45445 O 4573.24 -2.71035 2.96484 0
M  V30 45446 N 4571.44 -1.45045 2.51814 0
M  V30 45447 H 4570.99 -0.556086 2.51526 0
M  V30 45448 H 4570.95 -2.25446 2.19138 0
M  V30 45449 N 4574.72 -1.43419 0.653364 0
M  V30 45450 C 4575.68 -2.29182 -0.0287145 0
M  V30 45451 C 4576.68 -1.42216 -0.750415 0
M  V30 45452 O 4577.87 -1.63845 -0.591644 0
M  V30 45453 C 4575 -3.24282 -1.05139 0
M  V30 45454 H 4576.2 -2.90983 0.725889 0
M  V30 45455 H 4573.75 -1.50701 0.414598 0
M  V30 45456 H 4574.49 -2.67376 -1.83522 0
M  V30 45457 H 4574.27 -3.88398 -0.537551 0
M  V30 45458 H 4575.76 -3.88652 -1.52772 0
M  V30 45459 N 4576.2 -0.395293 -1.52562 0
M  V30 45460 C 4577.43 0.184603 -2.05774 0
M  V30 45461 C 4577.84 1.40567 -1.2664 0
M  V30 45462 O 4577.18 1.81104 -0.307753 0
M  V30 45463 C 4577.24 0.613426 -3.54228 0
M  V30 45464 C 4576.9 -0.494999 -4.54311 0
M  V30 45465 C 4577.9 -1.35428 -5.01952 0
M  V30 45466 C 4575.59 -0.66374 -4.97895 0
M  V30 45467 C 4577.58 -2.36737 -5.91806 0
M  V30 45468 C 4575.27 -1.68016 -5.87549 0
M  V30 45469 C 4576.27 -2.53039 -6.34397 0
M  V30 45470 O 4575.95 -3.52943 -7.22279 0
M  V30 45471 H 4575.69 0.0300533 -0.675332 0
M  V30 45472 H 4578.24 -0.560777 -1.97597 0
M  V30 45473 H 4576.47 1.41088 -3.60043 0
M  V30 45474 H 4578.16 1.11967 -3.90152 0
M  V30 45475 H 4578.92 -1.23525 -4.69006 0
M  V30 45476 H 4574.8 -0.0116534 -4.60999 0
M  V30 45477 H 4578.35 -3.03135 -6.28295 0
M  V30 45478 H 4574.24 -1.79955 -6.19908 0
M  V30 45479 H 4575.01 -3.49022 -7.40355 0
M  V30 45480 N 4577.68 1.57101 -0.125292 0
M  V30 45481 C 4578.92 1.95023 0.53013 0
M  V30 45482 C 4579.24 1.00988 1.66812 0
M  V30 45483 O 4578.51 0.0673381 1.95784 0
M  V30 45484 H 4577.09 0.720053 0.198828 0
M  V30 45485 H 4579.76 1.93915 -0.195708 0
M  V30 45486 H 4578.85 2.98214 0.920577 0
M  V30 45487 N 4579.15 -0.14849 1.56899 0
M  V30 45488 C 4580.4 -0.86263 1.83539 0
M  V30 45489 C 4580.73 -1.80886 0.706667 0
M  V30 45490 O 4580.01 -1.92329 -0.289817 0
M  V30 45491 C 4580.29 -1.63841 3.20668 0
M  V30 45492 C 4580.14 -0.713769 4.44101 0
M  V30 45493 C 4581.46 -2.60121 3.55 0
M  V30 45494 H 4578.58 -0.312156 0.667629 0
M  V30 45495 H 4581.22 -0.127886 1.89569 0
M  V30 45496 H 4579.37 -2.26478 3.15658 0
M  V30 45497 H 4581.05 -0.0985239 4.61195 0
M  V30 45498 H 4579.29 -0.0232494 4.33794 0
M  V30 45499 H 4579.96 -1.29259 5.36653 0
M  V30 45500 H 4582.44 -2.07603 3.60611 0
M  V30 45501 H 4581.31 -3.11452 4.51983 0
M  V30 45502 H 4581.57 -3.41407 2.8088 0
M  V30 45503 N 4580.63 -1.51961 -0.417791 0
M  V30 45504 C 4581.59 -1.7407 -1.49105 0
M  V30 45505 C 4582.59 -0.610589 -1.48756 0
M  V30 45506 O 4583.78 -0.878373 -1.50434 0
M  V30 45507 C 4580.92 -1.81512 -2.88559 0
M  V30 45508 H 4582.11 -2.69874 -1.30798 0
M  V30 45509 H 4579.66 -1.42247 -0.647735 0
M  V30 45510 H 4580.4 -0.875923 -3.12247 0
M  V30 45511 H 4580.18 -2.63662 -2.90215 0
M  V30 45512 H 4581.67 -2.00389 -3.6638 0
M  V30 45513 N 4582.11 0.674483 -1.42438 0
M  V30 45514 C 4583.04 1.8 -1.41889 0
M  V30 45515 C 4584.05 1.59665 -0.317926 0
M  V30 45516 O 4585.24 1.68779 -0.581033 0
M  V30 45517 C 4582.34 3.1711 -1.1956 0
M  V30 45518 C 4581.52 3.64291 -2.42097 0
M  V30 45519 C 4580.58 4.80134 -2.15308 0
M  V30 45520 O 4579.6 4.90663 -2.8851 0
M  V30 45521 N 4580.8 5.68865 -1.1564 0
M  V30 45522 H 4583.57 1.80956 -2.38904 0
M  V30 45523 H 4581.13 0.857584 -1.37321 0
M  V30 45524 H 4583.12 3.92264 -0.995555 0
M  V30 45525 H 4581.69 3.11052 -0.310678 0
M  V30 45526 H 4580.91 2.79812 -2.77667 0
M  V30 45527 H 4582.2 3.92556 -3.23693 0
M  V30 45528 H 4581.6 5.63011 -0.550963 0
M  V30 45529 H 4580.15 6.43829 -1.01623 0
M  V30 45530 N 4583.59 1.28615 0.910818 0
M  V30 45531 C 4584.81 1.18916 1.69923 0
M  V30 45532 C 4585.24 -0.248307 1.86454 0
M  V30 45533 O 4584.6 -1.17957 1.37681 0
M  V30 45534 C 4584.64 1.89588 3.06739 0
M  V30 45535 O 4583.75 1.20535 3.94392 0
M  V30 45536 H 4583.09 0.41265 0.520208 0
M  V30 45537 H 4585.62 1.69989 1.13864 0
M  V30 45538 H 4585.63 1.9761 3.56952 0
M  V30 45539 H 4584.3 2.94147 2.94025 0
M  V30 45540 H 4582.88 1.20697 3.52827 0
M  V30 45541 N 4585.07 -1.11967 1.10911 0
M  V30 45542 C 4586.31 -1.83857 0.855838 0
M  V30 45543 C 4586.65 -1.84137 -0.617038 0
M  V30 45544 O 4585.92 -1.29047 -1.45524 0
M  V30 45545 C 4586.2 -3.313 1.41112 0
M  V30 45546 C 4586.06 -3.39446 2.95122 0
M  V30 45547 C 4587.38 -4.27206 1.05751 0
M  V30 45548 H 4584.49 -0.667534 0.312358 0
M  V30 45549 H 4587.14 -1.31326 1.37308 0
M  V30 45550 H 4585.29 -3.76165 0.971182 0
M  V30 45551 H 4586.96 -3.03179 3.47678 0
M  V30 45552 H 4585.2 -2.79838 3.31471 0
M  V30 45553 H 4585.87 -4.43197 3.29059 0
M  V30 45554 H 4588.35 -3.90492 1.4372 0
M  V30 45555 H 4587.22 -5.2877 1.47288 0
M  V30 45556 H 4587.49 -4.42088 -0.0324404 0
M  V30 45557 N 4586.54 -0.898595 -1.29472 0
M  V30 45558 C 4587.79 -0.524726 -1.95894 0
M  V30 45559 C 4588.12 0.926408 -1.70679 0
M  V30 45560 O 4587.4 1.65662 -1.01914 0
M  V30 45561 C 4587.68 -0.816453 -3.50722 0
M  V30 45562 C 4587.53 -2.31921 -3.85399 0
M  V30 45563 C 4588.85 -0.302192 -4.39061 0
M  V30 45564 H 4585.97 -0.192115 -0.71152 0
M  V30 45565 H 4588.61 -1.12508 -1.53108 0
M  V30 45566 H 4586.76 -0.305505 -3.87297 0
M  V30 45567 H 4588.44 -2.89961 -3.58776 0
M  V30 45568 H 4586.68 -2.78039 -3.32982 0
M  V30 45569 H 4587.35 -2.4739 -4.93459 0
M  V30 45570 H 4589.83 -0.739695 -4.09472 0
M  V30 45571 H 4588.7 -0.535523 -5.46281 0
M  V30 45572 H 4588.96 0.797063 -4.34856 0
M  V30 45573 N 4588.02 1.4307 -0.660961 0
M  V30 45574 C 4588.97 2.32569 0.0377382 0
M  V30 45575 C 4589.96 1.49049 0.805039 0
M  V30 45576 O 4591.17 1.65209 0.714566 0
M  V30 45577 H 4587.55 0.751361 0.0309926 0
M  V30 45578 H 4589.52 2.89214 -0.73471 0
M  V30 45579 C 4588.27 3.33456 0.985007 0
M  V30 45580 H 4587.59 3.97753 0.404008 0
M  V30 45581 H 4589.03 3.98696 1.44283 0
M  V30 45582 C 4587.49 2.64649 2.08477 0
M  V30 45583 O 4588.02 2.46787 3.16953 0
M  V30 45584 N 4586.22 2.23897 1.85252 0
M  V30 45585 H 4585.77 2.38625 0.970365 0
M  V30 45586 H 4585.73 1.7819 2.59028 0
M  V30 45587 N 4589.5 0.403378 1.5235 0
M  V30 45588 C 4590.43 -0.416125 2.29762 0
M  V30 45589 C 4591.41 -1.05118 1.33732 0
M  V30 45590 O 4592.6 -1.06129 1.62636 0
M  V30 45591 C 4589.73 -1.53613 3.11481 0
M  V30 45592 C 4588.68 -1.02638 4.15511 0
M  V30 45593 C 4588.01 -2.23954 4.85539 0
M  V30 45594 C 4589.31 -0.0844464 5.22232 0
M  V30 45595 H 4591 0.229806 2.98517 0
M  V30 45596 H 4588.55 0.111964 1.43564 0
M  V30 45597 H 4590.5 -2.11637 3.644 0
M  V30 45598 H 4589.22 -2.20986 2.40485 0
M  V30 45599 H 4587.88 -0.468582 3.63593 0
M  V30 45600 H 4587.53 -2.89869 4.11078 0
M  V30 45601 H 4587.23 -1.90502 5.55862 0
M  V30 45602 H 4588.75 -2.82595 5.41269 0
M  V30 45603 H 4590.17 -0.573308 5.70426 0
M  V30 45604 H 4588.57 0.160994 5.99884 0
M  V30 45605 H 4589.64 0.862537 4.77167 0
M  V30 45606 N 4590.98 -1.57033 0.133622 0
M  V30 45607 C 4592.2 -2.00477 -0.531406 0
M  V30 45608 C 4592.63 -1.01296 -1.58495 0
M  V30 45609 O 4591.99 0.0132642 -1.81295 0
M  V30 45610 C 4592.03 -3.42733 -1.12101 0
M  V30 45611 O 4591.14 -3.46506 -2.23624 0
M  V30 45612 H 4590.48 -0.650881 -0.131339 0
M  V30 45613 H 4593.01 -2.03343 0.226411 0
M  V30 45614 H 4593.02 -3.81252 -1.45297 0
M  V30 45615 H 4591.69 -4.1443 -0.349412 0
M  V30 45616 H 4590.27 -3.19818 -1.91757 0
M  V30 45617 N 4592.46 0.140167 -1.56975 0
M  V30 45618 C 4593.7 0.852884 -1.83994 0
M  V30 45619 C 4594.04 1.80509 -0.71625 0
M  V30 45620 O 4593.31 1.9248 0.279613 0
M  V30 45621 C 4593.59 1.62139 -3.21532 0
M  V30 45622 C 4593.45 0.690207 -4.44473 0
M  V30 45623 C 4594.77 2.58235 -3.56375 0
M  V30 45624 H 4591.88 0.308611 -0.669275 0
M  V30 45625 H 4594.53 0.117831 -1.89634 0
M  V30 45626 H 4592.68 2.248 -3.16855 0
M  V30 45627 H 4594.35 0.0740642 -4.61241 0
M  V30 45628 H 4592.59 0.00024393 -4.338 0
M  V30 45629 H 4593.26 1.26411 -5.37331 0
M  V30 45630 H 4595.74 2.05688 -3.61707 0
M  V30 45631 H 4594.61 3.09051 -4.53628 0
M  V30 45632 H 4594.88 3.39913 -2.82686 0
M  V30 45633 N 4593.93 1.52181 0.409726 0
M  V30 45634 C 4594.88 1.71862 1.49825 0
M  V30 45635 C 4595.87 0.572522 1.5037 0
M  V30 45636 O 4597.06 0.829564 1.56356 0
M  V30 45637 C 4594.19 1.87216 2.87759 0
M  V30 45638 C 4593.28 3.07695 2.91864 0
M  V30 45639 N 4593.67 4.30412 2.65668 0
M  V30 45640 C 4591.96 3.07516 3.23032 0
M  V30 45641 C 4592.67 5.11878 2.76326 0
M  V30 45642 N 4591.64 4.47112 3.09179 0
M  V30 45643 H 4595.44 2.64385 1.28365 0
M  V30 45644 H 4592.96 1.50205 0.617426 0
M  V30 45645 H 4594.95 1.99432 3.66104 0
M  V30 45646 H 4593.61 0.958923 3.10217 0
M  V30 45647 H 4594.63 4.58895 2.40074 0
M  V30 45648 H 4591.3 2.25927 3.51088 0
M  V30 45649 H 4592.69 6.19643 2.59792 0
M  V30 45650 N 4595.41 -0.666919 1.42793 0
M  V30 45651 C 4596.66 -1.42412 1.43399 0
M  V30 45652 C 4596.98 -1.94924 0.0543058 0
M  V30 45653 O 4596.25 -1.73568 -0.908354 0
M  V30 45654 H 4594.83 -0.528497 0.527921 0
M  V30 45655 H 4597.49 -0.7875 1.78282 0
M  V30 45656 H 4596.59 -2.27325 2.13845 0
M  V30 45657 N 4596.89 -1.29096 -0.903985 0
M  V30 45658 C 4598.3 -1.15192 -1.46928 0
M  V30 45659 C 4598.65 0.254519 -1.94542 0
M  V30 45660 O 4597.78 1.14965 -1.83336 0
M  V30 45661 C 4598.37 -2.08502 -2.67044 0
M  V30 45662 C 4596.93 -1.98632 -3.19722 0
M  V30 45663 C 4596.08 -1.99677 -1.92418 0
M  V30 45664 H 4599.03 -1.41643 -0.71574 0
M  V30 45665 H 4599.05 -1.65473 -3.42635 0
M  V30 45666 H 4598.56 -3.10855 -2.32359 0
M  V30 45667 H 4596.66 -0.993515 -3.5911 0
M  V30 45668 H 4596.78 -2.86081 -3.8431 0
M  V30 45669 H 4595.14 -1.44215 -2.09938 0
M  V30 45670 H 4595.92 -3.03727 -1.60015 0
M  V30 45671 N 4598.37 1.11377 -1.11503 0
M  V30 45672 C 4599.78 1.64647 -0.880248 0
M  V30 45673 C 4600.13 1.87202 0.587368 0
M  V30 45674 O 4599.26 1.60672 1.4496 0
M  V30 45675 C 4599.85 2.99099 -1.59139 0
M  V30 45676 C 4598.41 3.49274 -1.40301 0
M  V30 45677 C 4597.56 2.24072 -1.63362 0
M  V30 45678 H 4600.51 0.950078 -1.27119 0
M  V30 45679 H 4600.53 3.66103 -1.03677 0
M  V30 45680 H 4600.04 2.82651 -2.65951 0
M  V30 45681 H 4598.14 3.70886 -0.357019 0
M  V30 45682 H 4598.26 4.28022 -2.15253 0
M  V30 45683 H 4596.62 2.31729 -1.05706 0
M  V30 45684 H 4597.4 2.10166 -2.7145 0
M  V30 45685 N 4599.85 0.905449 1.28994 0
M  V30 45686 C 4601.08 0.549916 1.99458 0
M  V30 45687 C 4601.49 -0.866775 1.67727 0
M  V30 45688 O 4600.85 -1.57294 0.92546 0
M  V30 45689 C 4600.9 0.739511 3.53855 0
M  V30 45690 O 4600.62 2.10045 3.84464 0
M  V30 45691 C 4602.12 0.389697 4.41584 0
M  V30 45692 H 4599.34 0.210451 0.637143 0
M  V30 45693 H 4601.88 1.21637 1.64392 0
M  V30 45694 H 4600.04 0.120159 3.87214 0
M  V30 45695 H 4600.45 2.13402 4.79124 0
M  V30 45696 H 4601.93 0.573165 5.49016 0
M  V30 45697 H 4602.4 -0.673603 4.34004 0
M  V30 45698 H 4603.01 0.986235 4.13707 0
M  V30 45699 N 4601.33 -1.42718 0.668539 0
M  V30 45700 C 4602.57 -2.01922 0.18849 0
M  V30 45701 C 4602.9 -1.52709 -1.19974 0
M  V30 45702 O 4602.18 -0.726629 -1.80417 0
M  V30 45703 C 4602.46 -3.5945 0.216211 0
M  V30 45704 C 4602.32 -4.18858 1.63945 0
M  V30 45705 C 4603.63 -4.37905 -0.439025 0
M  V30 45706 H 4600.75 -0.733671 0.069967 0
M  V30 45707 H 4603.4 -1.69819 0.852136 0
M  V30 45708 H 4601.55 -3.8693 -0.348876 0
M  V30 45709 H 4603.22 -4.02354 2.2563 0
M  V30 45710 H 4601.46 -3.74925 2.18206 0
M  V30 45711 H 4602.13 -5.27981 1.61058 0
M  V30 45712 H 4604.61 -4.16079 0.0419341 0
M  V30 45713 H 4603.48 -5.4752 -0.388964 0
M  V30 45714 H 4603.74 -4.15309 -1.51563 0
M  V30 45715 N 4602.8 -0.411452 -1.52134 0
M  V30 45716 C 4604.03 0.165465 -2.06739 0
M  V30 45717 C 4604.45 1.37896 -1.27931 0
M  V30 45718 O 4603.81 1.78627 -0.310177 0
M  V30 45719 C 4603.86 0.491998 -3.57228 0
M  V30 45720 O 4602.96 1.58263 -3.80824 0
M  V30 45721 H 4602.3 0.0131899 -0.663869 0
M  V30 45722 H 4604.83 -0.585322 -1.96049 0
M  V30 45723 H 4604.84 0.749963 -4.01048 0
M  V30 45724 H 4603.52 -0.395067 -4.14019 0
M  V30 45725 H 4602.1 1.31665 -3.48882 0
M  V30 45726 N 4604.28 1.56959 -0.141948 0
M  V30 45727 C 4605.53 1.96252 0.511179 0
M  V30 45728 C 4605.86 1.0266 1.64847 0
M  V30 45729 O 4605.14 0.0680359 1.94381 0
M  V30 45730 C 4605.42 3.45288 1.02215 0
M  V30 45731 C 4605.27 4.49657 -0.113296 0
M  V30 45732 C 4606.59 3.96705 1.9056 0
M  V30 45733 H 4603.71 0.713573 0.184342 0
M  V30 45734 H 4606.35 1.88697 -0.222153 0
M  V30 45735 H 4604.5 3.51858 1.64707 0
M  V30 45736 H 4606.17 4.55171 -0.749462 0
M  V30 45737 H 4604.42 4.26854 -0.773176 0
M  V30 45738 H 4605.09 5.51259 0.285859 0
M  V30 45739 H 4607.56 3.92583 1.37904 0
M  V30 45740 H 4606.44 5.01461 2.23223 0
M  V30 45741 H 4606.7 3.3876 2.84067 0
M  V30 45742 N 4605.76 -0.13184 1.57048 0
M  V30 45743 C 4606.69 -1.16377 2.02432 0
M  V30 45744 C 4607.67 -1.43933 0.906491 0
M  V30 45745 O 4608.86 -1.54594 1.17534 0
M  V30 45746 C 4605.99 -2.4932 2.41779 0
M  V30 45747 C 4604.94 -2.36253 3.56887 0
M  V30 45748 C 4604.27 -3.74044 3.82093 0
M  V30 45749 C 4605.57 -1.83383 4.89048 0
M  V30 45750 H 4607.26 -0.786332 2.8889 0
M  V30 45751 H 4604.81 -0.376806 1.38983 0
M  V30 45752 H 4606.76 -3.21749 2.72131 0
M  V30 45753 H 4605.48 -2.88928 1.52276 0
M  V30 45754 H 4604.14 -1.66274 3.26724 0
M  V30 45755 H 4603.79 -4.11114 2.89817 0
M  V30 45756 H 4603.49 -3.66158 4.59567 0
M  V30 45757 H 4605.01 -4.47998 4.14886 0
M  V30 45758 H 4606.43 -2.45618 5.1802 0
M  V30 45759 H 4604.82 -1.8635 5.70433 0
M  V30 45760 H 4605.89 -0.790494 4.78413 0
M  V30 45761 N 4607.24 -1.52396 -0.40165 0
M  V30 45762 C 4608.65 -1.58903 -0.980146 0
M  V30 45763 C 4609 -0.434099 -1.91337 0
M  V30 45764 O 4608.12 0.444545 -2.11785 0
M  V30 45765 C 4608.72 -2.88 -1.78441 0
M  V30 45766 C 4607.28 -2.96961 -2.31281 0
M  V30 45767 C 4606.43 -2.53907 -1.11474 0
M  V30 45768 H 4609.38 -1.57657 -0.181625 0
M  V30 45769 H 4609.4 -2.73774 -2.6425 0
M  V30 45770 H 4608.91 -3.72039 -1.10493 0
M  V30 45771 H 4607.01 -2.17433 -3.02579 0
M  V30 45772 H 4607.12 -4.01353 -2.61635 0
M  V30 45773 H 4605.49 -2.0793 -1.47096 0
M  V30 45774 H 4606.27 -3.40327 -0.450809 0
M  V30 45775 N 4608.72 0.659337 -1.43145 0
M  V30 45776 C 4609.63 1.80162 -1.50263 0
M  V30 45777 C 4610.64 1.69569 -0.390166 0
M  V30 45778 O 4611.82 1.90847 -0.643386 0
M  V30 45779 C 4608.88 3.16404 -1.41736 0
M  V30 45780 C 4607.94 3.38839 -2.63603 0
M  V30 45781 C 4607.18 4.68582 -2.55474 0
M  V30 45782 O 4607.4 5.47526 -1.5991 0
M  V30 45783 O 4606.33 4.92602 -3.45872 0
M  V30 45784 H 4610.16 1.77112 -2.46708 0
M  V30 45785 H 4607.74 0.817048 -1.25079 0
M  V30 45786 H 4609.63 3.97675 -1.39401 0
M  V30 45787 H 4608.3 3.20058 -0.484231 0
M  V30 45788 H 4607.21 2.57357 -2.71511 0
M  V30 45789 H 4608.54 3.40028 -3.55868 0
M  V30 45790 N 4610.19 1.29574 0.897126 0
M  V30 45791 C 4611.44 1.17462 1.6446 0
M  V30 45792 C 4611.76 -0.27363 1.93071 0
M  V30 45793 O 4611.03 -1.18679 1.55859 0
M  V30 45794 H 4609.61 0.431727 0.609607 0
M  V30 45795 H 4612.27 1.62535 1.07556 0
M  V30 45796 H 4611.37 1.72657 2.59992 0
M  V30 45797 N 4611.67 -1.10784 1.12092 0
M  V30 45798 C 4613.08 -1.64178 0.888968 0
M  V30 45799 C 4613.43 -1.8751 -0.577432 0
M  V30 45800 O 4612.56 -1.61439 -1.44106 0
M  V30 45801 C 4613.15 -2.98251 1.60723 0
M  V30 45802 C 4611.71 -3.48525 1.42152 0
M  V30 45803 C 4610.86 -2.23202 1.64548 0
M  V30 45804 H 4613.81 -0.943323 1.27621 0
M  V30 45805 H 4613.83 -3.65548 1.05617 0
M  V30 45806 H 4613.34 -2.81237 2.67446 0
M  V30 45807 H 4611.44 -3.70691 0.376682 0
M  V30 45808 H 4611.56 -4.26875 2.1752 0
M  V30 45809 H 4609.92 -2.31165 1.06933 0
M  V30 45810 H 4610.7 -2.08723 2.72561 0
M  V30 45811 N 4613.15 -0.912277 -1.28512 0
M  V30 45812 C 4614.4 -0.545474 -1.95326 0
M  V30 45813 C 4614.73 0.908253 -1.71652 0
M  V30 45814 O 4614 1.64572 -1.03665 0
M  V30 45815 C 4614.29 -0.853606 -3.49837 0
M  V30 45816 C 4614.14 -2.35996 -3.82918 0
M  V30 45817 C 4615.46 -0.348743 -4.38716 0
M  V30 45818 H 4612.58 -0.199651 -0.709442 0
M  V30 45819 H 4615.22 -1.14125 -1.51906 0
M  V30 45820 H 4613.37 -0.346566 -3.86951 0
M  V30 45821 H 4615.04 -2.9375 -3.5568 0
M  V30 45822 H 4613.29 -2.81555 -3.30014 0
M  V30 45823 H 4613.96 -2.5261 -4.90808 0
M  V30 45824 H 4616.43 -0.783084 -4.08665 0
M  V30 45825 H 4615.31 -0.593434 -5.45683 0
M  V30 45826 H 4615.57 0.750896 -4.35676 0
M  V30 45827 N 4614.63 1.42361 -0.676098 0
M  V30 45828 C 4615.87 2.02335 -0.20788 0
M  V30 45829 C 4616.23 1.5251 1.17297 0
M  V30 45830 O 4615.52 0.718111 1.77634 0
M  V30 45831 C 4615.72 3.56928 -0.183556 0
M  V30 45832 C 4615.55 4.21756 -1.5605 0
M  V30 45833 C 4614.32 4.56873 -2.15859 0
M  V30 45834 C 4616.51 4.49258 -2.50343 0
M  V30 45835 N 4614.5 5.06888 -3.4632 0
M  V30 45836 C 4615.87 5.00838 -3.65461 0
M  V30 45837 C 4617.92 4.31248 -2.48856 0
M  V30 45838 C 4616.62 5.36301 -4.79348 0
M  V30 45839 C 4618.65 4.67788 -3.61841 0
M  V30 45840 C 4618.01 5.19521 -4.75686 0
M  V30 45841 H 4614.11 0.772579 -0.12102 0
M  V30 45842 H 4616.7 1.732 -0.889367 0
M  V30 45843 H 4614.87 3.85578 0.467348 0
M  V30 45844 H 4616.6 4.03604 0.297666 0
M  V30 45845 H 4613.35 4.42674 -1.68335 0
M  V30 45846 H 4613.78 5.36323 -4.13142 0
M  V30 45847 H 4618.42 3.90506 -1.62065 0
M  V30 45848 H 4616.14 5.75976 -5.66814 0
M  V30 45849 H 4619.72 4.55528 -3.61919 0
M  V30 45850 H 4618.6 5.47267 -5.61666 0
M  V30 45851 N 4616.11 0.419515 1.51914 0
M  V30 45852 C 4617.35 -0.153095 2.02221 0
M  V30 45853 C 4617.69 -1.43903 1.30406 0
M  V30 45854 O 4616.96 -1.90054 0.413505 0
M  V30 45855 C 4617.24 -0.390166 3.5798 0
M  V30 45856 C 4617.1 0.913168 4.40433 0
M  V30 45857 C 4618.42 -1.16779 4.24324 0
M  V30 45858 H 4615.53 -0.0541666 0.735007 0
M  V30 45859 H 4618.18 0.555019 1.81713 0
M  V30 45860 H 4616.33 -0.993359 3.75586 0
M  V30 45861 H 4618 1.54897 4.34516 0
M  V30 45862 H 4616.24 1.52182 4.0623 0
M  V30 45863 H 4616.91 0.701553 5.47524 0
M  V30 45864 H 4619.39 -0.657017 4.1088 0
M  V30 45865 H 4618.26 -1.30242 5.33224 0
M  V30 45866 H 4618.53 -2.19119 3.83978 0
M  V30 45867 N 4617.58 -1.56882 0.15027 0
M  V30 45868 C 4618.53 -2.16925 -0.788168 0
M  V30 45869 C 4619.5 -1.10307 -1.24184 0
M  V30 45870 O 4620.69 -1.38364 -1.31378 0
M  V30 45871 C 4617.83 -2.79761 -2.02059 0
M  V30 45872 C 4616.94 -4.0078 -1.61243 0
M  V30 45873 C 4616.07 -4.51605 -2.79689 0
M  V30 45874 C 4615.11 -5.65082 -2.35262 0
M  V30 45875 N 4614.25 -6.10511 -3.46729 0
M  V30 45876 H 4619.09 -2.9678 -0.26934 0
M  V30 45877 H 4616.63 -1.466 -0.121229 0
M  V30 45878 H 4618.59 -3.14338 -2.74312 0
M  V30 45879 H 4617.22 -2.02545 -2.51347 0
M  V30 45880 H 4616.27 -3.72161 -0.787422 0
M  V30 45881 H 4617.58 -4.82983 -1.24616 0
M  V30 45882 H 4616.73 -4.88255 -3.60128 0
M  V30 45883 H 4615.47 -3.68417 -3.19563 0
M  V30 45884 H 4614.48 -5.28006 -1.53264 0
M  V30 45885 H 4615.7 -6.50059 -1.9647 0
M  V30 45886 H 4613.65 -5.30257 -3.86217 0
M  V30 45887 H 4613.57 -6.87648 -3.14127 0
M  V30 45888 H 4614.83 -6.51806 -4.27515 0
M  V30 45889 N 4619.06 0.12351 -1.57115 0
M  V30 45890 C 4620.31 0.833321 -1.84888 0
M  V30 45891 C 4620.64 1.79739 -0.735355 0
M  V30 45892 O 4619.92 1.92765 0.259183 0
M  V30 45893 C 4620.2 1.58719 -3.23234 0
M  V30 45894 C 4620.05 0.643026 -4.4518 0
M  V30 45895 C 4621.37 2.5444 -3.59094 0
M  V30 45896 H 4618.49 0.301495 -0.67251 0
M  V30 45897 H 4621.13 0.0977113 -1.89749 0
M  V30 45898 H 4619.28 2.21427 -3.19221 0
M  V30 45899 H 4620.95 0.0251393 -4.61293 0
M  V30 45900 H 4619.2 -0.0457664 -4.33776 0
M  V30 45901 H 4619.87 1.20705 -5.38641 0
M  V30 45902 H 4622.34 2.0184 -3.63868 0
M  V30 45903 H 4621.22 3.04222 -4.56881 0
M  V30 45904 H 4621.48 3.36896 -2.86276 0
M  V30 45905 N 4620.54 1.52607 0.393562 0
M  V30 45906 C 4621.79 1.67097 1.13679 0
M  V30 45907 C 4622.11 0.411078 1.90618 0
M  V30 45908 O 4621.38 -0.574425 1.87289 0
M  V30 45909 H 4619.96 0.615937 0.422647 0
M  V30 45910 H 4622.62 1.89705 0.446972 0
M  V30 45911 H 4621.72 2.51929 1.84223 0
M  V30 45912 N 4622.02 -0.651737 1.43493 0
M  V30 45913 C 4622.97 -1.76457 1.48767 0
M  V30 45914 C 4623.94 -1.6264 0.337246 0
M  V30 45915 O 4625.12 -1.82862 0.544608 0
M  V30 45916 C 4622.26 -3.14618 1.41807 0
M  V30 45917 C 4621.37 -3.39559 2.67065 0
M  V30 45918 C 4620.51 -4.67576 2.52084 0
M  V30 45919 C 4619.55 -4.85626 3.72604 0
M  V30 45920 N 4618.68 -6.04902 3.56424 0
M  V30 45921 H 4623.52 -1.71285 2.43855 0
M  V30 45922 H 4621.06 -0.835847 1.21045 0
M  V30 45923 H 4623.02 -3.94491 1.35767 0
M  V30 45924 H 4621.65 -3.18857 0.502993 0
M  V30 45925 H 4620.7 -2.53773 2.83379 0
M  V30 45926 H 4622.01 -3.48782 3.56585 0
M  V30 45927 H 4621.17 -5.55577 2.4376 0
M  V30 45928 H 4619.91 -4.60676 1.60092 0
M  V30 45929 H 4618.91 -3.9606 3.81335 0
M  V30 45930 H 4620.14 -4.94355 4.65607 0
M  V30 45931 H 4618.08 -5.99131 2.67167 0
M  V30 45932 H 4618 -6.1509 4.39545 0
M  V30 45933 H 4619.27 -6.95521 3.51954 0
M  V30 45934 N 4623.5 -1.30048 -0.890242 0
M  V30 45935 C 4624.46 -1.1597 -1.97696 0
M  V30 45936 C 4625.46 -0.0924341 -1.60534 0
M  V30 45937 O 4626.65 -0.340131 -1.70847 0
M  V30 45938 C 4623.78 -0.775567 -3.3196 0
M  V30 45939 H 4624.97 -2.1251 -2.11612 0
M  V30 45940 H 4622.53 -1.13369 -1.07597 0
M  V30 45941 H 4623.26 0.189557 -3.23746 0
M  V30 45942 H 4623.05 -1.54681 -3.603 0
M  V30 45943 H 4624.54 -0.700395 -4.11685 0
M  V30 45944 N 4624.97 1.10188 -1.12678 0
M  V30 45945 C 4626.22 1.82472 -0.88498 0
M  V30 45946 C 4626.55 1.85095 0.587665 0
M  V30 45947 O 4625.83 1.31345 1.43453 0
M  V30 45948 C 4626.11 3.29013 -1.46365 0
M  V30 45949 C 4625.96 3.34708 -3.00484 0
M  V30 45950 C 4627.28 4.25469 -1.12534 0
M  V30 45951 H 4624.4 0.66248 -0.322938 0
M  V30 45952 H 4627.04 1.29125 -1.3938 0
M  V30 45953 H 4625.19 3.74573 -1.0309 0
M  V30 45954 H 4626.87 2.97609 -3.52458 0
M  V30 45955 H 4625.11 2.74529 -3.35881 0
M  V30 45956 H 4625.78 4.37906 -3.36068 0
M  V30 45957 H 4628.26 3.88156 -1.49914 0
M  V30 45958 H 4627.13 5.2636 -1.55682 0
M  V30 45959 H 4627.39 4.42084 -0.0378961 0
M  V30 45960 N 4626.45 0.919079 1.28026 0
M  V30 45961 C 4627.68 0.571041 1.98864 0
M  V30 45962 C 4628.1 -0.848936 1.68637 0
M  V30 45963 O 4627.45 -1.56304 0.942091 0
M  V30 45964 C 4627.5 0.777001 3.53051 0
M  V30 45965 O 4627.22 2.14111 3.82215 0
M  V30 45966 C 4628.73 0.436511 4.41146 0
M  V30 45967 H 4625.95 0.217197 0.634875 0
M  V30 45968 H 4628.49 1.23374 1.63092 0
M  V30 45969 H 4626.64 0.161221 3.87064 0
M  V30 45970 H 4627.06 2.18471 4.76834 0
M  V30 45971 H 4628.53 0.631363 5.48377 0
M  V30 45972 H 4629.01 -0.627534 4.34694 0
M  V30 45973 H 4629.62 1.03006 4.12638 0
M  V30 45974 N 4627.93 -1.42001 0.683638 0
M  V30 45975 C 4628.86 -2.33487 0.024948 0
M  V30 45976 C 4629.84 -1.51166 -0.779922 0
M  V30 45977 O 4631.03 -1.79741 -0.735299 0
M  V30 45978 C 4628.16 -3.34873 -0.920718 0
M  V30 45979 C 4627.11 -4.27414 -0.223808 0
M  V30 45980 C 4626.44 -5.19079 -1.28302 0
M  V30 45981 C 4627.74 -5.14442 0.902601 0
M  V30 45982 H 4629.43 -2.88816 0.789023 0
M  V30 45983 H 4626.98 -1.38872 0.380879 0
M  V30 45984 H 4628.93 -3.97792 -1.39067 0
M  V30 45985 H 4627.65 -2.77867 -1.71632 0
M  V30 45986 H 4626.31 -3.65903 0.225992 0
M  V30 45987 H 4625.96 -4.58394 -2.07084 0
M  V30 45988 H 4625.66 -5.81825 -0.821791 0
M  V30 45989 H 4627.19 -5.84874 -1.75372 0
M  V30 45990 H 4628.6 -5.70996 0.513473 0
M  V30 45991 H 4627 -5.86067 1.29017 0
M  V30 45992 H 4628.07 -4.52316 1.74752 0
M  V30 45993 N 4629.41 -0.427565 -1.51689 0
M  V30 45994 C 4630.32 0.395189 -2.31248 0
M  V30 45995 C 4631.34 1.03669 -1.39745 0
M  V30 45996 O 4632.51 1.03419 -1.72819 0
M  V30 45997 C 4629.58 1.48695 -3.13194 0
M  V30 45998 C 4628.64 0.866595 -4.20462 0
M  V30 45999 C 4627.87 1.90633 -4.98492 0
M  V30 46000 O 4628.09 3.12716 -4.77037 0
M  V30 46001 O 4627.03 1.5023 -5.8285 0
M  V30 46002 H 4630.85 -0.254024 -3.02636 0
M  V30 46003 H 4628.44 -0.190326 -1.48183 0
M  V30 46004 H 4630.32 2.12034 -3.64169 0
M  V30 46005 H 4629 2.12042 -2.44581 0
M  V30 46006 H 4627.9 0.195412 -3.73589 0
M  V30 46007 H 4629.24 0.276761 -4.91421 0
M  V30 46008 N 4630.89 1.568 -0.158588 0
M  V30 46009 C 4632.13 1.98385 0.49222 0
M  V30 46010 C 4632.49 1.0419 1.61272 0
M  V30 46011 O 4633.69 1.34864 2.32519 0
M  V30 46012 C 4631.96 3.43854 0.974645 0
M  V30 46013 S 4633.52 4.07465 1.62843 0
M  V30 46014 H 4630.34 0.693046 0.158769 0
M  V30 46015 H 4632.94 1.93855 -0.253042 0
M  V30 46016 H 4631.65 4.10131 0.148544 0
M  V30 46017 H 4631.18 3.52121 1.75425 0
M  V30 46018 H 4633.19 4.01468 2.91613 0
M  V30 46019 N 4632.37 -0.115176 1.57179 0
M  V30 46020 C 4633.61 -0.823504 1.85327 0
M  V30 46021 C 4633.94 -1.79347 0.744877 0
M  V30 46022 O 4633.22 -1.929 -0.248956 0
M  V30 46023 C 4633.5 -1.57003 3.24071 0
M  V30 46024 C 4633.36 -0.619408 4.45515 0
M  V30 46025 C 4634.67 -2.52532 3.60438 0
M  V30 46026 H 4631.79 -0.297924 0.6741 0
M  V30 46027 H 4634.44 -0.0876471 1.89798 0
M  V30 46028 H 4632.59 -2.19731 3.20391 0
M  V30 46029 H 4634.26 -0.000675469 4.613 0
M  V30 46030 H 4632.5 0.0687699 4.33745 0
M  V30 46031 H 4633.17 -1.17847 5.39274 0
M  V30 46032 H 4635.65 -1.99907 3.64933 0
M  V30 46033 H 4634.52 -3.01795 4.58488 0
M  V30 46034 H 4634.78 -3.35373 2.88058 0
M  V30 46035 N 4633.84 -1.52813 -0.385464 0
M  V30 46036 C 4635.07 -1.72211 -1.15577 0
M  V30 46037 C 4635.49 -0.441098 -1.82855 0
M  V30 46038 O 4634.85 0.603405 -1.70964 0
M  V30 46039 C 4634.9 -2.87484 -2.17682 0
M  V30 46040 O 4634 -2.54704 -3.24345 0
M  V30 46041 H 4633.34 -0.572538 -0.336298 0
M  V30 46042 H 4635.87 -1.9962 -0.448674 0
M  V30 46043 H 4635.88 -3.13081 -2.61619 0
M  V30 46044 H 4634.56 -3.80414 -1.68101 0
M  V30 46045 H 4633.14 -2.3986 -2.8552 0
M  V30 46046 N 4635.32 0.644118 -1.43836 0
M  V30 46047 C 4636.28 1.73852 -1.49359 0
M  V30 46048 C 4637.28 1.56314 -0.377167 0
M  V30 46049 O 4638.47 1.62046 -0.639283 0
M  V30 46050 C 4635.61 3.12814 -1.35499 0
M  V30 46051 H 4636.8 1.70333 -2.46833 0
M  V30 46052 H 4634.35 0.856606 -1.30736 0
M  V30 46053 H 4635.09 3.21938 -0.390682 0
M  V30 46054 H 4634.87 3.2695 -2.1644 0
M  V30 46055 H 4636.36 3.92601 -1.42316 0
M  V30 46056 N 4636.8 1.30518 0.883332 0
M  V30 46057 C 4638.05 1.192 1.63205 0
M  V30 46058 C 4638.37 -0.253137 1.9335 0
M  V30 46059 O 4637.64 -1.17019 1.57109 0
M  V30 46060 H 4636.22 0.438169 0.604993 0
M  V30 46061 H 4638.88 1.63667 1.05826 0
M  V30 46062 H 4637.98 1.75405 2.58147 0
M  V30 46063 N 4638.28 -1.09589 1.13261 0
M  V30 46064 C 4639.19 -2.19736 0.821768 0
M  V30 46065 C 4640.2 -1.72927 -0.192959 0
M  V30 46066 O 4641.38 -2.01385 -0.0244187 0
M  V30 46067 C 4638.44 -3.45481 0.290455 0
M  V30 46068 C 4637.51 -4.0698 1.36622 0
M  V30 46069 C 4636.74 -5.26723 0.86016 0
M  V30 46070 O 4636.96 -5.69595 -0.302881 0
M  V30 46071 O 4635.9 -5.79304 1.63372 0
M  V30 46072 H 4639.72 -2.48775 1.74198 0
M  V30 46073 H 4637.31 -1.18493 0.909936 0
M  V30 46074 H 4639.19 -4.214 -0.000525879 0
M  V30 46075 H 4637.86 -3.18049 -0.602194 0
M  V30 46076 H 4636.77 -3.32706 1.71049 0
M  V30 46077 H 4638.1 -4.38635 2.23295 0
M  V30 46078 N 4639.76 -0.925856 -1.27537 0
M  V30 46079 C 4641.17 -0.610164 -1.76448 0
M  V30 46080 C 4641.52 0.874661 -1.75625 0
M  V30 46081 O 4640.64 1.6844 -1.35857 0
M  V30 46082 C 4641.24 -1.10084 -3.20417 0
M  V30 46083 C 4639.8 -0.835852 -3.67002 0
M  V30 46084 C 4638.94 -1.26063 -2.46989 0
M  V30 46085 H 4641.89 -1.10583 -1.13829 0
M  V30 46086 H 4641.92 -0.44769 -3.77857 0
M  V30 46087 H 4641.43 -2.18154 -3.20984 0
M  V30 46088 H 4639.53 0.231119 -3.71883 0
M  V30 46089 H 4639.64 -1.4521 -4.56564 0
M  V30 46090 H 4638.01 -0.679197 -2.45477 0
M  V30 46091 H 4638.79 -2.34992 -2.50267 0
M  V30 46092 N 4641.23 1.41636 -0.691159 0
M  V30 46093 C 4642.65 1.55434 -0.362279 0
M  V30 46094 C 4642.85 1.66758 1.13111 0
M  V30 46095 O 4641.91 1.64355 1.91686 0
M  V30 46096 C 4643.22 2.79584 -1.10694 0
M  V30 46097 C 4644.77 2.93376 -1.09086 0
M  V30 46098 C 4645.24 4.20408 -1.81718 0
M  V30 46099 N 4646.73 4.27356 -1.78665 0
M  V30 46100 C 4647.47 5.24499 -2.31707 0
M  V30 46101 N 4646.96 6.27698 -2.93201 0
M  V30 46102 N 4648.76 5.16408 -2.21988 0
M  V30 46103 H 4640.91 1.32531 -1.6598 0
M  V30 46104 H 4643.17 0.639091 -0.700191 0
M  V30 46105 H 4642.88 2.77411 -2.16185 0
M  V30 46106 H 4642.75 3.70971 -0.682675 0
M  V30 46107 H 4645.14 2.95067 -0.0442275 0
M  V30 46108 H 4645.22 2.03175 -1.55414 0
M  V30 46109 H 4644.86 4.19478 -2.86357 0
M  V30 46110 H 4644.79 5.09573 -1.32826 0
M  V30 46111 H 4647.28 3.5341 -1.33827 0
M  V30 46112 H 4647.6 6.98205 -3.31254 0
M  V30 46113 H 4645.94 6.28213 -2.97277 0
M  V30 46114 H 4649.13 4.3471 -1.73623 0
M  V30 46115 H 4649.31 5.91949 -2.6363 0
M  V30 46116 N 4642.71 0.435603 1.5146 0
M  V30 46117 C 4643.94 -0.132554 2.06976 0
M  V30 46118 C 4644.36 -1.35843 1.30109 0
M  V30 46119 O 4643.72 -1.78111 0.338556 0
M  V30 46120 C 4643.77 -0.435104 3.57965 0
M  V30 46121 O 4642.87 -1.52184 3.83293 0
M  V30 46122 H 4642.21 -0.00262665 0.663995 0
M  V30 46123 H 4644.74 0.616437 1.95093 0
M  V30 46124 H 4644.75 -0.686065 4.0219 0
M  V30 46125 H 4643.43 0.460884 4.13338 0
M  V30 46126 H 4642.01 -1.26098 3.50933 0
M  V30 46127 N 4644.19 -1.56714 0.166901 0
M  V30 46128 C 4645.42 -2.01559 -0.488763 0
M  V30 46129 C 4645.84 -1.04635 -1.56311 0
M  V30 46130 O 4645.2 -0.0251942 -1.81282 0
M  V30 46131 C 4645.25 -3.45033 -1.04806 0
M  V30 46132 O 4644.35 -3.51171 -2.16224 0
M  V30 46133 H 4643.69 -0.65352 -0.117503 0
M  V30 46134 H 4646.22 -2.02817 0.269492 0
M  V30 46135 H 4646.23 -3.84248 -1.37177 0
M  V30 46136 H 4644.91 -4.15078 -0.261427 0
M  V30 46137 H 4643.48 -3.23813 -1.8493 0
M  V30 46138 N 4645.67 0.106839 -1.57237 0
M  V30 46139 C 4646.63 1.11459 -2.00274 0
M  V30 46140 C 4647.63 1.33619 -0.894566 0
M  V30 46141 O 4648.82 1.29931 -1.16033 0
M  V30 46142 C 4645.95 2.46637 -2.35335 0
M  V30 46143 H 4647.15 0.744414 -2.90514 0
M  V30 46144 H 4644.7 0.351523 -1.52296 0
M  V30 46145 H 4645.43 2.88553 -1.48013 0
M  V30 46146 H 4645.22 2.31904 -3.1617 0
M  V30 46147 H 4646.71 3.19142 -2.6933 0
M  V30 46148 N 4647.15 1.53016 0.377354 0
M  V30 46149 C 4648.56 1.42526 0.718231 0
M  V30 46150 C 4648.76 0.554938 1.93708 0
M  V30 46151 O 4647.82 0.032848 2.52479 0
M  V30 46152 C 4649.13 2.8555 0.942438 0
M  V30 46153 C 4650.68 2.95104 1.04319 0
M  V30 46154 C 4651.15 4.39164 1.29994 0
M  V30 46155 N 4652.65 4.42541 1.36791 0
M  V30 46156 C 4653.38 5.51103 1.58345 0
M  V30 46157 N 4652.88 6.69731 1.77293 0
M  V30 46158 N 4654.67 5.38663 1.60619 0
M  V30 46159 H 4646.82 2.08115 -0.424499 0
M  V30 46160 H 4649.08 0.939347 -0.127792 0
M  V30 46161 H 4648.79 3.51499 0.118806 0
M  V30 46162 H 4648.66 3.285 1.85386 0
M  V30 46163 H 4651.05 2.29316 1.85737 0
M  V30 46164 H 4651.13 2.55566 0.109415 0
M  V30 46165 H 4650.78 5.05523 0.490813 0
M  V30 46166 H 4650.71 4.76266 2.24675 0
M  V30 46167 H 4653.2 3.57043 1.23809 0
M  V30 46168 H 4653.51 7.4824 1.9328 0
M  V30 46169 H 4651.85 6.72738 1.74495 0
M  V30 46170 H 4655.05 4.44954 1.45375 0
M  V30 46171 H 4655.22 6.23336 1.77076 0
M  V30 46172 N 4648.62 -0.636481 1.44176 0
M  V30 46173 C 4649.87 -1.39644 1.47889 0
M  V30 46174 C 4650.23 -1.92098 0.107814 0
M  V30 46175 O 4649.52 -1.70394 -0.876148 0
M  V30 46176 C 4649.71 -2.583 2.47014 0
M  V30 46177 C 4649.54 -2.17462 3.93625 0
M  V30 46178 C 4648.31 -2.04994 4.6185 0
M  V30 46179 C 4650.51 -1.76705 4.8299 0
M  V30 46180 N 4648.49 -1.57662 5.93309 0
M  V30 46181 C 4649.86 -1.4058 6.03852 0
M  V30 46182 C 4651.92 -1.64038 4.70102 0
M  V30 46183 C 4650.62 -0.930536 7.13256 0
M  V30 46184 C 4652.65 -1.17916 5.79525 0
M  V30 46185 C 4652.01 -0.827379 6.99524 0
M  V30 46186 H 4648.11 -0.506006 0.596223 0
M  V30 46187 H 4650.69 -0.730727 1.80467 0
M  V30 46188 H 4648.86 -3.22507 2.16434 0
M  V30 46189 H 4650.59 -3.25075 2.41057 0
M  V30 46190 H 4647.35 -2.25279 4.16589 0
M  V30 46191 H 4647.77 -1.3631 6.63135 0
M  V30 46192 H 4652.42 -1.89869 3.77769 0
M  V30 46193 H 4650.13 -0.659729 8.05402 0
M  V30 46194 H 4653.72 -1.08581 5.71578 0
M  V30 46195 H 4652.6 -0.475956 7.82754 0
M  V30 46196 N 4650.1 -1.30985 -0.876398 0
M  V30 46197 C 4651.33 -1.23248 -1.66185 0
M  V30 46198 C 4651.75 0.203279 -1.87702 0
M  V30 46199 O 4651.1 1.13312 -1.43061 0
M  V30 46200 C 4651.15 -1.96633 -3.03344 0
M  V30 46201 O 4650.87 -3.34604 -2.82792 0
M  V30 46202 C 4652.38 -1.95658 -3.97785 0
M  V30 46203 H 4649.6 -0.426144 -0.518307 0
M  V30 46204 H 4652.14 -1.72754 -1.09436 0
M  V30 46205 H 4650.29 -1.50904 -3.56801 0
M  V30 46206 H 4650.71 -3.71886 -3.69866 0
M  V30 46207 H 4652.18 -2.51529 -4.91363 0
M  V30 46208 H 4652.66 -0.937546 -4.29077 0
M  V30 46209 H 4653.27 -2.41237 -3.50264 0
M  V30 46210 N 4651.58 1.08987 -1.13841 0
M  V30 46211 C 4653 1.33309 -0.877552 0
M  V30 46212 C 4653.2 1.95589 0.484491 0
M  V30 46213 O 4652.25 2.20513 1.23005 0
M  V30 46214 C 4653.57 2.24038 -2.00568 0
M  V30 46215 C 4655.11 2.37535 -2.03829 0
M  V30 46216 C 4655.59 3.31603 -3.15917 0
M  V30 46217 N 4657.08 3.39178 -3.15457 0
M  V30 46218 C 4657.81 4.11978 -3.98826 0
M  V30 46219 N 4657.31 4.87536 -4.9222 0
M  V30 46220 N 4659.1 4.07748 -3.86908 0
M  V30 46221 H 4651.25 0.669385 -2.01576 0
M  V30 46222 H 4653.52 0.357451 -0.878028 0
M  V30 46223 H 4653.22 1.85511 -2.98795 0
M  V30 46224 H 4653.1 3.24459 -1.9237 0
M  V30 46225 H 4655.48 2.75324 -1.06211 0
M  V30 46226 H 4655.57 1.36877 -2.16098 0
M  V30 46227 H 4655.21 2.94536 -4.13776 0
M  V30 46228 H 4655.14 4.32175 -3.00885 0
M  V30 46229 H 4657.63 2.85306 -2.47809 0
M  V30 46230 H 4657.94 5.4053 -5.52311 0
M  V30 46231 H 4656.29 4.86609 -4.96222 0
M  V30 46232 H 4659.48 3.47822 -3.13269 0
M  V30 46233 H 4659.65 4.64222 -4.52108 0
M  V30 46234 N 4653.06 0.932607 1.27044 0
M  V30 46235 C 4654.31 0.571419 1.93437 0
M  V30 46236 C 4654.62 -0.892405 1.74056 0
M  V30 46237 O 4655.83 -1.36259 2.34831 0
M  V30 46238 C 4654.28 0.971182 3.46549 0
M  V30 46239 C 4653.89 2.45603 3.74678 0
M  V30 46240 C 4655.63 0.68148 4.18994 0
M  V30 46241 C 4653.54 2.79494 5.21188 0
M  V30 46242 H 4652.47 0.209991 0.724168 0
M  V30 46243 H 4655.12 1.13409 1.44259 0
M  V30 46244 H 4653.5 0.337121 3.94562 0
M  V30 46245 H 4654.68 3.13841 3.37402 0
M  V30 46246 H 4652.99 2.71813 3.15446 0
M  V30 46247 H 4655.59 0.911125 5.2688 0
M  V30 46248 H 4655.93 -0.381483 4.14548 0
M  V30 46249 H 4656.47 1.27486 3.76818 0
M  V30 46250 H 4653.21 3.84718 5.30728 0
M  V30 46251 H 4652.73 2.15909 5.59592 0
M  V30 46252 H 4654.4 2.67499 5.89112 0
M  V30 46253 N 4654.54 -1.41267 0.698661 0
M  V30 46254 C 4655.76 -2.06023 0.238584 0
M  V30 46255 C 4656.19 -1.52243 -1.1047 0
M  V30 46256 O 4655.54 -0.650683 -1.69221 0
M  V30 46257 C 4655.59 -3.59988 0.210079 0
M  V30 46258 O 4654.7 -4.04285 -0.814093 0
M  V30 46259 H 4654.04 -0.653825 0.115798 0
M  V30 46260 H 4656.57 -1.80977 0.954389 0
M  V30 46261 H 4656.58 -4.07978 0.0419871 0
M  V30 46262 H 4655.25 -3.98499 1.19044 0
M  V30 46263 H 4653.83 -3.67792 -0.615104 0
M  V30 46264 N 4656.01 -0.44363 -1.51227 0
M  V30 46265 C 4657.24 0.121576 -2.07043 0
M  V30 46266 C 4657.66 1.35151 -1.30827 0
M  V30 46267 O 4657.02 1.77929 -0.347997 0
M  V30 46268 C 4657.07 0.416114 -3.58191 0
M  V30 46269 O 4656.17 1.5015 -3.84095 0
M  V30 46270 H 4655.52 -0.00089471 -0.663999 0
M  V30 46271 H 4658.05 -0.626775 -1.94763 0
M  V30 46272 H 4658.06 0.664726 -4.02549 0
M  V30 46273 H 4656.73 -0.482798 -4.13088 0
M  V30 46274 H 4655.31 1.24235 -3.51596 0
M  V30 46275 N 4657.49 1.56623 -0.175209 0
M  V30 46276 C 4658.72 2.01376 0.474901 0
M  V30 46277 C 4659.14 1.05542 1.56545 0
M  V30 46278 O 4658.49 0.056931 1.82411 0
M  V30 46279 C 4658.54 3.45926 1.04963 0
M  V30 46280 O 4658.27 4.381 0.00261203 0
M  V30 46281 C 4659.77 4.061 1.77758 0
M  V30 46282 H 4656.99 0.659967 0.121182 0
M  V30 46283 H 4659.53 2.026 -0.278082 0
M  V30 46284 H 4657.69 3.45464 1.75309 0
M  V30 46285 H 4658.1 5.22755 0.427497 0
M  V30 46286 H 4659.57 5.09154 2.13227 0
M  V30 46287 H 4660.05 3.48415 2.67402 0
M  V30 46288 H 4660.66 4.10276 1.12045 0
M  V30 46289 N 4658.97 -0.0984986 1.57292 0
M  V30 46290 C 4660.38 -0.653395 1.74893 0
M  V30 46291 C 4660.73 -1.79287 0.796901 0
M  V30 46292 O 4659.86 -2.16385 -0.0254125 0
M  V30 46293 C 4660.45 -1.19205 3.17137 0
M  V30 46294 C 4659.01 -1.69304 3.36174 0
M  V30 46295 C 4658.16 -0.601199 2.70704 0
M  V30 46296 H 4661.11 0.127552 1.58187 0
M  V30 46297 H 4661.13 -2.06143 3.19821 0
M  V30 46298 H 4660.64 -0.362499 3.86403 0
M  V30 46299 H 4658.74 -2.5467 2.71981 0
M  V30 46300 H 4658.86 -1.78837 4.4447 0
M  V30 46301 H 4657.22 -1.03982 2.32508 0
M  V30 46302 H 4658 0.217712 3.42609 0
M  V30 46303 N 4660.45 -1.53214 -0.369234 0
M  V30 46304 C 4661.41 -1.78725 -1.43492 0
M  V30 46305 C 4662.41 -0.657606 -1.46739 0
M  V30 46306 O 4663.6 -0.925788 -1.47563 0
M  V30 46307 C 4660.73 -1.90601 -2.82638 0
M  V30 46308 H 4661.93 -2.73898 -1.22146 0
M  V30 46309 H 4659.48 -1.44235 -0.602153 0
M  V30 46310 H 4660.22 -0.974818 -3.09302 0
M  V30 46311 H 4660 -2.72761 -2.8168 0
M  V30 46312 H 4661.49 -2.11943 -3.59819 0
M  V30 46313 N 4661.93 0.628826 -1.44511 0
M  V30 46314 C 4662.87 1.74068 -1.51555 0
M  V30 46315 C 4663.84 1.62083 -0.363078 0
M  V30 46316 O 4665.03 1.81973 -0.573631 0
M  V30 46317 C 4662.17 3.12322 -1.46795 0
M  V30 46318 C 4661.28 3.35267 -2.72434 0
M  V30 46319 C 4660.42 4.63506 -2.59491 0
M  V30 46320 C 4659.46 4.79637 -3.80283 0
M  V30 46321 N 4658.59 5.99155 -3.66002 0
M  V30 46322 H 4663.43 1.67384 -2.4655 0
M  V30 46323 H 4660.97 0.816484 -1.2236 0
M  V30 46324 H 4662.93 3.92281 -1.42025 0
M  V30 46325 H 4661.56 3.18016 -0.553656 0
M  V30 46326 H 4660.61 2.49232 -2.8738 0
M  V30 46327 H 4661.92 3.43065 -3.62088 0
M  V30 46328 H 4661.08 5.51629 -2.52568 0
M  V30 46329 H 4659.82 4.5807 -1.674 0
M  V30 46330 H 4658.82 3.89943 -3.87588 0
M  V30 46331 H 4660.05 4.86885 -4.73412 0
M  V30 46332 H 4657.99 5.94805 -2.76665 0
M  V30 46333 H 4657.91 6.0802 -4.49275 0
M  V30 46334 H 4659.18 6.89833 -3.62974 0
M  V30 46335 N 4663.41 1.31448 0.869439 0
M  V30 46336 C 4664.34 1.21734 1.99256 0
M  V30 46337 C 4665.32 0.104419 1.69779 0
M  V30 46338 O 4666.5 0.289105 1.92036 0
M  V30 46339 C 4663.63 0.924435 3.34771 0
M  V30 46340 C 4662.59 1.99698 3.78556 0
M  V30 46341 C 4661.91 1.55676 5.11536 0
M  V30 46342 C 4663.21 3.41017 3.95607 0
M  V30 46343 H 4664.91 2.15697 2.07641 0
M  V30 46344 H 4662.45 1.03842 0.997639 0
M  V30 46345 H 4664.4 0.843079 4.1288 0
M  V30 46346 H 4663.13 -0.0508645 3.2656 0
M  V30 46347 H 4661.79 2.06824 3.02687 0
M  V30 46348 H 4661.44 0.569307 4.99768 0
M  V30 46349 H 4661.14 2.27428 5.41803 0
M  V30 46350 H 4662.66 1.48949 5.92154 0
M  V30 46351 H 4664.07 3.36563 4.6411 0
M  V30 46352 H 4662.47 4.10991 4.37272 0
M  V30 46353 H 4663.54 3.81764 2.98972 0
M  V30 46354 N 4664.88 -1.08381 1.14417 0
M  V30 46355 C 4665.79 -2.18853 0.845028 0
M  V30 46356 C 4666.81 -1.73122 -0.174607 0
M  V30 46357 O 4667.99 -2.014 -0.00305777 0
M  V30 46358 C 4665.05 -3.45154 0.327081 0
M  V30 46359 C 4664.11 -4.05508 1.4093 0
M  V30 46360 C 4663.34 -5.25781 0.915978 0
M  V30 46361 O 4663.57 -5.69884 -0.242451 0
M  V30 46362 O 4662.5 -5.77539 1.69507 0
M  V30 46363 H 4666.33 -2.46913 1.76826 0
M  V30 46364 H 4663.91 -1.17521 0.922453 0
M  V30 46365 H 4665.79 -4.21377 0.0441693 0
M  V30 46366 H 4664.47 -3.1867 -0.568427 0
M  V30 46367 H 4663.38 -3.30873 1.74568 0
M  V30 46368 H 4664.71 -4.36242 2.27934 0
M  V30 46369 N 4666.36 -0.939331 -1.26548 0
M  V30 46370 C 4667.29 -0.404783 -2.25597 0
M  V30 46371 C 4668.31 0.470928 -1.5584 0
M  V30 46372 O 4669.5 0.281672 -1.76264 0
M  V30 46373 C 4666.6 0.437522 -3.36064 0
M  V30 46374 C 4665.77 -0.421602 -4.35363 0
M  V30 46375 C 4664.83 0.359965 -5.24967 0
M  V30 46376 O 4663.85 -0.236367 -5.68709 0
M  V30 46377 N 4665.06 1.65696 -5.5635 0
M  V30 46378 H 4667.82 -1.25627 -2.72099 0
M  V30 46379 H 4665.38 -0.808012 -1.40295 0
M  V30 46380 H 4667.37 0.967728 -3.92959 0
M  V30 46381 H 4665.94 1.1898 -2.89072 0
M  V30 46382 H 4665.16 -1.13303 -3.77566 0
M  V30 46383 H 4666.45 -1.00853 -4.98705 0
M  V30 46384 H 4665.85 2.1636 -5.2269 0
M  V30 46385 H 4664.41 2.13345 -6.15896 0
M  V30 46386 N 4667.84 1.40895 -0.706143 0
M  V30 46387 C 4669.26 1.55041 -0.378745 0
M  V30 46388 C 4669.46 1.67948 1.11336 0
M  V30 46389 O 4668.51 1.66379 1.89932 0
M  V30 46390 C 4669.82 2.78394 -1.13653 0
M  V30 46391 C 4671.37 2.92202 -1.12191 0
M  V30 46392 C 4671.85 4.18457 -1.86166 0
M  V30 46393 N 4673.34 4.25437 -1.83188 0
M  V30 46394 C 4674.07 5.22012 -2.37257 0
M  V30 46395 N 4673.57 6.24553 -2.99843 0
M  V30 46396 N 4675.36 5.14025 -2.27453 0
M  V30 46397 H 4667.51 1.30763 -1.67377 0
M  V30 46398 H 4669.78 0.631628 -0.70693 0
M  V30 46399 H 4669.48 2.75103 -2.19115 0
M  V30 46400 H 4669.36 3.70226 -0.721983 0
M  V30 46401 H 4671.74 2.95003 -0.0755208 0
M  V30 46402 H 4671.82 2.01515 -1.57561 0
M  V30 46403 H 4671.47 4.16417 -2.90791 0
M  V30 46404 H 4671.4 5.08136 -1.38223 0
M  V30 46405 H 4673.89 3.51971 -1.37568 0
M  V30 46406 H 4674.2 6.94653 -3.3864 0
M  V30 46407 H 4672.55 6.25024 -3.03924 0
M  V30 46408 H 4675.74 4.32844 -1.78224 0
M  V30 46409 H 4675.91 5.89119 -2.69893 0
M  V30 46410 N 4669.32 0.451643 1.5099 0
M  V30 46411 C 4670.55 -0.108261 2.06617 0
M  V30 46412 C 4670.96 -1.3522 1.31762 0
M  V30 46413 O 4670.32 -1.78474 0.381237 0
M  V30 46414 C 4670.37 -0.416064 3.59098 0
M  V30 46415 O 4670.09 0.778512 4.31127 0
M  V30 46416 C 4671.59 -1.02508 4.31285 0
M  V30 46417 H 4668.81 -0.00157636 0.670998 0
M  V30 46418 H 4671.35 0.63484 1.94397 0
M  V30 46419 H 4669.51 -1.10908 3.71185 0
M  V30 46420 H 4669.92 0.511364 5.22001 0
M  V30 46421 H 4671.4 -1.19034 5.39013 0
M  V30 46422 H 4671.87 -2.00999 3.90507 0
M  V30 46423 H 4672.48 -0.371024 4.23679 0
M  V30 46424 N 4670.8 -1.56528 0.183513 0
M  V30 46425 C 4672.03 -2.01333 -0.463541 0
M  V30 46426 C 4672.43 -1.06284 -1.56526 0
M  V30 46427 O 4671.78 -0.0578621 -1.83609 0
M  V30 46428 C 4671.84 -3.42551 -1.09084 0
M  V30 46429 C 4671.5 -4.56817 -0.129282 0
M  V30 46430 C 4672.5 -5.15732 0.656989 0
M  V30 46431 C 4670.18 -5.02295 -0.0215634 0
M  V30 46432 C 4672.18 -6.18565 1.53806 0
M  V30 46433 C 4669.87 -6.04975 0.863076 0
M  V30 46434 C 4670.86 -6.62982 1.64146 0
M  V30 46435 O 4670.55 -7.63668 2.5113 0
M  V30 46436 H 4670.28 -0.664921 -0.121884 0
M  V30 46437 H 4672.84 -2.03399 0.286026 0
M  V30 46438 H 4671.07 -3.37435 -1.88877 0
M  V30 46439 H 4672.76 -3.71234 -1.64135 0
M  V30 46440 H 4673.52 -4.81471 0.584009 0
M  V30 46441 H 4669.4 -4.56849 -0.617231 0
M  V30 46442 H 4672.95 -6.63769 2.14607 0
M  V30 46443 H 4668.84 -6.3866 0.937215 0
M  V30 46444 H 4669.61 -7.81041 2.4478 0
M  V30 46445 N 4672.27 0.0901557 -1.57342 0
M  V30 46446 C 4673.52 0.791176 -1.8597 0
M  V30 46447 C 4673.84 1.79028 -0.772922 0
M  V30 46448 O 4673.11 1.94873 0.20033 0
M  V30 46449 H 4671.69 0.295181 -0.686205 0
M  V30 46450 H 4674.36 0.0706097 -1.94772 0
M  V30 46451 H 4673.45 1.31872 -2.82871 0
M  V30 46452 N 4673.75 1.53407 0.361103 0
M  V30 46453 C 4674.68 1.83141 1.4485 0
M  V30 46454 C 4675.66 0.685228 1.55688 0
M  V30 46455 O 4676.85 0.9355 1.70182 0
M  V30 46456 C 4673.98 2.02532 2.82131 0
M  V30 46457 C 4672.93 3.18312 2.86115 0
M  V30 46458 C 4672.26 3.23004 4.26113 0
M  V30 46459 C 4673.56 4.56805 2.53232 0
M  V30 46460 H 4675.25 2.74205 1.20216 0
M  V30 46461 H 4672.8 1.3194 0.576875 0
M  V30 46462 H 4674.75 2.21916 3.58233 0
M  V30 46463 H 4673.48 1.08183 3.08162 0
M  V30 46464 H 4672.13 2.98755 2.12464 0
M  V30 46465 H 4671.78 2.26283 4.49227 0
M  V30 46466 H 4671.48 4.00796 4.29694 0
M  V30 46467 H 4673.01 3.44577 5.04082 0
M  V30 46468 H 4674.42 4.76321 3.19048 0
M  V30 46469 H 4672.82 5.36871 2.68122 0
M  V30 46470 H 4673.89 4.61612 1.48468 0
M  V30 46471 N 4675.23 -0.621153 1.44843 0
M  V30 46472 C 4676.16 -1.74585 1.46953 0
M  V30 46473 C 4677.14 -1.59272 0.327294 0
M  V30 46474 O 4678.33 -1.81019 0.52577 0
M  V30 46475 C 4675.45 -3.1227 1.31169 0
M  V30 46476 C 4674.5 -3.46207 2.49085 0
M  V30 46477 S 4675.33 -3.42566 4.11593 0
M  V30 46478 C 4676.49 -4.82853 3.9825 0
M  V30 46479 H 4676.72 -1.7253 2.42117 0
M  V30 46480 H 4674.25 -0.796637 1.32261 0
M  V30 46481 H 4676.21 -3.91717 1.2275 0
M  V30 46482 H 4674.87 -3.11853 0.374994 0
M  V30 46483 H 4674.07 -4.46422 2.33931 0
M  V30 46484 H 4673.67 -2.74244 2.54295 0
M  V30 46485 H 4675.96 -5.72328 3.62557 0
M  V30 46486 H 4676.9 -5.03063 4.98331 0
M  V30 46487 H 4677.31 -4.57897 3.30137 0
M  V30 46488 N 4676.71 -1.31907 -0.862456 0
M  V30 46489 C 4677.99 -1.1265 -1.59904 0
M  V30 46490 C 4678.37 0.31603 -2.08721 0
M  V30 46491 O 4677.71 1.31138 -1.87123 0
M  V30 46492 C 4677.92 -2.14729 -2.75122 0
M  V30 46493 C 4679.27 -2.4765 -3.44898 0
M  V30 46494 O 4680.3 -2.13215 -2.85338 0
M  V30 46495 O 4679.15 -3.06648 -4.5236 0
M  V30 46496 H 4676.25 -0.434185 -0.703856 0
M  V30 46497 H 4678.79 -1.43411 -0.907264 0
M  V30 46498 H 4677.57 -3.11728 -2.36519 0
M  V30 46499 H 4677.19 -1.84917 -3.51982 0
M  V30 46500 N 4678.19 1.07773 -1.1499 0
M  V30 46501 C 4679.41 1.84554 -0.946278 0
M  V30 46502 C 4679.84 1.81325 0.500299 0
M  V30 46503 O 4679.19 1.20305 1.35633 0
M  V30 46504 C 4679.24 3.29731 -1.45979 0
M  V30 46505 O 4678.35 4.07147 -0.656153 0
M  V30 46506 H 4677.69 0.571629 -0.33784 0
M  V30 46507 H 4680.22 1.35985 -1.5287 0
M  V30 46508 H 4680.23 3.80569 -1.47077 0
M  V30 46509 H 4678.9 3.31397 -2.51295 0
M  V30 46510 H 4677.48 3.65992 -0.71445 0
M  V30 46511 N 4679.66 0.946029 1.26048 0
M  V30 46512 C 4680.61 0.430243 2.23904 0
M  V30 46513 C 4681.6 -0.475736 1.53706 0
M  V30 46514 O 4682.79 -0.310191 1.74261 0
M  V30 46515 C 4679.92 -0.298837 3.41997 0
M  V30 46516 C 4679.01 0.624714 4.19474 0
M  V30 46517 N 4679.4 1.75262 4.74465 0
M  V30 46518 C 4677.69 0.431238 4.4391 0
M  V30 46519 C 4678.4 2.32853 5.33061 0
M  V30 46520 N 4677.37 1.61601 5.19024 0
M  V30 46521 H 4681.17 1.29116 2.64019 0
M  V30 46522 H 4678.69 0.802478 1.41188 0
M  V30 46523 H 4680.68 -0.68542 4.11227 0
M  V30 46524 H 4679.34 -1.15646 3.03407 0
M  V30 46525 H 4680.36 2.13466 4.71861 0
M  V30 46526 H 4677.03 -0.384218 4.15728 0
M  V30 46527 H 4678.42 3.27913 5.86449 0
M  V30 46528 N 4681.14 -1.40518 0.713605 0
M  V30 46529 C 4682.11 -2.29098 0.0685152 0
M  V30 46530 C 4683.11 -1.45271 -0.689421 0
M  V30 46531 O 4684.3 -1.66207 -0.521619 0
M  V30 46532 C 4681.43 -3.28449 -0.912909 0
M  V30 46533 H 4682.62 -2.87642 0.848651 0
M  V30 46534 H 4680.17 -1.48807 0.478143 0
M  V30 46535 H 4680.91 -2.74919 -1.72017 0
M  V30 46536 H 4680.69 -3.90328 -0.372334 0
M  V30 46537 H 4682.18 -3.94782 -1.36151 0
M  V30 46538 N 4682.62 -0.459644 -1.50748 0
M  V30 46539 C 4683.87 0.0994254 -2.02556 0
M  V30 46540 C 4684.2 1.40395 -1.34175 0
M  V30 46541 O 4683.47 1.8889 -0.463749 0
M  V30 46542 C 4683.76 0.295116 -3.58889 0
M  V30 46543 C 4683.61 -1.02962 -4.37857 0
M  V30 46544 C 4684.93 1.05487 -4.27271 0
M  V30 46545 H 4682.05 0.0346601 -0.736185 0
M  V30 46546 H 4684.69 -0.603002 -1.80177 0
M  V30 46547 H 4682.84 0.89343 -3.78087 0
M  V30 46548 H 4684.51 -1.66363 -4.30257 0
M  V30 46549 H 4682.76 -1.62899 -4.02053 0
M  V30 46550 H 4683.43 -0.846473 -5.45471 0
M  V30 46551 H 4685.9 0.547848 -4.12478 0
M  V30 46552 H 4684.78 1.16058 -5.3649 0
M  V30 46553 H 4685.04 2.08861 -3.89653 0
M  V30 46554 N 4684.1 1.56428 -0.191812 0
M  V30 46555 C 4685.03 2.21939 0.725618 0
M  V30 46556 C 4686.01 1.18144 1.22376 0
M  V30 46557 O 4687.19 1.4664 1.27319 0
M  V30 46558 C 4684.32 2.87618 1.94662 0
M  V30 46559 C 4683.28 3.97629 1.58352 0
M  V30 46560 C 4682.6 4.50456 2.88086 0
M  V30 46561 C 4683.9 5.16199 0.795952 0
M  V30 46562 H 4685.6 2.98861 0.179501 0
M  V30 46563 H 4683.14 1.4375 0.0848959 0
M  V30 46564 H 4685.1 3.32129 2.59362 0
M  V30 46565 H 4683.82 2.08096 2.51721 0
M  V30 46566 H 4682.48 3.53804 0.960123 0
M  V30 46567 H 4682.13 3.677 3.43228 0
M  V30 46568 H 4681.83 5.24684 2.64538 0
M  V30 46569 H 4683.35 4.97666 3.5378 0
M  V30 46570 H 4684.77 5.57276 1.34598 0
M  V30 46571 H 4683.16 5.96474 0.658718 0
M  V30 46572 H 4684.23 4.84472 -0.203648 0
M  V30 46573 N 4685.58 -0.0818102 1.57388 0
M  V30 46574 C 4686.51 -1.12477 1.99704 0
M  V30 46575 C 4687.52 -1.35561 0.901508 0
M  V30 46576 O 4688.71 -1.33978 1.1795 0
M  V30 46577 C 4685.81 -2.4777 2.31221 0
M  V30 46578 C 4684.98 -2.4478 3.62493 0
M  V30 46579 C 4684.04 -3.62103 3.81795 0
M  V30 46580 O 4683.07 -3.43989 4.53498 0
M  V30 46581 N 4684.27 -4.82082 3.23384 0
M  V30 46582 H 4687.04 -0.764483 2.89786 0
M  V30 46583 H 4684.6 -0.270608 1.59622 0
M  V30 46584 H 4686.59 -3.24883 2.41316 0
M  V30 46585 H 4685.16 -2.75837 1.4708 0
M  V30 46586 H 4684.38 -1.53121 3.63246 0
M  V30 46587 H 4685.67 -2.39873 4.48707 0
M  V30 46588 H 4685.06 -4.99704 2.65166 0
M  V30 46589 H 4683.62 -5.56741 3.38943 0
M  V30 46590 N 4687.06 -1.53597 -0.352963 0
M  V30 46591 C 4688.3 -1.69607 -1.09162 0
M  V30 46592 C 4688.62 -0.460992 -1.9009 0
M  V30 46593 O 4689.82 -0.501868 -2.66821 0
M  V30 46594 C 4688.28 -2.99879 -1.99 0
M  V30 46595 C 4687.89 -4.30692 -1.23324 0
M  V30 46596 C 4689.63 -3.25255 -2.72781 0
M  V30 46597 C 4687.54 -5.52044 -2.12136 0
M  V30 46598 H 4686.47 -0.63198 -0.411238 0
M  V30 46599 H 4689.12 -1.80097 -0.351739 0
M  V30 46600 H 4687.5 -2.83222 -2.7677 0
M  V30 46601 H 4688.68 -4.58021 -0.505295 0
M  V30 46602 H 4686.99 -4.11855 -0.613518 0
M  V30 46603 H 4689.59 -4.13107 -3.3948 0
M  V30 46604 H 4689.93 -2.41858 -3.38837 0
M  V30 46605 H 4690.46 -3.42645 -2.02088 0
M  V30 46606 H 4687.2 -6.37957 -1.50637 0
M  V30 46607 H 4686.72 -5.28975 -2.82745 0
M  V30 46608 H 4688.4 -5.87322 -2.71406 0
M  V30 46609 N 4688.53 0.613463 -1.4517 0
M  V30 46610 C 4689.76 1.40431 -1.52623 0
M  V30 46611 C 4690.18 1.87437 -0.157773 0
M  V30 46612 O 4689.54 1.59794 0.856481 0
M  V30 46613 C 4689.59 2.58885 -2.5102 0
M  V30 46614 O 4688.69 3.59319 -2.02394 0
M  V30 46615 H 4688.03 0.419488 -0.514709 0
M  V30 46616 H 4690.56 0.747148 -1.9047 0
M  V30 46617 H 4690.57 3.06205 -2.69634 0
M  V30 46618 H 4689.25 2.2402 -3.50411 0
M  V30 46619 H 4687.83 3.18688 -1.93629 0
M  V30 46620 N 4690.01 1.32363 0.855449 0
M  V30 46621 C 4691.24 1.26016 1.64726 0
M  V30 46622 C 4691.66 -0.169002 1.87339 0
M  V30 46623 O 4691.02 -1.12011 1.4256 0
M  V30 46624 C 4691.07 2.02428 2.98422 0
M  V30 46625 O 4690.17 1.37154 3.88925 0
M  V30 46626 H 4689.51 0.434342 0.502238 0
M  V30 46627 H 4692.04 1.74665 1.06552 0
M  V30 46628 H 4692.05 2.12571 3.48249 0
M  V30 46629 H 4690.73 3.06353 2.81284 0
M  V30 46630 H 4689.3 1.35553 3.4739 0
M  V30 46631 N 4691.49 -1.07162 1.1556 0
M  V30 46632 C 4692.45 -2.12586 0.856719 0
M  V30 46633 C 4693.45 -1.6015 -0.144383 0
M  V30 46634 O 4694.64 -1.7399 0.0854774 0
M  V30 46635 C 4691.77 -3.39752 0.279525 0
M  V30 46636 H 4692.97 -2.40533 1.7912 0
M  V30 46637 H 4690.52 -1.23083 0.963342 0
M  V30 46638 H 4691.26 -3.17449 -0.663063 0
M  V30 46639 H 4691.04 -3.79114 1.00077 0
M  V30 46640 H 4692.53 -4.17507 0.0880581 0
M  V30 46641 N 4692.97 -0.9527 -1.25544 0
M  V30 46642 C 4693.91 -0.47016 -2.2596 0
M  V30 46643 C 4694.88 0.476328 -1.59124 0
M  V30 46644 O 4696.07 0.390004 -1.86772 0
M  V30 46645 C 4693.21 0.24776 -3.44209 0
M  V30 46646 C 4692.32 -0.735741 -4.25689 0
M  V30 46647 C 4691.46 0.00454386 -5.312 0
M  V30 46648 C 4690.5 -0.970017 -6.04365 0
M  V30 46649 N 4689.63 -0.260732 -7.01616 0
M  V30 46650 H 4694.47 -1.33136 -2.66606 0
M  V30 46651 H 4692.01 -0.667696 -1.31073 0
M  V30 46652 H 4693.97 0.68055 -4.11612 0
M  V30 46653 H 4692.6 1.07301 -3.04444 0
M  V30 46654 H 4691.65 -1.28702 -3.57966 0
M  V30 46655 H 4692.96 -1.47951 -4.76353 0
M  V30 46656 H 4692.12 0.496062 -6.04669 0
M  V30 46657 H 4690.86 0.781113 -4.81404 0
M  V30 46658 H 4689.86 -1.47255 -5.29713 0
M  V30 46659 H 4691.09 -1.74678 -6.5625 0
M  V30 46660 H 4689.03 0.497134 -6.54114 0
M  V30 46661 H 4688.95 -0.943626 -7.50088 0
M  V30 46662 H 4690.22 0.209313 -7.79219 0
M  V30 46663 N 4694.45 1.40138 -0.721047 0
M  V30 46664 C 4695.86 1.83677 -0.334617 0
M  V30 46665 C 4696.21 1.60274 1.13167 0
M  V30 46666 O 4695.33 1.08649 1.87148 0
M  V30 46667 C 4695.93 3.33435 -0.600554 0
M  V30 46668 C 4694.49 3.75446 -0.267774 0
M  V30 46669 C 4693.63 2.63293 -0.870189 0
M  V30 46670 H 4696.58 1.29328 -0.919778 0
M  V30 46671 H 4696.61 3.8027 0.132384 0
M  V30 46672 H 4696.12 3.50437 -1.66781 0
M  V30 46673 H 4694.22 3.64037 0.794201 0
M  V30 46674 H 4694.33 4.73341 -0.740586 0
M  V30 46675 H 4692.7 2.52953 -0.297828 0
M  V30 46676 H 4693.48 2.83105 -1.94182 0
M  V30 46677 N 4695.92 0.467632 1.50502 0
M  V30 46678 C 4697.15 -0.0886215 2.07211 0
M  V30 46679 C 4697.57 -1.33053 1.32961 0
M  V30 46680 O 4696.93 -1.77353 0.376259 0
M  V30 46681 C 4696.98 -0.359076 3.58808 0
M  V30 46682 O 4696.08 -1.4402 3.86435 0
M  V30 46683 H 4695.42 0.0114583 0.663901 0
M  V30 46684 H 4697.95 0.657681 1.93741 0
M  V30 46685 H 4697.96 -0.6006 4.03555 0
M  V30 46686 H 4696.64 0.548456 4.12268 0
M  V30 46687 H 4695.22 -1.18626 3.53528 0
M  V30 46688 N 4697.4 -1.56324 0.200105 0
M  V30 46689 C 4698.68 -1.89486 -0.485223 0
M  V30 46690 C 4699.06 -1.11437 -1.7929 0
M  V30 46691 O 4698.41 -0.216999 -2.27467 0
M  V30 46692 C 4698.62 -3.41926 -0.699123 0
M  V30 46693 C 4699.96 -4.12259 -1.01624 0
M  V30 46694 O 4700.99 -3.47405 -0.786669 0
M  V30 46695 O 4699.85 -5.26892 -1.45077 0
M  V30 46696 H 4696.94 -0.787153 -0.253611 0
M  V30 46697 H 4699.49 -1.67984 0.240692 0
M  V30 46698 H 4698.26 -3.90657 0.224145 0
M  V30 46699 H 4697.88 -3.69136 -1.47731 0
M  V30 46700 N 4698.88 0.0734624 -1.57429 0
M  V30 46701 C 4699.84 1.07185 -2.02593 0
M  V30 46702 C 4700.84 1.31692 -0.922707 0
M  V30 46703 O 4702.03 1.2744 -1.18763 0
M  V30 46704 C 4699.16 2.4159 -2.40514 0
M  V30 46705 H 4700.36 0.682624 -2.92028 0
M  V30 46706 H 4697.91 0.31914 -1.53007 0
M  V30 46707 H 4698.65 2.85348 -1.541 0
M  V30 46708 H 4698.43 2.25145 -3.21017 0
M  V30 46709 H 4699.92 3.13357 -2.76038 0
M  V30 46710 N 4700.36 1.53782 0.344812 0
M  V30 46711 C 4701.61 1.70629 1.08305 0
M  V30 46712 C 4701.93 0.471514 1.89213 0
M  V30 46713 O 4701.2 -0.51455 1.89022 0
M  V30 46714 H 4699.78 0.629072 0.402837 0
M  V30 46715 H 4702.44 1.91031 0.386392 0
M  V30 46716 H 4701.53 2.57662 1.76115 0
M  V30 46717 N 4701.84 -0.605756 1.45494 0
M  V30 46718 C 4703.06 -1.3913 1.53135 0
M  V30 46719 C 4703.48 -1.88081 0.164573 0
M  V30 46720 O 4702.84 -1.62319 -0.83419 0
M  V30 46721 C 4702.89 -2.59455 2.51725 0
M  V30 46722 O 4702.61 -2.12538 3.83092 0
M  V30 46723 C 4704.11 -3.52292 2.69083 0
M  V30 46724 H 4701.33 -0.42583 0.518565 0
M  V30 46725 H 4703.87 -0.738583 1.90697 0
M  V30 46726 H 4702.03 -3.20764 2.17231 0
M  V30 46727 H 4702.44 -2.90728 4.36551 0
M  V30 46728 H 4703.92 -4.33259 3.42039 0
M  V30 46729 H 4704.39 -4.02751 1.75182 0
M  V30 46730 H 4705 -2.96834 3.04581 0
M  V30 46731 N 4703.31 -1.32814 -0.848417 0
M  V30 46732 C 4704.54 -1.26561 -1.63297 0
M  V30 46733 C 4704.95 0.167534 -1.88457 0
M  V30 46734 O 4704.3 1.11708 -1.45832 0
M  V30 46735 C 4704.36 -1.96213 -3.01232 0
M  V30 46736 C 4704.02 -3.45538 -2.99086 0
M  V30 46737 C 4705.02 -4.40912 -2.75486 0
M  V30 46738 C 4702.7 -3.87569 -3.19524 0
M  V30 46739 C 4704.7 -5.76291 -2.72336 0
M  V30 46740 C 4702.38 -5.23055 -3.16001 0
M  V30 46741 C 4703.38 -6.17228 -2.92437 0
M  V30 46742 O 4703.07 -7.50234 -2.88799 0
M  V30 46743 H 4702.8 -0.437729 -0.515141 0
M  V30 46744 H 4705.36 -1.75594 -1.06564 0
M  V30 46745 H 4703.59 -1.41758 -3.5978 0
M  V30 46746 H 4705.28 -1.83586 -3.6201 0
M  V30 46747 H 4706.04 -4.09765 -2.59456 0
M  V30 46748 H 4701.92 -3.14686 -3.36889 0
M  V30 46749 H 4705.46 -6.49769 -2.53863 0
M  V30 46750 H 4701.36 -5.5383 -3.31576 0
M  V30 46751 H 4702.13 -7.59668 -3.04709 0
M  V30 46752 N 4704.79 1.06547 -1.16127 0
M  V30 46753 C 4706.04 1.79564 -0.942584 0
M  V30 46754 C 4706.37 1.86871 0.528481 0
M  V30 46755 O 4705.65 1.35843 1.39201 0
M  V30 46756 C 4705.93 3.2419 -1.56758 0
M  V30 46757 C 4705.78 3.24978 -3.10981 0
M  V30 46758 C 4707.1 4.21674 -1.26013 0
M  V30 46759 H 4704.22 0.651871 -0.343851 0
M  V30 46760 H 4706.86 1.24625 -1.43417 0
M  V30 46761 H 4705.01 3.71103 -1.14955 0
M  V30 46762 H 4706.68 2.86246 -3.61747 0
M  V30 46763 H 4704.93 2.63704 -3.44445 0
M  V30 46764 H 4705.6 4.26993 -3.4983 0
M  V30 46765 H 4708.07 3.8319 -1.62187 0
M  V30 46766 H 4706.95 5.2114 -1.72349 0
M  V30 46767 H 4707.21 4.41739 -0.178522 0
M  V30 46768 N 4706.27 0.959345 1.25037 0
M  V30 46769 C 4707.51 0.624412 1.94629 0
M  V30 46770 C 4707.87 -0.823969 1.73421 0
M  V30 46771 O 4709.08 -1.26872 2.36974 0
M  V30 46772 C 4707.35 0.978926 3.43732 0
M  V30 46773 S 4708.91 0.757279 4.32216 0
M  V30 46774 H 4705.72 0.22935 0.672993 0
M  V30 46775 H 4708.33 1.23452 1.51591 0
M  V30 46776 H 4707.03 2.0301 3.56672 0
M  V30 46777 H 4706.56 0.359255 3.91756 0
M  V30 46778 H 4708.58 -0.369585 4.94822 0
M  V30 46779 N 4707.75 -1.39754 0.728469 0
M  V30 46780 C 4708.68 -2.33289 0.0992174 0
M  V30 46781 C 4709.66 -1.53571 -0.731435 0
M  V30 46782 O 4710.84 -1.8199 -0.677743 0
M  V30 46783 C 4707.97 -3.37633 -0.813715 0
M  V30 46784 C 4706.93 -4.2791 -0.0877159 0
M  V30 46785 C 4706.25 -5.22898 -1.11723 0
M  V30 46786 C 4707.55 -5.1131 1.06581 0
M  V30 46787 H 4709.25 -2.8616 0.880508 0
M  V30 46788 H 4706.79 -1.3759 0.424867 0
M  V30 46789 H 4708.75 -4.02015 -1.26341 0
M  V30 46790 H 4707.47 -2.83187 -1.62705 0
M  V30 46791 H 4706.13 -3.64999 0.342287 0
M  V30 46792 H 4705.78 -4.64751 -1.92395 0
M  V30 46793 H 4705.48 -5.84145 -0.636271 0
M  V30 46794 H 4707 -5.90157 -1.56676 0
M  V30 46795 H 4708.42 -5.69073 0.694871 0
M  V30 46796 H 4706.81 -5.81666 1.47597 0
M  V30 46797 H 4707.88 -4.46527 1.89054 0
M  V30 46798 N 4709.23 -0.475607 -1.50252 0
M  V30 46799 C 4710.19 0.304936 -2.27162 0
M  V30 46800 C 4711.19 0.916472 -1.32127 0
M  V30 46801 O 4712.38 0.784949 -1.55513 0
M  V30 46802 C 4709.51 1.43485 -3.09232 0
M  V30 46803 H 4710.7 -0.369616 -2.97614 0
M  V30 46804 H 4708.26 -0.229801 -1.54601 0
M  V30 46805 H 4708.99 2.14433 -2.43288 0
M  V30 46806 H 4708.78 1.0021 -3.79078 0
M  V30 46807 H 4710.27 1.98535 -3.67388 0
M  V30 46808 N 4710.7 1.56216 -0.208392 0
M  V30 46809 C 4711.64 2.16953 0.7392 0
M  V30 46810 C 4712.65 1.13496 1.16716 0
M  V30 46811 O 4713.84 1.40533 1.10058 0
M  V30 46812 C 4710.94 2.72762 2.01132 0
M  V30 46813 C 4710.11 4.01256 1.74104 0
M  V30 46814 C 4709.17 4.41759 2.85893 0
M  V30 46815 O 4708.2 5.08921 2.54928 0
M  V30 46816 N 4709.4 4.06357 4.14554 0
M  V30 46817 H 4712.16 2.98893 0.219732 0
M  V30 46818 H 4709.72 1.61878 -0.0269014 0
M  V30 46819 H 4711.72 2.96835 2.75083 0
M  V30 46820 H 4710.29 1.952 2.44164 0
M  V30 46821 H 4709.51 3.85176 0.83864 0
M  V30 46822 H 4710.79 4.85106 1.5346 0
M  V30 46823 H 4710.19 3.52361 4.42559 0
M  V30 46824 H 4708.75 4.35352 4.8509 0
M  V30 46825 N 4712.18 -0.0651125 1.57465 0
M  V30 46826 C 4713.13 -1.09535 2.05195 0
M  V30 46827 C 4714.12 -1.39671 0.958558 0
M  V30 46828 O 4715.33 -1.38999 1.14364 0
M  V30 46829 H 4711.71 -0.3706 0.654339 0
M  V30 46830 H 4713.68 -0.6667 2.90857 0
M  V30 46831 C 4712.43 -2.39872 2.51707 0
M  V30 46832 H 4711.75 -2.17535 3.35438 0
M  V30 46833 H 4713.19 -3.10389 2.8885 0
M  V30 46834 C 4711.65 -3.06305 1.40281 0
M  V30 46835 O 4712.18 -3.94662 0.748662 0
M  V30 46836 N 4710.38 -2.67037 1.14627 0
M  V30 46837 H 4709.93 -1.95275 1.68004 0
M  V30 46838 H 4709.89 -3.11809 0.402798 0
M  V30 46839 N 4713.66 -1.53962 -0.336652 0
M  V30 46840 C 4714.62 -1.81729 -1.39668 0
M  V30 46841 C 4715.62 -0.688583 -1.45311 0
M  V30 46842 O 4716.81 -0.95688 -1.45566 0
M  V30 46843 C 4713.95 -1.96553 -2.78531 0
M  V30 46844 H 4715.14 -2.76428 -1.16309 0
M  V30 46845 H 4712.69 -1.4548 -0.571423 0
M  V30 46846 H 4713.43 -1.04021 -3.07165 0
M  V30 46847 H 4713.21 -2.78675 -2.75831 0
M  V30 46848 H 4714.7 -2.19528 -3.55242 0
M  V30 46849 N 4715.14 0.598031 -1.45813 0
M  V30 46850 C 4716.07 1.71867 -1.58063 0
M  V30 46851 C 4717.05 1.64531 -0.431673 0
M  V30 46852 O 4718.23 1.82784 -0.656014 0
M  V30 46853 C 4715.36 3.10489 -1.55608 0
M  V30 46854 C 4714.32 3.32644 -2.69317 0
M  V30 46855 C 4713.64 4.71637 -2.51918 0
M  V30 46856 C 4714.94 3.21967 -4.1126 0
M  V30 46857 H 4716.64 1.61872 -2.51869 0
M  V30 46858 H 4714.18 0.77733 -1.21217 0
M  V30 46859 H 4716.14 3.88694 -1.62773 0
M  V30 46860 H 4714.86 3.21348 -0.583368 0
M  V30 46861 H 4713.52 2.56834 -2.61595 0
M  V30 46862 H 4713.17 4.79241 -1.52765 0
M  V30 46863 H 4712.87 4.87415 -3.28177 0
M  V30 46864 H 4714.39 5.52029 -2.60952 0
M  V30 46865 H 4715.81 3.90034 -4.20174 0
M  V30 46866 H 4714.2 3.49272 -4.87985 0
M  V30 46867 H 4715.27 2.19265 -4.32494 0
M  V30 46868 N 4716.62 1.33262 0.841362 0
M  V30 46869 C 4717.87 1.24332 1.5933 0
M  V30 46870 C 4718.19 -0.191496 1.94057 0
M  V30 46871 O 4717.46 -1.11961 1.60753 0
M  V30 46872 H 4716.04 0.457194 0.590747 0
M  V30 46873 H 4718.7 1.66951 1.00566 0
M  V30 46874 H 4717.79 1.83529 2.52435 0
M  V30 46875 N 4718.1 -1.0593 1.1669 0
M  V30 46876 C 4719.32 -1.82487 0.974993 0
M  V30 46877 C 4719.74 -1.8268 -0.476797 0
M  V30 46878 O 4719.1 -1.24864 -1.33098 0
M  V30 46879 C 4719.15 -3.28938 1.49941 0
M  V30 46880 O 4718.87 -3.28876 2.89434 0
M  V30 46881 C 4720.37 -4.22211 1.35104 0
M  V30 46882 H 4717.59 -0.575283 0.345385 0
M  V30 46883 H 4720.13 -1.33626 1.54805 0
M  V30 46884 H 4718.29 -3.75097 0.968555 0
M  V30 46885 H 4718.7 -4.20481 3.13521 0
M  V30 46886 H 4720.18 -5.22981 1.76622 0
M  V30 46887 H 4720.65 -4.38194 0.297089 0
M  V30 46888 H 4721.26 -3.819 1.87169 0
M  V30 46889 N 4719.57 -0.965962 -1.24527 0
M  V30 46890 C 4720.54 -0.499626 -2.23688 0
M  V30 46891 C 4721.54 0.402885 -1.55671 0
M  V30 46892 O 4722.73 0.198589 -1.73064 0
M  V30 46893 C 4719.86 0.276673 -3.39775 0
M  V30 46894 H 4721.05 -1.37623 -2.66458 0
M  V30 46895 H 4718.6 -0.750372 -1.3711 0
M  V30 46896 H 4719.34 1.17045 -3.02442 0
M  V30 46897 H 4719.12 -0.370964 -3.90341 0
M  V30 46898 H 4720.61 0.59203 -4.13382 0
M  V30 46899 N 4721.05 1.39365 -0.73587 0
M  V30 46900 C 4721.98 2.29129 -0.0568529 0
M  V30 46901 C 4723 1.46861 0.702537 0
M  V30 46902 O 4724.19 1.69926 0.546556 0
M  V30 46903 C 4721.29 3.25496 0.943708 0
M  V30 46904 C 4720.46 4.3671 0.245657 0
M  V30 46905 C 4719.52 5.1338 1.15445 0
M  V30 46906 O 4718.54 5.65685 0.631605 0
M  V30 46907 N 4719.75 5.24665 2.48409 0
M  V30 46908 H 4722.51 2.88044 -0.827683 0
M  V30 46909 H 4720.07 1.50955 -0.585165 0
M  V30 46910 H 4722.06 3.73662 1.5543 0
M  V30 46911 H 4720.63 2.67605 1.61574 0
M  V30 46912 H 4719.85 3.90408 -0.545424 0
M  V30 46913 H 4721.14 5.08243 -0.238069 0
M  V30 46914 H 4720.54 4.83689 2.93362 0
M  V30 46915 H 4719.1 5.76268 3.04562 0
M  V30 46916 N 4722.53 0.483569 1.49998 0
M  V30 46917 C 4723.48 -0.304084 2.28788 0
M  V30 46918 C 4724.45 -0.976066 1.34396 0
M  V30 46919 O 4725.63 -0.986099 1.63342 0
M  V30 46920 C 4722.77 -1.37287 3.16617 0
M  V30 46921 C 4721.88 -0.714411 4.26052 0
M  V30 46922 C 4721.02 -1.76215 5.01121 0
M  V30 46923 C 4720.06 -1.08461 6.02414 0
M  V30 46924 N 4719.2 -2.07576 6.70713 0
M  V30 46925 H 4724.04 0.374085 2.95643 0
M  V30 46926 H 4721.57 0.196326 1.45784 0
M  V30 46927 H 4723.53 -2.00432 3.659 0
M  V30 46928 H 4722.16 -2.02003 2.51783 0
M  V30 46929 H 4721.21 0.0299136 3.80388 0
M  V30 46930 H 4722.52 -0.180208 4.98474 0
M  V30 46931 H 4721.68 -2.4691 5.54185 0
M  V30 46932 H 4720.42 -2.33018 4.28432 0
M  V30 46933 H 4719.42 -0.363352 5.48598 0
M  V30 46934 H 4720.65 -0.523313 6.77081 0
M  V30 46935 H 4718.59 -2.63373 6.00808 0
M  V30 46936 H 4718.51 -1.59175 7.39053 0
M  V30 46937 H 4719.78 -2.77613 7.2839 0
M  V30 46938 N 4724.01 -1.56103 0.216674 0
M  V30 46939 C 4724.94 -2.17342 -0.727684 0
M  V30 46940 C 4725.95 -1.14113 -1.16112 0
M  V30 46941 O 4727.14 -1.41114 -1.09312 0
M  V30 46942 C 4724.24 -2.73825 -1.99683 0
M  V30 46943 C 4723.41 -4.02174 -1.71974 0
M  V30 46944 C 4722.47 -4.43269 -2.83547 0
M  V30 46945 O 4721.5 -5.10265 -2.52226 0
M  V30 46946 N 4722.7 -4.08549 -4.12393 0
M  V30 46947 H 4725.47 -2.99006 -0.203878 0
M  V30 46948 H 4723.03 -1.61861 0.0354858 0
M  V30 46949 H 4725.02 -2.9829 -2.73505 0
M  V30 46950 H 4723.59 -1.96492 -2.43125 0
M  V30 46951 H 4722.81 -3.85615 -0.818201 0
M  V30 46952 H 4724.1 -4.85913 -1.50885 0
M  V30 46953 H 4723.5 -3.54703 -4.40684 0
M  V30 46954 H 4722.05 -4.37918 -4.82774 0
M  V30 46955 N 4725.49 0.0567608 -1.57498 0
M  V30 46956 C 4726.73 0.754154 -1.88256 0
M  V30 46957 C 4727.06 1.76459 -0.810927 0
M  V30 46958 O 4726.34 1.93691 0.177191 0
M  V30 46959 C 4726.62 1.44867 -3.29675 0
M  V30 46960 C 4726.48 0.453631 -4.47507 0
M  V30 46961 C 4727.79 2.38981 -3.69562 0
M  V30 46962 H 4724.91 0.2727 -0.684692 0
M  V30 46963 H 4727.56 0.0171445 -1.89992 0
M  V30 46964 H 4725.71 2.07689 -3.28326 0
M  V30 46965 H 4727.38 -0.170533 -4.60985 0
M  V30 46966 H 4725.62 -0.229704 -4.33191 0
M  V30 46967 H 4726.29 0.977508 -5.43276 0
M  V30 46968 H 4728.77 1.86225 -3.72101 0
M  V30 46969 H 4727.64 2.84571 -4.69373 0
M  V30 46970 H 4727.9 3.2445 -3.00307 0
M  V30 46971 N 4726.96 1.54139 0.328482 0
M  V30 46972 C 4727.87 1.86197 1.42717 0
M  V30 46973 C 4728.89 0.753437 1.56842 0
M  V30 46974 O 4730.07 1.04724 1.72031 0
M  V30 46975 C 4727.13 2.07834 2.775 0
M  V30 46976 C 4726.19 3.31651 2.72592 0
M  V30 46977 C 4725.42 3.52246 4.00947 0
M  V30 46978 O 4725.65 2.76378 4.98971 0
M  V30 46979 O 4724.58 4.45713 4.04504 0
M  V30 46980 H 4728.41 2.79612 1.18537 0
M  V30 46981 H 4725.99 1.39982 0.522055 0
M  V30 46982 H 4727.87 2.23424 3.57295 0
M  V30 46983 H 4726.55 1.17607 3.0158 0
M  V30 46984 H 4725.46 3.21451 1.91364 0
M  V30 46985 H 4726.79 4.21919 2.53466 0
M  V30 46986 N 4728.44 -0.59029 1.46128 0
M  V30 46987 C 4729.69 -1.35076 1.51269 0
M  V30 46988 C 4730.02 -1.93533 0.160779 0
M  V30 46989 O 4729.3 -1.76047 -0.826894 0
M  V30 46990 C 4729.58 -2.48579 2.60539 0
M  V30 46991 C 4729.43 -1.95206 4.05234 0
M  V30 46992 C 4730.75 -3.50653 2.65952 0
M  V30 46993 H 4727.87 -0.489784 0.550709 0
M  V30 46994 H 4730.51 -0.663825 1.78026 0
M  V30 46995 H 4728.66 -3.07177 2.37854 0
M  V30 46996 H 4730.33 -1.41124 4.39183 0
M  V30 46997 H 4728.58 -1.26086 4.15072 0
M  V30 46998 H 4729.25 -2.77105 4.77407 0
M  V30 46999 H 4731.72 -3.01924 2.86324 0
M  V30 47000 H 4730.6 -4.27539 3.44241 0
M  V30 47001 H 4730.86 -4.07393 1.71708 0
M  V30 47002 N 4729.92 -1.33707 -0.834283 0
M  V30 47003 C 4731.17 -1.24769 -1.58479 0
M  V30 47004 C 4731.48 0.183707 -1.94735 0
M  V30 47005 O 4732.69 0.39514 -2.68609 0
M  V30 47006 C 4731.14 -2.18648 -2.85869 0
M  V30 47007 C 4730.75 -3.66983 -2.56958 0
M  V30 47008 C 4732.5 -2.18594 -3.63892 0
M  V30 47009 C 4730.4 -4.52764 -3.80472 0
M  V30 47010 H 4729.33 -0.463446 -0.594755 0
M  V30 47011 H 4731.98 -1.588 -0.919495 0
M  V30 47012 H 4730.37 -1.77555 -3.53964 0
M  V30 47013 H 4731.54 -4.16545 -1.97046 0
M  V30 47014 H 4729.85 -3.69373 -1.92231 0
M  V30 47015 H 4732.45 -2.7991 -4.55581 0
M  V30 47016 H 4732.79 -1.18221 -3.99161 0
M  V30 47017 H 4733.33 -2.58073 -3.02726 0
M  V30 47018 H 4730.07 -5.54029 -3.50331 0
M  V30 47019 H 4729.59 -4.07943 -4.39708 0
M  V30 47020 H 4731.27 -4.668 -4.48004 0
M  V30 47021 N 4731.4 1.0531 -1.1725 0
M  V30 47022 C 4732.64 1.78554 -0.961576 0
M  V30 47023 C 4732.98 1.87421 0.508631 0
M  V30 47024 O 4732.25 1.37312 1.37753 0
M  V30 47025 C 4732.54 3.22509 -1.60188 0
M  V30 47026 C 4732.39 3.21662 -3.1441 0
M  V30 47027 C 4733.71 4.20314 -1.30478 0
M  V30 47028 H 4730.83 0.648187 -0.350745 0
M  V30 47029 H 4733.47 1.23097 -1.44731 0
M  V30 47030 H 4731.62 3.69863 -1.18884 0
M  V30 47031 H 4733.29 2.82393 -3.64763 0
M  V30 47032 H 4731.53 2.60036 -3.47223 0
M  V30 47033 H 4732.2 4.23258 -3.54339 0
M  V30 47034 H 4734.68 3.81448 -1.66242 0
M  V30 47035 H 4733.56 5.19283 -1.77866 0
M  V30 47036 H 4733.82 4.41525 -0.225365 0
M  V30 47037 N 4732.88 0.972553 1.24013 0
M  V30 47038 C 4734.15 0.553799 1.87596 0
M  V30 47039 C 4734.53 -0.969092 1.87542 0
M  V30 47040 O 4733.88 -1.8425 1.35145 0
M  V30 47041 C 4734.09 1.15088 3.29478 0
M  V30 47042 C 4735.44 1.23876 4.06128 0
M  V30 47043 O 4736.46 1.10375 3.38668 0
M  V30 47044 O 4735.32 1.45271 5.26838 0
M  V30 47045 H 4732.42 0.185359 0.80596 0
M  V30 47046 H 4734.96 1.06713 1.31948 0
M  V30 47047 H 4733.73 2.19345 3.24043 0
M  V30 47048 H 4733.36 0.621884 3.92706 0
M  V30 47049 N 4734.35 -1.38973 0.74325 0
M  V30 47050 C 4735.58 -2.04635 0.305322 0
M  V30 47051 C 4736 -1.56048 -1.06275 0
M  V30 47052 O 4735.35 -0.72898 -1.67308 0
M  V30 47053 C 4735.41 -3.60191 0.307304 0
M  V30 47054 O 4735.13 -4.06992 1.62138 0
M  V30 47055 C 4736.63 -4.4306 -0.145772 0
M  V30 47056 H 4733.85 -0.657875 0.132064 0
M  V30 47057 H 4736.39 -1.77863 1.00921 0
M  V30 47058 H 4734.55 -3.85836 -0.347762 0
M  V30 47059 H 4734.96 -5.01366 1.54053 0
M  V30 47060 H 4736.43 -5.51921 -0.0932243 0
M  V30 47061 H 4736.91 -4.2271 -1.19217 0
M  V30 47062 H 4737.52 -4.22582 0.480035 0
M  V30 47063 N 4735.83 -0.491517 -1.49739 0
M  V30 47064 C 4737.08 0.0562431 -2.02022 0
M  V30 47065 C 4737.4 1.38359 -1.37411 0
M  V30 47066 O 4736.67 1.887 -0.526233 0
M  V30 47067 H 4735.25 0.0237752 -0.746622 0
M  V30 47068 H 4737.91 -0.646597 -1.83862 0
M  V30 47069 H 4737.01 0.192858 -3.11504 0
M  V30 47070 N 4737.31 1.55986 -0.224949 0
M  V30 47071 C 4738.27 2.1918 0.670271 0
M  V30 47072 C 4739.27 1.15465 1.11913 0
M  V30 47073 O 4740.46 1.40679 1.02738 0
M  V30 47074 C 4737.6 2.81784 1.91861 0
M  V30 47075 H 4738.79 2.99663 0.119259 0
M  V30 47076 H 4736.34 1.56281 0.0246578 0
M  V30 47077 H 4737.08 2.05181 2.5114 0
M  V30 47078 H 4736.86 3.57738 1.60519 0
M  V30 47079 H 4738.35 3.30214 2.55634 0
M  V30 47080 N 4738.79 -0.0484076 1.57526 0
M  V30 47081 C 4739.72 -1.08748 2.00622 0
M  V30 47082 C 4740.7 -1.36269 0.887106 0
M  V30 47083 O 4741.88 -1.49251 1.15137 0
M  V30 47084 C 4739.01 -2.42666 2.36285 0
M  V30 47085 C 4738.06 -2.31129 3.58443 0
M  V30 47086 S 4738.89 -1.68308 5.08363 0
M  V30 47087 C 4740.05 -3.03757 5.4725 0
M  V30 47088 H 4740.28 -0.720313 2.88442 0
M  V30 47089 H 4737.81 -0.257748 1.52233 0
M  V30 47090 H 4739.77 -3.1969 2.57505 0
M  V30 47091 H 4738.43 -2.76536 1.48952 0
M  V30 47092 H 4737.62 -3.29944 3.8099 0
M  V30 47093 H 4737.23 -1.62246 3.36975 0
M  V30 47094 H 4739.52 -4.00087 5.46751 0
M  V30 47095 H 4740.46 -2.85965 6.47788 0
M  V30 47096 H 4740.87 -3.05439 4.74728 0
M  V30 47097 N 4740.27 -1.54311 -0.320303 0
M  V30 47098 C 4741.23 -1.832 -1.37733 0
M  V30 47099 C 4742.23 -0.703957 -1.44572 0
M  V30 47100 O 4743.42 -0.972265 -1.44543 0
M  V30 47101 C 4740.55 -1.99496 -2.76431 0
M  V30 47102 H 4741.74 -2.77646 -1.1337 0
M  V30 47103 H 4739.3 -1.46078 -0.555961 0
M  V30 47104 H 4740.03 -1.07273 -3.06044 0
M  V30 47105 H 4739.82 -2.81584 -2.7286 0
M  V30 47106 H 4741.31 -2.23284 -3.52894 0
M  V30 47107 N 4741.74 0.582532 -1.46439 0
M  V30 47108 C 4743.16 1.16465 -1.4592 0
M  V30 47109 C 4743.51 1.95176 -0.200145 0
M  V30 47110 O 4742.63 2.04877 0.696747 0
M  V30 47111 C 4743.23 2.11876 -2.64375 0
M  V30 47112 C 4741.79 2.65411 -2.66897 0
M  V30 47113 C 4740.93 1.41285 -2.38608 0
M  V30 47114 H 4743.88 0.37046 -1.54316 0
M  V30 47115 H 4743.9 2.95342 -2.39903 0
M  V30 47116 H 4743.42 1.54561 -3.55995 0
M  V30 47117 H 4741.52 3.26596 -1.79349 0
M  V30 47118 H 4741.63 3.08134 -3.66865 0
M  V30 47119 H 4739.99 1.71102 -1.88669 0
M  V30 47120 H 4740.78 0.858009 -3.32405 0
M  V30 47121 N 4743.22 1.34147 0.82718 0
M  V30 47122 C 4744.47 1.26015 1.58002 0
M  V30 47123 C 4744.79 -0.170903 1.9425 0
M  V30 47124 O 4744.06 -1.1025 1.61931 0
M  V30 47125 H 4742.64 0.463434 0.585865 0
M  V30 47126 H 4745.3 1.68008 0.987892 0
M  V30 47127 H 4744.4 1.86196 2.50475 0
M  V30 47128 N 4744.7 -1.04686 1.17807 0
M  V30 47129 C 4745.66 -2.10721 0.901619 0
M  V30 47130 C 4746.66 -1.60421 -0.110381 0
M  V30 47131 O 4747.85 -1.7377 0.122364 0
M  V30 47132 C 4744.99 -3.39083 0.351528 0
M  V30 47133 H 4746.18 -2.36679 1.84182 0
M  V30 47134 H 4743.73 -1.21012 0.989233 0
M  V30 47135 H 4744.47 -3.18784 -0.595578 0
M  V30 47136 H 4744.25 -3.76905 1.08096 0
M  V30 47137 H 4745.74 -4.17226 0.176598 0
M  V30 47138 N 4746.18 -0.979116 -1.23495 0
M  V30 47139 C 4747.59 -0.684452 -1.73701 0
M  V30 47140 C 4747.94 0.799385 -1.79177 0
M  V30 47141 O 4747.07 1.62526 -1.42878 0
M  V30 47142 C 4747.66 -1.23575 -3.15459 0
M  V30 47143 C 4746.22 -0.990757 -3.63127 0
M  V30 47144 C 4745.37 -1.36425 -2.4142 0
M  V30 47145 H 4748.32 -1.15311 -1.09037 0
M  V30 47146 H 4748.34 -0.607549 -3.75618 0
M  V30 47147 H 4747.85 -2.31572 -3.11442 0
M  V30 47148 H 4745.95 0.0731826 -3.72528 0
M  V30 47149 H 4746.07 -1.64443 -4.49995 0
M  V30 47150 H 4744.43 -0.782701 -2.42375 0
M  V30 47151 H 4745.21 -2.45396 -2.40075 0
M  V30 47152 N 4747.66 1.38577 -0.75061 0
M  V30 47153 C 4748.59 2.29056 -0.0811519 0
M  V30 47154 C 4749.6 1.47598 0.686921 0
M  V30 47155 O 4750.79 1.70497 0.528503 0
M  V30 47156 C 4747.89 3.26478 0.909132 0
M  V30 47157 C 4747.06 4.36946 0.199324 0
M  V30 47158 C 4746.12 5.14576 1.09993 0
M  V30 47159 O 4745.15 5.66323 0.571571 0
M  V30 47160 N 4746.35 5.2727 2.4283 0
M  V30 47161 H 4749.12 2.8715 -0.858188 0
M  V30 47162 H 4746.68 1.50326 -0.601143 0
M  V30 47163 H 4748.67 3.7529 1.51458 0
M  V30 47164 H 4747.24 2.69304 1.58727 0
M  V30 47165 H 4746.46 3.89808 -0.586801 0
M  V30 47166 H 4747.75 5.07962 -0.291962 0
M  V30 47167 H 4747.15 4.86773 2.88216 0
M  V30 47168 H 4745.7 5.79466 2.98433 0
M  V30 47169 N 4749.14 0.499451 1.49477 0
M  V30 47170 C 4750.38 -0.0456863 2.02749 0
M  V30 47171 C 4750.71 -1.36788 1.3785 0
M  V30 47172 O 4749.99 -1.87595 0.513667 0
M  V30 47173 C 4750.27 -0.19986 3.59545 0
M  V30 47174 C 4750.13 1.14535 4.34973 0
M  V30 47175 C 4751.44 -0.941219 4.29918 0
M  V30 47176 H 4748.56 -0.0151293 0.736845 0
M  V30 47177 H 4751.21 0.65056 1.78515 0
M  V30 47178 H 4749.36 -0.792873 3.80323 0
M  V30 47179 H 4751.03 1.77712 4.25695 0
M  V30 47180 H 4749.27 1.73502 3.97592 0
M  V30 47181 H 4749.94 0.990797 5.43035 0
M  V30 47182 H 4752.42 -0.438294 4.13785 0
M  V30 47183 H 4751.29 -1.01793 5.39379 0
M  V30 47184 H 4751.55 -1.98457 3.95053 0
M  V30 47185 N 4750.61 -1.55865 0.233218 0
M  V30 47186 C 4751.55 -2.18101 -0.704591 0
M  V30 47187 C 4752.56 -1.15338 -1.14895 0
M  V30 47188 O 4753.75 -1.42266 -1.07809 0
M  V30 47189 C 4750.85 -2.75927 -1.96768 0
M  V30 47190 C 4750.02 -4.03975 -1.67699 0
M  V30 47191 C 4749.08 -4.46252 -2.78829 0
M  V30 47192 O 4748.11 -5.12912 -2.468 0
M  V30 47193 N 4749.31 -4.129 -4.08036 0
M  V30 47194 H 4752.07 -2.99205 -0.172153 0
M  V30 47195 H 4749.63 -1.61814 0.0526514 0
M  V30 47196 H 4751.63 -3.01174 -2.70326 0
M  V30 47197 H 4750.2 -1.99059 -2.41027 0
M  V30 47198 H 4749.42 -3.86461 -0.777255 0
M  V30 47199 H 4750.7 -4.87486 -1.45723 0
M  V30 47200 H 4750.1 -3.59357 -4.36897 0
M  V30 47201 H 4748.66 -4.43014 -4.78102 0
M  V30 47202 N 4752.09 0.0400529 -1.57549 0
M  V30 47203 C 4753.05 1.02864 -2.04821 0
M  V30 47204 C 4754.05 1.29705 -0.950434 0
M  V30 47205 O 4755.24 1.24893 -1.21439 0
M  V30 47206 C 4752.38 2.36434 -2.45584 0
M  V30 47207 H 4753.57 0.620527 -2.9341 0
M  V30 47208 H 4751.12 0.286613 -1.5365 0
M  V30 47209 H 4751.86 2.82015 -1.60118 0
M  V30 47210 H 4751.64 2.18285 -3.25721 0
M  V30 47211 H 4753.13 3.07431 -2.82623 0
M  V30 47212 N 4753.57 1.54478 0.312115 0
M  V30 47213 C 4754.48 1.877 1.40734 0
M  V30 47214 C 4755.5 0.77003 1.56034 0
M  V30 47215 O 4756.67 1.06543 1.70911 0
M  V30 47216 C 4753.74 2.10765 2.7528 0
M  V30 47217 C 4752.8 3.34523 2.69059 0
M  V30 47218 C 4752.03 3.56479 3.97188 0
M  V30 47219 O 4752.25 2.81654 4.96011 0
M  V30 47220 O 4751.19 4.49978 3.99754 0
M  V30 47221 H 4755.01 2.80853 1.15565 0
M  V30 47222 H 4752.6 1.40528 0.507178 0
M  V30 47223 H 4754.48 2.27201 3.54905 0
M  V30 47224 H 4753.16 1.20799 3.00315 0
M  V30 47225 H 4752.06 3.23462 1.87944 0
M  V30 47226 H 4753.4 4.24584 2.48977 0
M  V30 47227 N 4755.05 -0.574758 1.46746 0
M  V30 47228 C 4755.96 -1.71095 1.60511 0
M  V30 47229 C 4756.97 -1.67006 0.488366 0
M  V30 47230 O 4758.15 -1.86771 0.75356 0
M  V30 47231 C 4755.21 -3.07602 1.59943 0
M  V30 47232 C 4754.28 -3.22894 2.8291 0
M  V30 47233 C 4753.51 -4.5289 2.82359 0
M  V30 47234 O 4753.73 -5.37272 1.9156 0
M  V30 47235 O 4752.67 -4.71598 3.74004 0
M  V30 47236 H 4756.49 -1.62427 2.56615 0
M  V30 47237 H 4754.08 -0.742734 1.2963 0
M  V30 47238 H 4755.96 -3.88871 1.6235 0
M  V30 47239 H 4754.63 -3.1669 0.67001 0
M  V30 47240 H 4753.54 -2.41089 2.86054 0
M  V30 47241 H 4754.87 -3.18701 3.75087 0
M  V30 47242 N 4756.53 -1.34584 -0.820054 0
M  V30 47243 C 4757.49 -1.26287 -1.9127 0
M  V30 47244 C 4758.49 -0.1774 -1.59818 0
M  V30 47245 O 4759.68 -0.430215 -1.68804 0
M  V30 47246 C 4756.81 -0.950442 -3.27383 0
M  V30 47247 H 4758 -2.23428 -2.0005 0
M  V30 47248 H 4755.56 -1.18913 -1.01436 0
M  V30 47249 H 4756.29 0.0176798 -3.24295 0
M  V30 47250 H 4756.08 -1.73562 -3.51595 0
M  V30 47251 H 4757.57 -0.917636 -4.07393 0
M  V30 47252 N 4758 1.0406 -1.18361 0
M  V30 47253 C 4758.91 2.15565 -0.925672 0
M  V30 47254 C 4759.93 1.7365 0.110234 0
M  V30 47255 O 4761.11 2.01272 -0.0716926 0
M  V30 47256 C 4758.17 3.43702 -0.454957 0
M  V30 47257 C 4757.23 3.99999 -1.55884 0
M  V30 47258 C 4756.46 5.22019 -1.11049 0
M  V30 47259 O 4756.69 5.70392 0.0307751 0
M  V30 47260 O 4755.62 5.7085 -1.90825 0
M  V30 47261 H 4759.45 2.4018 -1.85869 0
M  V30 47262 H 4757.03 1.14016 -0.965434 0
M  V30 47263 H 4758.91 4.20923 -0.20053 0
M  V30 47264 H 4757.59 3.2056 0.449763 0
M  V30 47265 H 4756.5 3.24166 -1.86728 0
M  V30 47266 H 4757.83 4.27481 -2.43968 0
M  V30 47267 N 4759.48 0.985651 1.22974 0
M  V30 47268 C 4760.41 0.549729 2.26937 0
M  V30 47269 C 4761.39 -0.419745 1.6484 0
M  V30 47270 O 4762.58 -0.311963 1.91678 0
M  V30 47271 C 4759.71 -0.14353 3.47003 0
M  V30 47272 C 4758.66 0.743754 4.21488 0
M  V30 47273 C 4757.99 -0.0820147 5.34637 0
M  V30 47274 C 4759.29 2.03711 4.80936 0
M  V30 47275 H 4760.98 1.41872 2.63653 0
M  V30 47276 H 4758.53 0.683616 1.26739 0
M  V30 47277 H 4760.48 -0.459837 4.18884 0
M  V30 47278 H 4759.2 -1.04701 3.09363 0
M  V30 47279 H 4757.86 1.0436 3.51432 0
M  V30 47280 H 4757.51 -0.986185 4.93238 0
M  V30 47281 H 4757.21 0.508583 5.85395 0
M  V30 47282 H 4758.74 -0.392583 6.09337 0
M  V30 47283 H 4760.15 1.78523 5.44796 0
M  V30 47284 H 4758.55 2.57592 5.42002 0
M  V30 47285 H 4759.62 2.72056 4.01389 0
M  V30 47286 N 4760.96 -1.38177 0.757949 0
M  V30 47287 C 4762.19 -2.04299 0.327009 0
M  V30 47288 C 4762.6 -1.57166 -1.04614 0
M  V30 47289 O 4761.96 -0.746684 -1.66526 0
M  V30 47290 C 4762.01 -3.59845 0.34549 0
M  V30 47291 O 4761.73 -4.0525 1.66446 0
M  V30 47292 C 4763.23 -4.4319 -0.0987712 0
M  V30 47293 H 4760.45 -0.656438 0.139035 0
M  V30 47294 H 4763 -1.76782 1.02802 0
M  V30 47295 H 4761.15 -3.86183 -0.30682 0
M  V30 47296 H 4761.57 -4.99704 1.59362 0
M  V30 47297 H 4763.04 -5.51989 -0.0346804 0
M  V30 47298 H 4763.52 -4.23951 -1.14726 0
M  V30 47299 H 4764.12 -4.22049 0.524828 0
M  V30 47300 N 4762.44 -0.507371 -1.4921 0
M  V30 47301 C 4763.68 0.0349334 -2.0277 0
M  V30 47302 C 4764.02 1.36055 -1.38574 0
M  V30 47303 O 4763.29 1.87319 -0.523608 0
M  V30 47304 C 4763.58 0.180789 -3.59646 0
M  V30 47305 C 4763.43 -1.1684 -4.3436 0
M  V30 47306 C 4764.75 0.918406 -4.30411 0
M  V30 47307 H 4761.87 0.0112214 -0.736915 0
M  V30 47308 H 4764.51 -0.660018 -1.78168 0
M  V30 47309 H 4762.66 0.772692 -3.80738 0
M  V30 47310 H 4764.33 -1.79967 -4.24746 0
M  V30 47311 H 4762.57 -1.75608 -3.96667 0
M  V30 47312 H 4763.24 -1.01958 -5.42502 0
M  V30 47313 H 4765.72 0.416344 -4.14012 0
M  V30 47314 H 4764.6 0.989316 -5.39911 0
M  V30 47315 H 4764.86 1.96359 -3.961 0
M  V30 47316 N 4763.92 1.55739 -0.241481 0
M  V30 47317 C 4764.83 2.24793 0.671226 0
M  V30 47318 C 4765.84 1.26221 1.19768 0
M  V30 47319 O 4767.02 1.59083 1.23509 0
M  V30 47320 C 4764.08 2.92973 1.85386 0
M  V30 47321 C 4763.14 4.0694 1.36742 0
M  V30 47322 C 4762.38 4.7186 2.49368 0
M  V30 47323 O 4762.6 4.35836 3.67972 0
M  V30 47324 O 4761.53 5.60475 2.19434 0
M  V30 47325 H 4765.36 3.0349 0.11286 0
M  V30 47326 H 4762.95 1.49397 -0.0102038 0
M  V30 47327 H 4764.83 3.35936 2.54411 0
M  V30 47328 H 4763.5 2.17219 2.39995 0
M  V30 47329 H 4762.41 3.68505 0.644596 0
M  V30 47330 H 4763.74 4.84495 0.867476 0
M  V30 47331 N 4765.39 -0.0316971 1.57568 0
M  V30 47332 C 4766.36 -1.01776 2.05364 0
M  V30 47333 C 4767.36 -1.29199 0.957299 0
M  V30 47334 O 4768.55 -1.24247 1.221 0
M  V30 47335 C 4765.68 -2.35128 2.46835 0
M  V30 47336 H 4766.87 -0.604958 2.93735 0
M  V30 47337 H 4764.43 -0.27846 1.538 0
M  V30 47338 H 4765.16 -2.81162 1.61612 0
M  V30 47339 H 4764.95 -2.16555 3.26874 0
M  V30 47340 H 4766.44 -3.05928 2.8425 0
M  V30 47341 N 4766.87 -1.54642 -0.303919 0
M  V30 47342 C 4768.12 -1.73441 -1.03743 0
M  V30 47343 C 4768.44 -0.521515 -1.87897 0
M  V30 47344 O 4767.71 0.464253 -1.90319 0
M  V30 47345 H 4766.29 -0.639531 -0.386017 0
M  V30 47346 H 4768.95 -1.91989 -0.335608 0
M  V30 47347 H 4768.05 -2.62241 -1.69222 0
M  V30 47348 N 4768.35 0.566968 -1.47048 0
M  V30 47349 C 4769.3 1.67012 -1.55213 0
M  V30 47350 C 4770.28 1.55542 -0.411769 0
M  V30 47351 O 4771.48 1.64189 -0.661121 0
M  V30 47352 C 4768.61 3.05796 -1.56025 0
M  V30 47353 C 4767.69 3.22506 -2.75411 0
M  V30 47354 N 4768.08 3.09315 -4.00197 0
M  V30 47355 C 4766.38 3.53483 -2.71966 0
M  V30 47356 C 4767.08 3.28453 -4.80097 0
M  V30 47357 N 4766.06 3.54337 -4.12245 0
M  V30 47358 H 4769.86 1.55368 -2.49475 0
M  V30 47359 H 4767.37 0.771453 -1.42907 0
M  V30 47360 H 4769.37 3.8499 -1.59963 0
M  V30 47361 H 4768.03 3.18559 -0.628508 0
M  V30 47362 H 4769.04 2.86848 -4.31206 0
M  V30 47363 H 4765.72 3.72834 -1.87886 0
M  V30 47364 H 4767.11 3.23305 -5.89002 0
M  V30 47365 N 4769.83 1.35017 0.812906 0
M  V30 47366 C 4771.06 1.31036 1.60116 0
M  V30 47367 C 4771.47 -0.113492 1.88459 0
M  V30 47368 O 4770.83 -1.06358 1.48305 0
M  V30 47369 C 4770.88 2.10882 2.93617 0
M  V30 47370 O 4770.6 3.47716 2.66506 0
M  V30 47371 C 4772.1 2.14414 3.87997 0
M  V30 47372 H 4769.32 0.450388 0.497385 0
M  V30 47373 H 4771.87 1.77779 1.01069 0
M  V30 47374 H 4770.02 1.67756 3.49194 0
M  V30 47375 H 4770.43 3.8911 3.51701 0
M  V30 47376 H 4771.91 2.74686 4.78802 0
M  V30 47377 H 4772.39 1.1412 4.24115 0
M  V30 47378 H 4772.99 2.57674 3.38355 0
M  V30 47379 N 4771.31 -1.03431 1.18911 0
M  V30 47380 C 4772.27 -2.09753 0.923918 0
M  V30 47381 C 4773.27 -1.60529 -0.0933596 0
M  V30 47382 O 4774.46 -1.7363 0.140788 0
M  V30 47383 C 4771.59 -3.38691 0.387473 0
M  V30 47384 H 4772.78 -2.34712 1.86682 0
M  V30 47385 H 4770.34 -1.19956 1.00201 0
M  V30 47386 H 4771.07 -3.19398 -0.561733 0
M  V30 47387 H 4770.86 -3.75738 1.12087 0
M  V30 47388 H 4772.35 -4.17016 0.22084 0
M  V30 47389 N 4772.78 -0.992159 -1.2245 0
M  V30 47390 C 4774.01 -0.686012 -1.95196 0
M  V30 47391 C 4774.43 0.749172 -1.733 0
M  V30 47392 O 4773.78 1.50545 -1.03162 0
M  V30 47393 C 4773.84 -0.981518 -3.4792 0
M  V30 47394 O 4773.56 -2.36031 -3.69081 0
M  V30 47395 C 4775.06 -0.692969 -4.3785 0
M  V30 47396 H 4772.28 -0.253842 -0.621132 0
M  V30 47397 H 4774.82 -1.32673 -1.55622 0
M  V30 47398 H 4772.98 -0.386617 -3.85466 0
M  V30 47399 H 4773.39 -2.45901 -4.63285 0
M  V30 47400 H 4774.86 -0.950009 -5.43764 0
M  V30 47401 H 4775.34 0.373027 -4.37613 0
M  V30 47402 H 4775.95 -1.26889 -4.0593 0
M  V30 47403 N 4774.26 1.37773 -0.765266 0
M  V30 47404 C 4775.19 2.32944 -0.161035 0
M  V30 47405 C 4776.17 1.55456 0.690461 0
M  V30 47406 O 4777.36 1.83723 0.629254 0
M  V30 47407 C 4774.49 3.39672 0.723911 0
M  V30 47408 C 4773.44 4.27992 -0.0257678 0
M  V30 47409 C 4772.77 5.25676 0.978198 0
M  V30 47410 C 4774.07 5.08304 -1.201 0
M  V30 47411 H 4775.76 2.83725 -0.956069 0
M  V30 47412 H 4773.31 1.36415 -0.461197 0
M  V30 47413 H 4775.26 4.05223 1.15638 0
M  V30 47414 H 4773.99 2.87401 1.55139 0
M  V30 47415 H 4772.64 3.63963 -0.43894 0
M  V30 47416 H 4772.29 4.69688 1.80006 0
M  V30 47417 H 4771.99 5.85627 0.481172 0
M  V30 47418 H 4773.52 5.94103 1.40974 0
M  V30 47419 H 4774.93 5.67031 -0.845506 0
M  V30 47420 H 4773.33 5.77548 -1.62967 0
M  V30 47421 H 4774.4 4.41358 -2.00827 0
M  V30 47422 N 4775.74 0.515277 1.48938 0
M  V30 47423 C 4777.16 0.172155 1.58669 0
M  V30 47424 C 4777.36 -1.32399 1.51897 0
M  V30 47425 O 4776.41 -2.10111 1.40035 0
M  V30 47426 C 4777.73 0.761635 2.90895 0
M  V30 47427 C 4779.27 0.729033 3.04391 0
M  V30 47428 C 4779.75 1.29683 4.39257 0
M  V30 47429 N 4781.24 1.25815 4.45786 0
M  V30 47430 C 4781.98 1.66752 5.48618 0
M  V30 47431 N 4781.47 2.1535 6.5848 0
M  V30 47432 N 4783.26 1.5808 5.39414 0
M  V30 47433 H 4775.42 1.48783 1.51583 0
M  V30 47434 H 4777.68 0.617994 0.71888 0
M  V30 47435 H 4777.38 1.81146 3.01461 0
M  V30 47436 H 4777.26 0.230239 3.76497 0
M  V30 47437 H 4779.65 -0.311995 2.93446 0
M  V30 47438 H 4779.73 1.29774 2.20437 0
M  V30 47439 H 4779.37 2.33671 4.50955 0
M  V30 47440 H 4779.3 0.703935 5.21874 0
M  V30 47441 H 4781.79 0.902231 3.66972 0
M  V30 47442 H 4782.1 2.4462 7.33063 0
M  V30 47443 H 4780.45 2.19334 6.59483 0
M  V30 47444 H 4783.64 1.19922 4.52478 0
M  V30 47445 H 4783.81 1.90306 6.19425 0
M  V30 47446 N 4777.22 -1.55609 0.249737 0
M  V30 47447 C 4778.46 -2.00917 -0.375719 0
M  V30 47448 C 4778.82 -1.13415 -1.54923 0
M  V30 47449 O 4780.02 -1.48191 -2.24261 0
M  V30 47450 C 4778.3 -3.48951 -0.772511 0
M  V30 47451 S 4779.85 -4.16266 -1.38809 0
M  V30 47452 H 4776.67 -0.701124 -0.118092 0
M  V30 47453 H 4779.27 -1.9205 0.365635 0
M  V30 47454 H 4777.98 -4.10299 0.0908272 0
M  V30 47455 H 4777.51 -3.6175 -1.54597 0
M  V30 47456 H 4779.52 -4.17787 -2.6771 0
M  V30 47457 N 4778.7 0.0233405 -1.57583 0
M  V30 47458 C 4779.92 0.728307 -1.94192 0
M  V30 47459 C 4780.35 1.6779 -0.850178 0
M  V30 47460 O 4779.71 1.80263 0.193647 0
M  V30 47461 C 4779.75 1.45658 -3.29873 0
M  V30 47462 O 4778.86 2.57002 -3.22527 0
M  V30 47463 H 4778.2 0.195471 -0.634576 0
M  V30 47464 H 4780.73 -0.0228933 -2.04587 0
M  V30 47465 H 4780.74 1.82523 -3.64897 0
M  V30 47466 H 4779.41 0.76017 -4.08894 0
M  V30 47467 H 4777.99 2.22637 -2.99144 0
M  V30 47468 N 4780.18 1.54801 0.295713 0
M  V30 47469 C 4781.14 1.85368 1.34801 0
M  V30 47470 C 4782.14 0.726868 1.43434 0
M  V30 47471 O 4783.33 0.995138 1.42978 0
M  V30 47472 C 4780.46 2.03869 2.73222 0
M  V30 47473 H 4781.65 2.79414 1.08939 0
M  V30 47474 H 4779.21 1.46944 0.53265 0
M  V30 47475 H 4779.94 1.12128 3.04299 0
M  V30 47476 H 4779.73 2.8589 2.68346 0
M  V30 47477 H 4781.22 2.2887 3.49297 0
M  V30 47478 N 4781.65 -0.559161 1.47347 0
M  V30 47479 C 4782.88 -1.34188 1.57484 0
M  V30 47480 C 4783.3 -1.87463 0.224327 0
M  V30 47481 O 4782.65 -1.64891 -0.782127 0
M  V30 47482 C 4782.7 -2.51315 2.59852 0
M  V30 47483 O 4782.43 -2.00242 3.8966 0
M  V30 47484 C 4783.93 -3.43553 2.80154 0
M  V30 47485 H 4781.15 -0.409117 0.53185 0
M  V30 47486 H 4783.69 -0.677541 1.9295 0
M  V30 47487 H 4781.85 -3.13691 2.27325 0
M  V30 47488 H 4782.26 -2.76693 4.4558 0
M  V30 47489 H 4783.73 -4.22158 3.5565 0
M  V30 47490 H 4784.21 -3.96973 1.87906 0
M  V30 47491 H 4784.82 -2.86994 3.1387 0
M  V30 47492 N 4783.13 -1.35446 -0.805734 0
M  V30 47493 C 4784.38 -1.28512 -1.55977 0
M  V30 47494 C 4784.7 0.139978 -1.94497 0
M  V30 47495 O 4783.97 1.0766 -1.63665 0
M  V30 47496 H 4782.55 -0.472696 -0.578418 0
M  V30 47497 H 4785.21 -1.69558 -0.961038 0
M  V30 47498 H 4784.31 -1.90157 -2.47481 0
M  V30 47499 N 4784.61 1.02799 -1.19458 0
M  V30 47500 C 4785.83 1.80375 -1.0237 0
M  V30 47501 C 4786.26 1.83283 0.422942 0
M  V30 47502 O 4785.62 1.2595 1.30408 0
M  V30 47503 C 4785.67 3.23243 -1.59833 0
M  V30 47504 O 4784.77 4.03997 -0.828247 0
M  V30 47505 H 4784.11 0.556786 -0.361781 0
M  V30 47506 H 4786.64 1.29379 -1.585 0
M  V30 47507 H 4786.65 3.73988 -1.63086 0
M  V30 47508 H 4785.33 3.2044 -2.65124 0
M  V30 47509 H 4783.9 3.62632 -0.869037 0
M  V30 47510 N 4786.09 0.998639 1.21922 0
M  V30 47511 C 4787.5 0.712 1.7259 0
M  V30 47512 C 4787.85 -0.770779 1.80426 0
M  V30 47513 O 4786.97 -1.60232 1.45446 0
M  V30 47514 C 4787.57 1.28578 3.13453 0
M  V30 47515 C 4786.13 1.0484 3.61504 0
M  V30 47516 C 4785.28 1.40248 2.39219 0
M  V30 47517 H 4788.23 1.17031 1.07189 0
M  V30 47518 H 4788.25 0.66723 3.74604 0
M  V30 47519 H 4787.76 2.36497 3.07719 0
M  V30 47520 H 4785.86 -0.0139073 3.72597 0
M  V30 47521 H 4785.97 1.71582 4.47322 0
M  V30 47522 H 4784.34 0.821162 2.411 0
M  V30 47523 H 4785.12 2.49184 2.3614 0
M  V30 47524 N 4787.57 -1.37365 0.772562 0
M  V30 47525 C 4788.53 -2.28601 0.165622 0
M  V30 47526 C 4789.53 -1.48064 -0.627186 0
M  V30 47527 O 4790.72 -1.6827 -0.450655 0
M  V30 47528 C 4787.85 -3.32025 -0.772781 0
M  V30 47529 H 4789.04 -2.83784 0.969886 0
M  V30 47530 H 4786.6 -1.46645 0.540826 0
M  V30 47531 H 4787.33 -2.81968 -1.60202 0
M  V30 47532 H 4787.12 -3.91556 -0.206448 0
M  V30 47533 H 4788.61 -4.00201 -1.19284 0
M  V30 47534 N 4789.04 -0.523168 -1.48663 0
M  V30 47535 C 4790.45 -0.0809653 -1.86524 0
M  V30 47536 C 4790.81 1.3397 -1.43341 0
M  V30 47537 O 4789.93 2.00218 -0.821079 0
M  V30 47538 C 4790.53 -0.140156 -3.3851 0
M  V30 47539 C 4789.08 0.246816 -3.7559 0
M  V30 47540 C 4788.23 -0.502941 -2.72701 0
M  V30 47541 H 4791.18 -0.734786 -1.40665 0
M  V30 47542 H 4791.2 0.649813 -3.7491 0
M  V30 47543 H 4790.72 -1.17425 -3.6991 0
M  V30 47544 H 4788.82 1.28331 -3.49803 0
M  V30 47545 H 4788.93 -0.0880543 -4.79019 0
M  V30 47546 H 4787.29 0.0499686 -2.54651 0
M  V30 47547 H 4788.08 -1.53753 -3.06944 0
M  V30 47548 N 4790.52 1.55474 -0.257986 0
M  V30 47549 C 4791.75 2.0361 0.367488 0
M  V30 47550 C 4792.17 1.13692 1.5073 0
M  V30 47551 O 4791.52 0.153543 1.81853 0
M  V30 47552 C 4791.57 3.51004 0.864784 0
M  V30 47553 O 4791.29 4.37498 -0.229619 0
M  V30 47554 C 4792.8 4.14951 1.55982 0
M  V30 47555 H 4790.02 0.665462 0.0860287 0
M  V30 47556 H 4792.56 2.00842 -0.385085 0
M  V30 47557 H 4790.71 3.54271 1.5675 0
M  V30 47558 H 4791.13 5.24286 0.149795 0
M  V30 47559 H 4792.6 5.19741 1.85938 0
M  V30 47560 H 4793.08 3.62099 2.48557 0
M  V30 47561 H 4793.69 4.15638 0.901397 0
M  V30 47562 N 4792 -0.0149831 1.57593 0
M  V30 47563 C 4793.25 -0.702049 1.89088 0
M  V30 47564 C 4793.56 -1.75761 0.858339 0
M  V30 47565 O 4794.77 -2.49825 1.06299 0
M  V30 47566 C 4793.22 -1.2998 3.35609 0
M  V30 47567 C 4792.83 -0.27985 4.47125 0
M  V30 47568 C 4794.58 -1.96593 3.76233 0
M  V30 47569 C 4792.48 -0.886743 5.84714 0
M  V30 47570 H 4791.41 -0.265973 0.705531 0
M  V30 47571 H 4794.06 0.0431053 1.83449 0
M  V30 47572 H 4792.45 -2.09513 3.36036 0
M  V30 47573 H 4793.62 0.489792 4.5819 0
M  V30 47574 H 4791.94 0.284981 4.15424 0
M  V30 47575 H 4794.53 -2.42877 4.76356 0
M  V30 47576 H 4794.88 -2.79013 3.08962 0
M  V30 47577 H 4795.41 -1.23815 3.78041 0
M  V30 47578 H 4792.15 -0.101646 6.55421 0
M  V30 47579 H 4791.67 -1.62589 5.77343 0
M  V30 47580 H 4793.35 -1.38988 6.31895 0
M  V30 47581 N 4793.48 -1.54955 -0.2875 0
M  V30 47582 C 4794.43 -1.83224 -1.35694 0
M  V30 47583 C 4795.41 -0.690203 -1.45344 0
M  V30 47584 O 4796.6 -0.95119 -1.49269 0
M  V30 47585 C 4793.73 -2.0949 -2.71972 0
M  V30 47586 C 4792.82 -3.29915 -2.6649 0
M  V30 47587 N 4793.21 -4.50162 -2.30625 0
M  V30 47588 C 4791.51 -3.32214 -2.97574 0
M  V30 47589 C 4792.21 -5.32217 -2.34776 0
M  V30 47590 N 4791.19 -4.70267 -2.72671 0
M  V30 47591 H 4794.99 -2.7375 -1.0695 0
M  V30 47592 H 4792.5 -1.54637 -0.496113 0
M  V30 47593 H 4794.5 -2.27894 -3.49099 0
M  V30 47594 H 4793.16 -1.2024 -3.01616 0
M  V30 47595 H 4794.17 -4.76522 -2.02848 0
M  V30 47596 H 4790.85 -2.53112 -3.32025 0
M  V30 47597 H 4792.24 -6.38328 -2.09731 0
M  V30 47598 N 4794.96 0.551339 -1.47641 0
M  V30 47599 C 4796.2 1.30784 -1.55779 0
M  V30 47600 C 4796.56 1.91142 -0.219629 0
M  V30 47601 O 4795.85 1.75213 0.775313 0
M  V30 47602 C 4796.04 2.43459 -2.61653 0
M  V30 47603 C 4795.87 1.94143 -4.05634 0
M  V30 47604 C 4794.64 1.77718 -4.73016 0
M  V30 47605 C 4796.84 1.48245 -4.92471 0
M  V30 47606 N 4794.82 1.22802 -6.01492 0
M  V30 47607 C 4796.19 1.05134 -6.11021 0
M  V30 47608 C 4798.25 1.3635 -4.78866 0
M  V30 47609 C 4796.95 0.513105 -7.17468 0
M  V30 47610 C 4798.98 0.839278 -5.85414 0
M  V30 47611 C 4798.34 0.418129 -7.03158 0
M  V30 47612 H 4794.44 0.470384 -0.62471 0
M  V30 47613 H 4797.02 0.624267 -1.84421 0
M  V30 47614 H 4795.19 3.0934 -2.34869 0
M  V30 47615 H 4796.93 3.10468 -2.59599 0
M  V30 47616 H 4793.68 2.00608 -4.29015 0
M  V30 47617 H 4794.11 0.974158 -6.69955 0
M  V30 47618 H 4798.75 1.67521 -3.88196 0
M  V30 47619 H 4796.47 0.189034 -8.07879 0
M  V30 47620 H 4800.05 0.750719 -5.76936 0
M  V30 47621 H 4798.93 0.0187781 -7.84198 0
M  V30 47622 N 4796.43 1.35872 0.79854 0
M  V30 47623 C 4797.66 1.32889 1.59233 0
M  V30 47624 C 4798.08 -0.0893926 1.87887 0
M  V30 47625 O 4797.44 -1.05864 1.47182 0
M  V30 47626 C 4797.49 2.14902 2.89567 0
M  V30 47627 O 4796.59 1.53526 3.82758 0
M  V30 47628 H 4795.94 0.455253 0.483364 0
M  V30 47629 H 4798.47 1.79027 0.990476 0
M  V30 47630 H 4798.48 2.27151 3.3892 0
M  V30 47631 H 4797.15 3.18007 2.68038 0
M  V30 47632 H 4795.73 1.50165 3.41328 0
M  V30 47633 N 4797.91 -1.02164 1.20001 0
M  V30 47634 C 4798.86 -2.10598 0.944302 0
M  V30 47635 C 4799.83 -1.65639 -0.123606 0
M  V30 47636 O 4801.01 -1.90789 0.0200611 0
M  V30 47637 C 4798.15 -3.41503 0.496985 0
M  V30 47638 C 4797.27 -3.99968 1.63248 0
M  V30 47639 C 4796.4 -5.18911 1.13597 0
M  V30 47640 C 4795.44 -5.69448 2.24488 0
M  V30 47641 N 4794.58 -6.79659 1.76092 0
M  V30 47642 H 4799.42 -2.31808 1.87268 0
M  V30 47643 H 4796.96 -1.13683 0.933523 0
M  V30 47644 H 4798.91 -4.16625 0.218989 0
M  V30 47645 H 4797.54 -3.20382 -0.394396 0
M  V30 47646 H 4796.6 -3.21989 2.02551 0
M  V30 47647 H 4797.91 -4.33483 2.46767 0
M  V30 47648 H 4797.06 -6.01219 0.81364 0
M  V30 47649 H 4795.8 -4.86949 0.270605 0
M  V30 47650 H 4794.81 -4.85748 2.57544 0
M  V30 47651 H 4796.03 -6.03448 3.11493 0
M  V30 47652 H 4793.98 -6.49535 0.918744 0
M  V30 47653 H 4793.89 -7.1234 2.53195 0
M  V30 47654 H 4795.16 -7.65544 1.46844 0
M  V30 47655 N 4799.39 -1.00509 -1.21391 0
M  V30 47656 C 4800.32 -0.585763 -2.26033 0
M  V30 47657 C 4801.3 0.393467 -1.65487 0
M  V30 47658 O 4802.49 0.281429 -1.9215 0
M  V30 47659 C 4799.62 0.0883063 -3.47188 0
M  V30 47660 C 4798.57 -0.810715 -4.20252 0
M  V30 47661 C 4797.9 -0.00305179 -5.347 0
M  V30 47662 C 4799.2 -2.11337 -4.77634 0
M  V30 47663 H 4800.89 -1.46048 -2.61362 0
M  V30 47664 H 4798.44 -0.703692 -1.25635 0
M  V30 47665 H 4800.39 0.393138 -4.19562 0
M  V30 47666 H 4799.11 0.997657 -3.10989 0
M  V30 47667 H 4797.77 -1.09937 -3.49728 0
M  V30 47668 H 4797.42 0.907591 -4.94744 0
M  V30 47669 H 4797.12 -0.601649 -5.84512 0
M  V30 47670 H 4798.64 0.295593 -6.09884 0
M  V30 47671 H 4800.06 -1.87168 -5.41887 0
M  V30 47672 H 4798.46 -2.66182 -5.37835 0
M  V30 47673 H 4799.53 -2.78407 -3.97011 0
M  V30 47674 N 4800.87 1.36954 -0.779835 0
M  V30 47675 C 4802.28 1.52815 -0.460396 0
M  V30 47676 C 4802.48 1.73613 1.02277 0
M  V30 47677 O 4801.54 1.76213 1.80846 0
M  V30 47678 C 4802.85 2.71978 -1.28251 0
M  V30 47679 C 4804.4 2.85844 -1.27522 0
M  V30 47680 C 4804.88 4.08 -2.08086 0
M  V30 47681 N 4806.37 4.15128 -2.05482 0
M  V30 47682 C 4807.1 5.08702 -2.64594 0
M  V30 47683 N 4806.6 6.07781 -3.32527 0
M  V30 47684 N 4808.39 5.01245 -2.5438 0
M  V30 47685 H 4800.54 1.21707 -1.74073 0
M  V30 47686 H 4802.81 0.593268 -0.739417 0
M  V30 47687 H 4802.51 2.63101 -2.3339 0
M  V30 47688 H 4802.39 3.65878 -0.917217 0
M  V30 47689 H 4804.77 2.94188 -0.231789 0
M  V30 47690 H 4804.85 1.9288 -1.68021 0
M  V30 47691 H 4804.5 4.00418 -3.12455 0
M  V30 47692 H 4804.43 5.00094 -1.64964 0
M  V30 47693 H 4806.92 3.44184 -1.56032 0
M  V30 47694 H 4807.23 6.75726 -3.74986 0
M  V30 47695 H 4805.58 6.08035 -3.36628 0
M  V30 47696 H 4808.77 4.22788 -2.00917 0
M  V30 47697 H 4808.94 5.73985 -3.00742 0
M  V30 47698 N 4802.35 0.531045 1.48384 0
M  V30 47699 C 4803.57 -0.000656623 2.074 0
M  V30 47700 C 4804 -1.27294 1.38485 0
M  V30 47701 O 4803.35 -1.75597 0.451142 0
M  V30 47702 C 4803.4 -0.206571 3.60008 0
M  V30 47703 O 4802.51 -1.275 3.92196 0
M  V30 47704 H 4801.85 0.0396063 0.662818 0
M  V30 47705 H 4804.38 0.739261 1.90778 0
M  V30 47706 H 4804.39 -0.428898 4.05739 0
M  V30 47707 H 4803.06 0.722819 4.09571 0
M  V30 47708 H 4801.64 -1.03525 3.58242 0
M  V30 47709 N 4803.82 -1.55335 0.266227 0
M  V30 47710 C 4805.24 -1.85237 -0.23325 0
M  V30 47711 C 4805.59 -1.18821 -1.56128 0
M  V30 47712 O 4804.71 -0.473381 -2.11159 0
M  V30 47713 C 4805.31 -3.3606 -0.429995 0
M  V30 47714 C 4803.87 -3.66119 -0.873713 0
M  V30 47715 C 4803.01 -2.77274 0.0380991 0
M  V30 47716 H 4805.96 -1.51002 0.488267 0
M  V30 47717 H 4805.98 -3.58685 -1.26985 0
M  V30 47718 H 4805.5 -3.84371 0.536723 0
M  V30 47719 H 4803.6 -3.23301 -1.85222 0
M  V30 47720 H 4803.71 -4.73702 -0.717191 0
M  V30 47721 H 4802.07 -2.502 -0.476672 0
M  V30 47722 H 4802.86 -3.28396 1.00054 0
M  V30 47723 N 4805.3 0.0066254 -1.57599 0
M  V30 47724 C 4806.23 0.999222 -2.1104 0
M  V30 47725 C 4807.21 1.36275 -1.018 0
M  V30 47726 O 4808.4 1.44766 -1.29447 0
M  V30 47727 C 4805.53 2.29318 -2.60826 0
M  V30 47728 C 4804.48 2.07146 -3.74532 0
M  V30 47729 C 4803.81 3.42498 -4.10608 0
M  V30 47730 C 4805.11 1.43941 -5.02074 0
M  V30 47731 H 4806.8 0.554279 -2.94225 0
M  V30 47732 H 4804.35 0.265172 -1.41537 0
M  V30 47733 H 4806.3 2.99107 -2.96839 0
M  V30 47734 H 4805.03 2.75914 -1.74754 0
M  V30 47735 H 4803.69 1.39785 -3.38904 0
M  V30 47736 H 4803.33 3.86784 -3.2157 0
M  V30 47737 H 4803.03 3.2848 -4.87211 0
M  V30 47738 H 4804.56 4.13612 -4.49174 0
M  V30 47739 H 4805.97 2.03677 -5.359 0
M  V30 47740 H 4804.37 1.40432 -5.83437 0
M  V30 47741 H 4805.44 0.407823 -4.83182 0
M  V30 47742 N 4806.78 1.55106 0.279278 0
M  V30 47743 C 4808.19 1.66189 0.850774 0
M  V30 47744 C 4808.54 0.584773 1.87283 0
M  V30 47745 O 4807.67 -0.274844 2.14648 0
M  V30 47746 C 4808.26 3.01269 1.54991 0
M  V30 47747 C 4806.82 3.14401 2.06952 0
M  V30 47748 C 4805.97 2.61963 0.909444 0
M  V30 47749 H 4808.92 1.58602 0.0557678 0
M  V30 47750 H 4808.94 2.93907 2.41658 0
M  V30 47751 H 4808.45 3.79643 0.805797 0
M  V30 47752 H 4806.55 2.40789 2.84343 0
M  V30 47753 H 4806.67 4.20875 2.28914 0
M  V30 47754 H 4805.03 2.18961 1.30108 0
M  V30 47755 H 4805.81 3.42833 0.178942 0
M  V30 47756 N 4808.26 -0.543502 1.47932 0
M  V30 47757 C 4809.51 -1.29956 1.5647 0
M  V30 47758 C 4809.86 -1.91023 0.229763 0
M  V30 47759 O 4809.15 -1.75621 -0.76601 0
M  V30 47760 C 4809.35 -2.42068 2.6294 0
M  V30 47761 C 4809.18 -1.91989 4.06658 0
M  V30 47762 C 4807.95 -1.75207 4.73952 0
M  V30 47763 C 4810.14 -1.45631 4.93251 0
M  V30 47764 N 4808.13 -1.1961 6.02135 0
M  V30 47765 C 4809.5 -1.01892 6.1157 0
M  V30 47766 C 4811.55 -1.33809 4.79583 0
M  V30 47767 C 4810.26 -0.475049 7.1773 0
M  V30 47768 C 4812.28 -0.808221 5.85851 0
M  V30 47769 C 4811.64 -0.380833 7.0337 0
M  V30 47770 H 4807.74 -0.467064 0.627196 0
M  V30 47771 H 4810.33 -0.614478 1.84749 0
M  V30 47772 H 4808.5 -3.0809 2.36507 0
M  V30 47773 H 4810.23 -3.09087 2.61242 0
M  V30 47774 H 4806.98 -1.9833 4.30072 0
M  V30 47775 H 4807.41 -0.938615 6.70462 0
M  V30 47776 H 4812.05 -1.6546 3.89079 0
M  V30 47777 H 4809.77 -0.146188 8.07968 0
M  V30 47778 H 4813.35 -0.720112 5.77326 0
M  V30 47779 H 4812.23 0.0228101 7.84197 0
M  V30 47780 N 4809.74 -1.36293 -0.791323 0
M  V30 47781 C 4810.67 -1.26327 -1.91243 0
M  V30 47782 C 4811.68 -0.183187 -1.61766 0
M  V30 47783 O 4812.87 -0.437743 -1.73049 0
M  V30 47784 C 4809.97 -0.926016 -3.26003 0
M  V30 47785 C 4809.14 -2.1076 -3.83274 0
M  V30 47786 C 4808.2 -1.7437 -4.96469 0
M  V30 47787 O 4807.23 -2.46434 -5.13087 0
M  V30 47788 N 4808.43 -0.676261 -5.76547 0
M  V30 47789 H 4811.2 -2.22922 -2.00315 0
M  V30 47790 H 4808.76 -1.29662 -0.9695 0
M  V30 47791 H 4810.75 -0.663777 -3.99219 0
M  V30 47792 H 4809.32 -0.049268 -3.12561 0
M  V30 47793 H 4808.54 -2.53275 -3.02069 0
M  V30 47794 H 4809.83 -2.89705 -4.18269 0
M  V30 47795 H 4809.23 -0.0778456 -5.65646 0
M  V30 47796 H 4807.78 -0.47384 -6.50075 0
M  V30 47797 N 4811.22 1.01526 -1.20541 0
M  V30 47798 C 4812.17 2.08479 -0.923064 0
M  V30 47799 C 4813.15 1.60469 0.117645 0
M  V30 47800 O 4814.34 1.76772 -0.0899086 0
M  V30 47801 C 4811.47 3.3995 -0.478432 0
M  V30 47802 C 4810.56 3.94657 -1.55264 0
M  V30 47803 N 4810.95 4.22856 -2.77536 0
M  V30 47804 C 4809.25 4.2282 -1.41912 0
M  V30 47805 C 4809.95 4.66989 -3.46837 0
M  V30 47806 N 4808.92 4.69347 -2.74253 0
M  V30 47807 H 4812.72 2.28192 -1.85217 0
M  V30 47808 H 4810.24 1.19508 -1.09961 0
M  V30 47809 H 4812.24 4.16104 -0.257554 0
M  V30 47810 H 4810.9 3.2165 0.444035 0
M  V30 47811 H 4811.91 4.11721 -3.14175 0
M  V30 47812 H 4808.58 4.13712 -0.56116 0
M  V30 47813 H 4809.97 4.97616 -4.51473 0
M  V30 47814 N 4812.69 1.01151 1.20856 0
M  V30 47815 C 4814.11 0.725472 1.42159 0
M  V30 47816 C 4814.31 -0.696853 1.89067 0
M  V30 47817 O 4813.37 -1.46532 2.05632 0
M  V30 47818 C 4814.68 1.74686 2.44755 0
M  V30 47819 C 4816.23 1.76442 2.58529 0
M  V30 47820 C 4816.7 2.77494 3.64364 0
M  V30 47821 N 4818.19 2.76202 3.71842 0
M  V30 47822 C 4818.93 3.51051 4.53377 0
M  V30 47823 N 4818.42 4.3556 5.38757 0
M  V30 47824 N 4820.22 3.39671 4.47861 0
M  V30 47825 H 4812.37 1.92983 0.887214 0
M  V30 47826 H 4814.63 0.833343 0.451933 0
M  V30 47827 H 4814.34 2.76558 2.17275 0
M  V30 47828 H 4814.21 1.55484 3.43663 0
M  V30 47829 H 4816.6 0.75258 2.85342 0
M  V30 47830 H 4816.68 1.99717 1.59833 0
M  V30 47831 H 4816.32 3.78839 3.38295 0
M  V30 47832 H 4816.25 2.51482 4.62671 0
M  V30 47833 H 4818.74 2.14896 3.10851 0
M  V30 47834 H 4819.06 4.89453 5.98043 0
M  V30 47835 H 4817.4 4.3964 5.38277 0
M  V30 47836 H 4820.59 2.73076 3.80193 0
M  V30 47837 H 4820.77 3.98258 5.1117 0
M  V30 47838 N 4814.17 -1.36538 0.787088 0
M  V30 47839 C 4815.1 -2.32658 0.198074 0
M  V30 47840 C 4816.08 -1.56535 -0.665642 0
M  V30 47841 O 4817.27 -1.84701 -0.599945 0
M  V30 47842 C 4814.4 -3.4078 -0.669781 0
M  V30 47843 C 4813.35 -4.27897 0.0938543 0
M  V30 47844 C 4812.68 -5.27166 -0.894444 0
M  V30 47845 C 4813.98 -5.06329 1.28171 0
M  V30 47846 H 4815.67 -2.82168 1.00109 0
M  V30 47847 H 4813.22 -1.35664 0.482841 0
M  V30 47848 H 4815.17 -4.07012 -1.09176 0
M  V30 47849 H 4813.89 -2.89833 -1.50547 0
M  V30 47850 H 4812.55 -3.63218 0.496787 0
M  V30 47851 H 4812.2 -4.72492 -1.72511 0
M  V30 47852 H 4811.9 -5.86318 -0.387943 0
M  V30 47853 H 4813.43 -5.96271 -1.31504 0
M  V30 47854 H 4814.84 -5.65614 0.935609 0
M  V30 47855 H 4813.24 -5.74882 1.72135 0
M  V30 47856 H 4814.31 -4.38107 2.07823 0
M  V30 47857 N 4815.65 -0.538906 -1.481 0
M  V30 47858 C 4816.56 0.222566 -2.33542 0
M  V30 47859 C 4817.58 0.930173 -1.4705 0
M  V30 47860 O 4818.75 0.903148 -1.80014 0
M  V30 47861 C 4815.82 1.25053 -3.23361 0
M  V30 47862 C 4814.88 0.552319 -4.25732 0
M  V30 47863 C 4814.11 1.53131 -5.1126 0
M  V30 47864 O 4814.33 2.76469 -4.9892 0
M  V30 47865 O 4813.27 1.06581 -5.92388 0
M  V30 47866 H 4817.09 -0.477812 -2.99918 0
M  V30 47867 H 4814.68 -0.29972 -1.46363 0
M  V30 47868 H 4816.56 1.84437 -3.78894 0
M  V30 47869 H 4815.24 1.93316 -2.59636 0
M  V30 47870 H 4814.14 -0.0822455 -3.7401 0
M  V30 47871 H 4815.48 -0.0885256 -4.9212 0
M  V30 47872 N 4817.13 1.55192 -0.274461 0
M  V30 47873 C 4818.38 1.99188 0.341832 0
M  V30 47874 C 4818.7 1.16428 1.56427 0
M  V30 47875 O 4817.97 0.253641 1.94251 0
M  V30 47876 H 4816.55 0.735726 0.129291 0
M  V30 47877 H 4819.21 1.91167 -0.379645 0
M  V30 47878 H 4818.3 3.05631 0.632146 0
M  V30 47879 N 4818.61 0.00173253 1.576 0
M  V30 47880 C 4819.88 -0.719887 1.81871 0
M  V30 47881 C 4820.26 -1.91892 0.879814 0
M  V30 47882 O 4819.61 -2.28389 -0.071062 0
M  V30 47883 C 4819.82 -1.12398 3.30405 0
M  V30 47884 C 4821.17 -1.52711 3.96188 0
M  V30 47885 O 4822.19 -1.21772 3.34739 0
M  V30 47886 O 4821.05 -2.10248 5.04439 0
M  V30 47887 H 4818.15 -0.35068 0.748967 0
M  V30 47888 H 4820.69 0.0273194 1.69678 0
M  V30 47889 H 4819.46 -0.269395 3.90372 0
M  V30 47890 H 4819.09 -1.93023 3.47603 0
M  V30 47891 N 4820.08 -1.55252 -0.271048 0
M  V30 47892 C 4821.31 -1.79977 -1.02057 0
M  V30 47893 C 4821.73 -0.574066 -1.79861 0
M  V30 47894 O 4821.08 0.4569 -1.76688 0
M  V30 47895 C 4821.14 -3.0261 -1.97761 0
M  V30 47896 O 4820.86 -4.20447 -1.2311 0
M  V30 47897 C 4822.36 -3.39954 -2.8451 0
M  V30 47898 H 4819.58 -0.5995 -0.301398 0
M  V30 47899 H 4822.12 -2.02269 -0.301241 0
M  V30 47900 H 4820.28 -2.82439 -2.65155 0
M  V30 47901 H 4820.69 -4.8979 -1.87634 0
M  V30 47902 H 4822.16 -4.28927 -3.47456 0
M  V30 47903 H 4822.64 -2.59445 -3.5438 0
M  V30 47904 H 4823.25 -3.62391 -2.22605 0
M  V30 47905 N 4821.56 0.535649 -1.48218 0
M  V30 47906 C 4822.49 1.65009 -1.6521 0
M  V30 47907 C 4823.47 1.62553 -0.501068 0
M  V30 47908 O 4824.66 1.79837 -0.732949 0
M  V30 47909 C 4821.79 3.0361 -1.68636 0
M  V30 47910 C 4820.74 3.20922 -2.83183 0
M  V30 47911 C 4820.07 4.60528 -2.71695 0
M  V30 47912 C 4821.37 3.04234 -4.24545 0
M  V30 47913 H 4823.06 1.51043 -2.58508 0
M  V30 47914 H 4820.61 0.725218 -1.24405 0
M  V30 47915 H 4822.56 3.8144 -1.79113 0
M  V30 47916 H 4821.29 3.18584 -0.719138 0
M  V30 47917 H 4819.94 2.45507 -2.72253 0
M  V30 47918 H 4819.59 4.7233 -1.72954 0
M  V30 47919 H 4819.29 4.73057 -3.48555 0
M  V30 47920 H 4820.82 5.40465 -2.84131 0
M  V30 47921 H 4822.23 3.71862 -4.36339 0
M  V30 47922 H 4820.63 3.28261 -5.02359 0
M  V30 47923 H 4821.7 2.00724 -4.41404 0
M  V30 47924 N 4823.04 1.36711 0.784084 0
M  V30 47925 C 4824.29 1.30565 1.53739 0
M  V30 47926 C 4824.6 -0.111305 1.95283 0
M  V30 47927 O 4825.81 -0.295175 2.69891 0
M  V30 47928 C 4824.26 2.29108 2.77557 0
M  V30 47929 C 4823.87 3.76267 2.43161 0
M  V30 47930 C 4825.62 2.31949 3.55528 0
M  V30 47931 C 4823.52 4.66573 3.63406 0
M  V30 47932 H 4822.45 0.485201 0.577145 0
M  V30 47933 H 4825.1 1.62104 0.859924 0
M  V30 47934 H 4823.49 1.9057 3.4713 0
M  V30 47935 H 4824.66 4.23571 1.8145 0
M  V30 47936 H 4822.98 3.76253 1.7839 0
M  V30 47937 H 4825.57 2.96626 4.44879 0
M  V30 47938 H 4825.92 1.32954 3.94498 0
M  V30 47939 H 4826.45 2.69131 2.92939 0
M  V30 47940 H 4823.19 5.6665 3.29527 0
M  V30 47941 H 4822.71 4.23981 4.24264 0
M  V30 47942 H 4824.39 4.83105 4.3037 0
M  V30 47943 N 4824.52 -1.00885 1.21078 0
M  V30 47944 C 4825.77 -1.74016 1.01987 0
M  V30 47945 C 4826.08 -1.9041 -0.447598 0
M  V30 47946 O 4827.29 -2.60709 -0.757815 0
M  V30 47947 C 4825.74 -3.13019 1.77614 0
M  V30 47948 C 4825.35 -3.04611 3.28506 0
M  V30 47949 C 4827.09 -3.90306 1.66918 0
M  V30 47950 C 4825 -4.38671 3.96638 0
M  V30 47951 H 4823.93 -0.652409 0.377994 0
M  V30 47952 H 4826.58 -1.1275 1.44775 0
M  V30 47953 H 4824.96 -3.74873 1.27617 0
M  V30 47954 H 4826.14 -2.52019 3.85776 0
M  V30 47955 H 4824.45 -2.40815 3.39701 0
M  V30 47956 H 4827.05 -4.89502 2.15155 0
M  V30 47957 H 4827.39 -4.11555 0.626725 0
M  V30 47958 H 4827.93 -3.35097 2.14371 0
M  V30 47959 H 4824.67 -4.22623 5.01069 0
M  V30 47960 H 4824.19 -4.91239 3.44157 0
M  V30 47961 H 4825.86 -5.07486 4.01332 0
M  V30 47962 N 4826 -1.01791 -1.20318 0
M  V30 47963 C 4827.41 -0.739367 -1.71436 0
M  V30 47964 C 4827.76 0.741977 -1.81629 0
M  V30 47965 O 4826.88 1.57898 -1.47977 0
M  V30 47966 C 4827.48 -1.33549 -3.11368 0
M  V30 47967 C 4826.04 -1.10578 -3.59791 0
M  V30 47968 C 4825.18 -1.44036 -2.36957 0
M  V30 47969 H 4828.14 -1.18722 -1.05313 0
M  V30 47970 H 4828.16 -0.726742 -3.73495 0
M  V30 47971 H 4827.67 -2.41363 -3.03917 0
M  V30 47972 H 4825.77 -0.0453714 -3.72572 0
M  V30 47973 H 4825.88 -1.78676 -4.44535 0
M  V30 47974 H 4824.25 -0.859415 -2.39763 0
M  V30 47975 H 4825.03 -2.52909 -2.32146 0
M  V30 47976 N 4827.47 1.36119 -0.794317 0
M  V30 47977 C 4828.89 1.52318 -0.476578 0
M  V30 47978 C 4829.09 1.74688 1.0043 0
M  V30 47979 O 4828.15 1.78121 1.78967 0
M  V30 47980 C 4829.46 2.70603 -1.31128 0
M  V30 47981 C 4831.01 2.84476 -1.30547 0
M  V30 47982 C 4831.48 4.0577 -2.12402 0
M  V30 47983 N 4832.97 4.12925 -2.09873 0
M  V30 47984 C 4833.71 5.05867 -2.69975 0
M  V30 47985 N 4833.2 6.0422 -3.38955 0
M  V30 47986 N 4835 4.98519 -2.59683 0
M  V30 47987 H 4827.15 1.19853 -1.75354 0
M  V30 47988 H 4829.41 0.585392 -0.745668 0
M  V30 47989 H 4829.12 2.60611 -2.36167 0
M  V30 47990 H 4828.99 3.64885 -0.955972 0
M  V30 47991 H 4831.38 2.93926 -0.262979 0
M  V30 47992 H 4831.46 1.91087 -1.70057 0
M  V30 47993 H 4831.1 3.97081 -3.16684 0
M  V30 47994 H 4831.03 4.98317 -1.70259 0
M  V30 47995 H 4833.52 3.42509 -1.59674 0
M  V30 47996 H 4833.84 6.7171 -3.82132 0
M  V30 47997 H 4832.18 6.04431 -3.43058 0
M  V30 47998 H 4835.37 4.20634 -2.0539 0
M  V30 47999 H 4835.55 5.70763 -3.06813 0
M  V30 48000 N 4828.95 0.546753 1.47812 0
M  V30 48001 C 4830.2 0.0188397 2.02791 0
M  V30 48002 C 4830.53 -1.32333 1.42132 0
M  V30 48003 O 4829.81 -1.85865 0.573089 0
M  V30 48004 C 4830.09 -0.0853719 3.59999 0
M  V30 48005 C 4829.94 1.28315 4.31109 0
M  V30 48006 C 4831.26 -0.803968 4.32694 0
M  V30 48007 H 4828.38 0.00832051 0.736953 0
M  V30 48008 H 4831.02 0.707024 1.76355 0
M  V30 48009 H 4829.17 -0.671475 3.82653 0
M  V30 48010 H 4830.84 1.91165 4.19826 0
M  V30 48011 H 4829.09 1.86063 3.91871 0
M  V30 48012 H 4829.76 1.16306 5.39608 0
M  V30 48013 H 4832.23 -0.30643 4.1497 0
M  V30 48014 H 4831.11 -0.84582 5.42344 0
M  V30 48015 H 4831.37 -1.85788 4.01167 0
M  V30 48016 N 4830.43 -1.55044 0.282687 0
M  V30 48017 C 4831.39 -2.21517 -0.588462 0
M  V30 48018 C 4832.39 -1.19539 -1.0755 0
M  V30 48019 O 4833.58 -1.44395 -0.974463 0
M  V30 48020 C 4830.72 -2.88711 -1.8127 0
M  V30 48021 H 4831.91 -2.99899 -0.00795854 0
M  V30 48022 H 4829.46 -1.56264 0.0333617 0
M  V30 48023 H 4830.2 -2.1436 -2.43352 0
M  V30 48024 H 4829.98 -3.63449 -1.47131 0
M  V30 48025 H 4831.47 -3.39474 -2.43202 0
M  V30 48026 N 4831.91 -0.0100904 -1.57597 0
M  V30 48027 C 4832.84 1.00642 -2.05922 0
M  V30 48028 C 4833.85 1.30074 -0.97901 0
M  V30 48029 O 4835.04 1.26873 -1.25561 0
M  V30 48030 C 4832.14 2.33868 -2.45274 0
M  V30 48031 C 4831.32 2.23229 -3.76148 0
M  V30 48032 C 4830.37 3.39228 -4.02257 0
M  V30 48033 O 4829.4 3.16963 -4.72782 0
M  V30 48034 N 4830.6 4.62408 -3.5094 0
M  V30 48035 H 4833.37 0.594229 -2.9375 0
M  V30 48036 H 4830.93 0.177083 -1.60929 0
M  V30 48037 H 4832.92 3.10261 -2.59847 0
M  V30 48038 H 4831.49 2.66793 -1.62912 0
M  V30 48039 H 4830.71 1.31683 -3.71555 0
M  V30 48040 H 4832 2.13304 -4.61929 0
M  V30 48041 H 4831.4 4.83394 -2.93849 0
M  V30 48042 H 4829.95 5.36033 -3.70826 0
M  V30 48043 N 4833.39 1.55393 0.262811 0
M  V30 48044 C 4834.32 1.85397 1.34762 0
M  V30 48045 C 4835.33 0.73912 1.45055 0
M  V30 48046 O 4836.52 1.01708 1.46689 0
M  V30 48047 C 4833.62 2.01097 2.72787 0
M  V30 48048 C 4832.79 3.31838 2.8496 0
M  V30 48049 C 4831.85 3.37478 4.03727 0
M  V30 48050 O 4830.88 4.10792 3.94004 0
M  V30 48051 N 4832.08 2.65617 5.16167 0
M  V30 48052 H 4834.85 2.79033 1.09365 0
M  V30 48053 H 4832.41 1.55435 0.452927 0
M  V30 48054 H 4834.4 2.0223 3.5055 0
M  V30 48055 H 4832.97 1.1428 2.90962 0
M  V30 48056 H 4832.19 3.43158 1.94 0
M  V30 48057 H 4833.48 4.18043 2.90031 0
M  V30 48058 H 4832.87 2.05755 5.26955 0
M  V30 48059 H 4831.43 2.7246 5.92122 0
M  V30 48060 N 4834.87 -0.527781 1.485 0
M  V30 48061 C 4836.14 -1.289 1.4712 0
M  V30 48062 C 4836.52 -2.10296 0.184081 0
M  V30 48063 O 4835.87 -2.12731 -0.834143 0
M  V30 48064 C 4836.08 -2.16857 2.73449 0
M  V30 48065 C 4837.43 -2.76925 3.21866 0
M  V30 48066 O 4838.45 -2.27142 2.74381 0
M  V30 48067 O 4837.31 -3.67482 4.04499 0
M  V30 48068 H 4834.41 -0.581897 0.587643 0
M  V30 48069 H 4836.95 -0.544254 1.60736 0
M  V30 48070 H 4835.72 -1.56508 3.58637 0
M  V30 48071 H 4835.35 -2.98574 2.62563 0
M  V30 48072 N 4836.34 -1.37125 -0.776822 0
M  V30 48073 C 4837.57 -1.35405 -1.57099 0
M  V30 48074 C 4837.99 0.0594901 -1.88006 0
M  V30 48075 O 4837.35 1.03509 -1.48848 0
M  V30 48076 C 4837.4 -2.19482 -2.86112 0
M  V30 48077 O 4836.5 -1.59596 -3.80267 0
M  V30 48078 H 4835.84 -0.462885 -0.47606 0
M  V30 48079 H 4838.37 -1.8058 -0.961869 0
M  V30 48080 H 4838.38 -2.32514 -3.35263 0
M  V30 48081 H 4837.06 -3.22231 -2.62945 0
M  V30 48082 H 4835.64 -1.55576 -3.38896 0
M  V30 48083 N 4837.82 1.00242 -1.21611 0
M  V30 48084 C 4839.07 1.73713 -1.03286 0
M  V30 48085 C 4839.39 1.90103 0.434251 0
M  V30 48086 O 4838.66 1.4538 1.31306 0
M  V30 48087 H 4837.24 0.6436 -0.379195 0
M  V30 48088 H 4839.9 1.20781 -1.52964 0
M  V30 48089 H 4839 2.7353 -1.50292 0
M  V30 48090 N 4839.3 1.02428 1.19776 0
M  V30 48091 C 4840.23 0.559231 2.22273 0
M  V30 48092 C 4841.24 -0.362454 1.58714 0
M  V30 48093 O 4842.43 -0.159579 1.77785 0
M  V30 48094 C 4839.53 -0.204975 3.3828 0
M  V30 48095 C 4838.71 0.720513 4.31425 0
M  V30 48096 C 4837.77 0.00252867 5.262 0
M  V30 48097 O 4836.79 0.627577 5.6573 0
M  V30 48098 N 4837.99 -1.26977 5.66443 0
M  V30 48099 H 4840.76 1.44073 2.62798 0
M  V30 48100 H 4838.32 0.902739 1.34396 0
M  V30 48101 H 4840.31 -0.694728 3.98692 0
M  V30 48102 H 4838.88 -0.987843 2.96581 0
M  V30 48103 H 4838.1 1.39044 3.68864 0
M  V30 48104 H 4839.39 1.34968 4.90572 0
M  V30 48105 H 4838.79 -1.79839 5.36353 0
M  V30 48106 H 4837.34 -1.7041 6.29129 0
M  V30 48107 N 4840.78 -1.35696 0.801525 0
M  V30 48108 C 4842.01 -2.02861 0.391272 0
M  V30 48109 C 4842.42 -1.60555 -1.00093 0
M  V30 48110 O 4841.76 -0.796273 -1.65545 0
M  V30 48111 C 4841.82 -3.57385 0.389424 0
M  V30 48112 C 4841.48 -4.22937 1.73127 0
M  V30 48113 C 4842.48 -4.44975 2.68875 0
M  V30 48114 C 4840.17 -4.6016 2.01389 0
M  V30 48115 C 4842.16 -5.03331 3.91071 0
M  V30 48116 C 4839.85 -5.18232 3.2385 0
M  V30 48117 C 4840.85 -5.39759 4.18509 0
M  V30 48118 O 4840.53 -5.96607 5.38809 0
M  V30 48119 H 4840.27 -0.657335 0.157755 0
M  V30 48120 H 4842.82 -1.74403 1.08502 0
M  V30 48121 H 4841.05 -3.85012 -0.360896 0
M  V30 48122 H 4842.74 -4.059 0.00217919 0
M  V30 48123 H 4843.5 -4.16602 2.48331 0
M  V30 48124 H 4839.38 -4.42722 1.28523 0
M  V30 48125 H 4842.93 -5.20049 4.64967 0
M  V30 48126 H 4838.82 -5.46032 3.44267 0
M  V30 48127 H 4839.59 -6.15063 5.40037 0
M  V30 48128 N 4842.26 -0.554584 -1.4752 0
M  V30 48129 C 4843.5 -0.0274167 -2.01681 0
M  V30 48130 C 4843.82 1.32957 -1.43464 0
M  V30 48131 O 4845.02 1.9465 -1.89271 0
M  V30 48132 C 4843.48 0.00146405 -3.599 0
M  V30 48133 C 4843.09 -1.35212 -4.27109 0
M  V30 48134 C 4844.83 0.476163 -4.21821 0
M  V30 48135 C 4842.74 -1.28249 -5.77327 0
M  V30 48136 H 4841.67 -0.0064792 -0.753972 0
M  V30 48137 H 4844.32 -0.702045 -1.69539 0
M  V30 48138 H 4842.7 0.741685 -3.88992 0
M  V30 48139 H 4843.88 -2.10985 -4.09661 0
M  V30 48140 H 4842.19 -1.76454 -3.77164 0
M  V30 48141 H 4844.79 0.546613 -5.31899 0
M  V30 48142 H 4845.13 1.48756 -3.88815 0
M  V30 48143 H 4845.66 -0.209119 -3.9725 0
M  V30 48144 H 4842.4 -2.26981 -6.14947 0
M  V30 48145 H 4841.92 -0.566524 -5.97119 0
M  V30 48146 H 4843.6 -0.983451 -6.39482 0
M  V30 48147 N 4843.73 1.54892 -0.290906 0
M  V30 48148 C 4844.97 2.01843 0.322317 0
M  V30 48149 C 4845.34 1.17483 1.51861 0
M  V30 48150 O 4846.54 1.54085 2.20253 0
M  V30 48151 C 4844.81 3.50877 0.679721 0
M  V30 48152 S 4846.37 4.198 1.27724 0
M  V30 48153 H 4843.19 0.704009 0.0994619 0
M  V30 48154 H 4845.79 1.91013 -0.416425 0
M  V30 48155 H 4844.49 4.09914 -0.199579 0
M  V30 48156 H 4844.02 3.65722 1.44952 0
M  V30 48157 H 4846.04 4.24738 2.56539 0
M  V30 48158 N 4845.21 0.018448 1.57589 0
M  V30 48159 C 4846.16 -0.985037 2.10713 0
M  V30 48160 C 4847.15 -1.34394 1.03125 0
M  V30 48161 O 4848.36 -1.32742 1.21571 0
M  V30 48162 H 4844.73 -0.335394 0.673064 0
M  V30 48163 H 4846.71 -0.511586 2.93982 0
M  V30 48164 C 4845.45 -2.26192 2.64069 0
M  V30 48165 H 4844.78 -1.99448 3.46497 0
M  V30 48166 H 4846.22 -2.94642 3.04897 0
M  V30 48167 C 4844.68 -2.98438 1.56321 0
M  V30 48168 O 4845.21 -3.90138 0.956811 0
M  V30 48169 N 4843.41 -2.60586 1.28621 0
M  V30 48170 H 4842.96 -1.86095 1.78119 0
M  V30 48171 H 4842.92 -3.09236 0.567515 0
M  V30 48172 N 4846.69 -1.5553 -0.254567 0
M  V30 48173 C 4847.65 -1.88877 -1.29839 0
M  V30 48174 C 4848.65 -0.764641 -1.41456 0
M  V30 48175 O 4849.84 -1.0327 -1.40289 0
M  V30 48176 C 4846.97 -2.11041 -2.67721 0
M  V30 48177 H 4848.17 -2.82204 -1.01492 0
M  V30 48178 H 4845.72 -1.48305 -0.493504 0
M  V30 48179 H 4846.46 -1.20157 -3.01219 0
M  V30 48180 H 4846.24 -2.92904 -2.60672 0
M  V30 48181 H 4847.73 -2.3805 -3.43106 0
M  V30 48182 N 4848.17 0.519898 -1.48778 0
M  V30 48183 C 4849.4 1.29966 -1.60986 0
M  V30 48184 C 4849.81 1.86802 -0.27395 0
M  V30 48185 O 4849.17 1.66907 0.738134 0
M  V30 48186 C 4849.22 2.44337 -2.66424 0
M  V30 48187 O 4848.94 1.89841 -3.94832 0
M  V30 48188 C 4850.44 3.36004 -2.89165 0
M  V30 48189 H 4847.66 0.394872 -0.54251 0
M  V30 48190 H 4850.2 0.626145 -1.94678 0
M  V30 48191 H 4848.36 3.07553 -2.35563 0
M  V30 48192 H 4848.77 2.64782 -4.52759 0
M  V30 48193 H 4850.25 4.1258 -3.66717 0
M  V30 48194 H 4850.72 3.91852 -1.98365 0
M  V30 48195 H 4851.33 2.78571 -3.21369 0
M  V30 48196 N 4849.65 1.37535 0.769539 0
M  V30 48197 C 4850.87 1.36237 1.56379 0
M  V30 48198 C 4851.3 -0.0495188 1.88035 0
M  V30 48199 O 4850.65 -1.02718 1.49395 0
M  V30 48200 C 4850.7 2.20996 2.84944 0
M  V30 48201 O 4849.81 1.6161 3.79415 0
M  V30 48202 H 4849.15 0.465404 0.473598 0
M  V30 48203 H 4851.68 1.81088 0.952278 0
M  V30 48204 H 4851.69 2.34288 3.34025 0
M  V30 48205 H 4850.36 3.23621 2.61232 0
M  V30 48206 H 4848.94 1.57371 3.38066 0
M  V30 48207 N 4851.12 -0.995956 1.22141 0
M  V30 48208 C 4852.54 -1.54957 1.0414 0
M  V30 48209 C 4852.89 -1.9216 -0.39608 0
M  V30 48210 O 4852.01 -1.74439 -1.28062 0
M  V30 48211 C 4852.61 -2.81574 1.88418 0
M  V30 48212 C 4851.17 -3.3339 1.74724 0
M  V30 48213 C 4850.31 -2.06502 1.85073 0
M  V30 48214 H 4853.26 -0.817388 1.36031 0
M  V30 48215 H 4853.28 -3.53817 1.39978 0
M  V30 48216 H 4852.8 -2.54465 2.93034 0
M  V30 48217 H 4850.9 -3.65413 0.728288 0
M  V30 48218 H 4851.01 -4.04199 2.57216 0
M  V30 48219 H 4849.37 -2.19921 1.2848 0
M  V30 48220 H 4850.16 -1.81794 2.91214 0
M  V30 48221 N 4852.6 -1.03061 -1.19231 0
M  V30 48222 C 4853.57 -0.617495 -2.20725 0
M  V30 48223 C 4854.57 0.319801 -1.57588 0
M  V30 48224 O 4855.76 0.106572 -1.73874 0
M  V30 48225 C 4852.89 0.0961762 -3.40764 0
M  V30 48226 H 4854.08 -1.51554 -2.58789 0
M  V30 48227 H 4851.63 -0.821996 -1.3294 0
M  V30 48228 H 4852.37 1.00848 -3.08221 0
M  V30 48229 H 4852.15 -0.577353 -3.87826 0
M  V30 48230 H 4853.64 0.372073 -4.15939 0
M  V30 48231 N 4854.08 1.35269 -0.80871 0
M  V30 48232 C 4855.33 1.98315 -0.389302 0
M  V30 48233 C 4855.65 1.64469 1.04762 0
M  V30 48234 O 4854.92 0.928236 1.72513 0
M  V30 48235 H 4853.5 0.73358 -0.14096 0
M  V30 48236 H 4856.16 1.65147 -1.03502 0
M  V30 48237 H 4855.26 3.08122 -0.49674 0
M  V30 48238 N 4855.56 0.5624 1.47224 0
M  V30 48239 C 4856.51 -0.202887 2.27096 0
M  V30 48240 C 4857.49 -0.880564 1.34666 0
M  V30 48241 O 4858.68 -0.778013 1.58984 0
M  V30 48242 C 4855.81 -1.22895 3.20549 0
M  V30 48243 C 4854.9 -0.554419 4.2046 0
M  V30 48244 N 4855.29 0.378472 5.04382 0
M  V30 48245 C 4853.59 -0.8077 4.38625 0
M  V30 48246 C 4854.29 0.770785 5.76571 0
M  V30 48247 N 4853.27 0.124454 5.43458 0
M  V30 48248 H 4857.07 0.514298 2.89365 0
M  V30 48249 H 4854.58 0.38271 1.57826 0
M  V30 48250 H 4856.58 -1.7912 3.76459 0
M  V30 48251 H 4855.24 -1.94717 2.59837 0
M  V30 48252 H 4856.25 0.75292 5.12398 0
M  V30 48253 H 4852.93 -1.51404 3.8908 0
M  V30 48254 H 4854.32 1.53765 6.54069 0
M  V30 48255 N 4857.04 -1.54735 0.299116 0
M  V30 48256 C 4858 -2.22129 -0.564934 0
M  V30 48257 C 4859 -1.20673 -1.06276 0
M  V30 48258 O 4860.19 -1.4542 -0.959093 0
M  V30 48259 C 4857.32 -2.90617 -1.78198 0
M  V30 48260 H 4858.51 -2.99891 0.0238502 0
M  V30 48261 H 4856.07 -1.5622 0.0499337 0
M  V30 48262 H 4856.8 -2.16929 -2.41065 0
M  V30 48263 H 4856.59 -3.64989 -1.43268 0
M  V30 48264 H 4858.08 -3.42034 -2.39588 0
M  V30 48265 N 4858.51 -0.0268051 -1.57577 0
M  V30 48266 C 4859.42 0.971558 -2.13537 0
M  V30 48267 C 4860.44 1.35864 -1.08706 0
M  V30 48268 O 4861.62 1.44053 -1.40751 0
M  V30 48269 C 4858.68 2.23613 -2.64949 0
M  V30 48270 C 4857.74 1.90968 -3.84486 0
M  V30 48271 C 4856.98 3.11396 -4.33438 0
M  V30 48272 O 4857.2 4.23979 -3.81573 0
M  V30 48273 O 4856.13 2.93829 -5.25308 0
M  V30 48274 H 4859.96 0.525748 -2.99115 0
M  V30 48275 H 4857.54 0.19366 -1.4814 0
M  V30 48276 H 4859.43 2.97853 -2.98096 0
M  V30 48277 H 4858.1 2.67379 -1.82456 0
M  V30 48278 H 4857.01 1.14119 -3.56269 0
M  V30 48279 H 4858.34 1.52019 -4.68136 0
M  V30 48280 N 4859.99 1.55663 0.246315 0
M  V30 48281 C 4860.96 1.89563 1.28836 0
M  V30 48282 C 4861.96 0.772132 1.41049 0
M  V30 48283 O 4863.15 1.04012 1.39739 0
M  V30 48284 C 4860.28 2.12458 2.66598 0
M  V30 48285 H 4861.47 2.82739 0.999943 0
M  V30 48286 H 4859.02 1.48564 0.485632 0
M  V30 48287 H 4859.76 1.21752 3.00578 0
M  V30 48288 H 4859.54 2.94282 2.59115 0
M  V30 48289 H 4861.03 2.39866 3.41839 0
M  V30 48290 N 4861.47 -0.512001 1.49051 0
M  V30 48291 C 4862.7 -1.2911 1.61673 0
M  V30 48292 C 4863.11 -1.86654 0.283853 0
M  V30 48293 O 4862.47 -1.67296 -0.729272 0
M  V30 48294 C 4862.52 -2.42921 2.67716 0
M  V30 48295 O 4862.24 -1.87744 3.95833 0
M  V30 48296 C 4863.74 -3.34466 2.90942 0
M  V30 48297 H 4860.96 -0.39199 0.544596 0
M  V30 48298 H 4863.51 -0.615812 1.95008 0
M  V30 48299 H 4861.66 -3.063 2.3719 0
M  V30 48300 H 4862.08 -2.62377 4.54157 0
M  V30 48301 H 4863.55 -4.10629 3.689 0
M  V30 48302 H 4864.03 -3.90794 2.0044 0
M  V30 48303 H 4864.63 -2.76863 3.22842 0
M  V30 48304 N 4862.95 -1.37941 -0.762235 0
M  V30 48305 C 4864.2 -1.32994 -1.51643 0
M  V30 48306 C 4864.51 0.0802235 -1.95435 0
M  V30 48307 O 4865.72 0.2522 -2.70326 0
M  V30 48308 C 4864.17 -2.33494 -2.73877 0
M  V30 48309 C 4863.78 -3.80088 -2.37144 0
M  V30 48310 C 4865.52 -2.37575 -3.51793 0
M  V30 48311 C 4863.43 -4.72295 -3.55937 0
M  V30 48312 H 4862.36 -0.494321 -0.569353 0
M  V30 48313 H 4865.01 -1.63451 -0.834026 0
M  V30 48314 H 4863.39 -1.96068 -3.44054 0
M  V30 48315 H 4864.57 -4.26404 -1.74689 0
M  V30 48316 H 4862.88 -3.79043 -1.72381 0
M  V30 48317 H 4865.48 -3.03666 -4.40104 0
M  V30 48318 H 4865.82 -1.39213 -3.92333 0
M  V30 48319 H 4866.36 -2.73757 -2.88621 0
M  V30 48320 H 4863.1 -5.71821 -3.2047 0
M  V30 48321 H 4862.62 -4.30677 -4.17465 0
M  V30 48322 H 4864.29 -4.89891 -4.2263 0
M  V30 48323 N 4864.43 0.989464 -1.22668 0
M  V30 48324 C 4865.68 1.72371 -1.04743 0
M  V30 48325 C 4865.99 1.91098 0.417249 0
M  V30 48326 O 4867.2 2.61882 0.716242 0
M  V30 48327 C 4865.65 3.10154 -1.82572 0
M  V30 48328 C 4865.26 2.99347 -3.3331 0
M  V30 48329 C 4867 3.87601 -1.73106 0
M  V30 48330 C 4864.91 4.32305 -4.03567 0
M  V30 48331 H 4863.84 0.646312 -0.388325 0
M  V30 48332 H 4866.49 1.10432 -1.4655 0
M  V30 48333 H 4864.87 3.72796 -1.33565 0
M  V30 48334 H 4866.05 2.45849 -3.89737 0
M  V30 48335 H 4864.36 2.3538 -3.4349 0
M  V30 48336 H 4866.96 4.86017 -2.22916 0
M  V30 48337 H 4867.3 4.10506 -0.69212 0
M  V30 48338 H 4867.84 3.31644 -2.19675 0
M  V30 48339 H 4864.57 4.14598 -5.07729 0
M  V30 48340 H 4864.09 4.85702 -3.51928 0
M  V30 48341 H 4865.77 5.01037 -4.09355 0
M  V30 48342 N 4865.91 1.03692 1.18683 0
M  V30 48343 C 4866.84 0.645486 2.24401 0
M  V30 48344 C 4867.82 -0.349453 1.66472 0
M  V30 48345 O 4869 -0.230385 1.92829 0
M  V30 48346 C 4866.13 0.00377546 3.473 0
M  V30 48347 C 4865.09 0.921852 4.17954 0
M  V30 48348 C 4864.41 0.144817 5.34504 0
M  V30 48349 C 4865.71 2.23926 4.71863 0
M  V30 48350 H 4867.41 1.52926 2.57398 0
M  V30 48351 H 4864.95 0.736755 1.23725 0
M  V30 48352 H 4866.9 -0.281761 4.20457 0
M  V30 48353 H 4865.63 -0.914852 3.13525 0
M  V30 48354 H 4864.29 1.19171 3.4669 0
M  V30 48355 H 4863.94 -0.776099 4.96977 0
M  V30 48356 H 4863.64 0.756411 5.82711 0
M  V30 48357 H 4865.16 -0.13379 6.10453 0
M  V30 48358 H 4866.57 2.01469 5.36734 0
M  V30 48359 H 4864.97 2.80349 5.30589 0
M  V30 48360 H 4866.04 2.88836 3.89489 0
M  V30 48361 N 4867.38 -1.34838 0.815872 0
M  V30 48362 C 4868.33 -2.27074 0.205249 0
M  V30 48363 C 4869.32 -1.48208 -0.626362 0
M  V30 48364 O 4870.51 -1.70308 -0.482097 0
M  V30 48365 C 4867.64 -3.37324 -0.637752 0
M  V30 48366 C 4866.72 -4.23609 0.204097 0
M  V30 48367 N 4867.12 -4.89553 1.27166 0
M  V30 48368 C 4865.41 -4.45998 -0.0127403 0
M  V30 48369 C 4866.11 -5.53591 1.7864 0
M  V30 48370 N 4865.09 -5.32531 1.09138 0
M  V30 48371 H 4868.89 -2.7556 1.02196 0
M  V30 48372 H 4866.41 -1.48474 0.657964 0
M  V30 48373 H 4868.4 -4.02363 -1.09132 0
M  V30 48374 H 4867.06 -2.9039 -1.45271 0
M  V30 48375 H 4868.07 -4.90765 1.6544 0
M  V30 48376 H 4864.75 -4.0984 -0.796096 0
M  V30 48377 H 4866.14 -6.16175 2.67914 0
M  V30 48378 N 4868.86 -0.570199 -1.46923 0
M  V30 48379 C 4870.11 -0.0510997 -2.02736 0
M  V30 48380 C 4870.44 1.30055 -1.4422 0
M  V30 48381 O 4869.72 1.8493 -0.602586 0
M  V30 48382 C 4870 0.0280884 -3.60089 0
M  V30 48383 C 4869.85 -1.35158 -4.29013 0
M  V30 48384 C 4871.17 0.735028 -4.33919 0
M  V30 48385 H 4868.29 -0.0200437 -0.736727 0
M  V30 48386 H 4870.93 -0.734991 -1.75208 0
M  V30 48387 H 4869.08 0.610513 -3.83673 0
M  V30 48388 H 4870.75 -1.9782 -4.16731 0
M  V30 48389 H 4869 -1.92274 -3.88862 0
M  V30 48390 H 4869.67 -1.24876 -5.3769 0
M  V30 48391 H 4872.14 0.240373 -4.15405 0
M  V30 48392 H 4871.02 0.759431 -5.43621 0
M  V30 48393 H 4871.28 1.79382 -4.04072 0
M  V30 48394 N 4870.34 1.54575 -0.307318 0
M  V30 48395 C 4871.25 2.27437 0.57528 0
M  V30 48396 C 4872.27 1.31187 1.14306 0
M  V30 48397 O 4873.44 1.64179 1.1665 0
M  V30 48398 C 4870.51 3.00572 1.72793 0
M  V30 48399 C 4869.57 4.12374 1.19359 0
M  V30 48400 C 4868.8 4.82011 2.2913 0
M  V30 48401 O 4869.02 4.5105 3.49156 0
M  V30 48402 O 4867.96 5.69278 1.95465 0
M  V30 48403 H 4871.78 3.03696 -0.0159626 0
M  V30 48404 H 4869.37 1.49219 -0.0735588 0
M  V30 48405 H 4871.25 3.46424 2.39934 0
M  V30 48406 H 4869.93 2.27203 2.30566 0
M  V30 48407 H 4868.83 3.70907 0.487721 0
M  V30 48408 H 4870.17 4.87739 0.661205 0
M  V30 48409 N 4871.82 0.0351614 1.57561 0
M  V30 48410 C 4873.04 -0.655733 1.96761 0
M  V30 48411 C 4873.47 -1.64519 0.911866 0
M  V30 48412 O 4872.83 -1.80857 -0.12661 0
M  V30 48413 C 4872.87 -1.33314 3.35052 0
M  V30 48414 O 4871.98 -2.44855 3.31843 0
M  V30 48415 H 4871.32 -0.171784 0.641394 0
M  V30 48416 H 4873.85 0.0988087 2.04361 0
M  V30 48417 H 4873.86 -1.68854 3.71419 0
M  V30 48418 H 4872.53 -0.607888 4.11434 0
M  V30 48419 H 4871.11 -2.11382 3.07201 0
M  V30 48420 N 4873.3 -1.55792 -0.238056 0
M  V30 48421 C 4874.71 -1.68386 -0.806413 0
M  V30 48422 C 4875.06 -0.634222 -1.85667 0
M  V30 48423 O 4874.18 0.217837 -2.15301 0
M  V30 48424 C 4874.78 -3.05273 -1.46949 0
M  V30 48425 C 4873.34 -3.19777 -1.98543 0
M  V30 48426 C 4872.48 -2.64282 -0.83967 0
M  V30 48427 H 4875.43 -1.58694 -0.0136977 0
M  V30 48428 H 4875.46 -3.00211 -2.33781 0
M  V30 48429 H 4874.97 -3.81646 -0.704858 0
M  V30 48430 H 4873.07 -2.48244 -2.77859 0
M  V30 48431 H 4873.18 -4.26796 -2.17674 0
M  V30 48432 H 4871.55 -2.22334 -1.24257 0
M  V30 48433 H 4872.33 -3.43187 -0.0879825 0
M  V30 48434 N 4874.77 0.504089 -1.49321 0
M  V30 48435 C 4876.18 1.08567 -1.51889 0
M  V30 48436 C 4876.54 1.93841 -0.303323 0
M  V30 48437 O 4875.66 2.08282 0.587166 0
M  V30 48438 C 4876.26 1.97564 -2.75234 0
M  V30 48439 C 4874.81 2.5089 -2.8059 0
M  V30 48440 C 4873.96 1.28439 -2.45762 0
M  V30 48441 H 4876.91 0.288139 -1.56062 0
M  V30 48442 H 4876.93 2.8221 -2.55221 0
M  V30 48443 H 4876.45 1.35473 -3.63688 0
M  V30 48444 H 4874.55 3.16629 -1.96409 0
M  V30 48445 H 4874.66 2.88254 -3.82683 0
M  V30 48446 H 4873.02 1.60861 -1.97474 0
M  V30 48447 H 4873.81 0.680602 -3.36486 0
M  V30 48448 N 4876.25 1.38343 0.754909 0
M  V30 48449 C 4877.48 1.3751 1.5419 0
M  V30 48450 C 4877.89 -0.0373122 1.89163 0
M  V30 48451 O 4877.23 -1.01396 1.53181 0
M  V30 48452 C 4877.29 2.16498 2.87 0
M  V30 48453 C 4876.96 3.65321 2.74572 0
M  V30 48454 C 4877.96 4.58843 2.44458 0
M  V30 48455 C 4875.64 4.0866 2.92066 0
M  V30 48456 C 4877.63 5.93683 2.3199 0
M  V30 48457 C 4875.32 5.43581 2.79218 0
M  V30 48458 C 4876.32 6.35907 2.49222 0
M  V30 48459 O 4876.01 7.68346 2.36431 0
M  V30 48460 H 4875.74 0.472176 0.483763 0
M  V30 48461 H 4878.29 1.82518 0.942146 0
M  V30 48462 H 4876.52 1.66206 3.4916 0
M  V30 48463 H 4878.21 2.08088 3.48503 0
M  V30 48464 H 4878.98 4.26665 2.30612 0
M  V30 48465 H 4874.86 3.37146 3.1441 0
M  V30 48466 H 4878.4 6.65713 2.08499 0
M  V30 48467 H 4874.3 5.75356 2.92637 0
M  V30 48468 H 4875.07 7.78854 2.51653 0
M  V30 48469 N 4877.73 -0.982945 1.23191 0
M  V30 48470 C 4878.69 -2.05646 1.01205 0
M  V30 48471 C 4879.69 -1.6078 -0.0251898 0
M  V30 48472 O 4880.88 -1.72877 0.214304 0
M  V30 48473 C 4878.01 -3.36743 0.530774 0
M  V30 48474 H 4879.21 -2.26583 1.96469 0
M  V30 48475 H 4876.76 -1.15598 1.05199 0
M  V30 48476 H 4877.5 -3.21493 -0.42576 0
M  V30 48477 H 4877.28 -3.70646 1.27923 0
M  V30 48478 H 4878.77 -4.15704 0.397512 0
M  V30 48479 N 4879.21 -1.0432 -1.18132 0
M  V30 48480 C 4880.44 -0.768184 -1.92111 0
M  V30 48481 C 4880.85 0.674995 -1.76321 0
M  V30 48482 O 4880.21 1.46034 -1.09454 0
M  V30 48483 C 4880.26 -1.1282 -3.43444 0
M  V30 48484 O 4879.98 -2.51472 -3.58739 0
M  V30 48485 C 4881.48 -0.878052 -4.34517 0
M  V30 48486 H 4878.7 -0.279958 -0.609807 0
M  V30 48487 H 4881.25 -1.39154 -1.49855 0
M  V30 48488 H 4879.4 -0.549758 -3.83479 0
M  V30 48489 H 4879.81 -2.65329 -4.52439 0
M  V30 48490 H 4881.29 -1.17978 -5.39245 0
M  V30 48491 H 4881.77 0.187085 -4.38801 0
M  V30 48492 H 4882.37 -1.43991 -4.00183 0
M  V30 48493 N 4880.69 1.34403 -0.823012 0
M  V30 48494 C 4881.91 2.02507 -0.424111 0
M  V30 48495 C 4882.33 1.61979 0.969965 0
M  V30 48496 O 4881.69 0.825286 1.62774 0
M  V30 48497 C 4881.74 3.57787 -0.516783 0
M  V30 48498 O 4881.46 3.96847 -1.85591 0
M  V30 48499 C 4882.96 4.43156 -0.112793 0
M  V30 48500 H 4880.18 0.649057 -0.170196 0
M  V30 48501 H 4882.72 1.71676 -1.11119 0
M  V30 48502 H 4880.88 3.87207 0.122217 0
M  V30 48503 H 4881.29 4.91531 -1.83022 0
M  V30 48504 H 4882.77 5.51526 -0.22872 0
M  V30 48505 H 4883.24 4.28942 0.943686 0
M  V30 48506 H 4883.85 4.19065 -0.725596 0
M  V30 48507 N 4882.16 0.577983 1.46619 0
M  V30 48508 C 4883.41 0.0618505 2.02706 0
M  V30 48509 C 4883.74 -1.29288 1.44907 0
M  V30 48510 O 4883.02 -1.84608 0.612385 0
M  V30 48511 C 4883.3 -0.00899165 3.60099 0
M  V30 48512 C 4883.15 1.37431 4.28291 0
M  V30 48513 C 4884.47 -0.712006 4.34302 0
M  V30 48514 H 4881.59 0.0239505 0.736611 0
M  V30 48515 H 4884.23 0.744273 1.74816 0
M  V30 48516 H 4882.38 -0.590157 3.83991 0
M  V30 48517 H 4884.06 2.00028 4.15676 0
M  V30 48518 H 4882.3 1.94333 3.87836 0
M  V30 48519 H 4882.97 1.27726 5.3702 0
M  V30 48520 H 4885.45 -0.21834 4.15527 0
M  V30 48521 H 4884.32 -0.73059 5.44016 0
M  V30 48522 H 4884.58 -1.77237 4.05018 0
M  V30 48523 N 4883.64 -1.54409 0.315511 0
M  V30 48524 C 4885.05 -1.85886 -0.1742 0
M  V30 48525 C 4885.4 -1.23728 -1.52269 0
M  V30 48526 O 4884.53 -0.54032 -2.09546 0
M  V30 48527 C 4885.12 -3.37258 -0.322862 0
M  V30 48528 C 4883.68 -3.68713 -0.756793 0
M  V30 48529 C 4882.83 -2.77012 0.126292 0
M  V30 48530 H 4885.78 -1.49372 0.53606 0
M  V30 48531 H 4885.8 -3.62543 -1.1551 0
M  V30 48532 H 4885.31 -3.82469 0.658736 0
M  V30 48533 H 4883.42 -3.2903 -1.74842 0
M  V30 48534 H 4883.53 -4.75743 -0.566123 0
M  V30 48535 H 4881.89 -2.5159 -0.396831 0
M  V30 48536 H 4882.68 -3.25047 1.10451 0
M  V30 48537 N 4885.12 -0.0435168 -1.5754 0
M  V30 48538 C 4886.03 0.948855 -2.14555 0
M  V30 48539 C 4887.05 1.34704 -1.10141 0
M  V30 48540 O 4888.22 1.42552 -1.42271 0
M  V30 48541 C 4885.29 2.2079 -2.67306 0
M  V30 48542 C 4884.35 1.86879 -3.8649 0
M  V30 48543 C 4883.58 3.06782 -4.36716 0
M  V30 48544 O 4883.8 4.19908 -3.86049 0
M  V30 48545 O 4882.74 2.88241 -5.28395 0
M  V30 48546 H 4886.56 0.493994 -2.99655 0
M  V30 48547 H 4884.15 0.177937 -1.48337 0
M  V30 48548 H 4886.03 2.94675 -3.01239 0
M  V30 48549 H 4884.71 2.65429 -1.85281 0
M  V30 48550 H 4883.61 1.10334 -3.57459 0
M  V30 48551 H 4884.95 1.47046 -4.69722 0
M  V30 48552 N 4886.6 1.55916 0.229791 0
M  V30 48553 C 4887.55 1.88134 1.288 0
M  V30 48554 C 4888.53 0.743671 1.42683 0
M  V30 48555 O 4889.72 1.00593 1.45636 0
M  V30 48556 C 4886.85 2.1944 2.64009 0
M  V30 48557 C 4885.94 3.39578 2.54062 0
M  V30 48558 N 4886.33 4.58411 2.13758 0
M  V30 48559 C 4884.63 3.43029 2.85039 0
M  V30 48560 C 4885.33 5.40564 2.14861 0
M  V30 48561 N 4884.31 4.80063 2.5503 0
M  V30 48562 H 4888.11 2.7753 0.967163 0
M  V30 48563 H 4885.62 1.56371 0.438378 0
M  V30 48564 H 4887.62 2.40693 3.404 0
M  V30 48565 H 4886.28 1.31352 2.96946 0
M  V30 48566 H 4887.29 4.83722 1.85023 0
M  V30 48567 H 4883.97 2.65261 3.22402 0
M  V30 48568 H 4885.36 6.45672 1.85895 0
M  V30 48569 N 4888.08 -0.496163 1.49586 0
M  V30 48570 C 4889.04 -1.57946 1.6609 0
M  V30 48571 C 4890.04 -1.51727 0.532493 0
M  V30 48572 O 4891.23 -1.54793 0.799045 0
M  V30 48573 C 4888.36 -2.97598 1.66278 0
M  V30 48574 H 4889.55 -1.4464 2.62715 0
M  V30 48575 H 4887.11 -0.720751 1.3869 0
M  V30 48576 H 4887.84 -3.16375 0.712543 0
M  V30 48577 H 4887.63 -3.0352 2.4823 0
M  V30 48578 H 4889.12 -3.76294 1.81087 0
M  V30 48579 N 4889.55 -1.38742 -0.747561 0
M  V30 48580 C 4890.78 -1.38707 -1.54192 0
M  V30 48581 C 4891.2 0.0195978 -1.8809 0
M  V30 48582 O 4890.56 1.00328 -1.5101 0
M  V30 48583 C 4890.61 -2.25501 -2.81392 0
M  V30 48584 O 4889.71 -1.67626 -3.76796 0
M  V30 48585 H 4889.06 -0.472879 -0.466134 0
M  V30 48586 H 4891.59 -1.8258 -0.923348 0
M  V30 48587 H 4891.6 -2.39573 -3.30256 0
M  V30 48588 H 4890.27 -3.27736 -2.5605 0
M  V30 48589 H 4888.85 -1.62729 -3.3552 0
M  V30 48590 N 4891.03 0.976398 -1.2371 0
M  V30 48591 C 4892.28 1.72077 -1.07318 0
M  V30 48592 C 4892.61 1.90276 0.388409 0
M  V30 48593 O 4891.89 1.45794 1.28741 0
M  V30 48594 C 4892.17 3.11669 -1.80374 0
M  V30 48595 C 4892.02 3.01015 -3.3423 0
M  V30 48596 C 4893.34 4.11165 -1.56944 0
M  V30 48597 H 4890.46 0.624569 -0.391258 0
M  V30 48598 H 4893.1 1.13644 -1.52267 0
M  V30 48599 H 4891.25 3.61554 -1.42166 0
M  V30 48600 H 4892.92 2.58623 -3.81984 0
M  V30 48601 H 4891.17 2.37428 -3.63057 0
M  V30 48602 H 4891.84 3.99867 -3.8054 0
M  V30 48603 H 4894.31 3.70104 -1.90164 0
M  V30 48604 H 4893.19 5.0692 -2.10531 0
M  V30 48605 H 4893.45 4.39198 -0.505702 0
M  V30 48606 N 4892.51 1.04945 1.17577 0
M  V30 48607 C 4893.44 0.606252 2.21037 0
M  V30 48608 C 4894.46 -0.328707 1.59447 0
M  V30 48609 O 4895.64 -0.121832 1.78084 0
M  V30 48610 C 4892.74 -0.133175 3.38638 0
M  V30 48611 C 4891.92 0.811862 4.29799 0
M  V30 48612 C 4890.98 0.114143 5.26076 0
M  V30 48613 O 4890 0.747435 5.64271 0
M  V30 48614 N 4891.2 -1.14933 5.69009 0
M  V30 48615 H 4893.97 1.49615 2.59683 0
M  V30 48616 H 4891.53 0.931044 1.32451 0
M  V30 48617 H 4893.52 -0.610003 4.00076 0
M  V30 48618 H 4892.09 -0.924711 2.9861 0
M  V30 48619 H 4891.31 1.46837 3.65831 0
M  V30 48620 H 4892.6 1.45343 4.87599 0
M  V30 48621 H 4892 -1.68422 5.40047 0
M  V30 48622 H 4890.56 -1.57027 6.32602 0
M  V30 48623 N 4893.99 -1.33965 0.830128 0
M  V30 48624 C 4894.95 -2.27693 0.26243 0
M  V30 48625 C 4895.95 -1.50591 -0.563823 0
M  V30 48626 O 4897.14 -1.7003 -0.378881 0
M  V30 48627 C 4894.27 -3.35004 -0.631262 0
M  V30 48628 H 4895.47 -2.79415 1.08938 0
M  V30 48629 H 4893.02 -1.44219 0.602537 0
M  V30 48630 H 4893.76 -2.88509 -1.48099 0
M  V30 48631 H 4893.54 -3.92079 -0.0401897 0
M  V30 48632 H 4895.03 -4.049 -1.02203 0
M  V30 48633 N 4895.47 -0.585751 -1.4631 0
M  V30 48634 C 4896.72 -0.072349 -2.0197 0
M  V30 48635 C 4897.04 1.2934 -1.45932 0
M  V30 48636 O 4896.31 1.84971 -0.645174 0
M  V30 48637 H 4894.89 -0.0237553 -0.746622 0
M  V30 48638 H 4897.55 -0.762218 -1.79377 0
M  V30 48639 H 4896.64 -0.00563739 -3.12099 0
M  V30 48640 N 4896.95 1.5424 -0.323695 0
M  V30 48641 C 4897.86 2.28035 0.551125 0
M  V30 48642 C 4898.87 1.32392 1.12909 0
M  V30 48643 O 4900.05 1.65407 1.14902 0
M  V30 48644 C 4897.11 3.02388 1.69595 0
M  V30 48645 C 4896.17 4.13616 1.14978 0
M  V30 48646 C 4895.41 4.84415 2.24005 0
M  V30 48647 O 4895.63 4.54728 3.44352 0
M  V30 48648 O 4894.56 5.71319 1.89416 0
M  V30 48649 H 4898.39 3.03662 -0.0481727 0
M  V30 48650 H 4895.97 1.49132 -0.0893813 0
M  V30 48651 H 4897.86 3.48949 2.36246 0
M  V30 48652 H 4896.53 2.29636 2.28143 0
M  V30 48653 H 4895.44 3.71404 0.448354 0
M  V30 48654 H 4896.77 4.88412 0.609436 0
M  V30 48655 N 4898.42 0.0518709 1.57515 0
M  V30 48656 C 4899.65 -0.631326 1.97033 0
M  V30 48657 C 4900.07 -1.64338 0.929438 0
M  V30 48658 O 4899.42 -1.82296 -0.0862625 0
M  V30 48659 C 4899.47 -1.31762 3.36632 0
M  V30 48660 O 4899.2 -0.346093 4.36731 0
M  V30 48661 C 4900.7 -2.09051 3.90912 0
M  V30 48662 H 4897.92 -0.172554 0.648434 0
M  V30 48663 H 4900.46 0.118378 2.04157 0
M  V30 48664 H 4898.62 -2.01855 3.30656 0
M  V30 48665 H 4899.03 -0.836044 5.17794 0
M  V30 48666 H 4900.5 -2.52491 4.90869 0
M  V30 48667 H 4900.98 -2.93896 3.26377 0
M  V30 48668 H 4901.59 -1.43867 4.00228 0
M  V30 48669 N 4899.9 -1.56035 -0.221519 0
M  V30 48670 C 4901.15 -1.79315 -0.947309 0
M  V30 48671 C 4901.48 -0.621517 -1.83986 0
M  V30 48672 O 4900.76 0.37922 -1.90767 0
M  V30 48673 C 4901.04 -3.12676 -1.78622 0
M  V30 48674 C 4900.89 -4.40288 -0.920157 0
M  V30 48675 C 4902.21 -3.42479 -2.76398 0
M  V30 48676 H 4899.33 -0.65234 -0.34296 0
M  V30 48677 H 4901.97 -1.88766 -0.216178 0
M  V30 48678 H 4900.12 -3.0475 -2.40956 0
M  V30 48679 H 4901.79 -4.60233 -0.313556 0
M  V30 48680 H 4900.04 -4.33213 -0.225582 0
M  V30 48681 H 4900.71 -5.30039 -1.54152 0
M  V30 48682 H 4903.18 -3.50534 -2.24199 0
M  V30 48683 H 4902.06 -4.36962 -3.32198 0
M  V30 48684 H 4902.32 -2.64648 -3.54138 0
M  V30 48685 N 4901.38 0.488223 -1.49847 0
M  V30 48686 C 4902.31 1.60533 -1.6359 0
M  V30 48687 C 4903.32 1.54338 -0.518026 0
M  V30 48688 O 4904.51 1.60038 -0.790572 0
M  V30 48689 C 4901.61 2.99368 -1.58845 0
M  V30 48690 C 4900.79 3.30614 -2.8638 0
M  V30 48691 C 4899.85 4.4892 -2.74512 0
M  V30 48692 O 4898.87 4.50072 -3.48459 0
M  V30 48693 N 4900.07 5.49585 -1.86914 0
M  V30 48694 H 4902.84 1.49167 -2.59941 0
M  V30 48695 H 4900.4 0.676339 -1.47096 0
M  V30 48696 H 4902.39 3.76454 -1.48542 0
M  V30 48697 H 4900.96 3.04593 -0.702999 0
M  V30 48698 H 4900.18 2.42303 -3.10939 0
M  V30 48699 H 4901.47 3.48292 -3.70904 0
M  V30 48700 H 4900.87 5.51463 -1.26116 0
M  V30 48701 H 4899.42 6.25722 -1.82525 0
M  V30 48702 N 4902.86 1.39136 0.740193 0
M  V30 48703 C 4903.79 1.40172 1.86746 0
M  V30 48704 C 4904.77 0.265767 1.68011 0
M  V30 48705 O 4905.95 0.470826 1.88406 0
M  V30 48706 C 4903.08 1.23931 3.24436 0
M  V30 48707 C 4902.04 2.34871 3.57798 0
M  V30 48708 C 4901.36 2.03724 4.94369 0
M  V30 48709 C 4902.66 3.77171 3.61302 0
M  V30 48710 H 4904.36 2.34507 1.86137 0
M  V30 48711 H 4901.9 1.12878 0.894121 0
M  V30 48712 H 4903.86 1.23277 4.02965 0
M  V30 48713 H 4902.58 0.260625 3.25558 0
M  V30 48714 H 4901.24 2.34733 2.81596 0
M  V30 48715 H 4900.89 1.04306 4.92066 0
M  V30 48716 H 4900.59 2.78034 5.17659 0
M  V30 48717 H 4902.11 2.04712 5.75261 0
M  V30 48718 H 4903.53 3.79267 4.29918 0
M  V30 48719 H 4901.92 4.50798 3.96108 0
M  V30 48720 H 4902.99 4.08522 2.61223 0
M  V30 48721 N 4904.34 -0.969824 1.24226 0
M  V30 48722 C 4905.27 -2.06687 0.990622 0
M  V30 48723 C 4906.28 -1.62753 -0.039165 0
M  V30 48724 O 4907.47 -1.77403 0.197623 0
M  V30 48725 C 4904.57 -3.35587 0.472712 0
M  V30 48726 C 4903.74 -4.08439 1.56514 0
M  V30 48727 C 4902.8 -5.15612 1.05025 0
M  V30 48728 O 4901.83 -5.41905 1.74149 0
M  V30 48729 N 4903.03 -5.80383 -0.116437 0
M  V30 48730 H 4905.79 -2.28848 1.93516 0
M  V30 48731 H 4903.36 -1.13729 1.15227 0
M  V30 48732 H 4905.35 -4.04542 0.113061 0
M  V30 48733 H 4903.92 -3.10312 -0.377508 0
M  V30 48734 H 4903.14 -3.33791 2.09708 0
M  V30 48735 H 4904.43 -4.53874 2.29948 0
M  V30 48736 H 4903.82 -5.61422 -0.694392 0
M  V30 48737 H 4902.38 -6.50463 -0.417254 0
M  V30 48738 N 4905.81 -1.05567 -1.17018 0
M  V30 48739 C 4907.05 -0.777099 -1.89052 0
M  V30 48740 C 4907.42 0.683554 -1.7942 0
M  V30 48741 O 4908.62 1.0764 -2.46307 0
M  V30 48742 C 4906.89 -1.24898 -3.34866 0
M  V30 48743 S 4908.45 -1.09835 -4.24832 0
M  V30 48744 H 4905.27 -0.282104 -0.652639 0
M  V30 48745 H 4907.87 -1.35108 -1.41301 0
M  V30 48746 H 4906.57 -2.30711 -3.39412 0
M  V30 48747 H 4906.1 -0.669428 -3.87663 0
M  V30 48748 H 4908.12 -0.0247945 -4.96194 0
M  V30 48749 N 4907.29 1.33523 -0.837221 0
M  V30 48750 C 4908.22 2.31763 -0.284287 0
M  V30 48751 C 4909.2 1.58898 0.607086 0
M  V30 48752 O 4910.39 1.868 0.530982 0
M  V30 48753 C 4907.52 3.43031 0.542841 0
M  V30 48754 C 4906.47 4.27254 -0.252601 0
M  V30 48755 C 4905.8 5.30122 0.698173 0
M  V30 48756 C 4907.1 5.01223 -1.46875 0
M  V30 48757 H 4908.79 2.78258 -1.10512 0
M  V30 48758 H 4906.34 1.33778 -0.532859 0
M  V30 48759 H 4908.29 4.10783 0.939952 0
M  V30 48760 H 4907.01 2.95221 1.39687 0
M  V30 48761 H 4905.67 3.61124 -0.631251 0
M  V30 48762 H 4905.32 4.7857 1.54855 0
M  V30 48763 H 4905.02 5.87354 0.170068 0
M  V30 48764 H 4906.55 6.00741 1.09283 0
M  V30 48765 H 4907.96 5.61752 -1.14489 0
M  V30 48766 H 4906.36 5.68098 -1.93353 0
M  V30 48767 H 4907.43 4.30092 -2.2394 0
M  V30 48768 N 4908.77 0.593501 1.45998 0
M  V30 48769 C 4909.73 -0.123457 2.28867 0
M  V30 48770 C 4910.73 -0.80858 1.38991 0
M  V30 48771 O 4911.92 -0.658888 1.61259 0
M  V30 48772 C 4909.06 -1.18459 3.19657 0
M  V30 48773 H 4910.25 0.604946 2.93735 0
M  V30 48774 H 4907.8 0.351929 1.52286 0
M  V30 48775 H 4908.54 -1.94422 2.59559 0
M  V30 48776 H 4908.32 -0.697694 3.85843 0
M  V30 48777 H 4909.81 -1.68712 3.82002 0
M  V30 48778 N 4910.25 -1.54066 0.33187 0
M  V30 48779 C 4911.2 -2.21365 -0.546023 0
M  V30 48780 C 4912.18 -1.19702 -1.07519 0
M  V30 48781 O 4913.37 -1.45297 -1.01083 0
M  V30 48782 C 4910.5 -2.98121 -1.70231 0
M  V30 48783 C 4909.59 -4.07131 -1.18764 0
M  V30 48784 N 4909.98 -5.04269 -0.393288 0
M  V30 48785 C 4908.28 -4.21231 -1.46561 0
M  V30 48786 C 4908.98 -5.81586 -0.115368 0
M  V30 48787 N 4907.96 -5.39025 -0.703797 0
M  V30 48788 H 4911.76 -2.93821 0.0680784 0
M  V30 48789 H 4909.27 -1.61811 0.138142 0
M  V30 48790 H 4911.27 -3.44826 -2.34309 0
M  V30 48791 H 4909.93 -2.27189 -2.31981 0
M  V30 48792 H 4910.94 -5.17888 -0.0353937 0
M  V30 48793 H 4907.62 -3.61516 -2.08835 0
M  V30 48794 H 4909.01 -6.69848 0.524662 0
M  V30 48795 N 4911.73 -0.0602235 -1.57485 0
M  V30 48796 C 4912.97 0.610319 -1.92664 0
M  V30 48797 C 4913.3 1.70846 -0.940041 0
M  V30 48798 O 4912.57 1.95895 0.0136766 0
M  V30 48799 H 4911.15 0.228432 -0.711216 0
M  V30 48800 H 4913.81 -0.115357 -1.94558 0
M  V30 48801 H 4912.9 1.0431 -2.94153 0
M  V30 48802 N 4913.2 1.56151 0.213241 0
M  V30 48803 C 4914.43 1.83641 0.953074 0
M  V30 48804 C 4914.85 0.640425 1.77606 0
M  V30 48805 O 4914.2 -0.391008 1.78262 0
M  V30 48806 C 4914.26 3.09741 1.86394 0
M  V30 48807 O 4913.98 4.24726 1.0742 0
M  V30 48808 C 4915.48 3.50279 2.71697 0
M  V30 48809 H 4912.7 0.610273 0.27894 0
M  V30 48810 H 4915.24 2.03248 0.225963 0
M  V30 48811 H 4913.4 2.92085 2.54489 0
M  V30 48812 H 4913.81 4.96416 1.69326 0
M  V30 48813 H 4915.28 4.41527 3.31297 0
M  V30 48814 H 4915.76 2.72418 3.44507 0
M  V30 48815 H 4916.37 3.70403 2.09002 0
M  V30 48816 N 4914.68 -0.48027 1.50104 0
M  V30 48817 C 4916.09 -1.06136 1.53597 0
M  V30 48818 C 4916.44 -1.93334 0.334123 0
M  V30 48819 O 4915.57 -2.0919 -0.553956 0
M  V30 48820 C 4916.16 -1.9316 2.78342 0
M  V30 48821 C 4914.72 -2.46395 2.84546 0
M  V30 48822 C 4913.87 -1.24512 2.47774 0
M  V30 48823 H 4916.82 -0.263275 1.56501 0
M  V30 48824 H 4916.84 -2.78114 2.59678 0
M  V30 48825 H 4916.35 -1.2967 3.65797 0
M  V30 48826 H 4914.46 -3.13465 2.01422 0
M  V30 48827 H 4914.57 -2.8213 3.8722 0
M  V30 48828 H 4912.93 -1.57699 2.00008 0
M  V30 48829 H 4913.72 -0.626984 3.37526 0
M  V30 48830 N 4916.16 -1.39527 -0.732804 0
M  V30 48831 C 4917.57 -1.3291 -1.31117 0
M  V30 48832 C 4917.92 0.0055181 -1.96199 0
M  V30 48833 O 4917.05 0.907637 -1.96446 0
M  V30 48834 C 4917.64 -2.40712 -2.38418 0
M  V30 48835 C 4916.2 -2.37609 -2.91922 0
M  V30 48836 C 4915.35 -2.22486 -1.65515 0
M  V30 48837 H 4918.3 -1.49583 -0.530155 0
M  V30 48838 H 4918.32 -2.07627 -3.18859 0
M  V30 48839 H 4917.83 -3.37835 -1.91021 0
M  V30 48840 H 4915.93 -1.44131 -3.43594 0
M  V30 48841 H 4916.05 -3.3255 -3.44888 0
M  V30 48842 H 4914.41 -1.69697 -1.89934 0
M  V30 48843 H 4915.19 -3.21582 -1.20167 0
M  V30 48844 N 4917.64 0.963222 -1.24739 0
M  V30 48845 C 4918.57 2.07624 -1.06839 0
M  V30 48846 C 4919.55 1.70088 0.0199968 0
M  V30 48847 O 4920.73 1.93636 -0.147922 0
M  V30 48848 C 4917.86 3.40634 -0.677189 0
M  V30 48849 C 4916.82 3.92144 -1.71485 0
M  V30 48850 C 4916.14 5.21549 -1.17858 0
M  V30 48851 C 4917.44 4.19482 -3.11179 0
M  V30 48852 H 4919.14 2.22857 -1.99938 0
M  V30 48853 H 4916.68 1.07089 -0.962698 0
M  V30 48854 H 4918.64 4.17939 -0.538939 0
M  V30 48855 H 4917.36 3.25314 0.289497 0
M  V30 48856 H 4916.02 3.16999 -1.84139 0
M  V30 48857 H 4915.67 5.02593 -0.202372 0
M  V30 48858 H 4915.37 5.56981 -1.87205 0
M  V30 48859 H 4916.89 6.0146 -1.05254 0
M  V30 48860 H 4918.31 4.87476 -3.01728 0
M  V30 48861 H 4916.7 4.66152 -3.77919 0
M  V30 48862 H 4917.77 3.26085 -3.58883 0
M  V30 48863 N 4919.12 1.06186 1.16457 0
M  V30 48864 C 4920.34 0.79865 1.90864 0
M  V30 48865 C 4920.76 -0.646859 1.77373 0
M  V30 48866 O 4920.12 -1.44275 1.11764 0
M  V30 48867 C 4920.17 1.1827 3.41606 0
M  V30 48868 O 4919.89 2.57148 3.54692 0
M  V30 48869 C 4921.39 0.947069 4.33065 0
M  V30 48870 H 4918.61 0.289624 0.605276 0
M  V30 48871 H 4921.15 1.41521 1.47622 0
M  V30 48872 H 4919.31 0.610697 3.82556 0
M  V30 48873 H 4919.72 2.72493 4.4816 0
M  V30 48874 H 4921.2 1.26542 5.373 0
M  V30 48875 H 4921.67 -0.117252 4.39043 0
M  V30 48876 H 4922.28 1.5034 3.97842 0
M  V30 48877 N 4920.59 -1.33077 0.84429 0
M  V30 48878 C 4921.84 -1.97603 0.442619 0
M  V30 48879 C 4922.17 -1.6686 -0.9994 0
M  V30 48880 O 4921.42 -0.943646 -1.71446 0
M  V30 48881 C 4921.72 -3.52043 0.616477 0
M  V30 48882 C 4921.39 -4.02749 2.0274 0
M  V30 48883 C 4920.05 -4.16308 2.41332 0
M  V30 48884 C 4922.4 -4.29765 2.94875 0
M  V30 48885 C 4919.73 -4.54219 3.71351 0
M  V30 48886 C 4922.08 -4.69131 4.24381 0
M  V30 48887 C 4920.75 -4.80895 4.62921 0
M  V30 48888 H 4920.02 -0.723082 0.161966 0
M  V30 48889 H 4922.66 -1.58659 1.07235 0
M  V30 48890 H 4920.97 -3.91681 -0.0965435 0
M  V30 48891 H 4922.67 -3.9998 0.285897 0
M  V30 48892 H 4919.26 -3.92674 1.7177 0
M  V30 48893 H 4923.44 -4.18808 2.66295 0
M  V30 48894 H 4918.7 -4.61521 4.01009 0
M  V30 48895 H 4922.87 -4.88991 4.95844 0
M  V30 48896 H 4920.5 -5.10028 5.63715 0
M  V30 48897 N 4922.07 -0.601236 -1.45681 0
M  V30 48898 C 4923 0.159365 -2.28645 0
M  V30 48899 C 4924.02 0.837833 -1.39586 0
M  V30 48900 O 4925.21 0.704287 -1.64018 0
M  V30 48901 C 4922.31 1.2463 -3.15152 0
M  V30 48902 C 4921.48 0.656182 -4.3245 0
M  V30 48903 C 4920.54 1.63319 -5.00213 0
M  V30 48904 O 4919.56 1.16198 -5.57213 0
M  V30 48905 N 4920.77 2.96755 -4.98916 0
M  V30 48906 H 4923.53 -0.552504 -2.94563 0
M  V30 48907 H 4921.09 -0.440278 -1.55798 0
M  V30 48908 H 4923.08 1.89958 -3.57349 0
M  V30 48909 H 4921.65 1.86078 -2.51185 0
M  V30 48910 H 4920.87 -0.175018 -3.93811 0
M  V30 48911 H 4922.16 0.242032 -5.08224 0
M  V30 48912 H 4921.56 3.37646 -4.53885 0
M  V30 48913 H 4920.12 3.57522 -5.44997 0
M  V30 48914 N 4923.55 1.53888 -0.340036 0
M  V30 48915 C 4924.8 2.0185 0.250623 0
M  V30 48916 C 4925.15 1.22361 1.48478 0
M  V30 48917 O 4924.45 0.301972 1.89205 0
M  V30 48918 C 4924.64 3.5197 0.620611 0
M  V30 48919 C 4924.47 4.45994 -0.576138 0
M  V30 48920 C 4923.24 4.93616 -1.08036 0
M  V30 48921 C 4925.44 4.93918 -1.4335 0
M  V30 48922 N 4923.42 5.71582 -2.2398 0
M  V30 48923 C 4924.79 5.69973 -2.43989 0
M  V30 48924 C 4926.84 4.76033 -1.45935 0
M  V30 48925 C 4925.55 6.30045 -3.47039 0
M  V30 48926 C 4927.57 5.36952 -2.47864 0
M  V30 48927 C 4926.94 6.12871 -3.47229 0
M  V30 48928 H 4923.03 0.780056 0.0551094 0
M  V30 48929 H 4925.62 1.88721 -0.478807 0
M  V30 48930 H 4923.79 3.65312 1.31915 0
M  V30 48931 H 4925.52 3.86681 1.19416 0
M  V30 48932 H 4922.28 4.69132 -0.649005 0
M  V30 48933 H 4922.7 6.15237 -2.8251 0
M  V30 48934 H 4927.34 4.16885 -0.704754 0
M  V30 48935 H 4925.06 6.88304 -4.23395 0
M  V30 48936 H 4928.65 5.25021 -2.50687 0
M  V30 48937 H 4927.53 6.59172 -4.24808 0
M  V30 48938 N 4925.03 0.0685745 1.57451 0
M  V30 48939 C 4926.25 -0.613849 1.98108 0
M  V30 48940 C 4926.68 -1.62548 0.946558 0
M  V30 48941 O 4926.04 -1.81085 -0.0882187 0
M  V30 48942 C 4926.09 -1.26177 3.37804 0
M  V30 48943 O 4925.19 -2.37761 3.36962 0
M  V30 48944 H 4924.53 -0.158141 0.644893 0
M  V30 48945 H 4927.06 0.142135 2.04106 0
M  V30 48946 H 4927.07 -1.60938 3.74917 0
M  V30 48947 H 4925.75 -0.52048 4.1263 0
M  V30 48948 H 4924.32 -2.04818 3.11615 0
M  V30 48949 N 4926.51 -1.56262 -0.204957 0
M  V30 48950 C 4927.92 -1.49625 -0.55538 0
M  V30 48951 C 4928.12 -0.766784 -1.8634 0
M  V30 48952 O 4927.18 -0.313246 -2.50549 0
M  V30 48953 C 4928.49 -2.94255 -0.619244 0
M  V30 48954 C 4930.04 -3.0487 -0.708748 0
M  V30 48955 C 4930.52 -4.50891 -0.803811 0
M  V30 48956 N 4932.01 -4.55002 -0.867598 0
M  V30 48957 C 4932.74 -5.65287 -0.961151 0
M  V30 48958 N 4932.24 -6.85286 -1.01762 0
M  V30 48959 N 4934.03 -5.53177 -0.997576 0
M  V30 48960 H 4926.18 -2.02108 0.653165 0
M  V30 48961 H 4928.44 -0.919325 0.231398 0
M  V30 48962 H 4928.15 -3.50642 0.272582 0
M  V30 48963 H 4928.02 -3.47068 -1.47728 0
M  V30 48964 H 4930.41 -2.48538 -1.59101 0
M  V30 48965 H 4930.49 -2.55199 0.175295 0
M  V30 48966 H 4930.14 -5.07846 0.0740583 0
M  V30 48967 H 4930.07 -4.98285 -1.70351 0
M  V30 48968 H 4932.56 -3.68591 -0.833605 0
M  V30 48969 H 4932.87 -7.65085 -1.08924 0
M  V30 48970 H 4931.22 -6.87964 -0.986464 0
M  V30 48971 H 4934.41 -4.58354 -0.950231 0
M  V30 48972 H 4934.58 -6.39155 -1.06703 0
M  V30 48973 N 4927.99 0.472303 -1.50356 0
M  V30 48974 C 4929.23 1.22629 -1.61524 0
M  V30 48975 C 4929.56 1.91644 -0.314062 0
M  V30 48976 O 4928.84 1.82062 0.684382 0
M  V30 48977 C 4929.12 2.27089 -2.79468 0
M  V30 48978 C 4928.98 1.62387 -4.19465 0
M  V30 48979 C 4930.29 3.2841 -2.92976 0
M  V30 48980 H 4927.41 0.444473 -0.587888 0
M  V30 48981 H 4930.06 0.520257 -1.82738 0
M  V30 48982 H 4928.21 2.87305 -2.61511 0
M  V30 48983 H 4929.88 1.05778 -4.49009 0
M  V30 48984 H 4928.12 0.927035 -4.23779 0
M  V30 48985 H 4928.79 2.38291 -4.97917 0
M  V30 48986 H 4931.27 2.78216 -3.09411 0
M  V30 48987 H 4930.14 3.98831 -3.77127 0
M  V30 48988 H 4930.4 3.9246 -2.03538 0
M  V30 48989 N 4929.46 1.39914 0.725394 0
M  V30 48990 C 4930.71 1.37388 1.4822 0
M  V30 48991 C 4931.03 -0.0263422 1.94982 0
M  V30 48992 O 4930.3 -0.979348 1.69663 0
M  V30 48993 H 4928.88 0.505616 0.549874 0
M  V30 48994 H 4931.54 1.74873 0.860546 0
M  V30 48995 H 4930.64 2.04262 2.35973 0
M  V30 48996 N 4930.94 -0.956593 1.25248 0
M  V30 48997 C 4932.17 -1.741 1.12712 0
M  V30 48998 C 4932.59 -1.85438 -0.315363 0
M  V30 48999 O 4931.95 -1.33339 -1.22843 0
M  V30 49000 C 4932 -3.13374 1.78407 0
M  V30 49001 O 4931.1 -3.98481 1.06238 0
M  V30 49002 H 4930.44 -0.534746 0.393628 0
M  V30 49003 H 4932.97 -1.19918 1.65773 0
M  V30 49004 H 4932.98 -3.63844 1.84613 0
M  V30 49005 H 4931.66 -3.04438 2.83356 0
M  V30 49006 H 4930.23 -3.56949 1.07898 0
M  V30 49007 N 4932.42 -1.06802 -1.15892 0
M  V30 49008 C 4933.64 -0.808806 -1.90979 0
M  V30 49009 C 4934.07 0.631537 -1.77181 0
M  V30 49010 O 4933.43 1.44066 -1.10066 0
M  V30 49011 C 4933.48 -1.2148 -3.39522 0
M  V30 49012 O 4932.58 -0.356706 -4.10854 0
M  V30 49013 H 4931.92 -0.295141 -0.594801 0
M  V30 49014 H 4934.45 -1.42518 -1.46799 0
M  V30 49015 H 4934.46 -1.18857 -3.90304 0
M  V30 49016 H 4933.14 -2.26391 -3.48884 0
M  V30 49017 H 4931.71 -0.444939 -3.70236 0
M  V30 49018 N 4933.9 1.32627 -0.851335 0
M  V30 49019 C 4934.83 2.31448 -0.308853 0
M  V30 49020 C 4935.81 1.59533 0.590199 0
M  V30 49021 O 4936.99 1.87353 0.511139 0
M  V30 49022 C 4934.12 3.43588 0.506428 0
M  V30 49023 C 4933.08 4.26962 -0.297903 0
M  V30 49024 C 4932.4 5.30833 0.641907 0
M  V30 49025 C 4933.7 4.99637 -1.52183 0
M  V30 49026 H 4935.4 2.7707 -1.13457 0
M  V30 49027 H 4932.94 1.33206 -0.547018 0
M  V30 49028 H 4934.9 4.11757 0.89633 0
M  V30 49029 H 4933.62 2.96685 1.36548 0
M  V30 49030 H 4932.28 3.60434 -0.669518 0
M  V30 49031 H 4931.93 4.80185 1.49771 0
M  V30 49032 H 4931.63 5.87501 0.107761 0
M  V30 49033 H 4933.15 6.01866 1.02906 0
M  V30 49034 H 4934.57 5.60506 -1.20441 0
M  V30 49035 H 4932.96 5.66015 -1.99367 0
M  V30 49036 H 4934.03 4.27693 -2.28489 0
M  V30 49037 N 4935.38 0.608953 1.4536 0
M  V30 49038 C 4936.79 0.189577 1.85735 0
M  V30 49039 C 4937.14 -1.25385 1.50908 0
M  V30 49040 O 4936.26 -1.9509 0.936415 0
M  V30 49041 C 4936.86 0.337278 3.37117 0
M  V30 49042 C 4935.42 -0.0274164 3.7639 0
M  V30 49043 C 4934.56 0.661078 2.69305 0
M  V30 49044 H 4937.51 0.815547 1.36142 0
M  V30 49045 H 4937.54 -0.430124 3.78061 0
M  V30 49046 H 4937.05 1.38792 3.62434 0
M  V30 49047 H 4935.15 -1.07718 3.5669 0
M  V30 49048 H 4935.26 0.367186 4.77691 0
M  V30 49049 H 4933.63 0.0985852 2.54509 0
M  V30 49050 H 4934.41 1.71388 2.97458 0
M  V30 49051 N 4936.85 -1.53705 0.348193 0
M  V30 49052 C 4938.1 -2.00592 -0.246407 0
M  V30 49053 C 4938.42 -1.23759 -1.50694 0
M  V30 49054 O 4937.69 -0.346032 -1.9282 0
M  V30 49055 H 4936.27 -0.741057 -0.0940418 0
M  V30 49056 H 4938.93 -1.89138 0.470421 0
M  V30 49057 H 4938.03 -3.08299 -0.485605 0
M  V30 49058 N 4938.33 -0.0769235 -1.57412 0
M  V30 49059 C 4939.75 0.279717 -1.5713 0
M  V30 49060 C 4939.95 1.69684 -1.08672 0
M  V30 49061 O 4939 2.4095 -0.754928 0
M  V30 49062 C 4940.32 0.0846998 -3.00581 0
M  V30 49063 C 4941.87 0.153844 -3.12622 0
M  V30 49064 C 4942.34 -0.0129556 -4.57998 0
M  V30 49065 N 4943.83 0.0424807 -4.63181 0
M  V30 49066 C 4944.57 -0.0620908 -5.73366 0
M  V30 49067 N 4944.06 -0.220472 -6.92449 0
M  V30 49068 N 4945.86 -0.00465832 -5.621 0
M  V30 49069 H 4938.01 -1.00303 -1.87224 0
M  V30 49070 H 4940.27 -0.391596 -0.86334 0
M  V30 49071 H 4939.98 -0.893369 -3.40164 0
M  V30 49072 H 4939.85 0.834832 -3.67846 0
M  V30 49073 H 4942.24 1.1224 -2.72921 0
M  V30 49074 H 4942.32 -0.627476 -2.47985 0
M  V30 49075 H 4941.96 -0.978303 -4.98389 0
M  V30 49076 H 4941.89 0.787833 -5.20673 0
M  V30 49077 H 4944.38 0.163094 -3.77548 0
M  V30 49078 H 4944.7 -0.292271 -7.72247 0
M  V30 49079 H 4943.04 -0.255902 -6.94529 0
M  V30 49080 H 4946.23 0.117814 -4.67952 0
M  V30 49081 H 4946.4 -0.0896074 -6.47938 0
M  V30 49082 N 4939.81 1.56368 0.196667 0
M  V30 49083 C 4940.77 1.93566 1.2274 0
M  V30 49084 C 4941.77 0.816615 1.38521 0
M  V30 49085 O 4942.96 1.08405 1.3636 0
M  V30 49086 C 4940.1 2.20832 2.59704 0
M  V30 49087 H 4941.29 2.85777 0.909485 0
M  V30 49088 H 4938.84 1.50034 0.438121 0
M  V30 49089 H 4939.58 1.31253 2.96552 0
M  V30 49090 H 4939.36 3.02377 2.49621 0
M  V30 49091 H 4940.85 2.5062 3.34035 0
M  V30 49092 N 4941.29 -0.464322 1.50605 0
M  V30 49093 C 4942.52 -1.23901 1.65699 0
M  V30 49094 C 4942.93 -1.85656 0.343092 0
M  V30 49095 O 4942.29 -1.69531 -0.675679 0
M  V30 49096 C 4942.34 -2.3428 2.75309 0
M  V30 49097 O 4942.06 -1.75056 4.01606 0
M  V30 49098 C 4943.56 -3.2504 3.01436 0
M  V30 49099 H 4940.78 -0.374465 0.556791 0
M  V30 49100 H 4943.33 -0.55346 1.96868 0
M  V30 49101 H 4941.48 -2.98599 2.46815 0
M  V30 49102 H 4941.89 -2.47795 4.62274 0
M  V30 49103 H 4943.37 -3.98685 3.81777 0
M  V30 49104 H 4943.85 -3.8422 2.12772 0
M  V30 49105 H 4944.45 -2.66452 3.31487 0
M  V30 49106 N 4942.77 -1.40296 -0.717964 0
M  V30 49107 C 4943.73 -1.40127 -1.81376 0
M  V30 49108 C 4944.73 -0.29546 -1.58062 0
M  V30 49109 O 4945.92 -0.554245 -1.65148 0
M  V30 49110 C 4943.05 -1.19067 -3.19431 0
M  V30 49111 H 4944.24 -2.37652 -1.82925 0
M  V30 49112 H 4941.8 -1.2611 -0.92336 0
M  V30 49113 H 4942.53 -0.222923 -3.23533 0
M  V30 49114 H 4942.32 -1.99164 -3.37751 0
M  V30 49115 H 4943.81 -1.2173 -3.99464 0
M  V30 49116 N 4944.24 0.949938 -1.25754 0
M  V30 49117 C 4945.66 1.22187 -1.02677 0
M  V30 49118 C 4945.86 1.99899 0.253518 0
M  V30 49119 O 4944.92 2.33333 0.964994 0
M  V30 49120 C 4946.23 1.99167 -2.25284 0
M  V30 49121 C 4947.78 2.12193 -2.30094 0
M  V30 49122 C 4948.25 2.92573 -3.5237 0
M  V30 49123 N 4949.74 3.0015 -3.52795 0
M  V30 49124 C 4950.48 3.62751 -4.44071 0
M  V30 49125 N 4949.97 4.26924 -5.45626 0
M  V30 49126 N 4951.77 3.59937 -4.31742 0
M  V30 49127 H 4943.92 0.430184 -2.07998 0
M  V30 49128 H 4946.18 0.252812 -0.913668 0
M  V30 49129 H 4945.89 1.49467 -3.18359 0
M  V30 49130 H 4945.76 2.9986 -2.28832 0
M  V30 49131 H 4948.15 2.61088 -1.37539 0
M  V30 49132 H 4948.23 1.10791 -2.30562 0
M  V30 49133 H 4947.87 2.44367 -4.45249 0
M  V30 49134 H 4947.8 3.94212 -3.49148 0
M  V30 49135 H 4950.29 2.54519 -2.79336 0
M  V30 49136 H 4950.61 4.72562 -6.11478 0
M  V30 49137 H 4948.95 4.25537 -5.49493 0
M  V30 49138 H 4952.14 3.08991 -3.51628 0
M  V30 49139 H 4952.32 4.08438 -5.03073 0
M  V30 49140 N 4945.72 1.07416 1.15324 0
M  V30 49141 C 4946.67 0.689394 2.22149 0
M  V30 49142 C 4947.66 -0.300098 1.66721 0
M  V30 49143 O 4948.87 -0.163741 1.79254 0
M  V30 49144 H 4945.25 0.204859 0.723558 0
M  V30 49145 H 4947.22 1.59997 2.5188 0
M  V30 49146 C 4945.97 0.10397 3.47545 0
M  V30 49147 H 4945.29 0.856504 3.90518 0
M  V30 49148 H 4946.73 -0.127576 4.23808 0
M  V30 49149 C 4945.19 -1.15552 3.16464 0
M  V30 49150 O 4945.72 -2.24188 3.3332 0
M  V30 49151 N 4943.92 -1.06194 2.70502 0
M  V30 49152 H 4943.47 -0.177843 2.56985 0
M  V30 49153 H 4943.43 -1.90544 2.50081 0
M  V30 49154 N 4947.2 -1.32174 0.858357 0
M  V30 49155 C 4948.11 -2.3256 0.308688 0
M  V30 49156 C 4949.13 -1.64211 -0.575404 0
M  V30 49157 O 4950.3 -1.95721 -0.474892 0
M  V30 49158 C 4947.37 -3.43209 -0.490788 0
M  V30 49159 C 4946.43 -4.27242 0.419883 0
M  V30 49160 C 4945.66 -5.32606 -0.341532 0
M  V30 49161 O 4945.88 -5.48338 -1.57105 0
M  V30 49162 O 4944.82 -6.01179 0.294591 0
M  V30 49163 H 4948.64 -2.81473 1.14047 0
M  V30 49164 H 4946.23 -1.35864 0.621396 0
M  V30 49165 H 4948.11 -4.10681 -0.944429 0
M  V30 49166 H 4946.79 -2.96479 -1.29931 0
M  V30 49167 H 4945.69 -3.62566 0.921779 0
M  V30 49168 H 4947.03 -4.77506 1.19369 0
M  V30 49169 N 4948.68 -0.616653 -1.45035 0
M  V30 49170 C 4949.61 0.0839967 -2.33349 0
M  V30 49171 C 4950.59 0.849589 -1.47363 0
M  V30 49172 O 4951.77 0.818345 -1.76116 0
M  V30 49173 C 4948.9 1.07593 -3.30214 0
M  V30 49174 C 4947.86 0.422946 -4.25905 0
M  V30 49175 C 4947.18 1.52376 -5.12529 0
M  V30 49176 C 4948.48 -0.66164 -5.18092 0
M  V30 49177 H 4950.18 -0.653436 -2.92182 0
M  V30 49178 H 4947.72 -0.315683 -1.40497 0
M  V30 49179 H 4949.68 1.57472 -3.90872 0
M  V30 49180 H 4948.4 1.84407 -2.69558 0
M  V30 49181 H 4947.06 -0.0550589 -3.66559 0
M  V30 49182 H 4946.71 2.28241 -4.48235 0
M  V30 49183 H 4946.41 1.09231 -5.77358 0
M  V30 49184 H 4947.93 2.02464 -5.76056 0
M  V30 49185 H 4949.35 -0.246554 -5.7277 0
M  V30 49186 H 4947.74 -1.01538 -5.91447 0
M  V30 49187 H 4948.81 -1.53462 -4.59975 0
M  V30 49188 N 4950.16 1.53519 -0.356339 0
M  V30 49189 C 4951.09 2.28374 0.486581 0
M  V30 49190 C 4952.07 1.30436 1.09181 0
M  V30 49191 O 4953.25 1.59295 1.1108 0
M  V30 49192 C 4950.38 3.0661 1.63119 0
M  V30 49193 C 4949.34 4.12158 1.15367 0
M  V30 49194 C 4948.66 4.78423 2.38779 0
M  V30 49195 C 4949.96 5.21725 0.244996 0
M  V30 49196 H 4951.66 2.99082 -0.137902 0
M  V30 49197 H 4949.2 1.4384 -0.0677639 0
M  V30 49198 H 4951.16 3.5772 2.22743 0
M  V30 49199 H 4949.88 2.33576 2.28276 0
M  V30 49200 H 4948.54 3.6198 0.580167 0
M  V30 49201 H 4948.19 4.0197 3.02372 0
M  V30 49202 H 4947.89 5.49741 2.07505 0
M  V30 49203 H 4949.41 5.32323 2.99106 0
M  V30 49204 H 4950.82 5.68393 0.748447 0
M  V30 49205 H 4949.22 6.00095 0.0235498 0
M  V30 49206 H 4950.29 4.79594 -0.715398 0
M  V30 49207 N 4951.63 0.0852704 1.57369 0
M  V30 49208 C 4952.58 -0.887597 2.10014 0
M  V30 49209 C 4953.57 -1.25017 1.01289 0
M  V30 49210 O 4954.76 -1.2269 1.27578 0
M  V30 49211 C 4951.89 -2.15028 2.67615 0
M  V30 49212 C 4950.98 -1.81357 3.83367 0
M  V30 49213 N 4951.37 -1.18199 4.91795 0
M  V30 49214 C 4949.66 -2.11027 3.92917 0
M  V30 49215 C 4950.37 -1.02921 5.72523 0
M  V30 49216 N 4949.34 -1.54333 5.21232 0
M  V30 49217 H 4953.14 -0.395176 2.91231 0
M  V30 49218 H 4950.66 -0.118233 1.61969 0
M  V30 49219 H 4952.65 -2.85657 3.03654 0
M  V30 49220 H 4951.31 -2.64845 1.87849 0
M  V30 49221 H 4952.33 -0.849988 5.10877 0
M  V30 49222 H 4949 -2.63127 3.24146 0
M  V30 49223 H 4950.39 -0.536063 6.69758 0
M  V30 49224 N 4953.11 -1.5647 -0.188372 0
M  V30 49225 C 4954.36 -1.81016 -0.907715 0
M  V30 49226 C 4954.69 -0.659595 -1.82974 0
M  V30 49227 O 4953.94 0.35424 -1.92467 0
M  V30 49228 C 4954.24 -3.11602 -1.75039 0
M  V30 49229 C 4953.91 -4.40149 -0.978768 0
M  V30 49230 C 4952.57 -4.75068 -0.765745 0
M  V30 49231 C 4954.92 -5.19371 -0.436315 0
M  V30 49232 C 4952.25 -5.867 0.00110493 0
M  V30 49233 C 4954.6 -6.31803 0.317358 0
M  V30 49234 C 4953.27 -6.65301 0.541337 0
M  V30 49235 H 4952.54 -0.662384 -0.332157 0
M  V30 49236 H 4955.18 -1.90711 -0.173665 0
M  V30 49237 H 4953.49 -2.97174 -2.55333 0
M  V30 49238 H 4955.19 -3.27801 -2.30971 0
M  V30 49239 H 4951.78 -4.12749 -1.15482 0
M  V30 49240 H 4955.96 -4.92801 -0.588276 0
M  V30 49241 H 4951.22 -6.11121 0.184543 0
M  V30 49242 H 4955.39 -6.92403 0.745031 0
M  V30 49243 H 4953.02 -7.51642 1.13744 0
M  V30 49244 N 4954.59 0.456329 -1.50849 0
M  V30 49245 C 4955.5 1.57799 -1.73599 0
M  V30 49246 C 4956.52 1.62597 -0.619533 0
M  V30 49247 O 4957.69 1.80192 -0.899595 0
M  V30 49248 C 4954.76 2.9392 -1.8388 0
M  V30 49249 C 4953.82 2.99391 -3.07674 0
M  V30 49250 C 4953.05 4.2902 -3.17455 0
M  V30 49251 O 4953.28 5.2035 -2.33649 0
M  V30 49252 O 4952.21 4.40387 -4.10296 0
M  V30 49253 H 4956.04 1.41522 -2.6871 0
M  V30 49254 H 4953.62 0.637374 -1.35122 0
M  V30 49255 H 4955.5 3.7474 -1.92738 0
M  V30 49256 H 4954.18 3.10364 -0.919549 0
M  V30 49257 H 4953.08 2.17595 -3.04308 0
M  V30 49258 H 4954.42 2.87887 -3.99226 0
M  V30 49259 N 4956.07 1.40675 0.710514 0
M  V30 49260 C 4957.49 1.22816 1.01923 0
M  V30 49261 C 4957.69 0.106941 2.01216 0
M  V30 49262 O 4956.74 -0.533527 2.46799 0
M  V30 49263 C 4958.05 2.57184 1.55811 0
M  V30 49264 C 4959.6 2.64239 1.6777 0
M  V30 49265 C 4960.08 3.98887 2.25062 0
M  V30 49266 N 4961.57 4.00656 2.32442 0
M  V30 49267 C 4962.3 5.01631 2.77766 0
M  V30 49268 N 4961.8 6.13 3.22805 0
M  V30 49269 N 4963.59 4.88998 2.77196 0
M  V30 49270 H 4955.74 2.12335 0.0524554 0
M  V30 49271 H 4958.01 0.944103 0.0858648 0
M  V30 49272 H 4957.71 3.39907 0.903129 0
M  V30 49273 H 4957.59 2.78627 2.54258 0
M  V30 49274 H 4959.97 1.81884 2.32383 0
M  V30 49275 H 4960.05 2.46621 0.679091 0
M  V30 49276 H 4959.7 4.81684 1.61069 0
M  V30 49277 H 4959.63 4.13838 3.25647 0
M  V30 49278 H 4962.12 3.20238 2.00639 0
M  V30 49279 H 4962.43 6.85933 3.55971 0
M  V30 49280 H 4960.78 6.16558 3.20751 0
M  V30 49281 H 4963.97 4.01084 2.41349 0
M  V30 49282 H 4964.14 5.67833 3.12201 0
M  V30 49283 N 4957.55 -0.943255 1.26256 0
M  V30 49284 C 4958.51 -2.02322 1.07696 0
M  V30 49285 C 4959.51 -1.60779 0.0259739 0
M  V30 49286 O 4960.7 -1.72107 0.269195 0
M  V30 49287 C 4957.83 -3.34884 0.637638 0
M  V30 49288 H 4959.03 -2.20218 2.03578 0
M  V30 49289 H 4956.58 -1.12193 1.08823 0
M  V30 49290 H 4957.31 -3.22685 -0.323264 0
M  V30 49291 H 4957.1 -3.66388 1.3965 0
M  V30 49292 H 4958.59 -4.14229 0.529564 0
M  V30 49293 N 4959.03 -1.08026 -1.14753 0
M  V30 49294 C 4959.99 -0.710557 -2.17908 0
M  V30 49295 C 4960.99 0.252675 -1.58802 0
M  V30 49296 O 4962.18 0.0327303 -1.74169 0
M  V30 49297 C 4959.31 -0.0484401 -3.40866 0
M  V30 49298 H 4960.5 -1.62393 -2.52128 0
M  V30 49299 H 4958.06 -0.877641 -1.29334 0
M  V30 49300 H 4958.79 0.87685 -3.12221 0
M  V30 49301 H 4958.58 -0.741324 -3.85028 0
M  V30 49302 H 4960.07 0.195324 -4.17143 0
M  V30 49303 N 4960.5 1.31717 -0.865354 0
M  V30 49304 C 4961.91 1.79102 -0.527189 0
M  V30 49305 C 4962.27 1.71354 0.955635 0
M  V30 49306 O 4961.39 1.27851 1.74594 0
M  V30 49307 C 4961.99 3.25203 -0.950176 0
M  V30 49308 C 4960.54 3.70502 -0.663741 0
M  V30 49309 C 4959.69 2.52601 -1.14404 0
M  V30 49310 H 4962.64 1.18864 -1.05152 0
M  V30 49311 H 4962.66 3.79534 -0.270939 0
M  V30 49312 H 4962.18 3.30811 -2.02943 0
M  V30 49313 H 4960.28 3.704 0.404344 0
M  V30 49314 H 4960.39 4.62841 -1.23753 0
M  V30 49315 H 4958.75 2.48378 -0.563947 0
M  V30 49316 H 4959.54 2.60956 -2.23062 0
M  V30 49317 N 4961.98 0.624336 1.44706 0
M  V30 49318 C 4962.89 -0.0860258 2.34442 0
M  V30 49319 C 4963.91 -0.842856 1.52223 0
M  V30 49320 O 4965.08 -0.796658 1.84974 0
M  V30 49321 C 4962.15 -1.05987 3.30102 0
M  V30 49322 C 4961.21 -0.303165 4.28228 0
M  V30 49323 C 4960.44 -1.23062 5.19318 0
M  V30 49324 O 4960.67 -2.46911 5.1419 0
M  V30 49325 O 4959.6 -0.71862 5.97595 0
M  V30 49326 H 4963.43 0.65186 2.96622 0
M  V30 49327 H 4961.01 0.384544 1.44366 0
M  V30 49328 H 4962.89 -1.62033 3.89003 0
M  V30 49329 H 4961.57 -1.77849 2.70465 0
M  V30 49330 H 4960.47 0.300164 3.72894 0
M  V30 49331 H 4961.81 0.375295 4.90767 0
M  V30 49332 N 4963.46 -1.53328 0.364476 0
M  V30 49333 C 4964.74 -1.93558 -0.281894 0
M  V30 49334 C 4965.12 -1.29791 -1.66485 0
M  V30 49335 O 4964.46 -0.456591 -2.23892 0
M  V30 49336 C 4964.67 -3.47406 -0.333209 0
M  V30 49337 C 4966.02 -4.20701 -0.574083 0
M  V30 49338 O 4967.05 -3.53781 -0.414463 0
M  V30 49339 O 4965.91 -5.3929 -0.884812 0
M  V30 49340 H 4963 -0.809579 -0.168853 0
M  V30 49341 H 4965.55 -1.64492 0.417179 0
M  V30 49342 H 4964.32 -3.86089 0.636461 0
M  V30 49343 H 4963.94 -3.82701 -1.07822 0
M  V30 49344 N 4964.94 -0.0936148 -1.57322 0
M  V30 49345 C 4966.16 0.582254 -1.99059 0
M  V30 49346 C 4966.59 1.61022 -0.972298 0
M  V30 49347 O 4965.95 1.81203 0.0593985 0
M  V30 49348 C 4965.99 1.20787 -3.39769 0
M  V30 49349 O 4965.1 2.3237 -3.40702 0
M  V30 49350 H 4964.44 0.147861 -0.647328 0
M  V30 49351 H 4966.97 -0.174588 -2.03854 0
M  V30 49352 H 4966.98 1.54953 -3.7743 0
M  V30 49353 H 4965.65 0.454769 -4.13406 0
M  V30 49354 H 4964.23 1.99834 -3.14834 0
M  V30 49355 N 4966.42 1.56568 0.180071 0
M  V30 49356 C 4967.66 1.81136 0.896329 0
M  V30 49357 C 4967.98 0.669178 1.83158 0
M  V30 49358 O 4967.25 -0.311548 1.93407 0
M  V30 49359 H 4965.83 0.668184 0.333976 0
M  V30 49360 H 4968.5 1.94049 0.181982 0
M  V30 49361 H 4967.59 2.74859 1.47848 0
M  V30 49362 N 4967.89 -0.448323 1.51089 0
M  V30 49363 C 4969.31 -0.783935 1.3902 0
M  V30 49364 C 4969.51 -1.96086 0.463973 0
M  V30 49365 O 4968.57 -2.52357 -0.0849647 0
M  V30 49366 C 4969.88 -1.07462 2.80842 0
M  V30 49367 C 4971.43 -1.17971 2.89917 0
M  V30 49368 C 4971.9 -1.50339 4.32622 0
M  V30 49369 N 4973.39 -1.57286 4.35678 0
M  V30 49370 C 4974.13 -1.8388 5.43116 0
M  V30 49371 N 4973.62 -2.08342 6.60731 0
M  V30 49372 N 4975.42 -1.85572 5.30584 0
M  V30 49373 H 4967.57 0.326955 2.09868 0
M  V30 49374 H 4969.83 0.0838338 0.944286 0
M  V30 49375 H 4969.54 -0.282645 3.50562 0
M  V30 49376 H 4969.41 -2.00508 3.19494 0
M  V30 49377 H 4971.8 -1.96232 2.20402 0
M  V30 49378 H 4971.88 -0.228513 2.54777 0
M  V30 49379 H 4971.52 -0.726097 5.02683 0
M  V30 49380 H 4971.45 -2.46647 4.65266 0
M  V30 49381 H 4973.94 -1.40329 3.50879 0
M  V30 49382 H 4974.26 -2.27973 7.38409 0
M  V30 49383 H 4972.6 -2.05687 6.63866 0
M  V30 49384 H 4975.79 -1.65973 4.37688 0
M  V30 49385 H 4975.97 -2.05961 6.14397 0
M  V30 49386 N 4969.37 -1.4105 -0.703043 0
M  V30 49387 C 4970.6 -1.43138 -1.4898 0
M  V30 49388 C 4971.01 -0.0329202 -1.89171 0
M  V30 49389 O 4970.35 0.956414 -1.56839 0
M  V30 49390 C 4970.42 -2.27 -2.78767 0
M  V30 49391 C 4970.08 -3.7526 -2.60824 0
M  V30 49392 C 4971.08 -4.67599 -2.27259 0
M  V30 49393 C 4968.76 -4.19218 -2.76698 0
M  V30 49394 C 4970.76 -6.01884 -2.09796 0
M  V30 49395 C 4968.44 -5.5357 -2.58851 0
M  V30 49396 C 4969.44 -6.44718 -2.25449 0
M  V30 49397 O 4969.13 -7.76592 -2.07751 0
M  V30 49398 H 4968.86 -0.489805 -0.465905 0
M  V30 49399 H 4971.41 -1.85889 -0.873757 0
M  V30 49400 H 4969.64 -1.7905 -3.4275 0
M  V30 49401 H 4971.33 -2.20879 -3.4054 0
M  V30 49402 H 4972.1 -4.3493 -2.14617 0
M  V30 49403 H 4967.98 -3.48582 -3.01681 0
M  V30 49404 H 4971.52 -6.72993 -1.83647 0
M  V30 49405 H 4967.42 -5.8582 -2.71081 0
M  V30 49406 H 4968.19 -7.87657 -2.22573 0
M  V30 49407 N 4970.85 0.936546 -1.26754 0
M  V30 49408 C 4972.27 1.21091 -1.03967 0
M  V30 49409 C 4972.47 2.00156 0.232302 0
M  V30 49410 O 4971.52 2.34343 0.940191 0
M  V30 49411 C 4972.84 1.96767 -2.27384 0
M  V30 49412 C 4974.38 2.0974 -2.32332 0
M  V30 49413 C 4974.86 2.8882 -3.55454 0
M  V30 49414 N 4976.35 2.96391 -3.55958 0
M  V30 49415 C 4977.08 3.5802 -4.47894 0
M  V30 49416 N 4976.58 4.21113 -5.50124 0
M  V30 49417 N 4978.37 3.55338 -4.35536 0
M  V30 49418 H 4970.52 0.408099 -2.08443 0
M  V30 49419 H 4972.79 0.243107 -0.916298 0
M  V30 49420 H 4972.49 1.46082 -3.19926 0
M  V30 49421 H 4972.37 2.97416 -2.31999 0
M  V30 49422 H 4974.75 2.59615 -1.403 0
M  V30 49423 H 4974.84 1.08339 -2.31725 0
M  V30 49424 H 4974.48 2.39631 -4.47816 0
M  V30 49425 H 4974.41 3.90487 -3.5331 0
M  V30 49426 H 4976.9 2.51542 -2.8202 0
M  V30 49427 H 4977.21 4.6605 -6.16456 0
M  V30 49428 H 4975.56 4.19685 -5.53976 0
M  V30 49429 H 4978.75 3.05244 -3.54886 0
M  V30 49430 H 4978.92 4.03079 -5.07377 0
M  V30 49431 N 4972.33 1.08633 1.14178 0
M  V30 49432 C 4973.57 0.82695 1.86925 0
M  V30 49433 C 4973.93 -0.635744 1.81169 0
M  V30 49434 O 4975.13 -1.01072 2.49074 0
M  V30 49435 C 4973.4 1.33732 3.31437 0
M  V30 49436 S 4974.96 1.2106 4.2177 0
M  V30 49437 H 4971.78 0.299309 0.64493 0
M  V30 49438 H 4974.38 1.38807 1.37669 0
M  V30 49439 H 4973.09 2.39629 3.33176 0
M  V30 49440 H 4972.62 0.771975 3.85751 0
M  V30 49441 H 4974.63 0.156343 4.95954 0
M  V30 49442 N 4973.81 -1.31256 0.872327 0
M  V30 49443 C 4975.22 -1.49281 0.564573 0
M  V30 49444 C 4975.42 -1.80247 -0.900744 0
M  V30 49445 O 4974.48 -1.88252 -1.68277 0
M  V30 49446 C 4975.79 -2.62497 1.46682 0
M  V30 49447 C 4977.34 -2.76381 1.46911 0
M  V30 49448 C 4977.81 -3.92696 2.35698 0
M  V30 49449 N 4979.31 -3.99987 2.33591 0
M  V30 49450 C 4980.04 -4.89266 2.99009 0
M  V30 49451 N 4979.54 -5.8343 3.73606 0
M  V30 49452 N 4981.33 -4.82531 2.88306 0
M  V30 49453 H 4973.48 -1.09426 1.82043 0
M  V30 49454 H 4975.74 -0.540921 0.778529 0
M  V30 49455 H 4975.45 -2.46398 2.5096 0
M  V30 49456 H 4975.32 -3.58691 1.16708 0
M  V30 49457 H 4977.71 -2.91893 0.433899 0
M  V30 49458 H 4977.79 -1.80847 1.80909 0
M  V30 49459 H 4977.44 -3.77942 3.39297 0
M  V30 49460 H 4977.37 -4.87542 1.99023 0
M  V30 49461 H 4979.86 -3.32617 1.79371 0
M  V30 49462 H 4980.17 -6.48288 4.20645 0
M  V30 49463 H 4978.51 -5.83401 3.77714 0
M  V30 49464 H 4981.71 -4.07943 2.29565 0
M  V30 49465 H 4981.88 -5.51904 3.39568 0
M  V30 49466 N 4975.28 -0.632002 -1.44373 0
M  V30 49467 C 4976.53 -0.137041 -2.02336 0
M  V30 49468 C 4976.86 1.23821 -1.49606 0
M  V30 49469 O 4976.14 1.82208 -0.680479 0
M  V30 49470 C 4976.42 -0.124663 -3.59884 0
M  V30 49471 C 4976.27 -1.53232 -4.22895 0
M  V30 49472 C 4977.59 0.550327 -4.36646 0
M  V30 49473 H 4974.71 -0.0512728 -0.735214 0
M  V30 49474 H 4977.35 -0.808642 -1.71933 0
M  V30 49475 H 4975.5 0.447235 -3.85917 0
M  V30 49476 H 4977.18 -2.15317 -4.07966 0
M  V30 49477 H 4975.42 -2.08593 -3.80357 0
M  V30 49478 H 4976.09 -1.47569 -5.31909 0
M  V30 49479 H 4978.57 0.0639692 -4.16051 0
M  V30 49480 H 4977.44 0.528179 -5.46353 0
M  V30 49481 H 4977.7 1.62083 -4.11317 0
M  V30 49482 N 4976.76 1.53132 -0.372602 0
M  V30 49483 C 4977.99 2.05775 0.215442 0
M  V30 49484 C 4978.41 1.2456 1.41881 0
M  V30 49485 O 4977.76 0.288014 1.80213 0
M  V30 49486 C 4977.81 3.56452 0.602036 0
M  V30 49487 O 4977.53 4.34589 -0.553512 0
M  V30 49488 C 4979.04 4.25378 1.24772 0
M  V30 49489 H 4976.26 0.67001 0.0364293 0
M  V30 49490 H 4978.8 1.97432 -0.533003 0
M  V30 49491 H 4976.95 3.64923 1.30039 0
M  V30 49492 H 4977.37 5.23953 -0.23952 0
M  V30 49493 H 4978.84 5.32102 1.46873 0
M  V30 49494 H 4979.32 3.79539 2.21013 0
M  V30 49495 H 4979.93 4.21179 0.590604 0
M  V30 49496 N 4978.24 0.101957 1.5727 0
M  V30 49497 C 4979.19 -0.871958 2.15638 0
M  V30 49498 C 4980.18 -1.28738 1.10104 0
M  V30 49499 O 4981.39 -1.26111 1.28437 0
M  V30 49500 H 4977.76 -0.299245 0.689896 0
M  V30 49501 H 4979.73 -0.355033 2.9628 0
M  V30 49502 C 4978.48 -2.11877 2.75687 0
M  V30 49503 H 4977.81 -1.80801 3.56583 0
M  V30 49504 H 4979.25 -2.78065 3.20087 0
M  V30 49505 C 4977.71 -2.89733 1.7192 0
M  V30 49506 O 4978.24 -3.84518 1.16227 0
M  V30 49507 N 4976.44 -2.53402 1.42253 0
M  V30 49508 H 4975.99 -1.76392 1.87733 0
M  V30 49509 H 4975.95 -3.05793 0.730636 0
M  V30 49510 N 4979.72 -1.56661 -0.171765 0
M  V30 49511 C 4980.67 -1.96375 -1.21266 0
M  V30 49512 C 4981.64 -0.82761 -1.44013 0
M  V30 49513 O 4982.82 -1.08769 -1.56761 0
M  V30 49514 C 4979.96 -2.32847 -2.54708 0
M  V30 49515 C 4979.07 -3.59637 -2.39344 0
M  V30 49516 C 4978.21 -3.85324 -3.65649 0
M  V30 49517 C 4977.25 -5.05462 -3.45216 0
M  V30 49518 N 4976.38 -5.27284 -4.6359 0
M  V30 49519 H 4981.22 -2.85109 -0.86699 0
M  V30 49520 H 4978.76 -1.41075 -0.416695 0
M  V30 49521 H 4980.72 -2.52016 -3.32482 0
M  V30 49522 H 4979.35 -1.47224 -2.87271 0
M  V30 49523 H 4978.4 -3.48385 -1.52748 0
M  V30 49524 H 4979.71 -4.47568 -2.20191 0
M  V30 49525 H 4978.87 -4.04857 -4.51858 0
M  V30 49526 H 4977.61 -2.95767 -3.8778 0
M  V30 49527 H 4976.61 -4.85828 -2.57393 0
M  V30 49528 H 4977.84 -5.9655 -3.24508 0
M  V30 49529 H 4975.78 -4.40679 -4.8594 0
M  V30 49530 H 4975.7 -6.09438 -4.47349 0
M  V30 49531 H 4976.97 -5.51296 -5.51083 0
M  V30 49532 N 4981.2 0.440304 -1.51324 0
M  V30 49533 C 4982.44 1.19175 -1.64089 0
M  V30 49534 C 4982.78 1.90934 -0.354642 0
M  V30 49535 O 4982.05 1.83472 0.645611 0
M  V30 49536 C 4982.33 2.2111 -2.84222 0
M  V30 49537 C 4982.19 1.53453 -4.22815 0
M  V30 49538 C 4983.51 3.22122 -2.99876 0
M  V30 49539 H 4980.62 0.431903 -0.597184 0
M  V30 49540 H 4983.27 0.481378 -1.83801 0
M  V30 49541 H 4981.42 2.81693 -2.67547 0
M  V30 49542 H 4983.09 0.962297 -4.51151 0
M  V30 49543 H 4981.33 0.836936 -4.2565 0
M  V30 49544 H 4982 2.27676 -5.0286 0
M  V30 49545 H 4984.48 2.7159 -3.15243 0
M  V30 49546 H 4983.35 3.90742 -3.85502 0
M  V30 49547 H 4983.62 3.88054 -2.11817 0
M  V30 49548 N 4982.68 1.41421 0.695553 0
M  V30 49549 C 4983.92 1.40501 1.45272 0
M  V30 49550 C 4984.24 0.0150224 1.94994 0
M  V30 49551 O 4983.51 -0.94314 1.71702 0
M  V30 49552 H 4982.09 0.517166 0.539026 0
M  V30 49553 H 4984.76 1.76659 0.823259 0
M  V30 49554 H 4983.85 2.09222 2.31587 0
M  V30 49555 N 4984.15 -0.929811 1.27249 0
M  V30 49556 C 4985.38 -1.7167 1.1638 0
M  V30 49557 C 4985.8 -1.86065 -0.275958 0
M  V30 49558 O 4985.16 -1.35914 -1.19987 0
M  V30 49559 C 4985.21 -3.09519 1.85014 0
M  V30 49560 O 4984.31 -3.96138 1.14667 0
M  V30 49561 H 4983.65 -0.526276 0.404882 0
M  V30 49562 H 4986.18 -1.16375 1.6828 0
M  V30 49563 H 4986.19 -3.59846 1.92289 0
M  V30 49564 H 4984.87 -2.98359 2.8975 0
M  V30 49565 H 4983.45 -3.5458 1.15446 0
M  V30 49566 N 4985.63 -1.09237 -1.13601 0
M  V30 49567 C 4986.59 -0.733629 -2.17142 0
M  V30 49568 C 4987.59 0.235817 -1.59061 0
M  V30 49569 O 4988.78 0.0142555 -1.74194 0
M  V30 49570 C 4985.92 -0.0845908 -3.40795 0
M  V30 49571 H 4987.11 -1.65058 -2.50391 0
M  V30 49572 H 4984.66 -0.891309 -1.28395 0
M  V30 49573 H 4985.4 0.843685 -3.13133 0
M  V30 49574 H 4985.18 -0.78212 -3.8422 0
M  V30 49575 H 4986.67 0.151069 -4.17327 0
M  V30 49576 N 4987.11 1.30792 -0.879276 0
M  V30 49577 C 4988.02 2.3204 -0.345647 0
M  V30 49578 C 4989.04 1.65105 0.549207 0
M  V30 49579 O 4990.21 1.96452 0.443694 0
M  V30 49580 C 4987.28 3.43946 0.436124 0
M  V30 49581 C 4986.34 4.2652 -0.4878 0
M  V30 49582 C 4985.57 5.33082 0.256756 0
M  V30 49583 O 4985.79 5.50768 1.48362 0
M  V30 49584 O 4984.73 6.00634 -0.390196 0
M  V30 49585 H 4988.55 2.79623 -1.1851 0
M  V30 49586 H 4986.14 1.34858 -0.642933 0
M  V30 49587 H 4988.02 4.12131 0.878974 0
M  V30 49588 H 4986.7 2.98508 1.25198 0
M  V30 49589 H 4985.6 3.61054 -0.979343 0
M  V30 49590 H 4986.94 4.75547 -1.2695 0
M  V30 49591 N 4988.59 0.639649 1.44036 0
M  V30 49592 C 4989.55 -0.0505823 2.29144 0
M  V30 49593 C 4990.55 -0.763951 1.41494 0
M  V30 49594 O 4991.74 -0.607251 1.63273 0
M  V30 49595 C 4988.87 -1.08229 3.23264 0
M  V30 49596 H 4990.07 0.698089 2.91662 0
M  V30 49597 H 4987.62 0.400199 1.5109 0
M  V30 49598 H 4988.35 -1.86065 2.65613 0
M  V30 49599 H 4988.14 -0.574588 3.87867 0
M  V30 49600 H 4989.63 -1.56474 3.87177 0
M  V30 49601 N 4990.07 -1.52932 0.380717 0
M  V30 49602 C 4991.31 -2.01468 -0.204207 0
M  V30 49603 C 4991.64 -1.26749 -1.47529 0
M  V30 49604 O 4990.9 -0.353791 -1.92475 0
M  V30 49605 C 4991.19 -3.53492 -0.527074 0
M  V30 49606 C 4990.86 -4.46169 0.651452 0
M  V30 49607 C 4989.52 -4.71223 0.974785 0
M  V30 49608 C 4991.87 -5.00904 1.44029 0
M  V30 49609 C 4989.2 -5.48263 2.08866 0
M  V30 49610 C 4991.55 -5.79161 2.54471 0
M  V30 49611 C 4990.22 -6.02497 2.87322 0
M  V30 49612 H 4989.49 -0.737223 -0.0747245 0
M  V30 49613 H 4992.14 -1.84409 0.516298 0
M  V30 49614 H 4990.44 -3.68579 -1.32879 0
M  V30 49615 H 4992.14 -3.88532 -0.992146 0
M  V30 49616 H 4988.73 -4.26827 0.389426 0
M  V30 49617 H 4992.91 -4.81481 1.20374 0
M  V30 49618 H 4988.17 -5.64558 2.34699 0
M  V30 49619 H 4992.34 -6.20577 3.16002 0
M  V30 49620 H 4989.97 -6.61976 3.73754 0
M  V30 49621 N 4991.54 -0.110296 -1.57214 0
M  V30 49622 C 4992.51 0.828733 -2.13693 0
M  V30 49623 C 4993.51 1.20056 -1.06973 0
M  V30 49624 O 4994.7 1.12749 -1.3279 0
M  V30 49625 C 4991.83 2.1195 -2.67002 0
M  V30 49626 H 4993.02 0.338042 -2.97989 0
M  V30 49627 H 4990.57 0.138858 -1.55682 0
M  V30 49628 H 4991.31 2.6547 -1.86269 0
M  V30 49629 H 4991.09 1.86245 -3.45044 0
M  V30 49630 H 4992.58 2.79094 -3.10639 0
M  V30 49631 N 4993.02 1.5675 0.163455 0
M  V30 49632 C 4993.95 1.93592 1.22698 0
M  V30 49633 C 4994.97 0.829873 1.4006 0
M  V30 49634 O 4996.16 1.10831 1.39924 0
M  V30 49635 C 4993.26 2.18039 2.59446 0
M  V30 49636 C 4992.43 3.49289 2.63279 0
M  V30 49637 C 4991.49 3.6247 3.81447 0
M  V30 49638 O 4990.51 4.35017 3.67081 0
M  V30 49639 N 4991.72 2.97905 4.9823 0
M  V30 49640 H 4994.48 2.85423 0.913981 0
M  V30 49641 H 4992.04 1.58001 0.353159 0
M  V30 49642 H 4994.03 2.24114 3.36979 0
M  V30 49643 H 4992.6 1.32553 2.83105 0
M  V30 49644 H 4991.82 3.54801 1.71783 0
M  V30 49645 H 4993.11 4.35641 2.62858 0
M  V30 49646 H 4992.51 2.38851 5.12803 0
M  V30 49647 H 4991.07 3.09565 5.73596 0
M  V30 49648 N 4994.5 -0.432272 1.51556 0
M  V30 49649 C 4995.43 -1.53236 1.76185 0
M  V30 49650 C 4996.41 -1.58715 0.611857 0
M  V30 49651 O 4997.6 -1.74361 0.855094 0
M  V30 49652 C 4994.73 -2.91272 1.89151 0
M  V30 49653 C 4993.68 -3.00652 3.04618 0
M  V30 49654 C 4993.01 -4.40717 3.02775 0
M  V30 49655 C 4994.31 -2.74265 4.44495 0
M  V30 49656 H 4996 -1.32877 2.68299 0
M  V30 49657 H 4993.55 -0.637795 1.29105 0
M  V30 49658 H 4995.5 -3.68195 2.04964 0
M  V30 49659 H 4994.22 -3.12874 0.936895 0
M  V30 49660 H 4992.88 -2.26169 2.88519 0
M  V30 49661 H 4992.53 -4.59294 2.05081 0
M  V30 49662 H 4992.23 -4.47922 3.80315 0
M  V30 49663 H 4993.75 -5.19607 3.20687 0
M  V30 49664 H 4995.17 -3.4092 4.60919 0
M  V30 49665 H 4993.56 -2.92874 5.23779 0
M  V30 49666 H 4994.63 -1.6984 4.54183 0
M  V30 49667 N 4995.98 -1.41788 -0.688044 0
M  V30 49668 C 4996.91 -1.47006 -1.81415 0
M  V30 49669 C 4997.89 -0.32794 -1.66909 0
M  V30 49670 O 4999.07 -0.540428 -1.86529 0
M  V30 49671 C 4996.2 -1.35887 -3.19612 0
M  V30 49672 C 4995.16 -2.47988 -3.48835 0
M  V30 49673 C 4994.48 -2.21932 -4.86467 0
M  V30 49674 C 4995.78 -3.90321 -3.47055 0
M  V30 49675 H 4997.48 -2.41253 -1.77305 0
M  V30 49676 H 4995.02 -1.16119 -0.851611 0
M  V30 49677 H 4996.98 -1.38148 -3.98112 0
M  V30 49678 H 4995.7 -0.381274 -3.24367 0
M  V30 49679 H 4994.36 -2.45022 -2.7269 0
M  V30 49680 H 4994.01 -1.22497 -4.87856 0
M  V30 49681 H 4993.71 -2.97055 -5.06983 0
M  V30 49682 H 4995.23 -2.25921 -5.67267 0
M  V30 49683 H 4996.65 -3.94962 -4.15546 0
M  V30 49684 H 4995.04 -4.65188 -3.79104 0
M  V30 49685 H 4996.11 -4.17936 -2.45881 0
M  V30 49686 N 4997.46 0.92305 -1.2774 0
M  V30 49687 C 4998.7 1.67371 -1.1452 0
M  V30 49688 C 4999.04 1.91752 0.307357 0
M  V30 49689 O 4998.31 1.51123 1.22442 0
M  V30 49690 C 4998.59 3.03738 -1.9343 0
M  V30 49691 C 4998.45 2.86569 -3.46697 0
M  V30 49692 C 4999.77 4.04138 -1.74242 0
M  V30 49693 H 4996.88 0.607412 -0.417396 0
M  V30 49694 H 4999.53 1.07083 -1.5695 0
M  V30 49695 H 4997.68 3.55199 -1.57373 0
M  V30 49696 H 4999.35 2.42189 -3.92609 0
M  V30 49697 H 4997.59 2.21815 -3.72801 0
M  V30 49698 H 4998.26 3.83367 -3.97157 0
M  V30 49699 H 5000.74 3.61705 -2.05691 0
M  V30 49700 H 4999.61 4.97535 -2.31841 0
M  V30 49701 H 4999.88 4.36658 -0.691526 0
M  V30 49702 N 4998.93 1.09838 1.1302 0
M  V30 49703 C 4999.87 0.699456 2.18266 0
M  V30 49704 C 5000.88 -0.260785 1.60698 0
M  V30 49705 O 5002.07 -0.0461911 1.7844 0
M  V30 49706 C 4999.17 0.0105729 3.38898 0
M  V30 49707 C 4998.34 0.993425 4.25969 0
M  V30 49708 C 4997.4 0.337167 5.25119 0
M  V30 49709 O 4996.43 0.986089 5.60593 0
M  V30 49710 N 4997.63 -0.906959 5.73371 0
M  V30 49711 H 5000.39 1.60494 2.53104 0
M  V30 49712 H 4997.95 0.986383 1.28383 0
M  V30 49713 H 4999.95 -0.439768 4.02304 0
M  V30 49714 H 4998.52 -0.797228 3.02263 0
M  V30 49715 H 4997.74 1.62221 3.59274 0
M  V30 49716 H 4999.02 1.65893 4.80996 0
M  V30 49717 H 4998.42 -1.45365 5.46704 0
M  V30 49718 H 4996.98 -1.30055 6.38693 0
M  V30 49719 N 5000.41 -1.30324 0.8862 0
M  V30 49720 C 5001.66 -1.95708 0.504263 0
M  V30 49721 C 5001.98 -1.70297 -0.949943 0
M  V30 49722 O 5001.25 -1.02724 -1.66807 0
M  V30 49723 H 4999.83 -0.724113 0.18349 0
M  V30 49724 H 5002.49 -1.58831 1.12954 0
M  V30 49725 H 5001.59 -3.04701 0.675538 0
M  V30 49726 N 5001.89 -0.647279 -1.43694 0
M  V30 49727 C 5003.3 -0.238754 -1.85167 0
M  V30 49728 C 5003.65 1.2134 -1.54179 0
M  V30 49729 O 5002.78 1.92539 -0.987811 0
M  V30 49730 C 5003.37 -0.426541 -3.36104 0
M  V30 49731 C 5001.93 -0.0723864 -3.7633 0
M  V30 49732 C 5001.08 -0.732247 -2.67457 0
M  V30 49733 H 5004.03 -0.851356 -1.33931 0
M  V30 49734 H 5004.05 0.329737 -3.79069 0
M  V30 49735 H 5003.56 -1.48352 -3.58627 0
M  V30 49736 H 5001.66 0.982229 -3.5942 0
M  V30 49737 H 5001.78 -0.493709 -4.76549 0
M  V30 49738 H 5000.14 -0.166029 -2.54158 0
M  V30 49739 H 5000.92 -1.79214 -2.92809 0
M  V30 49740 N 5003.37 1.52728 -0.388822 0
M  V30 49741 C 5004.78 1.86505 0.0853132 0
M  V30 49742 C 5005.13 1.30852 1.46192 0
M  V30 49743 O 5004.26 0.639682 2.06729 0
M  V30 49744 C 5004.85 3.38414 0.161584 0
M  V30 49745 C 5003.41 3.71904 0.580013 0
M  V30 49746 C 5002.56 2.76094 -0.258315 0
M  V30 49747 H 5005.51 1.46645 -0.606717 0
M  V30 49748 H 5005.53 3.67642 0.980807 0
M  V30 49749 H 5005.04 3.7889 -0.840467 0
M  V30 49750 H 5003.14 3.36998 1.58945 0
M  V30 49751 H 5003.25 4.77903 0.338495 0
M  V30 49752 H 5001.62 2.53196 0.276342 0
M  V30 49753 H 5002.4 3.19407 -1.25834 0
M  V30 49754 N 5004.85 0.118632 1.57153 0
M  V30 49755 C 5006.09 -0.538392 1.94797 0
M  V30 49756 C 5006.42 -1.67239 1.0028 0
M  V30 49757 O 5005.69 -1.95811 0.0590381 0
M  V30 49758 H 5004.27 -0.201878 0.719204 0
M  V30 49759 H 5006.93 0.187486 1.93996 0
M  V30 49760 H 5006.02 -0.93321 2.97821 0
M  V30 49761 N 5006.32 -1.56835 -0.15514 0
M  V30 49762 C 5007.55 -1.87415 -0.888272 0
M  V30 49763 C 5007.97 -0.706771 -1.74317 0
M  V30 49764 O 5007.33 0.343829 -1.7801 0
M  V30 49765 C 5007.38 -3.16526 -1.72754 0
M  V30 49766 O 5006.48 -2.99887 -2.83093 0
M  V30 49767 H 5005.83 -0.615991 -0.247893 0
M  V30 49768 H 5008.36 -2.04061 -0.148406 0
M  V30 49769 H 5008.37 -3.48341 -2.1242 0
M  V30 49770 H 5007.04 -4.01098 -1.09971 0
M  V30 49771 H 5005.62 -2.79462 -2.46892 0
M  V30 49772 N 5007.8 0.424229 -1.51783 0
M  V30 49773 C 5008.73 1.52299 -1.76995 0
M  V30 49774 C 5009.71 1.58388 -0.620265 0
M  V30 49775 O 5010.9 1.73905 -0.864329 0
M  V30 49776 C 5008.03 2.90265 -1.90693 0
M  V30 49777 C 5006.98 2.99032 -3.06208 0
M  V30 49778 C 5006.31 4.39105 -3.05108 0
M  V30 49779 C 5007.61 2.71904 -4.45943 0
M  V30 49780 H 5009.3 1.31452 -2.69 0
M  V30 49781 H 5006.85 0.630939 -1.29442 0
M  V30 49782 H 5008.8 3.67103 -2.06914 0
M  V30 49783 H 5007.53 3.12372 -0.953474 0
M  V30 49784 H 5006.18 2.24636 -2.89714 0
M  V30 49785 H 5005.83 4.582 -2.07514 0
M  V30 49786 H 5005.53 4.45899 -3.82685 0
M  V30 49787 H 5007.06 5.17899 -3.23439 0
M  V30 49788 H 5008.47 3.38471 -4.62721 0
M  V30 49789 H 5006.87 2.90092 -5.25325 0
M  V30 49790 H 5007.94 1.67429 -4.55078 0
M  V30 49791 N 5009.28 1.4215 0.680515 0
M  V30 49792 C 5010.69 1.37685 1.26094 0
M  V30 49793 C 5011.04 0.0673038 1.96085 0
M  V30 49794 O 5010.17 -0.834102 1.99679 0
M  V30 49795 C 5010.76 2.49395 2.2932 0
M  V30 49796 C 5009.32 2.4828 2.82903 0
M  V30 49797 C 5008.47 2.28476 1.57144 0
M  V30 49798 H 5011.42 1.51447 0.474273 0
M  V30 49799 H 5011.44 2.19318 3.10934 0
M  V30 49800 H 5010.95 3.44692 1.7835 0
M  V30 49801 H 5009.05 1.56784 3.38008 0
M  V30 49802 H 5009.17 3.45121 3.32308 0
M  V30 49803 H 5007.53 1.7663 1.83505 0
M  V30 49804 H 5008.31 3.2582 1.08149 0
M  V30 49805 N 5010.76 -0.916262 1.28228 0
M  V30 49806 C 5011.72 -1.99992 1.11964 0
M  V30 49807 C 5012.72 -1.60688 0.0600717 0
M  V30 49808 O 5013.91 -1.71498 0.305641 0
M  V30 49809 C 5011.04 -3.33456 0.708528 0
M  V30 49810 H 5012.24 -2.1585 2.08203 0
M  V30 49811 H 5009.79 -1.09859 1.11178 0
M  V30 49812 H 5010.52 -3.23298 -0.254745 0
M  V30 49813 H 5010.31 -3.63344 1.4739 0
M  V30 49814 H 5011.8 -4.13012 0.617309 0
M  V30 49815 N 5012.24 -1.10435 -1.12436 0
M  V30 49816 C 5013.47 -0.868938 -1.87769 0
M  V30 49817 C 5013.88 0.580582 -1.79652 0
M  V30 49818 O 5013.24 1.40027 -1.17041 0
M  V30 49819 C 5013.29 -1.30867 -3.36981 0
M  V30 49820 O 5013.01 -2.70135 -3.44904 0
M  V30 49821 C 5014.51 -1.10715 -4.29252 0
M  V30 49822 H 5011.73 -0.311889 -0.594109 0
M  V30 49823 H 5014.27 -1.46902 -1.42268 0
M  V30 49824 H 5012.43 -0.752259 -3.80026 0
M  V30 49825 H 5012.84 -2.88939 -4.37738 0
M  V30 49826 H 5014.32 -1.46397 -5.32233 0
M  V30 49827 H 5014.79 -0.0457771 -4.39176 0
M  V30 49828 H 5015.4 -1.65002 -3.91988 0
M  V30 49829 N 5013.72 1.29852 -0.893099 0
M  V30 49830 C 5014.94 2.0051 -0.530137 0
M  V30 49831 C 5015.37 1.66449 0.87614 0
M  V30 49832 O 5014.72 0.885502 1.58204 0
M  V30 49833 C 5014.77 3.53306 -0.721629 0
M  V30 49834 O 5013.88 4.11765 0.228849 0
M  V30 49835 H 5013.22 0.630609 -0.207914 0
M  V30 49836 H 5015.75 1.65506 -1.20287 0
M  V30 49837 H 5015.76 4.03204 -0.62374 0
M  V30 49838 H 5014.43 3.77433 -1.74691 0
M  V30 49839 H 5013.01 3.72805 0.0839724 0
M  V30 49840 N 5015.19 0.65489 1.43349 0
M  V30 49841 C 5016.44 0.166286 2.01013 0
M  V30 49842 C 5016.76 -1.22758 1.52282 0
M  V30 49843 O 5017.96 -1.81149 2.02231 0
M  V30 49844 C 5016.42 0.246467 3.59055 0
M  V30 49845 C 5016.03 1.64313 4.16779 0
M  V30 49846 C 5017.77 -0.184448 4.24099 0
M  V30 49847 C 5015.68 1.67715 5.6712 0
M  V30 49848 H 5014.61 0.0584034 0.751735 0
M  V30 49849 H 5017.26 0.817169 1.643 0
M  V30 49850 H 5015.64 -0.471954 3.93178 0
M  V30 49851 H 5016.81 2.38704 3.94154 0
M  V30 49852 H 5015.13 2.02017 3.64113 0
M  V30 49853 H 5017.73 -0.1789 5.34401 0
M  V30 49854 H 5018.07 -1.21618 3.98139 0
M  V30 49855 H 5018.6 0.48228 3.94866 0
M  V30 49856 H 5015.34 2.68804 5.9785 0
M  V30 49857 H 5014.86 0.976521 5.91797 0
M  V30 49858 H 5016.54 1.42164 6.31188 0
M  V30 49859 N 5016.67 -1.5252 0.396917 0
M  V30 49860 C 5018.08 -1.86548 -0.0754212 0
M  V30 49861 C 5018.43 -1.31626 -1.45496 0
M  V30 49862 O 5017.56 -0.650636 -2.06387 0
M  V30 49863 C 5018.15 -3.38495 -0.143635 0
M  V30 49864 C 5016.71 -3.72207 -0.560282 0
M  V30 49865 C 5015.86 -2.75953 0.272953 0
M  V30 49866 H 5018.81 -1.46321 0.614485 0
M  V30 49867 H 5018.83 -3.68157 -0.961296 0
M  V30 49868 H 5018.34 -3.78439 0.860548 0
M  V30 49869 H 5016.44 -3.37836 -1.57155 0
M  V30 49870 H 5016.56 -4.78076 -0.313146 0
M  V30 49871 H 5014.92 -2.53339 -0.262911 0
M  V30 49872 H 5015.7 -3.18735 1.27526 0
M  V30 49873 N 5018.15 -0.126964 -1.57088 0
M  V30 49874 C 5019.11 0.806022 -2.1456 0
M  V30 49875 C 5020.11 1.18914 -1.08241 0
M  V30 49876 O 5021.3 1.11334 -1.33979 0
M  V30 49877 C 5018.43 2.09106 -2.69235 0
M  V30 49878 H 5019.63 0.306417 -2.98331 0
M  V30 49879 H 5017.18 0.122338 -1.5582 0
M  V30 49880 H 5017.92 2.63479 -1.89074 0
M  V30 49881 H 5017.7 1.82575 -3.46999 0
M  V30 49882 H 5019.19 2.75783 -3.13582 0
M  V30 49883 N 5019.63 1.56915 0.14682 0
M  V30 49884 C 5020.88 1.82997 0.857705 0
M  V30 49885 C 5021.2 0.707878 1.81698 0
M  V30 49886 O 5020.47 -0.270453 1.94024 0
M  V30 49887 H 5019.05 0.675117 0.319727 0
M  V30 49888 H 5021.71 1.94391 0.140781 0
M  V30 49889 H 5020.8 2.77933 1.41984 0
M  V30 49890 N 5021.11 -0.416173 1.52006 0
M  V30 49891 C 5022.33 -1.19023 1.69848 0
M  V30 49892 C 5022.76 -1.83707 0.404168 0
M  V30 49893 O 5022.11 -1.69714 -0.637727 0
M  V30 49894 C 5022.16 -2.23429 2.8304 0
M  V30 49895 O 5021.27 -3.29411 2.48118 0
M  V30 49896 H 5020.61 -0.347765 0.565646 0
M  V30 49897 H 5023.14 -0.488802 1.98675 0
M  V30 49898 H 5023.15 -2.67873 3.07746 0
M  V30 49899 H 5021.82 -1.75732 3.7695 0
M  V30 49900 H 5020.4 -2.90295 2.34058 0
M  V30 49901 N 5022.58 -1.42509 -0.672966 0
M  V30 49902 C 5023.81 -1.46478 -1.46122 0
M  V30 49903 C 5024.23 -0.0766575 -1.88644 0
M  V30 49904 O 5023.58 0.909001 -1.58251 0
M  V30 49905 C 5023.63 -2.39348 -2.70915 0
M  V30 49906 O 5023.36 -3.7276 -2.30177 0
M  V30 49907 C 5024.86 -2.52356 -3.6446 0
M  V30 49908 H 5022.08 -0.498136 -0.449557 0
M  V30 49909 H 5024.62 -1.87044 -0.826736 0
M  V30 49910 H 5022.78 -2.02031 -3.30548 0
M  V30 49911 H 5023.19 -4.22514 -3.10776 0
M  V30 49912 H 5024.66 -3.21456 -4.48743 0
M  V30 49913 H 5025.14 -1.56203 -4.10484 0
M  V30 49914 H 5025.75 -2.90403 -3.10719 0
M  V30 49915 N 5024.06 0.909449 -1.28712 0
M  V30 49916 C 5025.47 1.47415 -1.14568 0
M  V30 49917 C 5025.82 1.94432 0.262764 0
M  V30 49918 O 5024.95 1.82847 1.15742 0
M  V30 49919 C 5025.54 2.67925 -2.07368 0
M  V30 49920 C 5024.1 3.20561 -1.97275 0
M  V30 49921 C 5023.25 1.93262 -1.98859 0
M  V30 49922 H 5026.2 0.721738 -1.41339 0
M  V30 49923 H 5026.22 3.43334 -1.64019 0
M  V30 49924 H 5025.73 2.33674 -3.09868 0
M  V30 49925 H 5023.83 3.59528 -0.978283 0
M  V30 49926 H 5023.95 3.85519 -2.8445 0
M  V30 49927 H 5022.31 2.10548 -1.43324 0
M  V30 49928 H 5023.09 1.61301 -3.03046 0
M  V30 49929 N 5025.54 1.1103 1.11848 0
M  V30 49930 C 5026.77 0.878884 1.87305 0
M  V30 49931 C 5027.18 -0.571047 1.79957 0
M  V30 49932 O 5026.54 -1.39405 1.17782 0
M  V30 49933 C 5026.59 1.32652 3.36282 0
M  V30 49934 O 5026.31 2.7196 3.43467 0
M  V30 49935 C 5027.81 1.12989 4.28659 0
M  V30 49936 H 5025.03 0.315036 0.592447 0
M  V30 49937 H 5027.58 1.47654 1.41487 0
M  V30 49938 H 5025.73 0.772402 3.79622 0
M  V30 49939 H 5026.15 2.91256 4.362 0
M  V30 49940 H 5027.62 1.49217 5.31449 0
M  V30 49941 H 5028.1 0.0690671 4.39146 0
M  V30 49942 H 5028.7 1.67078 3.91107 0
M  V30 49943 N 5027.02 -1.29376 0.899973 0
M  V30 49944 C 5028.26 -1.95838 0.526811 0
M  V30 49945 C 5028.6 -1.70777 -0.924591 0
M  V30 49946 O 5027.87 -1.0209 -1.65553 0
M  V30 49947 C 5028.16 -3.50635 0.820185 0
M  V30 49948 C 5028.01 -3.85152 2.32331 0
M  V30 49949 C 5029.33 -4.39029 0.306864 0
M  V30 49950 H 5026.45 -0.711315 0.192873 0
M  V30 49951 H 5029.09 -1.52988 1.1267 0
M  V30 49952 H 5027.24 -3.87264 0.309627 0
M  V30 49953 H 5028.91 -3.58467 2.90343 0
M  V30 49954 H 5027.15 -3.32686 2.78393 0
M  V30 49955 H 5027.82 -4.93196 2.47915 0
M  V30 49956 H 5030.3 -4.09394 0.744052 0
M  V30 49957 H 5029.18 -5.46224 0.541336 0
M  V30 49958 H 5029.44 -4.3494 -0.792435 0
M  V30 49959 N 5028.5 -0.662483 -1.43 0
M  V30 49960 C 5029.43 0.0622455 -2.29115 0
M  V30 49961 C 5030.44 0.777876 -1.43014 0
M  V30 49962 O 5031.63 0.634087 -1.66858 0
M  V30 49963 C 5028.73 1.11151 -3.20154 0
M  V30 49964 C 5027.9 0.472174 -4.34844 0
M  V30 49965 C 5026.96 1.41956 -5.0669 0
M  V30 49966 O 5025.99 0.924598 -5.6164 0
M  V30 49967 N 5027.19 2.75327 -5.11053 0
M  V30 49968 H 5029.96 -0.676941 -2.91955 0
M  V30 49969 H 5027.52 -0.505961 -1.53791 0
M  V30 49970 H 5029.51 1.7463 -3.65084 0
M  V30 49971 H 5028.08 1.75257 -2.58851 0
M  V30 49972 H 5027.3 -0.341889 -3.92715 0
M  V30 49973 H 5028.59 0.0262593 -5.08793 0
M  V30 49974 H 5027.98 3.18091 -4.67797 0
M  V30 49975 H 5026.54 3.34085 -5.5967 0
M  V30 49976 N 5029.97 1.52307 -0.404999 0
M  V30 49977 C 5031.22 2.02066 0.172384 0
M  V30 49978 C 5031.55 1.29027 1.45141 0
M  V30 49979 O 5030.83 0.395351 1.9044 0
M  V30 49980 C 5031.11 3.57591 0.424307 0
M  V30 49981 C 5030.96 4.41284 -0.8711 0
M  V30 49982 C 5032.28 4.2319 1.20822 0
M  V30 49983 H 5029.4 0.734456 0.0611777 0
M  V30 49984 H 5032.04 1.82234 -0.537654 0
M  V30 49985 H 5030.19 3.74621 1.02915 0
M  V30 49986 H 5031.87 4.35975 -1.50744 0
M  V30 49987 H 5030.11 4.07664 -1.48299 0
M  V30 49988 H 5030.78 5.48168 -0.649275 0
M  V30 49989 H 5033.26 4.10235 0.696194 0
M  V30 49990 H 5032.13 5.31957 1.35324 0
M  V30 49991 H 5032.39 3.8187 2.22773 0
M  V30 49992 N 5031.45 0.135293 1.57018 0
M  V30 49993 C 5032.68 -0.525996 2.00102 0
M  V30 49994 C 5033.1 -1.5918 1.01524 0
M  V30 49995 O 5032.45 -1.82497 0.0104899 0
M  V30 49996 C 5032.5 -1.13732 3.43143 0
M  V30 49997 O 5032.22 -0.114105 4.37951 0
M  V30 49998 C 5033.73 -1.88036 4.01444 0
M  V30 49999 H 5030.95 -0.137939 0.656669 0
M  V30 50000 H 5033.49 0.226431 2.03243 0
M  V30 50001 H 5031.64 -1.84044 3.40891 0
M  V30 50002 H 5032.06 -0.560397 5.21498 0
M  V30 50003 H 5033.53 -2.26116 5.03563 0
M  V30 50004 H 5034.01 -2.76182 3.41497 0
M  V30 50005 H 5034.62 -1.2245 4.07291 0
M  V30 50006 N 5032.93 -1.5699 -0.138497 0
M  V30 50007 C 5034.34 -1.73174 -0.697693 0
M  V30 50008 C 5034.69 -0.751016 -1.81257 0
M  V30 50009 O 5033.82 0.080473 -2.1625 0
M  V30 50010 C 5034.41 -3.14 -1.27237 0
M  V30 50011 C 5032.97 -3.31757 -1.77805 0
M  V30 50012 C 5032.12 -2.69087 -0.669897 0
M  V30 50013 H 5035.07 -1.5846 0.0872536 0
M  V30 50014 H 5035.09 -3.14471 -2.14215 0
M  V30 50015 H 5034.6 -3.85356 -0.460719 0
M  V30 50016 H 5032.7 -2.65412 -2.6151 0
M  V30 50017 H 5032.82 -4.39775 -1.90091 0
M  V30 50018 H 5031.18 -2.29786 -1.09866 0
M  V30 50019 H 5031.96 -3.43052 0.13045 0
M  V30 50020 N 5034.41 0.408106 -1.52224 0
M  V30 50021 C 5035.34 1.51636 -1.71869 0
M  V30 50022 C 5036.35 1.51375 -0.599109 0
M  V30 50023 O 5037.54 1.55622 -0.874293 0
M  V30 50024 C 5034.64 2.90527 -1.74491 0
M  V30 50025 C 5033.82 3.14968 -3.03502 0
M  V30 50026 C 5032.87 4.33738 -2.97922 0
M  V30 50027 O 5031.9 4.30969 -3.71826 0
M  V30 50028 N 5033.1 5.38904 -2.15783 0
M  V30 50029 H 5035.87 1.35178 -2.67483 0
M  V30 50030 H 5033.43 0.597415 -1.50474 0
M  V30 50031 H 5035.42 3.6805 -1.68288 0
M  V30 50032 H 5033.99 3.00438 -0.863469 0
M  V30 50033 H 5033.21 2.2548 -3.23345 0
M  V30 50034 H 5034.5 3.28142 -3.88845 0
M  V30 50035 H 5033.9 5.44002 -1.55171 0
M  V30 50036 H 5032.45 6.15167 -2.15437 0
M  V30 50037 N 5035.89 1.42864 0.665399 0
M  V30 50038 C 5036.82 1.49874 1.79054 0
M  V30 50039 C 5037.8 0.354452 1.66366 0
M  V30 50040 O 5038.98 0.570034 1.85645 0
M  V30 50041 C 5036.11 1.40954 3.1741 0
M  V30 50042 C 5035.07 2.53507 3.44845 0
M  V30 50043 C 5034.39 2.29643 4.82875 0
M  V30 50044 C 5035.69 3.95793 3.40801 0
M  V30 50045 H 5037.39 2.44044 1.73445 0
M  V30 50046 H 5034.93 1.17459 0.833029 0
M  V30 50047 H 5036.89 1.44464 3.95864 0
M  V30 50048 H 5035.61 0.43283 3.23719 0
M  V30 50049 H 5034.27 2.49329 2.68757 0
M  V30 50050 H 5033.92 1.30243 4.85845 0
M  V30 50051 H 5033.62 3.05083 5.02193 0
M  V30 50052 H 5035.14 2.34917 5.63601 0
M  V30 50053 H 5036.55 4.01523 4.0921 0
M  V30 50054 H 5034.95 4.71161 3.71655 0
M  V30 50055 H 5036.02 4.21795 2.39201 0
M  V30 50056 N 5037.36 -0.902611 1.29192 0
M  V30 50057 C 5038.27 -2.03942 1.15951 0
M  V30 50058 C 5039.29 -1.738 0.0834414 0
M  V30 50059 O 5040.47 -1.99229 0.29494 0
M  V30 50060 C 5037.53 -3.36516 0.834124 0
M  V30 50061 C 5036.59 -3.80196 1.99373 0
M  V30 50062 C 5035.83 -5.06443 1.68377 0
M  V30 50063 O 5036.05 -5.672 0.603341 0
M  V30 50064 O 5034.98 -5.46105 2.53086 0
M  V30 50065 H 5038.81 -2.18035 2.1141 0
M  V30 50066 H 5036.39 -1.0258 1.08617 0
M  V30 50067 H 5038.28 -4.16086 0.667095 0
M  V30 50068 H 5036.95 -3.23573 -0.0907107 0
M  V30 50069 H 5035.86 -3.01405 2.21598 0
M  V30 50070 H 5037.19 -3.97719 2.89966 0
M  V30 50071 N 5038.84 -1.11622 -1.11258 0
M  V30 50072 C 5040.07 -0.888805 -1.86836 0
M  V30 50073 C 5040.49 0.561495 -1.80257 0
M  V30 50074 O 5039.84 1.38778 -1.1852 0
M  V30 50075 C 5039.89 -1.34433 -3.35574 0
M  V30 50076 O 5039.61 -2.73778 -3.4202 0
M  V30 50077 C 5041.12 -1.15261 -4.28053 0
M  V30 50078 H 5038.34 -0.318173 -0.590768 0
M  V30 50079 H 5040.88 -1.48403 -1.40702 0
M  V30 50080 H 5039.03 -0.792524 -3.79207 0
M  V30 50081 H 5039.45 -2.93565 -4.34649 0
M  V30 50082 H 5040.92 -1.52033 -5.3065 0
M  V30 50083 H 5041.4 -0.0923551 -4.39103 0
M  V30 50084 H 5042.01 -1.6915 -3.90216 0
M  V30 50085 N 5040.32 1.28897 -0.906821 0
M  V30 50086 C 5041.27 2.27509 -0.388393 0
M  V30 50087 C 5042.24 1.57303 0.533384 0
M  V30 50088 O 5043.42 1.85244 0.457083 0
M  V30 50089 C 5040.56 3.43093 0.371689 0
M  V30 50090 C 5039.68 4.28064 -0.581798 0
M  V30 50091 C 5038.81 5.30838 0.196043 0
M  V30 50092 C 5037.85 6.07469 -0.751508 0
M  V30 50093 N 5036.99 7.021 -0.00762409 0
M  V30 50094 H 5041.83 2.71233 -1.23438 0
M  V30 50095 H 5039.36 1.33395 -0.620009 0
M  V30 50096 H 5041.32 4.08891 0.828497 0
M  V30 50097 H 5039.95 3.00378 1.18207 0
M  V30 50098 H 5039 3.62374 -1.15713 0
M  V30 50099 H 5040.32 4.81377 -1.30682 0
M  V30 50100 H 5039.47 6.02487 0.713728 0
M  V30 50101 H 5038.21 4.78275 0.954156 0
M  V30 50102 H 5037.21 5.34677 -1.28063 0
M  V30 50103 H 5038.44 6.62121 -1.50906 0
M  V30 50104 H 5036.38 6.51896 0.732625 0
M  V30 50105 H 5036.3 7.53002 -0.672599 0
M  V30 50106 H 5037.57 7.77958 0.490092 0
M  V30 50107 N 5041.8 0.670057 1.42646 0
M  V30 50108 C 5043.02 0.197027 2.06462 0
M  V30 50109 C 5043.45 -1.13515 1.49987 0
M  V30 50110 O 5042.81 -1.70498 0.616457 0
M  V30 50111 C 5042.86 0.137508 3.60338 0
M  V30 50112 O 5041.96 -0.895381 4.02563 0
M  V30 50113 H 5041.3 0.102602 0.656025 0
M  V30 50114 H 5043.83 0.917733 1.82863 0
M  V30 50115 H 5043.84 -0.0402191 4.0798 0
M  V30 50116 H 5042.52 1.10991 4.00817 0
M  V30 50117 H 5041.09 -0.68908 3.66478 0
M  V30 50118 N 5043.28 -1.5209 0.413071 0
M  V30 50119 C 5044.53 -2.01042 -0.162799 0
M  V30 50120 C 5044.84 -1.30293 -1.45887 0
M  V30 50121 O 5046.05 -1.70082 -2.11623 0
M  V30 50122 C 5044.5 -3.58284 -0.34068 0
M  V30 50123 C 5044.11 -4.37951 0.943531 0
M  V30 50124 C 5045.85 -4.15455 -0.871628 0
M  V30 50125 C 5043.76 -5.86845 0.732623 0
M  V30 50126 H 5042.69 -0.751226 -0.0646149 0
M  V30 50127 H 5045.34 -1.75402 0.539121 0
M  V30 50128 H 5043.72 -3.8027 -1.10503 0
M  V30 50129 H 5044.9 -4.27723 1.71433 0
M  V30 50130 H 5043.21 -3.92117 1.40119 0
M  V30 50131 H 5045.81 -5.24379 -1.04552 0
M  V30 50132 H 5046.15 -3.73063 -1.84742 0
M  V30 50133 H 5046.69 -3.97453 -0.166238 0
M  V30 50134 H 5043.42 -6.33603 1.68009 0
M  V30 50135 H 5042.94 -5.998 0.00119092 0
M  V30 50136 H 5044.62 -6.45905 0.376332 0
M  V30 50137 N 5044.76 -0.143618 -1.56944 0
M  V30 50138 C 5046 0.507333 -1.95629 0
M  V30 50139 C 5046.32 1.65622 -1.02928 0
M  V30 50140 O 5045.59 1.95692 -0.0901824 0
M  V30 50141 H 5044.17 0.190411 -0.722325 0
M  V30 50142 H 5046.84 -0.218326 -1.93673 0
M  V30 50143 H 5045.93 0.885711 -2.99268 0
M  V30 50144 N 5046.23 1.57062 0.130169 0
M  V30 50145 C 5047.2 1.98597 1.14419 0
M  V30 50146 C 5048.2 0.874631 1.34933 0
M  V30 50147 O 5049.39 1.14091 1.31639 0
M  V30 50148 C 5046.52 2.31648 2.50104 0
M  V30 50149 H 5047.71 2.89377 0.787459 0
M  V30 50150 H 5045.26 1.51757 0.374093 0
M  V30 50151 H 5046 1.43713 2.90718 0
M  V30 50152 H 5045.78 3.12692 2.36572 0
M  V30 50153 H 5047.27 2.64562 3.23105 0
M  V30 50154 N 5047.71 -0.400028 1.52439 0
M  V30 50155 C 5048.94 -1.17215 1.71101 0
M  V30 50156 C 5049.36 -1.83268 0.42363 0
M  V30 50157 O 5048.72 -1.70381 -0.619691 0
M  V30 50158 C 5048.77 -2.20415 2.85394 0
M  V30 50159 O 5047.87 -3.2676 2.51598 0
M  V30 50160 H 5047.21 -0.341746 0.569303 0
M  V30 50161 H 5049.74 -0.467702 1.99183 0
M  V30 50162 H 5049.75 -2.64594 3.1057 0
M  V30 50163 H 5048.43 -1.71724 3.78792 0
M  V30 50164 H 5047 -2.87796 2.37124 0
M  V30 50165 N 5049.19 -1.43215 -0.657814 0
M  V30 50166 C 5050.44 -1.44803 -1.41986 0
M  V30 50167 C 5050.77 -0.0703242 -1.94073 0
M  V30 50168 O 5050.04 0.908117 -1.71999 0
M  V30 50169 C 5050.33 -2.48659 -2.60462 0
M  V30 50170 C 5050.18 -3.95687 -2.13897 0
M  V30 50171 C 5051.5 -2.49305 -3.62678 0
M  V30 50172 H 5048.62 -0.527262 -0.514941 0
M  V30 50173 H 5051.26 -1.74736 -0.746148 0
M  V30 50174 H 5049.41 -2.23265 -3.17938 0
M  V30 50175 H 5051.08 -4.32122 -1.61457 0
M  V30 50176 H 5049.32 -4.08738 -1.45311 0
M  V30 50177 H 5050 -4.6396 -2.99073 0
M  V30 50178 H 5052.47 -2.71928 -3.14951 0
M  V30 50179 H 5051.35 -3.23923 -4.43131 0
M  V30 50180 H 5051.61 -1.52517 -4.14959 0
M  V30 50181 N 5050.67 0.895746 -1.29669 0
M  V30 50182 C 5051.58 2.03324 -1.17031 0
M  V30 50183 C 5052.59 1.73753 -0.0926573 0
M  V30 50184 O 5053.77 1.99069 -0.305501 0
M  V30 50185 C 5050.83 3.36069 -0.851959 0
M  V30 50186 C 5049.9 3.79133 -2.01387 0
M  V30 50187 C 5049.13 5.05543 -1.71061 0
M  V30 50188 O 5049.35 5.66872 -0.633412 0
M  V30 50189 O 5048.29 5.44755 -2.55979 0
M  V30 50190 H 5052.11 2.16911 -2.12564 0
M  V30 50191 H 5049.7 1.02003 -1.09159 0
M  V30 50192 H 5051.58 4.15727 -0.689152 0
M  V30 50193 H 5050.25 3.23616 0.0735496 0
M  V30 50194 H 5049.16 3.00226 -2.23194 0
M  V30 50195 H 5050.49 3.96176 -2.92072 0
M  V30 50196 N 5052.15 1.1221 1.10665 0
M  V30 50197 C 5053.39 0.875939 1.82575 0
M  V30 50198 C 5053.72 -0.598277 1.8507 0
M  V30 50199 O 5052.98 -1.45814 1.30525 0
M  V30 50200 C 5053.27 1.39288 3.29141 0
M  V30 50201 C 5052.94 2.88172 3.46796 0
M  V30 50202 C 5051.6 3.28825 3.51323 0
M  V30 50203 C 5053.95 3.84023 3.52386 0
M  V30 50204 C 5051.28 4.64041 3.59003 0
M  V30 50205 C 5053.63 5.19066 3.61599 0
M  V30 50206 C 5052.3 5.59265 3.64389 0
M  V30 50207 H 5051.57 0.320529 0.668089 0
M  V30 50208 H 5054.22 1.40188 1.30459 0
M  V30 50209 H 5052.52 0.787342 3.83807 0
M  V30 50210 H 5054.22 1.17865 3.83287 0
M  V30 50211 H 5050.81 2.55729 3.43949 0
M  V30 50212 H 5054.99 3.53711 3.48142 0
M  V30 50213 H 5050.25 4.94581 3.59444 0
M  V30 50214 H 5054.42 5.93165 3.64868 0
M  V30 50215 H 5052.05 6.6403 3.70092 0
M  V30 50216 N 5053.62 -1.28415 0.913644 0
M  V30 50217 C 5054.57 -2.24926 0.373121 0
M  V30 50218 C 5055.56 -1.52446 -0.514699 0
M  V30 50219 O 5056.75 -1.73415 -0.354439 0
M  V30 50220 C 5053.88 -3.41126 -0.385776 0
M  V30 50221 C 5052.96 -4.20928 0.517758 0
M  V30 50222 N 5053.36 -4.78772 1.6313 0
M  V30 50223 C 5051.65 -4.44864 0.318125 0
M  V30 50224 C 5052.35 -5.38815 2.19211 0
M  V30 50225 N 5051.33 -5.22969 1.4834 0
M  V30 50226 H 5055.13 -2.6722 1.22355 0
M  V30 50227 H 5052.65 -1.43185 0.766286 0
M  V30 50228 H 5054.64 -4.09349 -0.789853 0
M  V30 50229 H 5053.3 -3.00366 -1.2333 0
M  V30 50230 H 5054.31 -4.77141 2.01388 0
M  V30 50231 H 5050.99 -4.14616 -0.489894 0
M  V30 50232 H 5052.38 -5.94604 3.12882 0
M  V30 50233 N 5055.1 -0.677613 -1.42289 0
M  V30 50234 C 5056.34 -0.204966 -2.0337 0
M  V30 50235 C 5056.71 1.16738 -1.52434 0
M  V30 50236 O 5057.91 1.73485 -2.0532 0
M  V30 50237 C 5056.18 -0.240867 -3.56587 0
M  V30 50238 S 5057.74 0.160365 -4.38507 0
M  V30 50239 H 5054.55 -0.084018 -0.706018 0
M  V30 50240 H 5057.16 -0.891393 -1.73996 0
M  V30 50241 H 5055.86 -1.24197 -3.91156 0
M  V30 50242 H 5055.39 0.465302 -3.90639 0
M  V30 50243 H 5057.41 1.39298 -4.76246 0
M  V30 50244 N 5056.58 1.51869 -0.421131 0
M  V30 50245 C 5057.54 2.25915 0.386632 0
M  V30 50246 C 5058.54 1.28737 0.963509 0
M  V30 50247 O 5059.73 1.52582 0.840502 0
M  V30 50248 C 5056.87 3.03859 1.5454 0
M  V30 50249 H 5058.06 2.98753 -0.262083 0
M  V30 50250 H 5055.61 1.55329 -0.173916 0
M  V30 50251 H 5056.35 2.354 2.23064 0
M  V30 50252 H 5056.13 3.75219 1.13811 0
M  V30 50253 H 5057.62 3.59992 2.1165 0
M  V30 50254 N 5058.06 0.151939 1.56866 0
M  V30 50255 C 5059.3 -0.498673 1.96573 0
M  V30 50256 C 5059.64 -1.6419 1.03708 0
M  V30 50257 O 5058.91 -1.94334 0.0804115 0
M  V30 50258 C 5059.2 -1.00015 3.45932 0
M  V30 50259 C 5059.05 0.141925 4.49576 0
M  V30 50260 C 5060.37 -1.8803 3.97911 0
M  V30 50261 H 5057.49 -0.179795 0.714733 0
M  V30 50262 H 5060.13 0.234164 1.88552 0
M  V30 50263 H 5058.28 -1.62463 3.52899 0
M  V30 50264 H 5059.95 0.778429 4.54685 0
M  V30 50265 H 5058.19 0.80034 4.26353 0
M  V30 50266 H 5058.86 -0.250753 5.5143 0
M  V30 50267 H 5061.34 -1.35402 3.93453 0
M  V30 50268 H 5060.22 -2.20025 5.02872 0
M  V30 50269 H 5060.48 -2.81904 3.40562 0
M  V30 50270 N 5059.54 -1.57128 -0.121838 0
M  V30 50271 C 5060.95 -1.73904 -0.679286 0
M  V30 50272 C 5061.3 -0.770198 -1.80451 0
M  V30 50273 O 5060.42 0.0575322 -2.16324 0
M  V30 50274 C 5061.02 -3.15332 -1.23899 0
M  V30 50275 C 5059.58 -3.33624 -1.74276 0
M  V30 50276 C 5058.72 -2.69782 -0.641319 0
M  V30 50277 H 5061.68 -1.58359 0.104055 0
M  V30 50278 H 5061.7 -3.16725 -2.10868 0
M  V30 50279 H 5061.21 -3.85823 -0.419821 0
M  V30 50280 H 5059.31 -2.68171 -2.5868 0
M  V30 50281 H 5059.42 -4.41767 -1.85416 0
M  V30 50282 H 5057.79 -2.30938 -1.07422 0
M  V30 50283 H 5058.57 -3.42894 0.166828 0
M  V30 50284 N 5061.01 0.391938 -1.52649 0
M  V30 50285 C 5062.24 1.16306 -1.7172 0
M  V30 50286 C 5062.66 1.8304 -0.433343 0
M  V30 50287 O 5062.02 1.70707 0.610647 0
M  V30 50288 C 5062.07 2.18898 -2.86559 0
M  V30 50289 O 5061.17 3.25421 -2.53327 0
M  V30 50290 H 5060.52 0.338722 -0.571107 0
M  V30 50291 H 5063.05 0.457132 -1.99428 0
M  V30 50292 H 5063.06 2.62944 -3.11969 0
M  V30 50293 H 5061.73 1.69713 -3.79698 0
M  V30 50294 H 5060.31 2.86534 -2.38647 0
M  V30 50295 N 5062.49 1.43562 0.650209 0
M  V30 50296 C 5063.77 1.35816 1.4076 0
M  V30 50297 C 5064.15 0.007438 2.11099 0
M  V30 50298 O 5063.5 -1.00925 2.05003 0
M  V30 50299 C 5063.71 2.54341 2.38981 0
M  V30 50300 C 5065.06 2.97561 3.0289 0
M  V30 50301 O 5066.08 2.54409 2.49308 0
M  V30 50302 O 5064.94 3.72325 4.00045 0
M  V30 50303 H 5062.03 0.536883 0.629036 0
M  V30 50304 H 5064.58 1.55617 0.676865 0
M  V30 50305 H 5063.35 3.44281 1.85974 0
M  V30 50306 H 5062.97 2.36654 3.195 0
M  V30 50307 N 5063.97 -0.888857 1.30143 0
M  V30 50308 C 5065.39 -1.17149 1.0839 0
M  V30 50309 C 5065.59 -2.00881 -0.157855 0
M  V30 50310 O 5064.64 -2.37671 -0.852569 0
M  V30 50311 C 5065.96 -1.88192 2.3453 0
M  V30 50312 C 5067.5 -2.00973 2.39956 0
M  V30 50313 C 5067.98 -2.75428 3.65928 0
M  V30 50314 N 5069.47 -2.82976 3.66713 0
M  V30 50315 C 5070.2 -3.4115 4.60873 0
M  V30 50316 N 5069.7 -4.00405 5.65374 0
M  V30 50317 N 5071.49 -3.38928 4.48424 0
M  V30 50318 H 5063.64 -0.330456 2.09814 0
M  V30 50319 H 5065.91 -0.208932 0.92469 0
M  V30 50320 H 5065.61 -1.34108 3.25128 0
M  V30 50321 H 5065.49 -2.88601 2.42878 0
M  V30 50322 H 5067.87 -2.54229 1.49839 0
M  V30 50323 H 5067.96 -0.996642 2.35586 0
M  V30 50324 H 5067.6 -2.22845 4.56402 0
M  V30 50325 H 5067.53 -3.77105 3.67559 0
M  V30 50326 H 5070.02 -2.40902 2.91161 0
M  V30 50327 H 5070.33 -4.42849 6.33328 0
M  V30 50328 H 5068.68 -3.98836 5.69171 0
M  V30 50329 H 5071.87 -2.91862 3.6597 0
M  V30 50330 H 5072.04 -3.8397 5.21987 0
M  V30 50331 N 5065.45 -1.12795 -1.10068 0
M  V30 50332 C 5066.7 -0.883859 -1.81748 0
M  V30 50333 C 5067.02 0.591825 -1.85802 0
M  V30 50334 O 5066.29 1.43013 -1.33881 0
M  V30 50335 H 5064.87 -0.324002 -0.673077 0
M  V30 50336 H 5067.53 -1.42319 -1.33159 0
M  V30 50337 H 5066.63 -1.26873 -2.85148 0
M  V30 50338 N 5066.93 1.27928 -0.920441 0
M  V30 50339 C 5068.15 1.98803 -0.573157 0
M  V30 50340 C 5068.57 1.68727 0.847141 0
M  V30 50341 O 5067.93 0.943753 1.56204 0
M  V30 50342 C 5067.98 3.52968 -0.780757 0
M  V30 50343 O 5067.7 3.81987 -2.14517 0
M  V30 50344 C 5069.2 4.41099 -0.441205 0
M  V30 50345 H 5066.42 0.634644 -0.217872 0
M  V30 50346 H 5068.96 1.62961 -1.23548 0
M  V30 50347 H 5067.12 3.87047 -0.16534 0
M  V30 50348 H 5067.53 4.76601 -2.18979 0
M  V30 50349 H 5069.01 5.4831 -0.637199 0
M  V30 50350 H 5069.48 4.3476 0.622907 0
M  V30 50351 H 5070.09 4.12528 -1.03445 0
M  V30 50352 N 5068.4 0.685149 1.41928 0
M  V30 50353 C 5069.34 -0.0257873 2.29185 0
M  V30 50354 C 5070.35 -0.755025 1.44233 0
M  V30 50355 O 5071.54 -0.607461 1.67846 0
M  V30 50356 C 5068.64 -1.06044 3.21882 0
M  V30 50357 C 5067.81 -0.402935 4.3554 0
M  V30 50358 C 5066.87 -1.33877 5.08884 0
M  V30 50359 O 5065.9 -0.835128 5.6304 0
M  V30 50360 N 5067.1 -2.67162 5.15369 0
M  V30 50361 H 5069.86 0.723303 2.90841 0
M  V30 50362 H 5067.42 0.530364 1.52967 0
M  V30 50363 H 5069.42 -1.688 3.67816 0
M  V30 50364 H 5067.99 -1.71116 2.61606 0
M  V30 50365 H 5067.21 0.404323 3.92121 0
M  V30 50366 H 5068.49 0.0546886 5.08771 0
M  V30 50367 H 5067.89 -3.10609 4.72799 0
M  V30 50368 H 5066.45 -3.25139 5.64914 0
M  V30 50369 N 5069.88 -1.51644 0.429179 0
M  V30 50370 C 5070.81 -2.30435 -0.377067 0
M  V30 50371 C 5071.79 -1.35497 -1.02833 0
M  V30 50372 O 5072.98 -1.64414 -1.03353 0
M  V30 50373 C 5070.11 -3.14043 -1.48304 0
M  V30 50374 C 5069.06 -4.17193 -0.955708 0
M  V30 50375 C 5068.39 -4.89271 -2.15681 0
M  V30 50376 C 5069.69 -5.223 0.00420498 0
M  V30 50377 H 5071.38 -2.98084 0.280441 0
M  V30 50378 H 5068.93 -1.43353 0.136315 0
M  V30 50379 H 5070.88 -3.6794 -2.05422 0
M  V30 50380 H 5069.61 -2.44201 -2.16872 0
M  V30 50381 H 5068.26 -3.64336 -0.406801 0
M  V30 50382 H 5067.91 -4.15939 -2.8285 0
M  V30 50383 H 5067.61 -5.59016 -1.81039 0
M  V30 50384 H 5069.14 -5.45988 -2.73367 0
M  V30 50385 H 5070.55 -5.71317 -0.476406 0
M  V30 50386 H 5068.95 -5.99524 0.26279 0
M  V30 50387 H 5070.02 -4.75634 0.943404 0
M  V30 50388 N 5071.36 -0.160256 -1.56783 0
M  V30 50389 C 5072.78 0.196033 -1.58392 0
M  V30 50390 C 5072.98 1.63685 -1.17514 0
M  V30 50391 O 5072.03 2.3661 -0.881589 0
M  V30 50392 C 5073.35 -0.0747506 -3.00607 0
M  V30 50393 C 5074.89 -0.0120862 -3.12998 0
M  V30 50394 C 5075.37 -0.255712 -4.57286 0
M  V30 50395 N 5076.86 -0.203101 -4.62755 0
M  V30 50396 C 5077.6 -0.365933 -5.72231 0
M  V30 50397 N 5077.09 -0.587214 -6.90307 0
M  V30 50398 N 5078.88 -0.302609 -5.61285 0
M  V30 50399 H 5071.04 -1.10087 -1.81644 0
M  V30 50400 H 5073.3 -0.436809 -0.841369 0
M  V30 50401 H 5073 -1.07243 -3.34951 0
M  V30 50402 H 5072.88 0.638671 -3.71754 0
M  V30 50403 H 5075.27 0.976156 -2.78487 0
M  V30 50404 H 5075.35 -0.758045 -2.4431 0
M  V30 50405 H 5074.99 -1.24111 -4.92503 0
M  V30 50406 H 5074.92 0.510728 -5.24117 0
M  V30 50407 H 5077.41 -0.0372657 -3.77882 0
M  V30 50408 H 5077.72 -0.701211 -7.69612 0
M  V30 50409 H 5076.07 -0.623697 -6.92196 0
M  V30 50410 H 5079.26 -0.130402 -4.67918 0
M  V30 50411 H 5079.43 -0.432939 -6.46552 0
M  V30 50412 N 5072.84 1.57191 0.113503 0
M  V30 50413 C 5074.09 1.86292 0.816517 0
M  V30 50414 C 5074.44 0.748734 1.77234 0
M  V30 50415 O 5073.73 -0.250822 1.89951 0
M  V30 50416 C 5073.93 3.19599 1.59973 0
M  V30 50417 C 5073.76 4.43878 0.721258 0
M  V30 50418 C 5072.53 5.03914 0.373995 0
M  V30 50419 C 5074.72 5.14287 0.0364237 0
M  V30 50420 N 5072.71 6.1174 -0.514567 0
M  V30 50421 C 5074.08 6.15911 -0.710923 0
M  V30 50422 C 5076.13 4.97884 -0.039422 0
M  V30 50423 C 5074.84 7.02905 -1.527 0
M  V30 50424 C 5076.86 5.8537 -0.842341 0
M  V30 50425 C 5076.22 6.865 -1.57786 0
M  V30 50426 H 5072.32 0.731849 0.275539 0
M  V30 50427 H 5074.91 1.94536 0.0799647 0
M  V30 50428 H 5073.08 3.1244 2.30728 0
M  V30 50429 H 5074.81 3.36488 2.24851 0
M  V30 50430 H 5071.56 4.68134 0.717488 0
M  V30 50431 H 5071.99 6.70289 -0.950859 0
M  V30 50432 H 5076.63 4.19653 0.514883 0
M  V30 50433 H 5074.35 7.8054 -2.09244 0
M  V30 50434 H 5077.93 5.74742 -0.903458 0
M  V30 50435 H 5076.81 7.53024 -2.18916 0
M  V30 50436 N 5074.32 -0.383837 1.52854 0
M  V30 50437 C 5075.56 -1.12836 1.6815 0
M  V30 50438 C 5075.89 -1.89822 0.424021 0
M  V30 50439 O 5075.15 -1.86477 -0.593699 0
M  V30 50440 C 5075.45 -2.12871 2.8709 0
M  V30 50441 C 5075.11 -1.52504 4.24327 0
M  V30 50442 C 5073.77 -1.35767 4.6165 0
M  V30 50443 C 5076.13 -1.08663 5.09747 0
M  V30 50444 C 5073.45 -0.737438 5.82047 0
M  V30 50445 C 5075.81 -0.480477 6.30773 0
M  V30 50446 C 5074.47 -0.300447 6.66823 0
M  V30 50447 H 5073.74 -0.412895 0.615304 0
M  V30 50448 H 5076.39 -0.41235 1.87008 0
M  V30 50449 H 5074.69 -2.9071 2.62669 0
M  V30 50450 H 5076.39 -2.70397 2.96119 0
M  V30 50451 H 5072.98 -1.6652 3.94929 0
M  V30 50452 H 5077.16 -1.20393 4.81476 0
M  V30 50453 H 5072.42 -0.586201 6.08583 0
M  V30 50454 H 5076.59 -0.132489 6.96274 0
M  V30 50455 H 5074.22 0.182233 7.59982 0
M  V30 50456 N 5075.8 -1.43905 -0.642587 0
M  V30 50457 C 5076.74 -1.49887 -1.75506 0
M  V30 50458 C 5077.71 -0.347595 -1.62422 0
M  V30 50459 O 5078.9 -0.556241 -1.82512 0
M  V30 50460 C 5076.04 -1.43808 -3.13709 0
M  V30 50461 C 5075.15 -2.69222 -3.37851 0
M  V30 50462 C 5074.29 -2.55056 -4.65961 0
M  V30 50463 C 5073.32 -3.75688 -4.83244 0
M  V30 50464 N 5072.46 -3.60268 -6.0262 0
M  V30 50465 H 5077.3 -2.44941 -1.69729 0
M  V30 50466 H 5074.84 -1.21575 -0.828122 0
M  V30 50467 H 5076.8 -1.38276 -3.93619 0
M  V30 50468 H 5075.43 -0.523285 -3.1853 0
M  V30 50469 H 5074.48 -2.84989 -2.51963 0
M  V30 50470 H 5075.79 -3.58798 -3.46504 0
M  V30 50471 H 5074.94 -2.47292 -5.54014 0
M  V30 50472 H 5073.68 -1.63022 -4.59647 0
M  V30 50473 H 5072.69 -3.83849 -3.93624 0
M  V30 50474 H 5073.91 -4.68745 -4.91381 0
M  V30 50475 H 5071.86 -2.70976 -5.97418 0
M  V30 50476 H 5071.78 -4.43453 -6.12279 0
M  V30 50477 H 5073.04 -3.56375 -6.93265 0
M  V30 50478 N 5077.27 0.881943 -1.30612 0
M  V30 50479 C 5078.18 2.02072 -1.19181 0
M  V30 50480 C 5079.2 1.73645 -0.111081 0
M  V30 50481 O 5080.38 1.98734 -0.326598 0
M  V30 50482 C 5077.44 3.35147 -0.887555 0
M  V30 50483 C 5076.5 3.76976 -2.05396 0
M  V30 50484 C 5075.73 5.037 -1.76413 0
M  V30 50485 O 5075.96 5.66168 -0.693501 0
M  V30 50486 O 5074.89 5.4201 -2.61742 0
M  V30 50487 H 5078.72 2.14644 -2.14852 0
M  V30 50488 H 5076.3 1.00839 -1.10235 0
M  V30 50489 H 5078.18 4.14972 -0.733206 0
M  V30 50490 H 5076.86 3.23676 0.0392216 0
M  V30 50491 H 5075.77 2.97841 -2.26365 0
M  V30 50492 H 5077.1 3.93055 -2.96257 0
M  V30 50493 N 5078.75 1.13378 1.09468 0
M  V30 50494 C 5080 0.893486 1.81277 0
M  V30 50495 C 5080.32 -0.581963 1.86113 0
M  V30 50496 O 5079.59 -1.42301 1.34638 0
M  V30 50497 H 5078.17 0.327566 0.671349 0
M  V30 50498 H 5080.83 1.43023 1.32403 0
M  V30 50499 H 5079.93 1.28384 2.84472 0
M  V30 50500 N 5080.23 -1.27438 0.927213 0
M  V30 50501 C 5081.48 -1.94005 0.566271 0
M  V30 50502 C 5081.8 -1.73233 -0.895284 0
M  V30 50503 O 5081.07 -1.07978 -1.63455 0
M  V30 50504 H 5079.65 -0.717909 0.206435 0
M  V30 50505 H 5082.31 -1.55157 1.1795 0
M  V30 50506 H 5081.41 -3.02398 0.772135 0
M  V30 50507 N 5081.71 -0.692666 -1.41562 0
M  V30 50508 C 5082.64 0.0136327 -2.29196 0
M  V30 50509 C 5083.65 0.747366 -1.44632 0
M  V30 50510 O 5084.84 0.598551 -1.68165 0
M  V30 50511 C 5081.94 1.04335 -3.2244 0
M  V30 50512 C 5081.11 0.379831 -4.35748 0
M  V30 50513 C 5080.17 1.31177 -5.09587 0
M  V30 50514 O 5079.2 0.805257 -5.63475 0
M  V30 50515 N 5080.4 2.64425 -5.16778 0
M  V30 50516 H 5083.17 -0.738717 -2.90453 0
M  V30 50517 H 5080.73 -0.538468 -1.52683 0
M  V30 50518 H 5082.72 1.66847 -3.68706 0
M  V30 50519 H 5081.29 1.69727 -2.6251 0
M  V30 50520 H 5080.51 -0.425113 -3.91901 0
M  V30 50521 H 5081.8 -0.0816692 -5.08734 0
M  V30 50522 H 5081.2 3.08097 -4.74439 0
M  V30 50523 H 5079.75 3.22139 -5.6663 0
M  V30 50524 N 5083.19 1.51414 -0.437215 0
M  V30 50525 C 5084.12 2.30632 0.364841 0
M  V30 50526 C 5085.1 1.3604 1.02113 0
M  V30 50527 O 5086.28 1.64959 1.0248 0
M  V30 50528 C 5083.41 3.14825 1.46637 0
M  V30 50529 C 5082.37 4.17694 0.93357 0
M  V30 50530 C 5081.69 4.90408 2.13083 0
M  V30 50531 C 5082.99 5.2229 -0.0319037 0
M  V30 50532 H 5084.69 2.97931 -0.296245 0
M  V30 50533 H 5082.23 1.43279 -0.143915 0
M  V30 50534 H 5084.18 3.69024 2.03468 0
M  V30 50535 H 5082.91 2.45348 2.15574 0
M  V30 50536 H 5081.57 3.64547 0.387474 0
M  V30 50537 H 5081.22 4.17433 2.8064 0
M  V30 50538 H 5080.92 5.59968 1.78072 0
M  V30 50539 H 5082.44 5.4743 2.70468 0
M  V30 50540 H 5083.85 5.71562 0.446101 0
M  V30 50541 H 5082.25 5.99377 -0.294581 0
M  V30 50542 H 5083.32 4.75127 -0.968614 0
M  V30 50543 N 5084.66 0.168568 1.56696 0
M  V30 50544 C 5086.07 -0.34863 1.83416 0
M  V30 50545 C 5086.43 -1.63253 1.08825 0
M  V30 50546 O 5085.55 -2.13706 0.340408 0
M  V30 50547 C 5086.15 -0.639306 3.32714 0
M  V30 50548 C 5084.7 -1.10095 3.59939 0
M  V30 50549 C 5083.85 -0.135367 2.76969 0
M  V30 50550 H 5086.8 0.392883 1.5376 0
M  V30 50551 H 5086.82 -1.49167 3.50042 0
M  V30 50552 H 5086.34 0.295309 3.86975 0
M  V30 50553 H 5084.44 -2.05077 3.11086 0
M  V30 50554 H 5084.55 -1.01201 4.6829 0
M  V30 50555 H 5082.91 -0.632199 2.46729 0
M  V30 50556 H 5083.7 0.793221 3.3401 0
M  V30 50557 N 5086.14 -1.57249 -0.105165 0
M  V30 50558 C 5087.55 -1.74615 -0.660803 0
M  V30 50559 C 5087.9 -0.789294 -1.79623 0
M  V30 50560 O 5087.03 0.034585 -2.16372 0
M  V30 50561 C 5087.62 -3.16629 -1.20548 0
M  V30 50562 C 5086.18 -3.35453 -1.70728 0
M  V30 50563 C 5085.33 -2.70447 -0.612669 0
M  V30 50564 H 5088.28 -1.58239 0.120846 0
M  V30 50565 H 5088.3 -3.18944 -2.07497 0
M  V30 50566 H 5087.81 -3.86246 -0.378876 0
M  V30 50567 H 5085.92 -2.70899 -2.55821 0
M  V30 50568 H 5086.03 -4.43708 -1.8072 0
M  V30 50569 H 5084.39 -2.32065 -1.04967 0
M  V30 50570 H 5085.18 -3.42698 0.203187 0
M  V30 50571 N 5087.62 0.375726 -1.53056 0
M  V30 50572 C 5088.87 1.11721 -1.68413 0
M  V30 50573 C 5089.19 1.90125 -0.433296 0
M  V30 50574 O 5088.46 1.87947 0.552529 0
M  V30 50575 H 5087.04 0.41543 -0.620828 0
M  V30 50576 H 5089.7 0.424802 -1.90214 0
M  V30 50577 H 5088.8 1.81271 -2.54062 0
M  V30 50578 N 5089.1 1.44244 0.634946 0
M  V30 50579 C 5090.05 1.47253 1.74071 0
M  V30 50580 C 5091.03 0.338763 1.57293 0
M  V30 50581 O 5092.22 0.58381 1.67095 0
M  V30 50582 C 5089.35 1.4159 3.12741 0
M  V30 50583 C 5088.44 2.60066 3.35002 0
M  V30 50584 N 5088.83 3.85332 3.27647 0
M  V30 50585 C 5087.13 2.55181 3.65785 0
M  V30 50586 C 5087.83 4.64253 3.50491 0
M  V30 50587 N 5086.81 3.95267 3.73182 0
M  V30 50588 H 5090.61 2.41956 1.66837 0
M  V30 50589 H 5088.12 1.39153 0.837277 0
M  V30 50590 H 5090.12 1.4183 3.92033 0
M  V30 50591 H 5088.78 0.479221 3.21144 0
M  V30 50592 H 5089.79 4.17356 3.0665 0
M  V30 50593 H 5086.47 1.7029 3.81192 0
M  V30 50594 H 5087.86 5.73279 3.50429 0
M  V30 50595 N 5090.58 -0.875004 1.31078 0
M  V30 50596 C 5091.8 -1.66579 1.23556 0
M  V30 50597 C 5092.23 -1.87068 -0.196794 0
M  V30 50598 O 5091.58 -1.40881 -1.14115 0
M  V30 50599 C 5091.63 -3.01394 1.97975 0
M  V30 50600 O 5090.74 -3.90918 1.31365 0
M  V30 50601 H 5090.08 -0.50863 0.426839 0
M  V30 50602 H 5092.61 -1.09133 1.73064 0
M  V30 50603 H 5092.62 -3.51366 2.07378 0
M  V30 50604 H 5091.29 -2.85801 3.02143 0
M  V30 50605 H 5089.87 -3.49364 1.30381 0
M  V30 50606 N 5092.05 -1.13957 -1.08865 0
M  V30 50607 C 5093.3 -0.906215 -1.81427 0
M  V30 50608 C 5093.63 0.566024 -1.85768 0
M  V30 50609 O 5092.91 1.4191 -1.33011 0
M  V30 50610 C 5093.19 -1.50195 -3.27282 0
M  V30 50611 C 5093.04 -3.0437 -3.31178 0
M  V30 50612 C 5094.36 -1.17491 -4.24127 0
M  V30 50613 H 5091.48 -0.330647 -0.658666 0
M  V30 50614 H 5094.12 -1.40877 -1.2749 0
M  V30 50615 H 5092.27 -1.07455 -3.73344 0
M  V30 50616 H 5093.95 -3.55907 -2.93476 0
M  V30 50617 H 5092.19 -3.39062 -2.7059 0
M  V30 50618 H 5092.86 -3.41156 -4.33954 0
M  V30 50619 H 5095.34 -1.54434 -3.8638 0
M  V30 50620 H 5094.21 -1.61814 -5.24507 0
M  V30 50621 H 5094.47 -0.0894866 -4.42009 0
M  V30 50622 N 5093.53 1.26945 -0.933958 0
M  V30 50623 C 5094.46 2.25767 -0.395216 0
M  V30 50624 C 5095.48 1.55639 0.47753 0
M  V30 50625 O 5096.67 1.76143 0.289142 0
M  V30 50626 C 5093.77 3.35875 0.451764 0
M  V30 50627 C 5092.94 4.35538 -0.403143 0
M  V30 50628 C 5092 5.2481 0.382216 0
M  V30 50629 O 5091.02 5.68804 -0.212257 0
M  V30 50630 N 5092.23 5.55642 1.68053 0
M  V30 50631 H 5094.99 2.72629 -1.24473 0
M  V30 50632 H 5092.55 1.40637 -0.802058 0
M  V30 50633 H 5094.54 3.92546 0.984378 0
M  V30 50634 H 5093.11 2.88565 1.20205 0
M  V30 50635 H 5092.33 3.78043 -1.11702 0
M  V30 50636 H 5093.62 4.99128 -0.987376 0
M  V30 50637 H 5093.02 5.21768 2.18574 0
M  V30 50638 H 5091.58 6.14986 2.15954 0
M  V30 50639 N 5095.01 0.700164 1.41193 0
M  V30 50640 C 5096.29 0.160905 1.94937 0
M  V30 50641 C 5096.67 -1.33008 1.63927 0
M  V30 50642 O 5096.02 -2.07874 0.948709 0
M  V30 50643 C 5096.23 0.457113 3.45993 0
M  V30 50644 C 5097.57 0.387355 4.22829 0
M  V30 50645 O 5098.6 0.392288 3.54033 0
M  V30 50646 O 5097.46 0.351459 5.45369 0
M  V30 50647 H 5094.55 0.0176595 0.826811 0
M  V30 50648 H 5097.1 0.776639 1.50885 0
M  V30 50649 H 5095.87 1.48896 3.61864 0
M  V30 50650 H 5095.49 -0.189364 3.97149 0
M  V30 50651 N 5096.49 -1.5118 0.445239 0
M  V30 50652 C 5097.74 -2.01753 -0.118339 0
M  V30 50653 C 5098.06 -1.33092 -1.42519 0
M  V30 50654 O 5097.33 -0.467958 -1.90229 0
M  V30 50655 H 5095.91 -0.745537 -0.046723 0
M  V30 50656 H 5098.57 -1.85763 0.589753 0
M  V30 50657 H 5097.67 -3.10763 -0.288556 0
M  V30 50658 N 5097.97 -0.176876 -1.56604 0
M  V30 50659 C 5099.21 0.467337 -1.97342 0
M  V30 50660 C 5099.55 1.62519 -1.06307 0
M  V30 50661 O 5098.82 1.94181 -0.111318 0
M  V30 50662 C 5099.1 0.944984 -3.4748 0
M  V30 50663 C 5098.96 -0.213431 -4.49293 0
M  V30 50664 C 5100.28 1.81676 -4.00852 0
M  V30 50665 H 5097.39 0.168401 -0.717503 0
M  V30 50666 H 5100.04 -0.264131 -1.88155 0
M  V30 50667 H 5098.19 1.56828 -3.55439 0
M  V30 50668 H 5099.86 -0.850667 -4.53389 0
M  V30 50669 H 5098.1 -0.868068 -4.25026 0
M  V30 50670 H 5098.77 0.162993 -5.51759 0
M  V30 50671 H 5101.25 1.29125 -3.95558 0
M  V30 50672 H 5100.12 2.11997 -5.06309 0
M  V30 50673 H 5100.39 2.76451 -3.45004 0
M  V30 50674 N 5099.44 1.57302 0.0968247 0
M  V30 50675 C 5100.37 2.04974 1.11838 0
M  V30 50676 C 5101.36 0.938327 1.41878 0
M  V30 50677 O 5102.54 1.20948 1.51938 0
M  V30 50678 C 5099.67 2.47272 2.43872 0
M  V30 50679 C 5098.62 3.62061 2.28245 0
M  V30 50680 C 5097.95 3.90331 3.6544 0
M  V30 50681 C 5099.25 4.93012 1.72444 0
M  V30 50682 H 5100.94 2.90569 0.721785 0
M  V30 50683 H 5098.49 1.39787 0.345754 0
M  V30 50684 H 5100.44 2.79231 3.15607 0
M  V30 50685 H 5099.17 1.58674 2.85465 0
M  V30 50686 H 5097.83 3.30347 1.58955 0
M  V30 50687 H 5097.47 2.98903 4.04557 0
M  V30 50688 H 5097.17 4.6761 3.5583 0
M  V30 50689 H 5098.7 4.24762 4.38645 0
M  V30 50690 H 5100.11 5.23363 2.34018 0
M  V30 50691 H 5098.51 5.74442 1.73598 0
M  V30 50692 H 5099.58 4.80055 0.68373 0
M  V30 50693 N 5100.92 -0.367603 1.53253 0
M  V30 50694 C 5102.34 -0.709141 1.4298 0
M  V30 50695 C 5102.54 -1.9335 0.567261 0
M  V30 50696 O 5101.6 -2.52453 0.0489237 0
M  V30 50697 C 5102.91 -0.924237 2.86144 0
M  V30 50698 C 5104.46 -1.02437 2.95763 0
M  V30 50699 C 5104.93 -1.27196 4.39983 0
M  V30 50700 N 5106.42 -1.3397 4.43403 0
M  V30 50701 C 5107.16 -1.54833 5.521 0
M  V30 50702 N 5106.65 -1.73025 6.70846 0
M  V30 50703 N 5108.45 -1.57186 5.39675 0
M  V30 50704 H 5100.6 0.437742 2.0784 0
M  V30 50705 H 5102.86 0.13377 0.938514 0
M  V30 50706 H 5102.57 -0.0964219 3.51568 0
M  V30 50707 H 5102.44 -1.8329 3.29673 0
M  V30 50708 H 5104.83 -1.84273 2.30494 0
M  V30 50709 H 5104.91 -0.0931402 2.5563 0
M  V30 50710 H 5104.55 -0.458615 5.05825 0
M  V30 50711 H 5104.48 -2.21637 4.77687 0
M  V30 50712 H 5106.97 -1.21533 3.57824 0
M  V30 50713 H 5107.29 -1.88511 7.49455 0
M  V30 50714 H 5105.63 -1.70207 6.73836 0
M  V30 50715 H 5108.82 -1.42539 4.4587 0
M  V30 50716 H 5109 -1.73104 6.24451 0
M  V30 50717 N 5102.4 -1.44578 -0.627288 0
M  V30 50718 C 5103.65 -1.46842 -1.38276 0
M  V30 50719 C 5103.96 -0.106419 -1.9531 0
M  V30 50720 O 5105.17 -0.00660629 -2.71499 0
M  V30 50721 C 5103.63 -2.58536 -2.50374 0
M  V30 50722 C 5103.23 -4.0096 -1.99837 0
M  V30 50723 C 5104.98 -2.70024 -3.27547 0
M  V30 50724 C 5102.88 -5.04071 -3.093 0
M  V30 50725 H 5101.81 -0.546338 -0.519645 0
M  V30 50726 H 5104.47 -1.70656 -0.674437 0
M  V30 50727 H 5102.85 -2.27969 -3.238 0
M  V30 50728 H 5104.02 -4.41113 -1.33251 0
M  V30 50729 H 5102.34 -3.93748 -1.35468 0
M  V30 50730 H 5104.93 -3.44231 -4.09156 0
M  V30 50731 H 5105.28 -1.75974 -3.77278 0
M  V30 50732 H 5105.81 -3.0002 -2.61214 0
M  V30 50733 H 5102.55 -5.99763 -2.64509 0
M  V30 50734 H 5102.07 -4.68507 -3.74515 0
M  V30 50735 H 5103.75 -5.27943 -3.74012 0
M  V30 50736 N 5103.88 0.86804 -1.3154 0
M  V30 50737 C 5104.81 1.98161 -1.15173 0
M  V30 50738 C 5105.82 1.62549 -0.0902907 0
M  V30 50739 O 5107.01 1.75271 -0.337971 0
M  V30 50740 C 5104.11 3.30769 -0.737892 0
M  V30 50741 C 5103.29 3.9471 -1.88476 0
M  V30 50742 C 5102.35 5.05636 -1.45666 0
M  V30 50743 O 5101.37 5.26352 -2.16661 0
M  V30 50744 N 5102.57 5.79473 -0.345133 0
M  V30 50745 H 5105.34 2.12747 -2.1109 0
M  V30 50746 H 5102.9 1.04213 -1.239 0
M  V30 50747 H 5104.89 4.02364 -0.434173 0
M  V30 50748 H 5103.46 3.12331 0.129724 0
M  V30 50749 H 5102.68 3.16071 -2.35569 0
M  V30 50750 H 5103.97 4.34166 -2.65288 0
M  V30 50751 H 5103.37 5.65165 0.246061 0
M  V30 50752 H 5101.92 6.51722 -0.100957 0
M  V30 50753 N 5105.36 1.14532 1.0826 0
M  V30 50754 C 5106.31 0.829277 2.17315 0
M  V30 50755 C 5107.3 -0.193462 1.68292 0
M  V30 50756 O 5108.51 -0.0494112 1.79932 0
M  V30 50757 H 5104.88 0.25046 0.709065 0
M  V30 50758 H 5106.85 1.75691 2.41195 0
M  V30 50759 C 5105.6 0.324785 3.4618 0
M  V30 50760 H 5104.92 1.10313 3.8428 0
M  V30 50761 H 5106.36 0.142208 4.23761 0
M  V30 50762 C 5104.82 -0.95192 3.23172 0
M  V30 50763 O 5105.35 -2.02537 3.46903 0
M  V30 50764 N 5103.56 -0.887757 2.76708 0
M  V30 50765 H 5103.11 -0.0140497 2.57596 0
M  V30 50766 H 5103.06 -1.74254 2.61692 0
M  V30 50767 N 5106.84 -1.26448 0.940677 0
M  V30 50768 C 5107.77 -2.28771 0.467559 0
M  V30 50769 C 5108.75 -1.63219 -0.478898 0
M  V30 50770 O 5109.93 -1.90429 -0.380862 0
M  V30 50771 C 5107.06 -3.4626 -0.268534 0
M  V30 50772 C 5106.02 -4.23896 0.59132 0
M  V30 50773 C 5105.34 -5.33994 -0.274703 0
M  V30 50774 C 5106.64 -4.87967 1.86241 0
M  V30 50775 H 5108.34 -2.68596 1.32274 0
M  V30 50776 H 5105.88 -1.29121 0.637481 0
M  V30 50777 H 5107.83 -4.16954 -0.61055 0
M  V30 50778 H 5106.56 -3.05387 -1.15785 0
M  V30 50779 H 5105.22 -3.54966 0.916223 0
M  V30 50780 H 5104.87 -4.89362 -1.16336 0
M  V30 50781 H 5104.57 -5.86848 0.297212 0
M  V30 50782 H 5106.09 -6.07525 -0.611999 0
M  V30 50783 H 5107.5 -5.50878 1.58766 0
M  V30 50784 H 5105.9 -5.50936 2.37885 0
M  V30 50785 H 5106.97 -4.10936 2.57409 0
M  V30 50786 N 5108.31 -0.707642 -1.4082 0
M  V30 50787 C 5109.59 -0.171241 -1.94849 0
M  V30 50788 C 5109.97 1.32137 -1.6463 0
M  V30 50789 O 5109.32 2.07368 -0.95972 0
M  V30 50790 C 5109.53 -0.475455 -3.45746 0
M  V30 50791 C 5110.88 -0.409773 -4.22618 0
M  V30 50792 O 5111.9 -0.411058 -3.5382 0
M  V30 50793 O 5110.76 -0.380376 -5.45175 0
M  V30 50794 H 5107.85 -0.022044 -0.826706 0
M  V30 50795 H 5110.4 -0.78463 -1.50471 0
M  V30 50796 H 5109.17 -1.50813 -3.61069 0
M  V30 50797 H 5108.79 0.168299 -3.97244 0
M  V30 50798 N 5109.79 1.50942 -0.45325 0
M  V30 50799 C 5110.72 2.25924 0.386151 0
M  V30 50800 C 5111.74 1.30553 0.972606 0
M  V30 50801 O 5112.93 1.56194 0.864042 0
M  V30 50802 C 5110.03 3.01182 1.55379 0
M  V30 50803 C 5109.2 4.23771 1.08335 0
M  V30 50804 C 5108.26 4.81474 2.12296 0
M  V30 50805 O 5107.28 5.42881 1.71082 0
M  V30 50806 N 5108.49 4.66901 3.4494 0
M  V30 50807 H 5111.25 2.986 -0.256573 0
M  V30 50808 H 5108.81 1.59407 -0.283021 0
M  V30 50809 H 5110.8 3.36667 2.24582 0
M  V30 50810 H 5109.37 2.31417 2.10155 0
M  V30 50811 H 5108.59 3.93598 0.217823 0
M  V30 50812 H 5109.88 5.03291 0.74668 0
M  V30 50813 H 5109.28 4.18024 3.81146 0
M  V30 50814 H 5107.84 5.06705 4.09992 0
M  V30 50815 N 5111.27 0.185179 1.56508 0
M  V30 50816 C 5112.49 -0.465207 2.02115 0
M  V30 50817 C 5112.92 -1.55079 1.06452 0
M  V30 50818 O 5112.28 -1.81241 0.0463489 0
M  V30 50819 C 5112.33 -1.00772 3.46233 0
M  V30 50820 O 5111.43 -2.12111 3.53671 0
M  V30 50821 H 5110.77 -0.109868 0.654847 0
M  V30 50822 H 5113.3 0.293144 2.02489 0
M  V30 50823 H 5113.31 -1.32684 3.85823 0
M  V30 50824 H 5111.99 -0.212967 4.15354 0
M  V30 50825 H 5110.56 -1.81139 3.2595 0
M  V30 50826 N 5112.75 -1.57351 -0.0884812 0
M  V30 50827 C 5113.99 -1.88251 -0.796296 0
M  V30 50828 C 5114.35 -0.776977 -1.75576 0
M  V30 50829 O 5115.55 -0.968573 -2.50743 0
M  V30 50830 C 5113.82 -3.2439 -1.50019 0
M  V30 50831 S 5115.38 -3.76999 -2.24538 0
M  V30 50832 H 5112.2 -0.659706 -0.265158 0
M  V30 50833 H 5114.8 -1.95428 -0.0531156 0
M  V30 50834 H 5113.51 -4.02767 -0.787858 0
M  V30 50835 H 5113.04 -3.20369 -2.28314 0
M  V30 50836 H 5115.05 -3.50946 -3.50787 0
M  V30 50837 N 5114.23 0.359471 -1.53446 0
M  V30 50838 C 5115.16 1.46092 -1.76607 0
M  V30 50839 C 5116.17 1.49393 -0.646965 0
M  V30 50840 O 5117.36 1.52762 -0.923361 0
M  V30 50841 C 5114.46 2.84829 -1.83645 0
M  V30 50842 C 5113.63 3.05153 -3.13369 0
M  V30 50843 C 5112.69 4.2404 -3.11571 0
M  V30 50844 O 5111.72 4.18921 -3.85349 0
M  V30 50845 N 5112.92 5.31767 -2.32819 0
M  V30 50846 H 5115.68 1.266 -2.71648 0
M  V30 50847 H 5113.25 0.549241 -1.52299 0
M  V30 50848 H 5115.24 3.6251 -1.79912 0
M  V30 50849 H 5113.81 2.97539 -0.958614 0
M  V30 50850 H 5113.03 2.15079 -3.30355 0
M  V30 50851 H 5114.32 3.15605 -3.99088 0
M  V30 50852 H 5113.71 5.3879 -1.72399 0
M  V30 50853 H 5112.27 6.08002 -2.34899 0
M  V30 50854 N 5115.7 1.44909 0.619611 0
M  V30 50855 C 5116.95 1.48004 1.3762 0
M  V30 50856 C 5117.27 0.118363 1.9464 0
M  V30 50857 O 5116.54 -0.850798 1.7646 0
M  V30 50858 H 5115.12 0.545011 0.510854 0
M  V30 50859 H 5117.79 1.80775 0.728459 0
M  V30 50860 H 5116.88 2.21203 2.20171 0
M  V30 50861 N 5117.18 -0.861052 1.31999 0
M  V30 50862 C 5118.41 -1.64736 1.25179 0
M  V30 50863 C 5118.83 -1.87927 -0.181359 0
M  V30 50864 O 5118.18 -1.44374 -1.11635 0
M  V30 50865 C 5118.23 -3.01029 2.0016 0
M  V30 50866 O 5117.95 -2.78868 3.37882 0
M  V30 50867 C 5119.46 -3.95474 2.00287 0
M  V30 50868 H 5116.68 -0.513299 0.432164 0
M  V30 50869 H 5119.22 -1.07413 1.74019 0
M  V30 50870 H 5117.37 -3.55015 1.55058 0
M  V30 50871 H 5117.79 -3.65501 3.76178 0
M  V30 50872 H 5119.26 -4.88394 2.57246 0
M  V30 50873 H 5119.74 -4.27953 0.987557 0
M  V30 50874 H 5120.35 -3.47425 2.45308 0
M  V30 50875 N 5118.66 -1.15105 -1.07651 0
M  V30 50876 C 5119.89 -0.946421 -1.83648 0
M  V30 50877 C 5120.3 0.508577 -1.82236 0
M  V30 50878 O 5119.64 1.36441 -1.23002 0
M  V30 50879 C 5119.7 -1.37957 -3.31976 0
M  V30 50880 C 5119.37 -2.85167 -3.57111 0
M  V30 50881 C 5120.36 -3.83246 -3.51309 0
M  V30 50882 C 5118.05 -3.22763 -3.84875 0
M  V30 50883 C 5120.04 -5.16928 -3.72914 0
M  V30 50884 C 5117.73 -4.56618 -4.06132 0
M  V30 50885 C 5118.73 -5.53509 -4.00146 0
M  V30 50886 O 5118.42 -6.84946 -4.20837 0
M  V30 50887 H 5118.15 -0.336389 -0.58636 0
M  V30 50888 H 5120.7 -1.53203 -1.36814 0
M  V30 50889 H 5118.93 -0.737338 -3.79605 0
M  V30 50890 H 5120.62 -1.14453 -3.8943 0
M  V30 50891 H 5121.39 -3.55547 -3.29866 0
M  V30 50892 H 5117.27 -2.47935 -3.88651 0
M  V30 50893 H 5120.81 -5.92542 -3.68157 0
M  V30 50894 H 5116.71 -4.84034 -4.27061 0
M  V30 50895 H 5117.48 -6.91319 -4.38201 0
M  V30 50896 N 5120.14 1.25947 -0.94737 0
M  V30 50897 C 5121.39 1.92756 -0.593955 0
M  V30 50898 C 5121.7 1.75086 0.872032 0
M  V30 50899 O 5122.91 2.36405 1.33509 0
M  V30 50900 C 5121.36 3.45392 -1.01156 0
M  V30 50901 C 5120.97 3.71786 -2.49959 0
M  V30 50902 C 5122.71 4.1817 -0.730332 0
M  V30 50903 C 5120.62 5.17891 -2.85557 0
M  V30 50904 H 5119.55 0.721668 -0.218428 0
M  V30 50905 H 5122.2 1.42926 -1.15084 0
M  V30 50906 H 5120.58 3.94142 -0.383145 0
M  V30 50907 H 5121.76 3.33717 -3.17757 0
M  V30 50908 H 5120.07 3.12253 -2.75476 0
M  V30 50909 H 5122.67 5.25781 -0.972552 0
M  V30 50910 H 5123.01 4.14965 0.333077 0
M  V30 50911 H 5123.55 3.75305 -1.31875 0
M  V30 50912 H 5120.29 5.26202 -3.90886 0
M  V30 50913 H 5119.81 5.57034 -2.22425 0
M  V30 50914 H 5121.48 5.8595 -2.74356 0
M  V30 50915 N 5121.62 0.7151 1.40442 0
M  V30 50916 C 5122.86 0.258813 2.02755 0
M  V30 50917 C 5123.22 -1.12656 1.55476 0
M  V30 50918 O 5124.42 -1.6798 2.09848 0
M  V30 50919 C 5122.69 0.335326 3.55823 0
M  V30 50920 S 5124.25 -0.0440467 4.38778 0
M  V30 50921 H 5121.07 0.102707 0.703543 0
M  V30 50922 H 5123.67 0.937211 1.71571 0
M  V30 50923 H 5122.38 1.34524 3.87726 0
M  V30 50924 H 5121.91 -0.361567 3.91735 0
M  V30 50925 H 5123.92 -1.26622 4.79772 0
M  V30 50926 N 5123.09 -1.50699 0.461248 0
M  V30 50927 C 5124.03 -2.26125 -0.374164 0
M  V30 50928 C 5125.04 -1.31067 -0.965669 0
M  V30 50929 O 5126.23 -1.5665 -0.855746 0
M  V30 50930 C 5123.33 -3.02002 -1.5378 0
M  V30 50931 C 5122.5 -4.2434 -1.06086 0
M  V30 50932 C 5121.56 -4.82593 -2.09739 0
M  V30 50933 O 5120.59 -5.43781 -1.682 0
M  V30 50934 N 5121.79 -4.68724 -3.42459 0
M  V30 50935 H 5124.55 -2.98459 0.272405 0
M  V30 50936 H 5122.11 -1.59255 0.29147 0
M  V30 50937 H 5124.11 -3.37854 -2.22794 0
M  V30 50938 H 5122.68 -2.32528 -2.08925 0
M  V30 50939 H 5121.9 -3.93708 -0.196946 0
M  V30 50940 H 5123.18 -5.0368 -0.719979 0
M  V30 50941 H 5122.58 -4.2004 -3.78924 0
M  V30 50942 H 5121.14 -5.08872 -4.07299 0
M  V30 50943 N 5124.57 -0.193476 -1.56408 0
M  V30 50944 C 5125.54 0.714294 -2.17785 0
M  V30 50945 C 5126.54 1.14216 -1.13187 0
M  V30 50946 O 5127.73 1.05552 -1.3858 0
M  V30 50947 C 5124.86 1.97499 -2.77861 0
M  V30 50948 H 5126.05 0.179609 -2.99362 0
M  V30 50949 H 5123.6 0.0561395 -1.56199 0
M  V30 50950 H 5124.34 2.55223 -2.00079 0
M  V30 50951 H 5124.12 1.67694 -3.54431 0
M  V30 50952 H 5125.61 2.62235 -3.24996 0
M  V30 50953 N 5126.05 1.57396 0.0801353 0
M  V30 50954 C 5127 1.99554 1.10282 0
M  V30 50955 C 5127.98 0.876282 1.34945 0
M  V30 50956 O 5129.18 1.14017 1.35385 0
M  V30 50957 C 5126.31 2.43605 2.41892 0
M  V30 50958 C 5125.39 3.62248 2.20539 0
M  V30 50959 N 5125.78 4.76699 1.69092 0
M  V30 50960 C 5124.08 3.68635 2.51046 0
M  V30 50961 C 5124.78 5.58582 1.62359 0
M  V30 50962 N 5123.76 5.02186 2.08112 0
M  V30 50963 H 5127.56 2.85485 0.698235 0
M  V30 50964 H 5125.07 1.59838 0.287339 0
M  V30 50965 H 5127.07 2.72043 3.15909 0
M  V30 50966 H 5125.73 1.59057 2.83074 0
M  V30 50967 H 5126.74 4.99155 1.38075 0
M  V30 50968 H 5123.42 2.94782 2.95651 0
M  V30 50969 H 5124.81 6.60451 1.23507 0
M  V30 50970 N 5127.53 -0.351328 1.53634 0
M  V30 50971 C 5128.78 -1.09028 1.70169 0
M  V30 50972 C 5129.1 -1.89412 0.463489 0
M  V30 50973 O 5128.37 -1.88802 -0.522558 0
M  V30 50974 H 5126.95 -0.4055 0.627358 0
M  V30 50975 H 5129.61 -0.394487 1.90866 0
M  V30 50976 H 5128.71 -1.77206 2.56913 0
M  V30 50977 N 5129.01 -1.45235 -0.611918 0
M  V30 50978 C 5130.42 -1.43544 -1.19382 0
M  V30 50979 C 5130.77 -0.160782 -1.9554 0
M  V30 50980 O 5129.89 0.737883 -2.03431 0
M  V30 50981 C 5130.49 -2.60052 -2.17159 0
M  V30 50982 C 5129.05 -2.61495 -2.70735 0
M  V30 50983 C 5128.19 -2.35713 -1.46064 0
M  V30 50984 H 5131.15 -1.53538 -0.401475 0
M  V30 50985 H 5131.17 -2.33904 -3.00116 0
M  V30 50986 H 5130.68 -3.52809 -1.61702 0
M  V30 50987 H 5128.78 -1.72733 -3.30143 0
M  V30 50988 H 5128.89 -3.60583 -3.15463 0
M  V30 50989 H 5127.26 -1.85184 -1.74869 0
M  V30 50990 H 5128.04 -3.30609 -0.924806 0
M  V30 50991 N 5130.49 0.85404 -1.32453 0
M  V30 50992 C 5131.73 1.61046 -1.24241 0
M  V30 50993 C 5132.09 1.91421 0.19381 0
M  V30 50994 O 5131.38 1.54603 1.13175 0
M  V30 50995 C 5131.57 2.93739 -2.03598 0
M  V30 50996 C 5131.4 2.76322 -3.5479 0
M  V30 50997 C 5130.17 2.74673 -4.24126 0
M  V30 50998 C 5132.37 2.50037 -4.49429 0
M  V30 50999 N 5130.35 2.48473 -5.61368 0
M  V30 51000 C 5131.72 2.33249 -5.74452 0
M  V30 51001 C 5133.78 2.3551 -4.38679 0
M  V30 51002 C 5132.48 2.0341 -6.8994 0
M  V30 51003 C 5134.51 2.07062 -5.53967 0
M  V30 51004 C 5133.87 1.91074 -6.7799 0
M  V30 51005 H 5129.97 0.59299 -0.509791 0
M  V30 51006 H 5132.55 1.00386 -1.66825 0
M  V30 51007 H 5130.72 3.52376 -1.63357 0
M  V30 51008 H 5132.46 3.58762 -1.87275 0
M  V30 51009 H 5129.21 2.87633 -3.7625 0
M  V30 51010 H 5129.63 2.383 -6.33674 0
M  V30 51011 H 5134.28 2.4659 -3.43443 0
M  V30 51012 H 5131.99 1.91067 -7.85187 0
M  V30 51013 H 5135.58 1.96599 -5.47577 0
M  V30 51014 H 5134.46 1.69375 -7.6569 0
M  V30 51015 N 5131.96 1.15674 1.07039 0
M  V30 51016 C 5133.21 0.931736 1.79341 0
M  V30 51017 C 5133.53 -0.542355 1.87306 0
M  V30 51018 O 5132.8 -1.39413 1.37626 0
M  V30 51019 H 5131.38 0.341733 0.66425 0
M  V30 51020 H 5134.04 1.45799 1.29339 0
M  V30 51021 H 5133.14 1.34389 2.81684 0
M  V30 51022 N 5133.44 -1.25443 0.954036 0
M  V30 51023 C 5134.39 -2.2591 0.472564 0
M  V30 51024 C 5135.36 -1.59174 -0.474634 0
M  V30 51025 O 5136.54 -1.86813 -0.388016 0
M  V30 51026 C 5133.68 -3.44236 -0.244097 0
M  V30 51027 C 5132.8 -4.2561 0.74027 0
M  V30 51028 C 5131.93 -5.312 0.00110901 0
M  V30 51029 C 5130.97 -6.04261 0.976448 0
M  V30 51030 N 5130.11 -7.01588 0.268199 0
M  V30 51031 H 5134.95 -2.66464 1.33419 0
M  V30 51032 H 5132.48 -1.31002 0.669091 0
M  V30 51033 H 5134.44 -4.11684 -0.676169 0
M  V30 51034 H 5133.07 -3.04558 -1.06977 0
M  V30 51035 H 5132.12 -3.57829 1.29083 0
M  V30 51036 H 5133.44 -4.76195 1.48458 0
M  V30 51037 H 5132.59 -6.04721 -0.489627 0
M  V30 51038 H 5131.33 -4.81487 -0.77599 0
M  V30 51039 H 5130.33 -5.29556 1.47819 0
M  V30 51040 H 5131.56 -6.56064 1.75377 0
M  V30 51041 H 5129.51 -6.54166 -0.490173 0
M  V30 51042 H 5129.42 -7.49987 0.951607 0
M  V30 51043 H 5130.69 -7.79241 -0.20102 0
M  V30 51044 N 5134.92 -0.722538 -1.40061 0
M  V30 51045 C 5135.88 -0.0831014 -2.29049 0
M  V30 51046 C 5136.88 0.680157 -1.45707 0
M  V30 51047 O 5138.07 0.511025 -1.66536 0
M  V30 51048 C 5135.2 0.891976 -3.29024 0
M  V30 51049 H 5136.4 -0.866949 -2.87096 0
M  V30 51050 H 5133.95 -0.487608 -1.48499 0
M  V30 51051 H 5134.69 1.70263 -2.76009 0
M  V30 51052 H 5134.47 0.347473 -3.90557 0
M  V30 51053 H 5135.96 1.33634 -3.95641 0
M  V30 51054 N 5136.4 1.50453 -0.469234 0
M  V30 51055 C 5137.33 2.26321 0.362167 0
M  V30 51056 C 5138.34 1.31578 0.958705 0
M  V30 51057 O 5139.53 1.57102 0.847427 0
M  V30 51058 C 5136.63 3.02813 1.52176 0
M  V30 51059 C 5135.8 4.24897 1.03835 0
M  V30 51060 C 5134.86 4.83698 2.07177 0
M  V30 51061 O 5133.89 5.44665 1.65314 0
M  V30 51062 N 5135.09 4.70534 3.39968 0
M  V30 51063 H 5137.86 2.98311 -0.288229 0
M  V30 51064 H 5135.42 1.59098 -0.299912 0
M  V30 51065 H 5137.41 3.3903 2.20999 0
M  V30 51066 H 5135.98 2.33633 2.07689 0
M  V30 51067 H 5135.2 3.93807 0.176064 0
M  V30 51068 H 5136.49 5.04055 0.693257 0
M  V30 51069 H 5135.89 4.22043 3.76691 0
M  V30 51070 H 5134.44 5.11025 4.04594 0
M  V30 51071 N 5137.88 0.201768 1.56303 0
M  V30 51072 C 5138.84 -0.702734 2.18161 0
M  V30 51073 C 5139.84 -1.13615 1.13791 0
M  V30 51074 O 5141.03 -1.04815 1.39138 0
M  V30 51075 C 5138.16 -1.96023 2.78905 0
M  V30 51076 H 5139.35 -0.163731 2.99453 0
M  V30 51077 H 5136.91 -0.0478551 1.56227 0
M  V30 51078 H 5137.64 -2.54158 2.0143 0
M  V30 51079 H 5137.43 -1.65812 3.55315 0
M  V30 51080 H 5138.92 -2.60508 3.26382 0
M  V30 51081 N 5139.35 -1.57436 -0.071787 0
M  V30 51082 C 5140.58 -1.9186 -0.787678 0
M  V30 51083 C 5141 -0.798179 -1.70325 0
M  V30 51084 O 5140.36 0.248987 -1.79582 0
M  V30 51085 C 5140.41 -3.25238 -1.55733 0
M  V30 51086 O 5139.51 -3.14472 -2.66798 0
M  V30 51087 H 5138.85 -0.628265 -0.214892 0
M  V30 51088 H 5141.38 -2.04561 -0.0400293 0
M  V30 51089 H 5141.39 -3.59111 -1.93657 0
M  V30 51090 H 5140.07 -4.06363 -0.885548 0
M  V30 51091 H 5138.65 -2.92156 -2.31731 0
M  V30 51092 N 5140.83 0.343176 -1.53818 0
M  V30 51093 C 5141.79 1.40438 -1.81135 0
M  V30 51094 C 5142.79 1.45601 -0.682417 0
M  V30 51095 O 5143.98 1.4597 -0.950701 0
M  V30 51096 C 5141.12 2.79362 -1.95371 0
M  V30 51097 H 5142.31 1.17479 -2.75932 0
M  V30 51098 H 5139.86 0.577585 -1.45237 0
M  V30 51099 H 5140.6 3.07603 -1.02718 0
M  V30 51100 H 5140.38 2.7701 -2.77503 0
M  V30 51101 H 5141.87 3.5617 -2.1802 0
M  V30 51102 N 5142.31 1.45558 0.604207 0
M  V30 51103 C 5143.24 1.505 1.72865 0
M  V30 51104 C 5144.25 0.395424 1.57925 0
M  V30 51105 O 5145.44 0.662662 1.65744 0
M  V30 51106 C 5142.54 1.34884 3.10901 0
M  V30 51107 C 5141.72 2.59577 3.52049 0
M  V30 51108 C 5140.78 2.3847 4.69061 0
M  V30 51109 O 5139.8 3.12099 4.76007 0
M  V30 51110 N 5141 1.43248 5.62548 0
M  V30 51111 H 5143.77 2.47446 1.69088 0
M  V30 51112 H 5141.33 1.41341 0.789586 0
M  V30 51113 H 5143.32 1.18569 3.86941 0
M  V30 51114 H 5141.89 0.462022 3.09167 0
M  V30 51115 H 5141.11 2.90984 2.65936 0
M  V30 51116 H 5142.4 3.42455 3.76301 0
M  V30 51117 H 5141.8 0.824911 5.59653 0
M  V30 51118 H 5140.35 1.32904 6.38106 0
M  V30 51119 N 5143.79 -0.847003 1.32905 0
M  V30 51120 C 5144.72 -1.97161 1.25098 0
M  V30 51121 C 5145.7 -1.69578 0.133221 0
M  V30 51122 O 5146.88 -1.91518 0.321658 0
M  V30 51123 C 5144.01 -3.33154 0.981123 0
M  V30 51124 C 5142.97 -3.75112 2.06095 0
M  V30 51125 C 5142.29 -5.0882 1.64336 0
M  V30 51126 C 5143.59 -3.89762 3.47683 0
M  V30 51127 H 5145.29 -2.0395 2.19191 0
M  V30 51128 H 5142.83 -0.97987 1.0552 0
M  V30 51129 H 5144.79 -4.1139 0.913036 0
M  V30 51130 H 5143.51 -3.266 0.0045704 0
M  V30 51131 H 5142.17 -2.99133 2.11932 0
M  V30 51132 H 5141.82 -4.9873 0.654052 0
M  V30 51133 H 5141.52 -5.37865 2.36591 0
M  V30 51134 H 5143.04 -5.89541 1.58978 0
M  V30 51135 H 5144.46 -4.58331 3.44392 0
M  V30 51136 H 5142.85 -4.30233 4.18353 0
M  V30 51137 H 5143.92 -2.92449 3.86784 0
M  V30 51138 N 5145.27 -1.1624 -1.06424 0
M  V30 51139 C 5146.51 -0.944494 -1.79464 0
M  V30 51140 C 5146.85 0.526492 -1.86927 0
M  V30 51141 O 5146.12 1.39057 -1.35991 0
M  V30 51142 C 5146.4 -1.57103 -3.24023 0
M  V30 51143 C 5146.26 -3.11326 -3.24647 0
M  V30 51144 C 5147.58 -1.26461 -4.21539 0
M  V30 51145 H 5144.69 -0.344544 -0.651505 0
M  V30 51146 H 5147.34 -1.4355 -1.24473 0
M  V30 51147 H 5145.49 -1.1535 -3.70981 0
M  V30 51148 H 5147.16 -3.62052 -2.8586 0
M  V30 51149 H 5145.4 -3.44726 -2.63337 0
M  V30 51150 H 5146.07 -3.50284 -4.2662 0
M  V30 51151 H 5148.55 -1.62595 -3.83017 0
M  V30 51152 H 5147.42 -1.72903 -5.20957 0
M  V30 51153 H 5147.69 -0.183223 -4.4172 0
M  V30 51154 N 5146.74 1.24935 -0.960675 0
M  V30 51155 C 5147.99 1.92116 -0.614366 0
M  V30 51156 C 5148.31 1.76001 0.853412 0
M  V30 51157 O 5149.51 2.37808 1.30994 0
M  V30 51158 C 5147.97 3.44299 -1.04814 0
M  V30 51159 C 5147.58 3.69114 -2.53888 0
M  V30 51160 C 5149.32 4.17372 -0.774644 0
M  V30 51161 C 5147.23 5.14833 -2.91034 0
M  V30 51162 H 5146.16 0.719311 -0.22607 0
M  V30 51163 H 5148.81 1.41697 -1.16594 0
M  V30 51164 H 5147.19 3.93714 -0.424928 0
M  V30 51165 H 5148.36 3.30328 -3.21279 0
M  V30 51166 H 5146.68 3.09313 -2.78773 0
M  V30 51167 H 5149.28 5.2472 -1.02826 0
M  V30 51168 H 5149.62 4.15295 0.289046 0
M  V30 51169 H 5150.15 3.73885 -1.35849 0
M  V30 51170 H 5146.89 5.22026 -3.96445 0
M  V30 51171 H 5146.41 5.54644 -2.28321 0
M  V30 51172 H 5148.09 5.83007 -2.80556 0
M  V30 51173 N 5148.22 0.729956 1.39676 0
M  V30 51174 C 5149.15 0.0471394 2.29152 0
M  V30 51175 C 5150.17 -0.708757 1.46562 0
M  V30 51176 O 5151.36 -0.553755 1.69693 0
M  V30 51177 C 5148.46 -0.957498 3.25093 0
M  V30 51178 C 5147.63 -0.264167 4.36602 0
M  V30 51179 C 5146.69 -1.1762 5.12886 0
M  V30 51180 O 5145.71 -0.655579 5.65412 0
M  V30 51181 N 5146.92 -2.50631 5.23607 0
M  V30 51182 H 5149.68 0.815465 2.88393 0
M  V30 51183 H 5147.24 0.57876 1.51202 0
M  V30 51184 H 5149.23 -1.57013 3.73 0
M  V30 51185 H 5147.8 -1.62707 2.66918 0
M  V30 51186 H 5147.02 0.528869 3.90636 0
M  V30 51187 H 5148.31 0.216522 5.08339 0
M  V30 51188 H 5147.71 -2.9541 4.82441 0
M  V30 51189 H 5146.27 -3.07002 5.74972 0
M  V30 51190 N 5149.7 -1.50202 0.477206 0
M  V30 51191 C 5150.66 -2.27195 -0.302519 0
M  V30 51192 C 5151.66 -1.32224 -0.915066 0
M  V30 51193 O 5152.85 -1.55596 -0.783293 0
M  V30 51194 C 5149.99 -3.09385 -1.43156 0
M  V30 51195 H 5151.18 -2.97574 0.372783 0
M  V30 51196 H 5148.73 -1.54577 0.231446 0
M  V30 51197 H 5149.47 -2.43516 -2.14174 0
M  V30 51198 H 5149.25 -3.79185 -0.998064 0
M  V30 51199 H 5150.74 -3.67599 -1.98144 0
M  V30 51200 N 5151.18 -0.210054 -1.56194 0
M  V30 51201 C 5152.11 0.699668 -2.22771 0
M  V30 51202 C 5153.09 1.20989 -1.19565 0
M  V30 51203 O 5154.27 1.25599 -1.48116 0
M  V30 51204 C 5151.4 1.91292 -2.8987 0
M  V30 51205 C 5150.36 1.53701 -3.9945 0
M  V30 51206 C 5149.68 2.8281 -4.53787 0
M  V30 51207 C 5150.98 0.735655 -5.17093 0
M  V30 51208 H 5152.68 0.144611 -2.99051 0
M  V30 51209 H 5150.22 0.0681139 -1.43839 0
M  V30 51210 H 5152.18 2.55468 -3.35133 0
M  V30 51211 H 5150.9 2.49275 -2.1102 0
M  V30 51212 H 5149.56 0.918767 -3.549 0
M  V30 51213 H 5149.21 3.38914 -3.71681 0
M  V30 51214 H 5148.91 2.58396 -5.27736 0
M  V30 51215 H 5150.43 3.47948 -5.01761 0
M  V30 51216 H 5151.85 1.28085 -5.58809 0
M  V30 51217 H 5150.24 0.589062 -5.97202 0
M  V30 51218 H 5151.31 -0.260174 -4.84202 0
M  V30 51219 N 5152.66 1.57472 0.0634368 0
M  V30 51220 C 5154.07 1.76305 0.614275 0
M  V30 51221 C 5154.42 0.83664 1.77468 0
M  V30 51222 O 5153.54 0.0227945 2.16388 0
M  V30 51223 C 5154.14 3.19713 1.12111 0
M  V30 51224 C 5152.7 3.39862 1.61774 0
M  V30 51225 C 5151.84 2.71976 0.540749 0
M  V30 51226 H 5154.8 1.57863 -0.162758 0
M  V30 51227 H 5154.82 3.24333 1.98968 0
M  V30 51228 H 5154.33 3.87115 0.276336 0
M  V30 51229 H 5152.43 2.77587 2.48549 0
M  V30 51230 H 5152.54 4.48344 1.68892 0
M  V30 51231 H 5150.91 2.34766 0.987771 0
M  V30 51232 H 5151.69 3.42039 -0.293976 0
M  V30 51233 N 5154.13 -0.335013 1.53998 0
M  V30 51234 C 5155.36 -1.09853 1.75918 0
M  V30 51235 C 5155.78 -1.81306 0.500979 0
M  V30 51236 O 5155.14 -1.72856 -0.546869 0
M  V30 51237 C 5155.19 -2.08112 2.94486 0
M  V30 51238 O 5154.29 -3.15795 2.6523 0
M  V30 51239 H 5153.64 -0.317293 0.583285 0
M  V30 51240 H 5156.17 -0.382801 2.00987 0
M  V30 51241 H 5156.18 -2.51184 3.21513 0
M  V30 51242 H 5154.85 -1.55503 3.85735 0
M  V30 51243 H 5153.43 -2.7748 2.49117 0
M  V30 51244 N 5155.61 -1.45876 -0.596479 0
M  V30 51245 C 5156.86 -1.50695 -1.35717 0
M  V30 51246 C 5157.19 -0.152574 -1.936 0
M  V30 51247 O 5156.47 0.834349 -1.75695 0
M  V30 51248 C 5156.75 -2.59483 -2.49681 0
M  V30 51249 C 5156.6 -4.04403 -1.96922 0
M  V30 51250 C 5157.92 -2.64463 -3.51777 0
M  V30 51251 H 5155.04 -0.548628 -0.492114 0
M  V30 51252 H 5157.68 -1.77743 -0.671366 0
M  V30 51253 H 5155.83 -2.36549 -3.08183 0
M  V30 51254 H 5157.5 -4.38581 -1.42984 0
M  V30 51255 H 5155.75 -4.14534 -1.27844 0
M  V30 51256 H 5156.42 -4.76228 -2.79126 0
M  V30 51257 H 5158.89 -2.85041 -3.03135 0
M  V30 51258 H 5157.77 -3.42426 -4.28994 0
M  V30 51259 H 5158.03 -1.69979 -4.08117 0
M  V30 51260 N 5157.09 0.839943 -1.33352 0
M  V30 51261 C 5158.02 1.96495 -1.26142 0
M  V30 51262 C 5159 1.69504 -0.142212 0
M  V30 51263 O 5160.19 1.91344 -0.331811 0
M  V30 51264 C 5157.32 3.32629 -0.998777 0
M  V30 51265 C 5156.27 3.74014 -2.08081 0
M  V30 51266 C 5155.6 5.07941 -1.67032 0
M  V30 51267 C 5156.9 3.87912 -3.49745 0
M  V30 51268 H 5158.59 2.02785 -2.20269 0
M  V30 51269 H 5156.14 0.97426 -1.06039 0
M  V30 51270 H 5158.09 4.109 -0.93484 0
M  V30 51271 H 5156.81 3.26593 -0.0218907 0
M  V30 51272 H 5155.47 2.98005 -2.13515 0
M  V30 51273 H 5155.12 4.98376 -0.680491 0
M  V30 51274 H 5154.82 5.36602 -2.3944 0
M  V30 51275 H 5156.34 5.88689 -1.62103 0
M  V30 51276 H 5157.76 4.56498 -3.46818 0
M  V30 51277 H 5156.16 4.28008 -4.20629 0
M  V30 51278 H 5157.23 2.90394 -3.88329 0
M  V30 51279 N 5158.57 1.16803 1.05806 0
M  V30 51280 C 5159.82 0.947043 1.78084 0
M  V30 51281 C 5160.13 -0.52595 1.88396 0
M  V30 51282 O 5161.34 -0.86497 2.57353 0
M  V30 51283 C 5159.79 1.64519 3.20096 0
M  V30 51284 C 5159.4 3.15629 3.17935 0
M  V30 51285 C 5161.14 1.50636 3.96874 0
M  V30 51286 C 5159.05 3.7816 4.54697 0
M  V30 51287 H 5157.98 0.350693 0.667481 0
M  V30 51288 H 5160.63 1.39989 1.1864 0
M  V30 51289 H 5159.01 1.12007 3.7983 0
M  V30 51290 H 5160.19 3.75025 2.67755 0
M  V30 51291 H 5158.5 3.29453 2.54656 0
M  V30 51292 H 5161.1 1.9473 4.9798 0
M  V30 51293 H 5161.44 0.45601 4.13795 0
M  V30 51294 H 5161.98 2.00331 3.43674 0
M  V30 51295 H 5158.72 4.83165 4.42981 0
M  V30 51296 H 5158.24 3.2355 5.0505 0
M  V30 51297 H 5159.91 3.80004 5.23647 0
M  V30 51298 N 5160.05 -1.24424 0.967287 0
M  V30 51299 C 5161 -2.27402 0.489007 0
M  V30 51300 C 5161.99 -1.63389 -0.447245 0
M  V30 51301 O 5163.2 -1.77086 -0.32258 0
M  V30 51302 H 5159.57 -0.738916 0.139669 0
M  V30 51303 H 5161.54 -2.65117 1.36951 0
M  V30 51304 C 5160.29 -3.47091 -0.205665 0
M  V30 51305 H 5159.61 -3.96589 0.50565 0
M  V30 51306 H 5161.05 -4.20992 -0.504148 0
M  V30 51307 C 5159.51 -3.04928 -1.4325 0
M  V30 51308 O 5160.04 -3.12052 -2.52956 0
M  V30 51309 N 5158.25 -2.59981 -1.2984 0
M  V30 51310 H 5157.8 -2.54384 -0.405787 0
M  V30 51311 H 5157.75 -2.32135 -2.12039 0
M  V30 51312 N 5161.53 -0.737353 -1.39287 0
M  V30 51313 C 5162.77 -0.283199 -1.99702 0
M  V30 51314 C 5163.09 1.13671 -1.5918 0
M  V30 51315 O 5164.29 1.6905 -2.12448 0
M  V30 51316 C 5162.75 -0.455387 -3.57007 0
M  V30 51317 C 5162.36 -1.88333 -4.06491 0
M  V30 51318 C 5164.1 -0.0631278 -4.24453 0
M  V30 51319 C 5162.01 -2.00495 -5.56377 0
M  V30 51320 H 5160.94 -0.102132 -0.747051 0
M  V30 51321 H 5163.59 -0.911571 -1.59257 0
M  V30 51322 H 5161.97 0.241918 -3.9526 0
M  V30 51323 H 5163.15 -2.61278 -3.79566 0
M  V30 51324 H 5161.46 -2.22902 -3.51715 0
M  V30 51325 H 5164.06 -0.132975 -5.34535 0
M  V30 51326 H 5164.4 0.981986 -4.04552 0
M  V30 51327 H 5164.93 -0.711677 -3.91382 0
M  V30 51328 H 5161.67 -3.03203 -5.81161 0
M  V30 51329 H 5161.19 -1.31989 -5.85097 0
M  V30 51330 H 5162.87 -1.78722 -6.21826 0
M  V30 51331 N 5163 1.49946 -0.485165 0
M  V30 51332 C 5164.42 1.58983 -0.140152 0
M  V30 51333 C 5164.62 1.49199 1.35433 0
M  V30 51334 O 5163.68 1.35773 2.1289 0
M  V30 51335 C 5164.99 2.9237 -0.702872 0
M  V30 51336 C 5166.54 3.05798 -0.667557 0
M  V30 51337 C 5167.01 4.4178 -1.20806 0
M  V30 51338 N 5168.5 4.4823 -1.16808 0
M  V30 51339 C 5169.24 5.51866 -1.55665 0
M  V30 51340 N 5168.73 6.62685 -2.0204 0
M  V30 51341 N 5170.53 5.42489 -1.4718 0
M  V30 51342 H 5162.68 1.5455 -1.45699 0
M  V30 51343 H 5164.94 0.731185 -0.603385 0
M  V30 51344 H 5164.65 3.0505 -1.75036 0
M  V30 51345 H 5164.52 3.76884 -0.154337 0
M  V30 51346 H 5166.91 2.92758 0.371054 0
M  V30 51347 H 5166.99 2.23007 -1.25306 0
M  V30 51348 H 5166.63 4.55571 -2.24538 0
M  V30 51349 H 5166.56 5.23186 -0.598648 0
M  V30 51350 H 5169.05 3.68715 -0.828112 0
M  V30 51351 H 5169.37 7.37842 -2.29801 0
M  V30 51352 H 5167.71 6.63768 -2.06003 0
M  V30 51353 H 5170.9 4.54802 -1.10781 0
M  V30 51354 H 5171.08 6.23134 -1.77788 0
M  V30 51355 N 5164.48 0.218335 1.5608 0
M  V30 51356 C 5165.71 -0.419186 2.02609 0
M  V30 51357 C 5166.12 -1.53575 1.09819 0
M  V30 51358 O 5165.48 -1.82185 0.107213 0
M  V30 51359 C 5165.53 -0.953833 3.48689 0
M  V30 51360 O 5165.25 0.118204 4.37941 0
M  V30 51361 C 5166.75 -1.66492 4.10847 0
M  V30 51362 H 5163.97 -0.102936 0.663057 0
M  V30 51363 H 5166.52 0.333847 2.01757 0
M  V30 51364 H 5164.67 -1.65715 3.50167 0
M  V30 51365 H 5165.09 -0.283175 5.23735 0
M  V30 51366 H 5166.56 -1.99105 5.14841 0
M  V30 51367 H 5167.04 -2.57692 3.55656 0
M  V30 51368 H 5167.64 -1.00688 4.13209 0
M  V30 51369 N 5165.96 -1.57504 -0.0550848 0
M  V30 51370 C 5167.18 -1.92685 -0.767284 0
M  V30 51371 C 5167.61 -0.8162 -1.69469 0
M  V30 51372 O 5166.97 0.229926 -1.79836 0
M  V30 51373 C 5167.02 -3.26871 -1.52274 0
M  V30 51374 O 5166.12 -3.17284 -2.63448 0
M  V30 51375 H 5165.46 -0.630509 -0.208216 0
M  V30 51376 H 5167.99 -2.04592 -0.0183307 0
M  V30 51377 H 5168 -3.61145 -1.89837 0
M  V30 51378 H 5166.68 -4.07279 -0.842398 0
M  V30 51379 H 5165.25 -2.94597 -2.28619 0
M  V30 51380 N 5167.44 0.326842 -1.54174 0
M  V30 51381 C 5168.68 1.06675 -1.72477 0
M  V30 51382 C 5169.02 1.87778 -0.495296 0
M  V30 51383 O 5168.29 1.87756 0.507737 0
M  V30 51384 C 5168.57 1.99418 -2.99841 0
M  V30 51385 C 5168.43 1.21667 -4.33033 0
M  V30 51386 C 5169.75 2.98991 -3.22944 0
M  V30 51387 H 5166.87 0.386415 -0.627576 0
M  V30 51388 H 5169.51 0.343713 -1.86865 0
M  V30 51389 H 5167.66 2.61071 -2.87705 0
M  V30 51390 H 5169.33 0.624993 -4.57047 0
M  V30 51391 H 5167.57 0.518894 -4.30685 0
M  V30 51392 H 5168.24 1.89748 -5.18363 0
M  V30 51393 H 5170.72 2.47458 -3.3452 0
M  V30 51394 H 5169.6 3.6107 -4.13424 0
M  V30 51395 H 5169.86 3.71273 -2.40019 0
M  V30 51396 N 5168.92 1.46191 0.588735 0
M  V30 51397 C 5169.85 1.52325 1.71259 0
M  V30 51398 C 5170.86 0.412151 1.57497 0
M  V30 51399 O 5172.05 0.680204 1.65032 0
M  V30 51400 C 5169.15 1.38174 3.09453 0
M  V30 51401 C 5168.32 2.63296 3.49276 0
M  V30 51402 C 5167.38 2.43431 4.66506 0
M  V30 51403 O 5166.41 3.1713 4.72671 0
M  V30 51404 N 5167.61 1.49207 5.60997 0
M  V30 51405 H 5170.37 2.49225 1.66454 0
M  V30 51406 H 5167.94 1.4217 0.774551 0
M  V30 51407 H 5169.93 1.22667 3.85662 0
M  V30 51408 H 5168.5 0.494787 3.08659 0
M  V30 51409 H 5167.72 2.93788 2.62835 0
M  V30 51410 H 5169.01 3.46427 3.72647 0
M  V30 51411 H 5168.4 0.884223 5.58747 0
M  V30 51412 H 5166.96 1.39664 6.36661 0
M  V30 51413 N 5170.39 -0.832859 1.33795 0
M  V30 51414 C 5171.62 -1.62043 1.28645 0
M  V30 51415 C 5172.04 -1.88269 -0.141456 0
M  V30 51416 O 5171.39 -1.46709 -1.08548 0
M  V30 51417 C 5171.44 -2.96715 2.065 0
M  V30 51418 O 5171.17 -2.71638 3.43721 0
M  V30 51419 C 5172.67 -3.91137 2.08631 0
M  V30 51420 H 5169.89 -0.504016 0.442954 0
M  V30 51421 H 5172.43 -1.03697 1.76259 0
M  V30 51422 H 5170.59 -3.51646 1.62554 0
M  V30 51423 H 5171 -3.57439 3.83846 0
M  V30 51424 H 5172.47 -4.82827 2.67548 0
M  V30 51425 H 5172.95 -4.25762 1.07811 0
M  V30 51426 H 5173.56 -3.42143 2.52623 0
M  V30 51427 N 5171.87 -1.17362 -1.05185 0
M  V30 51428 C 5173.12 -0.963475 -1.78452 0
M  V30 51429 C 5173.45 0.506637 -1.87475 0
M  V30 51430 O 5172.73 1.37606 -1.37458 0
M  V30 51431 C 5173.01 -1.60531 -3.22338 0
M  V30 51432 C 5172.86 -3.14752 -3.21327 0
M  V30 51433 C 5174.18 -1.30925 -4.20174 0
M  V30 51434 H 5171.3 -0.351435 -0.647814 0
M  V30 51435 H 5173.94 -1.44862 -1.22943 0
M  V30 51436 H 5172.09 -1.19278 -3.69736 0
M  V30 51437 H 5173.76 -3.65063 -2.82004 0
M  V30 51438 H 5172.01 -3.47499 -2.59666 0
M  V30 51439 H 5172.68 -3.54789 -4.22881 0
M  V30 51440 H 5175.15 -1.66648 -3.81271 0
M  V30 51441 H 5174.03 -1.78419 -5.19093 0
M  V30 51442 H 5174.29 -0.230063 -4.41501 0
M  V30 51443 N 5173.35 1.23909 -0.973872 0
M  V30 51444 C 5174.6 1.92433 -0.640094 0
M  V30 51445 C 5174.93 1.75878 0.82345 0
M  V30 51446 O 5174.2 1.11569 1.5932 0
M  V30 51447 C 5174.49 3.45257 -1.02322 0
M  V30 51448 C 5174.34 3.70952 -2.54391 0
M  V30 51449 C 5175.66 4.36493 -0.562309 0
M  V30 51450 H 5172.78 0.69886 -0.234016 0
M  V30 51451 H 5175.42 1.46159 -1.21398 0
M  V30 51452 H 5173.57 3.848 -0.534886 0
M  V30 51453 H 5175.24 3.4093 -3.10749 0
M  V30 51454 H 5173.48 3.15889 -2.97316 0
M  V30 51455 H 5174.16 4.77902 -2.76248 0
M  V30 51456 H 5176.63 4.04359 -0.981475 0
M  V30 51457 H 5175.51 5.42139 -0.85888 0
M  V30 51458 H 5175.77 4.3882 0.537505 0
M  V30 51459 N 5174.83 0.744729 1.38894 0
M  V30 51460 C 5176.07 0.297394 2.00608 0
M  V30 51461 C 5176.41 -1.11541 1.58972 0
M  V30 51462 O 5175.68 -1.76224 0.823119 0
M  V30 51463 C 5175.97 0.410251 3.57755 0
M  V30 51464 C 5175.82 1.86353 4.09381 0
M  V30 51465 C 5177.14 -0.201606 4.39638 0
M  V30 51466 H 5174.26 0.109535 0.728815 0
M  V30 51467 H 5176.9 0.942711 1.64963 0
M  V30 51468 H 5175.05 -0.139151 3.88251 0
M  V30 51469 H 5176.72 2.47055 3.89566 0
M  V30 51470 H 5174.96 2.38159 3.62578 0
M  V30 51471 H 5175.63 1.8937 5.18501 0
M  V30 51472 H 5178.11 0.266849 4.15243 0
M  V30 51473 H 5176.99 -0.0923486 5.48822 0
M  V30 51474 H 5177.25 -1.28885 4.22896 0
M  V30 51475 N 5176.31 -1.49687 0.49311 0
M  V30 51476 C 5177.55 -2.02028 -0.0540932 0
M  V30 51477 C 5177.88 -1.37559 -1.38212 0
M  V30 51478 O 5177.15 -0.528241 -1.88644 0
M  V30 51479 H 5175.73 -0.746646 -0.0229806 0
M  V30 51480 H 5178.39 -1.83793 0.648554 0
M  V30 51481 H 5177.48 -3.11524 -0.189543 0
M  V30 51482 N 5177.78 -0.226609 -1.55962 0
M  V30 51483 C 5178.73 0.694909 -2.17152 0
M  V30 51484 C 5179.72 1.1539 -1.12133 0
M  V30 51485 O 5180.91 1.10705 -1.38106 0
M  V30 51486 C 5178.04 1.9006 -2.85888 0
M  V30 51487 C 5177.13 1.46105 -3.98138 0
M  V30 51488 N 5177.52 0.734408 -5.0044 0
M  V30 51489 C 5175.81 1.74794 -4.10321 0
M  V30 51490 C 5176.52 0.509569 -5.79464 0
M  V30 51491 N 5175.49 1.06778 -5.3301 0
M  V30 51492 H 5179.29 0.131366 -2.93606 0
M  V30 51493 H 5176.81 -0.0280736 -1.62376 0
M  V30 51494 H 5178.8 2.57158 -3.2814 0
M  V30 51495 H 5177.46 2.46856 -2.10931 0
M  V30 51496 H 5178.48 0.386576 -5.16455 0
M  V30 51497 H 5175.15 2.32874 -3.46519 0
M  V30 51498 H 5176.54 -0.0691209 -6.71864 0
M  V30 51499 N 5179.26 1.57531 0.0467312 0
M  V30 51500 C 5180.23 2.04383 1.03731 0
M  V30 51501 C 5181.23 0.944927 1.30107 0
M  V30 51502 O 5182.42 1.20909 1.25406 0
M  V30 51503 C 5179.55 2.4458 2.37473 0
M  V30 51504 H 5180.74 2.93144 0.63296 0
M  V30 51505 H 5178.29 1.53527 0.293123 0
M  V30 51506 H 5179.03 1.58921 2.82692 0
M  V30 51507 H 5178.81 3.24793 2.19664 0
M  V30 51508 H 5180.3 2.81317 3.08626 0
M  V30 51509 N 5180.74 -0.318661 1.54345 0
M  V30 51510 C 5181.99 -1.05759 1.7304 0
M  V30 51511 C 5182.32 -1.87512 0.505247 0
M  V30 51512 O 5181.59 -1.88023 -0.497772 0
M  V30 51513 C 5181.88 -1.97825 3.00894 0
M  V30 51514 C 5181.73 -1.19369 4.33672 0
M  V30 51515 C 5183.05 -2.97274 3.24525 0
M  V30 51516 H 5180.17 -0.383082 0.629617 0
M  V30 51517 H 5182.81 -0.333798 1.87045 0
M  V30 51518 H 5180.96 -2.59542 2.89085 0
M  V30 51519 H 5182.63 -0.600746 4.57372 0
M  V30 51520 H 5180.88 -0.496046 4.30955 0
M  V30 51521 H 5181.55 -1.86996 5.19362 0
M  V30 51522 H 5184.02 -2.45681 3.35828 0
M  V30 51523 H 5182.9 -3.58873 4.15333 0
M  V30 51524 H 5183.16 -3.69995 2.41984 0
M  V30 51525 N 5182.22 -1.46501 -0.580974 0
M  V30 51526 C 5183.13 -1.59784 -1.71774 0
M  V30 51527 C 5184.14 -0.481282 -1.67211 0
M  V30 51528 O 5185.32 -0.745636 -1.87089 0
M  V30 51529 C 5182.39 -1.58637 -3.08278 0
M  V30 51530 C 5181.45 -2.81539 -3.2409 0
M  V30 51531 C 5180.68 -2.80437 -4.54083 0
M  V30 51532 O 5180.9 -1.89281 -5.38079 0
M  V30 51533 O 5179.84 -3.72001 -4.7318 0
M  V30 51534 H 5183.66 -2.55924 -1.63514 0
M  V30 51535 H 5181.25 -1.29314 -0.748222 0
M  V30 51536 H 5183.13 -1.607 -3.89556 0
M  V30 51537 H 5181.8 -0.656579 -3.16971 0
M  V30 51538 H 5180.71 -2.8503 -2.42299 0
M  V30 51539 H 5182.04 -3.73733 -3.20289 0
M  V30 51540 N 5183.7 0.825752 -1.34235 0
M  V30 51541 C 5184.94 1.58181 -1.26432 0
M  V30 51542 C 5185.27 1.93786 0.166465 0
M  V30 51543 O 5184.53 1.5999 1.12701 0
M  V30 51544 C 5184.83 2.89355 -2.09782 0
M  V30 51545 C 5184.49 2.73053 -3.58821 0
M  V30 51546 C 5183.15 2.68315 -3.9945 0
M  V30 51547 C 5185.51 2.5693 -4.53471 0
M  V30 51548 C 5182.83 2.45371 -5.32926 0
M  V30 51549 C 5185.19 2.35518 -5.87124 0
M  V30 51550 C 5183.85 2.2919 -6.2692 0
M  V30 51551 H 5183.12 0.578824 -0.462649 0
M  V30 51552 H 5185.77 0.955656 -1.6595 0
M  V30 51553 H 5184.07 3.56246 -1.63084 0
M  V30 51554 H 5185.77 3.46933 -2.01094 0
M  V30 51555 H 5182.36 2.7758 -3.26569 0
M  V30 51556 H 5186.54 2.59616 -4.22982 0
M  V30 51557 H 5181.8 2.38928 -5.62782 0
M  V30 51558 H 5185.97 2.22028 -6.60058 0
M  V30 51559 H 5183.6 2.11172 -7.30281 0
M  V30 51560 N 5185.17 1.17918 1.04561 0
M  V30 51561 C 5186.08 0.916525 2.15956 0
M  V30 51562 C 5187.1 -0.117594 1.73602 0
M  V30 51563 O 5188.28 0.0631598 2.01301 0
M  V30 51564 C 5185.34 0.440383 3.43892 0
M  V30 51565 C 5184.4 1.54187 4.00656 0
M  V30 51566 C 5183.64 1.08835 5.22485 0
M  V30 51567 O 5183.86 -0.0549542 5.70374 0
M  V30 51568 O 5182.79 1.88404 5.71654 0
M  V30 51569 H 5186.62 1.84849 2.40966 0
M  V30 51570 H 5184.2 0.960592 1.14425 0
M  V30 51571 H 5186.09 0.182685 4.21004 0
M  V30 51572 H 5184.76 -0.463348 3.20367 0
M  V30 51573 H 5183.67 1.85352 3.24955 0
M  V30 51574 H 5185 2.42154 4.28512 0
M  V30 51575 N 5186.65 -1.23391 0.980429 0
M  V30 51576 C 5187.89 -1.93541 0.657356 0
M  V30 51577 C 5188.26 -1.74794 -0.794415 0
M  V30 51578 O 5189.46 -2.39094 -1.22832 0
M  V30 51579 C 5187.73 -3.42021 1.03713 0
M  V30 51580 S 5189.29 -4.30868 0.830531 0
M  V30 51581 H 5186.11 -0.669003 0.24074 0
M  V30 51582 H 5188.71 -1.49474 1.26008 0
M  V30 51583 H 5187.41 -3.53175 2.09035 0
M  V30 51584 H 5186.94 -3.9109 0.425696 0
M  V30 51585 H 5188.96 -4.95378 -0.285545 0
M  V30 51586 N 5188.13 -0.752084 -1.38497 0
M  V30 51587 C 5189.06 -0.1388 -2.33087 0
M  V30 51588 C 5190.04 0.705263 -1.5479 0
M  V30 51589 O 5191.23 0.646756 -1.83114 0
M  V30 51590 C 5188.36 0.756291 -3.38965 0
M  V30 51591 C 5187.31 0.0150734 -4.27997 0
M  V30 51592 C 5186.64 1.02831 -5.24719 0
M  V30 51593 C 5187.94 -1.15244 -5.09427 0
M  V30 51594 H 5189.63 -0.928952 -2.84624 0
M  V30 51595 H 5187.18 -0.448159 -1.36849 0
M  V30 51596 H 5189.13 1.19499 -4.04101 0
M  V30 51597 H 5187.85 1.57875 -2.85908 0
M  V30 51598 H 5186.51 -0.40419 -3.64365 0
M  V30 51599 H 5186.16 1.84479 -4.67949 0
M  V30 51600 H 5185.86 0.537032 -5.85141 0
M  V30 51601 H 5187.38 1.46636 -5.92731 0
M  V30 51602 H 5188.8 -0.79136 -5.67812 0
M  V30 51603 H 5187.2 -1.57449 -5.79077 0
M  V30 51604 H 5188.27 -1.96606 -4.43254 0
M  V30 51605 N 5189.61 1.49423 -0.501041 0
M  V30 51606 C 5190.57 2.27647 0.266336 0
M  V30 51607 C 5191.57 1.33663 0.893914 0
M  V30 51608 O 5192.76 1.56823 0.75844 0
M  V30 51609 C 5189.89 3.11623 1.38216 0
M  V30 51610 H 5191.09 2.96943 -0.420077 0
M  V30 51611 H 5188.64 1.54189 -0.256009 0
M  V30 51612 H 5189.38 2.46893 2.10272 0
M  V30 51613 H 5189.16 3.80725 0.937613 0
M  V30 51614 H 5190.65 3.70705 1.9227 0
M  V30 51615 N 5191.09 0.234877 1.5584 0
M  V30 51616 C 5192.02 -0.664138 2.23856 0
M  V30 51617 C 5193 -1.19071 1.21474 0
M  V30 51618 O 5194.18 -1.23227 1.50096 0
M  V30 51619 C 5191.31 -1.86656 2.92877 0
M  V30 51620 C 5190.27 -1.47327 4.01844 0
M  V30 51621 C 5189.59 -2.75555 4.58229 0
M  V30 51622 C 5190.89 -0.653297 5.18198 0
M  V30 51623 H 5192.59 -0.0970161 2.99243 0
M  V30 51624 H 5190.13 -0.0452218 1.43929 0
M  V30 51625 H 5192.09 -2.50104 3.39155 0
M  V30 51626 H 5190.81 -2.45887 2.14959 0
M  V30 51627 H 5189.47 -0.862189 3.56317 0
M  V30 51628 H 5189.12 -3.32958 3.77025 0
M  V30 51629 H 5188.82 -2.49968 5.3178 0
M  V30 51630 H 5190.34 -3.39922 5.07233 0
M  V30 51631 H 5191.76 -1.19179 5.60776 0
M  V30 51632 H 5190.15 -0.493978 5.98063 0
M  V30 51633 H 5191.22 0.337174 4.83726 0
M  V30 51634 N 5192.57 -1.57553 -0.0383763 0
M  V30 51635 C 5193.81 -1.88471 -0.729605 0
M  V30 51636 C 5194.13 -0.831364 -1.7639 0
M  V30 51637 O 5193.4 0.136151 -1.95426 0
M  V30 51638 H 5191.98 -0.695539 -0.27246 0
M  V30 51639 H 5194.65 -1.94899 -0.00653469 0
M  V30 51640 H 5193.74 -2.87054 -1.22501 0
M  V30 51641 N 5194.04 0.310471 -1.54512 0
M  V30 51642 C 5195.32 1.06587 -1.64008 0
M  V30 51643 C 5195.7 2.05517 -0.482288 0
M  V30 51644 O 5195.05 2.22457 0.522041 0
M  V30 51645 C 5195.26 1.75616 -3.01596 0
M  V30 51646 C 5196.61 2.28161 -3.58089 0
M  V30 51647 O 5197.63 1.85664 -3.03986 0
M  V30 51648 O 5196.49 3.06 -4.52799 0
M  V30 51649 H 5193.58 0.492086 -0.664666 0
M  V30 51650 H 5196.13 0.309315 -1.66857 0
M  V30 51651 H 5194.9 1.03729 -3.77301 0
M  V30 51652 H 5194.52 2.58051 -3.02482 0
M  V30 51653 N 5195.52 1.46807 0.573196 0
M  V30 51654 C 5196.93 1.46659 1.15534 0
M  V30 51655 C 5197.28 0.212569 1.95045 0
M  V30 51656 O 5196.41 -0.683687 2.05316 0
M  V30 51657 C 5197 2.65719 2.10188 0
M  V30 51658 C 5195.56 2.68581 2.63706 0
M  V30 51659 C 5194.71 2.39503 1.39763 0
M  V30 51660 H 5197.66 1.54548 0.360626 0
M  V30 51661 H 5197.68 2.41778 2.93809 0
M  V30 51662 H 5197.19 3.56972 1.52291 0
M  V30 51663 H 5195.29 1.81425 3.25447 0
M  V30 51664 H 5195.41 3.6882 3.05792 0
M  V30 51665 H 5193.77 1.89755 1.69897 0
M  V30 51666 H 5194.55 3.32945 0.836826 0
M  V30 51667 N 5197 -0.818622 1.34671 0
M  V30 51668 C 5197.95 -1.92978 1.26602 0
M  V30 51669 C 5198.92 -1.65506 0.140374 0
M  V30 51670 O 5200.1 -1.88062 0.322071 0
M  V30 51671 C 5197.24 -3.29316 1.03174 0
M  V30 51672 C 5196.35 -3.69053 2.24552 0
M  V30 51673 C 5195.49 -4.94361 1.94372 0
M  V30 51674 C 5194.53 -5.26691 3.1187 0
M  V30 51675 N 5193.67 -6.43177 2.81545 0
M  V30 51676 H 5198.51 -1.99212 2.21627 0
M  V30 51677 H 5196.04 -0.974573 1.10184 0
M  V30 51678 H 5198 -4.07894 0.876273 0
M  V30 51679 H 5196.63 -3.22584 0.118159 0
M  V30 51680 H 5195.68 -2.85833 2.51005 0
M  V30 51681 H 5196.99 -3.88914 3.12326 0
M  V30 51682 H 5196.15 -5.80736 1.75586 0
M  V30 51683 H 5194.89 -4.76512 1.03865 0
M  V30 51684 H 5193.89 -4.38811 3.31247 0
M  V30 51685 H 5195.12 -5.46477 4.03162 0
M  V30 51686 H 5193.06 -6.26776 1.93618 0
M  V30 51687 H 5192.98 -6.6323 3.62852 0
M  V30 51688 H 5194.25 -7.32611 2.66273 0
M  V30 51689 N 5198.48 -1.18471 -1.03934 0
M  V30 51690 C 5199.89 -0.984864 -1.58611 0
M  V30 51691 C 5200.24 0.465098 -1.90608 0
M  V30 51692 O 5199.36 1.34268 -1.69709 0
M  V30 51693 C 5199.96 -1.78145 -2.88184 0
M  V30 51694 C 5198.52 -1.62591 -3.39472 0
M  V30 51695 C 5197.67 -1.77508 -2.1304 0
M  V30 51696 H 5200.62 -1.32996 -0.865897 0
M  V30 51697 H 5200.64 -1.27132 -3.58633 0
M  V30 51698 H 5200.15 -2.8367 -2.64864 0
M  V30 51699 H 5198.25 -0.59608 -3.67801 0
M  V30 51700 H 5198.36 -2.42477 -4.13209 0
M  V30 51701 H 5196.73 -1.20468 -2.24409 0
M  V30 51702 H 5197.51 -2.84471 -1.92175 0
M  V30 51703 N 5199.96 1.22869 -0.986959 0
M  V30 51704 C 5200.89 2.23887 -0.490616 0
M  V30 51705 C 5201.9 1.57524 0.411089 0
M  V30 51706 O 5203.09 1.7721 0.214173 0
M  V30 51707 C 5200.19 3.37489 0.308901 0
M  V30 51708 C 5199.36 4.33436 -0.587507 0
M  V30 51709 C 5198.42 5.25959 0.159282 0
M  V30 51710 O 5197.45 5.67392 -0.453315 0
M  V30 51711 N 5198.65 5.6227 1.44335 0
M  V30 51712 H 5201.41 2.67105 -1.35924 0
M  V30 51713 H 5198.98 1.37108 -0.860985 0
M  V30 51714 H 5200.97 3.96368 0.817 0
M  V30 51715 H 5199.54 2.93403 1.07858 0
M  V30 51716 H 5198.76 3.72965 -1.27635 0
M  V30 51717 H 5200.05 4.94491 -1.19818 0
M  V30 51718 H 5199.44 5.30569 1.96247 0
M  V30 51719 H 5198 6.23592 1.89676 0
M  V30 51720 N 5201.43 0.759419 1.38096 0
M  V30 51721 C 5202.68 0.318655 2.00281 0
M  V30 51722 C 5203.01 -1.09849 1.60146 0
M  V30 51723 O 5202.29 -1.75341 0.841763 0
M  V30 51724 C 5202.57 0.448173 3.573 0
M  V30 51725 C 5202.42 1.90684 4.07381 0
M  V30 51726 C 5203.74 -0.154965 4.39827 0
M  V30 51727 H 5200.86 0.117258 0.727612 0
M  V30 51728 H 5203.5 0.960155 1.63954 0
M  V30 51729 H 5201.65 -0.0979637 3.88376 0
M  V30 51730 H 5203.33 2.51173 3.86923 0
M  V30 51731 H 5201.57 2.41991 3.60032 0
M  V30 51732 H 5202.24 1.94859 5.16463 0
M  V30 51733 H 5204.72 0.310876 4.14937 0
M  V30 51734 H 5203.59 -0.0341335 5.48889 0
M  V30 51735 H 5203.85 -1.24392 4.24239 0
M  V30 51736 N 5202.91 -1.49156 0.508959 0
M  V30 51737 C 5204.14 -2.06879 -0.0293007 0
M  V30 51738 C 5204.55 -1.36828 -1.30091 0
M  V30 51739 O 5203.91 -0.449097 -1.76888 0
M  V30 51740 C 5203.96 -3.60424 -0.278665 0
M  V30 51741 O 5203.68 -4.27841 0.942539 0
M  V30 51742 C 5205.18 -4.34884 -0.859673 0
M  V30 51743 H 5202.4 -0.670569 0.024042 0
M  V30 51744 H 5204.95 -1.91831 0.708593 0
M  V30 51745 H 5203.1 -3.75149 -0.966557 0
M  V30 51746 H 5203.52 -5.19668 0.71028 0
M  V30 51747 H 5204.99 -5.43164 -0.983693 0
M  V30 51748 H 5205.47 -3.97896 -1.85944 0
M  V30 51749 H 5206.07 -4.24786 -0.209003 0
M  V30 51750 N 5204.39 -0.243138 -1.55713 0
M  V30 51751 C 5205.64 0.376358 -1.99888 0
M  V30 51752 C 5205.99 1.55839 -1.12836 0
M  V30 51753 O 5205.28 1.90723 -0.183063 0
M  V30 51754 C 5205.48 0.839499 -3.47401 0
M  V30 51755 C 5205.31 -0.296111 -4.48724 0
M  V30 51756 C 5204.08 -0.769567 -4.99405 0
M  V30 51757 C 5206.28 -1.12182 -5.01916 0
M  V30 51758 N 5204.26 -1.87798 -5.8447 0
M  V30 51759 C 5205.63 -2.07869 -5.84115 0
M  V30 51760 C 5207.68 -1.15881 -4.84227 0
M  V30 51761 C 5206.39 -3.0696 -6.50514 0
M  V30 51762 C 5208.41 -2.13801 -5.51401 0
M  V30 51763 C 5207.77 -3.08224 -6.33386 0
M  V30 51764 H 5203.87 0.103782 -0.775083 0
M  V30 51765 H 5206.46 -0.359855 -1.91346 0
M  V30 51766 H 5204.63 1.54501 -3.56348 0
M  V30 51767 H 5206.36 1.43363 -3.78456 0
M  V30 51768 H 5203.12 -0.354367 -4.72272 0
M  V30 51769 H 5203.54 -2.43484 -6.317 0
M  V30 51770 H 5208.18 -0.442679 -4.20476 0
M  V30 51771 H 5205.9 -3.79524 -7.13433 0
M  V30 51772 H 5209.49 -2.17364 -5.3967 0
M  V30 51773 H 5208.37 -3.82756 -6.84447 0
M  V30 51774 N 5205.87 1.57571 0.0300203 0
M  V30 51775 C 5207.09 1.93881 0.736533 0
M  V30 51776 C 5207.52 0.843057 1.68149 0
M  V30 51777 O 5206.88 -0.201286 1.80179 0
M  V30 51778 C 5206.92 3.29253 1.47055 0
M  V30 51779 O 5206.03 3.21435 2.58367 0
M  V30 51780 H 5205.37 0.633742 0.198159 0
M  V30 51781 H 5207.9 2.04595 -0.0142204 0
M  V30 51782 H 5207.91 3.6412 1.84068 0
M  V30 51783 H 5206.58 4.08568 0.777497 0
M  V30 51784 H 5205.16 2.98197 2.23904 0
M  V30 51785 N 5207.35 -0.302273 1.54674 0
M  V30 51786 C 5208.29 -1.37275 1.85537 0
M  V30 51787 C 5209.26 -1.50434 0.704182 0
M  V30 51788 O 5210.45 -1.65314 0.952685 0
M  V30 51789 C 5207.59 -2.73301 2.10714 0
M  V30 51790 C 5206.7 -2.68602 3.38344 0
M  V30 51791 C 5205.84 -3.96614 3.53371 0
M  V30 51792 C 5204.88 -3.86307 4.74798 0
M  V30 51793 N 5204.01 -5.06092 4.86637 0
M  V30 51794 H 5208.85 -1.10256 2.76853 0
M  V30 51795 H 5206.39 -0.533298 1.37092 0
M  V30 51796 H 5208.35 -3.52406 2.23306 0
M  V30 51797 H 5206.98 -2.98585 1.22666 0
M  V30 51798 H 5206.03 -1.81369 3.34379 0
M  V30 51799 H 5207.34 -2.56876 4.2757 0
M  V30 51800 H 5206.5 -4.84155 3.65621 0
M  V30 51801 H 5205.23 -4.11172 2.62276 0
M  V30 51802 H 5204.24 -2.97149 4.62582 0
M  V30 51803 H 5205.46 -3.73295 5.67299 0
M  V30 51804 H 5203.41 -5.21116 3.98465 0
M  V30 51805 H 5203.33 -4.96784 5.69861 0
M  V30 51806 H 5204.6 -5.95288 5.03242 0
M  V30 51807 N 5208.82 -1.47109 -0.565403 0
M  V30 51808 C 5210.07 -1.53539 -1.3249 0
M  V30 51809 C 5210.4 -0.193605 -1.93233 0
M  V30 51810 O 5209.68 0.796894 -1.77426 0
M  V30 51811 C 5209.96 -2.64721 -2.44121 0
M  V30 51812 C 5209.81 -4.08489 -1.883 0
M  V30 51813 C 5211.13 -2.71865 -3.46089 0
M  V30 51814 H 5208.25 -0.558943 -0.480366 0
M  V30 51815 H 5210.89 -1.79127 -0.633512 0
M  V30 51816 H 5209.04 -2.43033 -3.03096 0
M  V30 51817 H 5210.72 -4.41515 -1.33649 0
M  V30 51818 H 5208.96 -4.17152 -1.19023 0
M  V30 51819 H 5209.63 -4.82041 -2.68962 0
M  V30 51820 H 5212.11 -2.91407 -2.9702 0
M  V30 51821 H 5210.98 -3.51448 -4.21634 0
M  V30 51822 H 5211.24 -1.78598 -4.0442 0
M  V30 51823 N 5210.3 0.811468 -1.35103 0
M  V30 51824 C 5211.55 1.56521 -1.2785 0
M  V30 51825 C 5211.87 1.94436 0.148221 0
M  V30 51826 O 5211.14 1.63207 1.08353 0
M  V30 51827 H 5209.72 0.580416 -0.47024 0
M  V30 51828 H 5212.38 0.968217 -1.6915 0
M  V30 51829 H 5211.48 2.48285 -1.89106 0
M  V30 51830 N 5211.78 1.19021 1.03304 0
M  V30 51831 C 5213.03 0.98832 1.76286 0
M  V30 51832 C 5213.35 -0.482491 1.88937 0
M  V30 51833 O 5212.62 -1.34964 1.41992 0
M  V30 51834 H 5211.2 0.362693 0.653041 0
M  V30 51835 H 5213.86 1.4984 1.24635 0
M  V30 51836 H 5212.96 1.43282 2.77266 0
M  V30 51837 N 5213.26 -1.22344 0.993461 0
M  V30 51838 C 5214.21 -2.22098 0.515411 0
M  V30 51839 C 5215.19 -1.5541 -0.416708 0
M  V30 51840 O 5216.38 -1.75318 -0.243436 0
M  V30 51841 C 5213.51 -3.42888 -0.168052 0
M  V30 51842 C 5212.6 -4.16783 0.784404 0
M  V30 51843 N 5212.99 -4.67428 1.93248 0
M  V30 51844 C 5211.29 -4.4194 0.600398 0
M  V30 51845 C 5211.99 -5.23783 2.53034 0
M  V30 51846 N 5210.97 -5.12476 1.81298 0
M  V30 51847 H 5214.77 -2.58898 1.39102 0
M  V30 51848 H 5212.28 -1.38021 0.855795 0
M  V30 51849 H 5214.28 -4.13544 -0.527923 0
M  V30 51850 H 5212.94 -3.07601 -1.03978 0
M  V30 51851 H 5213.95 -4.63367 2.31325 0
M  V30 51852 H 5210.63 -4.16892 -0.225222 0
M  V30 51853 H 5212.02 -5.73503 3.50064 0
M  V30 51854 N 5214.74 -0.766732 -1.37692 0
M  V30 51855 C 5215.67 -0.163514 -2.32927 0
M  V30 51856 C 5216.65 0.688806 -1.5553 0
M  V30 51857 O 5217.83 0.627298 -1.8379 0
M  V30 51858 C 5214.96 0.720296 -3.39748 0
M  V30 51859 C 5213.92 -0.0303223 -4.27989 0
M  V30 51860 C 5213.24 0.972603 -5.2578 0
M  V30 51861 C 5214.54 -1.20641 -5.08176 0
M  V30 51862 H 5216.24 -0.959088 -2.83623 0
M  V30 51863 H 5213.78 -0.462648 -1.36366 0
M  V30 51864 H 5215.74 1.15206 -4.05346 0
M  V30 51865 H 5214.46 1.54834 -2.87566 0
M  V30 51866 H 5213.12 -0.442813 -3.63916 0
M  V30 51867 H 5212.77 1.79506 -4.69879 0
M  V30 51868 H 5212.47 0.47494 -5.85677 0
M  V30 51869 H 5213.99 1.40342 -5.94253 0
M  V30 51870 H 5215.4 -0.85154 -5.66941 0
M  V30 51871 H 5213.8 -1.63582 -5.77374 0
M  V30 51872 H 5214.87 -2.01296 -4.41144 0
M  V30 51873 N 5216.21 1.48884 -0.516862 0
M  V30 51874 C 5217.63 1.5865 -0.173843 0
M  V30 51875 C 5217.83 1.52038 1.32238 0
M  V30 51876 O 5216.89 1.40258 2.09962 0
M  V30 51877 C 5218.2 2.90813 -0.76473 0
M  V30 51878 C 5219.75 3.04314 -0.732271 0
M  V30 51879 C 5220.22 4.39118 -1.3015 0
M  V30 51880 N 5221.71 4.45652 -1.26289 0
M  V30 51881 C 5222.45 5.4844 -1.67336 0
M  V30 51882 N 5221.94 6.58251 -2.16051 0
M  V30 51883 N 5223.74 5.39245 -1.58654 0
M  V30 51884 H 5215.89 1.51424 -1.48944 0
M  V30 51885 H 5218.15 0.718222 -0.618758 0
M  V30 51886 H 5217.86 3.01268 -1.81467 0
M  V30 51887 H 5217.73 3.76472 -0.234245 0
M  V30 51888 H 5220.12 2.93479 0.308872 0
M  V30 51889 H 5220.2 2.20299 -1.30008 0
M  V30 51890 H 5219.84 4.50706 -2.34151 0
M  V30 51891 H 5219.77 5.21799 -0.709489 0
M  V30 51892 H 5222.26 3.66875 -0.906135 0
M  V30 51893 H 5222.58 7.32802 -2.454 0
M  V30 51894 H 5220.92 6.59249 -2.20036 0
M  V30 51895 H 5224.11 4.5235 -1.20403 0
M  V30 51896 H 5224.29 6.19222 -1.90965 0
M  V30 51897 N 5217.69 0.251393 1.55582 0
M  V30 51898 C 5219.1 -0.250915 1.85006 0
M  V30 51899 C 5219.45 -1.57255 1.17326 0
M  V30 51900 O 5218.58 -2.11601 0.45321 0
M  V30 51901 C 5219.17 -0.462043 3.35635 0
M  V30 51902 C 5217.73 -0.908609 3.65269 0
M  V30 51903 C 5216.88 0.0116393 2.77298 0
M  V30 51904 H 5219.83 0.473836 1.51461 0
M  V30 51905 H 5219.85 -1.30402 3.57457 0
M  V30 51906 H 5219.36 0.500021 3.84865 0
M  V30 51907 H 5217.47 -1.88298 3.21519 0
M  V30 51908 H 5217.58 -0.76236 4.72996 0
M  V30 51909 H 5215.94 -0.500524 2.49734 0
M  V30 51910 H 5216.73 0.969158 3.29336 0
M  V30 51911 N 5219.17 -1.57585 -0.0216635 0
M  V30 51912 C 5220.42 -1.89234 -0.709574 0
M  V30 51913 C 5220.74 -0.850026 -1.75498 0
M  V30 51914 O 5220.01 0.115416 -1.9556 0
M  V30 51915 H 5218.59 -0.69839 -0.265068 0
M  V30 51916 H 5221.25 -1.94895 0.0141373 0
M  V30 51917 H 5220.35 -2.88337 -1.19449 0
M  V30 51918 N 5220.65 0.294066 -1.54832 0
M  V30 51919 C 5221.9 1.02608 -1.73651 0
M  V30 51920 C 5222.21 1.88191 -0.533228 0
M  V30 51921 O 5223.42 2.64711 -0.603368 0
M  V30 51922 C 5221.87 1.87406 -3.07257 0
M  V30 51923 C 5221.48 1.06791 -4.35086 0
M  V30 51924 C 5223.23 2.60164 -3.35432 0
M  V30 51925 C 5221.13 1.90906 -5.5974 0
M  V30 51926 H 5220.06 0.386811 -0.64722 0
M  V30 51927 H 5222.71 0.282725 -1.81309 0
M  V30 51928 H 5221.1 2.65755 -2.93582 0
M  V30 51929 H 5222.27 0.330065 -4.59616 0
M  V30 51930 H 5220.58 0.455834 -4.13897 0
M  V30 51931 H 5223.18 3.23461 -4.25766 0
M  V30 51932 H 5223.52 3.29357 -2.54617 0
M  V30 51933 H 5224.06 1.88859 -3.5011 0
M  V30 51934 H 5220.8 1.26171 -6.43243 0
M  V30 51935 H 5220.32 2.62344 -5.39384 0
M  V30 51936 H 5222 2.48786 -5.97256 0
M  V30 51937 N 5222.13 1.47406 0.557593 0
M  V30 51938 C 5223.37 1.5424 1.31673 0
M  V30 51939 C 5223.71 0.20385 1.93127 0
M  V30 51940 O 5222.98 -0.787473 1.77846 0
M  V30 51941 C 5223.26 2.66011 2.42714 0
M  V30 51942 C 5223.12 4.09482 1.86131 0
M  V30 51943 C 5224.44 2.73697 3.44642 0
M  V30 51944 H 5221.56 0.561483 0.477395 0
M  V30 51945 H 5224.2 1.79461 0.624004 0
M  V30 51946 H 5222.35 2.44637 3.01803 0
M  V30 51947 H 5224.02 4.42218 1.31306 0
M  V30 51948 H 5222.26 4.17778 1.16809 0
M  V30 51949 H 5222.93 4.83461 2.66401 0
M  V30 51950 H 5225.41 2.92978 2.95471 0
M  V30 51951 H 5224.29 3.53679 4.19764 0
M  V30 51952 H 5224.55 1.8074 4.03467 0
M  V30 51953 N 5223.61 -0.804292 1.35532 0
M  V30 51954 C 5224.54 -1.9244 1.24497 0
M  V30 51955 C 5225.55 -1.61934 0.167742 0
M  V30 51956 O 5226.74 -1.73459 0.421211 0
M  V30 51957 C 5223.84 -3.26872 0.894866 0
M  V30 51958 C 5223.01 -3.85268 2.07093 0
M  V30 51959 C 5222.07 -4.9811 1.69625 0
M  V30 51960 O 5221.1 -5.15416 2.41527 0
M  V30 51961 N 5222.3 -5.77167 0.621214 0
M  V30 51962 H 5225.06 -2.02433 2.21 0
M  V30 51963 H 5222.63 -0.981829 1.28731 0
M  V30 51964 H 5224.62 -3.99835 0.625652 0
M  V30 51965 H 5223.19 -3.12594 0.0194405 0
M  V30 51966 H 5222.41 -3.04472 2.50381 0
M  V30 51967 H 5223.7 -4.21014 2.857 0
M  V30 51968 H 5223.09 -5.65695 0.0238668 0
M  V30 51969 H 5221.65 -6.50498 0.411787 0
M  V30 51970 N 5225.08 -1.19567 -1.02672 0
M  V30 51971 C 5226.31 -1.02562 -1.80266 0
M  V30 51972 C 5226.73 0.420992 -1.83328 0
M  V30 51973 O 5226.09 1.30274 -1.26088 0
M  V30 51974 C 5226.14 -1.60177 -3.23072 0
M  V30 51975 O 5225.24 -0.832546 -4.03909 0
M  V30 51976 H 5224.58 -0.362373 -0.556401 0
M  V30 51977 H 5227.11 -1.58637 -1.2921 0
M  V30 51978 H 5227.12 -1.63484 -3.73814 0
M  V30 51979 H 5225.8 -2.65465 -3.20158 0
M  V30 51980 H 5224.38 -0.872896 -3.6254 0
M  V30 51981 N 5226.56 1.21816 -0.999936 0
M  V30 51982 C 5227.81 1.90373 -0.678418 0
M  V30 51983 C 5228.13 1.78158 0.792761 0
M  V30 51984 O 5227.4 1.17325 1.56881 0
M  V30 51985 H 5225.98 0.704652 -0.24794 0
M  V30 51986 H 5228.64 1.48016 -1.26796 0
M  V30 51987 H 5227.74 2.97382 -0.947128 0
M  V30 51988 N 5228.04 0.774023 1.37283 0
M  V30 51989 C 5229.29 0.338706 1.99242 0
M  V30 51990 C 5229.61 -1.08913 1.6175 0
M  V30 51991 O 5228.88 -1.74819 0.884032 0
M  V30 51992 H 5227.46 0.122245 0.736929 0
M  V30 51993 H 5230.12 0.992654 1.67727 0
M  V30 51994 H 5229.22 0.418164 3.09286 0
M  V30 51995 N 5229.52 -1.48607 0.52475 0
M  V30 51996 C 5230.76 -2.02797 -0.0112669 0
M  V30 51997 C 5231.1 -1.40152 -1.34428 0
M  V30 51998 O 5230.37 -0.545434 -1.86696 0
M  V30 51999 C 5230.65 -3.59832 -0.138805 0
M  V30 52000 C 5230.51 -4.32967 1.21901 0
M  V30 52001 C 5231.83 -4.31453 -0.868113 0
M  V30 52002 H 5228.95 -0.736995 -0.00262054 0
M  V30 52003 H 5231.59 -1.77385 0.680766 0
M  V30 52004 H 5229.74 -3.81614 -0.728206 0
M  V30 52005 H 5231.41 -4.22617 1.84912 0
M  V30 52006 H 5229.65 -3.9459 1.80225 0
M  V30 52007 H 5230.32 -5.41275 1.08282 0
M  V30 52008 H 5232.8 -4.1447 -0.367999 0
M  V30 52009 H 5231.68 -5.41029 -0.926238 0
M  V30 52010 H 5231.94 -3.98365 -1.91723 0
M  V30 52011 N 5231 -0.25964 -1.55447 0
M  V30 52012 C 5232.24 0.362073 -1.99542 0
M  V30 52013 C 5232.57 1.56656 -1.14772 0
M  V30 52014 O 5231.85 1.93318 -0.214093 0
M  V30 52015 C 5232.13 0.759464 -3.52 0
M  V30 52016 C 5231.99 -0.451291 -4.4753 0
M  V30 52017 C 5233.3 1.60172 -4.09918 0
M  V30 52018 H 5230.42 0.130131 -0.72542 0
M  V30 52019 H 5233.07 -0.363496 -1.8649 0
M  V30 52020 H 5231.22 1.37767 -3.63253 0
M  V30 52021 H 5232.89 -1.0898 -4.48242 0
M  V30 52022 H 5231.13 -1.09214 -4.19827 0
M  V30 52023 H 5231.8 -0.129712 -5.51848 0
M  V30 52024 H 5234.28 1.07976 -4.01846 0
M  V30 52025 H 5233.15 1.84861 -5.16834 0
M  V30 52026 H 5233.41 2.57774 -3.59173 0
M  V30 52027 N 5232.47 1.57594 0.0133061 0
M  V30 52028 C 5233.89 1.55271 0.3692 0
M  V30 52029 C 5234.09 0.987813 1.75626 0
M  V30 52030 O 5233.15 0.615769 2.44877 0
M  V30 52031 C 5234.46 2.99603 0.256615 0
M  V30 52032 C 5236.01 3.11229 0.332538 0
M  V30 52033 C 5236.48 4.57321 0.249226 0
M  V30 52034 N 5237.97 4.62178 0.307538 0
M  V30 52035 C 5238.71 5.72782 0.266209 0
M  V30 52036 N 5238.2 6.92576 0.17625 0
M  V30 52037 N 5240 5.61205 0.317098 0
M  V30 52038 H 5232.15 1.92659 -0.894222 0
M  V30 52039 H 5234.41 0.88434 -0.341536 0
M  V30 52040 H 5234.12 3.4472 -0.697193 0
M  V30 52041 H 5233.99 3.62464 1.04402 0
M  V30 52042 H 5236.38 2.66049 1.27678 0
M  V30 52043 H 5236.46 2.5117 -0.4845 0
M  V30 52044 H 5236.1 5.03172 -0.691419 0
M  V30 52045 H 5236.03 5.1531 1.08458 0
M  V30 52046 H 5238.52 3.75995 0.378936 0
M  V30 52047 H 5238.84 7.72654 0.150246 0
M  V30 52048 H 5237.18 6.94855 0.142069 0
M  V30 52049 H 5240.37 4.6651 0.385479 0
M  V30 52050 H 5240.55 6.47389 0.281422 0
M  V30 52051 N 5233.95 -0.28585 1.54986 0
M  V30 52052 C 5235.2 -1.01685 1.74192 0
M  V30 52053 C 5235.51 -1.87906 0.543201 0
M  V30 52054 O 5236.72 -2.64387 0.617398 0
M  V30 52055 C 5235.18 -1.85774 3.08247 0
M  V30 52056 C 5234.78 -1.04482 4.35646 0
M  V30 52057 C 5236.53 -2.58382 3.36807 0
M  V30 52058 C 5234.44 -1.87935 5.60745 0
M  V30 52059 H 5233.37 -0.383373 0.649262 0
M  V30 52060 H 5236.02 -0.273106 1.81456 0
M  V30 52061 H 5234.4 -2.64194 2.94987 0
M  V30 52062 H 5235.57 -0.305685 4.59785 0
M  V30 52063 H 5233.89 -0.433877 4.14133 0
M  V30 52064 H 5236.48 -3.21199 4.27476 0
M  V30 52065 H 5236.83 -3.28002 2.5636 0
M  V30 52066 H 5237.36 -1.87 3.51107 0
M  V30 52067 H 5234.1 -1.22758 6.43903 0
M  V30 52068 H 5233.62 -2.5948 5.40768 0
M  V30 52069 H 5235.3 -2.45615 5.98567 0
M  V30 52070 N 5235.43 -1.477 -0.549768 0
M  V30 52071 C 5236.39 -1.60287 -1.63831 0
M  V30 52072 C 5237.39 -0.477448 -1.53548 0
M  V30 52073 O 5238.58 -0.742721 -1.57573 0
M  V30 52074 C 5235.72 -1.55441 -3.03399 0
M  V30 52075 H 5236.91 -2.5733 -1.54017 0
M  V30 52076 H 5234.46 -1.36001 -0.770281 0
M  V30 52077 H 5235.2 -0.598024 -3.18738 0
M  V30 52078 H 5234.98 -2.37127 -3.12271 0
M  V30 52079 H 5236.47 -1.67403 -3.82578 0
M  V30 52080 N 5236.91 0.797093 -1.35957 0
M  V30 52081 C 5237.86 1.89894 -1.26191 0
M  V30 52082 C 5238.84 1.60151 -0.155063 0
M  V30 52083 O 5240.03 1.72714 -0.387169 0
M  V30 52084 C 5237.16 3.26986 -1.0457 0
M  V30 52085 C 5236.25 3.62764 -2.19688 0
M  V30 52086 N 5236.64 3.69908 -3.44966 0
M  V30 52087 C 5234.94 3.92779 -2.11284 0
M  V30 52088 C 5235.64 4.01703 -4.20725 0
M  V30 52089 N 5234.62 4.16285 -3.49582 0
M  V30 52090 H 5238.42 1.93633 -2.21096 0
M  V30 52091 H 5235.93 0.992201 -1.28566 0
M  V30 52092 H 5237.93 4.05776 -0.956616 0
M  V30 52093 H 5236.59 3.24528 -0.105581 0
M  V30 52094 H 5237.6 3.52746 -3.79198 0
M  V30 52095 H 5234.28 3.98291 -1.25182 0
M  V30 52096 H 5235.67 4.14218 -5.2903 0
M  V30 52097 N 5238.39 1.2011 1.02036 0
M  V30 52098 C 5239.63 1.01045 1.75834 0
M  V30 52099 C 5239.97 -0.456753 1.88752 0
M  V30 52100 O 5239.24 -1.33914 1.41058 0
M  V30 52101 C 5239.52 1.69021 3.17969 0
M  V30 52102 C 5239.38 3.23161 3.12869 0
M  V30 52103 C 5240.7 1.42019 4.16556 0
M  V30 52104 H 5237.81 0.368487 0.638268 0
M  V30 52105 H 5240.46 1.48071 1.19059 0
M  V30 52106 H 5238.61 1.29039 3.66444 0
M  V30 52107 H 5240.28 3.72412 2.72226 0
M  V30 52108 H 5238.52 3.54262 2.50362 0
M  V30 52109 H 5239.19 3.65877 4.13326 0
M  V30 52110 H 5241.67 1.76698 3.76719 0
M  V30 52111 H 5240.54 1.92119 5.1418 0
M  V30 52112 H 5240.81 0.347039 4.40736 0
M  V30 52113 N 5239.86 -1.21284 1.00638 0
M  V30 52114 C 5240.77 -2.27386 0.577306 0
M  V30 52115 C 5241.79 -1.69792 -0.380339 0
M  V30 52116 O 5242.97 -1.99919 -0.24383 0
M  V30 52117 C 5240.03 -3.46588 -0.0879313 0
M  V30 52118 C 5239.09 -4.19449 0.914369 0
M  V30 52119 C 5238.33 -5.32961 0.280783 0
M  V30 52120 O 5238.55 -5.62898 -0.922067 0
M  V30 52121 O 5237.48 -5.93662 0.992404 0
M  V30 52122 H 5241.31 -2.66283 1.46037 0
M  V30 52123 H 5238.89 -1.27707 0.775328 0
M  V30 52124 H 5240.78 -4.18882 -0.459946 0
M  V30 52125 H 5239.45 -3.09588 -0.945352 0
M  V30 52126 H 5238.36 -3.49371 1.33757 0
M  V30 52127 H 5239.69 -4.60364 1.74142 0
M  V30 52128 N 5241.34 -0.781292 -1.36871 0
M  V30 52129 C 5242.27 -0.18821 -2.3274 0
M  V30 52130 C 5243.25 0.672271 -1.56251 0
M  V30 52131 O 5244.44 0.60777 -1.84445 0
M  V30 52132 C 5241.57 0.684221 -3.40493 0
M  V30 52133 C 5240.52 -0.0757146 -4.27933 0
M  V30 52134 C 5239.85 0.916783 -5.26782 0
M  V30 52135 C 5241.15 -1.26024 -5.06868 0
M  V30 52136 H 5242.84 -0.989116 -2.8259 0
M  V30 52137 H 5240.39 -0.477086 -1.35867 0
M  V30 52138 H 5242.34 1.10901 -4.06545 0
M  V30 52139 H 5241.07 1.51775 -2.89192 0
M  V30 52140 H 5239.72 -0.481386 -3.63426 0
M  V30 52141 H 5239.37 1.74512 -4.71757 0
M  V30 52142 H 5239.07 0.412794 -5.86148 0
M  V30 52143 H 5240.6 1.34031 -5.95708 0
M  V30 52144 H 5242.01 -0.911624 -5.66006 0
M  V30 52145 H 5240.41 -1.69696 -5.75607 0
M  V30 52146 H 5241.48 -2.05964 -4.38984 0
M  V30 52147 N 5242.82 1.48327 -0.532624 0
M  V30 52148 C 5243.78 2.28161 0.217989 0
M  V30 52149 C 5244.78 1.35529 0.865361 0
M  V30 52150 O 5245.97 1.58396 0.725005 0
M  V30 52151 C 5243.11 3.14485 1.31575 0
M  V30 52152 H 5244.3 2.95986 -0.482969 0
M  V30 52153 H 5241.85 1.53611 -0.288657 0
M  V30 52154 H 5242.59 2.51297 2.04988 0
M  V30 52155 H 5242.37 3.82628 0.856644 0
M  V30 52156 H 5243.86 3.74699 1.84364 0
M  V30 52157 N 5244.3 0.26788 1.55307 0
M  V30 52158 C 5245.58 -0.402382 1.91416 0
M  V30 52159 C 5245.96 -1.74276 1.19126 0
M  V30 52160 O 5245.3 -2.26309 0.315689 0
M  V30 52161 C 5245.51 -0.549804 3.44642 0
M  V30 52162 C 5246.86 -0.836042 4.16288 0
M  V30 52163 O 5247.89 -0.634886 3.50496 0
M  V30 52164 O 5246.74 -1.22032 5.32701 0
M  V30 52165 H 5243.84 -0.219149 0.797435 0
M  V30 52166 H 5246.38 0.313498 1.66779 0
M  V30 52167 H 5245.16 0.393778 3.89314 0
M  V30 52168 H 5244.78 -1.31543 3.7521 0
M  V30 52169 N 5245.78 -1.57599 -0.00494828 0
M  V30 52170 C 5246.74 -2.07062 -0.982759 0
M  V30 52171 C 5247.74 -0.97909 -1.27556 0
M  V30 52172 O 5248.93 -1.24191 -1.22157 0
M  V30 52173 C 5246.06 -2.5079 -2.30905 0
M  V30 52174 H 5247.25 -2.9472 -0.555015 0
M  V30 52175 H 5244.81 -1.5425 -0.252316 0
M  V30 52176 H 5245.54 -1.6636 -2.78379 0
M  V30 52177 H 5245.33 -3.30502 -2.10975 0
M  V30 52178 H 5246.82 -2.89401 -3.01059 0
M  V30 52179 N 5247.25 0.277627 -1.55135 0
M  V30 52180 C 5248.5 1.00785 -1.75177 0
M  V30 52181 C 5248.82 1.86985 -0.553332 0
M  V30 52182 O 5248.09 1.9108 0.431883 0
M  V30 52183 H 5246.67 0.375106 -0.645991 0
M  V30 52184 H 5249.34 0.302973 -1.92531 0
M  V30 52185 H 5248.43 1.64746 -2.65076 0
M  V30 52186 N 5248.73 1.4799 0.541927 0
M  V30 52187 C 5249.67 1.57696 1.66327 0
M  V30 52188 C 5250.68 0.462049 1.56106 0
M  V30 52189 O 5251.87 0.732363 1.62784 0
M  V30 52190 C 5248.97 1.47949 3.049 0
M  V30 52191 C 5248.14 2.74275 3.40723 0
M  V30 52192 C 5247.2 2.5815 4.58525 0
M  V30 52193 O 5246.23 3.32007 4.62342 0
M  V30 52194 N 5247.43 1.66979 5.55966 0
M  V30 52195 H 5250.19 2.54395 1.58441 0
M  V30 52196 H 5247.75 1.44562 0.728928 0
M  V30 52197 H 5249.75 1.34874 3.81564 0
M  V30 52198 H 5248.32 0.592734 3.06929 0
M  V30 52199 H 5247.54 3.02001 2.53355 0
M  V30 52200 H 5248.82 3.58107 3.61437 0
M  V30 52201 H 5248.22 1.06154 5.55651 0
M  V30 52202 H 5246.78 1.59849 6.31895 0
M  V30 52203 N 5250.21 -0.789872 1.36377 0
M  V30 52204 C 5251.44 -1.5764 1.33541 0
M  V30 52205 C 5251.85 -1.89007 -0.085441 0
M  V30 52206 O 5251.19 -1.50551 -1.05262 0
M  V30 52207 C 5251.25 -2.92417 2.09124 0
M  V30 52208 C 5250.92 -2.8378 3.58215 0
M  V30 52209 C 5251.92 -2.56056 4.52473 0
M  V30 52210 C 5249.6 -3.02371 4.01094 0
M  V30 52211 C 5251.59 -2.47023 5.87587 0
M  V30 52212 C 5249.28 -2.92961 5.36299 0
M  V30 52213 C 5250.28 -2.65325 6.29358 0
M  V30 52214 O 5249.97 -2.55908 7.6208 0
M  V30 52215 H 5249.7 -0.495622 0.459711 0
M  V30 52216 H 5252.25 -0.988291 1.80061 0
M  V30 52217 H 5250.48 -3.53276 1.57266 0
M  V30 52218 H 5252.17 -3.53686 1.99151 0
M  V30 52219 H 5252.94 -2.41395 4.20658 0
M  V30 52220 H 5248.82 -3.22889 3.29035 0
M  V30 52221 H 5252.36 -2.25373 6.60191 0
M  V30 52222 H 5248.26 -3.07184 5.67722 0
M  V30 52223 H 5249.03 -2.71393 7.72197 0
M  V30 52224 N 5251.69 -1.20649 -1.01398 0
M  V30 52225 C 5253.11 -0.961911 -1.27356 0
M  V30 52226 C 5253.31 0.357013 -1.98312 0
M  V30 52227 O 5252.36 1.0849 -2.28005 0
M  V30 52228 C 5253.67 -2.14634 -2.10601 0
M  V30 52229 C 5255.22 -2.18761 -2.23859 0
M  V30 52230 C 5255.7 -3.36697 -3.10482 0
M  V30 52231 N 5257.19 -3.36727 -3.18071 0
M  V30 52232 C 5257.92 -4.24629 -3.85328 0
M  V30 52233 N 5257.42 -5.22713 -4.5469 0
M  V30 52234 N 5259.21 -4.12463 -3.81878 0
M  V30 52235 H 5251.36 -2.05483 -0.537649 0
M  V30 52236 H 5253.63 -0.899303 -0.299931 0
M  V30 52237 H 5253.33 -3.10165 -1.65803 0
M  V30 52238 H 5253.21 -2.12946 -3.11342 0
M  V30 52239 H 5255.59 -1.23791 -2.6788 0
M  V30 52240 H 5255.67 -2.24496 -1.22618 0
M  V30 52241 H 5255.32 -4.31955 -2.67166 0
M  V30 52242 H 5255.25 -3.28199 -4.11816 0
M  V30 52243 H 5257.74 -2.65738 -2.68686 0
M  V30 52244 H 5258.05 -5.86105 -5.03687 0
M  V30 52245 H 5256.4 -5.26647 -4.53506 0
M  V30 52246 H 5259.59 -3.35103 -3.26839 0
M  V30 52247 H 5259.76 -4.81178 -4.34018 0
M  V30 52248 N 5253.17 1.20748 -1.0128 0
M  V30 52249 C 5254.41 1.9173 -0.708439 0
M  V30 52250 C 5254.77 1.76839 0.747793 0
M  V30 52251 O 5255.97 2.42266 1.16449 0
M  V30 52252 C 5254.24 3.39151 -1.12744 0
M  V30 52253 S 5255.8 4.28515 -0.944476 0
M  V30 52254 H 5252.62 0.662385 -0.258393 0
M  V30 52255 H 5255.22 1.4608 -1.29926 0
M  V30 52256 H 5253.93 3.47509 -2.18325 0
M  V30 52257 H 5253.46 3.89824 -0.529237 0
M  V30 52258 H 5255.47 4.95961 0.154104 0
M  V30 52259 N 5254.65 0.78854 1.36454 0
M  V30 52260 C 5255.87 0.372436 2.0352 0
M  V30 52261 C 5256.29 -1.01087 1.59458 0
M  V30 52262 O 5255.65 -1.64821 0.783593 0
M  V30 52263 C 5255.7 0.425561 3.58986 0
M  V30 52264 O 5255.42 1.75432 4.01442 0
M  V30 52265 C 5256.92 -2.43248e-05 4.433 0
M  V30 52266 H 5254.14 0.153623 0.653178 0
M  V30 52267 H 5256.68 1.06714 1.74449 0
M  V30 52268 H 5254.84 -0.22072 3.86771 0
M  V30 52269 H 5255.25 1.70454 4.9603 0
M  V30 52270 H 5256.73 0.0882859 5.51929 0
M  V30 52271 H 5257.2 -1.05254 4.26401 0
M  V30 52272 H 5257.81 0.618711 4.20776 0
M  V30 52273 N 5256.12 -1.48042 0.540482 0
M  V30 52274 C 5257.09 -2.28273 -0.205886 0
M  V30 52275 C 5258.09 -1.35986 -0.858162 0
M  V30 52276 O 5259.28 -1.58778 -0.716595 0
M  V30 52277 C 5256.41 -3.15178 -1.29905 0
M  V30 52278 H 5257.6 -2.95725 0.498659 0
M  V30 52279 H 5255.15 -1.53456 0.296799 0
M  V30 52280 H 5255.89 -2.52381 -2.03652 0
M  V30 52281 H 5255.67 -3.83077 -0.836341 0
M  V30 52282 H 5257.16 -3.75672 -1.82374 0
M  V30 52283 N 5257.6 -0.276112 -1.55162 0
M  V30 52284 C 5258.83 0.343701 -2.04025 0
M  V30 52285 C 5259.24 1.49393 -1.15444 0
M  V30 52286 O 5258.6 1.81661 -0.174756 0
M  V30 52287 C 5258.65 0.823762 -3.51989 0
M  V30 52288 O 5258.37 -0.280661 -4.372 0
M  V30 52289 C 5259.87 1.51129 -4.16743 0
M  V30 52290 H 5257.09 0.0782566 -0.666421 0
M  V30 52291 H 5259.64 -0.408498 -2.00379 0
M  V30 52292 H 5257.79 1.52605 -3.56077 0
M  V30 52293 H 5258.21 0.0885987 -5.24425 0
M  V30 52294 H 5259.68 1.7986 -5.21876 0
M  V30 52295 H 5260.16 2.44315 -3.64975 0
M  V30 52296 H 5260.76 0.852829 -4.16662 0
M  V30 52297 N 5259.08 1.576 -0.00340966 0
M  V30 52298 C 5260.03 2.09763 1.0051 0
M  V30 52299 C 5261.02 1.01838 1.35372 0
M  V30 52300 O 5262.23 1.20299 1.33896 0
M  V30 52301 H 5258.6 0.669833 0.341801 0
M  V30 52302 H 5260.57 2.9348 0.539615 0
M  V30 52303 C 5259.32 2.61898 2.28702 0
M  V30 52304 H 5258.65 3.44579 2.02745 0
M  V30 52305 H 5260.09 3.02072 2.97538 0
M  V30 52306 C 5258.54 1.53466 2.99916 0
M  V30 52307 O 5259.07 0.919539 3.91034 0
M  V30 52308 N 5257.28 1.26129 2.61801 0
M  V30 52309 H 5256.83 1.76335 1.87786 0
M  V30 52310 H 5256.79 0.537981 3.09763 0
M  V30 52311 N 5260.56 -0.269396 1.5528 0
M  V30 52312 C 5261.52 -1.31635 1.87629 0
M  V30 52313 C 5262.52 -1.42179 0.751108 0
M  V30 52314 O 5263.71 -1.41268 1.01926 0
M  V30 52315 C 5260.84 -2.69722 2.08477 0
M  V30 52316 H 5262.04 -1.04181 2.81223 0
M  V30 52317 H 5259.59 -0.507633 1.47827 0
M  V30 52318 H 5260.32 -3.02352 1.17277 0
M  V30 52319 H 5260.11 -2.63455 2.90403 0
M  V30 52320 H 5261.6 -3.45362 2.34765 0
M  V30 52321 N 5262.04 -1.48275 -0.534071 0
M  V30 52322 C 5263 -1.62016 -1.62122 0
M  V30 52323 C 5264 -0.493707 -1.53033 0
M  V30 52324 O 5265.19 -0.759392 -1.56777 0
M  V30 52325 C 5262.32 -1.58651 -3.01733 0
M  V30 52326 H 5263.51 -2.58949 -1.51279 0
M  V30 52327 H 5261.07 -1.36811 -0.755813 0
M  V30 52328 H 5261.8 -0.631797 -3.18086 0
M  V30 52329 H 5261.59 -2.40426 -3.09739 0
M  V30 52330 H 5263.08 -1.71452 -3.80781 0
M  V30 52331 N 5263.51 0.782628 -1.36794 0
M  V30 52332 C 5264.76 1.53774 -1.31141 0
M  V30 52333 C 5265.08 1.94707 0.106945 0
M  V30 52334 O 5264.35 1.65468 1.04867 0
M  V30 52335 H 5262.93 0.570311 -0.482446 0
M  V30 52336 H 5265.6 0.93212 -1.71165 0
M  V30 52337 H 5264.69 2.44218 -1.9433 0
M  V30 52338 N 5264.99 1.21185 1.00757 0
M  V30 52339 C 5266.22 1.05341 1.78075 0
M  V30 52340 C 5266.64 -0.396923 1.84581 0
M  V30 52341 O 5265.99 -1.27544 1.30533 0
M  V30 52342 C 5266.04 1.641 3.22108 0
M  V30 52343 O 5265.76 3.03459 3.15981 0
M  V30 52344 C 5267.27 1.53332 4.15938 0
M  V30 52345 H 5264.49 0.37007 0.559723 0
M  V30 52346 H 5267.03 1.60468 1.26769 0
M  V30 52347 H 5265.18 1.13072 3.70531 0
M  V30 52348 H 5265.6 3.31506 4.06453 0
M  V30 52349 H 5267.07 1.99192 5.14807 0
M  V30 52350 H 5267.55 0.48732 4.36488 0
M  V30 52351 H 5268.16 2.03595 3.73402 0
M  V30 52352 N 5266.47 -1.20209 1.01919 0
M  V30 52353 C 5267.7 -1.93619 0.729323 0
M  V30 52354 C 5268.11 -1.74926 -0.710383 0
M  V30 52355 O 5267.47 -1.0649 -1.4821 0
M  V30 52356 C 5267.52 -3.45648 1.05877 0
M  V30 52357 O 5267.24 -3.63732 2.44194 0
M  V30 52358 C 5268.74 -4.36198 0.79033 0
M  V30 52359 H 5265.96 -0.615323 0.267615 0
M  V30 52360 H 5268.51 -1.52628 1.36107 0
M  V30 52361 H 5266.66 -3.84509 0.472385 0
M  V30 52362 H 5267.08 -4.57693 2.56159 0
M  V30 52363 H 5268.55 -5.41512 1.0709 0
M  V30 52364 H 5269.03 -4.38335 -0.275455 0
M  V30 52365 H 5269.63 -4.03003 1.35899 0
M  V30 52366 N 5267.95 -0.795765 -1.36034 0
M  V30 52367 C 5268.88 -0.156417 -2.28666 0
M  V30 52368 C 5269.89 0.638023 -1.49777 0
M  V30 52369 O 5271.08 0.472161 -1.72142 0
M  V30 52370 C 5268.18 0.801301 -3.29291 0
M  V30 52371 C 5267.36 0.055558 -4.37365 0
M  V30 52372 C 5266.41 0.930156 -5.17914 0
M  V30 52373 O 5265.44 0.385067 -5.67896 0
M  V30 52374 N 5266.64 2.25363 -5.34969 0
M  V30 52375 H 5269.41 -0.952133 -2.84173 0
M  V30 52376 H 5266.97 -0.650242 -1.48268 0
M  V30 52377 H 5268.96 1.39038 -3.80067 0
M  V30 52378 H 5267.53 1.49787 -2.74377 0
M  V30 52379 H 5266.75 -0.714644 -3.87668 0
M  V30 52380 H 5268.04 -0.458811 -5.06727 0
M  V30 52381 H 5267.44 2.72056 -4.95986 0
M  V30 52382 H 5265.99 2.7922 -5.88965 0
M  V30 52383 N 5269.43 1.47754 -0.548326 0
M  V30 52384 C 5270.65 2.07387 -0.0235479 0
M  V30 52385 C 5271.08 1.39961 1.25669 0
M  V30 52386 O 5270.43 0.471604 1.75059 0
M  V30 52387 C 5270.48 3.60224 0.164542 0
M  V30 52388 O 5269.59 3.93657 1.22915 0
M  V30 52389 H 5268.93 0.66231 -0.0473389 0
M  V30 52390 H 5271.46 1.89902 -0.761475 0
M  V30 52391 H 5271.47 4.06212 0.381517 0
M  V30 52392 H 5270.14 4.08699 -0.770569 0
M  V30 52393 H 5268.72 3.59425 0.993369 0
M  V30 52394 N 5270.9 0.284337 1.55014 0
M  V30 52395 C 5271.85 -0.613836 2.19582 0
M  V30 52396 C 5272.84 -1.11149 1.16339 0
M  V30 52397 O 5274.03 -1.05503 1.4212 0
M  V30 52398 C 5271.16 -1.79318 2.92745 0
M  V30 52399 C 5270.25 -1.31228 4.03287 0
M  V30 52400 N 5270.64 -0.548167 5.02821 0
M  V30 52401 C 5268.93 -1.59445 4.16525 0
M  V30 52402 C 5269.64 -0.294154 5.80956 0
M  V30 52403 N 5268.61 -0.869218 5.36606 0
M  V30 52404 H 5272.41 -0.0223055 2.93892 0
M  V30 52405 H 5269.93 0.088319 1.6216 0
M  V30 52406 H 5271.92 -2.44802 3.37458 0
M  V30 52407 H 5270.58 -2.38858 2.19948 0
M  V30 52408 H 5271.6 -0.194631 5.17534 0
M  V30 52409 H 5268.27 -2.19853 3.54924 0
M  V30 52410 H 5269.66 0.318431 6.71145 0
M  V30 52411 N 5272.38 -1.57596 0.0117675 0
M  V30 52412 C 5273.63 -1.91357 -0.671594 0
M  V30 52413 C 5273.96 -0.886878 -1.72766 0
M  V30 52414 O 5273.24 0.092813 -1.94278 0
M  V30 52415 C 5273.52 -3.35662 -1.30397 0
M  V30 52416 C 5273.37 -4.49056 -0.258642 0
M  V30 52417 C 5274.69 -3.79603 -2.22688 0
M  V30 52418 H 5271.81 -0.695901 -0.242674 0
M  V30 52419 H 5274.45 -1.89887 0.0654739 0
M  V30 52420 H 5272.6 -3.37045 -1.93218 0
M  V30 52421 H 5274.27 -4.59807 0.370793 0
M  V30 52422 H 5272.52 -4.31783 0.417824 0
M  V30 52423 H 5273.19 -5.47012 -0.740385 0
M  V30 52424 H 5275.66 -3.79846 -1.69872 0
M  V30 52425 H 5274.54 -4.81301 -2.63895 0
M  V30 52426 H 5274.8 -3.14129 -3.11087 0
M  V30 52427 N 5273.86 0.261157 -1.55421 0
M  V30 52428 C 5274.79 1.32705 -1.92124 0
M  V30 52429 C 5275.77 1.50931 -0.784459 0
M  V30 52430 O 5276.96 1.63777 -1.04358 0
M  V30 52431 C 5274.09 2.68445 -2.20351 0
M  V30 52432 C 5273.04 2.64935 -3.36145 0
M  V30 52433 C 5272.37 4.04337 -3.4988 0
M  V30 52434 C 5273.67 2.23166 -4.72223 0
M  V30 52435 H 5275.36 1.02235 -2.81404 0
M  V30 52436 H 5272.91 0.490358 -1.35394 0
M  V30 52437 H 5274.86 3.43135 -2.44615 0
M  V30 52438 H 5273.58 3.00523 -1.27881 0
M  V30 52439 H 5272.24 1.92703 -3.11867 0
M  V30 52440 H 5271.89 4.33656 -2.54856 0
M  V30 52441 H 5271.59 4.0288 -4.2774 0
M  V30 52442 H 5273.11 4.80748 -3.76449 0
M  V30 52443 H 5274.53 2.87582 -4.95953 0
M  V30 52444 H 5272.93 2.32848 -5.53084 0
M  V30 52445 H 5274 1.1831 -4.70245 0
M  V30 52446 N 5275.34 1.48556 0.526201 0
M  V30 52447 C 5276.27 1.66257 1.63953 0
M  V30 52448 C 5277.25 0.511408 1.6223 0
M  V30 52449 O 5278.43 0.744385 1.79367 0
M  V30 52450 C 5275.56 1.70566 3.0253 0
M  V30 52451 C 5274.52 2.85221 3.19113 0
M  V30 52452 C 5273.84 2.74622 4.58788 0
M  V30 52453 C 5275.14 4.26474 3.01525 0
M  V30 52454 H 5276.84 2.59464 1.49394 0
M  V30 52455 H 5274.38 1.24864 0.717282 0
M  V30 52456 H 5276.34 1.81538 3.80292 0
M  V30 52457 H 5275.06 0.739408 3.1812 0
M  V30 52458 H 5273.72 2.73811 2.43769 0
M  V30 52459 H 5273.37 1.75958 4.71219 0
M  V30 52460 H 5273.07 3.5156 4.70828 0
M  V30 52461 H 5274.59 2.87567 5.38644 0
M  V30 52462 H 5276.01 4.38698 3.69076 0
M  V30 52463 H 5274.4 5.04439 3.25055 0
M  V30 52464 H 5275.47 4.42674 1.97909 0
M  V30 52465 N 5276.82 -0.775363 1.37207 0
M  V30 52466 C 5277.75 -1.90253 1.35374 0
M  V30 52467 C 5278.73 -1.68633 0.222923 0
M  V30 52468 O 5279.91 -1.89543 0.422726 0
M  V30 52469 C 5277.04 -3.27484 1.15634 0
M  V30 52470 C 5276 -3.6366 2.25689 0
M  V30 52471 C 5275.32 -4.99393 1.91077 0
M  V30 52472 C 5276.62 -3.70784 3.67854 0
M  V30 52473 H 5278.32 -1.92045 2.29693 0
M  V30 52474 H 5275.86 -0.922558 1.10566 0
M  V30 52475 H 5277.82 -4.05972 1.12982 0
M  V30 52476 H 5276.54 -3.26116 0.177687 0
M  V30 52477 H 5275.2 -2.87478 2.2749 0
M  V30 52478 H 5274.85 -4.94561 0.917498 0
M  V30 52479 H 5274.55 -5.24567 2.6477 0
M  V30 52480 H 5276.07 -5.80285 1.90005 0
M  V30 52481 H 5277.48 -4.39431 3.68203 0
M  V30 52482 H 5275.88 -4.07452 4.40571 0
M  V30 52483 H 5276.95 -2.71535 4.01742 0
M  V30 52484 N 5278.3 -1.21718 -1.00112 0
M  V30 52485 C 5279.54 -1.0383 -1.74205 0
M  V30 52486 C 5279.87 0.426666 -1.89455 0
M  V30 52487 O 5279.15 1.31653 -1.43171 0
M  V30 52488 C 5279.43 -1.74058 -3.15239 0
M  V30 52489 C 5279.29 -3.28098 -3.07688 0
M  V30 52490 C 5280.6 -1.48628 -4.14243 0
M  V30 52491 H 5277.72 -0.378595 -0.632325 0
M  V30 52492 H 5280.37 -1.49946 -1.16688 0
M  V30 52493 H 5278.52 -1.34852 -3.64345 0
M  V30 52494 H 5280.19 -3.76696 -2.66267 0
M  V30 52495 H 5278.43 -3.582 -2.44694 0
M  V30 52496 H 5279.1 -3.72406 -4.07453 0
M  V30 52497 H 5281.58 -1.82669 -3.7386 0
M  V30 52498 H 5280.45 -2.00275 -5.11059 0
M  V30 52499 H 5280.71 -0.417112 -4.40128 0
M  V30 52500 N 5279.77 1.19667 -1.02555 0
M  V30 52501 C 5280.71 2.22213 -0.561596 0
M  V30 52502 C 5281.72 1.58752 0.360765 0
M  V30 52503 O 5282.91 1.77802 0.157687 0
M  V30 52504 C 5280.01 3.38301 0.201375 0
M  V30 52505 C 5279.18 4.31348 -0.725104 0
M  V30 52506 C 5278.24 5.26199 -0.00812832 0
M  V30 52507 O 5277.27 5.65663 -0.633597 0
M  V30 52508 N 5278.47 5.66577 1.26374 0
M  V30 52509 H 5281.23 2.62645 -1.44353 0
M  V30 52510 H 5278.79 1.343 -0.904169 0
M  V30 52511 H 5280.79 3.98766 0.690485 0
M  V30 52512 H 5279.36 2.96686 0.984686 0
M  V30 52513 H 5278.58 3.68716 -1.39436 0
M  V30 52514 H 5279.86 4.90428 -1.3549 0
M  V30 52515 H 5279.26 5.36544 1.79268 0
M  V30 52516 H 5277.82 6.2931 1.69741 0
M  V30 52517 N 5281.25 0.802969 1.3561 0
M  V30 52518 C 5282.21 0.216502 2.28175 0
M  V30 52519 C 5283.21 -0.594049 1.49425 0
M  V30 52520 O 5284.4 -0.413061 1.69232 0
M  V30 52521 C 5281.54 -0.698629 3.33664 0
M  V30 52522 H 5282.73 1.03286 2.81553 0
M  V30 52523 H 5280.28 0.573358 1.45404 0
M  V30 52524 H 5281.02 -1.53881 2.85466 0
M  V30 52525 H 5280.8 -0.119176 3.91919 0
M  V30 52526 H 5282.29 -1.1034 4.02759 0
M  V30 52527 N 5282.73 -1.47461 0.556154 0
M  V30 52528 C 5283.66 -2.32802 -0.180415 0
M  V30 52529 C 5284.64 -1.43724 -0.909798 0
M  V30 52530 O 5285.83 -1.72581 -0.890469 0
M  V30 52531 C 5282.96 -3.25482 -1.21155 0
M  V30 52532 C 5281.91 -4.23792 -0.598697 0
M  V30 52533 C 5281.24 -5.05789 -1.73439 0
M  V30 52534 C 5282.54 -5.20385 0.446842 0
M  V30 52535 H 5284.23 -2.94635 0.532059 0
M  V30 52536 H 5281.78 -1.41682 0.257317 0
M  V30 52537 H 5283.73 -3.84026 -1.735 0
M  V30 52538 H 5282.45 -2.61702 -1.95396 0
M  V30 52539 H 5281.11 -3.66473 -0.0965609 0
M  V30 52540 H 5280.76 -4.38414 -2.46581 0
M  V30 52541 H 5280.46 -5.72348 -1.33011 0
M  V30 52542 H 5281.98 -5.67191 -2.26111 0
M  V30 52543 H 5283.4 -5.73299 0.00950173 0
M  V30 52544 H 5281.79 -5.9514 0.769945 0
M  V30 52545 H 5282.86 -4.65928 1.34311 0
M  V30 52546 N 5284.21 -0.292554 -1.54861 0
M  V30 52547 C 5285.62 0.201776 -1.85606 0
M  V30 52548 C 5285.97 1.54089 -1.21454 0
M  V30 52549 O 5285.09 2.10325 -0.509153 0
M  V30 52550 C 5285.69 0.372893 -3.36742 0
M  V30 52551 C 5284.25 0.811445 -3.67549 0
M  V30 52552 C 5283.4 -0.0851557 -2.77169 0
M  V30 52553 H 5286.35 -0.513826 -1.50152 0
M  V30 52554 H 5286.37 1.20879 -3.60789 0
M  V30 52555 H 5285.88 -0.601886 -3.83404 0
M  V30 52556 H 5283.98 1.79708 -3.26398 0
M  V30 52557 H 5284.09 0.636686 -4.74851 0
M  V30 52558 H 5282.46 0.434136 -2.50973 0
M  V30 52559 H 5283.24 -1.05613 -3.26651 0
M  V30 52560 N 5285.69 1.57587 -0.020125 0
M  V30 52561 C 5286.62 2.06559 0.993286 0
M  V30 52562 C 5287.63 0.987272 1.29448 0
M  V30 52563 O 5288.82 1.26366 1.26071 0
M  V30 52564 C 5285.92 2.46758 2.32301 0
M  V30 52565 C 5285.09 3.77562 2.2083 0
M  V30 52566 C 5284.15 4.04409 3.3666 0
M  V30 52567 O 5283.18 4.74791 3.13946 0
M  V30 52568 N 5284.38 3.53878 4.60164 0
M  V30 52569 H 5287.14 2.94122 0.575513 0
M  V30 52570 H 5284.71 1.61038 0.166833 0
M  V30 52571 H 5286.7 2.61817 3.086 0
M  V30 52572 H 5285.27 1.64607 2.6575 0
M  V30 52573 H 5284.49 3.72386 1.29314 0
M  V30 52574 H 5285.78 4.63278 2.10359 0
M  V30 52575 H 5285.17 2.96921 4.81513 0
M  V30 52576 H 5283.73 3.74231 5.33661 0
M  V30 52577 N 5287.16 -0.252911 1.55557 0
M  V30 52578 C 5288.41 -0.979674 1.7631 0
M  V30 52579 C 5288.73 -1.86712 0.582936 0
M  V30 52580 O 5289.93 -2.63018 0.67334 0
M  V30 52581 C 5288.39 -1.79194 3.12118 0
M  V30 52582 C 5288 -0.952179 4.37764 0
M  V30 52583 C 5289.74 -2.51179 3.42212 0
M  V30 52584 C 5287.65 -1.75998 5.64605 0
M  V30 52585 H 5286.58 -0.369515 0.657248 0
M  V30 52586 H 5289.23 -0.234555 1.81995 0
M  V30 52587 H 5287.61 -2.57878 3.00525 0
M  V30 52588 H 5288.78 -0.208089 4.6033 0
M  V30 52589 H 5287.1 -0.345936 4.14961 0
M  V30 52590 H 5289.7 -3.12059 4.34193 0
M  V30 52591 H 5290.04 -3.2249 2.6326 0
M  V30 52592 H 5290.57 -1.7951 3.54994 0
M  V30 52593 H 5287.31 -1.09073 6.46362 0
M  V30 52594 H 5286.83 -2.47951 5.4615 0
M  V30 52595 H 5288.51 -2.32863 6.03642 0
M  V30 52596 N 5288.64 -1.48833 -0.518315 0
M  V30 52597 C 5289.87 -1.61384 -1.30269 0
M  V30 52598 C 5290.29 -0.278636 -1.86025 0
M  V30 52599 O 5289.65 0.751369 -1.64997 0
M  V30 52600 C 5289.7 -2.67234 -2.42112 0
M  V30 52601 O 5288.8 -2.25204 -3.45481 0
M  V30 52602 H 5288.14 -0.540756 -0.38533 0
M  V30 52603 H 5290.67 -1.94902 -0.62243 0
M  V30 52604 H 5290.68 -2.88869 -2.8813 0
M  V30 52605 H 5289.36 -3.64163 -2.00894 0
M  V30 52606 H 5287.93 -2.1383 -3.05502 0
M  V30 52607 N 5290.12 0.768075 -1.37617 0
M  V30 52608 C 5291.05 1.88889 -1.28047 0
M  V30 52609 C 5292.03 1.61808 -0.160283 0
M  V30 52610 O 5293.21 1.85497 -0.335125 0
M  V30 52611 C 5290.34 3.24193 -0.980637 0
M  V30 52612 C 5289.39 3.70181 -2.11821 0
M  V30 52613 S 5290.22 3.8342 -3.73831 0
M  V30 52614 C 5291.38 5.21566 -3.46005 0
M  V30 52615 H 5291.61 1.96718 -2.22911 0
M  V30 52616 H 5289.14 0.929559 -1.23282 0
M  V30 52617 H 5291.1 4.02339 -0.814473 0
M  V30 52618 H 5289.76 3.14061 -0.0494227 0
M  V30 52619 H 5288.95 4.68283 -1.86352 0
M  V30 52620 H 5288.56 2.99147 -2.2447 0
M  V30 52621 H 5290.85 6.06854 -3.01221 0
M  V30 52622 H 5291.79 5.5205 -4.43448 0
M  V30 52623 H 5292.2 4.89678 -2.80849 0
M  V30 52624 N 5291.6 1.22247 0.994655 0
M  V30 52625 C 5293.01 1.04305 1.54846 0
M  V30 52626 C 5293.36 -0.394035 1.92203 0
M  V30 52627 O 5292.48 -1.27877 1.74575 0
M  V30 52628 C 5293.08 1.88718 2.81373 0
M  V30 52629 C 5291.64 1.75078 3.33203 0
M  V30 52630 C 5290.79 1.85293 2.06305 0
M  V30 52631 H 5293.74 1.36118 0.81594 0
M  V30 52632 H 5293.76 1.40355 3.53668 0
M  V30 52633 H 5293.27 2.93305 2.54153 0
M  V30 52634 H 5291.37 0.732176 3.65335 0
M  V30 52635 H 5291.48 2.57646 4.03925 0
M  V30 52636 H 5289.85 1.28714 2.19784 0
M  V30 52637 H 5290.63 2.91408 1.81484 0
M  V30 52638 N 5293.08 -1.19122 1.03188 0
M  V30 52639 C 5294.01 -2.21912 0.573372 0
M  V30 52640 C 5295.02 -1.58941 -0.352341 0
M  V30 52641 O 5296.21 -1.77883 -0.148255 0
M  V30 52642 C 5293.31 -3.38403 -0.183431 0
M  V30 52643 C 5292.48 -4.30957 0.747969 0
M  V30 52644 C 5291.54 -5.26188 0.0360338 0
M  V30 52645 O 5290.57 -5.65319 0.663586 0
M  V30 52646 N 5291.77 -5.6724 -1.23367 0
M  V30 52647 H 5294.54 -2.61876 1.45743 0
M  V30 52648 H 5292.1 -1.33818 0.911278 0
M  V30 52649 H 5294.09 -3.99127 -0.669328 0
M  V30 52650 H 5292.66 -2.97204 -0.968938 0
M  V30 52651 H 5291.88 -3.67971 1.4139 0
M  V30 52652 H 5293.17 -4.89703 1.38089 0
M  V30 52653 H 5292.56 -5.37487 -1.7642 0
M  V30 52654 H 5291.12 -6.30202 -1.66401 0
M  V30 52655 N 5294.55 -0.810149 -1.35183 0
M  V30 52656 C 5295.46 -0.224647 -2.33522 0
M  V30 52657 C 5296.48 0.63423 -1.62029 0
M  V30 52658 O 5297.66 0.545142 -1.93882 0
M  V30 52659 C 5294.72 0.614199 -3.41216 0
M  V30 52660 C 5293.78 -0.265586 -4.28478 0
M  V30 52661 C 5293.02 0.533319 -5.31029 0
M  V30 52662 O 5293.24 1.76771 -5.42317 0
M  V30 52663 O 5292.17 -0.0776689 -6.0185 0
M  V30 52664 H 5296 -1.03825 -2.85401 0
M  V30 52665 H 5293.58 -0.572012 -1.38016 0
M  V30 52666 H 5295.47 1.09187 -4.07009 0
M  V30 52667 H 5294.14 1.40535 -2.91602 0
M  V30 52668 H 5293.05 -0.790472 -3.65653 0
M  V30 52669 H 5294.38 -1.02076 -4.81499 0
M  V30 52670 N 5296.03 1.47164 -0.563966 0
M  V30 52671 C 5297.28 2.02755 -0.0425051 0
M  V30 52672 C 5297.61 1.43667 1.30665 0
M  V30 52673 O 5296.89 0.594741 1.85184 0
M  V30 52674 C 5297.17 3.60074 0.0433527 0
M  V30 52675 C 5297.02 4.29582 -1.33338 0
M  V30 52676 C 5298.34 4.33603 0.753416 0
M  V30 52677 H 5295.46 0.736806 -0.0169205 0
M  V30 52678 H 5298.1 1.75518 -0.727558 0
M  V30 52679 H 5296.25 3.83411 0.626772 0
M  V30 52680 H 5297.92 4.17566 -1.96052 0
M  V30 52681 H 5296.17 3.89673 -1.90623 0
M  V30 52682 H 5296.84 5.38214 -1.22595 0
M  V30 52683 H 5299.31 4.15299 0.25798 0
M  V30 52684 H 5298.19 5.43294 0.782468 0
M  V30 52685 H 5298.45 4.03308 1.81094 0
M  V30 52686 N 5297.51 0.300763 1.54704 0
M  V30 52687 C 5298.93 -0.0526314 1.59513 0
M  V30 52688 C 5299.13 -1.5244 1.31774 0
M  V30 52689 O 5298.18 -2.27712 1.09104 0
M  V30 52690 C 5299.5 0.345094 2.98713 0
M  V30 52691 C 5301.04 0.29384 3.11618 0
M  V30 52692 C 5301.52 0.666384 4.53126 0
M  V30 52693 N 5303.01 0.61891 4.59047 0
M  V30 52694 C 5303.74 0.879646 5.66613 0
M  V30 52695 N 5303.24 1.20634 6.82216 0
M  V30 52696 N 5305.03 0.806724 5.56281 0
M  V30 52697 H 5297.18 1.25994 1.70995 0
M  V30 52698 H 5299.45 0.510786 0.798625 0
M  V30 52699 H 5299.15 1.36964 3.23935 0
M  V30 52700 H 5299.03 -0.301374 3.75994 0
M  V30 52701 H 5301.41 -0.721459 2.86145 0
M  V30 52702 H 5301.5 0.974928 2.36493 0
M  V30 52703 H 5301.14 1.67949 4.79328 0
M  V30 52704 H 5301.07 -0.0367723 5.26587 0
M  V30 52705 H 5303.56 0.377334 3.76011 0
M  V30 52706 H 5303.87 1.39127 7.60173 0
M  V30 52707 H 5302.22 1.24437 6.83769 0
M  V30 52708 H 5305.41 0.551156 4.64844 0
M  V30 52709 H 5305.58 1.01329 6.40028 0
M  V30 52710 N 5298.99 -1.57574 0.028482 0
M  V30 52711 C 5300.23 -1.92058 -0.65126 0
M  V30 52712 C 5300.57 -0.905153 -1.71816 0
M  V30 52713 O 5299.84 0.072202 -1.94366 0
M  V30 52714 C 5300.13 -3.37026 -1.26829 0
M  V30 52715 C 5299.98 -4.49305 -0.210999 0
M  V30 52716 C 5301.3 -3.81943 -2.18649 0
M  V30 52717 H 5298.42 -0.698436 -0.235279 0
M  V30 52718 H 5301.06 -1.89807 0.0856103 0
M  V30 52719 H 5299.21 -3.39075 -1.89632 0
M  V30 52720 H 5300.88 -4.59388 0.419541 0
M  V30 52721 H 5299.12 -4.31316 0.463597 0
M  V30 52722 H 5299.79 -5.47767 -0.682326 0
M  V30 52723 H 5302.27 -3.81626 -1.65833 0
M  V30 52724 H 5301.15 -4.84073 -2.58775 0
M  V30 52725 H 5301.41 -3.17411 -3.07738 0
M  V30 52726 N 5300.47 0.244658 -1.55689 0
M  V30 52727 C 5301.88 0.813544 -1.68043 0
M  V30 52728 C 5302.23 1.85934 -0.626346 0
M  V30 52729 O 5301.35 2.15207 0.226962 0
M  V30 52730 C 5301.95 1.48241 -3.04647 0
M  V30 52731 C 5300.51 1.99897 -3.18933 0
M  V30 52732 C 5299.65 0.850865 -2.63923 0
M  V30 52733 H 5302.61 0.0204247 -1.58687 0
M  V30 52734 H 5302.63 2.35052 -2.99217 0
M  V30 52735 H 5302.14 0.72103 -3.81343 0
M  V30 52736 H 5300.24 2.78909 -2.47064 0
M  V30 52737 H 5300.35 2.19482 -4.25869 0
M  V30 52738 H 5298.72 1.25198 -2.21805 0
M  V30 52739 H 5299.5 0.10253 -3.43147 0
M  V30 52740 N 5301.94 1.49106 0.510415 0
M  V30 52741 C 5302.91 1.64575 1.59524 0
M  V30 52742 C 5303.91 0.517991 1.52228 0
M  V30 52743 O 5305.1 0.784237 1.55549 0
M  V30 52744 C 5302.23 1.63431 2.99171 0
M  V30 52745 H 5303.42 2.61323 1.4714 0
M  V30 52746 H 5300.98 1.37996 0.733952 0
M  V30 52747 H 5301.71 0.682321 3.17041 0
M  V30 52748 H 5301.5 2.45323 3.05874 0
M  V30 52749 H 5302.99 1.77488 3.78005 0
M  V30 52750 N 5303.42 -0.760766 1.38022 0
M  V30 52751 C 5304.67 -1.51668 1.33571 0
M  V30 52752 C 5304.99 -1.94852 -0.0759555 0
M  V30 52753 O 5304.26 -1.67116 -1.02221 0
M  V30 52754 H 5302.84 -0.562564 0.491458 0
M  V30 52755 H 5305.5 -0.904772 1.72626 0
M  V30 52756 H 5304.6 -2.41095 1.98191 0
M  V30 52757 N 5304.9 -1.22773 -0.988158 0
M  V30 52758 C 5306.13 -1.08245 -1.76912 0
M  V30 52759 C 5306.55 0.362454 -1.84575 0
M  V30 52760 O 5305.91 1.26197 -1.30169 0
M  V30 52761 C 5305.96 -1.70374 -3.17813 0
M  V30 52762 O 5305.06 -0.960625 -4.01056 0
M  V30 52763 H 5304.4 -0.379891 -0.54459 0
M  V30 52764 H 5306.93 -1.62668 -1.24098 0
M  V30 52765 H 5306.94 -1.75293 -3.68424 0
M  V30 52766 H 5305.62 -2.75516 -3.1155 0
M  V30 52767 H 5304.19 -0.987793 -3.59579 0
M  V30 52768 N 5306.38 1.18573 -1.03818 0
M  V30 52769 C 5307.34 2.20328 -0.631537 0
M  V30 52770 C 5308.34 1.57788 0.30976 0
M  V30 52771 O 5309.53 1.73938 0.0954986 0
M  V30 52772 C 5306.66 3.40819 0.0744764 0
M  V30 52773 H 5307.86 2.57818 -1.53198 0
M  V30 52774 H 5305.41 1.32413 -0.830444 0
M  V30 52775 H 5306.14 3.08857 0.988838 0
M  V30 52776 H 5305.93 3.87451 -0.602036 0
M  V30 52777 H 5307.42 4.16168 0.345581 0
M  V30 52778 N 5307.86 0.817307 1.34751 0
M  V30 52779 C 5308.82 0.240691 2.27933 0
M  V30 52780 C 5309.82 -0.578167 1.50046 0
M  V30 52781 O 5311.01 -0.395088 1.69661 0
M  V30 52782 C 5308.14 -0.6632 3.34387 0
M  V30 52783 H 5309.34 1.06266 2.80442 0
M  V30 52784 H 5306.89 0.588748 1.44788 0
M  V30 52785 H 5307.62 -1.50845 2.87082 0
M  V30 52786 H 5307.41 -0.077601 3.92023 0
M  V30 52787 H 5308.9 -1.06062 4.03907 0
M  V30 52788 N 5309.34 -1.46863 0.571763 0
M  V30 52789 C 5310.58 -2.0273 0.0532571 0
M  V30 52790 C 5310.91 -1.44358 -1.29902 0
M  V30 52791 O 5310.19 -0.604553 -1.84866 0
M  V30 52792 C 5310.47 -3.60092 -0.0242565 0
M  V30 52793 C 5310.33 -4.28869 1.35614 0
M  V30 52794 C 5311.64 -4.33997 -0.73041 0
M  V30 52795 H 5308.76 -0.736706 0.0208277 0
M  V30 52796 H 5311.41 -1.7513 0.736856 0
M  V30 52797 H 5309.56 -3.83738 -0.60643 0
M  V30 52798 H 5311.23 -4.1652 1.98264 0
M  V30 52799 H 5309.47 -3.88657 1.92687 0
M  V30 52800 H 5310.14 -5.37556 1.25448 0
M  V30 52801 H 5312.62 -4.1543 -0.235952 0
M  V30 52802 H 5311.49 -5.43702 -0.753645 0
M  V30 52803 H 5311.75 -4.04263 -1.78952 0
M  V30 52804 N 5310.81 -0.308963 -1.54542 0
M  V30 52805 C 5312.06 0.297966 -2.00296 0
M  V30 52806 C 5312.39 1.53281 -1.1973 0
M  V30 52807 O 5311.64 1.93916 -0.263619 0
M  V30 52808 C 5311.94 0.691399 -3.50649 0
M  V30 52809 C 5311.61 -0.442612 -4.48722 0
M  V30 52810 C 5310.27 -0.753906 -4.75258 0
M  V30 52811 C 5312.62 -1.20506 -5.07078 0
M  V30 52812 C 5309.95 -1.83063 -5.57409 0
M  V30 52813 C 5312.3 -2.27177 -5.90401 0
M  V30 52814 C 5310.97 -2.58904 -6.15244 0
M  V30 52815 H 5310.24 0.109033 -0.732934 0
M  V30 52816 H 5312.88 -0.429713 -1.86617 0
M  V30 52817 H 5311.19 1.49928 -3.61979 0
M  V30 52818 H 5312.89 1.17231 -3.83481 0
M  V30 52819 H 5309.48 -0.189894 -4.28179 0
M  V30 52820 H 5313.66 -0.977824 -4.86572 0
M  V30 52821 H 5308.92 -2.08108 -5.74892 0
M  V30 52822 H 5313.09 -2.86709 -6.34642 0
M  V30 52823 H 5310.72 -3.42467 -6.7869 0
M  V30 52824 N 5312.29 1.57557 -0.0368381 0
M  V30 52825 C 5313.7 1.79855 0.500908 0
M  V30 52826 C 5314.05 0.94781 1.71788 0
M  V30 52827 O 5313.18 0.160363 2.15805 0
M  V30 52828 C 5313.77 3.26196 0.915512 0
M  V30 52829 C 5312.33 3.49462 1.39832 0
M  V30 52830 C 5311.48 2.74865 0.366688 0
M  V30 52831 H 5314.43 1.56509 -0.262823 0
M  V30 52832 H 5314.45 3.3633 1.77939 0
M  V30 52833 H 5313.96 3.88089 0.0295863 0
M  V30 52834 H 5312.06 2.92832 2.30392 0
M  V30 52835 H 5312.18 4.58177 1.40037 0
M  V30 52836 H 5310.54 2.40573 0.836469 0
M  V30 52837 H 5311.32 3.39477 -0.510905 0
M  V30 52838 N 5313.77 -0.236398 1.55817 0
M  V30 52839 C 5315.01 -0.970186 1.79908 0
M  V30 52840 C 5315.37 -1.82118 0.608029 0
M  V30 52841 O 5316.57 -2.58756 0.727924 0
M  V30 52842 C 5314.85 -1.79927 3.08806 0
M  V30 52843 S 5316.4 -2.59072 3.54157 0
M  V30 52844 H 5313.22 -0.326158 0.631777 0
M  V30 52845 H 5315.82 -0.237079 1.94057 0
M  V30 52846 H 5314.53 -1.16398 3.93548 0
M  V30 52847 H 5314.06 -2.57494 2.97423 0
M  V30 52848 H 5316.07 -3.82304 3.1632 0
M  V30 52849 N 5315.25 -1.49374 -0.5025 0
M  V30 52850 C 5316.5 -1.58033 -1.25334 0
M  V30 52851 C 5316.81 -0.271562 -1.93706 0
M  V30 52852 O 5318.02 -0.236679 -2.70466 0
M  V30 52853 C 5316.47 -2.78825 -2.27563 0
M  V30 52854 C 5316.08 -4.16454 -1.65136 0
M  V30 52855 C 5317.82 -2.96813 -3.03484 0
M  V30 52856 C 5315.73 -5.28471 -2.65467 0
M  V30 52857 H 5314.66 -0.588412 -0.471473 0
M  V30 52858 H 5317.31 -1.75758 -0.527378 0
M  V30 52859 H 5315.69 -2.54591 -3.03314 0
M  V30 52860 H 5316.87 -4.50819 -0.953871 0
M  V30 52861 H 5315.18 -4.03812 -1.01611 0
M  V30 52862 H 5317.78 -3.77669 -3.7851 0
M  V30 52863 H 5318.12 -2.07315 -3.61007 0
M  V30 52864 H 5318.66 -3.21079 -2.34847 0
M  V30 52865 H 5315.39 -6.20022 -2.12727 0
M  V30 52866 H 5314.91 -4.98561 -3.33461 0
M  V30 52867 H 5316.59 -5.57741 -3.27923 0
M  V30 52868 N 5316.73 0.753436 -1.38424 0
M  V30 52869 C 5317.69 1.84883 -1.35465 0
M  V30 52870 C 5318.69 1.58763 -0.255139 0
M  V30 52871 O 5319.88 1.66505 -0.512036 0
M  V30 52872 C 5317.01 3.22357 -1.10899 0
M  V30 52873 H 5318.2 1.88914 -2.3292 0
M  V30 52874 H 5315.76 0.955155 -1.23719 0
M  V30 52875 H 5316.49 3.23995 -0.140514 0
M  V30 52876 H 5316.28 3.42711 -1.90504 0
M  V30 52877 H 5317.77 4.02433 -1.11525 0
M  V30 52878 N 5318.2 1.23295 0.981634 0
M  V30 52879 C 5319.43 1.09182 1.76335 0
M  V30 52880 C 5319.85 -0.352661 1.84764 0
M  V30 52881 O 5319.21 -1.25505 1.30837 0
M  V30 52882 C 5319.26 1.72057 3.16905 0
M  V30 52883 O 5318.36 0.981881 4.00541 0
M  V30 52884 H 5317.7 0.382774 0.542568 0
M  V30 52885 H 5320.23 1.63324 1.23234 0
M  V30 52886 H 5320.24 1.77245 3.67489 0
M  V30 52887 H 5318.92 2.77165 3.10085 0
M  V30 52888 H 5317.5 1.00685 3.5905 0
M  V30 52889 N 5319.68 -1.1802 1.04446 0
M  V30 52890 C 5320.93 -1.87724 0.748606 0
M  V30 52891 C 5321.25 -1.80978 -0.726093 0
M  V30 52892 O 5320.52 -1.23066 -1.52419 0
M  V30 52893 H 5319.1 -0.694965 0.273921 0
M  V30 52894 H 5321.76 -1.43209 1.32202 0
M  V30 52895 H 5320.86 -2.93662 1.05685 0
M  V30 52896 N 5321.16 -0.824441 -1.34316 0
M  V30 52897 C 5322.39 -0.425647 -2.02168 0
M  V30 52898 C 5322.8 0.973539 -1.62231 0
M  V30 52899 O 5322.14 1.6417 -0.824257 0
M  V30 52900 C 5322.2 -0.450028 -3.56672 0
M  V30 52901 C 5321.87 -1.80281 -4.19938 0
M  V30 52902 C 5322.86 -2.76389 -4.40347 0
M  V30 52903 C 5320.55 -2.09171 -4.56676 0
M  V30 52904 C 5322.54 -3.99558 -4.96621 0
M  V30 52905 C 5320.23 -3.32599 -5.12661 0
M  V30 52906 C 5321.23 -4.2761 -5.32577 0
M  V30 52907 O 5320.92 -5.48857 -5.87376 0
M  V30 52908 H 5320.65 -0.168889 -0.654563 0
M  V30 52909 H 5323.2 -1.11447 -1.72536 0
M  V30 52910 H 5321.43 0.295495 -3.85569 0
M  V30 52911 H 5323.12 -0.0710729 -4.05838 0
M  V30 52912 H 5323.89 -2.55366 -4.12327 0
M  V30 52913 H 5319.77 -1.36019 -4.40477 0
M  V30 52914 H 5323.31 -4.73727 -5.12082 0
M  V30 52915 H 5319.21 -3.53485 -5.4011 0
M  V30 52916 H 5319.98 -5.50398 -6.05808 0
M  V30 52917 N 5322.64 1.46557 -0.579543 0
M  V30 52918 C 5324.05 1.86079 -0.152117 0
M  V30 52919 C 5324.4 1.48351 1.284 0
M  V30 52920 O 5323.53 0.896919 1.96937 0
M  V30 52921 C 5324.12 3.37728 -0.269289 0
M  V30 52922 C 5322.68 3.76258 0.103244 0
M  V30 52923 C 5321.83 2.70582 -0.606686 0
M  V30 52924 H 5324.78 1.37757 -0.787953 0
M  V30 52925 H 5324.8 3.77118 0.506207 0
M  V30 52926 H 5324.31 3.65157 -1.31461 0
M  V30 52927 H 5322.41 3.54447 1.14882 0
M  V30 52928 H 5322.52 4.78334 -0.270869 0
M  V30 52929 H 5320.89 2.54656 -0.0472879 0
M  V30 52930 H 5321.67 3.00851 -1.6536 0
M  V30 52931 N 5324.12 0.317154 1.54376 0
M  V30 52932 C 5325.34 -0.289486 2.04865 0
M  V30 52933 C 5325.76 -1.4628 1.19364 0
M  V30 52934 O 5325.12 -1.81134 0.222859 0
M  V30 52935 C 5325.17 -0.730148 3.5405 0
M  V30 52936 O 5324.89 0.396478 4.36302 0
M  V30 52937 C 5326.39 -1.40026 4.20604 0
M  V30 52938 H 5323.61 -0.0605601 0.668262 0
M  V30 52939 H 5326.15 0.461481 1.99225 0
M  V30 52940 H 5324.31 -1.4311 3.59997 0
M  V30 52941 H 5324.72 0.0504745 5.24476 0
M  V30 52942 H 5326.2 -1.6596 5.26461 0
M  V30 52943 H 5326.67 -2.34552 3.71325 0
M  V30 52944 H 5327.28 -0.742059 4.18776 0
M  V30 52945 N 5325.59 -1.57535 0.0451932 0
M  V30 52946 C 5327.01 -1.80118 -0.491363 0
M  V30 52947 C 5327.36 -0.956907 -1.71283 0
M  V30 52948 O 5326.48 -0.171805 -2.15717 0
M  V30 52949 C 5327.08 -3.26677 -0.8982 0
M  V30 52950 C 5325.64 -3.50199 -1.37977 0
M  V30 52951 C 5324.78 -2.75055 -0.352106 0
M  V30 52952 H 5327.73 -1.56367 0.271119 0
M  V30 52953 H 5327.75 -3.37269 -1.76152 0
M  V30 52954 H 5327.27 -3.88099 -0.00900456 0
M  V30 52955 H 5325.37 -2.94049 -2.28836 0
M  V30 52956 H 5325.48 -4.58913 -1.37606 0
M  V30 52957 H 5323.84 -2.41013 -0.823699 0
M  V30 52958 H 5324.63 -3.39201 0.528901 0
M  V30 52959 N 5327.07 0.228132 -1.5594 0
M  V30 52960 C 5328.35 0.977433 -1.69427 0
M  V30 52961 C 5328.73 2.02671 -0.59055 0
M  V30 52962 O 5328.08 2.24911 0.403388 0
M  V30 52963 C 5328.29 1.59383 -3.10481 0
M  V30 52964 C 5329.64 2.08858 -3.6968 0
M  V30 52965 O 5330.66 1.69289 -3.134 0
M  V30 52966 O 5329.52 2.81568 -4.68382 0
M  V30 52967 H 5326.61 0.456161 -0.689816 0
M  V30 52968 H 5329.16 0.220433 -1.68262 0
M  V30 52969 H 5327.93 0.835837 -3.82269 0
M  V30 52970 H 5327.55 2.41654 -3.15736 0
M  V30 52971 N 5328.55 1.49639 0.494571 0
M  V30 52972 C 5329.8 1.58695 1.24494 0
M  V30 52973 C 5330.11 0.281831 1.93559 0
M  V30 52974 O 5331.32 0.25102 2.70337 0
M  V30 52975 C 5329.77 2.80028 2.26081 0
M  V30 52976 C 5329.38 4.17324 1.62925 0
M  V30 52977 C 5331.13 2.98418 3.01906 0
M  V30 52978 C 5329.03 5.29871 2.62661 0
M  V30 52979 H 5327.96 0.590904 0.468346 0
M  V30 52980 H 5330.61 1.76035 0.51805 0
M  V30 52981 H 5329 2.56196 3.0196 0
M  V30 52982 H 5330.17 4.51319 0.929949 0
M  V30 52983 H 5328.49 4.04345 0.994677 0
M  V30 52984 H 5331.08 3.79671 3.76502 0
M  V30 52985 H 5331.43 2.09227 3.59902 0
M  V30 52986 H 5331.96 3.2232 2.33141 0
M  V30 52987 H 5328.7 6.21142 2.09436 0
M  V30 52988 H 5328.22 5.00323 3.30813 0
M  V30 52989 H 5329.9 5.59473 3.24961 0
M  V30 52990 N 5330.03 -0.746085 1.38821 0
M  V30 52991 C 5331.25 -1.54044 1.38871 0
M  V30 52992 C 5331.68 -1.88092 -0.0175962 0
M  V30 52993 O 5331.04 -1.51116 -1.00167 0
M  V30 52994 C 5331.08 -2.81152 2.25801 0
M  V30 52995 O 5330.19 -3.76618 1.68027 0
M  V30 52996 H 5329.53 -0.465631 0.473375 0
M  V30 52997 H 5332.06 -0.921405 1.82678 0
M  V30 52998 H 5332.07 -3.30001 2.39924 0
M  V30 52999 H 5330.74 -2.55701 3.28008 0
M  V30 53000 H 5329.32 -3.35347 1.63086 0
M  V30 53001 N 5331.51 -1.23814 -0.975081 0
M  V30 53002 C 5332.75 -1.08508 -1.72039 0
M  V30 53003 C 5333.11 0.37337 -1.88742 0
M  V30 53004 O 5332.4 1.27243 -1.43247 0
M  V30 53005 C 5332.59 -1.75005 -3.11622 0
M  V30 53006 C 5332.42 -3.27166 -3.08533 0
M  V30 53007 C 5331.19 -3.96349 -3.13426 0
M  V30 53008 C 5333.39 -4.23861 -2.91284 0
M  V30 53009 N 5331.37 -5.35449 -3.00278 0
M  V30 53010 C 5332.74 -5.4991 -2.86355 0
M  V30 53011 C 5334.8 -4.14528 -2.75809 0
M  V30 53012 C 5333.5 -6.67696 -2.67534 0
M  V30 53013 C 5335.53 -5.31984 -2.58354 0
M  V30 53014 C 5334.89 -6.56962 -2.54127 0
M  V30 53015 H 5330.99 -0.451629 -0.6384 0
M  V30 53016 H 5333.57 -1.56621 -1.15663 0
M  V30 53017 H 5331.74 -1.29417 -3.66205 0
M  V30 53018 H 5333.48 -1.52627 -3.74816 0
M  V30 53019 H 5330.23 -3.47464 -3.21816 0
M  V30 53020 H 5330.66 -6.08392 -2.96965 0
M  V30 53021 H 5335.3 -3.18672 -2.77863 0
M  V30 53022 H 5333.02 -7.63683 -2.64224 0
M  V30 53023 H 5336.6 -5.26609 -2.47335 0
M  V30 53024 H 5335.48 -7.46317 -2.40791 0
M  V30 53025 N 5332.98 1.17465 -1.0507 0
M  V30 53026 C 5334.21 1.92159 -0.780366 0
M  V30 53027 C 5334.63 1.76224 0.65777 0
M  V30 53028 O 5333.99 1.07916 1.45684 0
M  V30 53029 C 5334.04 3.41288 -1.16426 0
M  V30 53030 O 5333.14 4.11339 -0.295675 0
M  V30 53031 H 5332.49 0.599117 -0.286278 0
M  V30 53032 H 5335.02 1.48898 -1.40323 0
M  V30 53033 H 5335.03 3.92025 -1.1305 0
M  V30 53034 H 5333.7 3.52206 -2.21187 0
M  V30 53035 H 5332.28 3.70856 -0.389928 0
M  V30 53036 N 5334.46 0.831553 1.33877 0
M  V30 53037 C 5335.41 0.25753 2.29359 0
M  V30 53038 C 5336.38 -0.62255 1.53992 0
M  V30 53039 O 5337.56 -0.562368 1.82324 0
M  V30 53040 C 5334.7 -0.567468 3.40402 0
M  V30 53041 C 5333.82 0.335818 4.30693 0
M  V30 53042 C 5332.95 -0.499576 5.28846 0
M  V30 53043 C 5331.99 0.402557 6.10775 0
M  V30 53044 N 5331.13 -0.394274 7.00992 0
M  V30 53045 H 5335.97 1.0771 2.77854 0
M  V30 53046 H 5333.51 0.542637 1.36726 0
M  V30 53047 H 5335.46 -1.06119 4.03478 0
M  V30 53048 H 5334.09 -1.35207 2.93119 0
M  V30 53049 H 5333.15 0.947809 3.68403 0
M  V30 53050 H 5334.46 1.02913 4.88068 0
M  V30 53051 H 5333.61 -1.05742 5.97414 0
M  V30 53052 H 5332.35 -1.22636 4.72029 0
M  V30 53053 H 5331.36 0.972478 5.41131 0
M  V30 53054 H 5332.58 1.12759 6.69673 0
M  V30 53055 H 5330.53 -1.10457 6.46634 0
M  V30 53056 H 5330.44 0.240474 7.55617 0
M  V30 53057 H 5331.71 -0.934595 7.73877 0
M  V30 53058 N 5335.94 -1.46248 0.587307 0
M  V30 53059 C 5336.87 -2.33132 -0.130994 0
M  V30 53060 C 5337.85 -1.45622 -0.879107 0
M  V30 53061 O 5339.04 -1.74431 -0.853662 0
M  V30 53062 C 5336.17 -3.27979 -1.14224 0
M  V30 53063 C 5335.12 -4.24967 -0.508669 0
M  V30 53064 C 5334.45 -5.09355 -1.62672 0
M  V30 53065 C 5335.75 -5.1932 0.557122 0
M  V30 53066 H 5337.44 -2.9344 0.594436 0
M  V30 53067 H 5334.99 -1.41105 0.287312 0
M  V30 53068 H 5336.94 -3.8762 -1.65315 0
M  V30 53069 H 5335.66 -2.65788 -1.89801 0
M  V30 53070 H 5334.32 -3.66595 -0.0188049 0
M  V30 53071 H 5333.97 -4.43546 -2.37226 0
M  V30 53072 H 5333.67 -5.7504 -1.20841 0
M  V30 53073 H 5335.2 -5.7186 -2.14029 0
M  V30 53074 H 5336.61 -5.7315 0.131105 0
M  V30 53075 H 5335.01 -5.93373 0.89601 0
M  V30 53076 H 5336.08 -4.62974 1.44164 0
M  V30 53077 N 5337.42 -0.325336 -1.54205 0
M  V30 53078 C 5338.7 0.331062 -1.92778 0
M  V30 53079 C 5339.08 1.69735 -1.25512 0
M  V30 53080 O 5338.42 2.24981 -0.399464 0
M  V30 53081 C 5338.63 0.421514 -3.46445 0
M  V30 53082 C 5339.98 0.680963 -4.19104 0
M  V30 53083 O 5341.01 0.504364 -3.52611 0
M  V30 53084 O 5339.87 1.02177 -5.36863 0
M  V30 53085 H 5336.96 0.189401 -0.805019 0
M  V30 53086 H 5339.51 -0.375181 -1.65501 0
M  V30 53087 H 5338.28 -0.537998 -3.87584 0
M  V30 53088 H 5337.9 1.17527 -3.79833 0
M  V30 53089 N 5338.9 1.57509 -0.0535471 0
M  V30 53090 C 5340.15 1.92404 0.61848 0
M  V30 53091 C 5340.47 0.93279 1.71243 0
M  V30 53092 O 5339.74 -0.0219806 1.95888 0
M  V30 53093 H 5338.32 0.710241 0.231445 0
M  V30 53094 H 5340.98 1.94605 -0.107108 0
M  V30 53095 H 5340.07 2.93708 1.05556 0
M  V30 53096 N 5340.38 -0.219858 1.56059 0
M  V30 53097 C 5341.6 -0.965008 1.83582 0
M  V30 53098 C 5342.03 -1.7709 0.634087 0
M  V30 53099 O 5341.38 -1.76436 -0.417143 0
M  V30 53100 C 5341.43 -1.85694 3.09112 0
M  V30 53101 O 5340.54 -2.95251 2.87925 0
M  V30 53102 H 5339.88 -0.273152 0.605214 0
M  V30 53103 H 5342.41 -0.232659 2.03273 0
M  V30 53104 H 5342.42 -2.26643 3.3926 0
M  V30 53105 H 5341.09 -1.26462 3.96207 0
M  V30 53106 H 5339.67 -2.58236 2.69014 0
M  V30 53107 N 5341.85 -1.49899 -0.486629 0
M  V30 53108 C 5342.78 -1.70546 -1.59488 0
M  V30 53109 C 5343.76 -0.554241 -1.60817 0
M  V30 53110 O 5344.95 -0.791679 -1.7733 0
M  V30 53111 C 5342.08 -1.78527 -2.97901 0
M  V30 53112 C 5341.03 -2.93581 -3.11438 0
M  V30 53113 C 5340.36 -2.8669 -4.51346 0
M  V30 53114 C 5341.66 -4.34318 -2.90112 0
M  V30 53115 H 5343.35 -2.63334 -1.42463 0
M  V30 53116 H 5340.9 -1.26722 -0.683924 0
M  V30 53117 H 5342.85 -1.91557 -3.75345 0
M  V30 53118 H 5341.58 -0.823492 -3.16048 0
M  V30 53119 H 5340.24 -2.80177 -2.36424 0
M  V30 53120 H 5339.88 -1.8839 -4.66389 0
M  V30 53121 H 5339.58 -3.6392 -4.61342 0
M  V30 53122 H 5341.11 -3.01747 -5.30831 0
M  V30 53123 H 5342.52 -4.48329 -3.57315 0
M  V30 53124 H 5340.92 -5.1288 -3.11567 0
M  V30 53125 H 5341.99 -4.47765 -1.86103 0
M  V30 53126 N 5343.33 0.738712 -1.39215 0
M  V30 53127 C 5344.74 1.3168 -1.32353 0
M  V30 53128 C 5345.09 1.96195 0.0138351 0
M  V30 53129 O 5344.22 1.96059 0.915956 0
M  V30 53130 C 5344.81 2.39436 -2.397 0
M  V30 53131 C 5343.37 2.92927 -2.3637 0
M  V30 53132 C 5342.52 1.66457 -2.21782 0
M  V30 53133 H 5345.47 0.536491 -1.49357 0
M  V30 53134 H 5345.49 3.19737 -2.06274 0
M  V30 53135 H 5345 1.92451 -3.37023 0
M  V30 53136 H 5343.1 3.44202 -1.42674 0
M  V30 53137 H 5343.22 3.46294 -3.31085 0
M  V30 53138 H 5341.58 1.90652 -1.68891 0
M  V30 53139 H 5342.36 1.21529 -3.21069 0
M  V30 53140 N 5344.81 1.24329 0.968501 0
M  V30 53141 C 5346.22 1.07566 1.52599 0
M  V30 53142 C 5346.57 -0.353177 1.92995 0
M  V30 53143 O 5345.7 -1.24145 1.77248 0
M  V30 53144 C 5346.29 1.94644 2.77307 0
M  V30 53145 C 5344.85 1.82107 3.29415 0
M  V30 53146 C 5344 1.89627 2.02328 0
M  V30 53147 H 5346.95 1.37818 0.786884 0
M  V30 53148 H 5346.97 1.47825 3.50611 0
M  V30 53149 H 5346.48 2.9863 2.47875 0
M  V30 53150 H 5344.58 0.809504 3.637 0
M  V30 53151 H 5344.7 2.66156 3.98369 0
M  V30 53152 H 5343.06 1.33347 2.17004 0
M  V30 53153 H 5343.84 2.95192 1.75262 0
M  V30 53154 N 5346.29 -1.16906 1.05692 0
M  V30 53155 C 5347.56 -1.83263 0.683665 0
M  V30 53156 C 5347.94 -1.93861 -0.835534 0
M  V30 53157 O 5347.29 -1.47703 -1.74345 0
M  V30 53158 C 5347.5 -3.20621 1.37853 0
M  V30 53159 C 5348.85 -3.96468 1.51981 0
M  V30 53160 O 5349.87 -3.30117 1.33794 0
M  V30 53161 O 5348.73 -5.15386 1.81767 0
M  V30 53162 H 5345.83 -0.79102 0.241281 0
M  V30 53163 H 5348.37 -1.24161 1.15682 0
M  V30 53164 H 5347.15 -3.07906 2.41474 0
M  V30 53165 H 5346.77 -3.87394 0.895057 0
M  V30 53166 N 5347.77 -0.838641 -1.33434 0
M  V30 53167 C 5348.99 -0.446772 -2.02531 0
M  V30 53168 C 5349.42 0.944218 -1.62684 0
M  V30 53169 O 5348.77 1.6173 -0.819326 0
M  V30 53170 C 5348.82 -0.574919 -3.55987 0
M  V30 53171 O 5347.93 0.398919 -4.10466 0
M  V30 53172 H 5347.27 -0.18166 -0.638667 0
M  V30 53173 H 5349.8 -1.13341 -1.70338 0
M  V30 53174 H 5349.81 -0.456481 -4.05438 0
M  V30 53175 H 5348.48 -1.58935 -3.84334 0
M  V30 53176 H 5347.06 0.238056 -3.72139 0
M  V30 53177 N 5349.24 1.45934 -0.595055 0
M  V30 53178 C 5350.66 1.57506 -0.257696 0
M  V30 53179 C 5350.86 1.58834 1.23992 0
M  V30 53180 O 5349.92 1.51191 2.02232 0
M  V30 53181 C 5351.23 2.86351 -0.917809 0
M  V30 53182 C 5352.78 3.00004 -0.892552 0
M  V30 53183 C 5353.25 4.31602 -1.53244 0
M  V30 53184 N 5354.74 4.38331 -1.49735 0
M  V30 53185 C 5355.48 5.38799 -1.96172 0
M  V30 53186 N 5354.97 6.45873 -2.50639 0
M  V30 53187 N 5356.77 5.30077 -1.87015 0
M  V30 53188 H 5348.92 1.43316 -1.56762 0
M  V30 53189 H 5351.18 0.684413 -0.65596 0
M  V30 53190 H 5350.89 2.91226 -1.97182 0
M  V30 53191 H 5350.76 3.74701 -0.433475 0
M  V30 53192 H 5353.15 2.94704 0.152871 0
M  V30 53193 H 5353.23 2.13098 -1.41503 0
M  V30 53194 H 5352.87 4.37661 -2.57712 0
M  V30 53195 H 5352.8 5.17304 -0.985085 0
M  V30 53196 H 5355.29 3.61556 -1.09933 0
M  V30 53197 H 5355.61 7.18764 -2.83899 0
M  V30 53198 H 5353.95 6.46659 -2.54672 0
M  V30 53199 H 5357.14 4.45332 -1.44212 0
M  V30 53200 H 5357.32 6.08229 -2.2352 0
M  V30 53201 N 5350.72 0.33351 1.54031 0
M  V30 53202 C 5351.65 -0.52043 2.27626 0
M  V30 53203 C 5352.63 -1.11105 1.28801 0
M  V30 53204 O 5353.82 -1.13432 1.57629 0
M  V30 53205 C 5350.95 -1.67652 3.04155 0
M  V30 53206 C 5349.9 -1.21473 4.104 0
M  V30 53207 C 5349.23 -2.45855 4.74826 0
M  V30 53208 C 5350.53 -0.322419 5.21304 0
M  V30 53209 H 5352.22 0.0934875 2.99254 0
M  V30 53210 H 5349.77 0.0464032 1.43925 0
M  V30 53211 H 5351.72 -2.28029 3.54374 0
M  V30 53212 H 5350.45 -2.31718 2.30161 0
M  V30 53213 H 5349.1 -0.633839 3.61079 0
M  V30 53214 H 5348.75 -3.08306 3.97437 0
M  V30 53215 H 5348.45 -2.15643 5.466 0
M  V30 53216 H 5349.98 -3.06975 5.27824 0
M  V30 53217 H 5351.39 -0.832743 5.6722 0
M  V30 53218 H 5349.79 -0.112632 5.99994 0
M  V30 53219 H 5350.86 0.644123 4.80603 0
M  V30 53220 N 5352.2 -1.57478 0.0618994 0
M  V30 53221 C 5353.11 -2.15648 -0.923751 0
M  V30 53222 C 5354.13 -1.11705 -1.33409 0
M  V30 53223 O 5355.3 -1.43925 -1.40882 0
M  V30 53224 C 5352.37 -2.69865 -2.17656 0
M  V30 53225 C 5351.43 -3.88645 -1.82356 0
M  V30 53226 C 5350.66 -4.40266 -3.01664 0
M  V30 53227 O 5350.88 -3.90923 -4.15374 0
M  V30 53228 O 5349.82 -5.31722 -2.82055 0
M  V30 53229 H 5353.64 -3.00212 -0.458989 0
M  V30 53230 H 5351.23 -1.48534 -0.160613 0
M  V30 53231 H 5353.11 -3.04657 -2.91139 0
M  V30 53232 H 5351.79 -1.88366 -2.63249 0
M  V30 53233 H 5350.69 -3.58723 -1.06155 0
M  V30 53234 H 5352.03 -4.71406 -1.41554 0
M  V30 53235 N 5353.68 0.211579 -1.56173 0
M  V30 53236 C 5354.63 1.28181 -1.94094 0
M  V30 53237 C 5355.62 1.47997 -0.82422 0
M  V30 53238 O 5356.83 1.49053 -1.00912 0
M  V30 53239 H 5353.2 0.429968 -0.616953 0
M  V30 53240 H 5355.17 0.934863 -2.83378 0
M  V30 53241 C 5353.92 2.62286 -2.28257 0
M  V30 53242 H 5353.24 2.47849 -3.13705 0
M  V30 53243 H 5354.68 3.35958 -2.58666 0
M  V30 53244 C 5353.14 3.18045 -1.11125 0
M  V30 53245 O 5353.67 3.99921 -0.377598 0
M  V30 53246 N 5351.88 2.76558 -0.892418 0
M  V30 53247 H 5351.43 2.10082 -1.49074 0
M  V30 53248 H 5351.38 3.14206 -0.110454 0
M  V30 53249 N 5355.16 1.50155 0.478672 0
M  V30 53250 C 5356.1 1.68981 1.59838 0
M  V30 53251 C 5357.1 0.555647 1.60028 0
M  V30 53252 O 5358.3 0.735933 1.64268 0
M  V30 53253 H 5354.68 0.53323 0.530255 0
M  V30 53254 H 5356.65 2.62922 1.41119 0
M  V30 53255 C 5355.4 1.79419 2.97832 0
M  V30 53256 H 5354.72 2.66076 2.98401 0
M  V30 53257 H 5356.16 1.9662 3.75655 0
M  V30 53258 C 5354.62 0.544043 3.32478 0
M  V30 53259 O 5355.15 -0.320235 4.00422 0
M  V30 53260 N 5353.36 0.400319 2.87829 0
M  V30 53261 H 5352.9 1.10466 2.32712 0
M  V30 53262 H 5352.86 -0.435002 3.11376 0
M  V30 53263 N 5356.63 -0.731319 1.39605 0
M  V30 53264 C 5357.57 -1.85428 1.3301 0
M  V30 53265 C 5358.55 -1.61326 0.203127 0
M  V30 53266 O 5359.73 -1.84543 0.384189 0
M  V30 53267 C 5356.86 -3.21479 1.06625 0
M  V30 53268 C 5355.9 -3.64435 2.21562 0
M  V30 53269 S 5356.74 -3.73374 3.83865 0
M  V30 53270 C 5357.89 -5.12209 3.59712 0
M  V30 53271 H 5358.12 -1.90739 2.28048 0
M  V30 53272 H 5355.66 -0.896546 1.25704 0
M  V30 53273 H 5357.62 -4.00038 0.92086 0
M  V30 53274 H 5356.28 -3.1382 0.132673 0
M  V30 53275 H 5355.47 -4.63178 1.98702 0
M  V30 53276 H 5355.07 -2.93091 2.32323 0
M  V30 53277 H 5357.36 -5.98655 3.17205 0
M  V30 53278 H 5358.31 -5.40099 4.57929 0
M  V30 53279 H 5358.71 -4.82059 2.93733 0
M  V30 53280 N 5358.11 -1.24841 -0.961894 0
M  V30 53281 C 5359.04 -1.0706 -2.0751 0
M  V30 53282 C 5360.02 0.0181867 -1.7009 0
M  V30 53283 O 5361.21 -0.149983 -1.9362 0
M  V30 53284 C 5358.34 -0.680813 -3.40562 0
M  V30 53285 C 5357.29 -1.71902 -3.91961 0
M  V30 53286 C 5356.62 -1.18413 -5.21424 0
M  V30 53287 C 5357.92 -3.11625 -4.1915 0
M  V30 53288 H 5359.61 -2.00175 -2.22644 0
M  V30 53289 H 5357.16 -0.963837 -1.06987 0
M  V30 53290 H 5359.11 -0.543387 -4.17882 0
M  V30 53291 H 5357.84 0.286035 -3.25345 0
M  V30 53292 H 5356.49 -1.84476 -3.16803 0
M  V30 53293 H 5356.14 -0.20772 -5.02571 0
M  V30 53294 H 5355.84 -1.87797 -5.56782 0
M  V30 53295 H 5357.37 -1.05894 -6.01347 0
M  V30 53296 H 5358.78 -3.02247 -4.87155 0
M  V30 53297 H 5357.18 -3.78415 -4.65749 0
M  V30 53298 H 5358.25 -3.59229 -3.25703 0
M  V30 53299 N 5359.59 1.16344 -1.0631 0
M  V30 53300 C 5360.52 2.19665 -0.618274 0
M  V30 53301 C 5361.5 1.58587 0.359022 0
M  V30 53302 O 5362.69 1.86586 0.267957 0
M  V30 53303 C 5359.81 3.38571 0.0935901 0
M  V30 53304 C 5358.86 4.18136 -0.840486 0
M  V30 53305 S 5359.69 4.81871 -2.33582 0
M  V30 53306 C 5360.85 6.04155 -1.63545 0
M  V30 53307 H 5361.08 2.57057 -1.49361 0
M  V30 53308 H 5358.61 1.27138 -0.87609 0
M  V30 53309 H 5360.57 4.07467 0.498084 0
M  V30 53310 H 5359.23 2.99543 0.945125 0
M  V30 53311 H 5358.43 5.03171 -0.288958 0
M  V30 53312 H 5358.03 3.54735 -1.18487 0
M  V30 53313 H 5360.32 6.70931 -0.94114 0
M  V30 53314 H 5361.26 6.63858 -2.46371 0
M  V30 53315 H 5361.67 5.53319 -1.11797 0
M  V30 53316 N 5361.07 0.845705 1.32987 0
M  V30 53317 C 5362 0.299039 2.31577 0
M  V30 53318 C 5362.98 -0.596956 1.59281 0
M  V30 53319 O 5364.16 -0.519077 1.87134 0
M  V30 53320 C 5361.29 -0.520988 3.4337 0
M  V30 53321 C 5360.25 0.279801 4.27084 0
M  V30 53322 C 5359.57 -0.664404 5.30556 0
M  V30 53323 C 5360.87 1.50064 5.00278 0
M  V30 53324 H 5362.57 1.12282 2.77549 0
M  V30 53325 H 5360.11 0.541367 1.33436 0
M  V30 53326 H 5362.07 -0.913776 4.11373 0
M  V30 53327 H 5360.79 -1.37804 2.96104 0
M  V30 53328 H 5359.45 0.654233 3.60715 0
M  V30 53329 H 5359.1 -1.51805 4.79546 0
M  V30 53330 H 5358.8 -0.132665 5.8745 0
M  V30 53331 H 5360.32 -1.05456 6.01424 0
M  V30 53332 H 5361.74 1.18063 5.61012 0
M  V30 53333 H 5360.13 1.96966 5.66855 0
M  V30 53334 H 5361.2 2.26674 4.28657 0
M  V30 53335 N 5362.55 -1.45617 0.602786 0
M  V30 53336 C 5363.96 -1.85814 0.181701 0
M  V30 53337 C 5364.31 -1.50375 -1.26023 0
M  V30 53338 O 5363.43 -0.928137 -1.95485 0
M  V30 53339 C 5364.03 -3.37257 0.322985 0
M  V30 53340 C 5362.59 -3.76375 -0.0433717 0
M  V30 53341 C 5361.73 -2.69583 0.649656 0
M  V30 53342 H 5364.69 -1.36486 0.809769 0
M  V30 53343 H 5364.71 -3.77875 -0.446146 0
M  V30 53344 H 5364.22 -3.63019 1.37254 0
M  V30 53345 H 5362.32 -3.5623 -1.09229 0
M  V30 53346 H 5362.43 -4.77842 0.346933 0
M  V30 53347 H 5360.8 -2.54549 0.0877955 0
M  V30 53348 H 5361.58 -2.98182 1.70125 0
M  V30 53349 N 5364.02 -0.341674 -1.53852 0
M  V30 53350 C 5365.25 0.259536 -2.0577 0
M  V30 53351 C 5365.67 1.43584 -1.21512 0
M  V30 53352 O 5365.03 1.79855 -0.228427 0
M  V30 53353 C 5365.08 0.65433 -3.54614 0
M  V30 53354 O 5364.18 1.75458 -3.73213 0
M  V30 53355 H 5363.53 0.0434388 -0.662578 0
M  V30 53356 H 5366.06 -0.495344 -1.98513 0
M  V30 53357 H 5366.07 0.932002 -3.97212 0
M  V30 53358 H 5364.74 -0.205925 -4.1539 0
M  V30 53359 H 5363.32 1.47432 -3.42517 0
M  V30 53360 N 5365.5 1.57443 -0.07025 0
M  V30 53361 C 5366.75 1.93718 0.60011 0
M  V30 53362 C 5367.08 0.950388 1.69355 0
M  V30 53363 O 5366.36 -0.0206439 1.94489 0
M  V30 53364 C 5366.64 3.4027 1.17849 0
M  V30 53365 C 5366.49 4.49706 0.0917994 0
M  V30 53366 C 5367.81 3.87606 2.08446 0
M  V30 53367 H 5364.93 0.704428 0.216679 0
M  V30 53368 H 5367.57 1.89513 -0.135904 0
M  V30 53369 H 5365.72 3.43984 1.80575 0
M  V30 53370 H 5367.4 4.58114 -0.541192 0
M  V30 53371 H 5365.64 4.29935 -0.57779 0
M  V30 53372 H 5366.31 5.49383 0.536855 0
M  V30 53373 H 5368.79 3.85889 1.55657 0
M  V30 53374 H 5367.66 4.90764 2.4585 0
M  V30 53375 H 5367.92 3.25458 2.99214 0
M  V30 53376 N 5366.98 -0.203294 1.56283 0
M  V30 53377 C 5368.4 -0.553787 1.49684 0
M  V30 53378 C 5368.6 -1.86258 0.768767 0
M  V30 53379 O 5367.65 -2.50516 0.315912 0
M  V30 53380 C 5368.97 -0.616112 2.9432 0
M  V30 53381 C 5370.51 -0.705503 3.04945 0
M  V30 53382 C 5370.99 -0.799012 4.50976 0
M  V30 53383 N 5372.48 -0.862756 4.55094 0
M  V30 53384 C 5373.22 -0.955135 5.65389 0
M  V30 53385 N 5372.71 -1.01032 6.85394 0
M  V30 53386 N 5374.5 -0.991689 5.53283 0
M  V30 53387 H 5366.66 0.655315 2.02038 0
M  V30 53388 H 5368.92 0.232376 0.919079 0
M  V30 53389 H 5368.62 0.276313 3.50613 0
M  V30 53390 H 5368.5 -1.47359 3.47225 0
M  V30 53391 H 5370.89 -1.58836 2.48707 0
M  V30 53392 H 5370.97 0.17801 2.5518 0
M  V30 53393 H 5370.61 0.0794626 5.07838 0
M  V30 53394 H 5370.54 -1.69821 4.98466 0
M  V30 53395 H 5373.03 -0.829683 3.6868 0
M  V30 53396 H 5373.34 -1.0811 7.65201 0
M  V30 53397 H 5371.69 -0.979142 6.88068 0
M  V30 53398 H 5374.88 -0.945353 4.58455 0
M  V30 53399 H 5375.05 -1.06023 6.39268 0
M  V30 53400 N 5368.46 -1.50407 -0.470702 0
M  V30 53401 C 5369.87 -1.54269 -1.05156 0
M  V30 53402 C 5370.22 -0.346427 -1.93117 0
M  V30 53403 O 5369.35 0.540625 -2.09538 0
M  V30 53404 C 5369.94 -2.79567 -1.91384 0
M  V30 53405 C 5368.5 -2.86109 -2.44578 0
M  V30 53406 C 5367.65 -2.48562 -1.22932 0
M  V30 53407 H 5370.6 -1.56665 -0.253304 0
M  V30 53408 H 5370.62 -2.61444 -2.76455 0
M  V30 53409 H 5370.13 -3.66615 -1.27338 0
M  V30 53410 H 5368.23 -2.03413 -3.12176 0
M  V30 53411 H 5368.35 -3.89009 -2.79658 0
M  V30 53412 H 5366.71 -2.01008 -1.56422 0
M  V30 53413 H 5367.49 -3.37918 -0.605479 0
M  V30 53414 N 5369.94 0.723905 -1.39991 0
M  V30 53415 C 5370.87 1.84854 -1.35505 0
M  V30 53416 C 5371.88 1.6068 -0.261869 0
M  V30 53417 O 5373.07 1.70708 -0.521626 0
M  V30 53418 C 5370.17 3.21099 -1.08392 0
M  V30 53419 C 5369.34 3.72538 -2.29203 0
M  V30 53420 C 5368.4 4.87373 -1.98377 0
M  V30 53421 O 5367.43 5.00457 -2.71167 0
M  V30 53422 N 5368.63 5.72563 -0.956662 0
M  V30 53423 H 5371.4 1.89204 -2.32426 0
M  V30 53424 H 5368.96 0.905104 -1.34237 0
M  V30 53425 H 5370.95 3.95507 -0.857703 0
M  V30 53426 H 5369.52 3.11949 -0.201659 0
M  V30 53427 H 5368.74 2.89356 -2.67707 0
M  V30 53428 H 5370.03 4.03641 -3.09761 0
M  V30 53429 H 5369.43 5.64594 -0.353643 0
M  V30 53430 H 5367.98 6.46991 -0.790345 0
M  V30 53431 N 5371.42 1.2535 0.95526 0
M  V30 53432 C 5372.69 1.00835 1.67606 0
M  V30 53433 C 5373.07 -0.465602 2.05901 0
M  V30 53434 O 5372.42 -1.4428 1.77187 0
M  V30 53435 C 5372.63 1.94347 2.8988 0
M  V30 53436 C 5373.98 2.22154 3.61846 0
M  V30 53437 O 5375 1.921 2.9996 0
M  V30 53438 O 5373.86 2.73256 4.73279 0
M  V30 53439 H 5370.96 0.38234 0.733311 0
M  V30 53440 H 5373.5 1.36501 1.00824 0
M  V30 53441 H 5372.27 2.93876 2.58366 0
M  V30 53442 H 5371.9 1.59074 3.64391 0
M  V30 53443 N 5372.89 -1.15778 1.06926 0
M  V30 53444 C 5373.86 -2.18576 0.689731 0
M  V30 53445 C 5374.86 -1.58554 -0.267817 0
M  V30 53446 O 5376.05 -1.7413 -0.0493484 0
M  V30 53447 C 5373.18 -3.40896 0.0159118 0
M  V30 53448 H 5374.37 -2.53666 1.5998 0
M  V30 53449 H 5371.92 -1.30165 0.865259 0
M  V30 53450 H 5372.66 -3.1137 -0.906602 0
M  V30 53451 H 5372.44 -3.85718 0.70455 0
M  V30 53452 H 5373.93 -4.16938 -0.23512 0
M  V30 53453 N 5374.37 -0.852746 -1.32537 0
M  V30 53454 C 5375.62 -0.454294 -1.96928 0
M  V30 53455 C 5375.94 0.992975 -1.67824 0
M  V30 53456 O 5375.21 1.69367 -0.984452 0
M  V30 53457 H 5373.79 -0.165003 -0.728549 0
M  V30 53458 H 5376.45 -1.08876 -1.61654 0
M  V30 53459 H 5375.55 -0.597775 -3.06322 0
M  V30 53460 N 5375.85 1.45295 -0.6105 0
M  V30 53461 C 5377.08 2.0659 -0.113284 0
M  V30 53462 C 5377.49 1.45465 1.20356 0
M  V30 53463 O 5376.85 0.569884 1.73374 0
M  V30 53464 C 5376.9 3.61488 0.0297141 0
M  V30 53465 O 5376.62 4.20332 -1.23503 0
M  V30 53466 C 5378.12 4.39773 0.558048 0
M  V30 53467 H 5375.34 0.66732 -0.070179 0
M  V30 53468 H 5377.89 1.86494 -0.839058 0
M  V30 53469 H 5376.04 3.80916 0.705829 0
M  V30 53470 H 5376.46 5.13541 -1.06658 0
M  V30 53471 H 5377.93 5.4865 0.607182 0
M  V30 53472 H 5378.41 4.0976 1.58092 0
M  V30 53473 H 5379.01 4.25217 -0.0841199 0
M  V30 53474 N 5377.33 0.349828 1.53668 0
M  V30 53475 C 5378.56 -0.245609 2.05135 0
M  V30 53476 C 5378.97 -1.44264 1.22411 0
M  V30 53477 O 5378.31 -1.81938 0.253854 0
M  V30 53478 C 5378.37 -0.718315 3.52251 0
M  V30 53479 C 5378.03 0.35991 4.55581 0
M  V30 53480 C 5379.03 1.20467 5.05751 0
M  V30 53481 C 5376.72 0.515638 4.99646 0
M  V30 53482 C 5378.71 2.19064 5.98573 0
M  V30 53483 C 5376.4 1.505 5.92278 0
M  V30 53484 C 5377.4 2.34094 6.4163 0
M  V30 53485 O 5377.08 3.31345 7.32438 0
M  V30 53486 H 5376.82 -0.0500885 0.674142 0
M  V30 53487 H 5379.37 0.50187 1.99174 0
M  V30 53488 H 5377.6 -1.51714 3.55696 0
M  V30 53489 H 5379.29 -1.235 3.86656 0
M  V30 53490 H 5380.05 1.09547 4.72466 0
M  V30 53491 H 5375.93 -0.125208 4.6083 0
M  V30 53492 H 5379.48 2.8435 6.37017 0
M  V30 53493 H 5375.37 1.61473 6.24977 0
M  V30 53494 H 5376.14 3.2689 7.5039 0
M  V30 53495 N 5378.81 -1.57404 0.0785986 0
M  V30 53496 C 5380.05 -1.94033 -0.589828 0
M  V30 53497 C 5380.38 -0.959356 -1.68849 0
M  V30 53498 O 5379.66 0.0103294 -1.94497 0
M  V30 53499 C 5379.94 -3.4089 -1.16043 0
M  V30 53500 C 5379.8 -4.49749 -0.0679491 0
M  V30 53501 C 5381.11 -3.88706 -2.06387 0
M  V30 53502 H 5378.23 -0.705568 -0.21294 0
M  V30 53503 H 5380.88 -1.89439 0.145953 0
M  V30 53504 H 5379.03 -3.44936 -1.78749 0
M  V30 53505 H 5380.7 -4.57821 0.565479 0
M  V30 53506 H 5378.94 -4.29622 0.600582 0
M  V30 53507 H 5379.61 -5.4966 -0.507713 0
M  V30 53508 H 5382.09 -3.86709 -1.53608 0
M  V30 53509 H 5380.96 -4.92061 -2.43244 0
M  V30 53510 H 5381.22 -3.27041 -2.97484 0
M  V30 53511 N 5380.28 0.195003 -1.56389 0
M  V30 53512 C 5381.52 0.922146 -1.82417 0
M  V30 53513 C 5381.89 1.80442 -0.656101 0
M  V30 53514 O 5383.09 2.56735 -0.796273 0
M  V30 53515 C 5381.36 1.71676 -3.13468 0
M  V30 53516 S 5382.92 2.49591 -3.60901 0
M  V30 53517 H 5379.74 0.309293 -0.640202 0
M  V30 53518 H 5382.34 0.185545 -1.94618 0
M  V30 53519 H 5381.04 1.05923 -3.96495 0
M  V30 53520 H 5380.57 2.49518 -3.04145 0
M  V30 53521 H 5382.59 3.73783 -3.26345 0
M  V30 53522 N 5381.76 1.50654 0.462719 0
M  V30 53523 C 5382.99 1.65831 1.23725 0
M  V30 53524 C 5383.41 0.345067 1.8562 0
M  V30 53525 O 5382.76 -0.673875 1.69603 0
M  V30 53526 C 5382.81 2.75558 2.33987 0
M  V30 53527 O 5382.53 4.01792 1.74629 0
M  V30 53528 C 5384.04 3.01782 3.24719 0
M  V30 53529 H 5381.26 0.55719 0.373873 0
M  V30 53530 H 5383.8 1.96927 0.551365 0
M  V30 53531 H 5381.95 2.47132 2.98336 0
M  V30 53532 H 5382.37 4.62538 2.47303 0
M  V30 53533 H 5383.84 3.82202 3.98279 0
M  V30 53534 H 5384.32 2.1318 3.83993 0
M  V30 53535 H 5384.93 3.3177 2.66099 0
M  V30 53536 N 5383.24 -0.716471 1.40373 0
M  V30 53537 C 5384.2 -1.81227 1.4032 0
M  V30 53538 C 5385.2 -1.58031 0.297142 0
M  V30 53539 O 5386.39 -1.65089 0.556002 0
M  V30 53540 C 5383.53 -3.19304 1.19407 0
M  V30 53541 H 5384.72 -1.82672 2.37846 0
M  V30 53542 H 5382.27 -0.922018 1.26208 0
M  V30 53543 H 5383.01 -3.23509 0.226366 0
M  V30 53544 H 5382.79 -3.37539 1.99523 0
M  V30 53545 H 5384.28 -3.99334 1.22155 0
M  V30 53546 N 5384.72 -1.25855 -0.948599 0
M  V30 53547 C 5385.95 -1.13717 -1.72847 0
M  V30 53548 C 5386.36 0.308405 -1.86264 0
M  V30 53549 O 5385.72 1.2117 -1.3647 0
M  V30 53550 C 5385.77 -1.79282 -3.13911 0
M  V30 53551 O 5385.49 -3.18189 -3.01143 0
M  V30 53552 C 5386.99 -1.73002 -4.08148 0
M  V30 53553 H 5384.21 -0.396353 -0.541429 0
M  V30 53554 H 5386.76 -1.66333 -1.18968 0
M  V30 53555 H 5384.91 -1.30622 -3.64715 0
M  V30 53556 H 5385.32 -3.50521 -3.90174 0
M  V30 53557 H 5386.8 -2.23528 -5.04717 0
M  V30 53558 H 5387.28 -0.695019 -4.33666 0
M  V30 53559 H 5387.88 -2.21179 -3.63263 0
M  V30 53560 N 5386.2 1.1521 -1.07538 0
M  V30 53561 C 5387.14 2.22075 -0.691758 0
M  V30 53562 C 5388.14 1.66752 0.298323 0
M  V30 53563 O 5389.34 1.79271 0.161834 0
M  V30 53564 H 5385.72 0.72334 -0.205629 0
M  V30 53565 H 5387.69 2.5171 -1.60264 0
M  V30 53566 C 5386.44 3.47533 -0.107668 0
M  V30 53567 H 5385.76 3.90426 -0.860659 0
M  V30 53568 H 5387.2 4.23821 0.123066 0
M  V30 53569 C 5385.66 3.16587 1.15215 0
M  V30 53570 O 5386.19 3.33559 2.23834 0
M  V30 53571 N 5384.4 2.70615 1.05906 0
M  V30 53572 H 5383.94 2.57004 0.175108 0
M  V30 53573 H 5383.9 2.50283 1.90278 0
M  V30 53574 N 5387.67 0.859763 1.32083 0
M  V30 53575 C 5389.09 0.550303 1.49813 0
M  V30 53576 C 5389.29 -0.917903 1.79379 0
M  V30 53577 O 5388.35 -1.70066 1.86638 0
M  V30 53578 C 5389.66 1.4417 2.63885 0
M  V30 53579 C 5391.21 1.44267 2.7777 0
M  V30 53580 C 5391.68 2.3194 3.94928 0
M  V30 53581 N 5393.17 2.29764 4.02198 0
M  V30 53582 C 5393.91 2.94327 4.92097 0
M  V30 53583 N 5393.4 3.68022 5.86968 0
M  V30 53584 N 5395.2 2.83688 4.8526 0
M  V30 53585 H 5387.35 1.80991 1.11158 0
M  V30 53586 H 5389.61 0.773332 0.548326 0
M  V30 53587 H 5389.32 2.48597 2.48782 0
M  V30 53588 H 5389.19 1.1328 3.59788 0
M  V30 53589 H 5391.58 0.406026 2.92293 0
M  V30 53590 H 5391.66 1.79175 1.82565 0
M  V30 53591 H 5391.3 3.35675 3.81162 0
M  V30 53592 H 5391.23 1.94362 4.89419 0
M  V30 53593 H 5393.72 1.76189 3.34314 0
M  V30 53594 H 5394.04 4.1444 6.52273 0
M  V30 53595 H 5392.38 3.7213 5.86979 0
M  V30 53596 H 5395.57 2.25662 4.10115 0
M  V30 53597 H 5395.75 3.34286 5.55119 0
M  V30 53598 N 5389.15 -1.44969 0.618196 0
M  V30 53599 C 5390.08 -2.28816 -0.13267 0
M  V30 53600 C 5391.1 -1.40554 -0.821486 0
M  V30 53601 O 5392.29 -1.64829 -0.685097 0
M  V30 53602 C 5389.39 -3.16585 -1.20944 0
M  V30 53603 C 5388.56 -4.33186 -0.605668 0
M  V30 53604 C 5387.62 -5.02085 -1.5747 0
M  V30 53605 O 5386.64 -5.58532 -1.09687 0
M  V30 53606 N 5387.85 -5.02345 -2.90912 0
M  V30 53607 H 5390.61 -2.93898 0.586843 0
M  V30 53608 H 5388.17 -1.55274 0.45843 0
M  V30 53609 H 5390.16 -3.59541 -1.85774 0
M  V30 53610 H 5388.73 -2.53339 -1.83134 0
M  V30 53611 H 5387.95 -3.9358 0.220965 0
M  V30 53612 H 5389.24 -5.08472 -0.182704 0
M  V30 53613 H 5388.64 -4.57795 -3.32326 0
M  V30 53614 H 5387.2 -5.49132 -3.51137 0
M  V30 53615 N 5390.63 -0.357973 -1.53481 0
M  V30 53616 C 5391.88 0.23363 -2.00745 0
M  V30 53617 C 5392.2 1.49903 -1.24716 0
M  V30 53618 O 5391.47 1.92595 -0.358303 0
M  V30 53619 H 5390.05 0.0893213 -0.741641 0
M  V30 53620 H 5392.71 -0.482454 -1.88834 0
M  V30 53621 H 5391.81 0.465965 -3.08602 0
M  V30 53622 N 5392.11 1.5736 -0.086945 0
M  V30 53623 C 5393.06 2.13574 0.874921 0
M  V30 53624 C 5394.03 1.05215 1.28527 0
M  V30 53625 O 5395.21 1.32958 1.36845 0
M  V30 53626 C 5392.35 2.71394 2.13165 0
M  V30 53627 C 5391.46 3.93959 1.77258 0
M  V30 53628 C 5390.6 4.39971 2.97656 0
M  V30 53629 C 5389.64 5.55146 2.57836 0
M  V30 53630 N 5388.77 5.96047 3.71043 0
M  V30 53631 H 5393.61 2.95454 0.388685 0
M  V30 53632 H 5391.15 1.45992 0.180191 0
M  V30 53633 H 5393.11 3.03032 2.86753 0
M  V30 53634 H 5391.74 1.92255 2.59303 0
M  V30 53635 H 5390.79 3.68687 0.936715 0
M  V30 53636 H 5392.1 4.7757 1.43973 0
M  V30 53637 H 5391.26 4.7335 3.79506 0
M  V30 53638 H 5390 3.55244 3.34146 0
M  V30 53639 H 5389 5.21403 1.74411 0
M  V30 53640 H 5390.23 6.41616 2.225 0
M  V30 53641 H 5388.17 5.14267 4.07266 0
M  V30 53642 H 5388.09 6.74435 3.41576 0
M  V30 53643 H 5389.36 6.34054 4.53427 0
M  V30 53644 N 5393.59 -0.186707 1.5649 0
M  V30 53645 C 5394.83 -0.90713 1.81381 0
M  V30 53646 C 5395.17 -1.82556 0.662347 0
M  V30 53647 O 5394.44 -1.91565 -0.336631 0
M  V30 53648 C 5394.72 -1.71612 3.16577 0
M  V30 53649 C 5394.58 -0.821853 4.42228 0
M  V30 53650 C 5395.9 -2.687 3.48551 0
M  V30 53651 H 5393.01 -0.328343 0.659818 0
M  V30 53652 H 5395.66 -0.174076 1.89201 0
M  V30 53653 H 5393.81 -2.34108 3.10042 0
M  V30 53654 H 5395.48 -0.21096 4.60817 0
M  V30 53655 H 5393.72 -0.129026 4.33608 0
M  V30 53656 H 5394.39 -1.42307 5.33341 0
M  V30 53657 H 5396.87 -2.16335 3.55441 0
M  V30 53658 H 5395.74 -3.22382 4.44254 0
M  V30 53659 H 5396.01 -3.48155 2.72471 0
M  V30 53660 N 5395.07 -1.50897 -0.454723 0
M  V30 53661 C 5396.01 -1.70953 -1.55061 0
M  V30 53662 C 5396.98 -0.550954 -1.56696 0
M  V30 53663 O 5398.17 -0.783413 -1.73975 0
M  V30 53664 C 5395.31 -1.82465 -2.92917 0
M  V30 53665 C 5394.42 -3.09929 -3.00945 0
M  V30 53666 C 5393.56 -3.1214 -4.29816 0
M  V30 53667 C 5392.59 -4.3399 -4.31647 0
M  V30 53668 N 5391.73 -4.33848 -5.52015 0
M  V30 53669 H 5396.57 -2.64504 -1.37264 0
M  V30 53670 H 5394.11 -1.31104 -0.667102 0
M  V30 53671 H 5396.07 -1.87121 -3.72883 0
M  V30 53672 H 5394.7 -0.923379 -3.09311 0
M  V30 53673 H 5393.75 -3.14667 -2.1375 0
M  V30 53674 H 5395.06 -3.99879 -2.98158 0
M  V30 53675 H 5394.21 -3.15616 -5.18142 0
M  V30 53676 H 5392.95 -2.20048 -4.35236 0
M  V30 53677 H 5391.96 -4.30709 -3.41716 0
M  V30 53678 H 5393.18 -5.27327 -4.27906 0
M  V30 53679 H 5391.13 -3.44618 -5.58189 0
M  V30 53680 H 5391.05 -5.17585 -5.51037 0
M  V30 53681 H 5392.31 -4.41492 -6.42421 0
M  V30 53682 N 5396.54 0.709016 -1.40751 0
M  V30 53683 C 5397.51 1.8048 -1.41279 0
M  V30 53684 C 5398.51 1.57871 -0.305519 0
M  V30 53685 O 5399.7 1.64791 -0.564749 0
M  V30 53686 C 5396.83 3.18666 -1.21098 0
M  V30 53687 H 5398.02 1.81408 -2.38812 0
M  V30 53688 H 5395.57 0.915312 -1.26695 0
M  V30 53689 H 5396.31 3.23384 -0.243519 0
M  V30 53690 H 5396.09 3.36476 -2.01311 0
M  V30 53691 H 5397.58 3.98681 -1.24271 0
M  V30 53692 N 5398.02 1.26356 0.941911 0
M  V30 53693 C 5399.27 1.11857 1.68802 0
M  V30 53694 C 5399.6 -0.338223 1.91537 0
M  V30 53695 O 5398.85 -1.26489 1.49328 0
M  V30 53696 C 5399.15 1.83206 3.06872 0
M  V30 53697 C 5398.82 3.33104 3.03896 0
M  V30 53698 C 5397.48 3.73993 3.02792 0
M  V30 53699 C 5399.83 4.28813 2.96258 0
M  V30 53700 C 5397.16 5.08981 2.91814 0
M  V30 53701 C 5399.51 5.6384 2.86822 0
M  V30 53702 C 5398.17 6.04042 2.8406 0
M  V30 53703 H 5397.44 0.409314 0.617692 0
M  V30 53704 H 5400.09 1.56789 1.09952 0
M  V30 53705 H 5398.4 1.30741 3.69343 0
M  V30 53706 H 5400.09 1.69428 3.63449 0
M  V30 53707 H 5396.68 3.00577 3.05535 0
M  V30 53708 H 5400.87 3.98205 2.9622 0
M  V30 53709 H 5396.12 5.39292 2.88053 0
M  V30 53710 H 5400.3 6.37685 2.79875 0
M  V30 53711 H 5397.92 7.08596 2.7531 0
M  V30 53712 N 5399.5 -1.14638 1.08148 0
M  V30 53713 C 5400.46 -2.17832 0.712875 0
M  V30 53714 C 5401.46 -1.58829 -0.250985 0
M  V30 53715 O 5402.65 -1.74173 -0.0308768 0
M  V30 53716 C 5399.78 -3.4086 0.0520675 0
M  V30 53717 H 5400.98 -2.51955 1.62661 0
M  V30 53718 H 5398.53 -1.2924 0.879017 0
M  V30 53719 H 5399.27 -3.12314 -0.873527 0
M  V30 53720 H 5399.05 -3.84949 0.745421 0
M  V30 53721 H 5400.54 -4.17164 -0.190885 0
M  V30 53722 N 5400.98 -0.866756 -1.31625 0
M  V30 53723 C 5401.93 -0.291791 -2.26125 0
M  V30 53724 C 5402.91 0.569323 -1.50491 0
M  V30 53725 O 5404.1 0.416726 -1.72024 0
M  V30 53726 C 5401.23 0.508504 -3.39513 0
M  V30 53727 C 5400.32 -0.365673 -4.22521 0
M  V30 53728 N 5400.71 -1.45764 -4.84341 0
M  V30 53729 C 5399.01 -0.157541 -4.45722 0
M  V30 53730 C 5399.71 -1.99644 -5.46367 0
M  V30 53731 N 5398.68 -1.2939 -5.27977 0
M  V30 53732 H 5402.49 -1.12642 -2.71457 0
M  V30 53733 H 5400 -0.714169 -1.45854 0
M  V30 53734 H 5402 0.936914 -4.06236 0
M  V30 53735 H 5400.66 1.34079 -2.95725 0
M  V30 53736 H 5401.67 -1.84056 -4.84091 0
M  V30 53737 H 5398.35 0.639048 -4.1258 0
M  V30 53738 H 5399.74 -2.91243 -6.05497 0
M  V30 53739 N 5402.46 1.44639 -0.625876 0
M  V30 53740 C 5403.39 2.33398 0.0691367 0
M  V30 53741 C 5404.37 1.47901 0.840189 0
M  V30 53742 O 5405.55 1.76633 0.807114 0
M  V30 53743 C 5402.68 3.30892 1.05488 0
M  V30 53744 C 5401.64 4.26166 0.395818 0
M  V30 53745 C 5400.96 5.13488 1.4911 0
M  V30 53746 C 5402.26 5.1766 -0.694615 0
M  V30 53747 H 5403.96 2.9176 -0.672027 0
M  V30 53748 H 5401.5 1.40293 -0.324623 0
M  V30 53749 H 5403.45 3.91866 1.5498 0
M  V30 53750 H 5402.18 2.70727 1.82687 0
M  V30 53751 H 5400.84 3.66516 -0.078398 0
M  V30 53752 H 5400.49 4.49679 2.25383 0
M  V30 53753 H 5400.19 5.78042 1.05552 0
M  V30 53754 H 5401.71 5.77334 1.98792 0
M  V30 53755 H 5403.12 5.72601 -0.283019 0
M  V30 53756 H 5401.52 5.90789 -1.05302 0
M  V30 53757 H 5402.59 4.58989 -1.56388 0
M  V30 53758 N 5403.93 0.366107 1.53289 0
M  V30 53759 C 5404.87 -0.514838 2.23343 0
M  V30 53760 C 5405.88 -1.04574 1.24772 0
M  V30 53761 O 5407.07 -0.952031 1.50992 0
M  V30 53762 C 5404.17 -1.72364 2.91794 0
M  V30 53763 C 5403.34 -1.32415 4.16875 0
M  V30 53764 C 5402.4 -2.39508 4.68532 0
M  V30 53765 O 5401.43 -2.01876 5.32198 0
M  V30 53766 N 5402.63 -3.711 4.46391 0
M  V30 53767 H 5405.39 0.0852325 2.99579 0
M  V30 53768 H 5402.95 0.191311 1.60766 0
M  V30 53769 H 5404.95 -2.43485 3.2326 0
M  V30 53770 H 5403.52 -2.23057 2.19008 0
M  V30 53771 H 5402.74 -0.442763 3.91706 0
M  V30 53772 H 5404.02 -1.03354 4.98192 0
M  V30 53773 H 5403.42 -4.04449 3.95522 0
M  V30 53774 H 5401.98 -4.38324 4.82406 0
M  V30 53775 N 5405.41 -1.57312 0.095289 0
M  V30 53776 C 5406.66 -1.94648 -0.569215 0
M  V30 53777 C 5406.99 -0.977211 -1.67822 0
M  V30 53778 O 5406.27 -0.0103002 -1.94497 0
M  V30 53779 C 5406.55 -3.42102 -1.12421 0
M  V30 53780 C 5406.4 -4.49795 -0.0202434 0
M  V30 53781 C 5407.72 -3.90873 -2.02253 0
M  V30 53782 H 5404.84 -0.707786 -0.205445 0
M  V30 53783 H 5407.48 -1.89273 0.166037 0
M  V30 53784 H 5405.63 -3.46813 -1.7508 0
M  V30 53785 H 5407.3 -4.57195 0.614005 0
M  V30 53786 H 5405.55 -4.28961 0.646115 0
M  V30 53787 H 5406.22 -5.50168 -0.449385 0
M  V30 53788 H 5408.69 -3.88316 -1.49498 0
M  V30 53789 H 5407.57 -4.94613 -2.38011 0
M  V30 53790 H 5407.83 -3.30177 -2.93999 0
M  V30 53791 N 5406.89 0.178405 -1.56587 0
M  V30 53792 C 5408.3 0.741539 -1.71342 0
M  V30 53793 C 5408.65 1.8311 -0.704643 0
M  V30 53794 O 5407.78 2.15975 0.135481 0
M  V30 53795 C 5408.37 1.35187 -3.10661 0
M  V30 53796 C 5406.93 1.8619 -3.27124 0
M  V30 53797 C 5406.08 0.738161 -2.67295 0
M  V30 53798 H 5409.03 -0.0468982 -1.58631 0
M  V30 53799 H 5409.05 2.22149 -3.08917 0
M  V30 53800 H 5408.56 0.558641 -3.84058 0
M  V30 53801 H 5406.66 2.68179 -2.58671 0
M  V30 53802 H 5406.78 2.01222 -4.34795 0
M  V30 53803 H 5405.14 1.15678 -2.26916 0
M  V30 53804 H 5405.92 -0.0431028 -3.43273 0
M  V30 53805 N 5408.37 1.51136 0.446714 0
M  V30 53806 C 5409.28 1.74601 1.5669 0
M  V30 53807 C 5410.29 0.629873 1.62199 0
M  V30 53808 O 5411.47 0.911051 1.79616 0
M  V30 53809 C 5408.53 1.85748 2.92743 0
M  V30 53810 C 5407.6 3.09574 2.97426 0
M  V30 53811 C 5406.83 3.2018 4.2699 0
M  V30 53812 O 5407.05 2.36958 5.18852 0
M  V30 53813 O 5405.99 4.13092 4.37765 0
M  V30 53814 H 5409.81 2.69606 1.39808 0
M  V30 53815 H 5407.4 1.35525 0.628758 0
M  V30 53816 H 5409.28 1.9512 3.73505 0
M  V30 53817 H 5407.95 0.939293 3.09772 0
M  V30 53818 H 5406.86 3.05687 2.15653 0
M  V30 53819 H 5408.19 4.01051 2.85339 0
M  V30 53820 N 5409.85 -0.701542 1.41125 0
M  V30 53821 C 5411.26 -1.01139 1.23463 0
M  V30 53822 C 5411.46 -2.01144 0.119751 0
M  V30 53823 O 5410.52 -2.47134 -0.517802 0
M  V30 53824 C 5411.83 -1.5417 2.58171 0
M  V30 53825 C 5413.38 -1.66084 2.65302 0
M  V30 53826 C 5413.85 -2.22518 4.00312 0
M  V30 53827 N 5415.35 -2.29886 4.02128 0
M  V30 53828 C 5416.08 -2.74566 5.03389 0
M  V30 53829 N 5415.58 -3.18895 6.15043 0
M  V30 53830 N 5417.37 -2.74076 4.90753 0
M  V30 53831 H 5409.52 -0.0389341 2.12364 0
M  V30 53832 H 5411.78 -0.0798516 0.944631 0
M  V30 53833 H 5411.49 -0.881468 3.40475 0
M  V30 53834 H 5411.36 -2.52478 2.8024 0
M  V30 53835 H 5413.75 -2.31221 1.8336 0
M  V30 53836 H 5413.83 -0.663374 2.47049 0
M  V30 53837 H 5413.48 -1.57999 4.827 0
M  V30 53838 H 5413.41 -3.23005 4.15903 0
M  V30 53839 H 5415.9 -1.98596 3.21509 0
M  V30 53840 H 5416.21 -3.51596 6.88186 0
M  V30 53841 H 5414.55 -3.16819 6.18588 0
M  V30 53842 H 5417.75 -2.3879 4.02613 0
M  V30 53843 H 5417.92 -3.0858 5.69809 0
M  V30 53844 N 5411.32 -1.26854 -0.935197 0
M  V30 53845 C 5412.57 -1.12918 -1.68456 0
M  V30 53846 C 5412.9 0.32564 -1.9145 0
M  V30 53847 O 5412.18 1.23878 -1.49948 0
M  V30 53848 C 5412.46 -1.90523 -3.0557 0
M  V30 53849 C 5412.31 -3.43946 -2.89864 0
M  V30 53850 C 5413.63 -1.70378 -4.05783 0
M  V30 53851 H 5410.75 -0.411581 -0.611368 0
M  V30 53852 H 5413.39 -1.55921 -1.08576 0
M  V30 53853 H 5411.54 -1.53976 -3.56684 0
M  V30 53854 H 5413.22 -3.9028 -2.45925 0
M  V30 53855 H 5411.46 -3.70667 -2.25363 0
M  V30 53856 H 5412.13 -3.93481 -3.8714 0
M  V30 53857 H 5414.61 -2.0223 -3.63651 0
M  V30 53858 H 5413.48 -2.27083 -4.99724 0
M  V30 53859 H 5413.74 -0.649828 -4.37298 0
M  V30 53860 N 5412.8 1.14063 -1.08754 0
M  V30 53861 C 5414.05 1.85456 -0.820596 0
M  V30 53862 C 5414.38 1.82926 0.652065 0
M  V30 53863 O 5413.66 1.26246 1.4796 0
M  V30 53864 C 5413.94 3.33932 -1.34764 0
M  V30 53865 C 5413.79 3.45016 -2.8859 0
M  V30 53866 C 5415.11 4.29146 -0.975787 0
M  V30 53867 H 5412.23 0.673373 -0.299562 0
M  V30 53868 H 5414.87 1.33922 -1.34777 0
M  V30 53869 H 5413.02 3.7795 -0.899219 0
M  V30 53870 H 5414.69 3.09759 -3.41829 0
M  V30 53871 H 5412.94 2.86112 -3.26071 0
M  V30 53872 H 5413.61 4.49396 -3.20542 0
M  V30 53873 H 5416.08 3.93163 -1.36242 0
M  V30 53874 H 5414.96 5.31484 -1.3717 0
M  V30 53875 H 5415.22 4.41946 0.116801 0
M  V30 53876 N 5414.28 0.873724 1.31163 0
M  V30 53877 C 5415.69 0.538583 1.78763 0
M  V30 53878 C 5416.04 -0.944705 1.71959 0
M  V30 53879 O 5415.17 -1.73776 1.2896 0
M  V30 53880 C 5415.76 0.970863 3.24592 0
M  V30 53881 C 5414.32 0.687319 3.70071 0
M  V30 53882 C 5413.47 1.1601 2.51867 0
M  V30 53883 H 5416.42 1.05907 1.18192 0
M  V30 53884 H 5416.44 0.2951 3.79354 0
M  V30 53885 H 5415.95 2.05045 3.29512 0
M  V30 53886 H 5414.05 -0.380751 3.70649 0
M  V30 53887 H 5414.17 1.26698 4.62044 0
M  V30 53888 H 5412.53 0.57975 2.48014 0
M  V30 53889 H 5413.31 2.24719 2.59531 0
M  V30 53890 N 5415.76 -1.44305 0.633538 0
M  V30 53891 C 5416.99 -2.06084 0.145924 0
M  V30 53892 C 5417.4 -1.47436 -1.18571 0
M  V30 53893 O 5416.74 -0.592636 -1.73878 0
M  V30 53894 C 5416.8 -3.59477 -0.0406584 0
M  V30 53895 C 5416.47 -4.40603 1.21319 0
M  V30 53896 C 5417.46 -4.73929 2.13745 0
M  V30 53897 C 5415.15 -4.80938 1.44928 0
M  V30 53898 C 5417.14 -5.46477 3.28087 0
M  V30 53899 C 5414.83 -5.53234 2.59567 0
M  V30 53900 C 5415.83 -5.85924 3.50973 0
M  V30 53901 O 5415.51 -6.56748 4.63613 0
M  V30 53902 H 5415.25 -0.671481 0.0780321 0
M  V30 53903 H 5417.8 -1.86125 0.868724 0
M  V30 53904 H 5416.03 -3.77936 -0.818628 0
M  V30 53905 H 5417.72 -4.03014 -0.483131 0
M  V30 53906 H 5418.49 -4.43304 1.9674 0
M  V30 53907 H 5414.36 -4.54913 0.746697 0
M  V30 53908 H 5417.91 -5.7191 3.99455 0
M  V30 53909 H 5413.81 -5.83275 2.76514 0
M  V30 53910 H 5414.57 -6.75218 4.62626 0
M  V30 53911 N 5417.24 -0.374231 -1.53092 0
M  V30 53912 C 5418.48 0.212745 -2.01379 0
M  V30 53913 C 5418.81 1.48065 -1.26123 0
M  V30 53914 O 5418.07 1.92624 -0.345629 0
M  V30 53915 C 5418.37 0.542055 -3.53266 0
M  V30 53916 C 5418.03 -0.632532 -4.46441 0
M  V30 53917 C 5416.69 -0.954801 -4.71632 0
M  V30 53918 C 5419.05 -1.41905 -5.0151 0
M  V30 53919 C 5416.37 -2.0654 -5.49143 0
M  V30 53920 C 5418.73 -2.52013 -5.80235 0
M  V30 53921 C 5417.39 -2.84765 -6.03709 0
M  V30 53922 H 5416.66 0.077849 -0.736899 0
M  V30 53923 H 5419.31 -0.508477 -1.84626 0
M  V30 53924 H 5417.61 1.34441 -3.68012 0
M  V30 53925 H 5419.31 1.00861 -3.88108 0
M  V30 53926 H 5415.9 -0.371329 -4.26988 0
M  V30 53927 H 5420.08 -1.18332 -4.81987 0
M  V30 53928 H 5415.34 -2.32304 -5.65548 0
M  V30 53929 H 5419.51 -3.13368 -6.21911 0
M  V30 53930 H 5417.14 -3.70944 -6.63554 0
M  V30 53931 N 5418.71 1.57259 -0.10363 0
M  V30 53932 C 5419.94 1.99002 0.566205 0
M  V30 53933 C 5420.36 0.982966 1.61193 0
M  V30 53934 O 5419.71 -0.0262809 1.82481 0
M  V30 53935 C 5419.77 3.40782 1.20623 0
M  V30 53936 O 5419.49 4.37633 0.202318 0
M  V30 53937 C 5420.99 3.97574 1.96086 0
M  V30 53938 H 5418.21 0.653756 0.151141 0
M  V30 53939 H 5420.75 2.03658 -0.185436 0
M  V30 53940 H 5418.91 3.37114 1.90875 0
M  V30 53941 H 5419.32 5.20263 0.665352 0
M  V30 53942 H 5420.79 4.98905 2.36215 0
M  V30 53943 H 5421.27 3.35863 2.83007 0
M  V30 53944 H 5421.88 4.04741 1.30631 0
M  V30 53945 N 5420.19 -0.170098 1.56679 0
M  V30 53946 C 5421.12 -1.23518 1.9307 0
M  V30 53947 C 5422.14 -1.40411 0.823929 0
M  V30 53948 O 5423.33 -1.40392 1.10237 0
M  V30 53949 C 5420.43 -2.60368 2.16937 0
M  V30 53950 C 5419.6 -2.64758 3.4817 0
M  V30 53951 C 5418.66 -3.8298 3.6085 0
M  V30 53952 O 5417.68 -3.68922 4.33457 0
M  V30 53953 N 5418.89 -4.99488 2.95791 0
M  V30 53954 H 5421.65 -0.926072 2.85033 0
M  V30 53955 H 5419.21 -0.359853 1.5785 0
M  V30 53956 H 5421.2 -3.37926 2.22683 0
M  V30 53957 H 5419.77 -2.83664 1.31352 0
M  V30 53958 H 5418.99 -1.73286 3.5407 0
M  V30 53959 H 5420.28 -2.64702 4.34523 0
M  V30 53960 H 5419.68 -5.13811 2.36675 0
M  V30 53961 H 5418.24 -5.74903 3.07131 0
M  V30 53962 N 5421.67 -1.51371 -0.438693 0
M  V30 53963 C 5422.9 -1.67778 -1.21071 0
M  V30 53964 C 5423.31 -0.374554 -1.85047 0
M  V30 53965 O 5422.67 0.646807 -1.70654 0
M  V30 53966 C 5422.72 -2.79246 -2.29574 0
M  V30 53967 O 5422.44 -4.04519 -1.68214 0
M  V30 53968 C 5423.94 -3.06909 -3.19877 0
M  V30 53969 H 5421.16 -0.563067 -0.364961 0
M  V30 53970 H 5423.71 -1.97779 -0.519966 0
M  V30 53971 H 5421.86 -2.51847 -2.94366 0
M  V30 53972 H 5422.28 -4.66414 -2.39913 0
M  V30 53973 H 5423.75 -3.88489 -3.92148 0
M  V30 53974 H 5424.23 -2.19263 -3.80553 0
M  V30 53975 H 5424.83 -3.35962 -2.60787 0
M  V30 53976 N 5423.15 0.694048 -1.41495 0
M  V30 53977 C 5424.56 1.27402 -1.36475 0
M  V30 53978 C 5424.91 1.9614 -0.0485899 0
M  V30 53979 O 5424.04 1.98874 0.853118 0
M  V30 53980 C 5424.63 2.31689 -2.47196 0
M  V30 53981 C 5423.19 2.85259 -2.45569 0
M  V30 53982 C 5422.34 1.59317 -2.26966 0
M  V30 53983 H 5425.29 0.488703 -1.50988 0
M  V30 53984 H 5425.31 3.13012 -2.16341 0
M  V30 53985 H 5424.82 1.81631 -3.42975 0
M  V30 53986 H 5422.92 3.39489 -1.53552 0
M  V30 53987 H 5423.03 3.35586 -3.41934 0
M  V30 53988 H 5421.4 1.85182 -1.74871 0
M  V30 53989 H 5422.18 1.11253 -3.24773 0
M  V30 53990 N 5424.63 1.27348 0.928456 0
M  V30 53991 C 5425.86 1.16284 1.70768 0
M  V30 53992 C 5426.27 -0.283066 1.87071 0
M  V30 53993 O 5425.61 -1.20461 1.38689 0
M  V30 53994 C 5425.67 1.77324 3.12724 0
M  V30 53995 C 5425.33 3.26499 3.19761 0
M  V30 53996 C 5426.33 4.23144 3.02068 0
M  V30 53997 C 5424.02 3.67194 3.42744 0
M  V30 53998 C 5426.01 5.5846 3.07247 0
M  V30 53999 C 5423.7 5.02641 3.47556 0
M  V30 54000 C 5424.7 5.98084 3.29826 0
M  V30 54001 O 5424.38 7.31062 3.34371 0
M  V30 54002 H 5424.12 0.405234 0.541074 0
M  V30 54003 H 5426.67 1.68711 1.17157 0
M  V30 54004 H 5424.9 1.19374 3.67814 0
M  V30 54005 H 5426.59 1.60985 3.7261 0
M  V30 54006 H 5427.35 3.93041 2.84154 0
M  V30 54007 H 5423.23 2.93381 3.55596 0
M  V30 54008 H 5426.78 6.32934 2.93325 0
M  V30 54009 H 5422.67 5.324 3.64994 0
M  V30 54010 H 5423.44 7.395 3.50831 0
M  V30 54011 N 5426.11 -1.13484 1.09357 0
M  V30 54012 C 5427.33 -1.8913 0.851147 0
M  V30 54013 C 5427.76 -1.78544 -0.591913 0
M  V30 54014 O 5427.11 -1.13248 -1.41579 0
M  V30 54015 C 5427.16 -3.36732 1.29013 0
M  V30 54016 O 5426.27 -4.09958 0.448137 0
M  V30 54017 H 5425.61 -0.588079 0.308317 0
M  V30 54018 H 5428.14 -1.43587 1.45753 0
M  V30 54019 H 5428.15 -3.87559 1.27522 0
M  V30 54020 H 5426.82 -3.43754 2.34107 0
M  V30 54021 H 5425.4 -3.69153 0.5273 0
M  V30 54022 N 5427.58 -0.880667 -1.30698 0
M  V30 54023 C 5428.83 -0.496944 -1.96308 0
M  V30 54024 C 5429.16 0.953005 -1.69553 0
M  V30 54025 O 5428.41 1.68779 -0.990567 0
M  V30 54026 C 5428.71 -0.713326 -3.50209 0
M  V30 54027 C 5428.38 -2.1377 -3.97005 0
M  V30 54028 C 5427.04 -2.52721 -4.09494 0
M  V30 54029 C 5429.39 -3.06614 -4.2147 0
M  V30 54030 C 5426.72 -3.83736 -4.43806 0
M  V30 54031 C 5429.07 -4.37157 -4.57249 0
M  V30 54032 C 5427.74 -4.76007 -4.67946 0
M  V30 54033 H 5427.01 -0.181845 -0.718341 0
M  V30 54034 H 5429.65 -1.1157 -1.55642 0
M  V30 54035 H 5427.96 -0.0115071 -3.91798 0
M  V30 54036 H 5429.66 -0.39609 -3.99039 0
M  V30 54037 H 5426.25 -1.82533 -3.87788 0
M  V30 54038 H 5430.43 -2.77743 -4.11306 0
M  V30 54039 H 5425.69 -4.13584 -4.50287 0
M  V30 54040 H 5429.86 -5.0914 -4.75131 0
M  V30 54041 H 5427.49 -5.77566 -4.94289 0
M  V30 54042 N 5429.06 1.43967 -0.641182 0
M  V30 54043 C 5429.99 2.33458 0.0443779 0
M  V30 54044 C 5430.97 1.48784 0.824455 0
M  V30 54045 O 5432.16 1.77479 0.788335 0
M  V30 54046 C 5429.29 3.31992 1.01973 0
M  V30 54047 C 5428.24 4.26562 0.350595 0
M  V30 54048 C 5427.57 5.15041 1.43655 0
M  V30 54049 C 5428.87 5.16895 -0.749481 0
M  V30 54050 H 5430.56 2.91031 -0.702934 0
M  V30 54051 H 5428.11 1.39941 -0.339484 0
M  V30 54052 H 5430.06 3.93488 1.50815 0
M  V30 54053 H 5428.78 2.72649 1.79805 0
M  V30 54054 H 5427.44 3.66412 -0.117268 0
M  V30 54055 H 5427.09 4.52045 2.20601 0
M  V30 54056 H 5426.79 5.79129 0.994154 0
M  V30 54057 H 5428.32 5.79409 1.92658 0
M  V30 54058 H 5429.73 5.72269 -0.343735 0
M  V30 54059 H 5428.13 5.89639 -1.11562 0
M  V30 54060 H 5429.2 4.57304 -1.61248 0
M  V30 54061 N 5430.54 0.382345 1.52892 0
M  V30 54062 C 5431.95 -0.0932185 1.86467 0
M  V30 54063 C 5432.3 -1.46745 1.30231 0
M  V30 54064 O 5431.43 -2.06999 0.630912 0
M  V30 54065 C 5432.02 -0.175929 3.38343 0
M  V30 54066 C 5430.58 -0.595773 3.71655 0
M  V30 54067 C 5429.73 0.246608 2.76201 0
M  V30 54068 H 5432.68 0.600495 1.469 0
M  V30 54069 H 5432.7 -0.996382 3.67223 0
M  V30 54070 H 5432.21 0.824398 3.79243 0
M  V30 54071 H 5430.31 -1.60372 3.36321 0
M  V30 54072 H 5430.43 -0.358751 4.77755 0
M  V30 54073 H 5428.79 -0.287073 2.53077 0
M  V30 54074 H 5429.57 1.24478 3.19937 0
M  V30 54075 N 5432.02 -1.57202 0.111969 0
M  V30 54076 C 5432.95 -2.1796 -0.837606 0
M  V30 54077 C 5433.93 -1.11765 -1.28229 0
M  V30 54078 O 5435.11 -1.39972 -1.34616 0
M  V30 54079 C 5432.24 -2.77341 -2.09044 0
M  V30 54080 C 5431.2 -3.89056 -1.78379 0
M  V30 54081 C 5430.52 -4.35214 -3.10633 0
M  V30 54082 C 5431.82 -5.11481 -1.05758 0
M  V30 54083 H 5433.52 -2.97561 -0.331337 0
M  V30 54084 H 5431.06 -1.43131 -0.157929 0
M  V30 54085 H 5433.02 -3.18502 -2.75925 0
M  V30 54086 H 5431.74 -1.95018 -2.61984 0
M  V30 54087 H 5430.4 -3.4846 -1.1389 0
M  V30 54088 H 5430.05 -3.49759 -3.61493 0
M  V30 54089 H 5429.75 -5.10544 -2.90892 0
M  V30 54090 H 5431.27 -4.79021 -3.78644 0
M  V30 54091 H 5432.69 -5.49705 -1.62779 0
M  V30 54092 H 5431.08 -5.92349 -0.961365 0
M  V30 54093 H 5432.15 -4.84881 -0.0431266 0
M  V30 54094 N 5433.5 0.161787 -1.56767 0
M  V30 54095 C 5434.91 0.723324 -1.72119 0
M  V30 54096 C 5435.26 1.82352 -0.724025 0
M  V30 54097 O 5434.38 2.16107 0.112567 0
M  V30 54098 C 5434.98 1.31884 -3.12077 0
M  V30 54099 C 5433.54 1.8271 -3.2908 0
M  V30 54100 C 5432.68 0.709769 -2.68063 0
M  V30 54101 H 5435.63 -0.0637204 -1.58572 0
M  V30 54102 H 5435.66 2.1886 -3.11256 0
M  V30 54103 H 5435.17 0.517875 -3.84629 0
M  V30 54104 H 5433.27 2.65421 -2.61501 0
M  V30 54105 H 5433.38 1.96599 -4.36905 0
M  V30 54106 H 5431.75 1.13265 -2.2813 0
M  V30 54107 H 5432.53 -0.0795091 -3.43208 0
M  V30 54108 N 5434.97 1.51602 0.430659 0
M  V30 54109 C 5436.2 1.68418 1.20179 0
M  V30 54110 C 5436.62 0.384362 1.84846 0
M  V30 54111 O 5435.97 -0.637748 1.70994 0
M  V30 54112 C 5436.02 2.80459 2.2809 0
M  V30 54113 O 5435.75 4.05405 1.66067 0
M  V30 54114 C 5437.25 3.08602 3.18245 0
M  V30 54115 H 5434.47 0.564995 0.36197 0
M  V30 54116 H 5437.01 1.98052 0.50947 0
M  V30 54117 H 5435.17 2.53405 2.93027 0
M  V30 54118 H 5435.58 4.67679 2.37437 0
M  V30 54119 H 5437.05 3.90564 3.90082 0
M  V30 54120 H 5437.53 2.21278 3.79385 0
M  V30 54121 H 5438.14 3.3734 2.59002 0
M  V30 54122 N 5436.45 -0.686534 1.41861 0
M  V30 54123 C 5437.7 -1.4423 1.40999 0
M  V30 54124 C 5438.01 -1.95583 0.0255667 0
M  V30 54125 O 5439.22 -2.71294 -0.105665 0
M  V30 54126 C 5437.68 -2.60851 2.47961 0
M  V30 54127 C 5437.28 -2.16246 3.92354 0
M  V30 54128 C 5439.03 -3.38432 2.56249 0
M  V30 54129 C 5436.93 -3.29879 4.9085 0
M  V30 54130 H 5435.86 -0.541792 0.524383 0
M  V30 54131 H 5438.52 -0.744427 1.67722 0
M  V30 54132 H 5436.9 -3.32949 2.14384 0
M  V30 54133 H 5438.07 -1.51377 4.35226 0
M  V30 54134 H 5436.39 -1.51634 3.87809 0
M  V30 54135 H 5438.98 -4.2304 3.27018 0
M  V30 54136 H 5439.33 -3.84232 1.60223 0
M  V30 54137 H 5439.86 -2.73396 2.88962 0
M  V30 54138 H 5436.6 -2.89083 5.88312 0
M  V30 54139 H 5436.12 -3.93568 4.5262 0
M  V30 54140 H 5437.8 -3.95523 5.12026 0
M  V30 54141 N 5437.93 -1.27838 -0.92169 0
M  V30 54142 C 5438.88 -1.11082 -2.0231 0
M  V30 54143 C 5439.85 -0.0101779 -1.66097 0
M  V30 54144 O 5441.03 -0.173631 -1.90008 0
M  V30 54145 C 5438.17 -0.770369 -3.36392 0
M  V30 54146 C 5437.28 -1.94925 -3.85523 0
M  V30 54147 C 5436.42 -1.55014 -5.08079 0
M  V30 54148 C 5435.46 -2.69615 -5.49522 0
M  V30 54149 N 5434.6 -2.3025 -6.63272 0
M  V30 54150 H 5439.44 -2.05326 -2.15975 0
M  V30 54151 H 5436.97 -1.02204 -1.05796 0
M  V30 54152 H 5438.93 -0.553769 -4.13508 0
M  V30 54153 H 5437.56 0.135125 -3.22517 0
M  V30 54154 H 5436.61 -2.27822 -3.04633 0
M  V30 54155 H 5437.92 -2.80872 -4.12204 0
M  V30 54156 H 5437.08 -1.29514 -5.92715 0
M  V30 54157 H 5435.82 -0.661846 -4.83188 0
M  V30 54158 H 5434.82 -2.95822 -4.63432 0
M  V30 54159 H 5436.05 -3.59074 -5.76405 0
M  V30 54160 H 5433.99 -1.4388 -6.40027 0
M  V30 54161 H 5433.91 -3.09735 -6.89638 0
M  V30 54162 H 5435.18 -2.08013 -7.51233 0
M  V30 54163 N 5439.41 1.12903 -1.09958 0
M  V30 54164 C 5440.69 1.80599 -0.751211 0
M  V30 54165 C 5441.07 1.96828 0.763008 0
M  V30 54166 O 5440.41 1.54071 1.68743 0
M  V30 54167 C 5440.62 3.15283 -1.49657 0
M  V30 54168 C 5441.97 3.90554 -1.66591 0
M  V30 54169 O 5443 3.24924 -1.45954 0
M  V30 54170 O 5441.85 5.08285 -2.0077 0
M  V30 54171 H 5438.95 0.78152 -0.270473 0
M  V30 54172 H 5441.49 1.19782 -1.2021 0
M  V30 54173 H 5440.27 2.98732 -2.52735 0
M  V30 54174 H 5439.89 3.83806 -1.03822 0
M  V30 54175 N 5440.89 0.887586 1.30229 0
M  V30 54176 C 5441.85 0.361175 2.26336 0
M  V30 54177 C 5442.85 -0.497818 1.529 0
M  V30 54178 O 5444.04 -0.3046 1.71516 0
M  V30 54179 C 5441.17 -0.485017 3.37432 0
M  V30 54180 H 5442.36 1.20983 2.74414 0
M  V30 54181 H 5439.92 0.664669 1.41463 0
M  V30 54182 H 5440.65 -1.35415 2.94675 0
M  V30 54183 H 5440.44 0.130311 3.91883 0
M  V30 54184 H 5441.93 -0.845025 4.08961 0
M  V30 54185 N 5442.36 -1.43625 0.648807 0
M  V30 54186 C 5443.59 -2.05918 0.167774 0
M  V30 54187 C 5444 -1.48686 -1.17001 0
M  V30 54188 O 5443.35 -0.611045 -1.7324 0
M  V30 54189 C 5443.41 -3.595 -0.00252876 0
M  V30 54190 C 5443.07 -4.39291 1.25986 0
M  V30 54191 C 5444.07 -4.71636 2.1876 0
M  V30 54192 C 5441.75 -4.79374 1.50021 0
M  V30 54193 C 5443.75 -5.42967 3.33865 0
M  V30 54194 C 5441.43 -5.5045 2.6542 0
M  V30 54195 C 5442.43 -5.82168 3.57168 0
M  V30 54196 O 5442.12 -6.51794 4.70553 0
M  V30 54197 H 5441.85 -0.670616 0.0851497 0
M  V30 54198 H 5444.41 -1.85193 0.888416 0
M  V30 54199 H 5442.64 -3.78783 -0.778497 0
M  V30 54200 H 5444.33 -4.03504 -0.440359 0
M  V30 54201 H 5445.09 -4.41192 2.01431 0
M  V30 54202 H 5440.97 -4.54095 0.794905 0
M  V30 54203 H 5444.51 -5.67641 4.05499 0
M  V30 54204 H 5440.41 -5.8031 2.82685 0
M  V30 54205 H 5441.18 -6.70273 4.69761 0
M  V30 54206 N 5443.84 -0.390448 -1.52687 0
M  V30 54207 C 5445.26 -0.0404589 -1.59549 0
M  V30 54208 C 5445.46 1.44498 -1.40437 0
M  V30 54209 O 5444.51 2.20963 -1.22194 0
M  V30 54210 C 5445.83 -0.518665 -2.96193 0
M  V30 54211 C 5447.38 -0.475022 -3.09374 0
M  V30 54212 C 5447.85 -0.929436 -4.4847 0
M  V30 54213 N 5449.34 -0.885495 -4.54657 0
M  V30 54214 C 5450.08 -1.2085 -5.6052 0
M  V30 54215 N 5449.57 -1.60204 -6.74023 0
M  V30 54216 N 5451.37 -1.12968 -5.50631 0
M  V30 54217 H 5443.52 -1.35749 -1.63358 0
M  V30 54218 H 5445.78 -0.55648 -0.767486 0
M  V30 54219 H 5445.49 -1.55617 -3.15398 0
M  V30 54220 H 5445.36 0.0816464 -3.77112 0
M  V30 54221 H 5447.75 0.553401 -2.89865 0
M  V30 54222 H 5447.83 -1.11115 -2.30406 0
M  V30 54223 H 5447.47 -1.9561 -4.68721 0
M  V30 54224 H 5447.4 -0.270306 -5.25906 0
M  V30 54225 H 5449.89 -0.595918 -3.73172 0
M  V30 54226 H 5450.21 -1.83211 -7.50769 0
M  V30 54227 H 5448.55 -1.64091 -6.75351 0
M  V30 54228 H 5451.74 -0.821236 -4.6084 0
M  V30 54229 H 5451.91 -1.38473 -6.33032 0
M  V30 54230 N 5445.32 1.5714 -0.120304 0
M  V30 54231 C 5446.27 2.15382 0.829422 0
M  V30 54232 C 5447.24 1.07917 1.26266 0
M  V30 54233 O 5448.42 1.35831 1.33994 0
M  V30 54234 C 5445.56 2.75854 2.07361 0
M  V30 54235 C 5444.68 3.9763 1.68861 0
M  V30 54236 C 5443.81 4.46186 2.88257 0
M  V30 54237 C 5442.85 5.6049 2.46003 0
M  V30 54238 N 5441.99 6.03783 3.58316 0
M  V30 54239 H 5446.83 2.96212 0.325927 0
M  V30 54240 H 5444.36 1.46342 0.149183 0
M  V30 54241 H 5446.32 3.09046 2.80261 0
M  V30 54242 H 5444.95 1.97711 2.55167 0
M  V30 54243 H 5444 3.70591 0.858301 0
M  V30 54244 H 5445.32 4.80517 1.3381 0
M  V30 54245 H 5444.47 4.81293 3.6938 0
M  V30 54246 H 5443.21 3.62251 3.26535 0
M  V30 54247 H 5442.21 5.24985 1.63312 0
M  V30 54248 H 5443.44 6.46191 2.0884 0
M  V30 54249 H 5441.38 5.2279 3.96266 0
M  V30 54250 H 5441.3 6.81528 3.27193 0
M  V30 54251 H 5442.57 6.43529 4.39875 0
M  V30 54252 N 5446.8 -0.153471 1.56851 0
M  V30 54253 C 5448.05 -0.867168 1.82993 0
M  V30 54254 C 5448.37 -1.8146 0.700189 0
M  V30 54255 O 5447.63 -1.93209 -0.31128 0
M  V30 54256 C 5447.93 -1.68055 3.15424 0
M  V30 54257 C 5447.59 -0.88048 4.4222 0
M  V30 54258 C 5446.26 -0.659731 4.76656 0
M  V30 54259 C 5448.61 -0.320515 5.20214 0
M  V30 54260 C 5445.94 0.131794 5.86552 0
M  V30 54261 C 5448.29 0.458016 6.3094 0
M  V30 54262 C 5446.95 0.689401 6.6393 0
M  V30 54263 H 5446.22 -0.317319 0.669619 0
M  V30 54264 H 5448.87 -0.131141 1.9105 0
M  V30 54265 H 5447.17 -2.48649 3.02788 0
M  V30 54266 H 5448.87 -2.23612 3.32864 0
M  V30 54267 H 5445.46 -1.06259 4.15219 0
M  V30 54268 H 5449.64 -0.478357 4.93989 0
M  V30 54269 H 5444.9 0.320627 6.10559 0
M  V30 54270 H 5449.07 0.899082 6.90572 0
M  V30 54271 H 5446.7 1.30459 7.48922 0
M  V30 54272 N 5448.28 -1.51828 -0.422613 0
M  V30 54273 C 5449.19 -1.77071 -1.53893 0
M  V30 54274 C 5450.2 -0.655598 -1.61177 0
M  V30 54275 O 5451.38 -0.939511 -1.78144 0
M  V30 54276 C 5448.44 -1.90382 -2.89751 0
M  V30 54277 C 5447.5 -3.14267 -2.92464 0
M  V30 54278 C 5446.74 -3.26933 -4.21842 0
M  V30 54279 O 5446.96 -2.45182 -5.15016 0
M  V30 54280 O 5445.89 -4.20004 -4.31138 0
M  V30 54281 H 5449.72 -2.71796 -1.35501 0
M  V30 54282 H 5447.31 -1.36508 -0.607117 0
M  V30 54283 H 5449.19 -2.01037 -3.70354 0
M  V30 54284 H 5447.86 -0.988456 -3.08239 0
M  V30 54285 H 5446.77 -3.09079 -2.10763 0
M  V30 54286 H 5448.1 -4.0554 -2.78923 0
M  V30 54287 N 5449.75 0.679002 -1.42223 0
M  V30 54288 C 5451 1.4348 -1.41762 0
M  V30 54289 C 5451.32 1.95567 -0.0359386 0
M  V30 54290 O 5452.52 2.71347 0.0912759 0
M  V30 54291 C 5450.98 2.59532 -2.49341 0
M  V30 54292 C 5450.59 2.14162 -3.93495 0
M  V30 54293 C 5452.33 3.37069 -2.58041 0
M  V30 54294 C 5450.24 3.27271 -4.92593 0
M  V30 54295 H 5449.17 0.539003 -0.527249 0
M  V30 54296 H 5451.82 0.735522 -1.68114 0
M  V30 54297 H 5450.2 3.31808 -2.16147 0
M  V30 54298 H 5451.37 1.49067 -4.36023 0
M  V30 54299 H 5449.69 1.49575 -3.88608 0
M  V30 54300 H 5452.29 4.213 -3.29257 0
M  V30 54301 H 5452.63 3.83377 -1.62258 0
M  V30 54302 H 5453.16 2.7186 -2.90408 0
M  V30 54303 H 5449.9 2.85959 -5.89837 0
M  V30 54304 H 5449.42 3.91162 -4.54701 0
M  V30 54305 H 5451.1 3.92802 -5.14116 0
M  V30 54306 N 5451.23 1.28325 0.914897 0
M  V30 54307 C 5452.18 1.12153 2.01718 0
M  V30 54308 C 5453.15 0.0189863 1.66089 0
M  V30 54309 O 5454.33 0.183705 1.89914 0
M  V30 54310 C 5451.47 0.788198 3.35978 0
M  V30 54311 C 5450.59 1.96967 3.84484 0
M  V30 54312 C 5449.72 1.57706 5.0725 0
M  V30 54313 C 5448.76 2.72525 5.48084 0
M  V30 54314 N 5447.9 2.33765 6.62041 0
M  V30 54315 H 5452.74 2.06469 2.14883 0
M  V30 54316 H 5450.28 1.02763 1.05253 0
M  V30 54317 H 5452.23 0.575691 4.13209 0
M  V30 54318 H 5450.86 -0.118019 3.22584 0
M  V30 54319 H 5449.92 2.29434 3.03421 0
M  V30 54320 H 5451.23 2.83054 4.10709 0
M  V30 54321 H 5450.38 1.32655 5.9202 0
M  V30 54322 H 5449.12 0.687461 4.8283 0
M  V30 54323 H 5448.13 2.98276 4.61857 0
M  V30 54324 H 5449.35 3.62126 5.74492 0
M  V30 54325 H 5447.3 1.47273 6.39255 0
M  V30 54326 H 5447.21 3.13388 6.87986 0
M  V30 54327 H 5448.48 2.11994 7.50119 0
M  V30 54328 N 5452.71 -1.12318 1.10555 0
M  V30 54329 C 5453.96 -1.83213 0.843554 0
M  V30 54330 C 5454.27 -1.85077 -0.632927 0
M  V30 54331 O 5455.48 -2.5198 -1.01086 0
M  V30 54332 C 5453.93 -3.28988 1.45927 0
M  V30 54333 C 5453.54 -3.3548 2.96913 0
M  V30 54334 C 5455.29 -4.04846 1.27672 0
M  V30 54335 C 5453.19 -4.75597 3.51513 0
M  V30 54336 H 5452.12 -0.68646 0.311911 0
M  V30 54337 H 5454.77 -1.26458 1.32968 0
M  V30 54338 H 5453.16 -3.85618 0.900814 0
M  V30 54339 H 5454.33 -2.88783 3.59084 0
M  V30 54340 H 5452.65 -2.73096 3.14336 0
M  V30 54341 H 5455.24 -5.0831 1.65907 0
M  V30 54342 H 5455.59 -4.15727 0.218404 0
M  V30 54343 H 5456.12 -3.54578 1.80331 0
M  V30 54344 H 5452.86 -4.69911 4.57016 0
M  V30 54345 H 5452.38 -5.22742 2.9411 0
M  V30 54346 H 5454.06 -5.4454 3.49407 0
M  V30 54347 N 5454.19 -0.89448 -1.29757 0
M  V30 54348 C 5455.42 -0.532986 -1.99917 0
M  V30 54349 C 5455.83 0.880964 -1.66986 0
M  V30 54350 O 5455.19 1.58073 -0.912091 0
M  V30 54351 C 5455.24 -0.709484 -3.54469 0
M  V30 54352 O 5454.96 -2.06778 -3.86231 0
M  V30 54353 C 5456.46 -0.352245 -4.41898 0
M  V30 54354 H 5453.68 -0.205042 -0.638904 0
M  V30 54355 H 5456.23 -1.20239 -1.65417 0
M  V30 54356 H 5454.38 -0.0873262 -3.87302 0
M  V30 54357 H 5454.8 -2.09332 -4.80916 0
M  V30 54358 H 5456.27 -0.526598 -5.49482 0
M  V30 54359 H 5456.75 0.710374 -4.33417 0
M  V30 54360 H 5457.35 -0.951125 -4.14528 0
M  V30 54361 N 5455.67 1.43279 -0.656415 0
M  V30 54362 C 5456.91 2.01776 -0.17111 0
M  V30 54363 C 5457.24 1.51799 1.21603 0
M  V30 54364 O 5456.5 0.702928 1.8264 0
M  V30 54365 C 5456.8 3.57147 -0.13435 0
M  V30 54366 C 5456.46 4.26483 -1.46367 0
M  V30 54367 C 5455.12 4.45139 -1.82769 0
M  V30 54368 C 5457.48 4.6572 -2.33997 0
M  V30 54369 C 5454.8 5.00299 -3.0646 0
M  V30 54370 C 5457.16 5.2225 -3.56984 0
M  V30 54371 C 5455.82 5.39122 -3.93578 0
M  V30 54372 H 5455.09 0.73835 -0.0626137 0
M  V30 54373 H 5457.74 1.71713 -0.847757 0
M  V30 54374 H 5456.04 3.86771 0.625756 0
M  V30 54375 H 5457.74 4.00169 0.258066 0
M  V30 54376 H 5454.33 4.12309 -1.17045 0
M  V30 54377 H 5458.51 4.50996 -2.07164 0
M  V30 54378 H 5453.77 5.11547 -3.34857 0
M  V30 54379 H 5457.94 5.51599 -4.25102 0
M  V30 54380 H 5455.57 5.81629 -4.89502 0
M  V30 54381 N 5457.15 0.398539 1.52478 0
M  V30 54382 C 5458.56 0.0489196 1.59525 0
M  V30 54383 C 5458.76 -1.43751 1.41202 0
M  V30 54384 O 5457.82 -2.20312 1.23364 0
M  V30 54385 C 5459.13 0.534366 2.95914 0
M  V30 54386 C 5460.68 0.491422 3.09118 0
M  V30 54387 C 5461.15 0.953206 4.47971 0
M  V30 54388 N 5462.64 0.909594 4.54181 0
M  V30 54389 C 5463.38 1.23821 5.59871 0
M  V30 54390 N 5462.88 1.63776 6.73164 0
M  V30 54391 N 5464.67 1.15886 5.50024 0
M  V30 54392 H 5456.82 1.36613 1.62636 0
M  V30 54393 H 5459.08 0.560542 0.764524 0
M  V30 54394 H 5458.79 1.57288 3.14569 0
M  V30 54395 H 5458.66 -0.0616461 3.7715 0
M  V30 54396 H 5461.05 -0.538021 2.90154 0
M  V30 54397 H 5461.13 1.12335 2.29814 0
M  V30 54398 H 5460.77 1.98093 4.67677 0
M  V30 54399 H 5460.7 0.298192 5.25755 0
M  V30 54400 H 5463.2 0.6157 3.72851 0
M  V30 54401 H 5463.51 1.8719 7.49787 0
M  V30 54402 H 5461.85 1.6767 6.74471 0
M  V30 54403 H 5465.04 0.845664 4.60398 0
M  V30 54404 H 5465.22 1.41828 6.32289 0
M  V30 54405 N 5458.62 -1.57074 0.128636 0
M  V30 54406 C 5460.03 -1.82469 -0.395195 0
M  V30 54407 C 5460.39 -1.04635 -1.65969 0
M  V30 54408 O 5459.51 -0.285911 -2.14503 0
M  V30 54409 C 5460.11 -3.30979 -0.723773 0
M  V30 54410 C 5458.66 -3.5702 -1.1922 0
M  V30 54411 C 5457.81 -2.76535 -0.20581 0
M  V30 54412 H 5460.76 -1.5471 0.353625 0
M  V30 54413 H 5460.78 -3.46133 -1.58027 0
M  V30 54414 H 5460.3 -3.87601 0.196731 0
M  V30 54415 H 5458.4 -3.05766 -2.12927 0
M  V30 54416 H 5458.51 -4.65562 -1.13086 0
M  V30 54417 H 5456.87 -2.4504 -0.694785 0
M  V30 54418 H 5457.66 -3.35921 0.707961 0
M  V30 54419 N 5460.1 0.14515 -1.5693 0
M  V30 54420 C 5461.38 0.886249 -1.7437 0
M  V30 54421 C 5461.76 1.99256 -0.697151 0
M  V30 54422 O 5461.11 2.26733 0.2836 0
M  V30 54423 C 5461.32 1.42701 -3.18493 0
M  V30 54424 C 5462.66 1.88969 -3.80232 0
M  V30 54425 O 5463.69 1.52438 -3.21933 0
M  V30 54426 O 5462.55 2.56344 -4.82649 0
M  V30 54427 H 5459.64 0.418954 -0.713026 0
M  V30 54428 H 5462.19 0.130931 -1.69194 0
M  V30 54429 H 5460.96 0.63203 -3.86162 0
M  V30 54430 H 5460.58 2.24578 -3.28102 0
M  V30 54431 N 5461.58 1.5205 0.414556 0
M  V30 54432 C 5462.8 1.69974 1.18842 0
M  V30 54433 C 5463.23 0.406123 1.83663 0
M  V30 54434 O 5462.59 -0.635921 1.69781 0
M  V30 54435 C 5462.64 2.83278 2.23128 0
M  V30 54436 O 5461.74 2.48468 3.29146 0
M  V30 54437 H 5461.08 0.566016 0.347163 0
M  V30 54438 H 5463.61 1.98727 0.486687 0
M  V30 54439 H 5463.62 3.08031 2.67546 0
M  V30 54440 H 5462.3 3.77137 1.75331 0
M  V30 54441 H 5460.87 2.34367 2.90046 0
M  V30 54442 N 5463.06 -0.67145 1.42581 0
M  V30 54443 C 5464.02 -1.76671 1.46014 0
M  V30 54444 C 5465.02 -1.57005 0.347268 0
M  V30 54445 O 5466.21 -1.63236 0.608242 0
M  V30 54446 C 5463.34 -3.15343 1.29505 0
M  V30 54447 H 5464.54 -1.75013 2.43538 0
M  V30 54448 H 5462.09 -0.881399 1.29078 0
M  V30 54449 H 5462.82 -3.22625 0.329173 0
M  V30 54450 H 5462.61 -3.31021 2.10161 0
M  V30 54451 H 5464.1 -3.95246 1.34798 0
M  V30 54452 N 5464.54 -1.28809 -0.908079 0
M  V30 54453 C 5465.81 -1.06986 -1.63748 0
M  V30 54454 C 5466.19 0.388863 -2.07488 0
M  V30 54455 O 5465.54 1.37605 -1.8242 0
M  V30 54456 C 5465.75 -2.04972 -2.82467 0
M  V30 54457 C 5467.1 -2.35431 -3.53352 0
M  V30 54458 O 5468.12 -2.03101 -2.92623 0
M  V30 54459 O 5466.98 -2.90633 -4.62812 0
M  V30 54460 H 5464.08 -0.409293 -0.718616 0
M  V30 54461 H 5466.62 -1.40149 -0.956884 0
M  V30 54462 H 5465.39 -3.03262 -2.47281 0
M  V30 54463 H 5465.02 -1.72489 -3.58236 0
M  V30 54464 N 5466.01 1.1173 -1.11149 0
M  V30 54465 C 5467.26 1.8304 -0.856781 0
M  V30 54466 C 5467.58 1.84903 0.619342 0
M  V30 54467 O 5466.85 1.31744 1.44984 0
M  V30 54468 H 5465.43 0.677812 -0.313974 0
M  V30 54469 H 5468.09 1.35257 -1.40326 0
M  V30 54470 H 5467.19 2.87 -1.22626 0
M  V30 54471 N 5467.49 0.901349 1.29281 0
M  V30 54472 C 5468.42 0.324869 2.25876 0
M  V30 54473 C 5469.4 -0.563891 1.52509 0
M  V30 54474 O 5470.59 -0.51033 1.8146 0
M  V30 54475 C 5467.71 -0.536779 3.34419 0
M  V30 54476 C 5466.76 0.284889 4.25547 0
M  V30 54477 S 5467.59 1.68373 5.08341 0
M  V30 54478 C 5468.75 0.829045 6.20385 0
M  V30 54479 H 5468.98 1.14361 2.74424 0
M  V30 54480 H 5466.51 0.701798 1.37529 0
M  V30 54481 H 5468.47 -1.02813 3.97416 0
M  V30 54482 H 5467.13 -1.32978 2.84562 0
M  V30 54483 H 5466.33 -0.37339 5.02615 0
M  V30 54484 H 5465.93 0.709442 3.6721 0
M  V30 54485 H 5468.22 0.0531615 6.77479 0
M  V30 54486 H 5469.16 1.57186 6.90433 0
M  V30 54487 H 5469.57 0.382701 5.63201 0
M  V30 54488 N 5468.97 -1.42929 0.664004 0
M  V30 54489 C 5469.9 -2.33499 -0.00723119 0
M  V30 54490 C 5470.88 -1.50077 -0.80068 0
M  V30 54491 O 5472.07 -1.78711 -0.759999 0
M  V30 54492 C 5469.2 -3.33573 -0.96678 0
M  V30 54493 C 5468.15 -4.27065 -0.282689 0
M  V30 54494 C 5467.48 -5.17261 -1.35443 0
M  V30 54495 C 5468.78 -5.15637 0.831619 0
M  V30 54496 H 5470.47 -2.89876 0.749146 0
M  V30 54497 H 5468.02 -1.39383 0.361705 0
M  V30 54498 H 5469.97 -3.95838 -1.44535 0
M  V30 54499 H 5468.69 -2.75475 -1.75445 0
M  V30 54500 H 5467.35 -3.66179 0.175546 0
M  V30 54501 H 5467 -4.55497 -2.13381 0
M  V30 54502 H 5466.7 -5.80637 -0.901894 0
M  V30 54503 H 5468.22 -5.82401 -1.83415 0
M  V30 54504 H 5469.64 -5.71649 0.434735 0
M  V30 54505 H 5468.04 -5.87789 1.20928 0
M  V30 54506 H 5469.11 -4.54681 1.68503 0
M  V30 54507 N 5470.45 -0.40662 -1.52264 0
M  V30 54508 C 5471.38 0.411234 -2.2985 0
M  V30 54509 C 5472.36 1.04833 -1.33955 0
M  V30 54510 O 5473.54 1.05782 -1.62861 0
M  V30 54511 C 5470.67 1.5295 -3.11807 0
M  V30 54512 C 5469.63 1.01754 -4.15729 0
M  V30 54513 C 5468.95 2.22921 -4.86015 0
M  V30 54514 C 5470.25 0.0733314 -5.22249 0
M  V30 54515 H 5471.95 -0.236159 -2.98467 0
M  V30 54516 H 5469.49 -0.115019 -1.4354 0
M  V30 54517 H 5471.45 2.10861 -3.6485 0
M  V30 54518 H 5470.17 2.20473 -2.40955 0
M  V30 54519 H 5468.83 0.460842 -3.63692 0
M  V30 54520 H 5468.48 2.88993 -4.11694 0
M  V30 54521 H 5468.18 1.89318 -5.56267 0
M  V30 54522 H 5469.7 2.81443 -5.41869 0
M  V30 54523 H 5471.12 0.561166 -5.70547 0
M  V30 54524 H 5469.51 -0.173761 -5.99848 0
M  V30 54525 H 5470.58 -0.872691 -4.76982 0
M  V30 54526 N 5471.93 1.57004 -0.136964 0
M  V30 54527 C 5473.16 1.99868 0.523106 0
M  V30 54528 C 5473.56 1.0159 1.59612 0
M  V30 54529 O 5472.91 0.00332884 1.837 0
M  V30 54530 C 5472.97 3.39161 1.19205 0
M  V30 54531 C 5472.63 4.56232 0.264839 0
M  V30 54532 C 5473.63 5.17455 -0.503594 0
M  V30 54533 C 5471.32 5.0201 0.17067 0
M  V30 54534 C 5473.31 6.22858 -1.35375 0
M  V30 54535 C 5471 6.0727 -0.683098 0
M  V30 54536 C 5471.99 6.67563 -1.44392 0
M  V30 54537 O 5471.68 7.70787 -2.28348 0
M  V30 54538 H 5471.41 0.66101 0.14157 0
M  V30 54539 H 5473.97 2.04158 -0.225517 0
M  V30 54540 H 5472.2 3.31679 1.98811 0
M  V30 54541 H 5473.89 3.66198 1.75083 0
M  V30 54542 H 5474.65 4.82993 -0.440817 0
M  V30 54543 H 5470.53 4.54816 0.752584 0
M  V30 54544 H 5474.08 6.69848 -1.94807 0
M  V30 54545 H 5469.97 6.41161 -0.747203 0
M  V30 54546 H 5470.74 7.87963 -2.21486 0
M  V30 54547 N 5473.4 -0.136826 1.57005 0
M  V30 54548 C 5474.35 -1.18775 1.99988 0
M  V30 54549 C 5475.35 -1.43896 0.893892 0
M  V30 54550 O 5476.55 -1.44068 1.07909 0
M  V30 54551 H 5472.93 -0.400043 0.636765 0
M  V30 54552 H 5474.9 -0.798595 2.87515 0
M  V30 54553 C 5473.65 -2.51097 2.40511 0
M  V30 54554 H 5472.97 -2.326 3.25173 0
M  V30 54555 H 5474.41 -3.23234 2.74401 0
M  V30 54556 C 5472.87 -3.12381 1.26172 0
M  V30 54557 O 5473.4 -3.97664 0.567976 0
M  V30 54558 N 5471.61 -2.71985 1.02335 0
M  V30 54559 H 5471.15 -2.02731 1.58928 0
M  V30 54560 H 5471.11 -3.13321 0.26024 0
M  V30 54561 N 5474.88 -1.52268 -0.406486 0
M  V30 54562 C 5476.13 -1.66127 -1.15092 0
M  V30 54563 C 5476.45 -0.394903 -1.90959 0
M  V30 54564 O 5475.72 0.590283 -1.86795 0
M  V30 54565 H 5474.3 -0.612332 -0.427853 0
M  V30 54566 H 5476.96 -1.8932 -0.463039 0
M  V30 54567 H 5476.06 -2.50358 -1.86353 0
M  V30 54568 N 5476.36 0.663879 -1.42935 0
M  V30 54569 C 5477.29 1.78941 -1.43223 0
M  V30 54570 C 5478.31 1.59425 -0.329783 0
M  V30 54571 O 5479.49 1.68342 -0.59356 0
M  V30 54572 C 5476.59 3.16213 -1.21913 0
M  V30 54573 C 5475.77 3.62482 -2.44797 0
M  V30 54574 C 5474.83 4.78521 -2.1887 0
M  V30 54575 O 5473.85 4.88506 -2.92149 0
M  V30 54576 N 5475.05 5.6799 -1.19864 0
M  V30 54577 H 5477.82 1.79175 -2.40242 0
M  V30 54578 H 5475.38 0.847356 -1.37955 0
M  V30 54579 H 5477.37 3.91513 -1.02468 0
M  V30 54580 H 5475.94 3.10813 -0.333785 0
M  V30 54581 H 5475.16 2.77741 -2.79738 0
M  V30 54582 H 5476.45 3.90139 -3.26602 0
M  V30 54583 H 5475.85 5.62586 -0.592788 0
M  V30 54584 H 5474.41 6.43056 -1.06405 0
M  V30 54585 N 5477.84 1.29288 0.901235 0
M  V30 54586 C 5478.79 1.14287 2.00517 0
M  V30 54587 C 5479.76 0.0366012 1.6606 0
M  V30 54588 O 5480.94 0.203838 1.89708 0
M  V30 54589 C 5478.08 0.823789 3.35123 0
M  V30 54590 C 5477.19 2.01034 3.82373 0
M  V30 54591 C 5476.33 1.63077 5.05548 0
M  V30 54592 C 5475.37 2.78323 5.45163 0
M  V30 54593 N 5474.5 2.40773 6.59525 0
M  V30 54594 H 5479.34 2.08736 2.12681 0
M  V30 54595 H 5476.88 1.03874 1.04157 0
M  V30 54596 H 5478.84 0.619485 4.12575 0
M  V30 54597 H 5477.47 -0.0837978 3.22691 0
M  V30 54598 H 5476.52 2.32639 3.0097 0
M  V30 54599 H 5477.83 2.87395 4.07683 0
M  V30 54600 H 5476.99 1.38927 5.9058 0
M  V30 54601 H 5475.73 0.738633 4.82074 0
M  V30 54602 H 5474.73 3.03158 4.58667 0
M  V30 54603 H 5475.96 3.68199 5.70619 0
M  V30 54604 H 5473.9 1.54044 6.37657 0
M  V30 54605 H 5473.82 3.20667 6.84623 0
M  V30 54606 H 5475.09 2.19938 7.47828 0
M  V30 54607 N 5479.32 -1.11139 1.1174 0
M  V30 54608 C 5480.73 -1.34959 0.851953 0
M  V30 54609 C 5480.93 -1.94628 -0.521728 0
M  V30 54610 O 5479.99 -2.18126 -1.27191 0
M  V30 54611 C 5481.3 -2.27825 1.96256 0
M  V30 54612 C 5482.85 -2.41381 1.99259 0
M  V30 54613 C 5483.32 -3.37571 3.09531 0
M  V30 54614 N 5484.82 -3.45136 3.08926 0
M  V30 54615 C 5485.55 -4.19514 3.90891 0
M  V30 54616 N 5485.05 -4.96841 4.82826 0
M  V30 54617 N 5486.84 -4.15058 3.79056 0
M  V30 54618 H 5478.99 -0.707731 2.00262 0
M  V30 54619 H 5481.25 -0.374142 0.871046 0
M  V30 54620 H 5480.96 -1.91179 2.95201 0
M  V30 54621 H 5480.83 -3.28071 1.86143 0
M  V30 54622 H 5483.22 -2.773 1.00938 0
M  V30 54623 H 5483.3 -1.40976 2.13447 0
M  V30 54624 H 5482.95 -3.02379 4.0808 0
M  V30 54625 H 5482.88 -4.37839 2.92583 0
M  V30 54626 H 5485.37 -2.89983 2.42319 0
M  V30 54627 H 5485.68 -5.50971 5.41895 0
M  V30 54628 H 5484.02 -4.9599 4.86845 0
M  V30 54629 H 5487.22 -3.53737 3.06574 0
M  V30 54630 H 5487.39 -4.72766 4.43167 0
M  V30 54631 N 5480.79 -0.908192 -1.28801 0
M  V30 54632 C 5482.04 -0.53927 -1.95499 0
M  V30 54633 C 5482.37 0.913698 -1.71363 0
M  V30 54634 O 5481.65 1.649 -1.03142 0
M  V30 54635 C 5481.93 -0.842495 -3.50106 0
M  V30 54636 C 5481.78 -2.34779 -3.83665 0
M  V30 54637 C 5483.1 -0.334813 -4.38825 0
M  V30 54638 H 5480.22 -0.197398 -0.710073 0
M  V30 54639 H 5482.86 -1.13642 -1.52268 0
M  V30 54640 H 5481.01 -0.334279 -3.87059 0
M  V30 54641 H 5482.69 -2.92619 -3.56611 0
M  V30 54642 H 5480.93 -2.80505 -3.30907 0
M  V30 54643 H 5481.6 -2.51051 -4.91607 0
M  V30 54644 H 5484.08 -0.770105 -4.08911 0
M  V30 54645 H 5482.95 -0.576106 -5.45868 0
M  V30 54646 H 5483.21 0.764725 -4.35436 0
M  V30 54647 N 5482.27 1.42575 -0.671575 0
M  V30 54648 C 5483.68 1.84735 -0.270149 0
M  V30 54649 C 5484.03 1.56216 1.18705 0
M  V30 54650 O 5483.16 1.02035 1.90835 0
M  V30 54651 C 5483.75 3.35332 -0.483527 0
M  V30 54652 C 5482.31 3.76153 -0.136251 0
M  V30 54653 C 5481.46 2.66176 -0.777537 0
M  V30 54654 H 5484.41 1.32467 -0.873966 0
M  V30 54655 H 5484.43 3.79574 0.265349 0
M  V30 54656 H 5483.94 3.56057 -1.54418 0
M  V30 54657 H 5482.05 3.61036 0.921082 0
M  V30 54658 H 5482.16 4.75643 -0.574523 0
M  V30 54659 H 5480.52 2.5384 -0.209144 0
M  V30 54660 H 5481.31 2.89725 -1.84158 0
M  V30 54661 N 5483.75 0.414689 1.52046 0
M  V30 54662 C 5485 -0.158964 2.01474 0
M  V30 54663 C 5485.32 -1.45171 1.30193 0
M  V30 54664 O 5484.59 -1.91133 0.429536 0
M  V30 54665 H 5483.17 -0.0617343 0.744445 0
M  V30 54666 H 5485.83 0.552207 1.86914 0
M  V30 54667 H 5484.93 -0.351108 3.10119 0
M  V30 54668 N 5485.23 -1.56929 0.145288 0
M  V30 54669 C 5486.45 -2.00866 -0.516493 0
M  V30 54670 C 5486.88 -1.02471 -1.57738 0
M  V30 54671 O 5486.24 -0.000209175 -1.813 0
M  V30 54672 C 5486.29 -3.43556 -1.09551 0
M  V30 54673 O 5485.39 -3.48158 -2.21043 0
M  V30 54674 H 5484.73 -0.651839 -0.126498 0
M  V30 54675 H 5487.26 -2.0317 0.241516 0
M  V30 54676 H 5487.27 -3.82321 -1.4246 0
M  V30 54677 H 5485.95 -4.14678 -0.318604 0
M  V30 54678 H 5484.52 -3.21234 -1.89375 0
M  V30 54679 N 5486.71 0.128498 -1.57075 0
M  V30 54680 C 5488.12 0.686652 -1.73614 0
M  V30 54681 C 5488.47 1.80775 -0.762542 0
M  V30 54682 O 5487.59 2.16297 0.0667019 0
M  V30 54683 C 5488.19 1.25235 -3.14804 0
M  V30 54684 C 5486.75 1.75689 -3.32882 0
M  V30 54685 C 5485.9 0.652749 -2.69508 0
M  V30 54686 H 5488.85 -0.0973416 -1.58401 0
M  V30 54687 H 5488.87 2.12209 -3.15829 0
M  V30 54688 H 5488.38 0.436173 -3.85641 0
M  V30 54689 H 5486.48 2.59814 -2.67072 0
M  V30 54690 H 5486.59 1.87287 -4.40977 0
M  V30 54691 H 5484.96 1.084 -2.30481 0
M  V30 54692 H 5485.74 -0.152291 -3.42962 0
M  V30 54693 N 5488.19 1.52481 0.398405 0
M  V30 54694 C 5489.41 1.70929 1.1658 0
M  V30 54695 C 5489.83 0.423485 1.83989 0
M  V30 54696 O 5489.19 -0.601334 1.72309 0
M  V30 54697 C 5489.24 2.85234 2.22089 0
M  V30 54698 O 5488.96 4.08837 1.5743 0
M  V30 54699 C 5490.46 3.15283 3.11628 0
M  V30 54700 H 5487.68 0.572545 0.349904 0
M  V30 54701 H 5490.22 1.99088 0.467346 0
M  V30 54702 H 5488.38 2.59564 2.87586 0
M  V30 54703 H 5488.79 4.72611 2.27463 0
M  V30 54704 H 5490.27 3.9875 3.8171 0
M  V30 54705 H 5490.74 2.29275 3.74606 0
M  V30 54706 H 5491.35 3.42758 2.51788 0
M  V30 54707 N 5489.66 -0.656289 1.43285 0
M  V30 54708 C 5490.61 -1.79053 1.48468 0
M  V30 54709 C 5491.61 -1.65562 0.358571 0
M  V30 54710 O 5492.81 -1.71945 0.532425 0
M  V30 54711 H 5489.19 -0.5907 0.465379 0
M  V30 54712 H 5491.16 -1.71802 2.43981 0
M  V30 54713 C 5489.91 -3.17299 1.42186 0
M  V30 54714 H 5489.23 -3.28316 2.28142 0
M  V30 54715 H 5490.67 -3.96628 1.49874 0
M  V30 54716 C 5489.13 -3.36613 0.139047 0
M  V30 54717 O 5489.66 -3.93636 -0.800872 0
M  V30 54718 N 5487.86 -2.90557 0.0502258 0
M  V30 54719 H 5487.41 -2.44337 0.815907 0
M  V30 54720 H 5487.37 -3.03856 -0.807397 0
M  V30 54721 N 5491.14 -1.29765 -0.894366 0
M  V30 54722 C 5492.07 -1.17909 -2.01543 0
M  V30 54723 C 5493.05 -0.072 -1.69948 0
M  V30 54724 O 5494.24 -0.252406 -1.92553 0
M  V30 54725 C 5491.37 -0.86038 -3.36474 0
M  V30 54726 C 5490.32 -1.92438 -3.82298 0
M  V30 54727 C 5489.65 -1.45886 -5.14414 0
M  V30 54728 C 5490.95 -3.33405 -4.02042 0
M  V30 54729 H 5492.64 -2.11696 -2.1172 0
M  V30 54730 H 5490.19 -1.01919 -1.01727 0
M  V30 54731 H 5492.14 -0.764133 -4.14414 0
M  V30 54732 H 5490.86 0.113175 -3.26404 0
M  V30 54733 H 5489.52 -2.0101 -3.06579 0
M  V30 54734 H 5489.17 -0.47383 -5.00763 0
M  V30 54735 H 5488.87 -2.17047 -5.46044 0
M  V30 54736 H 5490.4 -1.37622 -5.94889 0
M  V30 54737 H 5491.81 -3.27645 -4.70449 0
M  V30 54738 H 5490.21 -4.02571 -4.45036 0
M  V30 54739 H 5491.28 -3.75989 -3.06203 0
M  V30 54740 N 5492.62 1.10545 -1.12328 0
M  V30 54741 C 5493.58 2.15036 -0.793231 0
M  V30 54742 C 5494.58 1.59651 0.191863 0
M  V30 54743 O 5495.77 1.74167 -0.0337875 0
M  V30 54744 C 5492.9 3.40432 -0.17854 0
M  V30 54745 H 5494.1 2.45744 -1.71901 0
M  V30 54746 H 5491.65 1.25889 -0.926378 0
M  V30 54747 H 5492.39 3.15341 0.757011 0
M  V30 54748 H 5492.17 3.81917 -0.887779 0
M  V30 54749 H 5493.66 4.17585 0.0359256 0
M  V30 54750 N 5494.1 0.91501 1.28317 0
M  V30 54751 C 5495.05 0.394557 2.29229 0
M  V30 54752 C 5496.04 -0.514424 1.614 0
M  V30 54753 O 5497.25 -0.39553 1.75601 0
M  V30 54754 H 5493.62 0.108996 0.744059 0
M  V30 54755 H 5495.59 1.25872 2.70553 0
M  V30 54756 C 5494.34 -0.349012 3.45944 0
M  V30 54757 H 5493.66 0.341227 3.98341 0
M  V30 54758 H 5495.1 -0.677797 4.18547 0
M  V30 54759 C 5493.56 -1.55737 2.98743 0
M  V30 54760 O 5494.09 -2.65643 3.01325 0
M  V30 54761 N 5492.3 -1.40479 2.54389 0
M  V30 54762 H 5491.85 -0.510628 2.52488 0
M  V30 54763 H 5491.8 -2.21456 2.23169 0
M  V30 54764 N 5495.58 -1.42217 0.679127 0
M  V30 54765 C 5496.99 -1.55735 0.349088 0
M  V30 54766 C 5497.19 -1.65793 -1.14521 0
M  V30 54767 O 5496.25 -1.62724 -1.93073 0
M  V30 54768 C 5497.56 -2.80513 1.0832 0
M  V30 54769 C 5499.11 -2.9429 1.06594 0
M  V30 54770 C 5499.58 -4.21933 1.78147 0
M  V30 54771 N 5501.07 -4.28855 1.75036 0
M  V30 54772 C 5501.81 -5.26445 2.27252 0
M  V30 54773 N 5501.31 -6.30161 2.87869 0
M  V30 54774 N 5503.1 -5.18272 2.17602 0
M  V30 54775 H 5495.25 -1.33933 1.64851 0
M  V30 54776 H 5497.51 -0.645004 0.694747 0
M  V30 54777 H 5497.22 -2.79234 2.13825 0
M  V30 54778 H 5497.09 -3.71536 0.651199 0
M  V30 54779 H 5499.48 -2.95094 0.0192099 0
M  V30 54780 H 5499.56 -2.04485 1.53686 0
M  V30 54781 H 5499.2 -4.21891 2.82791 0
M  V30 54782 H 5499.13 -5.10681 1.28501 0
M  V30 54783 H 5501.63 -3.54532 1.30826 0
M  V30 54784 H 5501.94 -7.00989 3.25322 0
M  V30 54785 H 5500.28 -6.3071 2.91941 0
M  V30 54786 H 5503.47 -4.36166 1.69931 0
M  V30 54787 H 5503.65 -5.94163 2.58602 0
M  V30 54788 N 5497.05 -0.422747 -1.51824 0
M  V30 54789 C 5497.99 0.431591 -2.251 0
M  V30 54790 C 5499 0.998712 -1.28567 0
M  V30 54791 O 5500.19 0.895336 -1.54421 0
M  V30 54792 C 5497.29 1.61416 -2.9799 0
M  V30 54793 C 5496.46 1.16851 -4.21503 0
M  V30 54794 C 5495.52 2.21953 -4.77099 0
M  V30 54795 O 5494.55 1.81985 -5.39324 0
M  V30 54796 N 5495.75 3.54277 -4.59857 0
M  V30 54797 H 5498.51 -0.196361 -2.99056 0
M  V30 54798 H 5496.07 -0.250847 -1.59945 0
M  V30 54799 H 5498.07 2.3132 -3.32074 0
M  V30 54800 H 5496.64 2.14775 -2.27136 0
M  V30 54801 H 5495.86 0.297079 -3.93079 0
M  V30 54802 H 5497.14 0.847929 -5.01685 0
M  V30 54803 H 5496.54 3.89491 -4.1026 0
M  V30 54804 H 5495.1 4.20117 -4.98342 0
M  V30 54805 N 5498.53 1.5685 -0.153609 0
M  V30 54806 C 5499.94 1.83075 0.366116 0
M  V30 54807 C 5500.29 1.07263 1.64284 0
M  V30 54808 O 5499.42 0.32 2.14021 0
M  V30 54809 C 5500.01 3.32088 0.671025 0
M  V30 54810 C 5498.57 3.58872 1.13525 0
M  V30 54811 C 5497.72 2.76828 0.161789 0
M  V30 54812 H 5500.67 1.54128 -0.378193 0
M  V30 54813 H 5500.69 3.48603 1.525 0
M  V30 54814 H 5500.2 3.87239 -0.25837 0
M  V30 54815 H 5498.31 3.09115 2.08036 0
M  V30 54816 H 5498.42 4.67303 1.05665 0
M  V30 54817 H 5496.78 2.46115 0.655714 0
M  V30 54818 H 5497.57 3.34752 -0.761313 0
M  V30 54819 N 5500.01 -0.120166 1.57141 0
M  V30 54820 C 5501.29 -0.858396 1.75758 0
M  V30 54821 C 5501.67 -1.98122 0.728763 0
M  V30 54822 O 5501.02 -2.27156 -0.247493 0
M  V30 54823 C 5501.23 -1.37616 3.20723 0
M  V30 54824 C 5502.57 -1.82896 3.8319 0
M  V30 54825 O 5503.6 -1.47297 3.24318 0
M  V30 54826 O 5502.46 -2.48633 4.86666 0
M  V30 54827 H 5499.55 -0.407558 0.719601 0
M  V30 54828 H 5502.1 -0.103997 1.69381 0
M  V30 54829 H 5500.87 -0.570515 3.87119 0
M  V30 54830 H 5500.49 -2.19329 3.31633 0
M  V30 54831 N 5501.49 -1.5269 -0.390313 0
M  V30 54832 C 5502.74 -1.6767 -1.13547 0
M  V30 54833 C 5503.06 -0.41597 -1.9 0
M  V30 54834 O 5502.32 0.601599 -1.86224 0
M  V30 54835 C 5502.62 -2.86185 -2.14086 0
M  V30 54836 C 5502.28 -4.23677 -1.54301 0
M  V30 54837 C 5500.95 -4.6107 -1.37722 0
M  V30 54838 C 5503.3 -5.09282 -1.10822 0
M  V30 54839 C 5500.63 -5.81729 -0.762105 0
M  V30 54840 C 5502.98 -6.30563 -0.507212 0
M  V30 54841 C 5501.64 -6.6669 -0.328711 0
M  V30 54842 H 5500.91 -0.613548 -0.4155 0
M  V30 54843 H 5503.56 -1.86831 -0.420274 0
M  V30 54844 H 5501.86 -2.61435 -2.9182 0
M  V30 54845 H 5503.56 -2.9497 -2.7165 0
M  V30 54846 H 5500.15 -3.9422 -1.68193 0
M  V30 54847 H 5504.33 -4.80961 -1.22433 0
M  V30 54848 H 5499.59 -6.08329 -0.611994 0
M  V30 54849 H 5503.76 -6.96212 -0.162003 0
M  V30 54850 H 5501.39 -7.60052 0.150016 0
M  V30 54851 N 5502.97 0.648681 -1.43631 0
M  V30 54852 C 5504.22 1.40441 -1.44773 0
M  V30 54853 C 5504.53 1.95447 -0.0774132 0
M  V30 54854 O 5505.73 2.71479 0.0336987 0
M  V30 54855 C 5504.19 2.54185 -2.5479 0
M  V30 54856 C 5503.8 2.05767 -3.9795 0
M  V30 54857 C 5505.54 3.31519 -2.65132 0
M  V30 54858 C 5503.45 3.16749 -4.99424 0
M  V30 54859 H 5502.38 0.527698 -0.538563 0
M  V30 54860 H 5505.03 0.699697 -1.69636 0
M  V30 54861 H 5503.41 3.27148 -2.23137 0
M  V30 54862 H 5504.59 1.39785 -4.39086 0
M  V30 54863 H 5502.9 1.41299 -3.91693 0
M  V30 54864 H 5505.5 4.14221 -3.38119 0
M  V30 54865 H 5505.84 3.79849 -1.70354 0
M  V30 54866 H 5506.37 2.65639 -2.9611 0
M  V30 54867 H 5503.11 2.73383 -5.9577 0
M  V30 54868 H 5502.63 3.81429 -4.62895 0
M  V30 54869 H 5504.31 3.81808 -5.22333 0
M  V30 54870 N 5504.44 1.30237 0.887472 0
M  V30 54871 C 5505.67 1.21961 1.6775 0
M  V30 54872 C 5506.09 -0.214635 1.86871 0
M  V30 54873 O 5505.45 -1.15454 1.39786 0
M  V30 54874 C 5505.5 1.9509 3.03269 0
M  V30 54875 O 5504.6 1.27629 3.92154 0
M  V30 54876 H 5503.95 0.421966 0.51268 0
M  V30 54877 H 5506.48 1.72015 1.10779 0
M  V30 54878 H 5506.49 2.04016 3.53329 0
M  V30 54879 H 5505.16 2.99402 2.88671 0
M  V30 54880 H 5503.74 1.27041 3.50592 0
M  V30 54881 N 5505.92 -1.09948 1.12913 0
M  V30 54882 C 5507.17 -1.82013 0.887546 0
M  V30 54883 C 5507.5 -1.85447 -0.586481 0
M  V30 54884 O 5506.75 -1.31451 -1.4498 0
M  V30 54885 C 5507.05 -3.28247 1.41381 0
M  V30 54886 C 5506.72 -3.44954 2.90374 0
M  V30 54887 C 5505.38 -3.49222 3.31055 0
M  V30 54888 C 5507.73 -3.49934 3.86259 0
M  V30 54889 C 5505.06 -3.56041 4.66317 0
M  V30 54890 C 5507.41 -3.58286 5.21357 0
M  V30 54891 C 5506.08 -3.6082 5.61574 0
M  V30 54892 H 5505.35 -0.666034 0.324776 0
M  V30 54893 H 5507.99 -1.29563 1.41016 0
M  V30 54894 H 5506.3 -3.83298 0.811765 0
M  V30 54895 H 5507.99 -3.82529 1.20303 0
M  V30 54896 H 5504.58 -3.42314 2.57913 0
M  V30 54897 H 5508.77 -3.45882 3.5592 0
M  V30 54898 H 5504.02 -3.56287 4.9686 0
M  V30 54899 H 5508.2 -3.61084 5.95476 0
M  V30 54900 H 5505.83 -3.65857 6.66373 0
M  V30 54901 N 5507.4 -0.921802 -1.2783 0
M  V30 54902 C 5508.65 -0.558042 -1.94243 0
M  V30 54903 C 5508.97 0.902619 -1.72852 0
M  V30 54904 O 5508.24 1.63911 -1.07285 0
M  V30 54905 H 5506.82 -0.203389 -0.718778 0
M  V30 54906 H 5509.48 -1.17291 -1.55656 0
M  V30 54907 H 5508.58 -0.759309 -3.02722 0
M  V30 54908 N 5508.88 1.41855 -0.686659 0
M  V30 54909 C 5509.81 2.33481 -0.0299174 0
M  V30 54910 C 5510.79 1.51332 0.776703 0
M  V30 54911 O 5511.97 1.79898 0.731472 0
M  V30 54912 C 5509.1 3.35068 0.913589 0
M  V30 54913 C 5508.06 4.27461 0.21471 0
M  V30 54914 C 5507.38 5.19351 1.27197 0
M  V30 54915 C 5508.68 5.14249 -0.913548 0
M  V30 54916 H 5510.38 2.88648 -0.795168 0
M  V30 54917 H 5507.92 1.3879 -0.383834 0
M  V30 54918 H 5509.88 3.98087 1.3822 0
M  V30 54919 H 5508.6 2.78232 1.7104 0
M  V30 54920 H 5507.26 3.65854 -0.233779 0
M  V30 54921 H 5506.91 4.58834 2.06108 0
M  V30 54922 H 5506.61 5.81999 0.809405 0
M  V30 54923 H 5508.13 5.85245 1.74127 0
M  V30 54924 H 5509.55 5.70885 -0.525624 0
M  V30 54925 H 5507.94 5.85791 -1.30264 0
M  V30 54926 H 5509.01 4.51943 -1.75715 0
M  V30 54927 N 5510.36 0.430792 1.51598 0
M  V30 54928 C 5511.6 -0.138062 2.0233 0
M  V30 54929 C 5511.94 -1.4293 1.31472 0
M  V30 54930 O 5511.21 -1.89741 0.427618 0
M  V30 54931 C 5511.49 -0.363551 3.5826 0
M  V30 54932 C 5511.35 0.945874 4.39742 0
M  V30 54933 C 5512.67 -1.13622 4.2518 0
M  V30 54934 H 5509.78 -0.0487028 0.735389 0
M  V30 54935 H 5512.43 0.568507 1.81295 0
M  V30 54936 H 5510.58 -0.96542 3.76314 0
M  V30 54937 H 5512.25 1.58122 4.33353 0
M  V30 54938 H 5510.49 1.55197 4.05088 0
M  V30 54939 H 5511.16 0.742223 5.46987 0
M  V30 54940 H 5513.64 -0.626464 4.11357 0
M  V30 54941 H 5512.51 -1.26275 5.34178 0
M  V30 54942 H 5512.78 -2.16259 3.85596 0
M  V30 54943 N 5511.83 -1.56766 0.161924 0
M  V30 54944 C 5513.08 -1.96207 -0.484468 0
M  V30 54945 C 5513.4 -1.04854 -1.6441 0
M  V30 54946 O 5512.67 -0.113014 -1.95574 0
M  V30 54947 H 5511.25 -0.724497 -0.181968 0
M  V30 54948 H 5513.92 -1.93405 0.240913 0
M  V30 54949 H 5513.01 -3.00282 -0.850725 0
M  V30 54950 N 5513.31 0.11183 -1.57203 0
M  V30 54951 C 5514.56 0.816729 -1.84862 0
M  V30 54952 C 5514.88 1.80076 -0.748176 0
M  V30 54953 O 5514.15 1.94578 0.227166 0
M  V30 54954 H 5512.73 0.304609 -0.682072 0
M  V30 54955 H 5515.39 0.0974446 -1.94656 0
M  V30 54956 H 5514.49 1.35758 -2.81027 0
M  V30 54957 N 5514.79 1.52895 0.38221 0
M  V30 54958 C 5516.21 1.42297 0.722752 0
M  V30 54959 C 5516.41 0.548785 1.93883 0
M  V30 54960 O 5515.46 0.0248319 2.52488 0
M  V30 54961 C 5516.78 2.85249 0.951499 0
M  V30 54962 C 5518.32 2.94772 1.05255 0
M  V30 54963 C 5518.8 4.3875 1.31388 0
M  V30 54964 N 5520.29 4.42105 1.38195 0
M  V30 54965 C 5521.03 5.50597 1.60094 0
M  V30 54966 N 5520.52 6.69164 1.79418 0
M  V30 54967 N 5522.31 5.3815 1.62328 0
M  V30 54968 H 5514.47 2.08249 -0.417889 0
M  V30 54969 H 5516.73 0.939748 -0.124809 0
M  V30 54970 H 5516.43 3.5146 0.129965 0
M  V30 54971 H 5516.31 3.27909 1.86428 0
M  V30 54972 H 5518.7 2.28725 1.86464 0
M  V30 54973 H 5518.78 2.5553 0.117529 0
M  V30 54974 H 5518.42 5.05365 0.506861 0
M  V30 54975 H 5518.35 4.7555 2.26186 0
M  V30 54976 H 5520.84 3.56648 1.24942 0
M  V30 54977 H 5521.15 7.47622 1.95654 0
M  V30 54978 H 5519.5 6.72181 1.7663 0
M  V30 54979 H 5522.69 4.4449 1.46787 0
M  V30 54980 H 5522.86 6.22771 1.79055 0
M  V30 54981 N 5516.27 -0.641055 1.43973 0
M  V30 54982 C 5517.68 -1.22249 1.4111 0
M  V30 54983 C 5518.03 -1.95824 0.121352 0
M  V30 54984 O 5517.16 -2.01903 -0.778719 0
M  V30 54985 C 5517.75 -2.22355 2.55624 0
M  V30 54986 C 5516.31 -2.75948 2.55987 0
M  V30 54987 C 5515.46 -1.50783 2.32722 0
M  V30 54988 H 5518.41 -0.432328 1.52698 0
M  V30 54989 H 5518.43 -3.04767 2.2781 0
M  V30 54990 H 5517.94 -1.68777 3.49479 0
M  V30 54991 H 5516.04 -3.33556 1.66046 0
M  V30 54992 H 5516.16 -3.22664 3.54154 0
M  V30 54993 H 5514.52 -1.78564 1.81623 0
M  V30 54994 H 5515.3 -0.991228 3.28679 0
M  V30 54995 N 5517.75 -1.30706 -0.880552 0
M  V30 54996 C 5518.66 -1.19396 -2.01945 0
M  V30 54997 C 5519.67 -0.112929 -1.73633 0
M  V30 54998 O 5520.85 -0.328713 -1.98699 0
M  V30 54999 C 5517.91 -0.891121 -3.35052 0
M  V30 55000 C 5516.98 -2.05797 -3.76757 0
M  V30 55001 C 5516.21 -1.76949 -5.03512 0
M  V30 55002 O 5516.43 -0.699525 -5.66094 0
M  V30 55003 O 5515.37 -2.62319 -5.41731 0
M  V30 55004 H 5519.19 -2.15081 -2.14415 0
M  V30 55005 H 5516.78 -1.10342 -1.00722 0
M  V30 55006 H 5518.66 -0.737622 -4.14894 0
M  V30 55007 H 5517.33 0.0357771 -3.2368 0
M  V30 55008 H 5516.24 -2.26682 -2.976 0
M  V30 55009 H 5517.57 -2.96675 -3.9274 0
M  V30 55010 N 5519.23 1.09347 -1.13494 0
M  V30 55011 C 5520.47 1.8154 -0.897186 0
M  V30 55012 C 5520.8 1.85756 0.576638 0
M  V30 55013 O 5520.06 1.32218 1.44281 0
M  V30 55014 C 5520.35 3.27493 -1.43119 0
M  V30 55015 C 5520.02 3.4341 -2.922 0
M  V30 55016 C 5518.68 3.47461 -3.32903 0
M  V30 55017 C 5521.03 3.4788 -3.88109 0
M  V30 55018 C 5518.36 3.53563 -4.68199 0
M  V30 55019 C 5520.71 3.55516 -5.2325 0
M  V30 55020 C 5519.38 3.57837 -5.63479 0
M  V30 55021 H 5518.65 0.664302 -0.328304 0
M  V30 55022 H 5521.3 1.28814 -1.41701 0
M  V30 55023 H 5519.6 3.82862 -0.832081 0
M  V30 55024 H 5521.3 3.81885 -1.2233 0
M  V30 55025 H 5517.89 3.40941 -2.59725 0
M  V30 55026 H 5522.07 3.4399 -3.57749 0
M  V30 55027 H 5517.33 3.53647 -4.98742 0
M  V30 55028 H 5521.5 3.57921 -5.97383 0
M  V30 55029 H 5519.13 3.62318 -6.68304 0
M  V30 55030 N 5520.7 0.928568 1.2734 0
M  V30 55031 C 5522.12 0.628942 1.46685 0
M  V30 55032 C 5522.32 -0.821527 1.83992 0
M  V30 55033 O 5521.38 -1.59934 1.95391 0
M  V30 55034 C 5522.69 1.57956 2.55872 0
M  V30 55035 C 5524.24 1.58788 2.69732 0
M  V30 55036 C 5524.71 2.52548 3.82078 0
M  V30 55037 N 5526.2 2.5076 3.89453 0
M  V30 55038 C 5526.94 3.19998 4.75803 0
M  V30 55039 N 5526.43 3.98618 5.66635 0
M  V30 55040 N 5528.23 3.09012 4.6954 0
M  V30 55041 H 5520.38 1.86629 1.01408 0
M  V30 55042 H 5522.64 0.801311 0.506562 0
M  V30 55043 H 5522.35 2.61435 2.35254 0
M  V30 55044 H 5522.22 1.32193 3.53277 0
M  V30 55045 H 5524.61 0.560394 2.8973 0
M  V30 55046 H 5524.69 1.886 1.72811 0
M  V30 55047 H 5524.33 3.55408 3.62833 0
M  V30 55048 H 5524.26 2.20031 4.78428 0
M  V30 55049 H 5526.75 1.93663 3.24504 0
M  V30 55050 H 5527.07 4.48432 6.29387 0
M  V30 55051 H 5525.41 4.02721 5.66428 0
M  V30 55052 H 5528.6 2.47084 3.97577 0
M  V30 55053 H 5528.78 3.63242 5.36618 0
M  V30 55054 N 5522.18 -1.41489 0.694172 0
M  V30 55055 C 5523.43 -2.01251 0.224548 0
M  V30 55056 C 5523.76 -1.5497 -1.17536 0
M  V30 55057 O 5523.01 -0.751105 -1.80712 0
M  V30 55058 C 5523.31 -3.56666 0.228994 0
M  V30 55059 C 5522.98 -4.22452 1.57623 0
M  V30 55060 C 5521.64 -4.40137 1.94506 0
M  V30 55061 C 5523.99 -4.59352 2.46263 0
M  V30 55062 C 5521.32 -4.91998 3.19617 0
M  V30 55063 C 5523.67 -5.12602 3.70705 0
M  V30 55064 C 5522.33 -5.28498 4.07733 0
M  V30 55065 H 5521.6 -0.73643 0.0821678 0
M  V30 55066 H 5524.25 -1.69405 0.892986 0
M  V30 55067 H 5522.56 -3.88294 -0.522991 0
M  V30 55068 H 5524.25 -4.00712 -0.151878 0
M  V30 55069 H 5520.84 -4.09061 1.27935 0
M  V30 55070 H 5525.03 -4.45344 2.19048 0
M  V30 55071 H 5520.28 -5.02489 3.48302 0
M  V30 55072 H 5524.46 -5.40134 4.39577 0
M  V30 55073 H 5522.08 -5.68446 5.0475 0
M  V30 55074 N 5523.66 -0.438826 -1.51367 0
M  V30 55075 C 5524.94 0.187152 -1.94703 0
M  V30 55076 C 5525.32 1.59957 -1.37757 0
M  V30 55077 O 5524.66 2.21398 -0.565249 0
M  V30 55078 C 5524.87 0.163368 -3.48617 0
M  V30 55079 C 5526.22 0.368206 -4.23 0
M  V30 55080 O 5527.25 0.241416 -3.55381 0
M  V30 55081 O 5526.11 0.620725 -5.42963 0
M  V30 55082 H 5523.2 0.129165 -0.816851 0
M  V30 55083 H 5525.75 -0.496912 -1.62262 0
M  V30 55084 H 5524.52 -0.824016 -3.82525 0
M  V30 55085 H 5524.14 0.890278 -3.87505 0
M  V30 55086 N 5525.14 1.56678 -0.170236 0
M  V30 55087 C 5526.1 2.16701 0.746546 0
M  V30 55088 C 5527.1 1.11479 1.15884 0
M  V30 55089 O 5528.29 1.36998 1.07597 0
M  V30 55090 C 5525.42 2.74899 2.01602 0
M  V30 55091 H 5526.62 2.99062 0.22403 0
M  V30 55092 H 5524.17 1.56099 0.0793212 0
M  V30 55093 H 5524.9 1.96268 2.58165 0
M  V30 55094 H 5524.69 3.51902 1.72937 0
M  V30 55095 H 5526.18 3.21068 2.67031 0
M  V30 55096 N 5526.62 -0.103492 1.5726 0
M  V30 55097 C 5527.86 -0.806914 1.85292 0
M  V30 55098 C 5528.18 -1.79677 0.757716 0
M  V30 55099 O 5527.45 -1.94696 -0.216844 0
M  V30 55100 H 5526.03 -0.300988 0.683678 0
M  V30 55101 H 5528.7 -0.0871201 1.94705 0
M  V30 55102 H 5527.79 -1.34266 2.81743 0
M  V30 55103 N 5528.09 -1.53096 -0.374097 0
M  V30 55104 C 5529.32 -1.73065 -1.14294 0
M  V30 55105 C 5529.74 -0.454675 -1.82522 0
M  V30 55106 O 5529.1 0.590683 -1.71408 0
M  V30 55107 C 5529.15 -2.89094 -2.15539 0
M  V30 55108 O 5528.25 -2.57108 -3.22443 0
M  V30 55109 H 5527.6 -0.575021 -0.332034 0
M  V30 55110 H 5530.13 -1.99948 -0.433827 0
M  V30 55111 H 5530.14 -3.15016 -2.59285 0
M  V30 55112 H 5528.81 -3.81653 -1.6527 0
M  V30 55113 H 5527.39 -2.41975 -2.8373 0
M  V30 55114 N 5529.57 0.633411 -1.44311 0
M  V30 55115 C 5530.82 1.39026 -1.46684 0
M  V30 55116 C 5531.14 1.94745 -0.099785 0
M  V30 55117 O 5530.41 1.7564 0.867598 0
M  V30 55118 H 5528.99 0.516032 -0.540112 0
M  V30 55119 H 5531.65 0.745675 -1.80071 0
M  V30 55120 H 5530.75 2.22272 -2.19092 0
M  V30 55121 N 5531.05 1.31171 0.873608 0
M  V30 55122 C 5531.98 1.12843 1.98347 0
M  V30 55123 C 5532.96 0.032925 1.62567 0
M  V30 55124 O 5534.15 0.188656 1.87554 0
M  V30 55125 C 5531.27 0.723437 3.30884 0
M  V30 55126 C 5530.32 1.82146 3.85649 0
M  V30 55127 S 5531.15 3.42618 4.1155 0
M  V30 55128 C 5532.31 3.04047 5.47089 0
M  V30 55129 H 5532.54 2.06801 2.1359 0
M  V30 55130 H 5530.07 1.15615 1.02336 0
M  V30 55131 H 5532.03 0.496515 4.07486 0
M  V30 55132 H 5530.69 -0.196967 3.13482 0
M  V30 55133 H 5529.89 1.49063 4.81452 0
M  V30 55134 H 5529.49 2.00325 3.15826 0
M  V30 55135 H 5531.78 2.52714 6.28603 0
M  V30 55136 H 5532.72 3.988 5.85119 0
M  V30 55137 H 5533.13 2.41592 5.1019 0
M  V30 55138 N 5532.53 -1.08744 1.14072 0
M  V30 55139 C 5533.49 -2.13747 0.827341 0
M  V30 55140 C 5534.49 -1.59936 -0.16644 0
M  V30 55141 O 5535.68 -1.74091 0.0614917 0
M  V30 55142 C 5532.81 -3.40105 0.232677 0
M  V30 55143 H 5534.01 -2.42978 1.75788 0
M  V30 55144 H 5531.56 -1.24399 0.946288 0
M  V30 55145 H 5532.29 -3.16505 -0.706748 0
M  V30 55146 H 5532.08 -3.80457 0.948426 0
M  V30 55147 H 5533.57 -4.17589 0.030513 0
M  V30 55148 N 5534.01 -0.935308 -1.26845 0
M  V30 55149 C 5535.23 -0.596319 -1.9812 0
M  V30 55150 C 5535.65 0.827392 -1.69705 0
M  V30 55151 O 5535.01 1.55091 -0.961919 0
M  V30 55152 C 5535.06 -0.821897 -3.52033 0
M  V30 55153 O 5534.78 -2.18961 -3.79457 0
M  V30 55154 C 5536.28 -0.492653 -4.40554 0
M  V30 55155 H 5533.5 -0.225264 -0.632058 0
M  V30 55156 H 5536.04 -1.25441 -1.61508 0
M  V30 55157 H 5534.2 -0.210499 -3.86828 0
M  V30 55158 H 5534.61 -2.24526 -4.74013 0
M  V30 55159 H 5536.09 -0.701145 -5.47529 0
M  V30 55160 H 5536.56 0.572127 -4.35458 0
M  V30 55161 H 5537.17 -1.08252 -4.11293 0
M  V30 55162 N 5535.48 1.41118 -0.701666 0
M  V30 55163 C 5536.73 2.00358 -0.232285 0
M  V30 55164 C 5537.05 1.56236 1.17685 0
M  V30 55165 O 5538.25 2.08077 1.74402 0
M  V30 55166 C 5536.71 3.58051 -0.364383 0
M  V30 55167 C 5536.32 4.11152 -1.77927 0
M  V30 55168 C 5538.06 4.24476 0.0449135 0
M  V30 55169 C 5535.97 5.613 -1.8627 0
M  V30 55170 H 5534.9 0.749408 -0.0830872 0
M  V30 55171 H 5537.55 1.61525 -0.870746 0
M  V30 55172 H 5535.93 3.94517 0.342431 0
M  V30 55173 H 5537.1 3.86092 -2.51534 0
M  V30 55174 H 5535.42 3.57274 -2.13879 0
M  V30 55175 H 5538.02 5.347 0.00310411 0
M  V30 55176 H 5538.36 4.01922 1.08462 0
M  V30 55177 H 5538.89 3.93067 -0.611842 0
M  V30 55178 H 5535.63 5.88689 -2.88315 0
M  V30 55179 H 5535.15 5.88267 -1.17056 0
M  V30 55180 H 5536.83 6.26173 -1.62839 0
M  V30 55181 N 5536.96 0.446847 1.51133 0
M  V30 55182 C 5538.38 0.0996465 1.59289 0
M  V30 55183 C 5538.58 -1.39186 1.45704 0
M  V30 55184 O 5537.63 -2.16276 1.30311 0
M  V30 55185 C 5538.95 0.628238 2.94064 0
M  V30 55186 C 5540.5 0.589517 3.07398 0
M  V30 55187 C 5540.97 1.09524 4.44712 0
M  V30 55188 N 5542.46 1.05363 4.51058 0
M  V30 55189 C 5543.2 1.4157 5.55649 0
M  V30 55190 N 5542.69 1.85109 6.67612 0
M  V30 55191 N 5544.49 1.33326 5.46059 0
M  V30 55192 H 5536.64 1.41718 1.58208 0
M  V30 55193 H 5538.9 0.584581 0.746304 0
M  V30 55194 H 5538.61 1.67216 3.09405 0
M  V30 55195 H 5538.48 0.0583724 3.77155 0
M  V30 55196 H 5540.87 -0.445439 2.91719 0
M  V30 55197 H 5540.95 1.1959 2.26124 0
M  V30 55198 H 5540.59 2.12871 4.61138 0
M  V30 55199 H 5540.52 0.465306 5.2454 0
M  V30 55200 H 5543.01 0.734008 3.70703 0
M  V30 55201 H 5543.33 2.10949 7.43452 0
M  V30 55202 H 5541.67 1.89043 6.68796 0
M  V30 55203 H 5544.86 0.991708 4.57474 0
M  V30 55204 H 5545.03 1.61872 6.27456 0
M  V30 55205 N 5538.44 -1.56585 0.178542 0
M  V30 55206 C 5539.39 -2.14912 -0.761356 0
M  V30 55207 C 5540.37 -1.08532 -1.18784 0
M  V30 55208 O 5541.57 -1.34637 -1.149 0
M  V30 55209 C 5538.7 -2.79909 -1.98761 0
M  V30 55210 C 5537.78 -3.93457 -1.58279 0
M  V30 55211 N 5538.17 -4.97945 -0.887949 0
M  V30 55212 C 5536.47 -4.04752 -1.87329 0
M  V30 55213 C 5537.17 -5.77623 -0.687517 0
M  V30 55214 N 5536.15 -5.29474 -1.23118 0
M  V30 55215 H 5539.95 -2.93063 -0.22159 0
M  V30 55216 H 5537.46 -1.62385 -0.0218712 0
M  V30 55217 H 5539.46 -3.20077 -2.67126 0
M  V30 55218 H 5538.12 -2.03241 -2.53226 0
M  V30 55219 H 5539.13 -5.15022 -0.545206 0
M  V30 55220 H 5535.81 -3.39195 -2.4342 0
M  V30 55221 H 5537.2 -6.71759 -0.137514 0
M  V30 55222 N 5539.92 0.0951507 -1.57313 0
M  V30 55223 C 5541.33 0.649672 -1.75032 0
M  V30 55224 C 5541.68 1.79117 -0.800715 0
M  V30 55225 O 5540.81 2.1639 0.020807 0
M  V30 55226 C 5541.4 1.18529 -3.1739 0
M  V30 55227 C 5539.96 1.68588 -3.36534 0
M  V30 55228 C 5539.11 0.595436 -2.70832 0
M  V30 55229 H 5542.06 -0.130919 -1.58159 0
M  V30 55230 H 5542.08 2.05462 -3.20259 0
M  V30 55231 H 5541.59 0.354274 -3.8648 0
M  V30 55232 H 5539.69 2.54091 -2.72523 0
M  V30 55233 H 5539.8 1.77891 -4.4485 0
M  V30 55234 H 5538.17 1.03487 -2.32728 0
M  V30 55235 H 5538.95 -0.225004 -3.42562 0
M  V30 55236 N 5541.4 1.53292 0.365972 0
M  V30 55237 C 5542.62 1.73363 1.12928 0
M  V30 55238 C 5543.04 0.462416 1.8305 0
M  V30 55239 O 5542.4 -0.56465 1.73545 0
M  V30 55240 C 5542.45 2.89881 2.15989 0
M  V30 55241 O 5542.17 4.12084 1.48723 0
M  V30 55242 C 5543.67 3.21822 3.0487 0
M  V30 55243 H 5540.89 0.579839 0.337681 0
M  V30 55244 H 5543.43 2.00035 0.425011 0
M  V30 55245 H 5541.59 2.65605 2.82015 0
M  V30 55246 H 5542 4.77329 2.17387 0
M  V30 55247 H 5543.48 4.06757 3.73166 0
M  V30 55248 H 5543.95 2.37169 3.69658 0
M  V30 55249 H 5544.56 3.48022 2.44461 0
M  V30 55250 N 5542.88 -0.625749 1.44645 0
M  V30 55251 C 5544.29 -1.20746 1.42398 0
M  V30 55252 C 5544.64 -1.95685 0.142115 0
M  V30 55253 O 5543.76 -2.02718 -0.757261 0
M  V30 55254 C 5544.36 -2.19631 2.57968 0
M  V30 55255 C 5542.92 -2.73218 2.589 0
M  V30 55256 C 5542.06 -1.48307 2.34308 0
M  V30 55257 H 5545.01 -0.416108 1.53148 0
M  V30 55258 H 5545.04 -3.02334 2.31029 0
M  V30 55259 H 5544.55 -1.65061 3.5125 0
M  V30 55260 H 5542.65 -3.31776 1.69575 0
M  V30 55261 H 5542.76 -3.18889 3.57556 0
M  V30 55262 H 5541.13 -1.76628 1.83507 0
M  V30 55263 H 5541.91 -0.956311 3.29711 0
M  V30 55264 N 5544.35 -1.31632 -0.86664 0
M  V30 55265 C 5545.28 -1.22158 -1.98997 0
M  V30 55266 C 5546.26 -0.108032 -1.69757 0
M  V30 55267 O 5547.45 -0.293192 -1.91974 0
M  V30 55268 C 5544.58 -0.931558 -3.34573 0
M  V30 55269 C 5543.53 -2.00503 -3.7813 0
M  V30 55270 C 5542.86 -1.56765 -5.11203 0
M  V30 55271 C 5544.16 -3.41858 -3.9488 0
M  V30 55272 H 5545.85 -2.16139 -2.07182 0
M  V30 55273 H 5543.4 -1.04054 -0.995426 0
M  V30 55274 H 5545.35 -0.851864 -4.127 0
M  V30 55275 H 5544.08 0.0439141 -3.2657 0
M  V30 55276 H 5542.74 -2.07468 -3.02246 0
M  V30 55277 H 5542.38 -0.579943 -4.99646 0
M  V30 55278 H 5542.08 -2.28581 -5.41317 0
M  V30 55279 H 5543.61 -1.50209 -5.91836 0
M  V30 55280 H 5545.02 -3.3755 -4.63393 0
M  V30 55281 H 5543.42 -4.1192 -4.36396 0
M  V30 55282 H 5544.49 -3.824 -2.98159 0
M  V30 55283 N 5545.83 1.08138 -1.14647 0
M  V30 55284 C 5546.79 2.13305 -0.838665 0
M  V30 55285 C 5547.79 1.60022 0.157956 0
M  V30 55286 O 5548.98 1.74056 -0.0707233 0
M  V30 55287 C 5546.12 3.39977 -0.25071 0
M  V30 55288 H 5547.31 2.42043 -1.77074 0
M  V30 55289 H 5544.86 1.23895 -0.952872 0
M  V30 55290 H 5545.6 3.16876 0.689953 0
M  V30 55291 H 5545.38 3.79948 -0.96859 0
M  V30 55292 H 5546.87 4.17567 -0.0526583 0
M  V30 55293 N 5547.31 0.942022 1.26348 0
M  V30 55294 C 5548.24 0.469993 2.28721 0
M  V30 55295 C 5549.22 -0.477161 1.6327 0
M  V30 55296 O 5550.41 -0.378835 1.90469 0
M  V30 55297 C 5547.54 -0.264849 3.46289 0
M  V30 55298 C 5546.49 0.595831 4.23832 0
M  V30 55299 C 5545.82 -0.26902 5.34023 0
M  V30 55300 C 5547.12 1.8676 4.87768 0
M  V30 55301 H 5548.81 1.3256 2.68455 0
M  V30 55302 H 5546.36 0.638855 1.29053 0
M  V30 55303 H 5548.31 -0.606112 4.17018 0
M  V30 55304 H 5547.03 -1.1546 3.0551 0
M  V30 55305 H 5545.69 0.92 3.54868 0
M  V30 55306 H 5545.34 -1.15815 4.89485 0
M  V30 55307 H 5545.04 0.303457 5.86816 0
M  V30 55308 H 5546.56 -0.605534 6.0759 0
M  V30 55309 H 5547.98 1.59353 5.50708 0
M  V30 55310 H 5546.37 2.38471 5.50683 0
M  V30 55311 H 5547.44 2.57846 4.10662 0
M  V30 55312 N 5548.79 -1.40744 0.70914 0
M  V30 55313 C 5550.04 -2.00605 0.245395 0
M  V30 55314 C 5550.36 -1.56493 -1.1634 0
M  V30 55315 O 5549.63 -0.801519 -1.78753 0
M  V30 55316 H 5548.21 -0.74183 0.0877359 0
M  V30 55317 H 5550.87 -1.72175 0.913331 0
M  V30 55318 H 5549.96 -3.109 0.273432 0
M  V30 55319 N 5550.27 -0.454856 -1.50893 0
M  V30 55320 C 5551.22 0.365993 -2.25043 0
M  V30 55321 C 5552.2 0.975308 -1.27971 0
M  V30 55322 O 5553.39 0.890546 -1.52965 0
M  V30 55323 C 5550.52 1.45672 -3.10861 0
M  V30 55324 C 5549.61 0.85594 -4.15373 0
M  V30 55325 N 5550 -0.0140565 -5.05798 0
M  V30 55326 C 5548.3 1.12165 -4.31665 0
M  V30 55327 C 5549 -0.353334 -5.80626 0
M  V30 55328 N 5547.97 0.267457 -5.42942 0
M  V30 55329 H 5551.77 -0.304459 -2.92319 0
M  V30 55330 H 5549.29 -0.267994 -1.60174 0
M  V30 55331 H 5551.29 2.05781 -3.62574 0
M  V30 55332 H 5549.95 2.12933 -2.45132 0
M  V30 55333 H 5550.96 -0.381755 -5.16491 0
M  V30 55334 H 5547.63 1.79045 -3.77159 0
M  V30 55335 H 5549.02 -1.06236 -6.63448 0
M  V30 55336 N 5551.74 1.56489 -0.186844 0
M  V30 55337 C 5552.99 1.97343 0.454089 0
M  V30 55338 C 5553.32 1.07343 1.62197 0
M  V30 55339 O 5552.57 0.110769 1.95386 0
M  V30 55340 C 5552.87 3.44148 0.964194 0
M  V30 55341 C 5552.54 4.50811 -0.0894319 0
M  V30 55342 C 5551.2 4.79705 -0.378963 0
M  V30 55343 C 5553.55 5.14965 -0.803781 0
M  V30 55344 C 5550.88 5.70046 -1.38796 0
M  V30 55345 C 5553.23 6.06395 -1.80187 0
M  V30 55346 C 5551.9 6.33649 -2.09869 0
M  V30 55347 H 5551.17 0.722129 0.166163 0
M  V30 55348 H 5553.81 1.89411 -0.282075 0
M  V30 55349 H 5552.12 3.4911 1.77848 0
M  V30 55350 H 5553.82 3.73109 1.46937 0
M  V30 55351 H 5550.41 4.2835 0.146401 0
M  V30 55352 H 5554.59 4.92741 -0.593321 0
M  V30 55353 H 5549.85 5.89439 -1.62393 0
M  V30 55354 H 5554.02 6.55168 -2.36068 0
M  V30 55355 H 5551.65 7.03452 -2.882 0
M  V30 55356 N 5553.22 -0.0868067 1.57361 0
M  V30 55357 C 5554.17 -1.11127 1.99085 0
M  V30 55358 C 5555.16 -1.35315 0.870553 0
M  V30 55359 O 5556.35 -1.35867 1.13442 0
M  V30 55360 C 5553.48 -2.42922 2.42577 0
M  V30 55361 C 5552.56 -2.22072 3.6131 0
M  V30 55362 N 5552.95 -1.71111 4.75977 0
M  V30 55363 C 5551.25 -2.52606 3.67568 0
M  V30 55364 C 5551.95 -1.64726 5.57889 0
M  V30 55365 N 5550.93 -2.10239 5.01299 0
M  V30 55366 H 5554.73 -0.71033 2.85187 0
M  V30 55367 H 5552.24 -0.294112 1.59715 0
M  V30 55368 H 5554.24 -3.17059 2.70701 0
M  V30 55369 H 5552.9 -2.83746 1.57856 0
M  V30 55370 H 5553.91 -1.4019 4.98565 0
M  V30 55371 H 5550.59 -2.96898 2.93527 0
M  V30 55372 H 5551.98 -1.26306 6.59922 0
M  V30 55373 N 5554.7 -1.53484 -0.357838 0
M  V30 55374 C 5555.93 -1.7396 -1.12007 0
M  V30 55375 C 5556.34 -0.472117 -1.82802 0
M  V30 55376 O 5555.7 0.555438 -1.73842 0
M  V30 55377 C 5555.75 -2.91022 -2.14449 0
M  V30 55378 O 5555.47 -4.12867 -1.46535 0
M  V30 55379 C 5556.97 -3.23434 -3.03159 0
M  V30 55380 H 5554.19 -0.581621 -0.334601 0
M  V30 55381 H 5556.74 -2.00257 -0.414397 0
M  V30 55382 H 5554.89 -2.67097 -2.80603 0
M  V30 55383 H 5555.31 -4.78475 -2.14853 0
M  V30 55384 H 5556.78 -4.0873 -3.71004 0
M  V30 55385 H 5557.26 -2.39127 -3.68395 0
M  V30 55386 H 5557.86 -3.49313 -2.42612 0
M  V30 55387 N 5556.18 0.618069 -1.44975 0
M  V30 55388 C 5557.42 1.37939 -1.48663 0
M  V30 55389 C 5557.76 1.93805 -0.123817 0
M  V30 55390 O 5557.03 1.74437 0.860339 0
M  V30 55391 C 5557.31 2.53506 -2.55748 0
M  V30 55392 C 5557.17 2.02904 -4.01435 0
M  V30 55393 C 5558.49 3.55665 -2.59212 0
M  V30 55394 H 5555.61 0.500204 -0.541262 0
M  V30 55395 H 5558.25 0.697678 -1.76727 0
M  V30 55396 H 5556.4 3.1166 -2.31948 0
M  V30 55397 H 5558.07 1.49479 -4.3641 0
M  V30 55398 H 5556.31 1.33984 -4.1259 0
M  V30 55399 H 5556.98 2.86165 -4.72032 0
M  V30 55400 H 5559.46 3.07333 -2.8051 0
M  V30 55401 H 5558.34 4.3403 -3.3602 0
M  V30 55402 H 5558.6 4.10595 -1.63902 0
M  V30 55403 N 5557.66 1.3209 0.859647 0
M  V30 55404 C 5558.88 1.25354 1.64602 0
M  V30 55405 C 5559.3 -0.179359 1.87946 0
M  V30 55406 O 5558.66 -1.11481 1.44493 0
M  V30 55407 C 5558.71 2.0048 3.00815 0
M  V30 55408 O 5558.43 3.38178 2.78508 0
M  V30 55409 C 5559.93 2.00708 3.95261 0
M  V30 55410 H 5557.15 0.43271 0.512838 0
M  V30 55411 H 5559.69 1.74134 1.07227 0
M  V30 55412 H 5557.85 1.55436 3.5485 0
M  V30 55413 H 5558.26 3.76566 3.651 0
M  V30 55414 H 5559.74 2.57765 4.8812 0
M  V30 55415 H 5560.21 0.992111 4.27848 0
M  V30 55416 H 5560.82 2.45678 3.47163 0
M  V30 55417 N 5559.13 -1.07528 1.15219 0
M  V30 55418 C 5560.06 -2.16677 0.870247 0
M  V30 55419 C 5561.05 -1.69162 -0.178424 0
M  V30 55420 O 5562.23 -1.94172 -0.0331807 0
M  V30 55421 C 5559.36 -3.45462 0.356787 0
M  V30 55422 C 5558.31 -4.06419 1.34193 0
M  V30 55423 C 5557.64 -5.30263 0.687392 0
M  V30 55424 C 5558.94 -4.46656 2.70731 0
M  V30 55425 H 5560.63 -2.4052 1.78299 0
M  V30 55426 H 5558.18 -1.15595 0.858706 0
M  V30 55427 H 5560.13 -4.21143 0.147095 0
M  V30 55428 H 5558.86 -3.21201 -0.591414 0
M  V30 55429 H 5557.52 -3.3278 1.53795 0
M  V30 55430 H 5557.16 -5.02291 -0.2669 0
M  V30 55431 H 5556.86 -5.72004 1.34482 0
M  V30 55432 H 5558.39 -6.08651 0.487432 0
M  V30 55433 H 5559.8 -5.13474 2.54985 0
M  V30 55434 H 5558.2 -4.99343 3.32831 0
M  V30 55435 H 5559.27 -3.58112 3.26931 0
M  V30 55436 N 5560.61 -0.948709 -1.25846 0
M  V30 55437 C 5561.54 -0.482116 -2.28469 0
M  V30 55438 C 5562.52 0.468496 -1.63521 0
M  V30 55439 O 5563.71 0.368729 -1.90667 0
M  V30 55440 C 5560.84 0.246481 -3.46424 0
M  V30 55441 C 5559.79 -0.618299 -4.2351 0
M  V30 55442 C 5559.12 0.240696 -5.34158 0
M  V30 55443 C 5560.42 -1.89344 -4.86771 0
M  V30 55444 H 5562.11 -1.33982 -2.67748 0
M  V30 55445 H 5559.66 -0.64569 -1.28712 0
M  V30 55446 H 5561.61 0.583988 -4.17334 0
M  V30 55447 H 5560.34 1.13838 -3.06118 0
M  V30 55448 H 5558.99 -0.938807 -3.54375 0
M  V30 55449 H 5558.64 1.13218 -4.90093 0
M  V30 55450 H 5558.34 -0.334573 -5.86647 0
M  V30 55451 H 5559.87 0.573303 -6.07903 0
M  V30 55452 H 5561.28 -1.62271 -5.49855 0
M  V30 55453 H 5559.68 -2.41388 -5.4941 0
M  V30 55454 H 5560.75 -2.6002 -4.09289 0
M  V30 55455 N 5562.09 1.40366 -0.716594 0
M  V30 55456 C 5563.51 1.54755 -0.390256 0
M  V30 55457 C 5563.71 1.68771 1.10085 0
M  V30 55458 O 5562.76 1.67786 1.88691 0
M  V30 55459 C 5564.08 2.77542 -1.15719 0
M  V30 55460 C 5565.62 2.9136 -1.1436 0
M  V30 55461 C 5566.1 4.17062 -1.89271 0
M  V30 55462 N 5567.59 4.24064 -1.86345 0
M  V30 55463 C 5568.32 5.20234 -2.4113 0
M  V30 55464 N 5567.82 6.22307 -3.04476 0
M  V30 55465 N 5569.61 5.1232 -2.31267 0
M  V30 55466 H 5561.76 1.29515 -1.68344 0
M  V30 55467 H 5564.03 0.626357 -0.711604 0
M  V30 55468 H 5563.73 2.73467 -2.21154 0
M  V30 55469 H 5563.61 3.69679 -0.749477 0
M  V30 55470 H 5565.99 2.94939 -0.097442 0
M  V30 55471 H 5566.08 2.00338 -1.59054 0
M  V30 55472 H 5565.72 4.14245 -2.93877 0
M  V30 55473 H 5565.65 5.07094 -1.41996 0
M  V30 55474 H 5568.14 3.50939 -1.4018 0
M  V30 55475 H 5568.45 6.92117 -3.43793 0
M  V30 55476 H 5566.8 6.22748 -3.0856 0
M  V30 55477 H 5569.99 4.31508 -1.81435 0
M  V30 55478 H 5570.16 5.87097 -2.74264 0
M  V30 55479 N 5563.57 0.462852 1.5065 0
M  V30 55480 C 5564.79 -0.0951998 2.07181 0
M  V30 55481 C 5565.22 -1.33474 1.32538 0
M  V30 55482 O 5564.58 -1.77471 0.370627 0
M  V30 55483 C 5564.62 -0.370466 3.58692 0
M  V30 55484 O 5563.73 -1.45246 3.85976 0
M  V30 55485 H 5563.07 0.00935036 0.663934 0
M  V30 55486 H 5565.6 0.651526 1.93949 0
M  V30 55487 H 5565.61 -0.613409 4.03362 0
M  V30 55488 H 5564.28 0.535364 4.1244 0
M  V30 55489 H 5562.86 -1.19748 3.5315 0
M  V30 55490 N 5565.05 -1.56387 0.19514 0
M  V30 55491 C 5565.98 -2.22093 -0.720893 0
M  V30 55492 C 5566.96 -1.18405 -1.22124 0
M  V30 55493 O 5568.14 -1.46911 -1.27007 0
M  V30 55494 C 5565.27 -2.88032 -1.94049 0
M  V30 55495 C 5564.23 -3.97965 -1.57506 0
M  V30 55496 C 5563.55 -4.51068 -2.87127 0
M  V30 55497 C 5564.85 -5.16368 -0.784963 0
M  V30 55498 H 5566.55 -2.98899 -0.17314 0
M  V30 55499 H 5564.09 -1.43767 -0.0818362 0
M  V30 55500 H 5566.05 -3.3268 -2.58654 0
M  V30 55501 H 5564.77 -2.08631 -2.51278 0
M  V30 55502 H 5563.43 -3.54007 -0.952591 0
M  V30 55503 H 5563.08 -3.6843 -3.42445 0
M  V30 55504 H 5562.78 -5.25246 -2.6342 0
M  V30 55505 H 5564.3 -4.98418 -3.5272 0
M  V30 55506 H 5565.71 -5.57561 -1.33412 0
M  V30 55507 H 5564.11 -5.96613 -0.646022 0
M  V30 55508 H 5565.18 -4.84428 0.213959 0
M  V30 55509 N 5566.52 0.0784603 -1.57405 0
M  V30 55510 C 5567.75 0.791975 -1.91142 0
M  V30 55511 C 5568.17 1.71456 -0.790468 0
M  V30 55512 O 5567.52 1.8096 0.236598 0
M  V30 55513 C 5567.58 1.59127 -3.24593 0
M  V30 55514 O 5567.3 0.705779 -4.32378 0
M  V30 55515 C 5568.8 2.40637 -3.72302 0
M  V30 55516 H 5566.02 0.225543 -0.631958 0
M  V30 55517 H 5568.56 0.0507211 -2.04437 0
M  V30 55518 H 5566.72 2.28487 -3.12846 0
M  V30 55519 H 5567.13 1.26104 -5.09115 0
M  V30 55520 H 5568.6 2.92188 -4.68327 0
M  V30 55521 H 5569.08 3.19859 -3.00976 0
M  V30 55522 H 5569.69 1.76446 -3.86971 0
M  V30 55523 N 5568 1.53671 0.349693 0
M  V30 55524 C 5568.93 1.77533 1.44964 0
M  V30 55525 C 5569.95 0.656464 1.48978 0
M  V30 55526 O 5571.14 0.933069 1.52171 0
M  V30 55527 C 5568.24 1.85455 2.83654 0
M  V30 55528 C 5567.41 3.15306 3.03152 0
M  V30 55529 C 5566.47 3.14264 4.22048 0
M  V30 55530 O 5565.49 3.88009 4.16459 0
M  V30 55531 N 5566.7 2.362 5.30273 0
M  V30 55532 H 5569.46 2.72448 1.24868 0
M  V30 55533 H 5567.02 1.52646 0.539532 0
M  V30 55534 H 5569.01 1.82217 3.61357 0
M  V30 55535 H 5567.58 0.97754 2.96922 0
M  V30 55536 H 5566.8 3.31718 2.12971 0
M  V30 55537 H 5568.09 4.01089 3.13058 0
M  V30 55538 H 5567.49 1.75827 5.37682 0
M  V30 55539 H 5566.05 2.38765 6.06493 0
M  V30 55540 N 5569.48 -0.610372 1.453 0
M  V30 55541 C 5570.73 -1.36675 1.48877 0
M  V30 55542 C 5571.05 -1.94561 0.130755 0
M  V30 55543 O 5570.32 -1.76998 -0.839545 0
M  V30 55544 H 5568.9 -0.507374 0.548253 0
M  V30 55545 H 5571.56 -0.716933 1.81235 0
M  V30 55546 H 5570.66 -2.18758 2.22601 0
M  V30 55547 N 5570.96 -1.32544 -0.85263 0
M  V30 55548 C 5572.18 -1.26366 -1.64458 0
M  V30 55549 C 5572.61 0.165014 -1.87375 0
M  V30 55550 O 5571.97 1.11707 -1.42798 0
M  V30 55551 C 5572.01 -2.03062 -2.9799 0
M  V30 55552 O 5571.12 -1.37981 -3.88632 0
M  V30 55553 H 5570.46 -0.43541 -0.501312 0
M  V30 55554 H 5572.99 -1.74892 -1.0618 0
M  V30 55555 H 5573 -2.13312 -3.47796 0
M  V30 55556 H 5571.67 -3.06951 -2.80632 0
M  V30 55557 H 5570.25 -1.36292 -3.47101 0
M  V30 55558 N 5572.44 1.06915 -1.15788 0
M  V30 55559 C 5573.37 2.16213 -0.881725 0
M  V30 55560 C 5574.35 1.69254 0.16945 0
M  V30 55561 O 5575.53 1.94187 0.0228828 0
M  V30 55562 C 5572.66 3.45268 -0.375103 0
M  V30 55563 C 5571.62 4.05701 -1.36346 0
M  V30 55564 C 5570.94 5.29891 -0.715504 0
M  V30 55565 C 5572.24 4.45214 -2.73096 0
M  V30 55566 H 5573.94 2.39571 -1.79572 0
M  V30 55567 H 5571.48 1.15138 -0.864824 0
M  V30 55568 H 5573.44 4.21059 -0.169427 0
M  V30 55569 H 5572.16 3.2151 0.574372 0
M  V30 55570 H 5570.82 3.3196 -1.55558 0
M  V30 55571 H 5570.47 5.02426 0.240259 0
M  V30 55572 H 5570.17 5.71283 -1.37514 0
M  V30 55573 H 5571.69 6.08384 -0.519703 0
M  V30 55574 H 5573.11 5.12115 -2.57704 0
M  V30 55575 H 5571.5 4.97571 -3.35474 0
M  V30 55576 H 5572.57 3.56373 -3.28826 0
M  V30 55577 N 5573.92 0.95537 1.25341 0
M  V30 55578 C 5575.16 0.606216 1.92374 0
M  V30 55579 C 5575.48 -0.860865 1.75637 0
M  V30 55580 O 5576.68 -1.32001 2.37251 0
M  V30 55581 C 5575.14 1.03353 3.44741 0
M  V30 55582 C 5574.75 2.52321 3.70187 0
M  V30 55583 C 5576.49 0.756944 4.17697 0
M  V30 55584 C 5574.4 2.88849 5.16062 0
M  V30 55585 H 5573.33 0.223019 0.720263 0
M  V30 55586 H 5575.98 1.15992 1.4219 0
M  V30 55587 H 5574.36 0.408234 3.9389 0
M  V30 55588 H 5575.54 3.19876 3.31687 0
M  V30 55589 H 5573.85 2.77459 3.10492 0
M  V30 55590 H 5576.45 1.00601 5.25151 0
M  V30 55591 H 5576.79 -0.306648 4.15169 0
M  V30 55592 H 5577.32 1.34262 3.74458 0
M  V30 55593 H 5574.06 3.94229 5.23702 0
M  V30 55594 H 5573.58 2.25968 5.55607 0
M  V30 55595 H 5575.26 2.78082 5.84191 0
M  V30 55596 N 5575.39 -1.39984 0.724028 0
M  V30 55597 C 5576.64 -2.01027 0.267581 0
M  V30 55598 C 5576.97 -1.57299 -1.13889 0
M  V30 55599 O 5576.25 -0.796867 -1.77427 0
M  V30 55600 C 5576.53 -3.58325 0.357097 0
M  V30 55601 C 5576.38 -4.12102 1.80255 0
M  V30 55602 C 5577.7 -4.3929 -0.266848 0
M  V30 55603 H 5574.82 -0.730361 0.0987032 0
M  V30 55604 H 5577.46 -1.66345 0.918119 0
M  V30 55605 H 5575.61 -3.88001 -0.196772 0
M  V30 55606 H 5577.29 -3.9319 2.41245 0
M  V30 55607 H 5575.53 -3.66073 2.3275 0
M  V30 55608 H 5576.2 -5.21255 1.81652 0
M  V30 55609 H 5578.68 -4.15594 0.205176 0
M  V30 55610 H 5577.55 -5.48625 -0.173812 0
M  V30 55611 H 5577.81 -4.20936 -1.35149 0
M  V30 55612 N 5576.87 -0.470835 -1.50402 0
M  V30 55613 C 5578.12 0.0840784 -2.01925 0
M  V30 55614 C 5578.44 1.40239 -1.35492 0
M  V30 55615 O 5577.71 1.89407 -0.500178 0
M  V30 55616 H 5576.29 0.0340621 -0.746223 0
M  V30 55617 H 5578.95 -0.621198 -1.84735 0
M  V30 55618 H 5578.05 0.235768 -3.11208 0
M  V30 55619 N 5578.35 1.56282 -0.203431 0
M  V30 55620 C 5579.63 1.89589 0.481189 0
M  V30 55621 C 5580.01 1.11818 1.79053 0
M  V30 55622 O 5579.35 0.221839 2.27421 0
M  V30 55623 C 5579.56 3.42074 0.691844 0
M  V30 55624 C 5580.91 4.12475 1.00746 0
M  V30 55625 O 5581.94 3.47571 0.779274 0
M  V30 55626 O 5580.8 5.27199 1.43955 0
M  V30 55627 H 5577.89 0.787691 0.251935 0
M  V30 55628 H 5580.44 1.67933 -0.244266 0
M  V30 55629 H 5579.21 3.90609 -0.232459 0
M  V30 55630 H 5578.83 3.69449 1.46945 0
M  V30 55631 N 5579.83 -0.0701116 1.57444 0
M  V30 55632 C 5580.76 -1.08343 2.06843 0
M  V30 55633 C 5581.74 -1.40265 0.962273 0
M  V30 55634 O 5582.92 -1.49863 1.2351 0
M  V30 55635 C 5580.05 -2.3964 2.51376 0
M  V30 55636 C 5579.01 -2.22067 3.65883 0
M  V30 55637 C 5578.33 -3.58762 3.96477 0
M  V30 55638 C 5579.63 -1.64051 4.95867 0
M  V30 55639 H 5581.33 -0.672363 2.91753 0
M  V30 55640 H 5578.87 -0.321977 1.40354 0
M  V30 55641 H 5580.83 -3.10823 2.84548 0
M  V30 55642 H 5579.55 -2.8273 1.63497 0
M  V30 55643 H 5578.21 -1.53325 3.32997 0
M  V30 55644 H 5577.86 -3.99425 3.05726 0
M  V30 55645 H 5577.56 -3.47842 4.73582 0
M  V30 55646 H 5579.08 -4.31372 4.32146 0
M  V30 55647 H 5580.5 -2.25101 5.27259 0
M  V30 55648 H 5578.89 -1.63822 5.77306 0
M  V30 55649 H 5579.96 -0.602151 4.81147 0
M  V30 55650 N 5581.31 -1.53855 -0.341539 0
M  V30 55651 C 5582.27 -1.81284 -1.40245 0
M  V30 55652 C 5583.27 -0.683966 -1.45528 0
M  V30 55653 O 5584.46 -0.952253 -1.45869 0
M  V30 55654 C 5581.59 -1.95668 -2.79154 0
M  V30 55655 H 5582.78 -2.76057 -1.17186 0
M  V30 55656 H 5580.34 -1.45298 -0.576039 0
M  V30 55657 H 5581.07 -1.03045 -3.07493 0
M  V30 55658 H 5580.86 -2.77797 -2.76715 0
M  V30 55659 H 5582.35 -2.18399 -3.55938 0
M  V30 55660 N 5582.78 0.602658 -1.45622 0
M  V30 55661 C 5584.19 1.18465 -1.44301 0
M  V30 55662 C 5584.55 1.95434 -0.173229 0
M  V30 55663 O 5583.67 2.03897 0.724915 0
M  V30 55664 C 5584.27 2.15499 -2.6143 0
M  V30 55665 C 5582.82 2.69064 -2.63214 0
M  V30 55666 C 5581.97 1.4456 -2.36638 0
M  V30 55667 H 5584.92 0.391691 -1.5379 0
M  V30 55668 H 5584.94 2.9862 -2.3581 0
M  V30 55669 H 5584.46 1.59452 -3.53831 0
M  V30 55670 H 5582.56 3.29036 -1.74831 0
M  V30 55671 H 5582.67 3.13161 -3.62584 0
M  V30 55672 H 5581.03 1.73686 -1.86294 0
M  V30 55673 H 5581.82 0.903736 -3.31191 0
M  V30 55674 N 5584.26 1.32995 0.845589 0
M  V30 55675 C 5585.51 1.24254 1.60277 0
M  V30 55676 C 5585.84 -0.192981 1.93239 0
M  V30 55677 O 5585.12 -1.13254 1.58126 0
M  V30 55678 C 5585.4 2.11121 2.91719 0
M  V30 55679 C 5585.25 3.63097 2.65481 0
M  V30 55680 C 5586.57 1.97926 3.93082 0
M  V30 55681 H 5583.69 0.452719 0.581562 0
M  V30 55682 H 5586.33 1.6303 0.975771 0
M  V30 55683 H 5584.48 1.78181 3.4523 0
M  V30 55684 H 5586.15 4.06294 2.18455 0
M  V30 55685 H 5584.4 3.85311 1.99293 0
M  V30 55686 H 5585.07 4.19215 3.59114 0
M  V30 55687 H 5587.54 2.268 3.48856 0
M  V30 55688 H 5586.42 2.60969 4.82894 0
M  V30 55689 H 5586.68 0.949529 4.31783 0
M  V30 55690 N 5585.74 -1.063 1.16353 0
M  V30 55691 C 5586.69 -2.15876 0.866043 0
M  V30 55692 C 5587.68 -1.68596 -0.16487 0
M  V30 55693 O 5588.89 -1.7999 -0.0188639 0
M  V30 55694 H 5585.26 -0.704712 0.262459 0
M  V30 55695 H 5587.23 -2.38178 1.7976 0
M  V30 55696 C 5585.98 -3.45579 0.383496 0
M  V30 55697 H 5585.31 -3.82352 1.16819 0
M  V30 55698 H 5586.75 -4.23459 0.214113 0
M  V30 55699 C 5585.2 -3.24741 -0.89693 0
M  V30 55700 O 5585.73 -3.50291 -1.96619 0
M  V30 55701 N 5583.94 -2.78175 -0.840663 0
M  V30 55702 H 5583.49 -2.57583 0.0296746 0
M  V30 55703 H 5583.45 -2.64612 -1.69787 0
M  V30 55704 N 5587.22 -0.962004 -1.24833 0
M  V30 55705 C 5588.47 -0.619556 -1.92369 0
M  V30 55706 C 5588.79 0.847171 -1.75636 0
M  V30 55707 O 5588.06 1.60415 -1.12445 0
M  V30 55708 H 5586.64 -0.226154 -0.711943 0
M  V30 55709 H 5589.3 -1.22184 -1.51846 0
M  V30 55710 H 5588.4 -0.855233 -3.00154 0
M  V30 55711 N 5588.7 1.39598 -0.731441 0
M  V30 55712 C 5589.92 2.04886 -0.287962 0
M  V30 55713 C 5590.34 1.55141 1.07595 0
M  V30 55714 O 5589.7 0.714769 1.67921 0
M  V30 55715 C 5589.75 3.60439 -0.276756 0
M  V30 55716 O 5589.47 4.08352 -1.58682 0
M  V30 55717 C 5590.97 4.42921 0.18333 0
M  V30 55718 H 5588.19 0.658971 -0.126482 0
M  V30 55719 H 5590.73 1.78712 -0.994094 0
M  V30 55720 H 5588.89 3.85527 0.380461 0
M  V30 55721 H 5589.3 5.02654 -1.49797 0
M  V30 55722 H 5590.78 5.51822 0.140013 0
M  V30 55723 H 5591.25 4.21684 1.22796 0
M  V30 55724 H 5591.86 4.22974 -0.444191 0
M  V30 55725 N 5590.17 0.478804 1.50151 0
M  V30 55726 C 5591.4 -0.0732201 2.07271 0
M  V30 55727 C 5591.82 -1.32061 1.33946 0
M  V30 55728 O 5591.18 -1.77068 0.389429 0
M  V30 55729 C 5591.23 -0.332401 3.59065 0
M  V30 55730 O 5590.33 -1.41144 3.87495 0
M  V30 55731 H 5589.68 0.0163917 0.663798 0
M  V30 55732 H 5592.21 0.67206 1.93247 0
M  V30 55733 H 5592.22 -0.570593 4.0399 0
M  V30 55734 H 5590.89 0.579078 4.11849 0
M  V30 55735 H 5589.47 -1.15995 3.544 0
M  V30 55736 N 5591.65 -1.56171 0.211716 0
M  V30 55737 C 5592.58 -2.1711 -0.734581 0
M  V30 55738 C 5593.6 -1.13744 -1.16474 0
M  V30 55739 O 5594.79 -1.40766 -1.09759 0
M  V30 55740 C 5591.89 -2.73189 -2.00551 0
M  V30 55741 C 5591.06 -4.01626 -1.7325 0
M  V30 55742 C 5590.12 -4.42367 -2.84953 0
M  V30 55743 O 5589.14 -5.09462 -2.53845 0
M  V30 55744 N 5590.35 -4.07238 -4.13688 0
M  V30 55745 H 5593.11 -2.98939 -0.21337 0
M  V30 55746 H 5590.67 -1.61872 0.0303467 0
M  V30 55747 H 5592.66 -2.9742 -2.74451 0
M  V30 55748 H 5591.23 -1.95719 -2.43748 0
M  V30 55749 H 5590.45 -3.85354 -0.83044 0
M  V30 55750 H 5591.74 -4.85431 -1.52427 0
M  V30 55751 H 5591.14 -3.53302 -4.41808 0
M  V30 55752 H 5589.7 -4.36383 -4.84162 0
M  V30 55753 N 5593.13 0.061761 -1.57479 0
M  V30 55754 C 5594.38 0.757503 -1.87367 0
M  V30 55755 C 5594.7 1.77604 -0.805087 0
M  V30 55756 O 5593.97 1.95203 0.165148 0
M  V30 55757 H 5592.55 0.282756 -0.691418 0
M  V30 55758 H 5595.21 0.0354669 -1.94868 0
M  V30 55759 H 5594.31 1.26748 -2.85204 0
M  V30 55760 N 5594.61 1.54034 0.333374 0
M  V30 55761 C 5595.56 1.82734 1.40986 0
M  V30 55762 C 5596.53 0.67373 1.51823 0
M  V30 55763 O 5597.71 0.919185 1.67199 0
M  V30 55764 C 5594.85 2.05165 2.77491 0
M  V30 55765 C 5593.96 3.32864 2.75364 0
M  V30 55766 C 5593.1 3.45308 4.03653 0
M  V30 55767 C 5592.14 4.66919 3.95795 0
M  V30 55768 N 5591.27 4.76342 5.15794 0
M  V30 55769 H 5596.11 2.74576 1.15811 0
M  V30 55770 H 5593.65 1.3599 0.560811 0
M  V30 55771 H 5595.61 2.16161 3.56834 0
M  V30 55772 H 5594.24 1.16625 3.00996 0
M  V30 55773 H 5593.29 3.30657 1.88069 0
M  V30 55774 H 5594.6 4.22308 2.65438 0
M  V30 55775 H 5593.76 3.55792 4.91423 0
M  V30 55776 H 5592.5 2.53939 4.16373 0
M  V30 55777 H 5591.5 4.56502 3.06409 0
M  V30 55778 H 5592.73 5.59663 3.84648 0
M  V30 55779 H 5590.67 3.87884 5.29038 0
M  V30 55780 H 5590.59 5.59737 5.08164 0
M  V30 55781 H 5591.86 4.91146 6.05306 0
M  V30 55782 N 5596.09 -0.594927 1.4594 0
M  V30 55783 C 5597.33 -1.35356 1.50616 0
M  V30 55784 C 5597.66 -1.93898 0.152934 0
M  V30 55785 O 5596.92 -1.76278 -0.849975 0
M  V30 55786 C 5597.22 -2.5112 2.5431 0
M  V30 55787 C 5596.88 -2.10646 3.98671 0
M  V30 55788 C 5595.54 -1.99323 4.37977 0
M  V30 55789 C 5597.9 -1.7925 4.89407 0
M  V30 55790 C 5595.22 -1.54843 5.65898 0
M  V30 55791 C 5597.58 -1.36252 6.17752 0
M  V30 55792 C 5596.24 -1.23497 6.55976 0
M  V30 55793 H 5595.51 -0.495301 0.551142 0
M  V30 55794 H 5598.16 -0.671173 1.79353 0
M  V30 55795 H 5596.46 -3.24751 2.19189 0
M  V30 55796 H 5598.16 -3.09344 2.55162 0
M  V30 55797 H 5594.75 -2.2039 3.67595 0
M  V30 55798 H 5598.93 -1.86889 4.59767 0
M  V30 55799 H 5594.19 -1.436 5.94297 0
M  V30 55800 H 5598.36 -1.11008 6.87496 0
M  V30 55801 H 5595.99 -0.888054 7.54995 0
M  V30 55802 N 5597.56 -1.33441 -0.838524 0
M  V30 55803 C 5598.5 -1.19559 -1.95546 0
M  V30 55804 C 5599.51 -0.126477 -1.62308 0
M  V30 55805 O 5600.7 -0.37693 -1.74475 0
M  V30 55806 C 5597.8 -0.811389 -3.29044 0
M  V30 55807 C 5596.97 -1.97221 -3.90413 0
M  V30 55808 C 5596.03 -1.56893 -5.02266 0
M  V30 55809 O 5595.06 -2.28332 -5.21395 0
M  V30 55810 N 5596.26 -0.474128 -5.78561 0
M  V30 55811 H 5599.02 -2.15777 -2.07992 0
M  V30 55812 H 5596.58 -1.26191 -1.01427 0
M  V30 55813 H 5598.58 -0.523694 -4.01297 0
M  V30 55814 H 5597.15 0.0601192 -3.12542 0
M  V30 55815 H 5596.37 -2.42551 -3.10745 0
M  V30 55816 H 5597.65 -2.74893 -4.28149 0
M  V30 55817 H 5597.05 0.120107 -5.65572 0
M  V30 55818 H 5595.61 -0.246106 -6.51335 0
M  V30 55819 N 5599.04 1.05681 -1.16915 0
M  V30 55820 C 5600.29 1.78241 -0.952602 0
M  V30 55821 C 5600.61 1.87926 0.520459 0
M  V30 55822 O 5599.88 1.39244 1.37797 0
M  V30 55823 H 5598.46 0.660216 -0.349462 0
M  V30 55824 H 5601.12 1.27629 -1.47299 0
M  V30 55825 H 5600.22 2.80097 -1.37667 0
M  V30 55826 N 5600.52 0.96861 1.24321 0
M  V30 55827 C 5601.45 0.518403 2.27673 0
M  V30 55828 C 5602.43 -0.442421 1.64246 0
M  V30 55829 O 5603.62 -0.338348 1.9123 0
M  V30 55830 C 5600.75 -0.191337 3.46773 0
M  V30 55831 C 5599.7 0.685598 4.22473 0
M  V30 55832 C 5599.03 -0.155685 5.34473 0
M  V30 55833 C 5600.33 1.97064 4.83697 0
M  V30 55834 H 5602.02 1.38225 2.65583 0
M  V30 55835 H 5599.57 0.666085 1.27669 0
M  V30 55836 H 5601.52 -0.51752 4.1821 0
M  V30 55837 H 5600.24 -1.08954 3.07891 0
M  V30 55838 H 5598.9 0.995066 3.52837 0
M  V30 55839 H 5598.55 -1.05407 4.91832 0
M  V30 55840 H 5598.25 0.427861 5.8604 0
M  V30 55841 H 5599.77 -0.476519 6.08738 0
M  V30 55842 H 5601.19 1.70998 5.47204 0
M  V30 55843 H 5599.59 2.50098 5.455 0
M  V30 55844 H 5600.66 2.66499 4.05101 0
M  V30 55845 N 5602 -1.39208 0.738834 0
M  V30 55846 C 5603.28 -1.94419 0.214602 0
M  V30 55847 C 5603.66 -1.67533 -1.28437 0
M  V30 55848 O 5603 -1.00567 -2.05179 0
M  V30 55849 C 5603.21 -3.44601 0.552354 0
M  V30 55850 C 5604.56 -4.216 0.503812 0
M  V30 55851 O 5605.59 -3.52817 0.489771 0
M  V30 55852 O 5604.45 -5.44192 0.501722 0
M  V30 55853 H 5601.54 -0.82601 0.0404538 0
M  V30 55854 H 5604.09 -1.48686 0.817954 0
M  V30 55855 H 5602.86 -3.5762 1.58819 0
M  V30 55856 H 5602.48 -3.9752 -0.0797699 0
M  V30 55857 N 5603.48 -0.48676 -1.49895 0
M  V30 55858 C 5604.41 0.288817 -2.31707 0
M  V30 55859 C 5605.39 0.975852 -1.39324 0
M  V30 55860 O 5606.57 0.970006 -1.68239 0
M  V30 55861 C 5603.7 1.36207 -3.19476 0
M  V30 55862 C 5602.66 0.795737 -4.20538 0
M  V30 55863 C 5601.98 1.96845 -4.97148 0
M  V30 55864 C 5603.28 -0.203604 -5.21903 0
M  V30 55865 H 5604.98 -0.394038 -2.96796 0
M  V30 55866 H 5602.52 -0.190945 -1.42728 0
M  V30 55867 H 5604.48 1.91225 -3.75514 0
M  V30 55868 H 5603.2 2.07391 -2.52303 0
M  V30 55869 H 5601.86 0.267409 -3.65623 0
M  V30 55870 H 5601.51 2.66764 -4.26434 0
M  V30 55871 H 5601.21 1.59565 -5.6552 0
M  V30 55872 H 5602.73 2.52324 -5.56026 0
M  V30 55873 H 5604.15 0.257943 -5.72719 0
M  V30 55874 H 5602.54 -0.491484 -5.98084 0
M  V30 55875 H 5603.61 -1.1243 -4.71686 0
M  V30 55876 N 5604.96 1.56057 -0.219996 0
M  V30 55877 C 5605.9 2.21587 0.707244 0
M  V30 55878 C 5606.9 1.19478 1.20089 0
M  V30 55879 O 5608.1 1.37561 1.1609 0
M  V30 55880 H 5604.48 0.710455 0.24649 0
M  V30 55881 H 5606.45 2.98112 0.131109 0
M  V30 55882 C 5605.2 2.90847 1.90534 0
M  V30 55883 H 5604.52 3.69175 1.53459 0
M  V30 55884 H 5605.96 3.40101 2.53194 0
M  V30 55885 C 5604.42 1.93232 2.75976 0
M  V30 55886 O 5604.95 1.44828 3.74683 0
M  V30 55887 N 5603.16 1.60916 2.4198 0
M  V30 55888 H 5602.7 2.00472 1.61767 0
M  V30 55889 H 5602.66 0.95864 2.99429 0
M  V30 55890 N 5606.43 -0.0534086 1.57509 0
M  V30 55891 C 5607.34 -1.07895 2.08317 0
M  V30 55892 C 5608.36 -1.41219 1.01652 0
M  V30 55893 O 5609.54 -1.51028 1.33239 0
M  V30 55894 C 5606.6 -2.36805 2.53228 0
M  V30 55895 C 5605.66 -2.10284 3.74271 0
M  V30 55896 C 5604.89 -3.33047 4.17032 0
M  V30 55897 O 5605.12 -4.42845 3.59506 0
M  V30 55898 O 5604.05 -3.20177 5.09676 0
M  V30 55899 H 5607.88 -0.677264 2.96052 0
M  V30 55900 H 5605.46 -0.268786 1.46962 0
M  V30 55901 H 5607.34 -3.12635 2.82555 0
M  V30 55902 H 5606.02 -2.76317 1.68614 0
M  V30 55903 H 5604.93 -1.32099 3.50001 0
M  V30 55904 H 5606.26 -1.75642 4.59794 0
M  V30 55905 N 5607.91 -1.54208 -0.325201 0
M  V30 55906 C 5608.82 -1.865 -1.4232 0
M  V30 55907 C 5609.84 -0.756773 -1.56681 0
M  V30 55908 O 5611.01 -1.0509 -1.71808 0
M  V30 55909 C 5608.08 -2.08424 -2.77057 0
M  V30 55910 C 5607.14 -3.3223 -2.71885 0
M  V30 55911 C 5606.37 -3.53099 -4.00196 0
M  V30 55912 O 5606.6 -2.77439 -4.98381 0
M  V30 55913 O 5605.53 -4.46573 -4.03554 0
M  V30 55914 H 5609.36 -2.79863 -1.17941 0
M  V30 55915 H 5606.94 -1.40093 -0.519074 0
M  V30 55916 H 5608.82 -2.24184 -3.56819 0
M  V30 55917 H 5607.5 -1.18248 -3.01329 0
M  V30 55918 H 5606.4 -3.21857 -1.9068 0
M  V30 55919 H 5607.74 -4.22458 -2.52567 0
M  V30 55920 N 5609.39 0.587179 -1.46253 0
M  V30 55921 C 5610.32 1.70688 -1.59336 0
M  V30 55922 C 5611.3 1.64206 -0.443888 0
M  V30 55923 O 5612.49 1.82292 -0.66958 0
M  V30 55924 C 5609.62 3.09324 -1.57911 0
M  V30 55925 C 5608.57 3.30634 -2.71782 0
M  V30 55926 C 5607.9 4.69752 -2.55416 0
M  V30 55927 C 5609.2 3.18902 -4.13641 0
M  V30 55928 H 5610.89 1.59996 -2.53065 0
M  V30 55929 H 5608.44 0.7683 -1.21791 0
M  V30 55930 H 5610.39 3.87473 -1.65657 0
M  V30 55931 H 5609.11 3.20905 -0.607233 0
M  V30 55932 H 5607.77 2.54883 -2.63497 0
M  V30 55933 H 5607.42 4.78092 -1.56322 0
M  V30 55934 H 5607.12 4.84963 -3.31791 0
M  V30 55935 H 5608.64 5.50075 -2.65048 0
M  V30 55936 H 5610.06 3.869 -4.23061 0
M  V30 55937 H 5608.45 3.45636 -4.90567 0
M  V30 55938 H 5609.52 2.16045 -4.34111 0
M  V30 55939 N 5610.87 1.33884 0.831435 0
M  V30 55940 C 5612.1 1.28631 1.61672 0
M  V30 55941 C 5612.51 -0.143521 1.88655 0
M  V30 55942 O 5611.85 -1.09842 1.47243 0
M  V30 55943 C 5611.91 2.00033 2.98709 0
M  V30 55944 C 5611.57 3.49319 2.94661 0
M  V30 55945 C 5612.57 4.44385 2.69848 0
M  V30 55946 C 5610.26 3.91607 3.14562 0
M  V30 55947 C 5612.25 5.79713 2.64975 0
M  V30 55948 C 5609.94 5.27037 3.09314 0
M  V30 55949 C 5610.94 6.20902 2.84553 0
M  V30 55950 O 5610.62 7.5385 2.79222 0
M  V30 55951 H 5610.36 0.444253 0.509524 0
M  V30 55952 H 5612.91 1.76937 1.04319 0
M  V30 55953 H 5611.14 1.46328 3.57945 0
M  V30 55954 H 5612.83 1.88181 3.59642 0
M  V30 55955 H 5613.59 4.13036 2.54217 0
M  V30 55956 H 5609.47 3.1895 3.32854 0
M  V30 55957 H 5613.02 6.52949 2.45568 0
M  V30 55958 H 5608.91 5.58007 3.24497 0
M  V30 55959 H 5609.68 7.63486 2.9501 0
M  V30 55960 N 5612.35 -1.0506 1.17474 0
M  V30 55961 C 5613.28 -2.14782 0.916011 0
M  V30 55962 C 5614.26 -1.69502 -0.142502 0
M  V30 55963 O 5615.44 -1.94198 0.00801349 0
M  V30 55964 C 5612.57 -3.44628 0.429985 0
M  V30 55965 C 5611.53 -4.03481 1.42783 0
M  V30 55966 C 5610.85 -5.28686 0.799714 0
M  V30 55967 C 5612.15 -4.40813 2.80144 0
M  V30 55968 H 5613.85 -2.36684 1.8336 0
M  V30 55969 H 5611.39 -1.13748 0.883032 0
M  V30 55970 H 5613.34 -4.20736 0.236393 0
M  V30 55971 H 5612.07 -3.22383 -0.52315 0
M  V30 55972 H 5610.73 -3.29443 1.60819 0
M  V30 55973 H 5610.38 -5.02745 -0.160297 0
M  V30 55974 H 5610.08 -5.69023 1.46585 0
M  V30 55975 H 5611.6 -6.0748 0.616426 0
M  V30 55976 H 5613.01 -5.0795 2.65819 0
M  V30 55977 H 5611.41 -4.92171 3.43348 0
M  V30 55978 H 5612.48 -3.51096 3.34454 0
M  V30 55979 N 5613.82 -0.97519 -1.23806 0
M  V30 55980 C 5615.07 -0.639925 -1.91701 0
M  V30 55981 C 5615.39 0.828495 -1.76525 0
M  V30 55982 O 5614.66 1.59213 -1.1414 0
M  V30 55983 H 5613.24 -0.233692 -0.709505 0
M  V30 55984 H 5615.9 -1.23788 -1.50541 0
M  V30 55985 H 5615 -0.887021 -2.9923 0
M  V30 55986 N 5615.3 1.38815 -0.746207 0
M  V30 55987 C 5616.55 1.99884 -0.298495 0
M  V30 55988 C 5616.87 1.59522 1.1215 0
M  V30 55989 O 5616.14 0.84863 1.76565 0
M  V30 55990 H 5614.72 0.739243 -0.107373 0
M  V30 55991 H 5617.38 1.69693 -0.958659 0
M  V30 55992 H 5616.48 3.10066 -0.355765 0
M  V30 55993 N 5616.78 0.494703 1.49634 0
M  V30 55994 C 5618.01 -0.0489691 2.06542 0
M  V30 55995 C 5618.42 -1.3194 1.35604 0
M  V30 55996 O 5617.76 -1.7869 0.42611 0
M  V30 55997 C 5617.82 -0.379301 3.57493 0
M  V30 55998 C 5617.49 0.792503 4.50076 0
M  V30 55999 C 5618.48 1.68123 4.91966 0
M  V30 56000 C 5616.17 0.989523 4.92457 0
M  V30 56001 C 5618.16 2.75119 5.74968 0
M  V30 56002 C 5615.85 2.06267 5.75237 0
M  V30 56003 C 5616.85 2.94185 6.16396 0
M  V30 56004 O 5616.54 3.99648 6.97522 0
M  V30 56005 H 5616.27 0.0143946 0.675847 0
M  V30 56006 H 5618.82 0.689426 1.93484 0
M  V30 56007 H 5617.05 -1.17121 3.68537 0
M  V30 56008 H 5618.74 -0.86084 3.96667 0
M  V30 56009 H 5619.51 1.54081 4.59874 0
M  V30 56010 H 5615.39 0.314597 4.59925 0
M  V30 56011 H 5618.93 3.43772 6.07015 0
M  V30 56012 H 5614.83 2.20307 6.06742 0
M  V30 56013 H 5615.6 3.96924 7.15817 0
M  V30 56014 N 5618.26 -1.55938 0.228269 0
M  V30 56015 C 5619.67 -1.84613 -0.278352 0
M  V30 56016 C 5620.02 -1.14979 -1.58979 0
M  V30 56017 O 5619.15 -0.421748 -2.1225 0
M  V30 56018 C 5619.74 -3.34912 -0.511817 0
M  V30 56019 C 5618.3 -3.6388 -0.962733 0
M  V30 56020 C 5617.45 -2.77284 -0.0295271 0
M  V30 56021 H 5620.4 -1.52148 0.451299 0
M  V30 56022 H 5620.42 -3.55482 -1.35694 0
M  V30 56023 H 5619.93 -3.85565 0.442832 0
M  V30 56024 H 5618.03 -3.18688 -1.93051 0
M  V30 56025 H 5618.14 -4.71812 -0.832493 0
M  V30 56026 H 5616.51 -2.48963 -0.537542 0
M  V30 56027 H 5617.29 -3.30738 0.920161 0
M  V30 56028 N 5619.74 0.0450548 -1.57536 0
M  V30 56029 C 5621.01 0.773562 -1.79654 0
M  V30 56030 C 5621.39 1.94419 -0.822459 0
M  V30 56031 O 5620.74 2.28078 0.138832 0
M  V30 56032 C 5620.95 1.22157 -3.26923 0
M  V30 56033 C 5622.3 1.64405 -3.9148 0
M  V30 56034 O 5623.32 1.31656 -3.30976 0
M  V30 56035 O 5622.18 2.2513 -4.97975 0
M  V30 56036 H 5619.28 0.37276 -0.738227 0
M  V30 56037 H 5621.82 0.0230648 -1.69684 0
M  V30 56038 H 5620.59 0.385166 -3.894 0
M  V30 56039 H 5620.22 2.03257 -3.4172 0
M  V30 56040 N 5621.21 1.54379 0.317018 0
M  V30 56041 C 5622.44 1.76612 1.072 0
M  V30 56042 C 5622.85 0.517882 1.81974 0
M  V30 56043 O 5622.2 -0.521313 1.76148 0
M  V30 56044 C 5622.26 2.91007 2.11081 0
M  V30 56045 C 5621.92 4.29678 1.55646 0
M  V30 56046 C 5622.92 5.10293 0.99482 0
M  V30 56047 C 5620.6 4.76239 1.59692 0
M  V30 56048 C 5622.6 6.35582 0.481006 0
M  V30 56049 C 5620.28 6.01495 1.07923 0
M  V30 56050 C 5621.28 6.81001 0.522228 0
M  V30 56051 O 5620.97 8.03899 0.0123448 0
M  V30 56052 H 5620.7 0.593072 0.324409 0
M  V30 56053 H 5623.26 2.02099 0.366788 0
M  V30 56054 H 5621.49 2.61107 2.85237 0
M  V30 56055 H 5623.18 3.00963 2.72353 0
M  V30 56056 H 5623.94 4.75473 0.956585 0
M  V30 56057 H 5619.82 4.14395 2.01986 0
M  V30 56058 H 5623.36 6.97585 0.0455922 0
M  V30 56059 H 5619.26 6.35805 1.11456 0
M  V30 56060 H 5620.03 8.18401 0.127154 0
M  V30 56061 N 5622.69 -0.579414 1.46562 0
M  V30 56062 C 5623.94 -1.33486 1.51743 0
M  V30 56063 C 5624.26 -1.9424 0.171994 0
M  V30 56064 O 5623.53 -1.78739 -0.801812 0
M  V30 56065 H 5622.11 -0.49563 0.558892 0
M  V30 56066 H 5624.77 -0.678329 1.82715 0
M  V30 56067 H 5623.87 -2.13988 2.27191 0
M  V30 56068 N 5624.17 -1.34323 -0.824323 0
M  V30 56069 C 5625.13 -1.25679 -1.9167 0
M  V30 56070 C 5626.13 -0.172325 -1.59874 0
M  V30 56071 O 5627.32 -0.424854 -1.6894 0
M  V30 56072 C 5624.46 -0.940043 -3.27683 0
M  V30 56073 H 5625.65 -2.22792 -2.00758 0
M  V30 56074 H 5623.2 -1.18591 -1.01813 0
M  V30 56075 H 5623.94 0.0279758 -3.24288 0
M  V30 56076 H 5623.72 -1.72445 -3.52144 0
M  V30 56077 H 5625.21 -0.904697 -4.07682 0
M  V30 56078 N 5625.65 1.04435 -1.1803 0
M  V30 56079 C 5626.9 1.76967 -0.967762 0
M  V30 56080 C 5627.21 1.88997 0.503928 0
M  V30 56081 O 5628.42 2.58345 0.834877 0
M  V30 56082 C 5626.87 3.18154 -1.68243 0
M  V30 56083 C 5626.48 3.14229 -3.19318 0
M  V30 56084 C 5628.22 3.95089 -1.55257 0
M  V30 56085 C 5626.13 4.50252 -3.83441 0
M  V30 56086 H 5625.06 0.663342 -0.358459 0
M  V30 56087 H 5627.71 1.16998 -1.41364 0
M  V30 56088 H 5626.09 3.78497 -1.16432 0
M  V30 56089 H 5627.27 2.6336 -3.78124 0
M  V30 56090 H 5625.58 2.50794 -3.32403 0
M  V30 56091 H 5628.18 4.95674 -2.00529 0
M  V30 56092 H 5628.52 4.13235 -0.50427 0
M  V30 56093 H 5629.06 3.41313 -2.04329 0
M  V30 56094 H 5625.8 4.37312 -4.88302 0
M  V30 56095 H 5625.32 5.0124 -3.29422 0
M  V30 56096 H 5626.99 5.19176 -3.86089 0
M  V30 56097 N 5627.13 0.981742 1.23287 0
M  V30 56098 C 5628.54 0.688148 1.73555 0
M  V30 56099 C 5628.89 -0.79557 1.79346 0
M  V30 56100 O 5628.01 -1.62222 1.43224 0
M  V30 56101 C 5628.61 1.24246 3.15196 0
M  V30 56102 C 5627.17 0.998484 3.62915 0
M  V30 56103 C 5626.31 1.36938 2.41129 0
M  V30 56104 H 5629.27 1.15543 1.08791 0
M  V30 56105 H 5629.29 0.615542 3.75488 0
M  V30 56106 H 5628.8 2.32234 3.10949 0
M  V30 56107 H 5626.9 -0.0652538 3.72543 0
M  V30 56108 H 5627.01 1.65401 4.49644 0
M  V30 56109 H 5625.38 0.787858 2.42208 0
M  V30 56110 H 5626.16 2.45906 2.39552 0
M  V30 56111 N 5628.6 -1.38417 0.753558 0
M  V30 56112 C 5629.55 -2.30457 0.125821 0
M  V30 56113 C 5630.52 -1.50176 -0.709675 0
M  V30 56114 O 5631.71 -1.78806 -0.66581 0
M  V30 56115 C 5628.85 -3.36596 -0.761385 0
M  V30 56116 C 5627.96 -4.31909 0.0887367 0
M  V30 56117 C 5627.09 -5.25119 -0.801471 0
M  V30 56118 C 5626.13 -6.12078 0.052287 0
M  V30 56119 N 5625.27 -6.97586 -0.794878 0
M  V30 56120 H 5630.11 -2.83563 0.916287 0
M  V30 56121 H 5627.65 -1.39607 0.463485 0
M  V30 56122 H 5629.61 -3.96742 -1.2904 0
M  V30 56123 H 5628.24 -2.84899 -1.51764 0
M  V30 56124 H 5627.29 -3.73224 0.73538 0
M  V30 56125 H 5628.6 -4.93159 0.748072 0
M  V30 56126 H 5627.75 -5.90382 -1.39765 0
M  V30 56127 H 5626.49 -4.64236 -1.49454 0
M  V30 56128 H 5625.5 -5.4581 0.661138 0
M  V30 56129 H 5626.72 -6.7503 0.742415 0
M  V30 56130 H 5624.67 -6.39251 -1.4729 0
M  V30 56131 H 5624.59 -7.55755 -0.192439 0
M  V30 56132 H 5625.85 -7.67258 -1.37603 0
M  V30 56133 N 5630.08 -0.502631 -1.4937 0
M  V30 56134 C 5631.05 0.263913 -2.27676 0
M  V30 56135 C 5632.05 0.892491 -1.33758 0
M  V30 56136 O 5633.24 0.756771 -1.56903 0
M  V30 56137 C 5630.37 1.37884 -3.1177 0
M  V30 56138 H 5631.56 -0.423237 -2.96898 0
M  V30 56139 H 5629.11 -0.257649 -1.54162 0
M  V30 56140 H 5629.85 2.10009 -2.47116 0
M  V30 56141 H 5629.63 0.93356 -3.80824 0
M  V30 56142 H 5631.12 1.91876 -3.70909 0
M  V30 56143 N 5631.56 1.55815 -0.236535 0
M  V30 56144 C 5632.81 1.98295 0.390303 0
M  V30 56145 C 5633.13 1.12579 1.5922 0
M  V30 56146 O 5632.4 0.206196 1.94812 0
M  V30 56147 H 5630.98 0.732354 0.147194 0
M  V30 56148 H 5633.64 1.92036 -0.332915 0
M  V30 56149 H 5632.74 3.03999 0.706488 0
M  V30 56150 N 5633.04 -0.0366996 1.57557 0
M  V30 56151 C 5633.97 -1.03931 2.09094 0
M  V30 56152 C 5634.95 -1.38192 0.991809 0
M  V30 56153 O 5636.14 -1.4721 1.26661 0
M  V30 56154 C 5633.27 -2.34254 2.56403 0
M  V30 56155 C 5632.22 -2.14256 3.70511 0
M  V30 56156 C 5631.55 -3.50271 4.03998 0
M  V30 56157 C 5632.85 -1.53496 4.99236 0
M  V30 56158 H 5634.54 -0.610326 2.93113 0
M  V30 56159 H 5632.09 -0.292134 1.41006 0
M  V30 56160 H 5634.04 -3.04717 2.91077 0
M  V30 56161 H 5632.76 -2.79199 1.69457 0
M  V30 56162 H 5631.42 -1.46227 3.36174 0
M  V30 56163 H 5631.07 -3.9285 3.1413 0
M  V30 56164 H 5630.77 -3.37718 4.80854 0
M  V30 56165 H 5632.29 -4.22109 4.41199 0
M  V30 56166 H 5633.71 -2.13867 5.31915 0
M  V30 56167 H 5632.1 -1.5154 5.80651 0
M  V30 56168 H 5633.17 -0.499957 4.82316 0
M  V30 56169 N 5634.52 -1.54545 -0.308827 0
M  V30 56170 C 5635.74 -1.77757 -1.06851 0
M  V30 56171 C 5636.17 -0.53168 -1.80429 0
M  V30 56172 O 5635.53 0.517452 -1.73759 0
M  V30 56173 C 5635.57 -2.97975 -2.03084 0
M  V30 56174 O 5634.68 -2.70552 -3.11248 0
M  V30 56175 H 5634.02 -0.588586 -0.307347 0
M  V30 56176 H 5636.55 -2.01608 -0.348632 0
M  V30 56177 H 5636.56 -3.2573 -2.45691 0
M  V30 56178 H 5635.23 -3.88319 -1.48934 0
M  V30 56179 H 5633.81 -2.53791 -2.73212 0
M  V30 56180 N 5636 0.571634 -1.46868 0
M  V30 56181 C 5637.22 1.36003 -1.56582 0
M  V30 56182 C 5637.65 1.86908 -0.211391 0
M  V30 56183 O 5637 1.62181 0.810364 0
M  V30 56184 C 5637.05 2.51589 -2.58332 0
M  V30 56185 O 5636.16 3.53375 -2.12603 0
M  V30 56186 H 5635.5 0.404574 -0.526513 0
M  V30 56187 H 5638.03 0.692289 -1.92532 0
M  V30 56188 H 5638.04 2.98356 -2.78294 0
M  V30 56189 H 5636.71 2.13892 -3.56683 0
M  V30 56190 H 5635.29 3.13012 -2.02677 0
M  V30 56191 N 5637.47 1.34758 0.817188 0
M  V30 56192 C 5638.72 1.27185 1.57061 0
M  V30 56193 C 5639.04 -0.156462 1.94371 0
M  V30 56194 O 5638.31 -1.09044 1.62746 0
M  V30 56195 H 5636.89 0.467775 0.582405 0
M  V30 56196 H 5639.55 1.68738 0.975379 0
M  V30 56197 H 5638.65 1.88052 2.49084 0
M  V30 56198 N 5638.95 -1.03808 1.18582 0
M  V30 56199 C 5640.2 -1.77053 0.98278 0
M  V30 56200 C 5640.53 -1.88295 -0.487355 0
M  V30 56201 O 5639.78 -1.38951 -1.37808 0
M  V30 56202 C 5640.08 -3.20292 1.58582 0
M  V30 56203 C 5639.75 -3.29077 3.08251 0
M  V30 56204 C 5638.41 -3.31182 3.49101 0
M  V30 56205 C 5640.76 -3.28967 4.04265 0
M  V30 56206 C 5638.09 -3.30822 4.84534 0
M  V30 56207 C 5640.44 -3.30147 5.39616 0
M  V30 56208 C 5639.1 -3.30545 5.79911 0
M  V30 56209 H 5638.37 -0.647882 0.359625 0
M  V30 56210 H 5641.02 -1.21906 1.47686 0
M  V30 56211 H 5639.33 -3.78456 1.0138 0
M  V30 56212 H 5641.02 -3.75614 1.40411 0
M  V30 56213 H 5637.61 -3.28161 2.75696 0
M  V30 56214 H 5641.8 -3.26529 3.73754 0
M  V30 56215 H 5637.05 -3.29449 5.15047 0
M  V30 56216 H 5641.23 -3.29011 6.13779 0
M  V30 56217 H 5638.85 -3.3002 6.84829 0
M  V30 56218 N 5640.43 -0.988266 -1.22764 0
M  V30 56219 C 5641.68 -0.657008 -1.90699 0
M  V30 56220 C 5641.99 0.813996 -1.77858 0
M  V30 56221 O 5643.2 1.25665 -2.40667 0
M  V30 56222 C 5641.65 -1.12457 -3.41879 0
M  V30 56223 C 5641.26 -2.62047 -3.63367 0
M  V30 56224 C 5643.01 -0.867423 -4.15543 0
M  V30 56225 C 5640.91 -3.0243 -5.08223 0
M  V30 56226 H 5639.84 -0.242037 -0.714097 0
M  V30 56227 H 5642.49 -1.19721 -1.39065 0
M  V30 56228 H 5640.88 -0.512524 -3.92669 0
M  V30 56229 H 5642.05 -3.28557 -3.23089 0
M  V30 56230 H 5640.36 -2.85593 -3.03027 0
M  V30 56231 H 5642.96 -1.14489 -5.22299 0
M  V30 56232 H 5643.3 0.196465 -4.15836 0
M  V30 56233 H 5643.84 -1.44143 -3.70766 0
M  V30 56234 H 5640.58 -4.07975 -5.13066 0
M  V30 56235 H 5640.1 -2.40619 -5.4942 0
M  V30 56236 H 5641.78 -2.93473 -5.76613 0
M  V30 56237 N 5641.91 1.38015 -0.760888 0
M  V30 56238 C 5643.16 1.99556 -0.319679 0
M  V30 56239 C 5643.48 1.60703 1.10452 0
M  V30 56240 O 5642.75 0.86731 1.75655 0
M  V30 56241 H 5641.33 0.738062 -0.115208 0
M  V30 56242 H 5643.99 1.68667 -0.976604 0
M  V30 56243 H 5643.08 3.09671 -0.388632 0
M  V30 56244 N 5643.39 0.510546 1.49101 0
M  V30 56245 C 5644.63 -0.0288155 2.0438 0
M  V30 56246 C 5644.99 -1.33396 1.38093 0
M  V30 56247 O 5646.19 -1.95815 1.84147 0
M  V30 56248 C 5644.46 -0.168266 3.57004 0
M  V30 56249 S 5646.02 -0.660498 4.338 0
M  V30 56250 H 5642.84 0.00277427 0.710995 0
M  V30 56251 H 5645.44 0.686687 1.83043 0
M  V30 56252 H 5644.14 0.786769 4.02788 0
M  V30 56253 H 5643.68 -0.908726 3.82761 0
M  V30 56254 H 5645.69 -1.92817 4.57205 0
M  V30 56255 N 5644.86 -1.55687 0.244795 0
M  V30 56256 C 5646.11 -1.99187 -0.381097 0
M  V30 56257 C 5646.44 -1.13272 -1.57744 0
M  V30 56258 O 5645.72 -0.195636 -1.93514 0
M  V30 56259 C 5646 -3.51259 -0.793018 0
M  V30 56260 C 5645.85 -4.47941 0.408566 0
M  V30 56261 C 5647.17 -4.08371 -1.64076 0
M  V30 56262 H 5644.29 -0.724146 -0.137047 0
M  V30 56263 H 5646.93 -1.86829 0.345685 0
M  V30 56264 H 5645.08 -3.61922 -1.41227 0
M  V30 56265 H 5646.76 -4.49262 1.04698 0
M  V30 56266 H 5645 -4.2085 1.05203 0
M  V30 56267 H 5645.67 -5.51946 0.0770471 0
M  V30 56268 H 5648.15 -4.00798 -1.11806 0
M  V30 56269 H 5647.02 -5.15047 -1.89784 0
M  V30 56270 H 5647.28 -3.56696 -2.6119 0
M  V30 56271 N 5646.34 0.0283435 -1.57575 0
M  V30 56272 C 5647.76 0.384 -1.54912 0
M  V30 56273 C 5647.96 1.76561 -0.971009 0
M  V30 56274 O 5647.01 2.45453 -0.592374 0
M  V30 56275 C 5648.33 0.285192 -2.99345 0
M  V30 56276 C 5649.88 0.362221 -3.10897 0
M  V30 56277 C 5650.35 0.292853 -4.57063 0
M  V30 56278 N 5651.84 0.351626 -4.61863 0
M  V30 56279 C 5652.58 0.320853 -5.72502 0
M  V30 56280 N 5652.07 0.242329 -6.92376 0
M  V30 56281 N 5653.87 0.370635 -5.60877 0
M  V30 56282 H 5646.02 -0.875798 -1.93503 0
M  V30 56283 H 5648.28 -0.333082 -0.887559 0
M  V30 56284 H 5647.99 -0.664267 -3.4537 0
M  V30 56285 H 5647.86 1.07856 -3.61451 0
M  V30 56286 H 5650.25 1.30211 -2.64819 0
M  V30 56287 H 5650.33 -0.460511 -2.51621 0
M  V30 56288 H 5649.97 -0.643374 -5.03809 0
M  V30 56289 H 5649.9 1.1337 -5.14252 0
M  V30 56290 H 5652.39 0.414797 -3.75617 0
M  V30 56291 H 5652.71 0.223968 -7.72475 0
M  V30 56292 H 5651.05 0.208367 -6.94688 0
M  V30 56293 H 5654.24 0.429977 -4.66121 0
M  V30 56294 H 5654.41 0.343185 -6.47091 0
M  V30 56295 N 5647.82 1.54706 0.300627 0
M  V30 56296 C 5648.73 1.8874 1.39335 0
M  V30 56297 C 5649.75 0.781604 1.55457 0
M  V30 56298 O 5650.92 1.0781 1.70114 0
M  V30 56299 C 5647.99 2.12805 2.73706 0
M  V30 56300 C 5647.05 3.36514 2.66565 0
M  V30 56301 C 5646.28 3.59421 3.94528 0
M  V30 56302 O 5646.5 2.85333 4.93904 0
M  V30 56303 O 5645.44 4.52937 3.96399 0
M  V30 56304 H 5649.26 2.81704 1.13474 0
M  V30 56305 H 5646.85 1.40901 0.496721 0
M  V30 56306 H 5648.73 2.29832 3.53207 0
M  V30 56307 H 5647.41 1.23027 2.99409 0
M  V30 56308 H 5646.31 3.2485 1.85535 0
M  V30 56309 H 5647.65 4.26422 2.45814 0
M  V30 56310 N 5649.3 -0.563837 1.47169 0
M  V30 56311 C 5650.23 -1.68131 1.62031 0
M  V30 56312 C 5651.21 -1.63479 0.469956 0
M  V30 56313 O 5652.39 -1.81203 0.698496 0
M  V30 56314 C 5649.52 -3.06773 1.62812 0
M  V30 56315 C 5648.48 -3.26268 2.77007 0
M  V30 56316 C 5647.8 -4.65629 2.62857 0
M  V30 56317 C 5649.1 -3.12281 4.18662 0
M  V30 56318 H 5650.8 -1.55949 2.55578 0
M  V30 56319 H 5648.34 -0.748827 1.22998 0
M  V30 56320 H 5650.3 -3.84789 1.71801 0
M  V30 56321 H 5649.02 -3.19899 0.658209 0
M  V30 56322 H 5647.68 -2.50658 2.67518 0
M  V30 56323 H 5647.33 -4.75545 1.63909 0
M  V30 56324 H 5647.03 -4.79623 3.39464 0
M  V30 56325 H 5648.55 -5.45788 2.73765 0
M  V30 56326 H 5649.97 -3.80121 4.29163 0
M  V30 56327 H 5648.36 -3.37788 4.96004 0
M  V30 56328 H 5649.43 -2.09111 4.37494 0
M  V30 56329 N 5650.78 -1.3519 -0.81003 0
M  V30 56330 C 5652.19 -1.15153 -1.10508 0
M  V30 56331 C 5652.39 0.0383232 -2.01464 0
M  V30 56332 O 5651.45 0.709971 -2.42313 0
M  V30 56333 C 5652.76 -2.45288 -1.73937 0
M  V30 56334 C 5654.31 -2.51464 -1.86374 0
M  V30 56335 C 5654.78 -3.81634 -2.53219 0
M  V30 56336 N 5656.28 -3.82866 -2.60707 0
M  V30 56337 C 5657.01 -4.80313 -3.13189 0
M  V30 56338 N 5656.51 -5.88147 -3.66135 0
M  V30 56339 N 5658.3 -4.67754 -3.1171 0
M  V30 56340 H 5650.45 -2.11405 -0.205317 0
M  V30 56341 H 5652.71 -0.935462 -0.153669 0
M  V30 56342 H 5652.42 -3.32516 -1.1457 0
M  V30 56343 H 5652.29 -2.59582 -2.73673 0
M  V30 56344 H 5654.68 -1.64667 -2.44885 0
M  V30 56345 H 5654.76 -2.41087 -0.855029 0
M  V30 56346 H 5654.41 -4.68826 -1.95358 0
M  V30 56347 H 5654.34 -3.89298 -3.5462 0
M  V30 56348 H 5656.83 -3.04949 -2.23192 0
M  V30 56349 H 5657.14 -6.58501 -4.0447 0
M  V30 56350 H 5655.48 -5.91844 -3.64343 0
M  V30 56351 H 5658.68 -3.82651 -2.69622 0
M  V30 56352 H 5658.85 -5.43861 -3.52305 0
M  V30 56353 N 5652.25 1.03178 -1.19131 0
M  V30 56354 C 5653.5 1.7593 -0.986477 0
M  V30 56355 C 5653.82 1.89521 0.483853 0
M  V30 56356 O 5655.02 2.59216 0.807429 0
M  V30 56357 C 5653.48 3.16352 -1.71608 0
M  V30 56358 C 5653.09 3.10825 -3.22633 0
M  V30 56359 C 5654.83 3.9342 -1.59439 0
M  V30 56360 C 5652.74 4.4616 -3.88195 0
M  V30 56361 H 5651.67 0.659503 -0.365474 0
M  V30 56362 H 5654.32 1.15492 -1.42597 0
M  V30 56363 H 5652.7 3.7724 -1.2044 0
M  V30 56364 H 5653.87 2.59335 -3.80896 0
M  V30 56365 H 5652.19 2.47254 -3.35044 0
M  V30 56366 H 5654.79 4.93519 -2.05775 0
M  V30 56367 H 5655.13 4.12676 -0.548071 0
M  V30 56368 H 5655.66 3.39127 -2.07937 0
M  V30 56369 H 5652.4 4.32108 -4.92912 0
M  V30 56370 H 5651.92 4.97718 -3.34719 0
M  V30 56371 H 5653.6 5.15052 -3.91574 0
M  V30 56372 N 5653.73 0.994763 1.22238 0
M  V30 56373 C 5654.66 0.504862 2.23571 0
M  V30 56374 C 5655.68 -0.40105 1.57783 0
M  V30 56375 O 5656.87 -0.202885 1.77343 0
M  V30 56376 C 5653.97 -0.287406 3.37679 0
M  V30 56377 C 5653.14 0.615093 4.33054 0
M  V30 56378 C 5652.2 -0.125789 5.2605 0
M  V30 56379 O 5651.22 0.489434 5.67092 0
M  V30 56380 N 5652.43 -1.40752 5.63178 0
M  V30 56381 H 5655.19 1.37622 2.66234 0
M  V30 56382 H 5652.75 0.869698 1.36557 0
M  V30 56383 H 5654.74 -0.791745 3.9688 0
M  V30 56384 H 5653.31 -1.05987 2.94084 0
M  V30 56385 H 5652.53 1.30007 3.72145 0
M  V30 56386 H 5653.82 1.22965 4.93718 0
M  V30 56387 H 5653.22 -1.92865 5.31808 0
M  V30 56388 H 5651.78 -1.85701 6.24787 0
M  V30 56389 N 5655.21 -1.3761 0.768196 0
M  V30 56390 C 5656.46 -1.99383 0.330257 0
M  V30 56391 C 5656.78 -1.61286 -1.09598 0
M  V30 56392 O 5656.05 -0.876613 -1.75192 0
M  V30 56393 H 5654.63 -0.737441 0.11912 0
M  V30 56394 H 5657.29 -1.68146 0.985535 0
M  V30 56395 H 5656.39 -3.0946 0.405049 0
M  V30 56396 N 5656.69 -0.518446 -1.48828 0
M  V30 56397 C 5657.6 0.254729 -2.33213 0
M  V30 56398 C 5658.61 0.95035 -1.45754 0
M  V30 56399 O 5659.79 0.92787 -1.78753 0
M  V30 56400 C 5656.86 1.29497 -3.21607 0
M  V30 56401 C 5655.92 0.610937 -4.24931 0
M  V30 56402 C 5655.15 1.60162 -5.09101 0
M  V30 56403 O 5655.37 2.83319 -4.95062 0
M  V30 56404 O 5654.31 1.14735 -5.90863 0
M  V30 56405 H 5658.13 -0.436435 -3.00548 0
M  V30 56406 H 5655.72 -0.279522 -1.46762 0
M  V30 56407 H 5657.6 1.89641 -3.76317 0
M  V30 56408 H 5656.27 1.96875 -2.56947 0
M  V30 56409 H 5655.18 -0.0306953 -3.74087 0
M  V30 56410 H 5656.51 -0.020698 -4.92196 0
M  V30 56411 N 5658.17 1.55555 -0.253048 0
M  V30 56412 C 5659.08 2.25285 0.654502 0
M  V30 56413 C 5660.09 1.27107 1.18826 0
M  V30 56414 O 5661.27 1.59997 1.22323 0
M  V30 56415 C 5658.33 2.94342 1.83203 0
M  V30 56416 C 5657.39 4.07945 1.33714 0
M  V30 56417 C 5656.63 4.737 2.45854 0
M  V30 56418 O 5656.85 4.38558 3.64723 0
M  V30 56419 O 5655.78 5.6209 2.15263 0
M  V30 56420 H 5659.61 3.03566 0.0903024 0
M  V30 56421 H 5657.2 1.49385 -0.021306 0
M  V30 56422 H 5659.08 3.37817 2.51908 0
M  V30 56423 H 5657.75 2.18997 2.38374 0
M  V30 56424 H 5656.66 3.68974 0.617193 0
M  V30 56425 H 5657.99 4.85127 0.831447 0
M  V30 56426 N 5659.64 -0.0199865 1.57587 0
M  V30 56427 C 5660.89 -0.708049 1.88864 0
M  V30 56428 C 5661.21 -1.76033 0.852754 0
M  V30 56429 O 5662.41 -2.50162 1.05506 0
M  V30 56430 C 5660.87 -1.31045 3.35194 0
M  V30 56431 C 5660.48 -0.294044 4.47034 0
M  V30 56432 C 5662.22 -1.97786 3.75607 0
M  V30 56433 C 5660.13 -0.905303 5.8443 0
M  V30 56434 H 5659.06 -0.268211 0.704683 0
M  V30 56435 H 5661.71 0.0372807 1.83462 0
M  V30 56436 H 5660.09 -2.10579 3.35369 0
M  V30 56437 H 5661.26 0.475242 4.58343 0
M  V30 56438 H 5659.58 0.27179 4.15512 0
M  V30 56439 H 5662.18 -2.44388 4.75583 0
M  V30 56440 H 5662.52 -2.79993 3.08074 0
M  V30 56441 H 5663.05 -1.25015 3.77646 0
M  V30 56442 H 5659.79 -0.122454 6.55386 0
M  V30 56443 H 5659.31 -1.64422 5.76824 0
M  V30 56444 H 5660.99 -1.40994 6.3145 0
M  V30 56445 N 5661.12 -1.54863 -0.292418 0
M  V30 56446 C 5662.37 -1.7481 -1.02807 0
M  V30 56447 C 5662.7 -0.537001 -1.86628 0
M  V30 56448 O 5661.98 0.465787 -1.8884 0
M  V30 56449 C 5662.26 -3.04208 -1.92689 0
M  V30 56450 C 5662.11 -4.35635 -1.11991 0
M  V30 56451 C 5663.43 -3.29524 -2.91723 0
M  V30 56452 H 5660.55 -0.636028 -0.37234 0
M  V30 56453 H 5663.19 -1.87584 -0.302003 0
M  V30 56454 H 5661.34 -2.93449 -2.54598 0
M  V30 56455 H 5663.02 -4.58325 -0.523029 0
M  V30 56456 H 5661.26 -4.31734 -0.422828 0
M  V30 56457 H 5661.93 -5.22461 -1.78154 0
M  V30 56458 H 5664.41 -3.39949 -2.39945 0
M  V30 56459 H 5663.28 -4.21365 -3.51771 0
M  V30 56460 H 5663.54 -2.48229 -3.65834 0
M  V30 56461 N 5662.6 0.556024 -1.47466 0
M  V30 56462 C 5663.85 1.31315 -1.54152 0
M  V30 56463 C 5664.18 1.93424 -0.204289 0
M  V30 56464 O 5663.43 1.7847 0.80294 0
M  V30 56465 C 5663.73 2.44289 -2.60879 0
M  V30 56466 C 5663.4 2.00002 -4.04116 0
M  V30 56467 C 5662.06 1.8764 -4.43108 0
M  V30 56468 C 5664.41 1.66211 -4.93987 0
M  V30 56469 C 5661.74 1.39785 -5.69804 0
M  V30 56470 C 5664.09 1.19826 -6.21148 0
M  V30 56471 C 5662.75 1.06061 -6.5902 0
M  V30 56472 H 5662.02 0.480514 -0.564081 0
M  V30 56473 H 5664.67 0.623385 -1.81069 0
M  V30 56474 H 5662.98 3.18826 -2.27722 0
M  V30 56475 H 5664.67 3.0247 -2.63274 0
M  V30 56476 H 5661.26 2.10567 -3.73309 0
M  V30 56477 H 5665.45 1.74634 -4.64561 0
M  V30 56478 H 5660.7 1.27793 -5.97895 0
M  V30 56479 H 5664.88 0.927415 -6.90197 0
M  V30 56480 H 5662.5 0.687568 -7.57084 0
M  V30 56481 N 5664.08 1.35617 0.802849 0
M  V30 56482 C 5665.03 1.25385 1.90428 0
M  V30 56483 C 5666.01 0.148273 1.60215 0
M  V30 56484 O 5667.21 0.379844 1.72876 0
M  V30 56485 C 5664.33 1.03183 3.27426 0
M  V30 56486 C 5663.42 2.18148 3.63692 0
M  V30 56487 N 5663.81 3.43395 3.71367 0
M  V30 56488 C 5662.11 2.09617 3.93671 0
M  V30 56489 C 5662.81 4.19018 4.03483 0
M  V30 56490 N 5661.79 3.47814 4.17763 0
M  V30 56491 H 5665.59 2.20274 1.94568 0
M  V30 56492 H 5663.1 1.28144 0.997642 0
M  V30 56493 H 5665.1 0.939407 4.06178 0
M  V30 56494 H 5663.76 0.0918232 3.2457 0
M  V30 56495 H 5664.77 3.77699 3.5435 0
M  V30 56496 H 5661.45 1.23493 3.98818 0
M  V30 56497 H 5662.84 5.2727 4.16457 0
M  V30 56498 N 5665.56 -1.02544 1.19676 0
M  V30 56499 C 5666.83 -1.73103 0.91076 0
M  V30 56500 C 5667.21 -2.02899 -0.582698 0
M  V30 56501 O 5666.56 -1.68638 -1.54186 0
M  V30 56502 C 5666.77 -3.00529 1.77436 0
M  V30 56503 C 5668.12 -3.73969 2.01078 0
M  V30 56504 O 5669.14 -3.10464 1.74616 0
M  V30 56505 O 5668 -4.88145 2.45717 0
M  V30 56506 H 5665.1 -0.753994 0.339738 0
M  V30 56507 H 5667.64 -1.08472 1.30506 0
M  V30 56508 H 5666.42 -2.74764 2.78605 0
M  V30 56509 H 5666.04 -3.72899 1.37956 0
M  V30 56510 N 5667.04 -1.00123 -1.21709 0
M  V30 56511 C 5667.97 -0.578584 -2.26218 0
M  V30 56512 C 5668.95 0.398719 -1.65361 0
M  V30 56513 O 5670.13 0.287528 -1.9206 0
M  V30 56514 C 5667.26 0.0993288 -3.47158 0
M  V30 56515 C 5666.22 -0.797368 -4.20507 0
M  V30 56516 C 5665.54 0.0139245 -5.34698 0
M  V30 56517 C 5666.84 -2.09819 -4.78302 0
M  V30 56518 H 5668.54 -1.45218 -2.61825 0
M  V30 56519 H 5666.08 -0.6997 -1.25858 0
M  V30 56520 H 5668.03 0.406457 -4.19435 0
M  V30 56521 H 5666.76 1.00753 -3.10671 0
M  V30 56522 H 5665.42 -1.08826 -3.50075 0
M  V30 56523 H 5665.07 0.923294 -4.94454 0
M  V30 56524 H 5664.77 -0.583089 -5.847 0
M  V30 56525 H 5666.29 0.314955 -6.09787 0
M  V30 56526 H 5667.7 -1.85446 -5.42478 0
M  V30 56527 H 5666.1 -2.64473 -5.38678 0
M  V30 56528 H 5667.17 -2.77145 -3.97892 0
M  V30 56529 N 5668.51 1.37201 -0.775483 0
M  V30 56530 C 5669.46 2.32102 -0.152133 0
M  V30 56531 C 5670.46 1.5512 0.680752 0
M  V30 56532 O 5671.66 1.70488 0.577395 0
M  V30 56533 H 5668.04 0.751385 -0.0304117 0
M  V30 56534 H 5670.01 2.82255 -0.968221 0
M  V30 56535 C 5668.76 3.40381 0.709668 0
M  V30 56536 H 5668.08 3.99724 0.0781473 0
M  V30 56537 H 5669.52 4.09138 1.11274 0
M  V30 56538 C 5667.98 2.80776 1.8619 0
M  V30 56539 O 5668.51 2.71824 2.95761 0
M  V30 56540 N 5666.71 2.38265 1.66368 0
M  V30 56541 H 5666.26 2.45746 0.772444 0
M  V30 56542 H 5666.22 1.98729 2.43627 0
M  V30 56543 N 5669.99 0.526331 1.48551 0
M  V30 56544 C 5670.92 -0.227282 2.32391 0
M  V30 56545 C 5671.9 -0.93857 1.41862 0
M  V30 56546 O 5673.09 -0.925059 1.70752 0
M  V30 56547 C 5670.22 -1.27688 3.22975 0
M  V30 56548 C 5669.17 -0.683959 4.225 0
M  V30 56549 C 5668.5 -1.83594 5.02192 0
M  V30 56550 C 5669.8 0.341906 5.2118 0
M  V30 56551 H 5671.49 0.47259 2.95647 0
M  V30 56552 H 5669.04 0.228719 1.42172 0
M  V30 56553 H 5670.99 -1.81202 3.80452 0
M  V30 56554 H 5669.71 -2.00629 2.57713 0
M  V30 56555 H 5668.37 -0.170377 3.66204 0
M  V30 56556 H 5668.02 -2.55364 4.33357 0
M  V30 56557 H 5667.72 -1.44516 5.69552 0
M  V30 56558 H 5669.25 -2.37493 5.62521 0
M  V30 56559 H 5670.66 -0.106006 5.73202 0
M  V30 56560 H 5669.06 0.649882 5.96571 0
M  V30 56561 H 5670.13 1.24897 4.68539 0
M  V30 56562 N 5671.47 -1.55419 0.261294 0
M  V30 56563 C 5672.7 -2.03688 -0.363153 0
M  V30 56564 C 5673.11 -1.14013 -1.50488 0
M  V30 56565 O 5672.47 -0.157413 -1.8182 0
M  V30 56566 C 5672.52 -3.51187 -0.857312 0
M  V30 56567 O 5672.24 -4.37448 0.23893 0
M  V30 56568 C 5673.74 -4.15282 -1.55099 0
M  V30 56569 H 5670.96 -0.665644 -0.0846122 0
M  V30 56570 H 5673.51 -2.00759 0.389358 0
M  V30 56571 H 5671.66 -3.54604 -1.55996 0
M  V30 56572 H 5672.08 -5.24317 -0.138636 0
M  V30 56573 H 5673.55 -5.20136 -1.84832 0
M  V30 56574 H 5674.03 -3.62627 -2.47786 0
M  V30 56575 H 5674.63 -4.15829 -0.892549 0
M  V30 56576 N 5672.95 0.011629 -1.57596 0
M  V30 56577 C 5673.91 0.991528 -2.06643 0
M  V30 56578 C 5674.91 1.2797 -0.973674 0
M  V30 56579 O 5676.1 1.22682 -1.23672 0
M  V30 56580 C 5673.23 2.31966 -2.49809 0
M  V30 56581 H 5674.43 0.567504 -2.94482 0
M  V30 56582 H 5671.98 0.258852 -1.54142 0
M  V30 56583 H 5672.71 2.79081 -1.65179 0
M  V30 56584 H 5672.5 2.12374 -3.29605 0
M  V30 56585 H 5673.99 3.02283 -2.88122 0
M  V30 56586 N 5674.43 1.55016 0.284201 0
M  V30 56587 C 5675.38 1.83513 1.35304 0
M  V30 56588 C 5676.36 0.693295 1.45197 0
M  V30 56589 O 5677.55 0.954364 1.49067 0
M  V30 56590 C 5674.68 2.10069 2.71525 0
M  V30 56591 C 5673.77 3.30481 2.65787 0
M  V30 56592 N 5674.16 4.50652 2.29666 0
M  V30 56593 C 5672.46 3.32846 2.96866 0
M  V30 56594 C 5673.16 5.32716 2.33642 0
M  V30 56595 N 5672.13 4.70846 2.7167 0
M  V30 56596 H 5675.93 2.73977 1.06367 0
M  V30 56597 H 5673.45 1.54742 0.49282 0
M  V30 56598 H 5675.45 2.28636 3.48613 0
M  V30 56599 H 5674.11 1.20882 3.0136 0
M  V30 56600 H 5675.12 4.76952 2.01834 0
M  V30 56601 H 5671.79 2.53818 3.31485 0
M  V30 56602 H 5673.18 6.38773 2.08372 0
M  V30 56603 N 5675.9 -0.548196 1.47758 0
M  V30 56604 C 5677.15 -1.30238 1.5454 0
M  V30 56605 C 5677.47 -1.93831 0.213157 0
M  V30 56606 O 5676.74 -1.804 -0.763718 0
M  V30 56607 H 5675.32 -0.483664 0.569279 0
M  V30 56608 H 5677.99 -0.63942 1.84113 0
M  V30 56609 H 5677.08 -2.0912 2.31679 0
M  V30 56610 N 5677.38 -1.36041 -0.795646 0
M  V30 56611 C 5678.63 -1.29257 -1.54841 0
M  V30 56612 C 5678.94 0.127858 -1.95182 0
M  V30 56613 O 5680.15 0.318046 -2.69631 0
M  V30 56614 C 5678.61 -2.26746 -2.79489 0
M  V30 56615 C 5678.21 -3.74192 -2.46342 0
M  V30 56616 C 5679.96 -2.28926 -3.57482 0
M  V30 56617 C 5677.87 -4.63475 -3.67348 0
M  V30 56618 H 5676.8 -0.48029 -0.581238 0
M  V30 56619 H 5679.45 -1.61369 -0.873636 0
M  V30 56620 H 5677.83 -1.8762 -3.48733 0
M  V30 56621 H 5679 -4.22018 -1.85035 0
M  V30 56622 H 5677.32 -3.74727 -1.81573 0
M  V30 56623 H 5679.91 -2.92843 -4.47378 0
M  V30 56624 H 5680.26 -1.29604 -3.95611 0
M  V30 56625 H 5680.79 -2.66638 -2.95211 0
M  V30 56626 H 5677.53 -5.63836 -3.34319 0
M  V30 56627 H 5677.05 -4.20369 -4.27843 0
M  V30 56628 H 5678.73 -4.79439 -4.3445 0
M  V30 56629 N 5678.86 1.01908 -1.20218 0
M  V30 56630 C 5680.09 1.79609 -1.03708 0
M  V30 56631 C 5680.51 1.83593 0.40931 0
M  V30 56632 O 5679.87 1.26915 1.29469 0
M  V30 56633 C 5679.92 3.22046 -1.62231 0
M  V30 56634 O 5679.02 4.03371 -0.858248 0
M  V30 56635 H 5678.36 0.554082 -0.365909 0
M  V30 56636 H 5680.89 1.28198 -1.59457 0
M  V30 56637 H 5680.9 3.72766 -1.6586 0
M  V30 56638 H 5679.58 3.18461 -2.67498 0
M  V30 56639 H 5678.15 3.61976 -0.895962 0
M  V30 56640 N 5680.34 1.00767 1.21176 0
M  V30 56641 C 5681.29 0.541296 2.21481 0
M  V30 56642 C 5682.27 -0.398542 1.55886 0
M  V30 56643 O 5683.46 -0.222959 1.7559 0
M  V30 56644 C 5680.59 -0.128024 3.43061 0
M  V30 56645 C 5679.68 0.832991 4.15839 0
M  V30 56646 N 5680.07 1.9869 4.65141 0
M  V30 56647 C 5678.37 0.651934 4.4121 0
M  V30 56648 C 5679.07 2.5913 5.20794 0
M  V30 56649 N 5678.05 1.87267 5.10326 0
M  V30 56650 H 5681.85 1.42114 2.57257 0
M  V30 56651 H 5679.36 0.871845 1.37013 0
M  V30 56652 H 5681.36 -0.479625 4.14132 0
M  V30 56653 H 5680.02 -1.00382 3.08794 0
M  V30 56654 H 5681.03 2.36717 4.60636 0
M  V30 56655 H 5677.71 -0.176554 4.17127 0
M  V30 56656 H 5679.1 3.56733 5.69378 0
M  V30 56657 N 5681.82 -1.36787 0.782749 0
M  V30 56658 C 5683.06 -2.01251 0.357397 0
M  V30 56659 C 5683.42 -1.60785 -1.04939 0
M  V30 56660 O 5684.62 -2.17791 -1.57545 0
M  V30 56661 C 5682.89 -3.53764 0.508477 0
M  V30 56662 S 5684.45 -4.38471 0.170016 0
M  V30 56663 H 5681.27 -0.697696 0.1369 0
M  V30 56664 H 5683.87 -1.66796 1.01978 0
M  V30 56665 H 5682.58 -3.80703 1.53275 0
M  V30 56666 H 5682.11 -3.93032 -0.170071 0
M  V30 56667 H 5684.12 -4.85377 -1.03071 0
M  V30 56668 N 5683.29 -0.534202 -1.4827 0
M  V30 56669 C 5684.71 -0.0948247 -1.86459 0
M  V30 56670 C 5685.06 1.32901 -1.44332 0
M  V30 56671 O 5684.18 1.99602 -0.835936 0
M  V30 56672 C 5684.78 -0.165309 -3.38396 0
M  V30 56673 C 5683.34 0.218897 -3.75763 0
M  V30 56674 C 5682.48 -0.523193 -2.7232 0
M  V30 56675 H 5685.43 -0.745219 -1.40115 0
M  V30 56676 H 5685.45 0.621933 -3.75383 0
M  V30 56677 H 5684.97 -1.2017 -3.69027 0
M  V30 56678 H 5683.07 1.25727 -3.50747 0
M  V30 56679 H 5683.18 -0.12365 -4.7894 0
M  V30 56680 H 5681.54 0.0310427 -2.54681 0
M  V30 56681 H 5682.33 -1.5603 -3.05793 0
M  V30 56682 N 5684.77 1.55278 -0.269533 0
M  V30 56683 C 5686 2.03878 0.352346 0
M  V30 56684 C 5686.42 1.14809 1.49881 0
M  V30 56685 O 5685.77 0.167053 1.81734 0
M  V30 56686 C 5685.82 3.51637 0.838675 0
M  V30 56687 O 5685.54 4.37315 -0.262125 0
M  V30 56688 C 5687.05 4.16099 1.52894 0
M  V30 56689 H 5684.27 0.666083 0.0810809 0
M  V30 56690 H 5686.81 2.0055 -0.4 0
M  V30 56691 H 5684.96 3.55427 1.54113 0
M  V30 56692 H 5685.38 5.24383 0.110829 0
M  V30 56693 H 5686.85 5.21109 1.82071 0
M  V30 56694 H 5687.33 3.63936 2.4586 0
M  V30 56695 H 5687.94 4.16296 0.870484 0
M  V30 56696 N 5686.25 -0.00327115 1.576 0
M  V30 56697 C 5687.49 -0.693343 1.92281 0
M  V30 56698 C 5687.85 -1.71118 0.870775 0
M  V30 56699 O 5689.06 -2.45139 1.10273 0
M  V30 56700 C 5687.33 -1.3226 3.32027 0
M  V30 56701 S 5688.89 -2.03825 3.88588 0
M  V30 56702 H 5685.7 -0.2291 0.673078 0
M  V30 56703 H 5688.31 0.0526308 1.95429 0
M  V30 56704 H 5687.01 -0.568928 4.06437 0
M  V30 56705 H 5686.54 -2.10658 3.32245 0
M  V30 56706 H 5688.56 -3.31298 3.69399 0
M  V30 56707 N 5687.73 -1.55165 -0.275976 0
M  V30 56708 C 5689.14 -1.46938 -0.62301 0
M  V30 56709 C 5689.34 -0.681044 -1.89642 0
M  V30 56710 O 5688.4 -0.198706 -2.51717 0
M  V30 56711 C 5689.71 -2.91126 -0.752737 0
M  V30 56712 C 5691.26 -3.01322 -0.846987 0
M  V30 56713 C 5691.74 -4.46758 -1.00852 0
M  V30 56714 N 5693.23 -4.50574 -1.07411 0
M  V30 56715 C 5693.96 -5.60318 -1.21784 0
M  V30 56716 N 5693.46 -6.79934 -1.32895 0
M  V30 56717 N 5695.25 -5.48054 -1.24871 0
M  V30 56718 H 5687.4 -2.04875 0.560354 0
M  V30 56719 H 5689.67 -0.928918 0.18925 0
M  V30 56720 H 5689.37 -3.5152 0.112457 0
M  V30 56721 H 5689.25 -3.39973 -1.63396 0
M  V30 56722 H 5691.63 -2.41027 -1.70265 0
M  V30 56723 H 5691.71 -2.55732 0.0587795 0
M  V30 56724 H 5691.36 -5.07656 -0.157522 0
M  V30 56725 H 5691.29 -4.90002 -1.92889 0
M  V30 56726 H 5693.78 -3.64408 -1.00076 0
M  V30 56727 H 5694.09 -7.59325 -1.43687 0
M  V30 56728 H 5692.44 -6.82752 -1.29905 0
M  V30 56729 H 5695.63 -4.53546 -1.15819 0
M  V30 56730 H 5695.8 -6.33626 -1.35728 0
M  V30 56731 N 5689.21 0.540352 -1.48047 0
M  V30 56732 C 5690.48 1.30143 -1.46022 0
M  V30 56733 C 5690.86 2.10444 -0.166245 0
M  V30 56734 O 5690.21 2.12016 0.852149 0
M  V30 56735 C 5690.42 2.19167 -2.716 0
M  V30 56736 C 5691.77 2.79644 -3.19507 0
M  V30 56737 O 5692.79 2.2946 -2.72445 0
M  V30 56738 O 5691.65 3.70898 -4.01369 0
M  V30 56739 H 5688.75 0.586858 -0.582689 0
M  V30 56740 H 5691.29 0.557862 -1.60268 0
M  V30 56741 H 5690.06 1.59543 -3.57298 0
M  V30 56742 H 5689.69 3.00789 -2.60022 0
M  V30 56743 N 5690.69 1.36461 0.78842 0
M  V30 56744 C 5692.1 1.16896 1.08662 0
M  V30 56745 C 5692.3 -0.00626724 2.01499 0
M  V30 56746 O 5691.36 -0.671332 2.43412 0
M  V30 56747 C 5692.67 2.48024 1.70013 0
M  V30 56748 C 5694.22 2.54397 1.82349 0
M  V30 56749 C 5694.69 3.85614 2.47115 0
M  V30 56750 N 5696.18 3.86965 2.54583 0
M  V30 56751 C 5696.92 4.85234 3.05508 0
M  V30 56752 N 5696.42 5.93897 3.56732 0
M  V30 56753 N 5698.21 4.72653 3.04229 0
M  V30 56754 H 5690.36 2.11705 0.171658 0
M  V30 56755 H 5692.62 0.937789 0.138767 0
M  V30 56756 H 5692.33 3.34296 1.09266 0
M  V30 56757 H 5692.2 2.63903 2.69509 0
M  V30 56758 H 5694.59 1.68542 2.42234 0
M  V30 56759 H 5694.67 2.42417 0.816566 0
M  V30 56760 H 5694.31 4.71874 1.87875 0
M  V30 56761 H 5694.24 3.9489 3.48381 0
M  V30 56762 H 5696.74 3.08461 2.18312 0
M  V30 56763 H 5697.05 6.64852 3.93943 0
M  V30 56764 H 5695.39 5.97565 3.54881 0
M  V30 56765 H 5698.58 3.86892 2.635 0
M  V30 56766 H 5698.76 5.49397 3.43608 0
M  V30 56767 N 5692.16 -1.01269 1.20757 0
M  V30 56768 C 5693.57 -1.56377 1.01995 0
M  V30 56769 C 5693.93 -1.91596 -0.422524 0
M  V30 56770 O 5693.05 -1.72658 -1.30454 0
M  V30 56771 C 5693.65 -2.84144 1.8452 0
M  V30 56772 C 5692.2 -3.35766 1.70113 0
M  V30 56773 C 5691.35 -2.09033 1.8221 0
M  V30 56774 H 5694.3 -0.836057 1.34892 0
M  V30 56775 H 5694.32 -3.55712 1.35089 0
M  V30 56776 H 5693.84 -2.58479 2.895 0
M  V30 56777 H 5691.94 -3.66382 0.677861 0
M  V30 56778 H 5692.05 -4.07705 2.51622 0
M  V30 56779 H 5690.41 -2.2167 1.25437 0
M  V30 56780 H 5691.2 -1.8579 2.88681 0
M  V30 56781 N 5693.64 -1.01408 -1.2064 0
M  V30 56782 C 5694.88 -0.710479 -1.91655 0
M  V30 56783 C 5695.25 0.74591 -1.76919 0
M  V30 56784 O 5696.45 1.16192 -2.4239 0
M  V30 56785 C 5694.72 -1.13105 -3.39031 0
M  V30 56786 S 5696.28 -0.949035 -4.28414 0
M  V30 56787 H 5693.09 -0.259098 -0.66211 0
M  V30 56788 H 5695.7 -1.30082 -1.45942 0
M  V30 56789 H 5694.4 -2.18695 -3.47276 0
M  V30 56790 H 5693.93 -0.533385 -3.89767 0
M  V30 56791 H 5695.95 0.148826 -4.95977 0
M  V30 56792 N 5695.12 1.3637 -0.789992 0
M  V30 56793 C 5696.05 2.2873 -0.146722 0
M  V30 56794 C 5697.06 1.49505 0.644366 0
M  V30 56795 O 5698.25 1.7194 0.479454 0
M  V30 56796 C 5695.35 3.28948 0.815253 0
M  V30 56797 C 5694.53 4.37337 0.0740978 0
M  V30 56798 C 5693.59 5.17515 0.952102 0
M  V30 56799 O 5692.61 5.67728 0.409137 0
M  V30 56800 N 5693.81 5.34009 2.27629 0
M  V30 56801 H 5696.58 2.84574 -0.940078 0
M  V30 56802 H 5694.14 1.48543 -0.643951 0
M  V30 56803 H 5696.13 3.79474 1.40648 0
M  V30 56804 H 5694.7 2.7374 1.50948 0
M  V30 56805 H 5693.92 3.87967 -0.698204 0
M  V30 56806 H 5695.21 5.06917 -0.437326 0
M  V30 56807 H 5694.61 4.94828 2.74156 0
M  V30 56808 H 5693.16 5.87776 2.81714 0
M  V30 56809 N 5696.6 0.542057 1.47985 0
M  V30 56810 C 5697.55 -0.227317 2.31487 0
M  V30 56811 C 5698.54 -0.923934 1.41985 0
M  V30 56812 O 5699.75 -0.846944 1.5883 0
M  V30 56813 H 5696.12 -0.0921771 0.746329 0
M  V30 56814 H 5698.09 0.496353 2.94243 0
M  V30 56815 C 5696.84 -1.25372 3.2431 0
M  V30 56816 H 5696.16 -0.727105 3.93133 0
M  V30 56817 H 5697.6 -1.76323 3.85598 0
M  V30 56818 C 5696.06 -2.29369 2.46762 0
M  V30 56819 O 5696.59 -3.36027 2.20111 0
M  V30 56820 N 5694.8 -2.02898 2.0804 0
M  V30 56821 H 5694.35 -1.16177 2.29914 0
M  V30 56822 H 5694.3 -2.727 1.56468 0
M  V30 56823 N 5698.08 -1.55133 0.277764 0
M  V30 56824 C 5699.32 -1.9926 -0.337592 0
M  V30 56825 C 5699.64 -1.16761 -1.56179 0
M  V30 56826 O 5698.91 -0.257775 -1.94197 0
M  V30 56827 H 5697.49 -0.735999 -0.127725 0
M  V30 56828 H 5700.16 -1.91085 0.383713 0
M  V30 56829 H 5699.25 -3.05765 -0.625639 0
M  V30 56830 N 5699.55 -0.00508679 -1.57599 0
M  V30 56831 C 5700.8 0.677353 -1.90411 0
M  V30 56832 C 5701.12 1.7403 -0.879691 0
M  V30 56833 O 5700.39 1.95727 0.0822069 0
M  V30 56834 H 5698.97 0.253176 -0.702788 0
M  V30 56835 H 5701.63 -0.0472151 -1.94843 0
M  V30 56836 H 5700.73 1.14538 -2.90323 0
M  V30 56837 N 5701.03 1.55309 0.267743 0
M  V30 56838 C 5701.96 1.84968 1.3535 0
M  V30 56839 C 5702.98 0.734511 1.45289 0
M  V30 56840 O 5704.17 1.01242 1.47011 0
M  V30 56841 C 5701.27 2.0023 2.73425 0
M  V30 56842 C 5700.44 3.30932 2.86012 0
M  V30 56843 C 5699.5 3.36194 4.04796 0
M  V30 56844 O 5698.52 4.09539 3.95306 0
M  V30 56845 N 5699.73 2.63977 5.17007 0
M  V30 56846 H 5702.49 2.78684 1.1025 0
M  V30 56847 H 5700.05 1.55291 0.457859 0
M  V30 56848 H 5702.04 2.01116 3.5119 0
M  V30 56849 H 5700.61 1.13356 2.91323 0
M  V30 56850 H 5699.83 3.42541 1.95088 0
M  V30 56851 H 5701.12 4.1712 2.91357 0
M  V30 56852 H 5700.52 2.04081 5.27605 0
M  V30 56853 H 5699.08 2.70579 5.92984 0
M  V30 56854 N 5702.51 -0.532493 1.48332 0
M  V30 56855 C 5703.75 -1.29897 1.57817 0
M  V30 56856 C 5704.11 -1.90426 0.24535 0
M  V30 56857 O 5705.31 -2.67937 0.215177 0
M  V30 56858 C 5703.59 -2.3611 2.68304 0
M  V30 56859 S 5705.14 -3.22516 2.97538 0
M  V30 56860 H 5701.96 -0.441889 0.557006 0
M  V30 56861 H 5704.56 -0.606917 1.85841 0
M  V30 56862 H 5703.27 -1.90118 3.63708 0
M  V30 56863 H 5702.8 -3.10025 2.42174 0
M  V30 56864 H 5704.81 -4.36136 2.36643 0
M  V30 56865 N 5703.99 -1.36878 -0.781172 0
M  V30 56866 C 5704.94 -1.28398 -1.88409 0
M  V30 56867 C 5705.92 -0.173743 -1.59959 0
M  V30 56868 O 5707.11 -0.407299 -1.7225 0
M  V30 56869 C 5704.24 -1.08379 -3.25743 0
M  V30 56870 C 5703.33 -2.23906 -3.60176 0
M  V30 56871 N 5703.72 -3.4926 -3.65857 0
M  V30 56872 C 5702.02 -2.15853 -3.90286 0
M  V30 56873 C 5702.72 -4.25384 -3.96766 0
M  V30 56874 N 5701.69 -3.54416 -4.12177 0
M  V30 56875 H 5705.5 -2.23341 -1.91039 0
M  V30 56876 H 5703.01 -1.29715 -0.977129 0
M  V30 56877 H 5705.01 -1.00391 -4.04632 0
M  V30 56878 H 5703.67 -0.143448 -3.24383 0
M  V30 56879 H 5704.68 -3.83289 -3.48296 0
M  V30 56880 H 5701.36 -1.29822 -3.96803 0
M  V30 56881 H 5702.75 -5.33828 -4.08016 0
M  V30 56882 N 5705.47 1.00628 -1.21292 0
M  V30 56883 C 5706.74 1.71632 -0.938184 0
M  V30 56884 C 5707.12 2.038 0.550345 0
M  V30 56885 O 5706.47 1.7107 1.51484 0
M  V30 56886 C 5706.68 2.97668 -1.82194 0
M  V30 56887 C 5708.03 3.70723 -2.07002 0
M  V30 56888 O 5709.05 3.07647 -1.79533 0
M  V30 56889 O 5707.91 4.84174 -2.53452 0
M  V30 56890 H 5705.01 0.748494 -0.35169 0
M  V30 56891 H 5707.55 1.06382 -1.32215 0
M  V30 56892 H 5706.32 2.70296 -2.82941 0
M  V30 56893 H 5705.95 3.70657 -1.43871 0
M  V30 56894 N 5706.94 1.02047 1.20101 0
M  V30 56895 C 5708.17 0.73121 1.94083 0
M  V30 56896 C 5708.59 -0.702405 1.74493 0
M  V30 56897 O 5707.95 -1.48384 1.04173 0
M  V30 56898 C 5708 1.07703 3.4414 0
M  V30 56899 O 5707.1 0.190896 4.11958 0
M  V30 56900 H 5706.45 0.270938 0.606208 0
M  V30 56901 H 5708.98 1.36488 1.52421 0
M  V30 56902 H 5708.99 1.03037 3.94775 0
M  V30 56903 H 5707.66 2.12152 3.57721 0
M  V30 56904 H 5706.24 0.295421 3.71728 0
M  V30 56905 N 5708.42 -1.3595 0.797213 0
M  V30 56906 C 5709.33 -2.33726 0.202353 0
M  V30 56907 C 5710.35 -1.61417 -0.649662 0
M  V30 56908 O 5711.52 -1.93353 -0.563618 0
M  V30 56909 C 5708.59 -3.40615 -0.64673 0
M  V30 56910 C 5707.65 -4.28712 0.224687 0
M  V30 56911 C 5706.88 -5.30496 -0.583967 0
M  V30 56912 O 5707.11 -5.40606 -1.81938 0
M  V30 56913 O 5706.04 -6.01897 0.0202355 0
M  V30 56914 H 5709.87 -2.86379 1.01097 0
M  V30 56915 H 5707.45 -1.38555 0.558816 0
M  V30 56916 H 5709.33 -4.05948 -1.13066 0
M  V30 56917 H 5708.01 -2.90248 -1.43311 0
M  V30 56918 H 5706.92 -3.66391 0.755544 0
M  V30 56919 H 5708.25 -4.82451 0.974772 0
M  V30 56920 N 5709.9 -0.549898 -1.47695 0
M  V30 56921 C 5711.13 -0.0257548 -2.07384 0
M  V30 56922 C 5711.55 1.2552 -1.40094 0
M  V30 56923 O 5710.91 1.75009 -0.473467 0
M  V30 56924 C 5710.96 0.160708 -3.60242 0
M  V30 56925 O 5710.06 1.22496 -3.93788 0
M  V30 56926 H 5709.4 -0.0480437 -0.66226 0
M  V30 56927 H 5711.93 -0.763496 -1.89821 0
M  V30 56928 H 5711.94 0.377194 -4.06253 0
M  V30 56929 H 5710.62 -0.774917 -4.08617 0
M  V30 56930 H 5709.19 0.989543 -3.59531 0
M  V30 56931 N 5711.38 1.54983 -0.285987 0
M  V30 56932 C 5712.6 2.047 0.333549 0
M  V30 56933 C 5713.03 1.16257 1.47871 0
M  V30 56934 O 5712.39 0.163439 1.80562 0
M  V30 56935 C 5712.43 3.52024 0.781746 0
M  V30 56936 O 5711.54 3.66645 1.88799 0
M  V30 56937 H 5710.88 0.660581 0.0672971 0
M  V30 56938 H 5713.41 2.0017 -0.423456 0
M  V30 56939 H 5713.42 3.93594 1.07459 0
M  V30 56940 H 5712.09 4.15862 -0.0560392 0
M  V30 56941 H 5710.67 3.3698 1.59684 0
M  V30 56942 N 5712.86 0.0134446 1.57594 0
M  V30 56943 C 5714.08 -0.682786 1.95839 0
M  V30 56944 C 5714.51 -1.6576 0.889107 0
M  V30 56945 O 5713.86 -1.80666 -0.151522 0
M  V30 56946 C 5713.91 -1.37919 3.33183 0
M  V30 56947 O 5713.02 -2.49405 3.28437 0
M  V30 56948 H 5712.36 -0.180607 0.638966 0
M  V30 56949 H 5714.89 0.0706362 2.04478 0
M  V30 56950 H 5714.9 -1.73956 3.69057 0
M  V30 56951 H 5713.57 -0.66453 4.10557 0
M  V30 56952 H 5712.15 -2.15595 3.04258 0
M  V30 56953 N 5714.33 -1.55449 -0.259503 0
M  V30 56954 C 5715.56 -1.80469 -1.00571 0
M  V30 56955 C 5715.97 -0.585064 -1.79927 0
M  V30 56956 O 5715.32 0.455578 -1.77961 0
M  V30 56957 C 5715.38 -2.98641 -2.00135 0
M  V30 56958 C 5715.04 -4.35159 -1.39591 0
M  V30 56959 C 5716.04 -5.13634 -0.804742 0
M  V30 56960 C 5713.72 -4.81838 -1.41906 0
M  V30 56961 C 5715.72 -6.3693 -0.244783 0
M  V30 56962 C 5713.4 -6.05086 -0.855245 0
M  V30 56963 C 5714.4 -6.8247 -0.269119 0
M  V30 56964 O 5714.09 -8.03391 0.286026 0
M  V30 56965 H 5713.82 -0.604704 -0.302174 0
M  V30 56966 H 5716.38 -2.03321 -0.291528 0
M  V30 56967 H 5714.61 -2.71513 -2.7535 0
M  V30 56968 H 5716.3 -3.10864 -2.60995 0
M  V30 56969 H 5717.06 -4.78696 -0.779457 0
M  V30 56970 H 5712.94 -4.21606 -1.86466 0
M  V30 56971 H 5716.48 -6.97274 0.213343 0
M  V30 56972 H 5712.38 -6.39503 -0.877816 0
M  V30 56973 H 5713.15 -8.18309 0.176678 0
M  V30 56974 N 5715.81 0.524619 -1.48612 0
M  V30 56975 C 5717.06 1.28205 -1.57135 0
M  V30 56976 C 5717.39 1.92625 -0.246819 0
M  V30 56977 O 5716.67 1.79556 0.747662 0
M  V30 56978 C 5716.95 2.36728 -2.71352 0
M  V30 56979 C 5716.8 1.76964 -4.13526 0
M  V30 56980 C 5718.12 3.3846 -2.81306 0
M  V30 56981 H 5715.24 0.46477 -0.571977 0
M  V30 56982 H 5717.88 0.583874 -1.80806 0
M  V30 56983 H 5716.03 2.96278 -2.51299 0
M  V30 56984 H 5717.7 1.21423 -4.45033 0
M  V30 56985 H 5715.95 1.07474 -4.20276 0
M  V30 56986 H 5716.62 2.55566 -4.89275 0
M  V30 56987 H 5719.09 2.88871 -2.99487 0
M  V30 56988 H 5717.97 4.11782 -3.62942 0
M  V30 56989 H 5718.23 3.99341 -1.89683 0
M  V30 56990 N 5717.29 1.3729 0.773902 0
M  V30 56991 C 5718.53 1.33776 1.54542 0
M  V30 56992 C 5718.89 -0.077746 1.91843 0
M  V30 56993 O 5720.1 -0.237588 2.67748 0
M  V30 56994 C 5718.37 2.24869 2.77793 0
M  V30 56995 S 5719.93 2.39185 3.6788 0
M  V30 56996 H 5716.74 0.474937 0.529109 0
M  V30 56997 H 5719.35 1.73018 0.910227 0
M  V30 56998 H 5718.05 3.26638 2.48467 0
M  V30 56999 H 5717.58 1.86703 3.46274 0
M  V30 57000 H 5719.6 1.60084 4.69667 0
M  V30 57001 N 5718.77 -0.999829 1.21824 0
M  V30 57002 C 5720.01 -1.74094 1.04015 0
M  V30 57003 C 5720.35 -1.895 -0.42465 0
M  V30 57004 O 5719.62 -1.43311 -1.315 0
M  V30 57005 C 5719.91 -3.15054 1.74393 0
M  V30 57006 C 5719.76 -3.07339 3.28425 0
M  V30 57007 C 5721.08 -4.14085 1.49069 0
M  V30 57008 H 5718.2 -0.631922 0.379267 0
M  V30 57009 H 5720.84 -1.16529 1.5007 0
M  V30 57010 H 5718.99 -3.64201 1.3524 0
M  V30 57011 H 5720.66 -2.65866 3.76979 0
M  V30 57012 H 5718.9 -2.44313 3.5846 0
M  V30 57013 H 5719.57 -4.07056 3.72839 0
M  V30 57014 H 5722.05 -3.73665 1.83067 0
M  V30 57015 H 5720.93 -5.10846 2.00818 0
M  V30 57016 H 5721.19 -4.40083 0.421795 0
M  V30 57017 N 5720.25 -1.02682 -1.19558 0
M  V30 57018 C 5721.49 -0.730767 -1.9089 0
M  V30 57019 C 5721.85 0.727104 -1.777 0
M  V30 57020 O 5723.05 1.13614 -2.43609 0
M  V30 57021 C 5721.32 -1.16695 -3.37812 0
M  V30 57022 S 5722.88 -0.994421 -4.27384 0
M  V30 57023 H 5719.7 -0.266106 -0.659325 0
M  V30 57024 H 5722.3 -1.31622 -1.44554 0
M  V30 57025 H 5721.01 -2.22366 -3.44937 0
M  V30 57026 H 5720.54 -0.574695 -3.8918 0
M  V30 57027 H 5722.55 0.0962127 -4.96107 0
M  V30 57028 N 5721.73 1.35525 -0.804411 0
M  V30 57029 C 5723.14 1.81319 -0.444997 0
M  V30 57030 C 5723.49 1.66819 1.03275 0
M  V30 57031 O 5722.61 1.1976 1.8024 0
M  V30 57032 C 5723.21 3.29197 -0.800943 0
M  V30 57033 C 5721.77 3.73142 -0.494157 0
M  V30 57034 C 5720.91 2.57553 -1.0277 0
M  V30 57035 H 5723.86 1.23534 -0.996247 0
M  V30 57036 H 5723.89 3.80375 -0.0976454 0
M  V30 57037 H 5723.4 3.39718 -1.87652 0
M  V30 57038 H 5721.5 3.68171 0.572771 0
M  V30 57039 H 5721.61 4.68001 -1.02526 0
M  V30 57040 H 5719.98 2.50691 -0.450136 0
M  V30 57041 H 5720.76 2.70853 -2.10934 0
M  V30 57042 N 5723.2 0.557723 1.47402 0
M  V30 57043 C 5724.17 -0.179231 2.28498 0
M  V30 57044 C 5725.17 -0.842233 1.36978 0
M  V30 57045 O 5726.36 -0.698016 1.59604 0
M  V30 57046 C 5723.49 -1.26218 3.16673 0
M  V30 57047 H 5724.68 0.533137 2.95123 0
M  V30 57048 H 5722.23 0.314688 1.53099 0
M  V30 57049 H 5722.97 -2.00693 2.54741 0
M  V30 57050 H 5722.75 -0.791577 3.84027 0
M  V30 57051 H 5724.24 -1.77978 3.77775 0
M  V30 57052 N 5724.68 -1.5483 0.294202 0
M  V30 57053 C 5725.93 -1.99607 -0.316438 0
M  V30 57054 C 5726.25 -1.18411 -1.54932 0
M  V30 57055 O 5725.52 -0.278358 -1.93912 0
M  V30 57056 H 5724.1 -0.737313 -0.119912 0
M  V30 57057 H 5726.76 -1.90668 0.403958 0
M  V30 57058 H 5725.86 -3.06411 -0.593174 0
M  V30 57059 N 5726.16 -0.021802 -1.57585 0
M  V30 57060 C 5727.41 0.65842 -1.91497 0
M  V30 57061 C 5727.73 1.72554 -0.897523 0
M  V30 57062 O 5726.99 1.95471 0.0946222 0
M  V30 57063 C 5727.29 1.31958 -3.32147 0
M  V30 57064 C 5726.95 0.383549 -4.49266 0
M  V30 57065 C 5725.62 0.125895 -4.81035 0
M  V30 57066 C 5727.97 -0.259628 -5.20553 0
M  V30 57067 C 5725.3 -0.782863 -5.81453 0
M  V30 57068 C 5727.65 -1.1564 -6.21941 0
M  V30 57069 C 5726.31 -1.42301 -6.52155 0
M  V30 57070 H 5725.58 0.240933 -0.700737 0
M  V30 57071 H 5728.23 -0.0820024 -1.91324 0
M  V30 57072 H 5726.53 2.13458 -3.28547 0
M  V30 57073 H 5728.23 1.85232 -3.55654 0
M  V30 57074 H 5724.82 0.594541 -4.24456 0
M  V30 57075 H 5729.01 -0.0736194 -4.96245 0
M  V30 57076 H 5724.26 -0.997207 -6.03213 0
M  V30 57077 H 5728.44 -1.661 -6.76301 0
M  V30 57078 H 5726.06 -2.12885 -7.29783 0
M  V30 57079 N 5727.64 1.55584 0.251256 0
M  V30 57080 C 5728.87 1.81263 0.997573 0
M  V30 57081 C 5729.28 0.596924 1.79115 0
M  V30 57082 O 5728.64 -0.434362 1.77256 0
M  V30 57083 C 5728.69 3.05104 1.93891 0
M  V30 57084 O 5728.41 4.21981 1.17745 0
M  V30 57085 C 5729.91 3.4355 2.80158 0
M  V30 57086 H 5727.13 0.60329 0.293739 0
M  V30 57087 H 5729.67 2.02636 0.275459 0
M  V30 57088 H 5727.83 2.85793 2.61536 0
M  V30 57089 H 5728.24 4.92139 1.81381 0
M  V30 57090 H 5729.72 4.33317 3.41966 0
M  V30 57091 H 5730.19 2.63936 3.51047 0
M  V30 57092 H 5730.8 3.65196 2.17972 0
M  V30 57093 N 5729.12 -0.516731 1.48888 0
M  V30 57094 C 5730.36 -1.2693 1.57268 0
M  V30 57095 C 5730.68 -1.93336 0.254223 0
M  V30 57096 O 5729.95 -1.81979 -0.725281 0
M  V30 57097 H 5728.53 -0.47148 0.57941 0
M  V30 57098 H 5731.2 -0.600223 1.85427 0
M  V30 57099 H 5730.29 -2.04159 2.36063 0
M  V30 57100 N 5730.59 -1.37698 -0.766611 0
M  V30 57101 C 5731.82 -1.36569 -1.56089 0
M  V30 57102 C 5732.24 0.0455167 -1.88045 0
M  V30 57103 O 5731.6 1.024 -1.49613 0
M  V30 57104 C 5731.65 -2.21602 -2.84473 0
M  V30 57105 O 5730.75 -1.62417 -3.7907 0
M  V30 57106 H 5730.09 -0.466411 -0.472607 0
M  V30 57107 H 5732.62 -1.8129 -0.948422 0
M  V30 57108 H 5732.63 -2.34999 -3.33526 0
M  V30 57109 H 5731.31 -3.24176 -2.60543 0
M  V30 57110 H 5729.89 -1.5809 -3.37731 0
M  V30 57111 N 5732.07 0.993354 -1.22353 0
M  V30 57112 C 5733.49 1.25705 -0.983389 0
M  V30 57113 C 5733.69 1.98889 0.323302 0
M  V30 57114 O 5732.74 2.29814 1.04604 0
M  V30 57115 C 5734.06 2.06928 -2.18178 0
M  V30 57116 C 5735.6 2.20113 -2.22529 0
M  V30 57117 C 5736.08 3.04723 -3.41918 0
M  V30 57118 N 5737.57 3.1231 -3.42077 0
M  V30 57119 C 5738.31 3.78066 -4.31108 0
M  V30 57120 N 5737.8 4.45752 -5.30355 0
M  V30 57121 N 5739.59 3.74822 -4.18885 0
M  V30 57122 H 5731.75 0.502694 -2.06366 0
M  V30 57123 H 5734.01 0.284624 -0.904264 0
M  V30 57124 H 5733.71 1.60514 -3.12934 0
M  V30 57125 H 5733.59 3.07683 -2.182 0
M  V30 57126 H 5735.98 2.6574 -1.2832 0
M  V30 57127 H 5736.06 1.1879 -2.26545 0
M  V30 57128 H 5735.7 2.59796 -4.36427 0
M  V30 57129 H 5735.63 4.06186 -3.35142 0
M  V30 57130 H 5738.12 2.64137 -2.7026 0
M  V30 57131 H 5738.43 4.93666 -5.9457 0
M  V30 57132 H 5736.78 4.44502 -5.34269 0
M  V30 57133 H 5739.97 3.21104 -3.40602 0
M  V30 57134 H 5740.14 4.25789 -4.88475 0
M  V30 57135 N 5733.55 1.03315 1.19012 0
M  V30 57136 C 5734.79 0.74088 1.905 0
M  V30 57137 C 5735.15 -0.71767 1.78083 0
M  V30 57138 O 5736.35 -1.12321 2.44208 0
M  V30 57139 C 5734.63 1.18485 3.37189 0
M  V30 57140 S 5736.18 1.01707 4.2685 0
M  V30 57141 H 5733 0.269598 0.657904 0
M  V30 57142 H 5735.6 1.32387 1.43854 0
M  V30 57143 H 5734.31 2.24192 3.43753 0
M  V30 57144 H 5733.84 0.595326 3.88869 0
M  V30 57145 H 5735.85 -0.0699016 4.96151 0
M  V30 57146 N 5735.03 -1.35096 0.811587 0
M  V30 57147 C 5735.94 -2.33498 0.227132 0
M  V30 57148 C 5736.95 -1.62097 -0.632505 0
M  V30 57149 O 5738.13 -1.9394 -0.543079 0
M  V30 57150 C 5735.2 -3.41281 -0.610567 0
M  V30 57151 C 5734.26 -4.28449 0.270145 0
M  V30 57152 C 5733.49 -5.31085 -0.527668 0
M  V30 57153 O 5733.71 -5.42505 -1.76194 0
M  V30 57154 O 5732.65 -6.01841 0.0840736 0
M  V30 57155 H 5736.47 -2.85291 1.04129 0
M  V30 57156 H 5734.06 -1.37955 0.573481 0
M  V30 57157 H 5735.94 -4.07125 -1.08754 0
M  V30 57158 H 5734.61 -2.91751 -1.40224 0
M  V30 57159 H 5733.52 -3.65569 0.794362 0
M  V30 57160 H 5734.85 -4.8139 1.02589 0
M  V30 57161 N 5736.51 -0.565532 -1.47104 0
M  V30 57162 C 5737.46 0.198054 -2.27138 0
M  V30 57163 C 5738.44 0.877695 -1.34853 0
M  V30 57164 O 5739.63 0.774627 -1.59149 0
M  V30 57165 C 5736.76 1.22212 -3.2081 0
M  V30 57166 C 5735.85 0.545469 -4.20578 0
M  V30 57167 N 5736.24 -0.389206 -5.043 0
M  V30 57168 C 5734.54 0.798363 -4.38796 0
M  V30 57169 C 5735.24 -0.783055 -5.76405 0
M  V30 57170 N 5734.21 -0.136021 -5.4343 0
M  V30 57171 H 5738.02 -0.520456 -2.89255 0
M  V30 57172 H 5735.53 -0.386068 -1.57744 0
M  V30 57173 H 5737.53 1.78319 -3.76839 0
M  V30 57174 H 5736.19 1.94163 -2.60251 0
M  V30 57175 H 5737.2 -0.763824 -5.12236 0
M  V30 57176 H 5733.87 1.50575 -3.89401 0
M  V30 57177 H 5735.26 -1.55156 -6.5374 0
M  V30 57178 N 5737.98 1.54671 -0.302409 0
M  V30 57179 C 5739.21 2.05043 0.311819 0
M  V30 57180 C 5739.63 1.17819 1.4663 0
M  V30 57181 O 5738.99 0.182581 1.80378 0
M  V30 57182 C 5739.04 3.52834 0.744365 0
M  V30 57183 O 5738.14 3.68627 1.849 0
M  V30 57184 H 5737.49 0.661257 0.060287 0
M  V30 57185 H 5740.02 1.9971 -0.444663 0
M  V30 57186 H 5740.03 3.94712 1.03279 0
M  V30 57187 H 5738.7 4.15779 -0.100144 0
M  V30 57188 H 5737.28 3.38654 1.56101 0
M  V30 57189 N 5739.46 0.0301588 1.57571 0
M  V30 57190 C 5740.39 -0.980114 2.07187 0
M  V30 57191 C 5741.41 -1.28817 0.995495 0
M  V30 57192 O 5742.6 -1.25264 1.27166 0
M  V30 57193 C 5739.7 -2.30725 2.48232 0
M  V30 57194 C 5738.87 -2.18421 3.7896 0
M  V30 57195 C 5737.93 -3.34078 4.06545 0
M  V30 57196 O 5736.95 -3.10917 4.7678 0
M  V30 57197 N 5738.16 -4.57901 3.568 0
M  V30 57198 H 5740.92 -0.556774 2.94483 0
M  V30 57199 H 5738.48 -0.156575 1.61141 0
M  V30 57200 H 5740.47 -3.06927 2.63777 0
M  V30 57201 H 5739.04 -2.64697 1.66296 0
M  V30 57202 H 5738.26 -1.2694 3.73202 0
M  V30 57203 H 5739.55 -2.07405 4.64608 0
M  V30 57204 H 5738.95 -4.79612 2.99981 0
M  V30 57205 H 5737.51 -5.31267 3.77622 0
M  V30 57206 N 5740.94 -1.55715 -0.243001 0
M  V30 57207 C 5741.9 -1.89837 -1.28432 0
M  V30 57208 C 5742.9 -0.775132 -1.40884 0
M  V30 57209 O 5744.09 -1.04309 -1.39518 0
M  V30 57210 C 5741.23 -2.13025 -2.66145 0
M  V30 57211 H 5742.42 -2.82951 -0.993923 0
M  V30 57212 H 5739.97 -1.48667 -0.482469 0
M  V30 57213 H 5740.71 -1.22392 -3.00318 0
M  V30 57214 H 5740.49 -2.94833 -2.58488 0
M  V30 57215 H 5741.98 -2.40593 -3.41328 0
M  V30 57216 N 5742.42 0.508828 -1.4916 0
M  V30 57217 C 5743.35 1.62002 -1.6816 0
M  V30 57218 C 5744.33 1.61622 -0.530306 0
M  V30 57219 O 5745.51 1.78486 -0.765267 0
M  V30 57220 C 5742.64 3.00519 -1.74085 0
M  V30 57221 C 5741.6 3.15762 -2.88926 0
M  V30 57222 C 5740.92 4.55552 -2.79958 0
M  V30 57223 C 5742.22 2.96527 -4.29964 0
M  V30 57224 H 5743.92 1.46356 -2.6119 0
M  V30 57225 H 5741.46 0.702661 -1.25693 0
M  V30 57226 H 5743.42 3.78147 -1.85964 0
M  V30 57227 H 5742.14 3.17235 -0.776484 0
M  V30 57228 H 5740.8 2.40557 -2.76637 0
M  V30 57229 H 5740.45 4.69134 -1.81445 0
M  V30 57230 H 5740.15 4.66693 -3.57031 0
M  V30 57231 H 5741.67 5.35252 -2.93833 0
M  V30 57232 H 5743.09 3.63931 -4.42975 0
M  V30 57233 H 5741.48 3.19146 -5.08199 0
M  V30 57234 H 5742.55 1.9273 -4.44953 0
M  V30 57235 N 5743.9 1.38103 0.759297 0
M  V30 57236 C 5744.85 1.31379 1.86342 0
M  V30 57237 C 5745.83 0.199169 1.59663 0
M  V30 57238 O 5747.02 0.434651 1.7158 0
M  V30 57239 C 5744.15 1.13548 3.23978 0
M  V30 57240 C 5743.24 2.29608 3.56568 0
M  V30 57241 N 5743.63 3.55036 3.60254 0
M  V30 57242 C 5741.93 2.22035 3.86803 0
M  V30 57243 C 5742.63 4.31642 3.89948 0
M  V30 57244 N 5741.6 3.60929 4.06487 0
M  V30 57245 H 5745.41 2.26352 1.87462 0
M  V30 57246 H 5742.92 1.31253 0.956369 0
M  V30 57247 H 5744.92 1.06815 4.02984 0
M  V30 57248 H 5743.58 0.195036 3.24114 0
M  V30 57249 H 5744.59 3.88781 3.42154 0
M  V30 57250 H 5741.26 1.36118 3.94687 0
M  V30 57251 H 5742.65 5.40252 3.99471 0
M  V30 57252 N 5745.37 -0.986851 1.22878 0
M  V30 57253 C 5746.61 -1.74239 1.06865 0
M  V30 57254 C 5746.98 -1.88025 -0.38867 0
M  V30 57255 O 5748.18 -2.60321 -0.669815 0
M  V30 57256 C 5746.45 -3.10662 1.76703 0
M  V30 57257 S 5748.01 -4.01878 1.7618 0
M  V30 57258 H 5744.83 -0.599297 0.382576 0
M  V30 57259 H 5747.43 -1.17946 1.55913 0
M  V30 57260 H 5746.13 -2.98275 2.81887 0
M  V30 57261 H 5745.66 -3.72025 1.2791 0
M  V30 57262 H 5747.68 -4.89448 0.815799 0
M  V30 57263 N 5746.85 -1.03945 -1.18462 0
M  V30 57264 C 5747.8 -0.599827 -2.19968 0
M  V30 57265 C 5748.79 0.357072 -1.56888 0
M  V30 57266 O 5749.98 0.176326 -1.7612 0
M  V30 57267 C 5747.11 0.0370227 -3.4328 0
M  V30 57268 C 5746.19 -0.94295 -4.13484 0
M  V30 57269 N 5746.58 -2.10952 -4.59709 0
M  V30 57270 C 5744.88 -0.768683 -4.39326 0
M  V30 57271 C 5745.58 -2.72847 -5.13741 0
M  V30 57272 N 5744.56 -2.00731 -5.05181 0
M  V30 57273 H 5748.36 -1.48884 -2.53398 0
M  V30 57274 H 5745.88 -0.907865 -1.34654 0
M  V30 57275 H 5747.87 0.369657 -4.15258 0
M  V30 57276 H 5746.53 0.921591 -3.11347 0
M  V30 57277 H 5747.54 -2.48847 -4.54198 0
M  V30 57278 H 5744.22 0.0658979 -4.17448 0
M  V30 57279 H 5745.61 -3.71703 -5.5972 0
M  V30 57280 N 5748.33 1.34664 -0.81874 0
M  V30 57281 C 5749.74 1.80837 -0.464203 0
M  V30 57282 C 5750.09 1.67905 1.015 0
M  V30 57283 O 5749.22 1.21664 1.7896 0
M  V30 57284 C 5749.81 3.28328 -0.835814 0
M  V30 57285 C 5748.37 3.72597 -0.533706 0
M  V30 57286 C 5747.52 2.56449 -1.05496 0
M  V30 57287 H 5750.47 1.2247 -1.00929 0
M  V30 57288 H 5750.49 3.8025 -0.137984 0
M  V30 57289 H 5750 3.37709 -1.91245 0
M  V30 57290 H 5748.1 3.68758 0.53369 0
M  V30 57291 H 5748.22 4.66888 -1.07484 0
M  V30 57292 H 5746.58 2.50199 -0.4767 0
M  V30 57293 H 5747.36 2.68601 -2.13795 0
M  V30 57294 N 5749.81 0.573325 1.46802 0
M  V30 57295 C 5750.72 -0.167998 2.33998 0
M  V30 57296 C 5751.74 -0.895599 1.49181 0
M  V30 57297 O 5752.91 -0.860887 1.82073 0
M  V30 57298 C 5749.98 -1.17472 3.26192 0
M  V30 57299 C 5749.04 -0.452806 4.26905 0
M  V30 57300 C 5748.27 -1.41157 5.14695 0
M  V30 57301 O 5748.49 -2.6475 5.05236 0
M  V30 57302 O 5747.43 -0.927263 5.94715 0
M  V30 57303 H 5751.25 0.547681 2.98721 0
M  V30 57304 H 5748.84 0.333799 1.45623 0
M  V30 57305 H 5750.72 -1.75544 3.83096 0
M  V30 57306 H 5749.4 -1.87203 2.64077 0
M  V30 57307 H 5748.3 0.169514 3.73716 0
M  V30 57308 H 5749.64 0.203359 4.9178 0
M  V30 57309 N 5751.29 -1.54509 0.310607 0
M  V30 57310 C 5752.25 -2.22542 -0.548411 0
M  V30 57311 C 5753.25 -1.2146 -1.05377 0
M  V30 57312 O 5754.44 -1.46129 -0.94826 0
M  V30 57313 C 5751.57 -2.91933 -1.76033 0
M  V30 57314 H 5752.77 -2.99865 0.046136 0
M  V30 57315 H 5750.32 -1.56179 0.0615419 0
M  V30 57316 H 5751.05 -2.18715 -2.39446 0
M  V30 57317 H 5750.84 -3.66043 -1.40551 0
M  V30 57318 H 5752.33 -3.43805 -2.37039 0
M  V30 57319 N 5752.77 -0.0385148 -1.57553 0
M  V30 57320 C 5754.01 0.642119 -1.94052 0
M  V30 57321 C 5754.37 1.6875 -0.915838 0
M  V30 57322 O 5755.57 2.42129 -1.16734 0
M  V30 57323 C 5753.84 1.23411 -3.35417 0
M  V30 57324 S 5755.4 1.9345 -3.93856 0
M  V30 57325 H 5752.22 0.211174 -0.678916 0
M  V30 57326 H 5754.82 -0.104427 -1.95221 0
M  V30 57327 H 5753.52 0.460968 -4.07803 0
M  V30 57328 H 5753.06 2.01775 -3.37714 0
M  V30 57329 H 5755.07 3.21388 -3.78053 0
M  V30 57330 N 5754.24 1.55842 0.23474 0
M  V30 57331 C 5755.49 1.77889 0.959155 0
M  V30 57332 C 5755.81 0.604686 1.85388 0
M  V30 57333 O 5755.08 -0.379025 1.92198 0
M  V30 57334 H 5753.66 0.65609 0.357149 0
M  V30 57335 H 5756.32 1.93293 0.249764 0
M  V30 57336 H 5755.42 2.69518 1.57374 0
M  V30 57337 N 5755.72 -0.50091 1.49428 0
M  V30 57338 C 5757.13 -1.08243 1.52119 0
M  V30 57339 C 5757.48 -1.93776 0.307448 0
M  V30 57340 O 5756.61 -2.08406 -0.582732 0
M  V30 57341 C 5757.2 -1.96978 2.75654 0
M  V30 57342 C 5755.76 -2.50293 2.81124 0
M  V30 57343 C 5754.91 -1.27915 2.46035 0
M  V30 57344 H 5757.86 -0.284817 1.56123 0
M  V30 57345 H 5757.88 -2.81666 2.55821 0
M  V30 57346 H 5757.39 -1.34698 3.63975 0
M  V30 57347 H 5755.49 -3.16211 1.97083 0
M  V30 57348 H 5755.61 -2.87439 3.83296 0
M  V30 57349 H 5753.97 -1.6044 1.97816 0
M  V30 57350 H 5754.75 -0.673439 3.3663 0
M  V30 57351 N 5757.2 -1.38504 -0.751963 0
M  V30 57352 C 5758.48 -1.2532 -1.5018 0
M  V30 57353 C 5758.86 0.144688 -2.10604 0
M  V30 57354 O 5758.2 1.15434 -1.97198 0
M  V30 57355 C 5758.41 -2.3646 -2.56686 0
M  V30 57356 C 5759.76 -2.74963 -3.23544 0
M  V30 57357 O 5760.79 -2.35784 -2.66992 0
M  V30 57358 O 5759.65 -3.42532 -4.25833 0
M  V30 57359 H 5756.74 -0.490162 -0.666086 0
M  V30 57360 H 5759.29 -1.50335 -0.787235 0
M  V30 57361 H 5758.06 -3.29986 -2.10298 0
M  V30 57362 H 5757.68 -2.13018 -3.35722 0
M  V30 57363 N 5758.68 0.980321 -1.234 0
M  V30 57364 C 5759.64 2.0543 -1.01642 0
M  V30 57365 C 5760.64 1.60785 0.0217678 0
M  V30 57366 O 5761.83 1.72831 -0.217983 0
M  V30 57367 C 5758.96 3.36629 -0.53794 0
M  V30 57368 H 5760.16 2.26165 -1.96951 0
M  V30 57369 H 5757.71 1.15374 -1.05445 0
M  V30 57370 H 5758.44 3.21583 0.418917 0
M  V30 57371 H 5758.23 3.70373 -1.28711 0
M  V30 57372 H 5759.72 4.15618 -0.406359 0
M  V30 57373 N 5760.16 1.04571 1.17909 0
M  V30 57374 C 5761.38 0.772271 1.91947 0
M  V30 57375 C 5761.8 -0.671241 1.76465 0
M  V30 57376 O 5761.16 -1.45801 1.09765 0
M  V30 57377 C 5761.21 1.13551 3.43203 0
M  V30 57378 O 5760.93 2.52235 3.58202 0
M  V30 57379 C 5762.43 0.887298 4.34329 0
M  V30 57380 H 5759.65 0.281256 0.60921 0
M  V30 57381 H 5762.19 1.39473 1.49558 0
M  V30 57382 H 5760.35 0.557919 3.83361 0
M  V30 57383 H 5760.76 2.66291 4.51873 0
M  V30 57384 H 5762.24 1.19126 5.38993 0
M  V30 57385 H 5762.71 -0.177745 4.3884 0
M  V30 57386 H 5763.32 1.44843 3.99876 0
M  V30 57387 N 5761.63 -1.34228 0.82587 0
M  V30 57388 C 5762.87 -2.00012 0.421243 0
M  V30 57389 C 5763.24 -1.64042 -0.997701 0
M  V30 57390 O 5764.44 -2.22693 -1.50537 0
M  V30 57391 C 5762.71 -3.51968 0.620767 0
M  V30 57392 S 5764.27 -4.37708 0.309426 0
M  V30 57393 H 5761.09 -0.692987 0.159027 0
M  V30 57394 H 5763.69 -1.63467 1.07233 0
M  V30 57395 H 5762.39 -3.75634 1.6531 0
M  V30 57396 H 5761.92 -3.93374 -0.0449449 0
M  V30 57397 H 5763.94 -4.8841 -0.875771 0
M  V30 57398 N 5763.11 -0.581102 -1.46496 0
M  V30 57399 C 5764.36 -0.0661646 -2.02692 0
M  V30 57400 C 5764.69 1.2898 -1.45182 0
M  V30 57401 O 5763.97 1.84477 -0.616312 0
M  V30 57402 C 5764.25 0.00132751 -3.601 0
M  V30 57403 C 5764.1 -1.38342 -4.27997 0
M  V30 57404 C 5765.42 0.702761 -4.34453 0
M  V30 57405 H 5762.54 -0.0255182 -0.736558 0
M  V30 57406 H 5765.18 -0.747992 -1.74657 0
M  V30 57407 H 5763.33 0.581983 -3.84116 0
M  V30 57408 H 5765 -2.00912 -4.15249 0
M  V30 57409 H 5763.25 -1.95158 -3.87422 0
M  V30 57410 H 5763.92 -1.28868 -5.36747 0
M  V30 57411 H 5766.39 0.209495 -4.15572 0
M  V30 57412 H 5765.27 0.71901 -5.4417 0
M  V30 57413 H 5765.53 1.76375 -4.05394 0
M  V30 57414 N 5764.59 1.54342 -0.318797 0
M  V30 57415 C 5765.54 2.25636 0.564891 0
M  V30 57416 C 5766.53 1.26873 1.12248 0
M  V30 57417 O 5767.74 1.44666 1.07107 0
M  V30 57418 H 5764.11 0.724693 0.200808 0
M  V30 57419 H 5766.08 2.98342 -0.0587442 0
M  V30 57420 C 5764.83 3.02376 1.71651 0
M  V30 57421 H 5764.16 3.78187 1.29671 0
M  V30 57422 H 5765.6 3.55515 2.31053 0
M  V30 57423 C 5764.06 2.10392 2.63129 0
M  V30 57424 O 5764.59 1.68363 3.64714 0
M  V30 57425 N 5762.79 1.75979 2.31257 0
M  V30 57426 H 5762.34 2.10354 1.4869 0
M  V30 57427 H 5762.3 1.14712 2.92726 0
M  V30 57428 N 5766.07 0.0468696 1.5753 0
M  V30 57429 C 5767.48 -0.309652 1.56567 0
M  V30 57430 C 5767.68 -1.71727 1.05414 0
M  V30 57431 O 5766.74 -2.42347 0.708809 0
M  V30 57432 C 5768.05 -0.142046 3.00364 0
M  V30 57433 C 5769.6 -0.213475 3.12271 0
M  V30 57434 C 5770.08 -0.0744492 4.57939 0
M  V30 57435 N 5771.57 -0.130864 4.63015 0
M  V30 57436 C 5772.3 -0.0473394 5.7338 0
M  V30 57437 N 5771.8 0.0882881 6.92744 0
M  V30 57438 N 5773.59 -0.102611 5.62006 0
M  V30 57439 H 5765.74 0.967123 1.89104 0
M  V30 57440 H 5768.01 0.375049 0.870656 0
M  V30 57441 H 5767.71 0.828291 3.41807 0
M  V30 57442 H 5767.59 -0.904878 3.66185 0
M  V30 57443 H 5769.97 -1.17428 2.7073 0
M  V30 57444 H 5770.05 0.580038 2.49137 0
M  V30 57445 H 5769.7 0.883015 5.00165 0
M  V30 57446 H 5769.63 -0.887053 5.19075 0
M  V30 57447 H 5772.12 -0.235113 3.77168 0
M  V30 57448 H 5772.43 0.144845 7.72664 0
M  V30 57449 H 5770.78 0.123314 6.94891 0
M  V30 57450 H 5773.97 -0.207095 4.67642 0
M  V30 57451 H 5774.14 -0.0340587 6.47991 0
M  V30 57452 N 5767.55 -1.55964 -0.226472 0
M  V30 57453 C 5768.96 -1.68981 -0.793877 0
M  V30 57454 C 5769.31 -0.648003 -1.8519 0
M  V30 57455 O 5768.43 0.201831 -2.15457 0
M  V30 57456 C 5769.03 -3.06357 -1.44676 0
M  V30 57457 C 5767.59 -3.21244 -1.96161 0
M  V30 57458 C 5766.73 -2.64898 -0.820006 0
M  V30 57459 H 5769.69 -1.587 -0.00190388 0
M  V30 57460 H 5769.71 -3.0194 -2.31544 0
M  V30 57461 H 5769.22 -3.82159 -0.676477 0
M  V30 57462 H 5767.32 -2.50302 -2.76007 0
M  V30 57463 H 5767.43 -4.28402 -2.14497 0
M  V30 57464 H 5765.8 -2.23251 -1.22601 0
M  V30 57465 H 5766.58 -3.43243 -0.062476 0
M  V30 57466 N 5769.02 0.492978 -1.49691 0
M  V30 57467 C 5770.3 1.25431 -1.50088 0
M  V30 57468 C 5770.68 2.09809 -0.233112 0
M  V30 57469 O 5770.03 2.14619 0.784266 0
M  V30 57470 C 5770.24 2.10416 -2.78435 0
M  V30 57471 C 5771.59 2.69337 -3.28242 0
M  V30 57472 O 5772.61 2.20676 -2.79607 0
M  V30 57473 O 5771.47 3.57941 -4.12965 0
M  V30 57474 H 5768.56 0.568023 -0.601064 0
M  V30 57475 H 5771.11 0.506591 -1.61962 0
M  V30 57476 H 5769.88 1.48096 -3.62193 0
M  V30 57477 H 5769.51 2.92364 -2.6946 0
M  V30 57478 N 5770.5 1.38901 0.744607 0
M  V30 57479 C 5771.75 1.35332 1.50099 0
M  V30 57480 C 5772.07 -0.0532102 1.94927 0
M  V30 57481 O 5771.34 -1.00264 1.68297 0
M  V30 57482 H 5769.92 0.49799 0.55679 0
M  V30 57483 H 5772.58 1.73671 0.884564 0
M  V30 57484 H 5771.68 2.00991 2.38766 0
M  V30 57485 N 5771.98 -0.973763 1.23918 0
M  V30 57486 C 5773.4 -1.24124 1.00326 0
M  V30 57487 C 5773.6 -1.99379 -0.29162 0
M  V30 57488 O 5772.65 -2.31449 -1.00935 0
M  V30 57489 C 5773.97 -2.0343 2.21442 0
M  V30 57490 C 5775.51 -2.16545 2.26003 0
M  V30 57491 C 5775.99 -2.99245 3.46723 0
M  V30 57492 N 5777.48 -3.06828 3.47003 0
M  V30 57493 C 5778.21 -3.71159 4.37068 0
M  V30 57494 N 5777.71 -4.37258 5.3738 0
M  V30 57495 N 5779.5 -3.68111 4.24795 0
M  V30 57496 H 5771.65 -0.4698 2.07139 0
M  V30 57497 H 5773.92 -0.270202 0.908678 0
M  V30 57498 H 5773.62 -1.55516 3.15449 0
M  V30 57499 H 5773.5 -3.04172 2.23067 0
M  V30 57500 H 5775.88 -2.63665 1.32531 0
M  V30 57501 H 5775.97 -1.15171 2.28406 0
M  V30 57502 H 5775.61 -2.5282 4.40505 0
M  V30 57503 H 5775.54 -4.00803 3.41562 0
M  V30 57504 H 5778.03 -2.59803 2.74428 0
M  V30 57505 H 5778.34 -4.84145 6.02348 0
M  V30 57506 H 5776.69 -4.35946 5.41273 0
M  V30 57507 H 5779.88 -3.15645 3.45667 0
M  V30 57508 H 5780.05 -4.17964 4.95187 0
M  V30 57509 N 5773.46 -1.05195 -1.17353 0
M  V30 57510 C 5774.71 -0.760544 -1.87244 0
M  V30 57511 C 5775.03 0.714554 -1.81436 0
M  V30 57512 O 5774.3 1.51632 -1.24034 0
M  V30 57513 H 5772.88 -0.278341 -0.693207 0
M  V30 57514 H 5775.54 -1.33111 -1.42364 0
M  V30 57515 H 5774.64 -1.07552 -2.92983 0
M  V30 57516 N 5774.94 1.33788 -0.832977 0
M  V30 57517 C 5776.17 2.01893 -0.438511 0
M  V30 57518 C 5776.57 1.62847 0.963189 0
M  V30 57519 O 5775.92 0.834694 1.63642 0
M  V30 57520 C 5775.98 3.56378 -0.472729 0
M  V30 57521 C 5775.64 4.18781 -1.82951 0
M  V30 57522 C 5776.64 4.38578 -2.79187 0
M  V30 57523 C 5774.33 4.55335 -2.12074 0
M  V30 57524 C 5776.32 4.94067 -4.02712 0
M  V30 57525 C 5774.01 5.10532 -3.35857 0
M  V30 57526 C 5775 5.29844 -4.30992 0
M  V30 57527 O 5774.69 5.83869 -5.52586 0
M  V30 57528 H 5774.42 0.653474 -0.173054 0
M  V30 57529 H 5776.98 1.71823 -1.12543 0
M  V30 57530 H 5775.21 3.8575 0.270938 0
M  V30 57531 H 5776.9 4.05784 -0.0969128 0
M  V30 57532 H 5777.66 4.10692 -2.57986 0
M  V30 57533 H 5773.54 4.39602 -1.38821 0
M  V30 57534 H 5777.09 5.09055 -4.76978 0
M  V30 57535 H 5772.98 5.37848 -3.56917 0
M  V30 57536 H 5773.75 6.02292 -5.54245 0
M  V30 57537 N 5776.41 0.588863 1.46185 0
M  V30 57538 C 5777.64 0.0826028 2.06735 0
M  V30 57539 C 5778.06 -1.22502 1.43662 0
M  V30 57540 O 5777.41 -1.74201 0.544084 0
M  V30 57541 C 5777.47 -0.083374 3.61404 0
M  V30 57542 O 5777.19 1.1725 4.22119 0
M  V30 57543 C 5778.69 -0.623271 4.38897 0
M  V30 57544 H 5775.91 0.0602648 0.668288 0
M  V30 57545 H 5778.45 0.811281 1.87719 0
M  V30 57546 H 5776.61 -0.762298 3.79826 0
M  V30 57547 H 5777.02 0.990228 5.15068 0
M  V30 57548 H 5778.49 -0.688563 5.47689 0
M  V30 57549 H 5778.97 -1.64158 4.07368 0
M  V30 57550 H 5779.58 0.0209868 4.25295 0
M  V30 57551 N 5777.89 -1.54171 0.326977 0
M  V30 57552 C 5779.13 -2.0254 -0.275121 0
M  V30 57553 C 5779.5 -1.20995 -1.49078 0
M  V30 57554 O 5780.7 -1.59184 -2.16596 0
M  V30 57555 C 5778.97 -3.52368 -0.597643 0
M  V30 57556 S 5780.53 -4.22667 -1.17891 0
M  V30 57557 H 5777.35 -0.706138 -0.0830037 0
M  V30 57558 H 5779.95 -1.8999 0.460893 0
M  V30 57559 H 5778.65 -4.09337 0.295196 0
M  V30 57560 H 5778.18 -3.69005 -1.36376 0
M  V30 57561 H 5780.2 -4.3061 -2.46556 0
M  V30 57562 N 5779.37 -0.0552232 -1.57503 0
M  V30 57563 C 5780.79 0.301345 -1.56729 0
M  V30 57564 C 5780.99 1.71165 -1.06324 0
M  V30 57565 O 5780.04 2.41968 -0.721651 0
M  V30 57566 C 5781.36 0.126115 -3.00435 0
M  V30 57567 C 5782.9 0.196912 -3.1238 0
M  V30 57568 C 5783.38 0.0501625 -4.57973 0
M  V30 57569 N 5784.87 0.106308 -4.63078 0
M  V30 57570 C 5785.61 0.0169309 -5.73398 0
M  V30 57571 N 5785.1 -0.125025 -6.92687 0
M  V30 57572 N 5786.89 0.0728053 -5.62053 0
M  V30 57573 H 5779.05 -0.977138 -1.88589 0
M  V30 57574 H 5781.31 -0.379661 -0.868655 0
M  V30 57575 H 5781.01 -0.846406 -3.41363 0
M  V30 57576 H 5780.89 0.885445 -3.6666 0
M  V30 57577 H 5783.28 1.15991 -2.71349 0
M  V30 57578 H 5783.36 -0.593242 -2.48826 0
M  V30 57579 H 5783 -0.909527 -4.9969 0
M  V30 57580 H 5782.93 0.859512 -5.19538 0
M  V30 57581 H 5785.42 0.215108 -3.77287 0
M  V30 57582 H 5785.73 -0.185819 -7.72577 0
M  V30 57583 H 5784.08 -0.160164 -6.94815 0
M  V30 57584 H 5787.27 0.182292 -4.67745 0
M  V30 57585 H 5787.44 -0.000306309 -6.48 0
M  V30 57586 N 5780.85 1.56082 0.218198 0
M  V30 57587 C 5782.09 1.81028 0.949124 0
M  V30 57588 C 5782.45 0.629242 1.81396 0
M  V30 57589 O 5783.65 0.758072 2.57889 0
M  V30 57590 C 5781.93 3.10885 1.76311 0
M  V30 57591 S 5783.48 3.57156 2.54921 0
M  V30 57592 H 5780.3 0.63554 0.318763 0
M  V30 57593 H 5782.9 1.94321 0.214415 0
M  V30 57594 H 5781.61 3.94879 1.11797 0
M  V30 57595 H 5781.14 3.00408 2.54005 0
M  V30 57596 H 5783.15 3.2076 3.78586 0
M  V30 57597 N 5782.33 -0.485033 1.49951 0
M  V30 57598 C 5783.28 -1.58201 1.64184 0
M  V30 57599 C 5784.26 -1.53035 0.496898 0
M  V30 57600 O 5785.45 -1.60295 0.750638 0
M  V30 57601 C 5782.58 -2.96729 1.72647 0
M  V30 57602 C 5781.67 -3.06831 2.92772 0
M  V30 57603 N 5782.06 -2.86781 4.16642 0
M  V30 57604 C 5780.36 -3.37951 2.91041 0
M  V30 57605 C 5781.06 -3.01484 4.97476 0
M  V30 57606 N 5780.03 -3.3107 4.31154 0
M  V30 57607 H 5783.84 -1.41378 2.57662 0
M  V30 57608 H 5781.35 -0.691491 1.46943 0
M  V30 57609 H 5783.35 -3.75585 1.80945 0
M  V30 57610 H 5782.01 -3.14609 0.803183 0
M  V30 57611 H 5783.02 -2.62638 4.46365 0
M  V30 57612 H 5779.7 -3.61908 2.08156 0
M  V30 57613 H 5781.09 -2.9034 6.05931 0
M  V30 57614 N 5783.81 -1.39293 -0.73723 0
M  V30 57615 C 5784.74 -1.40569 -1.86448 0
M  V30 57616 C 5785.72 -0.269342 -1.67954 0
M  V30 57617 O 5786.9 -0.474835 -1.88305 0
M  V30 57618 C 5784.03 -1.24621 -3.24171 0
M  V30 57619 C 5782.99 -2.35632 -3.57298 0
M  V30 57620 C 5782.31 -2.04776 -4.93934 0
M  V30 57621 C 5783.61 -3.77939 -3.60498 0
M  V30 57622 H 5785.31 -2.34902 -1.85638 0
M  V30 57623 H 5782.85 -1.13068 -0.891716 0
M  V30 57624 H 5784.8 -1.24135 -4.02702 0
M  V30 57625 H 5783.53 -0.267553 -3.25502 0
M  V30 57626 H 5782.19 -2.35332 -2.81095 0
M  V30 57627 H 5781.84 -1.05353 -4.91843 0
M  V30 57628 H 5781.54 -2.79135 -5.17066 0
M  V30 57629 H 5783.06 -2.05935 -5.74824 0
M  V30 57630 H 5784.47 -3.80181 -4.2911 0
M  V30 57631 H 5782.87 -4.5164 -3.95148 0
M  V30 57632 H 5783.94 -4.09077 -2.60353 0
M  V30 57633 N 5785.28 0.967178 -1.24432 0
M  V30 57634 C 5786.53 1.70684 -1.08219 0
M  V30 57635 C 5786.85 1.91269 0.379626 0
M  V30 57636 O 5786.12 1.49081 1.27089 0
M  V30 57637 H 5784.7 0.632475 -0.397472 0
M  V30 57638 H 5787.36 1.16351 -1.5636 0
M  V30 57639 H 5786.46 2.69113 -1.58065 0
M  V30 57640 N 5786.76 1.05816 1.16794 0
M  V30 57641 C 5788.18 0.780698 1.39202 0
M  V30 57642 C 5788.38 -0.622124 1.91656 0
M  V30 57643 O 5787.43 -1.3835 2.11224 0
M  V30 57644 C 5788.75 1.84156 2.37712 0
M  V30 57645 C 5790.29 1.86451 2.51406 0
M  V30 57646 C 5790.77 2.91578 3.53194 0
M  V30 57647 N 5792.26 2.90581 3.60717 0
M  V30 57648 C 5793 3.68572 4.39252 0
M  V30 57649 N 5792.49 4.56366 5.2125 0
M  V30 57650 N 5794.28 3.56984 4.34187 0
M  V30 57651 H 5786.44 1.96315 0.810802 0
M  V30 57652 H 5788.7 0.850436 0.418883 0
M  V30 57653 H 5788.4 2.84871 2.06255 0
M  V30 57654 H 5788.28 1.6885 3.37297 0
M  V30 57655 H 5790.67 0.863972 2.82169 0
M  V30 57656 H 5790.75 2.05835 1.51873 0
M  V30 57657 H 5790.39 3.91822 3.23168 0
M  V30 57658 H 5790.32 2.69444 4.52446 0
M  V30 57659 H 5792.81 2.26929 3.02178 0
M  V30 57660 H 5793.12 5.12544 5.78376 0
M  V30 57661 H 5791.47 4.60424 5.2061 0
M  V30 57662 H 5794.66 2.87785 3.69185 0
M  V30 57663 H 5794.83 4.1801 4.95148 0
M  V30 57664 N 5788.24 -1.33344 0.84006 0
M  V30 57665 C 5789.46 -2.02483 0.448927 0
M  V30 57666 C 5789.89 -1.62785 -0.942486 0
M  V30 57667 O 5789.25 -0.821047 -1.61643 0
M  V30 57668 C 5789.3 -3.55926 0.578707 0
M  V30 57669 O 5788.4 -4.10508 -0.394551 0
M  V30 57670 H 5787.74 -0.638473 0.182339 0
M  V30 57671 H 5790.27 -1.70217 1.13522 0
M  V30 57672 H 5790.28 -4.0539 0.460795 0
M  V30 57673 H 5788.96 -3.84165 1.59343 0
M  V30 57674 H 5787.53 -3.72164 -0.234096 0
M  V30 57675 N 5789.72 -0.596607 -1.45871 0
M  V30 57676 C 5790.97 -0.0873565 -2.01911 0
M  V30 57677 C 5791.29 1.28252 -1.46889 0
M  V30 57678 O 5790.56 1.84487 -0.658902 0
M  V30 57679 H 5789.14 -0.0293032 -0.746425 0
M  V30 57680 H 5791.8 -0.775527 -1.78806 0
M  V30 57681 H 5790.89 -0.028831 -3.12087 0
M  V30 57682 N 5791.2 1.53995 -0.335149 0
M  V30 57683 C 5792.13 2.27682 0.518007 0
M  V30 57684 C 5793.11 1.28919 1.10968 0
M  V30 57685 O 5794.29 1.57749 1.13264 0
M  V30 57686 C 5791.42 3.04333 1.67329 0
M  V30 57687 C 5790.38 4.10529 1.21036 0
M  V30 57688 C 5789.7 4.75087 2.4535 0
M  V30 57689 C 5791 5.21338 0.316872 0
M  V30 57690 H 5792.7 2.99244 -0.0966721 0
M  V30 57691 H 5790.24 1.4392 -0.0479348 0
M  V30 57692 H 5792.19 3.54616 2.27651 0
M  V30 57693 H 5790.92 2.30408 2.31473 0
M  V30 57694 H 5789.58 3.61146 0.629997 0
M  V30 57695 H 5789.23 3.97765 3.07883 0
M  V30 57696 H 5788.93 5.4683 2.15061 0
M  V30 57697 H 5790.45 5.28151 3.06413 0
M  V30 57698 H 5791.86 5.67308 0.826706 0
M  V30 57699 H 5790.26 6.00006 0.106247 0
M  V30 57700 H 5791.33 4.80534 -0.649237 0
M  V30 57701 N 5792.67 0.0635752 1.57472 0
M  V30 57702 C 5794.09 -0.293029 1.56887 0
M  V30 57703 C 5794.29 -1.70599 1.0723 0
M  V30 57704 O 5793.35 -2.41582 0.734473 0
M  V30 57705 C 5794.66 -0.11018 3.00498 0
M  V30 57706 C 5796.21 -0.180343 3.1248 0
M  V30 57707 C 5796.68 -0.0258744 4.57993 0
M  V30 57708 N 5798.17 -0.0817481 4.63128 0
M  V30 57709 C 5798.91 0.013478 5.73398 0
M  V30 57710 N 5798.4 0.161758 6.92611 0
M  V30 57711 N 5800.2 -0.0429972 5.62084 0
M  V30 57712 H 5792.35 0.987126 1.88068 0
M  V30 57713 H 5794.61 0.384262 0.866629 0
M  V30 57714 H 5794.32 0.864498 3.4091 0
M  V30 57715 H 5794.19 -0.865988 3.67125 0
M  V30 57716 H 5796.58 -1.1455 2.7196 0
M  V30 57717 H 5796.66 0.606429 2.48508 0
M  V30 57718 H 5796.3 0.936014 4.99201 0
M  V30 57719 H 5796.23 -0.831948 5.19987 0
M  V30 57720 H 5798.72 -0.195097 3.77396 0
M  V30 57721 H 5799.04 0.226788 7.72467 0
M  V30 57722 H 5797.38 0.19701 6.94721 0
M  V30 57723 H 5800.57 -0.157483 4.67835 0
M  V30 57724 H 5800.75 0.0346713 6.47991 0
M  V30 57725 N 5794.15 -1.56196 -0.209917 0
M  V30 57726 C 5795.39 -1.81528 -0.93951 0
M  V30 57727 C 5795.76 -0.638853 -1.8106 0
M  V30 57728 O 5796.96 -0.771738 -2.57483 0
M  V30 57729 C 5795.23 -3.11815 -1.7466 0
M  V30 57730 S 5796.79 -3.58503 -2.53024 0
M  V30 57731 H 5793.61 -0.637222 -0.315388 0
M  V30 57732 H 5796.21 -1.94432 -0.204107 0
M  V30 57733 H 5794.91 -3.95467 -1.09701 0
M  V30 57734 H 5794.44 -3.01751 -2.52409 0
M  V30 57735 H 5796.46 -3.22763 -3.7688 0
M  V30 57736 N 5795.63 0.477074 -1.50206 0
M  V30 57737 C 5796.54 1.60176 -1.71408 0
M  V30 57738 C 5797.56 1.63435 -0.597066 0
M  V30 57739 O 5798.73 1.81415 -0.874677 0
M  V30 57740 C 5795.8 2.96426 -1.79812 0
M  V30 57741 C 5794.86 3.03603 -3.03519 0
M  V30 57742 C 5794.09 4.33354 -3.11513 0
M  V30 57743 O 5794.31 5.23521 -2.26456 0
M  V30 57744 O 5793.25 4.45999 -4.04188 0
M  V30 57745 H 5797.07 1.45211 -2.66735 0
M  V30 57746 H 5794.66 0.655935 -1.34231 0
M  V30 57747 H 5796.54 3.77361 -1.87555 0
M  V30 57748 H 5795.22 3.11602 -0.87669 0
M  V30 57749 H 5794.12 2.21768 -3.0128 0
M  V30 57750 H 5795.46 2.93362 -3.95221 0
M  V30 57751 N 5797.11 1.39683 0.729833 0
M  V30 57752 C 5798.02 1.411 1.87424 0
M  V30 57753 C 5799.03 0.305202 1.71302 0
M  V30 57754 O 5800.21 0.547508 1.93815 0
M  V30 57755 C 5797.28 1.25797 3.23073 0
M  V30 57756 C 5796.34 2.46395 3.51551 0
M  V30 57757 C 5795.57 2.31812 4.80727 0
M  V30 57758 O 5795.79 1.32434 5.54813 0
M  V30 57759 O 5794.73 3.20901 5.09221 0
M  V30 57760 H 5798.55 2.37578 1.89183 0
M  V30 57761 H 5796.14 1.20853 0.878347 0
M  V30 57762 H 5798.02 1.19416 4.04126 0
M  V30 57763 H 5796.69 0.324178 3.22073 0
M  V30 57764 H 5795.6 2.58353 2.70564 0
M  V30 57765 H 5796.93 3.38486 3.57335 0
M  V30 57766 N 5798.59 -0.960565 1.24944 0
M  V30 57767 C 5799.83 -1.70108 1.09123 0
M  V30 57768 C 5800.16 -1.91468 -0.369477 0
M  V30 57769 O 5799.43 -1.49753 -1.26296 0
M  V30 57770 H 5798.01 -0.630358 0.400821 0
M  V30 57771 H 5800.67 -1.1552 1.56975 0
M  V30 57772 H 5799.76 -2.68271 1.5949 0
M  V30 57773 N 5800.06 -1.06434 -1.16231 0
M  V30 57774 C 5801.31 -0.783064 -1.87072 0
M  V30 57775 C 5801.64 0.688788 -1.81575 0
M  V30 57776 O 5800.92 1.50474 -1.23239 0
M  V30 57777 C 5801.2 -1.28009 -3.3658 0
M  V30 57778 C 5801.05 -2.8158 -3.5076 0
M  V30 57779 C 5802.37 -0.889127 -4.31025 0
M  V30 57780 H 5799.49 -0.285934 -0.679272 0
M  V30 57781 H 5802.13 -1.32051 -1.36611 0
M  V30 57782 H 5800.28 -0.822889 -3.79685 0
M  V30 57783 H 5801.96 -3.35519 -3.16583 0
M  V30 57784 H 5800.2 -3.2024 -2.92624 0
M  V30 57785 H 5800.87 -3.11422 -4.55763 0
M  V30 57786 H 5803.35 -1.28293 -3.95828 0
M  V30 57787 H 5802.22 -1.26434 -5.3414 0
M  V30 57788 H 5802.48 0.205818 -4.41621 0
M  V30 57789 N 5801.54 1.32897 -0.84712 0
M  V30 57790 C 5802.77 2.01709 -0.460568 0
M  V30 57791 C 5803.19 1.63702 0.940591 0
M  V30 57792 O 5802.54 0.854511 1.61259 0
M  V30 57793 C 5802.59 3.56797 -0.581234 0
M  V30 57794 O 5802.31 3.93435 -1.92719 0
M  V30 57795 C 5803.82 4.42881 -0.192707 0
M  V30 57796 H 5801.04 0.645881 -0.181875 0
M  V30 57797 H 5803.58 1.69644 -1.14198 0
M  V30 57798 H 5801.73 3.87365 0.0523562 0
M  V30 57799 H 5802.15 4.8815 -1.91858 0
M  V30 57800 H 5803.62 5.51024 -0.328163 0
M  V30 57801 H 5804.1 4.30574 0.866163 0
M  V30 57802 H 5804.71 4.17688 -0.801065 0
M  V30 57803 N 5803.02 0.604335 1.45553 0
M  V30 57804 C 5804.27 0.0984028 2.02561 0
M  V30 57805 C 5804.6 -1.26654 1.47216 0
M  V30 57806 O 5803.87 -1.83473 0.645583 0
M  V30 57807 C 5804.16 0.0559614 3.60057 0
M  V30 57808 C 5804.01 1.45134 4.25742 0
M  V30 57809 C 5805.33 -0.633554 4.35516 0
M  V30 57810 H 5802.45 0.037233 0.736059 0
M  V30 57811 H 5805.09 0.775684 1.73445 0
M  V30 57812 H 5803.24 -0.5208 3.84993 0
M  V30 57813 H 5804.91 2.07493 4.12001 0
M  V30 57814 H 5803.16 2.01297 3.84268 0
M  V30 57815 H 5803.83 1.37391 5.34629 0
M  V30 57816 H 5806.3 -0.143355 4.15853 0
M  V30 57817 H 5805.18 -0.632346 5.45245 0
M  V30 57818 H 5805.44 -1.69903 4.08149 0
M  V30 57819 N 5804.5 -1.53815 0.343311 0
M  V30 57820 C 5805.73 -2.05327 -0.254672 0
M  V30 57821 C 5806.14 -1.21829 -1.44233 0
M  V30 57822 O 5805.5 -0.253571 -1.8073 0
M  V30 57823 C 5805.55 -3.55238 -0.66995 0
M  V30 57824 O 5805.27 -4.35566 0.470476 0
M  V30 57825 C 5806.77 -4.2292 -1.32867 0
M  V30 57826 H 5803.99 -0.669193 -0.0492089 0
M  V30 57827 H 5806.54 -1.98413 0.495229 0
M  V30 57828 H 5804.69 -3.62375 -1.36979 0
M  V30 57829 H 5805.1 -5.24314 0.139487 0
M  V30 57830 H 5806.58 -5.29202 -1.57 0
M  V30 57831 H 5807.06 -3.75252 -2.28216 0
M  V30 57832 H 5807.66 -4.19975 -0.670872 0
M  V30 57833 N 5805.98 -0.0719254 -1.57436 0
M  V30 57834 C 5807.2 0.606184 -1.97821 0
M  V30 57835 C 5807.62 1.63141 -0.95029 0
M  V30 57836 O 5806.98 1.82391 0.063041 0
M  V30 57837 C 5807.03 1.27464 -3.38283 0
M  V30 57838 O 5806.75 0.290449 -4.37136 0
M  V30 57839 C 5808.25 2.04056 -3.93543 0
M  V30 57840 H 5805.47 0.164282 -0.650578 0
M  V30 57841 H 5808.01 -0.144367 -2.0399 0
M  V30 57842 H 5806.17 1.97628 -3.332 0
M  V30 57843 H 5806.58 0.770037 -5.18817 0
M  V30 57844 H 5808.06 2.46219 -4.94045 0
M  V30 57845 H 5808.53 2.89716 -3.30093 0
M  V30 57846 H 5809.14 1.38759 -4.02027 0
M  V30 57847 N 5807.45 1.56305 0.201631 0
M  V30 57848 C 5808.87 1.70222 0.766893 0
M  V30 57849 C 5809.22 0.677383 1.84136 0
M  V30 57850 O 5808.34 -0.167528 2.15751 0
M  V30 57851 C 5808.94 3.08619 1.39784 0
M  V30 57852 C 5807.5 3.24324 1.91026 0
M  V30 57853 C 5806.64 2.66169 0.77776 0
M  V30 57854 H 5809.59 1.58683 -0.0233441 0
M  V30 57855 H 5809.61 3.05586 2.26711 0
M  V30 57856 H 5809.13 3.83187 0.615593 0
M  V30 57857 H 5807.23 2.54661 2.7199 0
M  V30 57858 H 5807.34 4.3176 2.07654 0
M  V30 57859 H 5805.7 2.25173 1.19034 0
M  V30 57860 H 5806.49 3.43299 0.00786111 0
M  V30 57861 N 5808.93 -0.469102 1.50457 0
M  V30 57862 C 5810.16 -1.24893 1.65579 0
M  V30 57863 C 5810.58 -1.85008 0.339646 0
M  V30 57864 O 5809.94 -1.67379 -0.696715 0
M  V30 57865 C 5809.99 -2.33195 2.75049 0
M  V30 57866 O 5809.09 -3.3789 2.36441 0
M  V30 57867 H 5808.43 -0.367343 0.553132 0
M  V30 57868 H 5810.96 -0.558014 1.96844 0
M  V30 57869 H 5810.97 -2.78477 2.98186 0
M  V30 57870 H 5809.65 -1.88813 3.70571 0
M  V30 57871 H 5808.23 -2.98306 2.23758 0
M  V30 57872 N 5810.41 -1.40068 -0.722415 0
M  V30 57873 C 5811.34 -1.42538 -1.84946 0
M  V30 57874 C 5812.32 -0.287141 -1.67659 0
M  V30 57875 O 5813.51 -0.494781 -1.87791 0
M  V30 57876 C 5810.64 -1.28052 -3.22831 0
M  V30 57877 C 5809.59 -2.39408 -3.54778 0
M  V30 57878 C 5808.92 -2.10003 -4.91735 0
M  V30 57879 C 5810.22 -3.81742 -3.5647 0
M  V30 57880 H 5811.91 -2.36858 -1.83136 0
M  V30 57881 H 5809.46 -1.14008 -0.879674 0
M  V30 57882 H 5811.41 -1.28399 -4.01362 0
M  V30 57883 H 5810.13 -0.302062 -3.252 0
M  V30 57884 H 5808.79 -2.383 -2.78584 0
M  V30 57885 H 5808.44 -1.10564 -4.90698 0
M  V30 57886 H 5808.14 -2.84604 -5.14076 0
M  V30 57887 H 5809.67 -2.12021 -5.72608 0
M  V30 57888 H 5811.08 -3.84711 -4.25053 0
M  V30 57889 H 5809.48 -4.55805 -3.90335 0
M  V30 57890 H 5810.55 -4.11816 -2.56 0
M  V30 57891 N 5811.89 0.953925 -1.25451 0
M  V30 57892 C 5813.11 1.73859 -1.13083 0
M  V30 57893 C 5813.54 1.85504 0.311416 0
M  V30 57894 O 5812.9 1.336 1.22559 0
M  V30 57895 C 5812.95 3.12994 -1.79073 0
M  V30 57896 O 5812.05 3.98254 -1.07086 0
M  V30 57897 H 5811.39 0.533907 -0.394765 0
M  V30 57898 H 5813.92 1.19565 -1.66028 0
M  V30 57899 H 5813.93 3.6345 -1.85387 0
M  V30 57900 H 5812.61 3.03834 -2.84003 0
M  V30 57901 H 5811.18 3.56718 -1.08658 0
M  V30 57902 N 5813.37 1.07049 1.15665 0
M  V30 57903 C 5814.62 0.790237 1.8601 0
M  V30 57904 C 5814.94 -0.685599 1.8255 0
M  V30 57905 O 5814.21 -1.4964 1.26431 0
M  V30 57906 H 5812.79 0.289334 0.688691 0
M  V30 57907 H 5815.45 1.35359 1.40228 0
M  V30 57908 H 5814.54 1.122 2.91235 0
M  V30 57909 N 5814.85 -1.32446 0.854156 0
M  V30 57910 C 5815.81 -2.27182 0.303457 0
M  V30 57911 C 5816.81 -1.51584 -0.536568 0
M  V30 57912 O 5818 -1.70686 -0.348151 0
M  V30 57913 C 5815.13 -3.36088 -0.570734 0
M  V30 57914 H 5816.32 -2.77404 1.1396 0
M  V30 57915 H 5813.88 -1.43109 0.628452 0
M  V30 57916 H 5814.61 -2.91133 -1.42871 0
M  V30 57917 H 5814.4 -3.92088 0.0305368 0
M  V30 57918 H 5815.89 -4.06678 -0.948829 0
M  V30 57919 N 5816.32 -0.612045 -1.4523 0
M  V30 57920 C 5817.57 -0.108767 -2.01807 0
M  V30 57921 C 5817.89 1.26686 -1.48242 0
M  V30 57922 O 5817.16 1.83777 -0.678432 0
M  V30 57923 H 5815.74 -0.0372184 -0.746072 0
M  V30 57924 H 5818.4 -0.794448 -1.77973 0
M  V30 57925 H 5817.5 -0.0619304 -3.12039 0
M  V30 57926 N 5817.8 1.53631 -0.351463 0
M  V30 57927 C 5819.03 2.05931 0.246428 0
M  V30 57928 C 5819.45 1.22424 1.42807 0
M  V30 57929 O 5818.81 0.239874 1.79706 0
M  V30 57930 C 5818.86 3.55023 0.631737 0
M  V30 57931 O 5817.96 3.74323 1.73078 0
M  V30 57932 H 5817.3 0.662841 0.0392191 0
M  V30 57933 H 5819.83 1.98194 -0.507974 0
M  V30 57934 H 5819.84 3.97798 0.906691 0
M  V30 57935 H 5818.52 4.1525 -0.23237 0
M  V30 57936 H 5817.09 3.43449 1.45248 0
M  V30 57937 N 5819.28 0.0802736 1.57395 0
M  V30 57938 C 5820.51 -0.594821 1.97852 0
M  V30 57939 C 5820.92 -1.63171 0.957699 0
M  V30 57940 O 5820.26 -1.83592 -0.0628987 0
M  V30 57941 C 5820.32 -1.31355 3.34643 0
M  V30 57942 C 5819.99 -0.429143 4.54981 0
M  V30 57943 C 5820.98 0.31672 5.18934 0
M  V30 57944 C 5818.67 -0.351538 5.01068 0
M  V30 57945 C 5820.66 1.12832 6.27334 0
M  V30 57946 C 5818.35 0.463727 6.09338 0
M  V30 57947 C 5819.35 1.20232 6.72334 0
M  V30 57948 O 5819.04 2.00412 7.78518 0
M  V30 57949 H 5818.77 -0.165308 0.655476 0
M  V30 57950 H 5821.32 0.151769 2.04839 0
M  V30 57951 H 5819.55 -2.10639 3.24296 0
M  V30 57952 H 5821.24 -1.88171 3.59648 0
M  V30 57953 H 5822.01 0.266408 4.84268 0
M  V30 57954 H 5817.89 -0.91606 4.51807 0
M  V30 57955 H 5821.43 1.70531 6.76435 0
M  V30 57956 H 5817.33 0.515573 6.43438 0
M  V30 57957 H 5818.09 1.92935 7.95436 0
M  V30 57958 N 5820.76 -1.5641 -0.193339 0
M  V30 57959 C 5821.69 -1.97712 -1.24227 0
M  V30 57960 C 5822.67 -0.849337 -1.47378 0
M  V30 57961 O 5823.85 -1.1138 -1.59086 0
M  V30 57962 C 5820.98 -2.31813 -2.58611 0
M  V30 57963 C 5819.94 -3.47346 -2.5007 0
M  V30 57964 C 5819.26 -3.67128 -3.88743 0
M  V30 57965 C 5820.56 -4.81479 -2.02424 0
M  V30 57966 H 5822.26 -2.85583 -0.899039 0
M  V30 57967 H 5819.8 -1.37398 -0.43103 0
M  V30 57968 H 5821.76 -2.59302 -3.32175 0
M  V30 57969 H 5820.48 -1.40826 -2.94679 0
M  V30 57970 H 5819.14 -3.19951 -1.78961 0
M  V30 57971 H 5818.79 -2.73469 -4.22166 0
M  V30 57972 H 5818.49 -4.44852 -3.83902 0
M  V30 57973 H 5820.01 -3.96995 -4.63926 0
M  V30 57974 H 5821.43 -5.07987 -2.65748 0
M  V30 57975 H 5819.82 -5.62684 -2.08581 0
M  V30 57976 H 5820.89 -4.74944 -0.977537 0
M  V30 57977 N 5822.24 0.461116 -1.50703 0
M  V30 57978 C 5823.2 1.54026 -1.69731 0
M  V30 57979 C 5824.2 1.50443 -0.56776 0
M  V30 57980 O 5825.39 1.52886 -0.834955 0
M  V30 57981 C 5822.52 2.93636 -1.73179 0
M  V30 57982 H 5823.71 1.38469 -2.66019 0
M  V30 57983 H 5821.27 0.688185 -1.40334 0
M  V30 57984 H 5822 3.14626 -0.786189 0
M  V30 57985 H 5821.79 2.97643 -2.55247 0
M  V30 57986 H 5823.28 3.71965 -1.8982 0
M  V30 57987 N 5823.71 1.40449 0.714977 0
M  V30 57988 C 5824.64 1.43517 1.84188 0
M  V30 57989 C 5825.63 0.296028 1.67504 0
M  V30 57990 O 5826.81 0.504733 1.87526 0
M  V30 57991 C 5823.94 1.29763 3.22147 0
M  V30 57992 C 5822.89 2.41286 3.53504 0
M  V30 57993 C 5822.22 2.12608 4.90614 0
M  V30 57994 C 5823.52 3.83627 3.5444 0
M  V30 57995 H 5825.21 2.37826 1.81877 0
M  V30 57996 H 5822.76 1.14473 0.873615 0
M  V30 57997 H 5824.71 1.30526 4.00676 0
M  V30 57998 H 5823.44 0.319304 3.25035 0
M  V30 57999 H 5822.1 2.39774 2.77316 0
M  V30 58000 H 5821.74 1.13165 4.90105 0
M  V30 58001 H 5821.44 2.87326 5.1256 0
M  V30 58002 H 5822.97 2.15054 5.71475 0
M  V30 58003 H 5824.38 3.8696 4.23007 0
M  V30 58004 H 5822.78 4.57869 3.87913 0
M  V30 58005 H 5823.85 4.13167 2.53812 0
M  V30 58006 N 5825.19 -0.947259 1.25955 0
M  V30 58007 C 5826.6 -1.50751 1.10141 0
M  V30 58008 C 5826.95 -1.93567 -0.320369 0
M  V30 58009 O 5826.08 -1.7933 -1.21119 0
M  V30 58010 C 5826.67 -2.73963 1.99323 0
M  V30 58011 C 5825.23 -3.26276 1.87672 0
M  V30 58012 C 5824.38 -1.99081 1.93034 0
M  V30 58013 H 5827.33 -0.763379 1.39134 0
M  V30 58014 H 5827.35 -3.48051 1.53754 0
M  V30 58015 H 5826.86 -2.4277 3.02794 0
M  V30 58016 H 5824.97 -3.62274 0.871119 0
M  V30 58017 H 5825.08 -3.93794 2.72879 0
M  V30 58018 H 5823.44 -2.1471 1.37011 0
M  V30 58019 H 5824.23 -1.70227 2.98124 0
M  V30 58020 N 5826.67 -1.07661 -1.15095 0
M  V30 58021 C 5827.63 -0.703635 -2.18132 0
M  V30 58022 C 5828.63 0.257715 -1.58721 0
M  V30 58023 O 5829.82 0.0382599 -1.74158 0
M  V30 58024 C 5826.96 -0.0376177 -3.40879 0
M  V30 58025 H 5828.15 -1.61592 -2.52642 0
M  V30 58026 H 5825.7 -0.87353 -1.29612 0
M  V30 58027 H 5826.44 0.886758 -3.11941 0
M  V30 58028 H 5826.22 -0.729096 -3.85262 0
M  V30 58029 H 5827.71 0.208567 -4.17079 0
M  V30 58030 N 5828.15 1.31991 -0.861168 0
M  V30 58031 C 5829.08 2.31212 -0.326044 0
M  V30 58032 C 5830.06 1.59967 0.578327 0
M  V30 58033 O 5831.24 1.87727 0.497202 0
M  V30 58034 C 5828.37 3.43955 0.48088 0
M  V30 58035 C 5827.33 4.26729 -0.329624 0
M  V30 58036 C 5826.65 5.31295 0.602441 0
M  V30 58037 C 5827.95 4.98493 -1.55892 0
M  V30 58038 H 5829.65 2.76219 -1.15513 0
M  V30 58039 H 5827.19 1.32795 -0.556902 0
M  V30 58040 H 5829.15 4.12412 0.865705 0
M  V30 58041 H 5827.87 2.97692 1.34339 0
M  V30 58042 H 5826.53 3.59927 -0.696285 0
M  V30 58043 H 5826.18 4.81285 1.46198 0
M  V30 58044 H 5825.88 5.87565 0.0640979 0
M  V30 58045 H 5827.4 6.02614 0.9843 0
M  V30 58046 H 5828.82 5.59595 -1.24603 0
M  V30 58047 H 5827.21 5.64518 -2.03568 0
M  V30 58048 H 5828.28 4.25983 -2.31661 0
M  V30 58049 N 5829.63 0.619739 1.44903 0
M  V30 58050 C 5830.85 0.126436 2.06513 0
M  V30 58051 C 5831.27 -1.19427 1.46228 0
M  V30 58052 O 5830.63 -1.73008 0.580912 0
M  V30 58053 C 5830.68 -0.0066961 3.61499 0
M  V30 58054 O 5830.4 1.26177 4.19537 0
M  V30 58055 C 5831.9 -0.530034 4.4012 0
M  V30 58056 H 5829.12 0.0744266 0.66686 0
M  V30 58057 H 5831.66 0.850916 1.85956 0
M  V30 58058 H 5829.82 -0.68156 3.81357 0
M  V30 58059 H 5830.23 1.09926 5.12851 0
M  V30 58060 H 5831.71 -0.572235 5.49026 0
M  V30 58061 H 5832.18 -1.5548 4.10759 0
M  V30 58062 H 5832.79 0.111193 4.25155 0
M  V30 58063 N 5831.1 -1.53442 0.359606 0
M  V30 58064 C 5832.05 -2.27055 -0.504869 0
M  V30 58065 C 5833.05 -1.29804 -1.08845 0
M  V30 58066 O 5834.25 -1.47455 -1.03234 0
M  V30 58067 H 5830.63 -0.729762 -0.181524 0
M  V30 58068 H 5832.6 -2.98082 0.137824 0
M  V30 58069 C 5831.35 -3.06821 -1.63574 0
M  V30 58070 H 5830.67 -3.81492 -1.19598 0
M  V30 58071 H 5832.11 -3.61516 -2.21546 0
M  V30 58072 C 5830.57 -2.17295 -2.57458 0
M  V30 58073 O 5831.1 -1.77974 -3.60122 0
M  V30 58074 N 5829.31 -1.82049 -2.2651 0
M  V30 58075 H 5828.85 -2.14223 -1.43061 0
M  V30 58076 H 5828.81 -1.22433 -2.89582 0
M  V30 58077 N 5832.58 -0.0886195 -1.57351 0
M  V30 58078 C 5833.81 0.585168 -1.98452 0
M  V30 58079 C 5834.23 1.62124 -0.96754 0
M  V30 58080 O 5833.58 1.82448 0.0436924 0
M  V30 58081 C 5833.63 1.23869 -3.39615 0
M  V30 58082 O 5833.35 0.244069 -4.3742 0
M  V30 58083 C 5834.86 1.99871 -3.95685 0
M  V30 58084 H 5832.08 0.157373 -0.652284 0
M  V30 58085 H 5834.62 -0.165995 -2.03825 0
M  V30 58086 H 5832.77 1.94083 -3.35277 0
M  V30 58087 H 5833.19 0.714967 -5.19604 0
M  V30 58088 H 5834.66 2.40965 -4.96628 0
M  V30 58089 H 5835.14 2.86199 -3.33147 0
M  V30 58090 H 5835.75 1.34487 -4.03476 0
M  V30 58091 N 5834.06 1.5651 0.185041 0
M  V30 58092 C 5835.01 1.91746 1.23359 0
M  V30 58093 C 5835.99 0.784231 1.40494 0
M  V30 58094 O 5837.19 1.04723 1.42696 0
M  V30 58095 C 5834.32 2.26912 2.57616 0
M  V30 58096 C 5833.4 3.46715 2.44232 0
M  V30 58097 N 5833.79 4.64346 2.00541 0
M  V30 58098 C 5832.09 3.51052 2.75097 0
M  V30 58099 C 5832.79 5.46496 1.99291 0
M  V30 58100 N 5831.77 4.87171 2.41176 0
M  V30 58101 H 5835.57 2.80187 0.887279 0
M  V30 58102 H 5833.08 1.57563 0.393413 0
M  V30 58103 H 5835.08 2.50344 3.33367 0
M  V30 58104 H 5833.74 1.39803 2.93062 0
M  V30 58105 H 5834.75 4.88823 1.71093 0
M  V30 58106 H 5831.43 2.74386 3.14672 0
M  V30 58107 H 5832.82 6.50732 1.67326 0
M  V30 58108 N 5835.54 -0.453117 1.50946 0
M  V30 58109 C 5836.49 -1.54683 1.67503 0
M  V30 58110 C 5837.47 -1.51947 0.529247 0
M  V30 58111 O 5838.66 -1.58667 0.78447 0
M  V30 58112 C 5835.79 -2.93 1.78902 0
M  V30 58113 C 5834.88 -3.00552 2.99215 0
M  V30 58114 N 5835.27 -2.77878 4.22631 0
M  V30 58115 C 5833.57 -3.31702 2.98144 0
M  V30 58116 C 5834.27 -2.90864 5.03759 0
M  V30 58117 N 5833.25 -3.2185 4.38079 0
M  V30 58118 H 5837.05 -1.3588 2.60603 0
M  V30 58119 H 5834.56 -0.660166 1.48376 0
M  V30 58120 H 5836.56 -3.71663 1.88871 0
M  V30 58121 H 5835.22 -3.12835 0.869736 0
M  V30 58122 H 5836.23 -2.5311 4.51836 0
M  V30 58123 H 5832.91 -3.57411 2.15786 0
M  V30 58124 H 5834.3 -2.77422 6.11953 0
M  V30 58125 N 5837.02 -1.40826 -0.707518 0
M  V30 58126 C 5837.93 -1.44064 -1.85156 0
M  V30 58127 C 5838.94 -0.332417 -1.70795 0
M  V30 58128 O 5840.12 -0.578273 -1.9292 0
M  V30 58129 C 5837.18 -1.30921 -3.2103 0
M  V30 58130 C 5836.24 -2.51956 -3.47587 0
M  V30 58131 C 5835.48 -2.39431 -4.76979 0
M  V30 58132 O 5835.7 -1.41244 -5.52636 0
M  V30 58133 O 5834.63 -3.28962 -5.04051 0
M  V30 58134 H 5838.46 -2.40558 -1.8538 0
M  V30 58135 H 5836.05 -1.22235 -0.859009 0
M  V30 58136 H 5837.93 -1.2583 -4.02175 0
M  V30 58137 H 5836.6 -0.375376 -3.21516 0
M  V30 58138 H 5835.51 -2.62625 -2.66419 0
M  V30 58139 H 5836.84 -3.44128 -3.51905 0
M  V30 58140 N 5838.5 0.940566 -1.26456 0
M  V30 58141 C 5839.43 2.05663 -1.10567 0
M  V30 58142 C 5840.41 1.70097 -0.0106856 0
M  V30 58143 O 5841.59 1.93338 -0.182824 0
M  V30 58144 C 5838.72 3.39357 -0.738519 0
M  V30 58145 C 5837.68 3.88987 -1.7853 0
M  V30 58146 C 5837 5.19339 -1.27246 0
M  V30 58147 C 5838.3 4.13801 -3.18695 0
M  V30 58148 H 5840 2.19214 -2.03925 0
M  V30 58149 H 5837.54 1.05336 -0.981857 0
M  V30 58150 H 5839.49 4.16899 -0.614236 0
M  V30 58151 H 5838.22 3.25784 0.230773 0
M  V30 58152 H 5836.88 3.13626 -1.89827 0
M  V30 58153 H 5836.53 5.02146 -0.292992 0
M  V30 58154 H 5836.23 5.53514 -1.97221 0
M  V30 58155 H 5837.75 5.99463 -1.16086 0
M  V30 58156 H 5839.16 4.81955 -3.10472 0
M  V30 58157 H 5837.56 4.59259 -3.86265 0
M  V30 58158 H 5838.63 3.19559 -3.64706 0
M  V30 58159 N 5839.97 1.0827 1.14523 0
M  V30 58160 C 5841.39 0.810049 1.37515 0
M  V30 58161 C 5841.59 -0.581331 1.92932 0
M  V30 58162 O 5840.65 -1.33838 2.14111 0
M  V30 58163 C 5841.96 1.89157 2.33752 0
M  V30 58164 C 5843.51 1.91742 2.47394 0
M  V30 58165 C 5843.98 2.99004 3.4693 0
M  V30 58166 N 5845.47 2.98167 3.54472 0
M  V30 58167 C 5846.21 3.77806 4.31335 0
M  V30 58168 N 5845.7 4.6732 5.11453 0
M  V30 58169 N 5847.5 3.66114 4.26518 0
M  V30 58170 H 5839.65 1.97991 0.768978 0
M  V30 58171 H 5841.91 0.859129 0.40075 0
M  V30 58172 H 5841.62 2.89182 2.00166 0
M  V30 58173 H 5841.49 1.75967 3.3364 0
M  V30 58174 H 5843.88 0.92363 2.80273 0
M  V30 58175 H 5843.96 2.09011 1.47473 0
M  V30 58176 H 5843.6 3.98589 3.14785 0
M  V30 58177 H 5843.53 2.78981 4.46629 0
M  V30 58178 H 5846.02 2.33287 2.97297 0
M  V30 58179 H 5846.34 5.24696 5.67374 0
M  V30 58180 H 5844.68 4.71363 5.10727 0
M  V30 58181 H 5847.87 2.95551 3.62997 0
M  V30 58182 H 5848.05 4.28419 4.8617 0
M  V30 58183 N 5841.45 -1.31533 0.868156 0
M  V30 58184 C 5842.38 -2.31036 0.338302 0
M  V30 58185 C 5843.36 -1.60271 -0.569835 0
M  V30 58186 O 5844.55 -1.87988 -0.487239 0
M  V30 58187 C 5841.68 -3.44205 -0.462632 0
M  V30 58188 C 5840.63 -4.26548 0.35225 0
M  V30 58189 C 5839.96 -5.31607 -0.574256 0
M  V30 58190 C 5841.26 -4.97659 1.58533 0
M  V30 58191 H 5842.95 -2.75603 1.16976 0
M  V30 58192 H 5840.5 -1.32498 0.563937 0
M  V30 58193 H 5842.45 -4.12865 -0.843822 0
M  V30 58194 H 5841.17 -2.984 -1.32759 0
M  V30 58195 H 5839.83 -3.59553 0.715363 0
M  V30 58196 H 5839.48 -4.82053 -1.43644 0
M  V30 58197 H 5839.18 -5.87591 -0.032937 0
M  V30 58198 H 5840.71 -6.03128 -0.952329 0
M  V30 58199 H 5842.12 -5.58927 1.27569 0
M  V30 58200 H 5840.52 -5.6343 2.06559 0
M  V30 58201 H 5841.59 -4.24748 2.33917 0
M  V30 58202 N 5842.93 -0.627415 -1.44573 0
M  V30 58203 C 5844.21 -0.0615079 -1.95503 0
M  V30 58204 C 5844.59 1.41177 -1.56947 0
M  V30 58205 O 5843.93 2.12432 -0.841709 0
M  V30 58206 C 5844.14 -0.280471 -3.47871 0
M  V30 58207 C 5845.49 -0.171708 -4.24253 0
M  V30 58208 O 5846.52 -0.21164 -3.55571 0
M  V30 58209 O 5845.38 -0.0735073 -5.46451 0
M  V30 58210 H 5842.47 0.0244335 -0.826639 0
M  V30 58211 H 5845.02 -0.698859 -1.54642 0
M  V30 58212 H 5843.79 -1.30291 -3.68971 0
M  V30 58213 H 5843.41 0.391197 -3.95671 0
M  V30 58214 N 5844.41 1.5325 -0.367738 0
M  V30 58215 C 5845.65 2.01586 0.221608 0
M  V30 58216 C 5845.99 1.25449 1.48244 0
M  V30 58217 O 5845.26 0.348793 1.91347 0
M  V30 58218 C 5845.54 3.5645 0.511382 0
M  V30 58219 C 5845.4 4.43277 -0.763231 0
M  V30 58220 C 5846.72 4.20118 1.31106 0
M  V30 58221 H 5843.84 0.732746 0.0790697 0
M  V30 58222 H 5846.48 1.83491 -0.493055 0
M  V30 58223 H 5844.63 3.72 1.1202 0
M  V30 58224 H 5846.3 4.39521 -1.40068 0
M  V30 58225 H 5844.54 4.11159 -1.38314 0
M  V30 58226 H 5845.21 5.49589 -0.515408 0
M  V30 58227 H 5847.69 4.08415 0.796025 0
M  V30 58228 H 5846.57 5.28499 1.48256 0
M  V30 58229 H 5846.83 3.76324 2.32019 0
M  V30 58230 N 5845.89 0.096963 1.57301 0
M  V30 58231 C 5846.8 -0.875485 2.17652 0
M  V30 58232 C 5847.81 -1.30888 1.14649 0
M  V30 58233 O 5848.99 -1.37641 1.47027 0
M  V30 58234 C 5846.05 -2.1159 2.74646 0
M  V30 58235 C 5845.11 -1.73654 3.9261 0
M  V30 58236 C 5844.35 -2.91782 4.46877 0
M  V30 58237 O 5844.57 -4.06563 4.00079 0
M  V30 58238 O 5843.5 -2.7014 5.37873 0
M  V30 58239 H 5847.33 -0.392002 3.01159 0
M  V30 58240 H 5844.91 -0.127487 1.48855 0
M  V30 58241 H 5846.8 -2.84281 3.11067 0
M  V30 58242 H 5845.47 -2.58987 1.94183 0
M  V30 58243 H 5844.38 -0.981378 3.60998 0
M  V30 58244 H 5845.71 -1.31018 4.74442 0
M  V30 58245 N 5847.36 -1.56606 -0.176738 0
M  V30 58246 C 5848.61 -1.81686 -0.894238 0
M  V30 58247 C 5848.94 -0.673174 -1.82479 0
M  V30 58248 O 5848.19 0.339927 -1.92725 0
M  V30 58249 C 5848.49 -3.12894 -1.72719 0
M  V30 58250 C 5848.16 -4.40864 -0.946031 0
M  V30 58251 C 5846.82 -4.75624 -0.730419 0
M  V30 58252 C 5849.17 -5.1968 -0.397706 0
M  V30 58253 C 5846.5 -5.86683 0.0447057 0
M  V30 58254 C 5848.85 -6.3155 0.364302 0
M  V30 58255 C 5847.52 -6.64881 0.590764 0
M  V30 58256 H 5846.79 -0.664834 -0.327225 0
M  V30 58257 H 5849.43 -1.90835 -0.159488 0
M  V30 58258 H 5847.74 -2.99064 -2.53117 0
M  V30 58259 H 5849.44 -3.29508 -2.28529 0
M  V30 58260 H 5846.03 -4.13596 -1.12412 0
M  V30 58261 H 5850.21 -4.93225 -0.551637 0
M  V30 58262 H 5845.47 -6.10967 0.229954 0
M  V30 58263 H 5849.64 -6.9183 0.796467 0
M  V30 58264 H 5847.27 -7.50776 1.19327 0
M  V30 58265 N 5848.84 0.445106 -1.51184 0
M  V30 58266 C 5849.79 1.53969 -1.71936 0
M  V30 58267 C 5850.76 1.56342 -0.56092 0
M  V30 58268 O 5851.94 1.73473 -0.794475 0
M  V30 58269 C 5849.08 2.91749 -1.84327 0
M  V30 58270 C 5848.2 2.98965 -3.11839 0
M  V30 58271 C 5847.33 4.2782 -3.1487 0
M  V30 58272 C 5846.37 4.28875 -4.3673 0
M  V30 58273 N 5845.51 5.49241 -4.37354 0
M  V30 58274 H 5850.35 1.35577 -2.65373 0
M  V30 58275 H 5847.88 0.658741 -1.31526 0
M  V30 58276 H 5849.84 3.71684 -1.89492 0
M  V30 58277 H 5848.47 3.08717 -0.943055 0
M  V30 58278 H 5847.52 2.11742 -3.16021 0
M  V30 58279 H 5848.84 2.95605 -4.0177 0
M  V30 58280 H 5847.99 5.16122 -3.18909 0
M  V30 58281 H 5846.73 4.33826 -2.22815 0
M  V30 58282 H 5845.73 3.38966 -4.32876 0
M  V30 58283 H 5846.96 4.24539 -5.30041 0
M  V30 58284 H 5844.91 5.55983 -3.48165 0
M  V30 58285 H 5844.82 5.4773 -5.21084 0
M  V30 58286 H 5846.09 6.39597 -4.45574 0
M  V30 58287 N 5850.32 1.41199 0.70004 0
M  V30 58288 C 5851.73 1.35934 1.2798 0
M  V30 58289 C 5852.08 0.0402749 1.96159 0
M  V30 58290 O 5851.21 -0.861541 1.98511 0
M  V30 58291 C 5851.8 2.46211 2.32735 0
M  V30 58292 C 5850.36 2.44358 2.86297 0
M  V30 58293 C 5849.51 2.26288 1.60278 0
M  V30 58294 H 5852.46 1.5078 0.495099 0
M  V30 58295 H 5852.48 2.15013 3.13927 0
M  V30 58296 H 5851.99 3.42202 1.83084 0
M  V30 58297 H 5850.09 1.52111 3.40137 0
M  V30 58298 H 5850.21 3.40509 3.37032 0
M  V30 58299 H 5848.57 1.74084 1.85922 0
M  V30 58300 H 5849.35 3.24299 1.12629 0
M  V30 58301 N 5851.8 -0.933846 1.26953 0
M  V30 58302 C 5852.73 -2.05074 1.11656 0
M  V30 58303 C 5853.71 -1.70089 0.0197061 0
M  V30 58304 O 5854.89 -1.93238 0.193075 0
M  V30 58305 C 5852.02 -3.38961 0.756506 0
M  V30 58306 C 5850.98 -3.88035 1.80591 0
M  V30 58307 C 5850.3 -5.18656 1.29998 0
M  V30 58308 C 5851.6 -4.12105 3.20885 0
M  V30 58309 H 5853.3 -2.1813 2.05085 0
M  V30 58310 H 5850.84 -1.04813 0.987429 0
M  V30 58311 H 5852.8 -4.16568 0.636337 0
M  V30 58312 H 5851.52 -3.25901 -0.213492 0
M  V30 58313 H 5850.18 -3.12615 1.91487 0
M  V30 58314 H 5849.83 -5.01984 0.319618 0
M  V30 58315 H 5849.53 -5.5246 2.00153 0
M  V30 58316 H 5851.05 -5.98839 1.19263 0
M  V30 58317 H 5852.47 -4.80301 3.13023 0
M  V30 58318 H 5850.86 -4.57204 3.88696 0
M  V30 58319 H 5851.93 -3.1762 3.66395 0
M  V30 58320 N 5853.28 -1.08875 -1.13947 0
M  V30 58321 C 5854.24 -0.726731 -2.17374 0
M  V30 58322 C 5855.24 0.240866 -1.58986 0
M  V30 58323 O 5856.43 0.019786 -1.74189 0
M  V30 58324 C 5853.56 -0.0737704 -3.4082 0
M  V30 58325 H 5854.75 -1.64262 -2.50914 0
M  V30 58326 H 5852.31 -0.887228 -1.28678 0
M  V30 58327 H 5853.04 0.853623 -3.12864 0
M  V30 58328 H 5852.83 -0.769917 -3.84467 0
M  V30 58329 H 5854.32 0.164318 -4.17277 0
M  V30 58330 N 5854.75 1.3107 -0.875119 0
M  V30 58331 C 5856.17 1.78705 -0.540485 0
M  V30 58332 C 5856.52 1.72059 0.942874 0
M  V30 58333 O 5855.64 1.29145 1.73639 0
M  V30 58334 C 5856.24 3.24488 -0.974317 0
M  V30 58335 C 5854.8 3.69998 -0.691257 0
M  V30 58336 C 5853.94 2.51743 -1.16278 0
M  V30 58337 H 5856.89 1.18079 -1.06033 0
M  V30 58338 H 5856.91 3.79322 -0.299136 0
M  V30 58339 H 5856.43 3.29293 -2.05396 0
M  V30 58340 H 5854.53 3.7069 0.376806 0
M  V30 58341 H 5854.64 4.61909 -1.2719 0
M  V30 58342 H 5853 2.47952 -0.582389 0
M  V30 58343 H 5853.79 2.59291 -2.24995 0
M  V30 58344 N 5856.23 0.635073 1.44238 0
M  V30 58345 C 5857.51 0.0718751 1.95468 0
M  V30 58346 C 5857.89 -1.40342 1.57693 0
M  V30 58347 O 5857.24 -2.11983 0.852963 0
M  V30 58348 C 5857.45 0.298916 3.47718 0
M  V30 58349 C 5858.8 0.194205 4.24156 0
M  V30 58350 O 5859.82 0.230493 3.55453 0
M  V30 58351 O 5858.68 0.102486 5.46404 0
M  V30 58352 H 5855.77 -0.0200493 0.826757 0
M  V30 58353 H 5858.32 0.707051 1.54269 0
M  V30 58354 H 5857.09 1.32246 3.68275 0
M  V30 58355 H 5856.71 -0.370208 3.95873 0
M  V30 58356 N 5857.71 -1.53052 0.37586 0
M  V30 58357 C 5858.96 -2.01004 -0.210186 0
M  V30 58358 C 5859.28 -1.26457 -1.48438 0
M  V30 58359 O 5858.55 -0.380755 -1.92164 0
M  V30 58360 H 5857.13 -0.742632 -0.0806599 0
M  V30 58361 H 5859.79 -1.88258 0.504459 0
M  V30 58362 H 5858.89 -3.09125 -0.429918 0
M  V30 58363 N 5859.19 -0.105304 -1.57248 0
M  V30 58364 C 5860.43 0.55681 -1.95006 0
M  V30 58365 C 5860.77 1.67196 -0.987877 0
M  V30 58366 O 5860.04 1.94487 -0.0226844 0
M  V30 58367 C 5860.33 1.1024 -3.42811 0
M  V30 58368 C 5860.18 -0.00839721 -4.49799 0
M  V30 58369 C 5861.5 1.9976 -3.92153 0
M  V30 58370 H 5858.62 0.200934 -0.70908 0
M  V30 58371 H 5861.26 -0.178085 -1.89164 0
M  V30 58372 H 5859.41 1.72868 -3.47921 0
M  V30 58373 H 5861.08 -0.643104 -4.56795 0
M  V30 58374 H 5859.32 -0.673416 -4.28541 0
M  V30 58375 H 5859.99 0.414345 -5.50443 0
M  V30 58376 H 5862.47 1.47022 -3.8926 0
M  V30 58377 H 5861.35 2.34857 -4.96118 0
M  V30 58378 H 5861.61 2.9189 -3.32043 0
M  V30 58379 N 5860.67 1.56697 0.168431 0
M  V30 58380 C 5861.6 1.99663 1.21066 0
M  V30 58381 C 5862.58 0.872676 1.46008 0
M  V30 58382 O 5863.76 1.13897 1.57293 0
M  V30 58383 C 5860.89 2.35898 2.54891 0
M  V30 58384 C 5859.85 3.5128 2.44512 0
M  V30 58385 C 5859.17 3.73266 3.82853 0
M  V30 58386 C 5860.47 4.84638 1.94739 0
M  V30 58387 H 5862.17 2.86977 0.853492 0
M  V30 58388 H 5859.71 1.38066 0.409117 0
M  V30 58389 H 5861.67 2.64554 3.28008 0
M  V30 58390 H 5860.39 1.45496 2.92401 0
M  V30 58391 H 5859.05 3.22757 1.73849 0
M  V30 58392 H 5858.7 2.8015 4.17762 0
M  V30 58393 H 5858.4 4.50903 3.76776 0
M  V30 58394 H 5859.92 4.04325 4.57552 0
M  V30 58395 H 5861.33 5.12151 2.57632 0
M  V30 58396 H 5859.73 5.65932 1.99603 0
M  V30 58397 H 5860.8 4.7644 0.901853 0
M  V30 58398 N 5862.14 -0.437082 1.51418 0
M  V30 58399 C 5863.07 -1.53794 1.75697 0
M  V30 58400 C 5864.06 -1.58908 0.606815 0
M  V30 58401 O 5865.24 -1.74632 0.849554 0
M  V30 58402 C 5862.37 -2.91871 1.88225 0
M  V30 58403 C 5861.32 -3.01618 3.03662 0
M  V30 58404 C 5860.65 -4.41676 3.01374 0
M  V30 58405 C 5861.95 -2.75675 4.43622 0
M  V30 58406 H 5863.64 -1.33728 2.67875 0
M  V30 58407 H 5861.19 -0.641891 1.28902 0
M  V30 58408 H 5863.14 -3.68844 2.03794 0
M  V30 58409 H 5861.87 -3.13169 0.926957 0
M  V30 58410 H 5860.53 -2.27084 2.87799 0
M  V30 58411 H 5860.17 -4.59943 2.03622 0
M  V30 58412 H 5859.87 -4.49127 3.78891 0
M  V30 58413 H 5861.4 -5.20623 3.19036 0
M  V30 58414 H 5862.81 -3.42382 4.59834 0
M  V30 58415 H 5861.21 -2.94536 5.22847 0
M  V30 58416 H 5862.28 -1.71281 4.53642 0
M  V30 58417 N 5863.62 -1.41568 -0.692542 0
M  V30 58418 C 5864.87 -1.41088 -1.4526 0
M  V30 58419 C 5865.2 -0.0210682 -1.94489 0
M  V30 58420 O 5864.45 0.967581 -1.70107 0
M  V30 58421 C 5864.75 -2.36692 -2.6779 0
M  V30 58422 C 5864.42 -3.83466 -2.37202 0
M  V30 58423 C 5863.08 -4.23449 -2.2857 0
M  V30 58424 C 5865.43 -4.76122 -2.12032 0
M  V30 58425 C 5862.76 -5.54092 -1.92869 0
M  V30 58426 C 5865.11 -6.07088 -1.77838 0
M  V30 58427 C 5863.78 -6.46089 -1.67705 0
M  V30 58428 H 5863.05 -0.516279 -0.531542 0
M  V30 58429 H 5865.69 -1.74388 -0.791276 0
M  V30 58430 H 5864 -1.96657 -3.3887 0
M  V30 58431 H 5865.69 -2.33593 -3.25938 0
M  V30 58432 H 5862.28 -3.518 -2.44815 0
M  V30 58433 H 5866.47 -4.46033 -2.17643 0
M  V30 58434 H 5861.72 -5.83189 -1.83578 0
M  V30 58435 H 5865.9 -6.78383 -1.57383 0
M  V30 58436 H 5863.53 -7.47233 -1.39809 0
M  V30 58437 N 5865.1 0.927101 -1.27446 0
M  V30 58438 C 5866.33 1.71421 -1.16745 0
M  V30 58439 C 5866.75 1.86123 0.271998 0
M  V30 58440 O 5866.11 1.36169 1.19698 0
M  V30 58441 C 5866.16 3.09125 -1.85672 0
M  V30 58442 O 5865.26 3.95893 -1.15509 0
M  V30 58443 H 5864.6 0.525413 -0.406001 0
M  V30 58444 H 5867.13 1.16016 -1.68527 0
M  V30 58445 H 5867.14 3.59436 -1.93054 0
M  V30 58446 H 5865.82 2.97742 -2.90384 0
M  V30 58447 H 5864.39 3.54333 -1.162 0
M  V30 58448 N 5866.58 1.09478 1.13368 0
M  V30 58449 C 5867.83 0.829515 1.84292 0
M  V30 58450 C 5868.15 -0.646723 1.83963 0
M  V30 58451 O 5867.42 -1.46924 1.29577 0
M  V30 58452 H 5866 0.303877 0.682398 0
M  V30 58453 H 5868.66 1.38303 1.37325 0
M  V30 58454 H 5867.76 1.18352 2.88789 0
M  V30 58455 N 5868.06 -1.30604 0.882058 0
M  V30 58456 C 5869.31 -1.95867 0.498047 0
M  V30 58457 C 5869.63 -1.69995 -0.955345 0
M  V30 58458 O 5868.9 -1.02194 -1.67133 0
M  V30 58459 H 5867.48 -0.724692 0.18119 0
M  V30 58460 H 5870.14 -1.59189 1.12449 0
M  V30 58461 H 5869.23 -3.04914 0.665861 0
M  V30 58462 N 5869.54 -0.642713 -1.43899 0
M  V30 58463 C 5870.48 0.055254 -2.30734 0
M  V30 58464 C 5871.45 0.825235 -1.4415 0
M  V30 58465 O 5872.64 0.803952 -1.73035 0
M  V30 58466 C 5869.78 1.02295 -3.2959 0
M  V30 58467 C 5868.89 0.250172 -4.31275 0
M  V30 58468 C 5868.03 1.21072 -5.17219 0
M  V30 58469 C 5867.06 0.427769 -6.10603 0
M  V30 58470 N 5866.2 1.33937 -6.89206 0
M  V30 58471 H 5871.04 -0.69114 -2.89875 0
M  V30 58472 H 5868.58 -0.3526 -1.42812 0
M  V30 58473 H 5870.54 1.59749 -3.85404 0
M  V30 58474 H 5869.17 1.73634 -2.72123 0
M  V30 58475 H 5868.22 -0.440492 -3.77841 0
M  V30 58476 H 5869.53 -0.359112 -4.97506 0
M  V30 58477 H 5868.68 1.85624 -5.77606 0
M  V30 58478 H 5867.42 1.85392 -4.51089 0
M  V30 58479 H 5866.43 -0.231164 -5.49314 0
M  V30 58480 H 5867.65 -0.210878 -6.78773 0
M  V30 58481 H 5865.6 1.96956 -6.25735 0
M  V30 58482 H 5865.52 0.784391 -7.5192 0
M  V30 58483 H 5866.78 1.97336 -7.54108 0
M  V30 58484 N 5871.01 1.52851 -0.383971 0
M  V30 58485 C 5872.24 2.06407 0.202692 0
M  V30 58486 C 5872.66 1.25426 1.40179 0
M  V30 58487 O 5872.02 0.277939 1.79157 0
M  V30 58488 C 5872.07 3.56283 0.556289 0
M  V30 58489 O 5871.17 3.7791 1.651 0
M  V30 58490 H 5870.51 0.663524 0.0251504 0
M  V30 58491 H 5873.04 1.97072 -0.549899 0
M  V30 58492 H 5873.05 3.99632 0.822108 0
M  V30 58493 H 5871.73 4.14664 -0.320399 0
M  V30 58494 H 5870.31 3.46453 1.3793 0
M  V30 58495 N 5872.49 0.113641 1.5719 0
M  V30 58496 C 5873.74 -0.544574 1.94625 0
M  V30 58497 C 5874.06 -1.67557 0.997487 0
M  V30 58498 O 5873.33 -1.95829 0.0528209 0
M  V30 58499 H 5871.91 -0.204161 0.718559 0
M  V30 58500 H 5874.57 0.181326 1.94055 0
M  V30 58501 H 5873.67 -0.942661 2.97524 0
M  V30 58502 N 5873.97 -1.56785 -0.160118 0
M  V30 58503 C 5875.38 -1.72196 -0.721492 0
M  V30 58504 C 5875.73 -0.725965 -1.82275 0
M  V30 58505 O 5874.86 0.110267 -2.16119 0
M  V30 58506 C 5875.45 -3.12217 -1.31552 0
M  V30 58507 C 5874.01 -3.29275 -1.8236 0
M  V30 58508 C 5873.16 -2.68138 -0.706916 0
M  V30 58509 H 5876.11 -1.58565 0.0654079 0
M  V30 58510 H 5876.13 -3.11489 -2.18529 0
M  V30 58511 H 5875.64 -3.84684 -0.513781 0
M  V30 58512 H 5873.74 -2.61783 -2.65142 0
M  V30 58513 H 5873.86 -4.37114 -1.96134 0
M  V30 58514 H 5872.22 -2.2825 -1.13022 0
M  V30 58515 H 5873 -3.43199 0.0831613 0
M  V30 58516 N 5875.45 0.429046 -1.51647 0
M  V30 58517 C 5876.69 1.17952 -1.6497 0
M  V30 58518 C 5877.03 1.90666 -0.368822 0
M  V30 58519 O 5876.3 1.83947 0.631958 0
M  V30 58520 C 5876.58 2.18992 -2.85858 0
M  V30 58521 C 5876.44 1.50307 -4.23943 0
M  V30 58522 C 5877.76 3.19885 -3.02261 0
M  V30 58523 H 5874.88 0.427453 -0.600377 0
M  V30 58524 H 5877.52 0.467706 -1.84154 0
M  V30 58525 H 5875.67 2.79697 -2.69633 0
M  V30 58526 H 5877.34 0.928743 -4.51854 0
M  V30 58527 H 5875.58 0.805281 -4.2626 0
M  V30 58528 H 5876.25 2.23933 -5.04538 0
M  V30 58529 H 5878.73 2.6924 -3.17252 0
M  V30 58530 H 5877.61 3.87867 -3.88395 0
M  V30 58531 H 5877.87 3.86469 -2.14695 0
M  V30 58532 N 5876.93 1.41934 0.685024 0
M  V30 58533 C 5877.84 1.46992 1.8284 0
M  V30 58534 C 5878.85 0.359547 1.70245 0
M  V30 58535 O 5880.03 0.608891 1.91975 0
M  V30 58536 C 5877.09 1.36012 3.18907 0
M  V30 58537 C 5876.15 2.57454 3.43534 0
M  V30 58538 C 5875.39 2.46989 4.73109 0
M  V30 58539 O 5875.61 1.50018 5.50319 0
M  V30 58540 O 5874.54 3.36939 4.98754 0
M  V30 58541 H 5878.37 2.43477 1.81529 0
M  V30 58542 H 5875.95 1.23586 0.839454 0
M  V30 58543 H 5877.84 1.32212 4.00122 0
M  V30 58544 H 5876.51 0.426479 3.20878 0
M  V30 58545 H 5875.42 2.6683 2.62207 0
M  V30 58546 H 5876.75 3.49683 3.46385 0
M  V30 58547 N 5878.4 -0.920329 1.27936 0
M  V30 58548 C 5879.68 -1.64761 1.05419 0
M  V30 58549 C 5880.06 -2.07107 -0.408644 0
M  V30 58550 O 5879.41 -1.81099 -1.39339 0
M  V30 58551 C 5879.62 -2.8441 2.02267 0
M  V30 58552 C 5880.97 -3.55582 2.32048 0
M  V30 58553 O 5881.99 -2.94548 2.00299 0
M  V30 58554 O 5880.85 -4.65564 2.86204 0
M  V30 58555 H 5877.94 -0.722489 0.402417 0
M  V30 58556 H 5880.49 -0.970214 1.3923 0
M  V30 58557 H 5879.26 -2.50163 3.00889 0
M  V30 58558 H 5878.88 -3.59866 1.69063 0
M  V30 58559 N 5879.88 -1.10078 -1.12786 0
M  V30 58560 C 5881.13 -0.840937 -1.84213 0
M  V30 58561 C 5881.46 0.633486 -1.83895 0
M  V30 58562 O 5880.71 1.48278 -1.27719 0
M  V30 58563 C 5881.01 -1.32981 -3.31739 0
M  V30 58564 C 5880.68 -2.81501 -3.52233 0
M  V30 58565 C 5879.34 -3.22061 -3.57534 0
M  V30 58566 C 5881.69 -3.77228 -3.5965 0
M  V30 58567 C 5879.02 -4.57105 -3.67793 0
M  V30 58568 C 5881.37 -5.1207 -3.71439 0
M  V30 58569 C 5880.03 -5.52209 -3.74995 0
M  V30 58570 H 5879.3 -0.307721 -0.674084 0
M  V30 58571 H 5881.95 -1.37673 -1.3311 0
M  V30 58572 H 5880.26 -0.713955 -3.8524 0
M  V30 58573 H 5881.95 -1.10529 -3.85466 0
M  V30 58574 H 5878.54 -2.49118 -3.48767 0
M  V30 58575 H 5882.73 -3.47002 -3.54828 0
M  V30 58576 H 5877.98 -4.87631 -3.68817 0
M  V30 58577 H 5882.16 -5.86094 -3.76121 0
M  V30 58578 H 5879.78 -6.56846 -3.82697 0
M  V30 58579 N 5881.36 1.30135 -0.888972 0
M  V30 58580 C 5882.61 1.96278 -0.510189 0
M  V30 58581 C 5882.94 1.69987 0.939037 0
M  V30 58582 O 5882.21 1.00683 1.66413 0
M  V30 58583 C 5882.5 3.51318 -0.790428 0
M  V30 58584 C 5882.35 3.87108 -2.29057 0
M  V30 58585 C 5883.67 4.39273 -0.269632 0
M  V30 58586 H 5880.79 0.712925 -0.186835 0
M  V30 58587 H 5883.43 1.53938 -1.11369 0
M  V30 58588 H 5881.58 3.87513 -0.276783 0
M  V30 58589 H 5883.25 3.60916 -2.87293 0
M  V30 58590 H 5881.49 3.35034 -2.75562 0
M  V30 58591 H 5882.17 4.9528 -2.43725 0
M  V30 58592 H 5884.64 4.1001 -0.709317 0
M  V30 58593 H 5883.52 5.46663 -0.495008 0
M  V30 58594 H 5883.78 4.34253 0.829281 0
M  V30 58595 N 5882.84 0.650335 1.43556 0
M  V30 58596 C 5884.06 0.168556 2.06714 0
M  V30 58597 C 5884.49 -1.15571 1.48408 0
M  V30 58598 O 5883.85 -1.71331 0.592902 0
M  V30 58599 C 5883.89 0.0878362 3.60493 0
M  V30 58600 O 5883 -0.950774 4.0129 0
M  V30 58601 H 5882.34 0.0935512 0.657377 0
M  V30 58602 H 5884.87 0.892446 1.8411 0
M  V30 58603 H 5884.88 -0.0964391 4.07886 0
M  V30 58604 H 5883.55 1.05456 4.02308 0
M  V30 58605 H 5882.13 -0.739519 3.65494 0
M  V30 58606 N 5884.32 -1.52645 0.392072 0
M  V30 58607 C 5885.25 -2.29447 -0.433148 0
M  V30 58608 C 5886.23 -1.32949 -1.06107 0
M  V30 58609 O 5887.41 -1.61844 -1.07331 0
M  V30 58610 C 5884.54 -3.10333 -1.55918 0
M  V30 58611 C 5883.5 -4.14739 -1.05716 0
M  V30 58612 C 5882.82 -4.83866 -2.27548 0
M  V30 58613 C 5884.12 -5.22155 -0.123162 0
M  V30 58614 H 5885.82 -2.98679 0.207668 0
M  V30 58615 H 5883.36 -1.43643 0.101317 0
M  V30 58616 H 5885.32 -3.62821 -2.14333 0
M  V30 58617 H 5884.04 -2.3884 -2.22762 0
M  V30 58618 H 5882.7 -3.63236 -0.495526 0
M  V30 58619 H 5882.35 -4.08918 -2.92908 0
M  V30 58620 H 5882.05 -5.54435 -1.94617 0
M  V30 58621 H 5883.57 -5.39159 -2.866 0
M  V30 58622 H 5884.98 -5.69985 -0.615584 0
M  V30 58623 H 5883.38 -5.99987 0.116515 0
M  V30 58624 H 5884.45 -4.77793 0.827137 0
M  V30 58625 N 5885.79 -0.121976 -1.57127 0
M  V30 58626 C 5886.76 0.81283 -2.14303 0
M  V30 58627 C 5887.76 1.19257 -1.07863 0
M  V30 58628 O 5888.95 1.11759 -1.33625 0
M  V30 58629 C 5886.08 2.0996 -2.6857 0
M  V30 58630 H 5887.27 0.315887 -2.98232 0
M  V30 58631 H 5884.83 0.127285 -1.55781 0
M  V30 58632 H 5885.56 2.64078 -1.88237 0
M  V30 58633 H 5885.35 1.83676 -3.46418 0
M  V30 58634 H 5886.84 2.76777 -3.12704 0
M  V30 58635 N 5887.27 1.56867 0.151801 0
M  V30 58636 C 5888.21 1.93044 1.21694 0
M  V30 58637 C 5889.18 0.795657 1.41803 0
M  V30 58638 O 5890.37 1.05082 1.56493 0
M  V30 58639 C 5887.49 2.19831 2.57667 0
M  V30 58640 C 5886.54 3.42483 2.5418 0
M  V30 58641 S 5887.37 4.96206 2.01345 0
M  V30 58642 C 5888.53 5.2611 3.39056 0
M  V30 58643 H 5888.76 2.83086 0.908271 0
M  V30 58644 H 5886.3 1.50211 0.357212 0
M  V30 58645 H 5888.25 2.35944 3.35918 0
M  V30 58646 H 5886.91 1.30461 2.85725 0
M  V30 58647 H 5886.11 3.58488 3.54263 0
M  V30 58648 H 5885.71 3.25587 1.84036 0
M  V30 58649 H 5888 5.19283 4.35145 0
M  V30 58650 H 5888.94 6.276 3.27909 0
M  V30 58651 H 5889.35 4.53634 3.3597 0
M  V30 58652 N 5888.75 -0.420997 1.51873 0
M  V30 58653 C 5890 -1.17076 1.65593 0
M  V30 58654 C 5890.33 -1.90467 0.378928 0
M  V30 58655 O 5889.6 -1.8428 -0.622194 0
M  V30 58656 C 5889.89 -2.17473 2.87015 0
M  V30 58657 C 5889.74 -1.48056 4.24735 0
M  V30 58658 C 5891.06 -3.18277 3.03953 0
M  V30 58659 H 5888.18 -0.424263 0.602636 0
M  V30 58660 H 5890.82 -0.457933 1.84399 0
M  V30 58661 H 5888.97 -2.78263 2.71112 0
M  V30 58662 H 5890.64 -0.904767 4.5234 0
M  V30 58663 H 5888.89 -0.782664 4.26681 0
M  V30 58664 H 5889.56 -2.21254 5.05718 0
M  V30 58665 H 5892.03 -2.67554 3.18676 0
M  V30 58666 H 5890.91 -3.85801 3.90447 0
M  V30 58667 H 5891.17 -3.85325 2.16742 0
M  V30 58668 N 5890.23 -1.42295 -0.677488 0
M  V30 58669 C 5891.48 -1.42339 -1.43471 0
M  V30 58670 C 5891.8 -0.0398527 -1.94959 0
M  V30 58671 O 5891.07 0.921198 -1.72889 0
M  V30 58672 H 5889.65 -0.523988 -0.532396 0
M  V30 58673 H 5892.31 -1.77693 -0.800696 0
M  V30 58674 H 5891.41 -2.12154 -2.28904 0
M  V30 58675 N 5891.71 0.913531 -1.28423 0
M  V30 58676 C 5892.95 1.6594 -1.15361 0
M  V30 58677 C 5893.28 1.92707 0.29816 0
M  V30 58678 O 5892.55 1.54338 1.20651 0
M  V30 58679 H 5891.13 0.615048 -0.42394 0
M  V30 58680 H 5893.79 1.09614 -1.61154 0
M  V30 58681 H 5892.88 2.62167 -1.69336 0
M  V30 58682 N 5893.18 1.10674 1.122 0
M  V30 58683 C 5894.13 0.727055 2.16097 0
M  V30 58684 C 5895.12 -0.264994 1.58703 0
M  V30 58685 O 5896.31 -0.0733431 1.76848 0
M  V30 58686 C 5893.44 0.163182 3.42912 0
M  V30 58687 C 5892.53 1.18242 4.07283 0
M  V30 58688 N 5892.92 2.37396 4.46628 0
M  V30 58689 C 5891.21 1.02352 4.34097 0
M  V30 58690 C 5891.92 3.02335 4.96959 0
M  V30 58691 N 5890.89 2.29843 4.92619 0
M  V30 58692 H 5894.69 1.63405 2.44287 0
M  V30 58693 H 5892.21 0.984827 1.29131 0
M  V30 58694 H 5894.2 -0.126921 4.16707 0
M  V30 58695 H 5892.86 -0.7385 3.1619 0
M  V30 58696 H 5893.88 2.74904 4.38917 0
M  V30 58697 H 5890.55 0.177598 4.17122 0
M  V30 58698 H 5891.94 4.03704 5.37096 0
M  V30 58699 N 5894.66 -1.29661 0.89586 0
M  V30 58700 C 5895.59 -2.30267 0.387232 0
M  V30 58701 C 5896.57 -1.61444 -0.535711 0
M  V30 58702 O 5897.76 -1.8898 -0.447255 0
M  V30 58703 C 5894.89 -3.45109 -0.389517 0
M  V30 58704 C 5893.84 -4.25705 0.442648 0
M  V30 58705 C 5893.17 -5.32706 -0.461365 0
M  V30 58706 C 5894.47 -4.94184 1.69054 0
M  V30 58707 H 5896.16 -2.7306 1.22796 0
M  V30 58708 H 5893.71 -1.31272 0.591915 0
M  V30 58709 H 5895.66 -4.14562 -0.756057 0
M  V30 58710 H 5894.39 -3.01149 -1.26399 0
M  V30 58711 H 5893.04 -3.57954 0.791469 0
M  V30 58712 H 5892.69 -4.84992 -1.33386 0
M  V30 58713 H 5892.39 -5.87528 0.0917071 0
M  V30 58714 H 5893.92 -6.05012 -0.824182 0
M  V30 58715 H 5895.33 -5.56095 1.39396 0
M  V30 58716 H 5893.73 -5.58922 2.18464 0
M  V30 58717 H 5894.8 -4.19691 2.42874 0
M  V30 58718 N 5896.14 -0.657939 -1.43209 0
M  V30 58719 C 5897.05 0.0312853 -2.34579 0
M  V30 58720 C 5898.07 0.807099 -1.54149 0
M  V30 58721 O 5899.24 0.753269 -1.86783 0
M  V30 58722 C 5896.31 0.982542 -3.32486 0
M  V30 58723 C 5895.37 0.203137 -4.28819 0
M  V30 58724 C 5894.6 1.10908 -5.22049 0
M  V30 58725 O 5894.82 2.34843 -5.19813 0
M  V30 58726 O 5893.76 0.57895 -5.99109 0
M  V30 58727 H 5897.58 -0.720912 -2.9502 0
M  V30 58728 H 5895.17 -0.418133 -1.43429 0
M  V30 58729 H 5897.05 1.52909 -3.92679 0
M  V30 58730 H 5895.73 1.71488 -2.74542 0
M  V30 58731 H 5894.63 -0.387113 -3.72092 0
M  V30 58732 H 5895.97 -0.489735 -4.89758 0
M  V30 58733 N 5897.62 1.52435 -0.400162 0
M  V30 58734 C 5898.87 2.01711 0.178534 0
M  V30 58735 C 5899.19 1.28618 1.45903 0
M  V30 58736 O 5898.45 0.378273 1.92009 0
M  V30 58737 C 5898.75 3.54135 0.482016 0
M  V30 58738 C 5898.41 4.45303 -0.708216 0
M  V30 58739 C 5897.08 4.69944 -1.03471 0
M  V30 58740 C 5899.43 4.99029 -1.50396 0
M  V30 58741 C 5896.76 5.45558 -2.15831 0
M  V30 58742 C 5899.11 5.75874 -2.61825 0
M  V30 58743 C 5897.77 5.98789 -2.94971 0
M  V30 58744 H 5897.04 0.738114 0.0653303 0
M  V30 58745 H 5899.69 1.83736 -0.53974 0
M  V30 58746 H 5897.99 3.70241 1.28175 0
M  V30 58747 H 5899.69 3.89764 0.942588 0
M  V30 58748 H 5896.28 4.26297 -0.443749 0
M  V30 58749 H 5900.47 4.79909 -1.26495 0
M  V30 58750 H 5895.72 5.61524 -2.41869 0
M  V30 58751 H 5899.9 6.16503 -3.23879 0
M  V30 58752 H 5897.52 6.57163 -3.82153 0
M  V30 58753 N 5899.1 0.130307 1.5706 0
M  V30 58754 C 5900.51 -0.226224 1.57989 0
M  V30 58755 C 5900.71 -1.65898 1.14369 0
M  V30 58756 O 5899.77 -2.38249 0.836275 0
M  V30 58757 C 5901.08 0.0173704 3.00695 0
M  V30 58758 C 5902.63 -0.0476471 3.12964 0
M  V30 58759 C 5903.11 0.168399 4.5769 0
M  V30 58760 N 5904.6 0.114754 4.63058 0
M  V30 58761 C 5905.33 0.256664 5.72825 0
M  V30 58762 N 5904.83 0.455372 6.91302 0
M  V30 58763 N 5906.62 0.19544 5.6176 0
M  V30 58764 H 5898.77 1.066 1.83712 0
M  V30 58765 H 5901.03 0.420673 0.849552 0
M  V30 58766 H 5900.74 1.00831 3.36936 0
M  V30 58767 H 5900.61 -0.709499 3.70467 0
M  V30 58768 H 5903 -1.02912 2.76574 0
M  V30 58769 H 5903.08 0.711284 2.45712 0
M  V30 58770 H 5902.73 1.1469 4.94781 0
M  V30 58771 H 5902.66 -0.610655 5.23047 0
M  V30 58772 H 5905.15 -0.0348544 3.77884 0
M  V30 58773 H 5905.46 0.554214 7.7081 0
M  V30 58774 H 5903.81 0.491487 6.9326 0
M  V30 58775 H 5907 0.0410831 4.68082 0
M  V30 58776 H 5907.17 0.309475 6.47261 0
M  V30 58777 N 5900.58 -1.56946 -0.14348 0
M  V30 58778 C 5901.81 -1.87432 -0.869073 0
M  V30 58779 C 5902.21 -0.716917 -1.75091 0
M  V30 58780 O 5901.56 0.322316 -1.8085 0
M  V30 58781 C 5901.62 -3.12663 -1.77431 0
M  V30 58782 C 5901.28 -4.44315 -1.06928 0
M  V30 58783 C 5902.28 -5.18188 -0.421524 0
M  V30 58784 C 5899.96 -4.91037 -1.05774 0
M  V30 58785 C 5901.96 -6.36991 0.228351 0
M  V30 58786 C 5899.65 -6.09763 -0.404052 0
M  V30 58787 C 5900.64 -6.82586 0.237861 0
M  V30 58788 O 5900.33 -7.99056 0.881173 0
M  V30 58789 H 5900.06 -0.625452 -0.256486 0
M  V30 58790 H 5902.62 -2.04923 -0.139907 0
M  V30 58791 H 5900.85 -2.9119 -2.54451 0
M  V30 58792 H 5902.54 -3.29368 -2.37217 0
M  V30 58793 H 5903.3 -4.83159 -0.422225 0
M  V30 58794 H 5899.18 -4.34276 -1.54679 0
M  V30 58795 H 5902.73 -6.9377 0.729976 0
M  V30 58796 H 5898.62 -6.44253 -0.40103 0
M  V30 58797 H 5899.39 -8.14744 0.783193 0
M  V30 58798 N 5902.05 0.412937 -1.52094 0
M  V30 58799 C 5902.96 1.52762 -1.78048 0
M  V30 58800 C 5903.98 1.60756 -0.665848 0
M  V30 58801 O 5905.16 1.77542 -0.950835 0
M  V30 58802 C 5902.22 2.88533 -1.92223 0
M  V30 58803 C 5901.28 2.90457 -3.16123 0
M  V30 58804 C 5900.51 4.19752 -3.29612 0
M  V30 58805 O 5900.74 5.13445 -2.48456 0
M  V30 58806 O 5899.67 4.28455 -4.22741 0
M  V30 58807 H 5903.5 1.33768 -2.72653 0
M  V30 58808 H 5901.08 0.598413 -1.36892 0
M  V30 58809 H 5902.96 3.69066 -2.03392 0
M  V30 58810 H 5901.64 3.07603 -1.00806 0
M  V30 58811 H 5900.55 2.0879 -3.10415 0
M  V30 58812 H 5901.88 2.76335 -4.07308 0
M  V30 58813 N 5903.53 1.42652 0.669932 0
M  V30 58814 C 5904.46 1.49304 1.79529 0
M  V30 58815 C 5905.44 0.349168 1.66478 0
M  V30 58816 O 5906.63 0.564137 1.85826 0
M  V30 58817 C 5903.76 1.39946 3.17856 0
M  V30 58818 C 5902.71 2.5241 3.45649 0
M  V30 58819 C 5902.04 2.28109 4.83602 0
M  V30 58820 C 5903.34 3.94709 3.42056 0
M  V30 58821 H 5905.03 2.43492 1.74219 0
M  V30 58822 H 5902.58 1.17194 0.836754 0
M  V30 58823 H 5904.53 1.43207 3.9632 0
M  V30 58824 H 5903.25 0.42255 3.23855 0
M  V30 58825 H 5901.91 2.48475 2.69547 0
M  V30 58826 H 5901.56 1.287 4.86256 0
M  V30 58827 H 5901.26 3.03487 5.03159 0
M  V30 58828 H 5902.79 2.33126 5.64344 0
M  V30 58829 H 5904.2 4.00221 4.10482 0
M  V30 58830 H 5902.6 4.69978 3.73149 0
M  V30 58831 H 5903.67 4.21033 2.40539 0
M  V30 58832 N 5905.01 -0.906708 1.28905 0
M  V30 58833 C 5906.26 -1.65326 1.1624 0
M  V30 58834 C 5906.58 -1.92862 -0.287937 0
M  V30 58835 O 5905.85 -1.54975 -1.19831 0
M  V30 58836 H 5904.43 -0.612791 0.427196 0
M  V30 58837 H 5907.09 -1.08758 1.61733 0
M  V30 58838 H 5906.19 -2.61265 1.70724 0
M  V30 58839 N 5906.49 -1.11268 -1.11612 0
M  V30 58840 C 5907.71 -0.883126 -1.87658 0
M  V30 58841 C 5908.14 0.561523 -1.79523 0
M  V30 58842 O 5907.5 1.39636 -1.15635 0
M  V30 58843 C 5907.54 -1.34709 -3.34493 0
M  V30 58844 O 5906.65 -0.517655 -4.09138 0
M  V30 58845 H 5905.99 -0.318254 -0.582761 0
M  V30 58846 H 5908.52 -1.48169 -1.41093 0
M  V30 58847 H 5908.53 -1.34082 -3.85339 0
M  V30 58848 H 5907.2 -2.39908 -3.39731 0
M  V30 58849 H 5905.78 -0.589881 -3.68205 0
M  V30 58850 N 5907.97 1.29185 -0.902724 0
M  V30 58851 C 5909.21 1.9505 -0.529145 0
M  V30 58852 C 5909.53 1.71493 0.92818 0
M  V30 58853 O 5908.8 1.0484 1.65486 0
M  V30 58854 H 5907.38 0.721718 -0.192697 0
M  V30 58855 H 5910.05 1.5738 -1.14968 0
M  V30 58856 H 5909.14 3.03816 -0.714286 0
M  V30 58857 N 5909.44 0.665525 1.42858 0
M  V30 58858 C 5910.37 -0.00474636 2.335 0
M  V30 58859 C 5911.35 -0.799082 1.50162 0
M  V30 58860 O 5912.54 -0.758097 1.78792 0
M  V30 58861 C 5909.67 -0.96323 3.33675 0
M  V30 58862 C 5908.62 -0.278144 4.27095 0
M  V30 58863 C 5907.95 -1.34893 5.17405 0
M  V30 58864 C 5909.25 0.837106 5.15548 0
M  V30 58865 H 5910.94 0.75223 2.89796 0
M  V30 58866 H 5908.49 0.363188 1.39345 0
M  V30 58867 H 5910.44 -1.44114 3.95991 0
M  V30 58868 H 5909.17 -1.75152 2.75662 0
M  V30 58869 H 5907.83 0.179442 3.66161 0
M  V30 58870 H 5907.47 -2.12896 4.55724 0
M  V30 58871 H 5907.17 -0.895714 5.80733 0
M  V30 58872 H 5908.7 -1.82796 5.82596 0
M  V30 58873 H 5910.11 0.440818 5.71603 0
M  V30 58874 H 5908.51 1.21554 5.8766 0
M  V30 58875 H 5909.58 1.68986 4.54502 0
M  V30 58876 N 5910.92 -1.52221 0.40824 0
M  V30 58877 C 5911.88 -2.2558 -0.405772 0
M  V30 58878 C 5912.88 -1.27915 -0.974389 0
M  V30 58879 O 5914.07 -1.51864 -0.853408 0
M  V30 58880 C 5911.21 -3.02538 -1.57111 0
M  V30 58881 H 5912.4 -2.98964 0.236745 0
M  V30 58882 H 5909.95 -1.55471 0.160741 0
M  V30 58883 H 5910.69 -2.335 -2.25052 0
M  V30 58884 H 5910.47 -3.74241 -1.16988 0
M  V30 58885 H 5911.96 -3.58184 -2.14695 0
M  V30 58886 N 5912.4 -0.138635 -1.56989 0
M  V30 58887 C 5913.65 0.515321 -1.96144 0
M  V30 58888 C 5913.98 1.65063 -1.02312 0
M  V30 58889 O 5913.25 1.94395 -0.0639328 0
M  V30 58890 C 5913.54 1.02944 -3.45072 0
M  V30 58891 C 5913.39 -0.103804 -4.4968 0
M  V30 58892 C 5914.71 1.91397 -3.96302 0
M  V30 58893 H 5911.83 0.185848 -0.713183 0
M  V30 58894 H 5914.47 -0.21817 -1.88743 0
M  V30 58895 H 5912.62 1.65449 -3.51509 0
M  V30 58896 H 5914.29 -0.739853 -4.55328 0
M  V30 58897 H 5912.54 -0.764164 -4.27016 0
M  V30 58898 H 5913.21 0.297494 -5.51198 0
M  V30 58899 H 5915.68 1.38733 -3.92291 0
M  V30 58900 H 5914.56 2.24281 -5.00988 0
M  V30 58901 H 5914.82 2.84782 -3.3816 0
M  V30 58902 N 5913.88 1.57019 0.135155 0
M  V30 58903 C 5914.81 2.02186 1.16804 0
M  V30 58904 C 5915.79 0.903451 1.44124 0
M  V30 58905 O 5916.97 1.17207 1.54842 0
M  V30 58906 C 5914.1 2.41252 2.4983 0
M  V30 58907 C 5913.06 3.56388 2.37006 0
M  V30 58908 C 5912.38 3.81303 3.74849 0
M  V30 58909 C 5913.68 4.8866 1.84415 0
M  V30 58910 H 5915.38 2.88723 0.792428 0
M  V30 58911 H 5912.92 1.38903 0.379739 0
M  V30 58912 H 5914.88 2.71452 3.22323 0
M  V30 58913 H 5913.6 1.51666 2.89249 0
M  V30 58914 H 5912.26 3.26372 1.66963 0
M  V30 58915 H 5911.91 2.88949 4.11725 0
M  V30 58916 H 5911.61 4.58793 3.67127 0
M  V30 58917 H 5913.13 4.13939 4.48873 0
M  V30 58918 H 5914.55 5.175 2.46711 0
M  V30 58919 H 5912.94 5.70038 1.87554 0
M  V30 58920 H 5914.01 4.78245 0.800591 0
M  V30 58921 N 5915.36 -0.404866 1.52311 0
M  V30 58922 C 5916.77 -0.743797 1.41208 0
M  V30 58923 C 5916.97 -1.94676 0.519943 0
M  V30 58924 O 5916.03 -2.52497 -0.0126529 0
M  V30 58925 C 5917.34 -0.99374 2.83805 0
M  V30 58926 C 5918.89 -1.09619 2.93177 0
M  V30 58927 C 5919.36 -1.37887 4.36751 0
M  V30 58928 N 5920.86 -1.44743 4.40004 0
M  V30 58929 C 5921.59 -1.6825 5.4816 0
M  V30 58930 N 5921.09 -1.89333 6.66427 0
M  V30 58931 N 5922.88 -1.70299 5.35681 0
M  V30 58932 H 5915.03 0.386928 2.08846 0
M  V30 58933 H 5917.29 0.110844 0.941497 0
M  V30 58934 H 5917 -0.182125 3.51228 0
M  V30 58935 H 5916.87 -1.91275 3.25106 0
M  V30 58936 H 5919.26 -1.89839 2.25931 0
M  V30 58937 H 5919.34 -0.155449 2.55327 0
M  V30 58938 H 5918.99 -0.581827 5.04556 0
M  V30 58939 H 5918.92 -2.3322 4.7214 0
M  V30 58940 H 5921.41 -1.30222 3.54754 0
M  V30 58941 H 5921.72 -2.06731 7.44635 0
M  V30 58942 H 5920.06 -1.86589 6.69485 0
M  V30 58943 H 5923.26 -1.5337 4.42262 0
M  V30 58944 H 5923.43 -1.8828 6.20044 0
M  V30 58945 N 5916.83 -1.43006 -0.662357 0
M  V30 58946 C 5918.06 -1.47771 -1.45528 0
M  V30 58947 C 5918.48 -0.0940958 -1.87864 0
M  V30 58948 O 5917.84 0.910197 -1.56796 0
M  V30 58949 C 5917.89 -2.42093 -2.67251 0
M  V30 58950 O 5916.99 -1.90088 -3.65978 0
M  V30 58951 H 5916.34 -0.500182 -0.436708 0
M  V30 58952 H 5918.87 -1.87826 -0.811333 0
M  V30 58953 H 5918.88 -2.59092 -3.15175 0
M  V30 58954 H 5917.55 -3.4261 -2.35778 0
M  V30 58955 H 5916.13 -1.82707 -3.25073 0
M  V30 58956 N 5918.31 0.899859 -1.29384 0
M  V30 58957 C 5919.28 1.9855 -1.14501 0
M  V30 58958 C 5920.28 1.60598 -0.0805296 0
M  V30 58959 O 5921.47 1.71095 -0.327455 0
M  V30 58960 C 5918.6 3.32526 -0.750935 0
M  V30 58961 H 5919.79 2.13182 -2.10935 0
M  V30 58962 H 5917.34 1.08434 -1.12568 0
M  V30 58963 H 5918.08 3.23596 0.213554 0
M  V30 58964 H 5917.86 3.61437 -1.52005 0
M  V30 58965 H 5919.35 4.12193 -0.669854 0
M  V30 58966 N 5919.79 1.11858 1.1102 0
M  V30 58967 C 5920.7 0.793758 2.20764 0
M  V30 58968 C 5921.72 -0.214935 1.72667 0
M  V30 58969 O 5922.89 -0.0500268 2.01338 0
M  V30 58970 C 5919.96 0.246496 3.45823 0
M  V30 58971 C 5919.02 1.31435 4.08685 0
M  V30 58972 C 5918.25 0.793107 5.27774 0
M  V30 58973 O 5918.47 -0.375292 5.69164 0
M  V30 58974 O 5917.41 1.55992 5.81335 0
M  V30 58975 H 5921.23 1.7102 2.5097 0
M  V30 58976 H 5918.82 0.894794 1.1964 0
M  V30 58977 H 5920.7 -0.0541151 4.21365 0
M  V30 58978 H 5919.38 -0.642592 3.17258 0
M  V30 58979 H 5918.28 1.66804 3.34854 0
M  V30 58980 H 5919.62 2.17698 4.41439 0
M  V30 58981 N 5921.27 -1.28704 0.909562 0
M  V30 58982 C 5922.68 -1.7721 0.587675 0
M  V30 58983 C 5923.03 -1.74498 -0.896924 0
M  V30 58984 O 5922.16 -1.33704 -1.70154 0
M  V30 58985 C 5922.75 -3.21791 1.06001 0
M  V30 58986 C 5921.31 -3.68035 0.789112 0
M  V30 58987 C 5920.46 -2.48572 1.22912 0
M  V30 58988 H 5923.41 -1.15227 1.09126 0
M  V30 58989 H 5923.43 -3.78396 0.399602 0
M  V30 58990 H 5922.94 -3.23732 2.14054 0
M  V30 58991 H 5921.04 -3.71559 -0.278392 0
M  V30 58992 H 5921.15 -4.58374 1.39392 0
M  V30 58993 H 5919.52 -2.46321 0.647925 0
M  V30 58994 H 5920.3 -2.53235 2.31791 0
M  V30 58995 N 5922.75 -0.673092 -1.42503 0
M  V30 58996 C 5923.68 -0.00763675 -2.33499 0
M  V30 58997 C 5924.66 0.791108 -1.50584 0
M  V30 58998 O 5925.84 0.748605 -1.79191 0
M  V30 58999 C 5922.97 0.94552 -3.34181 0
M  V30 59000 C 5921.93 0.25549 -4.27237 0
M  V30 59001 C 5921.25 1.32147 -5.18113 0
M  V30 59002 C 5922.55 -0.864435 -5.15097 0
M  V30 59003 H 5924.25 -0.767588 -2.89393 0
M  V30 59004 H 5921.79 -0.370572 -1.3915 0
M  V30 59005 H 5923.75 1.42012 -3.9675 0
M  V30 59006 H 5922.47 1.73687 -2.76587 0
M  V30 59007 H 5921.13 -0.198858 -3.6606 0
M  V30 59008 H 5920.78 2.10476 -4.56846 0
M  V30 59009 H 5920.48 0.864904 -5.812 0
M  V30 59010 H 5922 1.79703 -5.83557 0
M  V30 59011 H 5923.41 -0.471125 -5.71361 0
M  V30 59012 H 5921.81 -1.24669 -5.87007 0
M  V30 59013 H 5922.88 -1.71394 -4.53599 0
M  V30 59014 N 5924.22 1.52002 -0.416307 0
M  V30 59015 C 5925.19 2.25792 0.393803 0
M  V30 59016 C 5926.19 1.2843 0.967592 0
M  V30 59017 O 5927.38 1.52314 0.845342 0
M  V30 59018 C 5924.51 3.03366 1.55504 0
M  V30 59019 H 5925.7 2.98834 -0.252597 0
M  V30 59020 H 5923.26 1.55384 -0.168984 0
M  V30 59021 H 5923.99 2.3469 2.2381 0
M  V30 59022 H 5923.78 3.74856 1.15002 0
M  V30 59023 H 5925.27 3.59318 2.12792 0
M  V30 59024 N 5925.7 0.146958 1.56913 0
M  V30 59025 C 5926.63 -0.788847 2.19771 0
M  V30 59026 C 5927.61 -1.25708 1.14593 0
M  V30 59027 O 5928.8 -1.31465 1.42936 0
M  V30 59028 C 5925.93 -2.02815 2.81928 0
M  V30 59029 C 5924.88 -1.69669 3.92933 0
M  V30 59030 C 5924.21 -3.00862 4.42025 0
M  V30 59031 C 5925.51 -0.943378 5.1371 0
M  V30 59032 H 5927.2 -0.264972 2.98225 0
M  V30 59033 H 5924.75 -0.126007 1.43448 0
M  V30 59034 H 5926.7 -2.68762 3.24569 0
M  V30 59035 H 5925.43 -2.57574 2.00806 0
M  V30 59036 H 5924.08 -1.061 3.50911 0
M  V30 59037 H 5923.73 -3.53612 3.57725 0
M  V30 59038 H 5923.43 -2.79447 5.16897 0
M  V30 59039 H 5924.96 -3.6788 4.87336 0
M  V30 59040 H 5926.37 -1.50494 5.53195 0
M  V30 59041 H 5924.77 -0.829178 5.94344 0
M  V30 59042 H 5925.84 0.0648933 4.84857 0
M  V30 59043 N 5927.18 -1.57089 -0.126826 0
M  V30 59044 C 5928.43 -1.84074 -0.834332 0
M  V30 59045 C 5928.75 -0.730959 -1.80782 0
M  V30 59046 O 5928.02 0.245723 -1.94353 0
M  V30 59047 H 5926.6 -0.679134 -0.311104 0
M  V30 59048 H 5929.26 -1.94554 -0.116015 0
M  V30 59049 H 5928.36 -2.79719 -1.38433 0
M  V30 59050 N 5928.66 0.396782 -1.52523 0
M  V30 59051 C 5930.08 0.736297 -1.41601 0
M  V30 59052 C 5930.28 1.94398 -0.53026 0
M  V30 59053 O 5929.33 2.525 -0.000737799 0
M  V30 59054 C 5930.64 0.978675 -2.84328 0
M  V30 59055 C 5932.19 1.08063 -2.93754 0
M  V30 59056 C 5932.67 1.35569 -4.37476 0
M  V30 59057 N 5934.16 1.42407 -4.40766 0
M  V30 59058 C 5934.89 1.6534 -5.49045 0
M  V30 59059 N 5934.39 1.85796 -6.67422 0
M  V30 59060 N 5936.18 1.67456 -5.36577 0
M  V30 59061 H 5928.33 -0.397999 -2.08638 0
M  V30 59062 H 5930.6 -0.115836 -0.940896 0
M  V30 59063 H 5930.3 0.163496 -3.5132 0
M  V30 59064 H 5930.18 1.89548 -3.26115 0
M  V30 59065 H 5932.56 1.88638 -2.26935 0
M  V30 59066 H 5932.64 0.141907 -2.55406 0
M  V30 59067 H 5932.29 0.555061 -5.04858 0
M  V30 59068 H 5932.22 2.30713 -4.7337 0
M  V30 59069 H 5934.71 1.28339 -3.5544 0
M  V30 59070 H 5935.02 2.02779 -7.45721 0
M  V30 59071 H 5933.37 1.83036 -6.70465 0
M  V30 59072 H 5936.56 1.51022 -4.43069 0
M  V30 59073 H 5936.73 1.84989 -6.21034 0
M  V30 59074 N 5930.14 1.43355 0.654764 0
M  V30 59075 C 5931.38 1.46101 1.41513 0
M  V30 59076 C 5931.74 0.0833764 1.92219 0
M  V30 59077 O 5931.03 -0.897746 1.69266 0
M  V30 59078 C 5931.23 2.43709 2.61421 0
M  V30 59079 C 5931.05 3.90827 2.2245 0
M  V30 59080 C 5929.82 4.59206 2.1085 0
M  V30 59081 C 5932.02 4.80704 1.82833 0
M  V30 59082 N 5930 5.91256 1.65194 0
M  V30 59083 C 5931.38 6.02016 1.48247 0
M  V30 59084 C 5933.43 4.67978 1.70003 0
M  V30 59085 C 5932.13 7.12015 1.02117 0
M  V30 59086 C 5934.16 5.77979 1.25277 0
M  V30 59087 C 5933.52 6.98415 0.916271 0
M  V30 59088 H 5929.62 0.58974 0.513547 0
M  V30 59089 H 5932.2 1.79523 0.753618 0
M  V30 59090 H 5930.38 2.12316 3.25233 0
M  V30 59091 H 5932.11 2.36903 3.28114 0
M  V30 59092 H 5928.86 4.1369 2.30559 0
M  V30 59093 H 5929.29 6.61348 1.44732 0
M  V30 59094 H 5933.93 3.75324 1.94658 0
M  V30 59095 H 5931.65 8.04498 0.762098 0
M  V30 59096 H 5935.23 5.70151 1.15841 0
M  V30 59097 H 5934.11 7.82086 0.57546 0
M  V30 59098 N 5931.62 -0.892985 1.2986 0
M  V30 59099 C 5932.57 -1.98494 1.1218 0
M  V30 59100 C 5933.55 -1.60852 0.0392635 0
M  V30 59101 O 5934.74 -1.75054 0.261713 0
M  V30 59102 C 5931.87 -3.33671 0.807377 0
M  V30 59103 C 5930.96 -3.77651 1.92978 0
M  V30 59104 N 5931.35 -3.93803 3.17416 0
M  V30 59105 C 5929.65 -4.06982 1.82433 0
M  V30 59106 C 5930.35 -4.30975 3.90686 0
M  V30 59107 N 5929.32 -4.40392 3.18678 0
M  V30 59108 H 5933.12 -2.0906 2.06569 0
M  V30 59109 H 5930.64 -1.08226 1.21082 0
M  V30 59110 H 5932.64 -4.11615 0.661748 0
M  V30 59111 H 5931.3 -3.24446 -0.128532 0
M  V30 59112 H 5932.31 -3.79152 3.52795 0
M  V30 59113 H 5928.98 -4.06276 0.961579 0
M  V30 59114 H 5930.37 -4.51261 4.97809 0
M  V30 59115 N 5933.09 -1.12445 -1.10425 0
M  V30 59116 C 5934.51 -0.860529 -1.34414 0
M  V30 59117 C 5934.71 0.509325 -1.94957 0
M  V30 59118 O 5933.77 1.25799 -2.18931 0
M  V30 59119 C 5935.08 -1.97702 -2.26571 0
M  V30 59120 C 5936.63 -2.00792 -2.40108 0
M  V30 59121 C 5937.1 -3.11675 -3.35594 0
M  V30 59122 N 5938.59 -3.11118 -3.43162 0
M  V30 59123 C 5939.33 -3.93554 -4.17016 0
M  V30 59124 N 5938.82 -4.8598 -4.93756 0
M  V30 59125 N 5940.62 -3.81691 -4.12636 0
M  V30 59126 H 5932.77 -2.00709 -0.694965 0
M  V30 59127 H 5935.03 -0.873411 -0.368588 0
M  V30 59128 H 5934.74 -2.96412 -1.89295 0
M  V30 59129 H 5934.61 -1.88228 -3.26879 0
M  V30 59130 H 5937 -1.02702 -2.76652 0
M  V30 59131 H 5937.08 -2.1434 -1.39614 0
M  V30 59132 H 5936.72 -4.09997 -2.99774 0
M  V30 59133 H 5936.65 -2.95365 -4.35967 0
M  V30 59134 H 5939.14 -2.4416 -2.88434 0
M  V30 59135 H 5939.46 -5.45393 -5.4751 0
M  V30 59136 H 5937.8 -4.89994 -4.9288 0
M  V30 59137 H 5940.99 -3.0882 -3.51778 0
M  V30 59138 H 5941.17 -4.46168 -4.69934 0
M  V30 59139 N 5934.57 1.2822 -0.916375 0
M  V30 59140 C 5935.82 1.95151 -0.551707 0
M  V30 59141 C 5936.15 1.71941 0.902768 0
M  V30 59142 O 5935.43 1.0419 1.6424 0
M  V30 59143 C 5935.71 3.49562 -0.86477 0
M  V30 59144 C 5935.56 3.82163 -2.37217 0
M  V30 59145 C 5936.88 4.38602 -0.362748 0
M  V30 59146 H 5934 0.708801 -0.201915 0
M  V30 59147 H 5936.64 1.51541 -1.1461 0
M  V30 59148 H 5934.79 3.86839 -0.358918 0
M  V30 59149 H 5936.46 3.54741 -2.94884 0
M  V30 59150 H 5934.71 3.29114 -2.82607 0
M  V30 59151 H 5935.38 4.89999 -2.54176 0
M  V30 59152 H 5937.85 4.08413 -0.796126 0
M  V30 59153 H 5936.73 5.4549 -0.610852 0
M  V30 59154 H 5936.99 4.35914 0.736983 0
M  V30 59155 N 5936.05 0.68064 1.42144 0
M  V30 59156 C 5937.27 0.212365 2.0631 0
M  V30 59157 C 5937.7 -1.12397 1.50826 0
M  V30 59158 O 5937.06 -1.70035 0.629111 0
M  V30 59159 C 5937.11 0.164282 3.60226 0
M  V30 59160 O 5936.21 -0.86544 4.03217 0
M  V30 59161 H 5935.55 0.107474 0.655244 0
M  V30 59162 H 5938.08 0.931297 1.82176 0
M  V30 59163 H 5938.09 -0.00989876 4.07999 0
M  V30 59164 H 5936.77 1.13966 3.99981 0
M  V30 59165 H 5935.34 -0.661826 3.6698 0
M  V30 59166 N 5937.53 -1.51779 0.424362 0
M  V30 59167 C 5938.49 -2.25997 -0.381823 0
M  V30 59168 C 5939.49 -1.28941 -0.960767 0
M  V30 59169 O 5940.68 -1.5276 -0.837253 0
M  V30 59170 C 5937.81 -3.04187 -1.53893 0
M  V30 59171 H 5939.01 -2.98696 0.268441 0
M  V30 59172 H 5936.56 -1.55292 0.177222 0
M  V30 59173 H 5937.29 -2.35874 -2.22562 0
M  V30 59174 H 5937.08 -3.75461 -1.13012 0
M  V30 59175 H 5938.57 -3.60441 -2.10884 0
M  V30 59176 N 5939.01 -0.155278 -1.56833 0
M  V30 59177 C 5939.92 0.794102 -2.20751 0
M  V30 59178 C 5940.93 1.26542 -1.19428 0
M  V30 59179 O 5942.11 1.32089 -1.52034 0
M  V30 59180 C 5939.17 2.01251 -2.8231 0
M  V30 59181 C 5938.23 1.58962 -3.98785 0
M  V30 59182 C 5937.47 2.74995 -4.57398 0
M  V30 59183 O 5937.69 3.91434 -4.14892 0
M  V30 59184 O 5936.62 2.49991 -5.47529 0
M  V30 59185 H 5940.45 0.279958 -3.02407 0
M  V30 59186 H 5938.03 0.0721523 -1.49226 0
M  V30 59187 H 5939.92 2.7254 -3.21403 0
M  V30 59188 H 5938.59 2.51602 -2.03662 0
M  V30 59189 H 5937.5 0.84672 -3.64392 0
M  V30 59190 H 5938.83 1.13319 -4.78978 0
M  V30 59191 N 5940.48 1.57154 0.118493 0
M  V30 59192 C 5941.9 1.5246 0.472042 0
M  V30 59193 C 5942.1 0.868353 1.81829 0
M  V30 59194 O 5941.16 0.450905 2.48441 0
M  V30 59195 C 5942.47 2.97221 0.45607 0
M  V30 59196 C 5944.02 3.08314 0.539586 0
M  V30 59197 C 5944.49 4.54637 0.553998 0
M  V30 59198 N 5945.98 4.59093 0.615422 0
M  V30 59199 C 5946.72 5.69726 0.648029 0
M  V30 59200 N 5946.21 6.89854 0.638251 0
M  V30 59201 N 5948.01 5.57836 0.691076 0
M  V30 59202 H 5940.16 1.98199 -0.763599 0
M  V30 59203 H 5942.42 0.905169 -0.281731 0
M  V30 59204 H 5942.13 3.48606 -0.465487 0
M  V30 59205 H 5942 3.54685 1.28369 0
M  V30 59206 H 5944.39 2.56931 1.45156 0
M  V30 59207 H 5944.47 2.53844 -0.315727 0
M  V30 59208 H 5944.11 5.06665 -0.353937 0
M  V30 59209 H 5944.04 5.06919 1.4262 0
M  V30 59210 H 5946.53 3.72626 0.629122 0
M  V30 59211 H 5946.85 7.69927 0.665769 0
M  V30 59212 H 5945.19 6.92356 0.605668 0
M  V30 59213 H 5948.38 4.62896 0.696082 0
M  V30 59214 H 5948.56 6.44065 0.71302 0
M  V30 59215 N 5941.96 -0.388688 1.52732 0
M  V30 59216 C 5942.89 -1.48127 1.80501 0
M  V30 59217 C 5943.87 -1.56897 0.657063 0
M  V30 59218 O 5945.06 -1.7184 0.904682 0
M  V30 59219 C 5942.19 -2.85735 1.97415 0
M  V30 59220 C 5941.14 -2.91804 3.13104 0
M  V30 59221 C 5940.47 -4.31865 3.15273 0
M  V30 59222 C 5941.77 -2.61422 4.52168 0
M  V30 59223 H 5943.46 -1.25138 2.71994 0
M  V30 59224 H 5941.01 -0.600557 1.30879 0
M  V30 59225 H 5942.96 -3.62174 2.15425 0
M  V30 59226 H 5941.69 -3.10062 1.02612 0
M  V30 59227 H 5940.34 -2.17813 2.94878 0
M  V30 59228 H 5939.99 -4.53232 2.18151 0
M  V30 59229 H 5939.69 -4.36846 3.92988 0
M  V30 59230 H 5941.22 -5.1021 3.35438 0
M  V30 59231 H 5942.63 -3.27579 4.70494 0
M  V30 59232 H 5941.03 -2.77753 5.31952 0
M  V30 59233 H 5942.1 -1.56762 4.58861 0
M  V30 59234 N 5943.44 -1.437 -0.647152 0
M  V30 59235 C 5944.39 -1.49605 -1.78104 0
M  V30 59236 C 5945.38 -0.369105 -1.6533 0
M  V30 59237 O 5946.59 -0.543363 -1.71603 0
M  V30 59238 H 5942.96 -0.469131 -0.587725 0
M  V30 59239 H 5944.93 -2.4507 -1.70245 0
M  V30 59240 C 5943.68 -1.44203 -3.16387 0
M  V30 59241 H 5943.01 -2.30228 -3.26857 0
M  V30 59242 H 5944.45 -1.52396 -3.95666 0
M  V30 59243 C 5942.91 -0.160478 -3.36518 0
M  V30 59244 O 5943.44 0.775791 -3.94137 0
M  V30 59245 N 5941.64 -0.0687257 -2.90519 0
M  V30 59246 H 5941.19 -0.831448 -2.43813 0
M  V30 59247 H 5941.15 0.788033 -3.04364 0
M  V30 59248 N 5944.92 0.886085 -1.30331 0
M  V30 59249 C 5945.87 1.9917 -1.16619 0
M  V30 59250 C 5946.84 1.66006 -0.0559786 0
M  V30 59251 O 5948.02 1.89457 -0.225964 0
M  V30 59252 C 5945.16 3.34139 -0.862843 0
M  V30 59253 C 5944.27 3.80001 -2.05483 0
M  V30 59254 C 5943.41 5.03611 -1.68966 0
M  V30 59255 C 5942.45 5.41878 -2.84666 0
M  V30 59256 N 5941.58 6.5667 -2.48454 0
M  V30 59257 H 5946.42 2.10231 -2.11204 0
M  V30 59258 H 5943.96 1.02938 -1.05082 0
M  V30 59259 H 5945.92 4.11824 -0.667592 0
M  V30 59260 H 5944.55 3.22767 0.0461326 0
M  V30 59261 H 5943.6 2.98235 -2.36136 0
M  V30 59262 H 5944.91 4.04302 -2.92133 0
M  V30 59263 H 5944.07 5.88918 -1.4581 0
M  V30 59264 H 5942.81 4.81179 -0.794843 0
M  V30 59265 H 5941.81 4.55098 -3.0849 0
M  V30 59266 H 5943.04 5.66283 -3.74833 0
M  V30 59267 H 5940.98 6.35816 -1.61476 0
M  V30 59268 H 5940.9 6.80834 -3.28635 0
M  V30 59269 H 5942.17 7.45211 -2.28651 0
M  V30 59270 N 5946.4 1.13029 1.09828 0
M  V30 59271 C 5947.67 0.80073 1.78459 0
M  V30 59272 C 5948.05 -0.708439 1.98858 0
M  V30 59273 O 5947.4 -1.6443 1.58666 0
M  V30 59274 C 5947.61 1.58295 3.11036 0
M  V30 59275 C 5948.96 1.77298 3.85811 0
M  V30 59276 O 5949.98 1.54859 3.20776 0
M  V30 59277 O 5948.84 2.1471 5.02555 0
M  V30 59278 H 5945.94 0.291922 0.773764 0
M  V30 59279 H 5948.48 1.23468 1.16421 0
M  V30 59280 H 5947.25 2.60877 2.91648 0
M  V30 59281 H 5946.88 1.14367 3.80797 0
M  V30 59282 N 5947.87 -1.27732 0.923162 0
M  V30 59283 C 5949.12 -1.94183 0.560109 0
M  V30 59284 C 5949.44 -1.72948 -0.900779 0
M  V30 59285 O 5948.71 -1.07459 -1.63797 0
M  V30 59286 H 5947.29 -0.718561 0.204154 0
M  V30 59287 H 5949.96 -1.55531 1.17457 0
M  V30 59288 H 5949.05 -3.02642 0.76253 0
M  V30 59289 N 5949.35 -0.688168 -1.41782 0
M  V30 59290 C 5950.58 -0.223303 -2.06194 0
M  V30 59291 C 5951 1.11595 -1.5142 0
M  V30 59292 O 5950.36 1.69699 -0.638119 0
M  V30 59293 C 5950.41 -0.183384 -3.60133 0
M  V30 59294 O 5949.51 0.844044 -4.0367 0
M  V30 59295 H 5948.85 -0.110948 -0.654665 0
M  V30 59296 H 5951.38 -0.940945 -1.81679 0
M  V30 59297 H 5951.39 -0.0117386 -4.07998 0
M  V30 59298 H 5950.07 -1.16086 -3.99371 0
M  V30 59299 H 5948.65 0.642355 -3.67326 0
M  V30 59300 N 5950.83 1.51552 -0.432405 0
M  V30 59301 C 5951.76 2.30515 0.372161 0
M  V30 59302 C 5952.74 1.35715 1.02545 0
M  V30 59303 O 5953.93 1.64633 1.03003 0
M  V30 59304 C 5951.06 3.14358 1.47635 0
M  V30 59305 C 5950.01 4.17396 0.946827 0
M  V30 59306 C 5949.34 4.89729 2.14639 0
M  V30 59307 C 5950.64 5.22298 -0.0153213 0
M  V30 59308 H 5952.33 2.98023 -0.286784 0
M  V30 59309 H 5949.88 1.43324 -0.139366 0
M  V30 59310 H 5951.83 3.68376 2.04638 0
M  V30 59311 H 5950.55 2.44662 2.16352 0
M  V30 59312 H 5949.21 3.64422 0.399046 0
M  V30 59313 H 5948.86 4.1654 2.81964 0
M  V30 59314 H 5948.56 5.594 1.79849 0
M  V30 59315 H 5950.08 5.46568 2.72205 0
M  V30 59316 H 5951.5 5.71417 0.464246 0
M  V30 59317 H 5949.9 5.99467 -0.27555 0
M  V30 59318 H 5950.97 4.75432 -0.953524 0
M  V30 59319 N 5952.31 0.163593 1.56749 0
M  V30 59320 C 5953.72 -0.192661 1.58433 0
M  V30 59321 C 5953.92 -1.63434 1.17862 0
M  V30 59322 O 5952.98 -2.36422 0.886623 0
M  V30 59323 C 5954.29 0.0811483 3.0059 0
M  V30 59324 C 5955.84 0.0187478 3.12994 0
M  V30 59325 C 5956.32 0.265444 4.5723 0
M  V30 59326 N 5957.81 0.212949 4.6271 0
M  V30 59327 C 5958.54 0.378111 5.72152 0
M  V30 59328 N 5958.04 0.601905 6.9018 0
M  V30 59329 N 5959.83 0.314554 5.61219 0
M  V30 59330 H 5951.98 1.10473 1.8141 0
M  V30 59331 H 5954.25 0.438599 0.840437 0
M  V30 59332 H 5953.95 1.07955 3.34722 0
M  V30 59333 H 5953.83 -0.630757 3.71889 0
M  V30 59334 H 5956.21 -0.970226 2.78694 0
M  V30 59335 H 5956.29 0.763244 2.44148 0
M  V30 59336 H 5955.94 1.25159 4.92237 0
M  V30 59337 H 5955.87 -0.499572 5.24225 0
M  V30 59338 H 5958.36 0.0453082 3.77873 0
M  V30 59339 H 5958.67 0.71759 7.69461 0
M  V30 59340 H 5957.02 0.638427 6.92061 0
M  V30 59341 H 5960.21 0.140361 4.6789 0
M  V30 59342 H 5960.38 0.446699 6.46459 0
M  V30 59343 N 5953.79 -1.57215 -0.110157 0
M  V30 59344 C 5955.03 -1.85589 -0.817584 0
M  V30 59345 C 5955.37 -0.750599 -1.79108 0
M  V30 59346 O 5954.64 0.242796 -1.92979 0
M  V30 59347 C 5954.92 -3.24571 -1.55967 0
M  V30 59348 C 5954.78 -4.4571 -0.605182 0
M  V30 59349 C 5956.1 -3.61242 -2.5138 0
M  V30 59350 H 5953.21 -0.675047 -0.29577 0
M  V30 59351 H 5955.86 -1.89825 -0.0815874 0
M  V30 59352 H 5954.01 -3.21091 -2.18707 0
M  V30 59353 H 5955.68 -4.61298 0.0140515 0
M  V30 59354 H 5953.92 -4.33721 0.0826169 0
M  V30 59355 H 5954.59 -5.39647 -1.16125 0
M  V30 59356 H 5957.07 -3.6557 -1.98741 0
M  V30 59357 H 5955.94 -4.59449 -3.0033 0
M  V30 59358 H 5956.21 -2.89128 -3.34451 0
M  V30 59359 N 5955.26 0.380583 -1.52936 0
M  V30 59360 C 5956.21 1.48578 -1.78962 0
M  V30 59361 C 5957.21 1.561 -0.657956 0
M  V30 59362 O 5958.41 1.59166 -0.840606 0
M  V30 59363 H 5954.79 0.494668 -0.566399 0
M  V30 59364 H 5956.76 1.23824 -2.71496 0
M  V30 59365 C 5955.51 2.85608 -1.98301 0
M  V30 59366 H 5954.83 2.80573 -2.84814 0
M  V30 59367 H 5956.27 3.62156 -2.20497 0
M  V30 59368 C 5954.73 3.28265 -0.75788 0
M  V30 59369 O 5955.26 4.01654 0.0606595 0
M  V30 59370 N 5953.47 2.84639 -0.585586 0
M  V30 59371 H 5953.01 2.25083 -1.25282 0
M  V30 59372 H 5952.97 3.13537 0.232761 0
M  V30 59373 N 5956.74 1.44041 0.639523 0
M  V30 59374 C 5957.99 1.46093 1.39647 0
M  V30 59375 C 5958.31 0.0915287 1.94785 0
M  V30 59376 O 5957.58 -0.875035 1.75271 0
M  V30 59377 H 5956.16 0.537919 0.518316 0
M  V30 59378 H 5958.82 1.79754 0.753302 0
M  V30 59379 H 5957.92 2.18148 2.23199 0
M  V30 59380 N 5958.22 -0.879161 1.308 0
M  V30 59381 C 5959.47 -1.62823 1.1972 0
M  V30 59382 C 5959.79 -1.9343 -0.246963 0
M  V30 59383 O 5959.06 -1.57482 -1.16517 0
M  V30 59384 H 5957.64 -0.603592 0.440098 0
M  V30 59385 H 5960.3 -1.05303 1.64004 0
M  V30 59386 H 5959.4 -2.57585 1.76228 0
M  V30 59387 N 5959.7 -1.1361 -1.09227 0
M  V30 59388 C 5961.12 -0.874737 -1.33494 0
M  V30 59389 C 5961.32 0.488619 -1.95486 0
M  V30 59390 O 5960.37 1.2347 -2.20253 0
M  V30 59391 C 5961.68 -2.00094 -2.24461 0
M  V30 59392 C 5963.23 -2.03327 -2.37965 0
M  V30 59393 C 5963.71 -3.15216 -3.32269 0
M  V30 59394 N 5965.2 -3.1474 -3.39843 0
M  V30 59395 C 5965.93 -3.97955 -4.12819 0
M  V30 59396 N 5965.43 -4.9119 -4.88574 0
M  V30 59397 N 5967.22 -3.86046 -4.08564 0
M  V30 59398 H 5959.37 -2.01435 -0.673638 0
M  V30 59399 H 5961.64 -0.877271 -0.359304 0
M  V30 59400 H 5961.34 -2.98403 -1.86141 0
M  V30 59401 H 5961.22 -1.91685 -3.24864 0
M  V30 59402 H 5963.6 -1.0563 -2.75547 0
M  V30 59403 H 5963.68 -2.15809 -1.37333 0
M  V30 59404 H 5963.33 -4.13154 -2.95409 0
M  V30 59405 H 5963.26 -2.99972 -4.3281 0
M  V30 59406 H 5965.75 -2.47206 -2.85828 0
M  V30 59407 H 5966.06 -5.51169 -5.41694 0
M  V30 59408 H 5964.41 -4.95194 -4.87656 0
M  V30 59409 H 5967.6 -3.12534 -3.48483 0
M  V30 59410 H 5967.77 -4.51127 -4.65176 0
M  V30 59411 N 5961.18 1.27241 -0.929923 0
M  V30 59412 C 5962.59 1.76252 -0.615794 0
M  V30 59413 C 5962.94 1.75903 0.86905 0
M  V30 59414 O 5962.06 1.36394 1.68005 0
M  V30 59415 C 5962.66 3.20064 -1.11107 0
M  V30 59416 C 5961.22 3.66733 -0.847564 0
M  V30 59417 C 5960.37 2.46585 -1.26851 0
M  V30 59418 H 5963.32 1.13476 -1.10946 0
M  V30 59419 H 5963.34 3.77712 -0.459751 0
M  V30 59420 H 5962.85 3.20286 -2.19177 0
M  V30 59421 H 5960.95 3.71954 0.219245 0
M  V30 59422 H 5961.06 4.56098 -1.46666 0
M  V30 59423 H 5959.43 2.45259 -0.68703 0
M  V30 59424 H 5960.21 2.49515 -2.3579 0
M  V30 59425 N 5962.66 0.695678 1.41415 0
M  V30 59426 C 5963.9 0.227025 2.01525 0
M  V30 59427 C 5964.23 -1.17035 1.54972 0
M  V30 59428 O 5963.51 -1.78996 0.760958 0
M  V30 59429 C 5963.79 0.284831 3.58972 0
M  V30 59430 C 5963.65 1.71915 4.1565 0
M  V30 59431 C 5964.96 -0.3553 4.38663 0
M  V30 59432 H 5962.08 0.0839682 0.732201 0
M  V30 59433 H 5964.73 0.884418 1.68161 0
M  V30 59434 H 5962.88 -0.274904 3.87526 0
M  V30 59435 H 5964.55 2.33274 3.97971 0
M  V30 59436 H 5962.79 2.25327 3.70689 0
M  V30 59437 H 5963.46 1.71113 5.24809 0
M  V30 59438 H 5965.94 0.121402 4.15923 0
M  V30 59439 H 5964.81 -0.284311 5.48163 0
M  V30 59440 H 5965.07 -1.43602 4.18128 0
M  V30 59441 N 5964.13 -1.51321 0.440437 0
M  V30 59442 C 5965.06 -2.30709 -0.359931 0
M  V30 59443 C 5966.04 -1.36257 -1.01823 0
M  V30 59444 O 5967.23 -1.65177 -1.02128 0
M  V30 59445 C 5964.36 -3.15137 -1.45966 0
M  V30 59446 C 5963.31 -4.17892 -0.924678 0
M  V30 59447 C 5962.64 -4.9086 -2.12039 0
M  V30 59448 C 5963.94 -5.22282 0.0430198 0
M  V30 59449 H 5965.63 -2.97867 0.302585 0
M  V30 59450 H 5963.18 -1.43248 0.146965 0
M  V30 59451 H 5965.13 -3.69456 -2.02682 0
M  V30 59452 H 5963.86 -2.45806 -2.15051 0
M  V30 59453 H 5962.52 -3.64628 -0.379714 0
M  V30 59454 H 5962.16 -4.18029 -2.79751 0
M  V30 59455 H 5961.86 -5.60346 -1.7688 0
M  V30 59456 H 5963.39 -5.48004 -2.69302 0
M  V30 59457 H 5964.8 -5.71655 -0.433936 0
M  V30 59458 H 5963.2 -5.99312 0.307337 0
M  V30 59459 H 5964.27 -4.7492 0.978724 0
M  V30 59460 N 5965.61 -0.171903 -1.5666 0
M  V30 59461 C 5967.03 0.184257 -1.58533 0
M  V30 59462 C 5967.23 1.62807 -1.18727 0
M  V30 59463 O 5966.28 2.35948 -0.899149 0
M  V30 59464 C 5967.6 -0.0970882 -3.00543 0
M  V30 59465 C 5969.14 -0.0353464 -3.1298 0
M  V30 59466 C 5969.62 -0.289689 -4.57083 0
M  V30 59467 N 5971.11 -0.237485 -4.62591 0
M  V30 59468 C 5971.85 -0.408448 -5.71943 0
M  V30 59469 N 5971.34 -0.638499 -6.89851 0
M  V30 59470 N 5973.13 -0.344312 -5.61044 0
M  V30 59471 H 5965.29 -1.11434 -1.80821 0
M  V30 59472 H 5967.55 -0.44305 -0.8381 0
M  V30 59473 H 5967.25 -1.09729 -3.34144 0
M  V30 59474 H 5967.13 0.611026 -3.72218 0
M  V30 59475 H 5969.52 0.955433 -2.79205 0
M  V30 59476 H 5969.6 -0.776181 -2.4374 0
M  V30 59477 H 5969.24 -1.27768 -4.91567 0
M  V30 59478 H 5969.17 0.471764 -5.24483 0
M  V30 59479 H 5971.66 -0.0653471 -3.77843 0
M  V30 59480 H 5971.97 -0.758386 -7.6907 0
M  V30 59481 H 5970.32 -0.67512 -6.91713 0
M  V30 59482 H 5973.51 -0.165172 -4.67808 0
M  V30 59483 H 5973.68 -0.480976 -6.46213 0
M  V30 59484 N 5967.09 1.57271 0.101818 0
M  V30 59485 C 5968.31 1.90322 0.824148 0
M  V30 59486 C 5968.74 0.76553 1.71817 0
M  V30 59487 O 5968.1 -0.283212 1.79074 0
M  V30 59488 C 5968.15 3.22207 1.61911 0
M  V30 59489 O 5967.25 3.09323 2.72751 0
M  V30 59490 H 5966.59 0.62405 0.226842 0
M  V30 59491 H 5969.12 2.04447 0.0790595 0
M  V30 59492 H 5969.13 3.5535 2.00475 0
M  V30 59493 H 5967.81 4.04599 0.962935 0
M  V30 59494 H 5966.38 2.87681 2.37264 0
M  V30 59495 N 5968.57 -0.372467 1.53135 0
M  V30 59496 C 5969.79 -1.1411 1.73187 0
M  V30 59497 C 5970.22 -1.82474 0.456617 0
M  V30 59498 O 5969.58 -1.71471 -0.588859 0
M  V30 59499 C 5969.62 -2.15231 2.89323 0
M  V30 59500 O 5968.73 -3.22169 2.57451 0
M  V30 59501 H 5968.07 -0.331422 0.575374 0
M  V30 59502 H 5970.6 -0.431699 1.99994 0
M  V30 59503 H 5970.61 -2.58949 3.15292 0
M  V30 59504 H 5969.28 -1.64864 3.81828 0
M  V30 59505 H 5967.86 -2.83472 2.42277 0
M  V30 59506 N 5970.05 -1.44378 -0.631875 0
M  V30 59507 C 5971.46 -1.41885 -1.21348 0
M  V30 59508 C 5971.81 -0.133819 -1.95743 0
M  V30 59509 O 5970.93 0.765848 -2.02395 0
M  V30 59510 C 5971.53 -2.57035 -2.20723 0
M  V30 59511 C 5970.09 -2.57739 -2.74313 0
M  V30 59512 C 5969.23 -2.33678 -1.49298 0
M  V30 59513 H 5972.18 -1.5297 -0.422596 0
M  V30 59514 H 5972.21 -2.29746 -3.0331 0
M  V30 59515 H 5971.72 -3.50547 -1.66548 0
M  V30 59516 H 5969.82 -1.68167 -3.32492 0
M  V30 59517 H 5969.93 -3.56201 -3.20402 0
M  V30 59518 H 5968.3 -1.82756 -1.77404 0
M  V30 59519 H 5969.08 -3.29303 -0.970279 0
M  V30 59520 N 5971.52 0.872212 -1.31264 0
M  V30 59521 C 5972.77 1.62186 -1.20582 0
M  V30 59522 C 5973.09 1.93558 0.236701 0
M  V30 59523 O 5972.36 1.58098 1.1568 0
M  V30 59524 H 5970.94 0.601249 -0.443293 0
M  V30 59525 H 5973.61 1.04432 -1.6456 0
M  V30 59526 H 5972.7 2.56647 -1.77591 0
M  V30 59527 N 5973 1.14188 1.08623 0
M  V30 59528 C 5973.95 0.826794 2.15483 0
M  V30 59529 C 5974.92 -0.214711 1.64706 0
M  V30 59530 O 5976.1 -0.0851239 1.9061 0
M  V30 59531 C 5973.24 0.308009 3.43723 0
M  V30 59532 C 5972.36 1.40955 4.08357 0
M  V30 59533 C 5971.49 0.848244 5.24384 0
M  V30 59534 C 5970.53 1.92762 5.80956 0
M  V30 59535 N 5969.67 1.38365 6.88331 0
M  V30 59536 H 5974.51 1.74207 2.41777 0
M  V30 59537 H 5972.05 0.869448 1.18655 0
M  V30 59538 H 5974 -0.0109683 4.17199 0
M  V30 59539 H 5972.63 -0.570376 3.17721 0
M  V30 59540 H 5971.69 1.84497 3.32664 0
M  V30 59541 H 5973 2.225 4.46425 0
M  V30 59542 H 5972.15 0.481038 6.0479 0
M  V30 59543 H 5970.89 0.00180928 4.877 0
M  V30 59544 H 5969.9 2.3038 4.99205 0
M  V30 59545 H 5971.12 2.7776 6.19698 0
M  V30 59546 H 5969.07 0.559354 6.53611 0
M  V30 59547 H 5968.98 2.13549 7.25212 0
M  V30 59548 H 5970.25 1.04427 7.72473 0
M  V30 59549 N 5974.48 -1.26746 0.936658 0
M  V30 59550 C 5975.71 -1.98595 0.597887 0
M  V30 59551 C 5976.13 -1.69327 -0.81914 0
M  V30 59552 O 5975.49 -0.938688 -1.55108 0
M  V30 59553 C 5975.54 -3.50653 0.84113 0
M  V30 59554 O 5974.64 -4.12304 -0.0889589 0
M  V30 59555 H 5973.98 -0.623189 0.229197 0
M  V30 59556 H 5976.51 -1.61327 1.25836 0
M  V30 59557 H 5976.52 -4.00855 0.760234 0
M  V30 59558 H 5975.2 -3.71287 1.87401 0
M  V30 59559 H 5973.77 -3.72876 0.0426115 0
M  V30 59560 N 5975.96 -0.703167 -1.41044 0
M  V30 59561 C 5976.89 -0.00340049 -2.292 0
M  V30 59562 C 5977.9 0.736597 -1.45183 0
M  V30 59563 O 5979.09 0.586038 -1.68606 0
M  V30 59564 C 5976.19 1.01936 -3.23206 0
M  V30 59565 C 5975.37 0.347438 -4.36018 0
M  V30 59566 C 5974.42 1.27386 -5.10548 0
M  V30 59567 O 5973.45 0.76336 -5.64058 0
M  V30 59568 N 5974.65 2.60577 -5.18729 0
M  V30 59569 H 5977.42 -0.760281 -2.89896 0
M  V30 59570 H 5974.98 -0.5498 -1.52279 0
M  V30 59571 H 5976.97 1.64102 -3.69936 0
M  V30 59572 H 5975.54 1.67771 -2.63764 0
M  V30 59573 H 5974.76 -0.454225 -3.91574 0
M  V30 59574 H 5976.05 -0.119474 -5.0866 0
M  V30 59575 H 5975.45 3.04563 -4.76716 0
M  V30 59576 H 5974 3.17919 -5.69009 0
M  V30 59577 N 5977.44 1.51085 -0.448455 0
M  V30 59578 C 5978.68 2.01778 0.114045 0
M  V30 59579 C 5979.01 1.33395 1.42235 0
M  V30 59580 O 5978.28 0.472005 1.90129 0
M  V30 59581 H 5976.86 0.745635 0.0451361 0
M  V30 59582 H 5979.52 1.85637 -0.593705 0
M  V30 59583 H 5978.61 3.10824 0.281941 0
M  V30 59584 N 5978.91 0.180209 1.56566 0
M  V30 59585 C 5979.84 -0.742053 2.21395 0
M  V30 59586 C 5980.83 -1.23249 1.17234 0
M  V30 59587 O 5982.01 -1.28403 1.45692 0
M  V30 59588 C 5979.14 -1.96789 2.86167 0
M  V30 59589 C 5978.09 -1.61296 3.96444 0
M  V30 59590 C 5977.42 -2.91418 4.48307 0
M  V30 59591 C 5978.72 -0.834201 5.15595 0
M  V30 59592 H 5980.41 -0.201654 2.9872 0
M  V30 59593 H 5977.96 -0.0955511 1.43683 0
M  V30 59594 H 5979.91 -2.61817 3.30197 0
M  V30 59595 H 5978.64 -2.53257 2.06224 0
M  V30 59596 H 5977.3 -0.986327 3.53082 0
M  V30 59597 H 5976.94 -3.45945 3.65145 0
M  V30 59598 H 5976.64 -2.6842 5.22709 0
M  V30 59599 H 5978.17 -3.5746 4.9503 0
M  V30 59600 H 5979.58 -1.38726 5.56263 0
M  V30 59601 H 5977.98 -0.702922 5.95969 0
M  V30 59602 H 5979.05 0.167724 4.8461 0
M  V30 59603 N 5980.39 -1.57323 -0.0934766 0
M  V30 59604 C 5981.34 -2.03188 -1.13214 0
M  V30 59605 C 5982.33 -0.933234 -1.41376 0
M  V30 59606 O 5983.54 -1.11841 -1.41038 0
M  V30 59607 H 5979.92 -0.647555 -0.382331 0
M  V30 59608 H 5981.89 -2.89608 -0.719003 0
M  V30 59609 C 5980.64 -2.47344 -2.44369 0
M  V30 59610 H 5979.96 -3.31464 -2.23544 0
M  V30 59611 H 5981.4 -2.8321 -3.15544 0
M  V30 59612 C 5979.86 -1.34739 -3.08783 0
M  V30 59613 O 5980.39 -0.677424 -3.95947 0
M  V30 59614 N 5978.59 -1.09797 -2.6906 0
M  V30 59615 H 5978.14 -1.64458 -1.98271 0
M  V30 59616 H 5978.1 -0.346546 -3.12484 0
M  V30 59617 N 5981.87 0.364341 -1.53331 0
M  V30 59618 C 5982.8 1.45236 -1.82835 0
M  V30 59619 C 5983.78 1.55832 -0.681941 0
M  V30 59620 O 5984.97 1.70379 -0.931905 0
M  V30 59621 C 5982.1 2.82558 -2.01936 0
M  V30 59622 C 5981.05 2.86786 -3.17707 0
M  V30 59623 C 5980.38 4.26794 -3.22104 0
M  V30 59624 C 5981.68 2.54196 -4.5627 0
M  V30 59625 H 5983.37 1.20795 -2.73951 0
M  V30 59626 H 5980.92 0.579659 -1.31818 0
M  V30 59627 H 5982.87 3.58701 -2.2116 0
M  V30 59628 H 5981.59 3.0839 -1.07532 0
M  V30 59629 H 5980.25 2.13094 -2.98306 0
M  V30 59630 H 5979.9 4.49704 -2.25334 0
M  V30 59631 H 5979.6 4.30539 -3.99888 0
M  V30 59632 H 5981.12 5.04808 -3.43512 0
M  V30 59633 H 5982.54 3.20052 -4.75646 0
M  V30 59634 H 5980.94 2.69255 -5.36304 0
M  V30 59635 H 5982.01 1.49442 -4.61297 0
M  V30 59636 N 5983.35 1.44711 0.624209 0
M  V30 59637 C 5984.3 1.48542 1.72972 0
M  V30 59638 C 5985.28 0.350443 1.57037 0
M  V30 59639 O 5986.47 0.596212 1.66656 0
M  V30 59640 C 5983.6 1.43911 3.1168 0
M  V30 59641 C 5982.69 2.62549 3.3306 0
M  V30 59642 N 5983.08 3.87757 3.24774 0
M  V30 59643 C 5981.38 2.57892 3.63879 0
M  V30 59644 C 5982.08 4.66845 3.47031 0
M  V30 59645 N 5981.06 3.9803 3.70234 0
M  V30 59646 H 5984.86 2.43189 1.65034 0
M  V30 59647 H 5982.37 1.39771 0.826912 0
M  V30 59648 H 5984.37 1.44739 3.90968 0
M  V30 59649 H 5983.03 0.503074 3.20779 0
M  V30 59650 H 5984.04 4.19623 3.0354 0
M  V30 59651 H 5980.72 1.73118 3.79916 0
M  V30 59652 H 5982.11 5.75867 3.46159 0
M  V30 59653 N 5984.83 -0.865239 1.31725 0
M  V30 59654 C 5986.05 -1.65132 1.24655 0
M  V30 59655 C 5986.47 -1.87868 -0.187325 0
M  V30 59656 O 5985.83 -1.44019 -1.12093 0
M  V30 59657 C 5985.88 -3.01663 1.99203 0
M  V30 59658 O 5985.6 -2.79939 3.36995 0
M  V30 59659 C 5987.1 -3.96108 1.99031 0
M  V30 59660 H 5984.32 -0.514668 0.430532 0
M  V30 59661 H 5986.86 -1.07965 1.73678 0
M  V30 59662 H 5985.02 -3.55506 1.5393 0
M  V30 59663 H 5985.43 -3.66693 3.75015 0
M  V30 59664 H 5986.91 -4.89208 2.55694 0
M  V30 59665 H 5987.38 -4.28265 0.973965 0
M  V30 59666 H 5987.99 -3.48202 2.44204 0
M  V30 59667 N 5986.31 -1.14762 -1.08016 0
M  V30 59668 C 5987.24 -0.861054 -2.17044 0
M  V30 59669 C 5988.22 0.185593 -1.69084 0
M  V30 59670 O 5989.4 0.0414115 -1.94156 0
M  V30 59671 C 5986.53 -0.34214 -3.45611 0
M  V30 59672 C 5985.49 -1.32469 -4.06984 0
M  V30 59673 C 5984.81 -0.664908 -5.3055 0
M  V30 59674 C 5986.11 -2.68835 -4.478 0
M  V30 59675 H 5987.81 -1.77278 -2.41274 0
M  V30 59676 H 5985.35 -0.853798 -1.15958 0
M  V30 59677 H 5987.3 -0.129241 -4.21202 0
M  V30 59678 H 5986.03 0.605025 -3.20947 0
M  V30 59679 H 5984.69 -1.52383 -3.33429 0
M  V30 59680 H 5984.34 0.288191 -5.02174 0
M  V30 59681 H 5984.04 -1.32056 -5.72569 0
M  V30 59682 H 5985.56 -0.461626 -6.08853 0
M  V30 59683 H 5986.97 -2.52806 -5.14551 0
M  V30 59684 H 5985.37 -3.30711 -5.0075 0
M  V30 59685 H 5986.44 -3.2541 -3.59494 0
M  V30 59686 N 5987.78 1.26247 -0.943366 0
M  V30 59687 C 5988.71 2.28671 -0.472427 0
M  V30 59688 C 5989.69 1.63321 0.475423 0
M  V30 59689 O 5990.88 1.90509 0.376808 0
M  V30 59690 C 5988.01 3.46317 0.261164 0
M  V30 59691 C 5986.96 4.23769 -0.600341 0
M  V30 59692 C 5986.29 5.34051 0.263337 0
M  V30 59693 C 5987.59 4.87569 -1.87279 0
M  V30 59694 H 5989.28 2.68314 -1.32846 0
M  V30 59695 H 5986.83 1.28985 -0.640228 0
M  V30 59696 H 5988.78 4.17083 0.601674 0
M  V30 59697 H 5987.51 3.05633 1.15135 0
M  V30 59698 H 5986.17 3.5477 -0.923776 0
M  V30 59699 H 5985.81 4.89608 1.15294 0
M  V30 59700 H 5985.51 5.86783 -0.309701 0
M  V30 59701 H 5987.04 6.07654 0.599068 0
M  V30 59702 H 5988.45 5.50538 -1.59939 0
M  V30 59703 H 5986.85 5.50429 -2.39057 0
M  V30 59704 H 5987.92 4.10388 -2.58283 0
M  V30 59705 N 5989.26 0.710637 1.40669 0
M  V30 59706 C 5990.49 0.257141 2.04994 0
M  V30 59707 C 5990.9 -1.10426 1.53632 0
M  V30 59708 O 5990.24 -1.70419 0.685786 0
M  V30 59709 C 5990.3 0.153772 3.59171 0
M  V30 59710 C 5989.97 1.44965 4.33398 0
M  V30 59711 C 5990.97 2.39058 4.61679 0
M  V30 59712 C 5988.65 1.70721 4.72398 0
M  V30 59713 C 5990.64 3.57156 5.27938 0
M  V30 59714 C 5988.33 2.89101 5.3839 0
M  V30 59715 C 5989.33 3.82141 5.66089 0
M  V30 59716 O 5989.02 4.98446 6.30719 0
M  V30 59717 H 5988.75 0.114225 0.66628 0
M  V30 59718 H 5991.3 0.968091 1.81155 0
M  V30 59719 H 5989.53 -0.613079 3.81809 0
M  V30 59720 H 5991.22 -0.264512 4.05037 0
M  V30 59721 H 5991.99 2.20422 4.32017 0
M  V30 59722 H 5987.87 0.991578 4.5021 0
M  V30 59723 H 5991.41 4.29794 5.49475 0
M  V30 59724 H 5987.31 3.07647 5.67471 0
M  V30 59725 H 5988.08 4.98459 6.49216 0
M  V30 59726 N 5990.74 -1.50845 0.456461 0
M  V30 59727 C 5991.67 -2.31078 -0.335441 0
M  V30 59728 C 5992.65 -1.37329 -1.00372 0
M  V30 59729 O 5993.84 -1.66251 -1.00371 0
M  V30 59730 C 5990.97 -3.16667 -1.42616 0
M  V30 59731 C 5989.92 -4.18849 -0.880303 0
M  V30 59732 C 5989.25 -4.93081 -2.06821 0
M  V30 59733 C 5990.55 -5.22207 0.0984124 0
M  V30 59734 H 5992.24 -2.97529 0.334161 0
M  V30 59735 H 5989.79 -1.43084 0.16215 0
M  V30 59736 H 5991.74 -3.71585 -1.98752 0
M  V30 59737 H 5990.46 -2.48073 -2.12432 0
M  V30 59738 H 5989.12 -3.6501 -0.341019 0
M  V30 59739 H 5988.77 -4.20973 -2.75301 0
M  V30 59740 H 5988.47 -5.6219 -1.70927 0
M  V30 59741 H 5989.99 -5.5083 -2.63475 0
M  V30 59742 H 5991.41 -5.72083 -0.37328 0
M  V30 59743 H 5989.8 -5.98953 0.370885 0
M  V30 59744 H 5990.87 -4.73855 1.02904 0
M  V30 59745 N 5992.22 -0.188509 -1.56469 0
M  V30 59746 C 5993.47 0.451096 -1.97001 0
M  V30 59747 C 5993.79 1.62607 -1.07629 0
M  V30 59748 O 5993.06 1.95354 -0.146193 0
M  V30 59749 H 5991.64 0.169645 -0.727482 0
M  V30 59750 H 5994.3 -0.273706 -1.92969 0
M  V30 59751 H 5993.39 0.799635 -3.01682 0
M  V30 59752 N 5993.7 1.5737 0.0851321 0
M  V30 59753 C 5994.94 1.86222 0.785235 0
M  V30 59754 C 5995.26 0.778633 1.7878 0
M  V30 59755 O 5994.53 -0.194107 1.94936 0
M  V30 59756 H 5993.11 0.687144 0.292989 0
M  V30 59757 H 5995.78 1.94794 0.0643913 0
M  V30 59758 H 5994.87 2.83291 1.30968 0
M  V30 59759 N 5995.17 -0.356204 1.53522 0
M  V30 59760 C 5996.42 -1.09947 1.7041 0
M  V30 59761 C 5996.75 -1.88689 0.459371 0
M  V30 59762 O 5996.03 -1.86753 -0.543475 0
M  V30 59763 C 5996.31 -2.05104 2.95981 0
M  V30 59764 C 5996.16 -1.29909 4.30632 0
M  V30 59765 C 5997.48 -3.05099 3.17179 0
M  V30 59766 H 5994.6 -0.398322 0.620088 0
M  V30 59767 H 5997.24 -0.379311 1.86175 0
M  V30 59768 H 5995.39 -2.66514 2.8267 0
M  V30 59769 H 5997.07 -0.7121 4.55771 0
M  V30 59770 H 5995.31 -0.60099 4.29617 0
M  V30 59771 H 5995.98 -1.99605 5.14647 0
M  V30 59772 H 5998.46 -2.53797 3.29737 0
M  V30 59773 H 5997.33 -3.68894 4.06458 0
M  V30 59774 H 5997.59 -3.75786 2.3289 0
M  V30 59775 N 5996.65 -1.4504 -0.616526 0
M  V30 59776 C 5997.56 -1.55548 -1.75619 0
M  V30 59777 C 5998.58 -0.440363 -1.68335 0
M  V30 59778 O 5999.75 -0.699792 -1.88851 0
M  V30 59779 C 5996.82 -1.51072 -3.12054 0
M  V30 59780 C 5995.88 -2.73552 -3.30859 0
M  V30 59781 C 5995.11 -2.6928 -4.60786 0
M  V30 59782 O 5995.34 -1.76104 -5.42535 0
M  V30 59783 O 5994.27 -3.60352 -4.8211 0
M  V30 59784 H 5998.1 -2.5186 -1.69706 0
M  V30 59785 H 5995.68 -1.27451 -0.779533 0
M  V30 59786 H 5997.56 -1.51152 -3.93359 0
M  V30 59787 H 5996.24 -0.579088 -3.18478 0
M  V30 59788 H 5995.14 -2.79036 -2.49178 0
M  V30 59789 H 5996.48 -3.65811 -3.29307 0
M  V30 59790 N 5998.13 0.858241 -1.32182 0
M  V30 59791 C 5999.54 1.42806 -1.20264 0
M  V30 59792 C 5999.89 1.95314 0.186264 0
M  V30 59793 O 5999.02 1.87248 1.08477 0
M  V30 59794 C 5999.61 2.59582 -2.17722 0
M  V30 59795 C 5998.17 3.12573 -2.09702 0
M  V30 59796 C 5997.32 1.8531 -2.0629 0
M  V30 59797 H 6000.27 0.665719 -1.44062 0
M  V30 59798 H 6000.29 3.36633 -1.77366 0
M  V30 59799 H 5999.8 2.21335 -3.18799 0
M  V30 59800 H 5997.9 3.55412 -1.11861 0
M  V30 59801 H 5998.02 3.7406 -2.99359 0
M  V30 59802 H 5996.38 2.04761 -1.51476 0
M  V30 59803 H 5997.16 1.49285 -3.09142 0
M  V30 59804 N 5999.61 1.15334 1.07405 0
M  V30 59805 C 6000.83 0.952165 1.84251 0
M  V30 59806 C 6001.26 -0.494507 1.81483 0
M  V30 59807 O 6000.62 -1.35248 1.20738 0
M  V30 59808 C 6000.66 1.47031 3.29263 0
M  V30 59809 O 5999.77 0.669148 4.06935 0
M  V30 59810 H 5999.11 0.339663 0.570548 0
M  V30 59811 H 6001.64 1.53303 1.35497 0
M  V30 59812 H 6001.65 1.48291 3.80097 0
M  V30 59813 H 6000.32 2.52351 3.30593 0
M  V30 59814 H 5998.9 0.726131 3.65762 0
M  V30 59815 N 6001.09 -1.25745 0.950048 0
M  V30 59816 C 6002.33 -1.9362 0.603254 0
M  V30 59817 C 6002.67 -1.74274 -0.856864 0
M  V30 59818 O 6001.94 -1.08508 -1.6142 0
M  V30 59819 C 6002.22 -3.47147 0.957146 0
M  V30 59820 C 6002.08 -3.75739 2.47266 0
M  V30 59821 C 6003.4 -4.37487 0.478908 0
M  V30 59822 H 6000.51 -0.703199 0.220637 0
M  V30 59823 H 6003.16 -1.48449 1.18587 0
M  V30 59824 H 6001.31 -3.85751 0.461355 0
M  V30 59825 H 6002.98 -3.46798 3.04186 0
M  V30 59826 H 6001.22 -3.21505 2.91233 0
M  V30 59827 H 6001.89 -4.83087 2.67078 0
M  V30 59828 H 6004.37 -4.06158 0.90413 0
M  V30 59829 H 6003.24 -5.43679 0.755264 0
M  V30 59830 H 6003.51 -4.37715 -0.621149 0
M  V30 59831 N 6002.56 -0.718087 -1.4029 0
M  V30 59832 C 6003.98 -0.33074 -1.83747 0
M  V30 59833 C 6004.33 1.13505 -1.60034 0
M  V30 59834 O 6003.45 1.87377 -1.08254 0
M  V30 59835 C 6004.05 -0.593515 -3.33561 0
M  V30 59836 C 6002.61 -0.259849 -3.75502 0
M  V30 59837 C 6001.75 -0.86463 -2.63476 0
M  V30 59838 H 6004.7 -0.917046 -1.29522 0
M  V30 59839 H 6004.72 0.14041 -3.80241 0
M  V30 59840 H 6004.24 -1.66041 -3.50788 0
M  V30 59841 H 6002.34 0.801883 -3.63869 0
M  V30 59842 H 6002.45 -0.730593 -4.73497 0
M  V30 59843 H 6000.81 -0.292488 -2.53015 0
M  V30 59844 H 6001.6 -1.93584 -2.83514 0
M  V30 59845 N 6004.04 1.50601 -0.464455 0
M  V30 59846 C 6004.97 2.31253 0.323182 0
M  V30 59847 C 6005.95 1.3786 0.996427 0
M  V30 59848 O 6007.14 1.66781 0.994874 0
M  V30 59849 C 6004.27 3.17419 1.40934 0
M  V30 59850 C 6003.22 4.1931 0.858078 0
M  V30 59851 C 6002.55 4.94171 2.04203 0
M  V30 59852 C 6003.85 5.22148 -0.126105 0
M  V30 59853 H 6005.54 2.97348 -0.349935 0
M  V30 59854 H 6003.09 1.42996 -0.169735 0
M  V30 59855 H 6005.04 3.72634 1.96778 0
M  V30 59856 H 6003.77 2.49196 2.11113 0
M  V30 59857 H 6002.42 3.65186 0.321657 0
M  V30 59858 H 6002.07 4.22427 2.73065 0
M  V30 59859 H 6001.77 5.63089 1.67943 0
M  V30 59860 H 6003.3 5.52219 2.6055 0
M  V30 59861 H 6004.71 5.72273 0.342935 0
M  V30 59862 H 6003.11 5.98748 -0.402643 0
M  V30 59863 H 6004.18 4.73303 -1.05416 0
M  V30 59864 N 6005.52 0.196805 1.56366 0
M  V30 59865 C 6006.75 -0.450173 2.02455 0
M  V30 59866 C 6007.17 -1.54284 1.07602 0
M  V30 59867 O 6006.53 -1.81201 0.0598166 0
M  V30 59868 C 6006.58 -0.981965 3.46972 0
M  V30 59869 O 6005.68 -2.09476 3.55237 0
M  V30 59870 H 6005.02 -0.104999 0.655646 0
M  V30 59871 H 6007.55 0.308184 2.02266 0
M  V30 59872 H 6007.56 -1.29813 3.86798 0
M  V30 59873 H 6006.24 -0.182094 4.15501 0
M  V30 59874 H 6004.81 -1.78711 3.27287 0
M  V30 59875 N 6007 -1.57413 -0.0767852 0
M  V30 59876 C 6008.41 -1.75778 -0.6292 0
M  V30 59877 C 6008.76 -0.821565 -1.78171 0
M  V30 59878 O 6007.89 -0.00444805 -2.164 0
M  V30 59879 C 6008.48 -3.18751 -1.14817 0
M  V30 59880 C 6007.04 -3.38478 -1.64649 0
M  V30 59881 C 6006.19 -2.71508 -0.563788 0
M  V30 59882 H 6009.14 -1.57996 0.149368 0
M  V30 59883 H 6009.16 -3.22635 -2.0171 0
M  V30 59884 H 6008.67 -3.86867 -0.309146 0
M  V30 59885 H 6006.77 -2.7547 -2.50893 0
M  V30 59886 H 6006.88 -4.46896 -1.72687 0
M  V30 59887 H 6005.25 -2.3392 -1.00764 0
M  V30 59888 H 6006.03 -3.42276 0.264967 0
M  V30 59889 N 6008.48 0.348057 -1.53709 0
M  V30 59890 C 6009.44 1.41012 -1.80688 0
M  V30 59891 C 6010.44 1.45817 -0.677791 0
M  V30 59892 O 6011.63 1.46271 -0.946061 0
M  V30 59893 C 6008.76 2.79981 -1.94483 0
M  V30 59894 H 6009.95 1.18355 -2.75558 0
M  V30 59895 H 6007.51 0.582193 -1.45052 0
M  V30 59896 H 6008.24 3.07928 -1.0174 0
M  V30 59897 H 6008.03 2.7789 -2.76622 0
M  V30 59898 H 6009.52 3.5686 -2.16888 0
M  V30 59899 N 6009.95 1.45365 0.608825 0
M  V30 59900 C 6011.18 1.52841 1.39453 0
M  V30 59901 C 6011.6 0.160603 1.88116 0
M  V30 59902 O 6010.95 -0.837614 1.62143 0
M  V30 59903 C 6011.01 2.51177 2.59985 0
M  V30 59904 O 6010.73 3.82642 2.13346 0
M  V30 59905 C 6012.23 2.68338 3.52859 0
M  V30 59906 H 6009.45 0.517665 0.426924 0
M  V30 59907 H 6011.99 1.9054 0.742607 0
M  V30 59908 H 6010.15 2.16553 3.21222 0
M  V30 59909 H 6010.56 4.35937 2.91649 0
M  V30 59910 H 6012.03 3.41124 4.3398 0
M  V30 59911 H 6012.51 1.74331 4.03119 0
M  V30 59912 H 6013.12 3.03954 2.97476 0
M  V30 59913 N 6011.43 -0.851219 1.32635 0
M  V30 59914 C 6012.38 -1.98148 1.2182 0
M  V30 59915 C 6013.37 -1.68958 0.122242 0
M  V30 59916 O 6014.58 -1.77723 0.285395 0
M  V30 59917 H 6010.96 -0.650262 0.377709 0
M  V30 59918 H 6012.93 -2.04397 2.17404 0
M  V30 59919 C 6011.68 -3.34137 0.961639 0
M  V30 59920 H 6011 -3.5713 1.79717 0
M  V30 59921 H 6012.44 -4.1376 0.926222 0
M  V30 59922 C 6010.9 -3.35224 -0.335586 0
M  V30 59923 O 6011.43 -3.78466 -1.34634 0
M  V30 59924 N 6009.63 -2.88377 -0.358774 0
M  V30 59925 H 6009.18 -2.53381 0.464283 0
M  V30 59926 H 6009.14 -2.89487 -1.22658 0
M  V30 59927 N 6012.91 -1.15902 -1.06792 0
M  V30 59928 C 6013.84 -0.804489 -2.13549 0
M  V30 59929 C 6014.82 0.221614 -1.61083 0
M  V30 59930 O 6016.01 0.106858 -1.88197 0
M  V30 59931 C 6013.13 -0.197285 -3.38125 0
M  V30 59932 C 6012.18 -1.19619 -4.09382 0
M  V30 59933 S 6013.01 -2.7407 -4.6005 0
M  V30 59934 C 6014.17 -2.14785 -5.87893 0
M  V30 59935 H 6014.4 -1.70869 -2.43292 0
M  V30 59936 H 6011.93 -0.981957 -1.19151 0
M  V30 59937 H 6013.89 0.146596 -4.10238 0
M  V30 59938 H 6012.55 0.684599 -3.06549 0
M  V30 59939 H 6011.75 -0.719667 -4.98835 0
M  V30 59940 H 6011.35 -1.4849 -3.43259 0
M  V30 59941 H 6013.64 -1.5134 -6.60381 0
M  V30 59942 H 6014.58 -3.02428 -6.40268 0
M  V30 59943 H 6014.99 -1.58865 -5.41684 0
M  V30 59944 N 6014.39 1.2524 -0.956703 0
M  V30 59945 C 6015.61 1.97619 -0.629406 0
M  V30 59946 C 6016.04 1.70609 0.792098 0
M  V30 59947 O 6015.4 0.963246 1.53594 0
M  V30 59948 C 6015.44 3.4927 -0.89681 0
M  V30 59949 O 6014.55 4.12393 0.0233536 0
M  V30 59950 H 6013.89 0.619464 -0.239083 0
M  V30 59951 H 6016.42 1.59305 -1.28386 0
M  V30 59952 H 6016.43 3.99594 -0.82391 0
M  V30 59953 H 6015.1 3.68258 -1.93284 0
M  V30 59954 H 6013.68 3.72761 -0.101927 0
M  V30 59955 N 6015.87 0.725517 1.39907 0
M  V30 59956 C 6016.83 0.0879761 2.29031 0
M  V30 59957 C 6017.83 -0.677054 1.45851 0
M  V30 59958 O 6019.02 -0.50748 1.66644 0
M  V30 59959 C 6016.15 -0.884972 3.29213 0
M  V30 59960 H 6017.35 0.873058 2.86911 0
M  V30 59961 H 6014.9 0.490768 1.48395 0
M  V30 59962 H 6015.63 -1.69675 2.76371 0
M  V30 59963 H 6015.42 -0.33916 3.9063 0
M  V30 59964 H 6016.91 -1.32792 3.95924 0
M  V30 59965 N 6017.35 -1.50352 0.472435 0
M  V30 59966 C 6018.3 -2.25455 -0.339705 0
M  V30 59967 C 6019.28 -1.291 -0.960307 0
M  V30 59968 O 6020.47 -1.53994 -0.872634 0
M  V30 59969 C 6017.6 -3.1254 -1.42034 0
M  V30 59970 C 6016.69 -4.16343 -0.807406 0
M  V30 59971 N 6017.08 -5.05747 0.0730844 0
M  V30 59972 C 6015.38 -4.32945 -1.0712 0
M  V30 59973 C 6016.08 -5.80174 0.421072 0
M  V30 59974 N 6015.05 -5.43217 -0.204075 0
M  V30 59975 H 6018.85 -2.91944 0.338554 0
M  V30 59976 H 6016.37 -1.5985 0.286668 0
M  V30 59977 H 6018.37 -3.64951 -2.01535 0
M  V30 59978 H 6017.03 -2.476 -2.10058 0
M  V30 59979 H 6018.04 -5.1601 0.442006 0
M  V30 59980 H 6014.71 -3.79223 -1.74632 0
M  V30 59981 H 6016.1 -6.62163 1.13971 0
M  V30 59982 N 6018.82 -0.205094 -1.5626 0
M  V30 59983 C 6020.07 0.431027 -1.9786 0
M  V30 59984 C 6020.4 1.60933 -1.09229 0
M  V30 59985 O 6019.65 1.95244 -0.133564 0
M  V30 59986 C 6019.95 0.923965 -3.4525 0
M  V30 59987 C 6019.62 -0.142037 -4.50676 0
M  V30 59988 C 6018.28 -0.434921 -4.79231 0
M  V30 59989 C 6020.63 -0.863825 -5.13992 0
M  V30 59990 C 6017.96 -1.4544 -5.68387 0
M  V30 59991 C 6020.31 -1.87252 -6.04251 0
M  V30 59992 C 6018.98 -2.1725 -6.31157 0
M  V30 59993 H 6018.25 0.157724 -0.724019 0
M  V30 59994 H 6020.89 -0.304161 -1.89069 0
M  V30 59995 H 6019.2 1.73761 -3.51161 0
M  V30 59996 H 6020.9 1.42572 -3.74799 0
M  V30 59997 H 6017.49 0.0964008 -4.28492 0
M  V30 59998 H 6021.67 -0.650785 -4.92015 0
M  V30 59999 H 6016.93 -1.69261 -5.87504 0
M  V30 60000 H 6021.1 -2.43698 -6.52368 0
M  V30 60001 H 6018.73 -2.9639 -7.00041 0
M  V30 60002 N 6020.3 1.57451 0.0684361 0
M  V30 60003 C 6021.72 1.53884 0.4233 0
M  V30 60004 C 6021.92 0.925761 1.78975 0
M  V30 60005 O 6020.97 0.529716 2.46881 0
M  V30 60006 C 6022.29 2.98522 0.361281 0
M  V30 60007 C 6023.83 3.09874 0.441225 0
M  V30 60008 C 6024.31 4.56169 0.409078 0
M  V30 60009 N 6025.8 4.60819 0.469054 0
M  V30 60010 C 6026.54 5.715 0.466447 0
M  V30 60011 N 6026.03 6.91535 0.418457 0
M  V30 60012 N 6027.82 5.59752 0.513255 0
M  V30 60013 H 6019.98 1.9567 -0.826268 0
M  V30 60014 H 6022.24 0.895748 -0.310386 0
M  V30 60015 H 6021.94 3.46949 -0.576157 0
M  V30 60016 H 6021.82 3.58589 1.1702 0
M  V30 60017 H 6024.21 2.61419 1.36909 0
M  V30 60018 H 6024.29 2.52711 -0.396326 0
M  V30 60019 H 6023.93 5.05283 -0.514949 0
M  V30 60020 H 6023.86 5.112 1.26421 0
M  V30 60021 H 6026.35 3.74439 0.510255 0
M  V30 60022 H 6026.66 7.71655 0.420486 0
M  V30 60023 H 6025.01 6.93932 0.385094 0
M  V30 60024 H 6028.2 4.64876 0.548463 0
M  V30 60025 H 6028.37 6.46008 0.507754 0
M  V30 60026 N 6021.78 -0.339901 1.53891 0
M  V30 60027 C 6023.03 -1.0776 1.70974 0
M  V30 60028 C 6023.35 -1.89062 0.477552 0
M  V30 60029 O 6022.62 -1.89185 -0.508513 0
M  V30 60030 H 6021.2 -0.400827 0.630355 0
M  V30 60031 H 6023.86 -0.380292 1.91154 0
M  V30 60032 H 6022.96 -1.75292 2.58223 0
M  V30 60033 N 6023.26 -1.45686 -0.601108 0
M  V30 60034 C 6024.5 -1.51586 -1.37117 0
M  V30 60035 C 6024.86 -0.156252 -1.91363 0
M  V30 60036 O 6026.06 -0.0899543 -2.68649 0
M  V30 60037 C 6024.33 -2.56998 -2.48369 0
M  V30 60038 S 6025.89 -2.82169 -3.36044 0
M  V30 60039 H 6022.71 -0.535786 -0.467391 0
M  V30 60040 H 6025.31 -1.82807 -0.692948 0
M  V30 60041 H 6024.02 -3.54443 -2.06877 0
M  V30 60042 H 6023.55 -2.27448 -3.20984 0
M  V30 60043 H 6025.56 -2.1604 -4.467 0
M  V30 60044 N 6024.74 0.844173 -1.33084 0
M  V30 60045 C 6025.98 1.60145 -1.24425 0
M  V30 60046 C 6026.31 1.93259 0.190924 0
M  V30 60047 O 6025.59 1.58246 1.13086 0
M  V30 60048 C 6025.87 2.91494 -2.11431 0
M  V30 60049 C 6025.73 2.65095 -3.6338 0
M  V30 60050 C 6027.04 3.92871 -1.98345 0
M  V30 60051 H 6024.16 0.58108 -0.453337 0
M  V30 60052 H 6026.81 0.974035 -1.63134 0
M  V30 60053 H 6024.96 3.4504 -1.78549 0
M  V30 60054 H 6026.63 2.18023 -4.06527 0
M  V30 60055 H 6024.87 1.98883 -3.85523 0
M  V30 60056 H 6025.54 3.58667 -4.19597 0
M  V30 60057 H 6028.02 3.48615 -2.27172 0
M  V30 60058 H 6026.89 4.82616 -2.61482 0
M  V30 60059 H 6027.15 4.31681 -0.954124 0
M  V30 60060 N 6026.21 1.16466 1.06176 0
M  V30 60061 C 6027.46 0.945038 1.78643 0
M  V30 60062 C 6027.78 -0.52842 1.87704 0
M  V30 60063 O 6027.05 -1.38386 1.38658 0
M  V30 60064 H 6025.63 0.34666 0.661692 0
M  V30 60065 H 6028.29 1.46756 1.28252 0
M  V30 60066 H 6027.39 1.36478 2.80678 0
M  V30 60067 N 6027.69 -1.2473 0.963332 0
M  V30 60068 C 6028.6 -2.29267 0.497396 0
M  V30 60069 C 6029.62 -1.68358 -0.439512 0
M  V30 60070 O 6030.79 -1.98943 -0.313627 0
M  V30 60071 C 6027.86 -3.46069 -0.20914 0
M  V30 60072 C 6026.92 -4.22392 0.767055 0
M  V30 60073 C 6026.15 -5.33617 0.0941418 0
M  V30 60074 O 6026.38 -5.59327 -1.11845 0
M  V30 60075 O 6025.31 -5.96771 0.78409 0
M  V30 60076 H 6029.14 -2.7123 1.36631 0
M  V30 60077 H 6026.72 -1.30341 0.730172 0
M  V30 60078 H 6028.6 -4.17017 -0.606221 0
M  V30 60079 H 6027.28 -3.06091 -1.05309 0
M  V30 60080 H 6026.18 -3.53837 1.21451 0
M  V30 60081 H 6027.52 -4.66175 1.57929 0
M  V30 60082 N 6029.17 -0.732927 -1.3952 0
M  V30 60083 C 6030.42 -0.280376 -2.00853 0
M  V30 60084 C 6030.75 1.12885 -1.58021 0
M  V30 60085 O 6030.02 1.76916 -0.808149 0
M  V30 60086 C 6030.31 -0.379906 -3.5809 0
M  V30 60087 C 6030.16 -1.82875 -4.10946 0
M  V30 60088 C 6031.48 0.238871 -4.39451 0
M  V30 60089 H 6028.6 -0.103352 -0.729717 0
M  V30 60090 H 6031.24 -0.928692 -1.65757 0
M  V30 60091 H 6029.39 0.172062 -3.88119 0
M  V30 60092 H 6031.06 -2.43744 -3.91646 0
M  V30 60093 H 6029.3 -2.35076 -3.64584 0
M  V30 60094 H 6029.98 -1.84968 -5.20087 0
M  V30 60095 H 6032.45 -0.231634 -4.15455 0
M  V30 60096 H 6031.33 0.138875 -5.48724 0
M  V30 60097 H 6031.59 1.32466 -4.21788 0
M  V30 60098 N 6030.65 1.501 -0.480402 0
M  V30 60099 C 6031.87 2.07278 0.0710143 0
M  V30 60100 C 6032.3 1.34087 1.31918 0
M  V30 60101 O 6031.66 0.391313 1.77027 0
M  V30 60102 C 6031.7 3.591 0.32858 0
M  V30 60103 O 6030.81 3.87645 1.40732 0
M  V30 60104 H 6030.15 0.66378 -0.0170981 0
M  V30 60105 H 6032.68 1.93176 -0.674117 0
M  V30 60106 H 6032.69 4.04051 0.566293 0
M  V30 60107 H 6031.36 4.11787 -0.583461 0
M  V30 60108 H 6029.94 3.54523 1.15618 0
M  V30 60109 N 6032.13 0.213378 1.56149 0
M  V30 60110 C 6033.37 -0.421151 1.98379 0
M  V30 60111 C 6033.71 -1.59994 1.10071 0
M  V30 60112 O 6032.98 -1.93868 0.156608 0
M  V30 60113 C 6033.26 -0.863627 3.4959 0
M  V30 60114 C 6033.12 0.318234 4.48673 0
M  V30 60115 C 6034.44 -1.72271 4.04983 0
M  V30 60116 H 6031.55 -0.151609 0.721238 0
M  V30 60117 H 6034.2 0.307973 1.87487 0
M  V30 60118 H 6032.35 -1.4849 3.59003 0
M  V30 60119 H 6034.02 0.956253 4.5128 0
M  V30 60120 H 6032.26 0.967029 4.22884 0
M  V30 60121 H 6032.93 -0.0341721 5.51989 0
M  V30 60122 H 6035.41 -1.19858 3.98464 0
M  V30 60123 H 6034.28 -2.00123 5.11119 0
M  V30 60124 H 6034.55 -2.68323 3.51362 0
M  V30 60125 N 6033.6 -1.57485 -0.0600851 0
M  V30 60126 C 6034.55 -2.05543 -1.08879 0
M  V30 60127 C 6035.55 -0.963012 -1.39364 0
M  V30 60128 O 6036.75 -1.14807 -1.38634 0
M  V30 60129 H 6033.13 -0.655519 -0.368509 0
M  V30 60130 H 6035.1 -2.91068 -0.657411 0
M  V30 60131 C 6033.85 -2.52472 -2.39067 0
M  V30 60132 H 6033.17 -3.36131 -2.16463 0
M  V30 60133 H 6034.61 -2.8984 -3.09466 0
M  V30 60134 C 6033.07 -1.41258 -3.05856 0
M  V30 60135 O 6033.6 -0.761257 -3.94421 0
M  V30 60136 N 6031.81 -1.15479 -2.6667 0
M  V30 60137 H 6031.35 -1.68627 -1.94738 0
M  V30 60138 H 6031.31 -0.41275 -3.11679 0
M  V30 60139 N 6035.08 0.331735 -1.54069 0
M  V30 60140 C 6036.33 1.06852 -1.71543 0
M  V30 60141 C 6036.65 1.88806 -0.487572 0
M  V30 60142 O 6035.92 1.89452 0.498473 0
M  V30 60143 H 6034.5 0.397478 -0.632471 0
M  V30 60144 H 6037.16 0.370149 -1.91353 0
M  V30 60145 H 6036.26 1.7392 -2.59149 0
M  V30 60146 N 6036.56 1.46003 0.593373 0
M  V30 60147 C 6037.51 1.55758 1.70318 0
M  V30 60148 C 6038.48 0.402523 1.61149 0
M  V30 60149 O 6039.66 0.617867 1.80519 0
M  V30 60150 C 6036.8 1.54373 3.08647 0
M  V30 60151 C 6035.92 2.80534 3.28519 0
M  V30 60152 C 6035.05 2.70725 4.57036 0
M  V30 60153 C 6034.09 3.91874 4.70214 0
M  V30 60154 N 6033.23 3.80514 5.90045 0
M  V30 60155 H 6038.07 2.50561 1.61317 0
M  V30 60156 H 6035.6 1.24316 0.786381 0
M  V30 60157 H 6037.56 1.51556 3.88699 0
M  V30 60158 H 6036.19 0.631097 3.16571 0
M  V30 60159 H 6035.24 2.93377 2.42145 0
M  V30 60160 H 6036.56 3.70352 3.34127 0
M  V30 60161 H 6035.71 2.65954 5.45301 0
M  V30 60162 H 6034.45 1.78529 4.53849 0
M  V30 60163 H 6033.45 3.96988 3.80369 0
M  V30 60164 H 6034.68 4.85153 4.75188 0
M  V30 60165 H 6032.62 2.91097 5.87876 0
M  V30 60166 H 6032.54 4.63979 5.96875 0
M  V30 60167 H 6033.81 3.797 6.8077 0
M  V30 60168 N 6038.04 -0.837103 1.3353 0
M  V30 60169 C 6039.45 -1.12805 1.12903 0
M  V30 60170 C 6039.65 -2.01345 -0.0789054 0
M  V30 60171 O 6038.71 -2.40834 -0.758647 0
M  V30 60172 C 6040.02 -1.78844 2.41734 0
M  V30 60173 C 6041.57 -1.91402 2.47658 0
M  V30 60174 C 6042.05 -2.60857 3.76454 0
M  V30 60175 N 6043.54 -2.68368 3.77535 0
M  V30 60176 C 6044.27 -3.22802 4.73905 0
M  V30 60177 N 6043.77 -3.77911 5.80651 0
M  V30 60178 N 6045.56 -3.21071 4.61378 0
M  V30 60179 H 6037.71 -0.247868 2.10949 0
M  V30 60180 H 6039.98 -0.172485 0.932176 0
M  V30 60181 H 6039.68 -1.21246 3.3014 0
M  V30 60182 H 6039.56 -2.78847 2.54016 0
M  V30 60183 H 6041.94 -2.48153 1.597 0
M  V30 60184 H 6042.02 -0.903428 2.39315 0
M  V30 60185 H 6041.67 -2.04764 4.64795 0
M  V30 60186 H 6041.6 -3.62391 3.82074 0
M  V30 60187 H 6044.09 -2.29291 3.0039 0
M  V30 60188 H 6044.4 -4.17656 6.50218 0
M  V30 60189 H 6042.75 -3.76194 5.84383 0
M  V30 60190 H 6045.94 -2.77276 3.77141 0
M  V30 60191 H 6046.11 -3.63191 5.36653 0
M  V30 60192 N 6039.52 -1.17028 -1.05557 0
M  V30 60193 C 6040.45 -0.906898 -2.15169 0
M  V30 60194 C 6041.43 0.149686 -1.6944 0
M  V30 60195 O 6042.61 0.000218821 -1.942 0
M  V30 60196 C 6039.74 -0.415372 -3.44807 0
M  V30 60197 C 6038.7 -1.41072 -4.04083 0
M  V30 60198 C 6038.02 -0.777295 -5.2902 0
M  V30 60199 C 6039.32 -2.78273 -4.41997 0
M  V30 60200 H 6041.02 -1.82356 -2.37459 0
M  V30 60201 H 6038.56 -0.878202 -1.14121 0
M  V30 60202 H 6040.52 -0.218555 -4.20833 0
M  V30 60203 H 6039.24 0.536811 -3.22158 0
M  V30 60204 H 6037.9 -1.59421 -3.30122 0
M  V30 60205 H 6037.55 0.181607 -5.02672 0
M  V30 60206 H 6037.25 -1.44171 -5.69639 0
M  V30 60207 H 6038.77 -0.590669 -6.07736 0
M  V30 60208 H 6040.18 -2.63663 -5.09072 0
M  V30 60209 H 6038.58 -3.41259 -4.93622 0
M  V30 60210 H 6039.65 -3.32962 -3.52511 0
M  V30 60211 N 6040.99 1.24218 -0.969933 0
M  V30 60212 C 6042.27 1.87713 -0.549838 0
M  V30 60213 C 6042.65 1.87337 0.973048 0
M  V30 60214 O 6042 1.34756 1.84535 0
M  V30 60215 C 6042.21 3.2972 -1.14392 0
M  V30 60216 C 6043.56 4.06388 -1.23019 0
M  V30 60217 O 6044.58 3.389 -1.0966 0
M  V30 60218 O 6043.44 5.27144 -1.44158 0
M  V30 60219 H 6040.53 0.806349 -0.183657 0
M  V30 60220 H 6043.08 1.32173 -1.06435 0
M  V30 60221 H 6041.85 3.24505 -2.1866 0
M  V30 60222 H 6041.48 3.92837 -0.613594 0
M  V30 60223 N 6042.47 0.740315 1.3913 0
M  V30 60224 C 6043.4 0.119033 2.33196 0
M  V30 60225 C 6044.38 -0.718361 1.54187 0
M  V30 60226 O 6045.57 -0.662258 1.82559 0
M  V30 60227 C 6042.7 -0.785001 3.38312 0
M  V30 60228 C 6041.65 -0.0513589 4.27969 0
M  V30 60229 C 6040.98 -1.07276 5.23828 0
M  V30 60230 C 6042.28 1.10921 5.10386 0
M  V30 60231 H 6043.97 0.904788 2.85401 0
M  V30 60232 H 6041.52 0.436541 1.37224 0
M  V30 60233 H 6043.47 -1.22921 4.03074 0
M  V30 60234 H 6042.2 -1.60293 2.84559 0
M  V30 60235 H 6040.85 0.373284 3.64695 0
M  V30 60236 H 6040.5 -1.8844 4.66368 0
M  V30 60237 H 6040.2 -0.586621 5.84664 0
M  V30 60238 H 6041.73 -1.51656 5.91467 0
M  V30 60239 H 6043.14 0.743192 5.68462 0
M  V30 60240 H 6041.54 1.52534 5.80391 0
M  V30 60241 H 6042.61 1.92841 4.44905 0
M  V30 60242 N 6043.95 -1.49843 0.488355 0
M  V30 60243 C 6045.18 -2.06819 -0.057808 0
M  V30 60244 C 6045.59 -1.35022 -1.31964 0
M  V30 60245 O 6044.95 -0.424677 -1.7749 0
M  V30 60246 C 6045 -3.60006 -0.328308 0
M  V30 60247 O 6044.72 -4.29099 0.883489 0
M  V30 60248 C 6046.22 -4.33658 -0.919523 0
M  V30 60249 H 6043.44 -0.670837 0.0147986 0
M  V30 60250 H 6045.99 -1.92789 0.68209 0
M  V30 60251 H 6044.14 -3.73781 -1.01816 0
M  V30 60252 H 6044.56 -5.20598 0.638597 0
M  V30 60253 H 6046.03 -5.41757 -1.05845 0
M  V30 60254 H 6046.51 -3.95296 -1.9141 0
M  V30 60255 H 6047.11 -4.24458 -0.267523 0
M  V30 60256 N 6045.43 -0.221656 -1.56033 0
M  V30 60257 C 6046.66 0.414272 -2.02404 0
M  V30 60258 C 6047.07 1.53886 -1.10072 0
M  V30 60259 O 6046.41 1.83413 -0.102651 0
M  V30 60260 C 6046.47 1.00692 -3.45111 0
M  V30 60261 C 6046.14 0.0177652 -4.56997 0
M  V30 60262 C 6047.13 -0.782648 -5.13975 0
M  V30 60263 C 6044.82 -0.101019 -5.02198 0
M  V30 60264 C 6046.81 -1.68855 -6.14627 0
M  V30 60265 C 6044.5 -1.01045 -6.02688 0
M  V30 60266 C 6045.5 -1.80276 -6.58779 0
M  V30 60267 O 6045.19 -2.69691 -7.57312 0
M  V30 60268 H 6044.92 0.105621 -0.667698 0
M  V30 60269 H 6047.47 -0.335576 -2.0264 0
M  V30 60270 H 6045.7 1.80586 -3.41944 0
M  V30 60271 H 6047.39 1.55027 -3.75129 0
M  V30 60272 H 6048.16 -0.701329 -4.79902 0
M  V30 60273 H 6044.04 0.505562 -4.58219 0
M  V30 60274 H 6047.58 -2.30741 -6.58335 0
M  V30 60275 H 6043.48 -1.09279 -6.36183 0
M  V30 60276 H 6044.24 -2.63767 -7.74835 0
M  V30 60277 N 6046.91 1.57515 0.0517324 0
M  V30 60278 C 6048.13 1.92848 0.763182 0
M  V30 60279 C 6048.56 0.819805 1.69295 0
M  V30 60280 O 6047.92 -0.226098 1.79885 0
M  V30 60281 C 6047.96 3.27195 1.51578 0
M  V30 60282 O 6047.07 3.17844 2.62772 0
M  V30 60283 H 6046.41 0.630951 0.206874 0
M  V30 60284 H 6048.94 2.04595 0.0139762 0
M  V30 60285 H 6048.95 3.61548 1.89068 0
M  V30 60286 H 6047.62 4.07458 0.833728 0
M  V30 60287 H 6046.2 2.95083 2.27992 0
M  V30 60288 N 6048.39 -0.32356 1.54243 0
M  V30 60289 C 6049.63 -1.0615 1.72448 0
M  V30 60290 C 6049.96 -1.88012 0.498182 0
M  V30 60291 O 6049.22 -1.88663 -0.520066 0
M  V30 60292 C 6049.51 -2.01442 2.95222 0
M  V30 60293 C 6049.18 -1.35735 4.29985 0
M  V30 60294 C 6047.84 -1.17546 4.66622 0
M  V30 60295 C 6050.19 -0.885758 5.13618 0
M  V30 60296 C 6047.52 -0.508469 5.84493 0
M  V30 60297 C 6049.87 -0.232584 6.32172 0
M  V30 60298 C 6048.54 -0.038546 6.67489 0
M  V30 60299 H 6047.81 -0.388432 0.631032 0
M  V30 60300 H 6050.46 -0.338648 1.88482 0
M  V30 60301 H 6048.76 -2.80178 2.73875 0
M  V30 60302 H 6050.46 -2.58569 3.06501 0
M  V30 60303 H 6047.05 -1.50894 4.01159 0
M  V30 60304 H 6051.23 -1.01407 4.8583 0
M  V30 60305 H 6046.49 -0.346934 6.10415 0
M  V30 60306 H 6050.66 0.140839 6.96258 0
M  V30 60307 H 6048.29 0.480318 7.58681 0
M  V30 60308 N 6049.86 -1.46316 -0.585622 0
M  V30 60309 C 6050.79 -1.59517 -1.70518 0
M  V30 60310 C 6051.77 -0.445636 -1.64159 0
M  V30 60311 O 6052.96 -0.671519 -1.8222 0
M  V30 60312 C 6050.09 -1.5824 -3.09156 0
M  V30 60313 C 6049.04 -2.72133 -3.30344 0
M  V30 60314 C 6048.37 -2.55916 -4.6948 0
M  V30 60315 C 6049.67 -4.1398 -3.18461 0
M  V30 60316 H 6051.36 -2.53235 -1.59726 0
M  V30 60317 H 6048.91 -1.21873 -0.767004 0
M  V30 60318 H 6050.86 -1.6607 -3.87297 0
M  V30 60319 H 6049.59 -0.610648 -3.20841 0
M  V30 60320 H 6048.25 -2.63768 -2.54602 0
M  V30 60321 H 6047.89 -1.56831 -4.77926 0
M  V30 60322 H 6047.59 -3.32306 -4.84609 0
M  V30 60323 H 6049.12 -2.65633 -5.49792 0
M  V30 60324 H 6050.53 -4.23473 -3.8645 0
M  V30 60325 H 6048.93 -4.90934 -3.45114 0
M  V30 60326 H 6050 -4.34341 -2.15583 0
M  V30 60327 N 6051.34 0.83001 -1.33972 0
M  V30 60328 C 6052.59 1.58268 -1.25681 0
M  V30 60329 C 6052.91 1.94213 0.175002 0
M  V30 60330 O 6052.18 1.61698 1.10592 0
M  V30 60331 H 6050.76 0.586842 -0.462197 0
M  V30 60332 H 6053.42 0.991436 -1.67799 0
M  V30 60333 H 6052.52 2.50867 -1.85667 0
M  V30 60334 N 6052.82 1.17586 1.04935 0
M  V30 60335 C 6054.04 0.991034 1.8219 0
M  V30 60336 C 6054.47 -0.455901 1.82492 0
M  V30 60337 O 6053.83 -1.32657 1.23579 0
M  V30 60338 C 6053.88 1.53982 3.2607 0
M  V30 60339 O 6052.98 0.755314 4.05424 0
M  V30 60340 H 6052.32 0.351689 0.563215 0
M  V30 60341 H 6054.85 1.56143 1.32214 0
M  V30 60342 H 6054.86 1.5632 3.76866 0
M  V30 60343 H 6053.54 2.59307 3.25166 0
M  V30 60344 H 6052.11 0.803551 3.64139 0
M  V30 60345 N 6054.3 -1.23702 0.976507 0
M  V30 60346 C 6055.23 -2.24295 0.471617 0
M  V30 60347 C 6056.24 -1.5717 -0.424429 0
M  V30 60348 O 6057.43 -1.77023 -0.22919 0
M  V30 60349 C 6054.53 -3.37215 -0.337503 0
M  V30 60350 C 6053.7 -4.33919 0.550738 0
M  V30 60351 C 6052.76 -5.25805 -0.203868 0
M  V30 60352 O 6051.79 -5.67756 0.405194 0
M  V30 60353 N 6052.99 -5.61026 -1.49097 0
M  V30 60354 H 6055.76 -2.68247 1.33654 0
M  V30 60355 H 6053.32 -1.37833 0.84933 0
M  V30 60356 H 6055.31 -3.95661 -0.850575 0
M  V30 60357 H 6053.88 -2.92478 -1.10341 0
M  V30 60358 H 6053.1 -3.74034 1.24469 0
M  V30 60359 H 6054.39 -4.95489 1.15622 0
M  V30 60360 H 6053.79 -5.28886 -2.00738 0
M  V30 60361 H 6052.34 -6.21961 -1.94956 0
M  V30 60362 N 6055.78 -0.747683 -1.38735 0
M  V30 60363 C 6057.02 -0.300622 -1.99852 0
M  V30 60364 C 6057.34 1.1198 -1.59642 0
M  V30 60365 O 6056.61 1.76474 -0.850509 0
M  V30 60366 H 6055.19 -0.10816 -0.739128 0
M  V30 60367 H 6057.86 -0.960465 -1.69591 0
M  V30 60368 H 6056.95 -0.359065 -3.10028 0
M  V30 60369 N 6057.25 1.49582 -0.496295 0
M  V30 60370 C 6058.5 2.01634 0.0517111 0
M  V30 60371 C 6058.82 1.38138 1.38482 0
M  V30 60372 O 6060.02 1.81491 2.01924 0
M  V30 60373 C 6058.48 3.59617 0.142629 0
M  V30 60374 C 6058.09 4.32083 -1.18355 0
M  V30 60375 C 6059.83 4.19629 0.641249 0
M  V30 60376 C 6057.74 5.81913 -1.05505 0
M  V30 60377 H 6056.67 0.753646 0.0230993 0
M  V30 60378 H 6059.32 1.72163 -0.635005 0
M  V30 60379 H 6057.7 3.85784 0.893691 0
M  V30 60380 H 6058.87 4.17621 -1.94754 0
M  V30 60381 H 6057.19 3.83795 -1.61524 0
M  V30 60382 H 6059.79 5.29345 0.754822 0
M  V30 60383 H 6060.13 3.82681 1.63892 0
M  V30 60384 H 6060.66 3.97765 -0.0531428 0
M  V30 60385 H 6057.4 6.23377 -2.02686 0
M  V30 60386 H 6056.92 5.98881 -0.331877 0
M  V30 60387 H 6058.6 6.42847 -0.731867 0
M  V30 60388 N 6058.73 0.229928 1.55914 0
M  V30 60389 C 6059.98 -0.398706 1.98128 0
M  V30 60390 C 6060.3 -1.59696 1.11903 0
M  V30 60391 O 6059.57 -1.94897 0.197936 0
M  V30 60392 H 6058.15 -0.150297 0.731724 0
M  V30 60393 H 6060.81 0.324771 1.92175 0
M  V30 60394 H 6059.91 -0.719368 3.03696 0
M  V30 60395 N 6060.21 -1.5754 -0.0433783 0
M  V30 60396 C 6061.14 -2.02389 -1.0757 0
M  V30 60397 C 6062.16 -0.93432 -1.3332 0
M  V30 60398 O 6063.34 -1.21184 -1.3106 0
M  V30 60399 C 6060.44 -2.37199 -2.42054 0
M  V30 60400 C 6059.62 -3.68359 -2.35861 0
M  V30 60401 C 6058.68 -3.90518 -3.52679 0
M  V30 60402 O 6057.7 -4.61757 -3.32819 0
M  V30 60403 N 6058.9 -3.35052 -4.74047 0
M  V30 60404 H 6061.67 -2.91565 -0.693539 0
M  V30 60405 H 6059.23 -1.60235 -0.231574 0
M  V30 60406 H 6061.22 -2.49172 -3.18897 0
M  V30 60407 H 6059.79 -1.53767 -2.72166 0
M  V30 60408 H 6059.01 -3.66874 -1.44211 0
M  V30 60409 H 6060.3 -4.54427 -2.28852 0
M  V30 60410 H 6059.7 -2.77281 -4.93084 0
M  V30 60411 H 6058.26 -3.52428 -5.48304 0
M  V30 60412 N 6061.69 0.315375 -1.54412 0
M  V30 60413 C 6062.93 1.06047 -1.74738 0
M  V30 60414 C 6063.29 1.84976 -0.514576 0
M  V30 60415 O 6064.49 2.62125 -0.59532 0
M  V30 60416 C 6062.76 1.95407 -2.99251 0
M  V30 60417 S 6064.32 2.76757 -3.40516 0
M  V30 60418 H 6061.14 0.357882 -0.614363 0
M  V30 60419 H 6063.74 0.335513 -1.92599 0
M  V30 60420 H 6062.45 1.36272 -3.87115 0
M  V30 60421 H 6061.98 2.72294 -2.83936 0
M  V30 60422 H 6063.99 3.97904 -2.96458 0
M  V30 60423 N 6063.17 1.46624 0.577854 0
M  V30 60424 C 6064.4 1.55539 1.35983 0
M  V30 60425 C 6064.8 0.197131 1.8817 0
M  V30 60426 O 6064.15 -0.816551 1.64554 0
M  V30 60427 C 6064.21 2.50359 2.57993 0
M  V30 60428 C 6063.87 3.96499 2.27239 0
M  V30 60429 C 6064.87 4.85574 1.8578 0
M  V30 60430 C 6062.56 4.4167 2.39234 0
M  V30 60431 C 6064.55 6.17834 1.56716 0
M  V30 60432 C 6062.24 5.73964 2.09783 0
M  V30 60433 C 6063.23 6.61866 1.6859 0
M  V30 60434 O 6062.92 7.91703 1.39503 0
M  V30 60435 H 6062.65 0.528427 0.421594 0
M  V30 60436 H 6065.21 1.92776 0.70897 0
M  V30 60437 H 6063.44 2.08148 3.259 0
M  V30 60438 H 6065.13 2.49627 3.20064 0
M  V30 60439 H 6065.89 4.5193 1.76023 0
M  V30 60440 H 6061.77 3.73472 2.70259 0
M  V30 60441 H 6065.32 6.86402 1.2449 0
M  V30 60442 H 6061.21 6.07155 2.19165 0
M  V30 60443 H 6061.98 8.04014 1.53307 0
M  V30 60444 N 6064.64 -0.822893 1.34411 0
M  V30 60445 C 6065.92 -1.56487 1.1735 0
M  V30 60446 C 6066.3 -2.09568 -0.253891 0
M  V30 60447 O 6065.65 -1.90936 -1.25522 0
M  V30 60448 C 6065.86 -2.68623 2.22807 0
M  V30 60449 C 6067.21 -3.3739 2.57785 0
M  V30 60450 O 6068.23 -2.78879 2.21596 0
M  V30 60451 O 6067.09 -4.43051 3.1995 0
M  V30 60452 H 6064.18 -0.690648 0.454901 0
M  V30 60453 H 6066.73 -0.864264 1.46043 0
M  V30 60454 H 6065.5 -2.27155 3.18616 0
M  V30 60455 H 6065.13 -3.46334 1.95291 0
M  V30 60456 N 6066.12 -1.18141 -1.0431 0
M  V30 60457 C 6067.35 -1.00068 -1.81662 0
M  V30 60458 C 6067.77 0.446216 -1.82731 0
M  V30 60459 O 6067.13 1.32 -1.24281 0
M  V30 60460 C 6067.18 -1.55709 -3.25249 0
M  V30 60461 O 6066.28 -0.776804 -4.05018 0
M  V30 60462 H 6065.62 -0.354671 -0.561342 0
M  V30 60463 H 6068.15 -1.56842 -1.31384 0
M  V30 60464 H 6068.16 -1.58317 -3.76032 0
M  V30 60465 H 6066.84 -2.61028 -3.23786 0
M  V30 60466 H 6065.42 -0.822851 -3.63708 0
M  V30 60467 N 6067.6 1.23182 -0.983053 0
M  V30 60468 C 6068.83 1.96239 -0.671183 0
M  V30 60469 C 6069.25 1.72251 0.755731 0
M  V30 60470 O 6068.61 0.995608 1.51517 0
M  V30 60471 C 6068.66 3.47289 -0.970693 0
M  V30 60472 O 6067.76 4.1235 -0.0641264 0
M  V30 60473 H 6067.1 0.614253 -0.252169 0
M  V30 60474 H 6069.63 1.56546 -1.31737 0
M  V30 60475 H 6069.64 3.97757 -0.908485 0
M  V30 60476 H 6068.32 3.64076 -2.01052 0
M  V30 60477 H 6066.89 3.72461 -0.180973 0
M  V30 60478 N 6069.08 0.75503 1.38337 0
M  V30 60479 C 6070.49 0.379341 1.82806 0
M  V30 60480 C 6070.84 -1.09222 1.62988 0
M  V30 60481 O 6069.97 -1.84441 1.13184 0
M  V30 60482 C 6070.56 0.681744 3.3187 0
M  V30 60483 C 6069.12 0.359315 3.74681 0
M  V30 60484 C 6068.27 0.934182 2.61091 0
M  V30 60485 H 6071.22 0.951064 1.27045 0
M  V30 60486 H 6071.24 -0.0395465 3.80479 0
M  V30 60487 H 6070.75 1.75283 3.46262 0
M  V30 60488 H 6068.85 -0.705128 3.65867 0
M  V30 60489 H 6068.96 0.855876 4.71393 0
M  V30 60490 H 6067.33 0.359468 2.52151 0
M  V30 60491 H 6068.11 2.01033 2.78282 0
M  V30 60492 N 6070.56 -1.49316 0.50422 0
M  V30 60493 C 6071.8 -2.04366 -0.0374791 0
M  V30 60494 C 6072.16 -1.37526 -1.3398 0
M  V30 60495 O 6073.36 -1.83315 -1.96594 0
M  V30 60496 C 6071.63 -3.56929 -0.183398 0
M  V30 60497 S 6073.19 -4.33517 -0.678882 0
M  V30 60498 H 6070.01 -0.711 -0.000239722 0
M  V30 60499 H 6072.61 -1.83333 0.678921 0
M  V30 60500 H 6071.32 -4.03118 0.769687 0
M  V30 60501 H 6070.85 -3.82372 -0.924943 0
M  V30 60502 H 6072.86 -4.56383 -1.94753 0
M  V30 60503 N 6072.03 -0.238193 -1.5579 0
M  V30 60504 C 6072.94 0.67597 -2.2465 0
M  V30 60505 C 6073.96 1.20034 -1.25968 0
M  V30 60506 O 6075.14 1.23844 -1.58822 0
M  V30 60507 C 6072.2 1.86004 -2.92581 0
M  V30 60508 C 6071.26 1.376 -4.06651 0
M  V30 60509 C 6070.5 2.50363 -4.71332 0
M  V30 60510 O 6070.72 3.68891 -4.35058 0
M  V30 60511 O 6069.65 2.20617 -5.60011 0
M  V30 60512 H 6073.48 0.119265 -3.03466 0
M  V30 60513 H 6071.06 -0.00705041 -1.49398 0
M  V30 60514 H 6072.95 2.5512 -3.35398 0
M  V30 60515 H 6071.62 2.40453 -2.16712 0
M  V30 60516 H 6070.53 0.652373 -3.68368 0
M  V30 60517 H 6071.86 0.877701 -4.84311 0
M  V30 60518 N 6073.51 1.57561 0.0350229 0
M  V30 60519 C 6074.93 1.54747 0.390563 0
M  V30 60520 C 6075.13 0.963516 1.76971 0
M  V30 60521 O 6074.18 0.581964 2.45702 0
M  V30 60522 C 6075.5 2.99221 0.297879 0
M  V30 60523 C 6077.05 3.10741 0.375397 0
M  V30 60524 C 6077.52 4.56935 0.312226 0
M  V30 60525 N 6079.01 4.6171 0.371201 0
M  V30 60526 C 6079.75 5.7236 0.345119 0
M  V30 60527 N 6079.24 6.92267 0.271678 0
M  V30 60528 N 6081.04 5.60715 0.394408 0
M  V30 60529 H 6073.19 1.93873 -0.867587 0
M  V30 60530 H 6075.45 0.888963 -0.329316 0
M  V30 60531 H 6075.16 3.45648 -0.649621 0
M  V30 60532 H 6075.03 3.60991 1.09387 0
M  V30 60533 H 6077.42 2.64264 1.31333 0
M  V30 60534 H 6077.5 2.51814 -0.44984 0
M  V30 60535 H 6077.14 5.04077 -0.622011 0
M  V30 60536 H 6077.07 5.13766 1.15549 0
M  V30 60537 H 6079.56 3.75437 0.430716 0
M  V30 60538 H 6079.88 7.72374 0.256712 0
M  V30 60539 H 6078.22 6.94593 0.237814 0
M  V30 60540 H 6081.41 4.65935 0.449732 0
M  V30 60541 H 6081.58 6.46939 0.370612 0
M  V30 60542 N 6074.99 -0.307182 1.54577 0
M  V30 60543 C 6075.92 -1.40013 1.81463 0
M  V30 60544 C 6076.94 -1.47111 0.697298 0
M  V30 60545 O 6078.13 -1.4954 0.974679 0
M  V30 60546 C 6075.23 -2.78432 1.93207 0
M  V30 60547 C 6074.4 -2.94341 3.23546 0
M  V30 60548 C 6073.46 -4.13221 3.25784 0
M  V30 60549 O 6072.48 -4.056 3.99346 0
M  V30 60550 N 6073.69 -5.23558 2.50734 0
M  V30 60551 H 6076.45 -1.17307 2.75788 0
M  V30 60552 H 6074.01 -0.497232 1.54075 0
M  V30 60553 H 6076 -3.56195 1.92113 0
M  V30 60554 H 6074.57 -2.94114 1.05905 0
M  V30 60555 H 6073.79 -2.03743 3.37465 0
M  V30 60556 H 6075.08 -3.01878 4.0957 0
M  V30 60557 H 6074.48 -5.32628 1.90587 0
M  V30 60558 H 6073.04 -5.99678 2.554 0
M  V30 60559 N 6076.47 -1.46928 -0.57007 0
M  V30 60560 C 6077.88 -1.46904 -1.15221 0
M  V30 60561 C 6078.23 -0.21672 -1.94999 0
M  V30 60562 O 6077.36 0.679316 -2.05461 0
M  V30 60563 C 6077.95 -2.66165 -2.09622 0
M  V30 60564 C 6076.51 -2.69142 -2.63134 0
M  V30 60565 C 6075.66 -2.398 -1.39253 0
M  V30 60566 H 6078.61 -1.54625 -0.357336 0
M  V30 60567 H 6078.63 -2.42403 -2.93293 0
M  V30 60568 H 6078.14 -3.57296 -1.51531 0
M  V30 60569 H 6076.24 -1.82117 -3.2506 0
M  V30 60570 H 6076.36 -3.6947 -3.05006 0
M  V30 60571 H 6074.72 -1.90116 -1.69493 0
M  V30 60572 H 6075.5 -3.33122 -0.829738 0
M  V30 60573 N 6077.95 0.815754 -1.34845 0
M  V30 60574 C 6079.19 1.58583 -1.2896 0
M  V30 60575 C 6079.55 1.91513 0.136702 0
M  V30 60576 O 6080.75 2.66891 0.319809 0
M  V30 60577 C 6079.02 2.84576 -2.1622 0
M  V30 60578 S 6080.58 3.75061 -2.2776 0
M  V30 60579 H 6077.4 0.543463 -0.458441 0
M  V30 60580 H 6080 0.963 -1.70137 0
M  V30 60581 H 6078.71 2.58393 -3.18843 0
M  V30 60582 H 6078.24 3.51851 -1.75967 0
M  V30 60583 H 6080.25 4.74368 -1.45566 0
M  V30 60584 N 6079.43 1.18692 1.03682 0
M  V30 60585 C 6080.36 0.8752 2.11832 0
M  V30 60586 C 6081.37 -0.128808 1.6229 0
M  V30 60587 O 6082.56 0.0995462 1.78222 0
M  V30 60588 C 6079.66 0.287033 3.37682 0
M  V30 60589 C 6078.83 1.33765 4.16444 0
M  V30 60590 C 6077.89 0.764469 5.20617 0
M  V30 60591 O 6076.92 1.44017 5.50679 0
M  V30 60592 N 6078.12 -0.436141 5.78859 0
M  V30 60593 H 6080.88 1.80609 2.39166 0
M  V30 60594 H 6078.45 1.08784 1.19907 0
M  V30 60595 H 6080.44 -0.110076 4.0455 0
M  V30 60596 H 6079.01 -0.547964 3.0776 0
M  V30 60597 H 6078.23 1.90992 3.44842 0
M  V30 60598 H 6079.52 2.04583 4.65858 0
M  V30 60599 H 6078.91 -1.00277 5.56741 0
M  V30 60600 H 6077.47 -0.775126 6.47175 0
M  V30 60601 N 6080.9 -1.22659 0.989572 0
M  V30 60602 C 6081.85 -2.22261 0.508357 0
M  V30 60603 C 6082.84 -1.55277 -0.42164 0
M  V30 60604 O 6084.03 -1.7524 -0.249001 0
M  V30 60605 C 6081.16 -3.42833 -0.178938 0
M  V30 60606 C 6080.24 -4.1703 0.771167 0
M  V30 60607 N 6080.64 -4.68039 1.91763 0
M  V30 60608 C 6078.93 -4.42129 0.586364 0
M  V30 60609 C 6079.63 -5.24584 2.5137 0
M  V30 60610 N 6078.61 -5.13049 1.7967 0
M  V30 60611 H 6082.41 -2.59338 1.38279 0
M  V30 60612 H 6079.93 -1.38292 0.851409 0
M  V30 60613 H 6081.92 -4.13374 -0.541051 0
M  V30 60614 H 6080.58 -3.0727 -1.04955 0
M  V30 60615 H 6081.59 -4.64099 2.29853 0
M  V30 60616 H 6078.27 -4.16818 -0.238457 0
M  V30 60617 H 6079.66 -5.74611 3.48241 0
M  V30 60618 N 6082.38 -0.762356 -1.37934 0
M  V30 60619 C 6083.63 -0.321802 -1.99522 0
M  V30 60620 C 6083.95 1.10281 -1.6082 0
M  V30 60621 O 6083.22 1.75562 -0.869178 0
M  V30 60622 H 6081.8 -0.115993 -0.737939 0
M  V30 60623 H 6084.46 -0.978398 -1.68563 0
M  V30 60624 H 6083.56 -0.391927 -3.09629 0
M  V30 60625 N 6083.86 1.49047 -0.512132 0
M  V30 60626 C 6084.82 2.27839 0.249411 0
M  V30 60627 C 6085.82 1.34324 0.883956 0
M  V30 60628 O 6087.01 1.57382 0.746765 0
M  V30 60629 C 6084.14 3.12642 1.35897 0
M  V30 60630 H 6085.34 2.96623 -0.442133 0
M  V30 60631 H 6082.89 1.53995 -0.26746 0
M  V30 60632 H 6083.63 2.48449 2.08432 0
M  V30 60633 H 6083.41 3.81411 0.909293 0
M  V30 60634 H 6084.9 3.72123 1.8951 0
M  V30 60635 N 6085.34 0.246452 1.55661 0
M  V30 60636 C 6086.57 -0.382573 2.03332 0
M  V30 60637 C 6086.98 -1.51569 1.12572 0
M  V30 60638 O 6086.34 -1.81962 0.140056 0
M  V30 60639 C 6086.39 -0.890784 3.50353 0
M  V30 60640 O 6086.11 0.197177 4.37656 0
M  V30 60641 C 6087.61 -1.59054 4.13783 0
M  V30 60642 H 6084.83 -0.09096 0.664806 0
M  V30 60643 H 6087.37 0.370184 2.01122 0
M  V30 60644 H 6085.53 -1.59372 3.531 0
M  V30 60645 H 6085.94 -0.188662 5.24161 0
M  V30 60646 H 6087.42 -1.89786 5.18348 0
M  V30 60647 H 6087.89 -2.51235 3.60246 0
M  V30 60648 H 6088.5 -0.932188 4.14958 0
M  V30 60649 N 6086.82 -1.57577 -0.0266666 0
M  V30 60650 C 6088.06 -1.91231 -0.721811 0
M  V30 60651 C 6088.42 -0.845277 -1.72392 0
M  V30 60652 O 6089.62 -1.06622 -2.46749 0
M  V30 60653 C 6087.89 -3.30027 -1.37175 0
M  V30 60654 S 6089.45 -3.8552 -2.09571 0
M  V30 60655 H 6086.27 -0.669603 -0.239066 0
M  V30 60656 H 6088.87 -1.95486 0.0236134 0
M  V30 60657 H 6087.57 -4.05548 -0.629201 0
M  V30 60658 H 6087.11 -3.29081 -2.15567 0
M  V30 60659 H 6089.12 -3.64441 -3.36745 0
M  V30 60660 N 6088.29 0.29898 -1.54738 0
M  V30 60661 C 6089.23 1.39347 -1.80714 0
M  V30 60662 C 6090.2 1.48671 -0.65846 0
M  V30 60663 O 6091.39 1.65701 -0.898637 0
M  V30 60664 C 6088.52 2.7724 -1.94566 0
M  V30 60665 C 6087.56 2.85329 -3.17001 0
M  V30 60666 S 6088.39 2.47219 -4.75019 0
M  V30 60667 C 6089.55 3.87135 -4.9181 0
M  V30 60668 H 6089.78 1.17105 -2.73265 0
M  V30 60669 H 6087.32 0.497203 -1.46175 0
M  V30 60670 H 6089.27 3.56661 -2.03232 0
M  V30 60671 H 6087.94 2.96749 -1.02949 0
M  V30 60672 H 6087.13 3.86475 -3.23501 0
M  V30 60673 H 6086.73 2.13904 -3.06791 0
M  V30 60674 H 6089.02 4.82153 -4.75957 0
M  V30 60675 H 6089.97 3.85603 -5.93899 0
M  V30 60676 H 6090.37 3.77232 -4.19948 0
M  V30 60677 N 6089.77 1.47229 0.56227 0
M  V30 60678 C 6091.18 1.47513 1.14441 0
M  V30 60679 C 6091.53 0.227058 1.94882 0
M  V30 60680 O 6090.66 -0.66841 2.05818 0
M  V30 60681 C 6091.25 2.67273 2.08208 0
M  V30 60682 C 6089.81 2.70534 2.61703 0
M  V30 60683 C 6088.96 2.40535 1.37979 0
M  V30 60684 H 6091.91 1.54812 0.349131 0
M  V30 60685 H 6091.93 2.43955 2.92004 0
M  V30 60686 H 6091.44 3.58094 1.49634 0
M  V30 60687 H 6089.55 1.83839 3.2409 0
M  V30 60688 H 6089.66 3.71082 3.03043 0
M  V30 60689 H 6088.02 1.91012 1.68482 0
M  V30 60690 H 6088.81 3.33557 0.81206 0
M  V30 60691 N 6091.25 -0.808591 1.35276 0
M  V30 60692 C 6092.21 -1.90191 1.27907 0
M  V30 60693 C 6093.21 -1.59662 0.190971 0
M  V30 60694 O 6094.4 -1.68432 0.444541 0
M  V30 60695 C 6091.54 -3.26563 0.978221 0
M  V30 60696 H 6092.73 -1.98144 2.2512 0
M  V30 60697 H 6090.28 -1.00422 1.19771 0
M  V30 60698 H 6091.02 -3.24298 0.00987189 0
M  V30 60699 H 6090.8 -3.50107 1.76543 0
M  V30 60700 H 6092.29 -4.06599 0.952213 0
M  V30 60701 N 6092.73 -1.1924 -1.03051 0
M  V30 60702 C 6093.98 -0.99207 -1.76075 0
M  V30 60703 C 6094.3 0.478468 -1.89039 0
M  V30 60704 O 6093.57 1.34661 -1.42279 0
M  V30 60705 H 6092.15 -0.364082 -0.652268 0
M  V30 60706 H 6094.81 -1.50105 -1.24316 0
M  V30 60707 H 6093.91 -1.43872 -2.76961 0
M  V30 60708 N 6094.21 1.22132 -0.996063 0
M  V30 60709 C 6095.12 2.27867 -0.558007 0
M  V30 60710 C 6096.13 1.69464 0.394721 0
M  V30 60711 O 6097.31 1.99705 0.26077 0
M  V30 60712 C 6094.37 3.46501 0.117312 0
M  V30 60713 C 6093.43 4.2021 -0.878775 0
M  V30 60714 C 6092.67 5.3318 -0.235588 0
M  V30 60715 O 6092.89 5.62096 0.969757 0
M  V30 60716 O 6091.82 5.94482 -0.942037 0
M  V30 60717 H 6095.65 2.67512 -1.43774 0
M  V30 60718 H 6093.24 1.2836 -0.764473 0
M  V30 60719 H 6095.12 4.18477 0.495443 0
M  V30 60720 H 6093.79 3.08775 0.971565 0
M  V30 60721 H 6092.7 3.50492 -1.3079 0
M  V30 60722 H 6094.03 4.61824 -1.70233 0
M  V30 60723 N 6095.68 0.76966 1.37528 0
M  V30 60724 C 6096.91 0.343855 2.03718 0
M  V30 60725 C 6097.32 -1.03811 1.58177 0
M  V30 60726 O 6096.67 -1.67357 0.757449 0
M  V30 60727 C 6096.73 0.30597 3.58196 0
M  V30 60728 C 6096.39 1.63217 4.2686 0
M  V30 60729 C 6097.39 2.58424 4.51124 0
M  V30 60730 C 6095.07 1.90603 4.64732 0
M  V30 60731 C 6097.07 3.79226 5.12315 0
M  V30 60732 C 6094.75 3.11676 5.25644 0
M  V30 60733 C 6095.75 4.05807 5.49372 0
M  V30 60734 O 6095.44 5.24748 6.09011 0
M  V30 60735 H 6095.17 0.142382 0.660835 0
M  V30 60736 H 6097.73 1.04405 1.76886 0
M  V30 60737 H 6095.96 -0.450589 3.84066 0
M  V30 60738 H 6097.65 -0.0924842 4.05795 0
M  V30 60739 H 6098.41 2.38547 4.2228 0
M  V30 60740 H 6094.29 1.18164 4.45599 0
M  V30 60741 H 6097.83 4.52713 5.30751 0
M  V30 60742 H 6093.73 3.31439 5.53912 0
M  V30 60743 H 6094.5 5.25545 6.2749 0
M  V30 60744 N 6097.16 -1.48773 0.520029 0
M  V30 60745 C 6098.07 -2.3324 -0.252247 0
M  V30 60746 C 6099.09 -1.45855 -0.948798 0
M  V30 60747 O 6100.26 -1.78851 -0.925967 0
M  V30 60748 C 6097.33 -3.21745 -1.29155 0
M  V30 60749 C 6096.39 -4.24995 -0.606415 0
M  V30 60750 C 6095.62 -5.09271 -1.5962 0
M  V30 60751 O 6095.85 -4.95363 -2.82792 0
M  V30 60752 O 6094.78 -5.90985 -1.14106 0
M  V30 60753 H 6098.61 -3.00501 0.439633 0
M  V30 60754 H 6096.19 -1.46732 0.281083 0
M  V30 60755 H 6098.07 -3.76518 -1.89241 0
M  V30 60756 H 6096.75 -2.57156 -1.96602 0
M  V30 60757 H 6095.66 -3.74084 0.0346762 0
M  V30 60758 H 6096.99 -4.92193 0.0259357 0
M  V30 60759 N 6098.64 -0.254703 -1.55528 0
M  V30 60760 C 6099.89 0.367862 -1.99131 0
M  V30 60761 C 6100.22 1.57376 -1.14293 0
M  V30 60762 O 6099.47 1.9472 -0.195612 0
M  V30 60763 C 6099.77 0.813658 -3.48015 0
M  V30 60764 C 6099.44 -0.285345 -4.49996 0
M  V30 60765 C 6098.1 -0.587164 -4.77604 0
M  V30 60766 C 6100.45 -1.02691 -5.10983 0
M  V30 60767 C 6097.78 -1.63449 -5.63473 0
M  V30 60768 C 6100.13 -2.06381 -5.97988 0
M  V30 60769 C 6098.79 -2.37219 -6.23926 0
M  V30 60770 H 6098.06 0.13461 -0.728671 0
M  V30 60771 H 6100.71 -0.364157 -1.88006 0
M  V30 60772 H 6099.02 1.62501 -3.56512 0
M  V30 60773 H 6100.71 1.30576 -3.79145 0
M  V30 60774 H 6097.3 -0.0399694 -4.28581 0
M  V30 60775 H 6101.49 -0.806986 -4.89695 0
M  V30 60776 H 6096.74 -1.87866 -5.81821 0
M  V30 60777 H 6100.92 -2.64329 -6.44285 0
M  V30 60778 H 6098.54 -3.18511 -6.90257 0
M  V30 60779 N 6100.12 1.57589 0.0183095 0
M  V30 60780 C 6101.05 2.04075 1.04336 0
M  V30 60781 C 6102.06 0.955412 1.31817 0
M  V30 60782 O 6103.25 1.23254 1.29115 0
M  V30 60783 C 6100.35 2.4102 2.38249 0
M  V30 60784 C 6099.53 3.72065 2.29971 0
M  V30 60785 C 6098.58 3.96079 3.46421 0
M  V30 60786 O 6097.61 4.66994 3.25431 0
M  V30 60787 N 6098.81 3.42551 4.68657 0
M  V30 60788 H 6101.58 2.92631 0.647065 0
M  V30 60789 H 6099.14 1.60583 0.206053 0
M  V30 60790 H 6101.13 2.54214 3.14893 0
M  V30 60791 H 6099.7 1.58078 2.69685 0
M  V30 60792 H 6098.92 3.69122 1.38356 0
M  V30 60793 H 6100.21 4.58011 2.21594 0
M  V30 60794 H 6099.61 2.85091 4.8861 0
M  V30 60795 H 6098.16 3.61106 5.42628 0
M  V30 60796 N 6101.6 -0.29077 1.54894 0
M  V30 60797 C 6102.84 -1.03254 1.76403 0
M  V30 60798 C 6103.2 -1.84134 0.543938 0
M  V30 60799 O 6104.4 -2.61144 0.636946 0
M  V30 60800 C 6102.67 -1.90621 3.02322 0
M  V30 60801 S 6104.23 -2.71304 3.44876 0
M  V30 60802 H 6101.05 -0.348063 0.619979 0
M  V30 60803 H 6103.65 -0.304829 1.93109 0
M  V30 60804 H 6102.36 -1.30096 3.89234 0
M  V30 60805 H 6101.89 -2.67742 2.88232 0
M  V30 60806 H 6103.9 -3.93137 3.0275 0
M  V30 60807 N 6103.07 -1.47525 -0.554454 0
M  V30 60808 C 6104 -1.63098 -1.67096 0
M  V30 60809 C 6104.99 -0.480356 -1.63177 0
M  V30 60810 O 6106.17 -0.71002 -1.80755 0
M  V30 60811 C 6103.3 -1.64762 -3.0573 0
M  V30 60812 C 6102.25 -2.79079 -3.24498 0
M  V30 60813 C 6101.58 -2.65817 -4.63946 0
M  V30 60814 C 6102.88 -4.20642 -3.09609 0
M  V30 60815 H 6104.57 -2.56566 -1.54319 0
M  V30 60816 H 6102.12 -1.23473 -0.74098 0
M  V30 60817 H 6104.07 -1.74247 -3.83687 0
M  V30 60818 H 6102.8 -0.678565 -3.19473 0
M  V30 60819 H 6101.46 -2.69109 -2.4895 0
M  V30 60820 H 6101.1 -1.66933 -4.74492 0
M  V30 60821 H 6100.8 -3.42511 -4.77452 0
M  V30 60822 H 6102.33 -2.77235 -5.44034 0
M  V30 60823 H 6103.74 -4.31575 -3.77381 0
M  V30 60824 H 6102.14 -4.98144 -3.34622 0
M  V30 60825 H 6103.21 -4.38816 -2.06321 0
M  V30 60826 N 6104.55 0.801406 -1.35703 0
M  V30 60827 C 6105.79 1.57206 -1.30635 0
M  V30 60828 C 6106.16 1.91647 0.116382 0
M  V30 60829 O 6107.36 2.67215 0.291484 0
M  V30 60830 C 6105.63 2.82267 -2.19226 0
M  V30 60831 S 6107.19 3.72624 -2.31725 0
M  V30 60832 H 6104.01 0.53857 -0.46418 0
M  V30 60833 H 6106.61 0.944901 -1.71149 0
M  V30 60834 H 6105.31 2.54997 -3.21566 0
M  V30 60835 H 6104.84 3.49965 -1.79689 0
M  V30 60836 H 6106.86 4.72797 -1.50589 0
M  V30 60837 N 6106.03 1.19785 1.02417 0
M  V30 60838 C 6107.45 0.951079 1.28166 0
M  V30 60839 C 6107.65 -0.373814 1.98002 0
M  V30 60840 O 6106.7 -1.10419 2.27077 0
M  V30 60841 C 6108.02 2.12841 2.12413 0
M  V30 60842 C 6109.56 2.16855 2.25705 0
M  V30 60843 C 6110.04 3.34052 3.13326 0
M  V30 60844 N 6111.53 3.34018 3.20914 0
M  V30 60845 C 6112.27 4.21347 3.88915 0
M  V30 60846 N 6111.76 5.18839 4.59105 0
M  V30 60847 N 6113.55 4.0921 3.85361 0
M  V30 60848 H 6105.71 2.05019 0.55505 0
M  V30 60849 H 6107.97 0.896727 0.307545 0
M  V30 60850 H 6107.67 3.08748 1.68426 0
M  V30 60851 H 6107.55 2.10299 3.13136 0
M  V30 60852 H 6109.94 1.21516 2.6892 0
M  V30 60853 H 6110.02 2.23448 1.24517 0
M  V30 60854 H 6109.66 4.29674 2.70818 0
M  V30 60855 H 6109.59 3.24696 4.14584 0
M  V30 60856 H 6112.08 2.6345 2.70929 0
M  V30 60857 H 6112.39 5.81814 5.08638 0
M  V30 60858 H 6110.74 5.22783 4.57955 0
M  V30 60859 H 6113.93 3.3232 3.29668 0
M  V30 60860 H 6114.1 4.77481 4.38082 0
M  V30 60861 N 6107.51 -1.21603 1.00253 0
M  V30 60862 C 6108.79 -1.86189 0.599414 0
M  V30 60863 C 6109.17 -1.89851 -0.923037 0
M  V30 60864 O 6108.51 -1.39601 -1.80897 0
M  V30 60865 C 6108.72 -3.26571 1.23094 0
M  V30 60866 C 6110.07 -4.02984 1.3375 0
M  V30 60867 O 6111.1 -3.35873 1.18607 0
M  V30 60868 O 6109.96 -5.23136 1.58084 0
M  V30 60869 H 6107.05 -0.801196 0.204972 0
M  V30 60870 H 6109.6 -1.29305 1.09902 0
M  V30 60871 H 6108.37 -3.18593 2.27187 0
M  V30 60872 H 6107.99 -3.91072 0.717532 0
M  V30 60873 N 6108.99 -0.776943 -1.37118 0
M  V30 60874 C 6110.24 -0.342946 -1.99169 0
M  V30 60875 C 6110.56 1.08569 -1.61981 0
M  V30 60876 O 6109.83 1.7463 -0.88775 0
M  V30 60877 H 6108.41 -0.123814 -0.736668 0
M  V30 60878 H 6111.07 -0.996221 -1.67515 0
M  V30 60879 H 6110.16 -0.424745 -3.09196 0
M  V30 60880 N 6110.47 1.48495 -0.527912 0
M  V30 60881 C 6111.71 2.02499 0.00694039 0
M  V30 60882 C 6112.04 1.40521 1.34478 0
M  V30 60883 O 6111.3 0.539641 1.88113 0
M  V30 60884 C 6111.59 3.56946 0.180151 0
M  V30 60885 C 6111.26 4.37699 -1.08307 0
M  V30 60886 C 6109.92 4.59484 -1.42927 0
M  V30 60887 C 6112.27 4.84488 -1.92148 0
M  V30 60888 C 6109.6 5.25304 -2.61291 0
M  V30 60889 C 6111.95 5.51612 -3.09689 0
M  V30 60890 C 6110.62 5.71636 -3.44658 0
M  V30 60891 H 6109.89 0.740996 0.00253967 0
M  V30 60892 H 6112.54 1.78501 -0.693516 0
M  V30 60893 H 6110.84 3.79772 0.963357 0
M  V30 60894 H 6112.54 3.96351 0.60887 0
M  V30 60895 H 6109.13 4.21002 -0.803441 0
M  V30 60896 H 6113.31 4.67462 -1.66713 0
M  V30 60897 H 6108.57 5.39005 -2.88589 0
M  V30 60898 H 6112.74 5.86836 -3.74963 0
M  V30 60899 H 6110.37 6.22411 -4.36473 0
M  V30 60900 N 6111.94 0.262948 1.55391 0
M  V30 60901 C 6112.89 -0.629775 2.22042 0
M  V30 60902 C 6113.86 -1.1591 1.1897 0
M  V30 60903 O 6115.05 -1.21064 1.47473 0
M  V30 60904 C 6112.19 -1.8137 2.93596 0
M  V30 60905 C 6111.3 -1.31938 4.11359 0
M  V30 60906 C 6110.43 -2.46414 4.70589 0
M  V30 60907 C 6109.47 -1.93923 5.80569 0
M  V30 60908 N 6108.61 -3.01826 6.33913 0
M  V30 60909 H 6113.45 -0.0547426 2.9795 0
M  V30 60910 H 6110.99 -0.0152555 1.47092 0
M  V30 60911 H 6112.94 -2.50944 3.33291 0
M  V30 60912 H 6111.57 -2.36096 2.20133 0
M  V30 60913 H 6110.63 -0.517149 3.76868 0
M  V30 60914 H 6111.94 -0.89482 4.90708 0
M  V30 60915 H 6111.09 -3.24002 5.1294 0
M  V30 60916 H 6109.83 -2.92179 3.9049 0
M  V30 60917 H 6108.84 -1.14811 5.37679 0
M  V30 60918 H 6110.06 -1.49108 6.62528 0
M  V30 60919 H 6108.01 -3.46996 5.56714 0
M  V30 60920 H 6107.92 -2.6375 7.085 0
M  V30 60921 H 6109.19 -3.79425 6.80923 0
M  V30 60922 N 6113.42 -1.57597 -0.00995191 0
M  V30 60923 C 6114.67 -1.89756 -0.695492 0
M  V30 60924 C 6114.99 -0.863045 -1.74861 0
M  V30 60925 O 6114.26 0.10088 -1.9564 0
M  V30 60926 H 6112.84 -0.70034 -0.25987 0
M  V30 60927 H 6115.5 -1.94879 0.0286206 0
M  V30 60928 H 6114.6 -2.89217 -1.17303 0
M  V30 60929 N 6114.9 0.282551 -1.55046 0
M  V30 60930 C 6116.18 1.03611 -1.65904 0
M  V30 60931 C 6116.56 2.04614 -0.519279 0
M  V30 60932 O 6115.9 2.23362 0.481832 0
M  V30 60933 C 6116.11 1.70148 -3.04714 0
M  V30 60934 C 6117.46 2.21664 -3.62146 0
M  V30 60935 O 6118.49 1.8015 -3.07285 0
M  V30 60936 O 6117.35 2.97783 -4.58244 0
M  V30 60937 H 6114.44 0.480017 -0.673434 0
M  V30 60938 H 6116.99 0.279169 -1.67388 0
M  V30 60939 H 6115.76 0.969071 -3.7911 0
M  V30 60940 H 6115.38 2.52553 -3.07088 0
M  V30 60941 N 6116.38 1.47817 0.546623 0
M  V30 60942 C 6117.31 1.63982 1.66229 0
M  V30 60943 C 6118.29 0.489003 1.6292 0
M  V30 60944 O 6119.47 0.719596 1.80376 0
M  V30 60945 C 6116.6 1.66381 3.04852 0
M  V30 60946 C 6115.56 2.80796 3.23013 0
M  V30 60947 C 6114.88 2.68274 4.62529 0
M  V30 60948 C 6116.18 4.22278 3.07373 0
M  V30 60949 H 6117.88 2.57381 1.52956 0
M  V30 60950 H 6115.42 1.23864 0.734421 0
M  V30 60951 H 6117.38 1.7628 3.82758 0
M  V30 60952 H 6116.1 0.695498 3.19109 0
M  V30 60953 H 6114.76 2.70425 2.47519 0
M  V30 60954 H 6114.41 1.69447 4.736 0
M  V30 60955 H 6114.11 3.45038 4.75628 0
M  V30 60956 H 6115.63 2.80116 5.42556 0
M  V30 60957 H 6117.05 4.3357 3.75087 0
M  V30 60958 H 6115.44 4.99912 3.31976 0
M  V30 60959 H 6116.51 4.39904 2.03991 0
M  V30 60960 N 6117.86 -0.794198 1.36126 0
M  V30 60961 C 6119.1 -1.56511 1.31467 0
M  V30 60962 C 6119.46 -1.91706 -0.106217 0
M  V30 60963 O 6120.66 -2.67366 -0.277309 0
M  V30 60964 C 6118.93 -2.81101 2.2072 0
M  V30 60965 S 6120.49 -3.7139 2.33698 0
M  V30 60966 H 6117.31 -0.536101 0.46703 0
M  V30 60967 H 6119.91 -0.935811 1.71647 0
M  V30 60968 H 6118.61 -2.53288 3.22914 0
M  V30 60969 H 6118.15 -3.49007 1.81542 0
M  V30 60970 H 6120.16 -4.71992 1.53094 0
M  V30 60971 N 6119.33 -1.20327 -1.0178 0
M  V30 60972 C 6120.24 -0.966678 -2.13758 0
M  V30 60973 C 6121.26 0.0770447 -1.73829 0
M  V30 60974 O 6122.44 -0.110125 -2.01099 0
M  V30 60975 C 6119.5 -0.520525 -3.4277 0
M  V30 60976 C 6118.56 -1.63496 -3.96948 0
M  V30 60977 C 6117.8 -1.21 -5.19803 0
M  V30 60978 O 6118.02 -0.0781819 -5.70346 0
M  V30 60979 O 6116.95 -2.01694 -5.67101 0
M  V30 60980 H 6120.78 -1.90422 -2.36586 0
M  V30 60981 H 6118.36 -0.987036 -1.12151 0
M  V30 60982 H 6120.25 -0.280895 -4.20463 0
M  V30 60983 H 6118.92 0.38845 -3.21361 0
M  V30 60984 H 6117.83 -1.92886 -3.2054 0
M  V30 60985 H 6119.16 -2.52089 -4.22743 0
M  V30 60986 N 6120.81 1.21069 -1.00896 0
M  V30 60987 C 6121.76 2.21424 -0.543652 0
M  V30 60988 C 6122.75 1.55928 0.396883 0
M  V30 60989 O 6123.94 1.75614 0.22109 0
M  V30 60990 C 6121.07 3.43075 0.124374 0
M  V30 60991 C 6120.15 4.1575 -0.837416 0
M  V30 60992 N 6120.54 4.64929 -1.99185 0
M  V30 60993 C 6118.84 4.4114 -0.656629 0
M  V30 60994 C 6119.54 5.20518 -2.59684 0
M  V30 60995 N 6118.52 5.10126 -1.8781 0
M  V30 60996 H 6122.32 2.57105 -1.42387 0
M  V30 60997 H 6119.84 1.3692 -0.873302 0
M  V30 60998 H 6121.83 4.14183 0.475218 0
M  V30 60999 H 6120.49 3.089 1.00053 0
M  V30 61000 H 6121.5 4.60384 -2.37207 0
M  V30 61001 H 6118.18 4.17145 0.172115 0
M  V30 61002 H 6119.57 5.68998 -3.57338 0
M  V30 61003 N 6122.29 0.784204 1.36704 0
M  V30 61004 C 6123.2 0.180042 2.33908 0
M  V30 61005 C 6124.22 -0.665035 1.6079 0
M  V30 61006 O 6125.39 -0.582043 1.92806 0
M  V30 61007 C 6122.46 -0.679203 3.39982 0
M  V30 61008 C 6121.52 0.183768 4.28906 0
M  V30 61009 C 6120.75 -0.634561 5.29914 0
M  V30 61010 O 6120.97 -1.87088 5.38845 0
M  V30 61011 O 6119.91 -0.0371997 6.01889 0
M  V30 61012 H 6123.73 0.9836 2.87331 0
M  V30 61013 H 6121.32 0.54557 1.39082 0
M  V30 61014 H 6123.2 -1.16934 4.04851 0
M  V30 61015 H 6121.88 -1.46074 2.88867 0
M  V30 61016 H 6120.78 0.720548 3.67095 0
M  V30 61017 H 6122.12 0.928691 4.83359 0
M  V30 61018 N 6123.77 -1.48213 0.535779 0
M  V30 61019 C 6124.68 -2.33494 -0.227495 0
M  V30 61020 C 6125.69 -1.46854 -0.933275 0
M  V30 61021 O 6126.87 -1.79823 -0.906945 0
M  V30 61022 C 6123.94 -3.23097 -1.25735 0
M  V30 61023 C 6123 -4.25615 -0.561304 0
M  V30 61024 C 6122.23 -5.10935 -1.5421 0
M  V30 61025 O 6122.45 -4.98335 -2.77522 0
M  V30 61026 O 6121.39 -5.92162 -1.07831 0
M  V30 61027 H 6125.21 -3.00018 0.47148 0
M  V30 61028 H 6122.8 -1.46426 0.29663 0
M  V30 61029 H 6124.68 -3.78504 -1.85236 0
M  V30 61030 H 6123.35 -2.59227 -1.93863 0
M  V30 61031 H 6122.26 -3.74026 0.0743509 0
M  V30 61032 H 6123.59 -4.92138 0.0781379 0
M  V30 61033 N 6125.25 -0.271185 -1.55249 0
M  V30 61034 C 6126.19 0.634008 -2.23793 0
M  V30 61035 C 6127.19 1.16096 -1.23361 0
M  V30 61036 O 6128.39 1.11505 -1.41304 0
M  V30 61037 H 6124.77 0.222998 -0.718175 0
M  V30 61038 H 6126.74 0.0330255 -2.98382 0
M  V30 61039 C 6125.49 1.80868 -2.96954 0
M  V30 61040 H 6124.81 1.41239 -3.74021 0
M  V30 61041 H 6126.25 2.41876 -3.48241 0
M  V30 61042 C 6124.71 2.69474 -2.02201 0
M  V30 61043 O 6125.24 3.69719 -1.57069 0
M  V30 61044 N 6123.45 2.36559 -1.68785 0
M  V30 61045 H 6122.99 1.55088 -2.05683 0
M  V30 61046 H 6122.95 2.96115 -1.05657 0
M  V30 61047 N 6126.72 1.576 0.00159402 0
M  V30 61048 C 6128.14 1.7858 0.544618 0
M  V30 61049 C 6128.49 0.905636 1.74048 0
M  V30 61050 O 6127.61 0.10769 2.16132 0
M  V30 61051 C 6128.21 3.23866 0.994784 0
M  V30 61052 C 6126.77 3.45948 1.48313 0
M  V30 61053 C 6125.91 2.73889 0.433606 0
M  V30 61054 H 6128.86 1.57103 -0.224579 0
M  V30 61055 H 6128.88 3.31891 1.86087 0
M  V30 61056 H 6128.4 3.87901 0.124215 0
M  V30 61057 H 6126.5 2.87126 2.37464 0
M  V30 61058 H 6126.61 4.54626 1.51169 0
M  V30 61059 H 6124.97 2.38462 0.894886 0
M  V30 61060 H 6125.76 3.40622 -0.427969 0
M  V30 61061 N 6128.2 -0.274325 1.55194 0
M  V30 61062 C 6129.44 -1.01377 1.77488 0
M  V30 61063 C 6129.81 -1.83547 0.563438 0
M  V30 61064 O 6131.01 -2.60454 0.664608 0
M  V30 61065 C 6129.28 -1.87404 3.04326 0
M  V30 61066 S 6130.84 -2.67631 3.47734 0
M  V30 61067 H 6127.66 -0.341467 0.623635 0
M  V30 61068 H 6130.26 -0.28433 1.93421 0
M  V30 61069 H 6128.96 -1.2596 3.90592 0
M  V30 61070 H 6128.49 -2.6467 2.91055 0
M  V30 61071 H 6130.51 -3.89904 3.06903 0
M  V30 61072 N 6129.68 -1.48105 -0.538776 0
M  V30 61073 C 6130.61 -1.5805 -1.65991 0
M  V30 61074 C 6131.63 -0.46537 -1.56007 0
M  V30 61075 O 6132.81 -0.735826 -1.62628 0
M  V30 61076 C 6129.91 -1.48598 -3.04585 0
M  V30 61077 C 6129.09 -2.74999 -3.40138 0
M  V30 61078 C 6128.15 -2.59125 -4.57975 0
M  V30 61079 O 6127.17 -3.3299 -4.61634 0
M  V30 61080 N 6128.37 -1.68162 -5.55609 0
M  V30 61081 H 6131.14 -2.54731 -1.57899 0
M  V30 61082 H 6128.7 -1.44717 -0.72585 0
M  V30 61083 H 6130.69 -1.35686 -3.81276 0
M  V30 61084 H 6129.26 -0.599265 -3.06802 0
M  V30 61085 H 6128.48 -3.0254 -2.52712 0
M  V30 61086 H 6129.77 -3.58875 -3.60674 0
M  V30 61087 H 6129.17 -1.07336 -5.55424 0
M  V30 61088 H 6127.73 -1.61193 -6.31554 0
M  V30 61089 N 6131.16 0.786968 -1.36545 0
M  V30 61090 C 6132.09 1.91394 -1.33756 0
M  V30 61091 C 6133.07 1.68816 -0.208618 0
M  V30 61092 O 6134.25 1.89895 -0.406641 0
M  V30 61093 C 6131.38 3.28453 -1.12853 0
M  V30 61094 C 6130.34 3.6556 -2.22598 0
M  V30 61095 C 6129.66 5.00995 -1.86836 0
M  V30 61096 C 6130.96 3.73889 -3.64697 0
M  V30 61097 H 6132.66 1.93985 -2.28057 0
M  V30 61098 H 6130.2 0.931899 -1.0978 0
M  V30 61099 H 6132.16 4.06915 -1.09536 0
M  V30 61100 H 6130.88 3.26255 -0.150033 0
M  V30 61101 H 6129.54 2.89397 -2.25045 0
M  V30 61102 H 6129.19 4.95321 -0.875535 0
M  V30 61103 H 6128.89 5.26793 -2.60313 0
M  V30 61104 H 6130.41 5.81875 -1.85079 0
M  V30 61105 H 6131.83 4.42537 -3.64464 0
M  V30 61106 H 6130.22 4.11173 -4.37101 0
M  V30 61107 H 6131.29 2.74932 -3.99425 0
M  V30 61108 N 6132.64 1.20865 1.01141 0
M  V30 61109 C 6134.05 0.964619 1.27151 0
M  V30 61110 C 6134.25 -0.352792 1.98388 0
M  V30 61111 O 6133.31 -1.08004 2.28235 0
M  V30 61112 C 6134.62 2.15082 2.10144 0
M  V30 61113 C 6136.17 2.19237 2.23392 0
M  V30 61114 C 6136.64 3.37357 3.09765 0
M  V30 61115 N 6138.14 3.37403 3.17354 0
M  V30 61116 C 6138.87 4.25448 3.84424 0
M  V30 61117 N 6138.37 5.2368 4.53576 0
M  V30 61118 N 6140.16 4.13274 3.81 0
M  V30 61119 H 6132.31 2.05597 0.533274 0
M  V30 61120 H 6134.57 0.899939 0.298017 0
M  V30 61121 H 6134.28 3.10517 1.65142 0
M  V30 61122 H 6134.15 2.13609 3.10888 0
M  V30 61123 H 6136.54 1.24361 2.67616 0
M  V30 61124 H 6136.62 2.24757 1.2214 0
M  V30 61125 H 6136.27 4.32522 2.66246 0
M  V30 61126 H 6136.2 3.29075 4.11117 0
M  V30 61127 H 6138.69 2.66309 2.68119 0
M  V30 61128 H 6139 5.87176 5.02438 0
M  V30 61129 H 6137.34 5.27611 4.52384 0
M  V30 61130 H 6140.54 3.35798 3.26125 0
M  V30 61131 H 6140.71 4.821 4.32993 0
M  V30 61132 N 6134.12 -1.20532 1.01537 0
M  V30 61133 C 6135.03 -2.26951 0.594189 0
M  V30 61134 C 6136.04 -1.7007 -0.367711 0
M  V30 61135 O 6137.22 -2.00094 -0.228966 0
M  V30 61136 C 6134.28 -3.46644 -0.062172 0
M  V30 61137 C 6133.34 -4.18758 0.945516 0
M  V30 61138 C 6132.58 -5.32737 0.320382 0
M  V30 61139 O 6132.8 -5.63568 -0.880209 0
M  V30 61140 O 6131.73 -5.92908 1.0365 0
M  V30 61141 H 6135.56 -2.65191 1.48012 0
M  V30 61142 H 6133.14 -1.27127 0.784797 0
M  V30 61143 H 6135.03 -4.19213 -0.428804 0
M  V30 61144 H 6133.7 -3.10282 -0.922319 0
M  V30 61145 H 6132.61 -3.48367 1.36349 0
M  V30 61146 H 6133.94 -4.59057 1.77559 0
M  V30 61147 N 6135.59 -0.791442 -1.36286 0
M  V30 61148 C 6137 -0.427675 -1.81736 0
M  V30 61149 C 6137.36 1.04862 -1.65826 0
M  V30 61150 O 6136.48 1.81375 -1.18034 0
M  V30 61151 C 6137.08 -0.769494 -3.29946 0
M  V30 61152 C 6135.63 -0.458529 -3.73597 0
M  V30 61153 C 6134.78 -1.00308 -2.58522 0
M  V30 61154 H 6137.73 -0.984413 -1.24479 0
M  V30 61155 H 6137.75 -0.0613448 -3.80451 0
M  V30 61156 H 6137.27 -1.84402 -3.41493 0
M  V30 61157 H 6135.37 0.607877 -3.67608 0
M  V30 61158 H 6135.48 -0.980557 -4.68958 0
M  V30 61159 H 6133.84 -0.426195 -2.51109 0
M  V30 61160 H 6134.63 -2.0834 -2.72854 0
M  V30 61161 N 6137.07 1.47927 -0.543632 0
M  V30 61162 C 6138.31 2.04393 -0.0167181 0
M  V30 61163 C 6138.68 1.4103 1.30286 0
M  V30 61164 O 6139.88 1.88463 1.91664 0
M  V30 61165 C 6138.15 3.5729 0.0887005 0
M  V30 61166 S 6139.71 4.35164 0.563704 0
M  V30 61167 H 6136.52 0.710756 -0.0186113 0
M  V30 61168 H 6139.13 1.81468 -0.72729 0
M  V30 61169 H 6137.83 4.00935 -0.876296 0
M  V30 61170 H 6137.36 3.8469 0.823239 0
M  V30 61171 H 6139.38 4.61386 1.82585 0
M  V30 61172 N 6138.55 0.279414 1.55103 0
M  V30 61173 C 6139.48 -0.599752 2.25666 0
M  V30 61174 C 6140.46 -1.15543 1.24835 0
M  V30 61175 O 6141.65 -1.18878 1.53563 0
M  V30 61176 C 6138.78 -1.78191 2.98103 0
M  V30 61177 C 6137.73 -1.35757 4.05899 0
M  V30 61178 C 6137.06 -2.62317 4.65933 0
M  V30 61179 C 6138.36 -0.504613 5.19857 0
M  V30 61180 H 6140.05 -0.0112709 2.99398 0
M  V30 61181 H 6137.6 -0.00398087 1.43999 0
M  V30 61182 H 6139.55 -2.40288 3.46179 0
M  V30 61183 H 6138.27 -2.39629 2.21913 0
M  V30 61184 H 6136.93 -0.759784 3.5864 0
M  V30 61185 H 6136.58 -3.22023 3.86407 0
M  V30 61186 H 6136.28 -2.34635 5.38721 0
M  V30 61187 H 6137.8 -3.25255 5.16761 0
M  V30 61188 H 6139.22 -1.03069 5.63959 0
M  V30 61189 H 6137.61 -0.322485 5.99233 0
M  V30 61190 H 6138.68 0.475578 4.82562 0
M  V30 61191 N 6140.03 -1.57599 0.00676391 0
M  V30 61192 C 6140.98 -2.05331 -0.991122 0
M  V30 61193 C 6141.96 -0.949348 -1.29908 0
M  V30 61194 O 6143.15 -1.21307 -1.28893 0
M  V30 61195 C 6140.28 -2.56571 -2.28093 0
M  V30 61196 C 6139.37 -3.73856 -2.00231 0
M  V30 61197 N 6139.76 -4.85296 -1.42553 0
M  V30 61198 C 6138.06 -3.81916 -2.3034 0
M  V30 61199 C 6138.76 -5.66684 -1.31316 0
M  V30 61200 N 6137.73 -5.12896 -1.80109 0
M  V30 61201 H 6141.54 -2.88901 -0.539776 0
M  V30 61202 H 6139.05 -1.61179 -0.198778 0
M  V30 61203 H 6141.05 -2.89046 -3.0043 0
M  V30 61204 H 6139.71 -1.74422 -2.73874 0
M  V30 61205 H 6140.72 -5.06008 -1.10345 0
M  V30 61206 H 6137.4 -3.10634 -2.78949 0
M  V30 61207 H 6138.79 -6.66256 -0.869067 0
M  V30 61208 N 6141.51 0.266091 -1.55337 0
M  V30 61209 C 6142.75 0.994801 -1.75921 0
M  V30 61210 C 6143.07 1.86568 -0.567212 0
M  V30 61211 O 6142.34 1.91396 0.417671 0
M  V30 61212 H 6140.92 0.370295 -0.648761 0
M  V30 61213 H 6143.59 0.288657 -1.92751 0
M  V30 61214 H 6142.68 1.62772 -2.66293 0
M  V30 61215 N 6142.98 1.48388 0.530914 0
M  V30 61216 C 6144.23 1.56049 1.28425 0
M  V30 61217 C 6144.55 0.235763 1.9357 0
M  V30 61218 O 6143.82 -0.742613 1.81279 0
M  V30 61219 H 6142.4 0.574885 0.476987 0
M  V30 61220 H 6145.06 1.84846 0.61789 0
M  V30 61221 H 6144.16 2.34104 2.06402 0
M  V30 61222 N 6144.46 -0.779715 1.36961 0
M  V30 61223 C 6145.69 -1.5687 1.34905 0
M  V30 61224 C 6146.1 -1.88679 -0.0674682 0
M  V30 61225 O 6145.46 -1.50856 -1.02707 0
M  V30 61226 C 6145.51 -2.88383 2.17985 0
M  V30 61227 O 6145.23 -2.57941 3.54116 0
M  V30 61228 C 6146.73 -3.82649 2.23819 0
M  V30 61229 H 6143.95 -0.486246 0.462391 0
M  V30 61230 H 6146.5 -0.967008 1.80192 0
M  V30 61231 H 6144.65 -3.44997 1.76227 0
M  V30 61232 H 6145.07 -3.42101 3.97576 0
M  V30 61233 H 6146.54 -4.71957 2.86288 0
M  V30 61234 H 6147.02 -4.21204 1.24435 0
M  V30 61235 H 6147.62 -3.31966 2.65854 0
M  V30 61236 N 6145.94 -1.21399 -1.00498 0
M  V30 61237 C 6147.18 -1.04267 -1.75806 0
M  V30 61238 C 6147.54 0.416539 -1.87427 0
M  V30 61239 O 6148.74 0.708386 -2.59298 0
M  V30 61240 C 6147.02 -1.72072 -3.13251 0
M  V30 61241 S 6148.57 -1.70195 -4.04449 0
M  V30 61242 H 6145.39 -0.373637 -0.60491 0
M  V30 61243 H 6147.99 -1.54145 -1.20247 0
M  V30 61244 H 6146.7 -2.77428 -3.02426 0
M  V30 61245 H 6146.23 -1.22373 -3.73883 0
M  V30 61246 H 6148.24 -0.74305 -4.90605 0
M  V30 61247 N 6147.42 1.19992 -1.02175 0
M  V30 61248 C 6148.35 2.2239 -0.554538 0
M  V30 61249 C 6149.36 1.58637 0.365804 0
M  V30 61250 O 6150.55 1.77751 0.163331 0
M  V30 61251 C 6147.65 3.38236 0.212115 0
M  V30 61252 C 6146.82 4.31576 -0.711405 0
M  V30 61253 C 6145.88 5.26199 0.00857815 0
M  V30 61254 O 6144.91 5.65861 -0.615634 0
M  V30 61255 N 6146.11 5.66173 1.28172 0
M  V30 61256 H 6148.88 2.63102 -1.43518 0
M  V30 61257 H 6146.44 1.34586 -0.899901 0
M  V30 61258 H 6148.43 3.98545 0.703142 0
M  V30 61259 H 6147 2.96372 0.994101 0
M  V30 61260 H 6146.22 3.69156 -1.38265 0
M  V30 61261 H 6147.51 4.90856 -1.33932 0
M  V30 61262 H 6146.91 5.35972 1.80971 0
M  V30 61263 H 6145.46 6.28768 1.71738 0
M  V30 61264 N 6148.9 0.798659 1.35865 0
M  V30 61265 C 6150.14 0.374589 1.98598 0
M  V30 61266 C 6150.47 -1.05978 1.63688 0
M  V30 61267 O 6149.74 -1.73196 0.91542 0
M  V30 61268 H 6148.32 0.135518 0.734605 0
M  V30 61269 H 6150.98 1.02275 1.65909 0
M  V30 61270 H 6150.07 0.473882 3.08481 0
M  V30 61271 N 6150.37 -1.47637 0.551469 0
M  V30 61272 C 6151.6 -2.06878 0.0299631 0
M  V30 61273 C 6152.02 -1.40498 -1.26118 0
M  V30 61274 O 6151.37 -0.499574 -1.75529 0
M  V30 61275 C 6151.43 -3.61075 -0.175322 0
M  V30 61276 O 6151.15 -4.24966 1.06469 0
M  V30 61277 C 6152.65 -4.37168 -0.734766 0
M  V30 61278 H 6149.87 -0.669605 0.0432377 0
M  V30 61279 H 6152.41 -1.89723 0.763244 0
M  V30 61280 H 6150.57 -3.77763 -0.858715 0
M  V30 61281 H 6150.98 -5.17421 0.858826 0
M  V30 61282 H 6152.45 -5.45759 -0.827723 0
M  V30 61283 H 6152.93 -4.03059 -1.74472 0
M  V30 61284 H 6153.54 -4.2521 -0.087255 0
M  V30 61285 N 6151.85 -0.287636 -1.54953 0
M  V30 61286 C 6153.27 0.0661532 -1.59463 0
M  V30 61287 C 6153.47 1.53552 -1.30477 0
M  V30 61288 O 6152.52 2.28629 -1.07169 0
M  V30 61289 C 6153.84 -0.319756 -2.98995 0
M  V30 61290 C 6155.39 -0.26741 -3.11856 0
M  V30 61291 C 6155.86 -0.627943 -4.53675 0
M  V30 61292 N 6157.35 -0.579969 -4.59555 0
M  V30 61293 C 6158.09 -0.831576 -5.67338 0
M  V30 61294 N 6157.58 -1.14845 -6.83215 0
M  V30 61295 N 6159.38 -0.759533 -5.56945 0
M  V30 61296 H 6151.53 -1.2454 -1.72057 0
M  V30 61297 H 6153.79 -0.503997 -0.802926 0
M  V30 61298 H 6153.5 -1.34213 -3.25084 0
M  V30 61299 H 6153.37 0.333241 -3.75725 0
M  V30 61300 H 6155.76 0.745693 -2.85523 0
M  V30 61301 H 6155.84 -0.954842 -2.37311 0
M  V30 61302 H 6155.48 -1.63879 -4.80735 0
M  V30 61303 H 6155.41 0.0814156 -5.26537 0
M  V30 61304 H 6157.9 -0.345442 -3.76318 0
M  V30 61305 H 6158.22 -1.32677 -7.61326 0
M  V30 61306 H 6156.56 -1.18636 -6.848 0
M  V30 61307 H 6159.75 -0.511726 -4.65295 0
M  V30 61308 H 6159.92 -0.958996 -6.40864 0
M  V30 61309 N 6153.33 1.57593 -0.0151216 0
M  V30 61310 C 6154.57 1.93077 0.670855 0
M  V30 61311 C 6154.93 0.890686 1.70091 0
M  V30 61312 O 6156.14 1.13127 2.43836 0
M  V30 61313 C 6154.41 3.33548 1.28376 0
M  V30 61314 S 6155.97 3.90941 1.99276 0
M  V30 61315 H 6152.78 0.675706 0.221229 0
M  V30 61316 H 6155.39 1.95354 -0.0754347 0
M  V30 61317 H 6154.09 4.07074 0.521456 0
M  V30 61318 H 6153.62 3.34681 2.06766 0
M  V30 61319 H 6155.64 3.73241 3.26965 0
M  V30 61320 N 6154.81 -0.257849 1.55476 0
M  V30 61321 C 6155.74 -1.32296 1.92406 0
M  V30 61322 C 6156.72 -1.50764 0.78767 0
M  V30 61323 O 6157.9 -1.63555 1.04706 0
M  V30 61324 C 6155.03 -2.67976 2.20921 0
M  V30 61325 C 6153.99 -2.64219 3.36708 0
M  V30 61326 C 6153.31 -4.03591 3.50739 0
M  V30 61327 C 6154.61 -2.2216 4.72697 0
M  V30 61328 H 6156.31 -1.01636 2.81621 0
M  V30 61329 H 6153.85 -0.487476 1.35498 0
M  V30 61330 H 6155.81 -3.42614 2.45344 0
M  V30 61331 H 6154.53 -3.0025 1.28521 0
M  V30 61332 H 6153.19 -1.92038 3.12277 0
M  V30 61333 H 6152.84 -4.33113 2.55778 0
M  V30 61334 H 6152.54 -4.01968 4.28597 0
M  V30 61335 H 6154.06 -4.79945 3.77472 0
M  V30 61336 H 6155.48 -2.86526 4.96564 0
M  V30 61337 H 6153.87 -2.3167 5.53578 0
M  V30 61338 H 6154.94 -1.17309 4.70496 0
M  V30 61339 N 6156.29 -1.48668 -0.523038 0
M  V30 61340 C 6157.53 -1.58641 -1.28889 0
M  V30 61341 C 6157.89 -0.25747 -1.90266 0
M  V30 61342 O 6159.09 -0.232233 -2.67795 0
M  V30 61343 C 6157.36 -2.69802 -2.34397 0
M  V30 61344 S 6158.92 -2.99586 -3.20615 0
M  V30 61345 H 6155.74 -0.559808 -0.438333 0
M  V30 61346 H 6158.34 -1.86223 -0.595072 0
M  V30 61347 H 6157.05 -3.64911 -1.87798 0
M  V30 61348 H 6156.58 -2.44143 -3.08477 0
M  V30 61349 H 6158.59 -2.39415 -4.3462 0
M  V30 61350 N 6157.76 0.772441 -1.37372 0
M  V30 61351 C 6158.69 1.89965 -1.35778 0
M  V30 61352 C 6159.68 1.68585 -0.226511 0
M  V30 61353 O 6160.86 1.89453 -0.426759 0
M  V30 61354 C 6157.99 3.27238 -1.16331 0
M  V30 61355 C 6156.94 3.63179 -2.26462 0
M  V30 61356 C 6156.27 4.98986 -1.92139 0
M  V30 61357 C 6157.57 3.7 -3.68643 0
M  V30 61358 H 6159.26 1.91556 -2.30102 0
M  V30 61359 H 6156.81 0.920203 -1.10762 0
M  V30 61360 H 6158.76 4.0573 -1.13846 0
M  V30 61361 H 6157.49 3.26078 -0.184628 0
M  V30 61362 H 6156.15 2.86993 -2.28102 0
M  V30 61363 H 6155.79 4.94365 -0.928022 0
M  V30 61364 H 6155.49 5.24002 -2.65886 0
M  V30 61365 H 6157.02 5.79879 -1.9124 0
M  V30 61366 H 6158.43 4.38646 -3.69137 0
M  V30 61367 H 6156.83 4.06514 -4.41437 0
M  V30 61368 H 6157.9 2.7068 -4.02319 0
M  V30 61369 N 6159.24 1.21931 0.998532 0
M  V30 61370 C 6160.65 1.03813 1.55176 0
M  V30 61371 C 6161 -0.400135 1.92076 0
M  V30 61372 O 6160.13 -1.2843 1.74168 0
M  V30 61373 C 6160.72 1.87824 2.81971 0
M  V30 61374 C 6159.28 1.7402 3.33758 0
M  V30 61375 C 6158.43 1.84637 2.06892 0
M  V30 61376 H 6161.38 1.35858 0.820258 0
M  V30 61377 H 6161.4 1.39231 3.54112 0
M  V30 61378 H 6160.91 2.92496 2.55083 0
M  V30 61379 H 6159.02 0.720573 3.65566 0
M  V30 61380 H 6159.13 2.56363 4.04741 0
M  V30 61381 H 6157.49 1.28015 2.20191 0
M  V30 61382 H 6158.28 2.9083 1.82408 0
M  V30 61383 N 6160.72 -1.19449 1.02809 0
M  V30 61384 C 6161.97 -1.88738 0.722665 0
M  V30 61385 C 6162.29 -1.7996 -0.750964 0
M  V30 61386 O 6161.56 -1.20954 -1.541 0
M  V30 61387 H 6160.14 -0.698674 0.264318 0
M  V30 61388 H 6162.8 -1.45017 1.30216 0
M  V30 61389 H 6161.9 -2.9509 1.01628 0
M  V30 61390 N 6162.2 -0.805853 -1.35439 0
M  V30 61391 C 6163.45 -0.385878 -1.98789 0
M  V30 61392 C 6163.77 1.04675 -1.63931 0
M  V30 61393 O 6163.03 1.74077 -0.894186 0
M  V30 61394 C 6163.33 -0.515459 -3.53663 0
M  V30 61395 C 6162.99 -1.91129 -4.08388 0
M  V30 61396 C 6161.66 -2.29317 -4.23045 0
M  V30 61397 C 6164.01 -2.82453 -4.38029 0
M  V30 61398 C 6161.34 -3.58198 -4.64662 0
M  V30 61399 C 6163.69 -4.10779 -4.81086 0
M  V30 61400 C 6162.35 -4.48967 -4.93948 0
M  V30 61401 H 6161.62 -0.141203 -0.727422 0
M  V30 61402 H 6164.27 -1.0265 -1.61664 0
M  V30 61403 H 6162.57 0.208616 -3.91244 0
M  V30 61404 H 6164.27 -0.171293 -4.00634 0
M  V30 61405 H 6160.86 -1.6046 -3.9743 0
M  V30 61406 H 6165.04 -2.54198 -4.26259 0
M  V30 61407 H 6160.3 -3.87635 -4.7281 0
M  V30 61408 H 6164.47 -4.81644 -5.02983 0
M  V30 61409 H 6162.1 -5.48886 -5.25955 0
M  V30 61410 N 6163.68 1.47342 -0.559291 0
M  V30 61411 C 6164.9 2.07363 -0.0389593 0
M  V30 61412 C 6165.33 1.40891 1.24625 0
M  V30 61413 O 6164.69 0.484601 1.74703 0
M  V30 61414 C 6164.73 3.60337 0.137767 0
M  V30 61415 O 6163.84 3.9456 1.19986 0
M  V30 61416 H 6163.18 0.66194 -0.0522596 0
M  V30 61417 H 6165.71 1.89331 -0.775567 0
M  V30 61418 H 6165.72 4.06485 0.351319 0
M  V30 61419 H 6164.39 4.08115 -0.80092 0
M  V30 61420 H 6162.97 3.60154 0.966631 0
M  V30 61421 N 6165.16 0.295849 1.54798 0
M  V30 61422 C 6166.4 -0.314314 1.99641 0
M  V30 61423 C 6166.72 -1.54806 1.18575 0
M  V30 61424 O 6165.99 -1.93883 0.280421 0
M  V30 61425 H 6164.57 -0.119127 0.73744 0
M  V30 61426 H 6167.24 0.405987 1.90625 0
M  V30 61427 H 6166.33 -0.589913 3.06474 0
M  V30 61428 N 6166.63 -1.57583 0.023479 0
M  V30 61429 C 6168.04 -1.79424 -0.516138 0
M  V30 61430 C 6168.4 -0.933211 -1.72585 0
M  V30 61431 O 6167.52 -0.142061 -2.15933 0
M  V30 61432 C 6168.12 -3.25408 -0.943134 0
M  V30 61433 C 6166.67 -3.48264 -1.4279 0
M  V30 61434 C 6165.82 -2.74544 -0.389978 0
M  V30 61435 H 6168.77 -1.56726 0.249545 0
M  V30 61436 H 6168.79 -3.3481 -1.80784 0
M  V30 61437 H 6168.31 -3.8805 -0.0624877 0
M  V30 61438 H 6166.41 -2.90868 -2.32866 0
M  V30 61439 H 6166.52 -4.56973 -1.43917 0
M  V30 61440 H 6164.88 -2.39855 -0.856835 0
M  V30 61441 H 6165.67 -3.39898 0.482105 0
M  V30 61442 N 6168.11 0.2496 -1.55611 0
M  V30 61443 C 6169.53 0.59798 -1.47974 0
M  V30 61444 C 6169.73 1.88459 -0.713134 0
M  V30 61445 O 6168.78 2.51343 -0.241402 0
M  V30 61446 C 6170.1 0.703215 -2.92362 0
M  V30 61447 C 6171.64 0.795721 -3.02716 0
M  V30 61448 C 6172.12 0.932541 -4.48406 0
M  V30 61449 N 6173.61 0.997479 -4.52332 0
M  V30 61450 C 6174.35 1.12256 -5.62304 0
M  V30 61451 N 6173.84 1.21335 -6.82092 0
M  V30 61452 N 6175.63 1.1555 -5.50095 0
M  V30 61453 H 6167.79 -0.595047 -2.03894 0
M  V30 61454 H 6170.05 -0.204989 -0.925572 0
M  V30 61455 H 6169.75 -0.172105 -3.51279 0
M  V30 61456 H 6169.63 1.57602 -3.42697 0
M  V30 61457 H 6172.02 1.6615 -2.43882 0
M  V30 61458 H 6172.1 -0.102177 -2.55596 0
M  V30 61459 H 6171.74 0.0713338 -5.0785 0
M  V30 61460 H 6171.67 1.84544 -4.93205 0
M  V30 61461 H 6174.16 0.938766 -3.66054 0
M  V30 61462 H 6174.47 1.30779 -7.61654 0
M  V30 61463 H 6172.82 1.18298 -6.84858 0
M  V30 61464 H 6176.01 1.08104 -4.55446 0
M  V30 61465 H 6176.18 1.24954 -6.35838 0
M  V30 61466 N 6169.59 1.48943 0.515146 0
M  V30 61467 C 6170.83 1.59322 1.28046 0
M  V30 61468 C 6171.19 0.267557 1.90127 0
M  V30 61469 O 6172.39 0.246432 2.67668 0
M  V30 61470 C 6170.67 2.71041 2.32962 0
M  V30 61471 S 6172.22 3.01282 3.19022 0
M  V30 61472 H 6169.04 0.562125 0.435358 0
M  V30 61473 H 6171.64 1.86536 0.585188 0
M  V30 61474 H 6170.35 3.65902 1.8586 0
M  V30 61475 H 6169.88 2.45775 3.07177 0
M  V30 61476 H 6171.89 2.41717 4.33344 0
M  V30 61477 N 6171.07 -0.765145 1.3778 0
M  V30 61478 C 6172 -1.88796 1.29957 0
M  V30 61479 C 6173.01 -1.61387 0.214052 0
M  V30 61480 O 6174.2 -1.72182 0.470718 0
M  V30 61481 C 6171.3 -3.24175 0.988118 0
M  V30 61482 C 6170.47 -3.79178 2.18042 0
M  V30 61483 C 6169.53 -4.93048 1.83821 0
M  V30 61484 O 6168.56 -5.08287 2.5619 0
M  V30 61485 N 6169.76 -5.75151 0.786264 0
M  V30 61486 H 6172.53 -1.9602 2.26707 0
M  V30 61487 H 6170.09 -0.944556 1.3149 0
M  V30 61488 H 6172.08 -3.97879 0.739911 0
M  V30 61489 H 6170.65 -3.1241 0.108962 0
M  V30 61490 H 6169.87 -2.97176 2.58999 0
M  V30 61491 H 6171.16 -4.12659 2.97641 0
M  V30 61492 H 6170.56 -5.65395 0.185876 0
M  V30 61493 H 6169.11 -6.49052 0.597926 0
M  V30 61494 N 6172.55 -1.22459 -0.992051 0
M  V30 61495 C 6173.48 -0.953217 -2.08438 0
M  V30 61496 C 6174.49 0.068486 -1.62656 0
M  V30 61497 O 6175.68 -0.165624 -1.7773 0
M  V30 61498 C 6172.78 -0.412164 -3.36384 0
M  V30 61499 C 6171.95 -1.49129 -4.11193 0
M  V30 61500 C 6171.01 -0.957166 -5.17421 0
M  V30 61501 O 6170.04 -1.64356 -5.44955 0
M  V30 61502 N 6171.24 0.221001 -5.80079 0
M  V30 61503 H 6174 -1.89361 -2.32298 0
M  V30 61504 H 6171.57 -1.13159 -1.15787 0
M  V30 61505 H 6173.56 -0.0401456 -4.0468 0
M  V30 61506 H 6172.13 0.433364 -3.09582 0
M  V30 61507 H 6171.35 -2.03659 -3.37516 0
M  V30 61508 H 6172.64 -2.21732 -4.57944 0
M  V30 61509 H 6172.03 0.795445 -5.6008 0
M  V30 61510 H 6170.59 0.534397 -6.49606 0
M  V30 61511 N 6174.02 1.18902 -1.03441 0
M  V30 61512 C 6175.27 1.88352 -0.732664 0
M  V30 61513 C 6175.59 1.80356 0.74141 0
M  V30 61514 O 6174.86 1.2177 1.53457 0
M  V30 61515 H 6173.44 0.697262 -0.26802 0
M  V30 61516 H 6176.1 1.44324 -1.30983 0
M  V30 61517 H 6175.2 2.94547 -1.03191 0
M  V30 61518 N 6175.5 0.813024 1.3501 0
M  V30 61519 C 6176.73 0.40804 2.03346 0
M  V30 61520 C 6177.15 -0.975092 1.60853 0
M  V30 61521 O 6176.51 -1.63265 0.788313 0
M  V30 61522 C 6176.56 0.50688 3.5702 0
M  V30 61523 O 6175.66 -0.477178 4.0963 0
M  V30 61524 H 6175 0.169439 0.642018 0
M  V30 61525 H 6177.53 1.1007 1.7247 0
M  V30 61526 H 6177.54 0.379026 4.06236 0
M  V30 61527 H 6176.22 1.51571 3.87297 0
M  V30 61528 H 6174.79 -0.30903 3.71617 0
M  V30 61529 N 6176.98 -1.47043 0.567097 0
M  V30 61530 C 6178.23 -2.02046 0.0466587 0
M  V30 61531 C 6178.55 -1.44276 -1.31185 0
M  V30 61532 O 6177.82 -0.621599 -1.85777 0
M  V30 61533 H 6176.4 -0.746864 0.0142586 0
M  V30 61534 H 6179.06 -1.80332 0.739345 0
M  V30 61535 H 6178.16 -3.12081 -0.0340526 0
M  V30 61536 N 6178.46 -0.304054 -1.54639 0
M  V30 61537 C 6179.41 0.585823 -2.20345 0
M  V30 61538 C 6180.39 1.09659 -1.17745 0
M  V30 61539 O 6181.58 1.03685 -1.43452 0
M  V30 61540 C 6178.71 1.75576 -2.95005 0
M  V30 61541 C 6177.8 1.26081 -4.04925 0
M  V30 61542 N 6178.19 0.484091 -5.03478 0
M  V30 61543 C 6176.49 1.54128 -4.18522 0
M  V30 61544 C 6177.19 0.220148 -5.81283 0
M  V30 61545 N 6176.17 0.800813 -5.37669 0
M  V30 61546 H 6179.97 -0.015122 -2.93896 0
M  V30 61547 H 6177.48 -0.108962 -1.62034 0
M  V30 61548 H 6179.48 2.40485 -3.40548 0
M  V30 61549 H 6178.14 2.36037 -2.22972 0
M  V30 61550 H 6179.15 0.128709 -5.1774 0
M  V30 61551 H 6175.83 2.15316 -3.57695 0
M  V30 61552 H 6177.22 -0.403873 -6.70685 0
M  V30 61553 N 6179.94 1.57568 -0.0318356 0
M  V30 61554 C 6181.18 1.91533 0.644937 0
M  V30 61555 C 6181.51 0.909103 1.72512 0
M  V30 61556 O 6180.78 -0.0489739 1.95839 0
M  V30 61557 H 6179.36 0.706984 0.241211 0
M  V30 61558 H 6182.02 1.94735 -0.0802793 0
M  V30 61559 H 6181.11 2.92225 1.09594 0
M  V30 61560 N 6181.41 -0.241344 1.55741 0
M  V30 61561 C 6182.66 -0.966545 1.77033 0
M  V30 61562 C 6182.98 -1.86273 0.596796 0
M  V30 61563 O 6184.18 -2.6251 0.692867 0
M  V30 61564 C 6182.64 -1.76869 3.13441 0
M  V30 61565 C 6182.25 -0.91962 4.3846 0
M  V30 61566 C 6183.99 -2.48629 3.44069 0
M  V30 61567 C 6181.9 -1.71798 5.65897 0
M  V30 61568 H 6180.83 -0.364621 0.659976 0
M  V30 61569 H 6183.48 -0.221024 1.82164 0
M  V30 61570 H 6181.86 -2.55637 3.02433 0
M  V30 61571 H 6183.03 -0.173874 4.60472 0
M  V30 61572 H 6181.35 -0.315088 4.15206 0
M  V30 61573 H 6183.95 -3.08824 4.365 0
M  V30 61574 H 6184.29 -3.20525 2.65649 0
M  V30 61575 H 6184.82 -1.76867 3.56319 0
M  V30 61576 H 6181.56 -1.04266 6.47154 0
M  V30 61577 H 6181.08 -2.43886 5.47978 0
M  V30 61578 H 6182.76 -2.28371 6.05356 0
M  V30 61579 N 6182.89 -1.49214 -0.50724 0
M  V30 61580 C 6183.86 -1.64914 -1.59173 0
M  V30 61581 C 6184.86 -0.521229 -1.52118 0
M  V30 61582 O 6186.05 -0.787546 -1.55381 0
M  V30 61583 C 6183.18 -1.64067 -2.98822 0
M  V30 61584 H 6184.37 -2.61636 -1.46584 0
M  V30 61585 H 6181.92 -1.38152 -0.731014 0
M  V30 61586 H 6182.66 -0.689068 -3.16895 0
M  V30 61587 H 6182.44 -2.45973 -3.05352 0
M  V30 61588 H 6183.93 -1.78292 -3.77627 0
M  V30 61589 N 6184.37 0.757827 -1.38184 0
M  V30 61590 C 6185.28 1.90229 -1.37296 0
M  V30 61591 C 6186.3 1.71883 -0.270627 0
M  V30 61592 O 6187.47 1.94879 -0.508348 0
M  V30 61593 C 6184.54 3.25542 -1.19263 0
M  V30 61594 C 6183.6 3.56444 -2.39262 0
M  V30 61595 C 6182.83 4.853 -2.2208 0
M  V30 61596 O 6183.05 5.57369 -1.21229 0
M  V30 61597 O 6181.99 5.15583 -3.10576 0
M  V30 61598 H 6185.81 1.93932 -2.33718 0
M  V30 61599 H 6183.4 0.902518 -1.19059 0
M  V30 61600 H 6185.28 4.0645 -1.1125 0
M  V30 61601 H 6183.96 3.2266 -0.259223 0
M  V30 61602 H 6182.86 2.75714 -2.52849 0
M  V30 61603 H 6184.2 3.64082 -3.31218 0
M  V30 61604 N 6185.85 1.22983 0.985543 0
M  V30 61605 C 6187.07 1.08622 1.76681 0
M  V30 61606 C 6187.5 -0.358525 1.84652 0
M  V30 61607 O 6186.86 -1.2592 1.30437 0
M  V30 61608 C 6186.9 1.7105 3.1745 0
M  V30 61609 O 6186.01 0.969159 4.0085 0
M  V30 61610 H 6185.35 0.381049 0.543781 0
M  V30 61611 H 6187.88 1.62932 1.23752 0
M  V30 61612 H 6187.89 1.76077 3.6805 0
M  V30 61613 H 6186.56 2.76179 3.10963 0
M  V30 61614 H 6185.14 0.995444 3.59368 0
M  V30 61615 N 6187.33 -1.18352 1.04071 0
M  V30 61616 C 6188.6 -1.84188 0.658345 0
M  V30 61617 C 6188.98 -1.92691 -0.862171 0
M  V30 61618 O 6188.33 -1.45286 -1.76364 0
M  V30 61619 C 6188.54 -3.2249 1.33421 0
M  V30 61620 C 6189.89 -3.98525 1.46503 0
M  V30 61621 O 6190.91 -3.3193 1.29232 0
M  V30 61622 O 6189.77 -5.17842 1.74647 0
M  V30 61623 H 6186.87 -0.79427 0.230357 0
M  V30 61624 H 6189.41 -1.25743 1.1396 0
M  V30 61625 H 6188.18 -3.11204 2.37208 0
M  V30 61626 H 6187.81 -3.88591 0.841585 0
M  V30 61627 N 6188.8 -0.820173 -1.34577 0
M  V30 61628 C 6190.05 -0.416716 -1.99086 0
M  V30 61629 C 6190.41 1.00838 -1.63858 0
M  V30 61630 O 6189.7 1.69223 -0.89856 0
M  V30 61631 C 6189.89 -0.552941 -3.53097 0
M  V30 61632 C 6189.72 -1.98973 -4.03286 0
M  V30 61633 C 6188.49 -2.62102 -4.32008 0
M  V30 61634 C 6190.69 -2.9561 -4.20856 0
M  V30 61635 N 6188.67 -3.97049 -4.68215 0
M  V30 61636 C 6190.04 -4.15459 -4.60211 0
M  V30 61637 C 6192.1 -2.92262 -4.03097 0
M  V30 61638 C 6190.8 -5.3241 -4.83665 0
M  V30 61639 C 6192.83 -4.08428 -4.27715 0
M  V30 61640 C 6192.19 -5.27028 -4.67355 0
M  V30 61641 H 6188.29 -0.200535 -0.75585 0
M  V30 61642 H 6190.87 -1.06429 -1.63037 0
M  V30 61643 H 6189.04 0.0647203 -3.88346 0
M  V30 61644 H 6190.77 -0.122751 -4.04514 0
M  V30 61645 H 6187.53 -2.13361 -4.22817 0
M  V30 61646 H 6187.95 -4.66565 -4.90557 0
M  V30 61647 H 6192.6 -2.01712 -3.71581 0
M  V30 61648 H 6190.31 -6.23521 -5.14049 0
M  V30 61649 H 6193.9 -4.07234 -4.15513 0
M  V30 61650 H 6192.78 -6.15422 -4.8603 0
M  V30 61651 N 6190.28 1.46741 -0.574887 0
M  V30 61652 C 6191.23 2.2726 0.183587 0
M  V30 61653 C 6192.22 1.35409 0.869091 0
M  V30 61654 O 6193.41 1.59639 0.764478 0
M  V30 61655 C 6190.54 3.21582 1.20167 0
M  V30 61656 C 6189.62 4.20916 0.518678 0
M  V30 61657 N 6190.01 5.04042 -0.421309 0
M  V30 61658 C 6188.31 4.39296 0.770407 0
M  V30 61659 C 6189.01 5.75895 -0.819741 0
M  V30 61660 N 6187.99 5.43332 -0.17062 0
M  V30 61661 H 6191.79 2.88918 -0.538863 0
M  V30 61662 H 6189.31 1.57495 -0.396105 0
M  V30 61663 H 6191.3 3.77967 1.75916 0
M  V30 61664 H 6189.96 2.61482 1.92502 0
M  V30 61665 H 6190.97 5.1174 -0.796425 0
M  V30 61666 H 6187.65 3.90352 1.48093 0
M  V30 61667 H 6189.04 6.52739 -1.59316 0
M  V30 61668 N 6191.76 0.312251 1.54476 0
M  V30 61669 C 6192.69 -0.55175 2.26888 0
M  V30 61670 C 6193.67 -1.1287 1.27258 0
M  V30 61671 O 6194.86 -1.15594 1.56051 0
M  V30 61672 C 6191.99 -1.71828 3.01815 0
M  V30 61673 C 6190.94 -1.27117 4.08687 0
M  V30 61674 C 6190.27 -2.52375 4.71392 0
M  V30 61675 C 6191.57 -0.39423 5.2081 0
M  V30 61676 H 6193.26 0.0522384 2.99354 0
M  V30 61677 H 6190.81 0.0265644 1.43975 0
M  V30 61678 H 6192.76 -2.32891 3.51198 0
M  V30 61679 H 6191.48 -2.34868 2.26946 0
M  V30 61680 H 6190.14 -0.68354 3.60171 0
M  V30 61681 H 6189.79 -3.13754 3.93151 0
M  V30 61682 H 6189.49 -2.23155 5.43577 0
M  V30 61683 H 6191.01 -3.1422 5.23544 0
M  V30 61684 H 6192.43 -0.910832 5.66018 0
M  V30 61685 H 6190.83 -0.195307 5.99782 0
M  V30 61686 H 6191.9 0.57783 4.81445 0
M  V30 61687 N 6193.24 -1.57549 0.0401914 0
M  V30 61688 C 6194.15 -2.14354 -0.953381 0
M  V30 61689 C 6195.17 -1.09856 -1.34936 0
M  V30 61690 O 6196.34 -1.4197 -1.42852 0
M  V30 61691 C 6193.41 -2.6684 -2.21354 0
M  V30 61692 C 6192.47 -3.86095 -1.87695 0
M  V30 61693 C 6191.7 -4.36067 -3.07703 0
M  V30 61694 O 6191.92 -3.85162 -4.20722 0
M  V30 61695 O 6190.86 -5.27785 -2.89356 0
M  V30 61696 H 6194.68 -2.99551 -0.500317 0
M  V30 61697 H 6192.27 -1.48299 -0.181067 0
M  V30 61698 H 6194.15 -3.00616 -2.9531 0
M  V30 61699 H 6192.83 -1.8472 -2.6582 0
M  V30 61700 H 6191.73 -3.57226 -1.11088 0
M  V30 61701 H 6193.07 -4.6941 -1.48037 0
M  V30 61702 N 6194.72 0.233081 -1.55867 0
M  V30 61703 C 6195.97 0.957261 -1.77991 0
M  V30 61704 C 6196.29 1.85323 -0.606659 0
M  V30 61705 O 6195.56 1.92239 0.376979 0
M  V30 61706 H 6194.14 0.356451 -0.656469 0
M  V30 61707 H 6196.8 0.247706 -1.93319 0
M  V30 61708 H 6195.89 1.57087 -2.69685 0
M  V30 61709 N 6196.2 1.49481 0.49932 0
M  V30 61710 C 6197.42 1.63029 1.28204 0
M  V30 61711 C 6197.85 0.302303 1.85655 0
M  V30 61712 O 6197.2 -0.730297 1.65941 0
M  V30 61713 C 6197.25 2.70295 2.3869 0
M  V30 61714 O 6196.36 2.29585 3.42585 0
M  V30 61715 H 6195.7 0.545619 0.378413 0
M  V30 61716 H 6198.23 1.95679 0.597559 0
M  V30 61717 H 6198.24 2.92515 2.84428 0
M  V30 61718 H 6196.91 3.66691 1.9624 0
M  V30 61719 H 6195.49 2.17703 3.02754 0
M  V30 61720 N 6197.67 -0.750488 1.38584 0
M  V30 61721 C 6198.92 -1.50671 1.34695 0
M  V30 61722 C 6199.24 -1.94903 -0.0614729 0
M  V30 61723 O 6198.51 -1.67871 -1.00976 0
M  V30 61724 H 6197.09 -0.558896 0.495625 0
M  V30 61725 H 6199.75 -0.891918 1.73294 0
M  V30 61726 H 6198.85 -2.39616 1.99977 0
M  V30 61727 N 6199.15 -1.23504 -0.979007 0
M  V30 61728 C 6200.4 -1.06586 -1.71709 0
M  V30 61729 C 6200.72 0.39786 -1.90898 0
M  V30 61730 O 6199.99 1.28505 -1.47862 0
M  V30 61731 H 6198.57 -0.391419 -0.636239 0
M  V30 61732 H 6201.23 -1.55243 -1.17838 0
M  V30 61733 H 6200.33 -1.5549 -2.70609 0
M  V30 61734 N 6200.63 1.17798 -1.04697 0
M  V30 61735 C 6201.58 2.23696 -0.637398 0
M  V30 61736 C 6202.57 1.65975 0.338898 0
M  V30 61737 O 6203.78 1.78823 0.205502 0
M  V30 61738 H 6200.15 0.728139 -0.187929 0
M  V30 61739 H 6202.12 2.55543 -1.54079 0
M  V30 61740 C 6200.87 3.47692 -0.0228885 0
M  V30 61741 H 6200.2 3.92409 -0.765196 0
M  V30 61742 H 6201.64 4.23395 0.226381 0
M  V30 61743 C 6200.09 3.13683 1.22901 0
M  V30 61744 O 6200.62 3.28001 2.31901 0
M  V30 61745 N 6198.83 2.67952 1.12473 0
M  V30 61746 H 6198.38 2.56501 0.237728 0
M  V30 61747 H 6198.34 2.45569 1.96325 0
M  V30 61748 N 6202.11 0.827298 1.3414 0
M  V30 61749 C 6203.38 0.339861 1.92625 0
M  V30 61750 C 6203.76 -1.17336 1.75487 0
M  V30 61751 O 6203.11 -1.98247 1.13623 0
M  V30 61752 C 6203.32 0.774011 3.40309 0
M  V30 61753 C 6204.67 0.775357 4.17461 0
M  V30 61754 O 6205.69 0.716871 3.48912 0
M  V30 61755 O 6204.55 0.852537 5.39809 0
M  V30 61756 H 6201.65 0.0937775 0.821666 0
M  V30 61757 H 6204.19 0.91238 1.43086 0
M  V30 61758 H 6202.97 1.8161 3.46603 0
M  V30 61759 H 6202.59 0.177426 3.97204 0
M  V30 61760 N 6203.59 -1.46434 0.582661 0
M  V30 61761 C 6204.55 -2.28769 -0.140422 0
M  V30 61762 C 6205.55 -1.38388 -0.818862 0
M  V30 61763 O 6206.74 -1.60766 -0.670825 0
M  V30 61764 C 6203.87 -3.1877 -1.20825 0
M  V30 61765 H 6205.06 -2.94176 0.583152 0
M  V30 61766 H 6202.62 -1.52543 0.340628 0
M  V30 61767 H 6203.35 -2.5811 -1.96341 0
M  V30 61768 H 6203.14 -3.85315 -0.726281 0
M  V30 61769 H 6204.63 -3.80741 -1.7154 0
M  V30 61770 N 6205.06 -0.320439 -1.54308 0
M  V30 61771 C 6206.47 0.168265 -1.8594 0
M  V30 61772 C 6206.83 1.51873 -1.24214 0
M  V30 61773 O 6205.95 2.09372 -0.547007 0
M  V30 61774 C 6206.55 0.312094 -3.37359 0
M  V30 61775 C 6205.1 0.745018 -3.68953 0
M  V30 61776 C 6204.25 -0.135135 -2.76971 0
M  V30 61777 H 6207.2 -0.540826 -1.492 0
M  V30 61778 H 6207.22 1.14352 -3.6291 0
M  V30 61779 H 6206.74 -0.670943 -3.82256 0
M  V30 61780 H 6204.84 1.73791 -3.29587 0
M  V30 61781 H 6204.95 0.550932 -4.75922 0
M  V30 61782 H 6203.31 0.388797 -2.51715 0
M  V30 61783 H 6204.1 -1.11488 -3.24693 0
M  V30 61784 N 6206.54 1.57525 -0.048546 0
M  V30 61785 C 6207.79 1.92206 0.624586 0
M  V30 61786 C 6208.11 0.927349 1.71538 0
M  V30 61787 O 6207.38 -0.0281998 1.9588 0
M  V30 61788 H 6205.96 0.709503 0.233699 0
M  V30 61789 H 6208.62 1.94638 -0.100929 0
M  V30 61790 H 6207.72 2.93371 1.06488 0
M  V30 61791 N 6208.02 -0.224812 1.55988 0
M  V30 61792 C 6208.95 -1.30197 1.8863 0
M  V30 61793 C 6209.97 -1.43208 0.774298 0
M  V30 61794 O 6211.15 -1.44163 1.05258 0
M  V30 61795 C 6208.25 -2.67799 2.07694 0
M  V30 61796 C 6207.43 -2.76777 3.38693 0
M  V30 61797 C 6206.49 -3.95371 3.4723 0
M  V30 61798 O 6205.51 -3.83862 4.20284 0
M  V30 61799 N 6206.71 -5.09531 2.78134 0
M  V30 61800 H 6209.48 -1.02523 2.81619 0
M  V30 61801 H 6207.04 -0.414861 1.56494 0
M  V30 61802 H 6209.03 -3.45511 2.10724 0
M  V30 61803 H 6207.6 -2.88086 1.21346 0
M  V30 61804 H 6206.82 -1.85568 3.4779 0
M  V30 61805 H 6208.11 -2.79743 4.24996 0
M  V30 61806 H 6207.51 -5.21777 2.18553 0
M  V30 61807 H 6206.07 -5.85297 2.86828 0
M  V30 61808 N 6209.5 -1.49744 -0.491385 0
M  V30 61809 C 6210.73 -1.63202 -1.26683 0
M  V30 61810 C 6211.14 -0.306504 -1.86701 0
M  V30 61811 O 6210.48 0.719222 -1.69035 0
M  V30 61812 C 6210.54 -2.64975 -2.42958 0
M  V30 61813 C 6210.21 -4.09073 -2.03735 0
M  V30 61814 C 6211.2 -4.95579 -1.57153 0
M  V30 61815 C 6208.89 -4.54867 -2.13076 0
M  V30 61816 C 6210.88 -6.2592 -1.20428 0
M  V30 61817 C 6208.57 -5.85218 -1.75963 0
M  V30 61818 C 6209.57 -6.70569 -1.29714 0
M  V30 61819 O 6209.25 -7.9849 -0.931066 0
M  V30 61820 H 6208.99 -0.552108 -0.390068 0
M  V30 61821 H 6211.54 -1.96582 -0.59537 0
M  V30 61822 H 6209.77 -2.26795 -3.1321 0
M  V30 61823 H 6211.46 -2.67863 -3.04966 0
M  V30 61824 H 6212.23 -4.61424 -1.49375 0
M  V30 61825 H 6208.1 -3.88593 -2.48024 0
M  V30 61826 H 6211.65 -6.92493 -0.842586 0
M  V30 61827 H 6207.55 -6.189 -1.83394 0
M  V30 61828 H 6208.31 -8.11585 -1.0617 0
M  V30 61829 N 6210.98 0.743128 -1.3898 0
M  V30 61830 C 6212.22 1.49955 -1.35492 0
M  V30 61831 C 6212.55 1.94933 0.0511359 0
M  V30 61832 O 6211.82 1.68404 1.00084 0
M  V30 61833 H 6210.4 0.55626 -0.498582 0
M  V30 61834 H 6213.06 0.882715 -1.73765 0
M  V30 61835 H 6212.15 2.38552 -2.01245 0
M  V30 61836 N 6212.45 1.24021 0.972444 0
M  V30 61837 C 6213.42 1.02948 2.04779 0
M  V30 61838 C 6214.42 -0.0115296 1.60796 0
M  V30 61839 O 6215.61 0.228983 1.72688 0
M  V30 61840 C 6212.74 0.559364 3.3628 0
M  V30 61841 H 6213.93 1.98387 2.24906 0
M  V30 61842 H 6211.49 1.06177 1.147 0
M  V30 61843 H 6212.22 -0.398432 3.21843 0
M  V30 61844 H 6212.01 1.31067 3.69545 0
M  V30 61845 H 6213.5 0.432815 4.15351 0
M  V30 61846 N 6213.93 -1.17241 1.0532 0
M  V30 61847 C 6215.16 -1.91174 0.78334 0
M  V30 61848 C 6215.57 -1.77131 -0.664933 0
M  V30 61849 O 6214.91 -1.10687 -1.46609 0
M  V30 61850 C 6214.98 -3.42704 1.08602 0
M  V30 61851 C 6214.64 -3.8053 2.53073 0
M  V30 61852 C 6215.64 -3.83268 3.51286 0
M  V30 61853 C 6213.32 -4.11454 2.88116 0
M  V30 61854 C 6215.32 -4.16401 4.82585 0
M  V30 61855 C 6213 -4.44256 4.19619 0
M  V30 61856 C 6214 -4.46708 5.16663 0
M  V30 61857 O 6213.69 -4.78737 6.45807 0
M  V30 61858 H 6213.42 -0.613361 0.28419 0
M  V30 61859 H 6215.97 -1.49603 1.40741 0
M  V30 61860 H 6214.2 -3.84575 0.404851 0
M  V30 61861 H 6215.89 -3.97899 0.801967 0
M  V30 61862 H 6216.66 -3.595 3.25553 0
M  V30 61863 H 6212.54 -4.08716 2.13242 0
M  V30 61864 H 6216.08 -4.1823 5.58327 0
M  V30 61865 H 6211.98 -4.67487 4.45113 0
M  V30 61866 H 6212.75 -4.96589 6.50647 0
M  V30 61867 N 6215.41 -0.8344 -1.33699 0
M  V30 61868 C 6216.66 -0.427957 -1.97926 0
M  V30 61869 C 6216.99 1.01174 -1.66114 0
M  V30 61870 O 6216.24 1.72141 -0.930909 0
M  V30 61871 C 6216.54 -0.59036 -3.5249 0
M  V30 61872 C 6216.21 -1.99749 -4.04242 0
M  V30 61873 C 6214.87 -2.38239 -4.18086 0
M  V30 61874 C 6217.22 -2.91681 -4.3194 0
M  V30 61875 C 6214.55 -3.67973 -4.5696 0
M  V30 61876 C 6216.9 -4.20891 -4.72264 0
M  V30 61877 C 6215.56 -4.59343 -4.84314 0
M  V30 61878 H 6214.83 -0.156601 -0.724263 0
M  V30 61879 H 6217.48 -1.06056 -1.5945 0
M  V30 61880 H 6215.79 0.12558 -3.91599 0
M  V30 61881 H 6217.48 -0.256235 -4.00181 0
M  V30 61882 H 6214.07 -1.68854 -3.93937 0
M  V30 61883 H 6218.26 -2.63183 -4.20771 0
M  V30 61884 H 6213.51 -3.97576 -4.64481 0
M  V30 61885 H 6217.69 -4.92205 -4.92654 0
M  V30 61886 H 6215.31 -5.59919 -5.14194 0
M  V30 61887 N 6216.89 1.46123 -0.590418 0
M  V30 61888 C 6217.84 2.27442 0.159472 0
M  V30 61889 C 6218.82 1.36323 0.85468 0
M  V30 61890 O 6220.01 1.60441 0.747503 0
M  V30 61891 C 6217.14 3.22838 1.16749 0
M  V30 61892 C 6216.23 4.21443 0.474005 0
M  V30 61893 N 6216.62 5.03567 -0.474746 0
M  V30 61894 C 6214.92 4.40088 0.72377 0
M  V30 61895 C 6215.62 5.74993 -0.880776 0
M  V30 61896 N 6214.6 5.43121 -0.228238 0
M  V30 61897 H 6218.4 2.8833 -0.569476 0
M  V30 61898 H 6215.91 1.57066 -0.412787 0
M  V30 61899 H 6217.91 3.79812 1.71897 0
M  V30 61900 H 6216.57 2.63509 1.89718 0
M  V30 61901 H 6217.58 5.10866 -0.850657 0
M  V30 61902 H 6214.26 3.91901 1.43944 0
M  V30 61903 H 6215.65 6.51012 -1.6623 0
M  V30 61904 N 6218.37 0.328618 1.54136 0
M  V30 61905 C 6219.64 -0.326958 1.92848 0
M  V30 61906 C 6220.02 -1.69467 1.25873 0
M  V30 61907 O 6219.37 -2.24896 0.404251 0
M  V30 61908 C 6219.58 -0.41414 3.46534 0
M  V30 61909 C 6220.93 -0.672042 4.19248 0
M  V30 61910 O 6221.95 -0.496858 3.52718 0
M  V30 61911 O 6220.81 -1.01034 5.37079 0
M  V30 61912 H 6217.91 -0.187688 0.805421 0
M  V30 61913 H 6220.45 0.378703 1.6542 0
M  V30 61914 H 6219.22 0.546246 3.87469 0
M  V30 61915 H 6218.85 -1.16718 3.80082 0
M  V30 61916 N 6219.84 -1.57497 0.0568993 0
M  V30 61917 C 6221.12 -1.84279 -0.655782 0
M  V30 61918 C 6221.5 -0.946446 -1.88694 0
M  V30 61919 O 6220.85 -0.00892922 -2.28498 0
M  V30 61920 C 6221.06 -3.34137 -1.00763 0
M  V30 61921 C 6222.41 -4.0129 -1.38748 0
M  V30 61922 O 6223.43 -3.38796 -1.0998 0
M  V30 61923 O 6222.29 -5.11489 -1.92461 0
M  V30 61924 H 6219.38 -0.760784 -0.324248 0
M  V30 61925 H 6221.93 -1.69478 0.0866984 0
M  V30 61926 H 6220.7 -3.91075 -0.132581 0
M  V30 61927 H 6220.33 -3.54147 -1.80737 0
M  V30 61928 N 6221.32 0.216536 -1.56105 0
M  V30 61929 C 6222.57 0.938329 -1.78997 0
M  V30 61930 C 6222.89 1.84669 -0.62628 0
M  V30 61931 O 6222.16 1.92628 0.356569 0
M  V30 61932 H 6220.74 0.349468 -0.660213 0
M  V30 61933 H 6223.4 0.227188 -1.93571 0
M  V30 61934 H 6222.5 1.54218 -2.71336 0
M  V30 61935 N 6222.8 1.50002 0.483437 0
M  V30 61936 C 6224.05 1.60373 1.2364 0
M  V30 61937 C 6224.38 0.298387 1.92198 0
M  V30 61938 O 6223.63 -0.714937 1.82173 0
M  V30 61939 C 6223.93 2.72483 2.31274 0
M  V30 61940 C 6223.6 4.1339 1.80054 0
M  V30 61941 C 6222.26 4.51732 1.65805 0
M  V30 61942 C 6224.61 5.01506 1.41919 0
M  V30 61943 C 6221.94 5.75944 1.11827 0
M  V30 61944 C 6224.29 6.26253 0.893873 0
M  V30 61945 C 6222.95 6.63409 0.737918 0
M  V30 61946 H 6222.22 0.586846 0.45243 0
M  V30 61947 H 6224.87 1.83895 0.534328 0
M  V30 61948 H 6223.18 2.43001 3.0734 0
M  V30 61949 H 6224.87 2.77713 2.89269 0
M  V30 61950 H 6221.46 3.83135 1.92108 0
M  V30 61951 H 6225.65 4.72526 1.51767 0
M  V30 61952 H 6220.9 6.03417 0.984789 0
M  V30 61953 H 6225.08 6.93899 0.589673 0
M  V30 61954 H 6222.7 7.59537 0.317488 0
M  V30 61955 N 6224.28 -0.735747 1.39372 0
M  V30 61956 C 6225.21 -1.86298 1.40767 0
M  V30 61957 C 6226.19 -1.67925 0.271129 0
M  V30 61958 O 6227.38 -1.88255 0.476839 0
M  V30 61959 C 6224.51 -3.24038 1.24966 0
M  V30 61960 C 6223.46 -3.57047 2.36012 0
M  V30 61961 C 6222.79 -4.93716 2.05301 0
M  V30 61962 C 6224.09 -3.60096 3.78323 0
M  V30 61963 H 6225.78 -1.85388 2.351 0
M  V30 61964 H 6223.33 -0.890512 1.13163 0
M  V30 61965 H 6225.28 -4.02569 1.24563 0
M  V30 61966 H 6224 -3.25474 0.271017 0
M  V30 61967 H 6222.66 -2.80845 2.35631 0
M  V30 61968 H 6222.31 -4.91731 1.05877 0
M  V30 61969 H 6222.01 -5.16769 2.79685 0
M  V30 61970 H 6223.53 -5.74605 2.06547 0
M  V30 61971 H 6224.95 -4.28705 3.80637 0
M  V30 61972 H 6223.34 -3.94667 4.5206 0
M  V30 61973 H 6224.41 -2.59918 4.09354 0
M  V30 61974 N 6225.76 -1.24535 -0.965853 0
M  V30 61975 C 6226.72 -1.04033 -2.0423 0
M  V30 61976 C 6227.72 0.00300202 -1.608 0
M  V30 61977 O 6228.91 -0.238138 -1.72565 0
M  V30 61978 C 6226.04 -0.57719 -3.35978 0
M  V30 61979 H 6227.24 -1.99577 -2.23851 0
M  V30 61980 H 6224.79 -1.06784 -1.14135 0
M  V30 61981 H 6225.52 0.381358 -3.2205 0
M  V30 61982 H 6225.31 -1.33025 -3.68845 0
M  V30 61983 H 6226.8 -0.454836 -4.15116 0
M  V30 61984 N 6227.24 1.16681 -1.0594 0
M  V30 61985 C 6228.48 1.87125 -0.77398 0
M  V30 61986 C 6228.81 1.81491 0.69937 0
M  V30 61987 O 6228.07 1.2229 1.52786 0
M  V30 61988 C 6228.36 3.36317 -1.20935 0
M  V30 61989 C 6228.03 3.62152 -2.6862 0
M  V30 61990 C 6226.69 3.68912 -3.08962 0
M  V30 61991 C 6229.04 3.73016 -3.64017 0
M  V30 61992 C 6226.37 3.84033 -4.43549 0
M  V30 61993 C 6228.72 3.89658 -4.98347 0
M  V30 61994 C 6227.39 3.94659 -5.38331 0
M  V30 61995 H 6226.66 0.684739 -0.283219 0
M  V30 61996 H 6229.31 1.37987 -1.32785 0
M  V30 61997 H 6227.61 3.87564 -0.574608 0
M  V30 61998 H 6229.31 3.89201 -0.965606 0
M  V30 61999 H 6225.9 3.57521 -2.36383 0
M  V30 62000 H 6230.08 3.67107 -3.33985 0
M  V30 62001 H 6225.34 3.86156 -4.74018 0
M  V30 62002 H 6229.51 3.97006 -5.72153 0
M  V30 62003 H 6227.14 4.06128 -6.42623 0
M  V30 62004 N 6228.71 0.841479 1.33255 0
M  V30 62005 C 6230.12 0.49483 1.80023 0
M  V30 62006 C 6230.48 -0.986357 1.69604 0
M  V30 62007 O 6229.6 -1.76869 1.24684 0
M  V30 62008 C 6230.2 0.891421 3.26863 0
M  V30 62009 C 6228.75 0.596871 3.71637 0
M  V30 62010 C 6227.9 1.09833 2.54621 0
M  V30 62011 H 6230.85 1.02993 1.2074 0
M  V30 62012 H 6230.87 0.202504 3.79961 0
M  V30 62013 H 6230.39 1.96949 3.34414 0
M  V30 62014 H 6228.49 -0.471023 3.69611 0
M  V30 62015 H 6228.6 1.15393 4.64996 0
M  V30 62016 H 6226.96 0.519098 2.49354 0
M  V30 62017 H 6227.75 2.18323 2.64934 0
M  V30 62018 N 6230.19 -1.45807 0.598159 0
M  V30 62019 C 6231.44 -2.01902 0.0895052 0
M  V30 62020 C 6231.76 -1.47026 -1.28095 0
M  V30 62021 O 6231.03 -0.660865 -1.84416 0
M  V30 62022 H 6229.61 -0.746393 0.0300975 0
M  V30 62023 H 6232.27 -1.78723 0.777429 0
M  V30 62024 H 6231.37 -3.12083 0.0321521 0
M  V30 62025 N 6231.67 -0.336787 -1.53959 0
M  V30 62026 C 6232.62 0.538953 -2.21538 0
M  V30 62027 C 6233.6 1.07136 -1.20044 0
M  V30 62028 O 6234.8 1.00619 -1.45619 0
M  V30 62029 C 6231.92 1.69279 -2.98663 0
M  V30 62030 C 6231.01 1.17464 -4.07508 0
M  V30 62031 N 6231.4 0.377187 -5.04392 0
M  V30 62032 C 6229.7 1.45216 -4.21697 0
M  V30 62033 C 6230.4 0.0967998 -5.81619 0
M  V30 62034 N 6229.38 0.686585 -5.39247 0
M  V30 62035 H 6233.18 -0.0774583 -2.93798 0
M  V30 62036 H 6230.69 -0.143307 -1.61766 0
M  V30 62037 H 6232.69 2.33207 -3.45572 0
M  V30 62038 H 6231.35 2.31255 -2.27928 0
M  V30 62039 H 6232.36 0.0188599 -5.17897 0
M  V30 62040 H 6229.04 2.0768 -3.62181 0
M  V30 62041 H 6230.43 -0.546044 -6.69678 0
M  V30 62042 N 6233.15 1.57465 -0.0652509 0
M  V30 62043 C 6234.39 1.93526 0.606257 0
M  V30 62044 C 6234.73 0.945007 1.69656 0
M  V30 62045 O 6234 -0.0268187 1.94482 0
M  V30 62046 C 6234.28 3.39894 1.18929 0
M  V30 62047 C 6234.14 4.49675 0.106077 0
M  V30 62048 C 6235.46 3.86942 2.09675 0
M  V30 62049 H 6232.58 0.703737 0.218914 0
M  V30 62050 H 6235.22 1.89556 -0.129887 0
M  V30 62051 H 6233.37 3.43409 1.81667 0
M  V30 62052 H 6235.04 4.58284 -0.526644 0
M  V30 62053 H 6233.28 4.30116 -0.564137 0
M  V30 62054 H 6233.95 5.4921 0.554295 0
M  V30 62055 H 6236.43 3.85393 1.56881 0
M  V30 62056 H 6235.31 4.89981 2.47407 0
M  V30 62057 H 6235.57 3.24507 3.00246 0
M  V30 62058 N 6234.63 -0.208255 1.56218 0
M  V30 62059 C 6235.87 -0.930662 1.79847 0
M  V30 62060 C 6236.2 -1.83798 0.636272 0
M  V30 62061 O 6235.46 -1.92001 -0.378688 0
M  V30 62062 C 6235.75 -1.78988 3.09351 0
M  V30 62063 C 6235.42 -1.03466 4.38868 0
M  V30 62064 C 6234.08 -0.826097 4.74056 0
M  V30 62065 C 6236.43 -0.502328 5.18774 0
M  V30 62066 C 6233.76 -0.0735055 5.86654 0
M  V30 62067 C 6236.11 0.236986 6.32156 0
M  V30 62068 C 6234.78 0.456687 6.65936 0
M  V30 62069 H 6234.05 -0.340553 0.658107 0
M  V30 62070 H 6236.7 -0.197904 1.90475 0
M  V30 62071 H 6235 -2.59091 2.93903 0
M  V30 62072 H 6236.7 -2.35121 3.24837 0
M  V30 62073 H 6233.29 -1.20722 4.11247 0
M  V30 62074 H 6237.47 -0.650898 4.92013 0
M  V30 62075 H 6232.73 0.106812 6.11307 0
M  V30 62076 H 6236.9 0.656918 6.93295 0
M  V30 62077 H 6234.53 1.04177 7.53028 0
M  V30 62078 N 6236.1 -1.50256 -0.475475 0
M  V30 62079 C 6237.33 -1.65048 -1.25594 0
M  V30 62080 C 6237.75 -0.331801 -1.8515 0
M  V30 62081 O 6237.11 0.703804 -1.67082 0
M  V30 62082 C 6237.16 -2.74058 -2.34359 0
M  V30 62083 O 6236.26 -2.35006 -3.38889 0
M  V30 62084 H 6235.6 -0.55157 -0.369684 0
M  V30 62085 H 6238.13 -1.96605 -0.566353 0
M  V30 62086 H 6238.14 -2.97003 -2.79738 0
M  V30 62087 H 6236.82 -3.69767 -1.90382 0
M  V30 62088 H 6235.4 -2.22492 -2.99252 0
M  V30 62089 N 6237.58 0.728346 -1.3976 0
M  V30 62090 C 6239 1.03477 -1.2151 0
M  V30 62091 C 6239.2 2.01336 -0.0813436 0
M  V30 62092 O 6238.25 2.46101 0.564869 0
M  V30 62093 C 6239.57 1.59069 -2.55181 0
M  V30 62094 C 6241.12 1.71117 -2.62084 0
M  V30 62095 C 6241.59 2.30117 -3.95993 0
M  V30 62096 N 6243.08 2.37518 -3.97667 0
M  V30 62097 C 6243.82 2.84123 -4.98058 0
M  V30 62098 N 6243.31 3.30574 -6.08845 0
M  V30 62099 N 6245.11 2.83392 -4.85433 0
M  V30 62100 H 6237.26 0.0794537 -2.12251 0
M  V30 62101 H 6239.52 0.097864 -0.942935 0
M  V30 62102 H 6239.23 0.946282 -3.38731 0
M  V30 62103 H 6239.1 2.5778 -2.75371 0
M  V30 62104 H 6241.49 2.34678 -1.78915 0
M  V30 62105 H 6241.57 0.710399 -2.45738 0
M  V30 62106 H 6241.21 1.67182 -4.79596 0
M  V30 62107 H 6241.14 3.30883 -4.09663 0
M  V30 62108 H 6243.63 2.04695 -3.17661 0
M  V30 62109 H 6243.95 3.64665 -6.81351 0
M  V30 62110 H 6242.29 3.28566 -6.12429 0
M  V30 62111 H 6245.48 2.4643 -3.97982 0
M  V30 62112 H 6245.65 3.19397 -5.63817 0
M  V30 62113 N 6239.06 1.25046 0.959235 0
M  V30 62114 C 6240.29 1.12345 1.74337 0
M  V30 62115 C 6240.71 -0.319277 1.85371 0
M  V30 62116 O 6240.07 -1.23125 1.33079 0
M  V30 62117 C 6240.12 1.77745 3.1375 0
M  V30 62118 O 6239.22 1.05397 3.98705 0
M  V30 62119 H 6238.56 0.392498 0.535576 0
M  V30 62120 H 6241.09 1.6552 1.20268 0
M  V30 62121 H 6241.1 1.83844 3.64232 0
M  V30 62122 H 6239.78 2.82712 3.05035 0
M  V30 62123 H 6238.35 1.07145 3.57176 0
M  V30 62124 N 6240.54 -1.16117 1.06558 0
M  V30 62125 C 6241.47 -2.22759 0.700055 0
M  V30 62126 C 6242.45 -1.67275 -0.308724 0
M  V30 62127 O 6243.63 -1.93333 -0.18326 0
M  V30 62128 C 6240.76 -3.47187 0.0885264 0
M  V30 62129 C 6239.72 -4.1558 1.02357 0
M  V30 62130 C 6239.04 -5.33991 0.27521 0
M  V30 62131 C 6240.34 -4.66258 2.35374 0
M  V30 62132 H 6242.04 -2.5359 1.59162 0
M  V30 62133 H 6239.58 -1.2189 0.766728 0
M  V30 62134 H 6241.54 -4.21019 -0.179072 0
M  V30 62135 H 6240.26 -3.15664 -0.83807 0
M  V30 62136 H 6238.92 -3.43678 1.27596 0
M  V30 62137 H 6238.57 -4.98722 -0.65459 0
M  V30 62138 H 6238.27 -5.80692 0.898386 0
M  V30 62139 H 6239.79 -6.10598 0.0152202 0
M  V30 62140 H 6241.21 -5.31657 2.14507 0
M  V30 62141 H 6239.6 -5.2359 2.93213 0
M  V30 62142 H 6240.67 -3.82325 2.98254 0
M  V30 62143 N 6242.02 -0.848534 -1.32807 0
M  V30 62144 C 6243.43 -0.50437 -1.79758 0
M  V30 62145 C 6243.78 0.977348 -1.70124 0
M  V30 62146 O 6242.9 1.76206 -1.25621 0
M  V30 62147 C 6243.5 -0.908743 -3.26385 0
M  V30 62148 C 6242.06 -0.616571 -3.71316 0
M  V30 62149 C 6241.2 -1.11182 -2.54035 0
M  V30 62150 H 6244.16 -1.03632 -1.20192 0
M  V30 62151 H 6244.18 -0.222652 -3.79848 0
M  V30 62152 H 6243.69 -1.9872 -3.33365 0
M  V30 62153 H 6241.79 0.451415 -3.69855 0
M  V30 62154 H 6241.9 -1.17858 -4.64377 0
M  V30 62155 H 6240.27 -0.532315 -2.49075 0
M  V30 62156 H 6241.05 -2.19725 -2.63772 0
M  V30 62157 N 6243.49 1.45488 -0.605884 0
M  V30 62158 C 6244.4 2.34314 0.115833 0
M  V30 62159 C 6245.42 1.51139 0.862146 0
M  V30 62160 O 6246.6 1.83946 0.820116 0
M  V30 62161 C 6243.66 3.28728 1.10177 0
M  V30 62162 C 6242.72 4.27808 0.357599 0
M  V30 62163 C 6241.96 5.17711 1.29657 0
M  V30 62164 O 6242.18 5.11008 2.5343 0
M  V30 62165 O 6241.11 5.96633 0.794558 0
M  V30 62166 H 6244.94 2.97427 -0.614086 0
M  V30 62167 H 6242.52 1.44844 -0.366154 0
M  V30 62168 H 6244.41 3.86911 1.66967 0
M  V30 62169 H 6243.08 2.68181 1.81274 0
M  V30 62170 H 6241.99 3.73245 -0.252719 0
M  V30 62171 H 6243.32 4.91205 -0.312854 0
M  V30 62172 N 6244.97 0.344947 1.53779 0
M  V30 62173 C 6246.22 -0.251509 2.01234 0
M  V30 62174 C 6246.55 -1.5009 1.23234 0
M  V30 62175 O 6245.83 -1.91844 0.320349 0
M  V30 62176 C 6246.11 -0.564241 3.55652 0
M  V30 62177 C 6245.96 0.697342 4.44362 0
M  V30 62178 C 6247.28 -1.37328 4.18126 0
M  V30 62179 H 6244.4 -0.0899386 0.731492 0
M  V30 62180 H 6247.04 0.465761 1.84203 0
M  V30 62181 H 6245.19 -1.1753 3.70296 0
M  V30 62182 H 6246.86 1.33527 4.41552 0
M  V30 62183 H 6245.11 1.32195 4.13167 0
M  V30 62184 H 6245.78 0.433765 5.50293 0
M  V30 62185 H 6248.25 -0.856567 4.07188 0
M  V30 62186 H 6247.13 -1.56085 5.2624 0
M  V30 62187 H 6247.39 -2.3758 3.72838 0
M  V30 62188 N 6246.45 -1.57428 0.0736007 0
M  V30 62189 C 6247.86 -1.80975 -0.458795 0
M  V30 62190 C 6248.21 -0.987645 -1.69529 0
M  V30 62191 O 6247.34 -0.210687 -2.15372 0
M  V30 62192 C 6247.93 -3.28244 -0.83913 0
M  V30 62193 C 6246.49 -3.52631 -1.31638 0
M  V30 62194 C 6245.64 -2.75646 -0.302436 0
M  V30 62195 H 6248.59 -1.55853 0.29928 0
M  V30 62196 H 6248.61 -3.40392 -1.7004 0
M  V30 62197 H 6248.12 -3.88052 0.0609989 0
M  V30 62198 H 6246.22 -2.98129 -2.23495 0
M  V30 62199 H 6246.34 -4.61321 -1.29306 0
M  V30 62200 H 6244.7 -2.4246 -0.780093 0
M  V30 62201 H 6245.48 -3.38192 0.589997 0
M  V30 62202 N 6247.93 0.199967 -1.56326 0
M  V30 62203 C 6248.84 1.2684 -1.97355 0
M  V30 62204 C 6249.85 1.50078 -0.880485 0
M  V30 62205 O 6251.03 1.62788 -1.18584 0
M  V30 62206 C 6248.1 2.59374 -2.30057 0
M  V30 62207 C 6247.16 2.44249 -3.53045 0
M  V30 62208 C 6246.39 3.70463 -3.84178 0
M  V30 62209 O 6246.61 4.74422 -3.16671 0
M  V30 62210 O 6245.55 3.66283 -4.77619 0
M  V30 62211 H 6249.37 0.950222 -2.88452 0
M  V30 62212 H 6246.96 0.404578 -1.43818 0
M  V30 62213 H 6248.84 3.37607 -2.52189 0
M  V30 62214 H 6247.51 2.90828 -1.42129 0
M  V30 62215 H 6246.42 1.64143 -3.36167 0
M  V30 62216 H 6247.75 2.17728 -4.41424 0
M  V30 62217 N 6249.41 1.50506 0.4675 0
M  V30 62218 C 6250.63 1.65437 1.24251 0
M  V30 62219 C 6251.05 0.339172 1.85728 0
M  V30 62220 O 6250.41 -0.679256 1.69388 0
M  V30 62221 C 6250.46 2.74814 2.34861 0
M  V30 62222 O 6250.18 4.01235 1.75903 0
M  V30 62223 C 6251.68 3.00749 3.25676 0
M  V30 62224 H 6248.9 0.556 0.37564 0
M  V30 62225 H 6251.44 1.96751 0.557615 0
M  V30 62226 H 6249.6 2.46184 2.99119 0
M  V30 62227 H 6250.01 4.6175 2.48771 0
M  V30 62228 H 6251.49 3.80935 3.9949 0
M  V30 62229 H 6251.96 2.1196 3.84668 0
M  V30 62230 H 6252.57 3.30924 2.67151 0
M  V30 62231 N 6250.88 -0.720924 1.40144 0
M  V30 62232 C 6252.13 -1.47625 1.3744 0
M  V30 62233 C 6252.45 -1.95587 -0.022135 0
M  V30 62234 O 6253.65 -2.70956 -0.17179 0
M  V30 62235 C 6252.11 -2.6682 2.41527 0
M  V30 62236 C 6251.72 -2.25749 3.86964 0
M  V30 62237 C 6253.46 -3.44581 2.4792 0
M  V30 62238 C 6251.37 -3.41751 4.8266 0
M  V30 62239 H 6250.3 -0.554418 0.511015 0
M  V30 62240 H 6252.95 -0.785105 1.65856 0
M  V30 62241 H 6251.33 -3.38078 2.06201 0
M  V30 62242 H 6252.5 -1.61945 4.31405 0
M  V30 62243 H 6250.82 -1.61046 3.83996 0
M  V30 62244 H 6253.42 -4.30889 3.16605 0
M  V30 62245 H 6253.76 -3.88025 1.50806 0
M  V30 62246 H 6254.29 -2.80361 2.8221 0
M  V30 62247 H 6251.03 -3.03343 5.81088 0
M  V30 62248 H 6250.55 -4.04488 4.42888 0
M  V30 62249 H 6252.23 -4.07891 5.02229 0
M  V30 62250 N 6252.36 -1.25553 -0.95259 0
M  V30 62251 C 6253.27 -1.07863 -2.08333 0
M  V30 62252 C 6254.29 -0.0152067 -1.73993 0
M  V30 62253 O 6255.47 -0.216568 -2.00232 0
M  V30 62254 C 6252.53 -0.701489 -3.39529 0
M  V30 62255 C 6251.59 -1.84307 -3.87723 0
M  V30 62256 C 6250.82 -1.48383 -5.12658 0
M  V30 62257 O 6251.05 -0.3804 -5.6913 0
M  V30 62258 O 6249.98 -2.31471 -5.55612 0
M  V30 62259 H 6253.81 -2.02696 -2.2616 0
M  V30 62260 H 6251.39 -1.0451 -1.06762 0
M  V30 62261 H 6253.27 -0.503378 -4.18383 0
M  V30 62262 H 6251.95 0.217558 -3.22968 0
M  V30 62263 H 6250.86 -2.09606 -3.09865 0
M  V30 62264 H 6252.19 -2.74143 -4.08786 0
M  V30 62265 N 6253.84 1.15551 -1.07172 0
M  V30 62266 C 6254.77 2.22384 -0.711858 0
M  V30 62267 C 6255.75 1.67436 0.299849 0
M  V30 62268 O 6256.94 1.93428 0.173005 0
M  V30 62269 C 6254.07 3.47135 -0.106937 0
M  V30 62270 C 6253.02 4.15032 -1.0456 0
M  V30 62271 C 6252.35 5.33838 -0.303525 0
M  V30 62272 C 6253.65 4.65003 -2.37844 0
M  V30 62273 H 6255.34 2.52742 -1.60505 0
M  V30 62274 H 6252.89 1.21482 -0.773182 0
M  V30 62275 H 6254.84 4.21108 0.156742 0
M  V30 62276 H 6253.56 3.16104 0.821318 0
M  V30 62277 H 6252.22 3.42997 -1.29417 0
M  V30 62278 H 6251.87 4.99063 0.628132 0
M  V30 62279 H 6251.57 5.80207 -0.929168 0
M  V30 62280 H 6253.1 6.10581 -0.0476015 0
M  V30 62281 H 6254.51 5.30512 -2.17323 0
M  V30 62282 H 6252.91 5.22027 -2.95986 0
M  V30 62283 H 6253.98 3.80738 -3.00278 0
M  V30 62284 N 6255.32 0.855565 1.32355 0
M  V30 62285 C 6256.23 0.303778 2.32625 0
M  V30 62286 C 6257.25 -0.578869 1.64089 0
M  V30 62287 O 6258.42 -0.479022 1.9562 0
M  V30 62288 C 6255.49 -0.498031 3.43104 0
M  V30 62289 C 6254.55 0.410864 4.27329 0
M  V30 62290 C 6253.78 -0.352773 5.32533 0
M  V30 62291 O 6254 -1.58262 5.48005 0
M  V30 62292 O 6252.94 0.281901 6.01239 0
M  V30 62293 H 6256.76 1.13453 2.81713 0
M  V30 62294 H 6254.35 0.618527 1.35995 0
M  V30 62295 H 6256.23 -0.953096 4.1048 0
M  V30 62296 H 6254.91 -1.30556 2.96204 0
M  V30 62297 H 6253.81 0.914124 3.6276 0
M  V30 62298 H 6255.15 1.1836 4.77757 0
M  V30 62299 N 6256.8 -1.45165 0.613591 0
M  V30 62300 C 6258.04 -2.02494 0.111299 0
M  V30 62301 C 6258.38 -1.48019 -1.25714 0
M  V30 62302 O 6257.65 -0.657252 -1.83059 0
M  V30 62303 C 6257.93 -3.60014 0.0788865 0
M  V30 62304 C 6257.79 -4.24809 1.47842 0
M  V30 62305 C 6259.11 -4.3591 -0.605811 0
M  V30 62306 H 6256.23 -0.735807 0.041919 0
M  V30 62307 H 6258.87 -1.72948 0.786712 0
M  V30 62308 H 6257.02 -3.85317 -0.496275 0
M  V30 62309 H 6258.69 -4.10671 2.10112 0
M  V30 62310 H 6256.93 -3.82979 2.0374 0
M  V30 62311 H 6257.6 -5.33743 1.40792 0
M  V30 62312 H 6260.08 -4.15936 -0.116873 0
M  V30 62313 H 6258.96 -5.45637 -0.597616 0
M  V30 62314 H 6259.22 -4.09222 -1.67301 0
M  V30 62315 N 6258.28 -0.353098 -1.53594 0
M  V30 62316 C 6259.69 -0.00154001 -1.596 0
M  V30 62317 C 6259.89 1.47879 -1.36872 0
M  V30 62318 O 6258.95 2.23877 -1.1677 0
M  V30 62319 C 6260.26 -0.446283 -2.9737 0
M  V30 62320 C 6261.81 -0.399438 -3.10441 0
M  V30 62321 C 6262.28 -0.819797 -4.50603 0
M  V30 62322 N 6263.77 -0.77436 -4.56681 0
M  V30 62323 C 6264.51 -1.07146 -5.633 0
M  V30 62324 N 6264.01 -1.4372 -6.77729 0
M  V30 62325 N 6265.8 -0.995069 -5.53222 0
M  V30 62326 H 6257.95 -1.31725 -1.6662 0
M  V30 62327 H 6260.21 -0.537599 -0.780828 0
M  V30 62328 H 6259.92 -1.4788 -3.19099 0
M  V30 62329 H 6259.79 0.173583 -3.768 0
M  V30 62330 H 6262.18 0.623922 -2.88429 0
M  V30 62331 H 6262.26 -1.05463 -2.33047 0
M  V30 62332 H 6261.9 -1.84121 -4.73352 0
M  V30 62333 H 6261.83 -0.14198 -5.26409 0
M  V30 62334 H 6264.33 -0.504741 -3.74514 0
M  V30 62335 H 6264.64 -1.64848 -7.55013 0
M  V30 62336 H 6262.98 -1.47574 -6.79152 0
M  V30 62337 H 6266.17 -0.708613 -4.62705 0
M  V30 62338 H 6266.35 -1.22995 -6.3622 0
M  V30 62339 N 6259.75 1.57387 -0.0819485 0
M  V30 62340 C 6260.98 1.98203 0.593575 0
M  V30 62341 C 6261.4 0.960659 1.62532 0
M  V30 62342 O 6260.75 -0.0514261 1.82428 0
M  V30 62343 C 6260.8 3.39087 1.25308 0
M  V30 62344 O 6260.53 4.37312 0.262609 0
M  V30 62345 C 6262.03 3.94834 2.01546 0
M  V30 62346 H 6259.25 0.651611 0.160136 0
M  V30 62347 H 6261.79 2.03894 -0.157353 0
M  V30 62348 H 6259.95 3.34451 1.95502 0
M  V30 62349 H 6260.36 5.19296 0.736987 0
M  V30 62350 H 6261.83 4.95602 2.43068 0
M  V30 62351 H 6262.31 3.31931 2.87608 0
M  V30 62352 H 6262.92 4.02903 1.36196 0
M  V30 62353 N 6261.23 -0.191674 1.5643 0
M  V30 62354 C 6262.46 -0.931738 1.85293 0
M  V30 62355 C 6262.88 -1.75918 0.665926 0
M  V30 62356 O 6262.24 -1.7716 -0.385251 0
M  V30 62357 C 6262.29 -1.80089 3.12411 0
M  V30 62358 O 6261.39 -2.9001 2.93203 0
M  V30 62359 H 6260.73 -0.262191 0.610042 0
M  V30 62360 H 6263.26 -0.195956 2.03659 0
M  V30 62361 H 6263.27 -2.20487 3.43292 0
M  V30 62362 H 6261.95 -1.19295 3.98424 0
M  V30 62363 H 6260.52 -2.53342 2.73628 0
M  V30 62364 N 6262.71 -1.50752 -0.459512 0
M  V30 62365 C 6263.94 -1.66094 -1.23371 0
M  V30 62366 C 6264.35 -0.349017 -1.85546 0
M  V30 62367 O 6263.71 0.670264 -1.69746 0
M  V30 62368 C 6263.76 -2.76055 -2.334 0
M  V30 62369 O 6263.48 -4.02162 -1.73773 0
M  V30 62370 C 6264.98 -3.02472 -3.24076 0
M  V30 62371 H 6262.2 -0.557984 -0.372686 0
M  V30 62372 H 6264.75 -1.97044 -0.547173 0
M  V30 62373 H 6262.9 -2.47767 -2.97809 0
M  V30 62374 H 6263.32 -4.63063 -2.46318 0
M  V30 62375 H 6264.79 -3.83048 -3.97464 0
M  V30 62376 H 6265.27 -2.13997 -3.83539 0
M  V30 62377 H 6265.87 -3.32336 -2.65392 0
M  V30 62378 N 6264.19 0.713481 -1.40525 0
M  V30 62379 C 6265.15 1.80927 -1.40705 0
M  V30 62380 C 6266.15 1.57967 -0.300505 0
M  V30 62381 O 6267.34 1.6497 -0.559514 0
M  V30 62382 C 6264.47 3.19049 -1.20086 0
M  V30 62383 H 6265.67 1.82166 -2.38235 0
M  V30 62384 H 6263.22 0.919329 -1.26404 0
M  V30 62385 H 6263.95 3.2346 -0.233251 0
M  V30 62386 H 6263.74 3.37114 -2.00241 0
M  V30 62387 H 6265.23 3.99073 -1.23005 0
M  V30 62388 N 6265.67 1.26056 0.945918 0
M  V30 62389 C 6266.89 1.14188 1.73136 0
M  V30 62390 C 6267.32 -0.299598 1.85699 0
M  V30 62391 O 6266.67 -1.21706 1.34377 0
M  V30 62392 C 6266.72 1.81063 3.11847 0
M  V30 62393 O 6265.83 1.0962 3.97564 0
M  V30 62394 H 6265.17 0.398157 0.531383 0
M  V30 62395 H 6267.7 1.66786 1.18505 0
M  V30 62396 H 6267.71 1.87697 3.62262 0
M  V30 62397 H 6266.38 2.85932 3.02019 0
M  V30 62398 H 6264.96 1.10927 3.56019 0
M  V30 62399 N 6267.14 -1.14981 1.07783 0
M  V30 62400 C 6268.39 -1.85503 0.802065 0
M  V30 62401 C 6268.71 -1.82983 -0.673962 0
M  V30 62402 O 6267.98 -1.27381 -1.48831 0
M  V30 62403 H 6266.56 -0.686834 0.293713 0
M  V30 62404 H 6269.23 -1.39363 1.36249 0
M  V30 62405 H 6268.32 -2.90514 1.14052 0
M  V30 62406 N 6268.62 -0.862572 -1.31899 0
M  V30 62407 C 6269.55 -0.328505 -2.31178 0
M  V30 62408 C 6270.53 0.576624 -1.60028 0
M  V30 62409 O 6271.72 0.495204 -1.8778 0
M  V30 62410 C 6268.85 0.477219 -3.44006 0
M  V30 62411 C 6267.8 -0.334165 -4.26693 0
M  V30 62412 C 6267.13 0.596786 -5.31359 0
M  V30 62413 C 6268.43 -1.56422 -4.98327 0
M  V30 62414 H 6270.12 -1.15807 -2.76096 0
M  V30 62415 H 6267.67 -0.558315 -1.32736 0
M  V30 62416 H 6269.62 0.861316 -4.12504 0
M  V30 62417 H 6268.35 1.34022 -2.97835 0
M  V30 62418 H 6267 -0.700115 -3.59853 0
M  V30 62419 H 6266.65 1.45686 -4.8144 0
M  V30 62420 H 6266.35 0.0578452 -5.87572 0
M  V30 62421 H 6267.88 0.977887 -6.02719 0
M  V30 62422 H 6269.29 -1.25198 -5.59463 0
M  V30 62423 H 6267.69 -2.04169 -5.64301 0
M  V30 62424 H 6268.76 -2.32114 -4.25736 0
M  V30 62425 N 6270.1 1.44837 -0.62128 0
M  V30 62426 C 6271.03 2.33374 0.0765466 0
M  V30 62427 C 6272.01 1.47634 0.84488 0
M  V30 62428 O 6273.2 1.76376 0.812718 0
M  V30 62429 C 6270.33 3.30555 1.06538 0
M  V30 62430 C 6269.28 4.26038 0.409347 0
M  V30 62431 C 6268.61 5.13012 1.50739 0
M  V30 62432 C 6269.91 5.17878 -0.678176 0
M  V30 62433 H 6271.6 2.91972 -0.662761 0
M  V30 62434 H 6269.15 1.40396 -0.320167 0
M  V30 62435 H 6271.1 3.91372 1.56223 0
M  V30 62436 H 6269.82 2.70146 1.83546 0
M  V30 62437 H 6268.48 3.66539 -0.066761 0
M  V30 62438 H 6268.13 4.48962 2.26809 0
M  V30 62439 H 6267.83 5.77704 1.07387 0
M  V30 62440 H 6269.35 5.76699 2.00624 0
M  V30 62441 H 6270.77 5.72688 -0.264838 0
M  V30 62442 H 6269.17 5.9112 -1.03425 0
M  V30 62443 H 6270.24 4.59483 -1.5493 0
M  V30 62444 N 6271.58 0.361238 1.53404 0
M  V30 62445 C 6272.51 -0.479288 2.28528 0
M  V30 62446 C 6273.49 -1.08764 1.30784 0
M  V30 62447 O 6274.67 -1.1057 1.59649 0
M  V30 62448 C 6271.8 -1.62139 3.07129 0
M  V30 62449 C 6270.76 -1.1405 4.12525 0
M  V30 62450 C 6270.08 -2.37251 4.79183 0
M  V30 62451 C 6271.38 -0.228338 5.21801 0
M  V30 62452 H 6273.08 0.147449 2.99037 0
M  V30 62453 H 6270.62 0.0723557 1.43818 0
M  V30 62454 H 6272.58 -2.216 3.58429 0
M  V30 62455 H 6271.3 -2.27529 2.34303 0
M  V30 62456 H 6269.96 -0.568608 3.62164 0
M  V30 62457 H 6269.61 -3.01088 4.02933 0
M  V30 62458 H 6269.31 -2.05748 5.50401 0
M  V30 62459 H 6270.83 -2.97405 5.33275 0
M  V30 62460 H 6272.25 -0.730297 5.6863 0
M  V30 62461 H 6270.64 -0.00439163 6.001 0
M  V30 62462 H 6271.71 0.730705 4.79363 0
M  V30 62463 N 6273.06 -1.57341 0.090294 0
M  V30 62464 C 6274.3 -1.95271 -0.569288 0
M  V30 62465 C 6274.66 -0.971186 -1.6609 0
M  V30 62466 O 6273.95 0.00360047 -1.916 0
M  V30 62467 C 6274.14 -3.3757 -1.17393 0
M  V30 62468 C 6273.97 -4.49474 -0.142421 0
M  V30 62469 C 6272.74 -5.04527 0.279412 0
M  V30 62470 C 6274.94 -5.10457 0.627547 0
M  V30 62471 N 6272.92 -5.99984 1.29969 0
M  V30 62472 C 6274.29 -6.01587 1.49979 0
M  V30 62473 C 6276.35 -4.93213 0.681592 0
M  V30 62474 C 6275.05 -6.77322 2.4213 0
M  V30 62475 C 6277.08 -5.69606 1.59069 0
M  V30 62476 C 6276.44 -6.60399 2.45057 0
M  V30 62477 H 6272.54 -0.761287 -0.178793 0
M  V30 62478 H 6275.12 -1.93941 0.171744 0
M  V30 62479 H 6273.29 -3.39602 -1.8848 0
M  V30 62480 H 6275.03 -3.62691 -1.79548 0
M  V30 62481 H 6271.78 -4.73478 -0.107382 0
M  V30 62482 H 6272.21 -6.52414 1.80789 0
M  V30 62483 H 6276.85 -4.22789 0.0309678 0
M  V30 62484 H 6274.57 -7.47011 3.0822 0
M  V30 62485 H 6278.15 -5.58278 1.63759 0
M  V30 62486 H 6277.03 -7.18478 3.1426 0
M  V30 62487 N 6274.53 0.183375 -1.5653 0
M  V30 62488 C 6275.47 1.2515 -1.92016 0
M  V30 62489 C 6276.48 1.41105 -0.811995 0
M  V30 62490 O 6277.67 1.41322 -1.09043 0
M  V30 62491 C 6274.77 2.62198 -2.14722 0
M  V30 62492 C 6273.94 2.677 -3.45913 0
M  V30 62493 C 6273 3.86026 -3.5759 0
M  V30 62494 O 6272.03 3.72584 -4.30314 0
M  V30 62495 N 6273.23 5.01978 -2.91545 0
M  V30 62496 H 6275.99 0.950204 -2.84238 0
M  V30 62497 H 6273.55 0.373223 -1.57539 0
M  V30 62498 H 6275.55 3.39802 -2.1981 0
M  V30 62499 H 6274.12 2.84768 -1.28942 0
M  V30 62500 H 6273.34 1.76282 -3.52588 0
M  V30 62501 H 6274.62 2.68376 -4.32263 0
M  V30 62502 H 6274.02 5.15799 -2.3231 0
M  V30 62503 H 6272.58 5.77487 -3.02246 0
M  V30 62504 N 6276.01 1.50994 0.451511 0
M  V30 62505 C 6277.26 1.62637 1.19973 0
M  V30 62506 C 6277.58 0.338039 1.92048 0
M  V30 62507 O 6276.85 -0.645477 1.84961 0
M  V30 62508 H 6275.43 0.59936 0.445843 0
M  V30 62509 H 6278.09 1.87862 0.519038 0
M  V30 62510 H 6277.19 2.44715 1.93703 0
M  V30 62511 N 6277.49 -0.706019 1.40901 0
M  V30 62512 C 6278.74 -1.46816 1.39903 0
M  V30 62513 C 6279.07 -1.94199 0.00444682 0
M  V30 62514 O 6278.34 -1.68819 -0.965943 0
M  V30 62515 C 6278.63 -2.68748 2.3968 0
M  V30 62516 C 6278.48 -2.27197 3.88203 0
M  V30 62517 C 6279.8 -3.70926 2.36858 0
M  V30 62518 H 6276.92 -0.532531 0.50949 0
M  V30 62519 H 6279.56 -0.804996 1.72104 0
M  V30 62520 H 6277.71 -3.25329 2.12351 0
M  V30 62521 H 6279.38 -1.76023 4.26396 0
M  V30 62522 H 6277.63 -1.59093 4.03574 0
M  V30 62523 H 6278.3 -3.1464 4.53548 0
M  V30 62524 H 6280.77 -3.23995 2.61087 0
M  V30 62525 H 6279.65 -4.53865 3.08703 0
M  V30 62526 H 6279.91 -4.19894 1.38352 0
M  V30 62527 N 6278.97 -1.26556 -0.93922 0
M  V30 62528 C 6279.88 -1.10066 -2.07178 0
M  V30 62529 C 6280.89 -0.0336602 -1.73967 0
M  V30 62530 O 6282.07 -0.237793 -1.99991 0
M  V30 62531 C 6279.14 -0.737461 -3.38766 0
M  V30 62532 C 6278.2 -1.88409 -3.85747 0
M  V30 62533 C 6277.43 -1.53812 -5.11055 0
M  V30 62534 O 6277.65 -0.440743 -5.68695 0
M  V30 62535 O 6276.59 -2.37351 -5.53126 0
M  V30 62536 H 6280.41 -2.05083 -2.23997 0
M  V30 62537 H 6278 -1.05636 -1.05647 0
M  V30 62538 H 6279.88 -0.547725 -4.17825 0
M  V30 62539 H 6278.55 0.18329 -3.23181 0
M  V30 62540 H 6277.46 -2.1288 -3.07624 0
M  V30 62541 H 6278.79 -2.78464 -4.05856 0
M  V30 62542 N 6280.45 1.14407 -1.08391 0
M  V30 62543 C 6281.69 1.85716 -0.814703 0
M  V30 62544 C 6282.03 1.82718 0.65787 0
M  V30 62545 O 6281.3 1.25776 1.4836 0
M  V30 62546 C 6281.58 3.34358 -1.33703 0
M  V30 62547 C 6281.44 3.4593 -2.87493 0
M  V30 62548 C 6282.76 4.29454 -0.962157 0
M  V30 62549 H 6279.87 0.674321 -0.297422 0
M  V30 62550 H 6282.52 1.3435 -1.34351 0
M  V30 62551 H 6280.67 3.78234 -0.887215 0
M  V30 62552 H 6282.34 3.10842 -3.40844 0
M  V30 62553 H 6280.58 2.87146 -3.25161 0
M  V30 62554 H 6281.25 4.50412 -3.19113 0
M  V30 62555 H 6283.73 3.93594 -1.34993 0
M  V30 62556 H 6282.6 5.31917 -1.35482 0
M  V30 62557 H 6282.87 4.41906 0.130832 0
M  V30 62558 N 6281.93 0.869555 1.3144 0
M  V30 62559 C 6283.17 0.479335 1.96333 0
M  V30 62560 C 6283.49 -0.971523 1.69075 0
M  V30 62561 O 6282.76 -1.681 1.00594 0
M  V30 62562 H 6281.34 0.174267 0.726388 0
M  V30 62563 H 6284.01 1.10925 1.60255 0
M  V30 62564 H 6283.1 0.636735 3.05536 0
M  V30 62565 N 6283.4 -1.44506 0.628953 0
M  V30 62566 C 6284.31 -2.34468 -0.0785408 0
M  V30 62567 C 6285.33 -1.52492 -0.837992 0
M  V30 62568 O 6286.51 -1.85227 -0.790748 0
M  V30 62569 C 6283.57 -3.30439 -1.04933 0
M  V30 62570 C 6282.63 -4.28323 -0.289493 0
M  V30 62571 C 6281.86 -5.19708 -1.21404 0
M  V30 62572 O 6282.09 -5.14976 -2.45268 0
M  V30 62573 O 6281.02 -5.97821 -0.699538 0
M  V30 62574 H 6284.85 -2.96412 0.661326 0
M  V30 62575 H 6282.43 -1.44243 0.389151 0
M  V30 62576 H 6284.31 -3.89518 -1.6079 0
M  V30 62577 H 6282.99 -2.71031 -1.76985 0
M  V30 62578 H 6281.9 -3.72796 0.312067 0
M  V30 62579 H 6283.23 -4.90645 0.390961 0
M  V30 62580 N 6284.88 -0.369369 -1.5321 0
M  V30 62581 C 6285.84 0.463049 -2.24474 0
M  V30 62582 C 6286.84 1.00663 -1.25394 0
M  V30 62583 O 6288.03 0.89178 -1.49643 0
M  V30 62584 C 6285.17 1.64759 -2.98441 0
M  V30 62585 H 6286.36 -0.160584 -2.9947 0
M  V30 62586 H 6283.91 -0.121123 -1.5583 0
M  V30 62587 H 6284.65 2.30921 -2.27697 0
M  V30 62588 H 6284.43 1.26474 -3.71142 0
M  V30 62589 H 6285.92 2.23741 -3.52604 0
M  V30 62590 N 6286.36 1.57291 -0.0986369 0
M  V30 62591 C 6287.61 1.94096 0.563121 0
M  V30 62592 C 6287.93 0.981453 1.68501 0
M  V30 62593 O 6287.2 0.0341321 1.9587 0
M  V30 62594 H 6285.78 0.716578 0.211008 0
M  V30 62595 H 6288.44 1.94219 -0.162801 0
M  V30 62596 H 6287.54 2.96611 0.971008 0
M  V30 62597 N 6287.84 -0.175072 1.56625 0
M  V30 62598 C 6288.77 -1.2413 1.92677 0
M  V30 62599 C 6289.78 -1.40672 0.819467 0
M  V30 62600 O 6290.97 -1.40742 1.09791 0
M  V30 62601 C 6288.07 -2.61056 2.16109 0
M  V30 62602 C 6287.24 -2.65862 3.47327 0
M  V30 62603 C 6286.3 -3.84124 3.59632 0
M  V30 62604 O 6285.33 -3.70296 4.32284 0
M  V30 62605 N 6286.53 -5.00425 2.94203 0
M  V30 62606 H 6289.3 -0.935117 2.84738 0
M  V30 62607 H 6286.86 -0.364863 1.57735 0
M  V30 62608 H 6288.85 -3.38632 2.21609 0
M  V30 62609 H 6287.42 -2.8408 1.3045 0
M  V30 62610 H 6286.64 -1.74409 3.53518 0
M  V30 62611 H 6287.93 -2.6608 4.3368 0
M  V30 62612 H 6287.33 -5.1456 2.35042 0
M  V30 62613 H 6285.88 -5.75876 3.05304 0
M  V30 62614 N 6289.32 -1.51231 -0.443497 0
M  V30 62615 C 6290.56 -1.63271 -1.19109 0
M  V30 62616 C 6290.88 -0.348219 -1.91866 0
M  V30 62617 O 6290.15 0.635659 -1.853 0
M  V30 62618 H 6288.73 -0.601716 -0.442658 0
M  V30 62619 H 6291.4 -1.88134 -0.509068 0
M  V30 62620 H 6290.49 -2.45739 -1.92402 0
M  V30 62621 N 6290.79 0.698537 -1.41274 0
M  V30 62622 C 6291.74 1.8125 -1.42888 0
M  V30 62623 C 6292.71 1.63661 -0.283619 0
M  V30 62624 O 6293.9 1.84553 -0.484225 0
M  V30 62625 C 6291.04 3.19108 -1.31392 0
M  V30 62626 C 6290.15 3.48151 -2.55763 0
M  V30 62627 C 6289.28 4.75607 -2.36583 0
M  V30 62628 C 6288.32 4.97608 -3.56445 0
M  V30 62629 N 6287.46 6.16288 -3.36354 0
M  V30 62630 H 6292.3 1.79206 -2.38095 0
M  V30 62631 H 6289.84 0.875171 -1.18234 0
M  V30 62632 H 6291.79 3.98739 -1.2273 0
M  V30 62633 H 6290.42 3.20338 -0.397944 0
M  V30 62634 H 6289.48 2.62948 -2.74887 0
M  V30 62635 H 6290.79 3.60311 -3.44931 0
M  V30 62636 H 6289.94 5.63287 -2.25372 0
M  V30 62637 H 6288.68 4.65687 -1.44867 0
M  V30 62638 H 6287.69 4.08377 -3.68115 0
M  V30 62639 H 6288.91 5.09388 -4.49111 0
M  V30 62640 H 6286.86 6.07587 -2.47335 0
M  V30 62641 H 6286.77 6.29202 -4.19096 0
M  V30 62642 H 6288.04 7.0671 -3.28909 0
M  V30 62643 N 6292.27 1.27052 0.932495 0
M  V30 62644 C 6293.55 1.03842 1.6576 0
M  V30 62645 C 6293.93 -0.428388 2.06708 0
M  V30 62646 O 6293.28 -1.41061 1.79761 0
M  V30 62647 C 6293.49 1.99544 2.86327 0
M  V30 62648 C 6294.83 2.28645 3.5778 0
M  V30 62649 O 6295.86 1.9748 2.96446 0
M  V30 62650 O 6294.72 2.81748 4.68274 0
M  V30 62651 H 6291.81 0.395504 0.726296 0
M  V30 62652 H 6294.36 1.38298 0.983456 0
M  V30 62653 H 6293.13 2.98488 2.53023 0
M  V30 62654 H 6292.75 1.65621 3.61463 0
M  V30 62655 N 6293.75 -1.13831 1.08997 0
M  V30 62656 C 6295 -1.85007 0.823321 0
M  V30 62657 C 6295.32 -1.83282 -0.651005 0
M  V30 62658 O 6294.58 -1.26298 -1.4949 0
M  V30 62659 C 6294.88 -3.32993 1.2981 0
M  V30 62660 C 6294.54 -3.54903 2.78128 0
M  V30 62661 C 6293.21 -3.60591 3.18634 0
M  V30 62662 C 6295.56 -3.63234 3.73779 0
M  V30 62663 C 6292.89 -3.72138 4.53575 0
M  V30 62664 C 6295.24 -3.76308 5.08503 0
M  V30 62665 C 6293.9 -3.80247 5.48606 0
M  V30 62666 H 6293.17 -0.676989 0.301275 0
M  V30 62667 H 6295.82 -1.34418 1.36397 0
M  V30 62668 H 6294.12 -3.85904 0.677162 0
M  V30 62669 H 6295.82 -3.86504 1.06846 0
M  V30 62670 H 6292.41 -3.51128 2.45779 0
M  V30 62671 H 6296.6 -3.58123 3.43601 0
M  V30 62672 H 6291.85 -3.73453 4.8409 0
M  V30 62673 H 6296.03 -3.81697 5.82478 0
M  V30 62674 H 6293.65 -3.88948 6.53165 0
M  V30 62675 N 6295.23 -0.876513 -1.30977 0
M  V30 62676 C 6296.48 -0.486813 -1.95737 0
M  V30 62677 C 6296.79 0.967205 -1.70013 0
M  V30 62678 O 6298 1.46336 -2.28688 0
M  V30 62679 C 6296.45 -0.819657 -3.50442 0
M  V30 62680 C 6296.06 -2.29088 -3.84997 0
M  V30 62681 C 6297.8 -0.498745 -4.2156 0
M  V30 62682 C 6295.71 -2.56579 -5.32842 0
M  V30 62683 H 6294.64 -0.178321 -0.73261 0
M  V30 62684 H 6297.29 -1.07032 -1.49052 0
M  V30 62685 H 6295.67 -0.16533 -3.95655 0
M  V30 62686 H 6296.85 -2.98881 -3.50723 0
M  V30 62687 H 6295.16 -2.57847 -3.26961 0
M  V30 62688 H 6297.76 -0.681287 -5.30342 0
M  V30 62689 H 6298.1 0.561281 -4.12499 0
M  V30 62690 H 6298.64 -1.1099 -3.82003 0
M  V30 62691 H 6295.37 -3.6129 -5.46946 0
M  V30 62692 H 6294.89 -1.91386 -5.68446 0
M  V30 62693 H 6296.57 -2.41644 -6.00181 0
M  V30 62694 N 6296.71 1.4417 -0.636607 0
M  V30 62695 C 6297.93 2.06865 -0.148823 0
M  V30 62696 C 6298.36 1.47299 1.16982 0
M  V30 62697 O 6297.71 0.576526 1.71889 0
M  V30 62698 C 6297.76 3.6056 -0.0534332 0
M  V30 62699 O 6296.87 4.00365 0.989022 0
M  V30 62700 H 6296.21 0.658239 -0.0872742 0
M  V30 62701 H 6298.74 1.84953 -0.874837 0
M  V30 62702 H 6298.75 4.07775 0.135356 0
M  V30 62703 H 6297.42 4.03296 -1.01613 0
M  V30 62704 H 6296 3.64771 0.774362 0
M  V30 62705 N 6298.18 0.377489 1.53012 0
M  V30 62706 C 6299.11 -0.455022 2.29024 0
M  V30 62707 C 6300.1 -1.07371 1.3193 0
M  V30 62708 O 6301.28 -1.08871 1.60813 0
M  V30 62709 C 6298.41 -1.58872 3.08831 0
M  V30 62710 C 6297.36 -1.09669 4.13711 0
M  V30 62711 C 6296.69 -2.32155 4.81672 0
M  V30 62712 C 6297.99 -0.172982 5.22013 0
M  V30 62713 H 6299.68 0.179158 2.98863 0
M  V30 62714 H 6297.23 0.0876055 1.43733 0
M  V30 62715 H 6299.18 -2.17785 3.6076 0
M  V30 62716 H 6297.91 -2.25031 2.36703 0
M  V30 62717 H 6296.57 -0.530164 3.62746 0
M  V30 62718 H 6296.21 -2.96797 4.06104 0
M  V30 62719 H 6295.91 -1.99899 5.52552 0
M  V30 62720 H 6297.44 -2.91732 5.364 0
M  V30 62721 H 6298.85 -0.669945 5.69372 0
M  V30 62722 H 6297.25 0.0592572 6.00071 0
M  V30 62723 H 6298.32 0.781507 4.78561 0
M  V30 62724 N 6299.66 -1.57237 0.106977 0
M  V30 62725 C 6300.91 -1.94392 -0.552819 0
M  V30 62726 C 6301.23 -0.990375 -1.67978 0
M  V30 62727 O 6300.5 -0.0445191 -1.95849 0
M  V30 62728 H 6299.08 -0.717687 -0.207205 0
M  V30 62729 H 6301.74 -1.9413 0.173098 0
M  V30 62730 H 6300.84 -2.97121 -0.955265 0
M  V30 62731 N 6301.14 0.166763 -1.56715 0
M  V30 62732 C 6302.07 1.20853 -1.99792 0
M  V30 62733 C 6303.05 1.45915 -0.87423 0
M  V30 62734 O 6304.24 1.57172 -1.14064 0
M  V30 62735 C 6301.37 2.5464 -2.36169 0
M  V30 62736 C 6300.32 2.44138 -3.5154 0
M  V30 62737 C 6299.65 3.82456 -3.73673 0
M  V30 62738 C 6300.95 1.94223 -4.84845 0
M  V30 62739 H 6302.64 0.850438 -2.87068 0
M  V30 62740 H 6300.19 0.407647 -1.3811 0
M  V30 62741 H 6302.14 3.27726 -2.64902 0
M  V30 62742 H 6300.86 2.92246 -1.45808 0
M  V30 62743 H 6299.52 1.73505 -3.22942 0
M  V30 62744 H 6299.17 4.17463 -2.80595 0
M  V30 62745 H 6298.87 3.76296 -4.51304 0
M  V30 62746 H 6300.39 4.57121 -4.04812 0
M  V30 62747 H 6301.81 2.57087 -5.12425 0
M  V30 62748 H 6300.21 1.99001 -5.66144 0
M  V30 62749 H 6301.28 0.896783 -4.76535 0
M  V30 62750 N 6302.62 1.51464 0.43547 0
M  V30 62751 C 6303.55 1.69109 1.54709 0
M  V30 62752 C 6304.56 0.571735 1.5243 0
M  V30 62753 O 6305.75 0.846109 1.57173 0
M  V30 62754 C 6302.85 1.69227 2.93624 0
M  V30 62755 C 6302.03 2.97777 3.20386 0
M  V30 62756 C 6301.08 2.90058 4.39036 0
M  V30 62757 O 6300.11 3.64 4.37599 0
M  V30 62758 N 6301.31 2.06037 5.42705 0
M  V30 62759 H 6304.08 2.65003 1.39976 0
M  V30 62760 H 6301.64 1.49373 0.624433 0
M  V30 62761 H 6303.63 1.61629 3.71023 0
M  V30 62762 H 6302.2 0.809191 3.01945 0
M  V30 62763 H 6301.42 3.1923 2.3127 0
M  V30 62764 H 6302.71 3.82869 3.35096 0
M  V30 62765 H 6302.11 1.45343 5.4671 0
M  V30 62766 H 6300.66 2.04317 6.18949 0
M  V30 62767 N 6304.1 -0.691035 1.41642 0
M  V30 62768 C 6305.37 -1.4459 1.31731 0
M  V30 62769 C 6305.75 -2.11033 -0.0529882 0
M  V30 62770 O 6305.1 -2.02031 -1.06752 0
M  V30 62771 C 6305.31 -2.46163 2.47396 0
M  V30 62772 C 6306.66 -3.11283 2.8877 0
M  V30 62773 O 6307.68 -2.56488 2.47169 0
M  V30 62774 O 6306.54 -4.10539 3.60722 0
M  V30 62775 H 6303.64 -0.644145 0.518658 0
M  V30 62776 H 6306.18 -0.72113 1.53616 0
M  V30 62777 H 6304.95 -1.95752 3.38817 0
M  V30 62778 H 6304.58 -3.26143 2.27412 0
M  V30 62779 N 6305.57 -1.27545 -0.925744 0
M  V30 62780 C 6306.82 -1.13773 -1.67034 0
M  V30 62781 C 6307.14 0.316535 -1.92414 0
M  V30 62782 O 6306.41 1.22119 -1.53179 0
M  V30 62783 H 6304.99 -0.418052 -0.619065 0
M  V30 62784 H 6307.66 -1.60101 -1.11147 0
M  V30 62785 H 6306.75 -1.66827 -2.63771 0
M  V30 62786 N 6307.05 1.13251 -1.09599 0
M  V30 62787 C 6308 2.16781 -0.706401 0
M  V30 62788 C 6308.99 1.58443 0.280126 0
M  V30 62789 O 6310.18 1.7677 0.090215 0
M  V30 62790 C 6307.31 3.43052 -0.130454 0
M  V30 62791 C 6306.39 4.08393 -1.1435 0
M  V30 62792 N 6306.78 4.48873 -2.33123 0
M  V30 62793 C 6305.08 4.35054 -0.982046 0
M  V30 62794 C 6305.78 4.99821 -2.97579 0
M  V30 62795 N 6304.76 4.94789 -2.25132 0
M  V30 62796 H 6308.56 2.45835 -1.61066 0
M  V30 62797 H 6306.08 1.30065 -0.97246 0
M  V30 62798 H 6308.07 4.16567 0.166678 0
M  V30 62799 H 6306.73 3.15471 0.768638 0
M  V30 62800 H 6307.74 4.4152 -2.70704 0
M  V30 62801 H 6304.42 4.17273 -0.137788 0
M  V30 62802 H 6305.81 5.40924 -3.98561 0
M  V30 62803 N 6308.53 0.883447 1.3051 0
M  V30 62804 C 6309.46 0.365242 2.30626 0
M  V30 62805 C 6310.44 -0.551092 1.60925 0
M  V30 62806 O 6311.63 -0.465267 1.88544 0
M  V30 62807 C 6308.76 -0.42243 3.44721 0
M  V30 62808 C 6307.71 0.402006 4.26108 0
M  V30 62809 C 6307.04 -0.512176 5.32241 0
M  V30 62810 C 6308.34 1.64331 4.95775 0
M  V30 62811 H 6310.03 1.20185 2.74219 0
M  V30 62812 H 6307.58 0.579362 1.31831 0
M  V30 62813 H 6309.53 -0.795581 4.13822 0
M  V30 62814 H 6308.25 -1.29267 2.99929 0
M  V30 62815 H 6306.91 0.757276 3.58693 0
M  V30 62816 H 6306.56 -1.38008 4.83697 0
M  V30 62817 H 6306.26 0.0356397 5.87589 0
M  V30 62818 H 6307.78 -0.881876 6.04198 0
M  V30 62819 H 6309.2 1.34083 5.574 0
M  V30 62820 H 6307.6 2.1312 5.60981 0
M  V30 62821 H 6308.67 2.38858 4.21989 0
M  V30 62822 N 6310.01 -1.43831 0.644244 0
M  V30 62823 C 6311.25 -2.02213 0.154226 0
M  V30 62824 C 6311.59 -1.50653 -1.22546 0
M  V30 62825 O 6310.86 -0.695934 -1.81623 0
M  V30 62826 C 6311.15 -3.59765 0.155233 0
M  V30 62827 C 6311 -4.21578 1.56819 0
M  V30 62828 C 6312.32 -4.37097 -0.513211 0
M  V30 62829 H 6309.44 -0.734752 0.0575171 0
M  V30 62830 H 6312.08 -1.7124 0.82322 0
M  V30 62831 H 6310.23 -3.86283 -0.414432 0
M  V30 62832 H 6311.9 -4.06122 2.18775 0
M  V30 62833 H 6310.14 -3.78571 2.11817 0
M  V30 62834 H 6310.81 -5.30636 1.52082 0
M  V30 62835 H 6313.29 -4.1609 -0.0286205 0
M  V30 62836 H 6312.17 -5.46782 -0.481744 0
M  V30 62837 H 6312.43 -4.12679 -1.58583 0
M  V30 62838 N 6311.49 -0.385598 -1.5281 0
M  V30 62839 C 6312.73 0.197774 -2.01532 0
M  V30 62840 C 6313.06 1.47124 -1.2722 0
M  V30 62841 O 6312.32 1.92362 -0.359934 0
M  V30 62842 C 6312.62 0.515786 -3.53659 0
M  V30 62843 C 6312.28 -0.665692 -4.45959 0
M  V30 62844 C 6310.94 -0.989824 -4.7091 0
M  V30 62845 C 6313.3 -1.45628 -5.00442 0
M  V30 62846 C 6310.62 -2.10615 -5.47593 0
M  V30 62847 C 6312.98 -2.56318 -5.78346 0
M  V30 62848 C 6311.64 -2.89244 -6.01576 0
M  V30 62849 H 6310.91 0.0723706 -0.737457 0
M  V30 62850 H 6313.56 -0.522183 -1.84243 0
M  V30 62851 H 6311.86 1.31702 -3.69001 0
M  V30 62852 H 6313.56 0.979737 -3.88847 0
M  V30 62853 H 6310.15 -0.40305 -4.26701 0
M  V30 62854 H 6314.33 -1.2191 -4.81094 0
M  V30 62855 H 6309.59 -2.365 -5.63806 0
M  V30 62856 H 6313.76 -3.17981 -6.19565 0
M  V30 62857 H 6311.39 -3.75865 -6.60779 0
M  V30 62858 N 6312.97 1.57178 -0.115314 0
M  V30 62859 C 6314.38 1.57766 0.241289 0
M  V30 62860 C 6314.58 1.12781 1.66981 0
M  V30 62861 O 6313.64 0.813503 2.39036 0
M  V30 62862 C 6314.95 3.00698 0.0113234 0
M  V30 62863 C 6316.5 3.12904 0.0775087 0
M  V30 62864 C 6316.97 4.5783 -0.124718 0
M  V30 62865 N 6318.46 4.63146 -0.0705626 0
M  V30 62866 C 6319.2 5.73044 -0.201992 0
M  V30 62867 N 6318.7 6.91705 -0.389386 0
M  V30 62868 N 6320.49 5.61921 -0.141827 0
M  V30 62869 H 6312.64 1.84721 -1.04842 0
M  V30 62870 H 6314.9 0.853527 -0.412547 0
M  V30 62871 H 6314.61 3.37883 -0.976114 0
M  V30 62872 H 6314.48 3.69773 0.744817 0
M  V30 62873 H 6316.87 2.75579 1.05547 0
M  V30 62874 H 6316.95 2.4638 -0.687806 0
M  V30 62875 H 6316.59 4.95853 -1.09963 0
M  V30 62876 H 6316.52 5.22441 0.660538 0
M  V30 62877 H 6319.02 3.77833 0.0709114 0
M  V30 62878 H 6319.33 7.71304 -0.480636 0
M  V30 62879 H 6317.67 6.93697 -0.425313 0
M  V30 62880 H 6320.86 4.681 0.00358417 0
M  V30 62881 H 6321.04 6.47526 -0.247698 0
M  V30 62882 N 6314.44 -0.15845 1.56801 0
M  V30 62883 C 6315.67 -0.886918 1.86594 0
M  V30 62884 C 6316.08 -1.75767 0.700177 0
M  V30 62885 O 6315.42 -1.80534 -0.339558 0
M  V30 62886 C 6315.49 -1.80407 3.10956 0
M  V30 62887 C 6315.15 -1.11163 4.43274 0
M  V30 62888 C 6316.15 -0.470951 5.17763 0
M  V30 62889 C 6313.83 -1.10454 4.90005 0
M  V30 62890 C 6315.83 0.167557 6.3718 0
M  V30 62891 C 6313.51 -0.462218 6.09349 0
M  V30 62892 C 6314.51 0.172717 6.82782 0
M  V30 62893 O 6314.2 0.804886 7.9986 0
M  V30 62894 H 6313.93 -0.262443 0.622976 0
M  V30 62895 H 6316.49 -0.159454 2.0478 0
M  V30 62896 H 6314.72 -2.57218 2.88749 0
M  V30 62897 H 6316.4 -2.40349 3.27089 0
M  V30 62898 H 6317.17 -0.46831 4.82734 0
M  V30 62899 H 6313.05 -1.58816 4.3278 0
M  V30 62900 H 6316.59 0.663742 6.94435 0
M  V30 62901 H 6312.49 -0.462487 6.43841 0
M  V30 62902 H 6313.26 0.705413 8.15455 0
M  V30 62903 N 6315.92 -1.51693 -0.427432 0
M  V30 62904 C 6316.85 -1.69927 -1.5381 0
M  V30 62905 C 6317.87 -0.57981 -1.52125 0
M  V30 62906 O 6319.06 -0.854432 -1.56722 0
M  V30 62907 C 6316.16 -1.70782 -2.92723 0
M  V30 62908 C 6315.33 -2.99472 -3.18803 0
M  V30 62909 C 6314.39 -2.92382 -4.37492 0
M  V30 62910 O 6313.41 -3.66316 -4.35662 0
M  V30 62911 N 6314.62 -2.08913 -5.41605 0
M  V30 62912 H 6317.38 -2.65742 -1.38569 0
M  V30 62913 H 6314.94 -1.49703 -0.616503 0
M  V30 62914 H 6316.93 -1.63594 -3.70161 0
M  V30 62915 H 6315.5 -0.825193 -3.01512 0
M  V30 62916 H 6314.72 -3.20452 -2.29574 0
M  V30 62917 H 6316.01 -3.8464 -3.3306 0
M  V30 62918 H 6315.41 -1.4824 -5.45932 0
M  V30 62919 H 6313.97 -2.07596 -6.17857 0
M  V30 62920 N 6317.4 0.683514 -1.42007 0
M  V30 62921 C 6318.33 1.80945 -1.47584 0
M  V30 62922 C 6319.31 1.66803 -0.333267 0
M  V30 62923 O 6320.5 1.86355 -0.54638 0
M  V30 62924 C 6317.63 3.19177 -1.36906 0
M  V30 62925 C 6316.58 3.48041 -2.49101 0
M  V30 62926 C 6315.91 4.85756 -2.23484 0
M  V30 62927 C 6317.21 3.45807 -3.91427 0
M  V30 62928 H 6318.9 1.76534 -2.41818 0
M  V30 62929 H 6316.45 0.847899 -1.1639 0
M  V30 62930 H 6318.4 3.97669 -1.39418 0
M  V30 62931 H 6317.12 3.24243 -0.391627 0
M  V30 62932 H 6315.78 2.71906 -2.45892 0
M  V30 62933 H 6315.43 4.87462 -1.24054 0
M  V30 62934 H 6315.13 5.06032 -2.98672 0
M  V30 62935 H 6316.65 5.66543 -2.27731 0
M  V30 62936 H 6318.07 4.14283 -3.96286 0
M  V30 62937 H 6316.46 3.77617 -4.66396 0
M  V30 62938 H 6317.53 2.44546 -4.18719 0
M  V30 62939 N 6318.88 1.28034 0.918967 0
M  V30 62940 C 6320.13 1.14657 1.66428 0
M  V30 62941 C 6320.45 -0.306327 1.92579 0
M  V30 62942 O 6319.72 -1.21304 1.53825 0
M  V30 62943 H 6318.3 0.421329 0.616839 0
M  V30 62944 H 6320.96 1.60688 1.10296 0
M  V30 62945 H 6320.05 1.68224 2.62883 0
M  V30 62946 N 6320.36 -1.12669 1.10198 0
M  V30 62947 C 6321.58 -1.88492 0.865179 0
M  V30 62948 C 6322.01 -1.78979 -0.578628 0
M  V30 62949 O 6321.36 -1.14297 -1.40733 0
M  V30 62950 C 6321.41 -3.35763 1.31511 0
M  V30 62951 O 6320.52 -4.09614 0.478591 0
M  V30 62952 H 6319.86 -0.585771 0.312679 0
M  V30 62953 H 6322.39 -1.425 1.46816 0
M  V30 62954 H 6322.4 -3.86601 1.30399 0
M  V30 62955 H 6321.07 -3.42005 2.36655 0
M  V30 62956 H 6319.65 -3.68751 0.554719 0
M  V30 62957 N 6321.83 -0.890356 -1.3004 0
M  V30 62958 C 6323.08 -0.510509 -1.95546 0
M  V30 62959 C 6323.4 0.944502 -1.70599 0
M  V30 62960 O 6322.67 1.66478 -1.03256 0
M  V30 62961 H 6321.25 -0.185801 -0.723524 0
M  V30 62962 H 6323.91 -1.13461 -1.5847 0
M  V30 62963 H 6323.01 -0.685262 -3.04484 0
M  V30 62964 N 6323.31 1.43487 -0.651863 0
M  V30 62965 C 6324.22 2.34564 0.041229 0
M  V30 62966 C 6325.24 1.53805 0.813626 0
M  V30 62967 O 6326.41 1.86462 0.76118 0
M  V30 62968 C 6323.48 3.32067 0.996628 0
M  V30 62969 C 6322.54 4.28729 0.221314 0
M  V30 62970 C 6321.77 5.21574 1.1312 0
M  V30 62971 O 6322 5.18812 2.37044 0
M  V30 62972 O 6320.93 5.98858 0.604341 0
M  V30 62973 H 6324.76 2.95323 -0.708399 0
M  V30 62974 H 6322.34 1.43605 -0.41205 0
M  V30 62975 H 6324.22 3.92027 1.54573 0
M  V30 62976 H 6322.9 2.73813 1.72651 0
M  V30 62977 H 6321.8 3.72252 -0.371336 0
M  V30 62978 H 6323.14 4.89961 -0.468969 0
M  V30 62979 N 6324.79 0.393696 1.52603 0
M  V30 62980 C 6325.75 -0.427279 2.25182 0
M  V30 62981 C 6326.75 -0.986551 1.2698 0
M  V30 62982 O 6327.94 -0.86786 1.51042 0
M  V30 62983 C 6325.07 -1.59991 3.01025 0
M  V30 62984 H 6326.27 0.208207 2.99176 0
M  V30 62985 H 6323.82 0.145898 1.55618 0
M  V30 62986 H 6324.56 -2.2727 2.31342 0
M  V30 62987 H 6324.34 -1.20554 3.73108 0
M  V30 62988 H 6325.83 -2.18103 3.56119 0
M  V30 62989 N 6326.27 -1.57114 0.123648 0
M  V30 62990 C 6327.68 -1.57891 -0.232919 0
M  V30 62991 C 6327.88 -1.13665 -1.66381 0
M  V30 62992 O 6326.94 -0.826168 -2.38602 0
M  V30 62993 C 6328.25 -3.007 0.00462351 0
M  V30 62994 C 6329.8 -3.12941 -0.0609135 0
M  V30 62995 C 6330.28 -4.57758 0.148996 0
M  V30 62996 N 6331.77 -4.63102 0.0951234 0
M  V30 62997 C 6332.5 -5.72929 0.232379 0
M  V30 62998 N 6332 -6.91489 0.426063 0
M  V30 62999 N 6333.79 -5.61838 0.171625 0
M  V30 63000 H 6325.94 -1.84162 1.05821 0
M  V30 63001 H 6328.21 -0.851327 0.417068 0
M  V30 63002 H 6327.91 -3.37361 0.994019 0
M  V30 63003 H 6327.79 -3.70163 -0.725197 0
M  V30 63004 H 6330.17 -2.76135 -1.04084 0
M  V30 63005 H 6330.25 -2.46011 0.700862 0
M  V30 63006 H 6329.9 -4.95263 1.12592 0
M  V30 63007 H 6329.83 -5.22784 -0.632822 0
M  V30 63008 H 6332.32 -3.77866 -0.0508729 0
M  V30 63009 H 6332.63 -7.71038 0.521534 0
M  V30 63010 H 6330.98 -6.93462 0.462095 0
M  V30 63011 H 6334.17 -4.68095 0.0212404 0
M  V30 63012 H 6334.34 -6.47386 0.282034 0
M  V30 63013 N 6327.75 0.150132 -1.56883 0
M  V30 63014 C 6328.68 1.18728 -2.01062 0
M  V30 63015 C 6329.66 1.4498 -0.889657 0
M  V30 63016 O 6330.84 1.55953 -1.15724 0
M  V30 63017 C 6327.97 2.5212 -2.38857 0
M  V30 63018 C 6326.93 2.40396 -3.5411 0
M  V30 63019 C 6326.25 3.78471 -3.77709 0
M  V30 63020 C 6327.55 1.89069 -4.86878 0
M  V30 63021 H 6329.25 0.819942 -2.87954 0
M  V30 63022 H 6326.79 0.392976 -1.38534 0
M  V30 63023 H 6328.75 3.24898 -2.68364 0
M  V30 63024 H 6327.47 2.90683 -1.48899 0
M  V30 63025 H 6326.13 1.7007 -3.24764 0
M  V30 63026 H 6325.78 4.14464 -2.85007 0
M  V30 63027 H 6325.48 3.71488 -4.55269 0
M  V30 63028 H 6327 4.52802 -4.09637 0
M  V30 63029 H 6328.41 2.51638 -5.15123 0
M  V30 63030 H 6326.81 1.92985 -5.68223 0
M  V30 63031 H 6327.88 0.846189 -4.7746 0
M  V30 63032 N 6329.22 1.51918 0.419381 0
M  V30 63033 C 6330.47 1.65718 1.16899 0
M  V30 63034 C 6330.8 0.380955 1.90427 0
M  V30 63035 O 6330.08 -0.620232 1.84346 0
M  V30 63036 C 6330.36 2.87246 2.17167 0
M  V30 63037 C 6330.21 4.24892 1.47604 0
M  V30 63038 C 6331.53 3.04292 3.17953 0
M  V30 63039 H 6328.65 0.603087 0.423622 0
M  V30 63040 H 6331.29 1.84448 0.45597 0
M  V30 63041 H 6329.44 2.71408 2.77975 0
M  V30 63042 H 6331.12 4.52436 0.899953 0
M  V30 63043 H 6329.36 4.26764 0.778123 0
M  V30 63044 H 6330.03 5.05953 2.20715 0
M  V30 63045 H 6332.51 3.1896 2.67215 0
M  V30 63046 H 6331.38 3.90857 3.85386 0
M  V30 63047 H 6331.64 2.17152 3.85094 0
M  V30 63048 N 6330.7 -0.675973 1.42367 0
M  V30 63049 C 6331.93 -1.46932 1.46376 0
M  V30 63050 C 6332.35 -1.87946 0.0761651 0
M  V30 63051 O 6331.71 -1.55921 -0.925117 0
M  V30 63052 C 6331.76 -2.69549 2.39532 0
M  V30 63053 O 6330.86 -3.67776 1.86588 0
M  V30 63054 H 6330.2 -0.441461 0.495992 0
M  V30 63055 H 6332.73 -0.829218 1.87043 0
M  V30 63056 H 6332.74 -3.17633 2.56072 0
M  V30 63057 H 6331.42 -2.39037 3.40344 0
M  V30 63058 H 6330 -3.26802 1.79596 0
M  V30 63059 N 6332.18 -1.2852 -0.912164 0
M  V30 63060 C 6333.09 -1.14436 -2.04796 0
M  V30 63061 C 6334.11 -0.0705537 -1.73857 0
M  V30 63062 O 6335.28 -0.280161 -1.99442 0
M  V30 63063 C 6332.35 -0.809152 -3.37126 0
M  V30 63064 C 6331.41 -1.96549 -3.81664 0
M  V30 63065 C 6330.64 -1.64618 -5.07678 0
M  V30 63066 O 6330.86 -0.561272 -5.67632 0
M  V30 63067 O 6329.8 -2.49031 -5.47967 0
M  V30 63068 H 6333.62 -2.09788 -2.19597 0
M  V30 63069 H 6331.21 -1.07853 -1.03383 0
M  V30 63070 H 6333.09 -0.636228 -4.16569 0
M  V30 63071 H 6331.77 0.114698 -3.23497 0
M  V30 63072 H 6330.67 -2.19358 -3.0304 0
M  V30 63073 H 6332.01 -2.8701 -3.99858 0
M  V30 63074 N 6333.66 1.12083 -1.10794 0
M  V30 63075 C 6334.94 1.80036 -0.764612 0
M  V30 63076 C 6335.32 1.9739 0.74836 0
M  V30 63077 O 6334.66 1.55321 1.67593 0
M  V30 63078 C 6334.87 3.14163 -1.51996 0
M  V30 63079 C 6336.22 3.89305 -1.69489 0
M  V30 63080 O 6337.25 3.23831 -1.48365 0
M  V30 63081 O 6336.1 5.06779 -2.04542 0
M  V30 63082 H 6333.2 0.779488 -0.276274 0
M  V30 63083 H 6335.74 1.18885 -1.21097 0
M  V30 63084 H 6334.52 2.96845 -2.54948 0
M  V30 63085 H 6334.14 3.83023 -1.06671 0
M  V30 63086 N 6335.14 0.89724 1.29566 0
M  V30 63087 C 6336.55 0.570739 1.77762 0
M  V30 63088 C 6336.9 -0.913534 1.73635 0
M  V30 63089 O 6336.02 -1.71422 1.32074 0
M  V30 63090 C 6336.62 1.02925 3.22788 0
M  V30 63091 C 6335.18 0.753958 3.68772 0
M  V30 63092 C 6334.32 1.20534 2.49734 0
M  V30 63093 H 6337.28 1.08022 1.16263 0
M  V30 63094 H 6337.3 0.363476 3.7876 0
M  V30 63095 H 6336.81 2.10955 3.2576 0
M  V30 63096 H 6334.91 -0.313834 3.71276 0
M  V30 63097 H 6335.02 1.35011 4.59683 0
M  V30 63098 H 6333.39 0.624391 2.46928 0
M  V30 63099 H 6334.17 2.29364 2.55435 0
M  V30 63100 N 6336.61 -1.43139 0.659463 0
M  V30 63101 C 6337.86 -2.00959 0.172702 0
M  V30 63102 C 6338.18 -1.52673 -1.22271 0
M  V30 63103 O 6339.38 -2.02808 -1.80502 0
M  V30 63104 C 6337.84 -3.58975 0.257928 0
M  V30 63105 C 6337.45 -4.16253 1.65643 0
M  V30 63106 C 6339.19 -4.24156 -0.170908 0
M  V30 63107 C 6337.1 -5.66582 1.69525 0
M  V30 63108 H 6336.03 -0.751544 0.060803 0
M  V30 63109 H 6338.68 -1.64039 0.82241 0
M  V30 63110 H 6337.06 -3.93326 -0.4594 0
M  V30 63111 H 6338.23 -3.93389 2.39961 0
M  V30 63112 H 6336.55 -3.63466 2.03178 0
M  V30 63113 H 6339.15 -5.34455 -0.161839 0
M  V30 63114 H 6339.49 -3.98525 -1.20346 0
M  V30 63115 H 6340.02 -3.9471 0.494883 0
M  V30 63116 H 6336.76 -5.96989 2.70711 0
M  V30 63117 H 6336.28 -5.91483 0.995409 0
M  V30 63118 H 6337.96 -6.30731 1.44178 0
M  V30 63119 N 6338.09 -0.401784 -1.52392 0
M  V30 63120 C 6339.04 0.442062 -2.28361 0
M  V30 63121 C 6340.03 1.05224 -1.32757 0
M  V30 63122 O 6341.24 0.991279 -1.50245 0
M  V30 63123 H 6337.62 0.16133 -0.734491 0
M  V30 63124 H 6339.59 -0.219973 -2.97588 0
M  V30 63125 C 6338.34 1.55051 -3.11215 0
M  V30 63126 H 6337.66 1.09032 -3.84645 0
M  V30 63127 H 6339.1 2.11492 -3.67488 0
M  V30 63128 C 6337.56 2.51368 -2.24312 0
M  V30 63129 O 6338.09 3.55077 -1.87837 0
M  V30 63130 N 6336.29 2.21403 -1.88226 0
M  V30 63131 H 6335.84 1.37099 -2.18086 0
M  V30 63132 H 6335.8 2.86095 -1.30372 0
M  V30 63133 N 6339.57 1.57046 -0.131978 0
M  V30 63134 C 6340.85 1.87198 0.567113 0
M  V30 63135 C 6341.23 1.0354 1.83964 0
M  V30 63136 O 6340.58 0.117939 2.28195 0
M  V30 63137 C 6340.79 3.38564 0.84706 0
M  V30 63138 C 6342.13 4.07453 1.19444 0
M  V30 63139 O 6343.16 3.43658 0.936905 0
M  V30 63140 O 6342.02 5.20089 1.67838 0
M  V30 63141 H 6339.11 0.775388 0.287581 0
M  V30 63142 H 6341.66 1.68872 -0.16746 0
M  V30 63143 H 6340.43 3.91263 -0.0541575 0
M  V30 63144 H 6340.05 3.62367 1.63634 0
M  V30 63145 N 6341.05 -0.14181 1.56961 0
M  V30 63146 C 6342.3 -0.851859 1.8327 0
M  V30 63147 C 6342.62 -1.81471 0.713675 0
M  V30 63148 O 6341.89 -1.94109 -0.264257 0
M  V30 63149 H 6340.47 -0.31757 0.676135 0
M  V30 63150 H 6343.13 -0.134574 1.94435 0
M  V30 63151 H 6342.23 -1.41096 2.78385 0
M  V30 63152 N 6342.53 -1.52138 -0.411319 0
M  V30 63153 C 6343.44 -1.7821 -1.52572 0
M  V30 63154 C 6344.45 -0.667558 -1.60685 0
M  V30 63155 O 6345.63 -0.952723 -1.77441 0
M  V30 63156 C 6342.69 -1.9253 -2.88328 0
M  V30 63157 C 6341.76 -3.16431 -2.9012 0
M  V30 63158 C 6340.99 -3.30059 -4.19401 0
M  V30 63159 O 6341.21 -2.49003 -5.1318 0
M  V30 63160 O 6340.15 -4.23197 -4.28005 0
M  V30 63161 H 6343.97 -2.72796 -1.33477 0
M  V30 63162 H 6341.56 -1.36955 -0.596956 0
M  V30 63163 H 6343.44 -2.03784 -3.6885 0
M  V30 63164 H 6342.11 -1.01134 -3.07496 0
M  V30 63165 H 6341.02 -3.10637 -2.0846 0
M  V30 63166 H 6342.35 -4.07602 -2.75901 0
M  V30 63167 N 6344.01 0.668413 -1.42723 0
M  V30 63168 C 6345.25 1.42901 -1.44744 0
M  V30 63169 C 6345.61 1.9229 -0.0650307 0
M  V30 63170 O 6344.9 1.68402 0.913857 0
M  V30 63171 C 6345.09 2.63734 -2.41203 0
M  V30 63172 C 6344.92 2.26169 -3.88687 0
M  V30 63173 C 6343.69 2.15223 -4.57173 0
M  V30 63174 C 6345.89 1.87412 -4.78938 0
M  V30 63175 N 6343.87 1.70829 -5.89653 0
M  V30 63176 C 6345.24 1.53985 -6.00574 0
M  V30 63177 C 6347.3 1.7446 -4.66335 0
M  V30 63178 C 6346 1.08906 -7.11008 0
M  V30 63179 C 6348.03 1.30786 -5.76757 0
M  V30 63180 C 6347.39 0.982873 -6.97509 0
M  V30 63181 H 6343.49 0.519151 -0.584813 0
M  V30 63182 H 6346.07 0.770714 -1.78796 0
M  V30 63183 H 6344.24 3.27244 -2.09203 0
M  V30 63184 H 6345.98 3.3036 -2.33762 0
M  V30 63185 H 6342.73 2.34496 -4.11471 0
M  V30 63186 H 6343.15 1.51037 -6.59937 0
M  V30 63187 H 6347.8 1.9823 -3.73449 0
M  V30 63188 H 6345.51 0.838831 -8.03735 0
M  V30 63189 H 6349.1 1.21276 -5.6902 0
M  V30 63190 H 6347.98 0.650062 -7.81501 0
M  V30 63191 N 6345.48 1.29002 0.905335 0
M  V30 63192 C 6346.43 1.10281 1.99555 0
M  V30 63193 C 6347.42 0.0239129 1.60882 0
M  V30 63194 O 6348.61 0.244997 1.75296 0
M  V30 63195 C 6345.74 0.7755 3.34426 0
M  V30 63196 C 6344.82 1.89365 3.79475 0
M  V30 63197 N 6345.22 3.13644 3.96814 0
M  V30 63198 C 6343.51 1.78541 4.08704 0
M  V30 63199 C 6344.21 3.86556 4.34683 0
M  V30 63200 N 6343.19 3.14461 4.43413 0
M  V30 63201 H 6346.99 2.04565 2.11022 0
M  V30 63202 H 6344.51 1.20044 1.09376 0
M  V30 63203 H 6346.5 0.622441 4.12227 0
M  V30 63204 H 6345.16 -0.159485 3.24308 0
M  V30 63205 H 6346.17 3.49161 3.82501 0
M  V30 63206 H 6342.85 0.922768 4.07175 0
M  V30 63207 H 6344.24 4.9348 4.5599 0
M  V30 63208 N 6346.96 -1.11493 1.11387 0
M  V30 63209 C 6348.38 -1.35229 0.847663 0
M  V30 63210 C 6348.58 -1.94462 -0.527905 0
M  V30 63211 O 6347.63 -2.17721 -1.27883 0
M  V30 63212 C 6348.95 -2.28447 1.95531 0
M  V30 63213 C 6350.49 -2.42013 1.98491 0
M  V30 63214 C 6350.97 -3.38552 3.08458 0
M  V30 63215 N 6352.46 -3.46115 3.07829 0
M  V30 63216 C 6353.2 -4.20753 3.89557 0
M  V30 63217 N 6352.69 -4.98371 4.81246 0
M  V30 63218 N 6354.48 -4.16259 3.77736 0
M  V30 63219 H 6346.64 -0.714086 2.00036 0
M  V30 63220 H 6348.9 -0.376905 0.869854 0
M  V30 63221 H 6348.6 -1.92115 2.94592 0
M  V30 63222 H 6348.48 -3.2866 1.85101 0
M  V30 63223 H 6350.87 -2.7762 1.00057 0
M  V30 63224 H 6350.95 -1.41653 2.12998 0
M  V30 63225 H 6350.59 -3.03673 4.07118 0
M  V30 63226 H 6350.52 -4.38765 2.91191 0
M  V30 63227 H 6353.01 -2.90751 2.41397 0
M  V30 63228 H 6353.32 -5.52689 5.40143 0
M  V30 63229 H 6351.67 -4.97534 4.85268 0
M  V30 63230 H 6354.86 -3.54709 3.05449 0
M  V30 63231 H 6355.03 -4.7417 4.41663 0
M  V30 63232 N 6348.44 -0.904098 -1.29088 0
M  V30 63233 C 6349.69 -0.53306 -1.95669 0
M  V30 63234 C 6350.02 0.919134 -1.71072 0
M  V30 63235 O 6349.29 1.65227 -1.02618 0
M  V30 63236 C 6349.58 -0.831375 -3.50371 0
M  V30 63237 C 6349.43 -2.33559 -3.84409 0
M  V30 63238 C 6350.75 -0.320879 -4.38929 0
M  V30 63239 H 6347.87 -0.195142 -0.710696 0
M  V30 63240 H 6350.51 -1.13158 -1.52628 0
M  V30 63241 H 6348.66 -0.321989 -3.87163 0
M  V30 63242 H 6350.33 -2.91486 -3.57538 0
M  V30 63243 H 6348.57 -2.79453 -3.31795 0
M  V30 63244 H 6349.25 -2.49489 -4.92402 0
M  V30 63245 H 6351.72 -0.757118 -4.09154 0
M  V30 63246 H 6350.6 -0.558772 -5.46048 0
M  V30 63247 H 6350.86 0.778546 -4.35191 0
M  V30 63248 N 6349.92 1.42788 -0.667045 0
M  V30 63249 C 6351.15 2.05986 -0.194265 0
M  V30 63250 C 6351.56 1.50075 1.14555 0
M  V30 63251 O 6350.92 0.637479 1.71004 0
M  V30 63252 C 6350.97 3.61326 -0.112161 0
M  V30 63253 O 6350.69 4.15161 -1.39902 0
M  V30 63254 C 6352.19 4.41625 0.385046 0
M  V30 63255 H 6349.41 0.664052 -0.0963113 0
M  V30 63256 H 6351.95 1.83058 -0.911595 0
M  V30 63257 H 6350.11 3.83392 0.555809 0
M  V30 63258 H 6350.52 5.0896 -1.26728 0
M  V30 63259 H 6352 5.50611 0.391418 0
M  V30 63260 H 6352.47 4.15648 1.41891 0
M  V30 63261 H 6353.08 4.24559 -0.250915 0
M  V30 63262 N 6351.4 0.40986 1.52177 0
M  V30 63263 C 6352.36 -0.403371 2.25623 0
M  V30 63264 C 6353.36 -0.973027 1.28019 0
M  V30 63265 O 6354.55 -0.851791 1.51954 0
M  V30 63266 C 6351.68 -1.56789 3.02705 0
M  V30 63267 H 6352.87 0.239927 2.98939 0
M  V30 63268 H 6350.43 0.162396 1.55454 0
M  V30 63269 H 6351.16 -2.24803 2.33739 0
M  V30 63270 H 6350.95 -1.1659 3.74365 0
M  V30 63271 H 6352.44 -2.14313 3.58412 0
M  V30 63272 N 6352.87 -1.56974 0.140305 0
M  V30 63273 C 6353.8 -2.19435 -0.798156 0
M  V30 63274 C 6354.78 -1.14059 -1.26192 0
M  V30 63275 O 6355.97 -1.42377 -1.32069 0
M  V30 63276 C 6353.1 -2.81066 -2.04008 0
M  V30 63277 C 6352.05 -3.9221 -1.71333 0
M  V30 63278 C 6351.38 -4.40746 -3.02733 0
M  V30 63279 C 6352.68 -5.13305 -0.965146 0
M  V30 63280 H 6354.37 -2.9811 -0.277611 0
M  V30 63281 H 6351.92 -1.43393 -0.132087 0
M  V30 63282 H 6353.87 -3.23427 -2.70135 0
M  V30 63283 H 6352.6 -1.99712 -2.58423 0
M  V30 63284 H 6351.26 -3.50458 -1.07587 0
M  V30 63285 H 6350.9 -3.56223 -3.55126 0
M  V30 63286 H 6350.6 -5.15708 -2.81636 0
M  V30 63287 H 6352.13 -4.85772 -3.69943 0
M  V30 63288 H 6353.54 -5.52552 -1.52838 0
M  V30 63289 H 6351.94 -5.93987 -0.854365 0
M  V30 63290 H 6353.01 -4.8488 0.0443392 0
M  V30 63291 N 6354.35 0.133484 -1.57034 0
M  V30 63292 C 6355.77 0.486569 -1.52002 0
M  V30 63293 C 6355.97 1.8265 -0.850963 0
M  V30 63294 O 6355.02 2.4886 -0.427177 0
M  V30 63295 C 6356.34 0.484411 -2.96773 0
M  V30 63296 C 6357.88 0.568981 -3.07785 0
M  V30 63297 C 6358.36 0.597355 -4.54088 0
M  V30 63298 N 6359.85 0.659202 -4.58485 0
M  V30 63299 C 6360.59 0.702364 -5.69082 0
M  V30 63300 N 6360.08 0.70405 -6.89213 0
M  V30 63301 N 6361.87 0.744274 -5.57151 0
M  V30 63302 H 6354.03 -0.744652 -1.98919 0
M  V30 63303 H 6356.29 -0.273081 -0.907816 0
M  V30 63304 H 6355.99 -0.432201 -3.49034 0
M  V30 63305 H 6355.87 1.31747 -3.53444 0
M  V30 63306 H 6358.26 1.47601 -2.55534 0
M  V30 63307 H 6358.34 -0.29149 -2.54134 0
M  V30 63308 H 6357.98 -0.305573 -5.0698 0
M  V30 63309 H 6357.91 1.47451 -5.05535 0
M  V30 63310 H 6360.4 0.66465 -3.72009 0
M  V30 63311 H 6360.71 0.739207 -7.69257 0
M  V30 63312 H 6359.06 0.671707 -6.91746 0
M  V30 63313 H 6362.25 0.74022 -4.6221 0
M  V30 63314 H 6362.42 0.774446 -6.43356 0
M  V30 63315 N 6355.83 1.52354 0.403245 0
M  V30 63316 C 6356.74 1.79017 1.51625 0
M  V30 63317 C 6357.76 0.67607 1.60329 0
M  V30 63318 O 6358.93 0.96212 1.76933 0
M  V30 63319 C 6356 1.94056 2.87303 0
M  V30 63320 C 6355.06 3.17966 2.88438 0
M  V30 63321 C 6354.29 3.32278 4.17644 0
M  V30 63322 O 6354.51 2.51721 5.11852 0
M  V30 63323 O 6353.45 4.25461 4.25754 0
M  V30 63324 H 6357.27 2.735 1.32029 0
M  V30 63325 H 6354.86 1.3727 0.589684 0
M  V30 63326 H 6356.74 2.05737 3.67764 0
M  V30 63327 H 6355.42 1.02763 3.06955 0
M  V30 63328 H 6354.32 3.11738 2.0681 0
M  V30 63329 H 6355.66 4.09059 2.73736 0
M  V30 63330 N 6357.31 -0.660835 1.43076 0
M  V30 63331 C 6358.56 -1.418 1.44004 0
M  V30 63332 C 6358.88 -1.94899 0.0626026 0
M  V30 63333 O 6358.15 -1.73953 -0.900958 0
M  V30 63334 H 6356.73 -0.526245 0.530165 0
M  V30 63335 H 6359.39 -0.779904 1.78616 0
M  V30 63336 H 6358.49 -2.26413 2.14811 0
M  V30 63337 N 6358.79 -1.2948 -0.898481 0
M  V30 63338 C 6360.2 -1.07518 -1.17949 0
M  V30 63339 C 6360.4 0.172744 -2.00758 0
M  V30 63340 O 6359.46 0.870166 -2.37032 0
M  V30 63341 C 6360.77 -2.33128 -1.89926 0
M  V30 63342 C 6362.32 -2.38459 -2.02747 0
M  V30 63343 C 6362.79 -3.63876 -2.78134 0
M  V30 63344 N 6364.29 -3.64605 -2.85687 0
M  V30 63345 C 6365.02 -4.58331 -3.44558 0
M  V30 63346 N 6364.52 -5.6239 -4.04586 0
M  V30 63347 N 6366.31 -4.45899 -3.42244 0
M  V30 63348 H 6358.46 -2.09563 -0.346002 0
M  V30 63349 H 6360.72 -0.923116 -0.215782 0
M  V30 63350 H 6360.43 -3.24124 -1.36515 0
M  V30 63351 H 6360.3 -2.40731 -2.90393 0
M  V30 63352 H 6362.69 -1.4795 -2.55333 0
M  V30 63353 H 6362.77 -2.3484 -1.01408 0
M  V30 63354 H 6362.42 -4.54737 -2.26223 0
M  V30 63355 H 6362.35 -3.64753 -3.79819 0
M  V30 63356 H 6364.84 -2.89367 -2.43054 0
M  V30 63357 H 6365.15 -6.30027 -4.47532 0
M  V30 63358 H 6363.49 -5.66198 -4.03044 0
M  V30 63359 H 6366.69 -3.63796 -2.94567 0
M  V30 63360 H 6366.86 -5.19126 -3.8783 0
M  V30 63361 N 6360.26 1.10901 -1.11976 0
M  V30 63362 C 6361.68 1.34777 -0.854823 0
M  V30 63363 C 6361.88 1.94739 0.517585 0
M  V30 63364 O 6360.94 2.18396 1.26726 0
M  V30 63365 C 6362.25 2.27407 -1.9674 0
M  V30 63366 C 6363.8 2.40957 -1.99772 0
M  V30 63367 C 6364.27 3.36912 -3.10249 0
M  V30 63368 N 6365.76 3.44478 -3.0966 0
M  V30 63369 C 6366.5 4.18681 -3.91783 0
M  V30 63370 N 6365.99 4.95812 -4.83883 0
M  V30 63371 N 6367.79 4.1425 -3.79939 0
M  V30 63372 H 6359.94 0.703467 -2.00412 0
M  V30 63373 H 6362.2 0.372287 -0.871841 0
M  V30 63374 H 6361.91 1.9055 -2.95607 0
M  V30 63375 H 6361.78 3.27674 -1.86841 0
M  V30 63376 H 6364.17 2.77085 -1.01528 0
M  V30 63377 H 6364.25 1.40521 -2.13746 0
M  V30 63378 H 6363.89 3.0151 -4.08723 0
M  V30 63379 H 6363.82 4.37215 -2.93514 0
M  V30 63380 H 6366.31 2.89466 -2.42936 0
M  V30 63381 H 6366.63 5.49817 -5.43067 0
M  V30 63382 H 6364.97 4.94953 -4.879 0
M  V30 63383 H 6368.16 3.53084 -3.07326 0
M  V30 63384 H 6368.34 4.71821 -4.44172 0
M  V30 63385 N 6361.74 0.910931 1.28607 0
M  V30 63386 C 6362.99 0.541554 1.94709 0
M  V30 63387 C 6363.31 -0.917241 1.7208 0
M  V30 63388 O 6362.58 -1.64815 1.05891 0
M  V30 63389 H 6361.16 0.197288 0.720476 0
M  V30 63390 H 6363.82 1.15967 1.56645 0
M  V30 63391 H 6362.92 0.733617 3.03355 0
M  V30 63392 N 6363.22 -1.42432 0.674608 0
M  V30 63393 C 6364.45 -2.06398 0.203618 0
M  V30 63394 C 6364.87 -1.50349 -1.13035 0
M  V30 63395 O 6364.23 -0.621897 -1.703 0
M  V30 63396 C 6364.28 -3.60292 0.149011 0
M  V30 63397 O 6363.38 -4.02846 -0.882525 0
M  V30 63398 H 6362.72 -0.655694 0.104696 0
M  V30 63399 H 6365.25 -1.82569 0.923566 0
M  V30 63400 H 6365.26 -4.07991 -0.0271941 0
M  V30 63401 H 6363.94 -4.0046 1.1227 0
M  V30 63402 H 6362.51 -3.66696 -0.677377 0
M  V30 63403 N 6364.7 -0.417924 -1.51958 0
M  V30 63404 C 6365.95 0.15638 -2.01093 0
M  V30 63405 C 6366.26 1.4547 -1.30758 0
M  V30 63406 O 6367.47 2.11079 -1.70757 0
M  V30 63407 C 6365.92 0.32924 -3.58391 0
M  V30 63408 C 6365.53 -0.957508 -4.37648 0
M  V30 63409 C 6367.27 0.85836 -4.15731 0
M  V30 63410 C 6365.18 -0.751355 -5.86608 0
M  V30 63411 H 6364.11 0.0622163 -0.751429 0
M  V30 63412 H 6366.76 -0.544718 -1.75229 0
M  V30 63413 H 6365.14 1.09288 -3.80621 0
M  V30 63414 H 6366.32 -1.72798 -4.27174 0
M  V30 63415 H 6364.63 -1.4137 -3.91668 0
M  V30 63416 H 6367.23 1.02877 -5.2471 0
M  V30 63417 H 6367.57 1.8355 -3.73651 0
M  V30 63418 H 6368.11 0.153548 -3.97504 0
M  V30 63419 H 6364.85 -1.7003 -6.33064 0
M  V30 63420 H 6364.37 -0.0203395 -5.99797 0
M  V30 63421 H 6366.04 -0.396951 -6.45781 0
M  V30 63422 N 6366.18 1.56898 -0.148628 0
M  V30 63423 C 6367.11 2.13974 0.821451 0
M  V30 63424 C 6368.12 1.08959 1.20962 0
M  V30 63425 O 6369.31 1.3623 1.15341 0
M  V30 63426 C 6366.41 2.64888 2.11395 0
M  V30 63427 C 6365.58 3.9432 1.89289 0
M  V30 63428 C 6364.64 4.30528 3.02543 0
M  V30 63429 O 6363.67 4.98822 2.74163 0
M  V30 63430 N 6364.87 3.90241 4.29758 0
M  V30 63431 H 6367.64 2.97837 0.33363 0
M  V30 63432 H 6365.2 1.61862 0.034891 0
M  V30 63433 H 6367.19 2.86122 2.8621 0
M  V30 63434 H 6365.76 1.8574 2.51435 0
M  V30 63435 H 6364.98 3.81695 0.985013 0
M  V30 63436 H 6366.27 4.78896 1.7186 0
M  V30 63437 H 6365.66 3.35216 4.55683 0
M  V30 63438 H 6364.22 4.16523 5.0135 0
M  V30 63439 N 6367.65 -0.125154 1.57102 0
M  V30 63440 C 6368.9 -0.835256 1.84801 0
M  V30 63441 C 6369.23 -1.79816 0.733474 0
M  V30 63442 O 6368.51 -1.92738 -0.2612 0
M  V30 63443 C 6368.79 -1.59057 3.23068 0
M  V30 63444 C 6368.64 -0.647685 4.45112 0
M  V30 63445 C 6369.96 -2.54816 3.58827 0
M  V30 63446 H 6367.08 -0.302198 0.672194 0
M  V30 63447 H 6369.72 -0.0996971 1.89738 0
M  V30 63448 H 6367.87 -2.21761 3.18989 0
M  V30 63449 H 6369.55 -0.0299672 4.6129 0
M  V30 63450 H 6367.79 0.0412265 4.3378 0
M  V30 63451 H 6368.46 -1.21269 5.38515 0
M  V30 63452 H 6370.94 -2.02221 3.63656 0
M  V30 63453 H 6369.81 -3.047 4.56562 0
M  V30 63454 H 6370.07 -3.37195 2.85923 0
M  V30 63455 N 6369.13 -1.52566 -0.395159 0
M  V30 63456 C 6370.41 -1.57884 -1.15464 0
M  V30 63457 C 6370.79 -0.368283 -2.07863 0
M  V30 63458 O 6370.14 0.643856 -2.19241 0
M  V30 63459 C 6370.35 -2.91458 -1.91972 0
M  V30 63460 C 6371.7 -3.4497 -2.4755 0
M  V30 63461 O 6372.72 -2.93291 -2.02136 0
M  V30 63462 O 6371.58 -4.35245 -3.30491 0
M  V30 63463 H 6368.67 -0.636534 -0.527971 0
M  V30 63464 H 6371.22 -1.64899 -0.400809 0
M  V30 63465 H 6369.99 -3.7101 -1.24367 0
M  V30 63466 H 6369.61 -2.878 -2.7433 0
M  V30 63467 N 6370.61 0.653238 -1.43424 0
M  V30 63468 C 6371.86 1.41034 -1.44754 0
M  V30 63469 C 6372.18 1.94864 -0.0729377 0
M  V30 63470 O 6371.45 1.74428 0.89172 0
M  V30 63471 H 6370.03 0.523426 -0.532949 0
M  V30 63472 H 6372.69 0.77042 -1.79027 0
M  V30 63473 H 6371.79 2.2527 -2.16009 0
M  V30 63474 N 6372.09 1.29955 0.891602 0
M  V30 63475 C 6373 1.1768 2.0295 0
M  V30 63476 C 6374.02 0.0982039 1.73723 0
M  V30 63477 O 6375.19 0.311855 1.98971 0
M  V30 63478 C 6372.26 0.862683 3.35796 0
M  V30 63479 C 6371.32 2.02596 3.78488 0
M  V30 63480 C 6370.55 1.72674 5.04995 0
M  V30 63481 O 6370.77 0.651506 5.66667 0
M  V30 63482 O 6369.71 2.57717 5.43935 0
M  V30 63483 H 6373.53 2.13255 2.16231 0
M  V30 63484 H 6371.12 1.09485 1.01654 0
M  V30 63485 H 6373 0.70242 4.15505 0
M  V30 63486 H 6371.68 -0.0632178 3.23638 0
M  V30 63487 H 6370.58 2.24151 2.99512 0
M  V30 63488 H 6371.92 2.93335 3.95241 0
M  V30 63489 N 6373.57 -1.10306 1.12563 0
M  V30 63490 C 6374.48 -2.20254 0.807799 0
M  V30 63491 C 6375.49 -1.72801 -0.203936 0
M  V30 63492 O 6376.67 -2.01366 -0.0372058 0
M  V30 63493 C 6373.73 -3.45659 0.268511 0
M  V30 63494 C 6372.8 -4.0784 1.34035 0
M  V30 63495 C 6372.03 -5.27258 0.826697 0
M  V30 63496 O 6372.25 -5.69391 -0.339043 0
M  V30 63497 O 6371.19 -5.8033 1.5969 0
M  V30 63498 H 6375.01 -2.49876 1.72614 0
M  V30 63499 H 6372.6 -1.19068 0.902394 0
M  V30 63500 H 6374.48 -4.21391 -0.027284 0
M  V30 63501 H 6373.15 -3.1766 -0.622378 0
M  V30 63502 H 6372.06 -3.33785 1.68933 0
M  V30 63503 H 6373.39 -4.40044 2.20505 0
M  V30 63504 N 6375.05 -0.917739 -1.28122 0
M  V30 63505 C 6375.98 -0.426259 -2.29576 0
M  V30 63506 C 6376.96 0.508232 -1.6233 0
M  V30 63507 O 6378.14 0.415114 -1.89711 0
M  V30 63508 C 6375.27 0.330885 -3.4572 0
M  V30 63509 C 6374.23 -0.51484 -4.24892 0
M  V30 63510 C 6373.55 0.370882 -5.33412 0
M  V30 63511 C 6374.85 -1.77417 -4.91244 0
M  V30 63512 H 6376.55 -1.27413 -2.70936 0
M  V30 63513 H 6374.09 -0.614111 -1.30249 0
M  V30 63514 H 6376.04 0.685584 -4.15786 0
M  V30 63515 H 6374.77 1.21269 -3.03251 0
M  V30 63516 H 6373.43 -0.852111 -3.56559 0
M  V30 63517 H 6373.08 1.25135 -4.87186 0
M  V30 63518 H 6372.78 -0.191416 -5.87288 0
M  V30 63519 H 6374.3 0.721374 -6.06324 0
M  V30 63520 H 6375.71 -1.48814 -5.53649 0
M  V30 63521 H 6374.11 -2.27919 -5.55133 0
M  V30 63522 H 6375.18 -2.49962 -4.15508 0
M  V30 63523 N 6376.52 1.42072 -0.682152 0
M  V30 63524 C 6377.77 2.01733 -0.207785 0
M  V30 63525 C 6378.1 1.53849 1.18508 0
M  V30 63526 O 6377.38 0.743844 1.79714 0
M  V30 63527 C 6377.66 3.59227 -0.250564 0
M  V30 63528 C 6377.51 4.17272 -1.67941 0
M  V30 63529 C 6378.83 4.38304 0.397142 0
M  V30 63530 H 6375.95 0.732969 -0.0769776 0
M  V30 63531 H 6378.59 1.68997 -0.868331 0
M  V30 63532 H 6376.74 3.87246 0.31187 0
M  V30 63533 H 6378.42 4.00179 -2.29466 0
M  V30 63534 H 6376.66 3.72822 -2.2178 0
M  V30 63535 H 6377.33 5.26418 -1.66098 0
M  V30 63536 H 6379.81 4.1602 -0.0817085 0
M  V30 63537 H 6378.68 5.47867 0.336605 0
M  V30 63538 H 6378.94 4.16738 1.47586 0
M  V30 63539 N 6378 0.425977 1.51734 0
M  V30 63540 C 6379.23 -0.145694 2.06888 0
M  V30 63541 C 6379.65 -1.36666 1.29244 0
M  V30 63542 O 6379.01 -1.78322 0.327239 0
M  V30 63543 C 6379.06 -0.457825 3.57682 0
M  V30 63544 O 6378.16 -1.54615 3.82319 0
M  V30 63545 H 6377.5 -0.00684285 0.663965 0
M  V30 63546 H 6380.03 0.604037 1.9548 0
M  V30 63547 H 6380.04 -0.711589 4.01747 0
M  V30 63548 H 6378.72 0.434629 4.13623 0
M  V30 63549 H 6377.29 -1.28324 3.50125 0
M  V30 63550 N 6379.48 -1.56817 0.156946 0
M  V30 63551 C 6380.73 -1.96053 -0.490695 0
M  V30 63552 C 6381.05 -1.04331 -1.64742 0
M  V30 63553 O 6380.32 -0.106805 -1.95609 0
M  V30 63554 H 6378.9 -0.723916 -0.184267 0
M  V30 63555 H 6381.56 -1.93481 0.234772 0
M  V30 63556 H 6380.66 -3.0001 -0.860254 0
M  V30 63557 N 6380.96 0.116821 -1.57166 0
M  V30 63558 C 6382.37 0.47042 -1.5251 0
M  V30 63559 C 6382.57 1.81737 -0.870288 0
M  V30 63560 O 6381.63 2.48393 -0.453548 0
M  V30 63561 C 6382.94 0.452907 -2.9727 0
M  V30 63562 C 6384.49 0.536305 -3.08371 0
M  V30 63563 C 6384.97 0.54916 -4.54696 0
M  V30 63564 N 6386.46 0.610536 -4.59159 0
M  V30 63565 C 6387.19 0.641966 -5.69795 0
M  V30 63566 N 6386.69 0.63091 -6.89921 0
M  V30 63567 N 6388.48 0.685139 -5.57909 0
M  V30 63568 H 6380.63 -0.765708 -1.98118 0
M  V30 63569 H 6382.89 -0.282694 -0.904869 0
M  V30 63570 H 6382.6 -0.469196 -3.48556 0
M  V30 63571 H 6382.47 1.27991 -3.54821 0
M  V30 63572 H 6384.86 1.44883 -2.57086 0
M  V30 63573 H 6384.94 -0.318428 -2.5381 0
M  V30 63574 H 6384.59 -0.359328 -5.06627 0
M  V30 63575 H 6384.52 1.42081 -5.07071 0
M  V30 63576 H 6387.01 0.625156 -3.72693 0
M  V30 63577 H 6387.32 0.657576 -7.69997 0
M  V30 63578 H 6385.67 0.5983 -6.9242 0
M  V30 63579 H 6388.86 0.691155 -4.62969 0
M  V30 63580 H 6389.03 0.706166 -6.44141 0
M  V30 63581 N 6382.44 1.52773 0.387063 0
M  V30 63582 C 6383.66 1.7209 1.15757 0
M  V30 63583 C 6384.09 0.439184 1.82901 0
M  V30 63584 O 6383.44 -0.605194 1.70901 0
M  V30 63585 C 6383.49 2.87256 2.17982 0
M  V30 63586 O 6382.6 2.54365 3.24611 0
M  V30 63587 H 6381.94 0.572185 0.336897 0
M  V30 63588 H 6384.47 1.99573 0.450763 0
M  V30 63589 H 6384.48 3.12807 2.61946 0
M  V30 63590 H 6383.15 3.80238 1.685 0
M  V30 63591 H 6381.73 2.39561 2.85771 0
M  V30 63592 N 6383.91 -0.645623 1.43769 0
M  V30 63593 C 6385.32 -1.22697 1.40721 0
M  V30 63594 C 6385.68 -1.95862 0.115135 0
M  V30 63595 O 6384.8 -2.01655 -0.785126 0
M  V30 63596 C 6385.4 -2.23165 2.54917 0
M  V30 63597 C 6383.95 -2.7676 2.5511 0
M  V30 63598 C 6383.1 -1.51521 2.32242 0
M  V30 63599 H 6386.05 -0.437174 1.5256 0
M  V30 63600 H 6386.07 -3.05489 2.26841 0
M  V30 63601 H 6385.59 -1.69886 3.48942 0
M  V30 63602 H 6383.69 -3.34081 1.64986 0
M  V30 63603 H 6383.8 -3.23787 3.53127 0
M  V30 63604 H 6382.16 -1.7914 1.81055 0
M  V30 63605 H 6382.95 -1.00166 3.28362 0
M  V30 63606 N 6385.39 -1.30426 -0.884698 0
M  V30 63607 C 6386.64 -1.19029 -1.63329 0
M  V30 63608 C 6386.96 0.25516 -1.93323 0
M  V30 63609 O 6386.23 1.17183 -1.56987 0
M  V30 63610 H 6384.81 -0.437535 -0.605452 0
M  V30 63611 H 6387.47 -1.63556 -1.05997 0
M  V30 63612 H 6386.57 -1.75134 -2.5833 0
M  V30 63613 N 6386.87 1.09707 -1.13146 0
M  V30 63614 C 6388.28 1.6332 -0.904622 0
M  V30 63615 C 6388.63 1.88054 0.55948 0
M  V30 63616 O 6387.76 1.62809 1.42556 0
M  V30 63617 C 6388.35 2.96701 -1.63567 0
M  V30 63618 C 6386.91 3.4715 -1.45477 0
M  V30 63619 C 6386.06 2.21619 -1.66674 0
M  V30 63620 H 6389.01 0.93108 -1.28517 0
M  V30 63621 H 6389.03 3.64522 -1.09107 0
M  V30 63622 H 6388.54 2.78667 -2.70122 0
M  V30 63623 H 6386.64 3.70314 -0.412103 0
M  V30 63624 H 6386.76 4.24776 -2.2159 0
M  V30 63625 H 6385.12 2.30132 -1.09138 0
M  V30 63626 H 6385.9 2.06108 -2.74544 0
M  V30 63627 N 6388.35 0.924521 1.27634 0
M  V30 63628 C 6389.3 0.411582 2.2893 0
M  V30 63629 C 6390.29 -0.502415 1.61778 0
M  V30 63630 O 6391.5 -0.382469 1.7589 0
M  V30 63631 H 6387.87 0.114522 0.743229 0
M  V30 63632 H 6389.84 1.27879 2.6961 0
M  V30 63633 C 6388.59 -0.323293 3.46194 0
M  V30 63634 H 6387.91 0.37082 3.98077 0
M  V30 63635 H 6389.35 -0.646674 4.1904 0
M  V30 63636 C 6387.81 -1.53512 2.99893 0
M  V30 63637 O 6388.34 -2.63396 3.03291 0
M  V30 63638 N 6386.55 -1.38585 2.55426 0
M  V30 63639 H 6386.1 -0.49185 2.52861 0
M  V30 63640 H 6386.05 -2.19792 2.24809 0
M  V30 63641 N 6389.83 -1.41708 0.689677 0
M  V30 63642 C 6391.07 -2.0162 0.21848 0
M  V30 63643 C 6391.41 -1.54475 -1.17691 0
M  V30 63644 O 6390.68 -0.753364 -1.79317 0
M  V30 63645 C 6390.96 -3.59089 0.269611 0
M  V30 63646 C 6390.82 -4.16375 1.70152 0
M  V30 63647 C 6392.14 -4.38509 -0.373892 0
M  V30 63648 H 6389.25 -0.73255 0.0808636 0
M  V30 63649 H 6391.9 -1.68534 0.877281 0
M  V30 63650 H 6390.05 -3.87406 -0.291329 0
M  V30 63651 H 6391.72 -3.98956 2.31585 0
M  V30 63652 H 6389.96 -3.7164 2.23754 0
M  V30 63653 H 6390.63 -5.25529 1.68887 0
M  V30 63654 H 6393.11 -4.15971 0.10377 0
M  V30 63655 H 6391.98 -5.48038 -0.307545 0
M  V30 63656 H 6392.25 -4.17515 -1.45373 0
M  V30 63657 N 6391.3 -0.434018 -1.51506 0
M  V30 63658 C 6392.27 0.367425 -2.26236 0
M  V30 63659 C 6393.27 0.952538 -1.29551 0
M  V30 63660 O 6394.46 0.827509 -1.5329 0
M  V30 63661 C 6391.59 1.51953 -3.05161 0
M  V30 63662 H 6392.78 -0.287455 -2.98519 0
M  V30 63663 H 6390.34 -0.187106 -1.55176 0
M  V30 63664 H 6391.07 2.21056 -2.37286 0
M  V30 63665 H 6390.86 1.10619 -3.76173 0
M  V30 63666 H 6392.35 2.08584 -3.61777 0
M  V30 63667 N 6392.78 1.56731 -0.165261 0
M  V30 63668 C 6394.03 1.9699 0.481955 0
M  V30 63669 C 6394.36 1.05099 1.63303 0
M  V30 63670 O 6393.64 0.0969186 1.94258 0
M  V30 63671 C 6393.92 3.46769 0.97072 0
M  V30 63672 C 6393.77 4.49439 -0.180114 0
M  V30 63673 C 6395.09 3.99494 1.84643 0
M  V30 63674 H 6392.21 0.716234 0.173716 0
M  V30 63675 H 6394.85 1.88346 -0.250174 0
M  V30 63676 H 6393 3.54267 1.59459 0
M  V30 63677 H 6394.67 4.54007 -0.81703 0
M  V30 63678 H 6392.92 4.25658 -0.836533 0
M  V30 63679 H 6393.59 5.51623 0.203896 0
M  V30 63680 H 6396.06 3.9459 1.32054 0
M  V30 63681 H 6394.94 5.04723 2.15745 0
M  V30 63682 H 6395.2 3.42944 2.79001 0
M  V30 63683 N 6394.26 -0.108484 1.57226 0
M  V30 63684 C 6395.21 -1.15148 2.02098 0
M  V30 63685 C 6396.2 -1.4226 0.919701 0
M  V30 63686 O 6397.41 -1.42098 1.1049 0
M  V30 63687 H 6393.78 -0.388493 0.643877 0
M  V30 63688 H 6395.75 -0.746605 2.88909 0
M  V30 63689 C 6394.5 -2.46718 2.45001 0
M  V30 63690 H 6393.83 -2.26697 3.29315 0
M  V30 63691 H 6395.27 -3.18232 2.80186 0
M  V30 63692 C 6393.73 -3.10055 1.31786 0
M  V30 63693 O 6394.26 -3.96575 0.639611 0
M  V30 63694 N 6392.46 -2.70095 1.07224 0
M  V30 63695 H 6392.01 -1.99831 1.62559 0
M  V30 63696 H 6391.97 -3.12801 0.316712 0
M  V30 63697 N 6395.74 -1.52976 -0.378955 0
M  V30 63698 C 6396.7 -1.77811 -1.44624 0
M  V30 63699 C 6397.7 -0.648275 -1.47153 0
M  V30 63700 O 6398.89 -0.916399 -1.48148 0
M  V30 63701 C 6396.02 -1.88802 -2.83842 0
M  V30 63702 H 6397.22 -2.73117 -1.23883 0
M  V30 63703 H 6394.77 -1.4385 -0.611299 0
M  V30 63704 H 6395.5 -0.955158 -3.09915 0
M  V30 63705 H 6395.29 -2.70967 -2.83407 0
M  V30 63706 H 6396.78 -2.09654 -3.61158 0
M  V30 63707 N 6397.22 0.637989 -1.44109 0
M  V30 63708 C 6398.16 1.75027 -1.50447 0
M  V30 63709 C 6399.13 1.6231 -0.352778 0
M  V30 63710 O 6400.32 1.82333 -0.562065 0
M  V30 63711 C 6397.46 3.13248 -1.44809 0
M  V30 63712 C 6396.57 3.3699 -2.70299 0
M  V30 63713 C 6395.71 4.65145 -2.56542 0
M  V30 63714 C 6394.75 4.82042 -3.77229 0
M  V30 63715 N 6393.88 6.01467 -3.6219 0
M  V30 63716 H 6398.72 1.68946 -2.45482 0
M  V30 63717 H 6396.26 0.824237 -1.21839 0
M  V30 63718 H 6398.22 3.93175 -1.39532 0
M  V30 63719 H 6396.85 3.18362 -0.533452 0
M  V30 63720 H 6395.9 2.51052 -2.85792 0
M  V30 63721 H 6397.21 3.45357 -3.59903 0
M  V30 63722 H 6396.37 5.53222 -2.4906 0
M  V30 63723 H 6395.1 4.59124 -1.64488 0
M  V30 63724 H 6394.11 3.92396 -3.85104 0
M  V30 63725 H 6395.33 4.89882 -4.70311 0
M  V30 63726 H 6393.28 5.96549 -2.72882 0
M  V30 63727 H 6393.2 6.1086 -4.45405 0
M  V30 63728 H 6394.47 6.92124 -3.58587 0
M  V30 63729 N 6398.69 1.30893 0.877769 0
M  V30 63730 C 6399.94 1.19893 1.62696 0
M  V30 63731 C 6400.26 -0.244904 1.93456 0
M  V30 63732 O 6399.53 -1.16349 1.57606 0
M  V30 63733 H 6398.11 0.44074 0.603123 0
M  V30 63734 H 6400.78 1.64116 1.05128 0
M  V30 63735 H 6399.87 1.76502 2.57398 0
M  V30 63736 N 6400.17 -1.09106 1.13726 0
M  V30 63737 C 6401.4 -1.85645 0.924708 0
M  V30 63738 C 6401.82 -1.80729 -0.521394 0
M  V30 63739 O 6401.18 -1.18717 -1.37026 0
M  V30 63740 C 6401.23 -3.3141 1.42127 0
M  V30 63741 O 6400.33 -4.07884 0.608664 0
M  V30 63742 H 6399.67 -0.575527 0.331156 0
M  V30 63743 H 6402.2 -1.37757 1.51275 0
M  V30 63744 H 6402.21 -3.82257 1.42632 0
M  V30 63745 H 6400.89 -3.34303 2.47416 0
M  V30 63746 H 6399.47 -3.668 0.671753 0
M  V30 63747 N 6401.65 -0.931276 -1.27142 0
M  V30 63748 C 6402.9 -0.574445 -1.94494 0
M  V30 63749 C 6403.23 0.882641 -1.72983 0
M  V30 63750 O 6402.51 1.63013 -1.061 0
M  V30 63751 C 6402.79 -0.905507 -3.48529 0
M  V30 63752 C 6402.64 -2.41661 -3.79368 0
M  V30 63753 C 6403.96 -0.41391 -4.38149 0
M  V30 63754 H 6401.08 -0.210173 -0.706397 0
M  V30 63755 H 6403.72 -1.1637 -1.50193 0
M  V30 63756 H 6401.87 -0.404039 -3.86393 0
M  V30 63757 H 6403.54 -2.99004 -3.51275 0
M  V30 63758 H 6401.79 -2.86428 -3.25793 0
M  V30 63759 H 6402.46 -2.59877 -4.86999 0
M  V30 63760 H 6404.93 -0.843736 -4.07456 0
M  V30 63761 H 6403.81 -0.674471 -5.4474 0
M  V30 63762 H 6404.07 0.68606 -4.36744 0
M  V30 63763 N 6403.13 1.4134 -0.697182 0
M  V30 63764 C 6404.36 2.0523 -0.237569 0
M  V30 63765 C 6404.77 1.52571 1.11887 0
M  V30 63766 O 6404.11 0.669493 1.71066 0
M  V30 63767 C 6404.17 3.59301 -0.119492 0
M  V30 63768 C 6403.84 4.34762 -1.40823 0
M  V30 63769 C 6404.83 4.63939 -2.34642 0
M  V30 63770 C 6402.52 4.74005 -1.66205 0
M  V30 63771 C 6404.51 5.31322 -3.52102 0
M  V30 63772 C 6402.2 5.41124 -2.8395 0
M  V30 63773 C 6403.2 5.6971 -3.76722 0
M  V30 63774 O 6402.89 6.35447 -4.92405 0
M  V30 63775 H 6402.62 0.667339 -0.107862 0
M  V30 63776 H 6405.17 1.82071 -0.950761 0
M  V30 63777 H 6403.4 3.81207 0.649484 0
M  V30 63778 H 6405.09 4.04766 0.30315 0
M  V30 63779 H 6405.86 4.34101 -2.1629 0
M  V30 63780 H 6401.74 4.51135 -0.948573 0
M  V30 63781 H 6405.28 5.53551 -4.24531 0
M  V30 63782 H 6401.18 5.70381 -3.02218 0
M  V30 63783 H 6401.94 6.53943 -4.92241 0
M  V30 63784 N 6404.61 0.442047 1.51274 0
M  V30 63785 C 6405.86 -0.124368 2.01316 0
M  V30 63786 C 6406.17 -1.43372 1.33056 0
M  V30 63787 O 6407.38 -2.08336 1.74093 0
M  V30 63788 C 6405.83 -0.272181 3.58869 0
M  V30 63789 C 6405.44 1.02701 4.36069 0
M  V30 63790 C 6407.18 -0.792112 4.17044 0
M  V30 63791 C 6405.09 0.844584 5.85338 0
M  V30 63792 H 6404.02 -0.0502539 0.752323 0
M  V30 63793 H 6406.67 0.572526 1.7434 0
M  V30 63794 H 6405.05 -1.03219 3.82311 0
M  V30 63795 H 6406.23 1.79572 4.24371 0
M  V30 63796 H 6404.54 1.47583 3.89369 0
M  V30 63797 H 6407.14 -0.945165 5.2628 0
M  V30 63798 H 6407.48 -1.77582 3.76524 0
M  V30 63799 H 6408.02 -0.0902894 3.97698 0
M  V30 63800 H 6404.75 1.8008 6.30279 0
M  V30 63801 H 6404.27 0.115759 5.99688 0
M  V30 63802 H 6405.95 0.499639 6.45068 0
M  V30 63803 N 6406.09 -1.56641 0.17357 0
M  V30 63804 C 6407.33 -1.96562 -0.469874 0
M  V30 63805 C 6407.65 -1.06073 -1.63626 0
M  V30 63806 O 6406.92 -0.127545 -1.95484 0
M  V30 63807 H 6405.5 -0.72583 -0.176579 0
M  V30 63808 H 6408.17 -1.93221 0.25528 0
M  V30 63809 H 6407.26 -3.00906 -0.828386 0
M  V30 63810 N 6407.56 0.100145 -1.57281 0
M  V30 63811 C 6408.81 0.802969 -1.85464 0
M  V30 63812 C 6409.13 1.79515 -0.761538 0
M  V30 63813 O 6408.4 1.94742 0.2127 0
M  V30 63814 H 6406.98 0.299532 -0.684317 0
M  V30 63815 H 6409.64 0.082976 -1.94723 0
M  V30 63816 H 6408.74 1.33666 -2.82028 0
M  V30 63817 N 6409.04 1.53175 0.370837 0
M  V30 63818 C 6410 1.78575 1.43679 0
M  V30 63819 C 6411 0.65607 1.46807 0
M  V30 63820 O 6412.19 0.924243 1.4766 0
M  V30 63821 C 6409.33 1.90305 2.82837 0
M  V30 63822 H 6410.52 2.73771 1.22433 0
M  V30 63823 H 6408.07 1.44172 0.603662 0
M  V30 63824 H 6408.81 0.971581 3.09404 0
M  V30 63825 H 6408.59 2.72466 2.81966 0
M  V30 63826 H 6410.08 2.11567 3.60041 0
M  V30 63827 N 6410.52 -0.630338 1.44445 0
M  V30 63828 C 6411.93 -1.21197 1.42014 0
M  V30 63829 C 6412.28 -1.95729 0.135902 0
M  V30 63830 O 6411.41 -2.02476 -0.763693 0
M  V30 63831 C 6412 -2.20449 2.5727 0
M  V30 63832 C 6410.56 -2.74038 2.58031 0
M  V30 63833 C 6409.71 -1.4905 2.33836 0
M  V30 63834 H 6412.66 -0.420968 1.53015 0
M  V30 63835 H 6412.68 -3.03066 2.30068 0
M  V30 63836 H 6412.19 -1.66175 3.50724 0
M  V30 63837 H 6410.29 -3.32313 1.6852 0
M  V30 63838 H 6410.41 -3.20023 3.56542 0
M  V30 63839 H 6408.77 -1.77209 1.82945 0
M  V30 63840 H 6409.55 -0.966774 3.29406 0
M  V30 63841 N 6412 -1.31357 -0.870815 0
M  V30 63842 C 6413.27 -1.11632 -1.60616 0
M  V30 63843 C 6413.65 0.329277 -2.08516 0
M  V30 63844 O 6413 1.32324 -1.86287 0
M  V30 63845 C 6413.21 -2.12978 -2.7648 0
M  V30 63846 C 6414.56 -2.45455 -3.46464 0
M  V30 63847 O 6415.58 -2.11398 -2.86686 0
M  V30 63848 O 6414.44 -3.03769 -4.54298 0
M  V30 63849 H 6411.54 -0.429706 -0.706598 0
M  V30 63850 H 6414.08 -1.42832 -0.916352 0
M  V30 63851 H 6412.86 -3.1022 -2.38494 0
M  V30 63852 H 6412.48 -1.82678 -3.53149 0
M  V30 63853 N 6413.48 1.08501 -1.14303 0
M  V30 63854 C 6414.72 1.81136 -0.912002 0
M  V30 63855 C 6415.05 1.85948 0.56009 0
M  V30 63856 O 6414.33 1.33463 1.41485 0
M  V30 63857 C 6414.61 3.26801 -1.51239 0
M  V30 63858 C 6414.47 3.30205 -3.05426 0
M  V30 63859 C 6415.78 4.2375 -1.18845 0
M  V30 63860 H 6412.9 0.657607 -0.332749 0
M  V30 63861 H 6415.55 1.27039 -1.41284 0
M  V30 63862 H 6413.7 3.72999 -1.08646 0
M  V30 63863 H 6415.37 2.92338 -3.56842 0
M  V30 63864 H 6413.61 2.69507 -3.39925 0
M  V30 63865 H 6414.28 4.32863 -3.4254 0
M  V30 63866 H 6416.76 3.85885 -1.55666 0
M  V30 63867 H 6415.63 5.23988 -1.63488 0
M  V30 63868 H 6415.89 4.41979 -0.103597 0
M  V30 63869 N 6414.95 0.938006 1.26646 0
M  V30 63870 C 6415.92 0.449714 2.24745 0
M  V30 63871 C 6416.92 -0.437434 1.54736 0
M  V30 63872 O 6418.11 -0.23706 1.72579 0
M  V30 63873 C 6415.24 -0.352231 3.39075 0
M  V30 63874 H 6416.43 1.31658 2.69455 0
M  V30 63875 H 6413.99 0.719669 1.38746 0
M  V30 63876 H 6414.72 -1.23747 2.99762 0
M  V30 63877 H 6414.51 0.28399 3.9107 0
M  V30 63878 H 6416 -0.683893 4.11962 0
M  V30 63879 N 6416.43 -1.40969 0.704668 0
M  V30 63880 C 6417.66 -2.05399 0.24881 0
M  V30 63881 C 6418.08 -1.5306 -1.10536 0
M  V30 63882 O 6417.43 -0.682594 -1.69254 0
M  V30 63883 C 6417.48 -3.60902 0.207921 0
M  V30 63884 O 6417.2 -4.11306 1.5086 0
M  V30 63885 C 6418.71 -4.4249 -0.267821 0
M  V30 63886 H 6415.93 -0.661265 0.113884 0
M  V30 63887 H 6418.47 -1.80577 0.959809 0
M  V30 63888 H 6416.62 -3.84731 -0.453964 0
M  V30 63889 H 6417.04 -5.05421 1.40178 0
M  V30 63890 H 6418.51 -5.51455 -0.245295 0
M  V30 63891 H 6418.99 -4.19264 -1.30821 0
M  V30 63892 H 6419.6 -4.23745 0.363391 0
M  V30 63893 N 6417.91 -0.450063 -1.51037 0
M  V30 63894 C 6418.84 0.345234 -2.30934 0
M  V30 63895 C 6419.82 1.00954 -1.36903 0
M  V30 63896 O 6421.01 1.01074 -1.65824 0
M  V30 63897 C 6418.14 1.43957 -3.1606 0
M  V30 63898 C 6417.09 0.898051 -4.18472 0
M  V30 63899 C 6416.42 2.08909 -4.922 0
M  V30 63900 C 6417.72 -0.0762747 -5.22244 0
M  V30 63901 H 6419.41 -0.321545 -2.97668 0
M  V30 63902 H 6416.96 -0.156083 -1.43152 0
M  V30 63903 H 6418.91 2.00325 -3.7074 0
M  V30 63904 H 6417.63 2.13482 -2.4717 0
M  V30 63905 H 6416.29 0.356489 -3.64863 0
M  V30 63906 H 6415.94 2.77083 -4.19802 0
M  V30 63907 H 6415.64 1.73309 -5.61461 0
M  V30 63908 H 6417.16 2.65808 -5.49708 0
M  V30 63909 H 6418.58 0.397527 -5.7192 0
M  V30 63910 H 6416.98 -0.345491 -5.99105 0
M  V30 63911 H 6418.05 -1.00894 -4.74287 0
M  V30 63912 N 6419.39 1.56547 -0.181875 0
M  V30 63913 C 6420.62 2.01576 0.466324 0
M  V30 63914 C 6421.03 1.06208 1.56094 0
M  V30 63915 O 6420.39 0.0646951 1.82385 0
M  V30 63916 C 6420.44 3.4637 1.03489 0
M  V30 63917 O 6420.16 4.38097 -0.0160364 0
M  V30 63918 C 6421.66 4.06853 1.76028 0
M  V30 63919 H 6418.88 0.660476 0.118372 0
M  V30 63920 H 6421.43 2.0248 -0.286703 0
M  V30 63921 H 6419.58 3.46207 1.73837 0
M  V30 63922 H 6419.99 5.22932 0.405242 0
M  V30 63923 H 6421.47 5.10057 2.11058 0
M  V30 63924 H 6421.95 3.4955 2.65917 0
M  V30 63925 H 6422.55 4.10749 1.10298 0
M  V30 63926 N 6420.87 -0.0918024 1.57332 0
M  V30 63927 C 6422.11 -0.793122 1.85887 0
M  V30 63928 C 6422.44 -1.79109 0.771048 0
M  V30 63929 O 6421.71 -1.94852 -0.202369 0
M  V30 63930 H 6420.29 -0.295899 0.685896 0
M  V30 63931 H 6422.95 -0.0726482 1.94765 0
M  V30 63932 H 6422.04 -1.32168 2.82733 0
M  V30 63933 N 6422.34 -1.53369 -0.362709 0
M  V30 63934 C 6423.59 -1.69356 -1.10286 0
M  V30 63935 C 6423.91 -0.449433 -1.8975 0
M  V30 63936 O 6423.18 0.536541 -1.88409 0
M  V30 63937 H 6421.76 -0.624335 -0.41014 0
M  V30 63938 H 6424.43 -1.90568 -0.408627 0
M  V30 63939 H 6423.52 -2.55593 -1.79106 0
M  V30 63940 N 6423.82 0.622669 -1.44778 0
M  V30 63941 C 6425.24 0.941784 -1.28851 0
M  V30 63942 C 6425.44 2.00178 -0.230465 0
M  V30 63943 O 6424.49 2.49613 0.380762 0
M  V30 63944 C 6425.81 1.39702 -2.66278 0
M  V30 63945 C 6427.36 1.51204 -2.74055 0
M  V30 63946 C 6427.83 2.00109 -4.11971 0
M  V30 63947 N 6429.32 2.07366 -4.1419 0
M  V30 63948 C 6430.06 2.46395 -5.17762 0
M  V30 63949 N 6429.55 2.84501 -6.31689 0
M  V30 63950 N 6431.35 2.46603 -5.05117 0
M  V30 63951 H 6423.5 -0.078208 -2.12256 0
M  V30 63952 H 6425.76 0.0276498 -0.947597 0
M  V30 63953 H 6425.47 0.692413 -3.44817 0
M  V30 63954 H 6425.34 2.36644 -2.93734 0
M  V30 63955 H 6427.73 2.2076 -1.95829 0
M  V30 63956 H 6427.81 0.52616 -2.5033 0
M  V30 63957 H 6427.45 1.31146 -4.90676 0
M  V30 63958 H 6427.38 2.99584 -4.33079 0
M  V30 63959 H 6429.87 1.80568 -3.31969 0
M  V30 63960 H 6430.19 3.13119 -7.06524 0
M  V30 63961 H 6428.53 2.82232 -6.35114 0
M  V30 63962 H 6431.72 2.1623 -4.15165 0
M  V30 63963 H 6431.89 2.76695 -5.85956 0
M  V30 63964 N 6425.3 1.31817 0.863836 0
M  V30 63965 C 6426.55 1.21853 1.61735 0
M  V30 63966 C 6426.88 -0.221864 1.9323 0
M  V30 63967 O 6426.13 -1.17235 1.56699 0
M  V30 63968 C 6426.43 2.01414 2.95241 0
M  V30 63969 C 6426.1 3.50859 2.83212 0
M  V30 63970 C 6424.76 3.91606 2.79639 0
M  V30 63971 C 6427.11 4.45932 2.69805 0
M  V30 63972 C 6424.44 5.25684 2.60524 0
M  V30 63973 C 6426.79 5.80142 2.52227 0
M  V30 63974 C 6425.45 6.20103 2.4704 0
M  V30 63975 H 6424.72 0.445892 0.591829 0
M  V30 63976 H 6427.37 1.63147 1.00276 0
M  V30 63977 H 6425.68 1.5282 3.60768 0
M  V30 63978 H 6427.37 1.91081 3.52547 0
M  V30 63979 H 6423.96 3.1849 2.86814 0
M  V30 63980 H 6428.15 4.15377 2.71616 0
M  V30 63981 H 6423.4 5.55713 2.54938 0
M  V30 63982 H 6427.58 6.53432 2.4083 0
M  V30 63983 H 6425.2 7.23937 2.31988 0
M  V30 63984 N 6426.78 -1.07893 1.14877 0
M  V30 63985 C 6428 -1.84653 0.944346 0
M  V30 63986 C 6428.43 -1.81272 -0.502196 0
M  V30 63987 O 6427.79 -1.20163 -1.35759 0
M  V30 63988 C 6427.83 -3.29883 1.45634 0
M  V30 63989 O 6426.94 -4.07215 0.651891 0
M  V30 63990 H 6426.28 -0.571983 0.337242 0
M  V30 63991 H 6428.81 -1.36145 1.52727 0
M  V30 63992 H 6428.82 -3.80722 1.46678 0
M  V30 63993 H 6427.49 -3.3166 2.50948 0
M  V30 63994 H 6426.07 -3.66066 0.71062 0
M  V30 63995 N 6428.26 -0.944709 -1.26147 0
M  V30 63996 C 6429.48 -0.61052 -1.98211 0
M  V30 63997 C 6429.91 0.808342 -1.69845 0
M  V30 63998 O 6429.26 1.54507 -0.948545 0
M  V30 63999 C 6429.31 -0.863441 -3.5011 0
M  V30 64000 O 6428.42 0.0627041 -4.12352 0
M  V30 64001 H 6427.76 -0.233161 -0.621717 0
M  V30 64002 H 6430.29 -1.2686 -1.60523 0
M  V30 64003 H 6430.3 -0.785743 -4.00362 0
M  V30 64004 H 6428.97 -1.89761 -3.70086 0
M  V30 64005 H 6427.55 -0.0663531 -3.72841 0
M  V30 64006 N 6429.74 1.40593 -0.712134 0
M  V30 64007 C 6430.98 2.00552 -0.249664 0
M  V30 64008 C 6431.3 1.5674 1.16007 0
M  V30 64009 O 6430.57 0.805322 1.78582 0
M  V30 64010 H 6429.15 0.741641 -0.0893146 0
M  V30 64011 H 6431.82 1.7198 -0.916994 0
M  V30 64012 H 6430.91 3.10841 -0.280048 0
M  V30 64013 N 6431.21 0.458066 1.50796 0
M  V30 64014 C 6432.46 -0.103009 2.01437 0
M  V30 64015 C 6432.78 -1.41952 1.34569 0
M  V30 64016 O 6433.98 -2.06477 1.76293 0
M  V30 64017 C 6432.44 -0.234103 3.59138 0
M  V30 64018 C 6432.05 1.07321 4.34956 0
M  V30 64019 C 6433.79 -0.747835 4.17861 0
M  V30 64020 C 6431.7 0.906619 5.84409 0
M  V30 64021 H 6430.63 -0.0422716 0.752814 0
M  V30 64022 H 6433.28 0.590985 1.73723 0
M  V30 64023 H 6431.66 -0.991581 3.83384 0
M  V30 64024 H 6432.83 1.84063 4.22442 0
M  V30 64025 H 6431.15 1.51705 3.87782 0
M  V30 64026 H 6433.75 -0.889292 5.27253 0
M  V30 64027 H 6434.09 -1.73578 3.78386 0
M  V30 64028 H 6434.62 -0.0481032 3.97771 0
M  V30 64029 H 6431.36 1.86755 6.28333 0
M  V30 64030 H 6430.88 0.179358 5.99532 0
M  V30 64031 H 6432.56 0.568029 6.44502 0
M  V30 64032 N 6432.69 -1.56448 0.190174 0
M  V30 64033 C 6433.92 -2.01821 -0.455628 0
M  V30 64034 C 6434.33 -1.07034 -1.55529 0
M  V30 64035 O 6433.69 -0.0743665 -1.82348 0
M  V30 64036 C 6433.74 -3.46914 -1.01651 0
M  V30 64037 O 6433.46 -4.38082 0.0392696 0
M  V30 64038 C 6434.96 -4.0778 -1.73868 0
M  V30 64039 H 6432.18 -0.661095 -0.114868 0
M  V30 64040 H 6434.73 -2.02325 0.297437 0
M  V30 64041 H 6432.88 -3.47124 -1.71998 0
M  V30 64042 H 6433.3 -5.2314 -0.377504 0
M  V30 64043 H 6434.77 -5.1117 -2.0835 0
M  V30 64044 H 6435.25 -3.50955 -2.64059 0
M  V30 64045 H 6435.85 -4.11328 -1.08118 0
M  V30 64046 N 6434.17 0.0834573 -1.57379 0
M  V30 64047 C 6435.42 0.783253 -1.86305 0
M  V30 64048 C 6435.74 1.78697 -0.780535 0
M  V30 64049 O 6435.01 1.94957 0.192033 0
M  V30 64050 H 6433.59 0.292257 -0.687455 0
M  V30 64051 H 6436.25 0.0623183 -1.948 0
M  V30 64052 H 6435.35 1.30667 -2.8343 0
M  V30 64053 N 6435.65 1.5356 0.35457 0
M  V30 64054 C 6436.89 1.71983 1.1046 0
M  V30 64055 C 6437.25 0.467334 1.86226 0
M  V30 64056 O 6438.45 0.528418 2.63555 0
M  V30 64057 C 6436.72 2.94181 2.02959 0
M  V30 64058 S 6438.28 3.33362 2.85333 0
M  V30 64059 H 6435.1 0.605056 0.373401 0
M  V30 64060 H 6437.7 1.91683 0.384419 0
M  V30 64061 H 6436.41 3.83522 1.46079 0
M  V30 64062 H 6435.94 2.76914 2.79432 0
M  V30 64063 H 6437.95 2.86235 4.05319 0
M  V30 64064 N 6437.13 -0.614982 1.45106 0
M  V30 64065 C 6438.37 -1.37622 1.48957 0
M  V30 64066 C 6438.7 -1.93778 0.127941 0
M  V30 64067 O 6437.98 -1.7462 -0.856625 0
M  V30 64068 C 6438.26 -2.52961 2.56287 0
M  V30 64069 C 6438.12 -2.02049 4.01866 0
M  V30 64070 C 6439.43 -3.55112 2.59968 0
M  V30 64071 H 6436.55 -0.499051 0.542325 0
M  V30 64072 H 6439.2 -0.693915 1.76875 0
M  V30 64073 H 6437.35 -3.11166 2.32611 0
M  V30 64074 H 6439.02 -1.4855 4.36727 0
M  V30 64075 H 6437.26 -1.33106 4.12874 0
M  V30 64076 H 6437.93 -2.85159 4.7264 0
M  V30 64077 H 6440.41 -3.06735 2.81163 0
M  V30 64078 H 6439.28 -4.33314 3.36943 0
M  V30 64079 H 6439.54 -4.10246 1.64776 0
M  V30 64080 N 6438.6 -1.32273 -0.856834 0
M  V30 64081 C 6439.55 -1.21027 -1.96523 0
M  V30 64082 C 6440.52 -0.0929431 -1.6584 0
M  V30 64083 O 6441.71 -0.26811 -1.88907 0
M  V30 64084 C 6438.85 -0.93706 -3.32134 0
M  V30 64085 C 6437.96 -2.13897 -3.7533 0
M  V30 64086 C 6437.09 -1.80143 -4.99722 0
M  V30 64087 C 6436.13 -2.96666 -5.35402 0
M  V30 64088 N 6435.27 -2.6302 -6.50972 0
M  V30 64089 H 6440.11 -2.15835 -2.05474 0
M  V30 64090 H 6437.65 -1.07349 -1.00571 0
M  V30 64091 H 6439.6 -0.759162 -4.10235 0
M  V30 64092 H 6438.23 -0.0257765 -3.2279 0
M  V30 64093 H 6437.29 -2.42721 -2.92901 0
M  V30 64094 H 6438.6 -3.01066 -3.97694 0
M  V30 64095 H 6437.75 -1.58892 -5.85524 0
M  V30 64096 H 6436.49 -0.90183 -4.79289 0
M  V30 64097 H 6435.5 -3.18551 -4.48113 0
M  V30 64098 H 6436.72 -3.87355 -5.57793 0
M  V30 64099 H 6434.67 -1.75599 -6.32061 0
M  V30 64100 H 6434.58 -3.4372 -6.73345 0
M  V30 64101 H 6435.85 -2.45194 -7.39933 0
M  V30 64102 N 6440.08 1.07283 -1.15448 0
M  V30 64103 C 6441.03 2.16602 -0.84771 0
M  V30 64104 C 6442.02 1.6845 0.179158 0
M  V30 64105 O 6443.23 1.79968 0.0341229 0
M  V30 64106 H 6439.6 0.706912 -0.256475 0
M  V30 64107 H 6441.58 2.39694 -1.77734 0
M  V30 64108 C 6440.32 3.45891 -0.354184 0
M  V30 64109 H 6439.65 3.83329 -1.13573 0
M  V30 64110 H 6441.09 4.23625 -0.178204 0
M  V30 64111 C 6439.55 3.23969 0.92443 0
M  V30 64112 O 6440.08 3.48611 1.99582 0
M  V30 64113 N 6438.28 2.77452 0.864217 0
M  V30 64114 H 6437.83 2.57599 -0.00783537 0
M  V30 64115 H 6437.79 2.63163 1.72025 0
M  V30 64116 N 6441.56 0.951386 1.25644 0
M  V30 64117 C 6442.49 0.486978 2.28365 0
M  V30 64118 C 6443.47 -0.465014 1.6362 0
M  V30 64119 O 6444.66 -0.36467 1.90745 0
M  V30 64120 C 6441.79 -0.239107 3.46476 0
M  V30 64121 C 6440.74 0.627311 4.23378 0
M  V30 64122 C 6440.07 -0.229327 5.34208 0
M  V30 64123 C 6441.37 1.90379 4.86367 0
M  V30 64124 H 6443.06 1.34552 2.67463 0
M  V30 64125 H 6440.61 0.648428 1.28575 0
M  V30 64126 H 6442.56 -0.575105 4.17457 0
M  V30 64127 H 6441.28 -1.13187 3.0636 0
M  V30 64128 H 6439.94 0.946347 3.54175 0
M  V30 64129 H 6439.59 -1.12174 4.90332 0
M  V30 64130 H 6439.29 0.347058 5.86574 0
M  V30 64131 H 6440.81 -0.560364 6.08023 0
M  V30 64132 H 6442.23 1.63441 5.49509 0
M  V30 64133 H 6440.62 2.42557 5.48895 0
M  V30 64134 H 6441.69 2.60891 4.08735 0
M  V30 64135 N 6443.04 -1.40213 0.71958 0
M  V30 64136 C 6444.28 -2.01111 0.261197 0
M  V30 64137 C 6444.62 -1.56937 -1.14388 0
M  V30 64138 O 6443.89 -0.79123 -1.77679 0
M  V30 64139 C 6444.17 -3.58437 0.345718 0
M  V30 64140 C 6444.03 -4.12672 1.78946 0
M  V30 64141 C 6445.35 -4.39203 -0.280794 0
M  V30 64142 H 6442.47 -0.73067 0.0963839 0
M  V30 64143 H 6445.11 -1.66635 0.912833 0
M  V30 64144 H 6443.26 -3.87937 -0.209089 0
M  V30 64145 H 6444.93 -3.93954 2.39996 0
M  V30 64146 H 6443.17 -3.66811 2.31587 0
M  V30 64147 H 6443.84 -5.21829 1.79996 0
M  V30 64148 H 6446.32 -4.15657 0.19198 0
M  V30 64149 H 6445.2 -5.48567 -0.191229 0
M  V30 64150 H 6445.46 -4.20505 -1.36485 0
M  V30 64151 N 6444.52 -0.466057 -1.50551 0
M  V30 64152 C 6445.45 0.320721 -2.31287 0
M  V30 64153 C 6446.43 0.99496 -1.37966 0
M  V30 64154 O 6447.61 0.993099 -1.66887 0
M  V30 64155 C 6444.74 1.40596 -3.17569 0
M  V30 64156 C 6443.7 0.853615 -4.19401 0
M  V30 64157 C 6443.02 2.03677 -4.94388 0
M  V30 64158 C 6444.32 -0.131661 -5.22134 0
M  V30 64159 H 6446.02 -0.353099 -2.97311 0
M  V30 64160 H 6443.56 -0.171257 -1.42978 0
M  V30 64161 H 6445.52 1.96382 -3.72843 0
M  V30 64162 H 6444.24 2.10848 -2.49421 0
M  V30 64163 H 6442.9 0.31777 -3.6522 0
M  V30 64164 H 6442.55 2.72615 -4.22717 0
M  V30 64165 H 6442.25 1.67344 -5.63267 0
M  V30 64166 H 6443.77 2.59962 -5.52496 0
M  V30 64167 H 6445.18 0.336845 -5.7231 0
M  V30 64168 H 6443.58 -0.409015 -5.98705 0
M  V30 64169 H 6444.65 -1.05919 -4.7319 0
M  V30 64170 N 6445.99 1.56345 -0.198468 0
M  V30 64171 C 6446.94 2.15865 0.733926 0
M  V30 64172 C 6447.93 1.10036 1.17392 0
M  V30 64173 O 6449.12 1.36089 1.13176 0
M  V30 64174 C 6446.25 2.82417 1.95181 0
M  V30 64175 C 6445.34 3.95441 1.53256 0
M  V30 64176 N 6445.73 4.99035 0.824466 0
M  V30 64177 C 6444.02 4.07104 1.8216 0
M  V30 64178 C 6444.73 5.78451 0.613904 0
M  V30 64179 N 6443.7 5.30999 1.16365 0
M  V30 64180 H 6447.5 2.93322 0.184251 0
M  V30 64181 H 6445.02 1.624 0.0011904 0
M  V30 64182 H 6447.01 3.23452 2.63029 0
M  V30 64183 H 6445.67 2.06449 2.50617 0
M  V30 64184 H 6446.69 5.15675 0.479576 0
M  V30 64185 H 6443.36 3.42267 2.39081 0
M  V30 64186 H 6444.75 6.7188 0.0519575 0
M  V30 64187 N 6447.47 -0.07511 1.57421 0
M  V30 64188 C 6448.7 -0.791726 1.91694 0
M  V30 64189 C 6449.12 -1.70493 0.794582 0
M  V30 64190 O 6448.48 -1.79529 -0.252777 0
M  V30 64191 C 6448.53 -1.56419 3.24909 0
M  V30 64192 O 6447.63 -2.67462 3.13908 0
M  V30 64193 H 6446.97 -0.216218 0.62781 0
M  V30 64194 H 6449.5 -0.044347 2.04552 0
M  V30 64195 H 6449.51 -1.94415 3.58702 0
M  V30 64196 H 6448.19 -0.894123 4.06175 0
M  V30 64197 H 6446.77 -2.32347 2.91666 0
M  V30 64198 N 6448.95 -1.53746 -0.346422 0
M  V30 64199 C 6449.91 -1.80838 -1.4082 0
M  V30 64200 C 6450.91 -0.679342 -1.45745 0
M  V30 64201 O 6452.1 -0.947617 -1.46171 0
M  V30 64202 C 6449.24 -1.94781 -2.79774 0
M  V30 64203 H 6450.43 -2.75684 -1.18062 0
M  V30 64204 H 6447.98 -1.45114 -0.580649 0
M  V30 64205 H 6448.72 -1.02068 -3.07819 0
M  V30 64206 H 6448.5 -2.76918 -2.77595 0
M  V30 64207 H 6449.99 -2.17268 -3.56629 0
M  V30 64208 N 6450.43 0.607278 -1.4543 0
M  V30 64209 C 6451.84 0.928065 -1.29843 0
M  V30 64210 C 6452.04 1.99922 -0.251684 0
M  V30 64211 O 6451.1 2.50002 0.354266 0
M  V30 64212 C 6452.41 1.3687 -2.67745 0
M  V30 64213 C 6453.96 1.48289 -2.75643 0
M  V30 64214 C 6454.44 1.95728 -4.14071 0
M  V30 64215 N 6455.93 2.02961 -4.16366 0
M  V30 64216 C 6456.66 2.4089 -5.20346 0
M  V30 64217 N 6456.16 2.77785 -6.34671 0
M  V30 64218 N 6457.95 2.41232 -5.07704 0
M  V30 64219 H 6450.1 -0.100716 -2.12161 0
M  V30 64220 H 6452.37 0.0175977 -0.947837 0
M  V30 64221 H 6452.07 0.655802 -3.45532 0
M  V30 64222 H 6451.95 2.33515 -2.96227 0
M  V30 64223 H 6454.33 2.1867 -1.9816 0
M  V30 64224 H 6454.41 0.499579 -2.50874 0
M  V30 64225 H 6454.06 1.25934 -4.9204 0
M  V30 64226 H 6453.99 2.94974 -4.36232 0
M  V30 64227 H 6456.48 1.77037 -3.33866 0
M  V30 64228 H 6456.79 3.05608 -7.09805 0
M  V30 64229 H 6455.14 2.7548 -6.38072 0
M  V30 64230 H 6458.33 2.11814 -4.17436 0
M  V30 64231 H 6458.5 2.70464 -5.88857 0
M  V30 64232 N 6451.91 1.32725 0.849807 0
M  V30 64233 C 6453.32 1.21171 1.42037 0
M  V30 64234 C 6453.67 -0.173824 1.95428 0
M  V30 64235 O 6452.79 -1.07283 1.87934 0
M  V30 64236 C 6453.39 2.1937 2.5819 0
M  V30 64237 C 6451.95 2.11688 3.11231 0
M  V30 64238 C 6451.09 2.07466 1.83993 0
M  V30 64239 H 6454.05 1.44483 0.656532 0
M  V30 64240 H 6454.07 1.79506 3.35497 0
M  V30 64241 H 6453.58 3.20201 2.193 0
M  V30 64242 H 6451.68 1.14122 3.54693 0
M  V30 64243 H 6451.79 3.01735 3.72147 0
M  V30 64244 H 6450.16 1.52777 2.03792 0
M  V30 64245 H 6450.94 3.10086 1.47314 0
M  V30 64246 N 6453.38 -1.06669 1.16015 0
M  V30 64247 C 6454.63 -1.79042 0.937457 0
M  V30 64248 C 6454.95 -1.87478 -0.536373 0
M  V30 64249 O 6454.22 -1.3807 -1.38973 0
M  V30 64250 H 6452.8 -0.663155 0.343852 0
M  V30 64251 H 6455.47 -1.28873 1.46211 0
M  V30 64252 H 6454.56 -2.81254 1.35287 0
M  V30 64253 N 6454.86 -0.958036 -1.25138 0
M  V30 64254 C 6455.83 -0.485412 -2.24001 0
M  V30 64255 C 6456.83 0.412762 -1.55412 0
M  V30 64256 O 6458.02 0.209574 -1.72935 0
M  V30 64257 C 6455.15 0.298242 -3.39593 0
M  V30 64258 H 6456.34 -1.35928 -2.67327 0
M  V30 64259 H 6453.89 -0.741651 -1.37584 0
M  V30 64260 H 6454.63 1.18963 -3.01692 0
M  V30 64261 H 6454.41 -0.34617 -3.90569 0
M  V30 64262 H 6455.9 0.618267 -4.12998 0
M  V30 64263 N 6456.34 1.3983 -0.727006 0
M  V30 64264 C 6457.75 1.83533 -0.342433 0
M  V30 64265 C 6458.1 1.60754 1.12484 0
M  V30 64266 O 6457.23 1.09445 1.86684 0
M  V30 64267 C 6457.82 3.33176 -0.614742 0
M  V30 64268 C 6456.38 3.75329 -0.283753 0
M  V30 64269 C 6455.53 2.6292 -0.881389 0
M  V30 64270 H 6458.48 1.28936 -0.925274 0
M  V30 64271 H 6458.5 3.80323 0.116196 0
M  V30 64272 H 6458.01 3.49723 -1.68271 0
M  V30 64273 H 6456.11 3.64372 0.778698 0
M  V30 64274 H 6456.23 4.73022 -0.760728 0
M  V30 64275 H 6454.59 2.52824 -0.308592 0
M  V30 64276 H 6455.37 2.82276 -1.95385 0
M  V30 64277 N 6457.82 0.474035 1.50302 0
M  V30 64278 C 6459.23 0.0196292 1.8669 0
M  V30 64279 C 6459.58 -1.38608 1.38861 0
M  V30 64280 O 6458.71 -2.02808 0.754844 0
M  V30 64281 C 6459.3 0.0288449 3.38788 0
M  V30 64282 C 6457.86 -0.370103 3.74576 0
M  V30 64283 C 6457.01 0.413059 2.74206 0
M  V30 64284 H 6459.96 0.688166 1.43003 0
M  V30 64285 H 6459.98 -0.772658 3.72572 0
M  V30 64286 H 6459.49 1.05206 3.73568 0
M  V30 64287 H 6457.59 -1.39756 3.45397 0
M  V30 64288 H 6457.7 -0.0694003 4.7905 0
M  V30 64289 H 6456.07 -0.133621 2.54349 0
M  V30 64290 H 6456.85 1.43584 3.11831 0
M  V30 64291 N 6459.3 -1.56238 0.206757 0
M  V30 64292 C 6460.71 -1.84212 -0.303767 0
M  V30 64293 C 6461.06 -1.12777 -1.60548 0
M  V30 64294 O 6460.18 -0.392457 -2.12811 0
M  V30 64295 C 6460.78 -3.34175 -0.557923 0
M  V30 64296 C 6459.34 -3.62518 -1.01279 0
M  V30 64297 C 6458.49 -2.77217 -0.0677369 0
M  V30 64298 H 6461.44 -1.52755 0.430289 0
M  V30 64299 H 6461.46 -3.53578 -1.4058 0
M  V30 64300 H 6460.97 -3.86139 0.389656 0
M  V30 64301 H 6459.07 -3.15998 -1.97424 0
M  V30 64302 H 6459.18 -4.7062 -0.897434 0
M  V30 64303 H 6457.55 -2.48199 -0.571801 0
M  V30 64304 H 6458.33 -3.31975 0.874494 0
M  V30 64305 N 6460.78 0.0667605 -1.57459 0
M  V30 64306 C 6461.71 1.10562 -2.0077 0
M  V30 64307 C 6462.72 1.34693 -0.914426 0
M  V30 64308 O 6463.91 1.32844 -1.19225 0
M  V30 64309 C 6461.01 2.45548 -2.33579 0
M  V30 64310 C 6460.18 2.41303 -3.64817 0
M  V30 64311 C 6459.24 3.58437 -3.85239 0
M  V30 64312 O 6458.27 3.39638 -4.56766 0
M  V30 64313 N 6459.47 4.78969 -3.27978 0
M  V30 64314 H 6462.23 0.736745 -2.90503 0
M  V30 64315 H 6459.8 0.255336 -1.59874 0
M  V30 64316 H 6461.79 3.22561 -2.44411 0
M  V30 64317 H 6460.36 2.74419 -1.4971 0
M  V30 64318 H 6459.58 1.49642 -3.64693 0
M  V30 64319 H 6460.87 2.35573 -4.5098 0
M  V30 64320 H 6460.26 4.97146 -2.69931 0
M  V30 64321 H 6458.82 5.53476 -3.4425 0
M  V30 64322 N 6462.25 1.53927 0.338263 0
M  V30 64323 C 6463.66 1.62821 0.913572 0
M  V30 64324 C 6464.02 0.51288 1.89378 0
M  V30 64325 O 6463.14 -0.356554 2.13442 0
M  V30 64326 C 6463.74 2.95136 1.66374 0
M  V30 64327 C 6462.29 3.06274 2.18799 0
M  V30 64328 C 6461.44 2.58301 1.00875 0
M  V30 64329 H 6464.39 1.58274 0.11625 0
M  V30 64330 H 6464.41 2.84471 2.52698 0
M  V30 64331 H 6463.93 3.76291 0.950083 0
M  V30 64332 H 6462.03 2.29764 2.93325 0
M  V30 64333 H 6462.14 4.11833 2.44807 0
M  V30 64334 H 6460.5 2.13837 1.38369 0
M  V30 64335 H 6461.29 3.41901 0.309637 0
M  V30 64336 N 6463.73 -0.599557 1.4575 0
M  V30 64337 C 6464.66 -1.72033 1.57883 0
M  V30 64338 C 6465.64 -1.64577 0.429951 0
M  V30 64339 O 6466.83 -1.82853 0.654101 0
M  V30 64340 C 6463.96 -3.10652 1.55282 0
M  V30 64341 C 6462.91 -3.32926 2.68969 0
M  V30 64342 C 6462.24 -4.719 2.51425 0
M  V30 64343 C 6463.54 -3.22397 4.10923 0
M  V30 64344 H 6465.23 -1.62135 2.51699 0
M  V30 64345 H 6462.78 -0.778598 1.21136 0
M  V30 64346 H 6464.73 -3.88864 1.62366 0
M  V30 64347 H 6463.45 -3.21409 0.580004 0
M  V30 64348 H 6462.11 -2.57107 2.61326 0
M  V30 64349 H 6461.76 -4.794 1.52264 0
M  V30 64350 H 6461.46 -4.87758 3.27667 0
M  V30 64351 H 6462.99 -5.52302 2.60374 0
M  V30 64352 H 6464.4 -3.90473 4.19766 0
M  V30 64353 H 6462.8 -3.49782 4.87619 0
M  V30 64354 H 6463.87 -2.19717 4.32264 0
M  V30 64355 N 6465.21 -1.33174 -0.842756 0
M  V30 64356 C 6466.49 -1.15014 -1.58212 0
M  V30 64357 C 6466.87 0.284974 -2.09168 0
M  V30 64358 O 6466.21 1.28343 -1.89051 0
M  V30 64359 C 6466.42 -2.18795 -2.71901 0
M  V30 64360 C 6467.77 -2.52748 -3.41179 0
M  V30 64361 O 6468.8 -2.17432 -2.82138 0
M  V30 64362 O 6467.66 -3.13337 -4.47752 0
M  V30 64363 H 6464.75 -0.444598 -0.697325 0
M  V30 64364 H 6467.3 -1.44744 -0.885849 0
M  V30 64365 H 6466.07 -3.15209 -2.3186 0
M  V30 64366 H 6465.69 -1.90128 -3.49195 0
M  V30 64367 N 6466.69 1.06052 -1.16579 0
M  V30 64368 C 6467.62 2.15551 -0.897769 0
M  V30 64369 C 6468.6 1.69375 0.156867 0
M  V30 64370 O 6469.78 1.94198 0.00845112 0
M  V30 64371 C 6466.91 3.4498 -0.400752 0
M  V30 64372 C 6465.87 4.04677 -1.39358 0
M  V30 64373 C 6465.19 5.29345 -0.754863 0
M  V30 64374 C 6466.49 4.43173 -2.76397 0
M  V30 64375 H 6468.19 2.3823 -1.81347 0
M  V30 64376 H 6465.73 1.14492 -0.873357 0
M  V30 64377 H 6467.69 4.20922 -0.200714 0
M  V30 64378 H 6466.41 3.21928 0.550463 0
M  V30 64379 H 6465.07 3.30795 -1.5802 0
M  V30 64380 H 6464.72 5.02591 0.202914 0
M  V30 64381 H 6464.42 5.70245 -1.41755 0
M  V30 64382 H 6465.94 6.07981 -0.564901 0
M  V30 64383 H 6467.36 5.10185 -2.61503 0
M  V30 64384 H 6465.75 4.95064 -3.39163 0
M  V30 64385 H 6466.82 3.53919 -3.31465 0
M  V30 64386 N 6468.17 0.964658 1.24628 0
M  V30 64387 C 6469.1 0.450193 2.24735 0
M  V30 64388 C 6470.11 -0.439407 1.56758 0
M  V30 64389 O 6471.3 -0.246071 1.76796 0
M  V30 64390 C 6468.4 -0.369665 3.36878 0
M  V30 64391 C 6467.57 0.509308 4.34425 0
M  V30 64392 C 6466.63 -0.254032 5.25586 0
M  V30 64393 O 6465.66 0.350999 5.68117 0
M  V30 64394 N 6466.86 -1.54443 5.59578 0
M  V30 64395 H 6469.62 1.31089 2.6951 0
M  V30 64396 H 6467.19 0.836139 1.38637 0
M  V30 64397 H 6469.18 -0.888291 3.94831 0
M  V30 64398 H 6467.75 -1.13127 2.91412 0
M  V30 64399 H 6466.97 1.20894 3.75204 0
M  V30 64400 H 6468.26 1.10889 4.96569 0
M  V30 64401 H 6467.65 -2.05776 5.26947 0
M  V30 64402 H 6466.21 -2.00882 6.20072 0
M  V30 64403 N 6469.64 -1.39442 0.734411 0
M  V30 64404 C 6470.59 -2.27892 0.0701237 0
M  V30 64405 C 6471.58 -1.44229 -0.713215 0
M  V30 64406 O 6472.77 -1.67147 -0.582321 0
M  V30 64407 C 6469.9 -3.32945 -0.836822 0
M  V30 64408 C 6468.98 -4.24073 -0.0476641 0
M  V30 64409 N 6469.38 -4.96237 0.978885 0
M  V30 64410 C 6467.67 -4.45136 -0.277407 0
M  V30 64411 C 6468.37 -5.63217 1.4547 0
M  V30 64412 N 6467.35 -5.3807 0.773415 0
M  V30 64413 H 6471.15 -2.81139 0.856624 0
M  V30 64414 H 6468.67 -1.52117 0.568689 0
M  V30 64415 H 6470.66 -3.95177 -1.32819 0
M  V30 64416 H 6469.32 -2.81257 -1.62249 0
M  V30 64417 H 6470.33 -4.99718 1.36023 0
M  V30 64418 H 6467.01 -4.04393 -1.03792 0
M  V30 64419 H 6468.4 -6.30989 2.30873 0
M  V30 64420 N 6471.12 -0.481999 -1.50048 0
M  V30 64421 C 6472.54 -0.136796 -1.59013 0
M  V30 64422 C 6472.74 1.35747 -1.48912 0
M  V30 64423 O 6471.79 2.13176 -1.35323 0
M  V30 64424 C 6473.11 -0.696699 -2.92518 0
M  V30 64425 C 6474.65 -0.661101 -3.05939 0
M  V30 64426 C 6475.13 -1.19874 -4.42034 0
M  V30 64427 N 6476.62 -1.15861 -4.48476 0
M  V30 64428 C 6477.36 -1.545 -5.52193 0
M  V30 64429 N 6476.85 -2.0064 -6.6311 0
M  V30 64430 N 6478.64 -1.46035 -5.42799 0
M  V30 64431 H 6470.8 -1.45372 -1.54857 0
M  V30 64432 H 6473.06 -0.60184 -0.732457 0
M  V30 64433 H 6472.76 -1.74392 -3.05418 0
M  V30 64434 H 6472.64 -0.146382 -3.76916 0
M  V30 64435 H 6475.03 0.377232 -2.92679 0
M  V30 64436 H 6475.11 -1.24835 -2.23271 0
M  V30 64437 H 6474.75 -2.23576 -4.56044 0
M  V30 64438 H 6474.68 -0.587603 -5.23311 0
M  V30 64439 H 6477.17 -0.820327 -3.68889 0
M  V30 64440 H 6477.48 -2.28243 -7.38326 0
M  V30 64441 H 6475.83 -2.04601 -6.64201 0
M  V30 64442 H 6479.02 -1.09821 -4.55035 0
M  V30 64443 H 6479.19 -1.76472 -6.23508 0
M  V30 64444 N 6472.6 1.56126 -0.21504 0
M  V30 64445 C 6473.56 2.1875 0.684175 0
M  V30 64446 C 6474.56 1.14752 1.12644 0
M  V30 64447 O 6475.75 1.40023 1.0363 0
M  V30 64448 C 6472.88 2.8056 1.93646 0
M  V30 64449 H 6474.08 2.99581 0.138284 0
M  V30 64450 H 6471.63 1.56262 0.0345809 0
M  V30 64451 H 6472.37 2.03582 2.52438 0
M  V30 64452 H 6472.15 3.56711 1.62787 0
M  V30 64453 H 6473.64 3.28584 2.57725 0
M  V30 64454 N 6474.08 -0.0584092 1.57492 0
M  V30 64455 C 6475.01 -1.09496 2.01354 0
M  V30 64456 C 6476.02 -1.34206 0.921556 0
M  V30 64457 O 6477.21 -1.3221 1.19928 0
M  V30 64458 C 6474.31 -2.44306 2.34878 0
M  V30 64459 C 6473.49 -2.39365 3.66091 0
M  V30 64460 C 6472.54 -3.56389 3.87135 0
M  V30 64461 O 6471.57 -3.3721 4.58561 0
M  V30 64462 N 6472.77 -4.77223 3.30513 0
M  V30 64463 H 6475.54 -0.721329 2.9089 0
M  V30 64464 H 6473.1 -0.246854 1.60007 0
M  V30 64465 H 6475.09 -3.2126 2.46118 0
M  V30 64466 H 6473.66 -2.73621 1.51163 0
M  V30 64467 H 6472.88 -1.47706 3.65481 0
M  V30 64468 H 6474.17 -2.33178 4.52223 0
M  V30 64469 H 6473.57 -4.95707 2.72563 0
M  V30 64470 H 6472.12 -5.51642 3.4718 0
M  V30 64471 N 6475.56 -1.54104 -0.330095 0
M  V30 64472 C 6476.52 -1.82322 -1.38894 0
M  V30 64473 C 6477.52 -0.694762 -1.45016 0
M  V30 64474 O 6478.71 -0.963067 -1.45157 0
M  V30 64475 C 6475.84 -1.97737 -2.77692 0
M  V30 64476 H 6477.03 -2.7692 -1.15131 0
M  V30 64477 H 6474.59 -1.45722 -0.565225 0
M  V30 64478 H 6475.32 -1.05327 -3.06719 0
M  V30 64479 H 6475.11 -2.79846 -2.74643 0
M  V30 64480 H 6476.6 -2.21038 -3.54305 0
M  V30 64481 N 6477.03 0.591819 -1.46066 0
M  V30 64482 C 6478.28 1.34768 -1.50605 0
M  V30 64483 C 6478.6 1.94379 -0.15552 0
M  V30 64484 O 6477.87 1.78053 0.816937 0
M  V30 64485 H 6476.45 0.500351 -0.554669 0
M  V30 64486 H 6479.12 0.693796 -1.82133 0
M  V30 64487 H 6478.21 2.15906 -2.25369 0
M  V30 64488 N 6478.51 1.33619 0.835682 0
M  V30 64489 C 6479.48 1.24049 1.92729 0
M  V30 64490 C 6480.48 0.158764 1.60014 0
M  V30 64491 O 6481.67 0.410516 1.69294 0
M  V30 64492 C 6478.8 0.912228 3.28468 0
M  V30 64493 H 6479.99 2.21082 2.0264 0
M  V30 64494 H 6477.54 1.17723 1.02815 0
M  V30 64495 H 6478.28 -0.0554683 3.24253 0
M  V30 64496 H 6478.06 1.69453 3.53593 0
M  V30 64497 H 6479.55 0.8701 4.08435 0
M  V30 64498 N 6479.99 -1.05432 1.1714 0
M  V30 64499 C 6480.94 -2.15226 0.882062 0
M  V30 64500 C 6481.93 -1.68714 -0.152336 0
M  V30 64501 O 6483.14 -1.79999 -0.00548731 0
M  V30 64502 H 6479.51 -0.702742 0.267689 0
M  V30 64503 H 6481.48 -2.36836 1.81525 0
M  V30 64504 C 6480.23 -3.45284 0.409167 0
M  V30 64505 H 6479.56 -3.81474 1.19657 0
M  V30 64506 H 6481 -4.23288 0.245577 0
M  V30 64507 C 6479.46 -3.25399 -0.872772 0
M  V30 64508 O 6479.99 -3.51742 -1.94011 0
M  V30 64509 N 6478.19 -2.78792 -0.819967 0
M  V30 64510 H 6477.74 -2.57554 0.0488161 0
M  V30 64511 H 6477.7 -2.65867 -1.67816 0
M  V30 64512 N 6481.47 -0.971254 -1.24115 0
M  V30 64513 C 6482.7 -0.652817 -1.96331 0
M  V30 64514 C 6483.11 0.778448 -1.72005 0
M  V30 64515 O 6482.47 1.52273 -1.00594 0
M  V30 64516 C 6482.52 -0.922385 -3.49534 0
M  V30 64517 O 6482.24 -2.29739 -3.7303 0
M  V30 64518 C 6483.74 -0.618629 -4.38962 0
M  V30 64519 H 6480.96 -0.243274 -0.625347 0
M  V30 64520 H 6483.51 -1.30015 -1.57849 0
M  V30 64521 H 6481.66 -0.321203 -3.86066 0
M  V30 64522 H 6482.07 -2.3801 -4.67388 0
M  V30 64523 H 6483.55 -0.857674 -5.45296 0
M  V30 64524 H 6484.03 0.447173 -4.36918 0
M  V30 64525 H 6484.63 -1.19988 -4.08023 0
M  V30 64526 N 6482.95 1.39051 -0.741796 0
M  V30 64527 C 6484.36 1.54026 -0.418106 0
M  V30 64528 C 6484.56 1.70729 1.07023 0
M  V30 64529 O 6483.62 1.71162 1.85634 0
M  V30 64530 C 6484.93 2.7541 -1.20706 0
M  V30 64531 C 6486.48 2.8925 -1.19596 0
M  V30 64532 C 6486.95 4.1358 -1.96763 0
M  V30 64533 N 6488.45 4.20633 -1.93963 0
M  V30 64534 C 6489.18 5.158 -2.50474 0
M  V30 64535 N 6488.68 6.16714 -3.15651 0
M  V30 64536 N 6490.47 5.08066 -2.4047 0
M  V30 64537 H 6482.62 1.26458 -1.70652 0
M  V30 64538 H 6484.88 0.61342 -0.722786 0
M  V30 64539 H 6484.59 2.69433 -2.2605 0
M  V30 64540 H 6484.46 3.68267 -0.816035 0
M  V30 64541 H 6486.85 2.94715 -0.150625 0
M  V30 64542 H 6486.93 1.97437 -1.62642 0
M  V30 64543 H 6486.58 4.08877 -3.01301 0
M  V30 64544 H 6486.51 5.04451 -1.51119 0
M  V30 64545 H 6489 3.48353 -1.46487 0
M  V30 64546 H 6489.31 6.85803 -3.56221 0
M  V30 64547 H 6487.65 6.17082 -3.19743 0
M  V30 64548 H 6490.85 4.28165 -1.89189 0
M  V30 64549 H 6491.02 5.82055 -2.84809 0
M  V30 64550 N 6484.42 0.489949 1.49791 0
M  V30 64551 C 6485.84 0.039429 1.86658 0
M  V30 64552 C 6486.19 -1.37127 1.40323 0
M  V30 64553 O 6485.31 -2.01996 0.776312 0
M  V30 64554 C 6485.91 0.0647762 3.38738 0
M  V30 64555 C 6484.47 -0.330353 3.74948 0
M  V30 64556 C 6483.61 0.442119 2.73753 0
M  V30 64557 H 6486.56 0.703295 1.42265 0
M  V30 64558 H 6486.58 -0.733099 3.73371 0
M  V30 64559 H 6486.1 1.09162 3.72432 0
M  V30 64560 H 6484.2 -1.36085 3.4686 0
M  V30 64561 H 6484.31 -0.0185868 4.79096 0
M  V30 64562 H 6482.67 -0.106636 2.54477 0
M  V30 64563 H 6483.46 1.46883 3.1029 0
M  V30 64564 N 6485.9 -1.5601 0.223316 0
M  V30 64565 C 6487.14 -2.00251 -0.409732 0
M  V30 64566 C 6487.51 -1.10772 -1.56823 0
M  V30 64567 O 6488.71 -1.44367 -2.26741 0
M  V30 64568 C 6486.98 -3.47591 -0.831566 0
M  V30 64569 S 6488.54 -4.13853 -1.45847 0
M  V30 64570 H 6485.36 -0.699021 -0.129963 0
M  V30 64571 H 6487.96 -1.92643 0.333019 0
M  V30 64572 H 6486.66 -4.10395 0.0212455 0
M  V30 64573 H 6486.19 -3.59077 -1.60709 0
M  V30 64574 H 6488.21 -4.13188 -2.74755 0
M  V30 64575 N 6487.38 0.0500562 -1.5752 0
M  V30 64576 C 6488.79 0.599275 -1.76821 0
M  V30 64577 C 6489.14 1.7675 -0.851687 0
M  V30 64578 O 6488.27 2.16361 -0.0411772 0
M  V30 64579 C 6488.86 1.0939 -3.20654 0
M  V30 64580 C 6487.42 1.58881 -3.41224 0
M  V30 64581 C 6486.57 0.517623 -2.72426 0
M  V30 64582 H 6489.52 -0.176163 -1.57719 0
M  V30 64583 H 6489.54 1.96205 -3.26012 0
M  V30 64584 H 6489.05 0.243438 -3.87336 0
M  V30 64585 H 6487.15 2.46181 -2.79688 0
M  V30 64586 H 6487.27 1.65077 -4.49762 0
M  V30 64587 H 6485.63 0.967791 -2.35597 0
M  V30 64588 H 6486.41 -0.323024 -3.41777 0
M  V30 64589 N 6488.86 1.54277 0.321918 0
M  V30 64590 C 6490.08 1.76845 1.08354 0
M  V30 64591 C 6490.51 0.516364 1.80874 0
M  V30 64592 O 6489.87 -0.532164 1.73314 0
M  V30 64593 C 6489.92 2.96243 2.05603 0
M  V30 64594 O 6489.02 2.67904 3.1353 0
M  V30 64595 H 6488.36 0.585959 0.312326 0
M  V30 64596 H 6490.89 2.01305 0.365712 0
M  V30 64597 H 6490.9 3.23635 2.48443 0
M  V30 64598 H 6489.58 3.87042 1.52221 0
M  V30 64599 H 6488.15 2.51466 2.75353 0
M  V30 64600 O 6490.38 -0.467867 1.54574 0
M  V30 64601 H 6491.07 -1.12217 1.57883 0
M  V30 END ATOM
M  V30 BEGIN BOND
M  V30 END BOND
M  V30 END CTAB
M  END
$$$$
