drugbank_target|P98155 Very low-density lipoprotein receptor (DB03017)
 OpenBabel12092120453D

  0  0  0     0  0            999 V3000
M  V30 BEGIN CTAB
M  V30 COUNTS 13025 13158 0 0 0
M  V30 BEGIN ATOM
M  V30 1 H -0.908 1.98254 -0.117106 0
M  V30 2 N 0 1.576 0 0
M  V30 3 C 0.933 2.03868 1.02534 0
M  V30 4 C 1.911 0.928543 1.3348 0
M  V30 5 O 3.095 1.19667 1.45644 0
M  V30 6 C 0.222 2.43627 2.35294 0
M  V30 7 C -0.732 3.65373 2.2001 0
M  V30 8 S 0.101 5.13292 1.52614 0
M  V30 9 C 1.257 5.56322 2.86805 0
M  V30 10 H 1.49 2.90518 0.631377 0
M  V30 11 H -0.977 1.52953 0.210867 0
M  V30 12 H 0.981 2.67203 3.11629 0
M  V30 13 H -0.358 1.57376 2.7183 0
M  V30 14 H -1.165 3.90944 3.18086 0
M  V30 15 H -1.563 3.418 1.51819 0
M  V30 16 H 0.729 5.58782 3.83104 0
M  V30 17 H 1.672 6.56266 2.65933 0
M  V30 18 H 2.08 4.83886 2.90714 0
M  V30 19 N 1.4781 -0.272755 1.55222 0
M  V30 20 C 2.7261 -1.00234 1.75492 0
M  V30 21 C 3.0471 -1.8681 0.5592 0
M  V30 22 O 2.3171 -1.91215 -0.425882 0
M  V30 23 H 0.8971 -0.373076 0.647166 0
M  V30 24 H 3.5591 -0.296926 1.92625 0
M  V30 25 H 2.6551 -1.63913 2.65592 0
M  V30 26 N 2.9562 -1.48159 -0.537278 0
M  V30 27 C 4.1842 -1.59454 -1.31841 0
M  V30 28 C 4.5992 -0.252065 -1.8711 0
M  V30 29 O 3.9562 0.757621 -1.66031 0
M  V30 30 C 4.0072 -2.63546 -2.47439 0
M  V30 31 O 3.7282 -3.92583 -1.94449 0
M  V30 32 C 5.2292 -2.85212 -3.39366 0
M  V30 33 H 2.4492 -0.53785 -0.401196 0
M  V30 34 H 4.9932 -1.93932 -0.648891 0
M  V30 35 H 3.1482 -2.31946 -3.1029 0
M  V30 36 H 3.5622 -4.49629 -2.70063 0
M  V30 37 H 5.0362 -3.61863 -4.16844 0
M  V30 38 H 5.5132 -1.93765 -3.94147 0
M  V30 39 H 6.1192 -3.18086 -2.82314 0
M  V30 40 N 4.4343 0.785586 -1.36625 0
M  V30 41 C 5.6593 1.57963 -1.34397 0
M  V30 42 C 6.0843 1.87964 0.071526 0
M  V30 43 O 5.4423 1.48182 1.0446 0
M  V30 44 C 5.4903 2.87511 -2.17646 0
M  V30 45 O 4.5943 3.81281 -1.57158 0
M  V30 46 H 3.9353 0.479014 -0.459828 0
M  V30 47 H 6.4653 0.973411 -1.79961 0
M  V30 48 H 6.4753 3.36745 -2.30362 0
M  V30 49 H 5.1503 2.65002 -3.20541 0
M  V30 50 H 3.7273 3.39885 -1.53403 0
M  V30 51 N 5.9124 1.20967 1.01018 0
M  V30 52 C 6.8754 0.965918 2.07853 0
M  V30 53 C 7.8754 -0.0610545 1.60684 0
M  V30 54 O 9.0654 0.175681 1.73312 0
M  V30 55 C 6.1974 0.455513 3.37843 0
M  V30 56 H 7.3904 1.91365 2.3091 0
M  V30 57 H 4.9434 1.02594 1.17916 0
M  V30 58 H 5.6784 -0.497381 3.20463 0
M  V30 59 H 5.4634 1.19622 3.73407 0
M  V30 60 H 6.9534 0.304667 4.16487 0
M  V30 61 N 7.3905 -1.2043 1.01659 0
M  V30 62 C 8.3205 -2.25466 0.607226 0
M  V30 63 C 9.3015 -1.65853 -0.377716 0
M  V30 64 O 10.4865 -1.92409 -0.263149 0
M  V30 65 C 7.6165 -3.47256 -0.0552949 0
M  V30 66 C 6.5705 -4.19462 0.850632 0
M  V30 67 C 5.8965 -5.34673 0.0538859 0
M  V30 68 C 7.1965 -4.75603 2.15868 0
M  V30 69 H 8.8905 -2.59962 1.48526 0
M  V30 70 H 6.4365 -1.2496 0.715605 0
M  V30 71 H 8.3895 -4.19917 -0.353233 0
M  V30 72 H 7.1135 -3.11924 -0.968045 0
M  V30 73 H 5.7725 -3.48667 1.13257 0
M  V30 74 H 5.4205 -4.95585 -0.860514 0
M  V30 75 H 5.1205 -5.83913 0.657192 0
M  V30 76 H 6.6445 -6.10138 -0.237598 0
M  V30 77 H 8.0585 -5.40083 1.92311 0
M  V30 78 H 6.4555 -5.3528 2.71284 0
M  V30 79 H 7.5255 -3.94346 2.82169 0
M  V30 80 N 8.8686 -0.792821 -1.36206 0
M  V30 81 C 10.1146 -0.376415 -1.99887 0
M  V30 82 C 10.4696 1.04127 -1.61788 0
M  V30 83 O 9.7626 1.71004 -0.864193 0
M  V30 84 C 9.9566 -0.481501 -3.54142 0
M  V30 85 C 9.7856 -1.90786 -4.07223 0
M  V30 86 C 8.5556 -2.53322 -4.37214 0
M  V30 87 C 10.7536 -2.87048 -4.26741 0
M  V30 88 N 8.7356 -3.8751 -4.7614 0
M  V30 89 C 10.1066 -4.06077 -4.6851 0
M  V30 90 C 12.1616 -2.8406 -4.08918 0
M  V30 91 C 10.8646 -5.22532 -4.94321 0
M  V30 92 C 12.8906 -3.99705 -4.35878 0
M  V30 93 C 12.2526 -5.1748 -4.77906 0
M  V30 94 H 8.3516 -0.185226 -0.759747 0
M  V30 95 H 10.9356 -1.03114 -1.65153 0
M  V30 96 H 9.1066 0.143154 -3.88136 0
M  V30 97 H 10.8386 -0.0410128 -4.04679 0
M  V30 98 H 7.5936 -2.04777 -4.2704 0
M  V30 99 H 8.0176 -4.5656 -4.99882 0
M  V30 100 H 12.6596 -1.94165 -3.75579 0
M  V30 101 H 10.3776 -6.1301 -5.2654 0
M  V30 102 H 13.9636 -3.98758 -4.23655 0
M  V30 103 H 12.8436 -6.05478 -4.98363 0
M  V30 104 N 10.3467 1.47872 -0.545128 0
M  V30 105 C 11.3097 2.28337 0.198717 0
M  V30 106 C 12.3097 1.36255 0.853888 0
M  V30 107 O 13.4997 1.59003 0.711606 0
M  V30 108 C 10.6317 3.15585 1.28915 0
M  V30 109 H 11.8247 2.95567 -0.507941 0
M  V30 110 H 9.3777 1.53362 -0.301616 0
M  V30 111 H 10.1127 2.53019 2.02859 0
M  V30 112 H 9.8977 3.83337 0.824309 0
M  V30 113 H 11.3877 3.76243 1.81194 0
M  V30 114 N 11.8248 0.280983 1.55075 0
M  V30 115 C 12.7548 -0.597469 2.25727 0
M  V30 116 C 13.7358 -1.15417 1.24952 0
M  V30 117 O 14.9208 -1.18722 1.53684 0
M  V30 118 C 12.0508 -1.7789 2.98283 0
M  V30 119 C 11.0048 -1.35347 4.06036 0
M  V30 120 C 10.3308 -2.61846 4.66198 0
M  V30 121 C 11.6308 -0.499354 5.19907 0
M  V30 122 H 13.3248 -0.00824265 2.99399 0
M  V30 123 H 10.8708 -0.0025244 1.44 0
M  V30 124 H 12.8238 -2.39937 3.46422 0
M  V30 125 H 11.5478 -2.39405 2.22155 0
M  V30 126 H 10.2068 -0.756156 3.58717 0
M  V30 127 H 9.8548 -3.21632 3.86732 0
M  V30 128 H 9.5548 -2.3409 5.38958 0
M  V30 129 H 11.0788 -3.24732 5.1709 0
M  V30 130 H 12.4928 -1.02498 5.64063 0
M  V30 131 H 10.8898 -0.316424 5.99265 0
M  V30 132 H 11.9598 0.480459 4.82514 0
M  V30 133 N 13.3029 -1.57598 0.00835791 0
M  V30 134 C 14.5489 -1.92046 -0.670055 0
M  V30 135 C 14.9039 -0.88351 -1.70915 0
M  V30 136 O 14.1969 0.103223 -1.91322 0
M  V30 137 C 14.3909 -3.3101 -1.34787 0
M  V30 138 C 14.2199 -4.48126 -0.375945 0
M  V30 139 C 12.9899 -5.05297 0.0166914 0
M  V30 140 C 15.1879 -5.1303 0.361272 0
M  V30 141 N 13.1699 -6.05931 0.985952 0
M  V30 142 C 14.5409 -6.08571 1.18495 0
M  V30 143 C 16.5959 -4.9609 0.42421 0
M  V30 144 C 15.2989 -6.88996 2.06584 0
M  V30 145 C 17.3249 -5.77107 1.29236 0
M  V30 146 C 16.6869 -6.72248 2.10386 0
M  V30 147 H 12.7859 -0.75096 -0.218136 0
M  V30 148 H 15.3699 -1.94572 0.0706669 0
M  V30 149 H 13.5409 -3.29342 -2.05884 0
M  V30 150 H 15.2729 -3.52864 -1.98164 0
M  V30 151 H 12.0279 -4.72279 -0.353435 0
M  V30 152 H 12.4519 -6.60932 1.4662 0
M  V30 153 H 17.0939 -4.22378 -0.188915 0
M  V30 154 H 14.8119 -7.62028 2.6896 0
M  V30 155 H 18.3979 -5.66038 1.34508 0
M  V30 156 H 17.2779 -7.33846 2.76476 0
M  V30 157 N 14.781 0.264519 -1.55364 0
M  V30 158 C 15.711 1.33121 -1.91836 0
M  V30 159 C 16.692 1.51101 -0.781192 0
M  V30 160 O 17.877 1.64003 -1.04003 0
M  V30 161 C 15.007 2.68921 -2.19769 0
M  V30 162 C 13.961 2.65661 -3.35571 0
M  V30 163 C 13.287 4.05093 -3.49004 0
M  V30 164 C 14.587 2.24187 -4.71739 0
M  V30 165 H 16.281 1.02844 -2.81182 0
M  V30 166 H 13.827 0.493286 -1.35287 0
M  V30 167 H 15.78 3.43663 -2.43872 0
M  V30 168 H 14.504 3.00799 -1.27231 0
M  V30 169 H 13.163 1.93377 -3.1145 0
M  V30 170 H 12.811 4.34206 -2.53917 0
M  V30 171 H 12.511 4.03804 -4.26868 0
M  V30 172 H 14.035 4.81561 -3.75408 0
M  V30 173 H 15.449 2.88654 -4.9533 0
M  V30 174 H 13.846 2.34044 -5.52579 0
M  V30 175 H 14.916 1.19327 -4.69988 0
M  V30 176 N 16.2591 1.48442 0.529413 0
M  V30 177 C 17.1891 1.65902 1.64313 0
M  V30 178 C 18.1701 0.507897 1.6234 0
M  V30 179 O 19.3551 0.740503 1.79528 0
M  V30 180 C 16.4851 1.69911 3.02898 0
M  V30 181 C 15.4391 2.8453 3.19729 0
M  V30 182 C 14.7651 2.73629 4.59381 0
M  V30 183 C 16.0651 4.25821 3.02447 0
M  V30 184 H 17.7591 2.5914 1.49955 0
M  V30 185 H 15.3051 1.24709 0.719982 0
M  V30 186 H 17.2581 1.80715 3.80684 0
M  V30 187 H 15.9821 0.732524 3.18279 0
M  V30 188 H 14.6411 2.73283 2.44361 0
M  V30 189 H 14.2891 1.74938 4.71599 0
M  V30 190 H 13.9891 3.50541 4.71588 0
M  V30 191 H 15.5131 2.86401 5.39265 0
M  V30 192 H 16.9271 4.37898 3.70024 0
M  V30 193 H 15.3241 5.03735 3.26146 0
M  V30 194 H 16.3941 4.42244 1.98867 0
M  V30 195 N 17.7372 -0.778329 1.37039 0
M  V30 196 C 18.6672 -1.90546 1.34962 0
M  V30 197 C 19.6482 -1.68681 0.219274 0
M  V30 198 O 20.8332 -1.89634 0.418624 0
M  V30 199 C 17.9632 -3.27734 1.14925 0
M  V30 200 C 16.9172 -3.64147 2.24902 0
M  V30 201 C 16.2432 -4.99806 1.89996 0
M  V30 202 C 17.5432 -3.71579 3.67051 0
M  V30 203 H 19.2372 -1.92541 2.29277 0
M  V30 204 H 16.7832 -0.924948 1.10366 0
M  V30 205 H 18.7362 -4.06215 1.12104 0
M  V30 206 H 17.4602 -3.26154 0.170631 0
M  V30 207 H 16.1192 -2.8797 2.26868 0
M  V30 208 H 15.7672 -4.94759 0.906796 0
M  V30 209 H 15.4672 -5.25139 2.63634 0
M  V30 210 H 16.9912 -5.80694 1.88749 0
M  V30 211 H 18.4052 -4.40227 3.67251 0
M  V30 212 H 16.8022 -4.08405 4.39688 0
M  V30 213 H 17.8722 -2.72404 4.01154 0
M  V30 214 N 19.2153 -1.21501 -1.00376 0
M  V30 215 C 20.1783 -0.976927 -2.07337 0
M  V30 216 C 21.1783 0.0525322 -1.60714 0
M  V30 217 O 22.3683 -0.184869 -1.73216 0
M  V30 218 C 19.5003 -0.473423 -3.37597 0
M  V30 219 H 20.6933 -1.92587 -2.29892 0
M  V30 220 H 18.2463 -1.03217 -1.17371 0
M  V30 221 H 18.9813 0.480379 -3.20722 0
M  V30 222 H 18.7663 -1.216 -3.72768 0
M  V30 223 H 20.2563 -0.32675 -4.1632 0
M  V30 224 N 20.6934 1.19889 -1.02296 0
M  V30 225 C 21.6234 2.25141 -0.619174 0
M  V30 226 C 22.6044 1.66051 0.368915 0
M  V30 227 O 23.7894 1.92546 0.252941 0
M  V30 228 C 20.9194 3.4728 0.0368783 0
M  V30 229 C 19.8734 4.19005 -0.872865 0
M  V30 230 C 19.1994 5.34637 -0.0822402 0
M  V30 231 C 20.4994 4.74452 -2.18387 0
M  V30 232 H 22.1934 2.59171 -1.49903 0
M  V30 233 H 19.7394 1.24579 -0.722222 0
M  V30 234 H 21.6924 4.20098 0.330958 0
M  V30 235 H 20.4164 3.12433 0.95149 0
M  V30 236 H 19.0754 3.48061 -1.15105 0
M  V30 237 H 18.7234 4.96034 0.83422 0
M  V30 238 H 18.4234 5.83557 -0.688149 0
M  V30 239 H 19.9474 6.10255 0.205238 0
M  V30 240 H 21.3614 5.39055 -1.95172 0
M  V30 241 H 19.7584 5.33834 -2.74119 0
M  V30 242 H 20.8284 3.92844 -2.84257 0
M  V30 243 N 22.1715 0.800033 1.35784 0
M  V30 244 C 23.4115 0.382891 2.00782 0
M  V30 245 C 23.7755 -1.02891 1.62103 0
M  V30 246 O 24.9765 -1.54771 2.19771 0
M  V30 247 C 23.2475 0.553299 3.53091 0
M  V30 248 S 24.8065 0.225608 4.3822 0
M  V30 249 H 21.6245 0.145737 0.695904 0
M  V30 250 H 24.2265 1.04085 1.65489 0
M  V30 251 H 22.9305 1.58091 3.78729 0
M  V30 252 H 22.4615 -0.120214 3.93216 0
M  V30 253 H 24.4765 -0.969074 4.86645 0
M  V30 254 N 23.6496 -1.47581 0.552962 0
M  V30 255 C 24.8956 -2.03369 0.0355807 0
M  V30 256 C 25.2506 -1.42016 -1.29805 0
M  V30 257 O 24.5436 -0.564917 -1.83083 0
M  V30 258 C 24.7376 -3.57199 -0.119728 0
M  V30 259 C 24.5666 -4.33468 1.1973 0
M  V30 260 C 23.3366 -4.7353 1.76345 0
M  V30 261 C 25.5346 -4.68866 2.11351 0
M  V30 262 N 23.5166 -5.34426 3.02097 0
M  V30 263 C 24.8876 -5.3002 3.21681 0
M  V30 264 C 26.9426 -4.50795 2.11397 0
M  V30 265 C 25.6456 -5.75011 4.32151 0
M  V30 266 C 27.6716 -4.96782 3.20876 0
M  V30 267 C 27.0336 -5.57981 4.29926 0
M  V30 268 H 23.1326 -0.780058 0.0550806 0
M  V30 269 H 25.7166 -1.80117 0.739315 0
M  V30 270 H 23.8876 -3.80227 -0.792579 0
M  V30 271 H 25.6196 -3.99627 -0.638792 0
M  V30 272 H 22.3746 -4.55352 1.30196 0
M  V30 273 H 22.7986 -5.69421 3.66182 0
M  V30 274 H 27.4406 -4.0284 1.28372 0
M  V30 275 H 25.1586 -6.21959 5.15938 0
M  V30 276 H 28.7446 -4.84573 3.21994 0
M  V30 277 H 27.6246 -5.92918 5.13243 0
M  V30 278 N 25.1277 -0.289203 -1.54924 0
M  V30 279 C 26.0907 0.579144 -2.21762 0
M  V30 280 C 27.0907 1.07047 -1.1999 0
M  V30 281 O 28.2807 0.968384 -1.44803 0
M  V30 282 C 25.4127 1.80055 -2.8947 0
M  V30 283 H 26.6057 -0.00464908 -2.999 0
M  V30 284 H 24.1587 -0.0399306 -1.56249 0
M  V30 285 H 24.8937 2.42449 -2.15381 0
M  V30 286 H 24.6787 1.45602 -3.64064 0
M  V30 287 H 26.1687 2.41773 -3.40493 0
M  V30 288 N 26.6058 1.57591 -0.0167156 0
M  V30 289 C 28.0168 1.79201 0.523834 0
M  V30 290 C 28.3678 0.925796 1.72984 0
M  V30 291 O 27.4928 0.132792 2.15992 0
M  V30 292 C 28.0878 3.25 0.957091 0
M  V30 293 C 26.6468 3.47648 1.44283 0
M  V30 294 C 25.7938 2.74374 0.401757 0
M  V30 295 H 28.7448 1.56831 -0.242816 0
M  V30 296 H 28.7658 3.34031 1.82219 0
M  V30 297 H 28.2778 3.88019 0.0791415 0
M  V30 298 H 26.3788 2.89866 2.34113 0
M  V30 299 H 26.4918 4.56352 1.45877 0
M  V30 300 H 24.8558 2.39485 0.867121 0
M  V30 301 H 25.6388 3.40102 -0.467513 0
M  V30 302 N 28.0839 -0.256276 1.55502 0
M  V30 303 C 29.4999 -0.604325 1.47716 0
M  V30 304 C 29.6999 -1.88763 0.705039 0
M  V30 305 O 28.7559 -2.51445 0.230613 0
M  V30 306 C 30.0689 -0.715756 2.92057 0
M  V30 307 C 31.6169 -0.808706 3.02372 0
M  V30 308 C 32.0919 -0.951777 4.48001 0
M  V30 309 N 33.5829 -1.01688 4.519 0
M  V30 310 C 34.3179 -1.14668 5.61817 0
M  V30 311 N 33.8139 -1.24261 6.81565 0
M  V30 312 N 35.6069 -1.1791 5.49594 0
M  V30 313 H 27.7579 0.586291 2.04148 0
M  V30 314 H 30.0209 0.201015 0.926443 0
M  V30 315 H 29.7269 0.157027 3.51349 0
M  V30 316 H 29.6009 -1.59071 3.42018 0
M  V30 317 H 31.9879 -1.67195 2.43166 0
M  V30 318 H 32.0689 0.0912063 2.55637 0
M  V30 319 H 31.7129 -0.0931291 5.07815 0
M  V30 320 H 31.6429 -1.86659 4.92408 0
M  V30 321 H 34.1339 -0.954468 3.65648 0
M  V30 322 H 34.4469 -1.34046 7.61086 0
M  V30 323 H 32.7919 -1.21236 6.84344 0
M  V30 324 H 35.9829 -1.10057 4.54978 0
M  V30 325 H 36.1559 -1.27681 6.35296 0
M  V30 326 N 29.562 -1.4872 -0.521534 0
M  V30 327 C 30.472 -1.66569 -1.65203 0
M  V30 328 C 31.488 -0.548197 -1.65139 0
M  V30 329 O 32.664 -0.820339 -1.83936 0
M  V30 330 C 29.729 -1.70917 -3.01642 0
M  V30 331 C 28.79 -2.94356 -3.12495 0
M  V30 332 C 28.023 -2.98487 -4.42426 0
M  V30 333 O 28.246 -2.10786 -5.30024 0
M  V30 334 O 27.18 -3.90746 -4.57822 0
M  V30 335 H 31.006 -2.62298 -1.5308 0
M  V30 336 H 28.591 -1.3222 -0.695565 0
M  V30 337 H 30.473 -1.7625 -3.82771 0
M  V30 338 H 29.148 -0.783633 -3.14071 0
M  V30 339 H 28.055 -2.94552 -2.3063 0
M  V30 340 H 29.388 -3.86322 -3.04986 0
M  V30 341 N 31.0401 0.771051 -1.3745 0
M  V30 342 C 32.2651 1.56529 -1.36065 0
M  V30 343 C 32.6901 1.88029 0.0515859 0
M  V30 344 O 32.0481 1.49282 1.02882 0
M  V30 345 C 32.0961 2.85187 -2.20683 0
M  V30 346 O 31.2001 3.79593 -1.61193 0
M  V30 347 H 30.5411 0.47411 -0.464883 0
M  V30 348 H 33.0711 0.954269 -1.80983 0
M  V30 349 H 33.0811 3.34283 -2.33921 0
M  V30 350 H 31.7561 2.61588 -3.23334 0
M  V30 351 H 30.3331 3.38239 -1.56999 0
M  V30 352 N 32.5182 1.22032 0.997298 0
M  V30 353 C 33.7662 1.04016 1.73278 0
M  V30 354 C 34.0872 -0.426255 1.90284 0
M  V30 355 O 33.3572 -1.30694 1.45931 0
M  V30 356 H 31.9372 0.381897 0.642 0
M  V30 357 H 34.5992 1.5347 1.20137 0
M  V30 358 H 33.6952 1.51441 2.72896 0
M  V30 359 N 33.9963 -1.19345 1.0293 0
M  V30 360 C 34.9593 -2.20793 0.615069 0
M  V30 361 C 35.9593 -1.57553 -0.321533 0
M  V30 362 O 37.1493 -1.73862 -0.108483 0
M  V30 363 C 34.2813 -3.40754 -0.0999222 0
M  V30 364 H 35.4743 -2.58955 1.51269 0
M  V30 365 H 33.0273 -1.3303 0.820534 0
M  V30 366 H 33.7623 -3.0811 -1.01187 0
M  V30 367 H 33.5473 -3.87889 0.57309 0
M  V30 368 H 35.0373 -4.15898 -0.376645 0
M  V30 369 N 35.4744 -0.807222 -1.35358 0
M  V30 370 C 36.7024 -0.400377 -2.02989 0
M  V30 371 C 37.1174 0.988859 -1.60832 0
M  V30 372 O 36.4744 1.63729 -0.806175 0
M  V30 373 C 36.5254 -0.474867 -3.58368 0
M  V30 374 O 36.2464 -1.80933 -3.98992 0
M  V30 375 C 37.7474 -0.0609112 -4.43258 0
M  V30 376 H 34.9674 -0.162587 -0.651004 0
M  V30 377 H 37.5114 -1.09102 -1.72965 0
M  V30 378 H 35.6664 0.167534 -3.87038 0
M  V30 379 H 36.0804 -1.77256 -4.9364 0
M  V30 380 H 37.5544 -0.164145 -5.51756 0
M  V30 381 H 38.0314 0.993831 -4.27808 0
M  V30 382 H 38.6374 -0.676492 -4.19885 0
M  V30 383 N 36.9525 1.47285 -0.560781 0
M  V30 384 C 38.2005 2.02064 -0.0379868 0
M  V30 385 C 38.5215 1.43711 1.31803 0
M  V30 386 O 37.7915 0.61362 1.86042 0
M  V30 387 H 36.3715 0.746918 -0.0110531 0
M  V30 388 H 39.0335 1.80648 -0.731598 0
M  V30 389 H 38.1295 3.12064 0.0474463 0
M  V30 390 N 38.4306 0.297415 1.54768 0
M  V30 391 C 39.6586 -0.315623 2.04478 0
M  V30 392 C 40.0736 -1.47792 1.17486 0
M  V30 393 O 39.4306 -1.81404 0.19971 0
M  V30 394 C 39.4816 -0.7753 3.53088 0
M  V30 395 O 39.2026 0.340732 4.36773 0
M  V30 396 C 40.7036 -1.45386 4.18781 0
M  V30 397 H 37.9236 -0.0690887 0.667434 0
M  V30 398 H 40.4676 0.436003 1.99798 0
M  V30 399 H 38.6226 -1.47696 3.58141 0
M  V30 400 H 39.0366 -0.0165035 5.24497 0
M  V30 401 H 40.5106 -1.72669 5.24299 0
M  V30 402 H 40.9876 -2.39275 3.68299 0
M  V30 403 H 41.5936 -0.795475 4.17795 0
M  V30 404 N 39.9087 -1.5758 0.0250728 0
M  V30 405 C 41.1567 -1.91255 -0.653151 0
M  V30 406 C 41.4777 -0.901691 -1.729 0
M  V30 407 O 40.7477 0.0573785 -1.95816 0
M  V30 408 H 39.3277 -0.705942 -0.244243 0
M  V30 409 H 41.9897 -1.94767 0.0719209 0
M  V30 410 H 41.0857 -2.91752 -1.10847 0
M  V30 411 N 41.3868 0.248026 -1.55636 0
M  V30 412 C 42.8028 0.596483 -1.48035 0
M  V30 413 C 43.0028 1.88386 -0.715039 0
M  V30 414 O 42.0588 2.51319 -0.243944 0
M  V30 415 C 43.3718 0.700258 -2.92433 0
M  V30 416 C 44.9198 0.792659 -3.02797 0
M  V30 417 C 45.3948 0.928005 -4.485 0
M  V30 418 N 46.8858 0.992903 -4.52433 0
M  V30 419 C 47.6208 1.11687 -5.62418 0
M  V30 420 N 47.1168 1.20645 -6.82214 0
M  V30 421 N 48.9098 1.14994 -5.50212 0
M  V30 422 H 41.0608 -0.597109 -2.03834 0
M  V30 423 H 43.3238 -0.205925 -0.925364 0
M  V30 424 H 43.0298 -0.175658 -3.51261 0
M  V30 425 H 42.9038 1.57255 -3.42857 0
M  V30 426 H 45.2908 1.65903 -2.4405 0
M  V30 427 H 45.3718 -0.104762 -2.55585 0
M  V30 428 H 45.0158 0.0661971 -5.07857 0
M  V30 429 H 44.9458 1.84045 -4.93391 0
M  V30 430 H 47.4368 0.935064 -3.66149 0
M  V30 431 H 47.7498 1.30008 -7.61786 0
M  V30 432 H 46.0948 1.17605 -6.84977 0
M  V30 433 H 49.2858 1.07643 -4.55555 0
M  V30 434 H 49.4588 1.24311 -6.35965 0
M  V30 435 N 42.8649 1.48995 0.513639 0
M  V30 436 C 43.8119 1.6473 1.61656 0
M  V30 437 C 44.7819 0.488984 1.58739 0
M  V30 438 O 45.9669 0.714478 1.76918 0
M  V30 439 C 43.1069 1.7082 2.99858 0
M  V30 440 C 42.2199 2.9787 3.12885 0
M  V30 441 C 41.3549 2.95017 4.41744 0
M  V30 442 C 40.3939 4.16702 4.48359 0
M  V30 443 N 39.5309 4.11832 5.68629 0
M  V30 444 H 44.3709 2.58909 1.47547 0
M  V30 445 H 41.9079 1.28382 0.71808 0
M  V30 446 H 43.8659 1.72331 3.79944 0
M  V30 447 H 42.4959 0.801181 3.12699 0
M  V30 448 H 41.5479 3.06029 2.25944 0
M  V30 449 H 42.8599 3.8786 3.13633 0
M  V30 450 H 42.0139 2.95021 5.30139 0
M  V30 451 H 40.7529 2.02784 4.43542 0
M  V30 452 H 39.7579 4.16955 3.58369 0
M  V30 453 H 40.9829 5.10113 4.48287 0
M  V30 454 H 38.9289 3.22428 5.71293 0
M  V30 455 H 38.8459 4.95543 5.7094 0
M  V30 456 H 40.1139 4.1592 6.59266 0
M  V30 457 N 44.343 -0.763751 1.37857 0
M  V30 458 C 45.306 -1.85889 1.34081 0
M  V30 459 C 46.306 -1.58949 0.243277 0
M  V30 460 O 47.496 -1.66882 0.499589 0
M  V30 461 C 44.628 -3.23176 1.08489 0
M  V30 462 H 45.821 -1.90648 2.31502 0
M  V30 463 H 43.374 -0.964367 1.23003 0
M  V30 464 H 44.109 -3.24091 0.116318 0
M  V30 465 H 43.894 -3.44124 1.8794 0
M  V30 466 H 45.384 -4.03254 1.08517 0
M  V30 467 N 45.8211 -1.22559 -0.990812 0
M  V30 468 C 46.7681 -0.997519 -2.0813 0
M  V30 469 C 47.7381 0.0814702 -1.659 0
M  V30 470 O 48.9231 -0.0685424 -1.90677 0
M  V30 471 C 46.0631 -0.583615 -3.40129 0
M  V30 472 C 45.1761 -1.7336 -3.9569 0
M  V30 473 C 44.3111 -1.26748 -5.15857 0
M  V30 474 C 43.3501 -2.38888 -5.63559 0
M  V30 475 N 42.4871 -1.93308 -6.74964 0
M  V30 476 H 47.3271 -1.93099 -2.26973 0
M  V30 477 H 44.8641 -0.962114 -1.11273 0
M  V30 478 H 46.8221 -0.324801 -4.15934 0
M  V30 479 H 45.4521 0.312845 -3.2128 0
M  V30 480 H 44.5041 -2.10669 -3.16738 0
M  V30 481 H 45.8161 -2.57704 -4.27071 0
M  V30 482 H 44.9701 -0.966173 -5.98957 0
M  V30 483 H 43.7091 -0.394272 -4.86104 0
M  V30 484 H 42.7141 -2.69805 -4.79046 0
M  V30 485 H 43.9391 -3.26728 -5.95336 0
M  V30 486 H 41.8851 -1.08352 -6.4699 0
M  V30 487 H 41.8021 -2.71217 -7.05675 0
M  V30 488 H 43.0701 -1.66252 -7.61564 0
M  V30 489 N 47.2992 1.18797 -1.03562 0
M  V30 490 C 48.5392 1.90346 -0.744832 0
M  V30 491 C 48.9032 1.78231 0.713972 0
M  V30 492 O 50.1042 2.44441 1.11813 0
M  V30 493 C 48.3752 3.36942 -1.19184 0
M  V30 494 S 49.9342 4.26638 -1.02593 0
M  V30 495 H 46.7522 0.657343 -0.270963 0
M  V30 496 H 49.3542 1.43579 -1.32685 0
M  V30 497 H 48.0582 3.43287 -2.24905 0
M  V30 498 H 47.5892 3.88745 -0.603397 0
M  V30 499 H 49.6042 4.96164 0.0596033 0
M  V30 500 N 48.7773 0.814389 1.34928 0
M  V30 501 C 49.6873 0.231978 2.3345 0
M  V30 502 C 50.7033 -0.629139 1.62228 0
M  V30 503 O 51.8793 -0.539052 1.94052 0
M  V30 504 C 48.9443 -0.603482 3.41407 0
M  V30 505 C 48.0053 0.279037 4.28392 0
M  V30 506 C 47.2383 -0.516643 5.31193 0
M  V30 507 O 47.4613 -1.75068 5.4287 0
M  V30 508 O 46.3953 0.0965652 6.01823 0
M  V30 509 H 50.2213 1.04721 2.85074 0
M  V30 510 H 47.8063 0.576343 1.37836 0
M  V30 511 H 49.6883 -1.07908 4.0735 0
M  V30 512 H 48.3633 -1.39618 2.92042 0
M  V30 513 H 47.2703 0.801948 3.65403 0
M  V30 514 H 48.6033 1.03588 4.81176 0
M  V30 515 N 50.2554 -1.46986 0.568584 0
M  V30 516 C 51.6664 -1.86188 0.138219 0
M  V30 517 C 52.0174 -1.47388 -1.29504 0
M  V30 518 O 51.1424 -0.88219 -1.97602 0
M  V30 519 C 51.7374 -3.3792 0.244065 0
M  V30 520 C 50.2964 -3.76171 -0.131335 0
M  V30 521 C 49.4434 -2.71027 0.586465 0
M  V30 522 H 52.3944 -1.38342 0.777645 0
M  V30 523 H 52.4154 -3.76729 -0.534351 0
M  V30 524 H 51.9274 -3.66128 1.28731 0
M  V30 525 H 50.0284 -3.5358 -1.17526 0
M  V30 526 H 50.1414 -4.78523 0.235146 0
M  V30 527 H 48.5054 -2.54684 0.0282722 0
M  V30 528 H 49.2884 -3.02077 1.63109 0
M  V30 529 N 51.7335 -0.305618 -1.54608 0
M  V30 530 C 52.9585 0.307562 -2.05107 0
M  V30 531 C 53.3835 1.46385 -1.18123 0
M  V30 532 O 52.7415 1.8034 -0.186324 0
M  V30 533 C 52.7895 0.73704 -3.52987 0
M  V30 534 O 51.8935 1.84134 -3.6901 0
M  V30 535 H 51.2345 0.0589143 -0.661381 0
M  V30 536 H 53.7645 -0.448807 -1.99617 0
M  V30 537 H 53.7745 1.02459 -3.94925 0
M  V30 538 H 52.4495 -0.108773 -4.15758 0
M  V30 539 H 51.0265 1.55398 -3.38978 0
M  V30 540 N 53.2116 1.57565 -0.0334293 0
M  V30 541 C 54.1436 2.0739 0.975811 0
M  V30 542 C 55.1566 0.998166 1.2861 0
M  V30 543 O 56.3456 1.27426 1.25 0
M  V30 544 C 53.4456 2.4871 2.30209 0
M  V30 545 C 52.6186 3.79413 2.17634 0
M  V30 546 C 51.6776 4.07237 3.33233 0
M  V30 547 O 50.7036 4.77425 3.09927 0
M  V30 548 N 51.9056 3.5775 4.5716 0
M  V30 549 H 54.6706 2.94598 0.55066 0
M  V30 550 H 52.2316 1.61173 0.15323 0
M  V30 551 H 54.2236 2.64413 3.06378 0
M  V30 552 H 52.7936 1.66845 2.64351 0
M  V30 553 H 52.0136 3.73465 1.26165 0
M  V30 554 H 53.3016 4.65038 2.0644 0
M  V30 555 H 52.6996 3.00976 4.78989 0
M  V30 556 H 51.2566 3.78724 5.30482 0
M  V30 557 N 54.6897 -0.239769 1.55765 0
M  V30 558 C 55.9367 -0.966801 1.7793 0
M  V30 559 C 56.2647 -1.85046 0.599015 0
M  V30 560 O 55.5197 -1.91197 -0.417395 0
M  V30 561 C 55.8187 -1.852 3.05672 0
M  V30 562 C 55.4847 -1.1231 4.36689 0
M  V30 563 C 54.1467 -0.921689 4.72291 0
M  V30 564 C 56.4987 -0.607019 5.17653 0
M  V30 565 C 53.8267 -0.191996 5.86386 0
M  V30 566 C 56.1787 0.109241 6.32506 0
M  V30 567 C 54.8427 0.322073 6.66723 0
M  V30 568 H 54.1127 -0.353778 0.651093 0
M  V30 569 H 56.7597 -0.23634 1.90036 0
M  V30 570 H 55.0647 -2.64975 2.8861 0
M  V30 571 H 56.7617 -2.41635 3.20021 0
M  V30 572 H 53.3517 -1.29004 4.08725 0
M  V30 573 H 57.5357 -0.750153 4.90598 0
M  V30 574 H 52.7917 -0.0166949 6.11398 0
M  V30 575 H 56.9657 0.516737 6.9448 0
M  V30 576 H 54.5927 0.88944 7.54979 0
M  V30 577 N 56.1678 -1.49265 -0.50573 0
M  V30 578 C 57.0998 -1.617 -1.62437 0
M  V30 579 C 58.1128 -0.499924 -1.54934 0
M  V30 580 O 59.3018 -0.771785 -1.60953 0
M  V30 581 C 56.4018 -1.5533 -3.01207 0
M  V30 582 C 55.5748 -2.8249 -3.33943 0
M  V30 583 C 54.6338 -2.69238 -4.52103 0
M  V30 584 O 53.6598 -3.43167 -4.5412 0
M  V30 585 N 54.8618 -1.80468 -5.51735 0
M  V30 586 H 57.6268 -2.58177 -1.52199 0
M  V30 587 H 55.1878 -1.46294 -0.693511 0
M  V30 588 H 57.1798 -1.44125 -3.78167 0
M  V30 589 H 55.7498 -0.667297 -3.05395 0
M  V30 590 H 54.9698 -3.08081 -2.45926 0
M  V30 591 H 56.2578 -3.66802 -3.5261 0
M  V30 592 H 55.6558 -1.19653 -5.52901 0
M  V30 593 H 54.2128 -1.75188 -6.27816 0
M  V30 594 N 57.6459 0.756429 -1.3826 0
M  V30 595 C 58.8859 1.52833 -1.35725 0
M  V30 596 C 59.2499 1.91926 0.0534106 0
M  V30 597 O 60.4509 2.68028 0.203613 0
M  V30 598 C 58.7219 2.74919 -2.28373 0
M  V30 599 S 60.2809 3.64817 -2.43832 0
M  V30 600 H 57.0989 0.523043 -0.481608 0
M  V30 601 H 59.7009 0.888212 -1.74158 0
M  V30 602 H 58.4049 2.44304 -3.29763 0
M  V30 603 H 57.9359 3.43878 -1.91079 0
M  V30 604 H 59.9509 4.676 -1.66027 0
M  V30 605 N 59.124 1.23083 0.984299 0
M  V30 606 C 60.352 1.08714 1.76037 0
M  V30 607 C 60.767 -0.361691 1.85303 0
M  V30 608 O 60.124 -1.25034 1.32939 0
M  V30 609 C 60.175 1.70206 3.18923 0
M  V30 610 O 59.896 3.09423 3.10144 0
M  V30 611 C 61.397 1.61227 4.12941 0
M  V30 612 H 58.617 0.380664 0.552572 0
M  V30 613 H 61.161 1.62853 1.23689 0
M  V30 614 H 59.316 1.20109 3.6831 0
M  V30 615 H 59.73 3.39188 4.00065 0
M  V30 616 H 61.204 2.08962 5.10919 0
M  V30 617 H 61.681 0.570375 4.35481 0
M  V30 618 H 62.287 2.10671 3.69456 0
M  V30 619 N 60.6021 -1.18246 1.0419 0
M  V30 620 C 61.5501 -2.23968 0.627792 0
M  V30 621 C 62.5441 -1.65828 -0.346019 0
M  V30 622 O 63.7501 -1.78733 -0.213175 0
M  V30 623 H 60.1251 -0.728939 0.184802 0
M  V30 624 H 62.0961 -2.56202 1.52981 0
M  V30 625 C 60.8451 -3.47699 0.00796591 0
M  V30 626 H 60.1681 -3.92734 0.748347 0
M  V30 627 H 61.6081 -4.23294 -0.24455 0
M  V30 628 C 60.0671 -3.13153 -1.24246 0
M  V30 629 O 60.5971 -3.27003 -2.33307 0
M  V30 630 N 58.8031 -2.67467 -1.13622 0
M  V30 631 H 58.3501 -2.56396 -0.248734 0
M  V30 632 H 58.3081 -2.44724 -1.97377 0
M  V30 633 N 62.0802 -0.821533 -1.34494 0
M  V30 634 C 63.3282 -0.408139 -1.97936 0
M  V30 635 C 63.6492 1.03193 -1.65457 0
M  V30 636 O 62.9192 1.71622 -0.944595 0
M  V30 637 H 61.4992 -0.147928 -0.732206 0
M  V30 638 H 64.1612 -1.05067 -1.64155 0
M  V30 639 H 63.2572 -0.52601 -3.07635 0
M  V30 640 N 63.5583 1.46682 -0.576371 0
M  V30 641 C 64.9743 1.57822 -0.237562 0
M  V30 642 C 65.1743 1.57237 1.26011 0
M  V30 643 O 64.2303 1.48596 2.04146 0
M  V30 644 C 65.5433 2.87499 -0.881168 0
M  V30 645 C 67.0913 3.01119 -0.85417 0
M  V30 646 C 67.5663 4.33524 -1.4772 0
M  V30 647 N 69.0573 4.40207 -1.44125 0
M  V30 648 C 69.7923 5.4126 -1.89276 0
M  V30 649 N 69.2883 6.49021 -2.42371 0
M  V30 650 N 71.0813 5.32422 -1.80231 0
M  V30 651 H 63.2323 1.45306 -1.54919 0
M  V30 652 H 65.4953 0.692733 -0.647167 0
M  V30 653 H 65.2013 2.9372 -1.93447 0
M  V30 654 H 65.0753 3.75224 -0.385592 0
M  V30 655 H 67.4623 2.94485 0.190491 0
M  V30 656 H 67.5433 2.14887 -1.3877 0
M  V30 657 H 67.1873 4.40916 -2.52103 0
M  V30 658 H 67.1173 5.1852 -0.918947 0
M  V30 659 H 69.6083 3.62931 -1.05307 0
M  V30 660 H 69.9213 7.2233 -2.74698 0
M  V30 661 H 68.2663 6.49858 -2.46393 0
M  V30 662 H 71.4573 4.47137 -1.38514 0
M  V30 663 H 71.6303 6.11034 -2.15735 0
M  V30 664 N 65.0364 0.313813 1.54444 0
M  V30 665 C 66.2764 -0.292389 2.02298 0
M  V30 666 C 66.6404 -1.50105 1.19719 0
M  V30 667 O 67.8414 -2.17947 1.5733 0
M  V30 668 C 66.1124 -0.627682 3.51845 0
M  V30 669 S 67.6714 -1.21493 4.21646 0
M  V30 670 H 64.4894 -0.0890247 0.705405 0
M  V30 671 H 67.0914 0.444668 1.90376 0
M  V30 672 H 65.7954 0.260265 4.09574 0
M  V30 673 H 65.3264 -1.39519 3.67829 0
M  V30 674 H 67.3414 -2.5022 4.28491 0
M  V30 675 N 66.5145 -1.57545 0.0417849 0
M  V30 676 C 67.7635 -1.91494 -0.633492 0
M  V30 677 C 68.0765 -0.921084 -1.72556 0
M  V30 678 O 69.2825 -1.15228 -2.45835 0
M  V30 679 C 67.7385 -3.40072 -1.17808 0
M  V30 680 C 67.3465 -4.47843 -0.118633 0
M  V30 681 C 69.0905 -3.8307 -1.82915 0
M  V30 682 C 66.9975 -5.87529 -0.675578 0
M  V30 683 H 65.9275 -0.714653 -0.24039 0
M  V30 684 H 68.5785 -1.83175 0.109148 0
M  V30 685 H 66.9605 -3.43364 -1.97274 0
M  V30 686 H 68.1345 -4.56128 0.654494 0
M  V30 687 H 66.4495 -4.14128 0.434414 0
M  V30 688 H 69.0465 -4.84794 -2.25563 0
M  V30 689 H 69.3895 -3.1881 -2.67705 0
M  V30 690 H 69.9225 -3.82255 -1.10119 0
M  V30 691 H 66.6615 -6.55362 0.134475 0
M  V30 692 H 66.1815 -5.82824 -1.4169 0
M  V30 693 H 67.8605 -6.36491 -1.1614 0
M  V30 694 N 67.9926 0.231505 -1.5589 0
M  V30 695 C 69.2206 0.974505 -1.82513 0
M  V30 696 C 69.6356 1.78344 -0.619591 0
M  V30 697 O 68.9926 1.77792 0.411848 0
M  V30 698 C 69.0436 1.90007 -3.07538 0
M  V30 699 O 68.7646 1.12385 -4.2344 0
M  V30 700 C 70.2656 2.75779 -3.47075 0
M  V30 701 H 67.4856 0.286065 -0.606966 0
M  V30 702 H 70.0296 0.249739 -2.02969 0
M  V30 703 H 68.1846 2.57891 -2.89086 0
M  V30 704 H 68.5986 1.75125 -4.944 0
M  V30 705 H 70.0726 3.36443 -4.37619 0
M  V30 706 H 70.5496 3.47672 -2.68367 0
M  V30 707 H 71.1556 2.13323 -3.67931 0
M  V30 708 N 69.4707 1.49531 0.497807 0
M  V30 709 C 70.4007 1.6935 1.60757 0
M  V30 710 C 71.3817 0.542218 1.61227 0
M  V30 711 O 72.5667 0.778417 1.77917 0
M  V30 712 C 69.6967 1.76298 2.99226 0
M  V30 713 C 68.6507 2.91248 3.13622 0
M  V30 714 C 67.9767 2.83312 4.53474 0
M  V30 715 C 69.2767 4.3214 2.93346 0
M  V30 716 H 70.9707 2.62263 1.44425 0
M  V30 717 H 68.5167 1.26208 0.693367 0
M  V30 718 H 70.4697 1.88749 3.76765 0
M  V30 719 H 69.1937 0.799871 3.16654 0
M  V30 720 H 67.8527 2.78404 2.38509 0
M  V30 721 H 67.5007 1.84902 4.67782 0
M  V30 722 H 67.2007 3.60465 4.64046 0
M  V30 723 H 68.7247 2.97775 5.33069 0
M  V30 724 H 70.1387 4.45649 3.60652 0
M  V30 725 H 68.5357 5.1054 3.15387 0
M  V30 726 H 69.6057 4.46363 1.89441 0
M  V30 727 N 70.9488 -0.749086 1.3866 0
M  V30 728 C 71.8788 -1.8764 1.38973 0
M  V30 729 C 72.8598 -1.68178 0.255004 0
M  V30 730 O 74.0448 -1.88704 0.458754 0
M  V30 731 C 71.1748 -3.25222 1.21851 0
M  V30 732 C 70.1288 -3.59295 2.32575 0
M  V30 733 C 69.4548 -4.95663 2.00555 0
M  V30 734 C 70.7548 -3.63709 3.7485 0
M  V30 735 H 72.4488 -1.87635 2.3331 0
M  V30 736 H 69.9948 -0.901329 1.12303 0
M  V30 737 H 71.9478 -4.03746 1.20695 0
M  V30 738 H 70.6718 -3.25719 0.239775 0
M  V30 739 H 69.3308 -2.83093 2.32925 0
M  V30 740 H 68.9788 -4.92724 1.01154 0
M  V30 741 H 68.6788 -5.19429 2.74714 0
M  V30 742 H 70.2028 -5.7656 2.01024 0
M  V30 743 H 71.6168 -4.32338 3.76506 0
M  V30 744 H 70.0138 -3.98986 4.48252 0
M  V30 745 H 71.0838 -2.63834 4.06841 0
M  V30 746 N 72.4269 -1.23603 -0.977757 0
M  V30 747 C 73.6729 -1.08136 -1.72274 0
M  V30 748 C 74.0279 0.377453 -1.88661 0
M  V30 749 O 73.3209 1.27552 -1.42972 0
M  V30 750 C 73.5149 -1.7433 -3.11999 0
M  V30 751 C 73.3439 -3.26498 -3.0924 0
M  V30 752 C 72.1139 -3.9567 -3.14282 0
M  V30 753 C 74.3119 -4.2323 -2.92201 0
M  V30 754 N 72.2939 -5.34799 -3.01436 0
M  V30 755 C 73.6649 -5.49289 -2.87544 0
M  V30 756 C 75.7199 -4.13931 -2.76705 0
M  V30 757 C 74.4229 -6.67116 -2.68978 0
M  V30 758 C 76.4489 -5.31424 -2.59504 0
M  V30 759 C 75.8109 -6.5641 -2.55548 0
M  V30 760 H 71.9099 -0.450247 -0.639376 0
M  V30 761 H 74.4939 -1.5637 -1.16002 0
M  V30 762 H 72.6649 -1.28624 -3.66484 0
M  V30 763 H 74.3969 -1.51815 -3.75146 0
M  V30 764 H 71.1519 -3.46767 -3.22567 0
M  V30 765 H 71.5759 -6.07748 -2.98281 0
M  V30 766 H 76.2179 -3.1807 -2.78552 0
M  V30 767 H 73.9359 -7.63109 -2.65876 0
M  V30 768 H 77.5219 -5.26072 -2.48474 0
M  V30 769 H 76.4019 -7.45795 -2.42405 0
M  V30 770 N 73.905 1.17692 -1.04816 0
M  V30 771 C 74.852 2.21581 -0.645797 0
M  V30 772 C 75.822 1.62367 0.350159 0
M  V30 773 O 77.007 1.89254 0.242433 0
M  V30 774 C 74.147 3.45092 -0.0227568 0
M  V30 775 C 73.26 4.18613 -1.06709 0
M  V30 776 C 72.395 5.29602 -0.411767 0
M  V30 777 C 71.434 5.94904 -1.44067 0
M  V30 778 N 70.571 6.97414 -0.809781 0
M  V30 779 H 75.411 2.55353 -1.5362 0
M  V30 780 H 72.948 1.25438 -0.768364 0
M  V30 781 H 74.906 4.15679 0.35588 0
M  V30 782 H 73.536 3.11917 0.831122 0
M  V30 783 H 72.588 3.46779 -1.5636 0
M  V30 784 H 73.9 4.63293 -1.84827 0
M  V30 785 H 73.054 6.06696 0.0206623 0
M  V30 786 H 71.793 4.86045 0.401438 0
M  V30 787 H 70.798 5.16544 -1.88316 0
M  V30 788 H 72.023 6.40542 -2.25571 0
M  V30 789 H 69.969 6.55998 -0.0170186 0
M  V30 790 H 69.886 7.40386 -1.52856 0
M  V30 791 H 71.154 7.78463 -0.401999 0
M  V30 792 N 75.3831 0.828654 1.34056 0
M  V30 793 C 76.6231 0.425394 1.99924 0
M  V30 794 C 76.9871 -0.994294 1.64249 0
M  V30 795 O 78.1881 -1.50074 2.23005 0
M  V30 796 C 76.4591 0.628071 3.51838 0
M  V30 797 S 78.0181 0.318511 4.37642 0
M  V30 798 H 74.8361 0.160465 0.692656 0
M  V30 799 H 77.4381 1.07572 1.63244 0
M  V30 800 H 76.1421 1.66089 3.7529 0
M  V30 801 H 75.6731 -0.0367799 3.93383 0
M  V30 802 H 77.6881 -0.865632 4.88591 0
M  V30 803 N 76.8612 -1.46375 0.584142 0
M  V30 804 C 78.1382 -1.956 0.0033388 0
M  V30 805 C 78.5182 -1.52679 -1.45782 0
M  V30 806 O 77.8662 -0.77816 -2.14842 0
M  V30 807 C 78.0762 -3.48551 0.176891 0
M  V30 808 C 79.4242 -4.24576 0.0454609 0
M  V30 809 O 80.4482 -3.56043 0.105801 0
M  V30 810 O 79.3072 -5.46427 -0.0890376 0
M  V30 811 H 76.4012 -0.825547 -0.0490066 0
M  V30 812 H 78.9472 -1.56652 0.65256 0
M  V30 813 H 77.7192 -3.72683 1.1926 0
M  V30 814 H 77.3422 -3.94332 -0.508695 0
M  V30 815 N 78.3393 -0.321999 -1.54275 0
M  V30 816 C 79.5873 0.280489 -2.00144 0
M  V30 817 C 79.9083 1.52777 -1.21178 0
M  V30 818 O 79.1783 1.9338 -0.313187 0
M  V30 819 H 77.7583 0.106632 -0.73935 0
M  V30 820 H 80.4203 -0.438184 -1.8991 0
M  V30 821 H 79.5163 0.537972 -3.07428 0
M  V30 822 N 79.8174 1.5752 -0.0501392 0
M  V30 823 C 81.0944 1.83996 0.663685 0
M  V30 824 C 81.4744 0.938339 1.89099 0
M  V30 825 O 80.8224 -0.00087759 2.285 0
M  V30 826 C 81.0324 3.33702 1.02196 0
M  V30 827 C 82.3804 4.00691 1.40469 0
M  V30 828 O 83.4044 3.38321 1.11433 0
M  V30 829 O 82.2634 5.10658 1.94654 0
M  V30 830 H 79.3574 0.759385 0.32751 0
M  V30 831 H 81.9034 1.69514 -0.0794238 0
M  V30 832 H 80.6754 3.91015 0.149364 0
M  V30 833 H 80.2984 3.53368 1.82255 0
M  V30 834 N 81.2955 -0.223234 1.56011 0
M  V30 835 C 82.2055 -1.29766 1.95443 0
M  V30 836 C 83.2215 -1.51373 0.858028 0
M  V30 837 O 84.3975 -1.64536 1.16146 0
M  V30 838 C 81.4625 -2.62772 2.26167 0
M  V30 839 C 80.5235 -2.49482 3.49367 0
M  V30 840 C 79.7565 -3.76145 3.78616 0
M  V30 841 O 79.9795 -4.79087 3.09568 0
M  V30 842 O 78.9135 -3.73358 4.72109 0
M  V30 843 H 82.7395 -0.99309 2.87004 0
M  V30 844 H 80.3245 -0.425958 1.43199 0
M  V30 845 H 82.2065 -3.41327 2.47131 0
M  V30 846 H 80.8815 -2.92913 1.37781 0
M  V30 847 H 79.7885 -1.69133 3.33684 0
M  V30 848 H 81.1215 -2.2428 4.38131 0
M  V30 849 N 82.7736 -1.49793 -0.48987 0
M  V30 850 C 84.0506 -1.50348 -1.25119 0
M  V30 851 C 84.4306 -0.237466 -2.0976 0
M  V30 852 O 83.7786 0.77981 -2.14782 0
M  V30 853 C 83.9886 -2.78872 -2.09837 0
M  V30 854 C 85.3366 -3.288 -2.68655 0
M  V30 855 O 86.3606 -2.80065 -2.20096 0
M  V30 856 O 85.2196 -4.13707 -3.57083 0
M  V30 857 H 82.3136 -0.602242 -0.566775 0
M  V30 858 H 84.8596 -1.62067 -0.503229 0
M  V30 859 H 83.6316 -3.62499 -1.47343 0
M  V30 860 H 83.2546 -2.70066 -2.91805 0
M  V30 861 N 84.2517 0.741722 -1.39055 0
M  V30 862 C 85.4917 1.51385 -1.37338 0
M  V30 863 C 85.8557 1.91972 0.0330513 0
M  V30 864 O 87.0567 2.68229 0.175174 0
M  V30 865 C 85.3277 2.72481 -2.31276 0
M  V30 866 S 86.8867 3.62211 -2.47687 0
M  V30 867 H 83.7047 0.517906 -0.487129 0
M  V30 868 H 86.3067 0.86969 -1.7509 0
M  V30 869 H 85.0107 2.40793 -3.32336 0
M  V30 870 H 84.5417 3.41832 -1.94716 0
M  V30 871 H 86.5567 4.65812 -1.70978 0
M  V30 872 N 85.7298 1.2412 0.971189 0
M  V30 873 C 86.9758 1.08041 1.71625 0
M  V30 874 C 87.3088 -0.380407 1.90438 0
M  V30 875 O 86.5838 -1.28127 1.46334 0
M  V30 876 C 86.8668 1.81682 3.10908 0
M  V30 877 C 86.7198 3.35493 2.99608 0
M  V30 878 C 88.0388 1.58671 4.10501 0
M  V30 879 H 85.1578 0.39388 0.622919 0
M  V30 880 H 87.7998 1.52743 1.13003 0
M  V30 881 H 85.9498 1.43684 3.60953 0
M  V30 882 H 87.6218 3.83068 2.57015 0
M  V30 883 H 85.8648 3.64052 2.35899 0
M  V30 884 H 86.5358 3.82217 3.98264 0
M  V30 885 H 89.0118 1.91719 3.69301 0
M  V30 886 H 87.8878 2.1266 5.06031 0
M  V30 887 H 88.1488 0.524161 4.38982 0
M  V30 888 N 87.2079 -1.17134 1.05439 0
M  V30 889 C 88.4849 -1.83411 0.679699 0
M  V30 890 C 88.8649 -1.9368 -0.839726 0
M  V30 891 O 88.2129 -1.47325 -1.74664 0
M  V30 892 C 88.4229 -3.20918 1.37159 0
M  V30 893 C 89.7709 -3.96796 1.51123 0
M  V30 894 O 90.7949 -3.30406 1.3308 0
M  V30 895 O 89.6539 -5.15778 1.80651 0
M  V30 896 H 86.7479 -0.79154 0.239569 0
M  V30 897 H 89.2939 -1.24411 1.15413 0
M  V30 898 H 88.0659 -3.08428 2.40807 0
M  V30 899 H 87.6889 -3.87587 0.886674 0
M  V30 900 N 88.686 -0.835752 -1.33615 0
M  V30 901 C 89.934 -0.429109 -1.97492 0
M  V30 902 C 90.255 1.01433 -1.66543 0
M  V30 903 O 89.525 1.70611 -0.962744 0
M  V30 904 H 88.105 -0.155686 -0.730596 0
M  V30 905 H 90.767 -1.06802 -1.63031 0
M  V30 906 H 89.863 -0.55861 -3.0706 0
M  V30 907 N 90.1641 1.46063 -0.591896 0
M  V30 908 C 91.3891 2.07226 -0.0850314 0
M  V30 909 C 91.8141 1.43625 1.21463 0
M  V30 910 O 91.1721 0.523305 1.73583 0
M  V30 911 C 91.2201 3.60554 0.0576567 0
M  V30 912 O 90.3241 3.97128 1.11188 0
M  V30 913 H 89.6651 0.660615 -0.0669568 0
M  V30 914 H 92.1951 1.8756 -0.81745 0
M  V30 915 H 92.2051 4.07165 0.2609 0
M  V30 916 H 90.8801 4.06235 -0.891416 0
M  V30 917 H 89.4571 3.62213 0.886356 0
M  V30 918 N 91.6422 0.330177 1.54103 0
M  V30 919 C 92.9192 -0.325007 1.92881 0
M  V30 920 C 93.2992 -1.6934 1.26045 0
M  V30 921 O 92.6472 -2.24855 0.406526 0
M  V30 922 C 92.8572 -0.410634 3.46576 0
M  V30 923 C 94.2052 -0.667801 4.19316 0
M  V30 924 O 95.2292 -0.49329 3.52768 0
M  V30 925 O 94.0882 -1.00491 5.37181 0
M  V30 926 H 91.1822 -0.186873 0.80561 0
M  V30 927 H 93.7282 0.380376 1.65382 0
M  V30 928 H 92.5002 0.550164 3.87413 0
M  V30 929 H 92.1232 -1.16333 3.802 0
M  V30 930 N 93.1203 -1.57491 0.0584922 0
M  V30 931 C 94.0303 -2.15448 -0.928414 0
M  V30 932 C 95.0463 -1.11416 -1.3365 0
M  V30 933 O 96.2223 -1.4362 -1.41193 0
M  V30 934 C 93.2873 -2.69393 -2.18239 0
M  V30 935 C 92.3483 -3.88249 -1.83196 0
M  V30 936 C 91.5813 -4.39613 -3.02616 0
M  V30 937 O 91.8043 -3.90023 -4.16219 0
M  V30 938 O 90.7383 -5.31111 -2.83204 0
M  V30 939 H 94.5643 -3.00112 -0.465483 0
M  V30 940 H 92.1493 -1.48499 -0.163826 0
M  V30 941 H 94.0313 -3.04026 -2.91798 0
M  V30 942 H 92.7063 -1.87796 -2.63656 0
M  V30 943 H 91.6133 -3.58492 -1.06931 0
M  V30 944 H 92.9463 -4.71098 -1.42573 0
M  V30 945 N 94.5984 0.214957 -1.56127 0
M  V30 946 C 95.5454 1.26642 -1.92952 0
M  V30 947 C 96.5154 1.46244 -0.78753 0
M  V30 948 O 97.7004 1.59704 -1.04399 0
M  V30 949 C 94.8404 2.6104 -2.25726 0
M  V30 950 C 93.9534 2.49183 -3.52891 0
M  V30 951 C 93.0884 3.76149 -3.7508 0
M  V30 952 C 92.1274 3.59041 -4.95738 0
M  V30 953 N 91.2644 4.77972 -5.14283 0
M  V30 954 H 96.1044 0.945384 -2.82607 0
M  V30 955 H 93.6414 0.455489 -1.3987 0
M  V30 956 H 95.5994 3.39313 -2.42739 0
M  V30 957 H 94.2294 2.91227 -1.39236 0
M  V30 958 H 93.2814 1.6231 -3.44034 0
M  V30 959 H 94.5934 2.32466 -4.41318 0
M  V30 960 H 93.7474 4.62865 -3.92226 0
M  V30 961 H 92.4864 3.95799 -2.84947 0
M  V30 962 H 91.4914 2.7071 -4.78535 0
M  V30 963 H 92.7164 3.40856 -5.87362 0
M  V30 964 H 90.6624 4.97923 -4.27093 0
M  V30 965 H 90.5794 4.64006 -5.96853 0
M  V30 966 H 91.8474 5.66096 -5.35869 0
M  V30 967 N 96.0765 1.50051 0.48192 0
M  V30 968 C 97.0245 1.68635 1.60203 0
M  V30 969 C 98.0185 0.552184 1.60148 0
M  V30 970 O 99.2245 0.732377 1.64427 0
M  V30 971 H 95.5995 0.532081 0.531407 0
M  V30 972 H 97.5705 2.62616 1.41688 0
M  V30 973 C 96.3195 1.78775 2.9822 0
M  V30 974 H 95.6425 2.6543 2.98976 0
M  V30 975 H 97.0825 1.95806 3.7608 0
M  V30 976 C 95.5415 0.536849 3.32595 0
M  V30 977 O 96.0715 -0.328897 4.00351 0
M  V30 978 N 94.2775 0.394091 2.87915 0
M  V30 979 H 93.8245 1.09962 2.32951 0
M  V30 980 H 93.7825 -0.441737 3.11281 0
M  V30 981 N 97.5546 -0.734337 1.39446 0
M  V30 982 C 98.7946 -1.50655 1.38139 0
M  V30 983 C 99.1586 -1.91986 -0.0228701 0
M  V30 984 O 100.36 -2.68318 -0.160947 0
M  V30 985 C 98.6306 -2.71251 2.32718 0
M  V30 986 S 100.19 -3.60892 2.49605 0
M  V30 987 H 97.0076 -0.515315 0.489869 0
M  V30 988 H 99.6096 -0.860392 1.75549 0
M  V30 989 H 98.3136 -2.39027 3.33608 0
M  V30 990 H 97.8446 -3.40795 1.96526 0
M  V30 991 H 99.8596 -4.64899 1.73446 0
M  V30 992 N 99.0327 -1.24633 -0.964593 0
M  V30 993 C 100.279 -1.08949 -1.71049 0
M  V30 994 C 100.612 0.370302 -1.90637 0
M  V30 995 O 99.8867 1.27349 -1.47011 0
M  V30 996 C 100.17 -1.83329 -3.0994 0
M  V30 997 C 100.023 -3.37077 -2.97824 0
M  V30 998 C 101.342 -1.60846 -4.09654 0
M  V30 999 H 98.4607 -0.397178 -0.620821 0
M  V30 1000 H 101.103 -1.5334 -1.12191 0
M  V30 1001 H 99.2527 -1.45597 -3.60186 0
M  V30 1002 H 100.925 -3.84425 -2.5498 0
M  V30 1003 H 99.1677 -3.65298 -2.33965 0
M  V30 1004 H 99.8387 -3.84324 -3.96231 0
M  V30 1005 H 102.315 -1.93674 -3.68279 0
M  V30 1006 H 101.191 -2.1534 -5.04896 0
M  V30 1007 H 101.452 -0.547434 -4.38698 0
M  V30 1008 N 100.511 1.16574 -1.06058 0
M  V30 1009 C 101.458 2.20883 -0.669263 0
M  V30 1010 C 102.428 1.62729 0.332918 0
M  V30 1011 O 103.613 1.895 0.222346 0
M  V30 1012 C 100.753 3.45049 -0.0593572 0
M  V30 1013 C 99.8658 4.17458 -1.11143 0
M  V30 1014 C 99.0008 5.29135 -0.467916 0
M  V30 1015 C 98.0398 5.93343 -1.50369 0
M  V30 1016 N 97.1768 6.96516 -0.883706 0
M  V30 1017 H 102.017 2.53709 -1.5632 0
M  V30 1018 H 99.5538 1.24616 -0.781625 0
M  V30 1019 H 101.512 4.16033 0.311771 0
M  V30 1020 H 100.142 3.12781 0.797992 0
M  V30 1021 H 99.1938 3.45101 -1.60029 0
M  V30 1022 H 100.506 4.61307 -1.89731 0
M  V30 1023 H 99.6598 6.06684 -0.0436871 0
M  V30 1024 H 98.3988 4.86443 0.349864 0
M  V30 1025 H 97.4038 5.14517 -1.93784 0
M  V30 1026 H 98.6288 6.38114 -2.32352 0
M  V30 1027 H 96.5748 6.55943 -0.086595 0
M  V30 1028 H 96.4918 7.38723 -1.607 0
M  V30 1029 H 97.7598 7.77993 -0.484543 0
M  V30 1030 N 101.989 0.842826 1.3317 0
M  V30 1031 C 102.936 0.276885 2.29133 0
M  V30 1032 C 103.906 -0.609527 1.54512 0
M  V30 1033 O 105.091 -0.546955 1.82792 0
M  V30 1034 C 102.231 -0.538707 3.40869 0
M  V30 1035 C 101.344 0.372169 4.30394 0
M  V30 1036 C 100.479 -0.454908 5.29249 0
M  V30 1037 C 99.5179 0.45411 6.10413 0
M  V30 1038 N 98.6549 -0.335075 7.013 0
M  V30 1039 H 103.495 1.10052 2.76934 0
M  V30 1040 H 101.032 0.554161 1.36262 0
M  V30 1041 H 102.99 -1.02709 4.0436 0
M  V30 1042 H 101.62 -1.32727 2.9425 0
M  V30 1043 H 100.672 0.97888 3.6759 0
M  V30 1044 H 101.984 1.0703 4.87182 0
M  V30 1045 H 101.138 -1.00695 5.98285 0
M  V30 1046 H 99.8769 -1.18646 4.73048 0
M  V30 1047 H 98.8819 1.01813 5.40291 0
M  V30 1048 H 100.107 1.18409 6.68697 0
M  V30 1049 H 98.0529 -1.04994 6.47543 0
M  V30 1050 H 97.9699 0.304262 7.55387 0
M  V30 1051 H 99.2379 -0.869224 7.74638 0
M  V30 1052 N 103.467 -1.45747 0.599634 0
M  V30 1053 C 104.695 -2.06668 0.0978551 0
M  V30 1054 C 105.11 -1.44562 -1.21439 0
M  V30 1055 O 104.467 -0.556923 -1.73795 0
M  V30 1056 C 104.518 -3.61456 -0.0567044 0
M  V30 1057 O 104.239 -4.21242 1.20361 0
M  V30 1058 C 105.74 -4.39345 -0.590869 0
M  V30 1059 H 102.96 -0.667825 0.0651943 0
M  V30 1060 H 105.504 -1.87115 0.82511 0
M  V30 1061 H 103.659 -3.80378 -0.734251 0
M  V30 1062 H 104.073 -5.14323 1.02821 0
M  V30 1063 H 105.547 -5.48182 -0.648131 0
M  V30 1064 H 106.024 -4.08568 -1.61147 0
M  V30 1065 H 106.63 -4.25268 0.0523679 0
M  V30 1066 N 104.945 -0.338344 -1.53925 0
M  V30 1067 C 106.185 0.260168 -2.02737 0
M  V30 1068 C 106.549 1.48181 -1.22092 0
M  V30 1069 O 107.75 2.15416 -1.60777 0
M  V30 1070 C 106.021 0.571627 -3.52799 0
M  V30 1071 S 107.58 1.14769 -4.23525 0
M  V30 1072 H 104.398 0.077791 -0.706732 0
M  V30 1073 H 107 -0.474899 -1.89644 0
M  V30 1074 H 105.704 -0.325392 -4.09108 0
M  V30 1075 H 105.235 1.3365 -3.70002 0
M  V30 1076 H 107.25 2.43372 -4.32417 0
M  V30 1077 N 106.423 1.57458 -0.0668435 0
M  V30 1078 C 107.386 2.11323 0.887422 0
M  V30 1079 C 108.386 1.03618 1.22964 0
M  V30 1080 O 109.576 1.29626 1.16373 0
M  V30 1081 C 106.708 2.61048 2.19242 0
M  V30 1082 H 107.901 2.96942 0.420194 0
M  V30 1083 H 105.454 1.55239 0.181793 0
M  V30 1084 H 106.189 1.78868 2.70512 0
M  V30 1085 H 105.974 3.39769 1.95702 0
M  V30 1086 H 107.464 3.02814 2.87565 0
M  V30 1087 N 107.901 -0.206675 1.56239 0
M  V30 1088 C 108.811 -1.27686 1.96808 0
M  V30 1089 C 109.827 -1.50455 0.874035 0
M  V30 1090 O 111.003 -1.63295 1.17884 0
M  V30 1091 C 108.068 -2.60358 2.28942 0
M  V30 1092 C 107.129 -2.45762 3.51994 0
M  V30 1093 C 106.362 -3.72108 3.82585 0
M  V30 1094 O 106.585 -4.75776 3.14631 0
M  V30 1095 O 105.519 -3.6833 4.76043 0
M  V30 1096 H 109.345 -0.962593 2.88041 0
M  V30 1097 H 106.93 -0.410746 1.43643 0
M  V30 1098 H 108.812 -3.38687 2.50737 0
M  V30 1099 H 107.487 -2.91435 1.4088 0
M  V30 1100 H 106.394 -1.65584 3.35459 0
M  V30 1101 H 107.727 -2.19621 4.40486 0
M  V30 1102 N 109.379 -1.50304 -0.473955 0
M  V30 1103 C 110.604 -1.65175 -1.25427 0
M  V30 1104 C 111.029 -0.333673 -1.85117 0
M  V30 1105 O 110.387 0.702114 -1.67153 0
M  V30 1106 C 110.435 -2.74295 -2.34082 0
M  V30 1107 O 109.539 -2.35349 -3.38651 0
M  V30 1108 H 108.88 -0.551944 -0.369126 0
M  V30 1109 H 111.41 -1.96662 -0.564364 0
M  V30 1110 H 111.42 -2.97285 -2.79438 0
M  V30 1111 H 110.095 -3.69959 -1.90008 0
M  V30 1112 H 108.672 -2.22794 -2.99027 0
M  V30 1113 N 110.857 0.726932 -1.39834 0
M  V30 1114 C 112.134 1.47902 -1.28001 0
M  V30 1115 C 112.514 2.1083 0.106789 0
M  V30 1116 O 111.862 1.99242 1.11869 0
M  V30 1117 C 112.072 2.52392 -2.41038 0
M  V30 1118 C 113.42 3.18546 -2.80737 0
M  V30 1119 O 114.444 2.62708 -2.40547 0
M  V30 1120 O 113.303 4.19604 -3.50135 0
M  V30 1121 H 110.397 0.657163 -0.502062 0
M  V30 1122 H 112.943 0.760071 -1.51727 0
M  V30 1123 H 111.715 2.04329 -3.33715 0
M  V30 1124 H 111.338 3.31837 -2.19021 0
M  V30 1125 N 112.336 1.25143 0.95797 0
M  V30 1126 C 113.583 1.09692 1.70217 0
M  V30 1127 C 113.911 -0.362654 1.91089 0
M  V30 1128 O 113.166 -1.28386 1.47701 0
M  V30 1129 C 113.465 1.79272 3.09187 0
M  V30 1130 C 113.131 3.29196 3.08125 0
M  V30 1131 C 111.793 3.70096 3.07543 0
M  V30 1132 C 114.145 4.24995 3.0171 0
M  V30 1133 C 111.473 5.05213 2.9829 0
M  V30 1134 C 113.825 5.60132 2.93999 0
M  V30 1135 C 112.489 6.00365 2.9175 0
M  V30 1136 H 111.759 0.401393 0.622868 0
M  V30 1137 H 114.406 1.55372 1.11945 0
M  V30 1138 H 112.711 1.26014 3.70982 0
M  V30 1139 H 114.408 1.64773 3.65583 0
M  V30 1140 H 110.998 2.96651 3.09348 0
M  V30 1141 H 115.182 3.9439 3.01281 0
M  V30 1142 H 110.438 5.35569 2.94916 0
M  V30 1143 H 114.612 6.3406 2.87996 0
M  V30 1144 H 112.239 7.05023 2.84336 0
M  V30 1145 N 113.814 -1.1601 1.06675 0
M  V30 1146 C 115.06 -1.86909 0.786945 0
M  V30 1147 C 115.393 -1.81717 -0.685018 0
M  V30 1148 O 114.668 -1.23551 -1.50218 0
M  V30 1149 C 114.951 -3.36313 1.28707 0
M  V30 1150 C 114.804 -3.50175 2.82308 0
M  V30 1151 C 116.123 -4.3084 0.898071 0
M  V30 1152 H 113.242 -0.678677 0.287343 0
M  V30 1153 H 115.884 -1.36336 1.32334 0
M  V30 1154 H 114.034 -3.79513 0.830768 0
M  V30 1155 H 115.706 -3.15886 3.36175 0
M  V30 1156 H 113.949 -2.91959 3.20847 0
M  V30 1157 H 114.62 -4.55116 3.12368 0
M  V30 1158 H 117.096 -3.95561 1.29114 0
M  V30 1159 H 115.972 -5.33876 1.27543 0
M  V30 1160 H 116.233 -4.41662 -0.196651 0
M  V30 1161 N 115.292 -0.849877 -1.32721 0
M  V30 1162 C 116.532 -0.457146 -1.99222 0
M  V30 1163 C 116.896 0.968038 -1.6581 0
M  V30 1164 O 118.097 1.46507 -2.25364 0
M  V30 1165 C 116.368 -0.683966 -3.50794 0
M  V30 1166 S 117.927 -0.388095 -4.3708 0
M  V30 1167 H 114.745 -0.171464 -0.690015 0
M  V30 1168 H 117.347 -1.10155 -1.61512 0
M  V30 1169 H 116.051 -1.72038 -3.726 0
M  V30 1170 H 115.582 -0.0258086 -3.93392 0
M  V30 1171 H 117.597 0.787791 -4.89906 0
M  V30 1172 N 116.77 1.45427 -0.607355 0
M  V30 1173 C 117.718 2.32269 0.12411 0
M  V30 1174 C 118.712 1.45955 0.859854 0
M  V30 1175 O 119.918 1.6244 0.775447 0
M  V30 1176 H 116.293 0.749691 0.0588839 0
M  V30 1177 H 118.264 2.91743 -0.626762 0
M  V30 1178 C 117.013 3.29567 1.1082 0
M  V30 1179 H 116.336 3.95978 0.551492 0
M  V30 1180 H 117.776 3.93061 1.58995 0
M  V30 1181 C 116.235 2.56722 2.18164 0
M  V30 1182 O 116.765 2.34842 3.25902 0
M  V30 1183 N 114.971 2.16861 1.93442 0
M  V30 1184 H 114.518 2.34855 1.05834 0
M  V30 1185 H 114.476 1.68444 2.65469 0
M  V30 1186 N 118.248 0.346503 1.53744 0
M  V30 1187 C 119.196 -0.52422 2.26616 0
M  V30 1188 C 120.19 -1.09948 1.28871 0
M  V30 1189 O 121.396 -1.04488 1.46568 0
M  V30 1190 H 117.771 -0.187743 0.728187 0
M  V30 1191 H 119.742 0.11239 2.98188 0
M  V30 1192 C 118.491 -1.66186 3.05414 0
M  V30 1193 H 117.814 -1.22848 3.80458 0
M  V30 1194 H 119.254 -2.24622 3.59612 0
M  V30 1195 C 117.713 -2.59302 2.1509 0
M  V30 1196 O 118.243 -3.61628 1.74895 0
M  V30 1197 N 116.449 -2.28055 1.8011 0
M  V30 1198 H 115.996 -1.44883 2.12994 0
M  V30 1199 H 115.954 -2.90615 1.19958 0
M  V30 1200 N 119.726 -1.57421 0.075193 0
M  V30 1201 C 120.974 -1.93236 -0.591974 0
M  V30 1202 C 121.295 -0.956241 -1.69944 0
M  V30 1203 O 120.565 -0.00494792 -1.95899 0
M  V30 1204 H 119.145 -0.713355 -0.22166 0
M  V30 1205 H 121.807 -1.9444 0.133848 0
M  V30 1206 H 120.903 -2.95131 -1.01509 0
M  V30 1207 N 121.204 0.198386 -1.56346 0
M  V30 1208 C 122.136 1.26987 -1.90806 0
M  V30 1209 C 123.149 1.41877 -0.798419 0
M  V30 1210 O 124.338 1.42362 -1.07682 0
M  V30 1211 C 121.438 2.64246 -2.12196 0
M  V30 1212 C 120.611 2.71007 -3.43328 0
M  V30 1213 C 119.67 3.89439 -3.5387 0
M  V30 1214 O 118.696 3.76695 -4.26719 0
M  V30 1215 N 119.898 5.04752 -2.86715 0
M  V30 1216 H 122.663 0.977433 -2.83313 0
M  V30 1217 H 120.224 0.388322 -1.57174 0
M  V30 1218 H 122.216 3.41896 -2.1654 0
M  V30 1219 H 120.786 2.85992 -1.26204 0
M  V30 1220 H 120.006 1.79657 -3.50881 0
M  V30 1221 H 121.294 2.72512 -4.29668 0
M  V30 1222 H 120.692 5.18004 -2.2735 0
M  V30 1223 H 119.249 5.8036 -2.96691 0
M  V30 1224 N 122.682 1.50554 0.465978 0
M  V30 1225 C 123.922 1.63439 1.22747 0
M  V30 1226 C 124.286 0.329822 1.89146 0
M  V30 1227 O 125.487 0.334161 2.66715 0
M  V30 1228 C 123.758 2.78542 2.2394 0
M  V30 1229 S 125.317 3.11591 3.0896 0
M  V30 1230 H 122.135 0.576113 0.416672 0
M  V30 1231 H 124.737 1.88357 0.523641 0
M  V30 1232 H 123.441 3.71805 1.7375 0
M  V30 1233 H 122.972 2.55726 2.98944 0
M  V30 1234 H 124.987 2.55811 4.25176 0
M  V30 1235 N 124.16 -0.719506 1.40217 0
M  V30 1236 C 125.406 -1.48152 1.38488 0
M  V30 1237 C 125.739 -1.94195 -0.0141867 0
M  V30 1238 O 125.014 -1.67884 -0.982096 0
M  V30 1239 C 125.297 -2.71035 2.37091 0
M  V30 1240 C 125.15 -2.30912 3.86005 0
M  V30 1241 C 126.469 -3.73182 2.33288 0
M  V30 1242 H 123.588 -0.537395 0.504357 0
M  V30 1243 H 126.23 -0.821472 1.71324 0
M  V30 1244 H 124.38 -3.27352 2.0922 0
M  V30 1245 H 126.052 -1.80107 4.24687 0
M  V30 1246 H 124.295 -1.62958 4.02029 0
M  V30 1247 H 124.966 -3.18978 4.50508 0
M  V30 1248 H 127.442 -3.26485 2.57966 0
M  V30 1249 H 126.318 -4.56806 3.04334 0
M  V30 1250 H 126.579 -4.21202 1.34317 0
M  V30 1251 N 125.638 -1.25649 -0.95132 0
M  V30 1252 C 127.049 -1.09654 -1.51106 0
M  V30 1253 C 127.4 0.326615 -1.93462 0
M  V30 1254 O 126.525 1.21697 -1.78938 0
M  V30 1255 C 127.12 -1.98437 -2.74605 0
M  V30 1256 C 125.679 -1.86618 -3.2688 0
M  V30 1257 C 124.826 -1.9239 -1.99703 0
M  V30 1258 H 127.777 -1.38887 -0.767865 0
M  V30 1259 H 127.798 -1.5263 -3.48546 0
M  V30 1260 H 127.31 -3.02009 -2.43746 0
M  V30 1261 H 125.411 -0.859421 -3.62553 0
M  V30 1262 H 125.524 -2.71607 -3.94673 0
M  V30 1263 H 123.888 -1.36317 -2.15151 0
M  V30 1264 H 124.671 -2.97573 -1.71188 0
M  V30 1265 N 127.117 1.15442 -1.07289 0
M  V30 1266 C 128.342 1.90638 -0.816828 0
M  V30 1267 C 128.767 1.77445 0.624083 0
M  V30 1268 O 128.125 1.10671 1.43602 0
M  V30 1269 C 128.173 3.39008 -1.22906 0
M  V30 1270 O 127.277 4.10701 -0.373975 0
M  V30 1271 H 126.618 0.593555 -0.297638 0
M  V30 1272 H 129.148 1.46198 -1.43134 0
M  V30 1273 H 129.158 3.89801 -1.20497 0
M  V30 1274 H 127.833 3.47929 -2.27856 0
M  V30 1275 H 126.41 3.70046 -0.460499 0
M  V30 1276 N 128.595 0.856903 1.32268 0
M  V30 1277 C 130.011 0.547061 1.49931 0
M  V30 1278 C 130.211 -0.921781 1.7918 0
M  V30 1279 O 129.267 -1.70469 1.8627 0
M  V30 1280 C 130.58 1.43599 2.64196 0
M  V30 1281 C 132.128 1.43665 2.78081 0
M  V30 1282 C 132.603 2.31085 3.95428 0
M  V30 1283 N 134.094 2.28893 4.02694 0
M  V30 1284 C 134.829 2.93262 4.92732 0
M  V30 1285 N 134.325 3.66751 5.87763 0
M  V30 1286 N 136.118 2.82638 4.85873 0
M  V30 1287 H 128.269 1.8075 1.11549 0
M  V30 1288 H 130.532 0.772144 0.549997 0
M  V30 1289 H 130.238 2.48058 2.49319 0
M  V30 1290 H 130.112 1.12502 3.60032 0
M  V30 1291 H 132.499 0.399701 2.92381 0
M  V30 1292 H 132.58 1.7878 1.82952 0
M  V30 1293 H 132.224 3.34849 3.81888 0
M  V30 1294 H 132.154 1.93302 4.89839 0
M  V30 1295 H 134.645 1.75466 3.34694 0
M  V30 1296 H 134.958 4.13027 6.53168 0
M  V30 1297 H 133.303 3.70859 5.87783 0
M  V30 1298 H 136.494 2.24774 4.10602 0
M  V30 1299 H 136.667 3.33084 5.55841 0
M  V30 1300 N 130.073 -1.45103 0.615059 0
M  V30 1301 C 131.319 -2.03035 0.121804 0
M  V30 1302 C 131.674 -1.47393 -1.23665 0
M  V30 1303 O 130.967 -0.642061 -1.80522 0
M  V30 1304 C 131.161 -3.57386 0.0318797 0
M  V30 1305 C 130.99 -4.28 1.38007 0
M  V30 1306 C 129.76 -4.65624 1.9627 0
M  V30 1307 C 131.958 -4.5948 2.31047 0
M  V30 1308 N 129.94 -5.21132 3.24492 0
M  V30 1309 C 131.311 -5.159 3.43872 0
M  V30 1310 C 133.366 -4.41423 2.30326 0
M  V30 1311 C 132.069 -5.56165 4.5615 0
M  V30 1312 C 134.095 -4.82726 3.41658 0
M  V30 1313 C 133.457 -5.39245 4.53205 0
M  V30 1314 H 129.556 -0.77702 0.0881159 0
M  V30 1315 H 132.14 -1.76819 0.815044 0
M  V30 1316 H 130.311 -3.83247 -0.630599 0
M  V30 1317 H 132.043 -4.01976 -0.468721 0
M  V30 1318 H 128.798 -4.49421 1.49392 0
M  V30 1319 H 129.222 -5.53377 3.90004 0
M  V30 1320 H 133.864 -3.97033 1.45343 0
M  V30 1321 H 131.582 -5.99517 5.41854 0
M  V30 1322 H 135.168 -4.7048 3.42257 0
M  V30 1323 H 134.048 -5.70616 5.37929 0
M  V30 1324 N 131.551 -0.354651 -1.53558 0
M  V30 1325 C 132.498 0.496968 -2.25386 0
M  V30 1326 C 133.468 1.0865 -1.25636 0
M  V30 1327 O 134.653 1.12104 -1.54394 0
M  V30 1328 C 131.793 1.63637 -3.03837 0
M  V30 1329 C 130.906 1.07307 -4.18461 0
M  V30 1330 C 130.041 2.18068 -4.84376 0
M  V30 1331 C 129.08 1.59147 -5.91049 0
M  V30 1332 N 128.217 2.63695 -6.50699 0
M  V30 1333 H 133.057 -0.122075 -2.9775 0
M  V30 1334 H 130.594 -0.0720154 -1.46924 0
M  V30 1335 H 132.552 2.30734 -3.47589 0
M  V30 1336 H 131.182 2.22623 -2.33749 0
M  V30 1337 H 130.234 0.292708 -3.79272 0
M  V30 1338 H 131.546 0.602193 -4.95152 0
M  V30 1339 H 130.7 2.93007 -5.31255 0
M  V30 1340 H 129.439 2.68504 -4.07133 0
M  V30 1341 H 128.444 0.827175 -5.43542 0
M  V30 1342 H 129.669 1.09549 -6.70206 0
M  V30 1343 H 127.615 3.13365 -5.76315 0
M  V30 1344 H 127.532 2.21263 -7.22896 0
M  V30 1345 H 128.8 3.3837 -7.02229 0
M  V30 1346 N 133.029 1.57378 -0.0835403 0
M  V30 1347 C 134.269 1.95808 0.586381 0
M  V30 1348 C 134.633 0.963706 1.66062 0
M  V30 1349 O 135.834 1.23608 2.38693 0
M  V30 1350 C 134.105 3.38808 1.13771 0
M  V30 1351 S 135.664 3.99225 1.82112 0
M  V30 1352 H 132.482 0.684675 0.191679 0
M  V30 1353 H 135.084 1.94843 -0.160194 0
M  V30 1354 H 133.788 4.08954 0.344197 0
M  V30 1355 H 133.319 3.43344 1.92038 0
M  V30 1356 H 135.334 3.87087 3.10449 0
M  V30 1357 N 134.507 -0.190092 1.56449 0
M  V30 1358 C 135.784 -0.935886 1.71757 0
M  V30 1359 C 136.164 -2.01173 0.639726 0
M  V30 1360 O 135.512 -2.25827 -0.348502 0
M  V30 1361 C 135.722 -1.51775 3.1427 0
M  V30 1362 C 137.07 -1.99794 3.74656 0
M  V30 1363 O 138.094 -1.61607 3.1743 0
M  V30 1364 O 136.953 -2.70079 4.751 0
M  V30 1365 H 134.047 -0.439229 0.700719 0
M  V30 1366 H 136.593 -0.179395 1.68749 0
M  V30 1367 H 135.365 -0.742505 3.84191 0
M  V30 1368 H 134.988 -2.33894 3.21527 0
M  V30 1369 N 135.985 -1.50799 -0.457987 0
M  V30 1370 C 137.233 -1.62121 -1.2067 0
M  V30 1371 C 137.554 -0.329793 -1.92191 0
M  V30 1372 O 136.824 0.653409 -1.84682 0
M  V30 1373 H 135.404 -0.597441 -0.448411 0
M  V30 1374 H 138.066 -1.87637 -0.527096 0
M  V30 1375 H 137.162 -2.43882 -1.94751 0
M  V30 1376 N 137.463 0.71206 -1.40597 0
M  V30 1377 C 138.74 1.46536 -1.29563 0
M  V30 1378 C 139.12 2.10931 0.0844217 0
M  V30 1379 O 138.468 2.00418 1.0975 0
M  V30 1380 C 138.678 2.49821 -2.43701 0
M  V30 1381 C 140.026 3.15551 -2.841 0
M  V30 1382 O 141.05 2.60142 -2.4332 0
M  V30 1383 O 139.909 4.15867 -3.54566 0
M  V30 1384 H 137.003 0.651801 -0.509004 0
M  V30 1385 H 139.549 0.743935 -1.52524 0
M  V30 1386 H 138.321 2.00778 -3.35863 0
M  V30 1387 H 137.944 3.29495 -2.22528 0
M  V30 1388 N 138.941 1.26152 0.944643 0
M  V30 1389 C 140.352 1.10454 1.50522 0
M  V30 1390 C 140.703 -0.31635 1.93633 0
M  V30 1391 O 139.828 -1.20746 1.79581 0
M  V30 1392 C 140.423 1.99891 2.73549 0
M  V30 1393 C 138.982 1.88348 3.25886 0
M  V30 1394 C 138.129 1.93447 1.9868 0
M  V30 1395 H 141.08 1.39292 0.760489 0
M  V30 1396 H 141.101 1.54477 3.47732 0
M  V30 1397 H 140.613 3.03297 2.42141 0
M  V30 1398 H 138.714 0.878636 3.62092 0
M  V30 1399 H 138.827 2.73696 3.93227 0
M  V30 1400 H 137.191 1.37456 2.14425 0
M  V30 1401 H 137.974 2.98476 1.69607 0
M  V30 1402 N 140.419 -1.14872 1.07899 0
M  V30 1403 C 141.696 -1.81928 0.71845 0
M  V30 1404 C 142.076 -1.95417 -0.798455 0
M  V30 1405 O 141.424 -1.50997 -1.715 0
M  V30 1406 C 141.634 -3.17937 1.43935 0
M  V30 1407 C 142.982 -3.93501 1.59506 0
M  V30 1408 O 144.006 -3.27509 1.40058 0
M  V30 1409 O 142.865 -5.1183 1.91551 0
M  V30 1410 H 139.959 -0.78628 0.256305 0
M  V30 1411 H 142.505 -1.21934 1.18026 0
M  V30 1412 H 141.277 -3.0325 2.47295 0
M  V30 1413 H 140.9 -3.85619 0.968687 0
M  V30 1414 N 141.898 -0.863906 -1.31812 0
M  V30 1415 C 143.138 -0.47825 -1.98726 0
M  V30 1416 C 143.502 0.950397 -1.66828 0
M  V30 1417 O 144.703 1.44109 -2.26905 0
M  V30 1418 C 142.974 -0.721134 -3.50049 0
M  V30 1419 S 144.533 -0.434432 -4.36644 0
M  V30 1420 H 141.351 -0.178773 -0.688158 0
M  V30 1421 H 143.953 -1.11862 -1.60334 0
M  V30 1422 H 142.657 -1.75981 -3.70755 0
M  V30 1423 H 142.188 -0.0675315 -3.93342 0
M  V30 1424 H 144.203 0.735786 -4.90714 0
M  V30 1425 N 143.376 1.44774 -0.622745 0
M  V30 1426 C 144.286 2.34433 0.0886031 0
M  V30 1427 C 145.302 1.52131 0.844529 0
M  V30 1428 O 146.478 1.84886 0.798691 0
M  V30 1429 C 143.543 3.29986 1.0635 0
M  V30 1430 C 142.604 4.28195 0.307873 0
M  V30 1431 C 141.837 5.19183 1.23633 0
M  V30 1432 O 142.06 5.13918 2.47476 0
M  V30 1433 O 140.994 5.97515 0.725189 0
M  V30 1434 H 144.82 2.96693 -0.648599 0
M  V30 1435 H 142.405 1.44408 -0.382957 0
M  V30 1436 H 144.287 3.88825 1.6246 0
M  V30 1437 H 142.962 2.70269 1.78146 0
M  V30 1438 H 141.869 3.72927 -0.296064 0
M  V30 1439 H 143.202 4.90808 -0.3699 0
M  V30 1440 N 144.854 0.36279 1.53368 0
M  V30 1441 C 146.131 -0.284021 1.93527 0
M  V30 1442 C 146.511 -1.66628 1.29608 0
M  V30 1443 O 145.859 -2.23942 0.45413 0
M  V30 1444 C 146.069 -0.337028 3.47369 0
M  V30 1445 C 147.417 -0.578708 4.20638 0
M  V30 1446 O 148.441 -0.418352 3.53735 0
M  V30 1447 O 147.3 -0.89074 5.39192 0
M  V30 1448 H 144.394 -0.169743 0.809393 0
M  V30 1449 H 146.94 0.41537 1.64538 0
M  V30 1450 H 145.712 0.632217 3.86159 0
M  V30 1451 H 145.335 -1.08243 3.82582 0
M  V30 1452 N 146.332 -1.57332 0.0918853 0
M  V30 1453 C 147.58 -1.93853 -0.571446 0
M  V30 1454 C 147.901 -0.974212 -1.6892 0
M  V30 1455 O 147.171 -0.0257254 -1.95883 0
M  V30 1456 H 145.751 -0.715666 -0.214082 0
M  V30 1457 H 148.413 -1.94287 0.154464 0
M  V30 1458 H 147.509 -2.96191 -0.983729 0
M  V30 1459 N 147.81 0.181792 -1.56548 0
M  V30 1460 C 149.035 0.920019 -1.85877 0
M  V30 1461 C 149.46 1.75494 -0.677021 0
M  V30 1462 O 148.818 1.77399 0.374056 0
M  V30 1463 C 148.866 1.78112 -3.13542 0
M  V30 1464 O 147.97 2.88152 -2.95029 0
M  V30 1465 H 147.311 0.258334 -0.611686 0
M  V30 1466 H 149.841 0.183092 -2.03779 0
M  V30 1467 H 149.851 2.18314 -3.44678 0
M  V30 1468 H 148.526 1.16777 -3.99169 0
M  V30 1469 H 147.103 2.51609 -2.75222 0
M  V30 1470 N 149.288 1.51039 0.449983 0
M  V30 1471 C 150.565 1.53612 1.21089 0
M  V30 1472 C 150.945 0.292997 2.09057 0
M  V30 1473 O 150.293 -0.72259 2.16774 0
M  V30 1474 C 150.503 2.84337 2.0237 0
M  V30 1475 C 151.851 3.35807 2.59843 0
M  V30 1476 O 152.875 2.85802 2.12593 0
M  V30 1477 O 151.734 4.23029 3.45989 0
M  V30 1478 H 148.828 0.617057 0.550608 0
M  V30 1479 H 151.374 1.63344 0.460082 0
M  V30 1480 H 150.146 3.66278 1.37681 0
M  V30 1481 H 149.769 2.77708 2.84542 0
M  V30 1482 N 150.766 -0.704594 1.40972 0
M  V30 1483 C 151.676 -1.84856 1.44448 0
M  V30 1484 C 152.692 -1.70726 0.335961 0
M  V30 1485 O 153.868 -1.92799 0.582276 0
M  V30 1486 C 150.933 -3.20758 1.31587 0
M  V30 1487 C 149.994 -3.47063 2.52677 0
M  V30 1488 C 149.227 -4.76481 2.4042 0
M  V30 1489 O 149.45 -5.52341 1.42391 0
M  V30 1490 O 148.384 -5.03367 3.30007 0
M  V30 1491 H 152.21 -1.8488 2.40942 0
M  V30 1492 H 149.795 -0.85647 1.22413 0
M  V30 1493 H 151.677 -4.01913 1.26665 0
M  V30 1494 H 150.352 -3.21438 0.382049 0
M  V30 1495 H 149.259 -2.65873 2.63177 0
M  V30 1496 H 150.592 -3.5119 3.44858 0
M  V30 1497 N 152.244 -1.26651 -0.937939 0
M  V30 1498 C 153.469 -1.15279 -1.72411 0
M  V30 1499 C 153.894 0.287866 -1.85884 0
M  V30 1500 O 153.252 1.20855 -1.35143 0
M  V30 1501 C 153.3 -1.83028 -3.10698 0
M  V30 1502 O 152.404 -1.12128 -3.96864 0
M  V30 1503 H 151.745 -0.401504 -0.528858 0
M  V30 1504 H 154.275 -1.67531 -1.1745 0
M  V30 1505 H 154.285 -1.89981 -3.6107 0
M  V30 1506 H 152.96 -2.87833 -3.00208 0
M  V30 1507 H 151.537 -1.13173 -3.55312 0
M  V30 1508 N 153.722 1.14298 -1.08507 0
M  V30 1509 C 155.133 1.66926 -0.836227 0
M  V30 1510 C 155.484 1.85576 0.63686 0
M  V30 1511 O 154.609 1.56767 1.49175 0
M  V30 1512 C 155.204 3.03219 -1.51142 0
M  V30 1513 C 153.763 3.52876 -1.30979 0
M  V30 1514 C 152.91 2.2833 -1.57356 0
M  V30 1515 H 155.861 0.983491 -1.24552 0
M  V30 1516 H 155.882 3.68726 -0.939211 0
M  V30 1517 H 155.394 2.89612 -2.58353 0
M  V30 1518 H 153.495 3.71703 -0.258429 0
M  V30 1519 H 153.608 4.33586 -2.03814 0
M  V30 1520 H 151.972 2.34454 -0.995164 0
M  V30 1521 H 152.755 2.17298 -2.65775 0
M  V30 1522 N 155.201 0.870884 1.31352 0
M  V30 1523 C 156.111 0.330783 2.32256 0
M  V30 1524 C 157.127 -0.559767 1.6475 0
M  V30 1525 O 158.303 -0.456263 1.96164 0
M  V30 1526 C 155.368 -0.458137 3.4366 0
M  V30 1527 C 154.429 0.460482 4.26823 0
M  V30 1528 C 153.662 -0.290881 5.32907 0
M  V30 1529 O 153.885 -1.51885 5.49806 0
M  V30 1530 O 152.819 0.351732 6.00871 0
M  V30 1531 H 156.645 1.16718 2.80376 0
M  V30 1532 H 154.23 0.634285 1.35267 0
M  V30 1533 H 156.112 -0.905343 4.1156 0
M  V30 1534 H 154.787 -1.27106 2.97701 0
M  V30 1535 H 153.694 0.956207 3.61673 0
M  V30 1536 H 155.027 1.23903 4.7635 0
M  V30 1537 N 156.679 -1.44442 0.630414 0
M  V30 1538 C 157.611 -2.2892 -0.113347 0
M  V30 1539 C 158.624 -1.41243 -0.80959 0
M  V30 1540 O 159.813 -1.65402 -0.671156 0
M  V30 1541 C 156.913 -3.17594 -1.18266 0
M  V30 1542 C 156.086 -4.33682 -0.569073 0
M  V30 1543 C 155.145 -5.03397 -1.53226 0
M  V30 1544 O 154.171 -5.59438 -1.04967 0
M  V30 1545 N 155.373 -5.04783 -2.86661 0
M  V30 1546 H 158.138 -2.93392 0.611636 0
M  V30 1547 H 155.699 -1.54881 0.471523 0
M  V30 1548 H 157.691 -3.61097 -1.82732 0
M  V30 1549 H 156.261 -2.54876 -1.80988 0
M  V30 1550 H 155.481 -3.9338 0.254187 0
M  V30 1551 H 156.769 -5.08608 -0.139767 0
M  V30 1552 H 156.167 -4.60584 -3.28449 0
M  V30 1553 H 154.724 -5.52077 -3.46489 0
M  V30 1554 N 158.157 -0.370918 -1.53173 0
M  V30 1555 C 159.397 0.217106 -2.03244 0
M  V30 1556 C 159.761 1.45558 -1.25207 0
M  V30 1557 O 160.962 2.11957 -1.65311 0
M  V30 1558 C 159.233 0.496664 -3.53932 0
M  V30 1559 S 160.792 1.0576 -4.25864 0
M  V30 1560 H 157.61 0.0627827 -0.708223 0
M  V30 1561 H 160.212 -0.515019 -1.88594 0
M  V30 1562 H 158.916 -0.412096 -4.08326 0
M  V30 1563 H 158.447 1.25772 -3.72753 0
M  V30 1564 H 160.462 2.34145 -4.37482 0
M  V30 1565 N 159.635 1.57281 -0.100228 0
M  V30 1566 C 160.585 2.10848 0.86759 0
M  V30 1567 C 161.569 1.02473 1.24049 0
M  V30 1568 O 162.761 1.28739 1.21471 0
M  V30 1569 C 159.89 2.69648 2.12474 0
M  V30 1570 C 158.976 3.85074 1.77704 0
M  V30 1571 N 159.367 4.92897 1.13518 0
M  V30 1572 C 157.665 3.94905 2.07282 0
M  V30 1573 C 158.366 5.73475 0.974735 0
M  V30 1574 N 157.342 5.22675 1.4937 0
M  V30 1575 H 161.144 2.91594 0.367471 0
M  V30 1576 H 158.658 1.62074 0.102829 0
M  V30 1577 H 160.655 3.06356 2.82757 0
M  V30 1578 H 159.315 1.90359 2.63047 0
M  V30 1579 H 160.326 5.11662 0.801381 0
M  V30 1580 H 157.003 3.26633 2.60033 0
M  V30 1581 H 158.393 6.70238 0.472364 0
M  V30 1582 N 161.113 -0.173488 1.56642 0
M  V30 1583 C 162.046 -1.24353 1.91342 0
M  V30 1584 C 163.024 -1.4289 0.775965 0
M  V30 1585 O 164.208 -1.57932 1.02907 0
M  V30 1586 C 161.335 -2.60683 2.16245 0
M  V30 1587 C 160.381 -2.58894 3.38934 0
M  V30 1588 S 161.214 -2.0819 4.93373 0
M  V30 1589 C 162.37 -3.46302 5.21369 0
M  V30 1590 H 162.603 -0.947345 2.81803 0
M  V30 1591 H 160.136 -0.377958 1.49703 0
M  V30 1592 H 162.094 -3.39149 2.31275 0
M  V30 1593 H 160.755 -2.87502 1.26496 0
M  V30 1594 H 159.948 -3.59188 3.53553 0
M  V30 1595 H 159.55 -1.88522 3.2301 0
M  V30 1596 H 161.842 -4.42287 5.13214 0
M  V30 1597 H 162.785 -3.3656 6.23003 0
M  V30 1598 H 163.193 -3.42214 4.48943 0
M  V30 1599 N 162.591 -1.51276 -0.441967 0
M  V30 1600 C 164.007 -1.39349 -0.778083 0
M  V30 1601 C 164.207 -0.472212 -1.95889 0
M  V30 1602 O 163.263 0.0743551 -2.5239 0
M  V30 1603 C 164.576 -2.81292 -1.0628 0
M  V30 1604 C 166.124 -2.9041 -1.16751 0
M  V30 1605 C 166.599 -4.33251 -1.48519 0
M  V30 1606 N 168.09 -4.36336 -1.55453 0
M  V30 1607 C 168.825 -5.43885 -1.81596 0
M  V30 1608 N 168.321 -6.61601 -2.05562 0
M  V30 1609 N 170.114 -5.3136 -1.8334 0
M  V30 1610 H 162.265 -2.09729 0.335774 0
M  V30 1611 H 164.528 -0.943925 0.0878028 0
M  V30 1612 H 164.234 -3.50678 -0.267905 0
M  V30 1613 H 164.108 -3.20334 -1.99163 0
M  V30 1614 H 166.495 -2.21225 -1.95304 0
M  V30 1615 H 166.576 -2.54871 -0.217801 0
M  V30 1616 H 166.22 -5.02984 -0.704958 0
M  V30 1617 H 166.15 -4.66299 -2.44689 0
M  V30 1618 H 168.641 -3.51466 -1.38853 0
M  V30 1619 H 168.954 -7.39361 -2.24867 0
M  V30 1620 H 167.299 -6.64725 -2.02894 0
M  V30 1621 H 170.49 -4.38382 -1.64132 0
M  V30 1622 H 170.663 -6.15258 -2.03377 0
M  V30 1623 N 164.069 0.697108 -1.41344 0
M  V30 1624 C 165.297 1.48593 -1.43972 0
M  V30 1625 C 165.712 1.88747 -0.0445612 0
M  V30 1626 O 165.069 1.56682 0.935785 0
M  V30 1627 C 165.12 2.74946 -2.34706 0
M  V30 1628 O 164.841 2.36484 -3.68791 0
M  V30 1629 C 166.342 3.687 -2.46121 0
M  V30 1630 H 163.562 0.457964 -0.490418 0
M  V30 1631 H 166.106 0.858429 -1.8561 0
M  V30 1632 H 164.261 3.33937 -1.9638 0
M  V30 1633 H 164.675 3.17918 -4.17167 0
M  V30 1634 H 166.149 4.54145 -3.13777 0
M  V30 1635 H 166.626 4.13081 -1.49199 0
M  V30 1636 H 167.232 3.15613 -2.85076 0
M  V30 1637 N 165.547 1.27147 0.931209 0
M  V30 1638 C 166.787 1.14511 1.69312 0
M  V30 1639 C 167.151 -0.304638 1.89568 0
M  V30 1640 O 168.352 -0.553343 2.63043 0
M  V30 1641 C 166.623 1.90349 3.02493 0
M  V30 1642 S 168.182 1.93884 3.93642 0
M  V30 1643 H 165 0.408858 0.581684 0
M  V30 1644 H 167.602 1.61006 1.10893 0
M  V30 1645 H 166.306 2.94877 2.85439 0
M  V30 1646 H 165.837 1.44333 3.65966 0
M  V30 1647 H 167.852 1.03273 4.85334 0
M  V30 1648 N 167.025 -1.13721 1.09112 0
M  V30 1649 C 168.441 -1.36914 0.820174 0
M  V30 1650 C 168.641 -1.93356 -0.567079 0
M  V30 1651 O 167.697 -2.15093 -1.32255 0
M  V30 1652 C 169.01 -2.3235 1.90877 0
M  V30 1653 C 170.558 -2.45973 1.93562 0
M  V30 1654 C 171.033 -3.44714 3.01556 0
M  V30 1655 N 172.524 -3.52263 3.00775 0
M  V30 1656 C 173.259 -4.28536 3.80978 0
M  V30 1657 N 172.755 -5.07991 4.71081 0
M  V30 1658 N 174.548 -4.23804 3.69251 0
M  V30 1659 H 166.699 -0.754348 1.98553 0
M  V30 1660 H 168.962 -0.3944 0.862063 0
M  V30 1661 H 168.668 -1.98027 2.90651 0
M  V30 1662 H 168.542 -3.32332 1.78424 0
M  V30 1663 H 170.929 -2.79584 0.944286 0
M  V30 1664 H 171.01 -1.45926 2.10093 0
M  V30 1665 H 170.654 -3.11835 4.00901 0
M  V30 1666 H 170.584 -4.44558 2.82269 0
M  V30 1667 H 173.075 -2.95567 2.35475 0
M  V30 1668 H 173.388 -5.63487 5.28869 0
M  V30 1669 H 171.733 -5.07235 4.75119 0
M  V30 1670 H 174.924 -3.60806 2.98222 0
M  V30 1671 H 175.097 -4.82995 4.31995 0
M  V30 1672 N 168.503 -0.877838 -1.30888 0
M  V30 1673 C 169.752 -0.488793 -1.95688 0
M  V30 1674 C 170.065 0.965485 -1.70111 0
M  V30 1675 O 171.271 1.46104 -2.28836 0
M  V30 1676 C 169.727 -0.823201 -3.50359 0
M  V30 1677 C 169.335 -2.29477 -3.84765 0
M  V30 1678 C 171.079 -0.503009 -4.21509 0
M  V30 1679 C 168.986 -2.57118 -5.32583 0
M  V30 1680 H 167.916 -0.179062 -0.732429 0
M  V30 1681 H 170.567 -1.07183 -1.48943 0
M  V30 1682 H 168.949 -0.169331 -3.95638 0
M  V30 1683 H 170.123 -2.99236 -3.5042 0
M  V30 1684 H 168.438 -2.58178 -3.267 0
M  V30 1685 H 171.035 -0.68665 -5.30273 0
M  V30 1686 H 171.378 0.557109 -4.12555 0
M  V30 1687 H 171.911 -1.11376 -3.8189 0
M  V30 1688 H 168.65 -3.61843 -5.4658 0
M  V30 1689 H 168.17 -1.91961 -5.68253 0
M  V30 1690 H 169.849 -2.42251 -5.99936 0
M  V30 1691 N 169.982 1.44106 -0.638065 0
M  V30 1692 C 170.932 2.27843 0.0847285 0
M  V30 1693 C 171.916 1.39055 0.809471 0
M  V30 1694 O 173.108 1.62808 0.694435 0
M  V30 1695 C 170.237 3.26497 1.06089 0
M  V30 1696 C 169.323 4.22772 0.33541 0
M  V30 1697 N 169.714 5.01737 -0.639787 0
M  V30 1698 C 168.012 4.42227 0.578921 0
M  V30 1699 C 168.713 5.71792 -1.06904 0
M  V30 1700 N 167.689 5.42079 -0.406395 0
M  V30 1701 H 171.491 2.86305 -0.663814 0
M  V30 1702 H 169.005 1.55627 -0.464122 0
M  V30 1703 H 171.002 3.8525 1.59337 0
M  V30 1704 H 169.662 2.69595 1.80966 0
M  V30 1705 H 170.673 5.07799 -1.01789 0
M  V30 1706 H 167.35 3.96415 1.31003 0
M  V30 1707 H 168.74 6.45205 -1.8751 0
M  V30 1708 N 171.46 0.379036 1.52974 0
M  V30 1709 C 172.37 -0.468639 2.29872 0
M  V30 1710 C 173.386 -1.08067 1.36373 0
M  V30 1711 O 174.562 -1.08871 1.69438 0
M  V30 1712 C 171.627 -1.58594 3.083 0
M  V30 1713 C 170.688 -1.00007 4.17489 0
M  V30 1714 C 169.921 -2.06413 4.92168 0
M  V30 1715 O 170.144 -3.27751 4.66835 0
M  V30 1716 O 169.078 -1.68717 5.7777 0
M  V30 1717 H 172.904 0.157508 3.03291 0
M  V30 1718 H 170.489 0.143035 1.48714 0
M  V30 1719 H 172.371 -2.23525 3.57232 0
M  V30 1720 H 171.046 -2.19724 2.37703 0
M  V30 1721 H 169.953 -0.314299 3.72777 0
M  V30 1722 H 171.286 -0.433135 4.90291 0
M  V30 1723 N 172.938 -1.57226 0.108567 0
M  V30 1724 C 174.187 -1.94008 -0.551703 0
M  V30 1725 C 174.5 -0.993442 -1.68494 0
M  V30 1726 O 175.706 -1.25551 -2.40726 0
M  V30 1727 C 174.162 -3.44763 -1.03279 0
M  V30 1728 C 173.77 -4.47943 0.0714193 0
M  V30 1729 C 175.514 -3.90483 -1.66503 0
M  V30 1730 C 173.421 -5.89865 -0.425779 0
M  V30 1731 H 172.351 -0.724206 -0.209863 0
M  V30 1732 H 175.002 -1.82547 0.186741 0
M  V30 1733 H 173.384 -3.51422 -1.82533 0
M  V30 1734 H 174.558 -4.52942 0.847365 0
M  V30 1735 H 172.873 -4.11913 0.609669 0
M  V30 1736 H 175.47 -4.93925 -2.04798 0
M  V30 1737 H 175.813 -3.29877 -2.53942 0
M  V30 1738 H 176.346 -3.86581 -0.938074 0
M  V30 1739 H 173.085 -6.54202 0.412316 0
M  V30 1740 H 172.605 -5.88309 -1.16843 0
M  V30 1741 H 174.284 -6.40844 -0.890397 0
M  V30 1742 N 174.416 0.165178 -1.56732 0
M  V30 1743 C 175.641 0.900253 -1.86843 0
M  V30 1744 C 176.066 1.74766 -0.695596 0
M  V30 1745 O 175.424 1.77786 0.35522 0
M  V30 1746 C 175.472 1.74777 -3.15413 0
M  V30 1747 O 174.576 2.85007 -2.98068 0
M  V30 1748 H 173.917 0.251832 -0.614391 0
M  V30 1749 H 176.447 0.161468 -2.03962 0
M  V30 1750 H 176.457 2.14646 -3.46974 0
M  V30 1751 H 175.132 1.12537 -4.00385 0
M  V30 1752 H 173.709 2.48676 -2.77875 0
M  V30 1753 N 175.894 1.51508 0.433938 0
M  V30 1754 C 177.134 1.66006 1.19253 0
M  V30 1755 C 177.498 0.369868 1.88404 0
M  V30 1756 O 178.699 0.39066 2.65946 0
M  V30 1757 C 176.97 2.83229 2.17981 0
M  V30 1758 S 178.529 3.18075 3.02281 0
M  V30 1759 H 175.347 0.584821 0.404358 0
M  V30 1760 H 177.949 1.89425 0.48357 0
M  V30 1761 H 176.653 3.75407 1.65824 0
M  V30 1762 H 176.184 2.6201 2.93453 0
M  V30 1763 H 178.199 2.64772 4.19655 0
M  V30 1764 N 177.372 -0.689602 1.41712 0
M  V30 1765 C 178.62 -1.4468 1.4111 0
M  V30 1766 C 178.941 -1.94986 0.0232196 0
M  V30 1767 O 178.211 -1.72097 -0.935913 0
M  V30 1768 H 176.791 -0.536847 0.519427 0
M  V30 1769 H 179.453 -0.815825 1.77004 0
M  V30 1770 H 178.549 -2.30706 2.10193 0
M  V30 1771 N 178.85 -1.27639 -0.924453 0
M  V30 1772 C 179.813 -1.10681 -2.00705 0
M  V30 1773 C 180.813 -0.0497823 -1.60723 0
M  V30 1774 O 182.003 -0.294654 -1.7169 0
M  V30 1775 C 179.135 -0.687164 -3.33902 0
M  V30 1776 H 180.328 -2.06817 -2.17179 0
M  V30 1777 H 177.881 -1.10473 -1.10569 0
M  V30 1778 H 178.616 0.275439 -3.23128 0
M  V30 1779 H 178.401 -1.45061 -3.6428 0
M  V30 1780 H 179.891 -0.590853 -4.13399 0
M  V30 1781 N 180.328 1.1314 -1.09713 0
M  V30 1782 C 181.278 2.16709 -0.708593 0
M  V30 1783 C 182.262 1.58471 0.278523 0
M  V30 1784 O 183.454 1.76779 0.088427 0
M  V30 1785 C 180.583 3.43039 -0.133923 0
M  V30 1786 C 179.669 4.08277 -1.14763 0
M  V30 1787 N 180.06 4.48637 -2.33577 0
M  V30 1788 C 178.358 4.34954 -0.986446 0
M  V30 1789 C 179.059 4.9952 -2.98085 0
M  V30 1790 N 178.035 4.94561 -2.25632 0
M  V30 1791 H 181.837 2.45672 -1.61315 0
M  V30 1792 H 179.351 1.29967 -0.973775 0
M  V30 1793 H 181.348 4.16583 0.162465 0
M  V30 1794 H 180.008 3.15549 0.765447 0
M  V30 1795 H 181.019 4.41246 -2.7115 0
M  V30 1796 H 177.696 4.17258 -0.142008 0
M  V30 1797 H 179.086 5.40521 -3.99108 0
M  V30 1798 N 181.806 0.884767 1.30421 0
M  V30 1799 C 183.031 0.517288 2.00845 0
M  V30 1800 C 183.456 -0.886779 1.65885 0
M  V30 1801 O 182.814 -1.58768 0.875354 0
M  V30 1802 C 182.862 0.698994 3.5376 0
M  V30 1803 O 181.966 -0.255208 4.1161 0
M  V30 1804 H 181.307 0.203872 0.631927 0
M  V30 1805 H 183.837 1.19225 1.66272 0
M  V30 1806 H 183.847 0.597912 4.03595 0
M  V30 1807 H 182.522 1.72271 3.78544 0
M  V30 1808 H 181.099 -0.10784 3.72744 0
M  V30 1809 N 183.284 -1.43765 0.645699 0
M  V30 1810 C 184.512 -2.06253 0.163556 0
M  V30 1811 C 184.927 -1.48352 -1.16778 0
M  V30 1812 O 184.284 -0.611932 -1.71935 0
M  V30 1813 C 184.335 -3.61453 0.0583186 0
M  V30 1814 O 184.056 -4.172 1.33702 0
M  V30 1815 C 185.557 -4.41002 -0.450795 0
M  V30 1816 H 182.777 -0.665413 0.0864077 0
M  V30 1817 H 185.321 -1.84396 0.884222 0
M  V30 1818 H 183.476 -3.82522 -0.612865 0
M  V30 1819 H 183.89 -5.10791 1.19131 0
M  V30 1820 H 185.364 -5.49966 -0.473403 0
M  V30 1821 H 185.841 -4.13488 -1.48068 0
M  V30 1822 H 186.447 -4.24886 0.187637 0
M  V30 1823 N 184.763 -0.387143 -1.52771 0
M  V30 1824 C 185.695 0.484089 -2.2403 0
M  V30 1825 C 186.708 1.02849 -1.26198 0
M  V30 1826 O 187.897 0.931186 -1.52286 0
M  V30 1827 C 184.997 1.68337 -2.94136 0
M  V30 1828 C 184.17 1.26672 -4.18656 0
M  V30 1829 C 183.229 2.33045 -4.7178 0
M  V30 1830 O 182.255 1.94541 -5.34923 0
M  V30 1831 N 183.457 3.64929 -4.5145 0
M  V30 1832 H 186.222 -0.126404 -2.99433 0
M  V30 1833 H 183.783 -0.213392 -1.60488 0
M  V30 1834 H 185.775 2.39019 -3.26577 0
M  V30 1835 H 184.345 2.20025 -2.22053 0
M  V30 1836 H 183.565 0.388878 -3.92277 0
M  V30 1837 H 184.853 0.964964 -4.99566 0
M  V30 1838 H 184.251 3.98974 -4.01044 0
M  V30 1839 H 182.808 4.31651 -4.88386 0
M  V30 1840 N 186.241 1.57166 -0.116904 0
M  V30 1841 C 187.481 1.97008 0.544715 0
M  V30 1842 C 187.845 0.998713 1.63981 0
M  V30 1843 O 189.046 1.28644 2.36018 0
M  V30 1844 C 187.317 3.41145 1.06559 0
M  V30 1845 S 188.876 4.02998 1.73603 0
M  V30 1846 H 185.694 0.688587 0.177112 0
M  V30 1847 H 188.296 1.94459 -0.201487 0
M  V30 1848 H 187 4.09592 0.257374 0
M  V30 1849 H 186.531 3.4734 1.84712 0
M  V30 1850 H 188.546 3.93585 3.02168 0
M  V30 1851 N 187.719 -0.156864 1.56817 0
M  V30 1852 C 188.968 -0.869504 1.81996 0
M  V30 1853 C 189.281 -1.82777 0.696545 0
M  V30 1854 O 190.487 -2.58384 0.833658 0
M  V30 1855 C 188.943 -1.59679 3.22538 0
M  V30 1856 C 188.551 -0.681431 4.42787 0
M  V30 1857 C 190.295 -2.2968 3.56997 0
M  V30 1858 C 188.202 -1.40978 5.74351 0
M  V30 1859 H 187.132 -0.328438 0.678708 0
M  V30 1860 H 189.783 -0.1223 1.83092 0
M  V30 1861 H 188.165 -2.38927 3.158 0
M  V30 1862 H 189.339 0.0751166 4.60739 0
M  V30 1863 H 187.654 -0.0903431 4.16302 0
M  V30 1864 H 190.251 -2.84794 4.52544 0
M  V30 1865 H 190.594 -3.05707 2.82576 0
M  V30 1866 H 191.127 -1.57361 3.65352 0
M  V30 1867 H 187.866 -0.691561 6.51842 0
M  V30 1868 H 187.386 -2.13929 5.60352 0
M  V30 1869 H 189.065 -1.95337 6.16808 0
M  V30 1870 N 189.197 -1.51736 -0.425897 0
M  V30 1871 C 190.608 -1.5732 -1.00536 0
M  V30 1872 C 190.959 -0.403537 -1.92005 0
M  V30 1873 O 190.084 0.478256 -2.11049 0
M  V30 1874 C 190.679 -2.85119 -1.8301 0
M  V30 1875 C 189.238 -2.93236 -2.35987 0
M  V30 1876 C 188.385 -2.52098 -1.15508 0
M  V30 1877 H 191.336 -1.57348 -0.206739 0
M  V30 1878 H 191.357 -2.69526 -2.68581 0
M  V30 1879 H 190.869 -3.7023 -1.16411 0
M  V30 1880 H 188.97 -2.12581 -3.06007 0
M  V30 1881 H 189.083 -3.9713 -2.68001 0
M  V30 1882 H 187.447 -2.05558 -1.50393 0
M  V30 1883 H 188.23 -3.39565 -0.505014 0
M  V30 1884 N 190.675 0.682077 -1.42076 0
M  V30 1885 C 191.921 1.44428 -1.42367 0
M  V30 1886 C 192.254 1.94164 -0.0373056 0
M  V30 1887 O 191.529 1.70429 0.937239 0
M  V30 1888 C 191.812 2.64654 -2.44194 0
M  V30 1889 C 191.665 2.20596 -3.91991 0
M  V30 1890 C 192.984 3.66865 -2.431 0
M  V30 1891 H 190.103 0.523834 -0.518428 0
M  V30 1892 H 192.745 0.77576 -1.73442 0
M  V30 1893 H 190.895 3.2169 -2.17826 0
M  V30 1894 H 192.567 1.68783 -4.29313 0
M  V30 1895 H 190.81 1.52242 -4.06208 0
M  V30 1896 H 191.481 3.06921 -4.58807 0
M  V30 1897 H 193.957 3.19531 -2.66532 0
M  V30 1898 H 192.833 4.48577 -3.16339 0
M  V30 1899 H 193.094 4.17493 -1.45437 0
M  V30 1900 N 192.153 1.28127 0.917671 0
M  V30 1901 C 193.378 1.18007 1.70555 0
M  V30 1902 C 193.803 -0.258257 1.86319 0
M  V30 1903 O 193.161 -1.1869 1.37049 0
M  V30 1904 C 193.209 1.87948 3.07746 0
M  V30 1905 O 192.313 1.18427 3.9503 0
M  V30 1906 H 191.654 0.409867 0.522403 0
M  V30 1907 H 194.184 1.69379 1.1477 0
M  V30 1908 H 194.194 1.95701 3.58001 0
M  V30 1909 H 192.869 2.92573 2.95591 0
M  V30 1910 H 191.446 1.18811 3.53466 0
M  V30 1911 N 193.631 -1.12557 1.10312 0
M  V30 1912 C 194.877 -1.84515 0.855901 0
M  V30 1913 C 195.232 -1.82409 -0.611936 0
M  V30 1914 O 194.525 -1.25778 -1.44535 0
M  V30 1915 C 194.719 -3.31462 1.33669 0
M  V30 1916 C 194.548 -3.47879 2.84974 0
M  V30 1917 C 193.318 -3.61589 3.52961 0
M  V30 1918 C 195.516 -3.43152 3.83081 0
M  V30 1919 N 193.498 -3.66359 4.926 0
M  V30 1920 C 194.869 -3.54401 5.08724 0
M  V30 1921 C 196.924 -3.2661 3.75807 0
M  V30 1922 C 195.627 -3.50815 6.2795 0
M  V30 1923 C 197.653 -3.24335 4.94531 0
M  V30 1924 C 197.015 -3.36144 6.19021 0
M  V30 1925 H 193.114 -0.690967 0.366182 0
M  V30 1926 H 195.698 -1.34763 1.40524 0
M  V30 1927 H 193.869 -3.7976 0.814686 0
M  V30 1928 H 195.601 -3.91272 1.03385 0
M  V30 1929 H 192.356 -3.63652 3.03404 0
M  V30 1930 H 192.78 -3.72411 5.65366 0
M  V30 1931 H 197.422 -3.16375 2.80476 0
M  V30 1932 H 195.14 -3.5982 7.23571 0
M  V30 1933 H 198.726 -3.12719 4.9061 0
M  V30 1934 H 197.606 -3.34357 7.09348 0
M  V30 1935 N 195.109 -0.891671 -1.2995 0
M  V30 1936 C 196.525 -0.58662 -1.48428 0
M  V30 1937 C 196.725 0.873951 -1.81561 0
M  V30 1938 O 195.781 1.65471 -1.90724 0
M  V30 1939 C 197.094 -1.50553 -2.60296 0
M  V30 1940 C 198.642 -1.50988 -2.74175 0
M  V30 1941 C 199.117 -2.41488 -3.89163 0
M  V30 1942 N 200.608 -2.39489 -3.96483 0
M  V30 1943 C 201.343 -3.06223 -4.84784 0
M  V30 1944 N 200.839 -3.82206 -5.77833 0
M  V30 1945 N 202.632 -2.95421 -4.78208 0
M  V30 1946 H 194.783 -1.83644 -1.06718 0
M  V30 1947 H 197.046 -0.786455 -0.529332 0
M  V30 1948 H 196.752 -2.54581 -2.42654 0
M  V30 1949 H 196.626 -1.22008 -3.56923 0
M  V30 1950 H 199.013 -0.47708 -2.91218 0
M  V30 1951 H 199.094 -1.83567 -1.78148 0
M  V30 1952 H 198.738 -3.44857 -3.72876 0
M  V30 1953 H 198.668 -2.06222 -4.84541 0
M  V30 1954 H 201.159 -1.84278 -3.29924 0
M  V30 1955 H 201.472 -4.302 -6.41988 0
M  V30 1956 H 199.817 -3.86313 -5.77743 0
M  V30 1957 H 203.008 -2.35581 -4.04499 0
M  V30 1958 H 203.181 -3.47704 -5.46814 0
M  V30 1959 N 196.587 1.43421 -0.653314 0
M  V30 1960 C 197.827 2.03689 -0.170346 0
M  V30 1961 C 198.191 1.50427 1.19314 0
M  V30 1962 O 199.392 2.0234 1.76952 0
M  V30 1963 C 197.663 3.56946 -0.180183 0
M  V30 1964 S 199.222 4.38171 0.234925 0
M  V30 1965 H 196.04 0.707345 -0.0719976 0
M  V30 1966 H 198.642 1.75486 -0.86167 0
M  V30 1967 H 197.346 3.93212 -1.17526 0
M  V30 1968 H 196.877 3.89791 0.531675 0
M  V30 1969 H 198.892 4.73808 1.47378 0
M  V30 1970 N 198.065 0.39524 1.52563 0
M  V30 1971 C 199.342 -0.242908 1.94086 0
M  V30 1972 C 199.722 -1.63841 1.33114 0
M  V30 1973 O 199.07 -2.22928 0.501529 0
M  V30 1974 C 199.28 -0.26327 3.48006 0
M  V30 1975 C 200.628 -0.489354 4.21771 0
M  V30 1976 O 201.652 -0.343226 3.54543 0
M  V30 1977 O 200.511 -0.776169 5.4096 0
M  V30 1978 H 197.605 -0.152536 0.812811 0
M  V30 1979 H 200.151 0.450178 1.6362 0
M  V30 1980 H 198.923 0.713985 3.84731 0
M  V30 1981 H 198.546 -1.00103 3.84792 0
M  V30 1982 N 199.544 -1.57102 0.125237 0
M  V30 1983 C 200.792 -1.95021 -0.530198 0
M  V30 1984 C 201.113 -1.00982 -1.66816 0
M  V30 1985 O 200.383 -0.0672693 -1.95784 0
M  V30 1986 H 198.963 -0.720046 -0.198853 0
M  V30 1987 H 201.625 -1.93916 0.19564 0
M  V30 1988 H 200.721 -2.98211 -0.920681 0
M  V30 1989 N 201.022 0.148545 -1.56898 0
M  V30 1990 C 201.932 1.20293 -2.01412 0
M  V30 1991 C 202.948 1.47107 -0.929273 0
M  V30 1992 O 204.124 1.58807 -1.23863 0
M  V30 1993 C 201.189 2.51682 -2.38447 0
M  V30 1994 C 200.25 2.32529 -3.60872 0
M  V30 1995 C 199.483 3.57653 -3.96132 0
M  V30 1996 O 199.706 4.63771 -3.32073 0
M  V30 1997 O 198.64 3.50408 -4.89385 0
M  V30 1998 H 202.466 0.855025 -2.91416 0
M  V30 1999 H 200.051 0.357151 -1.45068 0
M  V30 2000 H 201.933 3.29147 -2.63135 0
M  V30 2001 H 200.608 2.86006 -1.51599 0
M  V30 2002 H 199.515 1.53019 -3.41373 0
M  V30 2003 H 200.848 2.03121 -4.48333 0
M  V30 2004 N 202.5 1.5196 0.417844 0
M  V30 2005 C 203.448 1.75278 1.52907 0
M  V30 2006 C 204.442 0.619611 1.57662 0
M  V30 2007 O 205.648 0.801457 1.61173 0
M  V30 2008 H 202.023 0.554141 0.508362 0
M  V30 2009 H 203.994 2.68389 1.30422 0
M  V30 2010 C 202.743 1.91262 2.90369 0
M  V30 2011 H 202.066 2.77872 2.8745 0
M  V30 2012 H 203.506 2.11581 3.67436 0
M  V30 2013 C 201.965 0.677431 3.30019 0
M  V30 2014 O 202.495 -0.158799 4.01386 0
M  V30 2015 N 200.701 0.515851 2.85985 0
M  V30 2016 H 200.248 1.19744 2.28077 0
M  V30 2017 H 200.206 -0.309315 3.12875 0
M  V30 2018 N 203.978 -0.674533 1.42435 0
M  V30 2019 C 205.255 -1.4305 1.33402 0
M  V30 2020 C 205.635 -2.11081 -0.0284674 0
M  V30 2021 O 204.983 -2.03257 -1.04397 0
M  V30 2022 C 205.193 -2.43272 2.50239 0
M  V30 2023 C 206.541 -3.07907 2.92367 0
M  V30 2024 O 207.565 -2.53599 2.50132 0
M  V30 2025 O 206.424 -4.0632 3.65467 0
M  V30 2026 H 203.518 -0.638076 0.526106 0
M  V30 2027 H 206.064 -0.703235 1.54443 0
M  V30 2028 H 204.836 -1.91803 3.41068 0
M  V30 2029 H 204.459 -3.23479 2.31186 0
M  V30 2030 N 205.456 -1.28612 -0.910864 0
M  V30 2031 C 206.696 -1.1719 -1.67469 0
M  V30 2032 C 207.06 0.274441 -1.90028 0
M  V30 2033 O 208.261 0.511425 -2.6389 0
M  V30 2034 C 206.532 -1.95137 -2.99427 0
M  V30 2035 S 208.091 -2.00122 -3.90508 0
M  V30 2036 H 204.909 -0.41806 -0.575106 0
M  V30 2037 H 207.511 -1.6275 -1.08317 0
M  V30 2038 H 206.215 -2.99381 -2.80712 0
M  V30 2039 H 205.746 -1.50137 -3.63624 0
M  V30 2040 H 207.761 -1.10981 -4.8363 0
M  V30 2041 N 206.934 1.1197 -1.10907 0
M  V30 2042 C 208.211 1.79959 -0.766432 0
M  V30 2043 C 208.591 1.97466 0.746363 0
M  V30 2044 O 207.939 1.55491 1.67436 0
M  V30 2045 C 208.149 3.14009 -1.52314 0
M  V30 2046 C 209.497 3.89134 -1.69883 0
M  V30 2047 O 210.521 3.2368 -1.48692 0
M  V30 2048 O 209.38 5.06572 -2.05054 0
M  V30 2049 H 206.474 0.779208 -0.277062 0
M  V30 2050 H 209.02 1.18762 -1.21217 0
M  V30 2051 H 207.792 2.96587 -2.55249 0
M  V30 2052 H 207.415 3.82915 -1.07059 0
M  V30 2053 N 208.412 0.89855 1.29475 0
M  V30 2054 C 209.637 0.538561 2.00285 0
M  V30 2055 C 210.062 -0.869135 1.66816 0
M  V30 2056 O 209.42 -1.57831 0.892145 0
M  V30 2057 C 209.468 0.736475 3.52999 0
M  V30 2058 O 208.572 -0.211537 4.11857 0
M  V30 2059 H 207.913 0.210563 0.62973 0
M  V30 2060 H 210.443 1.20982 1.64998 0
M  V30 2061 H 210.453 0.640685 4.02938 0
M  V30 2062 H 209.128 1.76276 3.76696 0
M  V30 2063 H 207.705 -0.0682991 3.72837 0
M  V30 2064 N 209.89 -1.43072 0.660911 0
M  V30 2065 C 211.138 -2.01323 0.177094 0
M  V30 2066 C 211.459 -1.5245 -1.2159 0
M  V30 2067 O 210.729 -0.740322 -1.81373 0
M  V30 2068 H 209.309 -0.744382 0.0624804 0
M  V30 2069 H 211.971 -1.75179 0.854305 0
M  V30 2070 H 211.067 -3.11649 0.167641 0
M  V30 2071 N 211.368 -0.403325 -1.52352 0
M  V30 2072 C 212.278 0.432009 -2.30588 0
M  V30 2073 C 213.294 1.05884 -1.38075 0
M  V30 2074 O 214.47 1.06161 -1.71148 0
M  V30 2075 C 211.535 1.53669 -3.10784 0
M  V30 2076 C 210.596 0.933525 -4.19027 0
M  V30 2077 C 209.829 1.98557 -4.9539 0
M  V30 2078 O 210.052 3.20283 -4.71991 0
M  V30 2079 O 208.986 1.59504 -5.80381 0
M  V30 2080 H 212.812 -0.205739 -3.03002 0
M  V30 2081 H 210.397 -0.166675 -1.48467 0
M  V30 2082 H 212.279 2.17814 -3.60742 0
M  V30 2083 H 210.954 2.15915 -2.41169 0
M  V30 2084 H 209.861 0.254954 -3.7323 0
M  V30 2085 H 211.194 0.35508 -4.90918 0
M  V30 2086 N 212.846 1.57033 -0.133567 0
M  V30 2087 C 214.123 1.87256 0.56522 0
M  V30 2088 C 214.503 1.03726 1.83859 0
M  V30 2089 O 213.851 0.120247 2.28183 0
M  V30 2090 C 214.061 3.3865 0.843636 0
M  V30 2091 C 215.409 4.07574 1.19032 0
M  V30 2092 O 216.433 3.43752 0.933429 0
M  V30 2093 O 215.292 5.20259 1.67312 0
M  V30 2094 H 212.386 0.775678 0.286796 0
M  V30 2095 H 214.932 1.68855 -0.169168 0
M  V30 2096 H 213.704 3.91257 -0.0581149 0
M  V30 2097 H 213.327 3.62532 1.63268 0
M  V30 2098 N 214.325 -0.140222 1.56975 0
M  V30 2099 C 215.235 -1.19223 2.02047 0
M  V30 2100 C 216.251 -1.46612 0.937062 0
M  V30 2101 O 217.427 -1.58148 1.24704 0
M  V30 2102 C 214.492 -2.50414 2.39778 0
M  V30 2103 C 213.553 -2.30612 3.621 0
M  V30 2104 C 212.786 -3.55547 3.98023 0
M  V30 2105 O 213.009 -4.62004 3.34528 0
M  V30 2106 O 211.943 -3.47808 4.91237 0
M  V30 2107 H 215.769 -0.839559 2.91865 0
M  V30 2108 H 213.354 -0.349453 1.45256 0
M  V30 2109 H 215.236 -3.27747 2.64877 0
M  V30 2110 H 213.911 -2.85198 1.53114 0
M  V30 2111 H 212.818 -1.51207 3.4218 0
M  V30 2112 H 214.151 -2.00741 4.49404 0
M  V30 2113 N 215.803 -1.52179 -0.40978 0
M  V30 2114 C 216.713 -1.78364 -1.52392 0
M  V30 2115 C 217.729 -0.669183 -1.60617 0
M  V30 2116 O 218.905 -0.954518 -1.77344 0
M  V30 2117 C 215.97 -1.92822 -2.88133 0
M  V30 2118 C 215.031 -3.16725 -2.898 0
M  V30 2119 C 214.264 -3.30483 -4.19067 0
M  V30 2120 O 214.487 -2.49522 -5.12928 0
M  V30 2121 O 213.421 -4.2363 -4.27576 0
M  V30 2122 H 217.247 -2.72931 -1.33201 0
M  V30 2123 H 214.832 -1.37016 -0.59557 0
M  V30 2124 H 216.714 -2.04157 -3.68643 0
M  V30 2125 H 215.389 -1.01444 -3.07393 0
M  V30 2126 H 214.296 -3.10848 -2.08146 0
M  V30 2127 H 215.629 -4.07881 -2.75489 0
M  V30 2128 N 217.281 0.66697 -1.42791 0
M  V30 2129 C 218.229 1.80157 -1.47127 0
M  V30 2130 C 219.223 1.65825 -0.346199 0
M  V30 2131 O 220.429 1.72338 -0.519572 0
M  V30 2132 H 216.804 0.594158 -0.460956 0
M  V30 2133 H 218.775 1.73619 -2.42692 0
M  V30 2134 C 217.524 3.18351 -1.39813 0
M  V30 2135 H 216.847 3.3001 -2.25684 0
M  V30 2136 H 218.287 3.97736 -1.46908 0
M  V30 2137 C 216.746 3.36707 -0.11391 0
M  V30 2138 O 217.276 3.93027 0.830241 0
M  V30 2139 N 215.482 2.90586 -0.0285295 0
M  V30 2140 H 215.029 2.4494 -0.79764 0
M  V30 2141 H 214.987 3.03245 0.830063 0
M  V30 2142 N 218.759 1.29093 0.90403 0
M  V30 2143 C 219.999 1.18076 1.66845 0
M  V30 2144 C 220.363 -0.26436 1.90171 0
M  V30 2145 O 221.564 -0.497423 2.64157 0
M  V30 2146 C 219.835 1.96722 2.98388 0
M  V30 2147 S 221.394 2.0219 3.89441 0
M  V30 2148 H 218.212 0.421104 0.572881 0
M  V30 2149 H 220.814 1.63322 1.07453 0
M  V30 2150 H 219.518 3.00866 2.7912 0
M  V30 2151 H 219.049 1.52064 3.62823 0
M  V30 2152 H 221.064 1.13545 4.83034 0
M  V30 2153 N 220.237 -1.11381 1.11499 0
M  V30 2154 C 221.485 -1.8277 0.862524 0
M  V30 2155 C 221.806 -1.85097 -0.613534 0
M  V30 2156 O 221.076 -1.32198 -1.4457 0
M  V30 2157 H 219.656 -0.676823 0.316101 0
M  V30 2158 H 222.318 -1.34816 1.4075 0
M  V30 2159 H 221.414 -2.86614 1.23527 0
M  V30 2160 N 221.715 -0.905404 -1.28997 0
M  V30 2161 C 222.663 -0.377431 -2.29517 0
M  V30 2162 C 223.657 0.526461 -1.61012 0
M  V30 2163 O 224.863 0.40863 -1.753 0
M  V30 2164 H 221.238 -0.103437 -0.744852 0
M  V30 2165 H 223.209 -1.23848 -2.71485 0
M  V30 2166 C 221.958 0.374833 -3.45674 0
M  V30 2167 H 221.281 -0.311474 -3.98585 0
M  V30 2168 H 222.721 0.70903 -4.1803 0
M  V30 2169 C 221.18 1.57963 -2.97572 0
M  V30 2170 O 221.71 2.67886 -2.99333 0
M  V30 2171 N 219.916 1.42375 -2.53333 0
M  V30 2172 H 219.463 0.529466 -2.521 0
M  V30 2173 H 219.421 2.23117 -2.21509 0
M  V30 2174 N 223.193 1.4272 -0.668489 0
M  V30 2175 C 224.442 2.00846 -0.185389 0
M  V30 2176 C 224.755 1.53442 1.21305 0
M  V30 2177 O 225.961 2.03944 1.79218 0
M  V30 2178 C 224.417 3.58805 -0.280591 0
M  V30 2179 C 224.025 4.15198 -1.68268 0
M  V30 2180 C 225.769 4.24255 0.14412 0
M  V30 2181 C 223.676 5.655 -1.73099 0
M  V30 2182 H 222.606 0.751145 -0.0655475 0
M  V30 2183 H 225.257 1.63516 -0.832752 0
M  V30 2184 H 223.639 3.93608 0.434553 0
M  V30 2185 H 224.813 3.91866 -2.42441 0
M  V30 2186 H 223.128 3.62176 -2.05469 0
M  V30 2187 H 225.725 5.34547 0.128086 0
M  V30 2188 H 226.068 3.99277 1.17827 0
M  V30 2189 H 226.601 3.94389 -0.519798 0
M  V30 2190 H 223.34 5.95268 -2.74475 0
M  V30 2191 H 222.86 5.90842 -1.03274 0
M  V30 2192 H 224.539 6.29808 -1.48158 0
M  V30 2193 N 224.671 0.411399 1.52136 0
M  V30 2194 C 225.899 -0.163076 2.06256 0
M  V30 2195 C 226.314 -1.3867 1.28125 0
M  V30 2196 O 225.671 -1.79423 0.333721 0
M  V30 2197 C 225.722 -0.511252 3.57867 0
M  V30 2198 O 225.443 0.66378 4.33042 0
M  V30 2199 C 226.944 -1.13921 4.28412 0
M  V30 2200 H 224.164 -0.0193897 0.67072 0
M  V30 2201 H 226.708 0.583007 1.96013 0
M  V30 2202 H 224.863 -1.20723 3.6811 0
M  V30 2203 H 225.277 0.372601 5.23175 0
M  V30 2204 H 226.751 -1.33302 5.35663 0
M  V30 2205 H 227.228 -2.11296 3.85033 0
M  V30 2206 H 227.834 -0.483373 4.22544 0
M  V30 2207 N 226.149 -1.5696 0.141893 0
M  V30 2208 C 227.389 -1.9785 -0.513304 0
M  V30 2209 C 227.753 -1.02467 -1.62371 0
M  V30 2210 O 228.954 -1.32382 -2.33941 0
M  V30 2211 C 227.225 -3.42797 -1.01118 0
M  V30 2212 S 228.784 -4.05709 -1.67169 0
M  V30 2213 H 225.602 -0.691318 -0.166135 0
M  V30 2214 H 228.204 -1.94114 0.232398 0
M  V30 2215 H 226.908 -4.0995 -0.192179 0
M  V30 2216 H 226.439 -3.50235 -1.79162 0
M  V30 2217 H 228.454 -3.98342 -2.95868 0
M  V30 2218 N 227.627 0.131896 -1.57047 0
M  V30 2219 C 228.852 0.860418 -1.8871 0
M  V30 2220 C 229.277 1.73251 -0.73251 0
M  V30 2221 O 228.635 1.785 0.317429 0
M  V30 2222 C 228.683 1.68047 -3.19049 0
M  V30 2223 O 227.787 2.7862 -3.04047 0
M  V30 2224 H 227.128 0.238743 -0.619595 0
M  V30 2225 H 229.658 0.118169 -2.04258 0
M  V30 2226 H 229.668 2.07238 -3.51449 0
M  V30 2227 H 228.343 1.04018 -4.02682 0
M  V30 2228 H 226.92 2.42726 -2.83088 0
M  V30 2229 N 229.106 1.52395 0.401703 0
M  V30 2230 C 230.517 1.58899 0.980202 0
M  V30 2231 C 230.868 0.434032 1.91339 0
M  V30 2232 O 229.993 -0.444619 2.11783 0
M  V30 2233 C 230.588 2.87994 1.78451 0
M  V30 2234 C 229.147 2.96953 2.31292 0
M  V30 2235 C 228.294 2.53903 1.11483 0
M  V30 2236 H 231.245 1.57657 0.18168 0
M  V30 2237 H 231.266 2.73765 2.64259 0
M  V30 2238 H 230.778 3.72035 1.10506 0
M  V30 2239 H 228.879 2.17422 3.02586 0
M  V30 2240 H 228.992 4.01344 2.61649 0
M  V30 2241 H 227.356 2.07925 1.47104 0
M  V30 2242 H 228.139 3.40326 0.450928 0
M  V30 2243 N 230.584 -0.659388 1.43143 0
M  V30 2244 C 231.861 -1.41627 1.34912 0
M  V30 2245 C 232.241 -2.11099 -0.00607785 0
M  V30 2246 O 231.589 -2.04353 -1.02236 0
M  V30 2247 C 231.799 -2.40604 2.52805 0
M  V30 2248 C 233.147 -3.04789 2.95616 0
M  V30 2249 O 234.171 -2.50932 2.52807 0
M  V30 2250 O 233.03 -4.02421 3.69756 0
M  V30 2251 H 230.124 -0.63246 0.532844 0
M  V30 2252 H 232.67 -0.686814 1.5518 0
M  V30 2253 H 231.442 -1.88174 3.43083 0
M  V30 2254 H 231.065 -3.21009 2.34604 0
M  V30 2255 N 232.062 -1.29571 -0.897171 0
M  V30 2256 C 232.972 -1.16808 -2.03453 0
M  V30 2257 C 233.988 -0.0907471 -1.73763 0
M  V30 2258 O 235.164 -0.303312 -1.99103 0
M  V30 2259 C 232.229 -0.848264 -3.36163 0
M  V30 2260 C 231.29 -2.0097 -3.79354 0
M  V30 2261 C 230.523 -1.70505 -5.05731 0
M  V30 2262 O 230.746 -0.62718 -5.66941 0
M  V30 2263 O 229.68 -2.5538 -5.45036 0
M  V30 2264 H 233.506 -2.12325 -2.17144 0
M  V30 2265 H 231.091 -1.09047 -1.02123 0
M  V30 2266 H 232.973 -0.684581 -4.15802 0
M  V30 2267 H 231.648 0.0771071 -3.23608 0
M  V30 2268 H 230.555 -2.22863 -3.00471 0
M  V30 2269 H 231.888 -2.91636 -3.96496 0
M  V30 2270 N 233.54 1.10788 -1.12088 0
M  V30 2271 C 234.787 1.82671 -0.873931 0
M  V30 2272 C 235.115 1.85004 0.600311 0
M  V30 2273 O 234.37 1.30365 1.45957 0
M  V30 2274 C 234.669 3.29294 -1.38926 0
M  V30 2275 C 234.335 3.47113 -2.87791 0
M  V30 2276 C 232.997 3.51684 -3.28439 0
M  V30 2277 C 235.349 3.52808 -3.83635 0
M  V30 2278 C 232.677 3.59513 -4.63646 0
M  V30 2279 C 235.029 3.62169 -5.18668 0
M  V30 2280 C 233.693 3.65003 -5.58864 0
M  V30 2281 H 232.963 0.668441 -0.319794 0
M  V30 2282 H 235.61 1.30613 -1.40045 0
M  V30 2283 H 233.915 3.83894 -0.783122 0
M  V30 2284 H 235.612 3.83416 -1.17443 0
M  V30 2285 H 232.202 3.4423 -2.5535 0
M  V30 2286 H 236.386 3.4853 -3.53328 0
M  V30 2287 H 231.642 3.59987 -4.94185 0
M  V30 2288 H 235.816 3.6552 -5.92763 0
M  V30 2289 H 233.443 3.70822 -6.63623 0
M  V30 2290 N 235.018 0.912232 1.28515 0
M  V30 2291 C 236.246 0.560416 1.99166 0
M  V30 2292 C 236.661 -0.857927 1.68182 0
M  V30 2293 O 236.018 -1.56805 0.933733 0
M  V30 2294 C 236.069 0.758142 3.53461 0
M  V30 2295 O 235.79 2.12067 3.83352 0
M  V30 2296 C 237.291 0.412954 4.41372 0
M  V30 2297 H 234.511 0.213805 0.636026 0
M  V30 2298 H 237.055 1.22502 1.63749 0
M  V30 2299 H 235.21 0.140556 3.87145 0
M  V30 2300 H 235.624 2.15923 4.77993 0
M  V30 2301 H 237.098 0.60208 5.48707 0
M  V30 2302 H 237.575 -0.65073 4.34353 0
M  V30 2303 H 238.181 1.00802 4.13182 0
M  V30 2304 N 236.496 -1.42363 0.676048 0
M  V30 2305 C 237.736 -2.03392 0.20273 0
M  V30 2306 C 238.1 -1.52306 -1.16906 0
M  V30 2307 O 239.301 -2.05129 -1.73711 0
M  V30 2308 C 237.572 -3.56614 0.236947 0
M  V30 2309 S 239.131 -4.38489 -0.165186 0
M  V30 2310 H 235.949 -0.70611 0.0832418 0
M  V30 2311 H 238.551 -1.74093 0.88948 0
M  V30 2312 H 237.255 -3.91293 1.23767 0
M  V30 2313 H 236.786 -3.90587 -0.469596 0
M  V30 2314 H 238.801 -4.76093 -1.39822 0
M  V30 2315 N 237.974 -0.419461 -1.51915 0
M  V30 2316 C 239.199 0.154572 -2.06823 0
M  V30 2317 C 239.624 1.3722 -1.28656 0
M  V30 2318 O 238.982 1.78461 -0.319583 0
M  V30 2319 C 239.03 0.473172 -3.57482 0
M  V30 2320 O 238.134 1.56255 -3.81652 0
M  V30 2321 H 237.475 0.0096924 -0.663929 0
M  V30 2322 H 240.005 -0.595642 -1.95738 0
M  V30 2323 H 240.015 0.728825 -4.01438 0
M  V30 2324 H 238.69 -0.416873 -4.13805 0
M  V30 2325 H 237.267 1.29825 -3.49571 0
M  V30 2326 N 239.452 1.56882 -0.150215 0
M  V30 2327 C 240.677 2.01027 0.510184 0
M  V30 2328 C 241.102 1.02966 1.57415 0
M  V30 2329 O 240.46 0.00590158 1.81299 0
M  V30 2330 C 240.508 3.43899 1.08472 0
M  V30 2331 O 239.612 3.4885 2.19948 0
M  V30 2332 H 238.953 0.652233 0.124451 0
M  V30 2333 H 241.483 2.03093 -0.247894 0
M  V30 2334 H 241.493 3.82766 1.41259 0
M  V30 2335 H 240.168 4.14776 0.305582 0
M  V30 2336 H 238.745 3.21827 1.88366 0
M  V30 2337 N 240.93 -0.123565 1.57115 0
M  V30 2338 C 242.178 -0.83051 1.84247 0
M  V30 2339 C 242.499 -1.80629 0.73471 0
M  V30 2340 O 241.769 -1.94403 -0.241688 0
M  V30 2341 H 240.349 -0.309694 0.679778 0
M  V30 2342 H 243.011 -0.111976 1.94578 0
M  V30 2343 H 242.107 -1.37852 2.80006 0
M  V30 2344 N 242.408 -1.52605 -0.393616 0
M  V30 2345 C 243.824 -1.41753 -0.733357 0
M  V30 2346 C 244.024 -0.534293 -1.94287 0
M  V30 2347 O 243.08 -0.0059787 -2.52499 0
M  V30 2348 C 244.393 -2.84531 -0.972772 0
M  V30 2349 C 245.941 -2.93978 -1.07453 0
M  V30 2350 C 246.416 -4.37756 -1.3466 0
M  V30 2351 N 247.907 -4.4106 -1.41492 0
M  V30 2352 C 248.642 -5.49387 -1.642 0
M  V30 2353 N 248.138 -6.67806 -1.8441 0
M  V30 2354 N 249.931 -5.36923 -1.66342 0
M  V30 2355 H 242.082 -2.08555 0.402328 0
M  V30 2356 H 244.345 -0.940654 0.117789 0
M  V30 2357 H 244.051 -3.51353 -0.156204 0
M  V30 2358 H 243.925 -3.26508 -1.88871 0
M  V30 2359 H 246.312 -2.27326 -1.88167 0
M  V30 2360 H 246.393 -2.55435 -0.136605 0
M  V30 2361 H 246.037 -5.04972 -0.544581 0
M  V30 2362 H 245.967 -4.73848 -2.2973 0
M  V30 2363 H 248.458 -3.55705 -1.27601 0
M  V30 2364 H 248.771 -7.46141 -2.01231 0
M  V30 2365 H 247.116 -6.70843 -1.81644 0
M  V30 2366 H 250.307 -4.43381 -1.50102 0
M  V30 2367 H 250.48 -6.21416 -1.837 0
M  V30 2368 N 243.887 0.651787 -1.4349 0
M  V30 2369 C 245.127 1.42345 -1.46688 0
M  V30 2370 C 245.491 1.91793 -0.0891023 0
M  V30 2371 O 246.692 2.688 0.00423594 0
M  V30 2372 C 244.963 2.57221 -2.48137 0
M  V30 2373 S 246.522 3.45725 -2.70221 0
M  V30 2374 H 243.34 0.485878 -0.51908 0
M  V30 2375 H 245.942 0.756578 -1.80267 0
M  V30 2376 H 244.646 2.1917 -3.46976 0
M  V30 2377 H 244.177 3.28757 -2.16061 0
M  V30 2378 H 246.192 4.53996 -2.00255 0
M  V30 2379 N 245.365 1.30045 0.890287 0
M  V30 2380 C 246.614 1.17929 1.63633 0
M  V30 2381 C 246.927 -0.266204 1.9378 0
M  V30 2382 O 248.133 -0.508804 2.6669 0
M  V30 2383 C 246.589 2.06317 2.94892 0
M  V30 2384 C 246.197 3.55745 2.72305 0
M  V30 2385 C 247.941 2.0295 3.72843 0
M  V30 2386 C 245.848 4.36205 3.99348 0
M  V30 2387 H 244.778 0.437782 0.613892 0
M  V30 2388 H 247.429 1.54754 0.986075 0
M  V30 2389 H 245.811 1.6237 3.61182 0
M  V30 2390 H 246.985 4.07805 2.1455 0
M  V30 2391 H 245.3 3.6088 2.07737 0
M  V30 2392 H 247.897 2.60319 4.67053 0
M  V30 2393 H 248.24 1.0117 4.0382 0
M  V30 2394 H 248.773 2.4499 3.13408 0
M  V30 2395 H 245.512 5.38659 3.73533 0
M  V30 2396 H 245.032 3.8891 4.56628 0
M  V30 2397 H 246.711 4.47362 4.67415 0
M  V30 2398 N 246.843 -1.10192 1.12674 0
M  V30 2399 C 248.068 -1.86523 0.906853 0
M  V30 2400 C 248.493 -1.80221 -0.538711 0
M  V30 2401 O 247.851 -1.17396 -1.38158 0
M  V30 2402 C 247.899 -3.32758 1.3894 0
M  V30 2403 O 247.003 -4.08449 0.5695 0
M  V30 2404 H 246.344 -0.578678 0.325619 0
M  V30 2405 H 248.874 -1.39203 1.49946 0
M  V30 2406 H 248.884 -3.83608 1.38958 0
M  V30 2407 H 247.559 -3.36661 2.44197 0
M  V30 2408 H 246.136 -3.67427 0.636528 0
M  V30 2409 N 248.321 -0.919034 -1.28029 0
M  V30 2410 C 249.737 -0.617972 -1.4715 0
M  V30 2411 C 249.937 0.835242 -1.83374 0
M  V30 2412 O 248.993 1.61388 -1.94191 0
M  V30 2413 C 250.306 -1.56041 -2.57044 0
M  V30 2414 C 251.854 -1.56769 -2.7091 0
M  V30 2415 C 252.329 -2.49688 -3.83953 0
M  V30 2416 N 253.82 -2.47845 -3.91314 0
M  V30 2417 C 254.555 -3.16437 -4.78179 0
M  V30 2418 N 254.051 -3.94376 -5.69596 0
M  V30 2419 N 255.844 -3.05498 -4.71834 0
M  V30 2420 H 247.995 -1.85866 -1.02798 0
M  V30 2421 H 250.258 -0.797506 -0.512531 0
M  V30 2422 H 249.964 -2.59671 -2.372 0
M  V30 2423 H 249.838 -1.29551 -3.54255 0
M  V30 2424 H 252.225 -0.538745 -2.90141 0
M  V30 2425 H 252.306 -1.87305 -1.74214 0
M  V30 2426 H 251.95 -3.52688 -3.65477 0
M  V30 2427 H 251.88 -2.16453 -4.80058 0
M  V30 2428 H 254.371 -1.91234 -3.25941 0
M  V30 2429 H 254.684 -4.43721 -6.32718 0
M  V30 2430 H 253.029 -3.98481 -5.69419 0
M  V30 2431 H 256.22 -2.44108 -3.99411 0
M  V30 2432 H 256.393 -3.59225 -5.39316 0
M  V30 2433 N 249.799 1.42003 -0.683588 0
M  V30 2434 C 250.747 2.326 0.000815408 0
M  V30 2435 C 251.741 1.50308 0.781278 0
M  V30 2436 O 252.947 1.66322 0.688251 0
M  V30 2437 H 249.322 0.751758 0.0190616 0
M  V30 2438 H 251.293 2.88011 -0.780528 0
M  V30 2439 C 250.042 3.34978 0.93195 0
M  V30 2440 H 249.365 3.98345 0.340817 0
M  V30 2441 H 250.805 4.00936 1.37936 0
M  V30 2442 C 249.264 2.67925 2.04249 0
M  V30 2443 O 249.794 2.51788 3.12995 0
M  V30 2444 N 248 2.2681 1.81675 0
M  V30 2445 H 247.547 2.40135 0.932363 0
M  V30 2446 H 247.505 1.8228 2.56167 0
M  V30 2447 N 251.277 0.427512 1.51691 0
M  V30 2448 C 252.524 -0.142229 2.02 0
M  V30 2449 C 252.852 -1.43566 1.31221 0
M  V30 2450 O 252.107 -1.91298 0.412744 0
M  V30 2451 C 252.406 -0.418249 3.54944 0
M  V30 2452 C 252.072 0.788187 4.43958 0
M  V30 2453 C 250.734 1.11906 4.68007 0
M  V30 2454 C 253.086 1.59347 4.96244 0
M  V30 2455 C 250.414 2.25608 5.41588 0
M  V30 2456 C 252.766 2.7214 5.71072 0
M  V30 2457 C 251.43 3.05692 5.93387 0
M  V30 2458 H 250.7 -0.0520451 0.73917 0
M  V30 2459 H 253.347 0.572697 1.82736 0
M  V30 2460 H 251.652 -1.21496 3.72486 0
M  V30 2461 H 253.349 -0.872339 3.91397 0
M  V30 2462 H 249.939 0.520344 4.2543 0
M  V30 2463 H 254.123 1.35106 4.77556 0
M  V30 2464 H 249.379 2.51929 5.57083 0
M  V30 2465 H 253.553 3.34914 6.10578 0
M  V30 2466 H 251.18 3.9391 6.50184 0
M  V30 2467 N 252.755 -1.56801 0.158532 0
M  V30 2468 C 254.001 -1.96781 -0.490405 0
M  V30 2469 C 254.334 -1.04397 -1.63753 0
M  V30 2470 O 253.609 -0.0885805 -1.94298 0
M  V30 2471 C 253.892 -3.4635 -0.985594 0
M  V30 2472 C 253.745 -4.49512 0.160824 0
M  V30 2473 C 255.064 -3.98697 -1.86355 0
M  V30 2474 H 252.183 -0.715482 -0.176788 0
M  V30 2475 H 254.825 -1.88451 0.242088 0
M  V30 2476 H 252.975 -3.53579 -1.60978 0
M  V30 2477 H 254.647 -4.54353 0.797537 0
M  V30 2478 H 252.89 -4.26013 0.818256 0
M  V30 2479 H 253.561 -5.51531 -0.227569 0
M  V30 2480 H 256.037 -3.94019 -1.33746 0
M  V30 2481 H 254.913 -5.03792 -2.17909 0
M  V30 2482 H 255.174 -3.41744 -2.8047 0
M  V30 2483 N 254.233 0.115231 -1.57178 0
M  V30 2484 C 255.473 0.828199 -1.8687 0
M  V30 2485 C 255.837 1.76873 -0.747002 0
M  V30 2486 O 257.038 2.52354 -0.925785 0
M  V30 2487 C 255.309 1.55515 -3.21792 0
M  V30 2488 S 256.868 2.30917 -3.73125 0
M  V30 2489 H 253.686 0.27634 -0.655101 0
M  V30 2490 H 256.288 0.0863469 -1.95309 0
M  V30 2491 H 254.992 0.856248 -4.01368 0
M  V30 2492 H 254.523 2.3373 -3.16439 0
M  V30 2493 H 256.538 3.56705 -3.44929 0
M  V30 2494 N 255.711 1.52812 0.385517 0
M  V30 2495 C 256.659 1.78482 1.49155 0
M  V30 2496 C 257.653 0.652914 1.56312 0
M  V30 2497 O 258.859 0.835464 1.59436 0
M  V30 2498 H 255.234 0.5648 0.496493 0
M  V30 2499 H 257.205 2.71095 1.24699 0
M  V30 2500 C 255.954 1.97378 2.86247 0
M  V30 2501 H 255.277 2.83907 2.81491 0
M  V30 2502 H 256.717 2.19327 3.62866 0
M  V30 2503 C 255.176 0.74728 3.28508 0
M  V30 2504 O 255.706 -0.0736232 4.01633 0
M  V30 2505 N 253.912 0.576396 2.84826 0
M  V30 2506 H 253.459 1.24555 2.25486 0
M  V30 2507 H 253.417 -0.24288 3.1346 0
M  V30 2508 N 257.189 -0.644168 1.43834 0
M  V30 2509 C 258.437 -1.40117 1.45642 0
M  V30 2510 C 258.758 -1.94814 0.0852413 0
M  V30 2511 O 258.028 -1.74988 -0.880688 0
M  V30 2512 H 256.608 -0.52005 0.536243 0
M  V30 2513 H 259.27 -0.7591 1.7951 0
M  V30 2514 H 258.366 -2.23902 2.17427 0
M  V30 2515 N 258.668 -1.30515 -0.883378 0
M  V30 2516 C 259.6 -1.12846 -1.99496 0
M  V30 2517 C 260.613 -0.0712571 -1.62644 0
M  V30 2518 O 261.802 -0.317432 -1.75655 0
M  V30 2519 C 258.902 -0.699123 -3.3161 0
M  V30 2520 C 258.075 -1.83842 -3.96889 0
M  V30 2521 C 257.134 -1.39737 -5.07307 0
M  V30 2522 O 256.16 -2.10485 -5.28852 0
M  V30 2523 N 257.362 -0.277279 -5.79837 0
M  V30 2524 H 260.127 -2.08585 -2.15203 0
M  V30 2525 H 257.688 -1.22672 -1.05656 0
M  V30 2526 H 259.68 -0.387044 -4.02845 0
M  V30 2527 H 258.25 0.166276 -3.12157 0
M  V30 2528 H 257.47 -2.31853 -3.18807 0
M  V30 2529 H 258.758 -2.60187 -4.37241 0
M  V30 2530 H 258.156 0.3122 -5.64838 0
M  V30 2531 H 256.713 -0.0246623 -6.51795 0
M  V30 2532 N 260.146 1.09593 -1.13257 0
M  V30 2533 C 261.423 1.78293 -0.804432 0
M  V30 2534 C 261.803 1.99004 0.70431 0
M  V30 2535 O 261.151 1.59007 1.641 0
M  V30 2536 C 261.361 3.10707 -1.5894 0
M  V30 2537 C 262.709 3.85443 -1.78099 0
M  V30 2538 O 263.733 3.20454 -1.55525 0
M  V30 2539 O 262.592 5.02108 -2.15753 0
M  V30 2540 H 259.686 0.773156 -0.293528 0
M  V30 2541 H 262.232 1.16164 -1.23709 0
M  V30 2542 H 261.004 2.91106 -2.61482 0
M  V30 2543 H 260.627 3.80558 -1.15157 0
M  V30 2544 N 261.624 0.925811 1.2754 0
M  V30 2545 C 262.901 0.483726 1.89524 0
M  V30 2546 C 263.281 -1.03809 1.83812 0
M  V30 2547 O 262.629 -1.89143 1.28207 0
M  V30 2548 C 262.839 1.02769 3.33526 0
M  V30 2549 C 264.187 1.08703 4.10449 0
M  V30 2550 O 265.211 0.977175 3.42534 0
M  V30 2551 O 264.07 1.25599 5.31871 0
M  V30 2552 H 261.164 0.15529 0.812289 0
M  V30 2553 H 263.71 1.01738 1.35822 0
M  V30 2554 H 262.482 2.07155 3.31967 0
M  V30 2555 H 262.105 0.475567 3.94746 0
M  V30 2556 N 263.102 -1.41638 0.69111 0
M  V30 2557 C 264.342 -2.03166 0.224291 0
M  V30 2558 C 264.706 -1.53537 -1.15284 0
M  V30 2559 O 265.907 -2.0696 -1.71525 0
M  V30 2560 C 264.178 -3.56342 0.274758 0
M  V30 2561 S 265.737 -4.3864 -0.118669 0
M  V30 2562 H 262.555 -0.705188 0.0907263 0
M  V30 2563 H 265.157 -1.7314 0.907895 0
M  V30 2564 H 263.861 -3.89958 1.2791 0
M  V30 2565 H 263.392 -3.91063 -0.428142 0
M  V30 2566 H 265.407 -4.77549 -1.34764 0
M  V30 2567 N 264.58 -0.43555 -1.51462 0
M  V30 2568 C 265.805 0.132627 -2.06976 0
M  V30 2569 C 266.23 1.35848 -1.30104 0
M  V30 2570 O 265.588 1.78112 -0.338493 0
M  V30 2571 C 265.636 0.43523 -3.57964 0
M  V30 2572 O 264.74 1.52198 -3.83288 0
M  V30 2573 H 264.081 0.00265 -0.663995 0
M  V30 2574 H 266.611 -0.616369 -1.95095 0
M  V30 2575 H 266.621 0.686206 -4.02188 0
M  V30 2576 H 265.296 -0.460739 -4.1334 0
M  V30 2577 H 263.873 1.2611 -3.50928 0
M  V30 2578 N 266.058 1.56714 -0.166846 0
M  V30 2579 C 267.335 1.88412 0.525373 0
M  V30 2580 C 267.715 1.07602 1.81618 0
M  V30 2581 O 267.063 0.168621 2.27877 0
M  V30 2582 C 267.273 3.40363 0.771613 0
M  V30 2583 C 268.621 4.10007 1.1036 0
M  V30 2584 O 269.645 3.45655 0.860304 0
M  V30 2585 O 268.504 5.2369 1.56239 0
M  V30 2586 H 265.598 0.781587 0.270278 0
M  V30 2587 H 268.144 1.68458 -0.204946 0
M  V30 2588 H 266.916 3.91046 -0.141093 0
M  V30 2589 H 266.539 3.65914 1.55541 0
M  V30 2590 N 267.536 -0.106894 1.57237 0
M  V30 2591 C 268.784 -0.810921 1.85117 0
M  V30 2592 C 269.105 -1.7984 0.753827 0
M  V30 2593 O 268.375 -1.94649 -0.221056 0
M  V30 2594 H 266.955 -0.302466 0.683025 0
M  V30 2595 H 269.617 -0.0913324 1.94686 0
M  V30 2596 H 268.713 -1.34875 2.81452 0
M  V30 2597 N 269.014 -1.53014 -0.377408 0
M  V30 2598 C 270.239 -1.72818 -1.14668 0
M  V30 2599 C 270.664 -0.450725 -1.8262 0
M  V30 2600 O 270.022 0.59439 -1.7128 0
M  V30 2601 C 270.07 -2.88627 -2.16164 0
M  V30 2602 O 269.174 -2.56409 -3.22998 0
M  V30 2603 H 268.515 -0.574301 -0.333278 0
M  V30 2604 H 271.045 -1.99853 -0.438152 0
M  V30 2605 H 271.055 -3.14455 -2.59966 0
M  V30 2606 H 269.73 -3.81294 -1.66095 0
M  V30 2607 H 268.307 -2.4136 -2.84253 0
M  V30 2608 N 270.492 0.636531 -1.44174 0
M  V30 2609 C 271.769 1.39463 -1.37148 0
M  V30 2610 C 272.149 2.11082 -0.027507 0
M  V30 2611 O 271.497 2.05954 0.989716 0
M  V30 2612 C 271.707 2.36552 -2.56601 0
M  V30 2613 C 273.055 3.00048 -3.00427 0
M  V30 2614 O 274.079 2.46878 -2.56767 0
M  V30 2615 O 272.938 3.96488 -3.76111 0
M  V30 2616 H 270.032 0.623903 -0.542839 0
M  V30 2617 H 272.578 0.662039 -1.56253 0
M  V30 2618 H 271.35 1.82692 -3.46034 0
M  V30 2619 H 270.973 3.17236 -2.39681 0
M  V30 2620 N 271.97 1.30982 0.876444 0
M  V30 2621 C 272.88 1.2003 2.01569 0
M  V30 2622 C 273.896 0.11838 1.73597 0
M  V30 2623 O 275.072 0.33495 1.98595 0
M  V30 2624 C 272.137 0.901637 3.34771 0
M  V30 2625 C 271.198 2.06979 3.76109 0
M  V30 2626 C 270.431 1.78529 5.02954 0
M  V30 2627 O 270.654 0.717296 5.65872 0
M  V30 2628 O 269.588 2.64019 5.40905 0
M  V30 2629 H 273.414 2.15753 2.13739 0
M  V30 2630 H 270.999 1.10658 1.00375 0
M  V30 2631 H 272.881 0.750645 4.1466 0
M  V30 2632 H 271.556 -0.0256141 3.2369 0
M  V30 2633 H 270.463 2.27616 2.96887 0
M  V30 2634 H 271.796 2.97907 3.91807 0
M  V30 2635 N 273.449 -1.08991 1.13837 0
M  V30 2636 C 274.379 -2.17771 0.842507 0
M  V30 2637 C 275.36 -1.6892 -0.20001 0
M  V30 2638 O 276.545 -1.94113 -0.0579731 0
M  V30 2639 C 273.675 -3.4589 0.312644 0
M  V30 2640 C 272.629 -4.08099 1.28992 0
M  V30 2641 C 271.955 -5.31098 0.619623 0
M  V30 2642 C 273.255 -4.50077 2.65005 0
M  V30 2643 H 274.949 -2.42777 1.75213 0
M  V30 2644 H 272.495 -1.16682 0.843875 0
M  V30 2645 H 274.448 -4.21297 0.0933043 0
M  V30 2646 H 273.172 -3.20419 -0.632382 0
M  V30 2647 H 271.831 -3.34717 1.49533 0
M  V30 2648 H 271.479 -5.0191 -0.33102 0
M  V30 2649 H 271.179 -5.73674 1.27167 0
M  V30 2650 H 272.703 -6.09224 0.409669 0
M  V30 2651 H 274.117 -5.16688 2.48407 0
M  V30 2652 H 272.514 -5.03553 3.26427 0
M  V30 2653 H 273.584 -3.62257 3.22332 0
M  V30 2654 N 274.927 -0.932562 -1.27047 0
M  V30 2655 C 276.204 -0.49377 -1.89265 0
M  V30 2656 C 276.584 1.02833 -1.8436 0
M  V30 2657 O 275.932 1.88461 -1.29209 0
M  V30 2658 C 276.142 -1.04536 -3.32976 0
M  V30 2659 C 277.49 -1.10879 -4.09867 0
M  V30 2660 O 278.514 -0.995327 -3.42011 0
M  V30 2661 O 277.373 -1.28417 -5.31198 0
M  V30 2662 H 274.467 -0.159596 -0.811454 0
M  V30 2663 H 277.013 -1.02457 -1.3528 0
M  V30 2664 H 275.785 -2.08913 -3.30864 0
M  V30 2665 H 275.408 -0.496494 -3.94488 0
M  V30 2666 N 276.405 1.4127 -0.698611 0
M  V30 2667 C 277.645 2.03044 -0.235062 0
M  V30 2668 C 278.009 1.54146 1.14468 0
M  V30 2669 O 279.21 2.07867 1.70425 0
M  V30 2670 C 277.481 3.56192 -0.293651 0
M  V30 2671 S 279.04 4.38696 0.0954053 0
M  V30 2672 H 275.858 0.704697 -0.0944648 0
M  V30 2673 H 278.46 1.72656 -0.917064 0
M  V30 2674 H 277.164 3.89274 -1.29977 0
M  V30 2675 H 276.695 3.91285 0.407397 0
M  V30 2676 H 278.71 4.78257 1.3223 0
M  V30 2677 N 277.883 0.443576 1.51229 0
M  V30 2678 C 278.846 -0.353132 2.26463 0
M  V30 2679 C 279.846 -0.944338 1.3015 0
M  V30 2680 O 281.036 -0.817813 1.5381 0
M  V30 2681 C 278.168 -1.50023 3.06114 0
M  V30 2682 H 279.361 0.3063 2.98332 0
M  V30 2683 H 276.914 0.196902 1.55055 0
M  V30 2684 H 277.649 -2.19553 2.38677 0
M  V30 2685 H 277.434 -1.08241 3.76864 0
M  V30 2686 H 278.924 -2.06296 3.63087 0
M  V30 2687 N 279.361 -1.56624 0.175154 0
M  V30 2688 C 280.772 -1.83561 -0.340916 0
M  V30 2689 C 281.123 -1.09511 -1.62794 0
M  V30 2690 O 280.248 -0.349389 -2.13561 0
M  V30 2691 C 280.843 -3.32979 -0.625313 0
M  V30 2692 C 279.402 -3.60399 -1.08581 0
M  V30 2693 C 278.549 -2.77024 -0.123722 0
M  V30 2694 H 281.5 -1.53593 0.399344 0
M  V30 2695 H 281.521 -3.50666 -1.47694 0
M  V30 2696 H 281.033 -3.86847 0.311575 0
M  V30 2697 H 279.134 -3.11945 -2.03767 0
M  V30 2698 H 279.247 -4.68711 -0.992317 0
M  V30 2699 H 277.611 -2.46993 -0.621821 0
M  V30 2700 H 278.394 -3.33674 0.807256 0
M  V30 2701 N 280.839 0.0985539 -1.57292 0
M  V30 2702 C 282.25 0.653457 -1.74891 0
M  V30 2703 C 282.601 1.7929 -0.796838 0
M  V30 2704 O 281.726 2.16385 0.0254886 0
M  V30 2705 C 282.321 1.19216 -3.17133 0
M  V30 2706 C 280.88 1.69316 -3.36168 0
M  V30 2707 C 280.027 0.601294 -2.70702 0
M  V30 2708 H 282.978 -0.127497 -1.58187 0
M  V30 2709 H 282.999 2.06154 -3.19814 0
M  V30 2710 H 282.511 0.362635 -3.86402 0
M  V30 2711 H 280.612 2.5468 -2.71972 0
M  V30 2712 H 280.725 1.78853 -4.44464 0
M  V30 2713 H 279.089 1.0399 -2.32504 0
M  V30 2714 H 279.872 -0.217592 -3.4261 0
M  V30 2715 N 282.317 1.53212 0.369288 0
M  V30 2716 C 283.545 1.73119 1.13303 0
M  V30 2717 C 283.96 0.458455 1.83149 0
M  V30 2718 O 283.317 -0.568403 1.73423 0
M  V30 2719 C 283.368 2.89413 2.16616 0
M  V30 2720 O 283.089 4.11761 1.49614 0
M  V30 2721 C 284.59 3.21161 3.05566 0
M  V30 2722 H 281.81 0.579107 0.338934 0
M  V30 2723 H 284.354 1.99942 0.429338 0
M  V30 2724 H 282.509 2.64994 2.82589 0
M  V30 2725 H 282.923 4.76858 2.18419 0
M  V30 2726 H 284.397 4.05949 3.74045 0
M  V30 2727 H 284.874 2.36369 3.70171 0
M  V30 2728 H 285.48 3.47492 2.45213 0
M  V30 2729 N 283.795 -0.628877 1.44509 0
M  V30 2730 C 285.035 -1.39993 1.48934 0
M  V30 2731 C 285.399 -1.91627 0.119604 0
M  V30 2732 O 286.6 -2.68772 0.0385283 0
M  V30 2733 C 284.871 -2.53241 2.52198 0
M  V30 2734 S 286.43 -3.41383 2.75687 0
M  V30 2735 H 283.248 -0.477558 0.526744 0
M  V30 2736 H 285.85 -0.727804 1.81448 0
M  V30 2737 H 284.554 -2.13622 3.50419 0
M  V30 2738 H 284.085 -3.25278 2.21264 0
M  V30 2739 H 286.1 -4.50752 2.07453 0
M  V30 2740 N 285.273 -1.31445 -0.869486 0
M  V30 2741 C 286.521 -1.20918 -1.61936 0
M  V30 2742 C 286.842 0.232683 -1.93607 0
M  V30 2743 O 286.112 1.15352 -1.58338 0
M  V30 2744 H 284.692 -0.44454 -0.600328 0
M  V30 2745 H 287.354 -1.64776 -1.0409 0
M  V30 2746 H 286.45 -1.78124 -2.56278 0
M  V30 2747 N 286.751 1.08385 -1.14413 0
M  V30 2748 C 287.714 2.13486 -0.834048 0
M  V30 2749 C 288.714 1.59988 0.161418 0
M  V30 2750 O 289.904 1.74071 -0.0669575 0
M  V30 2751 C 287.036 3.4003 -0.243354 0
M  V30 2752 H 288.229 2.42425 -1.7655 0
M  V30 2753 H 285.782 1.24101 -0.950189 0
M  V30 2754 H 286.517 3.16726 0.696807 0
M  V30 2755 H 286.302 3.80157 -0.960367 0
M  V30 2756 H 287.792 4.17577 -0.0436242 0
M  V30 2757 N 288.23 0.939286 1.26551 0
M  V30 2758 C 289.18 0.418284 2.2413 0
M  V30 2759 C 290.164 -0.483935 1.5345 0
M  V30 2760 O 291.356 -0.319489 1.74093 0
M  V30 2761 C 288.485 -0.31709 3.41832 0
M  V30 2762 C 287.571 0.602311 4.19801 0
M  V30 2763 N 287.962 1.72726 4.75394 0
M  V30 2764 C 286.26 0.407534 4.44134 0
M  V30 2765 C 286.961 2.30004 5.34297 0
M  V30 2766 N 285.937 1.58828 5.1988 0
M  V30 2767 H 289.739 1.27705 2.64705 0
M  V30 2768 H 287.253 0.794929 1.41614 0
M  V30 2769 H 289.25 -0.707364 4.10855 0
M  V30 2770 H 287.91 -1.17264 3.02786 0
M  V30 2771 H 288.921 2.10944 4.72994 0
M  V30 2772 H 285.598 -0.406406 4.15517 0
M  V30 2773 H 286.988 3.24778 5.88191 0
M  V30 2774 N 289.708 -1.40897 0.706093 0
M  V30 2775 C 290.618 -2.3455 0.0482286 0
M  V30 2776 C 291.634 -1.56796 -0.754396 0
M  V30 2777 O 292.81 -1.89228 -0.689538 0
M  V30 2778 C 289.875 -3.35625 -0.869303 0
M  V30 2779 C 288.936 -4.29261 -0.0576994 0
M  V30 2780 C 288.169 -5.25508 -0.931531 0
M  V30 2781 O 288.392 -5.27472 -2.17092 0
M  V30 2782 O 287.326 -6.00727 -0.375587 0
M  V30 2783 H 291.152 -2.92407 0.820476 0
M  V30 2784 H 288.737 -1.4193 0.4665 0
M  V30 2785 H 290.619 -3.97635 -1.39514 0
M  V30 2786 H 289.294 -2.80196 -1.62086 0
M  V30 2787 H 288.201 -3.70566 0.512988 0
M  V30 2788 H 289.534 -4.87817 0.655426 0
M  V30 2789 N 291.186 -0.45159 -1.50991 0
M  V30 2790 C 292.433 0.110074 -2.02201 0
M  V30 2791 C 292.761 1.4146 -1.33489 0
M  V30 2792 O 292.016 1.90617 -0.443125 0
M  V30 2793 C 292.315 0.361728 -3.55565 0
M  V30 2794 C 291.981 -0.858717 -4.42648 0
M  V30 2795 C 290.643 -1.19338 -4.66167 0
M  V30 2796 C 292.995 -1.67221 -4.93646 0
M  V30 2797 C 290.323 -2.34195 -5.37931 0
M  V30 2798 C 292.675 -2.8119 -5.6667 0
M  V30 2799 C 291.339 -3.15094 -5.88449 0
M  V30 2800 H 290.609 0.040279 -0.739904 0
M  V30 2801 H 293.256 -0.601696 -1.81802 0
M  V30 2802 H 291.561 1.15554 -3.74372 0
M  V30 2803 H 293.258 0.80996 -3.92735 0
M  V30 2804 H 289.848 -0.58796 -4.24548 0
M  V30 2805 H 294.032 -1.42686 -4.75347 0
M  V30 2806 H 289.288 -2.6076 -5.53005 0
M  V30 2807 H 293.462 -3.44585 -6.05173 0
M  V30 2808 H 291.089 -4.04204 -6.43835 0
M  V30 2809 N 292.664 1.56529 -0.183458 0
M  V30 2810 C 293.596 2.15747 0.773697 0
M  V30 2811 C 294.609 1.1162 1.1851 0
M  V30 2812 O 295.798 1.3876 1.12285 0
M  V30 2813 C 292.898 2.6952 2.05456 0
M  V30 2814 C 292.071 3.98429 1.8048 0
M  V30 2815 C 291.13 4.37145 2.92901 0
M  V30 2816 O 290.156 5.04791 2.6301 0
M  V30 2817 N 291.358 3.99695 4.2098 0
M  V30 2818 H 294.123 2.98505 0.26736 0
M  V30 2819 H 291.684 1.619 -0.0010878 0
M  V30 2820 H 293.676 2.92412 2.79781 0
M  V30 2821 H 292.246 1.91282 2.47245 0
M  V30 2822 H 291.466 3.8379 0.899947 0
M  V30 2823 H 292.754 4.82597 1.61175 0
M  V30 2824 H 292.152 3.4526 4.48121 0
M  V30 2825 H 290.709 4.27562 4.9197 0
M  V30 2826 N 294.142 -0.090211 1.57342 0
M  V30 2827 C 295.382 -0.798365 1.88163 0
M  V30 2828 C 295.746 -1.75662 0.775046 0
M  V30 2829 O 296.947 -2.50849 0.965816 0
M  V30 2830 C 295.218 -1.50376 3.24225 0
M  V30 2831 S 296.777 -2.24952 3.76752 0
M  V30 2832 H 293.595 -0.265883 0.659414 0
M  V30 2833 H 296.197 -0.055264 1.95422 0
M  V30 2834 H 294.901 -0.792286 4.0268 0
M  V30 2835 H 294.432 -2.28666 3.20118 0
M  V30 2836 H 296.447 -3.51173 3.5056 0
M  V30 2837 N 295.62 -1.53406 -0.361157 0
M  V30 2838 C 296.845 -1.74024 -1.12829 0
M  V30 2839 C 297.27 -0.470069 -1.82132 0
M  V30 2840 O 296.628 0.57619 -1.719 0
M  V30 2841 C 296.676 -2.90903 -2.13091 0
M  V30 2842 O 295.78 -2.59821 -3.20261 0
M  V30 2843 H 295.121 -0.577804 -0.327168 0
M  V30 2844 H 297.651 -2.00307 -0.41693 0
M  V30 2845 H 297.661 -3.17194 -2.56616 0
M  V30 2846 H 296.336 -3.83034 -1.62042 0
M  V30 2847 H 294.913 -2.44362 -2.81677 0
M  V30 2848 N 297.098 0.621204 -1.44841 0
M  V30 2849 C 298.326 1.40752 -1.51646 0
M  V30 2850 C 298.741 1.88246 -0.144549 0
M  V30 2851 O 298.098 1.61422 0.851416 0
M  V30 2852 C 298.149 2.62119 -2.4895 0
M  V30 2853 O 297.87 2.16602 -3.80808 0
M  V30 2854 C 299.371 3.55135 -2.65319 0
M  V30 2855 H 296.591 0.431325 -0.514004 0
M  V30 2856 H 299.135 0.758835 -1.899 0
M  V30 2857 H 297.29 3.23058 -2.13805 0
M  V30 2858 H 297.704 2.95358 -4.33433 0
M  V30 2859 H 299.178 4.36874 -3.37409 0
M  V30 2860 H 299.655 4.04592 -1.70886 0
M  V30 2861 H 300.261 3.00058 -3.01405 0
M  V30 2862 N 298.576 1.31904 0.862503 0
M  V30 2863 C 299.801 1.25135 1.65397 0
M  V30 2864 C 300.226 -0.179 1.87246 0
M  V30 2865 O 299.584 -1.1277 1.4196 0
M  V30 2866 C 299.632 2.00832 2.99498 0
M  V30 2867 O 298.736 1.35075 3.89652 0
M  V30 2868 H 298.077 0.431655 0.504549 0
M  V30 2869 H 300.607 1.74094 1.07483 0
M  V30 2870 H 300.617 2.10709 3.49379 0
M  V30 2871 H 299.292 3.04847 2.82916 0
M  V30 2872 H 297.869 1.33696 3.48109 0
M  V30 2873 N 300.054 -1.07777 1.14986 0
M  V30 2874 C 301.279 -1.84558 0.946213 0
M  V30 2875 C 301.704 -1.81323 -0.500362 0
M  V30 2876 O 301.062 -1.20301 -1.35637 0
M  V30 2877 C 301.11 -3.29736 1.45968 0
M  V30 2878 O 300.214 -4.07149 0.65601 0
M  V30 2879 H 299.555 -0.571641 0.33782 0
M  V30 2880 H 302.085 -1.35991 1.52865 0
M  V30 2881 H 302.095 -3.80574 1.47063 0
M  V30 2882 H 300.77 -3.31406 2.51283 0
M  V30 2883 H 299.347 -3.65994 0.714322 0
M  V30 2884 N 301.532 -0.945985 -1.26051 0
M  V30 2885 C 302.772 -0.603665 -1.95282 0
M  V30 2886 C 303.136 0.842377 -1.72534 0
M  V30 2887 O 304.337 1.29387 -2.35611 0
M  V30 2888 C 302.608 -0.942292 -3.44754 0
M  V30 2889 S 304.167 -0.711242 -4.32997 0
M  V30 2890 H 300.985 -0.222176 -0.675395 0
M  V30 2891 H 303.587 -1.21832 -1.52896 0
M  V30 2892 H 302.291 -1.99203 -3.58812 0
M  V30 2893 H 301.822 -0.317546 -3.92116 0
M  V30 2894 H 303.837 0.422221 -4.944 0
M  V30 2895 N 303.011 1.40521 -0.713556 0
M  V30 2896 C 304.26 2.00155 -0.249192 0
M  V30 2897 C 304.573 1.57224 1.16362 0
M  V30 2898 O 305.779 2.09542 1.72639 0
M  V30 2899 C 304.235 3.5773 -0.3946 0
M  V30 2900 C 303.843 4.09635 -1.81392 0
M  V30 2901 C 305.587 4.24499 0.00907364 0
M  V30 2902 C 303.494 5.59707 -1.91003 0
M  V30 2903 H 302.424 0.74868 -0.0894114 0
M  V30 2904 H 305.075 1.60784 -0.884352 0
M  V30 2905 H 303.457 3.94792 0.30911 0
M  V30 2906 H 304.631 3.83955 -2.54785 0
M  V30 2907 H 302.946 3.55456 -2.16888 0
M  V30 2908 H 305.543 5.34683 -0.0420404 0
M  V30 2909 H 305.886 4.02824 1.05065 0
M  V30 2910 H 306.419 3.92536 -0.645007 0
M  V30 2911 H 303.158 5.86234 -2.93275 0
M  V30 2912 H 302.678 5.87258 -1.22019 0
M  V30 2913 H 304.357 6.24776 -1.6812 0
M  V30 2914 N 304.489 0.459591 1.5075 0
M  V30 2915 C 305.9 0.00171547 1.867 0
M  V30 2916 C 306.251 -1.39934 1.37525 0
M  V30 2917 O 305.376 -2.03523 0.735349 0
M  V30 2918 C 305.971 -0.00366298 3.388 0
M  V30 2919 C 304.53 -0.406026 3.74204 0
M  V30 2920 C 303.677 0.38673 2.7459 0
M  V30 2921 H 306.628 0.674413 1.43657 0
M  V30 2922 H 306.649 -0.808371 3.71814 0
M  V30 2923 H 306.161 1.01617 3.74561 0
M  V30 2924 H 304.262 -1.43063 3.4404 0
M  V30 2925 H 304.375 -0.115362 4.78961 0
M  V30 2926 H 302.739 -0.158019 2.54209 0
M  V30 2927 H 303.522 1.40585 3.13194 0
M  V30 2928 N 305.967 -1.56429 0.191757 0
M  V30 2929 C 307.216 -1.9666 -0.448088 0
M  V30 2930 C 307.529 -1.08136 -1.62991 0
M  V30 2931 O 308.735 -1.38135 -2.33733 0
M  V30 2932 C 307.191 -3.49753 -0.848585 0
M  V30 2933 C 306.799 -4.46935 0.308764 0
M  V30 2934 C 308.543 -3.9876 -1.4557 0
M  V30 2935 C 306.45 -5.91293 -0.112506 0
M  V30 2936 H 305.38 -0.734312 -0.171179 0
M  V30 2937 H 308.031 -1.81301 0.283242 0
M  V30 2938 H 306.413 -3.60604 -1.63649 0
M  V30 2939 H 307.587 -4.47813 1.08627 0
M  V30 2940 H 305.902 -4.08102 0.827158 0
M  V30 2941 H 308.499 -5.04086 -1.78328 0
M  V30 2942 H 308.842 -3.42875 -2.36099 0
M  V30 2943 H 309.375 -3.9101 -0.731836 0
M  V30 2944 H 306.114 -6.51097 0.758514 0
M  V30 2945 H 305.634 -5.93676 -0.854941 0
M  V30 2946 H 307.313 -6.44663 -0.549448 0
M  V30 2947 N 307.445 0.0818655 -1.57387 0
M  V30 2948 C 308.67 0.799946 -1.91352 0
M  V30 2949 C 309.095 1.70833 -0.787258 0
M  V30 2950 O 308.453 1.79419 0.26048 0
M  V30 2951 C 308.501 1.57812 -3.24234 0
M  V30 2952 O 307.605 2.68806 -3.12757 0
M  V30 2953 H 306.946 0.21891 -0.626877 0
M  V30 2954 H 309.476 0.0531256 -2.04531 0
M  V30 2955 H 309.486 1.95952 -3.57864 0
M  V30 2956 H 308.161 0.911548 -4.05788 0
M  V30 2957 H 306.738 2.33597 -2.90666 0
M  V30 2958 N 308.923 1.53595 0.353017 0
M  V30 2959 C 310.169 1.71581 1.09232 0
M  V30 2960 C 310.524 0.468328 1.86613 0
M  V30 2961 O 309.817 -0.538911 1.83865 0
M  V30 2962 C 310.011 2.91313 2.07054 0
M  V30 2963 C 309.84 4.27585 1.39287 0
M  V30 2964 C 308.61 4.92233 1.1417 0
M  V30 2965 C 310.808 5.07656 0.824005 0
M  V30 2966 N 308.79 6.124 0.428841 0
M  V30 2967 C 310.161 6.19531 0.241195 0
M  V30 2968 C 312.216 4.92609 0.723922 0
M  V30 2969 C 310.919 7.18002 -0.431952 0
M  V30 2970 C 312.945 5.91365 0.0645334 0
M  V30 2971 C 312.307 7.02571 -0.507347 0
M  V30 2972 H 308.406 0.680987 0.384422 0
M  V30 2973 H 310.99 1.91013 0.377096 0
M  V30 2974 H 309.161 2.73398 2.75877 0
M  V30 2975 H 310.893 2.98062 2.73753 0
M  V30 2976 H 307.648 4.51612 1.42631 0
M  V30 2977 H 308.072 6.76944 0.0874131 0
M  V30 2978 H 312.714 4.06808 1.15181 0
M  V30 2979 H 310.432 8.03384 -0.871758 0
M  V30 2980 H 314.018 5.81799 -0.0121469 0
M  V30 2981 H 312.898 7.77675 -1.0095 0
M  V30 2982 N 310.401 -0.613514 1.45168 0
M  V30 2983 C 311.647 -1.37471 1.49096 0
M  V30 2984 C 311.98 -1.93765 0.129901 0
M  V30 2985 O 311.255 -1.74707 -0.854858 0
M  V30 2986 C 311.538 -2.52701 2.56542 0
M  V30 2987 C 311.391 -2.01643 4.0207 0
M  V30 2988 C 312.71 -3.54849 2.60327 0
M  V30 2989 H 309.829 -0.498502 0.54283 0
M  V30 2990 H 312.471 -0.692125 1.76945 0
M  V30 2991 H 310.621 -3.10931 2.32926 0
M  V30 2992 H 312.293 -1.48108 4.36877 0
M  V30 2993 H 310.536 -1.32688 4.13009 0
M  V30 2994 H 311.207 -2.84681 4.72928 0
M  V30 2995 H 313.683 -3.0645 2.81474 0
M  V30 2996 H 312.559 -4.32973 3.37381 0
M  V30 2997 H 312.82 -4.10079 1.6519 0
M  V30 2998 N 311.879 -1.3236 -0.855495 0
M  V30 2999 C 313.119 -1.24187 -1.62348 0
M  V30 3000 C 313.483 0.193597 -1.91021 0
M  V30 3001 O 314.684 0.39904 -2.65822 0
M  V30 3002 C 312.955 -2.07661 -2.90881 0
M  V30 3003 S 314.514 -2.16505 -3.81669 0
M  V30 3004 H 311.332 -0.442076 -0.556857 0
M  V30 3005 H 313.934 -1.67198 -1.01317 0
M  V30 3006 H 312.638 -3.11018 -2.67761 0
M  V30 3007 H 312.169 -1.65425 -3.56929 0
M  V30 3008 H 314.184 -1.31394 -4.78487 0
M  V30 3009 N 313.357 1.07166 -1.15556 0
M  V30 3010 C 314.634 1.76546 -0.842069 0
M  V30 3011 C 315.014 2.00453 0.661939 0
M  V30 3012 O 314.362 1.62452 1.60691 0
M  V30 3013 C 314.572 3.07266 -1.65495 0
M  V30 3014 C 315.92 3.81578 -1.86234 0
M  V30 3015 O 316.944 3.17083 -1.62287 0
M  V30 3016 O 315.803 4.97419 -2.26355 0
M  V30 3017 H 312.897 0.766756 -0.309862 0
M  V30 3018 H 315.443 1.13514 -1.26145 0
M  V30 3019 H 314.215 2.85494 -2.67598 0
M  V30 3020 H 313.838 3.7803 -1.23203 0
M  V30 3021 N 314.835 0.952656 1.25548 0
M  V30 3022 C 316.112 0.523818 1.88456 0
M  V30 3023 C 316.492 -0.998871 1.85973 0
M  V30 3024 O 315.84 -1.86381 1.3219 0
M  V30 3025 C 316.05 1.0982 3.31271 0
M  V30 3026 C 317.398 1.17385 4.08051 0
M  V30 3027 O 318.422 1.04961 3.40384 0
M  V30 3028 O 317.281 1.36852 5.29088 0
M  V30 3029 H 314.375 0.172485 0.808813 0
M  V30 3030 H 316.921 1.04596 1.33633 0
M  V30 3031 H 315.693 2.1415 3.27499 0
M  V30 3032 H 315.316 0.559191 3.93648 0
M  V30 3033 N 316.313 -1.40141 0.720998 0
M  V30 3034 C 317.59 -1.94677 0.189757 0
M  V30 3035 C 317.97 -1.65879 -1.30566 0
M  V30 3036 O 317.318 -0.979391 -2.06447 0
M  V30 3037 C 317.528 -3.45279 0.508304 0
M  V30 3038 C 318.876 -4.22209 0.449934 0
M  V30 3039 O 319.9 -3.53413 0.444677 0
M  V30 3040 O 318.759 -5.44788 0.432189 0
M  V30 3041 H 315.853 -0.826459 0.0299026 0
M  V30 3042 H 318.399 -1.49719 0.7989 0
M  V30 3043 H 317.171 -3.59619 1.54239 0
M  V30 3044 H 316.794 -3.97386 -0.130525 0
M  V30 3045 N 317.792 -0.46758 -1.50504 0
M  V30 3046 C 318.755 0.317059 -2.26996 0
M  V30 3047 C 319.755 0.923513 -1.31635 0
M  V30 3048 O 320.945 0.793239 -1.55091 0
M  V30 3049 C 318.077 1.45134 -3.08462 0
M  V30 3050 H 319.27 -0.353723 -2.97807 0
M  V30 3051 H 316.823 -0.221545 -1.54722 0
M  V30 3052 H 317.558 2.15728 -2.4214 0
M  V30 3053 H 317.343 1.02232 -3.78538 0
M  V30 3054 H 318.833 2.00493 -3.66323 0
M  V30 3055 N 319.27 1.56325 -0.20005 0
M  V30 3056 C 320.547 1.89484 0.48529 0
M  V30 3057 C 320.927 1.1143 1.79294 0
M  V30 3058 O 320.275 0.216919 2.27468 0
M  V30 3059 C 320.485 3.41923 0.699243 0
M  V30 3060 C 321.833 4.12256 1.01638 0
M  V30 3061 O 322.857 3.47402 0.786792 0
M  V30 3062 O 321.716 5.26887 1.45095 0
M  V30 3063 H 318.81 0.787144 0.253639 0
M  V30 3064 H 321.356 1.67985 -0.240633 0
M  V30 3065 H 320.128 3.90658 -0.224008 0
M  V30 3066 H 319.751 3.69131 1.47744 0
M  V30 3067 N 320.748 -0.0735177 1.57428 0
M  V30 3068 C 321.988 -0.778363 1.89 0
M  V30 3069 C 322.352 -1.7483 0.793634 0
M  V30 3070 O 323.553 -2.49811 0.992367 0
M  V30 3071 C 321.824 -1.46929 3.25802 0
M  V30 3072 S 323.383 -2.20943 3.79117 0
M  V30 3073 H 320.201 -0.258874 0.662197 0
M  V30 3074 H 322.803 -0.0345338 1.95469 0
M  V30 3075 H 321.507 -0.749532 4.03497 0
M  V30 3076 H 321.038 -2.25258 3.22525 0
M  V30 3077 H 323.053 -3.47435 3.54265 0
M  V30 3078 N 322.226 -1.5378 -0.344866 0
M  V30 3079 C 323.451 -1.75211 -1.10977 0
M  V30 3080 C 323.876 -0.48936 -1.81623 0
M  V30 3081 O 323.234 0.557925 -1.72502 0
M  V30 3082 C 323.282 -2.93147 -2.09993 0
M  V30 3083 O 322.386 -2.63203 -3.17487 0
M  V30 3084 H 321.727 -0.581241 -0.321021 0
M  V30 3085 H 324.257 -2.00738 -0.395661 0
M  V30 3086 H 324.267 -3.19898 -2.53237 0
M  V30 3087 H 322.942 -3.84731 -1.5797 0
M  V30 3088 H 321.519 -2.47336 -2.79069 0
M  V30 3089 N 323.704 0.605807 -1.45491 0
M  V30 3090 C 324.981 1.36522 -1.40075 0
M  V30 3091 C 325.361 2.10976 -0.0722744 0
M  V30 3092 O 324.709 2.08007 0.945808 0
M  V30 3093 C 324.919 2.31056 -2.61561 0
M  V30 3094 C 326.267 2.93608 -3.06724 0
M  V30 3095 O 327.291 2.41376 -2.61946 0
M  V30 3096 O 326.15 3.88421 -3.84437 0
M  V30 3097 H 323.244 0.612248 -0.555951 0
M  V30 3098 H 325.79 0.628747 -1.57623 0
M  V30 3099 H 324.562 1.75311 -3.49831 0
M  V30 3100 H 324.185 3.12081 -2.46356 0
M  V30 3101 N 325.182 1.32811 0.848464 0
M  V30 3102 C 326.114 1.18095 1.96433 0
M  V30 3103 C 327.127 0.114354 1.62398 0
M  V30 3104 O 328.316 0.363892 1.74751 0
M  V30 3105 C 325.416 0.786798 3.2964 0
M  V30 3106 C 324.589 1.943 3.91875 0
M  V30 3107 C 323.648 1.53138 5.03423 0
M  V30 3108 O 322.674 2.24432 5.23086 0
M  V30 3109 N 323.876 0.430915 5.78898 0
M  V30 3110 H 326.641 2.14218 2.09597 0
M  V30 3111 H 324.202 1.2543 1.02367 0
M  V30 3112 H 326.194 0.493715 4.01677 0
M  V30 3113 H 324.764 -0.0834541 3.12489 0
M  V30 3114 H 323.984 2.40224 3.12547 0
M  V30 3115 H 325.272 2.71689 4.30189 0
M  V30 3116 H 324.67 -0.162333 5.65467 0
M  V30 3117 H 323.227 0.197466 6.51501 0
M  V30 3118 N 326.66 -1.06551 1.16123 0
M  V30 3119 C 327.885 -1.83544 0.965735 0
M  V30 3120 C 328.31 -1.81843 -0.481102 0
M  V30 3121 O 327.668 -1.21732 -1.34354 0
M  V30 3122 C 327.716 -3.28169 1.49457 0
M  V30 3123 O 326.82 -4.0643 0.699157 0
M  V30 3124 H 326.161 -0.568026 0.343864 0
M  V30 3125 H 328.691 -1.34362 1.54299 0
M  V30 3126 H 328.701 -3.78992 1.51092 0
M  V30 3127 H 327.376 -3.28722 2.54784 0
M  V30 3128 H 325.953 -3.65216 0.7531 0
M  V30 3129 N 328.138 -0.959301 -1.25041 0
M  V30 3130 C 329.415 -0.533805 -1.88175 0
M  V30 3131 C 329.795 0.988994 -1.865 0
M  V30 3132 O 329.143 1.85677 -1.33177 0
M  V30 3133 C 329.353 -1.11575 -3.30684 0
M  V30 3134 C 330.701 -1.19548 -4.07423 0
M  V30 3135 O 331.725 -1.06765 -3.39823 0
M  V30 3136 O 330.584 -1.39656 -5.28354 0
M  V30 3137 H 327.678 -0.176772 -0.807887 0
M  V30 3138 H 330.224 -1.05303 -1.33076 0
M  V30 3139 H 328.996 -2.15884 -3.26358 0
M  V30 3140 H 328.619 -0.580059 -3.93346 0
M  V30 3141 N 329.616 1.39756 -0.72842 0
M  V30 3142 C 330.526 2.34444 -0.0855374 0
M  V30 3143 C 331.542 1.57976 0.729356 0
M  V30 3144 O 332.718 1.90301 0.659346 0
M  V30 3145 C 329.783 3.36965 0.815798 0
M  V30 3146 C 328.844 4.29299 -0.0105996 0
M  V30 3147 C 328.077 5.26923 0.84781 0
M  V30 3148 O 328.3 5.30859 2.08673 0
M  V30 3149 O 327.234 6.01249 0.279969 0
M  V30 3150 H 331.06 2.91065 -0.866892 0
M  V30 3151 H 328.645 1.4117 -0.48902 0
M  V30 3152 H 330.527 3.99804 1.33171 0
M  V30 3153 H 329.202 2.82739 1.57608 0
M  V30 3154 H 328.109 3.69703 -0.571877 0
M  V30 3155 H 329.442 4.86712 -0.73295 0
M  V30 3156 N 331.094 0.475555 1.50254 0
M  V30 3157 C 332.319 -0.0777042 2.07254 0
M  V30 3158 C 332.744 -1.3235 1.3366 0
M  V30 3159 O 332.102 -1.77152 0.385597 0
M  V30 3160 C 332.15 -0.340169 3.58992 0
M  V30 3161 O 331.254 -1.41982 3.87188 0
M  V30 3162 H 330.595 0.0149556 0.663832 0
M  V30 3163 H 333.125 0.667878 1.93392 0
M  V30 3164 H 333.135 -0.579332 4.03866 0
M  V30 3165 H 331.81 0.570167 4.11973 0
M  V30 3166 H 330.387 -1.16762 3.54148 0
M  V30 3167 N 332.573 -1.56217 0.208337 0
M  V30 3168 C 333.503 -2.22694 -0.702116 0
M  V30 3169 C 334.484 -1.19432 -1.2112 0
M  V30 3170 O 335.669 -1.47978 -1.25762 0
M  V30 3171 C 332.799 -2.8966 -1.9161 0
M  V30 3172 C 331.753 -3.9928 -1.5414 0
M  V30 3173 C 331.079 -4.53476 -2.83308 0
M  V30 3174 C 332.379 -5.17012 -0.741339 0
M  V30 3175 H 334.073 -2.99034 -0.147898 0
M  V30 3176 H 331.619 -1.43831 -0.0696951 0
M  V30 3177 H 333.572 -3.34852 -2.55836 0
M  V30 3178 H 332.296 -2.10746 -2.49507 0
M  V30 3179 H 330.955 -3.54799 -0.922668 0
M  V30 3180 H 330.603 -3.71308 -3.39322 0
M  V30 3181 H 330.303 -5.27451 -2.58976 0
M  V30 3182 H 331.827 -5.01378 -3.485 0
M  V30 3183 H 333.241 -5.58667 -1.28699 0
M  V30 3184 H 331.638 -5.97137 -0.595627 0
M  V30 3185 H 332.708 -4.8423 0.254851 0
M  V30 3186 N 334.051 0.0651679 -1.57465 0
M  V30 3187 C 334.961 1.09448 -2.07505 0
M  V30 3188 C 335.977 1.41974 -1.00595 0
M  V30 3189 O 337.153 1.52018 -1.32107 0
M  V30 3190 C 334.218 2.38689 -2.51453 0
M  V30 3191 C 333.279 2.13073 -3.72691 0
M  V30 3192 C 332.512 3.36152 -4.14533 0
M  V30 3193 O 332.735 4.45517 -3.56189 0
M  V30 3194 O 331.669 3.23974 -5.07272 0
M  V30 3195 H 335.495 0.69935 -2.95538 0
M  V30 3196 H 333.08 0.279752 -1.46757 0
M  V30 3197 H 334.962 3.14736 -2.80212 0
M  V30 3198 H 333.637 2.77568 -1.66546 0
M  V30 3199 H 332.544 1.34709 -3.49005 0
M  V30 3200 H 333.877 1.79071 -4.5847 0
M  V30 3201 N 335.529 1.53961 0.336706 0
M  V30 3202 C 336.461 1.78751 1.4346 0
M  V30 3203 C 337.474 0.669019 1.48418 0
M  V30 3204 O 338.663 0.945884 1.51378 0
M  V30 3205 C 335.763 1.87844 2.82078 0
M  V30 3206 C 334.936 3.17854 3.00479 0
M  V30 3207 C 333.995 3.17816 4.19379 0
M  V30 3208 O 333.021 3.91511 4.13168 0
M  V30 3209 N 334.223 2.40669 5.2826 0
M  V30 3210 H 336.988 2.73493 1.22563 0
M  V30 3211 H 334.549 1.53096 0.526625 0
M  V30 3212 H 336.541 1.85261 3.59806 0
M  V30 3213 H 335.111 1.00257 2.96086 0
M  V30 3214 H 334.331 3.33504 2.10163 0
M  V30 3215 H 335.619 4.03718 3.0966 0
M  V30 3216 H 335.017 1.8036 5.36178 0
M  V30 3217 H 333.574 2.43877 6.04456 0
M  V30 3218 N 337.007 -0.598083 1.45811 0
M  V30 3219 C 338.247 -1.36802 1.5187 0
M  V30 3220 C 338.611 -1.9133 0.160224 0
M  V30 3221 O 339.812 -2.6863 0.0955302 0
M  V30 3222 C 338.083 -2.47835 2.57513 0
M  V30 3223 S 339.642 -3.35458 2.82866 0
M  V30 3224 H 336.46 -0.466278 0.536755 0
M  V30 3225 H 339.062 -0.689152 1.82951 0
M  V30 3226 H 337.766 -2.06141 3.54872 0
M  V30 3227 H 337.297 -3.20512 2.28114 0
M  V30 3228 H 339.312 -4.46251 2.16967 0
M  V30 3229 N 338.485 -1.33259 -0.841409 0
M  V30 3230 C 339.733 -1.24326 -1.59334 0
M  V30 3231 C 340.054 0.191564 -1.94057 0
M  V30 3232 O 339.324 1.11967 -1.60749 0
M  V30 3233 H 337.904 -0.457174 -0.590763 0
M  V30 3234 H 340.566 -1.66947 -1.00571 0
M  V30 3235 H 339.662 -1.8352 -2.52442 0
M  V30 3236 N 339.963 1.05934 -1.16686 0
M  V30 3237 C 341.379 1.30938 -0.912542 0
M  V30 3238 C 341.579 1.96803 0.432533 0
M  V30 3239 O 340.635 2.23693 1.17123 0
M  V30 3240 C 341.948 2.18649 -2.06429 0
M  V30 3241 C 343.496 2.32055 -2.10047 0
M  V30 3242 C 343.971 3.23122 -3.24586 0
M  V30 3243 N 345.462 3.30706 -3.24327 0
M  V30 3244 C 346.197 4.01273 -4.09594 0
M  V30 3245 N 345.693 4.74332 -5.04956 0
M  V30 3246 N 347.486 3.97361 -3.97569 0
M  V30 3247 H 339.637 0.615777 -2.03278 0
M  V30 3248 H 341.9 0.334077 -0.887185 0
M  V30 3249 H 341.606 1.77534 -3.03603 0
M  V30 3250 H 341.48 3.19252 -2.00894 0
M  V30 3251 H 343.867 2.72415 -1.13464 0
M  V30 3252 H 343.948 1.31107 -2.19647 0
M  V30 3253 H 343.592 2.83477 -4.2143 0
M  V30 3254 H 343.522 4.24057 -3.12223 0
M  V30 3255 H 346.013 2.78644 -2.55276 0
M  V30 3256 H 346.326 5.25716 -5.6643 0
M  V30 3257 H 344.671 4.733 -5.08933 0
M  V30 3258 H 347.862 3.39405 -3.22369 0
M  V30 3259 H 348.035 4.52089 -4.64241 0
M  V30 3260 N 341.441 0.965919 1.2453 0
M  V30 3261 C 342.373 0.452465 2.2469 0
M  V30 3262 C 343.386 -0.437821 1.56802 0
M  V30 3263 O 344.575 -0.244283 1.76821 0
M  V30 3264 C 341.675 -0.366258 3.36915 0
M  V30 3265 C 340.848 0.513701 4.34373 0
M  V30 3266 C 339.907 -0.248716 5.25612 0
M  V30 3267 O 338.933 0.356745 5.68081 0
M  V30 3268 N 340.135 -1.53877 5.59734 0
M  V30 3269 H 342.9 1.31361 2.69378 0
M  V30 3270 H 340.461 0.837541 1.38553 0
M  V30 3271 H 342.453 -0.884297 3.94921 0
M  V30 3272 H 341.023 -1.12832 2.91526 0
M  V30 3273 H 340.243 1.21273 3.75082 0
M  V30 3274 H 341.531 1.11391 4.96457 0
M  V30 3275 H 340.929 -2.05243 5.27154 0
M  V30 3276 H 339.486 -2.00254 6.20275 0
M  V30 3277 N 342.919 -1.39368 0.735821 0
M  V30 3278 C 344.33 -1.83313 0.354015 0
M  V30 3279 C 344.681 -1.61461 -1.11466 0
M  V30 3280 O 343.806 -1.10621 -1.85989 0
M  V30 3281 C 344.401 -3.32781 0.635769 0
M  V30 3282 C 342.96 -3.75142 0.307448 0
M  V30 3283 C 342.107 -2.62358 0.897974 0
M  V30 3284 H 345.058 -1.28349 0.933398 0
M  V30 3285 H 345.079 -3.80388 -0.0921773 0
M  V30 3286 H 344.591 -3.48654 1.70476 0
M  V30 3287 H 342.692 -3.64857 -0.755674 0
M  V30 3288 H 342.805 -4.72532 0.790583 0
M  V30 3289 H 341.169 -2.52624 0.324551 0
M  V30 3290 H 341.952 -2.81036 1.97164 0
M  V30 3291 N 344.397 -0.483516 -1.5 0
M  V30 3292 C 345.643 0.0672592 -2.02688 0
M  V30 3293 C 345.976 1.38247 -1.36387 0
M  V30 3294 O 345.251 1.88131 -0.493675 0
M  V30 3295 C 345.534 0.238109 -3.59312 0
M  V30 3296 C 345.387 -1.099 -4.36168 0
M  V30 3297 C 346.706 0.986916 -4.28892 0
M  V30 3298 H 343.825 0.0229696 -0.736642 0
M  V30 3299 H 346.467 -0.631527 -1.79197 0
M  V30 3300 H 344.617 0.8333 -3.79458 0
M  V30 3301 H 346.289 -1.73172 -4.27562 0
M  V30 3302 H 344.532 -1.69261 -3.99416 0
M  V30 3303 H 345.203 -0.932954 -5.44059 0
M  V30 3304 H 347.679 0.482302 -4.13295 0
M  V30 3305 H 346.555 1.07527 -5.38265 0
M  V30 3306 H 346.816 2.0265 -3.92919 0
M  V30 3307 N 345.875 1.56104 -0.216619 0
M  V30 3308 C 347.124 1.97348 0.416744 0
M  V30 3309 C 347.437 1.10715 1.6125 0
M  V30 3310 O 348.643 1.41836 2.31506 0
M  V30 3311 C 347.099 3.51059 0.792835 0
M  V30 3312 C 346.707 4.46387 -0.379828 0
M  V30 3313 C 348.451 4.01026 1.39208 0
M  V30 3314 C 346.358 5.91397 0.0184223 0
M  V30 3315 H 345.288 0.736942 0.159475 0
M  V30 3316 H 347.939 1.80827 -0.31205 0
M  V30 3317 H 346.321 3.63162 1.57891 0
M  V30 3318 H 347.495 4.46029 -1.15737 0
M  V30 3319 H 345.81 4.06734 -0.891979 0
M  V30 3320 H 348.407 5.0686 1.70286 0
M  V30 3321 H 348.75 3.46587 2.30614 0
M  V30 3322 H 349.283 3.92125 0.669537 0
M  V30 3323 H 346.022 6.49807 -0.862002 0
M  V30 3324 H 345.542 5.94961 0.760384 0
M  V30 3325 H 347.221 6.45455 0.446818 0
M  V30 3326 N 347.353 -0.0568162 1.57498 0
M  V30 3327 C 348.303 -1.07315 2.01166 0
M  V30 3328 C 349.287 -1.33632 0.896171 0
M  V30 3329 O 350.479 -1.33682 1.16009 0
M  V30 3330 C 347.608 -2.38257 2.47161 0
M  V30 3331 C 346.694 -2.1515 3.65474 0
M  V30 3332 N 347.085 -1.62014 4.7915 0
M  V30 3333 C 345.383 -2.45559 3.72313 0
M  V30 3334 C 346.084 -1.54069 5.60926 0
M  V30 3335 N 345.06 -2.00652 5.05213 0
M  V30 3336 H 348.862 -0.655878 2.86488 0
M  V30 3337 H 346.376 -0.263635 1.60246 0
M  V30 3338 H 348.373 -3.11845 2.76691 0
M  V30 3339 H 347.033 -2.80687 1.63232 0
M  V30 3340 H 348.044 -1.30667 5.01145 0
M  V30 3341 H 344.721 -2.91253 2.99129 0
M  V30 3342 H 346.111 -1.13712 6.62208 0
M  V30 3343 N 348.832 -1.54138 -0.328536 0
M  V30 3344 C 350.06 -1.76062 -1.08673 0
M  V30 3345 C 350.475 -0.506852 -1.81869 0
M  V30 3346 O 349.832 0.522223 -1.74869 0
M  V30 3347 C 349.883 -2.95054 -2.08866 0
M  V30 3348 O 349.604 -4.15583 -1.38644 0
M  V30 3349 C 351.105 -3.2915 -2.96943 0
M  V30 3350 H 348.325 -0.587889 -0.323461 0
M  V30 3351 H 350.869 -2.0101 -0.376175 0
M  V30 3352 H 349.024 -2.72394 -2.75464 0
M  V30 3353 H 349.438 -4.82481 -2.05699 0
M  V30 3354 H 350.912 -4.15723 -3.63151 0
M  V30 3355 H 351.389 -2.461 -3.63774 0
M  V30 3356 H 351.995 -3.53871 -2.35914 0
M  V30 3357 N 350.31 0.590341 -1.46126 0
M  V30 3358 C 351.257 1.69994 -1.56111 0
M  V30 3359 C 352.227 1.61065 -0.405867 0
M  V30 3360 O 353.412 1.8039 -0.621613 0
M  V30 3361 C 350.552 3.08326 -1.55013 0
M  V30 3362 C 349.665 3.27936 -2.81215 0
M  V30 3363 C 348.8 4.56473 -2.71673 0
M  V30 3364 C 347.839 4.694 -3.92849 0
M  V30 3365 N 346.976 5.89254 -3.81738 0
M  V30 3366 H 351.816 1.60797 -2.50895 0
M  V30 3367 H 349.353 0.783799 -1.24479 0
M  V30 3368 H 351.311 3.88383 -1.52362 0
M  V30 3369 H 349.941 3.16439 -0.637667 0
M  V30 3370 H 348.993 2.41536 -2.93879 0
M  V30 3371 H 350.305 3.33357 -3.71045 0
M  V30 3372 H 349.459 5.44748 -2.67085 0
M  V30 3373 H 348.198 4.53477 -1.7947 0
M  V30 3374 H 347.203 3.79544 -3.97777 0
M  V30 3375 H 348.428 4.7418 -4.86138 0
M  V30 3376 H 346.374 5.87271 -2.92317 0
M  V30 3377 H 346.291 5.95911 -4.65217 0
M  V30 3378 H 347.559 6.79981 -3.81112 0
M  V30 3379 N 351.788 1.33704 0.83433 0
M  V30 3380 C 353.028 1.26754 1.60352 0
M  V30 3381 C 353.392 -0.163182 1.91305 0
M  V30 3382 O 354.593 -0.3567 2.66423 0
M  V30 3383 C 352.864 2.12262 2.8754 0
M  V30 3384 S 354.423 2.22549 3.78176 0
M  V30 3385 H 351.241 0.450879 0.549753 0
M  V30 3386 H 353.843 1.68788 0.986444 0
M  V30 3387 H 352.547 3.15238 2.62779 0
M  V30 3388 H 352.078 1.71082 3.54252 0
M  V30 3389 H 354.093 1.3899 4.76336 0
M  V30 3390 N 353.266 -1.05314 1.17247 0
M  V30 3391 C 354.677 -1.59753 0.96623 0
M  V30 3392 C 355.028 -1.9005 -0.487378 0
M  V30 3393 O 354.153 -1.68126 -1.36245 0
M  V30 3394 C 354.748 -2.90249 1.74759 0
M  V30 3395 C 353.307 -3.41352 1.58606 0
M  V30 3396 C 352.454 -2.15103 1.75002 0
M  V30 3397 H 355.405 -0.881406 1.31973 0
M  V30 3398 H 355.426 -3.60097 1.22925 0
M  V30 3399 H 354.938 -2.68166 2.8055 0
M  V30 3400 H 353.039 -3.68474 0.552985 0
M  V30 3401 H 353.152 -4.16019 2.37624 0
M  V30 3402 H 351.516 -2.25804 1.17833 0
M  V30 3403 H 352.299 -1.95491 2.82202 0
M  V30 3404 N 354.744 -0.972509 -1.24016 0
M  V30 3405 C 355.707 -0.511403 -2.23422 0
M  V30 3406 C 356.707 0.394679 -1.55881 0
M  V30 3407 O 357.897 0.189469 -1.73167 0
M  V30 3408 C 355.029 0.258769 -3.39916 0
M  V30 3409 H 356.222 -1.39024 -2.6573 0
M  V30 3410 H 353.775 -0.757585 -1.36713 0
M  V30 3411 H 354.51 1.1545 -3.03054 0
M  V30 3412 H 354.295 -0.391522 -3.9014 0
M  V30 3413 H 355.785 0.570244 -4.13688 0
M  V30 3414 N 356.222 1.38976 -0.743202 0
M  V30 3415 C 357.447 2.05161 -0.303936 0
M  V30 3416 C 357.872 1.55677 1.05576 0
M  V30 3417 O 357.23 0.704131 1.67068 0
M  V30 3418 C 357.278 3.59138 -0.324373 0
M  V30 3419 O 356.382 4.06668 0.685204 0
M  V30 3420 H 355.723 0.649815 -0.136518 0
M  V30 3421 H 358.253 1.77852 -1.01142 0
M  V30 3422 H 358.263 4.07639 -0.171618 0
M  V30 3423 H 356.938 3.94515 -1.31647 0
M  V30 3424 H 355.515 3.69561 0.497913 0
M  V30 3425 N 357.7 0.491464 1.49741 0
M  V30 3426 C 358.61 -0.296835 2.32715 0
M  V30 3427 C 359.626 -0.976536 1.44013 0
M  V30 3428 O 360.802 -0.960023 1.77047 0
M  V30 3429 C 357.867 -1.35288 3.19215 0
M  V30 3430 C 356.928 -0.687632 4.23757 0
M  V30 3431 C 356.161 -1.69336 5.06123 0
M  V30 3432 O 356.384 -2.92219 4.89861 0
M  V30 3433 O 355.318 -1.25394 5.88693 0
M  V30 3434 H 359.144 0.382048 3.01287 0
M  V30 3435 H 356.729 0.252953 1.47243 0
M  V30 3436 H 358.611 -1.96411 3.72828 0
M  V30 3437 H 357.286 -2.01487 2.53347 0
M  V30 3438 H 356.193 -0.0369159 3.74082 0
M  V30 3439 H 357.526 -0.0682566 4.92153 0
M  V30 3440 N 359.178 -1.55987 0.224894 0
M  V30 3441 C 360.427 -1.97566 -0.406273 0
M  V30 3442 C 360.74 -1.11569 -1.6066 0
M  V30 3443 O 361.946 -1.43062 -2.3075 0
M  V30 3444 C 360.402 -3.51474 -0.774207 0
M  V30 3445 C 360.01 -4.46179 0.403496 0
M  V30 3446 C 361.754 -4.01758 -1.37079 0
M  V30 3447 C 359.661 -5.91399 0.0129412 0
M  V30 3448 H 358.591 -0.737777 -0.155565 0
M  V30 3449 H 361.242 -1.80659 0.321635 0
M  V30 3450 H 359.624 -3.63994 -1.55963 0
M  V30 3451 H 360.798 -4.45409 1.18101 0
M  V30 3452 H 359.113 -4.06255 0.913536 0
M  V30 3453 H 361.71 -5.07756 -1.67596 0
M  V30 3454 H 362.053 -3.47805 -2.28773 0
M  V30 3455 H 362.586 -3.92475 -0.648733 0
M  V30 3456 H 359.325 -6.49341 0.896451 0
M  V30 3457 H 358.845 -5.95356 -0.728821 0
M  V30 3458 H 360.524 -6.45683 -0.412582 0
M  V30 3459 N 360.656 0.0484629 -1.57525 0
M  V30 3460 C 361.588 1.08222 -2.02041 0
M  V30 3461 C 362.601 1.33621 -0.930012 0
M  V30 3462 O 363.79 1.3145 -1.20761 0
M  V30 3463 C 360.89 2.42818 -2.36416 0
M  V30 3464 C 360.063 2.37049 -3.67596 0
M  V30 3465 C 359.122 3.53937 -3.89378 0
M  V30 3466 O 358.148 3.34308 -4.60681 0
M  V30 3467 N 359.35 4.75126 -3.3352 0
M  V30 3468 H 362.115 0.702946 -2.9134 0
M  V30 3469 H 359.676 0.236745 -1.6016 0
M  V30 3470 H 361.668 3.197 -2.48141 0
M  V30 3471 H 360.238 2.72661 -1.52888 0
M  V30 3472 H 359.458 1.45395 -3.66407 0
M  V30 3473 H 360.746 2.30318 -4.53686 0
M  V30 3474 H 360.144 4.93976 -2.75688 0
M  V30 3475 H 358.701 5.49439 -3.50656 0
M  V30 3476 N 362.134 1.5431 0.320358 0
M  V30 3477 C 363.374 1.74395 1.0661 0
M  V30 3478 C 363.738 0.508602 1.85141 0
M  V30 3479 O 364.939 0.586856 2.62316 0
M  V30 3480 C 363.21 2.98619 1.96371 0
M  V30 3481 S 364.769 3.39621 2.77854 0
M  V30 3482 H 361.587 0.613204 0.359863 0
M  V30 3483 H 364.189 1.9249 0.341727 0
M  V30 3484 H 362.893 3.86673 1.3752 0
M  V30 3485 H 362.424 2.83055 2.73209 0
M  V30 3486 H 364.439 2.95172 3.98858 0
M  V30 3487 N 363.613 -0.582584 1.46437 0
M  V30 3488 C 364.861 -1.33814 1.51453 0
M  V30 3489 C 365.182 -1.94277 0.167792 0
M  V30 3490 O 364.452 -1.78566 -0.805677 0
M  V30 3491 H 363.032 -0.496838 0.557818 0
M  V30 3492 H 365.694 -0.682281 1.82568 0
M  V30 3493 H 364.79 -2.14479 2.26728 0
M  V30 3494 N 365.091 -1.34144 -0.827227 0
M  V30 3495 C 366.316 -1.29476 -1.62021 0
M  V30 3496 C 366.741 0.129292 -1.87655 0
M  V30 3497 O 366.099 1.08967 -1.449 0
M  V30 3498 C 366.147 -2.08702 -2.94068 0
M  V30 3499 O 365.251 -1.45359 -3.85933 0
M  V30 3500 H 364.592 -0.444881 -0.492927 0
M  V30 3501 H 367.122 -1.76882 -1.02829 0
M  V30 3502 H 367.132 -2.19898 -3.43669 0
M  V30 3503 H 365.807 -3.12241 -2.74734 0
M  V30 3504 H 364.384 -1.42879 -3.44442 0
M  V30 3505 N 366.569 1.04691 -1.17803 0
M  V30 3506 C 367.817 1.7743 -0.967617 0
M  V30 3507 C 368.138 1.88359 0.504574 0
M  V30 3508 O 367.408 1.40402 1.36617 0
M  V30 3509 H 365.988 0.657242 -0.355024 0
M  V30 3510 H 368.65 1.2638 -1.48371 0
M  V30 3511 H 367.746 2.78924 -1.40027 0
M  V30 3512 N 368.047 0.979072 1.23499 0
M  V30 3513 C 368.957 0.526431 2.28617 0
M  V30 3514 C 369.973 -0.418126 1.68901 0
M  V30 3515 O 371.149 -0.288372 1.99325 0
M  V30 3516 C 368.214 -0.165235 3.46306 0
M  V30 3517 C 367.275 0.82056 4.21385 0
M  V30 3518 C 366.508 0.161807 5.33455 0
M  V30 3519 O 366.731 -1.04742 5.60701 0
M  V30 3520 O 365.665 0.859708 5.95729 0
M  V30 3521 H 369.491 1.4006 2.69475 0
M  V30 3522 H 367.076 0.746643 1.29405 0
M  V30 3523 H 368.958 -0.553287 4.17752 0
M  V30 3524 H 367.633 -1.01419 3.07402 0
M  V30 3525 H 366.54 1.25929 3.52268 0
M  V30 3526 H 367.873 1.63828 4.64135 0
M  V30 3527 N 369.525 -1.3858 0.750561 0
M  V30 3528 C 370.765 -2.02032 0.310258 0
M  V30 3529 C 371.129 -1.58288 -1.08668 0
M  V30 3530 O 372.33 -2.14049 -1.62593 0
M  V30 3531 C 370.601 -3.54856 0.425647 0
M  V30 3532 S 372.16 -4.38748 0.0674797 0
M  V30 3533 H 368.978 -0.700705 0.120554 0
M  V30 3534 H 371.58 -1.69134 0.980512 0
M  V30 3535 H 370.284 -3.84182 1.44335 0
M  V30 3536 H 369.815 -3.92527 -0.261894 0
M  V30 3537 H 371.83 -4.82835 -1.14388 0
M  V30 3538 N 371.003 -0.499398 -1.49478 0
M  V30 3539 C 372.252 0.0475259 -2.01644 0
M  V30 3540 C 372.565 1.38195 -1.38425 0
M  V30 3541 O 373.771 2.01547 -1.8191 0
M  V30 3542 C 372.227 0.135164 -3.59646 0
M  V30 3543 C 371.835 -1.19252 -4.31837 0
M  V30 3544 C 373.579 0.632538 -4.19761 0
M  V30 3545 C 371.486 -1.06713 -5.81693 0
M  V30 3546 H 370.416 0.0215349 -0.753692 0
M  V30 3547 H 373.067 -0.638577 -1.7203 0
M  V30 3548 H 371.449 0.885681 -3.85969 0
M  V30 3549 H 372.623 -1.9562 -4.17216 0
M  V30 3550 H 370.938 -1.62321 -3.83459 0
M  V30 3551 H 373.535 0.743833 -5.29501 0
M  V30 3552 H 373.878 1.63098 -3.83021 0
M  V30 3553 H 374.411 -0.0613987 -3.97753 0
M  V30 3554 H 371.15 -2.03979 -6.22955 0
M  V30 3555 H 370.67 -0.344307 -5.98811 0
M  V30 3556 H 372.349 -0.745208 -6.42694 0
M  V30 3557 N 372.481 1.55866 -0.233164 0
M  V30 3558 C 373.431 2.17442 0.685774 0
M  V30 3559 C 374.415 1.12617 1.14918 0
M  V30 3560 O 375.607 1.3857 1.10124 0
M  V30 3561 C 372.736 2.86685 1.88856 0
M  V30 3562 C 371.822 3.98749 1.4443 0
M  V30 3563 N 372.213 5.00744 0.713364 0
M  V30 3564 C 370.511 4.11052 1.73068 0
M  V30 3565 C 371.212 5.79673 0.485205 0
M  V30 3566 N 370.188 5.33454 1.04536 0
M  V30 3567 H 373.99 2.93659 0.119022 0
M  V30 3568 H 371.504 1.62362 -0.0348995 0
M  V30 3569 H 373.501 3.29218 2.55776 0
M  V30 3570 H 372.161 2.11967 2.45967 0
M  V30 3571 H 373.172 5.16613 0.364861 0
M  V30 3572 H 369.849 3.47495 2.31416 0
M  V30 3573 H 371.239 6.71829 -0.097365 0
M  V30 3574 N 373.959 -0.0401083 1.57549 0
M  V30 3575 C 374.906 -1.04413 2.05831 0
M  V30 3576 C 375.876 -1.36585 0.945184 0
M  V30 3577 O 377.061 -1.47112 1.21502 0
M  V30 3578 C 374.201 -2.34336 2.53339 0
M  V30 3579 C 373.314 -2.08419 3.78398 0
M  V30 3580 C 372.449 -3.32133 4.14561 0
M  V30 3581 C 371.488 -3.01721 5.3257 0
M  V30 3582 N 370.625 -4.17855 5.64218 0
M  V30 3583 H 375.465 -0.625442 2.91363 0
M  V30 3584 H 373.002 -0.297218 1.44066 0
M  V30 3585 H 374.96 -3.10234 2.78946 0
M  V30 3586 H 373.59 -2.73948 1.7074 0
M  V30 3587 H 372.642 -1.23069 3.59942 0
M  V30 3588 H 373.954 -1.81978 4.64419 0
M  V30 3589 H 373.108 -4.16406 4.41238 0
M  V30 3590 H 371.847 -3.61678 3.2717 0
M  V30 3591 H 370.852 -2.15849 5.05657 0
M  V30 3592 H 372.077 -2.73466 6.21605 0
M  V30 3593 H 370.023 -4.47372 4.79786 0
M  V30 3594 H 369.94 -3.94798 6.44725 0
M  V30 3595 H 371.208 -5.03033 5.95465 0
M  V30 3596 N 375.437 -1.54477 -0.31217 0
M  V30 3597 C 376.384 -1.84655 -1.38461 0
M  V30 3598 C 377.354 -0.694536 -1.50882 0
M  V30 3599 O 378.539 -0.942081 -1.6592 0
M  V30 3600 C 375.679 -2.0896 -2.74645 0
M  V30 3601 C 374.792 -3.36618 -2.70763 0
M  V30 3602 C 373.927 -3.50824 -3.98868 0
M  V30 3603 C 372.966 -4.72315 -3.89339 0
M  V30 3604 N 372.103 -4.83387 -5.09197 0
M  V30 3605 H 376.943 -2.76142 -1.12026 0
M  V30 3606 H 374.48 -1.36748 -0.542065 0
M  V30 3607 H 376.438 -2.21045 -3.53829 0
M  V30 3608 H 375.068 -1.20752 -2.99364 0
M  V30 3609 H 374.12 -3.33211 -1.83506 0
M  V30 3610 H 375.432 -4.25917 -2.59608 0
M  V30 3611 H 374.586 -3.62513 -4.86486 0
M  V30 3612 H 373.325 -2.59638 -4.12843 0
M  V30 3613 H 372.33 -4.6067 -3.00105 0
M  V30 3614 H 373.555 -5.64897 -3.76919 0
M  V30 3615 H 371.501 -3.9512 -5.23657 0
M  V30 3616 H 371.418 -5.66669 -5.00422 0
M  V30 3617 H 372.686 -4.9942 -5.98498 0
M  V30 3618 N 376.915 0.57481 -1.46744 0
M  V30 3619 C 378.161 1.33251 -1.53674 0
M  V30 3620 C 378.516 1.91468 -0.189125 0
M  V30 3621 O 377.809 1.73954 0.803151 0
M  V30 3622 C 378.003 2.476 -2.57738 0
M  V30 3623 C 377.832 2.00586 -4.02487 0
M  V30 3624 C 376.602 1.85237 -4.70123 0
M  V30 3625 C 378.8 1.56078 -4.90045 0
M  V30 3626 N 376.782 1.32377 -5.99458 0
M  V30 3627 C 378.153 1.14863 -6.09267 0
M  V30 3628 C 380.208 1.43968 -4.76632 0
M  V30 3629 C 378.911 0.627435 -7.16558 0
M  V30 3630 C 380.937 0.932512 -5.84002 0
M  V30 3631 C 380.299 0.53019 -7.02402 0
M  V30 3632 H 376.398 0.480284 -0.617131 0
M  V30 3633 H 378.982 0.653592 -1.83402 0
M  V30 3634 H 377.153 3.13045 -2.29907 0
M  V30 3635 H 378.885 3.14567 -2.54616 0
M  V30 3636 H 375.64 2.07423 -4.25761 0
M  V30 3637 H 376.064 1.08085 -6.68316 0
M  V30 3638 H 380.706 1.73689 -3.85476 0
M  V30 3639 H 378.424 0.317821 -8.07475 0
M  V30 3640 H 382.01 0.842611 -5.75666 0
M  V30 3641 H 380.89 0.14381 -7.84068 0
M  V30 3642 N 378.394 1.34581 0.820102 0
M  V30 3643 C 379.81 1.14325 1.11364 0
M  V30 3644 C 380.01 -0.0533648 2.01429 0
M  V30 3645 O 379.066 -0.728044 2.41776 0
M  V30 3646 C 380.379 2.43983 1.75764 0
M  V30 3647 C 381.927 2.50065 1.88246 0
M  V30 3648 C 382.402 3.79732 2.56061 0
M  V30 3649 N 383.893 3.80908 2.63558 0
M  V30 3650 C 384.628 4.77961 3.16766 0
M  V30 3651 N 384.124 5.85397 3.70517 0
M  V30 3652 N 385.917 4.65413 3.15194 0
M  V30 3653 H 378.068 2.11246 0.221096 0
M  V30 3654 H 380.331 0.934289 0.160649 0
M  V30 3655 H 380.037 3.31651 1.1705 0
M  V30 3656 H 379.911 2.57531 2.75604 0
M  V30 3657 H 382.298 1.62834 2.46108 0
M  V30 3658 H 382.379 2.40442 0.873006 0
M  V30 3659 H 382.023 4.67354 1.98853 0
M  V30 3660 H 381.953 3.86639 3.57516 0
M  V30 3661 H 384.444 3.03274 2.25463 0
M  V30 3662 H 384.757 6.55463 4.09376 0
M  V30 3663 H 383.102 5.89107 3.68752 0
M  V30 3664 H 386.293 3.80627 2.72471 0
M  V30 3665 H 386.466 5.41216 3.56356 0
M  V30 3666 N 379.872 -1.04064 1.18357 0
M  V30 3667 C 381.112 -1.78829 0.989921 0
M  V30 3668 C 381.476 -1.86106 -0.472095 0
M  V30 3669 O 382.677 -2.57076 -0.785187 0
M  V30 3670 C 380.948 -3.1823 1.6268 0
M  V30 3671 S 382.507 -4.09332 1.58091 0
M  V30 3672 H 379.325 -0.615754 0.355482 0
M  V30 3673 H 381.927 -1.24778 1.50501 0
M  V30 3674 H 380.631 -3.10543 2.68311 0
M  V30 3675 H 380.162 -3.77357 1.112 0
M  V30 3676 H 382.177 -4.92598 0.596817 0
M  V30 3677 N 381.35 -0.985608 -1.22978 0
M  V30 3678 C 382.627 -0.573599 -1.87001 0
M  V30 3679 C 383.007 0.949213 -1.88555 0
M  V30 3680 O 382.355 1.82811 -1.37086 0
M  V30 3681 C 382.565 -1.18564 -3.28243 0
M  V30 3682 C 383.913 -1.28163 -4.04796 0
M  V30 3683 O 384.937 -1.13949 -3.37482 0
M  V30 3684 O 383.796 -1.50832 -5.25273 0
M  V30 3685 H 380.89 -0.193868 -0.803955 0
M  V30 3686 H 383.436 -1.08102 -1.30813 0
M  V30 3687 H 382.208 -2.22758 -3.21706 0
M  V30 3688 H 381.831 -0.663363 -3.92027 0
M  V30 3689 N 382.828 1.3818 -0.7579 0
M  V30 3690 C 384.076 1.99624 -0.315361 0
M  V30 3691 C 384.397 1.60464 1.10799 0
M  V30 3692 O 383.667 0.863507 1.75842 0
M  V30 3693 H 382.247 0.73831 -0.113611 0
M  V30 3694 H 384.909 1.68878 -0.972952 0
M  V30 3695 H 384.005 3.09754 -0.381931 0
M  V30 3696 N 384.306 0.507319 1.49211 0
M  V30 3697 C 385.583 -0.0982702 1.95353 0
M  V30 3698 C 385.963 -1.53516 1.449 0
M  V30 3699 O 385.311 -2.18594 0.66551 0
M  V30 3700 C 385.521 -0.00440283 3.49 0
M  V30 3701 C 386.869 -0.175147 4.24239 0
M  V30 3702 O 387.893 -0.0792891 3.56112 0
M  V30 3703 O 386.752 -0.37276 5.45227 0
M  V30 3704 H 383.846 -0.0918236 0.821887 0
M  V30 3705 H 386.392 0.570307 1.5983 0
M  V30 3706 H 385.164 0.997402 3.78375 0
M  V30 3707 H 384.787 -0.712845 3.91158 0
M  V30 3708 N 385.784 -1.5574 0.241426 0
M  V30 3709 C 387.195 -1.84842 -0.262755 0
M  V30 3710 C 387.546 -1.16317 -1.58003 0
M  V30 3711 O 386.671 -0.439653 -2.11887 0
M  V30 3712 C 387.266 -3.35332 -0.483523 0
M  V30 3713 C 385.825 -3.6468 -0.931977 0
M  V30 3714 C 384.972 -2.77299 -0.0061151 0
M  V30 3715 H 387.923 -1.51761 0.464129 0
M  V30 3716 H 387.944 -3.56615 -1.32688 0
M  V30 3717 H 387.456 -3.85178 0.47537 0
M  V30 3718 H 385.557 -3.20307 -1.90353 0
M  V30 3719 H 385.67 -4.72498 -0.792628 0
M  V30 3720 H 384.034 -2.49408 -0.516503 0
M  V30 3721 H 384.817 -3.2995 0.948052 0
M  V30 3722 N 387.262 0.0317525 -1.57568 0
M  V30 3723 C 388.539 0.758366 -1.803 0
M  V30 3724 C 388.919 1.93718 -0.838845 0
M  V30 3725 O 388.267 2.28187 0.119571 0
M  V30 3726 C 388.477 1.19392 -3.27943 0
M  V30 3727 C 389.825 1.61094 -3.92854 0
M  V30 3728 O 390.849 1.28857 -3.32076 0
M  V30 3729 O 389.708 2.20918 -4.99858 0
M  V30 3730 H 386.802 0.366514 -0.741348 0
M  V30 3731 H 389.348 0.00873765 -1.69698 0
M  V30 3732 H 388.12 0.352275 -3.89711 0
M  V30 3733 H 387.743 2.00365 -3.43424 0
M  V30 3734 N 388.74 1.54641 0.303973 0
M  V30 3735 C 389.98 1.75516 1.04755 0
M  V30 3736 C 390.344 0.528211 1.84591 0
M  V30 3737 O 391.545 0.614645 2.61678 0
M  V30 3738 C 389.816 3.00685 1.93193 0
M  V30 3739 S 391.375 3.42549 2.74237 0
M  V30 3740 H 388.193 0.616987 0.353339 0
M  V30 3741 H 390.795 1.92842 0.321292 0
M  V30 3742 H 389.499 3.8811 1.33411 0
M  V30 3743 H 389.03 2.85937 2.70191 0
M  V30 3744 H 391.045 2.99386 3.95705 0
M  V30 3745 N 390.218 -0.567019 1.47046 0
M  V30 3746 C 391.165 -1.67489 1.58796 0
M  V30 3747 C 392.135 -1.60399 0.43144 0
M  V30 3748 O 393.32 -1.79378 0.650233 0
M  V30 3749 C 390.46 -3.05821 1.59899 0
M  V30 3750 C 389.573 -3.2342 2.86397 0
M  V30 3751 C 388.708 -4.52093 2.789 0
M  V30 3752 C 387.747 -4.6309 4.00267 0
M  V30 3753 N 386.884 -5.83106 3.91064 0
M  V30 3754 H 391.724 -1.56785 2.53422 0
M  V30 3755 H 389.261 -0.763896 1.2571 0
M  V30 3756 H 391.219 -3.8591 1.58522 0
M  V30 3757 H 389.849 -3.15384 0.687929 0
M  V30 3758 H 388.901 -2.3683 2.97684 0
M  V30 3759 H 390.213 -3.27412 3.76301 0
M  V30 3760 H 389.367 -5.4043 2.75718 0
M  V30 3761 H 388.106 -4.50565 1.86662 0
M  V30 3762 H 387.111 -3.73168 4.03765 0
M  V30 3763 H 388.336 -4.66386 4.93621 0
M  V30 3764 H 386.282 -5.82546 3.01623 0
M  V30 3765 H 386.199 -5.88434 4.74638 0
M  V30 3766 H 387.467 -6.73831 3.91882 0
M  V30 3767 N 391.696 -1.35014 -0.812953 0
M  V30 3768 C 392.973 -1.18502 -1.55617 0
M  V30 3769 C 393.353 0.238421 -2.09749 0
M  V30 3770 O 392.701 1.2411 -1.91857 0
M  V30 3771 C 392.911 -2.24783 -2.66971 0
M  V30 3772 C 394.259 -2.60268 -3.35478 0
M  V30 3773 O 395.283 -2.23648 -2.77236 0
M  V30 3774 O 394.142 -3.2321 -4.40678 0
M  V30 3775 H 391.236 -0.459984 -0.687272 0
M  V30 3776 H 393.782 -1.46677 -0.853464 0
M  V30 3777 H 392.554 -3.20284 -2.24798 0
M  V30 3778 H 392.177 -1.97841 -3.44884 0
M  V30 3779 N 393.175 1.03435 -1.18907 0
M  V30 3780 C 394.423 1.76394 -0.986382 0
M  V30 3781 C 394.744 1.88883 0.484567 0
M  V30 3782 O 394.014 1.41843 1.3512 0
M  V30 3783 H 392.594 0.65344 -0.361975 0
M  V30 3784 H 395.256 1.248 -1.49703 0
M  V30 3785 H 394.352 2.77424 -1.42978 0
M  V30 3786 N 394.653 0.992116 1.22453 0
M  V30 3787 C 395.878 0.685644 1.95739 0
M  V30 3788 C 396.303 -0.743 1.72804 0
M  V30 3789 O 395.661 -1.50778 1.00676 0
M  V30 3790 C 395.709 0.996293 3.46564 0
M  V30 3791 O 394.813 0.0945512 4.12292 0
M  V30 3792 H 394.154 0.256694 0.612376 0
M  V30 3793 H 396.684 1.32888 1.5557 0
M  V30 3794 H 396.694 0.93781 3.97076 0
M  V30 3795 H 395.369 2.03733 3.62582 0
M  V30 3796 H 393.946 0.208451 3.72317 0
M  V30 3797 N 396.131 -1.37776 0.765217 0
M  V30 3798 C 397.408 -1.93975 0.251596 0
M  V30 3799 C 397.788 -1.69949 -1.25222 0
M  V30 3800 O 397.136 -1.04457 -2.03226 0
M  V30 3801 C 397.346 -3.43487 0.617895 0
M  V30 3802 C 398.694 -4.20564 0.584029 0
M  V30 3803 O 399.718 -3.5182 0.556888 0
M  V30 3804 O 398.577 -5.43138 0.605291 0
M  V30 3805 H 395.671 -0.82509 0.0561806 0
M  V30 3806 H 398.217 -1.47101 0.846128 0
M  V30 3807 H 396.989 -3.5453 1.65602 0
M  V30 3808 H 396.612 -3.976 -0.00403411 0
M  V30 3809 N 397.609 -0.515225 -1.4894 0
M  V30 3810 C 398.519 0.259774 -2.33157 0
M  V30 3811 C 399.535 0.953501 -1.45548 0
M  V30 3812 O 400.711 0.931735 -1.78552 0
M  V30 3813 C 397.776 1.30193 -3.21326 0
M  V30 3814 C 396.837 0.620129 -4.24797 0
M  V30 3815 C 396.07 1.61263 -5.08753 0
M  V30 3816 O 396.293 2.84389 -4.94448 0
M  V30 3817 O 395.227 1.16013 -5.90614 0
M  V30 3818 H 399.053 -0.429932 -3.00641 0
M  V30 3819 H 396.638 -0.276346 -1.46822 0
M  V30 3820 H 398.52 1.90455 -3.75905 0
M  V30 3821 H 397.195 1.97431 -2.56521 0
M  V30 3822 H 396.102 -0.0226019 -3.74093 0
M  V30 3823 H 397.435 -0.0100493 -4.92199 0
M  V30 3824 N 399.087 1.5561 -0.249682 0
M  V30 3825 C 400.333 1.99306 0.374841 0
M  V30 3826 C 400.666 1.13767 1.57387 0
M  V30 3827 O 399.941 0.201711 1.93451 0
M  V30 3828 C 400.224 3.51507 0.781986 0
M  V30 3829 C 400.077 4.4781 -0.422629 0
M  V30 3830 C 401.396 4.08884 1.62793 0
M  V30 3831 H 398.515 0.724572 0.134773 0
M  V30 3832 H 401.157 1.86719 -0.351549 0
M  V30 3833 H 399.307 3.62363 1.4009 0
M  V30 3834 H 400.979 4.48931 -1.06108 0
M  V30 3835 H 399.222 4.20518 -1.06524 0
M  V30 3836 H 399.893 5.51919 -0.0943766 0
M  V30 3837 H 402.369 4.01147 1.10547 0
M  V30 3838 H 401.245 5.1564 1.88166 0
M  V30 3839 H 401.506 3.57515 2.60068 0
M  V30 3840 N 400.565 -0.0233959 1.57583 0
M  V30 3841 C 401.513 -1.04063 2.08023 0
M  V30 3842 C 402.507 -1.37084 0.995204 0
M  V30 3843 O 403.713 -1.35923 1.18004 0
M  V30 3844 H 400.088 -0.353144 0.663922 0
M  V30 3845 H 402.059 -0.589453 2.9252 0
M  V30 3846 C 400.808 -2.33123 2.57971 0
M  V30 3847 H 400.131 -2.08577 3.4108 0
M  V30 3848 H 401.571 -3.02632 2.96967 0
M  V30 3849 C 400.03 -3.02483 1.48342 0
M  V30 3850 O 400.56 -3.92541 0.852898 0
M  V30 3851 N 398.766 -2.63909 1.21658 0
M  V30 3852 H 398.313 -1.90758 1.73116 0
M  V30 3853 H 398.271 -3.10633 0.485218 0
M  V30 3854 N 402.043 -1.548 -0.295768 0
M  V30 3855 C 403.283 -1.76069 -1.03823 0
M  V30 3856 C 403.647 -0.537992 -1.84309 0
M  V30 3857 O 404.848 -0.628514 -2.61349 0
M  V30 3858 C 403.119 -3.01705 -1.91596 0
M  V30 3859 S 404.678 -3.43998 -2.72416 0
M  V30 3860 H 401.496 -0.618852 -0.350062 0
M  V30 3861 H 404.098 -1.93009 -0.31106 0
M  V30 3862 H 402.802 -3.88812 -1.31351 0
M  V30 3863 H 402.333 -2.87366 -2.68671 0
M  V30 3864 H 404.348 -3.0148 -3.94112 0
M  V30 3865 N 403.521 0.559213 -1.47345 0
M  V30 3866 C 404.932 1.14134 -1.47751 0
M  V30 3867 C 405.283 1.94834 -0.231103 0
M  V30 3868 O 404.408 2.05957 0.664137 0
M  V30 3869 C 405.003 2.07653 -2.67705 0
M  V30 3870 C 403.562 2.61141 -2.71076 0
M  V30 3871 C 402.709 1.3748 -2.40821 0
M  V30 3872 H 405.66 0.345917 -1.54884 0
M  V30 3873 H 405.681 2.91497 -2.44561 0
M  V30 3874 H 405.193 1.4889 -3.58404 0
M  V30 3875 H 403.294 3.23707 -1.84511 0
M  V30 3876 H 403.407 3.02272 -3.7171 0
M  V30 3877 H 401.771 1.68086 -1.91362 0
M  V30 3878 H 402.554 0.805135 -3.33725 0
M  V30 3879 N 404.999 1.35443 0.805782 0
M  V30 3880 C 406.224 1.32037 1.59941 0
M  V30 3881 C 406.649 -0.0994215 1.87837 0
M  V30 3882 O 406.007 -1.06648 1.46615 0
M  V30 3883 C 406.055 2.13354 2.90711 0
M  V30 3884 O 405.159 1.5148 3.83572 0
M  V30 3885 H 404.5 0.452666 0.485787 0
M  V30 3886 H 407.03 1.78496 1.00002 0
M  V30 3887 H 407.04 2.25338 3.40128 0
M  V30 3888 H 405.715 3.16572 2.69732 0
M  V30 3889 H 404.292 1.4834 3.42125 0
M  V30 3890 N 406.477 -1.02803 1.19454 0
M  V30 3891 C 407.893 -1.28473 0.946937 0
M  V30 3892 C 408.093 -1.97881 -0.380202 0
M  V30 3893 O 407.149 -2.26719 -1.11151 0
M  V30 3894 C 408.462 -2.13099 2.12154 0
M  V30 3895 C 410.01 -2.26404 2.16126 0
M  V30 3896 C 410.485 -3.14402 3.33039 0
M  V30 3897 N 411.976 -3.21991 3.32981 0
M  V30 3898 C 412.711 -3.90272 4.20089 0
M  V30 3899 N 412.207 -4.60777 5.17355 0
M  V30 3900 N 414 -3.8668 4.07964 0
M  V30 3901 H 406.151 -0.561665 2.04839 0
M  V30 3902 H 408.414 -0.310438 0.89573 0
M  V30 3903 H 408.12 -1.69422 3.08203 0
M  V30 3904 H 407.994 -3.13813 2.09287 0
M  V30 3905 H 410.381 -2.69311 1.20647 0
M  V30 3906 H 410.462 -1.25237 2.23045 0
M  V30 3907 H 410.106 -2.72204 4.28798 0
M  V30 3908 H 410.036 -4.1563 3.23356 0
M  V30 3909 H 412.527 -2.71778 2.62574 0
M  V30 3910 H 412.84 -5.10513 5.80169 0
M  V30 3911 H 411.185 -4.5964 5.21302 0
M  V30 3912 H 414.376 -3.30739 3.31254 0
M  V30 3913 H 414.549 -4.39621 4.76064 0
M  V30 3914 N 407.956 -0.998596 -1.21925 0
M  V30 3915 C 409.184 -0.696286 -1.94832 0
M  V30 3916 C 409.599 0.740032 -1.73692 0
M  V30 3917 O 408.956 1.5 -1.03953 0
M  V30 3918 C 409.007 -0.999833 -3.47398 0
M  V30 3919 O 408.728 -2.37972 -3.67833 0
M  V30 3920 C 410.229 -0.716025 -4.37479 0
M  V30 3921 H 407.449 -0.257111 -0.619786 0
M  V30 3922 H 409.993 -1.33491 -1.54921 0
M  V30 3923 H 408.148 -0.406918 -3.85257 0
M  V30 3924 H 408.562 -2.48338 -4.61983 0
M  V30 3925 H 410.036 -0.978642 -5.43256 0
M  V30 3926 H 410.513 0.349968 -4.37803 0
M  V30 3927 H 411.119 -1.29025 -4.05256 0
M  V30 3928 N 409.434 1.37368 -0.772513 0
M  V30 3929 C 410.674 2.01512 -0.342361 0
M  V30 3930 C 411.038 1.59997 1.06136 0
M  V30 3931 O 412.239 2.16609 1.59167 0
M  V30 3932 C 410.51 3.54134 -0.482048 0
M  V30 3933 S 412.069 4.38585 -0.137272 0
M  V30 3934 H 408.887 0.698699 -0.131686 0
M  V30 3935 H 411.489 1.67552 -1.0073 0
M  V30 3936 H 410.193 3.81837 -1.50428 0
M  V30 3937 H 409.724 3.92894 0.199413 0
M  V30 3938 H 411.739 4.84594 1.06692 0
M  V30 3939 N 410.912 0.523116 1.48665 0
M  V30 3940 C 412.328 0.180511 1.58576 0
M  V30 3941 C 412.528 -1.31597 1.52592 0
M  V30 3942 O 411.584 -2.0937 1.4114 0
M  V30 3943 C 412.897 0.776949 2.90489 0
M  V30 3944 C 414.445 0.745058 3.04003 0
M  V30 3945 C 414.92 1.31995 4.38567 0
M  V30 3946 N 416.411 1.28162 4.45117 0
M  V30 3947 C 417.146 1.6964 5.47731 0
M  V30 3948 N 416.642 2.18816 6.57337 0
M  V30 3949 N 418.435 1.6092 5.38573 0
M  V30 3950 H 410.586 1.4958 1.50797 0
M  V30 3951 H 412.849 0.621772 0.715614 0
M  V30 3952 H 412.555 1.82732 3.00503 0
M  V30 3953 H 412.429 0.25007 3.7637 0
M  V30 3954 H 414.816 -0.296532 2.93606 0
M  V30 3955 H 414.897 1.30933 2.1975 0
M  V30 3956 H 414.541 2.36043 4.49718 0
M  V30 3957 H 414.471 0.731418 5.21496 0
M  V30 3958 H 416.962 0.92155 3.66491 0
M  V30 3959 H 417.275 2.48478 7.31764 0
M  V30 3960 H 415.62 2.22805 6.58318 0
M  V30 3961 H 418.811 1.22304 4.5184 0
M  V30 3962 H 418.984 1.93567 6.18414 0
M  V30 3963 N 412.39 -1.55475 0.257931 0
M  V30 3964 C 413.801 -1.8511 -0.243135 0
M  V30 3965 C 414.152 -1.17986 -1.5676 0
M  V30 3966 O 413.277 -0.462102 -2.11409 0
M  V30 3967 C 413.872 -3.35826 -0.447929 0
M  V30 3968 C 412.431 -3.65647 -0.893245 0
M  V30 3969 C 411.578 -2.7729 0.0232965 0
M  V30 3970 H 414.529 -1.51261 0.480199 0
M  V30 3971 H 414.55 -3.58002 -1.28898 0
M  V30 3972 H 414.062 -3.84652 0.516196 0
M  V30 3973 H 412.163 -3.22308 -1.86945 0
M  V30 3974 H 412.276 -4.73312 -0.742469 0
M  V30 3975 H 410.64 -2.49942 -0.490021 0
M  V30 3976 H 411.423 -3.28926 0.982994 0
M  V30 3977 N 413.868 0.0150385 -1.57593 0
M  V30 3978 C 415.145 0.7392 -1.81094 0
M  V30 3979 C 415.525 1.92817 -0.859344 0
M  V30 3980 O 414.873 2.28301 0.095362 0
M  V30 3981 C 415.083 1.15907 -3.29191 0
M  V30 3982 C 416.431 1.56918 -3.9454 0
M  V30 3983 O 417.455 1.25328 -3.33424 0
M  V30 3984 O 416.314 2.15604 -5.02173 0
M  V30 3985 H 413.408 0.358631 -0.745193 0
M  V30 3986 H 415.954 -0.00926156 -1.69697 0
M  V30 3987 H 414.726 0.310921 -3.90063 0
M  V30 3988 H 414.349 1.96711 -3.45529 0
M  V30 3989 N 415.346 1.54954 0.287554 0
M  V30 3990 C 416.278 1.83224 1.37701 0
M  V30 3991 C 417.291 0.715898 1.46215 0
M  V30 3992 O 418.48 0.993565 1.48292 0
M  V30 3993 C 415.58 1.96723 2.75959 0
M  V30 3994 C 414.753 3.27253 2.90215 0
M  V30 3995 C 413.812 3.30998 4.09056 0
M  V30 3996 O 412.838 4.04457 4.00503 0
M  V30 3997 N 414.04 2.57353 5.20336 0
M  V30 3998 H 416.805 2.77254 1.138 0
M  V30 3999 H 414.366 1.54694 0.477652 0
M  V30 4000 H 416.358 1.96615 3.5373 0
M  V30 4001 H 414.928 1.09626 2.92747 0
M  V30 4002 H 414.148 3.40022 1.99447 0
M  V30 4003 H 415.436 4.13365 2.96659 0
M  V30 4004 H 414.834 1.97327 5.30169 0
M  V30 4005 H 413.391 2.62984 5.96391 0
M  V30 4006 N 416.824 -0.551391 1.4764 0
M  V30 4007 C 418.071 -1.3083 1.54563 0
M  V30 4008 C 418.399 -1.93359 0.210361 0
M  V30 4009 O 417.654 -1.78721 -0.797332 0
M  V30 4010 C 417.953 -2.43469 2.61644 0
M  V30 4011 C 417.619 -1.98732 4.04742 0
M  V30 4012 C 416.281 -1.86248 4.43695 0
M  V30 4013 C 418.633 -1.64659 4.94507 0
M  V30 4014 C 415.961 -1.37995 5.70241 0
M  V30 4015 C 418.313 -1.17875 6.21521 0
M  V30 4016 C 416.977 -1.03992 6.5935 0
M  V30 4017 H 416.247 -0.478741 0.565587 0
M  V30 4018 H 418.894 -0.617697 1.81264 0
M  V30 4019 H 417.199 -3.18109 2.28722 0
M  V30 4020 H 418.896 -3.01642 2.64222 0
M  V30 4021 H 415.486 -2.09393 3.73968 0
M  V30 4022 H 419.67 -1.73174 4.65107 0
M  V30 4023 H 414.926 -1.25915 5.98294 0
M  V30 4024 H 419.1 -0.905739 6.90485 0
M  V30 4025 H 416.727 -0.663794 7.57296 0
M  V30 4026 N 418.302 -1.35869 -0.798587 0
M  V30 4027 C 419.212 -1.31578 -1.94228 0
M  V30 4028 C 420.228 -0.21939 -1.72611 0
M  V30 4029 O 421.404 -0.450167 -1.96305 0
M  V30 4030 C 418.469 -1.09528 -3.28944 0
M  V30 4031 C 417.53 -2.28556 -3.63402 0
M  V30 4032 C 416.763 -2.07549 -4.9169 0
M  V30 4033 O 416.986 -1.046 -5.60727 0
M  V30 4034 O 415.92 -2.95106 -5.24591 0
M  V30 4035 H 419.746 -2.27847 -2.00796 0
M  V30 4036 H 417.331 -1.16322 -0.937526 0
M  V30 4037 H 419.213 -0.991127 -4.09579 0
M  V30 4038 H 417.888 -0.16315 -3.23289 0
M  V30 4039 H 416.795 -2.44538 -2.83112 0
M  V30 4040 H 418.128 -3.20244 -3.73771 0
M  V30 4041 N 419.78 1.02168 -1.19998 0
M  V30 4042 C 421.02 1.77232 -1.01825 0
M  V30 4043 C 421.384 1.86833 0.442428 0
M  V30 4044 O 422.585 2.58293 0.744189 0
M  V30 4045 C 420.856 3.15601 -1.67722 0
M  V30 4046 S 422.415 4.06765 -1.64584 0
M  V30 4047 H 419.233 0.610021 -0.365233 0
M  V30 4048 H 421.835 1.22368 -1.52467 0
M  V30 4049 H 420.539 3.06235 -2.73218 0
M  V30 4050 H 420.07 3.7554 -1.17189 0
M  V30 4051 H 422.085 4.91586 -0.67511 0
M  V30 4052 N 421.258 1.00505 1.21394 0
M  V30 4053 C 422.168 0.574806 2.27449 0
M  V30 4054 C 423.184 -0.382206 1.6975 0
M  V30 4055 O 424.36 -0.246027 1.99892 0
M  V30 4056 C 421.425 -0.0917414 3.46579 0
M  V30 4057 C 420.486 0.909758 4.1955 0
M  V30 4058 C 419.719 0.274924 5.32991 0
M  V30 4059 O 419.942 -0.928254 5.62796 0
M  V30 4060 O 418.876 0.985877 5.93771 0
M  V30 4061 H 422.702 1.45744 2.66444 0
M  V30 4062 H 420.287 0.773923 1.27792 0
M  V30 4063 H 422.169 -0.464551 4.18832 0
M  V30 4064 H 420.844 -0.948755 3.09484 0
M  V30 4065 H 419.751 1.33372 3.49518 0
M  V30 4066 H 421.084 1.73636 4.60555 0
M  V30 4067 N 422.737 -1.36956 0.779787 0
M  V30 4068 C 424.014 -1.93697 0.272156 0
M  V30 4069 C 424.394 -1.71267 -1.23413 0
M  V30 4070 O 423.742 -1.06607 -2.02107 0
M  V30 4071 C 423.952 -3.42812 0.654291 0
M  V30 4072 C 425.3 -4.19921 0.628602 0
M  V30 4073 O 426.324 -3.51209 0.594172 0
M  V30 4074 O 425.183 -5.42465 0.662864 0
M  V30 4075 H 422.277 -0.824447 0.0649286 0
M  V30 4076 H 424.823 -1.46196 0.861682 0
M  V30 4077 H 423.595 -3.52754 1.69353 0
M  V30 4078 H 423.218 -3.97582 0.0381369 0
M  V30 4079 N 424.215 -0.530993 -1.48385 0
M  V30 4080 C 425.463 0.00273189 -2.021 0
M  V30 4081 C 425.784 1.34672 -1.41027 0
M  V30 4082 O 425.054 1.8724 -0.576012 0
M  V30 4083 H 423.634 0.00399774 -0.746989 0
M  V30 4084 H 426.296 -0.695054 -1.82085 0
M  V30 4085 H 425.392 0.11031 -3.11905 0
M  V30 4086 N 425.693 1.55336 -0.266172 0
M  V30 4087 C 426.918 2.04258 0.359661 0
M  V30 4088 C 427.343 1.14359 1.49344 0
M  V30 4089 O 426.701 0.140369 1.80756 0
M  V30 4090 C 426.749 3.50997 0.826635 0
M  V30 4091 O 425.853 3.64204 1.93466 0
M  V30 4092 H 425.194 0.659668 0.075727 0
M  V30 4093 H 427.724 2.00694 -0.39786 0
M  V30 4094 H 427.734 3.9219 1.12477 0
M  V30 4095 H 426.409 4.159 -0.00293032 0
M  V30 4096 H 424.986 3.34913 1.63974 0
M  V30 4097 N 427.171 -0.0066808 1.57599 0
M  V30 4098 C 428.411 -0.697501 1.92131 0
M  V30 4099 C 428.775 -1.71306 0.867071 0
M  V30 4100 O 429.976 -2.45377 1.09743 0
M  V30 4101 C 428.247 -1.32978 3.3174 0
M  V30 4102 S 429.806 -2.04665 3.88146 0
M  V30 4103 H 426.624 -0.230555 0.672581 0
M  V30 4104 H 429.226 0.0484026 1.9544 0
M  V30 4105 H 427.93 -0.57772 4.06313 0
M  V30 4106 H 427.461 -2.11376 3.31789 0
M  V30 4107 H 429.476 -3.32097 3.68682 0
M  V30 4108 N 428.649 -1.55105 -0.279332 0
M  V30 4109 C 429.898 -1.74618 -1.00952 0
M  V30 4110 C 430.211 -0.551096 -1.87676 0
M  V30 4111 O 431.417 -0.628507 -2.64125 0
M  V30 4112 C 429.873 -3.09025 -1.84476 0
M  V30 4113 C 429.481 -4.36081 -1.0265 0
M  V30 4114 C 431.225 -3.37891 -2.56963 0
M  V30 4115 C 429.132 -5.6153 -1.85576 0
M  V30 4116 H 428.062 -0.650868 -0.38064 0
M  V30 4117 H 430.713 -1.81569 -0.265475 0
M  V30 4118 H 429.095 -2.96095 -2.62952 0
M  V30 4119 H 430.269 -4.59909 -0.286354 0
M  V30 4120 H 428.584 -4.14312 -0.416464 0
M  V30 4121 H 431.181 -4.28822 -3.19399 0
M  V30 4122 H 431.524 -2.57737 -3.26921 0
M  V30 4123 H 432.057 -3.5189 -1.85522 0
M  V30 4124 H 428.796 -6.44413 -1.2005 0
M  V30 4125 H 428.316 -5.41854 -2.57204 0
M  V30 4126 H 429.995 -5.99594 -2.43096 0
M  V30 4127 N 430.127 0.543554 -1.4793 0
M  V30 4128 C 431.077 1.64527 -1.57844 0
M  V30 4129 C 432.061 1.54869 -0.436408 0
M  V30 4130 O 433.253 1.63119 -0.687101 0
M  V30 4131 C 430.382 3.03281 -1.6086 0
M  V30 4132 C 429.468 3.18093 -2.80495 0
M  V30 4133 N 429.859 3.02923 -4.05057 0
M  V30 4134 C 428.157 3.49121 -2.77543 0
M  V30 4135 C 428.858 3.20791 -4.85251 0
M  V30 4136 N 427.834 3.47749 -4.17818 0
M  V30 4137 H 431.636 1.51388 -2.5191 0
M  V30 4138 H 429.15 0.748671 -1.44113 0
M  V30 4139 H 431.147 3.82403 -1.66054 0
M  V30 4140 H 429.807 3.17521 -0.678996 0
M  V30 4141 H 430.818 2.79966 -4.35705 0
M  V30 4142 H 427.495 3.69804 -1.93781 0
M  V30 4143 H 428.885 3.13915 -5.9406 0
M  V30 4144 N 431.605 1.3629 0.791371 0
M  V30 4145 C 432.853 1.30154 1.5461 0
M  V30 4146 C 433.174 -0.119409 1.94634 0
M  V30 4147 O 432.444 -1.05924 1.64794 0
M  V30 4148 H 431.024 0.478784 0.573389 0
M  V30 4149 H 433.686 1.70565 0.94306 0
M  V30 4150 H 432.782 1.92762 2.45457 0
M  V30 4151 N 433.083 -1.0153 1.20538 0
M  V30 4152 C 434.308 -1.79283 1.04271 0
M  V30 4153 C 434.733 -1.8372 -0.403544 0
M  V30 4154 O 434.091 -1.27321 -1.2907 0
M  V30 4155 C 434.139 -3.21535 1.63241 0
M  V30 4156 O 433.243 -4.03099 0.870908 0
M  V30 4157 H 432.584 -0.55293 0.367647 0
M  V30 4158 H 435.114 -1.27696 1.59859 0
M  V30 4159 H 435.124 -3.72243 1.6703 0
M  V30 4160 H 433.799 -3.1762 2.68497 0
M  V30 4161 H 432.376 -3.61693 0.907323 0
M  V30 4162 N 434.561 -1.01147 -1.20859 0
M  V30 4163 C 435.977 -0.725422 -1.42161 0
M  V30 4164 C 436.177 0.696919 -1.89064 0
M  V30 4165 O 435.233 1.46539 -2.05627 0
M  V30 4166 C 436.546 -1.74678 -2.44761 0
M  V30 4167 C 438.094 -1.76433 -2.58535 0
M  V30 4168 C 438.569 -2.77481 -3.64374 0
M  V30 4169 N 440.06 -2.76189 -3.71852 0
M  V30 4170 C 440.795 -3.51035 -4.53389 0
M  V30 4171 N 440.291 -4.35541 -5.38773 0
M  V30 4172 N 442.084 -3.39655 -4.47873 0
M  V30 4173 H 434.235 -1.92979 -0.887282 0
M  V30 4174 H 436.498 -0.833327 -0.451962 0
M  V30 4175 H 436.204 -2.76551 -2.17285 0
M  V30 4176 H 436.078 -1.55472 -3.43669 0
M  V30 4177 H 438.465 -0.75248 -2.85345 0
M  V30 4178 H 438.546 -1.99712 -1.5984 0
M  V30 4179 H 438.19 -3.78827 -3.38308 0
M  V30 4180 H 438.12 -2.51466 -4.6268 0
M  V30 4181 H 440.611 -2.14885 -3.10858 0
M  V30 4182 H 440.924 -4.89432 -5.98061 0
M  V30 4183 H 439.269 -4.39621 -5.38292 0
M  V30 4184 H 442.46 -2.73063 -3.80203 0
M  V30 4185 H 442.633 -3.9824 -5.11184 0
M  V30 4186 N 436.039 1.36541 -0.78704 0
M  V30 4187 C 436.971 2.28761 -0.141773 0
M  V30 4188 C 437.984 1.49365 0.647599 0
M  V30 4189 O 439.173 1.71836 0.483173 0
M  V30 4190 C 436.273 3.28771 0.822368 0
M  V30 4191 C 435.446 4.3732 0.0835594 0
M  V30 4192 C 434.505 5.17307 0.963296 0
M  V30 4193 O 433.531 5.67638 0.421419 0
M  V30 4194 N 434.733 5.33515 2.28784 0
M  V30 4195 H 437.498 2.84777 -0.933919 0
M  V30 4196 H 435.059 1.48682 -0.640735 0
M  V30 4197 H 437.051 3.79169 1.41468 0
M  V30 4198 H 435.621 2.73412 1.5154 0
M  V30 4199 H 434.841 3.88118 -0.689809 0
M  V30 4200 H 436.129 5.0701 -0.426358 0
M  V30 4201 H 435.527 4.94234 2.75226 0
M  V30 4202 H 434.084 5.87165 2.82985 0
M  V30 4203 N 437.518 0.538854 1.48102 0
M  V30 4204 C 438.758 0.0101209 2.04397 0
M  V30 4205 C 439.122 -1.30741 1.40609 0
M  V30 4206 O 440.323 -1.92272 1.87843 0
M  V30 4207 C 438.594 -0.100232 3.57259 0
M  V30 4208 S 440.153 -0.577746 4.3498 0
M  V30 4209 H 436.971 0.0163171 0.710813 0
M  V30 4210 H 439.573 0.721429 1.81702 0
M  V30 4211 H 438.277 0.863351 4.01216 0
M  V30 4212 H 437.808 -0.835651 3.84422 0
M  V30 4213 H 439.823 -1.84073 4.60794 0
M  V30 4214 N 438.996 -1.55193 0.274407 0
M  V30 4215 C 439.944 -2.23924 -0.629362 0
M  V30 4216 C 440.938 -1.23602 -1.1584 0
M  V30 4217 O 442.144 -1.41535 -1.11211 0
M  V30 4218 H 438.519 -0.718637 -0.221507 0
M  V30 4219 H 440.49 -2.98388 -0.0268322 0
M  V30 4220 C 439.239 -2.97329 -1.80252 0
M  V30 4221 H 438.562 -3.74313 -1.40462 0
M  V30 4222 H 440.002 -3.48743 -2.41152 0
M  V30 4223 C 438.461 -2.0276 -2.69054 0
M  V30 4224 O 438.991 -1.57836 -3.69392 0
M  V30 4225 N 437.197 -1.69275 -2.36208 0
M  V30 4226 H 436.744 -2.06004 -1.54661 0
M  V30 4227 H 436.702 -1.06271 -2.95895 0
M  V30 4228 N 440.474 -0.00167713 -1.576 0
M  V30 4229 C 441.722 0.681471 -1.90264 0
M  V30 4230 C 442.043 1.7422 -0.875924 0
M  V30 4231 O 441.313 1.95709 0.0864412 0
M  V30 4232 H 439.893 0.254696 -0.702239 0
M  V30 4233 H 442.555 -0.0429996 -1.94853 0
M  V30 4234 H 441.651 1.15166 -2.90075 0
M  V30 4235 N 441.952 1.55251 0.271103 0
M  V30 4236 C 443.201 1.75151 1.00025 0
M  V30 4237 C 443.514 0.561041 1.87381 0
M  V30 4238 O 444.72 0.642506 2.63788 0
M  V30 4239 C 443.176 3.09999 1.82835 0
M  V30 4240 C 442.784 4.3662 1.00336 0
M  V30 4241 C 444.528 3.39249 2.55168 0
M  V30 4242 C 442.435 5.62506 1.82595 0
M  V30 4243 H 441.365 0.652877 0.377183 0
M  V30 4244 H 444.016 1.81708 0.255843 0
M  V30 4245 H 442.398 2.97485 2.61378 0
M  V30 4246 H 443.572 4.60055 0.261959 0
M  V30 4247 H 441.887 4.14527 0.394486 0
M  V30 4248 H 444.484 4.3051 3.1712 0
M  V30 4249 H 444.827 2.59467 3.2555 0
M  V30 4250 H 445.36 3.52869 1.83653 0
M  V30 4251 H 442.099 6.45041 1.16631 0
M  V30 4252 H 441.619 5.43211 2.54327 0
M  V30 4253 H 443.298 6.00875 2.39913 0
M  V30 4254 N 443.43 -0.535701 1.48216 0
M  V30 4255 C 444.846 -0.863701 1.3421 0
M  V30 4256 C 445.046 -1.98458 0.34879 0
M  V30 4257 O 444.102 -2.51432 -0.23204 0
M  V30 4258 C 445.415 -1.23662 2.74095 0
M  V30 4259 C 446.963 -1.34683 2.82541 0
M  V30 4260 C 447.438 -1.75322 4.23115 0
M  V30 4261 N 448.929 -1.82434 4.2576 0
M  V30 4262 C 449.664 -2.15252 5.31464 0
M  V30 4263 N 449.16 -2.46533 6.47452 0
M  V30 4264 N 450.953 -2.16209 5.18855 0
M  V30 4265 H 443.104 0.203965 2.11418 0
M  V30 4266 H 445.367 0.0286033 0.947568 0
M  V30 4267 H 445.073 -0.486674 3.48316 0
M  V30 4268 H 444.947 -2.18805 3.07253 0
M  V30 4269 H 447.334 -2.08756 2.08579 0
M  V30 4270 H 447.415 -0.376756 2.5301 0
M  V30 4271 H 447.059 -1.01812 4.97591 0
M  V30 4272 H 446.989 -2.7337 4.50085 0
M  V30 4273 H 449.48 -1.6056 3.42095 0
M  V30 4274 H 449.793 -2.70662 7.23852 0
M  V30 4275 H 448.138 -2.44065 6.50736 0
M  V30 4276 H 451.329 -1.91224 4.2726 0
M  V30 4277 H 451.502 -2.41453 6.01335 0
M  V30 4278 N 444.908 -1.36708 -0.784132 0
M  V30 4279 C 446.185 -1.21776 -1.53069 0
M  V30 4280 C 446.565 0.193876 -2.10208 0
M  V30 4281 O 445.913 1.20012 -1.94446 0
M  V30 4282 C 446.123 -2.30395 -2.62143 0
M  V30 4283 C 447.471 -2.67325 -3.29882 0
M  V30 4284 O 448.495 -2.29478 -2.7243 0
M  V30 4285 O 447.354 -3.32485 -4.33724 0
M  V30 4286 H 444.448 -0.474459 -0.677361 0
M  V30 4287 H 446.994 -1.48454 -0.82216 0
M  V30 4288 H 445.766 -3.2498 -2.17953 0
M  V30 4289 H 445.389 -2.05112 -3.40609 0
M  V30 4290 N 446.386 1.0089 -1.21074 0
M  V30 4291 C 447.626 1.76142 -1.03699 0
M  V30 4292 C 447.99 1.87292 0.422587 0
M  V30 4293 O 449.191 2.59068 0.716752 0
M  V30 4294 C 447.462 3.13805 -1.7106 0
M  V30 4295 S 449.021 4.04996 -1.68889 0
M  V30 4296 H 445.839 0.606113 -0.371683 0
M  V30 4297 H 448.441 1.20744 -1.53756 0
M  V30 4298 H 447.145 3.0332 -2.76451 0
M  V30 4299 H 446.676 3.74276 -1.21166 0
M  V30 4300 H 448.691 4.90842 -0.727211 0
M  V30 4301 N 447.864 1.01787 1.20321 0
M  V30 4302 C 449.11 0.708985 1.90003 0
M  V30 4303 C 449.443 -0.759572 1.78729 0
M  V30 4304 O 448.718 -1.55198 1.17234 0
M  V30 4305 C 449.001 1.1469 3.41348 0
M  V30 4306 C 448.854 2.67586 3.61549 0
M  V30 4307 C 450.173 0.71915 4.34185 0
M  V30 4308 H 447.292 0.259034 0.689978 0
M  V30 4309 H 449.934 1.26584 1.41692 0
M  V30 4310 H 448.084 0.673128 3.82624 0
M  V30 4311 H 449.756 3.22826 3.29517 0
M  V30 4312 H 447.999 3.085 3.04976 0
M  V30 4313 H 448.67 2.93281 4.67643 0
M  V30 4314 H 451.146 1.12647 4.00562 0
M  V30 4315 H 450.022 1.05358 5.38694 0
M  V30 4316 H 450.283 -0.379111 4.40472 0
M  V30 4317 N 449.342 -1.36122 0.79427 0
M  V30 4318 C 450.619 -1.93398 0.292685 0
M  V30 4319 C 450.999 -1.72567 -1.21589 0
M  V30 4320 O 450.347 -1.08745 -2.00965 0
M  V30 4321 C 450.557 -3.42099 0.690614 0
M  V30 4322 C 451.905 -4.19231 0.673105 0
M  V30 4323 O 452.929 -3.50559 0.631389 0
M  V30 4324 O 451.788 -5.41732 0.720362 0
M  V30 4325 H 448.882 -0.823712 0.0736693 0
M  V30 4326 H 451.428 -1.45273 0.87714 0
M  V30 4327 H 450.2 -3.50938 1.73085 0
M  V30 4328 H 449.823 -3.97519 0.0803036 0
M  V30 4329 N 450.82 -0.546701 -1.47814 0
M  V30 4330 C 452.068 -0.0187037 -2.02091 0
M  V30 4331 C 452.389 1.33168 -1.42447 0
M  V30 4332 O 451.659 1.86619 -0.595839 0
M  V30 4333 H 450.239 -0.00392531 -0.74699 0
M  V30 4334 H 452.901 -0.714327 -1.81338 0
M  V30 4335 H 451.997 0.0772219 -3.12004 0
M  V30 4336 N 452.299 1.55045 -0.282633 0
M  V30 4337 C 453.524 2.04628 0.337977 0
M  V30 4338 C 453.949 1.15937 1.48123 0
M  V30 4339 O 453.307 0.159532 1.80597 0
M  V30 4340 C 453.355 3.51854 0.78936 0
M  V30 4341 O 452.459 3.66236 1.89592 0
M  V30 4342 H 451.8 0.660434 0.0687261 0
M  V30 4343 H 454.33 2.00261 -0.419124 0
M  V30 4344 H 454.34 3.93361 1.08311 0
M  V30 4345 H 453.015 4.15873 -0.0470419 0
M  V30 4346 H 451.592 3.36633 1.60413 0
M  V30 4347 N 453.777 0.010035 1.57597 0
M  V30 4348 C 455.054 -0.710296 1.82248 0
M  V30 4349 C 455.434 -1.91426 0.889911 0
M  V30 4350 O 454.782 -2.28424 -0.0590292 0
M  V30 4351 C 454.992 -1.10655 3.30993 0
M  V30 4352 C 456.34 -1.50621 3.96987 0
M  V30 4353 O 457.364 -1.20007 3.35375 0
M  V30 4354 O 456.223 -2.07587 5.05539 0
M  V30 4355 H 453.317 -0.34673 0.750804 0
M  V30 4356 H 455.863 0.0362578 1.69661 0
M  V30 4357 H 454.635 -0.248826 3.90508 0
M  V30 4358 H 454.258 -1.91189 3.48615 0
M  V30 4359 N 455.255 -1.55392 -0.262866 0
M  V30 4360 C 456.165 -1.92077 -1.34698 0
M  V30 4361 C 457.181 -0.819227 -1.53508 0
M  V30 4362 O 458.357 -1.11921 -1.67439 0
M  V30 4363 C 455.422 -2.19407 -2.68443 0
M  V30 4364 C 454.483 -3.42905 -2.58292 0
M  V30 4365 C 453.716 -3.68921 -3.85659 0
M  V30 4366 O 453.939 -2.97275 -4.8681 0
M  V30 4367 O 452.873 -4.62455 -3.85252 0
M  V30 4368 H 456.699 -2.84384 -1.06581 0
M  V30 4369 H 454.284 -1.42069 -0.462264 0
M  V30 4370 H 456.166 -2.38365 -3.47506 0
M  V30 4371 H 454.841 -1.30282 -2.96325 0
M  V30 4372 H 453.748 -3.29272 -1.7757 0
M  V30 4373 H 455.081 -4.32282 -2.35358 0
M  V30 4374 N 456.733 0.527833 -1.48498 0
M  V30 4375 C 457.979 1.28545 -1.56857 0
M  V30 4376 C 458.312 1.92678 -0.242651 0
M  V30 4377 O 457.587 1.79394 0.751545 0
M  V30 4378 C 457.87 2.37314 -2.70839 0
M  V30 4379 C 457.723 1.77858 -4.13142 0
M  V30 4380 C 459.042 3.39068 -2.80573 0
M  V30 4381 H 456.161 0.466006 -0.570971 0
M  V30 4382 H 458.803 0.587784 -1.8068 0
M  V30 4383 H 456.953 2.96821 -2.50658 0
M  V30 4384 H 458.625 1.22385 -4.44769 0
M  V30 4385 H 456.868 1.08383 -4.20042 0
M  V30 4386 H 457.539 2.56624 -4.88721 0
M  V30 4387 H 460.015 2.89518 -2.98862 0
M  V30 4388 H 458.891 4.12566 -3.6205 0
M  V30 4389 H 459.152 3.9975 -1.88818 0
M  V30 4390 N 458.211 1.37122 0.776871 0
M  V30 4391 C 459.159 1.32549 1.91138 0
M  V30 4392 C 460.153 0.215119 1.68029 0
M  V30 4393 O 461.359 0.382852 1.75881 0
M  V30 4394 H 457.734 0.412952 0.62847 0
M  V30 4395 H 459.705 2.28332 1.92112 0
M  V30 4396 C 458.454 1.14422 3.28333 0
M  V30 4397 H 457.777 1.99115 3.46689 0
M  V30 4398 H 459.217 1.15272 4.0803 0
M  V30 4399 C 457.676 -0.150434 3.36564 0
M  V30 4400 O 458.206 -1.13584 3.85307 0
M  V30 4401 N 456.412 -0.19939 2.89915 0
M  V30 4402 H 455.959 0.603142 2.5044 0
M  V30 4403 H 455.917 -1.06526 2.95803 0
M  V30 4404 N 459.689 -1.00246 1.21608 0
M  V30 4405 C 460.929 -1.75589 1.04631 0
M  V30 4406 C 461.293 -1.87513 -0.412648 0
M  V30 4407 O 462.494 -2.59444 -0.703003 0
M  V30 4408 C 460.765 -3.12893 1.72722 0
M  V30 4409 S 462.324 -4.04095 1.71034 0
M  V30 4410 H 459.142 -0.604133 0.374892 0
M  V30 4411 H 461.744 -1.19927 1.54395 0
M  V30 4412 H 460.448 -3.0185 2.78055 0
M  V30 4413 H 459.979 -3.73628 1.23149 0
M  V30 4414 H 461.994 -4.9045 0.753231 0
M  V30 4415 N 461.167 -1.02423 -1.1978 0
M  V30 4416 C 462.114 -0.601023 -2.22837 0
M  V30 4417 C 463.084 0.382801 -1.61629 0
M  V30 4418 O 464.269 0.280514 -1.88727 0
M  V30 4419 C 461.409 0.0467755 -3.45068 0
M  V30 4420 C 460.522 -0.98253 -4.20678 0
M  V30 4421 C 459.657 -0.304982 -5.30324 0
M  V30 4422 C 458.696 -1.32052 -5.97686 0
M  V30 4423 N 457.833 -0.669105 -6.98904 0
M  V30 4424 H 462.673 -1.48444 -2.58396 0
M  V30 4425 H 460.21 -0.742936 -1.2696 0
M  V30 4426 H 462.168 0.439556 -4.14878 0
M  V30 4427 H 460.798 0.893796 -3.10179 0
M  V30 4428 H 459.85 -1.49341 -3.49859 0
M  V30 4429 H 461.162 -1.75455 -4.66923 0
M  V30 4430 H 460.316 0.142893 -6.06532 0
M  V30 4431 H 459.055 0.499283 -4.85138 0
M  V30 4432 H 458.06 -1.7787 -5.20233 0
M  V30 4433 H 459.285 -2.1262 -6.44957 0
M  V30 4434 H 457.231 0.115152 -6.55899 0
M  V30 4435 H 457.148 -1.37908 -7.43315 0
M  V30 4436 H 458.416 -0.245076 -7.79115 0
M  V30 4437 N 462.645 1.35699 -0.801477 0
M  V30 4438 C 463.593 2.3177 -0.196317 0
M  V30 4439 C 464.587 1.56388 0.651081 0
M  V30 4440 O 465.793 1.71557 0.544815 0
M  V30 4441 H 462.168 0.750669 -0.0447189 0
M  V30 4442 H 464.139 2.8036 -1.02181 0
M  V30 4443 C 462.888 3.41671 0.644702 0
M  V30 4444 H 462.211 3.998 0.0019921 0
M  V30 4445 H 463.651 4.11184 1.0346 0
M  V30 4446 C 462.11 2.84271 1.80808 0
M  V30 4447 O 462.64 2.77408 2.9053 0
M  V30 4448 N 460.846 2.41391 1.61799 0
M  V30 4449 H 460.393 2.47173 0.725493 0
M  V30 4450 H 460.351 2.03334 2.39797 0
M  V30 4451 N 464.123 0.554532 1.47522 0
M  V30 4452 C 465.369 0.0295227 2.02779 0
M  V30 4453 C 465.702 -1.31582 1.42828 0
M  V30 4454 O 464.977 -1.85561 0.582872 0
M  V30 4455 C 465.26 -0.0664057 3.60039 0
M  V30 4456 C 465.113 1.30585 4.30427 0
M  V30 4457 C 466.432 -0.781162 4.33112 0
M  V30 4458 H 463.551 0.0122027 0.736899 0
M  V30 4459 H 466.193 0.716305 1.7598 0
M  V30 4460 H 464.343 -0.651307 3.83002 0
M  V30 4461 H 466.015 1.93374 4.18813 0
M  V30 4462 H 464.258 1.88125 3.90886 0
M  V30 4463 H 464.929 1.19147 5.38988 0
M  V30 4464 H 467.405 -0.284565 4.15126 0
M  V30 4465 H 466.281 -0.817237 5.42782 0
M  V30 4466 H 466.542 -1.83672 4.0214 0
M  V30 4467 N 465.601 -1.54893 0.290851 0
M  V30 4468 C 466.549 -2.24579 -0.605576 0
M  V30 4469 C 467.543 -1.24824 -1.14522 0
M  V30 4470 O 468.749 -1.42706 -1.09704 0
M  V30 4471 H 465.124 -0.720946 -0.213872 0
M  V30 4472 H 467.095 -2.984 0.0048173 0
M  V30 4473 C 465.844 -2.99224 -1.77088 0
M  V30 4474 H 465.167 -3.75782 -1.36484 0
M  V30 4475 H 466.607 -3.51281 -2.3744 0
M  V30 4476 C 465.066 -2.05602 -2.66888 0
M  V30 4477 O 465.596 -1.61745 -3.67698 0
M  V30 4478 N 463.802 -1.71771 -2.34399 0
M  V30 4479 H 463.349 -2.07633 -1.52468 0
M  V30 4480 H 463.307 -1.09403 -2.94751 0
M  V30 4481 N 467.08 -0.0183926 -1.57589 0
M  V30 4482 C 468.012 0.995557 -2.06449 0
M  V30 4483 C 469.025 1.29556 -0.985849 0
M  V30 4484 O 470.214 1.2621 -1.26227 0
M  V30 4485 C 467.314 2.32572 -2.46502 0
M  V30 4486 C 466.487 2.21245 -3.77319 0
M  V30 4487 C 465.546 3.37104 -4.04039 0
M  V30 4488 O 464.572 3.14468 -4.74445 0
M  V30 4489 N 465.774 4.60553 -3.53372 0
M  V30 4490 H 468.539 0.578746 -2.94059 0
M  V30 4491 H 466.1 0.168603 -1.6102 0
M  V30 4492 H 468.092 3.08887 -2.61478 0
M  V30 4493 H 466.662 2.65931 -1.64315 0
M  V30 4494 H 465.882 1.29723 -3.72244 0
M  V30 4495 H 467.17 2.10868 -4.63047 0
M  V30 4496 H 466.568 4.81839 -2.96391 0
M  V30 4497 H 465.125 5.34072 -3.73644 0
M  V30 4498 N 468.558 1.5553 0.254621 0
M  V30 4499 C 469.798 1.7876 0.991179 0
M  V30 4500 C 470.162 0.586669 1.82817 0
M  V30 4501 O 471.363 0.697585 2.5959 0
M  V30 4502 C 469.634 3.06679 1.83529 0
M  V30 4503 S 471.193 3.511 2.632 0
M  V30 4504 H 468.011 0.627916 0.333531 0
M  V30 4505 H 470.613 1.93766 0.259778 0
M  V30 4506 H 469.317 3.92158 1.20996 0
M  V30 4507 H 468.848 2.94388 2.60958 0
M  V30 4508 H 470.863 3.11823 3.8598 0
M  V30 4509 N 470.036 -0.519951 1.48776 0
M  V30 4510 C 470.966 -1.63253 1.66945 0
M  V30 4511 C 471.947 -1.62014 0.518224 0
M  V30 4512 O 473.132 -1.79053 0.751919 0
M  V30 4513 C 470.262 -3.0181 1.71836 0
M  V30 4514 C 469.216 -3.17911 2.8656 0
M  V30 4515 C 468.542 -4.5763 2.76548 0
M  V30 4516 C 469.842 -2.99729 4.27738 0
M  V30 4517 H 471.536 -1.48302 2.6009 0
M  V30 4518 H 469.082 -0.712026 1.25165 0
M  V30 4519 H 471.035 -3.79525 1.83135 0
M  V30 4520 H 469.759 -3.17806 0.752775 0
M  V30 4521 H 468.418 -2.42616 2.74833 0
M  V30 4522 H 468.066 -4.70476 1.77937 0
M  V30 4523 H 467.766 -4.69346 3.53536 0
M  V30 4524 H 469.29 -5.37431 2.89828 0
M  V30 4525 H 470.704 -3.67228 4.40246 0
M  V30 4526 H 469.101 -3.22932 5.05801 0
M  V30 4527 H 470.171 -1.96047 4.43502 0
M  V30 4528 N 471.514 -1.37532 -0.769588 0
M  V30 4529 C 472.762 -1.32597 -1.5252 0
M  V30 4530 C 473.083 0.0884294 -1.94799 0
M  V30 4531 O 472.353 1.03289 -1.66458 0
M  V30 4532 H 470.933 -0.487846 -0.565699 0
M  V30 4533 H 473.595 -1.72044 -0.915806 0
M  V30 4534 H 472.691 -1.96643 -2.42359 0
M  V30 4535 N 472.992 0.995999 -1.22138 0
M  V30 4536 C 474.403 1.54961 -1.04135 0
M  V30 4537 C 474.754 1.92159 0.396147 0
M  V30 4538 O 473.879 1.74435 1.28069 0
M  V30 4539 C 474.474 2.81581 -1.88408 0
M  V30 4540 C 473.033 3.33396 -1.74712 0
M  V30 4541 C 472.18 2.06509 -1.85066 0
M  V30 4542 H 475.131 0.817436 -1.36028 0
M  V30 4543 H 475.152 3.53822 -1.39966 0
M  V30 4544 H 474.664 2.54476 -2.93025 0
M  V30 4545 H 472.765 3.65416 -0.728159 0
M  V30 4546 H 472.878 4.04208 -2.57202 0
M  V30 4547 H 471.242 2.19925 -1.28472 0
M  V30 4548 H 472.025 1.81804 -2.91208 0
M  V30 4549 N 474.47 1.03057 1.19235 0
M  V30 4550 C 475.718 0.726581 1.88587 0
M  V30 4551 C 476.039 -0.747227 1.80115 0
M  V30 4552 O 475.309 -1.53849 1.21274 0
M  V30 4553 H 473.889 0.265768 0.698124 0
M  V30 4554 H 476.551 1.30516 1.44746 0
M  V30 4555 H 475.647 1.0224 2.94879 0
M  V30 4556 N 475.948 -1.35272 0.808662 0
M  V30 4557 C 476.895 -2.29764 0.218482 0
M  V30 4558 C 477.865 -1.52911 -0.648652 0
M  V30 4559 O 479.05 -1.81341 -0.593297 0
M  V30 4560 C 476.19 -3.39388 -0.625282 0
M  V30 4561 C 475.303 -4.31202 0.262516 0
M  V30 4562 C 474.438 -5.27919 -0.589451 0
M  V30 4563 C 473.477 -6.11371 0.298617 0
M  V30 4564 N 472.614 -7.0022 -0.513443 0
M  V30 4565 H 477.454 -2.79645 1.02968 0
M  V30 4566 H 474.991 -1.37629 0.519303 0
M  V30 4567 H 476.949 -4.01615 -1.12966 0
M  V30 4568 H 475.579 -2.90777 -1.40173 0
M  V30 4569 H 474.631 -3.69962 0.885013 0
M  V30 4570 H 475.943 -4.89748 0.945971 0
M  V30 4571 H 475.097 -5.95529 -1.15888 0
M  V30 4572 H 473.836 -4.69875 -1.30647 0
M  V30 4573 H 472.841 -5.42707 0.880301 0
M  V30 4574 H 474.066 -6.71494 1.01352 0
M  V30 4575 H 472.012 -6.44662 -1.21439 0
M  V30 4576 H 471.929 -7.55917 0.111922 0
M  V30 4577 H 473.197 -7.72175 -1.06608 0
M  V30 4578 N 477.426 -0.562348 -1.47226 0
M  V30 4579 C 478.673 -0.0402165 -2.0246 0
M  V30 4580 C 479.001 1.31169 -1.43614 0
M  V30 4581 O 478.256 1.86805 -0.5833 0
M  V30 4582 C 478.555 0.0969817 -3.57268 0
M  V30 4583 C 478.221 -1.1847 -4.35058 0
M  V30 4584 C 476.883 -1.53588 -4.56031 0
M  V30 4585 C 479.235 -2.03378 -4.79882 0
M  V30 4586 C 476.563 -2.73452 -5.19077 0
M  V30 4587 C 478.915 -3.2245 -5.44251 0
M  V30 4588 C 477.579 -3.57876 -5.63455 0
M  V30 4589 H 476.849 -0.0147163 -0.740854 0
M  V30 4590 H 479.496 -0.734895 -1.76838 0
M  V30 4591 H 477.801 0.87466 -3.81912 0
M  V30 4592 H 479.498 0.516408 -3.97661 0
M  V30 4593 H 476.088 -0.90126 -4.19017 0
M  V30 4594 H 480.272 -1.77553 -4.63453 0
M  V30 4595 H 475.528 -3.01062 -5.32139 0
M  V30 4596 H 479.702 -3.88526 -5.77945 0
M  V30 4597 H 477.329 -4.50849 -6.12078 0
M  V30 4598 N 478.904 1.54736 -0.299062 0
M  V30 4599 C 479.851 2.23448 0.577899 0
M  V30 4600 C 480.821 1.21637 1.13109 0
M  V30 4601 O 482.006 1.50252 1.17597 0
M  V30 4602 C 479.146 2.9774 1.74484 0
M  V30 4603 C 478.259 4.1432 1.22323 0
M  V30 4604 C 477.394 4.76199 2.35388 0
M  V30 4605 C 476.433 5.84927 1.80351 0
M  V30 4606 N 475.57 6.4077 2.86982 0
M  V30 4607 H 480.41 2.97996 -0.0146545 0
M  V30 4608 H 477.947 1.47088 -0.0190013 0
M  V30 4609 H 479.905 3.39045 2.43114 0
M  V30 4610 H 478.535 2.25572 2.30905 0
M  V30 4611 H 477.587 3.7797 0.429249 0
M  V30 4612 H 478.899 4.92659 0.780309 0
M  V30 4613 H 478.053 5.20346 3.11969 0
M  V30 4614 H 476.792 3.97188 2.83006 0
M  V30 4615 H 475.797 5.40207 1.02259 0
M  V30 4616 H 477.022 6.65821 1.3364 0
M  V30 4617 H 474.968 5.64643 3.33938 0
M  V30 4618 H 474.885 7.1445 2.4718 0
M  V30 4619 H 476.153 6.89574 3.63466 0
M  V30 4620 N 480.382 0.0267497 1.57577 0
M  V30 4621 C 481.622 -0.65659 1.93567 0
M  V30 4622 C 481.986 -1.69429 0.903213 0
M  V30 4623 O 483.187 -2.42994 1.14923 0
M  V30 4624 C 481.458 -1.25912 3.34486 0
M  V30 4625 S 483.017 -1.96386 3.924 0
M  V30 4626 H 479.835 -0.216237 0.67732 0
M  V30 4627 H 482.437 0.0898475 1.95293 0
M  V30 4628 H 481.141 -0.491405 4.07447 0
M  V30 4629 H 480.672 -2.04291 3.36198 0
M  V30 4630 H 482.687 -3.24202 3.75643 0
M  V30 4631 N 481.861 -1.55662 -0.24637 0
M  V30 4632 C 483.277 -1.48098 -0.594907 0
M  V30 4633 C 483.477 -0.717044 -1.8831 0
M  V30 4634 O 482.533 -0.246618 -2.51293 0
M  V30 4635 C 483.846 -2.92507 -0.697146 0
M  V30 4636 C 485.394 -3.02881 -0.789436 0
M  V30 4637 C 485.869 -4.48598 -0.923232 0
M  V30 4638 N 487.36 -4.52538 -0.988088 0
M  V30 4639 C 488.095 -5.62536 -1.11089 0
M  V30 4640 N 487.591 -6.82342 -1.19919 0
M  V30 4641 N 489.384 -5.50334 -1.14408 0
M  V30 4642 H 481.535 -2.0377 0.599278 0
M  V30 4643 H 483.798 -0.925145 0.20691 0
M  V30 4644 H 483.504 -3.51242 0.179396 0
M  V30 4645 H 483.378 -3.43024 -1.5689 0
M  V30 4646 H 485.765 -2.44226 -1.65643 0
M  V30 4647 H 485.846 -2.55574 0.107482 0
M  V30 4648 H 485.49 -5.07864 -0.0607927 0
M  V30 4649 H 485.42 -4.93587 -1.8352 0
M  V30 4650 H 487.911 -3.66248 -0.931167 0
M  V30 4651 H 488.224 -7.61924 -1.29197 0
M  V30 4652 H 486.569 -6.85102 -1.16876 0
M  V30 4653 H 489.76 -4.5567 -1.07158 0
M  V30 4654 H 489.933 -6.36096 -1.23634 0
M  V30 4655 N 483.339 0.512053 -1.4905 0
M  V30 4656 C 484.564 1.2959 -1.6193 0
M  V30 4657 C 484.989 1.85906 -0.286454 0
M  V30 4658 O 484.347 1.65312 0.744426 0
M  V30 4659 C 484.395 2.40987 -2.68249 0
M  V30 4660 O 483.499 3.44531 -2.26654 0
M  V30 4661 H 482.84 0.383053 -0.542371 0
M  V30 4662 H 485.37 0.614231 -1.95162 0
M  V30 4663 H 485.38 2.86913 -2.90078 0
M  V30 4664 H 484.055 1.99361 -3.65004 0
M  V30 4665 H 482.632 3.046 -2.15112 0
M  V30 4666 N 484.817 1.37938 0.762283 0
M  V30 4667 C 486.065 1.33404 1.51815 0
M  V30 4668 C 486.386 -0.0780975 1.94844 0
M  V30 4669 O 485.656 -1.02405 1.67003 0
M  V30 4670 H 484.236 0.490839 0.563104 0
M  V30 4671 H 486.898 1.72527 0.906669 0
M  V30 4672 H 485.994 1.97926 2.41313 0
M  V30 4673 N 486.295 -0.989507 1.22664 0
M  V30 4674 C 487.205 -2.11449 1.01619 0
M  V30 4675 C 488.221 -1.73962 -0.036545 0
M  V30 4676 O 489.397 -2.00788 0.156924 0
M  V30 4677 C 486.462 -3.41465 0.600204 0
M  V30 4678 C 485.523 -3.93033 1.72695 0
M  V30 4679 C 484.756 -5.16844 1.33071 0
M  V30 4680 O 484.979 -5.7001 0.210975 0
M  V30 4681 O 483.913 -5.6225 2.14845 0
M  V30 4682 H 487.739 -2.32088 1.9588 0
M  V30 4683 H 485.324 -1.09823 1.01289 0
M  V30 4684 H 487.206 -4.19695 0.37873 0
M  V30 4685 H 485.881 -3.22178 -0.313511 0
M  V30 4686 H 484.788 -3.15961 2.00298 0
M  V30 4687 H 486.121 -4.16758 2.61865 0
M  V30 4688 N 487.773 -1.03688 -1.18687 0
M  V30 4689 C 489.013 -0.746858 -1.90267 0
M  V30 4690 C 489.377 0.712075 -1.78307 0
M  V30 4691 O 490.578 1.11553 -2.44559 0
M  V30 4692 C 488.849 -1.19543 -3.36815 0
M  V30 4693 S 490.408 -1.03047 -4.26529 0
M  V30 4694 H 487.226 -0.271663 -0.657054 0
M  V30 4695 H 489.828 -1.32838 -1.43437 0
M  V30 4696 H 488.532 -2.2527 -3.43047 0
M  V30 4697 H 488.063 -0.607533 -3.88681 0
M  V30 4698 H 490.078 0.0543232 -4.9617 0
M  V30 4699 N 489.251 1.34841 -0.815825 0
M  V30 4700 C 490.5 1.97755 -0.396976 0
M  V30 4701 C 490.813 1.65422 1.04379 0
M  V30 4702 O 492.019 2.21771 1.5662 0
M  V30 4703 C 490.475 3.53818 -0.658869 0
M  V30 4704 C 490.083 3.95051 -2.11278 0
M  V30 4705 C 491.827 4.23397 -0.305834 0
M  V30 4706 C 489.734 5.43997 -2.31994 0
M  V30 4707 H 488.664 0.739985 -0.1447 0
M  V30 4708 H 491.315 1.53781 -1.00118 0
M  V30 4709 H 489.697 3.95997 0.0154112 0
M  V30 4710 H 490.871 3.63998 -2.82564 0
M  V30 4711 H 489.186 3.38388 -2.42657 0
M  V30 4712 H 491.783 5.32899 -0.43854 0
M  V30 4713 H 492.126 4.09508 0.748952 0
M  V30 4714 H 492.659 3.8667 -0.934403 0
M  V30 4715 H 489.398 5.62865 -3.35952 0
M  V30 4716 H 488.918 5.76589 -1.65244 0
M  V30 4717 H 490.597 6.10584 -2.14001 0
M  V30 4718 N 490.729 0.570148 1.46925 0
M  V30 4719 C 492.006 -0.0153259 1.95594 0
M  V30 4720 C 492.386 -1.47232 1.51281 0
M  V30 4721 O 491.734 -2.15574 0.757624 0
M  V30 4722 C 491.944 0.143624 3.48704 0
M  V30 4723 C 493.292 0.00494484 4.246 0
M  V30 4724 O 494.316 0.0718214 3.56128 0
M  V30 4725 O 493.175 -0.141175 5.46318 0
M  V30 4726 H 490.269 -0.0568819 0.825041 0
M  V30 4727 H 492.815 0.637583 1.57267 0
M  V30 4728 H 491.587 1.15699 3.73804 0
M  V30 4729 H 491.21 -0.5463 3.93829 0
M  V30 4730 N 492.207 -1.54576 0.307264 0
M  V30 4731 C 493.456 -1.99442 -0.300976 0
M  V30 4732 C 493.769 -1.19928 -1.5452 0
M  V30 4733 O 494.975 -1.55092 -2.22842 0
M  V30 4734 C 493.431 -3.55084 -0.586809 0
M  V30 4735 C 493.039 -4.43413 0.639438 0
M  V30 4736 C 494.783 -4.0846 -1.1559 0
M  V30 4737 C 492.69 -5.90499 0.326411 0
M  V30 4738 H 491.62 -0.744986 -0.116238 0
M  V30 4739 H 494.271 -1.787 0.416947 0
M  V30 4740 H 492.653 -3.71749 -1.36449 0
M  V30 4741 H 493.827 -4.38522 1.41545 0
M  V30 4742 H 492.142 -4.00842 1.1276 0
M  V30 4743 H 494.739 -5.15926 -1.40445 0
M  V30 4744 H 495.082 -3.59443 -2.10015 0
M  V30 4745 H 495.615 -3.95362 -0.439778 0
M  V30 4746 H 492.354 -6.43676 1.23939 0
M  V30 4747 H 491.874 -5.98382 -0.412212 0
M  V30 4748 H 493.553 -6.46962 -0.0697393 0
M  V30 4749 N 493.685 -0.035106 -1.57561 0
M  V30 4750 C 494.91 0.655802 -1.96759 0
M  V30 4751 C 495.335 1.64523 -0.911809 0
M  V30 4752 O 494.693 1.80857 0.126673 0
M  V30 4753 C 494.741 1.33326 -3.35047 0
M  V30 4754 O 493.845 2.44866 -3.31835 0
M  V30 4755 H 493.186 0.171807 -0.641388 0
M  V30 4756 H 495.716 -0.0987369 -2.04362 0
M  V30 4757 H 495.726 1.68867 -3.71413 0
M  V30 4758 H 494.401 0.608033 -4.11431 0
M  V30 4759 H 492.978 2.11392 -3.07193 0
M  V30 4760 N 495.163 1.55791 0.238111 0
M  V30 4761 C 496.11 1.9105 1.29493 0
M  V30 4762 C 497.08 0.765733 1.47397 0
M  V30 4763 O 498.265 1.02017 1.61236 0
M  V30 4764 C 495.405 2.21826 2.64362 0
M  V30 4765 C 494.518 3.49153 2.54394 0
M  V30 4766 C 493.653 3.69455 3.81676 0
M  V30 4767 C 492.692 4.90353 3.66361 0
M  V30 4768 N 491.829 5.07131 4.85554 0
M  V30 4769 H 496.669 2.81172 0.987233 0
M  V30 4770 H 494.206 1.39179 0.476203 0
M  V30 4771 H 496.164 2.37675 3.4288 0
M  V30 4772 H 494.794 1.34897 2.93262 0
M  V30 4773 H 493.846 3.41587 1.67399 0
M  V30 4774 H 495.158 4.37818 2.38991 0
M  V30 4775 H 494.312 3.85311 4.68636 0
M  V30 4776 H 493.051 2.7904 3.99985 0
M  V30 4777 H 492.056 4.74464 2.77784 0
M  V30 4778 H 493.281 5.82237 3.49538 0
M  V30 4779 H 491.227 4.19654 5.04209 0
M  V30 4780 H 491.144 5.89899 4.72816 0
M  V30 4781 H 492.412 5.27407 5.73988 0
M  V30 4782 N 496.642 -0.504142 1.49319 0
M  V30 4783 C 497.888 -1.26033 1.58882 0
M  V30 4784 C 498.221 -1.92268 0.273274 0
M  V30 4785 O 497.496 -1.80567 -0.72291 0
M  V30 4786 C 497.779 -2.32976 2.7458 0
M  V30 4787 C 497.632 -1.71263 4.1592 0
M  V30 4788 C 498.951 -3.34561 2.85932 0
M  V30 4789 H 496.07 -0.456863 0.578312 0
M  V30 4790 H 498.712 -0.558965 1.81592 0
M  V30 4791 H 496.862 -2.92796 2.55348 0
M  V30 4792 H 498.534 -1.15294 4.4666 0
M  V30 4793 H 496.777 -1.01686 4.21714 0
M  V30 4794 H 497.448 -2.48816 4.92742 0
M  V30 4795 H 499.924 -2.84727 3.0343 0
M  V30 4796 H 498.8 -4.06754 3.68568 0
M  V30 4797 H 499.061 -3.96695 1.95154 0
M  V30 4798 N 498.12 -1.38341 -0.754957 0
M  V30 4799 C 499.36 -1.35888 -1.52689 0
M  V30 4800 C 499.724 0.0513682 -1.91931 0
M  V30 4801 O 500.925 0.200761 -2.68049 0
M  V30 4802 C 499.196 -2.28666 -2.74676 0
M  V30 4803 S 500.755 -2.4422 -3.64558 0
M  V30 4804 H 497.573 -0.482165 -0.522531 0
M  V30 4805 H 500.175 -1.74253 -0.886358 0
M  V30 4806 H 498.879 -3.30023 -2.43953 0
M  V30 4807 H 498.41 -1.91445 -3.43675 0
M  V30 4808 H 500.425 -1.66525 -4.67423 0
M  V30 4809 N 499.598 0.982988 -1.23187 0
M  V30 4810 C 500.546 2.09616 -1.00817 0
M  V30 4811 C 501.54 1.6932 0.0519995 0
M  V30 4812 O 502.746 1.79715 -0.101284 0
M  V30 4813 H 499.121 0.685628 -0.308899 0
M  V30 4814 H 501.092 2.25652 -1.95253 0
M  V30 4815 C 499.841 3.42249 -0.613243 0
M  V30 4816 H 499.164 3.73705 -1.42073 0
M  V30 4817 H 500.604 4.21086 -0.496208 0
M  V30 4818 C 499.063 3.30002 0.678233 0
M  V30 4819 O 499.593 3.6263 1.72807 0
M  V30 4820 N 497.799 2.83164 0.653165 0
M  V30 4821 H 497.346 2.56811 -0.201492 0
M  V30 4822 H 497.304 2.75352 1.51752 0
M  V30 4823 N 501.076 1.04316 1.18135 0
M  V30 4824 C 502.008 0.594444 2.21357 0
M  V30 4825 C 503.021 -0.337215 1.59269 0
M  V30 4826 O 504.21 -0.131337 1.78016 0
M  V30 4827 C 501.31 -0.151251 3.38562 0
M  V30 4828 C 500.483 0.788907 4.30227 0
M  V30 4829 C 499.542 0.0860572 5.2613 0
M  V30 4830 O 498.568 0.717302 5.64662 0
M  V30 4831 N 499.77 -1.17969 5.68387 0
M  V30 4832 H 502.535 1.48227 2.60478 0
M  V30 4833 H 500.096 0.92396 1.32946 0
M  V30 4834 H 502.088 -0.631352 3.99745 0
M  V30 4835 H 500.658 -0.940639 2.98112 0
M  V30 4836 H 499.878 1.44882 3.6661 0
M  V30 4837 H 501.166 1.42738 4.88368 0
M  V30 4838 H 500.564 -1.71302 5.3914 0
M  V30 4839 H 499.121 -1.60402 6.31755 0
M  V30 4840 N 502.554 -1.34406 0.822964 0
M  V30 4841 C 503.464 -2.33298 0.246838 0
M  V30 4842 C 504.48 -1.62625 -0.618797 0
M  V30 4843 O 505.656 -1.94391 -0.526685 0
M  V30 4844 C 502.721 -3.41785 -0.581731 0
M  V30 4845 C 501.782 -4.28206 0.306309 0
M  V30 4846 C 501.015 -5.31512 -0.48281 0
M  V30 4847 O 501.238 -5.43973 -1.71607 0
M  V30 4848 O 500.172 -6.01749 0.134884 0
M  V30 4849 H 503.998 -2.84401 1.06534 0
M  V30 4850 H 501.583 -1.37466 0.585108 0
M  V30 4851 H 503.465 -4.08028 -1.05313 0
M  V30 4852 H 502.14 -2.92925 -1.37756 0
M  V30 4853 H 501.047 -3.64885 0.825199 0
M  V30 4854 H 502.38 -4.80507 1.06649 0
M  V30 4855 N 504.032 -0.577932 -1.46621 0
M  V30 4856 C 504.964 0.195801 -2.28362 0
M  V30 4857 C 505.977 0.859983 -1.38232 0
M  V30 4858 O 507.166 0.730349 -1.62875 0
M  V30 4859 C 504.266 1.29639 -3.13124 0
M  V30 4860 C 503.439 0.725049 -4.31349 0
M  V30 4861 C 502.498 1.71274 -4.97546 0
M  V30 4862 O 501.524 1.25067 -5.5529 0
M  V30 4863 N 502.726 3.04672 -4.94121 0
M  V30 4864 H 505.491 -0.505468 -2.95407 0
M  V30 4865 H 503.052 -0.415381 -1.56481 0
M  V30 4866 H 505.044 1.95631 -3.54275 0
M  V30 4867 H 503.614 1.90059 -2.48186 0
M  V30 4868 H 502.834 -0.112205 -3.9404 0
M  V30 4869 H 504.122 0.323034 -5.07774 0
M  V30 4870 H 503.52 3.4484 -4.48444 0
M  V30 4871 H 502.077 3.66166 -5.39227 0
M  V30 4872 N 505.51 1.54411 -0.315457 0
M  V30 4873 C 506.787 1.92562 0.343398 0
M  V30 4874 C 507.167 1.24423 1.70535 0
M  V30 4875 O 506.515 0.385051 2.25232 0
M  V30 4876 C 506.725 3.46168 0.443687 0
M  V30 4877 C 508.073 4.18659 0.707783 0
M  V30 4878 O 509.097 3.52281 0.52693 0
M  V30 4879 O 507.956 5.36198 1.05612 0
M  V30 4880 H 505.05 0.80379 0.194552 0
M  V30 4881 H 507.596 1.65738 -0.364577 0
M  V30 4882 H 506.368 3.8792 -0.513172 0
M  V30 4883 H 505.991 3.79073 1.19956 0
M  V30 4884 N 506.988 0.0434614 1.5754 0
M  V30 4885 C 508.228 -0.636023 1.94253 0
M  V30 4886 C 508.592 -1.68461 0.921132 0
M  V30 4887 O 509.793 -2.41762 1.17494 0
M  V30 4888 C 508.064 -1.22357 3.35803 0
M  V30 4889 S 509.623 -1.92213 3.94461 0
M  V30 4890 H 506.441 -0.209041 0.679575 0
M  V30 4891 H 509.043 0.110556 1.95187 0
M  V30 4892 H 507.747 -0.448162 4.07946 0
M  V30 4893 H 507.278 -2.00713 3.38346 0
M  V30 4894 H 509.293 -3.20199 3.79061 0
M  V30 4895 N 508.466 -1.55915 -0.229846 0
M  V30 4896 C 509.882 -1.48721 -0.579166 0
M  V30 4897 C 510.082 -0.736976 -1.87539 0
M  V30 4898 O 509.138 -0.273258 -2.51017 0
M  V30 4899 C 510.451 -2.9323 -0.666082 0
M  V30 4900 C 511.999 -3.03701 -0.757267 0
M  V30 4901 C 512.474 -4.49552 -0.8756 0
M  V30 4902 N 513.965 -4.53561 -0.940035 0
M  V30 4903 C 514.7 -5.63683 -1.05116 0
M  V30 4904 N 514.196 -6.83576 -1.12675 0
M  V30 4905 N 515.989 -5.51516 -1.08565 0
M  V30 4906 H 508.14 -2.03123 0.620857 0
M  V30 4907 H 510.403 -0.922898 0.21671 0
M  V30 4908 H 510.109 -3.51032 0.21664 0
M  V30 4909 H 509.983 -3.44668 -1.53243 0
M  V30 4910 H 512.37 -2.45969 -1.63043 0
M  V30 4911 H 512.451 -2.55446 0.134583 0
M  V30 4912 H 512.095 -5.079 -0.00692351 0
M  V30 4913 H 512.025 -4.95506 -1.78274 0
M  V30 4914 H 514.516 -3.67215 -0.892269 0
M  V30 4915 H 514.829 -7.63251 -1.21109 0
M  V30 4916 H 513.174 -6.86303 -1.09603 0
M  V30 4917 H 516.365 -4.5678 -1.02319 0
M  V30 4918 H 516.538 -6.37372 -1.1688 0
M  V30 4919 N 509.944 0.496216 -1.49584 0
M  V30 4920 C 511.221 1.25755 -1.49816 0
M  V30 4921 C 511.601 2.09859 -0.228572 0
M  V30 4922 O 510.949 2.14449 0.788908 0
M  V30 4923 C 511.159 2.11017 -2.7798 0
M  V30 4924 C 512.507 2.70047 -3.27658 0
M  V30 4925 O 513.531 2.21281 -2.79129 0
M  V30 4926 O 512.39 3.58834 -4.1219 0
M  V30 4927 H 509.484 0.569322 -0.599834 0
M  V30 4928 H 512.03 0.510094 -1.61852 0
M  V30 4929 H 510.802 1.48879 -3.61871 0
M  V30 4930 H 510.425 2.92947 -2.68827 0
M  V30 4931 N 511.423 1.38739 0.74761 0
M  V30 4932 C 512.669 1.3648 1.50814 0
M  V30 4933 C 513.024 -0.0431982 1.92351 0
M  V30 4934 O 512.317 -1.0071 1.62997 0
M  V30 4935 C 512.511 2.25992 2.7688 0
M  V30 4936 C 512.34 3.75354 2.47668 0
M  V30 4937 C 511.11 4.44348 2.40589 0
M  V30 4938 C 513.308 4.67642 2.14046 0
M  V30 4939 N 511.29 5.79114 2.03715 0
M  V30 4940 C 512.661 5.90965 1.87512 0
M  V30 4941 C 514.716 4.55787 2.00407 0
M  V30 4942 C 513.419 7.03759 1.48714 0
M  V30 4943 C 515.445 5.68491 1.63011 0
M  V30 4944 C 514.807 6.90879 1.37353 0
M  V30 4945 H 510.906 0.554695 0.551214 0
M  V30 4946 H 513.49 1.7418 0.870033 0
M  V30 4947 H 511.661 1.9047 3.3849 0
M  V30 4948 H 513.393 2.14815 3.42982 0
M  V30 4949 H 510.148 3.97634 2.57262 0
M  V30 4950 H 510.572 6.504 1.87906 0
M  V30 4951 H 515.214 3.61712 2.18916 0
M  V30 4952 H 512.932 7.97746 1.28945 0
M  V30 4953 H 516.518 5.613 1.53081 0
M  V30 4954 H 515.398 7.76609 1.08848 0
M  V30 4955 N 512.901 -0.976442 1.23707 0
M  V30 4956 C 514.126 -1.75875 1.09922 0
M  V30 4957 C 514.551 -1.84911 -0.34489 0
M  V30 4958 O 513.909 -1.31363 -1.24954 0
M  V30 4959 C 513.957 -3.16179 1.73388 0
M  V30 4960 O 513.061 -4.00124 0.99871 0
M  V30 4961 H 512.402 -0.540954 0.385052 0
M  V30 4962 H 514.932 -1.22546 1.6384 0
M  V30 4963 H 514.942 -3.66741 1.78788 0
M  V30 4964 H 513.617 -3.08917 2.78466 0
M  V30 4965 H 512.194 -3.58624 1.02193 0
M  V30 4966 N 514.379 -1.04941 -1.1758 0
M  V30 4967 C 515.656 -0.671918 -1.83697 0
M  V30 4968 C 516.036 0.847929 -1.93322 0
M  V30 4969 O 515.384 1.75287 -1.46583 0
M  V30 4970 C 515.594 -1.35797 -3.21497 0
M  V30 4971 C 516.942 -1.4944 -3.97433 0
M  V30 4972 O 517.966 -1.31678 -3.30967 0
M  V30 4973 O 516.825 -1.78463 -5.1654 0
M  V30 4974 H 513.919 -0.236212 -0.792548 0
M  V30 4975 H 516.465 -1.14884 -1.24899 0
M  V30 4976 H 515.237 -2.39498 -3.09446 0
M  V30 4977 H 514.86 -0.870236 -3.8796 0
M  V30 4978 N 515.857 1.33968 -0.830081 0
M  V30 4979 C 516.767 2.33164 -0.259207 0
M  V30 4980 C 517.783 1.62951 0.610164 0
M  V30 4981 O 518.959 1.94668 0.516369 0
M  V30 4982 C 516.024 3.42088 0.563598 0
M  V30 4983 C 515.085 4.28037 -0.329014 0
M  V30 4984 C 514.318 5.3176 0.454616 0
M  V30 4985 O 514.541 5.44876 1.6872 0
M  V30 4986 O 513.475 6.01669 -0.166794 0
M  V30 4987 H 517.301 2.83832 -1.08041 0
M  V30 4988 H 514.886 1.37154 -0.59239 0
M  V30 4989 H 516.768 4.08581 1.03147 0
M  V30 4990 H 515.443 2.93651 1.36201 0
M  V30 4991 H 514.35 3.64443 -0.844538 0
M  V30 4992 H 515.683 4.79934 -1.09196 0
M  V30 4993 N 517.335 0.585699 1.46312 0
M  V30 4994 C 518.746 0.159938 1.86014 0
M  V30 4995 C 519.097 -1.27775 1.48889 0
M  V30 4996 O 518.222 -1.96559 0.90519 0
M  V30 4997 C 518.817 0.283485 3.37612 0
M  V30 4998 C 517.376 -0.0874256 3.76298 0
M  V30 4999 C 516.523 0.618055 2.70325 0
M  V30 5000 H 519.474 0.793737 1.37425 0
M  V30 5001 H 519.495 -0.490348 3.77327 0
M  V30 5002 H 519.007 1.32995 3.64601 0
M  V30 5003 H 517.108 -1.13391 3.54927 0
M  V30 5004 H 517.221 0.290975 4.78216 0
M  V30 5005 H 515.585 0.057993 2.54634 0
M  V30 5006 H 516.368 1.66623 3.00153 0
M  V30 5007 N 518.813 -1.54241 0.323641 0
M  V30 5008 C 519.743 -2.27289 -0.534993 0
M  V30 5009 C 520.724 -1.28087 -1.11927 0
M  V30 5010 O 521.909 -1.56899 -1.14439 0
M  V30 5011 C 519.039 -3.03075 -1.69596 0
M  V30 5012 C 517.993 -4.09614 -1.24098 0
M  V30 5013 C 517.319 -4.73242 -2.4889 0
M  V30 5014 C 518.619 -5.21087 -0.355789 0
M  V30 5015 H 520.313 -2.99308 0.0743257 0
M  V30 5016 H 517.859 -1.43952 0.0371874 0
M  V30 5017 H 519.812 -3.52907 -2.30293 0
M  V30 5018 H 518.536 -2.28673 -2.33187 0
M  V30 5019 H 517.195 -3.60666 -0.656945 0
M  V30 5020 H 516.843 -3.95455 -3.10845 0
M  V30 5021 H 516.543 -5.45209 -2.19138 0
M  V30 5022 H 518.067 -5.25848 -3.10348 0
M  V30 5023 H 519.481 -5.66675 -0.869042 0
M  V30 5024 H 517.878 -5.9991 -0.151045 0
M  V30 5025 H 518.948 -4.81005 0.613339 0
M  V30 5026 N 520.291 -0.0518155 -1.57515 0
M  V30 5027 C 521.238 0.922352 -2.11569 0
M  V30 5028 C 522.208 1.30842 -1.02321 0
M  V30 5029 O 523.393 1.39778 -1.29872 0
M  V30 5030 C 520.533 2.19167 -2.6657 0
M  V30 5031 C 519.646 1.86003 -3.89906 0
M  V30 5032 C 518.781 3.07398 -4.33221 0
M  V30 5033 C 517.82 2.70158 -5.49255 0
M  V30 5034 N 516.957 3.84248 -5.8762 0
M  V30 5035 H 521.797 0.454506 -2.94514 0
M  V30 5036 H 519.334 0.212718 -1.45554 0
M  V30 5037 H 521.292 2.93443 -2.96559 0
M  V30 5038 H 519.922 2.63528 -1.86421 0
M  V30 5039 H 518.974 1.01874 -3.66505 0
M  V30 5040 H 520.286 1.54592 -4.74239 0
M  V30 5041 H 519.44 3.89972 -4.64765 0
M  V30 5042 H 518.179 3.41988 -3.477 0
M  V30 5043 H 517.184 1.86001 -5.17382 0
M  V30 5044 H 518.409 2.36759 -6.36492 0
M  V30 5045 H 516.355 4.18638 -5.05053 0
M  V30 5046 H 516.272 3.56538 -6.66646 0
M  V30 5047 H 517.54 4.6746 -6.2378 0
M  V30 5048 N 521.769 1.56035 0.221574 0
M  V30 5049 C 522.679 1.95581 1.29558 0
M  V30 5050 C 523.695 0.859639 1.51282 0
M  V30 5051 O 524.871 1.16321 1.64413 0
M  V30 5052 C 521.936 2.26447 2.62531 0
M  V30 5053 C 520.997 3.49632 2.4911 0
M  V30 5054 C 520.23 3.79017 3.75742 0
M  V30 5055 O 520.453 3.10077 4.78757 0
M  V30 5056 O 519.387 4.72507 3.72855 0
M  V30 5057 H 523.213 2.8711 0.990035 0
M  V30 5058 H 520.798 1.43244 0.424434 0
M  V30 5059 H 522.68 2.47494 3.41064 0
M  V30 5060 H 521.355 1.38092 2.92766 0
M  V30 5061 H 520.262 3.33864 1.68777 0
M  V30 5062 H 521.595 4.3837 2.23814 0
M  V30 5063 N 523.247 -0.488276 1.49845 0
M  V30 5064 C 524.487 -1.2516 1.61599 0
M  V30 5065 C 524.851 -1.89615 0.301706 0
M  V30 5066 O 526.052 -2.67182 0.29453 0
M  V30 5067 C 524.323 -2.2805 2.75187 0
M  V30 5068 S 525.882 -3.13552 3.0697 0
M  V30 5069 H 522.7 -0.425178 0.569864 0
M  V30 5070 H 525.302 -0.551545 1.87559 0
M  V30 5071 H 524.006 -1.7925 3.69185 0
M  V30 5072 H 523.537 -3.02708 2.5126 0
M  V30 5073 H 525.552 -4.28927 2.49471 0
M  V30 5074 N 524.725 -1.39134 -0.740242 0
M  V30 5075 C 525.675 -1.33928 -1.84519 0
M  V30 5076 C 526.659 -0.221097 -1.59374 0
M  V30 5077 O 527.851 -0.458195 -1.70967 0
M  V30 5078 C 524.98 -1.17991 -3.22387 0
M  V30 5079 C 524.066 -2.34488 -3.53378 0
M  V30 5080 N 524.457 -3.59954 -3.5534 0
M  V30 5081 C 522.755 -2.27331 -3.83714 0
M  V30 5082 C 523.456 -4.36962 -3.83978 0
M  V30 5083 N 522.432 -3.66482 -4.01487 0
M  V30 5084 H 526.234 -2.28907 -1.84333 0
M  V30 5085 H 523.748 -1.32555 -0.938237 0
M  V30 5086 H 525.745 -1.12345 -4.01478 0
M  V30 5087 H 524.405 -0.23957 -3.23815 0
M  V30 5088 H 525.416 -3.93448 -3.36778 0
M  V30 5089 H 522.093 -1.41531 -3.92779 0
M  V30 5090 H 523.483 -5.45692 -3.92008 0
M  V30 5091 N 526.204 0.969867 -1.24223 0
M  V30 5092 C 527.453 1.70687 -1.07466 0
M  V30 5093 C 527.766 1.91736 0.386861 0
M  V30 5094 O 528.972 2.62986 0.674581 0
M  V30 5095 C 527.428 3.07217 -1.87472 0
M  V30 5096 C 527.036 2.94018 -3.3802 0
M  V30 5097 C 528.78 3.84804 -1.79237 0
M  V30 5098 C 526.687 4.25844 -4.10379 0
M  V30 5099 H 525.617 0.640067 -0.398536 0
M  V30 5100 H 528.268 1.08092 -1.48285 0
M  V30 5101 H 526.65 3.70628 -1.39466 0
M  V30 5102 H 527.824 2.39632 -3.9359 0
M  V30 5103 H 526.139 2.29898 -3.47183 0
M  V30 5104 H 528.736 4.82417 -2.30603 0
M  V30 5105 H 529.079 4.09356 -0.757197 0
M  V30 5106 H 529.612 3.28115 -2.24912 0
M  V30 5107 H 526.351 4.06486 -5.14246 0
M  V30 5108 H 525.871 4.80054 -3.59594 0
M  V30 5109 H 527.55 4.94475 -4.17257 0
M  V30 5110 N 527.682 1.05563 1.17022 0
M  V30 5111 C 528.63 0.653887 2.2322 0
M  V30 5112 C 529.624 -0.326642 1.66221 0
M  V30 5113 O 530.83 -0.192301 1.7897 0
M  V30 5114 H 527.205 0.193297 0.726733 0
M  V30 5115 H 529.176 1.5596 2.54399 0
M  V30 5116 C 527.925 0.0485434 3.47666 0
M  V30 5117 H 527.248 0.79413 3.91834 0
M  V30 5118 H 528.688 -0.195133 4.23551 0
M  V30 5119 C 527.147 -1.20583 3.14581 0
M  V30 5120 O 527.677 -2.29475 3.29703 0
M  V30 5121 N 525.883 -1.10493 2.68774 0
M  V30 5122 H 525.43 -0.218795 2.56669 0
M  V30 5123 H 525.388 -1.94507 2.47011 0
M  V30 5124 N 529.16 -1.33526 0.837174 0
M  V30 5125 C 530.07 -2.33023 0.271568 0
M  V30 5126 C 531.086 -1.63272 -0.601514 0
M  V30 5127 O 532.262 -1.94939 -0.506038 0
M  V30 5128 C 529.327 -3.42382 -0.545448 0
M  V30 5129 C 528.388 -4.27857 0.351709 0
M  V30 5130 C 527.621 -5.31994 -0.426409 0
M  V30 5131 O 527.844 -5.45763 -1.65828 0
M  V30 5132 O 526.778 -6.01572 0.1987 0
M  V30 5133 H 530.604 -2.83256 1.09545 0
M  V30 5134 H 528.189 -1.36837 0.599655 0
M  V30 5135 H 530.071 -4.09122 -1.00979 0
M  V30 5136 H 528.746 -2.94369 -1.34641 0
M  V30 5137 H 527.653 -3.6399 0.863853 0
M  V30 5138 H 528.986 -4.79349 1.1174 0
M  V30 5139 N 530.638 -0.59345 -1.46 0
M  V30 5140 C 531.878 -0.0859747 -2.04219 0
M  V30 5141 C 532.242 1.25432 -1.45364 0
M  V30 5142 O 533.443 1.85168 -1.9485 0
M  V30 5143 C 531.714 -0.0324314 -3.57385 0
M  V30 5144 S 533.273 0.415908 -4.36824 0
M  V30 5145 H 530.091 -0.0426872 -0.709717 0
M  V30 5146 H 532.693 -0.788369 -1.78899 0
M  V30 5147 H 531.397 -1.01166 -3.97735 0
M  V30 5148 H 530.928 0.6924 -3.87259 0
M  V30 5149 H 532.943 1.66844 -4.67309 0
M  V30 5150 N 532.116 1.54067 -0.331816 0
M  V30 5151 C 533.046 2.27569 0.522932 0
M  V30 5152 C 534.027 1.28679 1.11247 0
M  V30 5153 O 535.212 1.57504 1.13605 0
M  V30 5154 C 532.342 3.0397 1.67987 0
M  V30 5155 C 531.296 4.10267 1.21924 0
M  V30 5156 C 530.622 4.74555 2.46377 0
M  V30 5157 C 531.922 5.21268 0.32815 0
M  V30 5158 H 533.616 2.99264 -0.0901977 0
M  V30 5159 H 531.162 1.4393 -0.044821 0
M  V30 5160 H 533.115 3.54123 2.28418 0
M  V30 5161 H 531.839 2.29906 2.31971 0
M  V30 5162 H 530.498 3.61009 0.637809 0
M  V30 5163 H 530.146 3.97098 3.08743 0
M  V30 5164 H 529.846 5.46363 2.16243 0
M  V30 5165 H 531.37 5.27487 3.07555 0
M  V30 5166 H 532.784 5.67128 0.838978 0
M  V30 5167 H 531.181 5.99982 0.119228 0
M  V30 5168 H 532.251 4.80673 -0.638839 0
M  V30 5169 N 533.594 0.0601682 1.57485 0
M  V30 5170 C 534.84 -0.612501 1.93329 0
M  V30 5171 C 535.173 -1.6996 0.939526 0
M  V30 5172 O 534.448 -1.94472 -0.0330957 0
M  V30 5173 C 534.731 -1.20025 3.39508 0
M  V30 5174 C 534.584 -0.12059 4.49638 0
M  V30 5175 C 535.903 -2.10923 3.86264 0
M  V30 5176 H 533.022 -0.221185 0.703027 0
M  V30 5177 H 535.664 0.123768 1.89596 0
M  V30 5178 H 533.814 -1.82774 3.42821 0
M  V30 5179 H 535.486 0.51185 4.58452 0
M  V30 5180 H 533.729 0.550251 4.30296 0
M  V30 5181 H 534.4 -0.572019 5.49028 0
M  V30 5182 H 536.876 -1.58124 3.84884 0
M  V30 5183 H 535.752 -2.48987 4.8918 0
M  V30 5184 H 536.013 -3.01292 3.23536 0
M  V30 5185 N 535.072 -1.5615 -0.213296 0
M  V30 5186 C 536.02 -1.93953 -1.28394 0
M  V30 5187 C 537.014 -0.822592 -1.48087 0
M  V30 5188 O 538.22 -1.00748 -1.49164 0
M  V30 5189 H 534.595 -0.61648 -0.430646 0
M  V30 5190 H 536.566 -2.83275 -0.937977 0
M  V30 5191 C 535.315 -2.27969 -2.62537 0
M  V30 5192 H 534.638 -3.13432 -2.48194 0
M  V30 5193 H 536.078 -2.58297 -3.36242 0
M  V30 5194 C 534.537 -1.10775 -3.18167 0
M  V30 5195 O 535.067 -0.373201 -3.99963 0
M  V30 5196 N 533.273 -0.889377 -2.76656 0
M  V30 5197 H 532.82 -1.48843 -2.10246 0
M  V30 5198 H 532.778 -0.107 -3.14218 0
M  V30 5199 N 536.55 0.480323 -1.50102 0
M  V30 5200 C 537.498 1.60024 -1.68805 0
M  V30 5201 C 538.492 1.60089 -0.553888 0
M  V30 5202 O 539.698 1.64349 -0.734127 0
M  V30 5203 H 536.073 0.530841 -0.532646 0
M  V30 5204 H 538.044 1.41408 -2.62767 0
M  V30 5205 C 536.793 2.98029 -1.79092 0
M  V30 5206 H 536.116 2.98694 -2.65748 0
M  V30 5207 H 537.556 3.75871 -1.96206 0
M  V30 5208 C 536.015 3.32538 -0.540388 0
M  V30 5209 O 536.545 4.00386 0.324637 0
M  V30 5210 N 534.751 2.87873 -0.397154 0
M  V30 5211 H 534.298 2.32834 -1.1021 0
M  V30 5212 H 534.256 3.11328 0.438425 0
M  V30 5213 N 538.028 1.39524 0.732853 0
M  V30 5214 C 539.276 1.36594 1.48951 0
M  V30 5215 C 539.597 -0.0367507 1.94965 0
M  V30 5216 O 538.867 -0.988391 1.69138 0
M  V30 5217 H 537.447 0.502673 0.552566 0
M  V30 5218 H 540.109 1.74411 0.869869 0
M  V30 5219 H 539.205 2.03 2.3706 0
M  V30 5220 N 539.506 -0.963266 1.24736 0
M  V30 5221 C 540.754 -1.70343 1.08755 0
M  V30 5222 C 541.075 -1.91387 -0.373619 0
M  V30 5223 O 540.345 -1.4948 -1.2662 0
M  V30 5224 H 538.925 -0.631224 0.399456 0
M  V30 5225 H 541.587 -1.15859 1.56725 0
M  V30 5226 H 540.683 -2.68616 1.58909 0
M  V30 5227 N 540.985 -1.06182 -1.16461 0
M  V30 5228 C 542.225 -0.787048 -1.8864 0
M  V30 5229 C 542.589 0.674093 -1.79778 0
M  V30 5230 O 543.79 1.06341 -2.46871 0
M  V30 5231 C 542.061 -1.2666 -3.34203 0
M  V30 5232 S 543.62 -1.12071 -4.24247 0
M  V30 5233 H 540.438 -0.285539 -0.651144 0
M  V30 5234 H 543.04 -1.35851 -1.40587 0
M  V30 5235 H 541.744 -2.32496 -3.38192 0
M  V30 5236 H 541.275 -0.689841 -3.87304 0
M  V30 5237 H 543.29 -0.0509341 -4.96174 0
M  V30 5238 N 542.463 1.3308 -0.844243 0
M  V30 5239 C 543.688 2.02341 -0.455282 0
M  V30 5240 C 544.113 1.6308 0.93737 0
M  V30 5241 O 543.471 0.826118 1.61385 0
M  V30 5242 C 543.519 3.55743 -0.58988 0
M  V30 5243 O 542.623 4.1063 0.38166 0
M  V30 5244 H 541.964 0.637898 -0.184343 0
M  V30 5245 H 544.494 1.6986 -1.14056 0
M  V30 5246 H 544.504 4.05243 -0.473522 0
M  V30 5247 H 543.179 3.83662 -1.60549 0
M  V30 5248 H 541.756 3.72236 0.22241 0
M  V30 5249 N 543.941 0.601185 1.45683 0
M  V30 5250 C 544.891 -0.142686 2.27553 0
M  V30 5251 C 545.875 -0.844598 1.3695 0
M  V30 5252 O 547.067 -0.735644 1.60988 0
M  V30 5253 C 544.196 -1.14364 3.23691 0
M  V30 5254 C 543.282 -0.442894 4.21781 0
M  V30 5255 N 543.673 0.51189 5.03203 0
M  V30 5256 C 541.971 -0.691277 4.4061 0
M  V30 5257 C 542.672 0.92318 5.74328 0
M  V30 5258 N 541.648 0.268308 5.42937 0
M  V30 5259 H 545.45 0.590736 2.87902 0
M  V30 5260 H 542.964 0.424365 1.56757 0
M  V30 5261 H 544.961 -1.6909 3.8107 0
M  V30 5262 H 543.621 -1.87768 2.64902 0
M  V30 5263 H 544.632 0.888329 5.10225 0
M  V30 5264 H 541.309 -1.41049 3.92952 0
M  V30 5265 H 542.699 1.71029 6.49768 0
M  V30 5266 N 545.419 -1.53889 0.339982 0
M  V30 5267 C 546.668 -2.00035 -0.258604 0
M  V30 5268 C 546.981 -1.23179 -1.51942 0
M  V30 5269 O 548.187 -1.59784 -2.19503 0
M  V30 5270 C 546.643 -3.56249 -0.511359 0
M  V30 5271 C 546.251 -4.41957 0.733349 0
M  V30 5272 C 547.995 -4.1082 -1.069 0
M  V30 5273 C 545.902 -5.89673 0.451591 0
M  V30 5274 H 544.832 -0.747284 -0.10041 0
M  V30 5275 H 547.483 -1.77776 0.454758 0
M  V30 5276 H 545.865 -3.7456 -1.28533 0
M  V30 5277 H 547.039 -4.35421 1.50815 0
M  V30 5278 H 545.354 -3.9836 1.21237 0
M  V30 5279 H 547.951 -5.18789 -1.2947 0
M  V30 5280 H 548.294 -3.63817 -2.02343 0
M  V30 5281 H 548.827 -3.96205 -0.355817 0
M  V30 5282 H 545.566 -6.40903 1.37565 0
M  V30 5283 H 545.086 -5.99122 -0.285193 0
M  V30 5284 H 546.765 -6.46965 0.0675067 0
M  V30 5285 N 546.897 -0.0685191 -1.57451 0
M  V30 5286 C 548.137 0.605038 -1.9524 0
M  V30 5287 C 548.501 1.66974 -0.947816 0
M  V30 5288 O 549.702 2.39862 -1.21325 0
M  V30 5289 C 547.973 1.16999 -3.37707 0
M  V30 5290 S 549.532 1.85913 -3.97469 0
M  V30 5291 H 546.35 0.198203 -0.682815 0
M  V30 5292 H 548.952 -0.141594 -1.94987 0
M  V30 5293 H 547.656 0.383205 -4.08607 0
M  V30 5294 H 547.187 1.95305 -3.41496 0
M  V30 5295 H 549.202 3.14128 -3.84107 0
M  V30 5296 N 548.375 1.56261 0.205012 0
M  V30 5297 C 549.322 1.93754 1.25411 0
M  V30 5298 C 550.292 0.796826 1.45739 0
M  V30 5299 O 551.477 1.05414 1.59036 0
M  V30 5300 C 548.617 2.27383 2.59598 0
M  V30 5301 C 547.73 3.5447 2.46931 0
M  V30 5302 C 546.865 3.77468 3.73753 0
M  V30 5303 C 545.904 4.98014 3.55877 0
M  V30 5304 N 545.041 5.17316 4.74688 0
M  V30 5305 H 549.881 2.83203 0.92737 0
M  V30 5306 H 547.418 1.40158 0.446574 0
M  V30 5307 H 549.376 2.44895 3.37761 0
M  V30 5308 H 548.006 1.41088 2.90335 0
M  V30 5309 H 547.058 3.45061 1.60116 0
M  V30 5310 H 548.37 4.42789 2.29651 0
M  V30 5311 H 547.524 3.95165 4.60358 0
M  V30 5312 H 546.263 2.87461 3.93976 0
M  V30 5313 H 545.268 4.80249 2.67657 0
M  V30 5314 H 546.493 5.8952 3.37109 0
M  V30 5315 H 544.439 4.30255 4.95194 0
M  V30 5316 H 544.356 5.99796 4.60197 0
M  V30 5317 H 545.624 5.39463 5.62672 0
M  V30 5318 N 549.853 -0.472356 1.50355 0
M  V30 5319 C 551.13 -1.23356 1.51798 0
M  V30 5320 C 551.51 -2.09469 0.26193 0
M  V30 5321 O 550.858 -2.15677 -0.754691 0
M  V30 5322 C 551.068 -2.06568 2.81302 0
M  V30 5323 C 552.416 -2.648 3.31913 0
M  V30 5324 O 553.44 -2.16812 2.82614 0
M  V30 5325 O 552.299 -3.52231 4.17846 0
M  V30 5326 H 549.393 -0.559707 0.608816 0
M  V30 5327 H 551.939 -0.48428 1.62643 0
M  V30 5328 H 550.711 -1.43103 3.64194 0
M  V30 5329 H 550.334 -2.88633 2.73454 0
M  V30 5330 N 551.331 -1.39911 -0.725443 0
M  V30 5331 C 552.261 -1.42138 -1.85254 0
M  V30 5332 C 553.242 -0.283513 -1.67721 0
M  V30 5333 O 554.427 -0.490717 -1.87898 0
M  V30 5334 C 551.557 -1.27354 -3.23107 0
M  V30 5335 C 550.511 -2.3864 -3.55296 0
M  V30 5336 C 549.837 -2.08939 -4.92188 0
M  V30 5337 C 551.137 -3.8097 -3.57295 0
M  V30 5338 H 552.831 -2.36461 -1.83648 0
M  V30 5339 H 550.377 -1.13817 -0.882138 0
M  V30 5340 H 552.33 -1.2753 -4.01639 0
M  V30 5341 H 551.054 -0.295025 -3.25265 0
M  V30 5342 H 549.713 -2.37696 -2.79099 0
M  V30 5343 H 549.361 -1.09502 -4.90936 0
M  V30 5344 H 549.061 -2.83491 -5.14691 0
M  V30 5345 H 550.585 -2.10781 -5.73065 0
M  V30 5346 H 551.999 -3.8379 -4.25885 0
M  V30 5347 H 550.396 -4.5496 -3.9132 0
M  V30 5348 H 551.466 -4.11261 -2.5689 0
M  V30 5349 N 552.809 0.956637 -1.25245 0
M  V30 5350 C 554.055 1.70352 -1.10036 0
M  V30 5351 C 554.388 1.90869 0.358156 0
M  V30 5352 O 553.663 1.47819 1.26411 0
M  V30 5353 C 553.946 3.08766 -1.85298 0
M  V30 5354 C 553.799 2.95672 -3.38966 0
M  V30 5355 C 555.118 4.08622 -1.63451 0
M  V30 5356 H 552.237 0.618279 -0.401123 0
M  V30 5357 H 554.879 1.11212 -1.54051 0
M  V30 5358 H 553.029 3.59252 -1.47887 0
M  V30 5359 H 554.701 2.52527 -3.86041 0
M  V30 5360 H 552.944 2.31634 -3.6678 0
M  V30 5361 H 553.615 3.93776 -3.86839 0
M  V30 5362 H 556.091 3.67038 -1.96015 0
M  V30 5363 H 554.967 5.03514 -2.18551 0
M  V30 5364 H 555.228 4.3834 -0.575357 0
M  V30 5365 N 554.287 1.06798 1.15896 0
M  V30 5366 C 555.536 0.782796 1.8589 0
M  V30 5367 C 555.849 -0.693498 1.82893 0
M  V30 5368 O 557.055 -1.09325 2.48516 0
M  V30 5369 C 555.511 1.3502 3.33613 0
M  V30 5370 C 555.119 2.8571 3.45071 0
M  V30 5371 C 556.863 1.14278 4.08829 0
M  V30 5372 C 554.77 3.35669 4.86909 0
M  V30 5373 H 553.7 0.289149 0.696354 0
M  V30 5374 H 556.351 1.28734 1.30766 0
M  V30 5375 H 554.733 0.773407 3.88374 0
M  V30 5376 H 555.907 3.49385 3.00445 0
M  V30 5377 H 554.222 3.05178 2.83294 0
M  V30 5378 H 556.819 1.49087 5.13495 0
M  V30 5379 H 557.162 0.0814575 4.1622 0
M  V30 5380 H 557.695 1.68563 3.60321 0
M  V30 5381 H 554.434 4.41302 4.84698 0
M  V30 5382 H 553.954 2.76745 5.32139 0
M  V30 5383 H 555.633 3.31296 5.55745 0
M  V30 5384 N 555.766 -1.3263 0.851289 0
M  V30 5385 C 557.014 -1.96978 0.452128 0
M  V30 5386 C 557.335 -1.67715 -0.99482 0
M  V30 5387 O 556.605 -0.98259 -1.69476 0
M  V30 5388 H 555.185 -0.72873 0.164202 0
M  V30 5389 H 557.847 -1.61774 1.08698 0
M  V30 5390 H 556.943 -3.06387 0.594407 0
M  V30 5391 N 557.244 -0.608902 -1.45362 0
M  V30 5392 C 558.474 -0.110852 -2.06302 0
M  V30 5393 C 558.882 1.21062 -1.45398 0
M  V30 5394 O 558.225 1.74861 -0.562976 0
M  V30 5395 C 558.287 0.101793 -3.59356 0
M  V30 5396 C 557.951 -1.13808 -4.42602 0
M  V30 5397 C 558.948 -2.05653 -4.77496 0
M  V30 5398 C 556.633 -1.36727 -4.83333 0
M  V30 5399 C 558.627 -3.18745 -5.51978 0
M  V30 5400 C 556.314 -2.5012 -5.57569 0
M  V30 5401 C 557.312 -3.40957 -5.91809 0
M  V30 5402 O 557 -4.52376 -6.64538 0
M  V30 5403 H 556.732 -0.0666001 -0.672711 0
M  V30 5404 H 559.286 -0.836942 -1.87575 0
M  V30 5405 H 557.516 0.88279 -3.76489 0
M  V30 5406 H 559.205 0.551607 -4.02134 0
M  V30 5407 H 559.971 -1.89172 -4.46586 0
M  V30 5408 H 555.85 -0.669216 -4.56117 0
M  V30 5409 H 559.394 -3.8967 -5.78622 0
M  V30 5410 H 555.291 -2.66553 -5.87894 0
M  V30 5411 H 556.059 -4.51075 -6.82989 0
M  V30 5412 N 558.722 1.53707 -0.348139 0
M  V30 5413 C 559.632 2.28881 0.514857 0
M  V30 5414 C 560.648 1.34168 1.10793 0
M  V30 5415 O 561.824 1.6721 1.12262 0
M  V30 5416 C 558.889 3.05042 1.64774 0
M  V30 5417 C 557.95 4.15389 1.08398 0
M  V30 5418 C 557.183 4.87909 2.16287 0
M  V30 5419 O 557.406 4.60137 3.3709 0
M  V30 5420 O 556.34 5.74254 1.80323 0
M  V30 5421 H 560.166 3.03547 -0.0963699 0
M  V30 5422 H 557.751 1.48972 -0.113043 0
M  V30 5423 H 559.633 3.52656 2.30677 0
M  V30 5424 H 558.308 2.33228 2.24469 0
M  V30 5425 H 557.215 3.72068 0.389341 0
M  V30 5426 H 558.548 4.89318 0.531829 0
M  V30 5427 N 560.2 0.0768682 1.57412 0
M  V30 5428 C 561.44 -0.594676 1.95558 0
M  V30 5429 C 561.804 -1.66469 0.956658 0
M  V30 5430 O 563.005 -2.39215 1.22595 0
M  V30 5431 C 561.276 -1.15206 3.38323 0
M  V30 5432 S 562.835 -1.83803 3.9845 0
M  V30 5433 H 559.653 -0.194579 0.683857 0
M  V30 5434 H 562.255 0.151933 1.94909 0
M  V30 5435 H 560.959 -0.36153 4.08805 0
M  V30 5436 H 560.49 -1.93491 3.42527 0
M  V30 5437 H 562.505 -3.12087 3.85767 0
M  V30 5438 N 561.678 -1.56367 -0.196722 0
M  V30 5439 C 562.955 -1.71359 -0.943159 0
M  V30 5440 C 563.335 -0.631192 -2.01443 0
M  V30 5441 O 562.683 0.358071 -2.25677 0
M  V30 5442 C 562.893 -3.13623 -1.53106 0
M  V30 5443 C 564.241 -3.73806 -2.01381 0
M  V30 5444 O 565.265 -3.16742 -1.62951 0
M  V30 5445 O 564.124 -4.73951 -2.7209 0
M  V30 5446 H 561.218 -0.698851 -0.442195 0
M  V30 5447 H 563.764 -1.68672 -0.186547 0
M  V30 5448 H 562.536 -3.83873 -0.758785 0
M  V30 5449 H 562.159 -3.20532 -2.35255 0
M  V30 5450 N 563.156 0.464375 -1.50603 0
M  V30 5451 C 564.396 1.22573 -1.6357 0
M  V30 5452 C 564.76 1.89111 -0.331834 0
M  V30 5453 O 565.961 2.66679 -0.336999 0
M  V30 5454 C 564.232 2.23643 -2.7878 0
M  V30 5455 S 565.791 3.08628 -3.1192 0
M  V30 5456 H 562.609 0.416058 -0.576556 0
M  V30 5457 H 565.211 0.521637 -1.88412 0
M  V30 5458 H 563.915 1.73354 -3.7199 0
M  V30 5459 H 563.446 2.98672 -2.56044 0
M  V30 5460 H 565.461 4.24904 -2.56264 0
M  V30 5461 N 564.634 1.40294 0.718013 0
M  V30 5462 C 565.597 1.4012 1.81381 0
M  V30 5463 C 566.597 0.295405 1.58063 0
M  V30 5464 O 567.787 0.554187 1.6515 0
M  V30 5465 C 564.919 1.19056 3.19435 0
M  V30 5466 H 566.112 2.37645 1.82933 0
M  V30 5467 H 563.665 1.26107 0.923405 0
M  V30 5468 H 564.4 0.222809 3.23534 0
M  V30 5469 H 564.185 1.99152 3.37758 0
M  V30 5470 H 565.675 1.21716 3.99468 0
M  V30 5471 N 566.112 -0.949982 1.2575 0
M  V30 5472 C 567.075 -2.02894 1.06615 0
M  V30 5473 C 568.075 -1.60791 0.0173905 0
M  V30 5474 O 569.265 -1.72249 0.260003 0
M  V30 5475 C 566.397 -3.35219 0.619751 0
M  V30 5476 H 567.59 -2.21302 2.02399 0
M  V30 5477 H 565.143 -1.12772 1.08223 0
M  V30 5478 H 565.878 -3.22508 -0.340486 0
M  V30 5479 H 565.663 -3.67129 1.37692 0
M  V30 5480 H 567.153 -4.14505 0.507443 0
M  V30 5481 N 567.59 -1.07411 -1.15328 0
M  V30 5482 C 568.838 -0.796073 -1.85761 0
M  V30 5483 C 569.159 0.679864 -1.82764 0
M  V30 5484 O 568.429 1.49242 -1.269 0
M  V30 5485 H 567.009 -0.291495 -0.687779 0
M  V30 5486 H 569.671 -1.35799 -1.39802 0
M  V30 5487 H 568.767 -1.13114 -2.90881 0
M  V30 5488 N 569.068 1.32177 -0.85831 0
M  V30 5489 C 570.315 1.97125 -0.463484 0
M  V30 5490 C 570.643 1.67907 0.981705 0
M  V30 5491 O 569.898 0.961717 1.70439 0
M  V30 5492 C 570.197 3.51372 -0.653658 0
M  V30 5493 C 569.863 4.00584 -2.06987 0
M  V30 5494 C 568.525 4.13733 -2.4572 0
M  V30 5495 C 570.877 4.26624 -2.99402 0
M  V30 5496 C 568.205 4.50268 -3.76132 0
M  V30 5497 C 570.557 4.64618 -4.29316 0
M  V30 5498 C 569.221 4.75975 -4.67979 0
M  V30 5499 H 568.491 0.72133 -0.169601 0
M  V30 5500 H 571.138 1.57517 -1.08907 0
M  V30 5501 H 569.443 3.91761 0.0551328 0
M  V30 5502 H 571.14 3.99655 -0.328163 0
M  V30 5503 H 567.73 3.90837 -1.75911 0
M  V30 5504 H 571.914 4.1597 -2.70708 0
M  V30 5505 H 567.17 4.57256 -4.05865 0
M  V30 5506 H 571.344 4.83722 -5.00985 0
M  V30 5507 H 568.971 5.04041 -5.69076 0
M  V30 5508 N 570.547 0.616602 1.45037 0
M  V30 5509 C 571.457 -0.0985401 2.34393 0
M  V30 5510 C 572.473 -0.850971 1.51771 0
M  V30 5511 O 573.649 -0.806521 1.84546 0
M  V30 5512 C 570.714 -1.07748 3.29532 0
M  V30 5513 C 569.775 -0.326022 4.2806 0
M  V30 5514 C 569.008 -1.25833 5.18654 0
M  V30 5515 O 569.231 -2.49652 5.12864 0
M  V30 5516 O 568.165 -0.750512 5.97203 0
M  V30 5517 H 571.991 0.636016 2.96966 0
M  V30 5518 H 569.576 0.376832 1.44569 0
M  V30 5519 H 571.458 -1.64107 3.88133 0
M  V30 5520 H 570.133 -1.79291 2.69512 0
M  V30 5521 H 569.04 0.280253 3.73049 0
M  V30 5522 H 570.373 0.349091 4.9096 0
M  V30 5523 N 572.025 -1.5352 0.356285 0
M  V30 5524 C 572.955 -2.28372 -0.486661 0
M  V30 5525 C 573.936 -1.30432 -1.09185 0
M  V30 5526 O 575.121 -1.59291 -1.11085 0
M  V30 5527 C 572.251 -3.06604 -1.63129 0
M  V30 5528 C 571.205 -4.12154 -1.15381 0
M  V30 5529 C 570.531 -4.78415 -2.38796 0
M  V30 5530 C 571.831 -5.21724 -0.245179 0
M  V30 5531 H 573.525 -2.99083 0.137797 0
M  V30 5532 H 571.071 -1.43841 0.0677134 0
M  V30 5533 H 573.024 -3.57712 -2.22755 0
M  V30 5534 H 571.748 -2.33568 -2.28284 0
M  V30 5535 H 570.407 -3.61978 -0.580294 0
M  V30 5536 H 570.055 -4.01959 -3.02387 0
M  V30 5537 H 569.755 -5.49734 -2.07524 0
M  V30 5538 H 571.279 -5.32313 -2.99125 0
M  V30 5539 H 572.693 -5.68391 -0.748646 0
M  V30 5540 H 571.09 -6.00095 -0.0237608 0
M  V30 5541 H 572.16 -4.79596 0.715229 0
M  V30 5542 N 573.503 -0.0852151 -1.57369 0
M  V30 5543 C 574.752 0.580443 -1.93168 0
M  V30 5544 C 575.065 1.6995 -0.968319 0
M  V30 5545 O 576.271 2.42564 -1.21963 0
M  V30 5546 C 574.727 1.08386 -3.43192 0
M  V30 5547 C 574.335 -0.00491388 -4.48 0
M  V30 5548 C 576.079 1.72281 -3.87968 0
M  V30 5549 C 573.986 0.513299 -5.89168 0
M  V30 5550 H 572.916 0.22059 -0.72101 0
M  V30 5551 H 575.567 -0.159621 -1.82804 0
M  V30 5552 H 573.949 1.8773 -3.48674 0
M  V30 5553 H 575.123 -0.780032 -4.5415 0
M  V30 5554 H 573.438 -0.548453 -4.12772 0
M  V30 5555 H 576.035 2.12108 -4.9083 0
M  V30 5556 H 576.378 2.58811 -3.26071 0
M  V30 5557 H 576.911 0.995359 -3.85146 0
M  V30 5558 H 573.65 -0.315153 -6.54742 0
M  V30 5559 H 573.17 1.25564 -5.8651 0
M  V30 5560 H 574.849 0.985433 -6.39451 0
M  V30 5561 N 574.981 1.5647 0.188427 0
M  V30 5562 C 576.258 1.71857 0.934058 0
M  V30 5563 C 576.638 0.641867 2.01105 0
M  V30 5564 O 575.986 -0.346098 2.25864 0
M  V30 5565 C 576.196 3.14431 1.5144 0
M  V30 5566 C 577.544 3.74869 1.99396 0
M  V30 5567 O 578.568 3.17601 1.61269 0
M  V30 5568 O 577.427 4.75387 2.69573 0
M  V30 5569 H 574.521 0.701186 0.438483 0
M  V30 5570 H 577.067 1.68768 0.177599 0
M  V30 5571 H 575.839 3.8427 0.738416 0
M  V30 5572 H 575.462 3.21775 2.33552 0
M  V30 5573 N 576.459 -0.456382 1.50847 0
M  V30 5574 C 577.875 -0.791345 1.386 0
M  V30 5575 C 578.075 -1.9633 0.453498 0
M  V30 5576 O 577.131 -2.52308 -0.0984353 0
M  V30 5577 C 578.444 -1.08959 2.80265 0
M  V30 5578 C 579.992 -1.19517 2.89283 0
M  V30 5579 C 580.467 -1.52647 4.31814 0
M  V30 5580 N 581.958 -1.59609 4.34832 0
M  V30 5581 C 582.693 -1.86777 5.42127 0
M  V30 5582 N 582.189 -2.11866 6.59609 0
M  V30 5583 N 583.982 -1.88402 5.29586 0
M  V30 5584 H 576.133 0.315746 2.1004 0
M  V30 5585 H 578.396 0.0787916 0.94472 0
M  V30 5586 H 578.102 -0.301355 3.50407 0
M  V30 5587 H 577.976 -2.02211 3.18419 0
M  V30 5588 H 580.363 -1.97406 2.19351 0
M  V30 5589 H 580.444 -0.242111 2.54652 0
M  V30 5590 H 580.088 -0.752922 5.02288 0
M  V30 5591 H 580.018 -2.49127 4.63943 0
M  V30 5592 H 582.509 -1.42201 3.50125 0
M  V30 5593 H 582.822 -2.31912 7.37182 0
M  V30 5594 H 581.167 -2.09228 6.62758 0
M  V30 5595 H 584.358 -1.68307 4.36795 0
M  V30 5596 H 584.531 -2.09238 6.13289 0
M  V30 5597 N 577.937 -1.40673 -0.710563 0
M  V30 5598 C 578.884 -1.41336 -1.82463 0
M  V30 5599 C 579.854 -0.269648 -1.63897 0
M  V30 5600 O 581.039 -0.468463 -1.8496 0
M  V30 5601 C 578.179 -1.28665 -3.20218 0
M  V30 5602 C 577.292 -2.52784 -3.5032 0
M  V30 5603 C 576.427 -2.32517 -4.77608 0
M  V30 5604 C 575.466 -3.52187 -5.0063 0
M  V30 5605 N 574.603 -3.31084 -6.19135 0
M  V30 5606 H 579.443 -2.36558 -1.8123 0
M  V30 5607 H 576.98 -1.17483 -0.885226 0
M  V30 5608 H 578.938 -1.19324 -3.99772 0
M  V30 5609 H 577.568 -0.370602 -3.20666 0
M  V30 5610 H 576.62 -2.72634 -2.65283 0
M  V30 5611 H 577.932 -3.41845 -3.63241 0
M  V30 5612 H 577.086 -2.20558 -5.65189 0
M  V30 5613 H 575.825 -1.40889 -4.66906 0
M  V30 5614 H 574.83 -3.64617 -4.11502 0
M  V30 5615 H 576.055 -4.44749 -5.13201 0
M  V30 5616 H 574.001 -2.42143 -6.09674 0
M  V30 5617 H 573.918 -4.13713 -6.32754 0
M  V30 5618 H 575.186 -3.22868 -7.0949 0
M  V30 5619 N 579.415 0.9433 -1.26252 0
M  V30 5620 C 580.643 1.72367 -1.14443 0
M  V30 5621 C 581.058 1.86392 0.300572 0
M  V30 5622 O 580.415 1.36978 1.20596 0
M  V30 5623 C 580.466 3.13155 -1.806 0
M  V30 5624 O 580.187 2.99803 -3.19452 0
M  V30 5625 C 581.688 4.07417 -1.74717 0
M  V30 5626 H 578.908 0.539758 -0.398626 0
M  V30 5627 H 581.452 1.18268 -1.66832 0
M  V30 5628 H 579.607 3.64162 -1.32154 0
M  V30 5629 H 580.021 3.88697 -3.52158 0
M  V30 5630 H 581.495 5.03773 -2.25647 0
M  V30 5631 H 581.972 4.3337 -0.713244 0
M  V30 5632 H 582.578 3.6233 -2.22704 0
M  V30 5633 N 580.893 1.08022 1.14757 0
M  V30 5634 C 582.133 0.816959 1.87364 0
M  V30 5635 C 582.497 -0.645407 1.80827 0
M  V30 5636 O 583.698 -1.024 2.48531 0
M  V30 5637 C 581.969 1.31961 3.32146 0
M  V30 5638 S 583.528 1.18806 4.2241 0
M  V30 5639 H 580.346 0.295862 0.646519 0
M  V30 5640 H 582.948 1.3807 1.38408 0
M  V30 5641 H 581.652 2.37847 3.3445 0
M  V30 5642 H 581.183 0.751371 3.86158 0
M  V30 5643 H 583.198 0.129865 4.9603 0
M  V30 5644 N 582.371 -1.3172 0.865308 0
M  V30 5645 C 583.619 -1.96487 0.472995 0
M  V30 5646 C 583.94 -1.68761 -0.976975 0
M  V30 5647 O 583.21 -1.00051 -1.68424 0
M  V30 5648 H 581.79 -0.726947 0.171922 0
M  V30 5649 H 584.452 -1.60612 1.10407 0
M  V30 5650 H 583.548 -3.0574 0.62687 0
M  V30 5651 N 583.85 -0.624285 -1.44708 0
M  V30 5652 C 585.127 -0.0572781 -1.95516 0
M  V30 5653 C 585.507 1.41516 -1.56641 0
M  V30 5654 O 584.855 2.12614 -0.837111 0
M  V30 5655 C 585.065 -0.272944 -3.47931 0
M  V30 5656 C 586.413 -0.162529 -4.24289 0
M  V30 5657 O 587.437 -0.203946 -3.55616 0
M  V30 5658 O 586.296 -0.0616847 -5.46465 0
M  V30 5659 H 583.389 0.0262219 -0.826584 0
M  V30 5660 H 585.936 -0.695512 -1.54793 0
M  V30 5661 H 584.707 -1.29492 -3.69253 0
M  V30 5662 H 584.331 0.399756 -3.95585 0
M  V30 5663 N 585.328 1.53329 -0.364422 0
M  V30 5664 C 586.577 2.00421 0.226747 0
M  V30 5665 C 586.89 1.25581 1.49963 0
M  V30 5666 O 588.096 1.63256 2.16933 0
M  V30 5667 C 586.552 3.57017 0.454618 0
M  V30 5668 C 586.16 4.40734 -0.803568 0
M  V30 5669 C 587.904 4.12468 1.00351 0
M  V30 5670 C 585.811 5.8888 -0.545345 0
M  V30 5671 H 584.741 0.748787 0.0885082 0
M  V30 5672 H 587.392 1.7703 -0.482983 0
M  V30 5673 H 585.774 3.76558 1.22558 0
M  V30 5674 H 586.948 4.32967 -1.57723 0
M  V30 5675 H 585.263 3.96381 -1.27559 0
M  V30 5676 H 587.86 5.20783 1.212 0
M  V30 5677 H 588.203 3.6699 1.9653 0
M  V30 5678 H 588.736 3.96721 0.29274 0
M  V30 5679 H 585.475 6.38633 -1.47743 0
M  V30 5680 H 584.995 5.99499 0.189842 0
M  V30 5681 H 586.674 6.46776 -0.170425 0
M  V30 5682 N 586.806 0.0935595 1.57322 0
M  V30 5683 C 588.083 -0.612692 1.85756 0
M  V30 5684 C 588.463 -1.86439 0.99013 0
M  V30 5685 O 587.811 -2.28416 0.0621362 0
M  V30 5686 C 588.021 -0.929547 3.36393 0
M  V30 5687 C 589.369 -1.29366 4.04413 0
M  V30 5688 O 590.393 -1.02061 3.41265 0
M  V30 5689 O 589.252 -1.80498 5.15832 0
M  V30 5690 H 586.346 -0.306444 0.768128 0
M  V30 5691 H 588.892 0.126141 1.69231 0
M  V30 5692 H 587.664 -0.0414766 3.91278 0
M  V30 5693 H 587.287 -1.72441 3.5826 0
M  V30 5694 N 588.284 -1.56567 -0.180126 0
M  V30 5695 C 589.194 -1.98947 -1.24327 0
M  V30 5696 C 590.21 -0.899446 -1.4895 0
M  V30 5697 O 591.386 -1.20639 -1.61271 0
M  V30 5698 C 588.451 -2.33328 -2.56435 0
M  V30 5699 C 587.512 -3.56114 -2.39752 0
M  V30 5700 C 586.745 -3.88845 -3.65561 0
M  V30 5701 O 586.968 -3.22662 -4.70368 0
M  V30 5702 O 585.902 -4.82226 -3.60197 0
M  V30 5703 H 589.728 -2.89634 -0.913565 0
M  V30 5704 H 587.313 -1.44319 -0.386306 0
M  V30 5705 H 589.195 -2.5645 -3.34382 0
M  V30 5706 H 587.87 -1.45806 -2.89002 0
M  V30 5707 H 586.777 -3.38221 -1.59866 0
M  V30 5708 H 588.11 -4.4415 -2.12113 0
M  V30 5709 N 589.762 0.448376 -1.51087 0
M  V30 5710 C 591.002 1.20832 -1.64861 0
M  V30 5711 C 591.366 1.88748 -0.351873 0
M  V30 5712 O 592.567 2.66307 -0.365265 0
M  V30 5713 C 590.838 2.20674 -2.81137 0
M  V30 5714 S 592.397 3.05303 -3.15176 0
M  V30 5715 H 589.215 0.40992 -0.580936 0
M  V30 5716 H 591.817 0.501624 -1.88955 0
M  V30 5717 H 590.521 1.69399 -3.73808 0
M  V30 5718 H 590.052 2.9594 -2.59198 0
M  V30 5719 H 592.067 4.22162 -2.60756 0
M  V30 5720 N 591.24 1.41047 0.703093 0
M  V30 5721 C 592.172 1.38228 1.82827 0
M  V30 5722 C 593.185 0.285637 1.60275 0
M  V30 5723 O 594.374 0.54685 1.69917 0
M  V30 5724 C 591.474 1.13136 3.19458 0
M  V30 5725 C 590.647 2.34695 3.69103 0
M  V30 5726 C 589.706 2.05574 4.84382 0
M  V30 5727 O 588.732 2.78549 4.96386 0
M  V30 5728 N 589.934 1.04135 5.71083 0
M  V30 5729 H 592.699 2.35203 1.85741 0
M  V30 5730 H 590.26 1.35562 0.885125 0
M  V30 5731 H 592.252 0.916183 3.94193 0
M  V30 5732 H 590.822 0.247836 3.11616 0
M  V30 5733 H 590.042 2.71963 2.85359 0
M  V30 5734 H 591.33 3.15705 3.99009 0
M  V30 5735 H 590.728 0.43722 5.64008 0
M  V30 5736 H 589.285 0.886078 6.45749 0
M  V30 5737 N 592.718 -0.936591 1.26751 0
M  V30 5738 C 593.666 -2.0573 1.08527 0
M  V30 5739 C 594.66 -1.69397 0.0108784 0
M  V30 5740 O 595.866 -1.79215 0.167915 0
M  V30 5741 H 592.241 -0.673691 0.334133 0
M  V30 5742 H 594.212 -2.1825 2.03493 0
M  V30 5743 C 592.961 -3.39738 0.739845 0
M  V30 5744 H 592.284 -3.68174 1.55845 0
M  V30 5745 H 593.724 -4.18955 0.652149 0
M  V30 5746 C 592.183 -3.32292 -0.555288 0
M  V30 5747 O 592.713 -3.68794 -1.59229 0
M  V30 5748 N 590.919 -2.85394 -0.54762 0
M  V30 5749 H 590.466 -2.55886 0.296667 0
M  V30 5750 H 590.424 -2.80795 -1.41427 0
M  V30 5751 N 594.196 -1.08629 -1.14182 0
M  V30 5752 C 595.607 -0.838003 -1.66836 0
M  V30 5753 C 595.958 0.634885 -1.85644 0
M  V30 5754 O 595.083 1.49008 -1.56926 0
M  V30 5755 C 595.678 -1.51465 -3.03058 0
M  V30 5756 C 594.237 -1.31355 -3.52736 0
M  V30 5757 C 593.384 -1.57599 -2.28162 0
M  V30 5758 H 596.335 -1.24656 -0.982165 0
M  V30 5759 H 596.356 -0.943134 -3.68626 0
M  V30 5760 H 595.868 -2.58661 -2.89337 0
M  V30 5761 H 593.969 -0.262384 -3.71675 0
M  V30 5762 H 594.082 -2.04275 -4.33369 0
M  V30 5763 H 592.446 -0.997659 -2.34348 0
M  V30 5764 H 593.229 -2.66006 -2.17015 0
M  V30 5765 N 595.674 1.31259 -0.872281 0
M  V30 5766 C 596.922 1.96233 -0.483409 0
M  V30 5767 C 597.243 1.69276 0.968012 0
M  V30 5768 O 596.513 1.00943 1.67891 0
M  V30 5769 H 595.093 0.726025 -0.175774 0
M  V30 5770 H 597.755 1.60024 -1.11258 0
M  V30 5771 H 596.851 3.05403 -0.643075 0
M  V30 5772 N 597.152 0.631951 1.44375 0
M  V30 5773 C 598.401 0.134214 2.01253 0
M  V30 5774 C 598.714 -1.25171 1.50305 0
M  V30 5775 O 599.92 -1.8435 1.99317 0
M  V30 5776 C 598.376 0.189187 3.59402 0
M  V30 5777 C 597.984 1.57647 4.19346 0
M  V30 5778 C 599.728 -0.252044 4.23751 0
M  V30 5779 C 597.635 1.58651 5.69722 0
M  V30 5780 H 596.565 0.0464101 0.75257 0
M  V30 5781 H 599.216 0.790868 1.65582 0
M  V30 5782 H 597.598 -0.534584 3.92375 0
M  V30 5783 H 598.772 2.32389 3.97909 0
M  V30 5784 H 597.087 1.96186 3.67288 0
M  V30 5785 H 599.684 -0.264084 5.34047 0
M  V30 5786 H 600.027 -1.27951 3.96149 0
M  V30 5787 H 600.56 0.41926 3.95584 0
M  V30 5788 H 597.299 2.59237 6.0206 0
M  V30 5789 H 596.819 0.882039 5.93279 0
M  V30 5790 H 598.498 1.32082 6.33375 0
M  V30 5791 N 598.631 -1.53133 0.372548 0
M  V30 5792 C 599.871 -2.03267 -0.214943 0
M  V30 5793 C 600.235 -1.25362 -1.45425 0
M  V30 5794 O 601.436 -1.65536 -2.11781 0
M  V30 5795 C 599.707 -3.53985 -0.492897 0
M  V30 5796 S 601.266 -4.25977 -1.05307 0
M  V30 5797 H 598.084 -0.708289 -0.062029 0
M  V30 5798 H 600.686 -1.88539 0.517025 0
M  V30 5799 H 599.39 -4.08282 0.416442 0
M  V30 5800 H 598.921 -3.72887 -1.25375 0
M  V30 5801 H 600.936 -4.37731 -2.33679 0
M  V30 5802 N 600.109 -0.101901 -1.5727 0
M  V30 5803 C 601.334 0.571759 -1.99363 0
M  V30 5804 C 601.759 1.60507 -0.980768 0
M  V30 5805 O 601.117 1.81231 0.0498517 0
M  V30 5806 C 601.165 1.18996 -3.404 0
M  V30 5807 O 600.269 2.30572 -3.41922 0
M  V30 5808 H 599.61 0.144449 -0.648098 0
M  V30 5809 H 602.14 -0.185325 -2.03759 0
M  V30 5810 H 602.15 1.52962 -3.78241 0
M  V30 5811 H 600.825 0.432984 -4.1364 0
M  V30 5812 H 599.402 1.98173 -3.15883 0
M  V30 5813 N 601.587 1.56661 0.17182 0
M  V30 5814 C 602.519 1.92934 1.2373 0
M  V30 5815 C 603.532 0.822385 1.40502 0
M  V30 5816 O 604.721 1.10083 1.40514 0
M  V30 5817 C 601.821 2.16651 2.60607 0
M  V30 5818 C 600.994 3.47878 2.6514 0
M  V30 5819 C 600.053 3.60429 3.83377 0
M  V30 5820 O 599.079 4.33051 3.69398 0
M  V30 5821 N 600.281 2.95241 4.99813 0
M  V30 5822 H 603.046 2.84931 0.929205 0
M  V30 5823 H 600.607 1.5781 0.361588 0
M  V30 5824 H 602.599 2.22312 3.38171 0
M  V30 5825 H 601.169 1.3104 2.83809 0
M  V30 5826 H 600.389 3.53879 1.73675 0
M  V30 5827 H 601.677 4.34232 2.6518 0
M  V30 5828 H 601.075 2.3611 5.14071 0
M  V30 5829 H 599.632 3.06499 5.75241 0
M  V30 5830 N 603.065 -0.440357 1.51323 0
M  V30 5831 C 604.314 -1.18697 1.63076 0
M  V30 5832 C 604.627 -1.92418 0.35136 0
M  V30 5833 O 605.833 -2.69258 0.348221 0
M  V30 5834 C 604.289 -2.15849 2.87988 0
M  V30 5835 C 603.897 -1.47789 4.22921 0
M  V30 5836 C 605.641 -2.90962 3.09098 0
M  V30 5837 C 603.548 -2.43407 5.38987 0
M  V30 5838 H 602.478 -0.44676 0.607389 0
M  V30 5839 H 605.129 -0.454313 1.77787 0
M  V30 5840 H 603.511 -2.92537 2.66905 0
M  V30 5841 H 604.685 -0.7668 4.54375 0
M  V30 5842 H 603 -0.848404 4.07665 0
M  V30 5843 H 605.597 -3.62584 3.92985 0
M  V30 5844 H 605.94 -3.52133 2.22053 0
M  V30 5845 H 606.473 -2.21381 3.30507 0
M  V30 5846 H 603.212 -1.86929 6.28282 0
M  V30 5847 H 602.732 -3.12579 5.11913 0
M  V30 5848 H 604.411 -3.046 5.70813 0
M  V30 5849 N 604.543 -1.41418 -0.695603 0
M  V30 5850 C 605.783 -1.42241 -1.46788 0
M  V30 5851 C 606.147 -0.0300827 -1.91976 0
M  V30 5852 O 607.348 0.0868914 -2.6866 0
M  V30 5853 C 605.619 -2.4011 -2.6473 0
M  V30 5854 S 607.178 -2.59462 -3.53871 0
M  V30 5855 H 603.996 -0.503893 -0.50161 0
M  V30 5856 H 606.598 -1.77855 -0.811654 0
M  V30 5857 H 605.302 -3.40073 -2.29736 0
M  V30 5858 H 604.833 -2.05849 -3.35246 0
M  V30 5859 H 606.848 -1.862 -4.59939 0
M  V30 5860 N 606.021 0.929856 -1.27246 0
M  V30 5861 C 607.27 1.67182 -1.12842 0
M  V30 5862 C 607.583 1.9287 0.325666 0
M  V30 5863 O 608.789 2.64999 0.590572 0
M  V30 5864 C 607.245 3.01097 -1.97151 0
M  V30 5865 C 606.853 2.83115 -3.47203 0
M  V30 5866 C 608.597 3.78907 -1.91389 0
M  V30 5867 C 606.504 4.12573 -4.23719 0
M  V30 5868 H 605.434 0.627064 -0.418697 0
M  V30 5869 H 608.085 1.0332 -1.51649 0
M  V30 5870 H 606.467 3.66004 -1.51186 0
M  V30 5871 H 607.641 2.26989 -4.01015 0
M  V30 5872 H 605.956 2.18736 -3.54321 0
M  V30 5873 H 608.553 4.74837 -2.45834 0
M  V30 5874 H 608.896 4.0674 -0.887047 0
M  V30 5875 H 609.429 3.20794 -2.35237 0
M  V30 5876 H 606.168 3.8992 -5.26918 0
M  V30 5877 H 605.688 4.68371 -3.74685 0
M  V30 5878 H 607.367 4.8095 -4.32777 0
M  V30 5879 N 607.499 1.09233 1.13605 0
M  V30 5880 C 608.447 0.724572 2.21027 0
M  V30 5881 C 609.441 -0.273595 1.67176 0
M  V30 5882 O 610.647 -0.135266 1.79491 0
M  V30 5883 H 607.022 0.216319 0.720215 0
M  V30 5884 H 608.993 1.63975 2.49309 0
M  V30 5885 C 607.742 0.159126 3.47336 0
M  V30 5886 H 607.065 0.918387 3.89109 0
M  V30 5887 H 608.505 -0.0602851 4.23957 0
M  V30 5888 C 606.964 -1.10514 3.18258 0
M  V30 5889 O 607.494 -2.18869 3.36837 0
M  V30 5890 N 605.7 -1.01886 2.72154 0
M  V30 5891 H 605.247 -0.137027 2.57235 0
M  V30 5892 H 605.205 -1.8655 2.53074 0
M  V30 5893 N 608.977 -1.30795 0.87923 0
M  V30 5894 C 609.907 -2.30742 0.357796 0
M  V30 5895 C 610.888 -1.60747 -0.556283 0
M  V30 5896 O 612.073 -1.88393 -0.47135 0
M  V30 5897 C 609.203 -3.44583 -0.433555 0
M  V30 5898 C 608.157 -4.26235 0.388251 0
M  V30 5899 C 607.483 -5.32073 -0.529352 0
M  V30 5900 C 608.783 -4.96303 1.62729 0
M  V30 5901 H 610.477 -2.74605 1.19299 0
M  V30 5902 H 608.023 -1.32017 0.575104 0
M  V30 5903 H 609.976 -4.13563 -0.808934 0
M  V30 5904 H 608.7 -2.99511 -1.30234 0
M  V30 5905 H 607.359 -3.58936 0.745695 0
M  V30 5906 H 607.007 -4.83249 -1.39569 0
M  V30 5907 H 606.707 -5.87598 0.0166741 0
M  V30 5908 H 608.231 -6.0391 -0.901373 0
M  V30 5909 H 609.645 -5.5783 1.32283 0
M  V30 5910 H 608.042 -5.61666 2.11309 0
M  V30 5911 H 609.112 -4.22758 2.37494 0
M  V30 5912 N 610.455 -0.639598 -1.44038 0
M  V30 5913 C 611.402 0.0602458 -2.30721 0
M  V30 5914 C 612.372 0.828352 -1.43971 0
M  V30 5915 O 613.557 0.807693 -1.72861 0
M  V30 5916 C 610.697 1.03008 -3.29368 0
M  V30 5917 C 609.81 0.259502 -4.3122 0
M  V30 5918 C 608.945 1.22191 -5.16955 0
M  V30 5919 C 607.984 0.440978 -6.10509 0
M  V30 5920 N 607.121 1.35428 -6.88915 0
M  V30 5921 H 611.961 -0.684867 -2.90023 0
M  V30 5922 H 609.498 -0.349509 -1.42888 0
M  V30 5923 H 611.456 1.60583 -3.85057 0
M  V30 5924 H 610.086 1.74222 -2.71747 0
M  V30 5925 H 609.138 -0.432317 -3.77935 0
M  V30 5926 H 610.45 -0.348347 -4.97582 0
M  V30 5927 H 609.604 1.86873 -5.77203 0
M  V30 5928 H 608.343 1.86367 -4.50687 0
M  V30 5929 H 607.348 -0.219279 -5.49363 0
M  V30 5930 H 608.573 -0.196192 -6.78817 0
M  V30 5931 H 606.519 1.9831 -6.25307 0
M  V30 5932 H 606.436 0.800657 -7.51748 0
M  V30 5933 H 607.704 1.98967 -7.53679 0
M  V30 5934 N 611.933 1.52934 -0.380664 0
M  V30 5935 C 613.181 2.01069 0.203874 0
M  V30 5936 C 613.502 1.26922 1.4804 0
M  V30 5937 O 612.772 0.386787 1.92044 0
M  V30 5938 H 611.352 0.742882 0.0783279 0
M  V30 5939 H 614.014 1.88099 -0.510368 0
M  V30 5940 H 613.11 3.09258 0.42021 0
M  V30 5941 N 613.412 0.11024 1.57214 0
M  V30 5942 C 614.66 -0.548783 1.94506 0
M  V30 5943 C 614.981 -1.67772 0.99386 0
M  V30 5944 O 614.251 -1.9584 0.0485841 0
M  V30 5945 H 612.831 -0.205715 0.718116 0
M  V30 5946 H 615.493 0.177127 1.94093 0
M  V30 5947 H 614.589 -0.949096 2.97319 0
M  V30 5948 N 614.89 -1.56749 -0.16351 0
M  V30 5949 C 616.12 -1.86307 -0.892936 0
M  V30 5950 C 616.528 -0.6945 -1.75992 0
M  V30 5951 O 615.871 0.345384 -1.80424 0
M  V30 5952 C 615.933 -3.10372 -1.81409 0
M  V30 5953 C 615.597 -4.42913 -1.12593 0
M  V30 5954 C 616.594 -5.17608 -0.487661 0
M  V30 5955 C 614.279 -4.89646 -1.12035 0
M  V30 5956 C 616.273 -6.3723 0.14699 0
M  V30 5957 C 613.96 -6.09197 -0.481883 0
M  V30 5958 C 614.958 -6.82834 0.150678 0
M  V30 5959 O 614.646 -8.00116 0.779065 0
M  V30 5960 H 614.378 -0.622126 -0.264452 0
M  V30 5961 H 616.932 -2.04728 -0.166063 0
M  V30 5962 H 615.162 -2.87917 -2.58148 0
M  V30 5963 H 616.851 -3.26312 -2.41403 0
M  V30 5964 H 617.617 -4.8258 -0.483888 0
M  V30 5965 H 613.496 -4.32265 -1.60212 0
M  V30 5966 H 617.04 -6.94646 0.641325 0
M  V30 5967 H 612.937 -6.43688 -0.483266 0
M  V30 5968 H 613.705 -8.15678 0.679089 0
M  V30 5969 N 616.368 0.432326 -1.51554 0
M  V30 5970 C 617.315 1.52512 -1.7323 0
M  V30 5971 C 618.285 1.55863 -0.5741 0
M  V30 5972 O 619.47 1.72796 -0.809093 0
M  V30 5973 C 616.61 2.90183 -1.86783 0
M  V30 5974 C 615.723 2.96322 -3.14352 0
M  V30 5975 C 614.858 4.25147 -3.18471 0
M  V30 5976 C 613.897 4.25172 -4.40335 0
M  V30 5977 N 613.034 5.45529 -4.41975 0
M  V30 5978 H 617.874 1.33332 -2.66508 0
M  V30 5979 H 615.411 0.647613 -1.32077 0
M  V30 5980 H 617.369 3.70071 -1.92623 0
M  V30 5981 H 615.999 3.0791 -0.969087 0
M  V30 5982 H 615.051 2.09066 -3.17798 0
M  V30 5983 H 616.363 2.92203 -4.04251 0
M  V30 5984 H 615.517 5.13411 -3.23255 0
M  V30 5985 H 614.256 4.31929 -2.2647 0
M  V30 5986 H 613.261 3.353 -4.35723 0
M  V30 5987 H 614.486 4.20049 -5.33606 0
M  V30 5988 H 612.432 5.53024 -3.52847 0
M  V30 5989 H 612.349 5.43311 -5.25689 0
M  V30 5990 H 613.617 6.35812 -4.50958 0
M  V30 5991 N 617.846 1.41785 0.688094 0
M  V30 5992 C 619.086 1.43018 1.46032 0
M  V30 5993 C 619.45 0.0402632 1.91958 0
M  V30 5994 O 620.651 -0.0726425 2.68702 0
M  V30 5995 C 618.922 2.4151 2.63453 0
M  V30 5996 S 620.481 2.61335 3.5249 0
M  V30 5997 H 617.299 0.506546 0.498931 0
M  V30 5998 H 619.901 1.78283 0.80221 0
M  V30 5999 H 618.605 3.41286 2.27929 0
M  V30 6000 H 618.136 2.07624 3.34149 0
M  V30 6001 H 620.151 1.88637 4.58945 0
M  V30 6002 N 619.324 -0.923095 1.27737 0
M  V30 6003 C 620.234 -2.05765 1.12685 0
M  V30 6004 C 621.25 -1.73911 0.0557197 0
M  V30 6005 O 622.426 -1.99674 0.263137 0
M  V30 6006 C 619.491 -3.37804 0.780363 0
M  V30 6007 C 618.552 -3.83326 1.93286 0
M  V30 6008 C 617.785 -5.09064 1.60281 0
M  V30 6009 O 618.008 -5.6809 0.512828 0
M  V30 6010 O 616.942 -5.50071 2.44347 0
M  V30 6011 H 620.768 -2.21378 2.07907 0
M  V30 6012 H 618.353 -1.04299 1.06968 0
M  V30 6013 H 620.235 -4.17097 0.600668 0
M  V30 6014 H 618.91 -3.23387 -0.142291 0
M  V30 6015 H 617.817 -3.049 2.16764 0
M  V30 6016 H 619.15 -4.02292 2.83588 0
M  V30 6017 N 620.802 -1.09834 -1.13024 0
M  V30 6018 C 622.042 -0.846664 -1.8604 0
M  V30 6019 C 622.406 0.616557 -1.81831 0
M  V30 6020 O 623.607 0.984329 -2.50129 0
M  V30 6021 C 621.878 -1.37228 -3.30005 0
M  V30 6022 S 623.437 -1.25511 -4.20467 0
M  V30 6023 H 620.255 -0.30611 -0.64173 0
M  V30 6024 H 622.857 -1.40255 -1.36194 0
M  V30 6025 H 621.561 -2.43138 -3.30624 0
M  V30 6026 H 621.092 -0.81271 -3.84914 0
M  V30 6027 H 623.107 -0.208762 -4.95761 0
M  V30 6028 N 622.28 1.30327 -0.886154 0
M  V30 6029 C 623.505 2.0079 -0.519425 0
M  V30 6030 C 623.93 1.65979 0.885013 0
M  V30 6031 O 623.288 0.877043 1.58675 0
M  V30 6032 C 623.336 3.53686 -0.702758 0
M  V30 6033 O 622.44 4.11637 0.250828 0
M  V30 6034 H 621.781 0.63171 -0.204544 0
M  V30 6035 H 624.311 1.66145 -1.19402 0
M  V30 6036 H 624.321 4.03531 -0.602207 0
M  V30 6037 H 622.996 3.78361 -1.72673 0
M  V30 6038 H 621.573 3.72755 0.103873 0
M  V30 6039 N 623.758 0.647228 1.43697 0
M  V30 6040 C 625.174 0.314256 1.56476 0
M  V30 6041 C 625.374 -1.18191 1.63196 0
M  V30 6042 O 624.43 -1.96655 1.58376 0
M  V30 6043 C 625.743 1.02034 2.82859 0
M  V30 6044 C 627.291 1.00002 2.96595 0
M  V30 6045 C 627.766 1.68689 4.25803 0
M  V30 6046 N 629.257 1.65424 4.32654 0
M  V30 6047 C 629.992 2.1545 5.31384 0
M  V30 6048 N 629.488 2.73738 6.36427 0
M  V30 6049 N 631.281 2.05985 5.22998 0
M  V30 6050 H 623.432 1.61821 1.37578 0
M  V30 6051 H 625.695 0.680184 0.660344 0
M  V30 6052 H 625.401 2.07542 2.83935 0
M  V30 6053 H 625.275 0.568146 3.72897 0
M  V30 6054 H 627.662 -0.0466319 2.95063 0
M  V30 6055 H 627.743 1.49086 2.07863 0
M  V30 6056 H 627.387 2.73308 4.28095 0
M  V30 6057 H 627.317 1.17076 5.13421 0
M  V30 6058 H 629.808 1.22884 3.57363 0
M  V30 6059 H 630.121 3.09602 7.08072 0
M  V30 6060 H 628.466 2.77796 6.37067 0
M  V30 6061 H 631.657 1.60157 4.39849 0
M  V30 6062 H 631.83 2.45281 5.99784 0
M  V30 6063 N 625.236 -1.5273 0.388769 0
M  V30 6064 C 626.484 -2.01174 -0.193208 0
M  V30 6065 C 626.805 -1.27705 -1.47365 0
M  V30 6066 O 626.075 -0.396966 -1.91836 0
M  V30 6067 H 624.655 -0.743287 -0.0743871 0
M  V30 6068 H 627.317 -1.87826 0.520336 0
M  V30 6069 H 626.413 -3.09477 -0.403803 0
M  V30 6070 N 626.714 -0.118576 -1.57153 0
M  V30 6071 C 627.944 0.546466 -1.99242 0
M  V30 6072 C 628.352 1.60791 -0.997148 0
M  V30 6073 O 627.695 1.83691 0.0181745 0
M  V30 6074 C 627.757 1.23167 -3.37743 0
M  V30 6075 C 627.421 0.318226 -4.55891 0
M  V30 6076 C 628.418 -0.442988 -5.18009 0
M  V30 6077 C 626.103 0.229421 -5.01776 0
M  V30 6078 C 628.097 -1.28074 -6.244 0
M  V30 6079 C 625.784 -0.611966 -6.08028 0
M  V30 6080 C 626.782 -1.36568 -6.69207 0
M  V30 6081 O 626.47 -2.1931 -7.73407 0
M  V30 6082 H 626.202 0.149297 -0.659307 0
M  V30 6083 H 628.756 -0.201603 -2.04408 0
M  V30 6084 H 626.986 2.0268 -3.29329 0
M  V30 6085 H 628.675 1.79358 -3.64123 0
M  V30 6086 H 629.441 -0.38425 -4.83475 0
M  V30 6087 H 625.32 0.805771 -4.53903 0
M  V30 6088 H 628.864 -1.86952 -6.72082 0
M  V30 6089 H 624.761 -0.6721 -6.41991 0
M  V30 6090 H 625.529 -2.12247 -7.90502 0
M  V30 6091 N 628.193 1.56834 0.155195 0
M  V30 6092 C 629.125 1.94235 1.21677 0
M  V30 6093 C 630.138 0.83724 1.39621 0
M  V30 6094 O 631.327 1.11567 1.39338 0
M  V30 6095 C 628.427 2.19402 2.58294 0
M  V30 6096 C 627.6 3.50671 2.61436 0
M  V30 6097 C 626.659 3.64475 3.79532 0
M  V30 6098 O 625.685 4.36945 3.64784 0
M  V30 6099 N 626.887 3.00526 4.96653 0
M  V30 6100 H 629.652 2.85901 0.898932 0
M  V30 6101 H 627.213 1.58185 0.34483 0
M  V30 6102 H 629.205 2.25886 3.35794 0
M  V30 6103 H 627.775 1.34042 2.82403 0
M  V30 6104 H 626.995 3.55702 1.69912 0
M  V30 6105 H 628.283 4.3702 2.60559 0
M  V30 6106 H 627.681 2.41549 5.11538 0
M  V30 6107 H 626.238 3.12583 5.71958 0
M  V30 6108 N 629.671 -0.424282 1.51781 0
M  V30 6109 C 630.604 -1.53633 1.68737 0
M  V30 6110 C 631.582 -1.53549 0.534915 0
M  V30 6111 O 632.766 -1.72483 0.760391 0
M  V30 6112 C 629.893 -2.92195 1.71288 0
M  V30 6113 C 628.939 -3.10251 2.92654 0
M  V30 6114 S 629.772 -2.85166 4.53256 0
M  V30 6115 C 630.928 -4.25986 4.58571 0
M  V30 6116 H 631.161 -1.39018 2.62795 0
M  V30 6117 H 628.694 -0.614854 1.41629 0
M  V30 6118 H 630.652 -3.72059 1.73443 0
M  V30 6119 H 629.313 -3.04162 0.783847 0
M  V30 6120 H 628.506 -4.1159 2.90877 0
M  V30 6121 H 628.108 -2.38231 2.88308 0
M  V30 6122 H 630.4 -5.19392 4.35015 0
M  V30 6123 H 631.343 -4.32792 5.60444 0
M  V30 6124 H 631.751 -4.1025 3.87757 0
M  V30 6125 N 631.149 -1.42148 -0.680565 0
M  V30 6126 C 632.426 -1.32795 -1.43614 0
M  V30 6127 C 632.806 0.037415 -2.11067 0
M  V30 6128 O 632.154 1.05258 -2.02813 0
M  V30 6129 C 632.364 -2.49206 -2.44331 0
M  V30 6130 C 633.712 -2.91059 -3.09144 0
M  V30 6131 O 634.736 -2.49054 -2.54657 0
M  V30 6132 O 633.595 -3.63741 -4.07866 0
M  V30 6133 H 630.689 -0.523397 -0.640301 0
M  V30 6134 H 633.235 -1.54144 -0.709775 0
M  V30 6135 H 632.007 -3.40252 -1.93247 0
M  V30 6136 H 631.63 -2.29813 -3.24456 0
M  V30 6137 N 632.627 0.916307 -1.28225 0
M  V30 6138 C 633.557 2.0352 -1.14464 0
M  V30 6139 C 634.538 1.70045 -0.0430844 0
M  V30 6140 O 635.723 1.92954 -0.219619 0
M  V30 6141 C 632.853 3.37889 -0.803027 0
M  V30 6142 C 631.807 3.85516 -1.85908 0
M  V30 6143 C 631.133 5.1682 -1.37116 0
M  V30 6144 C 632.433 4.07655 -3.26519 0
M  V30 6145 H 634.127 2.1529 -2.08064 0
M  V30 6146 H 631.673 1.03446 -1.00174 0
M  V30 6147 H 633.626 4.15654 -0.693537 0
M  V30 6148 H 632.35 3.26164 0.168674 0
M  V30 6149 H 631.009 3.09953 -1.95767 0
M  V30 6150 H 630.657 5.01497 -0.38859 0
M  V30 6151 H 630.357 5.49657 -2.07728 0
M  V30 6152 H 631.881 5.97143 -1.27484 0
M  V30 6153 H 633.295 4.75953 -3.19596 0
M  V30 6154 H 631.692 4.51818 -3.94943 0
M  V30 6155 H 632.762 3.12553 -3.70727 0
M  V30 6156 N 634.105 1.10431 1.1244 0
M  V30 6157 C 635.068 0.756542 2.16354 0
M  V30 6158 C 636.068 -0.21899 1.59302 0
M  V30 6159 O 637.258 0.00415969 1.742 0
M  V30 6160 C 634.39 0.120612 3.40687 0
M  V30 6161 H 635.583 1.67696 2.48632 0
M  V30 6162 H 633.136 0.904832 1.27446 0
M  V30 6163 H 633.871 -0.810536 3.14008 0
M  V30 6164 H 633.656 0.822693 3.83372 0
M  V30 6165 H 635.146 -0.106945 4.17463 0
M  V30 6166 N 635.583 -1.29855 0.893053 0
M  V30 6167 C 636.811 -1.99976 0.530788 0
M  V30 6168 C 637.226 -1.66889 -0.882799 0
M  V30 6169 O 636.583 -0.910352 -1.58173 0
M  V30 6170 C 636.634 -3.54547 0.705587 0
M  V30 6171 O 636.355 -3.86458 2.06353 0
M  V30 6172 C 637.856 -4.41937 0.347387 0
M  V30 6173 H 635.076 -0.639129 0.204339 0
M  V30 6174 H 637.62 -1.65549 1.20057 0
M  V30 6175 H 635.775 -3.87311 0.0830685 0
M  V30 6176 H 636.189 -4.81146 2.08803 0
M  V30 6177 H 637.663 -5.4954 0.520557 0
M  V30 6178 H 638.14 -4.33339 -0.715139 0
M  V30 6179 H 638.746 -4.14633 0.946567 0
M  V30 6180 N 637.061 -0.65484 -1.43351 0
M  V30 6181 C 638.309 -0.168559 -2.01396 0
M  V30 6182 C 638.63 1.22235 -1.51933 0
M  V30 6183 O 637.9 1.81685 -0.732627 0
M  V30 6184 H 636.48 -0.0593244 -0.744641 0
M  V30 6185 H 639.142 -0.846871 -1.75539 0
M  V30 6186 H 638.238 -0.154428 -3.11718 0
M  V30 6187 N 638.539 1.52521 -0.396863 0
M  V30 6188 C 639.785 2.01971 0.183169 0
M  V30 6189 C 640.118 1.2825 1.45827 0
M  V30 6190 O 639.393 0.385179 1.90648 0
M  V30 6191 C 639.676 3.5736 0.443391 0
M  V30 6192 C 639.529 4.41743 -0.84753 0
M  V30 6193 C 640.848 4.22539 1.2308 0
M  V30 6194 H 637.967 0.734119 0.0650976 0
M  V30 6195 H 640.609 1.82519 -0.527918 0
M  V30 6196 H 638.759 3.74066 1.04914 0
M  V30 6197 H 640.431 4.36773 -1.48414 0
M  V30 6198 H 638.674 4.0845 -1.4612 0
M  V30 6199 H 639.345 5.48507 -0.620003 0
M  V30 6200 H 641.821 4.09857 0.718084 0
M  V30 6201 H 640.697 5.31227 1.38162 0
M  V30 6202 H 640.958 3.80675 2.24808 0
M  V30 6203 N 640.017 0.126909 1.57088 0
M  V30 6204 C 641.257 -0.53216 1.97351 0
M  V30 6205 C 641.621 -1.63342 1.00913 0
M  V30 6206 O 642.822 -2.35194 1.30144 0
M  V30 6207 C 641.093 -1.04385 3.41817 0
M  V30 6208 S 642.652 -1.71033 4.04095 0
M  V30 6209 H 639.47 -0.172724 0.689701 0
M  V30 6210 H 642.072 0.213865 1.94327 0
M  V30 6211 H 640.776 -0.231289 4.09748 0
M  V30 6212 H 640.307 -1.82496 3.48509 0
M  V30 6213 H 642.322 -2.99656 3.95501 0
M  V30 6214 N 641.495 -1.56914 -0.146875 0
M  V30 6215 C 642.442 -1.98275 -1.18134 0
M  V30 6216 C 643.412 -0.850367 -1.42681 0
M  V30 6217 O 644.597 -1.11244 -1.55014 0
M  V30 6218 C 641.737 -2.36861 -2.5098 0
M  V30 6219 C 640.85 -3.63391 -2.33605 0
M  V30 6220 C 639.985 -3.91079 -3.59486 0
M  V30 6221 C 639.024 -5.10879 -3.37149 0
M  V30 6222 N 638.161 -5.34577 -4.55161 0
M  V30 6223 H 643.001 -2.8645 -0.821622 0
M  V30 6224 H 640.538 -1.41718 -0.394248 0
M  V30 6225 H 642.496 -2.57262 -3.28439 0
M  V30 6226 H 641.126 -1.51766 -2.84898 0
M  V30 6227 H 640.178 -3.50766 -1.47199 0
M  V30 6228 H 641.49 -4.51007 -2.13059 0
M  V30 6229 H 640.644 -4.11979 -4.45374 0
M  V30 6230 H 639.383 -3.01885 -3.83036 0
M  V30 6231 H 638.388 -4.89853 -2.49649 0
M  V30 6232 H 639.613 -6.01626 -3.14997 0
M  V30 6233 H 637.559 -4.48337 -4.78884 0
M  V30 6234 H 637.476 -6.16463 -4.37618 0
M  V30 6235 H 638.744 -5.59975 -5.42263 0
M  V30 6236 N 642.974 0.416227 -1.52004 0
M  V30 6237 C 643.937 1.48926 -1.74223 0
M  V30 6238 C 644.937 1.48693 -0.612119 0
M  V30 6239 O 646.127 1.50343 -0.879921 0
M  V30 6240 C 643.259 2.88372 -1.81809 0
M  V30 6241 H 644.452 1.3052 -2.70008 0
M  V30 6242 H 642.005 0.646271 -1.42313 0
M  V30 6243 H 642.74 3.12157 -0.879135 0
M  V30 6244 H 642.525 2.89944 -2.6396 0
M  V30 6245 H 644.015 3.66173 -2.00766 0
M  V30 6246 N 644.452 1.42507 0.673017 0
M  V30 6247 C 645.698 1.43284 1.43519 0
M  V30 6248 C 646.031 0.049668 1.94136 0
M  V30 6249 O 645.306 -0.926369 1.71022 0
M  V30 6250 C 645.589 2.45874 2.63093 0
M  V30 6251 C 645.442 3.93388 2.18096 0
M  V30 6252 C 646.761 2.45431 3.6531 0
M  V30 6253 H 643.88 0.521752 0.520522 0
M  V30 6254 H 646.522 1.73932 0.764701 0
M  V30 6255 H 644.672 2.19869 3.20296 0
M  V30 6256 H 646.344 4.30379 1.66046 0
M  V30 6257 H 644.587 4.07169 1.49652 0
M  V30 6258 H 645.258 4.60752 3.03993 0
M  V30 6259 H 647.734 2.68561 3.17827 0
M  V30 6260 H 646.61 3.19189 4.46553 0
M  V30 6261 H 646.871 1.48092 4.16559 0
M  V30 6262 N 645.93 -0.909495 1.28709 0
M  V30 6263 C 647.178 -1.65577 1.15882 0
M  V30 6264 C 647.499 -1.928 -0.292108 0
M  V30 6265 O 646.769 -1.54716 -1.20166 0
M  V30 6266 H 645.349 -0.613714 0.425869 0
M  V30 6267 H 648.011 -1.09108 1.61498 0
M  V30 6268 H 647.107 -2.61634 1.70159 0
M  V30 6269 N 647.408 -1.11026 -1.11852 0
M  V30 6270 C 648.355 -0.764662 -2.17765 0
M  V30 6271 C 649.325 0.261854 -1.64023 0
M  V30 6272 O 650.51 0.139748 -1.90288 0
M  V30 6273 C 647.65 -0.209317 -3.44465 0
M  V30 6274 C 646.763 -1.29187 -4.12231 0
M  V30 6275 C 645.898 -0.697523 -5.266 0
M  V30 6276 C 644.937 -1.76023 -5.86244 0
M  V30 6277 N 644.074 -1.18569 -6.92016 0
M  V30 6278 H 648.914 -1.67202 -2.46673 0
M  V30 6279 H 646.451 -0.835065 -1.21099 0
M  V30 6280 H 648.409 0.130599 -4.16996 0
M  V30 6281 H 647.039 0.661251 -3.15955 0
M  V30 6282 H 646.091 -1.74881 -3.37818 0
M  V30 6283 H 647.403 -2.09607 -4.52622 0
M  V30 6284 H 646.557 -0.307412 -6.05921 0
M  V30 6285 H 645.296 0.138044 -4.87505 0
M  V30 6286 H 644.301 -2.1597 -5.05606 0
M  V30 6287 H 645.526 -2.59875 -6.27409 0
M  V30 6288 H 643.472 -0.371695 -6.54946 0
M  V30 6289 H 643.389 -1.92666 -7.31038 0
M  V30 6290 H 644.657 -0.82233 -7.7515 0
M  V30 6291 N 648.886 1.2938 -0.899927 0
M  V30 6292 C 649.796 2.31462 -0.382437 0
M  V30 6293 C 650.812 1.65956 0.522929 0
M  V30 6294 O 651.988 1.97131 0.412454 0
M  V30 6295 C 649.053 3.44595 0.381472 0
M  V30 6296 C 648.114 4.25692 -0.555444 0
M  V30 6297 C 647.347 5.33422 0.172102 0
M  V30 6298 O 647.57 5.53053 1.396 0
M  V30 6299 O 646.504 5.99939 -0.485491 0
M  V30 6300 H 650.33 2.77706 -1.22934 0
M  V30 6301 H 647.915 1.33821 -0.664259 0
M  V30 6302 H 649.797 4.13474 0.813442 0
M  V30 6303 H 648.472 3.00458 1.20443 0
M  V30 6304 H 647.379 3.59453 -1.03653 0
M  V30 6305 H 648.712 4.73471 -1.34483 0
M  V30 6306 N 650.364 0.662433 1.43002 0
M  V30 6307 C 651.775 0.258315 1.84904 0
M  V30 6308 C 652.126 -1.19703 1.55453 0
M  V30 6309 O 651.251 -1.91484 1.00811 0
M  V30 6310 C 651.846 0.462047 3.35635 0
M  V30 6311 C 650.405 0.112165 3.76233 0
M  V30 6312 C 649.552 0.760479 2.66668 0
M  V30 6313 H 652.503 0.865467 1.33024 0
M  V30 6314 H 652.524 -0.289646 3.79396 0
M  V30 6315 H 652.036 1.52135 3.57039 0
M  V30 6316 H 650.137 -0.944179 3.60439 0
M  V30 6317 H 650.25 0.544058 4.76001 0
M  V30 6318 H 648.614 0.192887 2.53969 0
M  V30 6319 H 649.397 1.82299 2.90898 0
M  V30 6320 N 651.842 -1.52309 0.404946 0
M  V30 6321 C 653.067 -2.06666 -0.1743 0
M  V30 6322 C 653.492 -1.27341 -1.38441 0
M  V30 6323 O 652.85 -0.302539 -1.78758 0
M  V30 6324 C 652.898 -3.57014 -0.507262 0
M  V30 6325 O 652.002 -3.80144 -1.59889 0
M  V30 6326 H 651.343 -0.663807 -0.0160273 0
M  V30 6327 H 653.873 -1.96297 0.576937 0
M  V30 6328 H 653.883 -4.00724 -0.767098 0
M  V30 6329 H 652.558 -4.14184 0.377368 0
M  V30 6330 H 651.135 -3.48316 -1.33155 0
M  V30 6331 N 653.32 -0.135238 -1.57019 0
M  V30 6332 C 654.25 0.805235 -2.19176 0
M  V30 6333 C 655.231 1.2656 -1.13651 0
M  V30 6334 O 656.416 1.32528 -1.4195 0
M  V30 6335 C 653.546 2.04914 -2.80406 0
M  V30 6336 C 652.5 1.72598 -3.91655 0
M  V30 6337 C 651.826 3.04154 -4.39766 0
M  V30 6338 C 653.126 0.981709 -5.12991 0
M  V30 6339 H 654.82 0.287232 -2.98019 0
M  V30 6340 H 652.366 0.136714 -1.4335 0
M  V30 6341 H 654.319 2.71178 -3.22553 0
M  V30 6342 H 653.043 2.59067 -1.98877 0
M  V30 6343 H 651.702 1.08717 -3.50109 0
M  V30 6344 H 651.35 3.56274 -3.55075 0
M  V30 6345 H 651.05 2.83299 -5.14796 0
M  V30 6346 H 652.574 3.71509 -4.84576 0
M  V30 6347 H 653.988 1.5462 -5.52056 0
M  V30 6348 H 652.385 0.873533 -5.93708 0
M  V30 6349 H 653.455 -0.0286887 -4.84892 0
M  V30 6350 N 654.798 1.5699 0.138552 0
M  V30 6351 C 656.047 1.82998 0.848205 0
M  V30 6352 C 656.36 0.717829 1.81952 0
M  V30 6353 O 657.566 0.863756 2.57394 0
M  V30 6354 C 656.022 3.24379 1.55904 0
M  V30 6355 C 655.63 4.43552 0.62971 0
M  V30 6356 C 657.374 3.59654 2.25498 0
M  V30 6357 C 655.281 5.75957 1.34266 0
M  V30 6358 H 654.211 0.682495 0.320495 0
M  V30 6359 H 656.862 1.83222 0.100924 0
M  V30 6360 H 655.244 3.18567 2.35226 0
M  V30 6361 H 656.418 4.6062 -0.128882 0
M  V30 6362 H 654.733 4.16379 0.0417526 0
M  V30 6363 H 657.33 4.55837 2.79493 0
M  V30 6364 H 657.673 2.86124 3.02388 0
M  V30 6365 H 658.206 3.67164 1.53087 0
M  V30 6366 H 654.945 6.52604 0.615441 0
M  V30 6367 H 654.465 5.62811 2.07375 0
M  V30 6368 H 656.144 6.19046 1.88126 0
M  V30 6369 N 656.276 -0.40816 1.52223 0
M  V30 6370 C 657.523 -1.15502 1.66329 0
M  V30 6371 C 657.851 -1.90474 0.393701 0
M  V30 6372 O 657.106 -1.85507 -0.623356 0
M  V30 6373 C 657.405 -2.17422 2.83659 0
M  V30 6374 C 657.071 -1.5925 4.21841 0
M  V30 6375 C 655.733 -1.4311 4.59427 0
M  V30 6376 C 658.085 -1.16776 5.0795 0
M  V30 6377 C 655.413 -0.830148 5.80797 0
M  V30 6378 C 657.765 -0.580988 6.29926 0
M  V30 6379 C 656.429 -0.406729 6.6626 0
M  V30 6380 H 655.699 -0.422653 0.608642 0
M  V30 6381 H 658.346 -0.442114 1.86327 0
M  V30 6382 H 656.651 -2.94861 2.58001 0
M  V30 6383 H 658.348 -2.75084 2.9177 0
M  V30 6384 H 654.938 -1.72796 3.92224 0
M  V30 6385 H 659.122 -1.28055 4.79495 0
M  V30 6386 H 654.378 -0.68316 6.07571 0
M  V30 6387 H 658.552 -0.243488 6.95974 0
M  V30 6388 H 656.179 0.0610366 7.60175 0
M  V30 6389 N 657.755 -1.42862 -0.66545 0
M  V30 6390 C 658.983 -1.47246 -1.45349 0
M  V30 6391 C 659.398 -0.0865944 -1.88601 0
M  V30 6392 O 658.755 0.900652 -1.58728 0
M  V30 6393 C 658.806 -2.40772 -2.6965 0
M  V30 6394 O 658.527 -3.73968 -2.2821 0
M  V30 6395 C 660.028 -2.54272 -3.63126 0
M  V30 6396 H 657.248 -0.500497 -0.446927 0
M  V30 6397 H 659.792 -1.87477 -0.816871 0
M  V30 6398 H 657.947 -2.0377 -3.29479 0
M  V30 6399 H 658.361 -4.24146 -3.08546 0
M  V30 6400 H 659.835 -3.23815 -4.47043 0
M  V30 6401 H 660.312 -1.58364 -4.09656 0
M  V30 6402 H 660.918 -2.92036 -3.09185 0
M  V30 6403 N 659.233 0.902656 -1.29189 0
M  V30 6404 C 660.181 2.0278 -1.13943 0
M  V30 6405 C 661.175 1.69308 -0.055787 0
M  V30 6406 O 662.381 1.78707 -0.215371 0
M  V30 6407 H 658.756 0.664595 -0.351877 0
M  V30 6408 H 660.727 2.12778 -2.09208 0
M  V30 6409 C 659.476 3.37657 -0.82966 0
M  V30 6410 H 658.799 3.63913 -1.65551 0
M  V30 6411 H 660.239 4.17078 -0.762998 0
M  V30 6412 C 658.698 3.33648 0.466991 0
M  V30 6413 O 659.228 3.72886 1.49395 0
M  V30 6414 N 657.434 2.86745 0.471761 0
M  V30 6415 H 656.981 2.55009 -0.364406 0
M  V30 6416 H 656.939 2.84446 1.33933 0
M  V30 6417 N 660.711 1.11618 1.11262 0
M  V30 6418 C 662.127 0.850468 1.35053 0
M  V30 6419 C 662.327 -0.523868 1.94571 0
M  V30 6420 O 661.383 -1.2743 2.17986 0
M  V30 6421 C 662.696 1.96005 2.28041 0
M  V30 6422 C 664.244 1.98993 2.416 0
M  V30 6423 C 664.719 3.0916 3.37911 0
M  V30 6424 N 666.21 3.08547 3.45475 0
M  V30 6425 C 666.945 3.9043 4.19943 0
M  V30 6426 N 666.441 4.8228 4.97371 0
M  V30 6427 N 668.234 3.786 4.15474 0
M  V30 6428 H 660.385 2.00184 0.709932 0
M  V30 6429 H 662.648 0.870635 0.375099 0
M  V30 6430 H 662.354 2.9499 1.91503 0
M  V30 6431 H 662.228 1.85782 3.28275 0
M  V30 6432 H 664.615 1.00633 2.77411 0
M  V30 6433 H 664.696 2.13292 1.4121 0
M  V30 6434 H 664.34 4.07748 3.02827 0
M  V30 6435 H 664.27 2.92102 4.3816 0
M  V30 6436 H 666.761 2.42 2.90249 0
M  V30 6437 H 667.074 5.41289 5.51567 0
M  V30 6438 H 665.419 4.863 4.96525 0
M  V30 6439 H 668.61 3.06185 3.54074 0
M  V30 6440 H 668.783 4.42647 4.73253 0
M  V30 6441 N 662.189 -1.289 0.906776 0
M  V30 6442 C 663.605 -1.47733 0.603902 0
M  V30 6443 C 663.805 -1.82568 -0.852702 0
M  V30 6444 O 662.861 -1.92642 -1.63234 0
M  V30 6445 C 664.174 -2.58522 1.53581 0
M  V30 6446 C 665.722 -2.72394 1.54177 0
M  V30 6447 C 666.197 -3.86318 2.46013 0
M  V30 6448 N 667.688 -3.93661 2.441 0
M  V30 6449 C 668.423 -4.81177 3.11859 0
M  V30 6450 N 667.919 -5.73333 3.88923 0
M  V30 6451 N 669.712 -4.74728 3.00981 0
M  V30 6452 H 661.863 -1.04567 1.84877 0
M  V30 6453 H 664.126 -0.520118 0.792579 0
M  V30 6454 H 663.832 -2.39667 2.57396 0
M  V30 6455 H 663.706 -3.55475 1.26165 0
M  V30 6456 H 666.093 -2.90641 0.511034 0
M  V30 6457 H 666.174 -1.75993 1.85634 0
M  V30 6458 H 665.818 -3.68826 3.49185 0
M  V30 6459 H 665.748 -4.82102 2.11862 0
M  V30 6460 H 668.239 -3.27751 1.88115 0
M  V30 6461 H 668.552 -6.36923 4.37663 0
M  V30 6462 H 666.897 -5.73196 3.93029 0
M  V30 6463 H 670.088 -4.01722 2.40286 0
M  V30 6464 H 670.261 -5.42719 3.54062 0
M  V30 6465 N 663.667 -0.670007 -1.42649 0
M  V30 6466 C 664.944 -0.119451 -1.95235 0
M  V30 6467 C 665.324 1.36461 -1.61064 0
M  V30 6468 O 664.672 2.09843 -0.904329 0
M  V30 6469 C 664.882 -0.383498 -3.46887 0
M  V30 6470 C 666.23 -0.297431 -4.23557 0
M  V30 6471 O 667.254 -0.31698 -3.54787 0
M  V30 6472 O 666.113 -0.235507 -5.45992 0
M  V30 6473 H 663.207 -8.85474e-05 -0.827 0
M  V30 6474 H 665.753 -0.744406 -1.52501 0
M  V30 6475 H 664.525 -1.41174 -3.64946 0
M  V30 6476 H 664.148 0.273702 -3.96657 0
M  V30 6477 N 665.145 1.52092 -0.413018 0
M  V30 6478 C 666.394 2.01041 0.16287 0
M  V30 6479 C 666.707 1.30288 1.45892 0
M  V30 6480 O 667.913 1.70075 2.11629 0
M  V30 6481 C 666.369 3.58283 0.340806 0
M  V30 6482 C 665.977 4.37955 -0.943377 0
M  V30 6483 C 667.721 4.15452 0.871774 0
M  V30 6484 C 665.628 5.86847 -0.732417 0
M  V30 6485 H 664.558 0.751224 0.0646414 0
M  V30 6486 H 667.209 1.75404 -0.539059 0
M  V30 6487 H 665.591 3.80266 1.10516 0
M  V30 6488 H 666.765 4.2773 -1.71418 0
M  V30 6489 H 665.08 3.92122 -1.40105 0
M  V30 6490 H 667.677 5.24375 1.0457 0
M  V30 6491 H 668.02 3.73057 1.84755 0
M  V30 6492 H 668.553 3.97452 0.166377 0
M  V30 6493 H 665.292 6.33609 -1.67986 0
M  V30 6494 H 664.812 5.998 -0.000980058 0
M  V30 6495 H 666.491 6.45906 -0.376105 0
M  V30 6496 N 666.623 0.143563 1.56945 0
M  V30 6497 C 668.039 -0.212877 1.58174 0
M  V30 6498 C 668.239 -1.64926 1.15766 0
M  V30 6499 O 667.295 -2.37535 0.856361 0
M  V30 6500 C 668.608 0.0427573 3.0067 0
M  V30 6501 C 670.156 -0.0212221 3.12993 0
M  V30 6502 C 670.631 0.207036 4.57532 0
M  V30 6503 N 672.122 0.153845 4.62944 0
M  V30 6504 C 672.857 0.305018 5.72588 0
M  V30 6505 N 672.353 0.513722 6.90893 0
M  V30 6506 N 674.146 0.242862 5.61575 0
M  V30 6507 H 666.297 1.08148 1.82805 0
M  V30 6508 H 668.56 0.427831 0.84597 0
M  V30 6509 H 668.266 1.03672 3.36073 0
M  V30 6510 H 668.14 -0.678195 3.71053 0
M  V30 6511 H 670.527 -1.00574 2.77433 0
M  V30 6512 H 670.608 0.732004 2.45103 0
M  V30 6513 H 670.252 1.18863 4.93795 0
M  V30 6514 H 670.182 -0.566473 5.23544 0
M  V30 6515 H 672.673 -0.00294866 3.779 0
M  V30 6516 H 672.986 0.619273 7.70315 0
M  V30 6517 H 671.331 0.550001 6.9282 0
M  V30 6518 H 674.522 0.0806015 4.68031 0
M  V30 6519 H 674.695 0.364112 6.46976 0
M  V30 6520 N 668.101 -1.57061 -0.130224 0
M  V30 6521 C 669.048 -1.99517 -1.16024 0
M  V30 6522 C 670.018 -0.865452 -1.41771 0
M  V30 6523 O 671.203 -1.12882 -1.53826 0
M  V30 6524 C 668.343 -2.3951 -2.48453 0
M  V30 6525 C 667.456 -3.65848 -2.29737 0
M  V30 6526 C 666.591 -3.9487 -3.55318 0
M  V30 6527 C 665.63 -5.14426 -3.31711 0
M  V30 6528 N 664.767 -5.39375 -4.49466 0
M  V30 6529 H 669.607 -2.87305 -0.791194 0
M  V30 6530 H 667.144 -1.42129 -0.379195 0
M  V30 6531 H 669.102 -2.60731 -3.25692 0
M  V30 6532 H 667.732 -1.54779 -2.83272 0
M  V30 6533 H 666.784 -3.52307 -1.4347 0
M  V30 6534 H 668.096 -4.53241 -2.08263 0
M  V30 6535 H 667.25 -4.16679 -4.4098 0
M  V30 6536 H 665.989 -3.05931 -3.79813 0
M  V30 6537 H 664.994 -4.92473 -2.44439 0
M  V30 6538 H 666.219 -6.04933 -3.08598 0
M  V30 6539 H 664.165 -4.53391 -4.74102 0
M  V30 6540 H 664.082 -6.21069 -4.31055 0
M  V30 6541 H 665.35 -5.65694 -5.36293 0
M  V30 6542 N 669.579 0.400081 -1.52437 0
M  V30 6543 C 670.828 1.14332 -1.66166 0
M  V30 6544 C 671.141 1.91419 -0.402253 0
M  V30 6545 O 672.347 2.6824 -0.419487 0
M  V30 6546 C 670.803 2.08137 -2.9361 0
M  V30 6547 C 670.411 1.36524 -4.26691 0
M  V30 6548 C 672.155 2.82664 -3.16703 0
M  V30 6549 C 670.062 2.29031 -5.45251 0
M  V30 6550 H 668.992 0.430499 -0.61902 0
M  V30 6551 H 671.643 0.407017 -1.78929 0
M  V30 6552 H 670.025 2.85358 -2.74567 0
M  V30 6553 H 671.199 0.646061 -4.56249 0
M  V30 6554 H 669.514 0.74002 -4.09771 0
M  V30 6555 H 672.111 3.52037 -4.0246 0
M  V30 6556 H 672.454 3.46122 -2.31312 0
M  V30 6557 H 672.987 2.12541 -3.36261 0
M  V30 6558 H 669.726 1.70206 -6.33017 0
M  V30 6559 H 669.246 2.98896 -5.2002 0
M  V30 6560 H 670.925 2.89359 -5.78689 0
M  V30 6561 N 671.057 1.43213 0.657864 0
M  V30 6562 C 672.305 1.44298 1.41501 0
M  V30 6563 C 672.626 0.0666478 1.94886 0
M  V30 6564 O 671.896 -0.897345 1.74139 0
M  V30 6565 H 670.476 0.531257 0.525143 0
M  V30 6566 H 673.138 1.78777 0.776195 0
M  V30 6567 H 672.234 2.1528 2.25966 0
M  V30 6568 N 672.536 -0.895792 1.29666 0
M  V30 6569 C 673.466 -2.01673 1.17688 0
M  V30 6570 C 674.447 -1.69955 0.0701317 0
M  V30 6571 O 675.632 -1.9258 0.250289 0
M  V30 6572 C 672.762 -3.36568 0.856681 0
M  V30 6573 C 671.716 -3.82509 1.92017 0
M  V30 6574 C 671.042 -5.14574 1.4532 0
M  V30 6575 C 672.342 -4.02409 3.32963 0
M  V30 6576 H 674.036 -2.11953 2.11463 0
M  V30 6577 H 671.582 -1.01839 1.01807 0
M  V30 6578 H 673.535 -4.14498 0.759577 0
M  V30 6579 H 672.259 -3.26391 -0.116763 0
M  V30 6580 H 670.918 -3.068 2.00673 0
M  V30 6581 H 670.566 -5.00815 0.468325 0
M  V30 6582 H 670.266 -5.46283 2.16447 0
M  V30 6583 H 671.79 -5.9504 1.36968 0
M  V30 6584 H 673.204 -4.70808 3.27127 0
M  V30 6585 H 671.601 -4.45478 4.02082 0
M  V30 6586 H 672.671 -3.06616 3.75652 0
M  V30 6587 N 674.014 -1.12206 -1.10668 0
M  V30 6588 C 674.924 -0.800686 -2.20513 0
M  V30 6589 C 675.94 0.209512 -1.72734 0
M  V30 6590 O 677.116 0.043705 -2.01353 0
M  V30 6591 C 674.181 -0.257353 -3.45744 0
M  V30 6592 C 673.242 -1.32718 -4.0827 0
M  V30 6593 C 672.475 -0.809674 -5.27522 0
M  V30 6594 O 672.698 0.35742 -5.69279 0
M  V30 6595 O 671.632 -1.57816 -5.80842 0
M  V30 6596 H 675.458 -1.71807 -2.50432 0
M  V30 6597 H 673.043 -0.898546 -1.19359 0
M  V30 6598 H 674.925 0.0408849 -4.2138 0
M  V30 6599 H 673.6 0.632627 -3.17458 0
M  V30 6600 H 672.507 -1.67855 -3.34329 0
M  V30 6601 H 673.84 -2.19083 -4.40753 0
M  V30 6602 N 675.492 1.28418 -0.913599 0
M  V30 6603 C 676.908 1.47411 -0.611728 0
M  V30 6604 C 677.108 1.83018 0.843008 0
M  V30 6605 O 676.164 1.93505 1.6221 0
M  V30 6606 C 677.477 2.57703 -1.5495 0
M  V30 6607 C 679.025 2.71572 -1.5562 0
M  V30 6608 C 679.5 3.85008 -2.48058 0
M  V30 6609 N 680.991 3.92361 -2.46184 0
M  V30 6610 C 681.726 4.79516 -3.14407 0
M  V30 6611 N 681.222 5.71262 -3.91958 0
M  V30 6612 N 683.015 4.73125 -3.03495 0
M  V30 6613 H 675.166 1.03585 -1.85429 0
M  V30 6614 H 677.429 0.515907 -0.795326 0
M  V30 6615 H 677.135 2.38298 -2.58663 0
M  V30 6616 H 677.009 3.54801 -1.28048 0
M  V30 6617 H 679.396 2.90366 -0.526441 0
M  V30 6618 H 679.477 1.75006 -1.86565 0
M  V30 6619 H 679.121 3.66969 -3.51136 0
M  V30 6620 H 679.051 4.80971 -2.14416 0
M  V30 6621 H 681.542 3.26749 -1.89851 0
M  V30 6622 H 681.855 6.34593 -4.41034 0
M  V30 6623 H 680.2 5.71103 -3.96063 0
M  V30 6624 H 683.391 4.00442 -2.42413 0
M  V30 6625 H 683.564 5.40834 -3.56935 0
M  V30 6626 N 676.97 0.677563 1.42291 0
M  V30 6627 C 677.917 0.000947061 2.308 0
M  V30 6628 C 678.887 -0.789889 1.46116 0
M  V30 6629 O 680.072 -0.761578 1.74942 0
M  V30 6630 C 677.212 -0.942387 3.31984 0
M  V30 6631 C 676.325 -0.14508 4.31756 0
M  V30 6632 C 675.46 -1.08442 5.20013 0
M  V30 6633 C 674.499 -0.278958 6.11464 0
M  V30 6634 N 673.636 -1.17115 6.92263 0
M  V30 6635 H 678.476 0.761521 2.88106 0
M  V30 6636 H 676.013 0.38727 1.41911 0
M  V30 6637 H 677.971 -1.50317 3.89179 0
M  V30 6638 H 676.601 -1.66956 2.76271 0
M  V30 6639 H 675.653 0.532368 3.76656 0
M  V30 6640 H 676.965 0.48015 4.96484 0
M  V30 6641 H 676.119 -1.71504 5.81955 0
M  V30 6642 H 674.858 -1.74353 4.55469 0
M  V30 6643 H 673.863 0.364856 5.48588 0
M  V30 6644 H 675.088 0.376099 6.78058 0
M  V30 6645 H 673.034 -1.81661 6.30345 0
M  V30 6646 H 672.951 -0.601063 7.53607 0
M  V30 6647 H 674.219 -1.78915 7.58689 0
M  V30 6648 N 678.448 -1.51871 0.421078 0
M  V30 6649 C 679.358 -2.31077 -0.405069 0
M  V30 6650 C 680.374 -1.39301 -1.04265 0
M  V30 6651 O 681.55 -1.72376 -1.04157 0
M  V30 6652 C 678.615 -3.12556 -1.50032 0
M  V30 6653 C 677.676 -4.20088 -0.884559 0
M  V30 6654 C 676.909 -4.97673 -1.92762 0
M  V30 6655 O 677.132 -4.75696 -3.14753 0
M  V30 6656 O 676.066 -5.82203 -1.52719 0
M  V30 6657 H 679.892 -3.02742 0.241086 0
M  V30 6658 H 677.477 -1.48263 0.183991 0
M  V30 6659 H 679.359 -3.6326 -2.13589 0
M  V30 6660 H 678.034 -2.43672 -2.13086 0
M  V30 6661 H 676.941 -3.73502 -0.211379 0
M  V30 6662 H 678.274 -4.91298 -0.297763 0
M  V30 6663 N 679.926 -0.151884 -1.56866 0
M  V30 6664 C 681.156 0.504081 -2.00356 0
M  V30 6665 C 681.564 1.58639 -1.03103 0
M  V30 6666 O 680.907 1.83688 -0.0207931 0
M  V30 6667 C 680.969 1.15975 -3.40279 0
M  V30 6668 C 680.633 0.221453 -4.56463 0
M  V30 6669 C 681.63 -0.552766 -5.16953 0
M  V30 6670 C 679.315 0.122936 -5.0215 0
M  V30 6671 C 681.309 -1.4129 -6.21543 0
M  V30 6672 C 678.996 -0.740801 -6.06593 0
M  V30 6673 C 679.994 -1.50732 -6.6616 0
M  V30 6674 O 679.682 -2.35666 -7.68581 0
M  V30 6675 H 679.414 0.135279 -0.662326 0
M  V30 6676 H 681.968 -0.244916 -2.03935 0
M  V30 6677 H 680.198 1.95649 -3.33554 0
M  V30 6678 H 681.887 1.71594 -3.67846 0
M  V30 6679 H 682.653 -0.486716 -4.82552 0
M  V30 6680 H 678.532 0.70931 -4.5551 0
M  V30 6681 H 682.076 -2.01166 -6.67966 0
M  V30 6682 H 677.973 -0.808125 -6.40421 0
M  V30 6683 H 678.741 -2.28967 -7.85822 0
M  V30 6684 N 681.404 1.57128 0.121893 0
M  V30 6685 C 682.653 1.83888 0.828748 0
M  V30 6686 C 682.966 0.737087 1.81181 0
M  V30 6687 O 684.172 0.891007 2.56463 0
M  V30 6688 C 682.628 3.26014 1.52455 0
M  V30 6689 C 682.236 4.44195 0.58263 0
M  V30 6690 C 683.98 3.62025 2.21671 0
M  V30 6691 C 681.887 5.77349 1.28149 0
M  V30 6692 H 680.817 0.685856 0.313238 0
M  V30 6693 H 683.468 1.83319 0.0814851 0
M  V30 6694 H 681.85 3.21044 2.31834 0
M  V30 6695 H 683.024 4.60457 -0.177729 0
M  V30 6696 H 681.339 4.164 -0.00241228 0
M  V30 6697 H 683.936 4.58776 2.74643 0
M  V30 6698 H 684.279 2.89315 2.99337 0
M  V30 6699 H 684.812 3.68767 1.49184 0
M  V30 6700 H 681.551 6.53221 0.546189 0
M  V30 6701 H 681.071 5.64978 2.01394 0
M  V30 6702 H 682.75 6.21006 1.81549 0
M  V30 6703 N 682.882 -0.391992 1.52647 0
M  V30 6704 C 683.814 -1.49811 1.73463 0
M  V30 6705 C 684.827 -1.50734 0.615078 0
M  V30 6706 O 686.016 -1.5469 0.890696 0
M  V30 6707 C 683.116 -2.88667 1.77552 0
M  V30 6708 C 682.289 -3.11743 3.06815 0
M  V30 6709 C 681.348 -4.30564 3.02491 0
M  V30 6710 O 680.374 -4.27014 3.76361 0
M  V30 6711 N 681.576 -5.36593 2.21468 0
M  V30 6712 H 684.341 -1.32343 2.68897 0
M  V30 6713 H 681.902 -0.581475 1.51098 0
M  V30 6714 H 683.894 -3.66251 1.7217 0
M  V30 6715 H 682.464 -2.99508 0.895181 0
M  V30 6716 H 681.684 -2.2205 3.25711 0
M  V30 6717 H 682.972 -3.24013 3.92292 0
M  V30 6718 H 682.37 -5.42332 1.60913 0
M  V30 6719 H 680.927 -6.12855 2.21928 0
M  V30 6720 N 684.36 -1.4356 -0.65026 0
M  V30 6721 C 685.29 -1.51758 -1.77459 0
M  V30 6722 C 686.271 -0.372019 -1.65982 0
M  V30 6723 O 687.456 -0.589627 -1.85033 0
M  V30 6724 C 684.586 -1.44302 -3.15902 0
M  V30 6725 C 683.54 -2.57138 -3.42146 0
M  V30 6726 C 682.866 -2.34735 -4.8042 0
M  V30 6727 C 684.166 -3.99373 -3.36598 0
M  V30 6728 H 685.86 -2.45863 -1.70855 0
M  V30 6729 H 683.406 -1.18333 -0.820566 0
M  V30 6730 H 685.359 -1.48641 -3.94314 0
M  V30 6731 H 684.083 -0.467026 -3.23244 0
M  V30 6732 H 682.742 -2.52157 -2.66106 0
M  V30 6733 H 682.39 -1.35372 -4.84441 0
M  V30 6734 H 682.09 -3.10375 -4.9894 0
M  V30 6735 H 683.614 -2.40862 -5.61086 0
M  V30 6736 H 685.028 -4.05826 -4.04942 0
M  V30 6737 H 683.425 -4.75063 -3.66654 0
M  V30 6738 H 684.495 -4.243 -2.34729 0
M  V30 6739 N 685.838 0.888903 -1.30139 0
M  V30 6740 C 687.084 1.6428 -1.18912 0
M  V30 6741 C 687.417 1.92499 0.256477 0
M  V30 6742 O 686.692 1.54312 1.18397 0
M  V30 6743 C 686.975 2.9851 -2.01405 0
M  V30 6744 C 686.828 2.77288 -3.54163 0
M  V30 6745 C 688.147 3.99383 -1.84882 0
M  V30 6746 H 685.266 0.596148 -0.433333 0
M  V30 6747 H 687.908 1.0289 -1.5973 0
M  V30 6748 H 686.058 3.50907 -1.66722 0
M  V30 6749 H 687.73 2.31709 -3.98884 0
M  V30 6750 H 685.973 2.11867 -3.78543 0
M  V30 6751 H 686.644 3.72717 -4.07168 0
M  V30 6752 H 689.12 3.56132 -2.15196 0
M  V30 6753 H 687.996 4.91222 -2.44934 0
M  V30 6754 H 688.257 4.34674 -0.806902 0
M  V30 6755 N 687.317 1.12792 1.10072 0
M  V30 6756 C 688.227 0.812369 2.20086 0
M  V30 6757 C 689.243 -0.200349 1.72843 0
M  V30 6758 O 690.419 -0.0330262 2.01373 0
M  V30 6759 C 687.484 0.275685 3.45602 0
M  V30 6760 C 686.545 1.34881 4.07561 0
M  V30 6761 C 685.778 0.837639 5.27086 0
M  V30 6762 O 686.001 -0.327224 5.69461 0
M  V30 6763 O 684.935 1.60894 5.79997 0
M  V30 6764 H 688.761 1.73133 2.49517 0
M  V30 6765 H 686.346 0.904863 1.18881 0
M  V30 6766 H 688.228 -0.0185375 4.21396 0
M  V30 6767 H 686.903 -0.615783 3.17789 0
M  V30 6768 H 685.81 1.69625 3.33434 0
M  V30 6769 H 687.143 2.21418 4.39585 0
M  V30 6770 N 688.795 -1.27931 0.920396 0
M  V30 6771 C 689.727 -2.26175 0.371169 0
M  V30 6772 C 690.74 -1.55122 -0.494065 0
M  V30 6773 O 691.929 -1.75825 -0.30787 0
M  V30 6774 C 689.029 -3.35376 -0.487481 0
M  V30 6775 C 688.202 -4.35943 0.356772 0
M  V30 6776 C 687.261 -5.24374 -0.438042 0
M  V30 6777 O 686.287 -5.68998 0.151715 0
M  V30 6778 N 687.489 -5.53823 -1.73956 0
M  V30 6779 H 690.254 -2.73938 1.21564 0
M  V30 6780 H 687.815 -1.41482 0.787047 0
M  V30 6781 H 689.807 -3.91476 -1.02609 0
M  V30 6782 H 688.377 -2.87269 -1.23269 0
M  V30 6783 H 687.597 -3.7921 1.07672 0
M  V30 6784 H 688.885 -5.0015 0.934206 0
M  V30 6785 H 688.283 -5.19413 -2.24114 0
M  V30 6786 H 686.84 -6.12653 -2.22486 0
M  V30 6787 N 690.273 -0.685099 -1.4193 0
M  V30 6788 C 691.203 -0.0273506 -2.33484 0
M  V30 6789 C 692.184 0.778366 -1.51246 0
M  V30 6790 O 693.369 0.733449 -1.79817 0
M  V30 6791 C 690.499 0.917272 -3.34968 0
M  V30 6792 C 689.453 0.21941 -4.27437 0
M  V30 6793 C 688.779 1.27768 -5.1921 0
M  V30 6794 C 690.079 -0.907894 -5.14349 0
M  V30 6795 H 691.773 -0.791994 -2.88735 0
M  V30 6796 H 689.319 -0.382308 -1.38832 0
M  V30 6797 H 691.272 1.38657 -3.97935 0
M  V30 6798 H 689.996 1.71346 -2.78043 0
M  V30 6799 H 688.655 -0.229757 -3.65879 0
M  V30 6800 H 688.303 2.06612 -4.58607 0
M  V30 6801 H 688.003 0.815803 -5.81909 0
M  V30 6802 H 689.527 1.7477 -5.85054 0
M  V30 6803 H 690.941 -0.519348 -5.70943 0
M  V30 6804 H 689.338 -1.2962 -5.85934 0
M  V30 6805 H 690.408 -1.75218 -4.52136 0
M  V30 6806 N 691.751 1.51645 -0.429126 0
M  V30 6807 C 693.167 1.59394 -0.080994 0
M  V30 6808 C 693.367 1.44064 1.40882 0
M  V30 6809 O 692.423 1.27771 2.17786 0
M  V30 6810 C 693.736 2.94779 -0.593773 0
M  V30 6811 C 695.284 3.08067 -0.553494 0
M  V30 6812 C 695.759 4.45963 -1.04311 0
M  V30 6813 N 697.25 4.5226 -1.00076 0
M  V30 6814 C 697.985 5.57268 -1.35056 0
M  V30 6815 N 697.481 6.69734 -1.77282 0
M  V30 6816 N 699.274 5.47582 -1.26925 0
M  V30 6817 H 691.425 1.59856 -1.39857 0
M  V30 6818 H 693.688 0.753095 -0.575805 0
M  V30 6819 H 693.394 3.11342 -1.63583 0
M  V30 6820 H 693.268 3.77197 -0.0142202 0
M  V30 6821 H 695.655 2.91177 0.479556 0
M  V30 6822 H 695.736 2.27508 -1.16935 0
M  V30 6823 H 695.38 4.63598 -2.07459 0
M  V30 6824 H 695.31 5.25049 -0.403873 0
M  V30 6825 H 697.801 3.71537 -0.690564 0
M  V30 6826 H 698.114 7.4587 -2.02232 0
M  V30 6827 H 696.459 6.70963 -1.81202 0
M  V30 6828 H 699.65 4.58604 -0.93809 0
M  V30 6829 H 699.823 6.29308 -1.54516 0
M  V30 6830 N 693.229 0.160201 1.56784 0
M  V30 6831 C 694.177 -0.791402 2.18723 0
M  V30 6832 C 695.171 -1.24567 1.14801 0
M  V30 6833 O 696.377 -1.21262 1.33025 0
M  V30 6834 H 692.752 -0.273458 0.700517 0
M  V30 6835 H 694.723 -0.244931 2.97393 0
M  V30 6836 C 693.472 -2.01509 2.83354 0
M  V30 6837 H 692.795 -1.67454 3.63041 0
M  V30 6838 H 694.235 -2.66006 3.30177 0
M  V30 6839 C 692.694 -2.83159 1.82545 0
M  V30 6840 O 693.224 -3.79944 1.30405 0
M  V30 6841 N 691.43 -2.47953 1.51552 0
M  V30 6842 H 690.977 -1.69309 1.94144 0
M  V30 6843 H 690.935 -3.02873 0.843519 0
M  V30 6844 N 694.707 -1.5719 -0.113559 0
M  V30 6845 C 695.935 -1.89328 -0.834422 0
M  V30 6846 C 696.35 -0.752018 -1.73177 0
M  V30 6847 O 695.707 0.276912 -1.80387 0
M  V30 6848 C 695.758 -3.20962 -1.66329 0
M  V30 6849 O 695.479 -4.30695 -0.802069 0
M  V30 6850 C 696.98 -3.6684 -2.48884 0
M  V30 6851 H 694.2 -0.626769 -0.239587 0
M  V30 6852 H 696.744 -2.04273 -0.0963195 0
M  V30 6853 H 694.899 -3.0767 -2.35409 0
M  V30 6854 H 695.313 -5.06175 -1.37431 0
M  V30 6855 H 696.787 -4.61692 -3.02563 0
M  V30 6856 H 697.264 -2.93765 -3.26495 0
M  V30 6857 H 697.87 -3.82938 -1.85036 0
M  V30 6858 N 696.185 0.383891 -1.52853 0
M  V30 6859 C 697.431 1.13009 -1.68395 0
M  V30 6860 C 697.764 1.89488 -0.425195 0
M  V30 6861 O 697.039 1.8574 0.577136 0
M  V30 6862 C 697.322 2.10419 -2.92226 0
M  V30 6863 C 697.175 1.3767 -4.28214 0
M  V30 6864 C 698.494 3.10781 -3.11614 0
M  V30 6865 H 695.613 0.409463 -0.612788 0
M  V30 6866 H 698.255 0.412895 -1.85459 0
M  V30 6867 H 696.405 2.71579 -2.77808 0
M  V30 6868 H 698.077 0.794352 -4.54409 0
M  V30 6869 H 696.32 0.678533 -4.2846 0
M  V30 6870 H 696.991 2.08874 -5.10956 0
M  V30 6871 H 699.467 2.59715 -3.25096 0
M  V30 6872 H 698.343 3.76179 -3.99725 0
M  V30 6873 H 698.604 3.79933 -2.2606 0
M  V30 6874 N 697.663 1.43903 0.642637 0
M  V30 6875 C 698.626 1.49538 1.73698 0
M  V30 6876 C 699.626 0.378776 1.56275 0
M  V30 6877 O 700.816 0.64095 1.6198 0
M  V30 6878 C 697.948 1.35821 3.12675 0
M  V30 6879 H 699.141 2.47008 1.70079 0
M  V30 6880 H 696.694 1.30824 0.85526 0
M  V30 6881 H 697.429 0.393994 3.21898 0
M  V30 6882 H 697.214 2.16776 3.26727 0
M  V30 6883 H 698.704 1.4272 3.92455 0
M  V30 6884 N 699.141 -0.881989 1.30609 0
M  V30 6885 C 700.071 -2.00413 1.1982 0
M  V30 6886 C 701.052 -1.69871 0.0881538 0
M  V30 6887 O 702.237 -1.92304 0.2707 0
M  V30 6888 C 699.367 -3.35641 0.89233 0
M  V30 6889 C 698.321 -3.80451 1.96064 0
M  V30 6890 C 697.647 -5.13003 1.5077 0
M  V30 6891 C 698.947 -3.98855 3.37213 0
M  V30 6892 H 700.641 -2.09698 2.13699 0
M  V30 6893 H 698.187 -1.00754 1.02882 0
M  V30 6894 H 700.14 -4.13669 0.803497 0
M  V30 6895 H 698.864 -3.26497 -0.0821381 0
M  V30 6896 H 697.523 -3.04654 2.03916 0
M  V30 6897 H 697.171 -5.0029 0.521417 0
M  V30 6898 H 696.871 -5.43956 2.22229 0
M  V30 6899 H 698.395 -5.93554 1.43271 0
M  V30 6900 H 699.809 -4.67312 3.32103 0
M  V30 6901 H 698.206 -4.41188 4.06784 0
M  V30 6902 H 699.276 -3.02614 3.78883 0
M  V30 6903 N 700.619 -1.13374 -1.09472 0
M  V30 6904 C 701.896 -0.806329 -1.78207 0
M  V30 6905 C 702.276 0.702191 -1.99079 0
M  V30 6906 O 701.624 1.63931 -1.59182 0
M  V30 6907 C 701.834 -1.59271 -3.10538 0
M  V30 6908 C 703.182 -1.78509 -3.85253 0
M  V30 6909 O 704.206 -1.55866 -3.20288 0
M  V30 6910 O 703.065 -2.16287 -5.01879 0
M  V30 6911 H 700.159 -0.29435 -0.772843 0
M  V30 6912 H 702.705 -1.23833 -1.16033 0
M  V30 6913 H 701.477 -2.61792 -2.90828 0
M  V30 6914 H 701.1 -1.15562 -3.80436 0
M  V30 6915 N 702.098 1.27442 -0.927168 0
M  V30 6916 C 703.061 2.2512 -0.430525 0
M  V30 6917 C 704.061 1.54357 0.450619 0
M  V30 6918 O 705.251 1.72371 0.251774 0
M  V30 6919 C 702.383 3.38763 0.381144 0
M  V30 6920 H 703.576 2.70569 -1.29354 0
M  V30 6921 H 701.129 1.39355 -0.707806 0
M  V30 6922 H 701.864 2.98695 1.263 0
M  V30 6923 H 701.649 3.91298 -0.250618 0
M  V30 6924 H 703.139 4.11364 0.719012 0
M  V30 6925 N 703.576 0.692616 1.41565 0
M  V30 6926 C 704.853 0.150496 1.9502 0
M  V30 6927 C 705.233 -1.33881 1.63215 0
M  V30 6928 O 704.581 -2.08378 0.937598 0
M  V30 6929 C 704.791 0.438636 3.46233 0
M  V30 6930 C 706.139 0.364777 4.2303 0
M  V30 6931 O 707.163 0.373383 3.54238 0
M  V30 6932 O 706.022 0.32234 5.45549 0
M  V30 6933 H 703.116 0.0132454 0.826894 0
M  V30 6934 H 705.662 0.768574 1.51298 0
M  V30 6935 H 704.434 1.46962 3.62654 0
M  V30 6936 H 704.057 -0.210562 3.97042 0
M  V30 6937 N 705.054 -1.51416 0.437162 0
M  V30 6938 C 706.303 -2.01275 -0.130865 0
M  V30 6939 C 706.616 -1.32593 -1.438 0
M  V30 6940 O 707.822 -1.7342 -2.08897 0
M  V30 6941 C 706.278 -3.5878 -0.283763 0
M  V30 6942 C 705.886 -4.36399 1.01293 0
M  V30 6943 C 707.63 -4.16786 -0.805569 0
M  V30 6944 C 705.537 -5.85608 0.825687 0
M  V30 6945 H 704.467 -0.752157 -0.0526818 0
M  V30 6946 H 707.118 -1.74524 0.566896 0
M  V30 6947 H 705.5 -3.81976 -1.04452 0
M  V30 6948 H 706.674 -4.24948 1.78201 0
M  V30 6949 H 704.989 -3.89843 1.46326 0
M  V30 6950 H 707.586 -5.25972 -0.962146 0
M  V30 6951 H 707.929 -3.75949 -1.78796 0
M  V30 6952 H 708.462 -3.97666 -0.103125 0
M  V30 6953 H 705.201 -6.30857 1.78045 0
M  V30 6954 H 704.721 -5.99723 0.0964029 0
M  V30 6955 H 706.4 -6.45226 0.478815 0
M  V30 6956 N 706.532 -0.168513 -1.56696 0
M  V30 6957 C 707.495 0.748928 -2.16619 0
M  V30 6958 C 708.495 1.16007 -1.11351 0
M  V30 6959 O 709.685 1.07748 -1.3688 0
M  V30 6960 C 706.817 2.01904 -2.74677 0
M  V30 6961 H 708.01 0.227317 -2.99037 0
M  V30 6962 H 705.563 0.0810372 -1.5609 0
M  V30 6963 H 706.298 2.58381 -1.95985 0
M  V30 6964 H 706.083 1.73323 -3.51712 0
M  V30 6965 H 707.573 2.67383 -3.20774 0
M  V30 6966 N 708.01 1.57248 0.105221 0
M  V30 6967 C 708.973 2.00388 1.11252 0
M  V30 6968 C 709.973 0.89594 1.33527 0
M  V30 6969 O 711.163 1.16166 1.29811 0
M  V30 6970 C 708.295 2.35589 2.46395 0
M  V30 6971 H 709.488 2.90591 0.741424 0
M  V30 6972 H 707.041 1.52332 0.349956 0
M  V30 6973 H 707.776 1.4831 2.884 0
M  V30 6974 H 707.561 3.16408 2.31578 0
M  V30 6975 H 709.051 2.69658 3.18864 0
M  V30 6976 N 709.488 -0.375779 1.53054 0
M  V30 6977 C 710.42 -1.47963 1.75042 0
M  V30 6978 C 711.433 -1.50073 0.631031 0
M  V30 6979 O 712.622 -1.53736 0.907052 0
M  V30 6980 C 709.722 -2.86767 1.80604 0
M  V30 6981 C 708.895 -3.08471 3.10104 0
M  V30 6982 C 707.954 -4.27332 3.07041 0
M  V30 6983 O 706.98 -4.22998 3.80869 0
M  V30 6984 N 708.182 -5.34214 2.27147 0
M  V30 6985 H 710.947 -1.29484 2.70285 0
M  V30 6986 H 708.508 -0.565416 1.51706 0
M  V30 6987 H 710.5 -3.64404 1.76045 0
M  V30 6988 H 709.07 -2.98542 0.926897 0
M  V30 6989 H 708.29 -2.18583 3.28048 0
M  V30 6990 H 709.578 -3.19834 3.95706 0
M  V30 6991 H 708.976 -5.40594 1.66656 0
M  V30 6992 H 707.533 -6.10467 2.28415 0
M  V30 6993 N 710.966 -1.44241 -0.634997 0
M  V30 6994 C 711.913 -1.5081 -1.74714 0
M  V30 6995 C 712.883 -0.356147 -1.62237 0
M  V30 6996 O 714.068 -0.565848 -1.82216 0
M  V30 6997 C 711.208 -1.45458 -3.12947 0
M  V30 6998 C 710.321 -2.70998 -3.36428 0
M  V30 6999 C 709.456 -2.57507 -4.64611 0
M  V30 7000 C 708.495 -3.78229 -4.81258 0
M  V30 7001 N 707.632 -3.63438 -6.00714 0
M  V30 7002 H 712.472 -2.45832 -1.68436 0
M  V30 7003 H 710.009 -1.2201 -0.821706 0
M  V30 7004 H 711.967 -1.40347 -3.92885 0
M  V30 7005 H 710.597 -0.540058 -3.1825 0
M  V30 7006 H 709.649 -2.86312 -2.50458 0
M  V30 7007 H 710.961 -3.60619 -3.44609 0
M  V30 7008 H 710.115 -2.50207 -5.52703 0
M  V30 7009 H 708.854 -1.65441 -4.58782 0
M  V30 7010 H 707.859 -3.85918 -3.91596 0
M  V30 7011 H 709.084 -4.71327 -4.88904 0
M  V30 7012 H 707.03 -2.7412 -5.95982 0
M  V30 7013 H 706.947 -4.46672 -6.09934 0
M  V30 7014 H 708.215 -3.60022 -6.91378 0
M  V30 7015 N 712.444 0.87505 -1.31075 0
M  V30 7016 C 713.374 1.99775 -1.20881 0
M  V30 7017 C 714.355 1.69822 -0.0971612 0
M  V30 7018 O 715.54 1.92158 -0.280895 0
M  V30 7019 C 712.67 3.35163 -0.910118 0
M  V30 7020 C 711.624 3.79406 -1.98078 0
M  V30 7021 C 710.95 5.12197 -1.53488 0
M  V30 7022 C 712.25 3.97061 -3.39323 0
M  V30 7023 H 713.944 2.08562 -2.14808 0
M  V30 7024 H 711.49 1.00207 -1.03415 0
M  V30 7025 H 713.443 4.13237 -0.825423 0
M  V30 7026 H 712.167 3.26536 0.064822 0
M  V30 7027 H 710.826 3.03568 -2.05528 0
M  V30 7028 H 710.474 5.00007 -0.547941 0
M  V30 7029 H 710.174 5.4277 -2.2511 0
M  V30 7030 H 711.698 5.92785 -1.46417 0
M  V30 7031 H 713.112 4.65545 -3.34576 0
M  V30 7032 H 711.509 4.39025 -4.09118 0
M  V30 7033 H 712.579 3.00601 -3.80483 0
M  V30 7034 N 713.922 1.13953 1.08869 0
M  V30 7035 C 715.169 0.90481 1.81161 0
M  V30 7036 C 715.497 -0.568824 1.85996 0
M  V30 7037 O 714.752 -1.43723 1.32823 0
M  V30 7038 C 715.051 1.44495 3.26888 0
M  V30 7039 C 714.717 2.93641 3.42178 0
M  V30 7040 C 713.379 3.34361 3.46059 0
M  V30 7041 C 715.731 3.89568 3.46246 0
M  V30 7042 C 713.059 4.69681 3.51592 0
M  V30 7043 C 715.411 5.2474 3.53314 0
M  V30 7044 C 714.075 5.64979 3.55465 0
M  V30 7045 H 713.345 0.331094 0.662916 0
M  V30 7046 H 715.992 1.42242 1.28217 0
M  V30 7047 H 714.297 0.848169 3.82509 0
M  V30 7048 H 715.994 1.23934 3.81368 0
M  V30 7049 H 712.584 2.61156 3.39846 0
M  V30 7050 H 716.768 3.59192 3.42483 0
M  V30 7051 H 712.024 5.00224 3.51547 0
M  V30 7052 H 716.198 5.98882 3.55406 0
M  V30 7053 H 713.825 6.69821 3.59505 0
M  V30 7054 N 715.4 -1.26948 0.933913 0
M  V30 7055 C 716.646 -1.94716 0.587985 0
M  V30 7056 C 717.001 -1.71994 -0.862312 0
M  V30 7057 O 716.294 -1.04208 -1.60783 0
M  V30 7058 C 716.488 -3.46963 0.857406 0
M  V30 7059 C 716.317 -3.84489 2.33234 0
M  V30 7060 C 715.087 -4.07621 2.98618 0
M  V30 7061 C 717.285 -3.93602 3.31031 0
M  V30 7062 N 715.267 -4.31976 4.362 0
M  V30 7063 C 716.638 -4.22404 4.53845 0
M  V30 7064 C 718.693 -3.76201 3.26155 0
M  V30 7065 C 717.396 -4.35615 5.72391 0
M  V30 7066 C 719.422 -3.90641 4.4402 0
M  V30 7067 C 718.784 -4.19835 5.65613 0
M  V30 7068 H 714.883 -0.735586 0.2654 0
M  V30 7069 H 717.467 -1.53181 1.20182 0
M  V30 7070 H 715.638 -3.87442 0.27268 0
M  V30 7071 H 717.37 -4.01921 0.47348 0
M  V30 7072 H 714.125 -4.02696 2.49264 0
M  V30 7073 H 714.549 -4.48199 5.07392 0
M  V30 7074 H 719.191 -3.52665 2.3321 0
M  V30 7075 H 716.909 -4.57975 6.65796 0
M  V30 7076 H 720.495 -3.78589 4.41771 0
M  V30 7077 H 719.375 -4.30765 6.55295 0
M  V30 7078 N 716.879 -0.700114 -1.41195 0
M  V30 7079 C 717.842 -0.0465706 -2.29153 0
M  V30 7080 C 718.842 0.703302 -1.44604 0
M  V30 7081 O 720.032 0.537513 -1.657 0
M  V30 7082 C 717.164 0.944324 -3.2756 0
M  V30 7083 H 718.357 -0.821064 -2.88442 0
M  V30 7084 H 715.91 -0.463869 -1.49258 0
M  V30 7085 H 716.645 1.74642 -2.73259 0
M  V30 7086 H 716.43 0.409701 -3.89954 0
M  V30 7087 H 717.92 1.39925 -3.9346 0
M  V30 7088 N 718.357 1.51182 -0.445186 0
M  V30 7089 C 719.634 1.9478 0.178965 0
M  V30 7090 C 720.014 1.38428 1.59376 0
M  V30 7091 O 719.362 0.574552 2.21159 0
M  V30 7092 C 719.572 3.48683 0.148711 0
M  V30 7093 C 720.92 4.23152 0.35042 0
M  V30 7094 O 721.944 3.55479 0.226474 0
M  V30 7095 O 720.803 5.4322 0.597893 0
M  V30 7096 H 717.897 0.817387 0.12573 0
M  V30 7097 H 720.443 1.62051 -0.503729 0
M  V30 7098 H 719.215 3.82176 -0.84009 0
M  V30 7099 H 718.838 3.87875 0.873979 0
M  V30 7100 N 719.835 0.176821 1.56605 0
M  V30 7101 C 720.765 -0.746841 2.21234 0
M  V30 7102 C 721.746 -1.23502 1.16967 0
M  V30 7103 O 722.931 -1.28718 1.45414 0
M  V30 7104 C 720.061 -1.97407 2.8574 0
M  V30 7105 C 719.015 -1.62153 3.96094 0
M  V30 7106 C 718.341 -2.92387 4.47676 0
M  V30 7107 C 719.641 -0.845353 5.15413 0
M  V30 7108 H 721.335 -0.208116 2.98676 0
M  V30 7109 H 718.881 -0.0986594 1.43662 0
M  V30 7110 H 720.834 -2.62531 3.2963 0
M  V30 7111 H 719.558 -2.53703 2.05676 0
M  V30 7112 H 718.217 -0.993964 3.52868 0
M  V30 7113 H 717.865 -3.46734 3.64396 0
M  V30 7114 H 717.565 -2.69551 5.22127 0
M  V30 7115 H 719.089 -3.5853 4.94255 0
M  V30 7116 H 720.503 -1.39929 5.55961 0
M  V30 7117 H 718.9 -0.715814 5.95815 0
M  V30 7118 H 719.97 0.157239 4.84645 0
M  V30 7119 N 721.313 -1.57302 -0.09688 0
M  V30 7120 C 722.538 -1.9058 -0.818169 0
M  V30 7121 C 722.963 -0.770921 -1.71576 0
M  V30 7122 O 722.321 0.277588 -1.79162 0
M  V30 7123 C 722.369 -3.22714 -1.60898 0
M  V30 7124 O 721.473 -3.10178 -2.71779 0
M  V30 7125 H 720.814 -0.624759 -0.224882 0
M  V30 7126 H 723.344 -2.04471 -0.07264 0
M  V30 7127 H 723.354 -3.55978 -1.99358 0
M  V30 7128 H 722.029 -4.04899 -0.950227 0
M  V30 7129 H 720.606 -2.88424 -2.3636 0
M  V30 7130 N 722.791 0.367657 -1.53252 0
M  V30 7131 C 723.723 1.47032 -1.75824 0
M  V30 7132 C 724.736 1.49736 -0.63898 0
M  V30 7133 O 725.925 1.53253 -0.915193 0
M  V30 7134 C 723.025 2.85805 -1.82122 0
M  V30 7135 C 722.198 3.06822 -3.11736 0
M  V30 7136 C 721.257 4.25698 -3.09302 0
M  V30 7137 O 720.283 4.20972 -3.83107 0
M  V30 7138 N 721.485 5.33002 -2.29977 0
M  V30 7139 H 724.25 1.28048 -2.70968 0
M  V30 7140 H 721.811 0.557363 -1.52004 0
M  V30 7141 H 723.803 3.63465 -1.77975 0
M  V30 7142 H 722.373 2.98046 -0.942716 0
M  V30 7143 H 721.593 2.1684 -3.29202 0
M  V30 7144 H 722.881 3.17731 -3.97397 0
M  V30 7145 H 722.279 5.39703 -1.69521 0
M  V30 7146 H 720.836 6.09247 -2.3165 0
M  V30 7147 N 724.269 1.44576 0.627338 0
M  V30 7148 C 725.216 1.51734 1.73912 0
M  V30 7149 C 726.186 0.364745 1.62046 0
M  V30 7150 O 727.371 0.575503 1.81914 0
M  V30 7151 C 724.511 1.47116 3.12171 0
M  V30 7152 C 723.624 2.72778 3.34986 0
M  V30 7153 C 722.759 2.59968 4.63239 0
M  V30 7154 C 721.798 3.80776 4.79245 0
M  V30 7155 N 720.935 3.66618 5.98778 0
M  V30 7156 H 725.775 2.46722 1.6713 0
M  V30 7157 H 723.312 1.22444 0.815224 0
M  V30 7158 H 725.27 1.42429 3.92135 0
M  V30 7159 H 723.9 0.556928 3.17959 0
M  V30 7160 H 722.952 2.87637 2.48936 0
M  V30 7161 H 724.264 3.62441 3.42692 0
M  V30 7162 H 723.418 2.53135 5.51369 0
M  V30 7163 H 722.157 1.67872 4.57898 0
M  V30 7164 H 721.162 3.87989 3.89544 0
M  V30 7165 H 722.387 4.73913 4.86398 0
M  V30 7166 H 720.333 2.77277 5.9452 0
M  V30 7167 H 720.25 4.499 6.07557 0
M  V30 7168 H 721.518 3.63684 6.89459 0
M  V30 7169 N 725.747 -0.868086 1.31537 0
M  V30 7170 C 726.71 -1.95703 1.19302 0
M  V30 7171 C 727.71 -1.60355 0.119612 0
M  V30 7172 O 728.9 -1.70247 0.36902 0
M  V30 7173 C 726.032 -3.30599 0.831684 0
M  V30 7174 H 727.225 -2.07982 2.16064 0
M  V30 7175 H 724.778 -1.05661 1.15176 0
M  V30 7176 H 725.513 -3.2402 -0.134694 0
M  V30 7177 H 725.298 -3.57629 1.60761 0
M  V30 7178 H 726.788 -4.10439 0.770026 0
M  V30 7179 N 727.225 -1.14528 -1.08264 0
M  V30 7180 C 728.474 -0.908992 -1.80056 0
M  V30 7181 C 728.787 0.565859 -1.87236 0
M  V30 7182 O 729.993 0.919454 -2.55457 0
M  V30 7183 C 728.449 -1.57681 -3.23519 0
M  V30 7184 C 728.057 -3.08803 -3.24569 0
M  V30 7185 C 729.801 -1.4217 -3.99985 0
M  V30 7186 C 727.708 -3.68414 -4.62629 0
M  V30 7187 H 726.638 -0.336432 -0.674781 0
M  V30 7188 H 729.289 -1.37437 -1.21587 0
M  V30 7189 H 727.671 -1.03911 -3.82124 0
M  V30 7190 H 728.845 -3.69252 -2.75663 0
M  V30 7191 H 727.16 -3.23968 -2.61598 0
M  V30 7192 H 729.757 -1.84106 -5.02005 0
M  V30 7193 H 730.1 -0.367989 -4.1467 0
M  V30 7194 H 730.633 -1.92984 -3.47853 0
M  V30 7195 H 727.372 -4.73644 -4.53147 0
M  V30 7196 H 726.892 -3.12746 -5.11811 0
M  V30 7197 H 728.571 -3.68793 -5.31602 0
M  V30 7198 N 728.703 1.26451 -0.940633 0
M  V30 7199 C 729.95 1.93778 -0.587909 0
M  V30 7200 C 730.278 1.73811 0.872935 0
M  V30 7201 O 729.533 1.06816 1.63978 0
M  V30 7202 C 729.832 3.46503 -0.875794 0
M  V30 7203 C 729.498 3.86609 -2.32043 0
M  V30 7204 C 728.16 3.97269 -2.71534 0
M  V30 7205 C 730.512 4.0672 -3.25927 0
M  V30 7206 C 727.84 4.25436 -4.04006 0
M  V30 7207 C 730.192 4.36375 -4.57995 0
M  V30 7208 C 728.856 4.45249 -4.97302 0
M  V30 7209 H 728.126 0.709084 -0.215131 0
M  V30 7210 H 730.773 1.50272 -1.18704 0
M  V30 7211 H 729.078 3.91319 -0.194124 0
M  V30 7212 H 730.775 3.96759 -0.581665 0
M  V30 7213 H 727.365 3.78858 -2.00411 0
M  V30 7214 H 731.549 3.97912 -2.96614 0
M  V30 7215 H 726.805 4.30519 -4.34124 0
M  V30 7216 H 730.979 4.50882 -5.30734 0
M  V30 7217 H 728.606 4.66829 -5.99979 0
M  V30 7218 N 730.181 0.707592 1.40822 0
M  V30 7219 C 731.406 0.251626 2.05868 0
M  V30 7220 C 731.831 -1.09503 1.5294 0
M  V30 7221 O 731.189 -1.68806 0.661385 0
M  V30 7222 C 731.237 0.23287 3.59847 0
M  V30 7223 O 730.341 -0.788477 4.04792 0
M  V30 7224 H 729.682 0.119936 0.653078 0
M  V30 7225 H 732.212 0.96583 1.80369 0
M  V30 7226 H 732.222 0.0678204 4.07944 0
M  V30 7227 H 730.897 1.21565 3.97737 0
M  V30 7228 H 729.474 -0.591802 3.68174 0
M  V30 7229 N 731.66 -1.50943 0.453197 0
M  V30 7230 C 732.623 -2.26684 -0.338705 0
M  V30 7231 C 733.623 -1.30748 -0.936032 0
M  V30 7232 O 734.813 -1.54327 -0.808002 0
M  V30 7233 C 731.945 -3.07063 -1.48071 0
M  V30 7234 H 733.138 -2.98131 0.325289 0
M  V30 7235 H 730.691 -1.54926 0.206771 0
M  V30 7236 H 731.426 -2.4007 -2.18029 0
M  V30 7237 H 731.211 -3.77545 -1.0584 0
M  V30 7238 H 732.701 -3.64393 -2.0398 0
M  V30 7239 N 733.138 -0.185124 -1.56509 0
M  V30 7240 C 734.363 0.465278 -2.02114 0
M  V30 7241 C 734.788 1.55083 -1.06447 0
M  V30 7242 O 734.146 1.81241 -0.0462852 0
M  V30 7243 C 734.194 1.00784 -3.46229 0
M  V30 7244 O 733.298 2.12123 -3.53663 0
M  V30 7245 H 732.639 0.109891 -0.654843 0
M  V30 7246 H 735.169 -0.293072 -2.0249 0
M  V30 7247 H 735.179 1.32697 -3.85818 0
M  V30 7248 H 733.854 0.213113 -4.15354 0
M  V30 7249 H 732.431 1.8115 -3.25943 0
M  V30 7250 N 734.616 1.57351 0.0885366 0
M  V30 7251 C 735.865 1.85604 0.789556 0
M  V30 7252 C 736.178 0.775352 1.79576 0
M  V30 7253 O 737.384 0.945206 2.54515 0
M  V30 7254 C 735.84 3.29175 1.45506 0
M  V30 7255 C 735.448 4.45331 0.488278 0
M  V30 7256 C 737.192 3.66646 2.13942 0
M  V30 7257 C 735.099 5.79937 1.15874 0
M  V30 7258 H 734.029 0.692346 0.298619 0
M  V30 7259 H 736.68 1.83451 0.0425821 0
M  V30 7260 H 735.062 3.25889 2.24972 0
M  V30 7261 H 736.236 4.59977 -0.275359 0
M  V30 7262 H 734.551 4.16301 -0.0907363 0
M  V30 7263 H 737.148 4.64498 2.6485 0
M  V30 7264 H 737.491 2.956 2.93132 0
M  V30 7265 H 738.024 3.71848 1.41328 0
M  V30 7266 H 734.763 6.54232 0.407508 0
M  V30 7267 H 734.283 5.69123 1.89364 0
M  V30 7268 H 735.962 6.24718 1.68336 0
M  V30 7269 N 736.094 -0.359525 1.53444 0
M  V30 7270 C 737.371 -1.11756 1.6053 0
M  V30 7271 C 737.751 -2.06949 0.416587 0
M  V30 7272 O 737.099 -2.20681 -0.592628 0
M  V30 7273 C 737.309 -1.85133 2.95849 0
M  V30 7274 C 738.657 -2.3945 3.50641 0
M  V30 7275 O 739.681 -1.95251 2.97918 0
M  V30 7276 O 738.54 -3.20266 4.42823 0
M  V30 7277 H 735.634 -0.513005 0.648656 0
M  V30 7278 H 738.18 -0.362301 1.65787 0
M  V30 7279 H 736.952 -1.15694 3.73806 0
M  V30 7280 H 736.575 -2.67554 2.9411 0
M  V30 7281 N 737.572 -1.44907 -0.619662 0
M  V30 7282 C 738.849 -1.38766 -1.37852 0
M  V30 7283 C 739.229 -0.0521393 -2.11036 0
M  V30 7284 O 738.577 0.965613 -2.07095 0
M  V30 7285 C 738.787 -2.59344 -2.33541 0
M  V30 7286 C 740.135 -3.03909 -2.96521 0
M  V30 7287 O 741.159 -2.59631 -2.43865 0
M  V30 7288 O 740.018 -3.80713 -3.92071 0
M  V30 7289 H 737.112 -0.550083 -0.617525 0
M  V30 7290 H 739.658 -1.57015 -0.643759 0
M  V30 7291 H 738.43 -3.48142 -1.78642 0
M  V30 7292 H 738.053 -2.43367 -3.14417 0
M  V30 7293 N 739.05 0.861098 -1.31996 0
M  V30 7294 C 739.997 1.96912 -1.20392 0
M  V30 7295 C 740.967 1.65869 -0.0875899 0
M  V30 7296 O 742.152 1.88992 -0.262011 0
M  V30 7297 C 739.292 3.32435 -0.926335 0
M  V30 7298 C 738.405 3.76018 -2.12684 0
M  V30 7299 C 737.54 5.00301 -1.78529 0
M  V30 7300 C 736.579 5.36357 -2.94937 0
M  V30 7301 N 735.716 6.51818 -2.60917 0
M  V30 7302 H 740.556 2.06169 -2.1517 0
M  V30 7303 H 738.093 1.00917 -1.07024 0
M  V30 7304 H 740.051 4.10478 -0.745917 0
M  V30 7305 H 738.681 3.22796 -0.0153578 0
M  V30 7306 H 737.733 2.93683 -2.41774 0
M  V30 7307 H 739.045 3.98664 -2.99781 0
M  V30 7308 H 738.199 5.86034 -1.57001 0
M  V30 7309 H 736.938 4.79578 -0.886356 0
M  V30 7310 H 735.943 4.49139 -3.17103 0
M  V30 7311 H 737.168 5.59041 -3.85552 0
M  V30 7312 H 735.114 6.32624 -1.73558 0
M  V30 7313 H 735.031 6.7445 -3.41544 0
M  V30 7314 H 736.299 7.4072 -2.42804 0
M  V30 7315 N 740.528 1.15101 1.07655 0
M  V30 7316 C 741.774 0.925343 1.80458 0
M  V30 7317 C 742.107 -0.546354 1.86356 0
M  V30 7318 O 741.382 -1.40496 1.34503 0
M  V30 7319 C 741.665 1.53646 3.25676 0
M  V30 7320 C 741.518 3.07854 3.27942 0
M  V30 7321 C 742.837 1.21968 4.22861 0
M  V30 7322 H 739.956 0.337592 0.655134 0
M  V30 7323 H 742.598 1.42217 1.25993 0
M  V30 7324 H 740.748 1.11395 3.72187 0
M  V30 7325 H 742.42 3.58989 2.89697 0
M  V30 7326 H 740.663 3.41904 2.66991 0
M  V30 7327 H 741.334 3.45725 4.30324 0
M  V30 7328 H 743.81 1.5851 3.84726 0
M  V30 7329 H 742.686 1.67349 5.22767 0
M  V30 7330 H 742.947 0.136207 4.4189 0
M  V30 7331 N 742.006 -1.2595 0.947325 0
M  V30 7332 C 743.254 -1.93081 0.596996 0
M  V30 7333 C 743.575 -1.74632 -0.867672 0
M  V30 7334 O 742.845 -1.1056 -1.6172 0
M  V30 7335 H 741.425 -0.714542 0.217805 0
M  V30 7336 H 744.087 -1.53265 1.20398 0
M  V30 7337 H 743.183 -3.01134 0.82004 0
M  V30 7338 N 743.484 -0.715051 -1.40445 0
M  V30 7339 C 744.9 -0.388555 -1.54798 0
M  V30 7340 C 745.1 1.10271 -1.68649 0
M  V30 7341 O 744.156 1.88875 -1.67578 0
M  V30 7342 C 745.469 -1.15414 -2.77669 0
M  V30 7343 C 747.017 -1.14039 -2.91486 0
M  V30 7344 C 747.492 -1.88812 -4.1727 0
M  V30 7345 N 748.983 -1.85878 -4.24268 0
M  V30 7346 C 749.718 -2.40558 -5.20499 0
M  V30 7347 N 749.214 -3.03791 -6.22642 0
M  V30 7348 N 751.007 -2.30703 -5.12574 0
M  V30 7349 H 743.158 -1.68201 -1.297 0
M  V30 7350 H 745.421 -0.710915 -0.627139 0
M  V30 7351 H 745.127 -2.20853 -2.7371 0
M  V30 7352 H 745.001 -0.745412 -3.69761 0
M  V30 7353 H 747.388 -0.0941996 -2.9495 0
M  V30 7354 H 747.469 -1.58834 -2.00513 0
M  V30 7355 H 747.113 -2.93422 -4.14568 0
M  V30 7356 H 747.043 -1.41438 -5.0725 0
M  V30 7357 H 749.534 -1.39794 -3.51093 0
M  V30 7358 H 749.847 -3.43032 -6.92495 0
M  V30 7359 H 748.192 -3.07875 -6.23087 0
M  V30 7360 H 751.383 -1.80961 -4.31707 0
M  V30 7361 H 751.556 -2.73618 -5.87398 0
M  V30 7362 N 744.962 1.50701 -0.461195 0
M  V30 7363 C 745.912 2.25195 0.35653 0
M  V30 7364 C 746.896 1.2838 0.96992 0
M  V30 7365 O 748.088 1.53338 0.884108 0
M  V30 7366 C 745.217 3.11471 1.44364 0
M  V30 7367 C 744.303 4.15729 0.83847 0
M  V30 7368 N 744.694 5.05788 -0.0353198 0
M  V30 7369 C 742.992 4.32133 1.1035 0
M  V30 7370 C 743.693 5.80472 -0.37774 0
M  V30 7371 N 742.669 5.43049 0.24463 0
M  V30 7372 H 746.471 2.92188 -0.316746 0
M  V30 7373 H 743.985 1.60059 -0.274725 0
M  V30 7374 H 745.982 3.63436 2.04255 0
M  V30 7375 H 744.642 2.46025 2.11901 0
M  V30 7376 H 745.653 5.16326 -0.403465 0
M  V30 7377 H 742.33 3.77908 1.77458 0
M  V30 7378 H 743.72 6.62996 -1.09024 0
M  V30 7379 N 746.441 0.193421 1.56409 0
M  V30 7380 C 747.687 -0.446449 1.97825 0
M  V30 7381 C 748.02 -1.61386 1.08019 0
M  V30 7382 O 747.295 -1.94053 0.131839 0
M  V30 7383 C 747.578 -0.908199 3.48459 0
M  V30 7384 C 747.431 0.260914 4.49043 0
M  V30 7385 C 748.75 -1.77428 4.0275 0
M  V30 7386 H 745.869 -0.160807 0.719243 0
M  V30 7387 H 748.511 0.284006 1.87865 0
M  V30 7388 H 746.661 -1.53062 3.57077 0
M  V30 7389 H 748.333 0.898548 4.52464 0
M  V30 7390 H 746.576 0.912949 4.24085 0
M  V30 7391 H 747.247 -0.104657 5.51901 0
M  V30 7392 H 749.723 -1.24936 3.96901 0
M  V30 7393 H 748.599 -2.06633 5.08521 0
M  V30 7394 H 748.86 -2.72788 3.47907 0
M  V30 7395 N 747.919 -1.57396 -0.0801906 0
M  V30 7396 C 748.866 -2.03107 -1.09618 0
M  V30 7397 C 749.836 -0.910118 -1.38946 0
M  V30 7398 O 751.021 -1.17719 -1.50156 0
M  V30 7399 C 748.161 -2.47293 -2.40708 0
M  V30 7400 C 747.274 -3.72972 -2.17982 0
M  V30 7401 C 746.409 -4.05975 -3.42576 0
M  V30 7402 C 745.448 -5.24719 -3.15177 0
M  V30 7403 N 744.585 -5.53401 -4.32078 0
M  V30 7404 H 749.425 -2.89677 -0.69939 0
M  V30 7405 H 746.962 -1.43263 -0.333785 0
M  V30 7406 H 748.92 -2.7096 -3.17232 0
M  V30 7407 H 747.55 -1.63713 -2.78205 0
M  V30 7408 H 746.602 -3.56693 -1.32189 0
M  V30 7409 H 747.914 -4.59638 -1.93738 0
M  V30 7410 H 747.068 -4.30498 -4.275 0
M  V30 7411 H 745.807 -3.17859 -3.69887 0
M  V30 7412 H 744.812 -5 -2.28648 0
M  V30 7413 H 746.037 -6.14445 -2.89197 0
M  V30 7414 H 743.983 -4.68245 -4.59437 0
M  V30 7415 H 743.9 -6.34469 -4.11078 0
M  V30 7416 H 745.168 -5.8247 -5.18024 0
M  V30 7417 N 749.397 0.351382 -1.53633 0
M  V30 7418 C 750.33 1.45407 -1.75875 0
M  V30 7419 C 751.308 1.50822 -0.607566 0
M  V30 7420 O 752.492 1.68658 -0.841818 0
M  V30 7421 C 749.619 2.8369 -1.85034 0
M  V30 7422 C 748.665 2.95935 -3.07123 0
M  V30 7423 S 749.498 2.63215 -4.66345 0
M  V30 7424 C 750.654 4.03622 -4.78373 0
M  V30 7425 H 750.887 1.26322 -2.69128 0
M  V30 7426 H 748.42 0.546581 -1.44402 0
M  V30 7427 H 750.378 3.6336 -1.90996 0
M  V30 7428 H 749.039 3.00076 -0.928074 0
M  V30 7429 H 748.232 3.97243 -3.10183 0
M  V30 7430 H 747.834 2.24205 -2.99346 0
M  V30 7431 H 750.126 4.98046 -4.593 0
M  V30 7432 H 751.069 4.05559 -5.80454 0
M  V30 7433 H 751.477 3.91282 -4.06889 0
M  V30 7434 N 750.875 1.45233 0.611969 0
M  V30 7435 C 752.124 1.48296 1.36716 0
M  V30 7436 C 752.437 0.12706 1.95187 0
M  V30 7437 O 753.643 0.0353066 2.71477 0
M  V30 7438 C 752.099 2.61168 2.47627 0
M  V30 7439 C 751.707 4.03051 1.95587 0
M  V30 7440 C 753.451 2.73472 3.24674 0
M  V30 7441 C 751.358 5.07312 3.03954 0
M  V30 7442 H 750.288 0.5518 0.513841 0
M  V30 7443 H 752.939 1.7136 0.656359 0
M  V30 7444 H 751.321 2.31379 3.21372 0
M  V30 7445 H 752.495 4.42497 1.2858 0
M  V30 7446 H 750.81 3.95158 1.31298 0
M  V30 7447 H 753.407 3.48537 4.05494 0
M  V30 7448 H 753.75 1.79953 3.75397 0
M  V30 7449 H 754.283 3.02765 2.58028 0
M  V30 7450 H 751.022 6.02525 2.58154 0
M  V30 7451 H 750.542 4.7244 3.69541 0
M  V30 7452 H 752.221 5.31867 3.6841 0
M  V30 7453 N 752.353 -0.854086 1.3245 0
M  V30 7454 C 753.63 -1.59188 1.1366 0
M  V30 7455 C 754.01 -2.08917 -0.302807 0
M  V30 7456 O 753.358 -1.8795 -1.29951 0
M  V30 7457 C 753.568 -2.73757 2.16467 0
M  V30 7458 C 754.916 -3.43323 2.49829 0
M  V30 7459 O 755.94 -2.83983 2.15017 0
M  V30 7460 O 754.799 -4.50409 3.09506 0
M  V30 7461 H 751.893 -0.701092 0.438633 0
M  V30 7462 H 754.439 -0.898165 1.43983 0
M  V30 7463 H 753.211 -2.3454 3.1322 0
M  V30 7464 H 752.834 -3.50804 1.87142 0
M  V30 7465 N 753.831 -1.1567 -1.07043 0
M  V30 7466 C 754.779 -0.852204 -2.16426 0
M  V30 7467 C 755.773 0.175661 -1.68487 0
M  V30 7468 O 756.979 0.0303874 -1.79974 0
M  V30 7469 H 753.354 -0.257942 -0.706378 0
M  V30 7470 H 755.325 -1.78231 -2.39324 0
M  V30 7471 C 754.074 -0.361362 -3.45817 0
M  V30 7472 H 753.397 -1.14369 -3.83092 0
M  V30 7473 H 754.837 -0.186997 -4.23587 0
M  V30 7474 C 753.296 0.917703 -3.2416 0
M  V30 7475 O 753.826 1.98858 -3.49025 0
M  V30 7476 N 752.032 0.858456 -2.77631 0
M  V30 7477 H 751.579 -0.0131821 -2.57597 0
M  V30 7478 H 751.537 1.71478 -2.6352 0
M  V30 7479 N 755.309 1.25446 -0.953992 0
M  V30 7480 C 756.555 1.9343 -0.60933 0
M  V30 7481 C 756.888 1.74542 0.851388 0
M  V30 7482 O 756.163 1.09014 1.61078 0
M  V30 7483 C 756.446 3.46844 -0.968041 0
M  V30 7484 C 756.299 3.74961 -2.48444 0
M  V30 7485 C 757.618 4.37334 -0.492641 0
M  V30 7486 H 754.737 0.702502 -0.222844 0
M  V30 7487 H 757.379 1.48076 -1.19053 0
M  V30 7488 H 755.529 3.85604 -0.473465 0
M  V30 7489 H 757.201 3.45841 -3.05273 0
M  V30 7490 H 755.444 3.20589 -2.92241 0
M  V30 7491 H 756.115 4.82246 -2.68594 0
M  V30 7492 H 758.591 4.05873 -0.916878 0
M  V30 7493 H 757.467 5.43439 -0.772331 0
M  V30 7494 H 757.728 4.37908 0.607403 0
M  V30 7495 N 756.787 0.722489 1.40064 0
M  V30 7496 C 758.017 0.274439 2.04769 0
M  V30 7497 C 758.425 -1.09125 1.54559 0
M  V30 7498 O 757.768 -1.69834 0.700149 0
M  V30 7499 C 757.83 0.184091 3.59028 0
M  V30 7500 C 757.494 1.48619 4.32159 0
M  V30 7501 C 758.491 2.42947 4.59644 0
M  V30 7502 C 756.176 1.74703 4.7094 0
M  V30 7503 C 758.17 3.616 5.24904 0
M  V30 7504 C 755.857 2.93636 5.3593 0
M  V30 7505 C 756.855 3.86907 5.62843 0
M  V30 7506 O 756.543 5.03753 6.26489 0
M  V30 7507 H 756.275 0.119847 0.665292 0
M  V30 7508 H 758.829 0.983352 1.80331 0
M  V30 7509 H 757.059 -0.580821 3.82313 0
M  V30 7510 H 758.748 -0.230306 4.05246 0
M  V30 7511 H 759.514 2.24062 4.30141 0
M  V30 7512 H 755.393 1.02955 4.49356 0
M  V30 7513 H 758.937 4.34418 5.45827 0
M  V30 7514 H 754.834 3.12428 5.64853 0
M  V30 7515 H 755.602 5.03922 6.44984 0
M  V30 7516 N 758.265 -1.50454 0.469181 0
M  V30 7517 C 759.213 -2.30101 -0.340033 0
M  V30 7518 C 760.207 -1.37306 -0.992135 0
M  V30 7519 O 761.413 -1.54506 -0.923458 0
M  V30 7520 H 757.788 -0.740941 -0.128495 0
M  V30 7521 H 759.759 -2.96315 0.352144 0
M  V30 7522 C 758.508 -3.17804 -1.41052 0
M  V30 7523 H 757.831 -3.89115 -0.918124 0
M  V30 7524 H 759.271 -3.76533 -1.94934 0
M  V30 7525 C 757.73 -2.35272 -2.4114 0
M  V30 7526 O 758.26 -2.03448 -3.4637 0
M  V30 7527 N 756.466 -1.97889 -2.1281 0
M  V30 7528 H 756.013 -2.2397 -1.27261 0
M  V30 7529 H 755.971 -1.42971 -2.80012 0
M  V30 7530 N 759.743 -0.201713 -1.56304 0
M  V30 7531 C 761.154 0.309711 -1.84113 0
M  V30 7532 C 761.505 1.60912 -1.12258 0
M  V30 7533 O 760.63 2.12937 -0.385587 0
M  V30 7534 C 761.225 0.568706 -3.33993 0
M  V30 7535 C 759.784 1.02448 -3.6219 0
M  V30 7536 C 758.931 0.0766842 -2.77194 0
M  V30 7537 H 761.882 -0.425356 -1.52893 0
M  V30 7538 H 761.903 1.41721 -3.53122 0
M  V30 7539 H 761.415 -0.37719 -3.86263 0
M  V30 7540 H 759.516 1.98443 -3.15359 0
M  V30 7541 H 759.629 0.912619 -4.70328 0
M  V30 7542 H 757.993 0.579809 -2.48013 0
M  V30 7543 H 758.776 -0.863774 -3.32256 0
M  V30 7544 N 761.222 1.57436 0.0718424 0
M  V30 7545 C 762.185 2.02703 1.06977 0
M  V30 7546 C 763.185 0.924062 1.31597 0
M  V30 7547 O 764.375 1.18894 1.27318 0
M  V30 7548 C 761.507 2.40763 2.41342 0
M  V30 7549 H 762.7 2.92098 0.679619 0
M  V30 7550 H 760.253 1.5304 0.317565 0
M  V30 7551 H 760.988 1.54394 2.8519 0
M  V30 7552 H 760.773 3.21249 2.24814 0
M  V30 7553 H 762.263 2.76361 3.13073 0
M  V30 7554 N 762.7 -0.34323 1.53817 0
M  V30 7555 C 763.663 -1.40444 1.8113 0
M  V30 7556 C 764.663 -1.45604 0.682366 0
M  V30 7557 O 765.853 -1.45974 0.950649 0
M  V30 7558 C 762.985 -2.79369 1.95361 0
M  V30 7559 H 764.178 -1.17489 2.75928 0
M  V30 7560 H 761.731 -0.577636 1.45234 0
M  V30 7561 H 762.466 -3.07607 1.02707 0
M  V30 7562 H 762.251 -2.7702 2.77493 0
M  V30 7563 H 763.741 -3.56178 2.18008 0
M  V30 7564 N 764.178 -1.45556 -0.604258 0
M  V30 7565 C 765.427 -1.49019 -1.35928 0
M  V30 7566 C 765.74 -0.137409 -1.95117 0
M  V30 7567 O 766.946 -0.0497032 -2.71455 0
M  V30 7568 C 765.402 -2.62477 -2.46239 0
M  V30 7569 C 765.01 -4.04082 -1.93447 0
M  V30 7570 C 766.754 -2.7519 -3.23219 0
M  V30 7571 C 764.661 -5.08917 -3.0126 0
M  V30 7572 H 763.591 -0.554518 -0.510907 0
M  V30 7573 H 766.242 -1.71705 -0.647262 0
M  V30 7574 H 764.624 -2.3308 -3.2014 0
M  V30 7575 H 765.798 -4.43173 -1.26232 0
M  V30 7576 H 764.113 -3.95849 -1.29201 0
M  V30 7577 H 766.71 -3.50683 -4.0364 0
M  V30 7578 H 767.053 -1.81941 -3.74437 0
M  V30 7579 H 767.586 -3.04129 -2.56418 0
M  V30 7580 H 764.325 -6.03886 -2.54955 0
M  V30 7581 H 763.845 -4.74393 -3.67031 0
M  V30 7582 H 765.524 -5.33814 -3.65584 0
M  V30 7583 N 765.656 0.84705 -1.32902 0
M  V30 7584 C 766.619 1.9378 -1.224 0
M  V30 7585 C 767.619 1.60144 -0.145108 0
M  V30 7586 O 768.809 1.69638 -0.396058 0
M  V30 7587 C 765.941 3.29234 -0.884174 0
M  V30 7588 H 767.134 2.04518 -2.19345 0
M  V30 7589 H 764.687 1.03816 -1.16842 0
M  V30 7590 H 765.422 3.24193 0.0831277 0
M  V30 7591 H 765.207 3.55026 -1.6643 0
M  V30 7592 H 766.697 4.09162 -0.835226 0
M  V30 7593 N 767.134 1.16236 1.06428 0
M  V30 7594 C 768.38 0.944431 1.79467 0
M  V30 7595 C 768.713 -0.526558 1.86925 0
M  V30 7596 O 767.988 -1.39061 1.35986 0
M  V30 7597 C 768.271 1.57092 3.24028 0
M  V30 7598 C 768.124 3.11315 3.24658 0
M  V30 7599 C 769.443 1.26447 4.21544 0
M  V30 7600 H 766.562 0.344521 0.651517 0
M  V30 7601 H 769.204 1.43545 1.24478 0
M  V30 7602 H 767.354 1.15337 3.70985 0
M  V30 7603 H 769.026 3.62042 2.85873 0
M  V30 7604 H 767.269 3.44716 2.6335 0
M  V30 7605 H 767.94 3.50269 4.26633 0
M  V30 7606 H 770.416 1.62581 3.83023 0
M  V30 7607 H 769.292 1.72885 5.20963 0
M  V30 7608 H 769.553 0.183068 4.41721 0
M  V30 7609 N 768.612 -1.24939 0.960631 0
M  V30 7610 C 769.889 -1.88118 0.535807 0
M  V30 7611 C 770.269 -1.86605 -0.987009 0
M  V30 7612 O 769.617 -1.33375 -1.85536 0
M  V30 7613 C 769.827 -3.30565 1.11927 0
M  V30 7614 C 771.175 -4.07296 1.19981 0
M  V30 7615 O 772.199 -3.39709 1.07126 0
M  V30 7616 O 771.058 -5.28206 1.40218 0
M  V30 7617 H 768.152 -0.807698 0.177631 0
M  V30 7618 H 770.698 -1.32964 1.05445 0
M  V30 7619 H 769.47 -3.26128 2.16231 0
M  V30 7620 H 769.093 -3.93284 0.584245 0
M  V30 7621 N 770.09 -0.729906 -1.39679 0
M  V30 7622 C 771.336 -0.284905 -2.01395 0
M  V30 7623 C 771.691 1.11394 -1.56873 0
M  V30 7624 O 770.984 1.74765 -0.785342 0
M  V30 7625 C 771.178 -0.319564 -3.55968 0
M  V30 7626 C 771.007 -1.72024 -4.15497 0
M  V30 7627 C 769.777 -2.33128 -4.48307 0
M  V30 7628 C 771.975 -2.67296 -4.39383 0
M  V30 7629 N 769.957 -3.65403 -4.93309 0
M  V30 7630 C 771.328 -3.84298 -4.86534 0
M  V30 7631 C 773.383 -2.65124 -4.21442 0
M  V30 7632 C 772.086 -4.99455 -5.17627 0
M  V30 7633 C 774.112 -3.7942 -4.53646 0
M  V30 7634 C 773.474 -4.95156 -5.00999 0
M  V30 7635 H 769.573 -0.1504 -0.767401 0
M  V30 7636 H 772.157 -0.954783 -1.69682 0
M  V30 7637 H 770.328 0.319938 -3.8708 0
M  V30 7638 H 772.06 0.143504 -4.04445 0
M  V30 7639 H 768.815 -1.85097 -4.35931 0
M  V30 7640 H 769.239 -4.33298 -5.20175 0
M  V30 7641 H 773.881 -1.76842 -3.8404 0
M  V30 7642 H 771.599 -5.88371 -5.53937 0
M  V30 7643 H 775.185 -3.79031 -4.41392 0
M  V30 7644 H 774.065 -5.82131 -5.25446 0
M  V30 7645 N 771.568 1.50203 -0.477153 0
M  V30 7646 C 772.814 2.02658 0.0758507 0
M  V30 7647 C 773.147 1.358 1.38824 0
M  V30 7648 O 772.422 0.485696 1.88338 0
M  V30 7649 C 772.705 3.59208 0.253339 0
M  V30 7650 C 772.558 4.36629 -1.0805 0
M  V30 7651 C 773.877 4.28469 1.00509 0
M  V30 7652 H 770.996 0.736538 0.0260921 0
M  V30 7653 H 773.638 1.79464 -0.623925 0
M  V30 7654 H 771.788 3.79101 0.849378 0
M  V30 7655 H 773.46 4.28292 -1.71358 0
M  V30 7656 H 771.703 4.0013 -1.67566 0
M  V30 7657 H 772.374 5.44449 -0.909883 0
M  V30 7658 H 774.85 4.13087 0.499818 0
M  V30 7659 H 773.726 5.37804 1.09808 0
M  V30 7660 H 773.987 3.92057 2.04314 0
M  V30 7661 N 773.046 0.209999 1.56195 0
M  V30 7662 C 774.276 -0.429373 2.02089 0
M  V30 7663 C 774.684 -1.54703 1.0892 0
M  V30 7664 O 774.027 -1.83485 0.0889535 0
M  V30 7665 C 774.089 -1.03266 3.44349 0
M  V30 7666 C 773.753 -0.0518873 4.56971 0
M  V30 7667 C 774.75 0.744249 5.14545 0
M  V30 7668 C 772.435 0.0635185 5.0226 0
M  V30 7669 C 774.429 1.64261 6.15871 0
M  V30 7670 C 772.116 0.965423 6.03426 0
M  V30 7671 C 773.114 1.75352 6.60106 0
M  V30 7672 O 772.802 2.64029 7.59305 0
M  V30 7673 H 772.534 -0.110604 0.66689 0
M  V30 7674 H 775.088 0.320436 2.02885 0
M  V30 7675 H 773.318 -1.83134 3.40586 0
M  V30 7676 H 775.007 -1.57823 3.73961 0
M  V30 7677 H 775.773 0.665476 4.80413 0
M  V30 7678 H 771.652 -0.539762 4.57829 0
M  V30 7679 H 775.196 2.25819 6.60039 0
M  V30 7680 H 771.093 1.04526 6.36981 0
M  V30 7681 H 771.861 2.57974 7.76783 0
M  V30 7682 N 774.524 -1.57472 -0.0634922 0
M  V30 7683 C 775.471 -2.04258 -1.07457 0
M  V30 7684 C 776.441 -0.924804 -1.37973 0
M  V30 7685 O 777.626 -1.19305 -1.48899 0
M  V30 7686 C 774.766 -2.49832 -2.38071 0
M  V30 7687 C 773.879 -3.75263 -2.14014 0
M  V30 7688 C 773.014 -4.09585 -3.38251 0
M  V30 7689 C 772.053 -5.28032 -3.09594 0
M  V30 7690 N 771.19 -5.57953 -4.26185 0
M  V30 7691 H 776.03 -2.90402 -0.668626 0
M  V30 7692 H 773.567 -1.43609 -0.318572 0
M  V30 7693 H 775.525 -2.7431 -3.14341 0
M  V30 7694 H 774.155 -1.66654 -2.76453 0
M  V30 7695 H 773.207 -3.58075 -1.28399 0
M  V30 7696 H 774.519 -4.61667 -1.88852 0
M  V30 7697 H 773.673 -4.35008 -4.2291 0
M  V30 7698 H 772.412 -3.21765 -3.66495 0
M  V30 7699 H 771.417 -5.02397 -2.23332 0
M  V30 7700 H 772.642 -6.17477 -2.82663 0
M  V30 7701 H 770.588 -4.73092 -4.54445 0
M  V30 7702 H 770.505 -6.38793 -4.04326 0
M  V30 7703 H 771.773 -5.87931 -5.11817 0
M  V30 7704 N 776.003 0.335068 -1.53997 0
M  V30 7705 C 777.231 1.09418 -1.756 0
M  V30 7706 C 777.646 1.82083 -0.499138 0
M  V30 7707 O 777.003 1.74646 0.529631 0
M  V30 7708 C 777.054 2.10115 -2.94166 0
M  V30 7709 O 776.775 1.40404 -4.14992 0
M  V30 7710 C 778.276 2.98336 -3.27888 0
M  V30 7711 H 775.496 0.32595 -0.586513 0
M  V30 7712 H 778.04 0.384693 -2.00849 0
M  V30 7713 H 776.195 2.76616 -2.71224 0
M  V30 7714 H 776.609 2.07743 -4.81605 0
M  V30 7715 H 778.083 3.6491 -4.1418 0
M  V30 7716 H 778.56 3.64814 -2.44556 0
M  V30 7717 H 779.166 2.37412 -3.52868 0
M  V30 7718 N 777.481 1.45874 0.596531 0
M  V30 7719 C 778.73 1.49737 1.35135 0
M  V30 7720 C 779.043 0.147755 1.95041 0
M  V30 7721 O 780.249 0.0640984 2.71424 0
M  V30 7722 C 778.705 2.6378 2.44843 0
M  V30 7723 C 778.313 4.05102 1.91301 0
M  V30 7724 C 780.057 2.769 3.21755 0
M  V30 7725 C 777.964 5.10508 2.98557 0
M  V30 7726 H 776.894 0.557219 0.507959 0
M  V30 7727 H 779.545 1.72046 0.638147 0
M  V30 7728 H 777.927 2.34774 3.189 0
M  V30 7729 H 779.101 4.43836 1.2388 0
M  V30 7730 H 777.416 3.96528 1.271 0
M  V30 7731 H 780.013 3.52819 4.01775 0
M  V30 7732 H 780.356 1.83924 3.73467 0
M  V30 7733 H 780.889 3.05485 2.54802 0
M  V30 7734 H 777.628 6.0523 2.51749 0
M  V30 7735 H 777.148 4.76332 3.6451 0
M  V30 7736 H 778.827 5.35745 3.62748 0
M  V30 7737 N 778.959 -0.83999 1.33349 0
M  V30 7738 C 780.189 -1.62492 1.27593 0
M  V30 7739 C 780.597 -1.88559 -0.155597 0
M  V30 7740 O 779.94 -1.46537 -1.10782 0
M  V30 7741 C 780.002 -2.99984 1.98116 0
M  V30 7742 C 779.666 -2.96892 3.47425 0
M  V30 7743 C 780.663 -2.72688 4.42648 0
M  V30 7744 C 778.348 -3.17063 3.89585 0
M  V30 7745 C 780.342 -2.68681 5.78004 0
M  V30 7746 C 778.029 -3.12682 5.25046 0
M  V30 7747 C 779.027 -2.88522 6.19067 0
M  V30 7748 O 778.715 -2.84042 7.52047 0
M  V30 7749 H 778.447 -0.512358 0.440982 0
M  V30 7750 H 781.001 -1.0545 1.76265 0
M  V30 7751 H 779.231 -3.58875 1.44034 0
M  V30 7752 H 780.92 -3.6084 1.85875 0
M  V30 7753 H 781.686 -2.56856 4.114 0
M  V30 7754 H 777.565 -3.34889 3.16813 0
M  V30 7755 H 781.109 -2.49743 6.51363 0
M  V30 7756 H 777.006 -3.28063 5.55918 0
M  V30 7757 H 777.774 -2.99892 7.61582 0
M  V30 7758 N 780.437 -1.16799 -1.0581 0
M  V30 7759 C 781.683 -0.963929 -1.79109 0
M  V30 7760 C 782.038 0.502569 -1.8572 0
M  V30 7761 O 781.331 1.36813 -1.34137 0
M  V30 7762 C 781.525 -1.53111 -3.22942 0
M  V30 7763 C 781.354 -3.05123 -3.30348 0
M  V30 7764 C 780.124 -3.73804 -3.39998 0
M  V30 7765 C 782.322 -4.02777 -3.19805 0
M  V30 7766 N 780.304 -5.1348 -3.36469 0
M  V30 7767 C 781.675 -5.28866 -3.23576 0
M  V30 7768 C 783.73 -3.94533 -3.03724 0
M  V30 7769 C 782.433 -6.47669 -3.12918 0
M  V30 7770 C 784.459 -5.12913 -2.94405 0
M  V30 7771 C 783.821 -6.37884 -2.98803 0
M  V30 7772 H 779.92 -0.406555 -0.66801 0
M  V30 7773 H 782.504 -1.48277 -1.26183 0
M  V30 7774 H 780.675 -1.03869 -3.74254 0
M  V30 7775 H 782.407 -1.2643 -3.84444 0
M  V30 7776 H 779.162 -3.24457 -3.44999 0
M  V30 7777 H 779.586 -5.86477 -3.38191 0
M  V30 7778 H 784.228 -2.98763 -2.99166 0
M  V30 7779 H 781.946 -7.43656 -3.16231 0
M  V30 7780 H 785.532 -5.08309 -2.83042 0
M  V30 7781 H 784.412 -7.27946 -2.91657 0
M  V30 7782 N 781.915 1.24427 -0.967243 0
M  V30 7783 C 783.143 1.96541 -0.646477 0
M  V30 7784 C 783.558 1.71753 0.783996 0
M  V30 7785 O 782.915 1.00102 1.52597 0
M  V30 7786 C 782.966 3.4983 -0.911098 0
M  V30 7787 O 782.687 3.7377 -2.28534 0
M  V30 7788 C 784.188 4.3916 -0.604458 0
M  V30 7789 H 781.408 0.626129 -0.241255 0
M  V30 7790 H 783.952 1.58268 -1.29505 0
M  V30 7791 H 782.107 3.86168 -0.308741 0
M  V30 7792 H 782.521 4.68154 -2.365 0
M  V30 7793 H 783.995 5.4557 -0.840069 0
M  V30 7794 H 784.472 4.36771 0.461273 0
M  V30 7795 H 785.078 4.08409 -1.1867 0
M  V30 7796 N 783.393 0.737304 1.3929 0
M  V30 7797 C 784.67 0.212464 1.94443 0
M  V30 7798 C 785.05 -1.28621 1.67391 0
M  V30 7799 O 784.398 -2.0529 1.00342 0
M  V30 7800 C 784.608 0.548565 3.44662 0
M  V30 7801 C 785.956 0.499177 4.21656 0
M  V30 7802 O 786.98 0.485892 3.5287 0
M  V30 7803 O 785.839 0.495739 5.44247 0
M  V30 7804 H 782.933 0.0395457 0.826054 0
M  V30 7805 H 785.479 0.816319 1.48776 0
M  V30 7806 H 784.251 1.58426 3.57795 0
M  V30 7807 H 783.874 -0.0841399 3.97511 0
M  V30 7808 N 784.871 -1.49948 0.485112 0
M  V30 7809 C 785.834 -2.27351 -0.290546 0
M  V30 7810 C 786.834 -1.32704 -0.908087 0
M  V30 7811 O 788.024 -1.56007 -0.775085 0
M  V30 7812 C 785.156 -3.10135 -1.41524 0
M  V30 7813 H 786.349 -2.97374 0.388454 0
M  V30 7814 H 783.902 -1.54453 0.239586 0
M  V30 7815 H 784.637 -2.44641 -2.12888 0
M  V30 7816 H 784.422 -3.79705 -0.978074 0
M  V30 7817 H 785.912 -3.68638 -1.96204 0
M  V30 7818 N 786.349 -0.21828 -1.56081 0
M  V30 7819 C 787.312 0.679633 -2.18892 0
M  V30 7820 C 788.312 1.12405 -1.14986 0
M  V30 7821 O 789.502 1.03339 -1.40238 0
M  V30 7822 C 786.634 1.93063 -2.80962 0
M  V30 7823 H 787.827 0.132066 -2.99609 0
M  V30 7824 H 785.38 0.0313374 -1.56269 0
M  V30 7825 H 786.115 2.52015 -2.04106 0
M  V30 7826 H 785.9 1.62046 -3.57048 0
M  V30 7827 H 787.39 2.57043 -3.29118 0
M  V30 7828 N 787.827 1.57504 0.0551401 0
M  V30 7829 C 789.052 1.92682 0.767352 0
M  V30 7830 C 789.477 0.81614 1.69472 0
M  V30 7831 O 788.835 -0.229989 1.79835 0
M  V30 7832 C 788.883 3.26866 1.52286 0
M  V30 7833 O 787.987 3.17274 2.63459 0
M  V30 7834 H 787.328 0.630502 0.208238 0
M  V30 7835 H 789.858 2.04592 0.0184026 0
M  V30 7836 H 789.868 3.61138 1.8985 0
M  V30 7837 H 788.543 4.07276 0.842541 0
M  V30 7838 H 787.12 2.94589 2.2863 0
M  V30 7839 N 789.305 -0.326896 1.54172 0
M  V30 7840 C 790.252 -1.40216 1.83325 0
M  V30 7841 C 791.222 -1.51538 0.680107 0
M  V30 7842 O 792.407 -1.66811 0.926206 0
M  V30 7843 C 789.547 -2.76626 2.0633 0
M  V30 7844 C 788.66 -2.73963 3.34019 0
M  V30 7845 C 787.795 -4.02198 3.47002 0
M  V30 7846 C 786.834 -3.93828 4.68578 0
M  V30 7847 N 785.971 -5.13787 4.78506 0
M  V30 7848 H 790.811 -1.14656 2.7506 0
M  V30 7849 H 788.348 -0.555089 1.36225 0
M  V30 7850 H 790.306 -3.55922 2.17659 0
M  V30 7851 H 788.936 -3.00503 1.1789 0
M  V30 7852 H 787.988 -1.86677 3.31445 0
M  V30 7853 H 789.3 -2.6366 4.2342 0
M  V30 7854 H 788.454 -4.89923 3.57855 0
M  V30 7855 H 787.193 -4.15302 2.55687 0
M  V30 7856 H 786.198 -3.04487 4.57786 0
M  V30 7857 H 787.423 -3.82292 5.61275 0
M  V30 7858 H 785.369 -5.27403 3.90105 0
M  V30 7859 H 785.286 -5.05807 5.61868 0
M  V30 7860 H 786.554 -6.03236 4.93686 0
M  V30 7861 N 790.784 -1.46188 -0.588786 0
M  V30 7862 C 792.012 -1.54743 -1.37339 0
M  V30 7863 C 792.427 -0.186446 -1.87877 0
M  V30 7864 O 791.784 0.815247 -1.63279 0
M  V30 7865 C 791.835 -2.54727 -2.56508 0
M  V30 7866 O 791.556 -3.85539 -2.08066 0
M  V30 7867 C 793.057 -2.73163 -3.49137 0
M  V30 7868 H 790.277 -0.523484 -0.419768 0
M  V30 7869 H 792.821 -1.91543 -0.716345 0
M  V30 7870 H 790.976 -2.20948 -3.18215 0
M  V30 7871 H 791.39 -4.39905 -2.85629 0
M  V30 7872 H 792.864 -3.47057 -4.2925 0
M  V30 7873 H 793.341 -1.79856 -4.00685 0
M  V30 7874 H 793.947 -3.08014 -2.9327 0
M  V30 7875 N 792.262 0.832906 -1.33792 0
M  V30 7876 C 793.511 1.58351 -1.24932 0
M  V30 7877 C 793.824 1.94754 0.181703 0
M  V30 7878 O 795.03 2.6865 0.392375 0
M  V30 7879 C 793.486 2.85643 -2.18943 0
M  V30 7880 C 793.094 2.56581 -3.67247 0
M  V30 7881 C 794.838 3.63667 -2.18968 0
M  V30 7882 C 792.745 3.80006 -4.53155 0
M  V30 7883 H 791.675 0.594278 -0.464058 0
M  V30 7884 H 794.326 0.91786 -1.58895 0
M  V30 7885 H 792.708 3.53781 -1.77919 0
M  V30 7886 H 793.882 1.96617 -4.16747 0
M  V30 7887 H 792.197 1.91851 -3.6957 0
M  V30 7888 H 794.794 4.55293 -2.80379 0
M  V30 7889 H 795.137 3.99039 -1.18631 0
M  V30 7890 H 795.67 3.0246 -2.58384 0
M  V30 7891 H 792.409 3.4976 -5.5439 0
M  V30 7892 H 791.929 4.39288 -4.08395 0
M  V30 7893 H 793.608 4.47523 -4.6726 0
M  V30 7894 N 793.74 1.17359 1.05189 0
M  V30 7895 C 794.965 0.98709 1.82404 0
M  V30 7896 C 795.39 -0.459848 1.82392 0
M  V30 7897 O 794.748 -1.32924 1.23292 0
M  V30 7898 C 794.796 1.53276 3.26403 0
M  V30 7899 O 793.9 0.746541 4.05587 0
M  V30 7900 H 793.241 0.35047 0.563974 0
M  V30 7901 H 795.771 1.55856 1.32552 0
M  V30 7902 H 795.781 1.55504 3.77203 0
M  V30 7903 H 794.456 2.58603 3.25726 0
M  V30 7904 H 793.033 0.795671 3.64312 0
M  V30 7905 N 795.218 -1.23913 0.973828 0
M  V30 7906 C 796.464 -1.92436 0.640026 0
M  V30 7907 C 796.797 -1.75875 -0.823512 0
M  V30 7908 O 796.072 -1.11563 -1.59323 0
M  V30 7909 C 796.355 -3.4526 1.0231 0
M  V30 7910 C 796.208 -3.70961 2.54378 0
M  V30 7911 C 797.527 -4.36495 0.562155 0
M  V30 7912 H 794.646 -0.698868 0.233992 0
M  V30 7913 H 797.288 -1.46163 1.21393 0
M  V30 7914 H 795.438 -3.84802 0.534751 0
M  V30 7915 H 797.11 -3.40941 3.10737 0
M  V30 7916 H 795.353 -3.15899 2.97305 0
M  V30 7917 H 796.024 -4.77912 2.76232 0
M  V30 7918 H 798.5 -4.04363 0.981333 0
M  V30 7919 H 797.376 -5.42142 0.858689 0
M  V30 7920 H 797.637 -4.38818 -0.537659 0
M  V30 7921 N 796.696 -0.74468 -1.38897 0
M  V30 7922 C 797.659 -0.11945 -2.28889 0
M  V30 7923 C 798.659 0.656942 -1.46768 0
M  V30 7924 O 799.849 0.484525 -1.67326 0
M  V30 7925 C 796.981 0.839635 -3.30398 0
M  V30 7926 H 798.174 -0.912414 -2.85683 0
M  V30 7927 H 795.727 -0.511119 -1.47707 0
M  V30 7928 H 796.462 1.6586 -2.78677 0
M  V30 7929 H 796.247 0.285432 -3.9106 0
M  V30 7930 H 797.737 1.27337 -3.97712 0
M  V30 7931 N 798.174 1.49689 -0.493057 0
M  V30 7932 C 799.402 2.06836 0.0513141 0
M  V30 7933 C 799.817 1.35436 1.31539 0
M  V30 7934 O 799.174 0.430248 1.77356 0
M  V30 7935 C 799.225 3.60107 0.317003 0
M  V30 7936 O 798.946 4.2882 -0.896957 0
M  V30 7937 C 800.447 4.33945 0.905902 0
M  V30 7938 H 797.667 0.670787 -0.0169048 0
M  V30 7939 H 800.211 1.92574 -0.688139 0
M  V30 7940 H 798.366 3.74099 1.00642 0
M  V30 7941 H 798.78 5.20395 -0.654939 0
M  V30 7942 H 800.254 5.42087 1.04144 0
M  V30 7943 H 800.731 3.95895 1.90168 0
M  V30 7944 H 801.337 4.2454 0.254195 0
M  V30 7945 N 799.652 0.226554 1.55963 0
M  V30 7946 C 800.582 -0.676079 2.23498 0
M  V30 7947 C 801.563 -1.19718 1.20837 0
M  V30 7948 O 802.748 -1.24027 1.49436 0
M  V30 7949 C 799.878 -1.88217 2.91876 0
M  V30 7950 C 798.832 -1.4947 4.01052 0
M  V30 7951 C 798.158 -2.77997 4.56751 0
M  V30 7952 C 799.458 -0.680951 5.17842 0
M  V30 7953 H 801.152 -0.112989 2.99187 0
M  V30 7954 H 798.698 -0.0529046 1.43903 0
M  V30 7955 H 800.651 -2.51911 3.37815 0
M  V30 7956 H 799.375 -2.47031 2.13643 0
M  V30 7957 H 798.034 -0.881199 3.55852 0
M  V30 7958 H 797.682 -3.34966 3.75243 0
M  V30 7959 H 797.382 -2.52803 5.30438 0
M  V30 7960 H 798.906 -3.42625 5.05411 0
M  V30 7961 H 800.32 -1.22171 5.60131 0
M  V30 7962 H 798.717 -0.525898 5.97791 0
M  V30 7963 H 799.787 0.311346 4.83899 0
M  V30 7964 N 801.13 -1.57531 -0.0467866 0
M  V30 7965 C 802.407 -1.79568 -0.775536 0
M  V30 7966 C 802.787 -0.820322 -1.94509 0
M  V30 7967 O 802.135 0.14134 -2.28062 0
M  V30 7968 C 802.345 -3.26789 -1.22516 0
M  V30 7969 C 803.693 -3.91299 -1.64835 0
M  V30 7970 O 804.717 -3.30831 -1.3202 0
M  V30 7971 O 803.576 -4.97727 -2.25677 0
M  V30 7972 H 800.67 -0.737817 -0.373572 0
M  V30 7973 H 803.216 -1.69682 -0.0249302 0
M  V30 7974 H 801.988 -3.89357 -0.389446 0
M  V30 7975 H 801.611 -3.41496 -2.03633 0
M  V30 7976 N 802.608 0.318715 -1.54344 0
M  V30 7977 C 803.856 1.054 -1.72439 0
M  V30 7978 C 804.177 1.88388 -0.503495 0
M  V30 7979 O 803.447 1.89866 0.48246 0
M  V30 7980 H 802.027 0.392124 -0.635805 0
M  V30 7981 H 804.689 0.35398 -1.91659 0
M  V30 7982 H 803.785 1.71726 -2.60608 0
M  V30 7983 N 804.086 1.46499 0.581025 0
M  V30 7984 C 805.314 1.5547 1.36517 0
M  V30 7985 C 805.729 0.196407 1.87776 0
M  V30 7986 O 805.086 -0.806577 1.63709 0
M  V30 7987 C 805.137 2.56084 2.55154 0
M  V30 7988 O 804.858 3.86637 2.06018 0
M  V30 7989 C 806.359 2.75011 3.47683 0
M  V30 7990 H 803.579 0.525703 0.416986 0
M  V30 7991 H 806.123 1.9192 0.706177 0
M  V30 7992 H 804.278 2.22633 3.17039 0
M  V30 7993 H 804.692 4.41413 2.83292 0
M  V30 7994 H 806.166 3.49329 4.27403 0
M  V30 7995 H 806.643 1.81978 3.99726 0
M  V30 7996 H 807.249 3.09565 2.91632 0
M  V30 7997 N 805.565 -0.825799 1.34232 0
M  V30 7998 C 806.512 -1.93651 1.2557 0
M  V30 7999 C 807.482 -1.65578 0.131536 0
M  V30 8000 O 808.667 -1.88231 0.312027 0
M  V30 8001 C 805.807 -3.29862 1.01415 0
M  V30 8002 C 804.92 -3.70247 2.22579 0
M  V30 8003 C 804.055 -4.95392 1.91731 0
M  V30 8004 C 803.094 -5.28349 3.09053 0
M  V30 8005 N 802.231 -6.44671 2.78107 0
M  V30 8006 H 807.071 -2.00392 2.20561 0
M  V30 8007 H 804.608 -0.980441 1.09662 0
M  V30 8008 H 806.566 -4.08356 0.854485 0
M  V30 8009 H 805.196 -3.22642 0.100936 0
M  V30 8010 H 804.248 -2.87169 2.49476 0
M  V30 8011 H 805.56 -3.90575 3.10246 0
M  V30 8012 H 804.714 -5.81665 1.72484 0
M  V30 8013 H 803.453 -4.77059 1.0132 0
M  V30 8014 H 802.458 -4.40574 3.289 0
M  V30 8015 H 803.683 -5.48622 4.00239 0
M  V30 8016 H 801.629 -6.278 1.9027 0
M  V30 8017 H 801.546 -6.65158 3.59306 0
M  V30 8018 H 802.814 -7.34022 2.62358 0
M  V30 8019 N 807.043 -1.17915 -1.04565 0
M  V30 8020 C 808.459 -0.927761 -1.29864 0
M  V30 8021 C 808.659 0.409536 -1.97294 0
M  V30 8022 O 807.715 1.14505 -2.25044 0
M  V30 8023 C 809.028 -2.08967 -2.16225 0
M  V30 8024 C 810.576 -2.12741 -2.29587 0
M  V30 8025 C 811.051 -3.28335 -3.19312 0
M  V30 8026 N 812.542 -3.28164 -3.26898 0
M  V30 8027 C 813.277 -4.14249 -3.96466 0
M  V30 8028 N 812.773 -5.10457 -4.68407 0
M  V30 8029 N 814.566 -4.02179 -3.92694 0
M  V30 8030 H 806.717 -2.03983 -0.592011 0
M  V30 8031 H 808.98 -0.891023 -0.323701 0
M  V30 8032 H 808.686 -3.05654 -1.73979 0
M  V30 8033 H 808.56 -2.04606 -3.16885 0
M  V30 8034 H 810.947 -1.16636 -2.71072 0
M  V30 8035 H 811.028 -2.21162 -1.28535 0
M  V30 8036 H 810.672 -4.2471 -2.78539 0
M  V30 8037 H 810.602 -3.17151 -4.20384 0
M  V30 8038 H 813.093 -2.58511 -2.75646 0
M  V30 8039 H 813.406 -5.72526 -5.1907 0
M  V30 8040 H 811.751 -5.14422 -4.67328 0
M  V30 8041 H 814.942 -3.26308 -3.3562 0
M  V30 8042 H 815.115 -4.69486 -4.4664 0
M  V30 8043 N 808.521 1.23394 -0.980386 0
M  V30 8044 C 809.468 2.24859 -0.520298 0
M  V30 8045 C 810.438 1.60144 0.440821 0
M  V30 8046 O 811.623 1.87593 0.348369 0
M  V30 8047 C 808.763 3.44675 0.171145 0
M  V30 8048 C 807.876 4.23947 -0.830233 0
M  V30 8049 C 807.011 5.31079 -0.113597 0
M  V30 8050 C 806.05 6.02058 -1.10419 0
M  V30 8051 N 805.187 7.00862 -0.416709 0
M  V30 8052 H 810.027 2.63579 -1.39032 0
M  V30 8053 H 807.564 1.29556 -0.696682 0
M  V30 8054 H 809.522 4.13024 0.588838 0
M  V30 8055 H 808.152 3.06755 1.00504 0
M  V30 8056 H 807.204 3.55016 -1.36631 0
M  V30 8057 H 808.516 4.72945 -1.58508 0
M  V30 8058 H 807.67 6.05622 0.36146 0
M  V30 8059 H 806.409 4.83022 0.673854 0
M  V30 8060 H 805.414 5.26307 -1.59 0
M  V30 8061 H 806.639 6.52203 -1.8923 0
M  V30 8062 H 804.585 6.55057 0.351535 0
M  V30 8063 H 804.502 7.47804 -1.11021 0
M  V30 8064 H 805.77 7.79492 0.0359606 0
M  V30 8065 N 809.999 0.752036 1.385 0
M  V30 8066 C 811.246 0.307503 2.00152 0
M  V30 8067 C 811.574 -1.11033 1.59693 0
M  V30 8068 O 810.829 -1.77455 0.825125 0
M  V30 8069 C 811.128 0.376155 3.55415 0
M  V30 8070 C 810.794 1.74942 4.15579 0
M  V30 8071 C 809.456 2.12525 4.31725 0
M  V30 8072 C 811.808 2.65031 4.48785 0
M  V30 8073 C 809.136 3.39671 4.78373 0
M  V30 8074 C 811.488 3.91567 4.96848 0
M  V30 8075 C 810.152 4.2922 5.11201 0
M  V30 8076 H 809.422 0.112523 0.732407 0
M  V30 8077 H 812.069 0.962213 1.65571 0
M  V30 8078 H 810.374 -0.362121 3.90123 0
M  V30 8079 H 812.071 0.0138065 4.00998 0
M  V30 8080 H 808.661 1.44726 4.03426 0
M  V30 8081 H 812.845 2.3726 4.35914 0
M  V30 8082 H 808.101 3.68765 4.8767 0
M  V30 8083 H 812.275 4.61517 5.21512 0
M  V30 8084 H 809.902 5.27805 5.47107 0
M  V30 8085 N 811.477 -1.49425 0.500989 0
M  V30 8086 C 812.407 -2.31971 -0.266775 0
M  V30 8087 C 813.388 -1.40245 -0.962563 0
M  V30 8088 O 814.573 -1.69154 -0.953968 0
M  V30 8089 C 811.703 -3.20757 -1.33163 0
M  V30 8090 C 810.657 -4.21275 -0.75572 0
M  V30 8091 C 809.983 -4.98997 -1.92109 0
M  V30 8092 C 811.283 -5.21686 0.253213 0
M  V30 8093 H 812.977 -2.96408 0.422237 0
M  V30 8094 H 810.523 -1.4254 0.204505 0
M  V30 8095 H 812.476 -3.77315 -1.87646 0
M  V30 8096 H 811.2 -2.54263 -2.04983 0
M  V30 8097 H 809.859 -3.65861 -0.232637 0
M  V30 8098 H 809.507 -4.28951 -2.62698 0
M  V30 8099 H 809.207 -5.67011 -1.54182 0
M  V30 8100 H 810.731 -5.584 -2.47026 0
M  V30 8101 H 812.145 -5.72939 -0.203483 0
M  V30 8102 H 810.542 -5.9759 0.548322 0
M  V30 8103 H 811.612 -4.70596 1.16909 0
M  V30 8104 N 812.955 -0.234822 -1.55841 0
M  V30 8105 C 814.202 0.39326 -1.98645 0
M  V30 8106 C 814.53 1.58823 -1.12274 0
M  V30 8107 O 813.785 1.94954 -0.170731 0
M  V30 8108 C 814.084 0.858032 -3.46947 0
M  V30 8109 C 813.75 -0.227858 -4.50324 0
M  V30 8110 C 812.412 -0.526128 -4.78315 0
M  V30 8111 C 814.764 -0.961576 -5.12253 0
M  V30 8112 C 812.092 -1.5624 -5.65514 0
M  V30 8113 C 814.444 -1.98728 -6.00575 0
M  V30 8114 C 813.108 -2.29233 -6.26904 0
M  V30 8115 H 812.378 0.143904 -0.726892 0
M  V30 8116 H 815.025 -0.34012 -1.88455 0
M  V30 8117 H 813.33 1.67041 -3.54408 0
M  V30 8118 H 815.027 1.35407 -3.77447 0
M  V30 8119 H 811.617 0.0147624 -4.28597 0
M  V30 8120 H 815.801 -0.744388 -4.90686 0
M  V30 8121 H 811.057 -1.80422 -5.84173 0
M  V30 8122 H 815.231 -2.5608 -6.47608 0
M  V30 8123 H 812.858 -3.09671 -6.94268 0
M  V30 8124 N 814.433 1.57553 0.0384317 0
M  V30 8125 C 815.381 2.07021 1.06043 0
M  V30 8126 C 816.375 0.982078 1.38028 0
M  V30 8127 O 817.581 1.16702 1.37042 0
M  V30 8128 H 813.956 0.660522 0.359464 0
M  V30 8129 H 815.927 2.91944 0.617339 0
M  V30 8130 C 814.676 2.55734 2.35574 0
M  V30 8131 H 813.999 3.39074 2.11822 0
M  V30 8132 H 815.439 2.94066 3.05452 0
M  V30 8133 C 813.898 1.45449 3.03885 0
M  V30 8134 O 814.428 0.815402 3.93337 0
M  V30 8135 N 812.634 1.19134 2.65058 0
M  V30 8136 H 812.181 1.71288 1.92401 0
M  V30 8137 H 812.139 0.455554 3.11082 0
M  V30 8138 N 815.911 -0.310526 1.54511 0
M  V30 8139 C 817.136 -1.07046 1.7764 0
M  V30 8140 C 817.561 -1.80488 0.529696 0
M  V30 8141 O 816.919 -1.73702 -0.519361 0
M  V30 8142 C 816.967 -2.03411 2.97752 0
M  V30 8143 O 816.071 -3.11545 2.7021 0
M  V30 8144 H 815.412 -0.307994 0.588248 0
M  V30 8145 H 817.942 -0.350848 2.01569 0
M  V30 8146 H 817.952 -2.46048 3.2546 0
M  V30 8147 H 816.627 -1.49361 3.88155 0
M  V30 8148 H 815.204 -2.7349 2.53491 0
M  V30 8149 N 817.389 -1.46805 -0.573248 0
M  V30 8150 C 818.666 -1.43082 -1.33368 0
M  V30 8151 C 819.046 -0.119252 -2.10763 0
M  V30 8152 O 818.394 0.899239 -2.10062 0
M  V30 8153 C 818.604 -2.66643 -2.25172 0
M  V30 8154 C 819.952 -3.13188 -2.86702 0
M  V30 8155 O 820.976 -2.67258 -2.35482 0
M  V30 8156 O 819.835 -3.92994 -3.79761 0
M  V30 8157 H 816.929 -0.569451 -0.599712 0
M  V30 8158 H 819.475 -1.58984 -0.59348 0
M  V30 8159 H 818.247 -3.53649 -1.67475 0
M  V30 8160 H 817.87 -2.53247 -3.06516 0
M  V30 8161 N 818.867 0.818669 -1.34668 0
M  V30 8162 C 819.797 1.94468 -1.29245 0
M  V30 8163 C 820.778 1.69257 -0.169101 0
M  V30 8164 O 821.963 1.90794 -0.362143 0
M  V30 8165 C 819.093 3.31001 -1.05145 0
M  V30 8166 C 818.047 3.70663 -2.13992 0
M  V30 8167 C 817.373 5.05226 -1.75074 0
M  V30 8168 C 818.673 3.82312 -3.55858 0
M  V30 8169 H 820.367 1.99263 -2.2346 0
M  V30 8170 H 817.913 0.957304 -1.07572 0
M  V30 8171 H 819.866 4.09364 -0.999949 0
M  V30 8172 H 818.59 3.26517 -0.0737312 0
M  V30 8173 H 817.249 2.94578 -2.18219 0
M  V30 8174 H 816.897 4.97233 -0.759518 0
M  V30 8175 H 816.597 5.32734 -2.47928 0
M  V30 8176 H 818.121 5.86042 -1.71427 0
M  V30 8177 H 819.535 4.50935 -3.5402 0
M  V30 8178 H 817.932 4.21278 -4.2737 0
M  V30 8179 H 819.002 2.84193 -3.9289 0
M  V30 8180 N 820.346 1.18468 1.03938 0
M  V30 8181 C 821.762 0.934635 1.29371 0
M  V30 8182 C 821.962 -0.399067 1.97509 0
M  V30 8183 O 821.018 -1.13309 2.25648 0
M  V30 8184 C 822.331 2.10111 2.15114 0
M  V30 8185 C 823.879 2.13955 2.28456 0
M  V30 8186 C 824.354 3.30024 3.17566 0
M  V30 8187 N 825.845 3.29893 3.25153 0
M  V30 8188 C 826.58 4.16346 3.94263 0
M  V30 8189 N 826.076 5.12934 4.65693 0
M  V30 8190 N 827.869 4.04256 3.90556 0
M  V30 8191 H 820.02 2.04294 0.581185 0
M  V30 8192 H 822.283 0.892727 0.318971 0
M  V30 8193 H 821.989 3.06572 1.72355 0
M  V30 8194 H 821.863 2.06283 3.15796 0
M  V30 8195 H 824.25 1.18072 2.7045 0
M  V30 8196 H 824.331 2.2184 1.2736 0
M  V30 8197 H 823.975 4.26181 2.76283 0
M  V30 8198 H 823.905 3.19376 4.18697 0
M  V30 8199 H 826.396 2.59969 2.74271 0
M  V30 8200 H 826.709 5.75271 5.16026 0
M  V30 8201 H 825.054 5.16893 4.64593 0
M  V30 8202 H 828.245 3.28083 3.33885 0
M  V30 8203 H 828.418 4.71848 4.44144 0
M  V30 8204 N 821.824 -1.22873 0.986916 0
M  V30 8205 C 822.734 -2.28277 0.540978 0
M  V30 8206 C 823.75 -1.69164 -0.407363 0
M  V30 8207 O 824.926 -1.99504 -0.275674 0
M  V30 8208 C 821.991 -3.46404 -0.143181 0
M  V30 8209 C 821.052 -4.20854 0.847375 0
M  V30 8210 C 820.285 -5.33341 0.19577 0
M  V30 8211 O 820.508 -5.61356 -1.0117 0
M  V30 8212 O 819.442 -5.95169 0.897623 0
M  V30 8213 H 823.268 -2.68578 1.41773 0
M  V30 8214 H 820.853 -1.28927 0.754867 0
M  V30 8215 H 822.735 -4.18096 -0.526676 0
M  V30 8216 H 821.41 -3.08041 -0.994593 0
M  V30 8217 H 820.317 -3.51459 1.28169 0
M  V30 8218 H 821.65 -4.63082 1.6678 0
M  V30 8219 N 823.302 -0.75937 -1.38099 0
M  V30 8220 C 824.713 -0.385078 -1.82686 0
M  V30 8221 C 825.064 1.0871 -1.6333 0
M  V30 8222 O 824.189 1.84084 -1.13762 0
M  V30 8223 C 824.784 -0.692161 -3.31654 0
M  V30 8224 C 823.343 -0.371077 -3.74566 0
M  V30 8225 C 822.49 -0.942375 -2.60796 0
M  V30 8226 H 825.441 -0.955048 -1.26746 0
M  V30 8227 H 825.462 0.0276001 -3.8049 0
M  V30 8228 H 824.974 -1.76369 -3.4571 0
M  V30 8229 H 823.075 0.693637 -3.66087 0
M  V30 8230 H 823.188 -0.870672 -4.71122 0
M  V30 8231 H 821.552 -0.367383 -2.52036 0
M  V30 8232 H 822.335 -2.01905 -2.77649 0
M  V30 8233 N 824.78 1.49157 -0.508906 0
M  V30 8234 C 825.743 2.27784 0.25434 0
M  V30 8235 C 826.743 1.34132 0.88686 0
M  V30 8236 O 827.933 1.5722 0.750168 0
M  V30 8237 C 825.065 3.12347 1.36573 0
M  V30 8238 H 826.258 2.96718 -0.435714 0
M  V30 8239 H 823.811 1.54052 -0.264128 0
M  V30 8240 H 824.546 2.47997 2.08969 0
M  V30 8241 H 824.331 3.81213 0.917543 0
M  V30 8242 H 825.821 3.71712 1.90315 0
M  V30 8243 N 826.258 0.243083 1.55714 0
M  V30 8244 C 827.483 -0.389944 2.03701 0
M  V30 8245 C 827.908 -1.51025 1.12129 0
M  V30 8246 O 827.266 -1.80944 0.11352 0
M  V30 8247 C 827.314 -0.878649 3.49731 0
M  V30 8248 O 826.418 -1.98851 3.61292 0
M  V30 8249 H 825.759 -0.0855115 0.658471 0
M  V30 8250 H 828.289 0.368023 2.01263 0
M  V30 8251 H 828.299 -1.18287 3.90477 0
M  V30 8252 H 826.974 -0.0588107 4.15858 0
M  V30 8253 H 825.551 -1.68928 3.32442 0
M  V30 8254 N 827.736 -1.57571 -0.0300757 0
M  V30 8255 C 828.985 -1.88407 -0.720126 0
M  V30 8256 C 829.298 -0.841466 -1.76575 0
M  V30 8257 O 830.504 -1.03902 -2.50832 0
M  V30 8258 C 828.96 -3.34348 -1.33188 0
M  V30 8259 C 828.568 -4.46837 -0.32266 0
M  V30 8260 C 830.312 -3.74333 -2.00187 0
M  V30 8261 C 828.219 -5.83838 -0.942703 0
M  V30 8262 H 827.149 -0.702952 -0.272718 0
M  V30 8263 H 829.8 -1.83482 0.0255337 0
M  V30 8264 H 828.182 -3.34014 -2.12721 0
M  V30 8265 H 829.356 -4.58638 0.445887 0
M  V30 8266 H 827.671 -4.15678 0.245181 0
M  V30 8267 H 830.268 -4.74008 -2.47428 0
M  V30 8268 H 830.611 -3.06275 -2.81959 0
M  V30 8269 H 831.144 -3.76837 -1.2743 0
M  V30 8270 H 827.883 -6.55294 -0.164413 0
M  V30 8271 H 827.403 -5.75759 -1.68111 0
M  V30 8272 H 829.082 -6.30535 -1.45034 0
M  V30 8273 N 829.214 0.302327 -1.54673 0
M  V30 8274 C 830.177 1.35592 -1.8479 0
M  V30 8275 C 831.177 1.43743 -0.72073 0
M  V30 8276 O 832.367 1.43402 -0.989017 0
M  V30 8277 C 829.499 2.74091 -2.02699 0
M  V30 8278 H 830.692 1.10132 -2.78946 0
M  V30 8279 H 828.245 0.538926 -1.46715 0
M  V30 8280 H 828.98 3.04775 -1.10826 0
M  V30 8281 H 828.765 2.69565 -2.8474 0
M  V30 8282 H 830.255 3.50272 -2.27374 0
M  V30 8283 N 830.692 1.47107 0.565454 0
M  V30 8284 C 831.938 1.53535 1.32495 0
M  V30 8285 C 832.271 0.193537 1.93233 0
M  V30 8286 O 831.546 -0.796956 1.77423 0
M  V30 8287 C 831.829 2.64712 2.4413 0
M  V30 8288 C 831.682 4.08482 1.88314 0
M  V30 8289 C 833.001 2.71853 3.46098 0
M  V30 8290 H 830.12 0.558926 0.480386 0
M  V30 8291 H 832.762 1.79125 0.633575 0
M  V30 8292 H 830.912 2.43023 3.03104 0
M  V30 8293 H 832.584 4.4151 1.33665 0
M  V30 8294 H 830.827 4.17148 1.19037 0
M  V30 8295 H 831.498 4.82032 2.68978 0
M  V30 8296 H 833.974 2.91397 2.97031 0
M  V30 8297 H 832.85 3.51433 4.21646 0
M  V30 8298 H 833.111 1.78584 4.04426 0
M  V30 8299 N 832.17 -0.811516 1.35101 0
M  V30 8300 C 833.447 -1.55491 1.18667 0
M  V30 8301 C 833.827 -2.09775 -0.236189 0
M  V30 8302 O 833.175 -1.91989 -1.23905 0
M  V30 8303 C 833.385 -2.66732 2.25067 0
M  V30 8304 C 834.733 -3.35201 2.60625 0
M  V30 8305 O 835.757 -2.76998 2.23943 0
M  V30 8306 O 834.616 -4.40334 3.23679 0
M  V30 8307 H 831.71 -0.686783 0.460716 0
M  V30 8308 H 834.256 -0.851903 1.46768 0
M  V30 8309 H 833.028 -2.24457 3.20523 0
M  V30 8310 H 832.651 -3.44673 1.98208 0
M  V30 8311 N 833.648 -1.19017 -1.03309 0
M  V30 8312 C 835.059 -0.993206 -1.5809 0
M  V30 8313 C 835.41 0.45505 -1.9085 0
M  V30 8314 O 834.535 1.33372 -1.70414 0
M  V30 8315 C 835.13 -1.79661 -2.87241 0
M  V30 8316 C 833.689 -1.64377 -3.38611 0
M  V30 8317 C 832.836 -1.78628 -2.12102 0
M  V30 8318 H 835.787 -1.3345 -0.858879 0
M  V30 8319 H 835.808 -1.29019 -3.57958 0
M  V30 8320 H 835.32 -2.85061 -2.63366 0
M  V30 8321 H 833.421 -0.615447 -3.67482 0
M  V30 8322 H 833.534 -2.44651 -4.11926 0
M  V30 8323 H 831.898 -1.21648 -2.23772 0
M  V30 8324 H 832.681 -2.8548 -1.90673 0
M  V30 8325 N 835.127 1.22348 -0.993418 0
M  V30 8326 C 836.057 2.26584 -0.564088 0
M  V30 8327 C 837.038 1.65102 0.409298 0
M  V30 8328 O 838.223 1.91872 0.299819 0
M  V30 8329 C 835.353 3.47087 0.121554 0
M  V30 8330 C 834.307 4.21009 -0.770429 0
M  V30 8331 C 833.633 5.34678 0.0481586 0
M  V30 8332 C 834.933 4.79636 -2.06752 0
M  V30 8333 H 836.627 2.62749 -1.43538 0
M  V30 8334 H 834.173 1.26303 -0.691628 0
M  V30 8335 H 836.126 4.19166 0.433303 0
M  V30 8336 H 834.85 3.1002 1.0274 0
M  V30 8337 H 833.509 3.50764 -1.06583 0
M  V30 8338 H 833.157 4.93852 0.954933 0
M  V30 8339 H 832.857 5.85061 -0.545641 0
M  V30 8340 H 834.381 6.09573 0.353991 0
M  V30 8341 H 835.795 5.43654 -1.81969 0
M  V30 8342 H 834.192 5.4036 -2.61019 0
M  V30 8343 H 835.262 3.99659 -2.74592 0
M  V30 8344 N 836.605 0.766683 1.37694 0
M  V30 8345 C 837.83 0.338715 2.04615 0
M  V30 8346 C 838.255 -1.02918 1.57447 0
M  V30 8347 O 837.613 -1.65849 0.732386 0
M  V30 8348 C 837.661 0.385284 3.58536 0
M  V30 8349 O 836.765 -0.616081 4.07772 0
M  V30 8350 H 836.106 0.147527 0.647404 0
M  V30 8351 H 838.636 1.04146 1.7611 0
M  V30 8352 H 838.646 0.240782 4.07289 0
M  V30 8353 H 837.321 1.38325 3.92223 0
M  V30 8354 H 835.898 -0.435115 3.70353 0
M  V30 8355 N 838.083 -1.48885 0.516809 0
M  V30 8356 C 839.331 -2.02088 -0.0220166 0
M  V30 8357 C 839.652 -1.39735 -1.36011 0
M  V30 8358 O 838.922 -0.558119 -1.87781 0
M  V30 8359 H 837.502 -0.746917 -0.0111255 0
M  V30 8360 H 840.164 -1.8274 0.677647 0
M  V30 8361 H 839.26 -3.11786 -0.140067 0
M  V30 8362 N 839.561 -0.251338 -1.55583 0
M  V30 8363 C 840.808 0.372169 -1.99051 0
M  V30 8364 C 841.136 1.57623 -1.13953 0
M  V30 8365 O 840.391 1.94762 -0.191398 0
M  V30 8366 C 840.69 0.821186 -3.47838 0
M  V30 8367 C 840.356 -0.275608 -4.50057 0
M  V30 8368 C 839.018 -0.57683 -4.7773 0
M  V30 8369 C 841.37 -1.01585 -5.11204 0
M  V30 8370 C 838.698 -1.62229 -5.63825 0
M  V30 8371 C 841.05 -2.05087 -5.98433 0
M  V30 8372 C 839.714 -2.35869 -6.24437 0
M  V30 8373 H 838.984 0.136186 -0.728378 0
M  V30 8374 H 841.631 -0.360089 -1.88084 0
M  V30 8375 H 839.936 1.63272 -3.56159 0
M  V30 8376 H 841.633 1.31396 -3.78861 0
M  V30 8377 H 838.223 -0.030697 -4.28589 0
M  V30 8378 H 842.407 -0.79639 -4.89869 0
M  V30 8379 H 837.663 -1.86607 -5.82226 0
M  V30 8380 H 841.837 -2.62934 -6.44855 0
M  V30 8381 H 839.464 -3.17017 -6.90944 0
M  V30 8382 N 841.039 1.57585 0.0217189 0
M  V30 8383 C 842.285 1.89887 0.712099 0
M  V30 8384 C 842.618 0.849971 1.74611 0
M  V30 8385 O 841.893 -0.13407 1.94037 0
M  V30 8386 C 842.176 3.32815 1.37499 0
M  V30 8387 C 842.029 4.48405 0.353993 0
M  V30 8388 C 843.348 3.74786 2.30703 0
M  V30 8389 H 840.467 0.690588 0.257405 0
M  V30 8390 H 843.109 1.89983 -0.0251145 0
M  V30 8391 H 841.259 3.32863 2.00335 0
M  V30 8392 H 842.931 4.60491 -0.273015 0
M  V30 8393 H 841.174 4.32573 -0.32599 0
M  V30 8394 H 841.845 5.45316 0.85644 0
M  V30 8395 H 844.321 3.76151 1.77904 0
M  V30 8396 H 843.197 4.75585 2.74061 0
M  V30 8397 H 843.458 3.07449 3.17691 0
M  V30 8398 N 842.517 -0.29412 1.54831 0
M  V30 8399 C 843.747 -1.04572 1.7818 0
M  V30 8400 C 844.155 -1.81187 0.544776 0
M  V30 8401 O 843.498 -1.769 -0.495169 0
M  V30 8402 C 843.56 -2.06748 2.94101 0
M  V30 8403 C 843.224 -1.49265 4.31936 0
M  V30 8404 C 844.221 -0.919136 5.11711 0
M  V30 8405 C 841.906 -1.52621 4.78552 0
M  V30 8406 C 843.9 -0.386824 6.36225 0
M  V30 8407 C 841.587 -0.990031 6.03027 0
M  V30 8408 C 842.585 -0.421315 6.81699 0
M  V30 8409 O 842.273 0.106713 8.03829 0
M  V30 8410 H 842.005 -0.31559 0.597812 0
M  V30 8411 H 844.559 -0.336817 2.0262 0
M  V30 8412 H 842.789 -2.81339 2.65303 0
M  V30 8413 H 844.478 -2.67865 3.04964 0
M  V30 8414 H 845.244 -0.886062 4.76837 0
M  V30 8415 H 841.123 -1.95826 4.17341 0
M  V30 8416 H 844.667 0.0577248 6.97576 0
M  V30 8417 H 840.564 -1.02027 6.37386 0
M  V30 8418 H 841.332 -0.00593526 8.185 0
M  V30 8419 N 843.995 -1.47404 -0.557645 0
M  V30 8420 C 845.241 -1.55219 -1.31449 0
M  V30 8421 C 845.596 -0.211457 -1.91234 0
M  V30 8422 O 844.889 0.782795 -1.7488 0
M  V30 8423 C 845.083 -2.6061 -2.44575 0
M  V30 8424 C 844.912 -4.048 -1.95875 0
M  V30 8425 C 843.682 -4.72252 -1.79738 0
M  V30 8426 C 845.88 -4.91833 -1.50348 0
M  V30 8427 N 843.862 -6.00962 -1.25372 0
M  V30 8428 C 845.233 -6.10566 -1.07745 0
M  V30 8429 C 847.288 -4.78279 -1.38396 0
M  V30 8430 C 845.991 -7.17242 -0.543767 0
M  V30 8431 C 848.017 -5.8505 -0.864293 0
M  V30 8432 C 847.379 -7.02973 -0.44818 0
M  V30 8433 H 843.478 -0.622694 -0.47305 0
M  V30 8434 H 846.062 -1.84152 -0.632144 0
M  V30 8435 H 844.233 -2.33545 -3.10341 0
M  V30 8436 H 845.965 -2.5827 -3.11574 0
M  V30 8437 H 842.72 -4.28153 -2.0244 0
M  V30 8438 H 843.144 -6.69532 -1.00278 0
M  V30 8439 H 847.786 -3.87477 -1.69179 0
M  V30 8440 H 845.504 -8.07791 -0.223563 0
M  V30 8441 H 849.09 -5.7661 -0.775371 0
M  V30 8442 H 847.97 -7.84183 -0.0522964 0
M  V30 8443 N 845.473 0.80434 -1.35529 0
M  V30 8444 C 846.698 1.598 -1.32207 0
M  V30 8445 C 847.123 1.87848 0.0974226 0
M  V30 8446 O 846.481 1.46728 1.06492 0
M  V30 8447 C 846.529 2.90483 -2.13663 0
M  V30 8448 O 845.633 3.83411 -1.51888 0
M  V30 8449 H 844.974 0.485305 -0.453183 0
M  V30 8450 H 847.504 0.998119 -1.78602 0
M  V30 8451 H 847.514 3.39888 -2.257 0
M  V30 8452 H 846.189 2.69395 -3.16859 0
M  V30 8453 H 844.766 3.41967 -1.48704 0
M  V30 8454 N 846.951 1.19563 1.02676 0
M  V30 8455 C 848.228 0.908857 1.73203 0
M  V30 8456 C 848.608 -0.584928 2.02834 0
M  V30 8457 O 847.956 -1.54372 1.68469 0
M  V30 8458 C 848.166 1.77105 3.00724 0
M  V30 8459 C 849.514 2.00667 3.7419 0
M  V30 8460 O 850.538 1.74274 3.10656 0
M  V30 8461 O 849.397 2.4518 4.88415 0
M  V30 8462 H 846.491 0.338909 0.754367 0
M  V30 8463 H 849.037 1.30387 1.08616 0
M  V30 8464 H 847.809 2.78303 2.7507 0
M  V30 8465 H 847.432 1.37546 3.73051 0
M  V30 8466 N 848.429 -1.21819 0.999893 0
M  V30 8467 C 849.675 -1.91325 0.690373 0
M  V30 8468 C 850.03 -1.76323 -0.769929 0
M  V30 8469 O 849.323 -1.12585 -1.55033 0
M  V30 8470 C 849.517 -3.4193 1.04012 0
M  V30 8471 C 849.346 -3.71585 2.53287 0
M  V30 8472 C 848.116 -3.91219 3.19806 0
M  V30 8473 C 850.314 -3.75502 3.5143 0
M  V30 8474 N 848.296 -4.08246 4.58485 0
M  V30 8475 C 849.667 -3.97753 4.75597 0
M  V30 8476 C 851.722 -3.58383 3.45638 0
M  V30 8477 C 850.425 -4.04662 5.94677 0
M  V30 8478 C 852.451 -3.66555 4.64103 0
M  V30 8479 C 851.813 -3.89263 5.87072 0
M  V30 8480 H 847.912 -0.720484 0.304018 0
M  V30 8481 H 850.496 -1.46595 1.28133 0
M  V30 8482 H 848.667 -3.85452 0.477671 0
M  V30 8483 H 850.399 -3.98846 0.685864 0
M  V30 8484 H 847.154 -3.88917 2.7026 0
M  V30 8485 H 847.578 -4.20673 5.30437 0
M  V30 8486 H 852.22 -3.39807 2.51576 0
M  V30 8487 H 849.938 -4.22039 6.89136 0
M  V30 8488 H 853.524 -3.54639 4.61218 0
M  V30 8489 H 852.404 -3.95424 6.77207 0
M  V30 8490 N 849.908 -0.773975 -1.37286 0
M  V30 8491 C 851.156 -0.338636 -1.99243 0
M  V30 8492 C 851.477 1.08919 -1.61746 0
M  V30 8493 O 850.747 1.74822 -0.88397 0
M  V30 8494 H 849.327 -0.12222 -0.736934 0
M  V30 8495 H 851.989 -0.992595 -1.67731 0
M  V30 8496 H 851.085 -0.418055 -3.09287 0
M  V30 8497 N 851.386 1.48609 -0.524698 0
M  V30 8498 C 852.296 2.33318 0.244923 0
M  V30 8499 C 853.312 1.46153 0.944214 0
M  V30 8500 O 854.488 1.79141 0.920347 0
M  V30 8501 C 851.553 3.22149 1.28144 0
M  V30 8502 C 850.614 4.25184 0.593068 0
M  V30 8503 C 849.847 5.0977 1.5802 0
M  V30 8504 O 850.07 4.96249 2.81235 0
M  V30 8505 O 849.004 5.9134 1.1225 0
M  V30 8506 H 852.83 3.00362 -0.449066 0
M  V30 8507 H 850.415 1.46643 -0.285689 0
M  V30 8508 H 852.297 3.77111 1.88057 0
M  V30 8509 H 850.972 2.57772 1.95793 0
M  V30 8510 H 849.879 3.74071 -0.0464214 0
M  V30 8511 H 851.212 4.92183 -0.0413893 0
M  V30 8512 N 852.864 0.259585 1.55447 0
M  V30 8513 C 854.275 -0.241165 1.85136 0
M  V30 8514 C 854.626 -1.56634 1.18153 0
M  V30 8515 O 853.751 -2.11359 0.464351 0
M  V30 8516 C 854.346 -0.444355 3.35873 0
M  V30 8517 C 852.905 -0.889354 3.65742 0
M  V30 8518 C 852.052 0.0262474 2.77288 0
M  V30 8519 H 855.003 0.481808 1.51209 0
M  V30 8520 H 855.024 -1.28517 3.58139 0
M  V30 8521 H 854.536 0.520289 3.84597 0
M  V30 8522 H 852.637 -1.86602 3.22507 0
M  V30 8523 H 852.75 -0.737432 4.73391 0
M  V30 8524 H 851.114 -0.487361 2.49994 0
M  V30 8525 H 851.897 0.986494 3.28821 0
M  V30 8526 N 854.342 -1.57594 -0.0133615 0
M  V30 8527 C 855.305 -2.06534 -0.993799 0
M  V30 8528 C 856.305 -0.972267 -1.28077 0
M  V30 8529 O 857.495 -1.23537 -1.22818 0
M  V30 8530 C 854.627 -2.49554 -2.3224 0
M  V30 8531 H 855.82 -2.94419 -0.570741 0
M  V30 8532 H 853.373 -1.54113 -0.260546 0
M  V30 8533 H 854.108 -1.64872 -2.79263 0
M  V30 8534 H 853.893 -3.29371 -2.12737 0
M  V30 8535 H 855.383 -2.8779 -3.026 0
M  V30 8536 N 855.82 0.285905 -1.54985 0
M  V30 8537 C 856.767 1.35306 -1.86978 0
M  V30 8538 C 857.737 1.49682 -0.720046 0
M  V30 8539 O 858.922 1.64297 -0.970107 0
M  V30 8540 C 856.062 2.71059 -2.13591 0
M  V30 8541 C 855.175 2.6501 -3.41165 0
M  V30 8542 C 854.31 3.92856 -3.57544 0
M  V30 8543 C 853.349 3.81266 -4.78855 0
M  V30 8544 N 852.486 5.00919 -4.9196 0
M  V30 8545 H 857.326 1.07323 -2.78003 0
M  V30 8546 H 854.863 0.518776 -1.37649 0
M  V30 8547 H 856.821 3.50026 -2.27019 0
M  V30 8548 H 855.451 2.97271 -1.25816 0
M  V30 8549 H 854.503 1.77824 -3.36278 0
M  V30 8550 H 855.815 2.52342 -4.30262 0
M  V30 8551 H 854.969 4.80263 -3.70718 0
M  V30 8552 H 853.708 4.08377 -2.66608 0
M  V30 8553 H 852.713 2.92243 -4.65698 0
M  V30 8554 H 853.938 3.67277 -5.71213 0
M  V30 8555 H 851.884 5.16875 -4.03951 0
M  V30 8556 H 851.801 4.90732 -5.75081 0
M  V30 8557 H 853.069 5.89935 -5.09507 0
M  V30 8558 N 857.298 1.47698 0.54982 0
M  V30 8559 C 858.547 1.53961 1.30303 0
M  V30 8560 C 858.86 0.209731 1.94472 0
M  V30 8561 O 860.066 0.150418 2.71083 0
M  V30 8562 C 858.522 2.71436 2.36328 0
M  V30 8563 C 858.13 4.10983 1.78316 0
M  V30 8564 C 859.874 2.86996 3.12783 0
M  V30 8565 C 857.781 5.19747 2.82164 0
M  V30 8566 H 856.711 0.573098 0.489975 0
M  V30 8567 H 859.362 1.73989 0.583089 0
M  V30 8568 H 857.744 2.44801 3.11269 0
M  V30 8569 H 858.918 4.47552 1.09697 0
M  V30 8570 H 857.233 4.00371 1.1442 0
M  V30 8571 H 859.83 3.65422 3.90347 0
M  V30 8572 H 860.173 1.95712 3.67427 0
M  V30 8573 H 860.706 3.13436 2.44954 0
M  V30 8574 H 857.445 6.12932 2.32366 0
M  V30 8575 H 856.965 4.87688 3.49171 0
M  V30 8576 H 858.644 5.47014 3.4552 0
M  V30 8577 N 858.776 -0.797141 1.35954 0
M  V30 8578 C 859.686 -1.94088 1.31784 0
M  V30 8579 C 860.702 -1.72588 0.221227 0
M  V30 8580 O 861.878 -1.96256 0.452255 0
M  V30 8581 C 858.943 -3.28828 1.09878 0
M  V30 8582 C 858.004 -3.63158 2.28942 0
M  V30 8583 C 857.237 -4.91469 2.08072 0
M  V30 8584 O 857.46 -5.60616 1.05196 0
M  V30 8585 O 856.394 -5.24277 2.95664 0
M  V30 8586 H 860.22 -2.00554 2.28061 0
M  V30 8587 H 857.805 -0.936288 1.16422 0
M  V30 8588 H 859.687 -4.09473 0.995485 0
M  V30 8589 H 858.362 -3.23271 0.16659 0
M  V30 8590 H 857.269 -2.82851 2.44839 0
M  V30 8591 H 858.602 -3.7343 3.20641 0
M  V30 8592 N 860.254 -1.20106 -1.0204 0
M  V30 8593 C 861.201 -0.946468 -2.10501 0
M  V30 8594 C 862.171 0.121902 -1.65652 0
M  V30 8595 O 863.356 -0.0220244 -1.90787 0
M  V30 8596 C 860.496 -0.500499 -3.41451 0
M  V30 8597 C 859.609 -1.63659 -3.998 0
M  V30 8598 C 858.744 -1.14131 -5.18794 0
M  V30 8599 C 857.783 -2.25074 -5.69217 0
M  V30 8600 N 856.92 -1.76791 -6.79477 0
M  V30 8601 H 861.76 -1.87506 -2.31615 0
M  V30 8602 H 859.297 -0.934693 -1.13587 0
M  V30 8603 H 861.255 -0.223276 -4.16602 0
M  V30 8604 H 859.885 0.391099 -3.20422 0
M  V30 8605 H 858.937 -2.02882 -3.21781 0
M  V30 8606 H 860.249 -2.47213 -4.33229 0
M  V30 8607 H 859.403 -0.819826 -6.01135 0
M  V30 8608 H 858.142 -0.275615 -4.86921 0
M  V30 8609 H 857.147 -2.58043 -4.85483 0
M  V30 8610 H 858.372 -3.12114 -6.03127 0
M  V30 8611 H 856.318 -0.925428 -6.4944 0
M  V30 8612 H 856.235 -2.53928 -7.12079 0
M  V30 8613 H 857.503 -1.47631 -7.65392 0
M  V30 8614 N 861.732 1.21287 -1.00634 0
M  V30 8615 C 862.695 2.21927 -0.572821 0
M  V30 8616 C 863.695 1.5691 0.351541 0
M  V30 8617 O 864.885 1.73623 0.141643 0
M  V30 8618 C 862.017 3.40501 0.164932 0
M  V30 8619 H 863.21 2.61795 -1.463 0
M  V30 8620 H 860.763 1.34571 -0.794998 0
M  V30 8621 H 861.498 3.06123 1.07049 0
M  V30 8622 H 861.283 3.88912 -0.498962 0
M  V30 8623 H 862.773 4.15103 0.455945 0
M  V30 8624 N 863.21 0.781244 1.36873 0
M  V30 8625 C 864.458 0.349198 1.9906 0
M  V30 8626 C 864.779 -1.0806 1.62321 0
M  V30 8627 O 864.049 -1.74351 0.893229 0
M  V30 8628 H 862.629 0.126126 0.736275 0
M  V30 8629 H 865.291 1.00148 1.67202 0
M  V30 8630 H 864.387 0.434451 3.09061 0
M  V30 8631 N 864.689 -1.48329 0.532571 0
M  V30 8632 C 865.622 -2.26524 -0.2761 0
M  V30 8633 C 866.6 -1.32498 -0.942496 0
M  V30 8634 O 867.784 -1.61844 -0.966376 0
M  V30 8635 C 864.911 -3.08808 -1.39124 0
M  V30 8636 C 863.957 -4.18227 -0.835984 0
M  V30 8637 S 864.79 -5.34669 0.298186 0
M  V30 8638 C 865.946 -6.20514 -0.81937 0
M  V30 8639 H 866.179 -2.94764 0.387502 0
M  V30 8640 H 863.712 -1.51081 0.318407 0
M  V30 8641 H 865.67 -3.56792 -2.03002 0
M  V30 8642 H 864.331 -2.39976 -2.02658 0
M  V30 8643 H 863.524 -4.75435 -1.67264 0
M  V30 8644 H 863.126 -3.72996 -0.27385 0
M  V30 8645 H 865.418 -6.55371 -1.7174 0
M  V30 8646 H 866.361 -7.07525 -0.285199 0
M  V30 8647 H 866.769 -5.5366 -1.10094 0
M  V30 8648 N 866.167 -0.267825 -1.55308 0
M  V30 8649 C 867.115 0.638848 -2.23655 0
M  V30 8650 C 868.109 1.16363 -1.2311 0
M  V30 8651 O 869.315 1.1181 -1.41062 0
M  V30 8652 H 865.69 0.224551 -0.717691 0
M  V30 8653 H 867.661 0.0394809 -2.98374 0
M  V30 8654 C 866.41 1.8151 -2.96562 0
M  V30 8655 H 865.733 1.42048 -3.73715 0
M  V30 8656 H 867.173 2.42629 -3.47717 0
M  V30 8657 C 865.632 2.69911 -2.01618 0
M  V30 8658 O 866.162 3.70058 -1.56268 0
M  V30 8659 N 864.368 2.36924 -1.68272 0
M  V30 8660 H 863.915 1.55533 -2.05347 0
M  V30 8661 H 863.873 2.96343 -1.05016 0
M  V30 8662 N 867.645 1.57599 0.00500368 0
M  V30 8663 C 868.893 1.89973 0.68953 0
M  V30 8664 C 869.214 0.868531 1.7459 0
M  V30 8665 O 868.484 -0.0947367 1.95671 0
M  V30 8666 H 867.064 0.701153 0.25767 0
M  V30 8667 H 869.726 1.94869 -0.0347392 0
M  V30 8668 H 868.822 2.89584 1.16394 0
M  V30 8669 N 869.123 -0.277682 1.55134 0
M  V30 8670 C 870.37 -1.0099 1.7552 0
M  V30 8671 C 870.698 -1.86452 0.553712 0
M  V30 8672 O 869.953 -1.90122 -0.463896 0
M  V30 8673 C 870.252 -1.92599 3.01065 0
M  V30 8674 C 869.918 -1.22926 4.3382 0
M  V30 8675 C 868.58 -1.03659 4.69902 0
M  V30 8676 C 870.932 -0.733071 5.16019 0
M  V30 8677 C 868.26 -0.334933 5.85743 0
M  V30 8678 C 870.612 -0.0450319 6.32584 0
M  V30 8679 C 869.276 0.159393 6.6731 0
M  V30 8680 H 868.546 -0.36955 0.642273 0
M  V30 8681 H 871.193 -0.282611 1.89403 0
M  V30 8682 H 869.498 -2.71934 2.82062 0
M  V30 8683 H 871.195 -2.49367 3.14034 0
M  V30 8684 H 867.785 -1.38933 4.05457 0
M  V30 8685 H 871.969 -0.869565 4.88623 0
M  V30 8686 H 867.225 -0.165783 6.11175 0
M  V30 8687 H 871.399 0.34723 6.95534 0
M  V30 8688 H 869.026 0.70507 7.56923 0
M  V30 8689 N 870.601 -1.47988 -0.541979 0
M  V30 8690 C 871.878 -1.45878 -1.30303 0
M  V30 8691 C 872.258 -0.163931 -2.10463 0
M  V30 8692 O 871.606 0.854479 -2.11922 0
M  V30 8693 C 871.816 -2.71359 -2.19466 0
M  V30 8694 C 873.164 -3.19199 -2.79995 0
M  V30 8695 O 874.188 -2.72193 -2.2976 0
M  V30 8696 O 873.047 -4.00961 -3.71339 0
M  V30 8697 H 870.141 -0.582043 -0.587498 0
M  V30 8698 H 872.687 -1.60207 -0.559623 0
M  V30 8699 H 871.459 -3.57122 -1.59936 0
M  V30 8700 H 871.082 -2.59692 -3.01075 0
M  V30 8701 N 872.079 0.78992 -1.36375 0
M  V30 8702 C 873.495 1.0879 -1.16777 0
M  V30 8703 C 873.695 2.01498 0.00848236 0
M  V30 8704 O 872.751 2.43338 0.674007 0
M  V30 8705 C 874.064 1.70285 -2.47837 0
M  V30 8706 C 875.612 1.82629 -2.54196 0
M  V30 8707 C 876.087 2.47539 -3.85342 0
M  V30 8708 N 877.578 2.55008 -3.86685 0
M  V30 8709 C 878.313 3.06041 -4.84898 0
M  V30 8710 N 877.809 3.57385 -5.93505 0
M  V30 8711 N 879.602 3.04748 -4.72319 0
M  V30 8712 H 871.753 0.173985 -2.11686 0
M  V30 8713 H 874.016 0.139798 -0.937636 0
M  V30 8714 H 873.722 1.09633 -3.34176 0
M  V30 8715 H 873.596 2.69799 -2.63607 0
M  V30 8716 H 875.983 2.42419 -1.68276 0
M  V30 8717 H 876.064 0.81923 -2.42327 0
M  V30 8718 H 875.708 1.88393 -4.71668 0
M  V30 8719 H 875.638 3.48815 -3.94507 0
M  V30 8720 H 878.129 2.18651 -3.08221 0
M  V30 8721 H 878.442 3.94674 -6.64419 0
M  V30 8722 H 876.787 3.55538 -5.97175 0
M  V30 8723 H 879.978 2.63925 -3.86602 0
M  V30 8724 H 880.151 3.44212 -5.49019 0
M  V30 8725 N 873.557 1.20646 1.01402 0
M  V30 8726 C 874.973 0.961866 1.27359 0
M  V30 8727 C 875.173 -0.357083 1.98311 0
M  V30 8728 O 874.229 -1.08498 2.28001 0
M  V30 8729 C 875.542 2.14627 2.10609 0
M  V30 8730 C 877.09 2.18753 2.23866 0
M  V30 8731 C 877.565 3.36686 3.10494 0
M  V30 8732 N 879.056 3.36716 3.18083 0
M  V30 8733 C 879.791 4.24615 3.85343 0
M  V30 8734 N 879.287 5.22697 4.54708 0
M  V30 8735 N 881.08 4.12449 3.81893 0
M  V30 8736 H 873.231 2.05481 0.537721 0
M  V30 8737 H 875.494 0.899292 0.299963 0
M  V30 8738 H 875.2 3.10159 1.65814 0
M  V30 8739 H 875.074 2.12935 3.11349 0
M  V30 8740 H 877.461 1.23782 2.67885 0
M  V30 8741 H 877.542 2.24492 1.22626 0
M  V30 8742 H 877.186 4.31945 2.67181 0
M  V30 8743 H 877.116 3.28185 4.11828 0
M  V30 8744 H 879.607 2.65728 2.68695 0
M  V30 8745 H 879.92 5.86087 5.03708 0
M  V30 8746 H 878.265 5.26631 4.53525 0
M  V30 8747 H 881.456 3.35091 3.26851 0
M  V30 8748 H 881.629 4.81162 4.34035 0
M  V30 8749 N 875.035 -1.20752 1.01276 0
M  V30 8750 C 876.446 -1.7175 0.732033 0
M  V30 8751 C 876.797 -1.8131 -0.749733 0
M  V30 8752 O 875.922 -1.47301 -1.58529 0
M  V30 8753 C 876.517 -3.11936 1.32217 0
M  V30 8754 C 875.076 -3.6026 1.09039 0
M  V30 8755 C 874.223 -2.37571 1.43022 0
M  V30 8756 H 877.174 -1.0582 1.1827 0
M  V30 8757 H 877.195 -3.73802 0.710771 0
M  V30 8758 H 876.707 -3.04946 2.40061 0
M  V30 8759 H 874.808 -3.72588 0.0294464 0
M  V30 8760 H 874.921 -4.45295 1.76775 0
M  V30 8761 H 873.285 -2.40128 0.849159 0
M  V30 8762 H 874.068 -2.33225 2.51915 0
M  V30 8763 N 876.513 -0.788492 -1.36457 0
M  V30 8764 C 877.443 -0.200468 -2.32638 0
M  V30 8765 C 878.424 0.664031 -1.56603 0
M  V30 8766 O 879.609 0.598045 -1.84762 0
M  V30 8767 C 876.739 0.666274 -3.40849 0
M  V30 8768 C 875.693 -0.0982574 -4.27887 0
M  V30 8769 C 875.019 0.889018 -5.27258 0
M  V30 8770 C 876.319 -1.28692 -5.06197 0
M  V30 8771 H 878.013 -1.00399 -2.82065 0
M  V30 8772 H 875.559 -0.484237 -1.35614 0
M  V30 8773 H 877.512 1.08757 -4.07124 0
M  V30 8774 H 876.236 1.50249 -2.89987 0
M  V30 8775 H 874.895 -0.500525 -3.63167 0
M  V30 8776 H 874.543 1.72024 -4.7267 0
M  V30 8777 H 874.243 0.381909 -5.86358 0
M  V30 8778 H 875.767 1.30891 -5.96406 0
M  V30 8779 H 877.181 -0.941429 -5.65517 0
M  V30 8780 H 875.578 -1.72726 -5.74705 0
M  V30 8781 H 876.648 -2.08273 -4.37893 0
M  V30 8782 N 877.991 1.48044 -0.54043 0
M  V30 8783 C 879.237 2.02797 -0.0101718 0
M  V30 8784 C 879.57 1.41565 1.32939 0
M  V30 8785 O 878.845 0.565139 1.86109 0
M  V30 8786 C 879.128 3.59959 0.100758 0
M  V30 8787 C 878.981 4.31654 -1.26471 0
M  V30 8788 C 880.3 4.32347 0.822455 0
M  V30 8789 H 877.419 0.736982 -0.00517052 0
M  V30 8790 H 880.061 1.76656 -0.69948 0
M  V30 8791 H 878.211 3.82363 0.687824 0
M  V30 8792 H 879.883 4.20639 -1.89369 0
M  V30 8793 H 878.126 3.92663 -1.84386 0
M  V30 8794 H 878.797 5.401 -1.13998 0
M  V30 8795 H 881.273 4.14835 0.324164 0
M  V30 8796 H 880.149 5.41978 0.868993 0
M  V30 8797 H 880.41 4.00369 1.87501 0
M  V30 8798 N 879.47 0.276058 1.55163 0
M  V30 8799 C 880.698 -0.343772 2.04024 0
M  V30 8800 C 881.113 -1.49397 1.15438 0
M  V30 8801 O 880.47 -1.81662 0.174692 0
M  V30 8802 C 880.521 -0.823885 3.51986 0
M  V30 8803 O 880.242 0.280507 4.37201 0
M  V30 8804 C 881.743 -1.51143 4.16738 0
M  V30 8805 H 878.963 -0.07828 0.666418 0
M  V30 8806 H 881.507 0.408427 2.0038 0
M  V30 8807 H 879.662 -1.52617 3.56071 0
M  V30 8808 H 880.076 -0.0887831 5.24425 0
M  V30 8809 H 881.55 -1.79878 5.2187 0
M  V30 8810 H 882.027 -2.44327 3.64967 0
M  V30 8811 H 882.633 -0.852975 4.16659 0
M  V30 8812 N 880.948 -1.576 0.00335426 0
M  V30 8813 C 881.911 -2.07576 -0.971838 0
M  V30 8814 C 882.911 -0.985796 -1.27038 0
M  V30 8815 O 884.101 -1.24833 -1.21501 0
M  V30 8816 C 881.233 -2.52003 -2.29581 0
M  V30 8817 H 882.426 -2.95008 -0.539481 0
M  V30 8818 H 879.979 -1.54381 -0.244186 0
M  V30 8819 H 880.714 -1.67825 -2.77498 0
M  V30 8820 H 880.499 -3.31609 -2.09231 0
M  V30 8821 H 881.989 -2.90983 -2.99531 0
M  V30 8822 N 882.426 0.269451 -1.5528 0
M  V30 8823 C 883.703 1.02207 -1.66773 0
M  V30 8824 C 884.083 2.04168 -0.536536 0
M  V30 8825 O 883.431 2.23761 0.462956 0
M  V30 8826 C 883.641 1.67569 -3.0614 0
M  V30 8827 C 884.989 2.18599 -3.64005 0
M  V30 8828 O 886.013 1.7755 -3.08795 0
M  V30 8829 O 884.872 2.93903 -4.60742 0
M  V30 8830 H 881.966 0.474314 -0.677462 0
M  V30 8831 H 884.512 0.265026 -1.67618 0
M  V30 8832 H 883.284 0.937029 -3.79915 0
M  V30 8833 H 882.907 2.49951 -3.09209 0
M  V30 8834 N 883.904 1.48273 0.534124 0
M  V30 8835 C 885.153 1.55334 1.28663 0
M  V30 8836 C 885.466 0.230345 1.94239 0
M  V30 8837 O 886.672 0.179161 2.70908 0
M  V30 8838 C 885.128 2.73927 2.33435 0
M  V30 8839 C 884.736 4.12852 1.73947 0
M  V30 8840 C 886.48 2.90298 3.09722 0
M  V30 8841 C 884.387 5.22711 2.76636 0
M  V30 8842 H 883.317 0.578262 0.483869 0
M  V30 8843 H 885.968 1.74598 0.564602 0
M  V30 8844 H 884.35 2.48089 3.08655 0
M  V30 8845 H 885.524 4.48691 1.04944 0
M  V30 8846 H 883.839 4.01562 1.10167 0
M  V30 8847 H 886.436 3.69542 3.86449 0
M  V30 8848 H 886.779 1.99598 3.6533 0
M  V30 8849 H 887.312 3.16017 2.41616 0
M  V30 8850 H 884.051 6.15362 2.25852 0
M  V30 8851 H 883.571 4.91364 3.43979 0
M  V30 8852 H 885.25 5.50648 3.39699 0
M  V30 8853 N 885.382 -0.782676 1.36792 0
M  V30 8854 C 886.314 -1.9044 1.27536 0
M  V30 8855 C 887.327 -1.61647 0.193426 0
M  V30 8856 O 888.516 -1.72769 0.448692 0
M  V30 8857 C 885.616 -3.2541 0.946641 0
M  V30 8858 C 884.789 -3.81932 2.13183 0
M  V30 8859 C 883.848 -4.95355 1.7751 0
M  V30 8860 O 882.874 -5.11517 2.49678 0
M  V30 8861 N 884.076 -5.76108 0.712755 0
M  V30 8862 H 886.841 -1.98899 2.24186 0
M  V30 8863 H 884.402 -0.96127 1.30274 0
M  V30 8864 H 886.394 -3.98791 0.689043 0
M  V30 8865 H 884.964 -3.12524 0.0690591 0
M  V30 8866 H 884.184 -3.00459 2.55183 0
M  V30 8867 H 885.472 -4.16426 2.92347 0
M  V30 8868 H 884.87 -5.65586 0.113662 0
M  V30 8869 H 883.427 -6.49762 0.514995 0
M  V30 8870 N 886.86 -1.21182 -1.00761 0
M  V30 8871 C 888.106 -1.03903 -1.74859 0
M  V30 8872 C 888.461 0.423347 -1.87685 0
M  V30 8873 O 887.754 1.31001 -1.39819 0
M  V30 8874 C 887.948 -1.6667 -3.16158 0
M  V30 8875 C 887.777 -3.1886 -3.1711 0
M  V30 8876 C 886.547 -3.87888 -3.23838 0
M  V30 8877 C 888.745 -4.15978 -3.02434 0
M  V30 8878 N 886.727 -5.27289 -3.14388 0
M  V30 8879 C 888.098 -5.42114 -3.00854 0
M  V30 8880 C 890.153 -4.0706 -2.86717 0
M  V30 8881 C 888.856 -6.60358 -2.85166 0
M  V30 8882 C 890.882 -5.24938 -2.72386 0
M  V30 8883 C 890.244 -6.49983 -2.71479 0
M  V30 8884 H 886.343 -0.434522 -0.650165 0
M  V30 8885 H 888.927 -1.53495 -1.1978 0
M  V30 8886 H 887.098 -1.19649 -3.69511 0
M  V30 8887 H 888.83 -1.42622 -3.78736 0
M  V30 8888 H 885.585 -3.38798 -3.30927 0
M  V30 8889 H 886.009 -6.00293 -3.13013 0
M  V30 8890 H 890.651 -3.11183 -2.86226 0
M  V30 8891 H 888.369 -7.56399 -2.84405 0
M  V30 8892 H 891.955 -5.19857 -2.61228 0
M  V30 8893 H 890.835 -7.39662 -2.6052 0
M  V30 8894 N 888.338 1.20213 -1.01915 0
M  V30 8895 C 889.749 1.7136 -0.741131 0
M  V30 8896 C 890.1 1.81705 0.740107 0
M  V30 8897 O 889.225 1.48139 1.57746 0
M  V30 8898 C 889.82 3.11231 -1.33869 0
M  V30 8899 C 888.379 3.59677 -1.10948 0
M  V30 8900 C 887.526 2.36809 -1.4428 0
M  V30 8901 H 890.477 1.05191 -1.1883 0
M  V30 8902 H 890.498 3.7342 -0.730585 0
M  V30 8903 H 890.01 3.03669 -2.41675 0
M  V30 8904 H 888.111 3.72568 -0.0492052 0
M  V30 8905 H 888.224 4.44351 -1.79134 0
M  V30 8906 H 886.588 2.39674 -0.861881 0
M  V30 8907 H 887.371 2.31886 -2.53148 0
M  V30 8908 N 889.816 0.795718 1.36037 0
M  V30 8909 C 890.764 0.18649 2.31851 0
M  V30 8910 C 891.758 -0.657704 1.56111 0
M  V30 8911 O 892.964 -0.552083 1.71324 0
M  V30 8912 H 889.339 0.0415363 0.750852 0
M  V30 8913 H 891.31 1.00992 2.8079 0
M  V30 8914 C 890.059 -0.65918 3.41394 0
M  V30 8915 H 889.382 -0.01894 3.99796 0
M  V30 8916 H 890.822 -1.05202 4.10741 0
M  V30 8917 C 889.281 -1.82011 2.83502 0
M  V30 8918 O 889.811 -2.91703 2.76174 0
M  V30 8919 N 888.017 -1.62821 2.40703 0
M  V30 8920 H 887.564 -0.735965 2.46863 0
M  V30 8921 H 887.522 -2.40657 2.02316 0
M  V30 8922 N 891.294 -1.47756 0.548274 0
M  V30 8923 C 892.542 -2.02089 0.0208542 0
M  V30 8924 C 892.863 -1.42589 -1.33017 0
M  V30 8925 O 892.133 -0.597825 -1.86555 0
M  V30 8926 H 890.713 -0.746985 0.00472023 0
M  V30 8927 H 893.375 -1.81262 0.716257 0
M  V30 8928 H 892.471 -3.12012 -0.0739016 0
M  V30 8929 N 892.772 -0.284283 -1.55015 0
M  V30 8930 C 894.021 0.33055 -1.98973 0
M  V30 8931 C 894.334 1.56284 -1.17621 0
M  V30 8932 O 895.54 2.2512 -1.51767 0
M  V30 8933 C 893.996 0.639457 -3.54174 0
M  V30 8934 C 893.604 -0.573543 -4.44313 0
M  V30 8935 C 895.348 1.21641 -4.06699 0
M  V30 8936 C 893.255 -0.238715 -5.90918 0
M  V30 8937 H 892.185 0.127285 -0.743179 0
M  V30 8938 H 894.836 -0.390372 -1.793 0
M  V30 8939 H 893.218 1.41953 -3.69683 0
M  V30 8940 H 894.392 -1.3502 -4.40575 0
M  V30 8941 H 892.707 -1.06797 -4.02472 0
M  V30 8942 H 895.304 1.48088 -5.13784 0
M  V30 8943 H 895.647 2.15328 -3.56286 0
M  V30 8944 H 896.18 0.498422 -3.94665 0
M  V30 8945 H 892.919 -1.1437 -6.45445 0
M  V30 8946 H 892.439 0.500997 -5.97704 0
M  V30 8947 H 894.118 0.165774 -6.46788 0
M  V30 8948 N 894.251 1.57596 -0.0117121 0
M  V30 8949 C 895.479 1.9536 0.681334 0
M  V30 8950 C 895.894 0.887255 1.66653 0
M  V30 8951 O 895.251 -0.132692 1.82017 0
M  V30 8952 C 895.302 3.33165 1.40298 0
M  V30 8953 O 895.023 4.35707 0.45728 0
M  V30 8954 C 896.524 3.85458 2.18946 0
M  V30 8955 H 893.744 0.643826 0.189023 0
M  V30 8956 H 896.288 2.04392 -0.066311 0
M  V30 8957 H 894.443 3.25404 2.10216 0
M  V30 8958 H 894.857 5.15495 0.96773 0
M  V30 8959 H 896.331 4.84275 2.64918 0
M  V30 8960 H 896.808 3.18781 3.02118 0
M  V30 8961 H 897.414 3.96431 1.5402 0
M  V30 8962 N 895.729 -0.261212 1.5542 0
M  V30 8963 C 896.659 -1.32712 1.92119 0
M  V30 8964 C 897.64 -1.50934 0.784406 0
M  V30 8965 O 898.825 -1.63781 1.04352 0
M  V30 8966 C 895.955 -2.68453 2.20341 0
M  V30 8967 C 894.909 -2.64947 3.36136 0
M  V30 8968 C 894.235 -4.04349 3.49865 0
M  V30 8969 C 895.535 -2.23182 4.72215 0
M  V30 8970 H 897.229 -1.02245 2.81401 0
M  V30 8971 H 894.775 -0.490406 1.35392 0
M  V30 8972 H 896.728 -3.43144 2.44603 0
M  V30 8973 H 895.452 -3.00527 1.27871 0
M  V30 8974 H 894.111 -1.92714 3.11861 0
M  V30 8975 H 893.759 -4.33665 2.5484 0
M  V30 8976 H 893.459 -4.02895 4.27726 0
M  V30 8977 H 894.983 -4.80761 3.76432 0
M  V30 8978 H 896.397 -2.87599 4.95943 0
M  V30 8979 H 894.794 -2.32867 5.53076 0
M  V30 8980 H 895.864 -1.18327 4.70241 0
M  V30 8981 N 897.207 -1.48554 -0.526253 0
M  V30 8982 C 898.484 -1.47252 -1.28748 0
M  V30 8983 C 898.864 -0.186245 -2.10277 0
M  V30 8984 O 898.212 0.831954 -2.12816 0
M  V30 8985 C 898.422 -2.73672 -2.16575 0
M  V30 8986 C 899.77 -3.22151 -2.76593 0
M  V30 8987 O 900.794 -2.74614 -2.2686 0
M  V30 8988 O 899.653 -4.04877 -3.67066 0
M  V30 8989 H 896.747 -0.588242 -0.581292 0
M  V30 8990 H 899.293 -1.60792 -0.5426 0
M  V30 8991 H 898.065 -3.58798 -1.56139 0
M  V30 8992 H 897.688 -2.6287 -2.98304 0
M  V30 8993 N 898.685 0.775411 -1.37205 0
M  V30 8994 C 899.615 1.90258 -1.35367 0
M  V30 8995 C 900.596 1.68634 -0.222864 0
M  V30 8996 O 901.781 1.89545 -0.422659 0
M  V30 8997 C 898.911 3.27488 -1.15623 0
M  V30 8998 C 897.865 3.63668 -2.25676 0
M  V30 8999 C 897.191 4.994 -1.91059 0
M  V30 9000 C 898.491 3.70797 -3.67841 0
M  V30 9001 H 900.185 1.92053 -2.29687 0
M  V30 9002 H 897.731 0.922597 -1.10563 0
M  V30 9003 H 899.684 4.05976 -1.12968 0
M  V30 9004 H 898.408 3.26117 -0.177573 0
M  V30 9005 H 897.067 2.87486 -2.2748 0
M  V30 9006 H 896.715 4.94565 -0.917324 0
M  V30 9007 H 896.415 5.24576 -2.64751 0
M  V30 9008 H 897.939 5.80291 -1.89985 0
M  V30 9009 H 899.353 4.39444 -3.68187 0
M  V30 9010 H 897.75 4.07468 -4.40556 0
M  V30 9011 H 898.82 2.71549 -4.01732 0
M  V30 9012 N 900.163 1.21714 1.00117 0
M  V30 9013 C 901.412 1.03087 1.73367 0
M  V30 9014 C 901.725 -0.435532 1.90689 0
M  V30 9015 O 902.931 -0.741291 2.61184 0
M  V30 9016 C 901.387 1.79593 3.11888 0
M  V30 9017 C 900.995 3.30428 3.02525 0
M  V30 9018 C 902.739 1.69386 3.89241 0
M  V30 9019 C 900.646 3.99408 4.3615 0
M  V30 9020 H 899.576 0.382117 0.650002 0
M  V30 9021 H 902.227 1.45486 1.11831 0
M  V30 9022 H 900.609 1.29988 3.74058 0
M  V30 9023 H 901.783 3.87364 2.49571 0
M  V30 9024 H 900.098 3.4122 2.38659 0
M  V30 9025 H 902.695 2.18251 4.8813 0
M  V30 9026 H 903.038 0.652773 4.1115 0
M  V30 9027 H 903.571 2.16489 3.33733 0
M  V30 9028 H 900.31 5.03735 4.19442 0
M  V30 9029 H 899.83 3.47261 4.8905 0
M  V30 9030 H 901.509 4.04537 5.04934 0
M  V30 9031 N 901.641 -1.19671 1.02551 0
M  V30 9032 C 902.588 -2.22773 0.603394 0
M  V30 9033 C 903.558 -1.61669 -0.381081 0
M  V30 9034 O 904.743 -1.88756 -0.278505 0
M  V30 9035 C 901.883 -3.45073 -0.0431034 0
M  V30 9036 C 900.996 -4.20574 0.987006 0
M  V30 9037 C 900.131 -5.30291 0.310626 0
M  V30 9038 C 899.17 -5.97545 1.32688 0
M  V30 9039 N 898.307 -6.98833 0.676542 0
M  V30 9040 H 903.147 -2.58238 1.48719 0
M  V30 9041 H 900.684 -1.26881 0.744286 0
M  V30 9042 H 902.642 -4.14925 -0.435141 0
M  V30 9043 H 901.272 -3.10274 -0.890495 0
M  V30 9044 H 900.324 -3.497 1.49713 0
M  V30 9045 H 901.636 -4.66736 1.75952 0
M  V30 9046 H 900.79 -6.06547 -0.136438 0
M  V30 9047 H 899.529 -4.8519 -0.49412 0
M  V30 9048 H 898.534 -5.20043 1.78424 0
M  V30 9049 H 899.759 -6.4473 2.13306 0
M  V30 9050 H 897.705 -6.55911 -0.108172 0
M  V30 9051 H 897.622 -7.43168 1.38699 0
M  V30 9052 H 898.89 -7.79088 0.253367 0
M  V30 9053 N 903.119 -0.802921 -1.35613 0
M  V30 9054 C 904.344 -0.392846 -2.03645 0
M  V30 9055 C 904.769 0.987075 -1.6012 0
M  V30 9056 O 904.127 1.63849 -0.776101 0
M  V30 9057 C 904.175 -0.480208 -3.57388 0
M  V30 9058 O 903.279 0.507751 -4.09262 0
M  V30 9059 H 902.62 -0.16464 -0.643265 0
M  V30 9060 H 905.15 -1.08779 -1.73287 0
M  V30 9061 H 905.16 -0.348683 -4.06507 0
M  V30 9062 H 903.835 -1.48675 -3.88418 0
M  V30 9063 H 902.412 0.336769 -3.71376 0
M  V30 9064 N 904.597 1.47463 -0.556102 0
M  V30 9065 C 906.013 1.58134 -0.21579 0
M  V30 9066 C 906.213 1.55486 1.28166 0
M  V30 9067 O 905.269 1.45768 2.06174 0
M  V30 9068 C 906.582 2.88686 -0.841464 0
M  V30 9069 C 908.13 3.02268 -0.812591 0
M  V30 9070 C 908.605 4.35518 -1.41731 0
M  V30 9071 N 910.096 4.42151 -1.38045 0
M  V30 9072 C 910.831 5.43817 -1.81799 0
M  V30 9073 N 910.327 6.52299 -2.33404 0
M  V30 9074 N 912.12 5.34855 -1.72877 0
M  V30 9075 H 904.271 1.47428 -1.52901 0
M  V30 9076 H 906.534 0.701586 -0.637559 0
M  V30 9077 H 906.24 2.96358 -1.8938 0
M  V30 9078 H 906.114 3.7572 -0.333846 0
M  V30 9079 H 908.501 2.94194 0.231056 0
M  V30 9080 H 908.582 2.16779 -1.35796 0
M  V30 9081 H 908.226 4.44348 -2.46002 0
M  V30 9082 H 908.156 5.19737 -0.847402 0
M  V30 9083 H 910.647 3.64348 -1.00296 0
M  V30 9084 H 910.96 7.26047 -2.64717 0
M  V30 9085 H 909.305 6.53192 -2.37414 0
M  V30 9086 H 912.496 4.49004 -1.32338 0
M  V30 9087 H 912.669 6.13949 -2.07294 0
M  V30 9088 N 906.075 0.2925 1.54862 0
M  V30 9089 C 907.005 -0.580677 2.26165 0
M  V30 9090 C 907.986 -1.14485 1.25806 0
M  V30 9091 O 909.171 -1.17577 1.54562 0
M  V30 9092 C 906.301 -1.75668 2.99596 0
M  V30 9093 C 905.255 -1.32325 4.07031 0
M  V30 9094 C 904.581 -2.58374 4.68131 0
M  V30 9095 C 905.881 -0.460703 5.20264 0
M  V30 9096 H 907.575 0.0140075 2.99397 0
M  V30 9097 H 905.121 0.00817706 1.43998 0
M  V30 9098 H 907.074 -2.37356 3.48195 0
M  V30 9099 H 905.798 -2.37747 2.23928 0
M  V30 9100 H 904.457 -0.729477 3.59269 0
M  V30 9101 H 904.105 -3.18749 3.89112 0
M  V30 9102 H 903.805 -2.30078 5.40683 0
M  V30 9103 H 905.329 -3.2088 5.19489 0
M  V30 9104 H 906.743 -0.983037 5.64809 0
M  V30 9105 H 905.14 -0.271881 5.99484 0
M  V30 9106 H 906.21 0.516304 4.82143 0
M  V30 9107 N 907.553 -1.57587 0.0200696 0
M  V30 9108 C 908.783 -1.95435 -0.669991 0
M  V30 9109 C 909.191 -0.894647 -1.66711 0
M  V30 9110 O 908.534 0.133009 -1.83218 0
M  V30 9111 C 908.596 -3.29379 -1.44047 0
M  V30 9112 C 908.26 -4.53008 -0.602691 0
M  V30 9113 C 909.257 -5.19766 0.118188 0
M  V30 9114 C 906.942 -4.99359 -0.542754 0
M  V30 9115 C 908.936 -6.31187 0.887774 0
M  V30 9116 C 906.623 -6.10665 0.230543 0
M  V30 9117 C 907.621 -6.76438 0.944522 0
M  V30 9118 O 907.309 -7.85608 1.70516 0
M  V30 9119 H 907.041 -0.648681 -0.190234 0
M  V30 9120 H 909.595 -2.05269 0.0733838 0
M  V30 9121 H 907.825 -3.1601 -2.22878 0
M  V30 9122 H 909.514 -3.52194 -2.01777 0
M  V30 9123 H 910.28 -4.84932 0.0811604 0
M  V30 9124 H 906.159 -4.47976 -1.08804 0
M  V30 9125 H 909.703 -6.82458 1.44558 0
M  V30 9126 H 905.6 -6.44938 0.26932 0
M  V30 9127 H 906.368 -8.02228 1.62398 0
M  V30 9128 N 909.032 0.252966 -1.55557 0
M  V30 9129 C 910.278 0.979092 -1.78284 0
M  V30 9130 C 910.633 1.83194 -0.588009 0
M  V30 9131 O 909.926 1.86965 0.418899 0
M  V30 9132 C 910.12 1.87785 -3.04091 0
M  V30 9133 C 909.949 1.11349 -4.35697 0
M  V30 9134 C 908.719 0.821038 -4.98585 0
M  V30 9135 C 910.917 0.494039 -5.11922 0
M  V30 9136 N 908.899 0.0319767 -6.13892 0
M  V30 9137 C 910.27 -0.159888 -6.19794 0
M  V30 9138 C 912.325 0.403894 -4.96259 0
M  V30 9139 C 911.028 -0.895295 -7.13706 0
M  V30 9140 C 913.054 -0.317968 -5.90545 0
M  V30 9141 C 912.416 -0.960555 -6.9782 0
M  V30 9142 H 908.515 0.339586 -0.704419 0
M  V30 9143 H 911.099 0.252801 -1.93052 0
M  V30 9144 H 909.27 2.57623 -2.90663 0
M  V30 9145 H 911.002 2.53908 -3.15139 0
M  V30 9146 H 907.757 1.13132 -4.59889 0
M  V30 9147 H 908.181 -0.35047 -6.76092 0
M  V30 9148 H 912.823 0.886366 -4.13405 0
M  V30 9149 H 910.541 -1.38939 -7.96066 0
M  V30 9150 H 914.127 -0.388302 -5.80503 0
M  V30 9151 H 913.007 -1.51022 -7.69521 0
M  V30 9152 N 910.51 1.48831 0.518367 0
M  V30 9153 C 911.44 1.67119 1.63075 0
M  V30 9154 C 912.421 0.519948 1.61958 0
M  V30 9155 O 913.606 0.753824 1.78972 0
M  V30 9156 C 910.736 1.72158 3.01627 0
M  V30 9157 C 909.69 2.86898 3.17606 0
M  V30 9158 C 909.016 2.77035 4.57335 0
M  V30 9159 C 910.316 4.28057 2.99274 0
M  V30 9160 H 912.01 2.60248 1.48025 0
M  V30 9161 H 909.556 1.2524 0.710694 0
M  V30 9162 H 911.509 1.83539 3.7933 0
M  V30 9163 H 910.233 0.756157 3.17726 0
M  V30 9164 H 908.892 2.75091 2.42323 0
M  V30 9165 H 908.54 1.78438 4.70286 0
M  V30 9166 H 908.24 3.54036 4.6897 0
M  V30 9167 H 909.764 2.904 5.37122 0
M  V30 9168 H 911.178 4.40636 3.6676 0
M  V30 9169 H 909.575 5.06145 3.22393 0
M  V30 9170 H 910.645 4.4371 1.95574 0
M  V30 9171 N 911.988 -0.768124 1.37614 0
M  V30 9172 C 913.265 -1.51637 1.23554 0
M  V30 9173 C 913.645 -2.1042 -0.169331 0
M  V30 9174 O 912.993 -1.95834 -1.17735 0
M  V30 9175 C 913.203 -2.59436 2.33439 0
M  V30 9176 C 914.551 -3.2674 2.71157 0
M  V30 9177 O 915.575 -2.69733 2.32642 0
M  V30 9178 O 914.434 -4.29814 3.37524 0
M  V30 9179 H 911.528 -0.671778 0.482332 0
M  V30 9180 H 914.074 -0.804779 1.49403 0
M  V30 9181 H 912.846 -2.14146 3.27502 0
M  V30 9182 H 912.469 -3.38192 2.09073 0
M  V30 9183 N 913.466 -1.22244 -0.994698 0
M  V30 9184 C 914.691 -1.07299 -1.77487 0
M  V30 9185 C 915.116 0.372302 -1.84379 0
M  V30 9186 O 914.474 1.2689 -1.29494 0
M  V30 9187 C 914.522 -1.68675 -3.18718 0
M  V30 9188 O 913.626 -0.939202 -4.01563 0
M  V30 9189 H 912.967 -0.376979 -0.546611 0
M  V30 9190 H 915.497 -1.62003 -1.24965 0
M  V30 9191 H 915.507 -1.73324 -3.69354 0
M  V30 9192 H 914.182 -2.73849 -3.13017 0
M  V30 9193 H 912.759 -0.968583 -3.60101 0
M  V30 9194 N 914.944 1.19125 -1.03184 0
M  V30 9195 C 915.891 2.2245 -0.6152 0
M  V30 9196 C 916.861 1.61869 0.372502 0
M  V30 9197 O 918.046 1.88901 0.268491 0
M  V30 9198 C 915.186 3.45091 0.0248027 0
M  V30 9199 C 914.299 4.20044 -1.0093 0
M  V30 9200 C 913.434 5.30119 -0.338744 0
M  V30 9201 C 912.473 5.96833 -1.35855 0
M  V30 9202 N 911.61 6.98464 -0.713594 0
M  V30 9203 H 916.45 2.57445 -1.50086 0
M  V30 9204 H 913.987 1.26485 -0.751005 0
M  V30 9205 H 915.945 4.15149 0.413131 0
M  V30 9206 H 914.575 3.10742 0.874028 0
M  V30 9207 H 913.627 3.48901 -1.51566 0
M  V30 9208 H 914.939 4.65796 -1.78425 0
M  V30 9209 H 914.093 6.0661 0.104269 0
M  V30 9210 H 912.832 4.85446 0.468382 0
M  V30 9211 H 911.837 5.1909 -1.81179 0
M  V30 9212 H 913.062 6.4359 -2.16722 0
M  V30 9213 H 911.008 6.55959 0.0733863 0
M  V30 9214 H 910.925 7.42422 -1.42638 0
M  V30 9215 H 912.193 7.78943 -0.294681 0
M  V30 9216 N 916.422 0.810101 1.35185 0
M  V30 9217 C 917.352 0.237453 2.32289 0
M  V30 9218 C 918.333 -0.639032 1.5764 0
M  V30 9219 O 919.518 -0.568575 1.8569 0
M  V30 9220 C 916.648 -0.611964 3.41866 0
M  V30 9221 C 915.602 0.166318 4.27677 0
M  V30 9222 C 914.928 -0.805024 5.28605 0
M  V30 9223 C 916.228 1.36729 5.04086 0
M  V30 9224 H 917.922 1.04874 2.80432 0
M  V30 9225 H 915.468 0.505751 1.34826 0
M  V30 9226 H 917.421 -1.02267 4.08802 0
M  V30 9227 H 916.145 -1.45617 2.92341 0
M  V30 9228 H 914.804 0.558238 3.62325 0
M  V30 9229 H 914.452 -1.64483 4.75347 0
M  V30 9230 H 914.152 -0.288577 5.86891 0
M  V30 9231 H 915.676 -1.21386 5.98413 0
M  V30 9232 H 917.09 1.03128 5.63948 0
M  V30 9233 H 915.487 1.81848 5.71884 0
M  V30 9234 H 916.557 2.15214 4.34524 0
M  V30 9235 N 917.9 -1.47166 0.563914 0
M  V30 9236 C 918.85 -2.27116 -0.20055 0
M  V30 9237 C 919.834 -1.34756 -0.879177 0
M  V30 9238 O 921.026 -1.59064 -0.776377 0
M  V30 9239 C 918.155 -3.20676 -1.22565 0
M  V30 9240 C 917.241 -4.20517 -0.550092 0
M  V30 9241 N 917.632 -5.04343 0.383662 0
M  V30 9242 C 915.93 -4.38708 -0.803186 0
M  V30 9243 C 916.631 -5.76491 0.776718 0
M  V30 9244 N 915.607 -5.43444 0.130047 0
M  V30 9245 H 919.409 -2.89312 0.517275 0
M  V30 9246 H 916.923 -1.57787 0.384334 0
M  V30 9247 H 918.92 -3.76643 -1.78733 0
M  V30 9248 H 917.58 -2.60038 -1.94449 0
M  V30 9249 H 918.591 -5.1232 0.758192 0
M  V30 9250 H 915.268 -3.89235 -1.51003 0
M  V30 9251 H 916.658 -6.5391 1.54437 0
M  V30 9252 N 919.378 -0.300708 -1.54705 0
M  V30 9253 C 920.311 0.617513 -2.19686 0
M  V30 9254 C 921.289 1.1331 -1.16617 0
M  V30 9255 O 922.473 1.20135 -1.45258 0
M  V30 9256 C 919.6 1.84486 -2.84047 0
M  V30 9257 C 918.646 1.46253 -4.0064 0
M  V30 9258 S 919.479 0.518718 -5.32982 0
M  V30 9259 C 920.635 1.75387 -6.00825 0
M  V30 9260 H 920.868 0.0654548 -2.97228 0
M  V30 9261 H 918.401 -0.0848492 -1.54167 0
M  V30 9262 H 920.359 2.54921 -3.21754 0
M  V30 9263 H 919.02 2.36808 -2.06351 0
M  V30 9264 H 918.213 2.37648 -4.44454 0
M  V30 9265 H 917.815 0.838129 -3.64488 0
M  V30 9266 H 920.107 2.69448 -6.21614 0
M  V30 9267 H 921.05 1.35829 -6.9495 0
M  V30 9268 H 921.458 1.93045 -5.30466 0
M  V30 9269 N 920.856 1.57574 -0.0284266 0
M  V30 9270 C 921.786 2.1321 0.952039 0
M  V30 9271 C 922.767 1.04806 1.33977 0
M  V30 9272 O 923.952 1.32635 1.41851 0
M  V30 9273 C 921.082 2.65862 2.23461 0
M  V30 9274 C 920.036 3.79047 1.98765 0
M  V30 9275 C 919.362 4.18124 3.33281 0
M  V30 9276 C 920.662 5.05151 1.32739 0
M  V30 9277 H 922.356 2.95385 0.488705 0
M  V30 9278 H 919.902 1.42092 0.233628 0
M  V30 9279 H 921.855 3.03417 2.92431 0
M  V30 9280 H 920.579 1.80848 2.71959 0
M  V30 9281 H 919.238 3.41929 1.32213 0
M  V30 9282 H 918.886 3.30092 3.79537 0
M  V30 9283 H 918.586 4.94396 3.17563 0
M  V30 9284 H 920.11 4.58262 4.0352 0
M  V30 9285 H 921.524 5.40297 1.91708 0
M  V30 9286 H 919.921 5.86416 1.27421 0
M  V30 9287 H 920.991 4.83969 0.300261 0
M  V30 9288 N 922.334 -0.244713 1.55689 0
M  V30 9289 C 923.559 -0.994157 1.8202 0
M  V30 9290 C 923.984 -1.78079 0.60577 0
M  V30 9291 O 923.342 -1.75748 -0.445221 0
M  V30 9292 C 923.39 -1.90599 3.06111 0
M  V30 9293 O 922.494 -2.99804 2.8318 0
M  V30 9294 H 921.835 -0.282767 0.600782 0
M  V30 9295 H 924.365 -0.26504 2.02876 0
M  V30 9296 H 924.375 -2.32023 3.35603 0
M  V30 9297 H 923.05 -1.32763 3.9414 0
M  V30 9298 H 921.627 -2.62493 2.64862 0
M  V30 9299 N 923.813 -1.49104 -0.510467 0
M  V30 9300 C 925.038 -1.62068 -1.29417 0
M  V30 9301 C 925.463 -0.288432 -1.85875 0
M  V30 9302 O 924.821 0.742667 -1.65391 0
M  V30 9303 C 924.869 -2.68506 -2.40701 0
M  V30 9304 O 923.973 -2.27021 -3.4429 0
M  V30 9305 H 923.314 -0.542778 -0.382476 0
M  V30 9306 H 925.844 -1.95228 -0.612154 0
M  V30 9307 H 925.854 -2.90383 -2.86604 0
M  V30 9308 H 924.529 -3.65216 -1.98973 0
M  V30 9309 H 923.106 -2.15436 -3.04371 0
M  V30 9310 N 925.291 0.760815 -1.38019 0
M  V30 9311 C 926.537 1.52198 -1.34028 0
M  V30 9312 C 926.87 1.94067 0.0718309 0
M  V30 9313 O 926.145 1.64895 1.0315 0
M  V30 9314 C 926.428 2.77954 -2.2894 0
M  V30 9315 C 926.281 2.42269 -3.7898 0
M  V30 9316 C 927.6 3.79943 -2.22107 0
M  V30 9317 H 924.719 0.552131 -0.488181 0
M  V30 9318 H 927.361 0.871971 -1.6881 0
M  V30 9319 H 925.511 3.33419 -1.9941 0
M  V30 9320 H 927.183 1.92635 -4.19153 0
M  V30 9321 H 925.426 1.74822 -3.97014 0
M  V30 9322 H 926.097 3.32211 -4.4084 0
M  V30 9323 H 928.573 3.34 -2.4816 0
M  V30 9324 H 927.449 4.6564 -2.90639 0
M  V30 9325 H 927.71 4.25004 -1.21753 0
M  V30 9326 N 926.769 1.22769 0.988202 0
M  V30 9327 C 928.046 0.9635 1.70223 0
M  V30 9328 C 928.426 -0.520102 2.04593 0
M  V30 9329 O 927.774 -1.48934 1.73295 0
M  V30 9330 C 927.984 1.86583 2.94937 0
M  V30 9331 C 929.332 2.12469 3.67616 0
M  V30 9332 O 930.356 1.84069 3.04954 0
M  V30 9333 O 929.215 2.60595 4.80367 0
M  V30 9334 H 926.309 0.362737 0.743203 0
M  V30 9335 H 928.855 1.33776 1.04412 0
M  V30 9336 H 927.627 2.86913 2.66077 0
M  V30 9337 H 927.25 1.49344 3.68486 0
M  V30 9338 N 928.247 -1.18576 1.03814 0
M  V30 9339 C 929.177 -2.24334 0.647795 0
M  V30 9340 C 930.158 -1.66508 -0.34774 0
M  V30 9341 O 931.343 -1.92852 -0.228401 0
M  V30 9342 C 928.473 -3.47299 0.00734922 0
M  V30 9343 C 927.427 -4.17859 0.926152 0
M  V30 9344 C 926.753 -5.34489 0.150317 0
M  V30 9345 C 928.053 -4.71632 2.24411 0
M  V30 9346 H 929.747 -2.57241 1.53191 0
M  V30 9347 H 927.293 -1.23649 0.738028 0
M  V30 9348 H 929.246 -4.20486 -0.277434 0
M  V30 9349 H 927.97 -3.13619 -0.911626 0
M  V30 9350 H 926.629 -3.46567 1.19528 0
M  V30 9351 H 926.277 -4.97056 -0.770985 0
M  V30 9352 H 925.977 -5.82633 0.762407 0
M  V30 9353 H 927.501 -6.10467 -0.127508 0
M  V30 9354 H 928.915 -5.36526 2.02021 0
M  V30 9355 H 927.312 -5.303 2.80894 0
M  V30 9356 H 928.382 -3.89192 2.89236 0
M  V30 9357 N 929.725 -0.817259 -1.34754 0
M  V30 9358 C 930.673 -0.223352 -2.31525 0
M  V30 9359 C 931.667 0.632785 -1.57137 0
M  V30 9360 O 932.873 0.524757 -1.72181 0
M  V30 9361 H 929.248 -0.0534765 -0.750096 0
M  V30 9362 H 931.219 -1.05446 -2.79148 0
M  V30 9363 C 929.968 0.604784 -3.424 0
M  V30 9364 H 929.291 -0.0446664 -3.99775 0
M  V30 9365 H 930.731 0.986543 -4.12363 0
M  V30 9366 C 929.19 1.77478 -2.86362 0
M  V30 9367 O 929.72 2.87273 -2.8078 0
M  V30 9368 N 927.926 1.58971 -2.43263 0
M  V30 9369 H 927.473 0.696598 -2.48003 0
M  V30 9370 H 927.431 2.37408 -2.06119 0
M  V30 9371 N 931.203 1.46865 -0.571711 0
M  V30 9372 C 932.451 2.0203 -0.0530022 0
M  V30 9373 C 932.772 1.44687 1.30731 0
M  V30 9374 O 932.042 0.627429 1.85581 0
M  V30 9375 H 930.622 0.746815 -0.0166035 0
M  V30 9376 H 933.284 1.80099 -0.745003 0
M  V30 9377 H 932.38 3.12091 0.0242538 0
M  V30 9378 N 932.681 0.308908 1.54543 0
M  V30 9379 C 933.613 -0.597453 2.21276 0
M  V30 9380 C 934.626 -1.09137 1.20801 0
M  V30 9381 O 935.815 -1.00747 1.47351 0
M  V30 9382 C 932.915 -1.83085 2.85189 0
M  V30 9383 C 932.088 -1.4781 4.11669 0
M  V30 9384 C 931.147 -2.56748 4.59311 0
M  V30 9385 O 930.173 -2.21507 5.24331 0
M  V30 9386 N 931.375 -3.87427 4.32297 0
M  V30 9387 H 934.14 -0.0261183 2.99689 0
M  V30 9388 H 931.701 0.131456 1.61365 0
M  V30 9389 H 933.693 -2.55326 3.13992 0
M  V30 9390 H 932.263 -2.31039 2.1057 0
M  V30 9391 H 931.483 -0.587974 3.8979 0
M  V30 9392 H 932.771 -1.2179 4.94009 0
M  V30 9393 H 932.169 -4.18863 3.80224 0
M  V30 9394 H 930.726 -4.55942 4.6579 0
M  V30 9395 N 934.159 -1.57557 0.0367827 0
M  V30 9396 C 935.436 -1.83427 -0.679261 0
M  V30 9397 C 935.816 -0.922274 -1.89888 0
M  V30 9398 O 935.164 0.02025 -2.28491 0
M  V30 9399 C 935.374 -3.32823 -1.05022 0
M  V30 9400 C 936.722 -3.99486 -1.43861 0
M  V30 9401 O 937.746 -3.37364 -1.14297 0
M  V30 9402 O 936.605 -5.0899 -1.98977 0
M  V30 9403 H 933.699 -0.756581 -0.333936 0
M  V30 9404 H 936.245 -1.69575 0.0650494 0
M  V30 9405 H 935.017 -3.90874 -0.182509 0
M  V30 9406 H 934.64 -3.5181 -1.85244 0
M  V30 9407 N 935.637 0.236453 -1.55816 0
M  V30 9408 C 937.053 0.585465 -1.48474 0
M  V30 9409 C 937.253 1.8785 -0.72902 0
M  V30 9410 O 936.309 2.51131 -0.262614 0
M  V30 9411 C 937.622 0.678506 -2.92945 0
M  V30 9412 C 939.17 0.770135 -3.03378 0
M  V30 9413 C 939.645 0.894649 -4.49177 0
M  V30 9414 N 941.136 0.959253 -4.53158 0
M  V30 9415 C 941.871 1.07505 -5.63232 0
M  V30 9416 N 941.367 1.15572 -6.83092 0
M  V30 9417 N 943.16 1.10902 -5.51051 0
M  V30 9418 H 935.311 -0.612241 -2.03385 0
M  V30 9419 H 937.574 -0.212796 -0.923808 0
M  V30 9420 H 937.28 -0.201757 -3.51121 0
M  V30 9421 H 937.154 1.54703 -3.44016 0
M  V30 9422 H 939.541 1.64085 -2.45276 0
M  V30 9423 H 939.622 -0.123753 -2.555 0
M  V30 9424 H 939.266 0.0284537 -5.07892 0
M  V30 9425 H 939.196 1.80373 -4.94745 0
M  V30 9426 H 941.687 0.907827 -3.66834 0
M  V30 9427 H 942 1.24343 -7.62731 0
M  V30 9428 H 940.345 1.12511 -6.85833 0
M  V30 9429 H 943.536 1.04255 -4.56343 0
M  V30 9430 H 943.709 1.19581 -6.36871 0
M  V30 9431 N 937.115 1.49373 0.502552 0
M  V30 9432 C 938.531 1.36101 0.833591 0
M  V30 9433 C 938.731 0.392911 1.97632 0
M  V30 9434 O 937.787 -0.175975 2.51886 0
M  V30 9435 C 939.1 2.76782 1.17526 0
M  V30 9436 C 940.648 2.85471 1.28356 0
M  V30 9437 C 941.123 4.26915 1.65853 0
M  V30 9438 N 942.614 4.29719 1.72905 0
M  V30 9439 C 943.349 5.36127 2.0336 0
M  V30 9440 N 942.845 6.52782 2.32049 0
M  V30 9441 N 944.638 5.23542 2.04598 0
M  V30 9442 H 936.789 2.10912 -0.251008 0
M  V30 9443 H 939.052 0.946696 -0.0497037 0
M  V30 9444 H 938.758 3.49314 0.408965 0
M  V30 9445 H 938.632 3.1205 2.11907 0
M  V30 9446 H 941.019 2.13177 2.04058 0
M  V30 9447 H 941.1 2.53787 0.320304 0
M  V30 9448 H 940.744 4.99735 0.907022 0
M  V30 9449 H 940.674 4.56063 2.63276 0
M  V30 9450 H 943.165 3.45586 1.529 0
M  V30 9451 H 943.478 7.29701 2.54471 0
M  V30 9452 H 941.823 6.56011 2.29509 0
M  V30 9453 H 945.014 4.31413 1.8166 0
M  V30 9454 H 945.187 6.06565 2.27998 0
M  V30 9455 N 938.594 -0.753485 1.38421 0
M  V30 9456 C 939.843 -1.50797 1.33952 0
M  V30 9457 C 940.156 -1.95482 -0.0678464 0
M  V30 9458 O 941.362 -2.7048 -0.235078 0
M  V30 9459 C 939.818 -2.72393 2.35224 0
M  V30 9460 C 939.426 -2.34733 3.81582 0
M  V30 9461 C 941.17 -3.50281 2.39798 0
M  V30 9462 C 939.077 -3.52939 4.7454 0
M  V30 9463 H 938.007 -0.566211 0.497916 0
M  V30 9464 H 940.658 -0.823659 1.63976 0
M  V30 9465 H 939.04 -3.42806 1.98243 0
M  V30 9466 H 940.214 -1.71985 4.27502 0
M  V30 9467 H 938.529 -1.69978 3.80127 0
M  V30 9468 H 941.126 -4.38172 3.06447 0
M  V30 9469 H 941.469 -3.91444 1.41695 0
M  V30 9470 H 942.002 -2.86881 2.75579 0
M  V30 9471 H 938.741 -3.16843 5.73839 0
M  V30 9472 H 938.261 -4.1473 4.33312 0
M  V30 9473 H 939.94 -4.19519 4.92557 0
M  V30 9474 N 940.072 -1.23292 -0.981677 0
M  V30 9475 C 941.318 -1.06582 -1.72535 0
M  V30 9476 C 941.651 0.396538 -1.90108 0
M  V30 9477 O 940.926 1.29363 -1.45243 0
M  V30 9478 C 941.209 -1.7904 -3.12437 0
M  V30 9479 C 941.062 -3.32941 -3.02441 0
M  V30 9480 C 942.381 -1.55185 -4.11832 0
M  V30 9481 H 939.5 -0.388585 -0.626236 0
M  V30 9482 H 942.142 -1.51779 -1.14293 0
M  V30 9483 H 940.292 -1.40619 -3.62158 0
M  V30 9484 H 941.964 -3.80875 -2.60254 0
M  V30 9485 H 940.207 -3.62039 -2.38977 0
M  V30 9486 H 940.878 -3.78827 -4.0149 0
M  V30 9487 H 943.354 -1.88581 -3.70913 0
M  V30 9488 H 942.23 -2.08362 -5.07815 0
M  V30 9489 H 942.491 -0.486925 -4.3941 0
M  V30 9490 N 941.55 1.18024 -1.04442 0
M  V30 9491 C 942.48 2.23988 -0.659683 0
M  V30 9492 C 943.461 1.6669 0.338904 0
M  V30 9493 O 944.646 1.92971 0.21817 0
M  V30 9494 C 941.776 3.4729 -0.0257672 0
M  V30 9495 C 940.73 4.17362 -0.948299 0
M  V30 9496 C 940.056 5.34401 -0.17866 0
M  V30 9497 C 941.356 4.70435 -2.26909 0
M  V30 9498 H 943.05 2.56425 -1.54553 0
M  V30 9499 H 940.596 1.23256 -0.744575 0
M  V30 9500 H 942.549 4.20627 0.255131 0
M  V30 9501 H 941.273 3.14098 0.894981 0
M  V30 9502 H 939.932 3.45928 -1.21364 0
M  V30 9503 H 939.58 4.97458 0.744614 0
M  V30 9504 H 939.28 5.8222 -0.793294 0
M  V30 9505 H 940.804 6.10526 0.0951315 0
M  V30 9506 H 942.218 5.35447 -2.04864 0
M  V30 9507 H 940.615 5.28803 -2.83703 0
M  V30 9508 H 941.685 3.87653 -2.91296 0
M  V30 9509 N 943.028 0.824394 1.34319 0
M  V30 9510 C 943.975 0.245282 2.29493 0
M  V30 9511 C 944.945 -0.630762 1.53657 0
M  V30 9512 O 946.13 -0.572094 1.82021 0
M  V30 9513 C 943.27 -0.585631 3.40095 0
M  V30 9514 C 942.383 0.312821 4.30866 0
M  V30 9515 C 941.518 -0.527801 5.28571 0
M  V30 9516 C 940.557 0.369946 6.10981 0
M  V30 9517 N 939.694 -0.43169 7.00772 0
M  V30 9518 H 944.534 1.06225 2.78425 0
M  V30 9519 H 942.071 0.53533 1.37013 0
M  V30 9520 H 944.029 -1.08271 4.02906 0
M  V30 9521 H 942.659 -1.3677 2.92393 0
M  V30 9522 H 941.711 0.928129 3.68904 0
M  V30 9523 H 943.023 1.00306 4.8861 0
M  V30 9524 H 942.177 -1.0893 5.96841 0
M  V30 9525 H 940.916 -1.25154 4.71368 0
M  V30 9526 H 939.921 0.943577 5.41643 0
M  V30 9527 H 941.146 1.09182 6.70266 0
M  V30 9528 H 939.092 -1.13908 6.46035 0
M  V30 9529 H 939.009 0.200133 7.55735 0
M  V30 9530 H 940.277 -0.975894 7.73367 0
M  V30 9531 N 944.506 -1.46559 0.579492 0
M  V30 9532 C 945.731 -2.0729 0.0674595 0
M  V30 9533 C 946.156 -1.4259 -1.22677 0
M  V30 9534 O 945.514 -0.50857 -1.74021 0
M  V30 9535 C 945.562 -3.60492 -0.0882227 0
M  V30 9536 O 944.666 -3.96172 -1.14551 0
M  V30 9537 H 944.007 -0.661159 0.0613536 0
M  V30 9538 H 946.537 -1.88247 0.801519 0
M  V30 9539 H 946.547 -4.06929 -0.295411 0
M  V30 9540 H 945.222 -4.06976 0.856943 0
M  V30 9541 H 943.799 -3.61448 -0.917033 0
M  V30 9542 N 945.984 -0.3171 -1.54377 0
M  V30 9543 C 946.914 0.544623 -2.2706 0
M  V30 9544 C 947.895 1.12469 -1.27611 0
M  V30 9545 O 949.08 1.15103 -1.56413 0
M  V30 9546 C 946.21 1.70879 -3.02353 0
M  V30 9547 C 945.164 1.25833 -4.09084 0
M  V30 9548 C 944.49 2.50894 -4.72182 0
M  V30 9549 C 945.79 0.377876 -5.20931 0
M  V30 9550 H 947.484 -0.0616372 -2.99337 0
M  V30 9551 H 945.03 -0.0310848 -1.43966 0
M  V30 9552 H 946.983 2.31787 -3.51927 0
M  V30 9553 H 945.707 2.34155 -2.27682 0
M  V30 9554 H 944.366 0.672228 -3.60384 0
M  V30 9555 H 944.014 3.12518 -3.94134 0
M  V30 9556 H 943.714 2.21447 -5.44275 0
M  V30 9557 H 945.238 3.12575 -5.24528 0
M  V30 9558 H 946.652 0.893056 -5.66302 0
M  V30 9559 H 945.049 0.176474 -5.9984 0
M  V30 9560 H 946.119 -0.592943 -4.81261 0
M  V30 9561 N 947.462 1.57535 -0.0451378 0
M  V30 9562 C 948.372 2.14653 0.946646 0
M  V30 9563 C 949.388 1.10279 1.3459 0
M  V30 9564 O 950.564 1.42417 1.42405 0
M  V30 9565 C 947.629 2.67533 2.20515 0
M  V30 9566 C 946.69 3.86682 1.86481 0
M  V30 9567 C 945.923 4.37031 3.06332 0
M  V30 9568 O 946.146 3.86481 4.1951 0
M  V30 9569 O 945.08 5.28691 2.87697 0
M  V30 9570 H 948.906 2.99706 0.49091 0
M  V30 9571 H 946.491 1.48355 0.17641 0
M  V30 9572 H 948.373 3.01542 2.94365 0
M  V30 9573 H 947.048 1.85554 2.65238 0
M  V30 9574 H 945.955 3.57573 1.09966 0
M  V30 9575 H 947.288 4.69873 1.46562 0
M  V30 9576 N 948.94 -0.228186 1.55939 0
M  V30 9577 C 950.187 -0.953552 1.78644 0
M  V30 9578 C 950.515 -1.84596 0.61275 0
M  V30 9579 O 949.77 -1.91502 -0.403175 0
M  V30 9580 C 950.069 -1.82924 3.0704 0
M  V30 9581 C 949.735 -1.09062 4.37511 0
M  V30 9582 C 948.397 -0.886565 4.72962 0
M  V30 9583 C 950.749 -0.568533 5.1809 0
M  V30 9584 C 948.077 -0.148413 5.86512 0
M  V30 9585 C 950.429 0.156243 6.32407 0
M  V30 9586 C 949.093 0.371612 6.66465 0
M  V30 9587 H 948.363 -0.348929 0.653704 0
M  V30 9588 H 951.01 -0.222211 1.90206 0
M  V30 9589 H 949.315 -2.62823 2.90571 0
M  V30 9590 H 951.012 -2.3925 3.21808 0
M  V30 9591 H 947.602 -1.25963 4.09672 0
M  V30 9592 H 951.786 -0.713673 4.91142 0
M  V30 9593 H 947.042 0.0287418 6.11393 0
M  V30 9594 H 951.216 0.568333 6.94077 0
M  V30 9595 H 948.843 0.945522 7.54297 0
M  V30 9596 N 950.418 -1.49637 -0.494624 0
M  V30 9597 C 951.348 -1.69692 -1.60396 0
M  V30 9598 C 952.329 -0.545648 -1.61111 0
M  V30 9599 O 953.514 -0.782202 -1.77751 0
M  V30 9600 C 950.644 -1.76934 -2.9885 0
M  V30 9601 C 949.598 -2.91915 -3.13001 0
M  V30 9602 C 948.924 -2.84276 -4.5287 0
M  V30 9603 C 950.224 -4.32764 -2.92426 0
M  V30 9604 H 951.918 -2.6257 -1.43866 0
M  V30 9605 H 949.464 -1.26355 -0.690679 0
M  V30 9606 H 951.417 -1.8955 -3.76362 0
M  V30 9607 H 950.141 -0.806609 -3.16483 0
M  V30 9608 H 948.8 -2.78911 -2.37916 0
M  V30 9609 H 948.448 -1.85897 -4.67388 0
M  V30 9610 H 948.148 -3.61452 -4.63278 0
M  V30 9611 H 949.672 -2.98909 -5.32434 0
M  V30 9612 H 951.086 -4.46415 -3.59703 0
M  V30 9613 H 949.483 -5.1121 -3.143 0
M  V30 9614 H 950.553 -4.46765 -1.88491 0
M  V30 9615 N 951.896 0.746133 -1.38819 0
M  V30 9616 C 952.859 1.84167 -1.36437 0
M  V30 9617 C 953.859 1.58626 -0.263499 0
M  V30 9618 O 955.049 1.66233 -0.520801 0
M  V30 9619 C 952.181 3.21769 -1.12596 0
M  V30 9620 H 953.374 1.87684 -2.33912 0
M  V30 9621 H 950.927 0.948625 -1.24221 0
M  V30 9622 H 951.662 3.23917 -0.15758 0
M  V30 9623 H 951.447 3.41702 -1.92307 0
M  V30 9624 H 952.937 4.0184 -1.13643 0
M  V30 9625 N 953.375 1.23811 0.975125 0
M  V30 9626 C 954.325 0.991036 2.05335 0
M  V30 9627 C 955.309 -0.0648793 1.60769 0
M  V30 9628 O 956.501 0.147917 1.76381 0
M  V30 9629 C 953.63 0.589822 3.38195 0
M  V30 9630 C 952.716 1.68142 3.89344 0
M  V30 9631 N 953.107 2.91274 4.13513 0
M  V30 9632 C 951.405 1.55722 4.17931 0
M  V30 9633 C 952.106 3.61987 4.55347 0
M  V30 9634 N 951.082 2.8952 4.60086 0
M  V30 9635 H 954.884 1.92612 2.21986 0
M  V30 9636 H 952.398 1.13827 1.15832 0
M  V30 9637 H 954.395 0.394075 4.15033 0
M  V30 9638 H 953.055 -0.338157 3.22934 0
M  V30 9639 H 954.066 3.27528 4.01181 0
M  V30 9640 H 950.743 0.696732 4.11645 0
M  V30 9641 H 952.133 4.67572 4.8252 0
M  V30 9642 N 954.853 -1.17469 1.05066 0
M  V30 9643 C 956.264 -1.69334 0.786304 0
M  V30 9644 C 956.615 -1.83604 -0.691671 0
M  V30 9645 O 955.74 -1.52269 -1.53763 0
M  V30 9646 C 956.335 -3.07572 1.42074 0
M  V30 9647 C 954.894 -3.56609 1.20446 0
M  V30 9648 C 954.041 -2.329 1.50508 0
M  V30 9649 H 956.992 -1.02003 1.21577 0
M  V30 9650 H 957.013 -3.71352 0.829334 0
M  V30 9651 H 956.525 -2.97154 2.49642 0
M  V30 9652 H 954.626 -3.72306 0.147968 0
M  V30 9653 H 954.739 -4.39446 1.90852 0
M  V30 9654 H 953.103 -2.37305 0.925124 0
M  V30 9655 H 953.886 -2.25093 2.59207 0
M  V30 9656 N 956.331 -0.831506 -1.3388 0
M  V30 9657 C 957.261 -0.274378 -2.31882 0
M  V30 9658 C 958.242 0.613872 -1.58637 0
M  V30 9659 O 959.427 0.538961 -1.86571 0
M  V30 9660 C 956.557 0.557498 -3.42796 0
M  V30 9661 C 955.511 -0.234337 -4.27358 0
M  V30 9662 C 954.837 0.720825 -5.29819 0
M  V30 9663 C 956.137 -1.44732 -5.01847 0
M  V30 9664 H 957.831 -1.09322 -2.78728 0
M  V30 9665 H 955.377 -0.527136 -1.34005 0
M  V30 9666 H 957.33 0.957501 -4.10378 0
M  V30 9667 H 956.054 1.40947 -2.94621 0
M  V30 9668 H 954.713 -0.61581 -3.61391 0
M  V30 9669 H 954.361 1.569 -4.77903 0
M  V30 9670 H 954.061 0.195171 -5.87276 0
M  V30 9671 H 955.585 1.1185 -6.00268 0
M  V30 9672 H 956.999 -1.12087 -5.62236 0
M  V30 9673 H 955.396 -1.90923 -5.68919 0
M  V30 9674 H 956.466 -2.22099 -4.31045 0
M  V30 9675 N 957.809 1.4625 -0.587256 0
M  V30 9676 C 958.772 2.28812 0.133238 0
M  V30 9677 C 959.772 1.38645 0.814513 0
M  V30 9678 O 960.962 1.60975 0.665774 0
M  V30 9679 C 958.094 3.19147 1.19824 0
M  V30 9680 H 959.287 2.93991 -0.592386 0
M  V30 9681 H 956.84 1.52435 -0.345416 0
M  V30 9682 H 957.575 2.58725 1.95529 0
M  V30 9683 H 957.36 3.85541 0.71418 0
M  V30 9684 H 958.85 3.81278 1.70344 0
M  V30 9685 N 959.287 0.325282 1.54207 0
M  V30 9686 C 960.217 -0.532574 2.27345 0
M  V30 9687 C 961.198 -1.11791 1.28206 0
M  V30 9688 O 962.383 -1.14272 1.57021 0
M  V30 9689 C 959.513 -1.69274 3.03255 0
M  V30 9690 C 958.467 -1.23662 4.09746 0
M  V30 9691 C 957.793 -2.48386 4.73506 0
M  V30 9692 C 959.093 -0.350244 5.21124 0
M  V30 9693 H 960.787 0.0775108 2.993 0
M  V30 9694 H 958.333 0.0387193 1.43948 0
M  V30 9695 H 960.286 -2.29917 3.53152 0
M  V30 9696 H 959.01 -2.32944 2.28921 0
M  V30 9697 H 957.669 -0.653106 3.60735 0
M  V30 9698 H 957.317 -3.10424 3.95786 0
M  V30 9699 H 957.017 -2.18558 5.45441 0
M  V30 9700 H 958.541 -3.09789 5.26178 0
M  V30 9701 H 959.955 -0.863011 5.66767 0
M  V30 9702 H 958.352 -0.14466 5.99926 0
M  V30 9703 H 959.422 0.618457 4.8094 0
M  V30 9704 N 960.765 -1.57509 0.0534917 0
M  V30 9705 C 961.993 -1.97098 -0.629298 0
M  V30 9706 C 962.408 -0.931128 -1.64242 0
M  V30 9707 O 961.765 0.0843866 -1.82305 0
M  V30 9708 C 961.816 -3.36767 -1.31415 0
M  V30 9709 O 961.537 -4.36766 -0.341599 0
M  V30 9710 C 963.038 -3.91127 -2.08649 0
M  V30 9711 H 960.258 -0.648611 -0.171886 0
M  V30 9712 H 962.802 -2.04145 0.120479 0
M  V30 9713 H 960.957 -3.30863 -2.01515 0
M  V30 9714 H 961.371 -5.1788 -0.830715 0
M  V30 9715 H 962.845 -4.91129 -2.51985 0
M  V30 9716 H 963.322 -3.26679 -2.9356 0
M  V30 9717 H 963.928 -4.00376 -1.43456 0
M  V30 9718 N 962.243 0.219913 -1.56058 0
M  V30 9719 C 963.492 0.942119 -1.78345 0
M  V30 9720 C 963.805 1.85435 -0.622344 0
M  V30 9721 O 965.011 2.61533 -0.728886 0
M  V30 9722 C 963.467 1.72544 -3.15843 0
M  V30 9723 C 963.075 0.859263 -4.39682 0
M  V30 9724 C 964.819 2.43876 -3.47455 0
M  V30 9725 C 962.726 1.64003 -5.68205 0
M  V30 9726 H 961.656 0.355514 -0.664925 0
M  V30 9727 H 964.307 0.195963 -1.82451 0
M  V30 9728 H 962.689 2.51456 -3.05918 0
M  V30 9729 H 963.863 0.110562 -4.60667 0
M  V30 9730 H 962.178 0.257985 -4.156 0
M  V30 9731 H 964.775 3.02794 -4.40704 0
M  V30 9732 H 965.118 3.16843 -2.7003 0
M  V30 9733 H 965.651 1.71952 -3.58716 0
M  V30 9734 H 962.39 0.953606 -6.48526 0
M  V30 9735 H 961.91 2.3633 -5.51279 0
M  V30 9736 H 963.589 2.20028 -6.08438 0
M  V30 9737 N 963.721 1.49897 0.486681 0
M  V30 9738 C 964.968 1.60105 1.23986 0
M  V30 9739 C 965.296 0.294228 1.92262 0
M  V30 9740 O 964.551 -0.718876 1.82018 0
M  V30 9741 C 964.85 2.71982 2.31863 0
M  V30 9742 C 964.516 4.13 1.80948 0
M  V30 9743 C 963.178 4.51373 1.66782 0
M  V30 9744 C 965.53 5.01198 1.43004 0
M  V30 9745 C 962.858 5.75701 1.13072 0
M  V30 9746 C 965.21 6.26058 0.90742 0
M  V30 9747 C 963.874 6.63247 0.752269 0
M  V30 9748 H 963.144 0.585866 0.453698 0
M  V30 9749 H 965.791 1.83778 0.538305 0
M  V30 9750 H 964.096 2.42336 3.07865 0
M  V30 9751 H 965.793 2.77087 2.89869 0
M  V30 9752 H 962.383 3.82718 1.92937 0
M  V30 9753 H 966.567 4.72196 1.52789 0
M  V30 9754 H 961.823 6.03202 0.997842 0
M  V30 9755 H 965.997 6.9377 0.604684 0
M  V30 9756 H 963.624 7.59466 0.33392 0
M  V30 9757 N 965.199 -0.738761 1.39212 0
M  V30 9758 C 966.109 -1.88324 1.39897 0
M  V30 9759 C 967.125 -1.71494 0.294229 0
M  V30 9760 O 968.301 -1.94162 0.535087 0
M  V30 9761 C 965.366 -3.23871 1.23726 0
M  V30 9762 C 964.427 -3.53121 2.44139 0
M  V30 9763 C 963.66 -4.82202 2.2873 0
M  V30 9764 O 963.883 -5.55649 1.28879 0
M  V30 9765 O 962.817 -5.11265 3.17634 0
M  V30 9766 H 966.643 -1.90701 2.36362 0
M  V30 9767 H 964.228 -0.886067 1.20288 0
M  V30 9768 H 966.11 -4.04882 1.16826 0
M  V30 9769 H 964.785 -3.22274 0.303551 0
M  V30 9770 H 963.692 -2.72212 2.56615 0
M  V30 9771 H 965.025 -3.59495 3.36191 0
M  V30 9772 N 966.677 -1.24326 -0.968545 0
M  V30 9773 C 967.954 -0.990459 -1.68669 0
M  V30 9774 C 968.334 0.487487 -2.05394 0
M  V30 9775 O 967.682 1.46158 -1.75642 0
M  V30 9776 C 967.892 -1.91251 -2.91931 0
M  V30 9777 C 969.24 -2.18291 -3.6419 0
M  V30 9778 O 970.264 -1.88897 -3.01987 0
M  V30 9779 O 969.123 -2.68204 -4.76161 0
M  V30 9780 H 966.217 -0.374515 -0.737338 0
M  V30 9781 H 968.763 -1.35421 -1.02271 0
M  V30 9782 H 967.535 -2.9111 -2.61478 0
M  V30 9783 H 967.158 -1.55188 -3.66064 0
M  V30 9784 N 968.156 1.1691 -1.05688 0
M  V30 9785 C 969.572 1.39288 -0.779167 0
M  V30 9786 C 969.772 1.91587 0.624231 0
M  V30 9787 O 968.828 2.11072 1.38582 0
M  V30 9788 C 970.141 2.37914 -1.83895 0
M  V30 9789 C 971.689 2.51611 -1.86175 0
M  V30 9790 C 972.164 3.53514 -2.9119 0
M  V30 9791 N 973.655 3.61036 -2.90184 0
M  V30 9792 C 974.39 4.39657 -3.68088 0
M  V30 9793 N 973.886 5.21752 -4.55793 0
M  V30 9794 N 975.679 4.3458 -3.56507 0
M  V30 9795 H 967.83 0.81296 -1.96226 0
M  V30 9796 H 970.093 0.419818 -0.849975 0
M  V30 9797 H 969.799 2.06568 -2.84645 0
M  V30 9798 H 969.673 3.37483 -1.68479 0
M  V30 9799 H 972.06 2.82264 -0.86087 0
M  V30 9800 H 972.141 1.52099 -2.05668 0
M  V30 9801 H 971.785 3.23599 -3.91467 0
M  V30 9802 H 971.715 4.52742 -2.68947 0
M  V30 9803 H 974.206 3.02428 -2.26596 0
M  V30 9804 H 974.519 5.78939 -5.11907 0
M  V30 9805 H 972.864 5.21116 -4.59851 0
M  V30 9806 H 976.055 3.69501 -2.87379 0
M  V30 9807 H 976.228 4.95607 -4.17466 0
M  V30 9808 N 969.634 0.838594 1.33437 0
M  V30 9809 C 970.88 0.434813 1.98084 0
M  V30 9810 C 971.213 -1.00331 1.66275 0
M  V30 9811 O 970.488 -1.70139 0.942501 0
M  V30 9812 C 970.771 0.655602 3.54082 0
M  V30 9813 C 970.624 2.14097 3.95578 0
M  V30 9814 C 971.943 0.101576 4.39983 0
M  V30 9815 H 969.062 0.159456 0.719544 0
M  V30 9816 H 971.704 1.05406 1.58081 0
M  V30 9817 H 969.854 0.128501 3.88287 0
M  V30 9818 H 971.526 2.73292 3.71631 0
M  V30 9819 H 969.769 2.62558 3.4532 0
M  V30 9820 H 970.44 2.24621 5.04231 0
M  V30 9821 H 972.916 0.552122 4.12421 0
M  V30 9822 H 971.792 0.28575 5.48156 0
M  V30 9823 H 972.053 -0.994616 4.30767 0
M  V30 9824 N 971.112 -1.45937 0.595003 0
M  V30 9825 C 972.342 -2.06399 0.0911607 0
M  V30 9826 C 972.75 -1.44236 -1.22444 0
M  V30 9827 O 972.093 -0.546265 -1.7539 0
M  V30 9828 C 972.155 -3.59242 -0.136079 0
M  V30 9829 C 971.819 -4.43668 1.09579 0
M  V30 9830 C 972.816 -4.79437 2.01088 0
M  V30 9831 C 970.501 -4.84616 1.32109 0
M  V30 9832 C 972.495 -5.54995 3.13464 0
M  V30 9833 C 970.182 -5.5993 2.44788 0
M  V30 9834 C 971.18 -5.95035 3.35294 0
M  V30 9835 O 970.868 -6.68825 4.46014 0
M  V30 9836 H 970.6 -0.673316 0.0601779 0
M  V30 9837 H 973.154 -1.88365 0.819005 0
M  V30 9838 H 971.384 -3.75629 -0.918676 0
M  V30 9839 H 973.073 -4.0159 -0.589954 0
M  V30 9840 H 973.839 -4.48371 1.84902 0
M  V30 9841 H 969.718 -4.56735 0.625662 0
M  V30 9842 H 973.262 -5.82314 3.84131 0
M  V30 9843 H 969.159 -5.90411 2.60931 0
M  V30 9844 H 969.927 -6.87262 4.44537 0
M  V30 9845 N 972.59 -0.333456 -1.54032 0
M  V30 9846 C 973.836 0.259248 -2.01741 0
M  V30 9847 C 974.191 1.48999 -1.21725 0
M  V30 9848 O 973.484 1.89333 -0.293882 0
M  V30 9849 C 973.678 0.63565 -3.51702 0
M  V30 9850 C 973.507 -0.55707 -4.46236 0
M  V30 9851 C 972.277 -1.05925 -4.94073 0
M  V30 9852 C 974.475 -1.41237 -4.94527 0
M  V30 9853 N 972.457 -2.21535 -5.72534 0
M  V30 9854 C 973.828 -2.41551 -5.71011 0
M  V30 9855 C 975.883 -1.43899 -4.76652 0
M  V30 9856 C 974.586 -3.44342 -6.31523 0
M  V30 9857 C 976.612 -2.45567 -5.38006 0
M  V30 9858 C 975.974 -3.44606 -6.1435 0
M  V30 9859 H 972.073 0.0584431 -0.779813 0
M  V30 9860 H 974.657 -0.470736 -1.88924 0
M  V30 9861 H 972.828 1.33475 -3.64745 0
M  V30 9862 H 974.56 1.21067 -3.86167 0
M  V30 9863 H 971.315 -0.628947 -4.69405 0
M  V30 9864 H 971.739 -2.79878 -6.16439 0
M  V30 9865 H 976.381 -0.686929 -4.17182 0
M  V30 9866 H 974.099 -4.20449 -6.90107 0
M  V30 9867 H 977.685 -2.4844 -5.26088 0
M  V30 9868 H 976.565 -4.21987 -6.60982 0
M  V30 9869 N 974.068 1.57479 -0.061844 0
M  V30 9870 C 975.317 1.92285 0.609055 0
M  V30 9871 C 975.63 0.942983 1.71369 0
M  V30 9872 O 976.836 1.18349 2.44348 0
M  V30 9873 C 975.292 3.41545 1.13468 0
M  V30 9874 C 974.9 4.47958 0.0615926 0
M  V30 9875 C 976.644 3.85368 1.78022 0
M  V30 9876 C 974.551 5.88341 0.600705 0
M  V30 9877 H 973.481 0.717656 0.23127 0
M  V30 9878 H 976.132 1.83021 -0.132466 0
M  V30 9879 H 974.514 3.45848 1.92886 0
M  V30 9880 H 975.688 4.55258 -0.712527 0
M  V30 9881 H 974.003 4.13541 -0.487116 0
M  V30 9882 H 976.6 4.87627 2.19371 0
M  V30 9883 H 976.943 3.22193 2.63623 0
M  V30 9884 H 977.476 3.83626 1.05242 0
M  V30 9885 H 974.215 6.55138 -0.217922 0
M  V30 9886 H 973.735 5.84581 1.34257 0
M  V30 9887 H 975.414 6.37918 1.08025 0
M  V30 9888 N 975.546 -0.211634 1.56173 0
M  V30 9889 C 976.823 -0.959467 1.70451 0
M  V30 9890 C 977.203 -2.02036 0.611942 0
M  V30 9891 O 976.551 -2.25325 -0.37959 0
M  V30 9892 C 976.761 -1.56092 3.12148 0
M  V30 9893 C 978.109 -2.04939 3.71867 0
M  V30 9894 O 979.133 -1.65966 3.15172 0
M  V30 9895 O 977.992 -2.766 4.71333 0
M  V30 9896 H 975.086 -0.448844 0.6946 0
M  V30 9897 H 977.632 -0.202633 1.68486 0
M  V30 9898 H 976.404 -0.79538 3.83131 0
M  V30 9899 H 976.027 -2.38303 3.18273 0
M  V30 9900 N 977.024 -1.50153 -0.478725 0
M  V30 9901 C 978.272 -1.60443 -1.22892 0
M  V30 9902 C 978.593 -0.303276 -1.92627 0
M  V30 9903 O 977.863 0.678798 -1.83764 0
M  V30 9904 H 976.443 -0.591205 -0.456602 0
M  V30 9905 H 979.105 -1.86893 -0.552905 0
M  V30 9906 H 978.201 -2.41175 -1.98094 0
M  V30 9907 N 978.502 0.731368 -1.39602 0
M  V30 9908 C 979.412 1.87579 -1.40894 0
M  V30 9909 C 980.428 1.71336 -0.303319 0
M  V30 9910 O 981.604 1.93875 -0.545377 0
M  V30 9911 C 978.669 3.23211 -1.25442 0
M  V30 9912 C 977.73 3.51822 -2.46008 0
M  V30 9913 C 976.963 4.80982 -2.31284 0
M  V30 9914 O 977.186 5.54958 -1.31824 0
M  V30 9915 O 976.12 5.09574 -3.20341 0
M  V30 9916 H 979.946 1.89444 -2.3737 0
M  V30 9917 H 977.531 0.879675 -1.20756 0
M  V30 9918 H 979.413 4.04257 -1.18972 0
M  V30 9919 H 978.088 3.22108 -0.320637 0
M  V30 9920 H 976.995 2.70847 -2.58055 0
M  V30 9921 H 978.328 3.57707 -3.38093 0
M  V30 9922 N 979.98 1.24838 0.961938 0
M  V30 9923 C 980.928 1.0436 2.07874 0
M  V30 9924 C 981.922 -0.0232531 1.69384 0
M  V30 9925 O 983.128 0.131773 1.79517 0
M  V30 9926 H 979.503 0.320492 0.680286 0
M  V30 9927 H 981.474 1.99055 2.22306 0
M  V30 9928 C 980.223 0.671246 3.41159 0
M  V30 9929 H 979.546 1.48395 3.7124 0
M  V30 9930 H 980.986 0.567608 4.20184 0
M  V30 9931 C 979.445 -0.622124 3.31106 0
M  V30 9932 O 979.975 -1.66627 3.65511 0
M  V30 9933 N 978.181 -0.605009 2.84232 0
M  V30 9934 H 977.728 0.245052 2.56432 0
M  V30 9935 H 977.686 -1.47056 2.77888 0
M  V30 9936 N 981.458 -1.16348 1.06306 0
M  V30 9937 C 982.368 -2.24375 0.685059 0
M  V30 9938 C 983.384 -1.71413 -0.298956 0
M  V30 9939 O 984.56 -2.00854 -0.148239 0
M  V30 9940 C 981.625 -3.46614 0.0774088 0
M  V30 9941 C 980.686 -4.14613 1.11331 0
M  V30 9942 C 979.919 -5.31016 0.534559 0
M  V30 9943 O 980.142 -5.66654 -0.65265 0
M  V30 9944 O 979.076 -5.88256 1.27431 0
M  V30 9945 H 982.902 -2.59018 1.58566 0
M  V30 9946 H 980.487 -1.23865 0.835332 0
M  V30 9947 H 982.369 -4.20599 -0.259716 0
M  V30 9948 H 981.044 -3.13743 -0.796677 0
M  V30 9949 H 979.951 -3.42597 1.50261 0
M  V30 9950 H 981.284 -4.51538 1.95893 0
M  V30 9951 N 982.937 -0.845659 -1.3299 0
M  V30 9952 C 983.9 -0.288905 -2.27372 0
M  V30 9953 C 984.9 0.546263 -1.51237 0
M  V30 9954 O 986.09 0.359072 -1.70459 0
M  V30 9955 C 983.222 0.59224 -3.35716 0
M  V30 9956 H 984.415 -1.12181 -2.78128 0
M  V30 9957 H 981.968 -0.619276 -1.43508 0
M  V30 9958 H 982.703 1.44732 -2.90212 0
M  V30 9959 H 982.488 -0.00543255 -3.921 0
M  V30 9960 H 983.978 0.974848 -4.06062 0
M  V30 9961 N 984.415 1.45619 -0.602734 0
M  V30 9962 C 985.661 2.02572 -0.0961759 0
M  V30 9963 C 985.994 1.47076 1.26815 0
M  V30 9964 O 985.269 0.643566 1.83544 0
M  V30 9965 C 985.552 3.60062 -0.0520032 0
M  V30 9966 C 985.405 4.25901 -1.44665 0
M  V30 9967 C 986.724 4.35446 0.638342 0
M  V30 9968 H 983.843 0.736099 -0.0364238 0
M  V30 9969 H 986.485 1.7353 -0.773776 0
M  V30 9970 H 984.635 3.84936 0.525032 0
M  V30 9971 H 986.307 4.12228 -2.0704 0
M  V30 9972 H 984.55 3.84489 -2.00874 0
M  V30 9973 H 985.221 5.34779 -1.36803 0
M  V30 9974 H 987.697 4.15837 0.147926 0
M  V30 9975 H 986.573 5.45176 0.63834 0
M  V30 9976 H 986.834 4.07962 1.70351 0
M  V30 9977 N 985.893 0.34162 1.53853 0
M  V30 9978 C 987.123 -0.256557 2.05001 0
M  V30 9979 C 987.531 -1.44916 1.21639 0
M  V30 9980 O 986.874 -1.8207 0.244138 0
M  V30 9981 C 986.936 -0.737109 3.51862 0
M  V30 9982 C 986.6 0.335584 4.55766 0
M  V30 9983 C 987.597 1.17765 5.06387 0
M  V30 9984 C 985.282 0.488958 4.99914 0
M  V30 9985 C 987.276 2.15865 5.99734 0
M  V30 9986 C 984.963 1.47336 5.93073 0
M  V30 9987 C 985.961 2.30666 6.4287 0
M  V30 9988 O 985.649 3.2743 7.34197 0
M  V30 9989 H 985.381 -0.0536867 0.673865 0
M  V30 9990 H 987.935 0.49123 1.99439 0
M  V30 9991 H 986.165 -1.53611 3.54881 0
M  V30 9992 H 987.854 -1.25562 3.85991 0
M  V30 9993 H 988.62 1.07023 4.73044 0
M  V30 9994 H 984.499 -0.149807 4.60757 0
M  V30 9995 H 988.043 2.80945 6.38526 0
M  V30 9996 H 983.94 1.58134 6.25831 0
M  V30 9997 H 984.708 3.22879 7.52125 0
M  V30 9998 N 987.371 -1.57444 0.0701946 0
M  V30 9999 C 988.619 -1.93047 -0.598106 0
M  V30 10000 C 988.94 -0.950841 -1.70247 0
M  V30 10001 O 988.21 0.00127177 -1.959 0
M  V30 10002 H 986.79 -0.712648 -0.223924 0
M  V30 10003 H 989.452 -1.94481 0.127674 0
M  V30 10004 H 988.548 -2.94807 -1.02445 0
M  V30 10005 N 988.849 0.203349 -1.56283 0
M  V30 10006 C 989.812 1.23566 -1.93039 0
M  V30 10007 C 990.812 1.38869 -0.810687 0
M  V30 10008 O 992.002 1.36822 -1.07821 0
M  V30 10009 C 989.134 2.60645 -2.1972 0
M  V30 10010 H 990.327 0.921692 -2.85385 0
M  V30 10011 H 987.88 0.44453 -1.49845 0
M  V30 10012 H 988.615 2.9711 -1.29985 0
M  V30 10013 H 988.4 2.50911 -3.01307 0
M  V30 10014 H 989.89 3.35103 -2.4919 0
M  V30 10015 N 990.327 1.50405 0.470755 0
M  V30 10016 C 991.275 1.6982 1.58946 0
M  V30 10017 C 992.269 0.56407 1.59733 0
M  V30 10018 O 993.475 0.744576 1.63878 0
M  V30 10019 H 989.85 0.536016 0.527438 0
M  V30 10020 H 991.821 2.63662 1.39732 0
M  V30 10021 C 990.57 1.80986 2.96883 0
M  V30 10022 H 989.893 2.67645 2.96996 0
M  V30 10023 H 991.333 1.98596 3.74614 0
M  V30 10024 C 989.792 0.561551 3.32187 0
M  V30 10025 O 990.322 -0.299136 4.00585 0
M  V30 10026 N 988.528 0.415476 2.87615 0
M  V30 10027 H 988.075 1.11691 2.32127 0
M  V30 10028 H 988.033 -0.418592 3.11601 0
M  V30 10029 N 991.805 -0.723954 1.39988 0
M  V30 10030 C 992.752 -1.83803 1.39589 0
M  V30 10031 C 993.722 -1.64146 0.253996 0
M  V30 10032 O 994.907 -1.85398 0.450793 0
M  V30 10033 C 992.047 -3.21431 1.25604 0
M  V30 10034 C 991.16 -3.52717 2.49429 0
M  V30 10035 C 990.295 -4.79805 2.27949 0
M  V30 10036 C 989.334 -5.03968 3.47394 0
M  V30 10037 N 988.471 -6.22266 3.25161 0
M  V30 10038 H 993.311 -1.83479 2.34818 0
M  V30 10039 H 990.848 -0.896396 1.16633 0
M  V30 10040 H 992.806 -4.00892 1.15504 0
M  V30 10041 H 991.436 -3.21005 0.339986 0
M  V30 10042 H 990.488 -2.67872 2.7009 0
M  V30 10043 H 991.8 -3.66486 3.38363 0
M  V30 10044 H 990.954 -5.67268 2.15155 0
M  V30 10045 H 989.693 -4.68229 1.36428 0
M  V30 10046 H 988.698 -4.14963 3.60674 0
M  V30 10047 H 989.923 -5.17422 4.39831 0
M  V30 10048 H 987.869 -6.11957 2.36314 0
M  V30 10049 H 987.786 -6.36673 4.07656 0
M  V30 10050 H 989.054 -7.12539 3.16083 0
M  V30 10051 N 993.283 -1.25346 -0.955304 0
M  V30 10052 C 994.53 -1.10055 -1.69983 0
M  V30 10053 C 994.858 0.358586 -1.91166 0
M  V30 10054 O 994.113 1.28071 -1.47974 0
M  V30 10055 C 994.412 -1.7993 -3.08804 0
M  V30 10056 C 994.078 -3.29851 -3.07424 0
M  V30 10057 C 992.74 -3.7075 -3.06754 0
M  V30 10058 C 995.092 -4.25636 -3.00805 0
M  V30 10059 C 992.42 -5.05847 -2.97214 0
M  V30 10060 C 994.772 -5.60756 -2.92806 0
M  V30 10061 C 993.436 -6.00984 -2.90472 0
M  V30 10062 H 992.706 -0.402718 -0.622012 0
M  V30 10063 H 995.353 -1.5561 -1.11614 0
M  V30 10064 H 993.658 -1.26803 -3.70713 0
M  V30 10065 H 995.355 -1.65551 -3.65231 0
M  V30 10066 H 991.945 -2.97308 -3.08716 0
M  V30 10067 H 996.129 -3.9503 -3.00441 0
M  V30 10068 H 991.385 -5.36196 -2.93775 0
M  V30 10069 H 995.559 -6.34671 -2.86645 0
M  V30 10070 H 993.186 -7.05626 -2.82835 0
M  V30 10071 N 994.761 1.15782 -1.06922 0
M  V30 10072 C 995.989 1.90355 -0.81072 0
M  V30 10073 C 996.404 1.77779 0.635614 0
M  V30 10074 O 995.761 1.12675 1.43564 0
M  V30 10075 C 995.812 3.4085 -1.2043 0
M  V30 10076 O 995.533 3.53057 -2.59388 0
M  V30 10077 C 997.034 4.32457 -0.974473 0
M  V30 10078 H 994.254 0.60343 -0.293451 0
M  V30 10079 H 996.798 1.46723 -1.42452 0
M  V30 10080 H 994.953 3.82162 -0.634909 0
M  V30 10081 H 995.367 4.46426 -2.75326 0
M  V30 10082 H 996.841 5.36488 -1.29942 0
M  V30 10083 H 997.318 4.39109 0.0894481 0
M  V30 10084 H 997.924 3.96882 -1.52856 0
M  V30 10085 N 996.239 0.8527 1.3254 0
M  V30 10086 C 997.487 0.454224 1.96929 0
M  V30 10087 C 997.808 -0.993034 1.67821 0
M  V30 10088 O 997.078 -1.69371 0.984393 0
M  V30 10089 H 995.658 0.164977 0.728554 0
M  V30 10090 H 998.32 1.0887 1.61658 0
M  V30 10091 H 997.416 0.597667 3.06324 0
M  V30 10092 N 997.718 -1.45297 0.610449 0
M  V30 10093 C 998.943 -2.07101 0.111414 0
M  V30 10094 C 999.368 -1.45161 -1.19625 0
M  V30 10095 O 998.726 -0.545368 -1.72903 0
M  V30 10096 C 998.774 -3.60598 -0.0117372 0
M  V30 10097 O 997.878 -3.98512 -1.06122 0
M  V30 10098 H 997.219 -0.659709 0.075364 0
M  V30 10099 H 999.749 -1.86504 0.841269 0
M  V30 10100 H 999.759 -4.07464 -0.209028 0
M  V30 10101 H 998.434 -4.05067 0.943076 0
M  V30 10102 H 997.011 -3.63312 -0.840158 0
M  V30 10103 N 999.196 -0.349774 -1.5367 0
M  V30 10104 C 1000.11 0.512421 -2.28935 0
M  V30 10105 C 1001.12 1.1065 -1.34286 0
M  V30 10106 O 1002.3 1.12084 -1.67329 0
M  V30 10107 C 999.363 1.64449 -3.05217 0
M  V30 10108 C 998.424 1.07956 -4.15505 0
M  V30 10109 C 997.657 2.15768 -4.88139 0
M  V30 10110 O 997.88 3.366 -4.60496 0
M  V30 10111 O 996.814 1.79712 -5.74445 0
M  V30 10112 H 1000.64 -0.0996001 -3.03537 0
M  V30 10113 H 998.225 -0.114629 -1.4896 0
M  V30 10114 H 1000.11 2.30302 -3.52901 0
M  V30 10115 H 998.782 2.24221 -2.33467 0
M  V30 10116 H 997.689 0.385381 -3.7211 0
M  V30 10117 H 999.022 0.526621 -4.89375 0
M  V30 10118 N 1000.67 1.57404 -0.0785433 0
M  V30 10119 C 1001.6 2.16131 0.883726 0
M  V30 10120 C 1002.58 1.09015 1.30575 0
M  V30 10121 O 1003.77 1.3708 1.37559 0
M  V30 10122 C 1000.9 2.72836 2.1489 0
M  V30 10123 C 999.854 3.85178 1.86605 0
M  V30 10124 C 999.18 4.28516 3.1981 0
M  V30 10125 C 1000.48 5.09118 1.16601 0
M  V30 10126 H 1002.17 2.9679 0.394484 0
M  V30 10127 H 999.72 1.42763 0.188304 0
M  V30 10128 H 1001.67 3.12567 2.8263 0
M  V30 10129 H 1000.4 1.89408 2.66068 0
M  V30 10130 H 999.056 3.45962 1.21268 0
M  V30 10131 H 998.704 3.42 3.68843 0
M  V30 10132 H 998.404 5.04249 3.01674 0
M  V30 10133 H 999.928 4.70868 3.88737 0
M  V30 10134 H 1001.34 5.46123 1.74422 0
M  V30 10135 H 999.739 5.90173 1.087 0
M  V30 10136 H 1000.81 4.8468 0.146138 0
M  V30 10137 N 1002.15 -0.195058 1.56388 0
M  V30 10138 C 1003.11 -1.2254 1.93692 0
M  V30 10139 C 1004.11 -1.38437 0.81804 0
M  V30 10140 O 1005.3 -1.36248 1.08545 0
M  V30 10141 C 1002.44 -2.59476 2.21099 0
M  V30 10142 H 1003.63 -0.906544 2.8587 0
M  V30 10143 H 1001.18 -0.436577 1.50079 0
M  V30 10144 H 1001.92 -2.96417 1.31558 0
M  V30 10145 H 1001.7 -2.4931 3.02634 0
M  V30 10146 H 1003.19 -3.33777 2.50964 0
M  V30 10147 N 1003.63 -1.50653 -0.462772 0
M  V30 10148 C 1004.86 -1.65826 -1.23731 0
M  V30 10149 C 1005.27 -0.345002 -1.85621 0
M  V30 10150 O 1004.63 0.673935 -1.69601 0
M  V30 10151 C 1004.68 -2.7555 -2.33997 0
M  V30 10152 O 1004.4 -4.01785 -1.74643 0
M  V30 10153 C 1005.9 -3.0177 -3.2473 0
M  V30 10154 H 1003.12 -0.557177 -0.373892 0
M  V30 10155 H 1005.67 -1.96925 -0.551434 0
M  V30 10156 H 1003.82 -2.47122 -2.98345 0
M  V30 10157 H 1004.24 -4.62529 -2.4732 0
M  V30 10158 H 1005.71 -3.82188 -3.98292 0
M  V30 10159 H 1006.19 -2.13167 -3.84001 0
M  V30 10160 H 1006.79 -3.31761 -2.66111 0
M  V30 10161 N 1005.11 0.71652 -1.4037 0
M  V30 10162 C 1006.04 1.84345 -1.43315 0
M  V30 10163 C 1007.02 1.67537 -0.294186 0
M  V30 10164 O 1008.2 1.87582 -0.502671 0
M  V30 10165 C 1005.33 3.2229 -1.29408 0
M  V30 10166 C 1004.29 3.53769 -2.40897 0
M  V30 10167 C 1003.61 4.90847 -2.12068 0
M  V30 10168 C 1004.91 3.54862 -3.83237 0
M  V30 10169 H 1006.61 1.82138 -2.37626 0
M  V30 10170 H 1004.15 0.874873 -1.14376 0
M  V30 10171 H 1006.11 4.00819 -1.30085 0
M  V30 10172 H 1004.83 3.2507 -0.31573 0
M  V30 10173 H 1003.49 2.77579 -2.39469 0
M  V30 10174 H 1003.14 4.90229 -1.12626 0
M  V30 10175 H 1002.84 5.12875 -2.86762 0
M  V30 10176 H 1004.36 5.71711 -2.14426 0
M  V30 10177 H 1005.78 4.23432 -3.86494 0
M  V30 10178 H 1004.17 3.88416 -4.57442 0
M  V30 10179 H 1005.24 2.54266 -4.12888 0
M  V30 10180 N 1006.59 1.25851 0.948643 0
M  V30 10181 C 1007.83 1.11119 1.69648 0
M  V30 10182 C 1008.17 -0.345995 1.91093 0
M  V30 10183 O 1007.44 -1.25467 1.48621 0
M  V30 10184 C 1007.72 1.87261 3.0758 0
M  V30 10185 C 1007.58 3.40842 2.93507 0
M  V30 10186 C 1008.9 1.6605 4.07573 0
M  V30 10187 H 1006.01 0.405052 0.615713 0
M  V30 10188 H 1008.66 1.54756 1.10229 0
M  V30 10189 H 1006.81 1.50172 3.58303 0
M  V30 10190 H 1008.48 3.87641 2.50064 0
M  V30 10191 H 1006.72 3.68248 2.29294 0
M  V30 10192 H 1007.39 3.89339 3.91305 0
M  V30 10193 H 1009.87 1.98348 3.65783 0
M  V30 10194 H 1008.74 2.21753 5.02113 0
M  V30 10195 H 1009.01 0.603256 4.37965 0
M  V30 10196 N 1008.06 -1.15214 1.07534 0
M  V30 10197 C 1009.01 -2.22078 0.69168 0
M  V30 10198 C 1010.01 -1.66751 -0.298382 0
M  V30 10199 O 1011.21 -1.7927 -0.161897 0
M  V30 10200 H 1007.59 -0.723347 0.205604 0
M  V30 10201 H 1009.56 -2.51716 1.60256 0
M  V30 10202 C 1008.31 -3.47534 0.107546 0
M  V30 10203 H 1007.63 -3.90429 0.860522 0
M  V30 10204 H 1009.07 -4.23821 -0.123215 0
M  V30 10205 C 1007.53 -3.16583 -1.15226 0
M  V30 10206 O 1008.06 -3.33551 -2.23845 0
M  V30 10207 N 1006.27 -2.70611 -1.05915 0
M  V30 10208 H 1005.81 -2.57004 -0.175198 0
M  V30 10209 H 1005.77 -2.50277 -1.90287 0
M  V30 10210 N 1009.54 -0.859717 -1.32086 0
M  V30 10211 C 1010.49 -0.296897 -2.30697 0
M  V30 10212 C 1011.48 0.582473 -1.59071 0
M  V30 10213 O 1012.69 0.469713 -1.73763 0
M  V30 10214 H 1009.07 -0.0773132 -0.748015 0
M  V30 10215 H 1011.04 -1.14273 -2.75652 0
M  V30 10216 C 1009.79 0.495546 -3.44151 0
M  V30 10217 H 1009.11 -0.171829 -3.99431 0
M  V30 10218 H 1010.55 0.854854 -4.15293 0
M  V30 10219 C 1009.01 1.68278 -2.91863 0
M  V30 10220 O 1009.54 2.78194 -2.89777 0
M  V30 10221 N 1007.74 1.51151 -2.48197 0
M  V30 10222 H 1007.29 0.617345 -2.50093 0
M  V30 10223 H 1007.25 2.3073 -2.13567 0
M  V30 10224 N 1011.02 1.44971 -0.618145 0
M  V30 10225 C 1011.95 2.33357 0.0815955 0
M  V30 10226 C 1012.93 1.47451 0.848072 0
M  V30 10227 O 1014.12 1.762 0.816532 0
M  V30 10228 C 1011.25 3.30324 1.07253 0
M  V30 10229 C 1010.2 4.25948 0.418563 0
M  V30 10230 C 1009.53 5.12685 1.51849 0
M  V30 10231 C 1010.83 5.18024 -0.66697 0
M  V30 10232 H 1012.52 2.92115 -0.656442 0
M  V30 10233 H 1010.07 1.40465 -0.317129 0
M  V30 10234 H 1012.02 3.91033 1.57069 0
M  V30 10235 H 1010.74 2.69748 1.8413 0
M  V30 10236 H 1009.4 3.66553 -0.0588308 0
M  V30 10237 H 1009.05 4.4847 2.2778 0
M  V30 10238 H 1008.75 5.7747 1.08637 0
M  V30 10239 H 1010.27 5.76264 2.01871 0
M  V30 10240 H 1011.69 5.72744 -0.252448 0
M  V30 10241 H 1010.09 5.91343 -1.02146 0
M  V30 10242 H 1011.16 4.59817 -1.53936 0
M  V30 10243 N 1012.5 0.357919 1.53482 0
M  V30 10244 C 1013.45 -0.507364 2.26999 0
M  V30 10245 C 1014.44 -1.08987 1.29685 0
M  V30 10246 O 1015.65 -1.03396 1.47341 0
M  V30 10247 H 1012.02 -0.182326 0.729562 0
M  V30 10248 H 1013.99 0.134547 2.98097 0
M  V30 10249 C 1012.74 -1.63911 3.06641 0
M  V30 10250 H 1012.06 -1.20017 3.81361 0
M  V30 10251 H 1013.5 -2.21943 3.61272 0
M  V30 10252 C 1011.96 -2.57697 2.17011 0
M  V30 10253 O 1012.49 -3.60318 1.77578 0
M  V30 10254 N 1010.7 -2.2671 1.818 0
M  V30 10255 H 1010.25 -1.43296 2.14065 0
M  V30 10256 H 1010.2 -2.89716 1.22115 0
M  V30 10257 N 1013.98 -1.5736 0.0868897 0
M  V30 10258 C 1015.25 -1.85495 -0.620561 0
M  V30 10259 C 1015.63 -0.982218 -1.86857 0
M  V30 10260 O 1014.98 -0.0524529 -2.2844 0
M  V30 10261 C 1015.19 -3.35996 -0.943798 0
M  V30 10262 C 1016.54 -4.03861 -1.31079 0
M  V30 10263 O 1017.56 -3.4083 -1.03507 0
M  V30 10264 O 1016.42 -5.15062 -1.82683 0
M  V30 10265 H 1013.52 -0.766822 -0.309697 0
M  V30 10266 H 1016.06 -1.69282 0.118966 0
M  V30 10267 H 1014.83 -3.91257 -0.0580628 0
M  V30 10268 H 1014.46 -3.57525 -1.73958 0
M  V30 10269 N 1015.45 0.186762 -1.56489 0
M  V30 10270 C 1016.42 1.21511 -1.94339 0
M  V30 10271 C 1017.42 1.38001 -0.82537 0
M  V30 10272 O 1018.61 1.3567 -1.09266 0
M  V30 10273 C 1015.74 2.583 -2.22472 0
M  V30 10274 H 1016.93 0.891371 -2.86347 0
M  V30 10275 H 1014.49 0.428612 -1.50308 0
M  V30 10276 H 1015.22 2.95715 -1.33129 0
M  V30 10277 H 1015.01 2.47701 -3.03951 0
M  V30 10278 H 1016.5 3.32441 -2.5273 0
M  V30 10279 N 1016.93 1.50896 0.454776 0
M  V30 10280 C 1017.86 1.6712 1.56855 0
M  V30 10281 C 1018.88 0.552223 1.53148 0
M  V30 10282 O 1020.07 0.825969 1.5824 0
M  V30 10283 C 1017.17 1.65464 2.95762 0
M  V30 10284 C 1016.34 2.93662 3.24163 0
M  V30 10285 C 1015.4 2.84428 4.42704 0
M  V30 10286 O 1014.42 3.58382 4.42211 0
M  V30 10287 N 1015.63 1.9909 5.45292 0
M  V30 10288 H 1018.39 2.63194 1.43349 0
M  V30 10289 H 1015.95 1.48564 0.643457 0
M  V30 10290 H 1017.94 1.56878 3.73057 0
M  V30 10291 H 1016.51 0.770568 3.02954 0
M  V30 10292 H 1015.73 3.16251 2.35328 0
M  V30 10293 H 1017.02 3.78558 3.39957 0
M  V30 10294 H 1016.42 1.3835 5.48521 0
M  V30 10295 H 1014.98 1.96396 6.21508 0
M  V30 10296 N 1018.41 -0.709066 1.40748 0
M  V30 10297 C 1019.69 -1.4626 1.29874 0
M  V30 10298 C 1020.07 -2.10949 -0.0799322 0
M  V30 10299 O 1019.42 -2.00651 -1.09323 0
M  V30 10300 C 1019.63 -2.49302 2.44232 0
M  V30 10301 C 1020.97 -3.14945 2.84771 0
M  V30 10302 O 1022 -2.59623 2.43873 0
M  V30 10303 O 1020.86 -4.15111 3.5545 0
M  V30 10304 H 1017.95 -0.650716 0.51039 0
M  V30 10305 H 1020.5 -0.740687 1.52682 0
M  V30 10306 H 1019.27 -2.00063 3.36289 0
M  V30 10307 H 1018.89 -3.29021 2.23229 0
M  V30 10308 N 1019.89 -1.26353 -0.941956 0
M  V30 10309 C 1021.14 -1.11241 -1.68251 0
M  V30 10310 C 1021.45 0.344055 -1.9255 0
M  V30 10311 O 1022.66 0.615832 -2.64423 0
M  V30 10312 C 1021.11 -1.94269 -3.02965 0
M  V30 10313 C 1020.72 -3.44485 -2.86415 0
M  V30 10314 C 1022.47 -1.87764 -3.80716 0
M  V30 10315 C 1020.37 -4.19763 -4.16597 0
M  V30 10316 H 1019.3 -0.412694 -0.63103 0
M  V30 10317 H 1021.95 -1.50656 -1.04762 0
M  V30 10318 H 1020.34 -1.47687 -3.6743 0
M  V30 10319 H 1021.51 -3.9883 -2.30805 0
M  V30 10320 H 1019.82 -3.52218 -2.22107 0
M  V30 10321 H 1022.42 -2.41292 -4.77161 0
M  V30 10322 H 1022.76 -0.848195 -4.07568 0
M  V30 10323 H 1023.3 -2.32165 -3.23024 0
M  V30 10324 H 1020.04 -5.23173 -3.9493 0
M  V30 10325 H 1019.56 -3.70198 -4.71925 0
M  V30 10326 H 1021.24 -4.28168 -4.85058 0
M  V30 10327 N 1021.37 1.14642 -1.08144 0
M  V30 10328 C 1022.62 1.84964 -0.804437 0
M  V30 10329 C 1022.93 1.8369 0.672106 0
M  V30 10330 O 1024.14 2.49775 1.06417 0
M  V30 10331 C 1022.59 3.32015 -1.38904 0
M  V30 10332 C 1022.2 3.41713 -2.89718 0
M  V30 10333 C 1023.94 4.07467 -1.19041 0
M  V30 10334 C 1021.85 4.82958 -3.41329 0
M  V30 10335 H 1020.78 0.692932 -0.297256 0
M  V30 10336 H 1023.43 1.29255 -1.30251 0
M  V30 10337 H 1021.81 3.87445 -0.818679 0
M  V30 10338 H 1022.99 2.96347 -3.52867 0
M  V30 10339 H 1021.3 2.79713 -3.08463 0
M  V30 10340 H 1023.9 5.1172 -1.55069 0
M  V30 10341 H 1024.24 4.16097 -0.130027 0
M  V30 10342 H 1024.78 3.58329 -1.72757 0
M  V30 10343 H 1021.51 4.79515 -4.46929 0
M  V30 10344 H 1021.03 5.28873 -2.82937 0
M  V30 10345 H 1022.71 5.51841 -3.37759 0
M  V30 10346 N 1022.85 0.866709 1.31628 0
M  V30 10347 C 1024.09 0.476731 1.97117 0
M  V30 10348 C 1024.42 -0.967813 1.68366 0
M  V30 10349 O 1023.7 -1.68101 0.978377 0
M  V30 10350 C 1023.98 0.730561 3.52611 0
M  V30 10351 C 1023.84 2.2244 3.90948 0
M  V30 10352 C 1025.15 0.19488 4.39668 0
M  V30 10353 H 1022.27 0.174682 0.715999 0
M  V30 10354 H 1024.92 1.08735 1.5581 0
M  V30 10355 H 1023.07 0.210834 3.87927 0
M  V30 10356 H 1024.74 2.81113 3.6575 0
M  V30 10357 H 1022.98 2.69824 3.39673 0
M  V30 10358 H 1023.65 2.35266 4.99353 0
M  V30 10359 H 1026.13 0.639478 4.11157 0
M  V30 10360 H 1025 0.401958 5.47426 0
M  V30 10361 H 1025.26 -0.90302 4.32779 0
M  V30 10362 N 1024.32 -1.44642 0.625825 0
M  V30 10363 C 1025.55 -2.06159 0.13492 0
M  V30 10364 C 1025.96 -1.46801 -1.19357 0
M  V30 10365 O 1025.3 -0.583345 -1.74192 0
M  V30 10366 C 1025.37 -3.5945 -0.0598481 0
M  V30 10367 C 1025.03 -4.41244 1.18965 0
M  V30 10368 C 1026.03 -4.75064 2.11212 0
M  V30 10369 C 1023.71 -4.81705 1.42359 0
M  V30 10370 C 1025.71 -5.48221 3.25165 0
M  V30 10371 C 1023.39 -5.54612 2.5661 0
M  V30 10372 C 1024.39 -5.87789 3.4784 0
M  V30 10373 O 1024.08 -6.59213 4.60101 0
M  V30 10374 H 1023.81 -0.671888 0.0744464 0
M  V30 10375 H 1026.37 -1.86586 0.858775 0
M  V30 10376 H 1024.6 -3.77493 -0.838792 0
M  V30 10377 H 1026.28 -4.02751 -0.504639 0
M  V30 10378 H 1027.05 -4.44348 1.94371 0
M  V30 10379 H 1022.93 -4.55305 0.722401 0
M  V30 10380 H 1026.47 -5.74035 3.96396 0
M  V30 10381 H 1022.37 -5.84743 2.73396 0
M  V30 10382 H 1023.14 -6.77678 4.59015 0
M  V30 10383 N 1025.8 -0.366053 -1.5329 0
M  V30 10384 C 1026.75 0.496656 -2.22525 0
M  V30 10385 C 1027.74 1.0483 -1.22063 0
M  V30 10386 O 1028.93 0.978266 -1.47509 0
M  V30 10387 C 1026.06 1.63559 -3.01833 0
M  V30 10388 C 1025.14 1.0968 -4.09672 0
M  V30 10389 N 1025.53 0.28104 -5.05019 0
M  V30 10390 C 1023.83 1.37157 -4.24387 0
M  V30 10391 C 1024.53 -0.0140071 -5.81698 0
M  V30 10392 N 1023.51 0.583743 -5.40457 0
M  V30 10393 H 1027.31 -0.133408 -2.93597 0
M  V30 10394 H 1024.82 -0.174095 -1.61464 0
M  V30 10395 H 1026.82 2.26582 -3.49952 0
M  V30 10396 H 1025.48 2.26871 -2.32292 0
M  V30 10397 H 1026.49 -0.0797947 -5.17839 0
M  V30 10398 H 1023.17 2.00743 -3.66072 0
M  V30 10399 H 1024.56 -0.673508 -6.68516 0
M  V30 10400 N 1027.28 1.57312 -0.0952337 0
M  V30 10401 C 1028.19 2.17556 0.877877 0
M  V30 10402 C 1029.21 1.14505 1.31014 0
M  V30 10403 O 1030.38 1.46876 1.37802 0
M  V30 10404 C 1027.45 2.74413 2.11892 0
M  V30 10405 C 1026.51 3.92419 1.74085 0
M  V30 10406 C 1025.74 4.46556 2.92273 0
M  V30 10407 O 1025.96 3.99631 4.07002 0
M  V30 10408 O 1024.9 5.37576 2.70732 0
M  V30 10409 H 1028.72 3.01116 0.395312 0
M  V30 10410 H 1026.31 1.48841 0.129123 0
M  V30 10411 H 1028.19 3.10754 2.84622 0
M  V30 10412 H 1026.87 1.93899 2.59201 0
M  V30 10413 H 1025.77 3.6089 0.985346 0
M  V30 10414 H 1027.11 4.74298 1.31539 0
M  V30 10415 N 1028.76 -0.17846 1.56586 0
M  V30 10416 C 1029.69 -1.22342 1.98884 0
M  V30 10417 C 1030.67 -1.46564 0.86331 0
M  V30 10418 O 1031.85 -1.58019 1.12887 0
M  V30 10419 C 1028.98 -2.56396 2.34261 0
M  V30 10420 C 1027.94 -2.46756 3.49708 0
M  V30 10421 C 1027.26 -3.85235 3.70807 0
M  V30 10422 C 1028.56 -1.97838 4.83381 0
M  V30 10423 H 1030.26 -0.871848 2.86425 0
M  V30 10424 H 1027.8 -0.417948 1.37801 0
M  V30 10425 H 1029.76 -3.29695 2.62448 0
M  V30 10426 H 1028.48 -2.93327 1.43621 0
M  V30 10427 H 1027.14 -1.75912 3.21637 0
M  V30 10428 H 1026.79 -4.19547 2.7747 0
M  V30 10429 H 1026.49 -3.79655 4.48481 0
M  V30 10430 H 1028.01 -4.60131 4.01387 0
M  V30 10431 H 1029.43 -2.60906 5.10491 0
M  V30 10432 H 1027.82 -2.03223 5.64642 0
M  V30 10433 H 1028.89 -0.932339 4.75852 0
M  V30 10434 N 1030.24 -1.51135 -0.446768 0
M  V30 10435 C 1031.48 -1.63578 -1.19875 0
M  V30 10436 C 1031.81 -0.346478 -1.91084 0
M  V30 10437 O 1031.09 0.653447 -1.83195 0
M  V30 10438 C 1031.37 -2.83275 -2.22323 0
M  V30 10439 C 1031.23 -4.22155 -1.55259 0
M  V30 10440 C 1032.54 -2.98496 -3.23401 0
M  V30 10441 H 1029.66 -0.595333 -0.434452 0
M  V30 10442 H 1032.31 -1.83593 -0.48923 0
M  V30 10443 H 1030.46 -2.6634 -2.82834 0
M  V30 10444 H 1032.13 -4.50736 -0.981571 0
M  V30 10445 H 1030.37 -4.25288 -0.855122 0
M  V30 10446 H 1031.04 -5.01882 -2.29823 0
M  V30 10447 H 1033.52 -3.14079 -2.72935 0
M  V30 10448 H 1032.39 -3.83828 -3.92386 0
M  V30 10449 H 1032.65 -2.10157 -3.88956 0
M  V30 10450 N 1031.71 0.701592 -1.41122 0
M  V30 10451 C 1032.65 1.8268 -1.38422 0
M  V30 10452 C 1033.66 1.60244 -0.287342 0
M  V30 10453 O 1034.85 1.69859 -0.548658 0
M  V30 10454 C 1031.95 3.19338 -1.13475 0
M  V30 10455 C 1031.12 3.68853 -2.35088 0
M  V30 10456 C 1030.18 4.84163 -2.06089 0
M  V30 10457 O 1029.21 4.9609 -2.79077 0
M  V30 10458 N 1030.41 5.70972 -1.04743 0
M  V30 10459 H 1033.17 1.8549 -2.35401 0
M  V30 10460 H 1030.73 0.883682 -1.35656 0
M  V30 10461 H 1032.73 3.94095 -0.920377 0
M  V30 10462 H 1031.3 3.11589 -0.251152 0
M  V30 10463 H 1030.52 2.8507 -2.72266 0
M  V30 10464 H 1031.8 3.98673 -3.16129 0
M  V30 10465 H 1031.2 5.63961 -0.443221 0
M  V30 10466 H 1029.76 6.45654 -0.892949 0
M  V30 10467 N 1033.19 1.2685 0.935242 0
M  V30 10468 C 1034.6 1.11569 1.49697 0
M  V30 10469 C 1034.95 -0.301952 1.93863 0
M  V30 10470 O 1034.08 -1.19408 1.80473 0
M  V30 10471 C 1034.67 2.01918 2.72056 0
M  V30 10472 C 1033.23 1.90765 3.24477 0
M  V30 10473 C 1032.38 1.94918 1.97237 0
M  V30 10474 H 1035.33 1.39853 0.750116 0
M  V30 10475 H 1035.35 1.57056 3.46574 0
M  V30 10476 H 1034.86 3.05088 2.39881 0
M  V30 10477 H 1032.96 0.905521 3.61429 0
M  V30 10478 H 1033.08 2.76611 3.91182 0
M  V30 10479 H 1031.44 1.39046 2.13397 0
M  V30 10480 H 1032.22 2.99729 1.67385 0
M  V30 10481 N 1034.67 -1.14067 1.0875 0
M  V30 10482 C 1035.9 -1.89582 0.841038 0
M  V30 10483 C 1036.32 -1.78226 -0.601436 0
M  V30 10484 O 1035.68 -1.12491 -1.42181 0
M  V30 10485 C 1035.73 -3.37415 1.27213 0
M  V30 10486 O 1034.83 -4.10191 0.426246 0
M  V30 10487 H 1034.17 -0.589716 0.305173 0
M  V30 10488 H 1036.7 -1.44364 1.44984 0
M  V30 10489 H 1036.71 -3.88234 1.25451 0
M  V30 10490 H 1035.39 -3.44999 2.32268 0
M  V30 10491 H 1033.96 -3.69429 0.507585 0
M  V30 10492 N 1036.15 -0.873678 -1.31166 0
M  V30 10493 C 1037.4 -0.485497 -1.96182 0
M  V30 10494 C 1037.72 0.96621 -1.69379 0
M  V30 10495 O 1036.99 1.67783 -1.01121 0
M  V30 10496 H 1035.57 -0.176547 -0.725838 0
M  V30 10497 H 1038.23 -1.11428 -1.59906 0
M  V30 10498 H 1037.33 -0.646325 -3.05334 0
M  V30 10499 N 1037.63 1.44308 -0.633487 0
M  V30 10500 C 1038.57 2.30694 0.0700257 0
M  V30 10501 C 1039.54 1.43618 0.834447 0
M  V30 10502 O 1040.73 1.72517 0.815014 0
M  V30 10503 C 1037.87 3.28929 1.04403 0
M  V30 10504 C 1036.98 4.31106 0.277779 0
M  V30 10505 C 1036.12 5.16433 1.24381 0
M  V30 10506 C 1035.16 6.10317 0.466855 0
M  V30 10507 N 1034.29 6.88335 1.38347 0
M  V30 10508 H 1039.13 2.90311 -0.672567 0
M  V30 10509 H 1036.67 1.43034 -0.343449 0
M  V30 10510 H 1038.63 3.84373 1.62214 0
M  V30 10511 H 1037.26 2.71006 1.75372 0
M  V30 10512 H 1036.31 3.78115 -0.416292 0
M  V30 10513 H 1037.62 4.97725 -0.327251 0
M  V30 10514 H 1036.78 5.76406 1.89318 0
M  V30 10515 H 1035.51 4.49893 1.88276 0
M  V30 10516 H 1034.52 5.49451 -0.195989 0
M  V30 10517 H 1035.74 6.78894 -0.167414 0
M  V30 10518 H 1033.69 6.24461 2.00959 0
M  V30 10519 H 1033.61 7.51402 0.832517 0
M  V30 10520 H 1034.88 7.52829 2.0216 0
M  V30 10521 N 1039.1 0.374177 1.53094 0
M  V30 10522 C 1040.05 -0.48326 2.27524 0
M  V30 10523 C 1041.05 -1.07606 1.30833 0
M  V30 10524 O 1042.25 -1.01827 1.48429 0
M  V30 10525 H 1038.63 -0.174578 0.731455 0
M  V30 10526 H 1040.6 0.166156 2.97937 0
M  V30 10527 C 1039.35 -1.6065 3.08362 0
M  V30 10528 H 1038.67 -1.15966 3.82612 0
M  V30 10529 H 1040.11 -2.18099 3.63606 0
M  V30 10530 C 1038.57 -2.55381 2.19732 0
M  V30 10531 O 1039.1 -3.58414 1.8139 0
M  V30 10532 N 1037.31 -2.24769 1.84194 0
M  V30 10533 H 1036.85 -1.41018 2.15573 0
M  V30 10534 H 1036.81 -2.88404 1.25181 0
M  V30 10535 N 1040.58 -1.57259 0.103575 0
M  V30 10536 C 1041.83 -1.95744 -0.552781 0
M  V30 10537 C 1042.18 -0.985175 -1.65264 0
M  V30 10538 O 1041.48 -0.0125763 -1.91596 0
M  V30 10539 C 1041.67 -3.38549 -1.14538 0
M  V30 10540 C 1041.5 -4.49579 -0.104467 0
M  V30 10541 C 1040.27 -5.04273 0.321999 0
M  V30 10542 C 1042.47 -5.09909 0.670622 0
M  V30 10543 N 1040.45 -5.98866 1.3503 0
M  V30 10544 C 1041.82 -6.00299 1.55052 0
M  V30 10545 C 1043.88 -4.9262 0.723209 0
M  V30 10546 C 1042.58 -6.75254 2.4784 0
M  V30 10547 C 1044.6 -5.68243 1.63873 0
M  V30 10548 C 1043.97 -6.58306 2.50624 0
M  V30 10549 H 1040.07 -0.762769 -0.172359 0
M  V30 10550 H 1042.65 -1.93789 0.188113 0
M  V30 10551 H 1040.82 -3.41182 -1.85606 0
M  V30 10552 H 1042.55 -3.64194 -1.7648 0
M  V30 10553 H 1039.31 -4.73552 -0.0674026 0
M  V30 10554 H 1039.73 -6.50865 1.86291 0
M  V30 10555 H 1044.37 -4.22747 0.0666625 0
M  V30 10556 H 1042.09 -7.44383 3.14516 0
M  V30 10557 H 1045.68 -5.56876 1.68466 0
M  V30 10558 H 1044.56 -7.15799 3.20315 0
M  V30 10559 N 1042.06 0.170153 -1.56679 0
M  V30 10560 C 1043.3 0.893073 -1.83857 0
M  V30 10561 C 1043.66 1.79378 -0.684661 0
M  V30 10562 O 1044.87 2.55439 -0.836926 0
M  V30 10563 C 1043.14 1.66679 -3.16153 0
M  V30 10564 S 1044.7 2.43831 -3.64818 0
M  V30 10565 H 1041.51 0.299091 -0.645031 0
M  V30 10566 H 1044.12 0.154628 -1.94888 0
M  V30 10567 H 1042.82 0.996152 -3.98127 0
M  V30 10568 H 1042.35 2.44658 -3.08068 0
M  V30 10569 H 1044.37 3.68555 -3.32237 0
M  V30 10570 N 1043.54 1.5137 0.438746 0
M  V30 10571 C 1044.45 1.75424 1.55768 0
M  V30 10572 C 1045.46 0.638409 1.61865 0
M  V30 10573 O 1046.64 0.9205 1.79133 0
M  V30 10574 C 1043.71 1.87288 2.9176 0
M  V30 10575 C 1042.77 3.11137 2.95791 0
M  V30 10576 C 1042 3.22425 4.25297 0
M  V30 10577 O 1042.22 2.39688 5.17596 0
M  V30 10578 O 1041.16 4.15393 4.35583 0
M  V30 10579 H 1044.98 2.70339 1.38386 0
M  V30 10580 H 1042.57 1.35854 0.621609 0
M  V30 10581 H 1044.45 1.97085 3.72472 0
M  V30 10582 H 1043.12 0.955599 3.09273 0
M  V30 10583 H 1042.03 3.06819 2.1404 0
M  V30 10584 H 1043.36 4.02549 2.83223 0
M  V30 10585 N 1045.02 -0.694098 1.41492 0
M  V30 10586 C 1045.93 -1.83778 1.45818 0
M  V30 10587 C 1046.94 -1.70471 0.348639 0
M  V30 10588 O 1048.12 -1.92361 0.596588 0
M  V30 10589 C 1045.18 -3.19771 1.33967 0
M  V30 10590 C 1044.24 -3.45175 2.5525 0
M  V30 10591 C 1043.48 -4.74681 2.43955 0
M  V30 10592 O 1043.7 -5.51268 1.46491 0
M  V30 10593 O 1042.63 -5.00901 3.33739 0
M  V30 10594 H 1046.46 -1.83084 2.42309 0
M  V30 10595 H 1044.05 -0.847349 1.23046 0
M  V30 10596 H 1045.93 -4.00961 1.29648 0
M  V30 10597 H 1044.6 -3.21145 0.405926 0
M  V30 10598 H 1043.51 -2.6391 2.65146 0
M  V30 10599 H 1044.84 -3.48617 3.47458 0
M  V30 10600 N 1046.49 -1.27344 -0.928501 0
M  V30 10601 C 1047.77 -1.04362 -1.65433 0
M  V30 10602 C 1048.15 0.421896 -2.06841 0
M  V30 10603 O 1047.5 1.40496 -1.80203 0
M  V30 10604 C 1047.71 -2.00442 -2.85699 0
M  V30 10605 C 1049.06 -2.29767 -3.57061 0
M  V30 10606 O 1050.08 -1.98409 -2.95825 0
M  V30 10607 O 1048.94 -2.83217 -4.67387 0
M  V30 10608 H 1046.03 -0.397783 -0.72505 0
M  V30 10609 H 1048.58 -1.38606 -0.979109 0
M  V30 10610 H 1047.35 -2.99281 -2.52085 0
M  V30 10611 H 1046.98 -1.66755 -3.60941 0
M  V30 10612 N 1047.97 1.13488 -1.09353 0
M  V30 10613 C 1048.91 2.17951 -0.67622 0
M  V30 10614 C 1049.88 1.59482 0.316906 0
M  V30 10615 O 1051.07 1.8723 0.218459 0
M  V30 10616 C 1048.19 3.387 0.00391024 0
M  V30 10617 C 1047.24 4.15764 -0.950906 0
M  V30 10618 S 1048.07 4.75517 -2.46259 0
M  V30 10619 C 1049.23 5.99613 -1.79485 0
M  V30 10620 H 1049.46 2.53012 -1.56115 0
M  V30 10621 H 1047 1.24773 -0.909447 0
M  V30 10622 H 1048.95 4.08643 0.39002 0
M  V30 10623 H 1047.61 3.01941 0.86548 0
M  V30 10624 H 1046.81 5.02229 -0.422086 0
M  V30 10625 H 1046.41 3.51473 -1.27838 0
M  V30 10626 H 1048.7 6.68204 -1.11846 0
M  V30 10627 H 1049.64 6.57102 -2.63862 0
M  V30 10628 H 1050.05 5.50165 -1.26409 0
M  V30 10629 N 1049.45 0.880621 1.30701 0
M  V30 10630 C 1050.36 0.348034 2.32004 0
M  V30 10631 C 1051.38 -0.547508 1.65162 0
M  V30 10632 O 1052.55 -0.441673 1.96497 0
M  V30 10633 C 1049.62 -0.432585 3.43991 0
M  V30 10634 C 1048.68 0.492189 4.26469 0
M  V30 10635 C 1047.91 -0.25127 5.33108 0
M  V30 10636 O 1048.14 -1.47795 5.5092 0
M  V30 10637 O 1047.07 0.396376 6.00593 0
M  V30 10638 H 1050.9 1.18798 2.79501 0
M  V30 10639 H 1048.48 0.64432 1.34792 0
M  V30 10640 H 1050.36 -0.874733 4.12221 0
M  V30 10641 H 1049.04 -1.2489 2.98637 0
M  V30 10642 H 1047.94 0.983058 3.60953 0
M  V30 10643 H 1049.28 1.27439 4.75416 0
M  V30 10644 N 1050.93 -1.4397 0.641131 0
M  V30 10645 C 1051.88 -2.32495 -0.0698668 0
M  V30 10646 C 1052.87 -1.47922 -0.825555 0
M  V30 10647 O 1054.08 -1.64206 -0.737323 0
M  V30 10648 H 1050.45 -0.750861 -0.0413706 0
M  V30 10649 H 1052.42 -2.90201 0.694682 0
M  V30 10650 C 1051.17 -3.32063 -1.03098 0
M  V30 10651 H 1050.5 -3.97157 -0.458923 0
M  V30 10652 H 1051.94 -3.96664 -1.49778 0
M  V30 10653 C 1050.39 -2.61743 -2.12113 0
M  V30 10654 O 1050.92 -2.42385 -3.20332 0
M  V30 10655 N 1049.13 -2.21316 -1.88328 0
M  V30 10656 H 1048.68 -2.37261 -1.00324 0
M  V30 10657 H 1048.64 -1.74594 -2.61465 0
M  V30 10658 N 1052.41 -0.382291 -1.52893 0
M  V30 10659 C 1053.66 0.201734 -2.01091 0
M  V30 10660 C 1053.98 1.47905 -1.2708 0
M  V30 10661 O 1053.25 1.92002 -0.38883 0
M  V30 10662 H 1051.83 0.0775373 -0.742965 0
M  V30 10663 H 1054.49 -0.512369 -1.88045 0
M  V30 10664 H 1053.58 0.416919 -3.09303 0
M  V30 10665 N 1053.89 1.57202 -0.111913 0
M  V30 10666 C 1055.13 1.94565 0.546713 0
M  V30 10667 C 1055.45 0.995644 1.67666 0
M  V30 10668 O 1054.72 0.0506681 1.95834 0
M  V30 10669 H 1053.3 0.718334 0.204951 0
M  V30 10670 H 1055.97 1.94074 -0.179193 0
M  V30 10671 H 1055.06 2.9742 0.945931 0
M  V30 10672 N 1055.36 -0.161842 1.56767 0
M  V30 10673 C 1056.6 -0.88331 1.84329 0
M  V30 10674 C 1056.97 -1.79012 0.694165 0
M  V30 10675 O 1058.17 -2.54991 0.850461 0
M  V30 10676 C 1056.44 -1.65 3.17033 0
M  V30 10677 S 1058 -2.41893 3.66106 0
M  V30 10678 H 1054.82 -0.295667 0.646608 0
M  V30 10679 H 1057.42 -0.14429 1.94967 0
M  V30 10680 H 1056.12 -0.975025 3.9865 0
M  V30 10681 H 1055.65 -2.43021 3.09361 0
M  V30 10682 H 1057.67 -3.66788 3.34187 0
M  V30 10683 N 1056.84 -1.516 -0.430713 0
M  V30 10684 C 1057.75 -1.76247 -1.54836 0
M  V30 10685 C 1058.77 -0.646985 -1.61524 0
M  V30 10686 O 1059.94 -0.929987 -1.78643 0
M  V30 10687 C 1057.01 -1.88833 -2.90763 0
M  V30 10688 C 1056.07 -3.12701 -2.94137 0
M  V30 10689 C 1055.3 -3.24676 -4.23581 0
M  V30 10690 O 1055.53 -2.42429 -5.16318 0
M  V30 10691 O 1054.46 -4.17697 -4.33374 0
M  V30 10692 H 1058.29 -2.71069 -1.3695 0
M  V30 10693 H 1055.87 -1.36182 -0.614396 0
M  V30 10694 H 1057.75 -1.99057 -3.71422 0
M  V30 10695 H 1056.43 -0.971987 -3.08762 0
M  V30 10696 H 1055.33 -3.0795 -2.1241 0
M  V30 10697 H 1056.67 -4.04045 -2.81084 0
M  V30 10698 N 1058.32 0.686584 -1.41858 0
M  V30 10699 C 1059.55 1.47305 -1.44862 0
M  V30 10700 C 1059.96 1.8912 -0.0549286 0
M  V30 10701 O 1059.3 1.57941 0.938101 0
M  V30 10702 C 1059.36 2.76107 -2.30229 0
M  V30 10703 C 1059.03 2.5644 -3.78269 0
M  V30 10704 C 1060.02 2.21803 -4.70212 0
M  V30 10705 C 1057.71 2.71801 -4.22409 0
M  V30 10706 C 1059.7 2.02778 -6.04284 0
M  V30 10707 C 1057.39 2.52392 -5.56544 0
M  V30 10708 C 1058.39 2.17933 -6.47298 0
M  V30 10709 O 1058.08 1.98701 -7.78956 0
M  V30 10710 H 1057.81 0.460174 -0.495193 0
M  V30 10711 H 1060.36 0.852069 -1.86893 0
M  V30 10712 H 1058.59 3.40644 -1.83026 0
M  V30 10713 H 1060.28 3.37947 -2.24826 0
M  V30 10714 H 1061.05 2.09542 -4.37398 0
M  V30 10715 H 1056.93 2.97605 -3.52069 0
M  V30 10716 H 1060.47 1.75805 -6.75084 0
M  V30 10717 H 1056.37 2.64246 -5.88935 0
M  V30 10718 H 1057.13 2.13393 -7.90193 0
M  V30 10719 N 1059.8 1.27835 0.921735 0
M  V30 10720 C 1060.73 1.136 2.04003 0
M  V30 10721 C 1061.71 0.0358756 1.70062 0
M  V30 10722 O 1062.89 0.211438 1.93046 0
M  V30 10723 C 1060.02 0.788697 3.38226 0
M  V30 10724 C 1058.98 1.84272 3.863 0
M  V30 10725 C 1058.3 1.34923 5.17397 0
M  V30 10726 C 1059.6 3.24788 4.09035 0
M  V30 10727 H 1061.3 2.07149 2.1617 0
M  V30 10728 H 1058.84 0.997349 1.0387 0
M  V30 10729 H 1060.8 0.675911 4.15944 0
M  V30 10730 H 1059.52 -0.182499 3.2609 0
M  V30 10731 H 1058.18 1.94451 3.1078 0
M  V30 10732 H 1057.83 0.367328 5.01657 0
M  V30 10733 H 1057.53 2.05397 5.50532 0
M  V30 10734 H 1059.05 1.24951 5.97678 0
M  V30 10735 H 1060.47 3.17575 4.77304 0
M  V30 10736 H 1058.86 3.93025 4.53488 0
M  V30 10737 H 1059.93 3.69398 3.14122 0
M  V30 10738 N 1061.28 -1.12907 1.09954 0
M  V30 10739 C 1062.52 -1.8595 0.848643 0
M  V30 10740 C 1062.88 -1.81897 -0.614621 0
M  V30 10741 O 1064.08 -2.50233 -0.981667 0
M  V30 10742 C 1062.35 -3.29859 1.3758 0
M  V30 10743 S 1063.91 -4.20333 1.25959 0
M  V30 10744 H 1060.73 -0.641404 0.306793 0
M  V30 10745 H 1063.33 -1.36045 1.40399 0
M  V30 10746 H 1062.03 -3.30365 2.43489 0
M  V30 10747 H 1061.57 -3.84827 0.816806 0
M  V30 10748 H 1063.58 -4.95738 0.214038 0
M  V30 10749 N 1062.75 -0.88754 -1.30232 0
M  V30 10750 C 1063.68 -0.372481 -2.3051 0
M  V30 10751 C 1064.66 0.546037 -1.61098 0
M  V30 10752 O 1065.85 0.459345 -1.88689 0
M  V30 10753 C 1062.98 0.411605 -3.44852 0
M  V30 10754 C 1061.93 -0.415383 -4.2598 0
M  V30 10755 C 1061.26 0.495463 -5.324 0
M  V30 10756 C 1062.56 -1.65886 -4.95257 0
M  V30 10757 H 1064.25 -1.21045 -2.7384 0
M  V30 10758 H 1061.8 -0.583498 -1.31648 0
M  V30 10759 H 1063.75 0.782584 -4.1407 0
M  V30 10760 H 1062.48 1.28325 -3.00334 0
M  V30 10761 H 1061.14 -0.768534 -3.58454 0
M  V30 10762 H 1060.78 1.36489 -4.84128 0
M  V30 10763 H 1060.48 -0.0540885 -5.87575 0
M  V30 10764 H 1062.01 0.862901 -6.04472 0
M  V30 10765 H 1063.42 -1.35832 -5.56976 0
M  V30 10766 H 1061.82 -2.14881 -5.60309 0
M  V30 10767 H 1062.89 -2.40181 -4.21237 0
M  V30 10768 N 1064.23 1.43628 -0.648757 0
M  V30 10769 C 1065.64 1.85142 -0.24066 0
M  V30 10770 C 1065.99 1.54304 1.21181 0
M  V30 10771 O 1065.12 0.989792 1.92437 0
M  V30 10772 C 1065.71 3.3606 -0.429999 0
M  V30 10773 C 1064.27 3.76323 -0.0762588 0
M  V30 10774 C 1063.42 2.67382 -0.734999 0
M  V30 10775 H 1066.37 1.33844 -0.852734 0
M  V30 10776 H 1066.39 3.79102 0.325836 0
M  V30 10777 H 1065.9 3.58474 -1.48721 0
M  V30 10778 H 1064.01 3.59521 0.978529 0
M  V30 10779 H 1064.12 4.76498 -0.498612 0
M  V30 10780 H 1062.48 2.54141 -0.168644 0
M  V30 10781 H 1063.27 2.92625 -1.79515 0
M  V30 10782 N 1065.71 0.390394 1.52688 0
M  V30 10783 C 1066.67 -0.432149 2.25089 0
M  V30 10784 C 1067.67 -0.989296 1.26766 0
M  V30 10785 O 1068.86 -0.871126 1.50854 0
M  V30 10786 C 1066 -1.60642 3.00678 0
M  V30 10787 H 1067.19 0.201734 2.99221 0
M  V30 10788 H 1064.74 0.142531 1.55649 0
M  V30 10789 H 1065.48 -2.2777 2.3085 0
M  V30 10790 H 1065.26 -1.21361 3.72846 0
M  V30 10791 H 1066.75 -2.18873 3.55647 0
M  V30 10792 N 1067.19 -1.57141 0.120249 0
M  V30 10793 C 1068.6 -1.82256 -0.404931 0
M  V30 10794 C 1068.95 -1.03748 -1.66526 0
M  V30 10795 O 1068.08 -0.274456 -2.14653 0
M  V30 10796 C 1068.67 -3.30588 -0.741431 0
M  V30 10797 C 1067.23 -3.56379 -1.21124 0
M  V30 10798 C 1066.38 -2.76421 -0.220569 0
M  V30 10799 H 1069.33 -1.54897 0.345361 0
M  V30 10800 H 1069.35 -3.45284 -1.59872 0
M  V30 10801 H 1068.86 -3.87701 0.176036 0
M  V30 10802 H 1066.96 -3.04625 -2.14556 0
M  V30 10803 H 1067.07 -4.64952 -1.1557 0
M  V30 10804 H 1065.44 -2.44666 -0.707857 0
M  V30 10805 H 1066.22 -3.36294 0.690018 0
M  V30 10806 N 1068.67 0.153526 -1.5685 0
M  V30 10807 C 1069.6 1.2147 -1.94365 0
M  V30 10808 C 1070.61 1.39532 -0.838726 0
M  V30 10809 O 1071.8 1.39219 -1.11715 0
M  V30 10810 C 1068.9 2.5806 -2.19677 0
M  V30 10811 C 1068.07 2.61062 -3.50949 0
M  V30 10812 C 1067.13 3.79144 -3.64878 0
M  V30 10813 O 1066.16 3.64319 -4.37333 0
M  V30 10814 N 1067.36 4.96333 -3.01054 0
M  V30 10815 H 1070.13 0.895889 -2.85996 0
M  V30 10816 H 1067.69 0.343147 -1.58222 0
M  V30 10817 H 1069.68 3.35553 -2.26243 0
M  V30 10818 H 1068.25 2.8226 -1.34343 0
M  V30 10819 H 1067.47 1.69533 -3.55882 0
M  V30 10820 H 1068.76 2.60094 -4.37297 0
M  V30 10821 H 1068.15 5.1128 -2.42093 0
M  V30 10822 H 1066.71 5.71625 -3.13191 0
M  V30 10823 N 1070.14 1.51827 0.422667 0
M  V30 10824 C 1071.39 1.6445 1.16786 0
M  V30 10825 C 1071.71 0.373792 1.91995 0
M  V30 10826 O 1072.91 0.379621 2.68833 0
M  V30 10827 C 1071.37 2.90488 2.12473 0
M  V30 10828 C 1070.98 4.24617 1.42844 0
M  V30 10829 C 1072.72 3.12472 2.87335 0
M  V30 10830 C 1070.63 5.41791 2.371 0
M  V30 10831 H 1069.56 0.612561 0.439641 0
M  V30 10832 H 1072.21 1.78305 0.433534 0
M  V30 10833 H 1070.59 2.703 2.89402 0
M  V30 10834 H 1071.76 4.55239 0.71372 0
M  V30 10835 H 1070.08 4.08628 0.800769 0
M  V30 10836 H 1072.68 3.9719 3.57973 0
M  V30 10837 H 1073.02 2.26148 3.49518 0
M  V30 10838 H 1073.55 3.33069 2.17509 0
M  V30 10839 H 1070.29 6.3042 1.79584 0
M  V30 10840 H 1069.81 5.15526 3.06583 0
M  V30 10841 H 1071.49 5.74329 2.97918 0
M  V30 10842 N 1071.62 -0.679052 1.4222 0
M  V30 10843 C 1072.57 -1.81398 1.45594 0
M  V30 10844 C 1073.56 -1.66112 0.332127 0
M  V30 10845 O 1074.77 -1.72772 0.504942 0
M  V30 10846 H 1071.15 -0.598045 0.455902 0
M  V30 10847 H 1073.12 -1.7567 2.41211 0
M  V30 10848 C 1071.87 -3.19525 1.37109 0
M  V30 10849 H 1071.19 -3.31912 2.22878 0
M  V30 10850 H 1072.63 -3.98967 1.43531 0
M  V30 10851 C 1071.09 -3.36792 0.0853593 0
M  V30 10852 O 1071.62 -3.92309 -0.863532 0
M  V30 10853 N 1069.82 -2.906 0.00389229 0
M  V30 10854 H 1069.37 -2.45607 0.776846 0
M  V30 10855 H 1069.33 -3.0253 -0.855742 0
M  V30 10856 N 1073.1 -1.28322 -0.914942 0
M  V30 10857 C 1074.38 -1.06111 -1.64316 0
M  V30 10858 C 1074.76 0.399934 -2.07277 0
M  V30 10859 O 1074.11 1.38577 -1.81683 0
M  V30 10860 C 1074.32 -2.03461 -2.83557 0
M  V30 10861 C 1075.66 -2.33541 -3.54604 0
M  V30 10862 O 1076.69 -2.01536 -2.93704 0
M  V30 10863 O 1075.55 -2.88158 -4.64357 0
M  V30 10864 H 1072.64 -0.405451 -0.72079 0
M  V30 10865 H 1075.19 -1.39636 -0.964352 0
M  V30 10866 H 1073.96 -3.01938 -2.48896 0
M  V30 10867 H 1073.58 -1.70574 -3.59152 0
M  V30 10868 N 1074.58 1.12322 -1.10551 0
M  V30 10869 C 1075.53 2.16177 -0.724679 0
M  V30 10870 C 1076.51 1.58674 0.266739 0
M  V30 10871 O 1077.7 1.7684 0.0752872 0
M  V30 10872 C 1074.83 3.4293 -0.159413 0
M  V30 10873 C 1073.92 4.07413 -1.17794 0
M  V30 10874 N 1074.31 4.46889 -2.36905 0
M  V30 10875 C 1072.61 4.34209 -1.01874 0
M  V30 10876 C 1073.31 4.97291 -3.01789 0
M  V30 10877 N 1072.29 4.92871 -2.29302 0
M  V30 10878 H 1076.09 2.44466 -1.63136 0
M  V30 10879 H 1073.6 1.2924 -0.983407 0
M  V30 10880 H 1075.6 4.16693 0.131502 0
M  V30 10881 H 1074.26 3.16109 0.741975 0
M  V30 10882 H 1075.27 4.39219 -2.74422 0
M  V30 10883 H 1071.95 4.17141 -0.173013 0
M  V30 10884 H 1073.34 5.3754 -4.03114 0
M  V30 10885 N 1076.06 0.894434 1.2976 0
M  V30 10886 C 1077.28 0.5322 2.00455 0
M  V30 10887 C 1077.71 -0.874427 1.66539 0
M  V30 10888 O 1077.06 -1.58113 0.887129 0
M  V30 10889 C 1077.11 0.725264 3.53231 0
M  V30 10890 O 1076.22 -0.224612 4.11788 0
M  V30 10891 H 1075.56 0.208562 0.630395 0
M  V30 10892 H 1078.09 1.20458 1.65382 0
M  V30 10893 H 1078.1 0.627889 4.0314 0
M  V30 10894 H 1076.77 1.75079 3.77253 0
M  V30 10895 H 1075.35 -0.0801361 3.72814 0
M  V30 10896 N 1077.53 -1.43282 0.656365 0
M  V30 10897 C 1078.95 -1.85012 0.250475 0
M  V30 10898 C 1079.3 -1.54944 -1.20361 0
M  V30 10899 O 1078.42 -0.999983 -1.9191 0
M  V30 10900 C 1079.02 -3.35827 0.447815 0
M  V30 10901 C 1077.58 -3.76277 0.0962151 0
M  V30 10902 C 1076.72 -2.66988 0.749168 0
M  V30 10903 H 1079.67 -1.3339 0.85982 0
M  V30 10904 H 1079.69 -3.7927 -0.305726 0
M  V30 10905 H 1079.21 -3.5768 1.5062 0
M  V30 10906 H 1077.31 -3.60035 -0.959449 0
M  V30 10907 H 1077.42 -4.76227 0.523875 0
M  V30 10908 H 1075.78 -2.54048 0.18212 0
M  V30 10909 H 1076.57 -2.91669 1.81064 0
M  V30 10910 N 1079.01 -0.398486 -1.52479 0
M  V30 10911 C 1079.96 0.432212 -2.26717 0
M  V30 10912 C 1080.93 1.05007 -1.28696 0
M  V30 10913 O 1082.12 1.07636 -1.57541 0
M  V30 10914 C 1079.26 1.54868 -3.08399 0
M  V30 10915 C 1078.37 0.952779 -4.21362 0
M  V30 10916 C 1077.5 2.04106 -4.90423 0
M  V30 10917 C 1076.54 1.42153 -5.95364 0
M  V30 10918 N 1075.68 2.44951 -6.57984 0
M  V30 10919 H 1080.52 -0.207303 -2.97278 0
M  V30 10920 H 1078.06 -0.114066 -1.46657 0
M  V30 10921 H 1080.01 2.20684 -3.54054 0
M  V30 10922 H 1078.64 2.15837 -2.4003 0
M  V30 10923 H 1077.7 0.183962 -3.79955 0
M  V30 10924 H 1079.01 0.460131 -4.96673 0
M  V30 10925 H 1078.16 2.77672 -5.39429 0
M  V30 10926 H 1076.9 2.56733 -4.14656 0
M  V30 10927 H 1075.91 0.671161 -5.45688 0
M  V30 10928 H 1077.13 0.903093 -6.73068 0
M  V30 10929 H 1075.08 2.9673 -5.85053 0
M  V30 10930 H 1074.99 2.00468 -7.28937 0
M  V30 10931 H 1076.26 3.18119 -7.11632 0
M  V30 10932 N 1080.49 1.57075 -0.12858 0
M  V30 10933 C 1081.72 1.99586 0.533769 0
M  V30 10934 C 1082.13 1.00737 1.60152 0
M  V30 10935 O 1081.47 -0.00647783 1.83699 0
M  V30 10936 C 1081.53 3.3852 1.21014 0
M  V30 10937 C 1081.2 4.56084 0.289191 0
M  V30 10938 C 1082.2 5.17717 -0.475963 0
M  V30 10939 C 1079.88 5.01912 0.197467 0
M  V30 10940 C 1081.87 6.23572 -1.32048 0
M  V30 10941 C 1079.56 6.07626 -0.65067 0
M  V30 10942 C 1080.56 6.68324 -1.40826 0
M  V30 10943 O 1080.25 7.71995 -2.2423 0
M  V30 10944 H 1079.98 0.660245 0.145096 0
M  V30 10945 H 1082.53 2.04276 -0.214615 0
M  V30 10946 H 1080.76 3.30613 2.00579 0
M  V30 10947 H 1082.45 3.65258 1.77036 0
M  V30 10948 H 1083.22 4.83221 -0.415027 0
M  V30 10949 H 1079.1 4.54407 0.776853 0
M  V30 10950 H 1082.64 6.70878 -1.91228 0
M  V30 10951 H 1078.54 6.41551 -0.712965 0
M  V30 10952 H 1079.31 7.89135 -2.17276 0
M  V30 10953 N 1081.97 -0.145205 1.5693 0
M  V30 10954 C 1083.2 -0.872398 1.87608 0
M  V30 10955 C 1083.61 -1.74657 0.716975 0
M  V30 10956 O 1082.97 -1.79792 -0.3132 0
M  V30 10957 C 1083.02 -1.72762 3.17546 0
M  V30 10958 O 1082.74 -0.888681 4.28992 0
M  V30 10959 C 1084.24 -2.56224 3.61751 0
M  V30 10960 H 1081.46 -0.252166 0.621815 0
M  V30 10961 H 1084.01 -0.137456 2.04038 0
M  V30 10962 H 1082.16 -2.41561 3.02865 0
M  V30 10963 H 1082.58 -1.47601 5.03303 0
M  V30 10964 H 1084.05 -3.11804 4.55502 0
M  V30 10965 H 1084.53 -3.32347 2.87127 0
M  V30 10966 H 1085.13 -1.92714 3.79133 0
M  V30 10967 N 1083.45 -1.52049 -0.414609 0
M  V30 10968 C 1084.69 -1.67511 -1.17129 0
M  V30 10969 C 1085.05 -0.39383 -1.87917 0
M  V30 10970 O 1086.25 -0.424496 -2.65427 0
M  V30 10971 C 1084.52 -2.85982 -2.14357 0
M  V30 10972 S 1086.08 -3.21898 -2.98206 0
M  V30 10973 H 1082.9 -0.589923 -0.396877 0
M  V30 10974 H 1085.5 -1.90025 -0.459409 0
M  V30 10975 H 1084.21 -3.77488 -1.6103 0
M  V30 10976 H 1083.74 -2.65725 -2.90092 0
M  V30 10977 H 1085.75 -2.70095 -4.16249 0
M  V30 10978 N 1084.93 0.6715 -1.42579 0
M  V30 10979 C 1086.15 1.46471 -1.46836 0
M  V30 10980 C 1086.58 1.87921 -0.0820658 0
M  V30 10981 O 1085.93 1.5621 0.920217 0
M  V30 10982 C 1085.98 2.68796 -2.40377 0
M  V30 10983 O 1085.09 3.67188 -1.87741 0
M  V30 10984 H 1084.43 0.439901 -0.497376 0
M  V30 10985 H 1086.96 0.823342 -1.87303 0
M  V30 10986 H 1086.97 3.16828 -2.57068 0
M  V30 10987 H 1085.64 2.37967 -3.41093 0
M  V30 10988 H 1084.22 3.26237 -1.80621 0
M  V30 10989 N 1086.4 1.28806 0.908124 0
M  V30 10990 C 1087.64 1.17546 1.67219 0
M  V30 10991 C 1088.01 -0.270396 1.90086 0
M  V30 10992 O 1089.21 -0.505808 2.63998 0
M  V30 10993 C 1087.48 1.95774 2.99011 0
M  V30 10994 S 1089.04 2.00953 3.90081 0
M  V30 10995 H 1085.86 0.419283 0.574215 0
M  V30 10996 H 1088.46 1.6298 1.07971 0
M  V30 10997 H 1087.16 2.99978 2.80074 0
M  V30 10998 H 1086.69 1.50911 3.63303 0
M  V30 10999 H 1088.71 1.1201 4.83392 0
M  V30 11000 N 1087.88 -1.11734 1.11145 0
M  V30 11001 C 1089.29 -1.64928 0.874959 0
M  V30 11002 C 1089.64 -1.87012 -0.593375 0
M  V30 11003 O 1088.77 -1.60206 -1.45475 0
M  V30 11004 C 1089.36 -2.99608 1.58178 0
M  V30 11005 C 1087.92 -3.49723 1.39179 0
M  V30 11006 C 1087.07 -2.24595 1.62642 0
M  V30 11007 H 1090.02 -0.954154 1.26813 0
M  V30 11008 H 1090.04 -3.66434 1.02501 0
M  V30 11009 H 1089.55 -2.83504 2.65042 0
M  V30 11010 H 1087.65 -3.70998 0.345111 0
M  V30 11011 H 1087.77 -4.28711 2.13878 0
M  V30 11012 H 1086.13 -2.32067 1.04961 0
M  V30 11013 H 1086.91 -2.11036 2.70774 0
M  V30 11014 N 1089.36 -0.901303 -1.29284 0
M  V30 11015 C 1090.58 -0.542823 -2.0017 0
M  V30 11016 C 1091.01 0.865583 -1.67001 0
M  V30 11017 O 1090.37 1.5764 -0.895502 0
M  V30 11018 C 1090.42 -0.743987 -3.52842 0
M  V30 11019 O 1089.52 0.202771 -4.11901 0
M  V30 11020 H 1088.86 -0.211903 -0.62928 0
M  V30 11021 H 1091.39 -1.21333 -1.64741 0
M  V30 11022 H 1091.4 -0.64926 -4.02801 0
M  V30 11023 H 1090.08 -1.77077 -3.7632 0
M  V30 11024 H 1088.65 0.0603637 -3.72851 0
M  V30 11025 N 1090.84 1.42931 -0.663954 0
M  V30 11026 C 1092.09 2.01284 -0.181379 0
M  V30 11027 C 1092.41 1.52708 1.21265 0
M  V30 11028 O 1091.68 0.744181 1.81215 0
M  V30 11029 H 1090.26 0.744248 -0.0640646 0
M  V30 11030 H 1092.92 1.74997 -0.858031 0
M  V30 11031 H 1092.01 3.11613 -0.174273 0
M  V30 11032 N 1092.32 0.406567 1.52266 0
M  V30 11033 C 1093.55 -0.169378 2.05905 0
M  V30 11034 C 1093.95 -1.39626 1.27676 0
M  V30 11035 O 1093.3 -1.80871 0.32114 0
M  V30 11036 C 1093.36 -0.587209 3.54672 0
M  V30 11037 C 1093.02 0.528588 4.53933 0
M  V30 11038 C 1094.02 1.39137 5.00936 0
M  V30 11039 C 1091.7 0.700549 4.97391 0
M  V30 11040 C 1093.7 2.41108 5.90039 0
M  V30 11041 C 1091.39 1.72357 5.8629 0
M  V30 11042 C 1092.38 2.57725 6.32509 0
M  V30 11043 O 1092.07 3.58275 7.19649 0
M  V30 11044 H 1091.8 -0.0250574 0.675535 0
M  V30 11045 H 1094.36 0.575377 1.97177 0
M  V30 11046 H 1092.59 -1.38421 3.61077 0
M  V30 11047 H 1094.28 -1.09078 3.90969 0
M  V30 11048 H 1095.04 1.26991 4.68079 0
M  V30 11049 H 1090.92 0.0457503 4.60977 0
M  V30 11050 H 1094.47 3.07774 6.26036 0
M  V30 11051 H 1090.36 1.84535 6.1856 0
M  V30 11052 H 1091.13 3.54489 7.37753 0
M  V30 11053 N 1093.79 -1.57004 0.136909 0
M  V30 11054 C 1094.74 -2.17524 -0.823784 0
M  V30 11055 C 1095.74 -1.1294 -1.26258 0
M  V30 11056 O 1096.94 -1.3121 -1.23223 0
M  V30 11057 H 1093.32 -0.696381 -0.283827 0
M  V30 11058 H 1095.29 -2.96997 -0.289052 0
M  V30 11059 C 1094.04 -2.80331 -2.05693 0
M  V30 11060 H 1093.36 -3.60515 -1.72825 0
M  V30 11061 H 1094.8 -3.26192 -2.70878 0
M  V30 11062 C 1093.26 -1.78322 -2.85837 0
M  V30 11063 O 1093.79 -1.2475 -3.81838 0
M  V30 11064 N 1092 -1.47854 -2.50175 0
M  V30 11065 H 1091.54 -1.9161 -1.72173 0
M  V30 11066 H 1091.5 -0.798464 -3.04092 0
M  V30 11067 N 1095.27 0.136881 -1.57004 0
M  V30 11068 C 1096.52 0.849031 -1.84172 0
M  V30 11069 C 1096.85 1.80359 -0.720027 0
M  V30 11070 O 1096.13 1.92538 0.275584 0
M  V30 11071 C 1096.41 1.61465 -3.21871 0
M  V30 11072 C 1096.26 0.680902 -4.44616 0
M  V30 11073 C 1097.58 2.57488 -3.56914 0
M  V30 11074 H 1094.7 0.307209 -0.669919 0
M  V30 11075 H 1097.34 0.113862 -1.89659 0
M  V30 11076 H 1095.49 2.24137 -3.17325 0
M  V30 11077 H 1097.16 0.0644094 -4.61255 0
M  V30 11078 H 1095.41 -0.00883629 -4.33799 0
M  V30 11079 H 1096.08 1.25286 -5.37594 0
M  V30 11080 H 1098.55 2.0493 -3.62136 0
M  V30 11081 H 1097.43 3.08101 -4.54274 0
M  V30 11082 H 1097.69 3.39321 -2.83397 0
M  V30 11083 N 1096.75 1.52266 0.40654 0
M  V30 11084 C 1097.66 1.78688 1.52012 0
M  V30 11085 C 1098.68 0.6726 1.60475 0
M  V30 11086 O 1099.85 0.95829 1.77141 0
M  V30 11087 C 1096.92 1.93434 2.87722 0
M  V30 11088 C 1095.98 3.17341 2.89125 0
M  V30 11089 C 1095.21 3.31374 4.18362 0
M  V30 11090 O 1095.43 2.50613 5.12396 0
M  V30 11091 O 1094.37 4.24539 4.26674 0
M  V30 11092 H 1098.19 2.73213 1.3262 0
M  V30 11093 H 1095.78 1.37142 0.592653 0
M  V30 11094 H 1097.66 2.04941 3.68208 0
M  V30 11095 H 1096.34 1.02099 3.07177 0
M  V30 11096 H 1095.24 3.1129 2.07483 0
M  V30 11097 H 1096.58 4.08466 2.7462 0
M  V30 11098 N 1098.23 -0.663929 1.42933 0
M  V30 11099 C 1099.14 -1.80643 1.49683 0
M  V30 11100 C 1100.15 -1.69694 0.38472 0
M  V30 11101 O 1101.33 -1.91052 0.637256 0
M  V30 11102 C 1098.4 -3.16858 1.4072 0
M  V30 11103 C 1097.46 -3.39684 2.62514 0
M  V30 11104 C 1096.69 -4.69399 2.53969 0
M  V30 11105 O 1096.91 -5.48037 1.58152 0
M  V30 11106 O 1095.85 -4.93709 3.44289 0
M  V30 11107 H 1099.67 -1.77903 2.46138 0
M  V30 11108 H 1097.26 -0.821059 1.24816 0
M  V30 11109 H 1099.14 -3.9812 1.38124 0
M  V30 11110 H 1097.81 -3.20211 0.473954 0
M  V30 11111 H 1096.72 -2.58227 2.70684 0
M  V30 11112 H 1098.05 -3.41169 3.54774 0
M  V30 11113 N 1099.71 -1.29285 -0.901281 0
M  V30 11114 C 1100.65 -1.14159 -2.02659 0
M  V30 11115 C 1101.65 -0.0575887 -1.69302 0
M  V30 11116 O 1102.85 -0.217273 -1.78684 0
M  V30 11117 H 1099.23 -0.352584 -0.66422 0
M  V30 11118 H 1101.2 -2.09434 -2.12555 0
M  V30 11119 C 1099.95 -0.833253 -3.37568 0
M  V30 11120 H 1099.27 -1.65939 -3.63737 0
M  V30 11121 H 1100.71 -0.767436 -4.16997 0
M  V30 11122 C 1099.17 0.46344 -3.33697 0
M  V30 11123 O 1099.7 1.48998 -3.73045 0
M  V30 11124 N 1097.91 0.468709 -2.86795 0
M  V30 11125 H 1097.45 -0.36712 -2.54971 0
M  V30 11126 H 1097.41 1.3363 -2.84588 0
M  V30 11127 N 1101.18 1.11143 -1.11736 0
M  V30 11128 C 1102.43 1.82586 -0.866412 0
M  V30 11129 C 1102.75 1.85227 0.609593 0
M  V30 11130 O 1102.02 1.32505 1.44288 0
M  V30 11131 H 1100.6 0.676149 -0.31754 0
M  V30 11132 H 1103.27 1.34516 -1.41037 0
M  V30 11133 H 1102.36 2.8635 -1.24136 0
M  V30 11134 N 1102.66 0.908147 1.28804 0
M  V30 11135 C 1104.08 0.605474 1.47669 0
M  V30 11136 C 1104.28 -0.850759 1.82659 0
M  V30 11137 O 1103.33 -1.63029 1.92816 0
M  V30 11138 C 1104.65 1.53856 2.58358 0
M  V30 11139 C 1106.2 1.54467 2.7223 0
M  V30 11140 C 1106.67 2.46424 3.86056 0
M  V30 11141 N 1108.16 2.44519 3.93402 0
M  V30 11142 C 1108.9 3.12371 4.80845 0
M  V30 11143 N 1108.39 3.89533 5.72919 0
M  V30 11144 N 1110.19 3.01486 4.74407 0
M  V30 11145 H 1102.34 1.84988 1.04371 0
M  V30 11146 H 1104.6 0.793132 0.519274 0
M  V30 11147 H 1104.31 2.57651 2.39393 0
M  V30 11148 H 1104.18 1.26543 3.5534 0
M  V30 11149 H 1106.57 0.514127 2.90587 0
M  V30 11150 H 1106.65 1.85821 1.75796 0
M  V30 11151 H 1106.29 3.49577 3.68454 0
M  V30 11152 H 1106.22 2.12375 4.81876 0
M  V30 11153 H 1108.71 1.88464 3.27551 0
M  V30 11154 H 1109.03 4.3834 6.36457 0
M  V30 11155 H 1107.37 3.93639 5.72777 0
M  V30 11156 H 1110.56 2.40713 4.01466 0
M  V30 11157 H 1110.73 3.5464 5.42342 0
M  V30 11158 N 1104.14 -1.42577 0.671525 0
M  V30 11159 C 1105.42 -1.95222 0.121529 0
M  V30 11160 C 1105.8 -1.61209 -1.36289 0
M  V30 11161 O 1105.15 -0.906561 -2.09747 0
M  V30 11162 C 1105.36 -3.46846 0.387189 0
M  V30 11163 C 1106.7 -4.23525 0.301938 0
M  V30 11164 O 1107.73 -3.54753 0.320755 0
M  V30 11165 O 1106.59 -5.45967 0.241317 0
M  V30 11166 H 1103.68 -0.826999 0.000968615 0
M  V30 11167 H 1106.23 -1.52422 0.746029 0
M  V30 11168 H 1105 -3.64795 1.41563 0
M  V30 11169 H 1104.62 -3.96686 -0.26948 0
M  V30 11170 N 1105.62 -0.414636 -1.52048 0
M  V30 11171 C 1106.86 0.158807 -2.03782 0
M  V30 11172 C 1107.22 1.41912 -1.29325 0
M  V30 11173 O 1108.42 2.07136 -1.71313 0
M  V30 11174 C 1106.69 0.395092 -3.55209 0
M  V30 11175 S 1108.25 0.935193 -4.28719 0
M  V30 11176 H 1105.07 0.0424729 -0.70973 0
M  V30 11177 H 1107.67 -0.568822 -1.87042 0
M  V30 11178 H 1106.38 -0.528875 -4.06978 0
M  V30 11179 H 1105.91 1.15044 -3.76203 0
M  V30 11180 H 1107.92 2.21519 -4.44009 0
M  V30 11181 N 1107.1 1.56929 -0.145233 0
M  V30 11182 C 1108.03 2.13796 0.826078 0
M  V30 11183 C 1109.04 1.08697 1.21197 0
M  V30 11184 O 1110.23 1.3598 1.15635 0
M  V30 11185 C 1107.33 2.6443 2.11967 0
M  V30 11186 C 1106.5 3.9391 1.90142 0
M  V30 11187 C 1105.56 4.29872 3.03474 0
M  V30 11188 O 1104.59 4.98227 2.75242 0
M  V30 11189 N 1105.79 3.8931 4.30602 0
M  V30 11190 H 1108.56 2.97764 0.340073 0
M  V30 11191 H 1106.12 1.61854 0.0383928 0
M  V30 11192 H 1108.11 2.85502 2.86829 0
M  V30 11193 H 1106.68 1.85196 2.51836 0
M  V30 11194 H 1105.9 3.81481 0.993268 0
M  V30 11195 H 1107.19 4.78523 1.72896 0
M  V30 11196 H 1106.58 3.34229 4.56407 0
M  V30 11197 H 1105.14 4.15438 5.0225 0
M  V30 11198 N 1108.58 -0.128553 1.57075 0
M  V30 11199 C 1109.8 -0.8564 1.88893 0
M  V30 11200 C 1110.23 -1.73095 0.736196 0
M  V30 11201 O 1109.58 -1.78567 -0.313629 0
M  V30 11202 C 1109.63 -1.67368 3.19406 0
M  V30 11203 O 1108.74 -2.77973 3.04639 0
M  V30 11204 H 1108.08 -0.237424 0.620102 0
M  V30 11205 H 1110.61 -0.113821 2.04283 0
M  V30 11206 H 1110.62 -2.0649 3.51889 0
M  V30 11207 H 1109.29 -1.03161 4.02903 0
M  V30 11208 H 1107.87 -2.42123 2.83603 0
M  V30 11209 N 1110.05 -1.5248 -0.398459 0
M  V30 11210 C 1111.28 -1.70925 -1.16586 0
M  V30 11211 C 1111.7 -0.42342 -1.83991 0
M  V30 11212 O 1111.05 0.601395 -1.72306 0
M  V30 11213 C 1111.1 -2.85226 -2.22099 0
M  V30 11214 O 1110.83 -4.08831 -1.57444 0
M  V30 11215 C 1112.33 -3.15272 -3.11639 0
M  V30 11216 H 1109.55 -0.572533 -0.349924 0
M  V30 11217 H 1112.09 -1.99087 -0.467416 0
M  V30 11218 H 1110.25 -2.59553 -2.87595 0
M  V30 11219 H 1110.66 -4.72603 -2.2748 0
M  V30 11220 H 1112.13 -3.98737 -3.81724 0
M  V30 11221 H 1112.61 -2.29262 -3.74614 0
M  V30 11222 H 1113.22 -3.42749 -2.518 0
M  V30 11223 N 1111.53 0.65634 -1.43283 0
M  V30 11224 C 1112.49 1.75117 -1.47874 0
M  V30 11225 C 1113.49 1.56629 -0.363846 0
M  V30 11226 O 1114.68 1.62584 -0.625464 0
M  V30 11227 C 1111.82 3.13957 -1.32831 0
M  V30 11228 H 1113.01 1.72429 -2.45374 0
M  V30 11229 H 1110.56 0.867704 -1.30002 0
M  V30 11230 H 1111.3 3.22259 -0.36326 0
M  V30 11231 H 1111.08 3.28781 -2.13649 0
M  V30 11232 H 1112.57 3.93799 -1.38969 0
M  V30 11233 N 1113.01 1.29761 0.894412 0
M  V30 11234 C 1114.24 1.2094 1.67872 0
M  V30 11235 C 1114.65 -0.229192 1.87404 0
M  V30 11236 O 1114.01 -1.15278 1.41482 0
M  V30 11237 C 1114.06 1.92424 3.06032 0
M  V30 11238 O 1113.78 3.30665 2.87388 0
M  V30 11239 C 1115.28 1.90144 4.0045 0
M  V30 11240 H 1112.5 0.418942 0.524145 0
M  V30 11241 H 1115.05 1.71226 1.11813 0
M  V30 11242 H 1113.2 1.4596 3.58851 0
M  V30 11243 H 1113.62 3.66741 3.74969 0
M  V30 11244 H 1115.09 2.44716 4.94791 0
M  V30 11245 H 1115.57 0.878175 4.30331 0
M  V30 11246 H 1116.17 2.36375 3.53563 0
M  V30 11247 N 1114.49 -1.10549 1.12324 0
M  V30 11248 C 1115.72 -1.8627 0.900618 0
M  V30 11249 C 1116.13 -1.80609 -0.550069 0
M  V30 11250 O 1115.49 -1.19396 -1.38025 0
M  V30 11251 C 1115.54 -3.34716 1.36556 0
M  V30 11252 O 1115.26 -3.40279 2.75938 0
M  V30 11253 C 1116.76 -4.27315 1.17969 0
M  V30 11254 H 1113.98 -0.588741 0.321908 0
M  V30 11255 H 1116.52 -1.39759 1.49291 0
M  V30 11256 H 1114.68 -3.78697 0.81652 0
M  V30 11257 H 1115.09 -4.32781 2.96312 0
M  V30 11258 H 1116.57 -5.29677 1.55391 0
M  V30 11259 H 1117.04 -4.39036 0.120158 0
M  V30 11260 H 1117.65 -3.89137 1.71617 0
M  V30 11261 N 1115.97 -0.914965 -1.28321 0
M  V30 11262 C 1117.21 -0.549562 -1.95212 0
M  V30 11263 C 1117.54 0.904658 -1.71842 0
M  V30 11264 O 1116.82 1.64354 -1.04009 0
M  V30 11265 C 1117.1 -0.860927 -3.49657 0
M  V30 11266 C 1116.96 -2.36797 -3.82423 0
M  V30 11267 C 1118.27 -0.357926 -4.38642 0
M  V30 11268 H 1115.39 -0.201136 -0.709023 0
M  V30 11269 H 1118.04 -1.14443 -1.51667 0
M  V30 11270 H 1116.19 -0.354665 -3.86878 0
M  V30 11271 H 1117.86 -2.94494 -3.55065 0
M  V30 11272 H 1116.1 -2.82245 -3.29424 0
M  V30 11273 H 1116.77 -2.53637 -4.90278 0
M  V30 11274 H 1119.25 -0.791636 -4.085 0
M  V30 11275 H 1118.12 -0.604855 -5.45557 0
M  V30 11276 H 1118.38 0.741775 -4.35833 0
M  V30 11277 N 1117.44 1.42219 -0.679077 0
M  V30 11278 C 1118.67 2.05815 -0.211649 0
M  V30 11279 C 1119.09 1.51037 1.13284 0
M  V30 11280 O 1118.44 0.651894 1.7046 0
M  V30 11281 C 1118.49 3.61218 -0.142663 0
M  V30 11282 O 1118.22 4.13965 -1.43402 0
M  V30 11283 C 1119.72 4.41934 0.347746 0
M  V30 11284 H 1116.94 0.663215 -0.101914 0
M  V30 11285 H 1119.48 1.82282 -0.927017 0
M  V30 11286 H 1117.64 3.83848 0.52342 0
M  V30 11287 H 1118.05 5.07872 -1.31021 0
M  V30 11288 H 1119.52 5.50921 0.344916 0
M  V30 11289 H 1120 4.16832 1.38377 0
M  V30 11290 H 1120.61 4.24332 -0.286751 0
M  V30 11291 N 1118.92 0.422693 1.51826 0
M  V30 11292 C 1120.15 -0.14753 2.06073 0
M  V30 11293 C 1120.56 -1.38264 1.2915 0
M  V30 11294 O 1119.9 -1.8052 0.340306 0
M  V30 11295 C 1119.96 -0.549558 3.55275 0
M  V30 11296 C 1119.63 0.576704 4.53347 0
M  V30 11297 C 1120.63 1.44442 4.99432 0
M  V30 11298 C 1118.31 0.753264 4.9662 0
M  V30 11299 C 1120.3 2.47352 5.87448 0
M  V30 11300 C 1117.99 1.78566 5.84429 0
M  V30 11301 C 1118.99 2.64419 6.29739 0
M  V30 11302 O 1118.68 3.65888 7.15808 0
M  V30 11303 H 1118.41 -0.0178911 0.675763 0
M  V30 11304 H 1120.96 0.596258 1.96555 0
M  V30 11305 H 1119.19 -1.34583 3.62525 0
M  V30 11306 H 1120.88 -1.04925 3.92104 0
M  V30 11307 H 1121.65 1.31948 4.66706 0
M  V30 11308 H 1117.53 0.0946405 4.60903 0
M  V30 11309 H 1121.07 3.14397 6.22736 0
M  V30 11310 H 1116.97 1.91086 6.16568 0
M  V30 11311 H 1117.74 3.62294 7.33952 0
M  V30 11312 N 1120.4 -1.5685 0.153553 0
M  V30 11313 C 1121.62 -2.01135 -0.505904 0
M  V30 11314 C 1122.05 -1.03301 -1.57196 0
M  V30 11315 O 1121.41 -0.00976022 -1.81297 0
M  V30 11316 C 1121.46 -3.44129 -1.0774 0
M  V30 11317 O 1120.56 -3.49318 -2.19205 0
M  V30 11318 H 1119.9 -0.652496 -0.123062 0
M  V30 11319 H 1122.43 -2.03039 0.252216 0
M  V30 11320 H 1122.44 -3.83066 -1.40444 0
M  V30 11321 H 1121.12 -4.1484 -0.296754 0
M  V30 11322 H 1119.69 -3.22227 -1.8768 0
M  V30 11323 N 1121.88 0.120221 -1.57141 0
M  V30 11324 C 1122.79 1.16641 -2.03549 0
M  V30 11325 C 1123.8 1.45407 -0.955656 0
M  V30 11326 O 1124.98 1.56547 -1.26708 0
M  V30 11327 C 1122.04 2.4734 -2.42948 0
M  V30 11328 C 1121.11 2.25982 -3.65008 0
M  V30 11329 C 1120.34 3.50449 -4.02518 0
M  V30 11330 O 1120.56 4.57706 -3.40384 0
M  V30 11331 O 1119.5 3.41524 -4.95626 0
M  V30 11332 H 1123.32 0.802323 -2.9291 0
M  V30 11333 H 1120.91 0.330927 -1.45689 0
M  V30 11334 H 1122.79 3.24348 -2.69029 0
M  V30 11335 H 1121.46 2.83225 -1.56733 0
M  V30 11336 H 1120.37 1.46837 -3.44078 0
M  V30 11337 H 1121.7 1.95002 -4.51924 0
M  V30 11338 N 1123.36 1.52689 0.390367 0
M  V30 11339 C 1124.58 1.71541 1.15678 0
M  V30 11340 C 1125 0.433171 1.83764 0
M  V30 11341 O 1124.36 -0.592248 1.72623 0
M  V30 11342 C 1124.41 2.864 2.20584 0
M  V30 11343 O 1124.13 4.0966 1.55274 0
M  V30 11344 C 1125.63 3.1692 3.09962 0
M  V30 11345 H 1122.85 0.574381 0.346883 0
M  V30 11346 H 1125.39 1.99332 0.456851 0
M  V30 11347 H 1123.55 2.61075 2.86214 0
M  V30 11348 H 1123.96 4.73802 2.2497 0
M  V30 11349 H 1125.44 4.00755 3.79604 0
M  V30 11350 H 1125.91 2.31245 3.73393 0
M  V30 11351 H 1126.52 3.4408 2.49979 0
M  V30 11352 N 1124.83 -0.648732 1.43629 0
M  V30 11353 C 1125.78 -1.76145 1.49136 0
M  V30 11354 C 1126.75 -1.62569 0.340649 0
M  V30 11355 O 1127.94 -1.82748 0.548435 0
M  V30 11356 C 1125.08 -3.14321 1.42466 0
M  V30 11357 C 1124.19 -3.38999 2.67776 0
M  V30 11358 C 1123.32 -4.67047 2.53062 0
M  V30 11359 C 1122.36 -4.84845 3.7362 0
M  V30 11360 N 1121.5 -6.04155 3.57689 0
M  V30 11361 H 1126.34 -1.70774 2.44213 0
M  V30 11362 H 1123.88 -0.833311 1.2122 0
M  V30 11363 H 1125.84 -3.94206 1.36592 0
M  V30 11364 H 1124.47 -3.18751 0.509666 0
M  V30 11365 H 1123.52 -2.53179 2.83909 0
M  V30 11366 H 1124.83 -3.48035 3.57314 0
M  V30 11367 H 1123.98 -5.55066 2.44922 0
M  V30 11368 H 1122.72 -4.60339 1.61056 0
M  V30 11369 H 1121.73 -3.95261 3.82163 0
M  V30 11370 H 1122.95 -4.9338 4.6664 0
M  V30 11371 H 1120.9 -5.9857 2.6842 0
M  V30 11372 H 1120.82 -6.14169 4.40832 0
M  V30 11373 H 1122.08 -6.94782 3.53409 0
M  V30 11374 N 1126.31 -1.30234 -0.887518 0
M  V30 11375 C 1127.59 -1.09572 -1.62029 0
M  V30 11376 C 1127.97 0.355877 -2.08079 0
M  V30 11377 O 1127.32 1.34692 -1.84582 0
M  V30 11378 C 1127.53 -2.0943 -2.79177 0
M  V30 11379 C 1128.88 -2.4101 -3.4957 0
M  V30 11380 O 1129.9 -2.0772 -2.89363 0
M  V30 11381 O 1128.76 -2.97943 -4.5814 0
M  V30 11382 H 1125.85 -0.420648 -0.712028 0
M  V30 11383 H 1128.4 -1.41651 -0.934517 0
M  V30 11384 H 1127.17 -3.07149 -2.42436 0
M  V30 11385 H 1126.79 -1.78154 -3.55453 0
M  V30 11386 N 1127.79 1.09952 -1.12909 0
M  V30 11387 C 1129.02 1.8579 -0.910483 0
M  V30 11388 C 1129.43 1.80898 0.540484 0
M  V30 11389 O 1128.79 1.20126 1.3739 0
M  V30 11390 C 1128.84 3.33987 -1.38329 0
M  V30 11391 O 1128.56 3.38811 -2.77739 0
M  V30 11392 C 1130.06 4.26683 -1.20234 0
M  V30 11393 H 1127.28 0.587026 -0.325025 0
M  V30 11394 H 1129.83 1.38965 -1.5003 0
M  V30 11395 H 1127.98 3.78259 -0.836592 0
M  V30 11396 H 1128.4 4.31204 -2.98603 0
M  V30 11397 H 1129.87 5.28846 -1.58197 0
M  V30 11398 H 1130.35 4.38966 -0.14344 0
M  V30 11399 H 1130.95 3.88221 -1.73679 0
M  V30 11400 N 1129.27 0.921757 1.27833 0
M  V30 11401 C 1130.22 0.406628 2.29018 0
M  V30 11402 C 1131.21 -0.505914 1.61669 0
M  V30 11403 O 1132.42 -0.386273 1.75807 0
M  V30 11404 H 1128.79 0.112914 0.743475 0
M  V30 11405 H 1130.76 1.27295 2.69886 0
M  V30 11406 C 1129.51 -0.330783 3.46123 0
M  V30 11407 H 1128.83 0.362207 3.98156 0
M  V30 11408 H 1130.27 -0.655738 4.18899 0
M  V30 11409 C 1128.73 -1.54161 2.9956 0
M  V30 11410 O 1129.26 -2.64052 3.0272 0
M  V30 11411 N 1127.47 -1.39137 2.55126 0
M  V30 11412 H 1127.02 -0.497319 2.52754 0
M  V30 11413 H 1126.97 -2.20278 2.24333 0
M  V30 11414 N 1130.75 -1.41857 0.686609 0
M  V30 11415 C 1131.97 -2.05699 0.222561 0
M  V30 11416 C 1132.39 -1.51636 -1.12481 0
M  V30 11417 O 1131.75 -0.660925 -1.70112 0
M  V30 11418 C 1131.8 -3.61138 0.161818 0
M  V30 11419 O 1131.52 -4.13199 1.45596 0
M  V30 11420 C 1133.02 -4.42112 -0.324304 0
M  V30 11421 H 1130.24 -0.662665 0.10543 0
M  V30 11422 H 1132.78 -1.81788 0.936671 0
M  V30 11423 H 1130.94 -3.8412 -0.503056 0
M  V30 11424 H 1131.35 -5.0717 1.33712 0
M  V30 11425 H 1132.83 -5.51097 -0.315694 0
M  V30 11426 H 1133.3 -4.1756 -1.36164 0
M  V30 11427 H 1133.91 -4.24174 0.309251 0
M  V30 11428 N 1132.22 -0.430739 -1.51599 0
M  V30 11429 C 1133.45 0.136797 -2.06447 0
M  V30 11430 C 1133.87 1.37027 -1.29881 0
M  V30 11431 O 1133.22 1.78983 -0.356543 0
M  V30 11432 C 1133.28 0.465637 -3.58489 0
M  V30 11433 O 1133 -0.718873 -4.32162 0
M  V30 11434 C 1134.5 1.08456 -4.29828 0
M  V30 11435 H 1131.72 0.0108468 -0.670912 0
M  V30 11436 H 1134.26 -0.607921 -1.95255 0
M  V30 11437 H 1132.42 1.16025 -3.69617 0
M  V30 11438 H 1132.83 -0.439195 -5.22658 0
M  V30 11439 H 1134.3 1.2647 -5.37317 0
M  V30 11440 H 1134.78 2.06376 -3.87693 0
M  V30 11441 H 1135.39 0.429525 -4.23125 0
M  V30 11442 N 1133.7 1.56767 -0.161869 0
M  V30 11443 C 1134.61 2.21083 0.784814 0
M  V30 11444 C 1135.63 1.19959 1.26039 0
M  V30 11445 O 1136.8 1.52588 1.31449 0
M  V30 11446 C 1133.87 2.83153 2.00063 0
M  V30 11447 C 1132.93 3.9945 1.57285 0
M  V30 11448 C 1132.16 4.5855 2.7307 0
M  V30 11449 O 1132.39 4.16534 3.89686 0
M  V30 11450 O 1131.32 5.48575 2.47688 0
M  V30 11451 H 1135.15 3.02522 0.267243 0
M  V30 11452 H 1132.73 1.49255 0.0658783 0
M  V30 11453 H 1134.61 3.22546 2.71186 0
M  V30 11454 H 1133.29 2.04718 2.50744 0
M  V30 11455 H 1132.2 3.64745 0.831393 0
M  V30 11456 H 1133.53 4.7945 1.11304 0
M  V30 11457 N 1135.18 -0.111886 1.57202 0
M  V30 11458 C 1136.43 -0.817022 1.84412 0
M  V30 11459 C 1136.74 -1.80708 0.748608 0
M  V30 11460 O 1137.95 -2.55891 0.907319 0
M  V30 11461 C 1136.4 -1.50376 3.26979 0
M  V30 11462 C 1136.01 -0.554334 4.44557 0
M  V30 11463 C 1137.76 -2.19361 3.63429 0
M  V30 11464 C 1135.66 -1.24471 5.78153 0
M  V30 11465 H 1134.59 -0.308864 0.687836 0
M  V30 11466 H 1137.24 -0.0698109 1.83367 0
M  V30 11467 H 1135.63 -2.29785 3.22514 0
M  V30 11468 H 1136.8 0.207045 4.60335 0
M  V30 11469 H 1135.12 0.0289261 4.1639 0
M  V30 11470 H 1137.71 -2.71716 4.60515 0
M  V30 11471 H 1138.06 -2.97488 2.91215 0
M  V30 11472 H 1138.59 -1.46833 3.69709 0
M  V30 11473 H 1135.33 -0.504584 6.53555 0
M  V30 11474 H 1134.85 -1.97792 5.66249 0
M  V30 11475 H 1136.53 -1.77591 6.2215 0
M  V30 11476 N 1136.66 -1.52894 -0.382264 0
M  V30 11477 C 1137.88 -1.72453 -1.15216 0
M  V30 11478 C 1138.31 -0.444925 -1.82762 0
M  V30 11479 O 1137.67 0.599825 -1.7109 0
M  V30 11480 C 1137.71 -2.87939 -2.17079 0
M  V30 11481 O 1136.82 -2.55383 -3.23811 0
M  V30 11482 H 1136.16 -0.57324 -0.335099 0
M  V30 11483 H 1138.69 -1.99713 -0.444495 0
M  V30 11484 H 1138.7 -3.13628 -2.60963 0
M  V30 11485 H 1137.37 -3.80765 -1.67305 0
M  V30 11486 H 1135.95 -2.40457 -2.85018 0
M  V30 11487 N 1138.14 0.641106 -1.43971 0
M  V30 11488 C 1139.1 1.73539 -1.49723 0
M  V30 11489 C 1140.1 1.56235 -0.380438 0
M  V30 11490 O 1141.29 1.61912 -0.642673 0
M  V30 11491 C 1138.42 3.1253 -1.36153 0
M  V30 11492 H 1139.62 1.69816 -2.47189 0
M  V30 11493 H 1137.17 0.853867 -1.30915 0
M  V30 11494 H 1137.9 3.21856 -0.39742 0
M  V30 11495 H 1137.69 3.26496 -2.17124 0
M  V30 11496 H 1139.18 3.92303 -1.43138 0
M  V30 11497 N 1139.62 1.30703 0.880598 0
M  V30 11498 C 1140.84 1.22714 1.6658 0
M  V30 11499 C 1141.26 -0.209303 1.87636 0
M  V30 11500 O 1140.62 -1.13771 1.42697 0
M  V30 11501 C 1140.67 1.95659 3.03974 0
M  V30 11502 O 1140.39 3.33695 2.83865 0
M  V30 11503 C 1141.89 1.9438 3.98411 0
M  V30 11504 H 1139.11 0.424478 0.519673 0
M  V30 11505 H 1141.65 1.72402 1.0999 0
M  V30 11506 H 1139.81 1.49758 3.57283 0
M  V30 11507 H 1140.22 3.70697 3.71058 0
M  V30 11508 H 1141.7 2.4995 4.92168 0
M  V30 11509 H 1142.17 0.923767 4.29375 0
M  V30 11510 H 1142.78 2.40112 3.51036 0
M  V30 11511 N 1141.09 -1.09351 1.1349 0
M  V30 11512 C 1142.32 -1.85844 0.92069 0
M  V30 11513 C 1142.74 -1.80616 -0.525303 0
M  V30 11514 O 1142.1 -1.1842 -1.37282 0
M  V30 11515 C 1142.15 -3.31716 1.4141 0
M  V30 11516 O 1141.25 -4.08014 0.599838 0
M  V30 11517 H 1140.59 -0.576242 0.32991 0
M  V30 11518 H 1143.12 -1.38084 1.50976 0
M  V30 11519 H 1143.13 -3.82564 1.41805 0
M  V30 11520 H 1141.81 -3.34837 2.46692 0
M  V30 11521 H 1140.39 -3.66944 0.663816 0
M  V30 11522 N 1142.57 -0.928524 -1.27343 0
M  V30 11523 C 1143.82 -0.568267 -1.93946 0
M  V30 11524 C 1144.14 0.893501 -1.73325 0
M  V30 11525 O 1143.41 1.63344 -1.08147 0
M  V30 11526 H 1141.99 -0.207173 -0.717696 0
M  V30 11527 H 1144.65 -1.1811 -1.55036 0
M  V30 11528 H 1143.75 -0.775246 -3.02318 0
M  V30 11529 N 1144.05 1.41491 -0.694123 0
M  V30 11530 C 1144.98 2.33462 -0.0422169 0
M  V30 11531 C 1145.96 1.51739 0.76872 0
M  V30 11532 O 1147.15 1.8028 0.721985 0
M  V30 11533 C 1144.28 3.35545 0.895925 0
M  V30 11534 C 1143.23 4.27568 0.192188 0
M  V30 11535 C 1142.56 5.20014 1.24459 0
M  V30 11536 C 1143.86 5.1376 -0.940626 0
M  V30 11537 H 1145.55 2.88225 -0.810363 0
M  V30 11538 H 1143.1 1.38586 -0.39114 0
M  V30 11539 H 1145.05 3.9881 1.36121 0
M  V30 11540 H 1143.77 2.79129 1.69572 0
M  V30 11541 H 1142.43 3.65726 -0.25305 0
M  V30 11542 H 1142.08 4.59913 2.03687 0
M  V30 11543 H 1141.78 5.82417 0.778734 0
M  V30 11544 H 1143.3 5.86155 1.71041 0
M  V30 11545 H 1144.72 5.70601 -0.555692 0
M  V30 11546 H 1143.11 5.85097 -1.33349 0
M  V30 11547 H 1144.18 4.51011 -1.78093 0
M  V30 11548 N 1145.53 0.438773 1.51369 0
M  V30 11549 C 1146.77 -0.127401 2.02399 0
M  V30 11550 C 1147.11 -1.42235 1.32223 0
M  V30 11551 O 1146.38 -1.89513 0.437607 0
M  V30 11552 C 1146.66 -0.344673 3.58447 0
M  V30 11553 C 1146.52 0.969027 4.39238 0
M  V30 11554 C 1147.84 -1.11381 4.25773 0
M  V30 11555 H 1144.96 -0.0448281 0.735635 0
M  V30 11556 H 1147.6 0.57805 1.80993 0
M  V30 11557 H 1145.75 -0.945582 3.76817 0
M  V30 11558 H 1147.42 1.60403 4.32514 0
M  V30 11559 H 1145.66 1.57329 4.04265 0
M  V30 11560 H 1146.33 0.771029 5.46589 0
M  V30 11561 H 1148.81 -0.604785 4.11681 0
M  V30 11562 H 1147.69 -1.23459 5.34835 0
M  V30 11563 H 1147.95 -2.14225 3.8673 0
M  V30 11564 N 1147.01 -1.56678 0.170181 0
M  V30 11565 C 1148.42 -1.83452 -0.346742 0
M  V30 11566 C 1148.77 -1.08993 -1.63141 0
M  V30 11567 O 1147.89 -0.342607 -2.13671 0
M  V30 11568 C 1148.49 -3.32779 -0.635882 0
M  V30 11569 C 1147.05 -3.60052 -1.09725 0
M  V30 11570 C 1146.19 -2.76983 -0.132516 0
M  V30 11571 H 1149.14 -1.53719 0.394465 0
M  V30 11572 H 1149.17 -3.50195 -1.48806 0
M  V30 11573 H 1148.68 -3.86944 0.299291 0
M  V30 11574 H 1146.78 -3.11297 -2.04756 0
M  V30 11575 H 1146.89 -4.68393 -1.00719 0
M  V30 11576 H 1145.26 -2.46794 -0.62966 0
M  V30 11577 H 1146.04 -3.33929 0.796658 0
M  V30 11578 N 1148.48 0.103547 -1.57259 0
M  V30 11579 C 1149.73 0.806979 -1.8529 0
M  V30 11580 C 1150.05 1.79679 -0.757653 0
M  V30 11581 O 1149.32 1.94695 0.216913 0
M  V30 11582 H 1147.9 0.301012 -0.683667 0
M  V30 11583 H 1150.56 0.0871886 -1.94705 0
M  V30 11584 H 1149.66 1.34275 -2.81738 0
M  V30 11585 N 1149.96 1.53094 0.37415 0
M  V30 11586 C 1151.21 1.68527 1.11548 0
M  V30 11587 C 1151.53 0.435253 1.9008 0
M  V30 11588 O 1150.8 -0.550594 1.88003 0
M  V30 11589 H 1149.38 0.621255 0.41479 0
M  V30 11590 H 1152.04 1.90258 0.422844 0
M  V30 11591 H 1151.14 2.54248 1.81009 0
M  V30 11592 N 1151.44 -0.633461 1.44309 0
M  V30 11593 C 1152.69 -1.38902 1.4625 0
M  V30 11594 C 1153 -1.95354 0.0980699 0
M  V30 11595 O 1154.21 -2.715 -0.0049983 0
M  V30 11596 C 1152.66 -2.51477 2.57463 0
M  V30 11597 C 1152.27 -2.01549 4.00103 0
M  V30 11598 C 1154.02 -3.28698 2.68622 0
M  V30 11599 C 1151.92 -3.11452 5.02744 0
M  V30 11600 H 1150.85 -0.521976 0.544112 0
M  V30 11601 H 1153.5 -0.681725 1.70367 0
M  V30 11602 H 1151.89 -3.24771 2.26582 0
M  V30 11603 H 1153.06 -1.35135 4.4054 0
M  V30 11604 H 1151.37 -1.3715 3.93165 0
M  V30 11605 H 1153.97 -4.10624 3.42479 0
M  V30 11606 H 1154.31 -3.78027 1.7436 0
M  V30 11607 H 1154.85 -2.62494 2.98901 0
M  V30 11608 H 1151.59 -2.6707 5.98627 0
M  V30 11609 H 1151.11 -3.76514 4.66902 0
M  V30 11610 H 1152.79 -3.76265 5.2634 0
M  V30 11611 N 1152.92 -1.31168 -0.873655 0
M  V30 11612 C 1153.87 -1.18432 -2.00191 0
M  V30 11613 C 1154.86 -0.0934873 -1.69142 0
M  V30 11614 O 1156.07 -0.255126 -1.78183 0
M  V30 11615 H 1152.44 -0.366594 -0.656592 0
M  V30 11616 H 1154.41 -2.13896 -2.08065 0
M  V30 11617 C 1153.16 -0.904668 -3.35725 0
M  V30 11618 H 1152.48 -1.73617 -3.60135 0
M  V30 11619 H 1153.92 -0.855715 -4.15275 0
M  V30 11620 C 1152.38 0.392554 -3.34605 0
M  V30 11621 O 1152.91 1.41052 -3.76121 0
M  V30 11622 N 1151.12 0.40777 -2.87725 0
M  V30 11623 H 1150.67 -0.42112 -2.54134 0
M  V30 11624 H 1150.62 1.27564 -2.87358 0
M  V30 11625 N 1154.4 1.08748 -1.14068 0
M  V30 11626 C 1155.64 1.81333 -0.908081 0
M  V30 11627 C 1155.98 1.85826 0.564112 0
M  V30 11628 O 1155.25 1.33157 1.41773 0
M  V30 11629 C 1155.53 3.27127 -1.50531 0
M  V30 11630 C 1155.39 3.30865 -3.04711 0
M  V30 11631 C 1156.71 4.24006 -1.17928 0
M  V30 11632 H 1153.82 0.658326 -0.331325 0
M  V30 11633 H 1156.47 1.27345 -1.41008 0
M  V30 11634 H 1154.62 3.73233 -1.07839 0
M  V30 11635 H 1156.29 2.93109 -3.56209 0
M  V30 11636 H 1154.53 2.70241 -3.39341 0
M  V30 11637 H 1155.2 4.33603 -3.41603 0
M  V30 11638 H 1157.68 3.86221 -1.54831 0
M  V30 11639 H 1156.55 5.2434 -1.62353 0
M  V30 11640 H 1156.82 4.42 -0.0940349 0
M  V30 11641 N 1155.87 0.935264 1.26849 0
M  V30 11642 C 1157.1 0.596249 1.98122 0
M  V30 11643 C 1157.52 -0.827452 1.69702 0
M  V30 11644 O 1156.87 -1.55095 0.961864 0
M  V30 11645 C 1156.93 0.821773 3.52036 0
M  V30 11646 O 1156.65 2.18947 3.79465 0
M  V30 11647 C 1158.15 0.492498 4.40556 0
M  V30 11648 H 1155.37 0.225242 0.632066 0
M  V30 11649 H 1157.91 1.25435 1.61512 0
M  V30 11650 H 1156.07 0.210363 3.86828 0
M  V30 11651 H 1156.48 2.24509 4.74021 0
M  V30 11652 H 1157.95 0.700953 5.47531 0
M  V30 11653 H 1158.43 -0.57228 4.35456 0
M  V30 11654 H 1159.04 1.08238 4.11296 0
M  V30 11655 N 1157.35 -1.41121 0.701616 0
M  V30 11656 C 1158.58 -2.05452 0.244365 0
M  V30 11657 C 1159 -1.5282 -1.10866 0
M  V30 11658 O 1158.35 -0.67893 -1.69401 0
M  V30 11659 C 1158.4 -3.60946 0.200112 0
M  V30 11660 O 1158.12 -4.11632 1.4997 0
M  V30 11661 C 1159.63 -4.42431 -0.277394 0
M  V30 11662 H 1156.85 -0.66151 0.112453 0
M  V30 11663 H 1159.39 -1.80784 0.9559 0
M  V30 11664 H 1157.54 -3.84632 -0.462287 0
M  V30 11665 H 1157.96 -5.05723 1.39084 0
M  V30 11666 H 1159.43 -5.514 -0.257225 0
M  V30 11667 H 1159.91 -4.1898 -1.31728 0
M  V30 11668 H 1160.52 -4.23822 0.354223 0
M  V30 11669 N 1158.83 -0.446794 -1.51134 0
M  V30 11670 C 1159.79 0.348311 -2.26538 0
M  V30 11671 C 1160.79 0.941566 -1.3035 0
M  V30 11672 O 1161.98 0.814537 -1.53984 0
M  V30 11673 C 1159.12 1.49371 -3.06433 0
M  V30 11674 H 1160.31 -0.312648 -2.98266 0
M  V30 11675 H 1157.86 -0.200201 -1.55013 0
M  V30 11676 H 1158.6 2.19045 -2.39144 0
M  V30 11677 H 1158.38 1.07439 -3.77093 0
M  V30 11678 H 1159.87 2.05522 -3.63525 0
M  V30 11679 N 1160.31 1.56586 -0.178487 0
M  V30 11680 C 1161.55 1.9739 0.465306 0
M  V30 11681 C 1161.89 1.06474 1.6241 0
M  V30 11682 O 1161.16 0.113316 1.9417 0
M  V30 11683 C 1161.45 3.47577 0.941408 0
M  V30 11684 C 1161.3 4.49271 -0.218054 0
M  V30 11685 C 1162.62 4.01038 1.81263 0
M  V30 11686 H 1159.74 0.717676 0.167663 0
M  V30 11687 H 1162.38 1.88128 -0.266067 0
M  V30 11688 H 1160.53 3.556 1.56463 0
M  V30 11689 H 1162.2 4.53301 -0.855332 0
M  V30 11690 H 1160.44 4.24936 -0.872441 0
M  V30 11691 H 1161.11 5.51776 0.157315 0
M  V30 11692 H 1163.59 3.9569 1.28718 0
M  V30 11693 H 1162.47 5.06526 2.11476 0
M  V30 11694 H 1162.73 3.45288 2.76096 0
M  V30 11695 N 1161.79 -0.095206 1.57312 0
M  V30 11696 C 1163.01 -0.81614 1.90667 0
M  V30 11697 C 1163.44 -1.71494 0.772746 0
M  V30 11698 O 1162.79 -1.79192 -0.275682 0
M  V30 11699 C 1162.84 -1.60555 3.22885 0
M  V30 11700 O 1161.95 -2.71448 3.10467 0
M  V30 11701 H 1161.29 -0.224217 0.624998 0
M  V30 11702 H 1163.82 -0.070464 2.04479 0
M  V30 11703 H 1163.83 -1.98979 3.5619 0
M  V30 11704 H 1162.5 -0.945918 4.05 0
M  V30 11705 H 1161.08 -2.36053 2.88675 0
M  V30 11706 N 1163.26 -1.53291 -0.366026 0
M  V30 11707 C 1164.17 -1.82656 -1.47221 0
M  V30 11708 C 1165.19 -0.71491 -1.58635 0
M  V30 11709 O 1166.37 -1.00492 -1.74538 0
M  V30 11710 C 1163.43 -2.00995 -2.82492 0
M  V30 11711 C 1162.49 -3.24895 -2.8061 0
M  V30 11712 C 1161.73 -3.4235 -4.09429 0
M  V30 11713 O 1161.95 -2.6411 -5.05571 0
M  V30 11714 O 1160.88 -4.35702 -4.15268 0
M  V30 11715 H 1164.71 -2.76634 -1.2533 0
M  V30 11716 H 1162.29 -1.38665 -0.556084 0
M  V30 11717 H 1164.18 -2.14632 -3.62645 0
M  V30 11718 H 1162.85 -1.10207 -3.04362 0
M  V30 11719 H 1161.76 -3.16682 -1.99157 0
M  V30 11720 H 1163.09 -4.15604 -2.63694 0
M  V30 11721 N 1164.74 0.6258 -1.44643 0
M  V30 11722 C 1165.99 1.3873 -1.47925 0
M  V30 11723 C 1166.32 1.93868 -0.113469 0
M  V30 11724 O 1165.6 1.73976 0.869639 0
M  V30 11725 C 1165.88 2.54867 -2.54391 0
M  V30 11726 C 1165.73 2.05044 -4.00346 0
M  V30 11727 C 1167.05 3.57043 -2.57309 0
M  V30 11728 H 1164.17 0.503087 -0.538584 0
M  V30 11729 H 1166.81 0.707102 -1.76352 0
M  V30 11730 H 1164.96 3.12894 -2.30281 0
M  V30 11731 H 1166.63 1.51807 -4.35606 0
M  V30 11732 H 1164.88 1.36185 -4.11869 0
M  V30 11733 H 1165.55 2.88681 -4.70497 0
M  V30 11734 H 1168.02 3.08826 -2.78865 0
M  V30 11735 H 1166.9 4.35818 -3.33698 0
M  V30 11736 H 1167.16 4.11464 -1.61708 0
M  V30 11737 N 1166.22 1.31629 0.866686 0
M  V30 11738 C 1167.45 1.24609 1.65793 0
M  V30 11739 C 1167.87 -0.184944 1.87189 0
M  V30 11740 O 1167.23 -1.1322 1.41601 0
M  V30 11741 C 1167.28 1.9988 3.00134 0
M  V30 11742 O 1166.38 1.33838 3.90079 0
M  V30 11743 H 1165.72 0.430051 0.505917 0
M  V30 11744 H 1168.25 1.73752 1.08035 0
M  V30 11745 H 1168.26 2.09599 3.50046 0
M  V30 11746 H 1166.94 3.03947 2.83882 0
M  V30 11747 H 1165.51 1.3259 3.48532 0
M  V30 11748 N 1167.7 -1.08142 1.14644 0
M  V30 11749 C 1168.95 -1.80849 0.917685 0
M  V30 11750 C 1169.28 -1.86123 -0.554249 0
M  V30 11751 O 1168.55 -1.33907 -1.41065 0
M  V30 11752 C 1168.84 -3.26325 1.52264 0
M  V30 11753 C 1168.69 -3.29244 3.06461 0
M  V30 11754 C 1170.01 -4.23375 1.20175 0
M  V30 11755 H 1167.13 -0.656559 0.334812 0
M  V30 11756 H 1169.77 -1.26595 1.41682 0
M  V30 11757 H 1167.92 -3.72656 1.09817 0
M  V30 11758 H 1169.59 -2.91216 3.57758 0
M  V30 11759 H 1167.83 -2.68438 3.40769 0
M  V30 11760 H 1168.51 -4.31785 3.43897 0
M  V30 11761 H 1170.98 -3.85394 1.56877 0
M  V30 11762 H 1169.86 -5.23472 1.65132 0
M  V30 11763 H 1170.12 -4.41944 0.117474 0
M  V30 11764 N 1169.18 -0.941978 -1.26351 0
M  V30 11765 C 1170.59 -0.632522 -1.75659 0
M  V30 11766 C 1170.94 0.852287 -1.76722 0
M  V30 11767 O 1170.06 1.66701 -1.37985 0
M  V30 11768 C 1170.66 -1.14145 -3.18993 0
M  V30 11769 C 1169.22 -0.882391 -3.65911 0
M  V30 11770 C 1168.37 -1.29189 -2.45368 0
M  V30 11771 H 1171.32 -1.12019 -1.12416 0
M  V30 11772 H 1171.34 -0.495639 -3.77258 0
M  V30 11773 H 1170.85 -2.22213 -3.18187 0
M  V30 11774 H 1168.95 0.183873 -3.72146 0
M  V30 11775 H 1169.06 -1.50996 -4.54683 0
M  V30 11776 H 1167.43 -0.710316 -2.44595 0
M  V30 11777 H 1168.21 -2.38152 -2.47262 0
M  V30 11778 N 1170.66 1.40747 -0.709091 0
M  V30 11779 C 1172.07 1.83955 -0.318968 0
M  V30 11780 C 1172.42 1.59304 1.14527 0
M  V30 11781 O 1171.54 1.07052 1.88066 0
M  V30 11782 C 1172.14 3.33934 -0.572147 0
M  V30 11783 C 1170.7 3.75661 -0.235802 0
M  V30 11784 C 1169.84 2.64024 -0.847743 0
M  V30 11785 H 1172.79 1.30107 -0.908734 0
M  V30 11786 H 1172.82 3.80143 0.164752 0
M  V30 11787 H 1172.33 3.51844 -1.63791 0
M  V30 11788 H 1170.43 3.63348 0.825164 0
M  V30 11789 H 1170.54 4.73955 -0.700263 0
M  V30 11790 H 1168.91 2.53197 -0.276283 0
M  V30 11791 H 1169.69 2.84748 -1.91765 0
M  V30 11792 N 1172.13 0.454803 1.50895 0
M  V30 11793 C 1173.08 -0.347769 2.28165 0
M  V30 11794 C 1174.05 -1.00158 1.32505 0
M  V30 11795 O 1175.24 -1.01715 1.61427 0
M  V30 11796 C 1172.38 -1.43315 3.13934 0
M  V30 11797 C 1171.49 -0.795736 4.24608 0
M  V30 11798 C 1170.62 -1.85763 4.9766 0
M  V30 11799 C 1169.66 -1.19959 6.0023 0
M  V30 11800 N 1168.8 -2.20361 6.66622 0
M  V30 11801 H 1173.64 0.317493 2.96304 0
M  V30 11802 H 1171.18 0.168418 1.46133 0
M  V30 11803 H 1173.13 -2.07391 3.62001 0
M  V30 11804 H 1171.76 -2.0678 2.47875 0
M  V30 11805 H 1170.82 -0.0428173 3.80376 0
M  V30 11806 H 1172.13 -0.275477 4.98039 0
M  V30 11807 H 1171.28 -2.5746 5.49363 0
M  V30 11808 H 1170.02 -2.41166 4.23899 0
M  V30 11809 H 1169.03 -0.46817 5.47803 0
M  V30 11810 H 1170.25 -0.652666 6.75956 0
M  V30 11811 H 1168.2 -2.74812 5.95663 0
M  V30 11812 H 1168.11 -1.73275 7.35875 0
M  V30 11813 H 1169.38 -2.91488 7.22949 0
M  V30 11814 N 1173.61 -1.56489 0.186789 0
M  V30 11815 C 1174.86 -1.96952 -0.453261 0
M  V30 11816 C 1175.18 -1.07451 -1.62725 0
M  V30 11817 O 1174.45 -0.144046 -1.9537 0
M  V30 11818 H 1173.03 -0.727295 -0.170445 0
M  V30 11819 H 1175.69 -1.92999 0.271584 0
M  V30 11820 H 1174.79 -3.01594 -0.802951 0
M  V30 11821 N 1175.09 0.086862 -1.5736 0
M  V30 11822 C 1176.32 0.802167 -1.90717 0
M  V30 11823 C 1176.73 1.71875 -0.781304 0
M  V30 11824 O 1176.09 1.80831 0.246255 0
M  V30 11825 C 1176.14 1.60858 -3.23739 0
M  V30 11826 O 1175.86 0.728851 -4.31995 0
M  V30 11827 C 1177.36 2.42621 -3.71012 0
M  V30 11828 H 1174.58 0.228914 -0.630745 0
M  V30 11829 H 1177.13 0.061634 -2.04407 0
M  V30 11830 H 1175.28 2.30153 -3.11622 0
M  V30 11831 H 1175.7 1.2882 -5.08435 0
M  V30 11832 H 1177.17 2.94683 -4.66761 0
M  V30 11833 H 1177.65 3.21462 -2.99264 0
M  V30 11834 H 1178.25 1.78509 -3.86024 0
M  V30 11835 N 1176.57 1.53483 0.357892 0
M  V30 11836 C 1177.79 1.74264 1.12458 0
M  V30 11837 C 1178.22 0.473944 1.82031 0
M  V30 11838 O 1177.58 -0.57253 1.72023 0
M  V30 11839 C 1177.62 2.91356 2.12471 0
M  V30 11840 O 1176.73 2.60502 3.19707 0
M  V30 11841 H 1176.07 0.578499 0.325937 0
M  V30 11842 H 1178.6 2.00395 0.412666 0
M  V30 11843 H 1178.61 3.1774 2.5594 0
M  V30 11844 H 1177.28 3.83378 1.61226 0
M  V30 11845 H 1175.86 2.44961 2.81156 0
M  V30 11846 N 1178.05 -0.61812 1.44973 0
M  V30 11847 C 1179.01 -1.71135 1.52465 0
M  V30 11848 C 1180.01 -1.5561 0.405246 0
M  V30 11849 O 1181.2 -1.60869 0.668351 0
M  V30 11850 C 1178.33 -3.10324 1.41108 0
M  V30 11851 H 1179.52 -1.65862 2.49859 0
M  V30 11852 H 1177.08 -0.832932 1.32257 0
M  V30 11853 H 1177.81 -3.21183 0.448574 0
M  V30 11854 H 1177.6 -3.23001 2.2229 0
M  V30 11855 H 1179.09 -3.89976 1.49361 0
M  V30 11856 N 1179.52 -1.32087 -0.859693 0
M  V30 11857 C 1180.49 -1.20546 -1.94939 0
M  V30 11858 C 1181.49 -0.12982 -1.60275 0
M  V30 11859 O 1182.68 -0.379853 -1.70008 0
M  V30 11860 C 1179.81 -0.852717 -3.30063 0
M  V30 11861 H 1181 -2.17384 -2.06602 0
M  V30 11862 H 1178.55 -1.15846 -1.04926 0
M  V30 11863 H 1179.29 0.114059 -3.24099 0
M  V30 11864 H 1179.07 -1.63035 -3.56598 0
M  V30 11865 H 1180.56 -0.796145 -4.09941 0
M  V30 11866 N 1181 1.07532 -1.15215 0
M  V30 11867 C 1182.25 1.8052 -0.937234 0
M  V30 11868 C 1182.6 1.84954 0.530084 0
M  V30 11869 O 1181.9 1.32091 1.3879 0
M  V30 11870 C 1182.09 3.2518 -1.483 0
M  V30 11871 C 1181.92 3.34841 -3.00185 0
M  V30 11872 C 1180.69 3.45509 -3.68716 0
M  V30 11873 C 1182.89 3.25749 -3.97985 0
M  V30 11874 N 1180.87 3.44055 -5.08429 0
M  V30 11875 C 1182.24 3.31391 -5.24004 0
M  V30 11876 C 1184.29 3.09547 -3.89981 0
M  V30 11877 C 1183 3.22498 -6.42952 0
M  V30 11878 C 1185.02 3.01987 -5.08486 0
M  V30 11879 C 1184.39 3.08239 -6.33378 0
M  V30 11880 H 1180.48 0.673971 -0.396594 0
M  V30 11881 H 1183.07 1.2837 -1.46387 0
M  V30 11882 H 1181.24 3.75754 -0.983021 0
M  V30 11883 H 1182.97 3.86279 -1.20709 0
M  V30 11884 H 1179.73 3.49778 -3.193 0
M  V30 11885 H 1180.15 3.4686 -5.81392 0
M  V30 11886 H 1184.79 3.03568 -2.94289 0
M  V30 11887 H 1182.51 3.27236 -7.38879 0
M  V30 11888 H 1186.1 2.90557 -5.04051 0
M  V30 11889 H 1184.98 3.02431 -7.23537 0
M  V30 11890 N 1182.48 0.948665 1.2585 0
M  V30 11891 C 1183.44 0.468673 2.24357 0
M  V30 11892 C 1184.44 -0.424355 1.551 0
M  V30 11893 O 1185.63 -0.222481 1.72773 0
M  V30 11894 C 1182.77 -0.32359 3.39361 0
M  V30 11895 H 1183.96 1.33928 2.68334 0
M  V30 11896 H 1181.51 0.731357 1.38133 0
M  V30 11897 H 1182.25 -1.21212 3.00796 0
M  V30 11898 H 1182.03 0.316998 3.90816 0
M  V30 11899 H 1183.52 -0.649087 4.12525 0
M  V30 11900 N 1183.96 -1.40369 0.716545 0
M  V30 11901 C 1185.21 -2.00101 0.253452 0
M  V30 11902 C 1185.52 -1.57471 -1.16027 0
M  V30 11903 O 1186.73 -2.09909 -1.72193 0
M  V30 11904 C 1185.18 -3.57645 0.402213 0
M  V30 11905 C 1184.79 -4.09248 1.82264 0
M  V30 11906 C 1186.53 -4.245 -3.88526e-05 0
M  V30 11907 C 1184.44 -5.59299 1.92193 0
M  V30 11908 H 1183.37 -0.748488 0.0910047 0
M  V30 11909 H 1186.02 -1.60595 0.887772 0
M  V30 11910 H 1184.4 -3.94857 -0.300706 0
M  V30 11911 H 1185.58 -3.83412 2.55601 0
M  V30 11912 H 1183.89 -3.54993 2.17644 0
M  V30 11913 H 1186.49 -5.34673 0.0534202 0
M  V30 11914 H 1186.83 -4.03046 -1.04208 0
M  V30 11915 H 1187.37 -3.92398 0.65336 0
M  V30 11916 H 1184.11 -5.85608 2.94522 0
M  V30 11917 H 1183.63 -5.86997 1.23268 0
M  V30 11918 H 1185.3 -6.24416 1.6945 0
M  V30 11919 N 1185.44 -0.462799 -1.50652 0
M  V30 11920 C 1186.37 0.325724 -2.31217 0
M  V30 11921 C 1187.35 0.997942 -1.3775 0
M  V30 11922 O 1188.53 0.996707 -1.66671 0
M  V30 11923 C 1185.66 1.41283 -3.17264 0
M  V30 11924 C 1184.62 0.862687 -4.19216 0
M  V30 11925 C 1183.94 2.04746 -4.93946 0
M  V30 11926 C 1185.24 -0.120365 -5.22161 0
M  V30 11927 H 1186.94 -0.346666 -2.97386 0
M  V30 11928 H 1184.48 -0.168163 -1.43015 0
M  V30 11929 H 1186.44 1.97188 -3.72418 0
M  V30 11930 H 1185.16 2.11387 -2.48964 0
M  V30 11931 H 1183.82 0.325671 -3.65151 0
M  V30 11932 H 1183.47 2.73529 -4.22127 0
M  V30 11933 H 1183.17 1.68562 -5.62904 0
M  V30 11934 H 1184.69 2.61157 -5.51932 0
M  V30 11935 H 1186.1 0.349226 -5.72235 0
M  V30 11936 H 1184.5 -0.396061 -5.98792 0
M  V30 11937 H 1185.57 -1.04895 -4.73418 0
M  V30 11938 N 1186.91 1.56388 -0.195085 0
M  V30 11939 C 1188.33 1.8398 0.317513 0
M  V30 11940 C 1188.68 1.11575 1.61386 0
M  V30 11941 O 1187.8 0.376557 2.13099 0
M  V30 11942 C 1188.4 3.33749 0.582859 0
M  V30 11943 C 1186.96 3.61752 1.03983 0
M  V30 11944 C 1186.1 2.77159 0.088434 0
M  V30 11945 H 1189.05 1.53072 -0.418871 0
M  V30 11946 H 1189.07 3.52519 1.43216 0
M  V30 11947 H 1188.59 3.86419 -0.360813 0
M  V30 11948 H 1186.69 3.14515 1.99778 0
M  V30 11949 H 1186.8 4.69937 0.932549 0
M  V30 11950 H 1185.16 2.47765 0.590317 0
M  V30 11951 H 1185.95 3.32619 -0.849682 0
M  V30 11952 N 1188.39 -0.0785156 1.57404 0
M  V30 11953 C 1189.32 -1.09446 2.06262 0
M  V30 11954 C 1190.3 -1.40777 0.954772 0
M  V30 11955 O 1191.49 -1.5052 1.22708 0
M  V30 11956 C 1188.62 -2.40979 2.50093 0
M  V30 11957 C 1187.57 -2.24017 3.64692 0
M  V30 11958 C 1186.9 -3.60873 3.94556 0
M  V30 11959 C 1188.2 -1.66696 4.94985 0
M  V30 11960 H 1189.89 -0.687928 2.9139 0
M  V30 11961 H 1187.44 -0.329466 1.4018 0
M  V30 11962 H 1189.39 -3.12337 2.82884 0
M  V30 11963 H 1188.12 -2.83599 1.61985 0
M  V30 11964 H 1186.77 -1.55101 3.32174 0
M  V30 11965 H 1186.42 -4.01051 3.0359 0
M  V30 11966 H 1186.12 -3.50365 4.71718 0
M  V30 11967 H 1187.65 -4.33673 4.29837 0
M  V30 11968 H 1189.06 -2.27913 5.2605 0
M  V30 11969 H 1187.46 -1.66902 5.76423 0
M  V30 11970 H 1188.53 -0.627827 4.80818 0
M  V30 11971 N 1189.87 -1.5367 -0.349747 0
M  V30 11972 C 1190.8 -1.84208 -1.43492 0
M  V30 11973 C 1191.78 -0.696725 -1.55177 0
M  V30 11974 O 1192.97 -0.948061 -1.69486 0
M  V30 11975 C 1190.1 -2.04613 -2.80625 0
M  V30 11976 C 1189.05 -3.20419 -2.83753 0
M  V30 11977 C 1188.38 -3.26147 -4.23713 0
M  V30 11978 C 1189.68 -4.58666 -2.49846 0
M  V30 11979 H 1191.37 -2.75087 -1.18185 0
M  V30 11980 H 1188.92 -1.32363 -0.567101 0
M  V30 11981 H 1190.87 -2.2456 -3.56582 0
M  V30 11982 H 1189.59 -1.10459 -3.07354 0
M  V30 11983 H 1188.25 -3.00318 -2.10249 0
M  V30 11984 H 1187.9 -2.29599 -4.47541 0
M  V30 11985 H 1187.6 -4.03963 -4.26717 0
M  V30 11986 H 1189.12 -3.48296 -5.0152 0
M  V30 11987 H 1190.54 -4.78668 -3.15516 0
M  V30 11988 H 1188.94 -5.3884 -2.64144 0
M  V30 11989 H 1190.01 -4.62697 -1.4505 0
M  V30 11990 N 1191.35 0.610423 -1.45298 0
M  V30 11991 C 1192.28 1.73207 -1.56594 0
M  V30 11992 C 1193.26 1.64893 -0.417651 0
M  V30 11993 O 1194.44 1.83336 -0.64043 0
M  V30 11994 C 1191.57 3.11803 -1.52959 0
M  V30 11995 C 1190.53 3.34925 -2.66475 0
M  V30 11996 C 1189.85 4.73764 -2.47894 0
M  V30 11997 C 1191.15 3.25456 -4.08504 0
M  V30 11998 H 1192.85 1.6401 -2.50482 0
M  V30 11999 H 1190.39 0.787621 -1.20551 0
M  V30 12000 H 1192.35 3.90065 -1.59458 0
M  V30 12001 H 1191.07 3.21833 -0.55599 0
M  V30 12002 H 1189.73 2.59051 -2.59399 0
M  V30 12003 H 1189.38 4.80524 -1.4868 0
M  V30 12004 H 1189.08 4.90191 -3.24016 0
M  V30 12005 H 1190.6 5.54231 -2.56243 0
M  V30 12006 H 1192.02 3.93597 -4.16839 0
M  V30 12007 H 1190.41 3.53414 -4.84994 0
M  V30 12008 H 1191.48 2.22939 -4.30612 0
M  V30 12009 N 1192.83 1.32541 0.852676 0
M  V30 12010 C 1193.76 1.24254 1.97694 0
M  V30 12011 C 1194.74 0.125971 1.69633 0
M  V30 12012 O 1195.92 0.31347 1.91653 0
M  V30 12013 C 1193.05 0.966874 3.3357 0
M  V30 12014 C 1192.01 2.0449 3.75989 0
M  V30 12015 C 1191.33 1.6216 5.09518 0
M  V30 12016 C 1192.63 3.46013 3.91244 0
M  V30 12017 H 1194.33 2.18317 2.04886 0
M  V30 12018 H 1191.87 1.05101 0.984371 0
M  V30 12019 H 1193.83 0.895444 4.11776 0
M  V30 12020 H 1192.55 -0.0093893 3.26599 0
M  V30 12021 H 1191.21 2.10651 3.00036 0
M  V30 12022 H 1190.86 0.632729 4.99005 0
M  V30 12023 H 1190.56 2.3429 5.38871 0
M  V30 12024 H 1192.08 1.56457 5.90215 0
M  V30 12025 H 1193.49 3.4243 4.59799 0
M  V30 12026 H 1191.89 4.1651 4.32017 0
M  V30 12027 H 1192.96 3.8553 2.941 0
M  V30 12028 N 1194.3 -1.0692 1.15784 0
M  V30 12029 C 1195.55 -1.79866 0.936815 0
M  V30 12030 C 1195.88 -1.867 -0.534477 0
M  V30 12031 O 1195.16 -1.35395 -1.39637 0
M  V30 12032 C 1195.44 -3.24691 1.55717 0
M  V30 12033 C 1195.29 -3.25975 3.09936 0
M  V30 12034 C 1196.61 -4.22076 1.24658 0
M  V30 12035 H 1193.73 -0.652971 0.341756 0
M  V30 12036 H 1196.37 -1.25085 1.43016 0
M  V30 12037 H 1194.52 -3.7147 1.13763 0
M  V30 12038 H 1196.2 -2.87405 3.60827 0
M  V30 12039 H 1194.44 -2.64808 3.43597 0
M  V30 12040 H 1195.11 -4.28114 3.48458 0
M  V30 12041 H 1197.59 -3.83709 1.60956 0
M  V30 12042 H 1196.46 -5.21691 1.70675 0
M  V30 12043 H 1196.72 -4.41794 0.164341 0
M  V30 12044 N 1195.78 -0.955326 -1.25345 0
M  V30 12045 C 1196.72 -0.420299 -2.24296 0
M  V30 12046 C 1197.69 0.498753 -1.54762 0
M  V30 12047 O 1198.88 0.432971 -1.8346 0
M  V30 12048 C 1196 0.394576 -3.36394 0
M  V30 12049 C 1195.05 -0.464973 -4.23958 0
M  V30 12050 S 1195.88 -1.89764 -5.00749 0
M  V30 12051 C 1197.04 -1.09121 -6.16314 0
M  V30 12052 H 1197.27 -1.25888 -2.69331 0
M  V30 12053 H 1194.81 -0.759449 -1.34431 0
M  V30 12054 H 1196.76 0.858788 -4.01416 0
M  V30 12055 H 1195.42 1.20799 -2.89942 0
M  V30 12056 H 1194.62 0.160055 -5.03746 0
M  V30 12057 H 1194.22 -0.864422 -3.63873 0
M  V30 12058 H 1196.51 -0.340218 -6.76645 0
M  V30 12059 H 1197.45 -1.86304 -6.83152 0
M  V30 12060 H 1197.86 -0.621033 -5.61073 0
M  V30 12061 N 1197.26 1.39987 -0.723979 0
M  V30 12062 C 1198.22 2.29041 -0.0854583 0
M  V30 12063 C 1199.22 1.45777 0.678657 0
M  V30 12064 O 1200.41 1.66588 0.509311 0
M  V30 12065 C 1197.55 3.29115 0.88859 0
M  V30 12066 H 1198.74 2.87006 -0.869903 0
M  V30 12067 H 1196.29 1.48449 -0.489136 0
M  V30 12068 H 1197.03 2.76184 1.69979 0
M  V30 12069 H 1196.81 3.90593 0.343454 0
M  V30 12070 H 1198.3 3.95778 1.33227 0
M  V30 12071 N 1198.74 0.470782 1.50404 0
M  V30 12072 C 1199.7 -0.312227 2.27063 0
M  V30 12073 C 1200.7 -0.920709 1.31832 0
M  V30 12074 O 1201.89 -0.789937 1.5526 0
M  V30 12075 C 1199.02 -1.44477 3.0877 0
M  V30 12076 H 1200.22 0.36006 2.97731 0
M  V30 12077 H 1197.77 0.224837 1.54674 0
M  V30 12078 H 1198.51 -2.15212 2.42599 0
M  V30 12079 H 1198.29 -1.01426 3.78755 0
M  V30 12080 H 1199.78 -1.99713 3.66749 0
M  V30 12081 N 1200.22 -1.56282 0.203376 0
M  V30 12082 C 1201.46 -1.98105 -0.433844 0
M  V30 12083 C 1201.8 -1.09044 -1.60695 0
M  V30 12084 O 1201.07 -0.144193 -1.93965 0
M  V30 12085 C 1201.35 -3.4903 -0.885992 0
M  V30 12086 C 1201.21 -4.48867 0.289501 0
M  V30 12087 C 1202.53 -4.03871 -1.7486 0
M  V30 12088 H 1199.65 -0.720252 -0.156224 0
M  V30 12089 H 1202.29 -1.87681 0.295963 0
M  V30 12090 H 1200.44 -3.58045 -1.50785 0
M  V30 12091 H 1202.11 -4.51883 0.92734 0
M  V30 12092 H 1200.35 -4.23495 0.939934 0
M  V30 12093 H 1201.02 -5.51956 -0.0695128 0
M  V30 12094 H 1203.5 -3.97688 -1.22407 0
M  V30 12095 H 1202.38 -5.09827 -2.03391 0
M  V30 12096 H 1202.64 -3.49637 -2.70567 0
M  V30 12097 N 1201.7 0.070167 -1.57444 0
M  V30 12098 C 1202.94 0.767495 -1.8696 0
M  V30 12099 C 1203.26 1.78032 -0.795595 0
M  V30 12100 O 1202.53 1.95112 0.175566 0
M  V30 12101 H 1201.11 0.286443 -0.689898 0
M  V30 12102 H 1203.78 0.0458692 -1.94846 0
M  V30 12103 H 1202.87 1.28269 -2.84523 0
M  V30 12104 N 1203.17 1.53854 0.341593 0
M  V30 12105 C 1204.42 1.70856 1.07948 0
M  V30 12106 C 1204.74 0.475474 1.89114 0
M  V30 12107 O 1204.01 -0.510592 1.89129 0
M  V30 12108 H 1202.59 0.629914 0.401519 0
M  V30 12109 H 1205.25 1.91112 0.382393 0
M  V30 12110 H 1204.35 2.5803 1.75575 0
M  V30 12111 N 1204.65 -0.602709 1.4562 0
M  V30 12112 C 1205.88 -1.38608 1.53203 0
M  V30 12113 C 1206.29 -1.88478 0.165098 0
M  V30 12114 O 1205.63 -1.63142 -0.844421 0
M  V30 12115 C 1205.69 -2.62214 2.45935 0
M  V30 12116 C 1205.36 -2.3395 3.92577 0
M  V30 12117 C 1206.36 -1.94011 4.82344 0
M  V30 12118 C 1204.04 -2.46711 4.37537 0
M  V30 12119 C 1206.03 -1.67202 6.15079 0
M  V30 12120 C 1203.72 -2.19515 5.70313 0
M  V30 12121 C 1204.72 -1.79823 6.58903 0
M  V30 12122 O 1204.41 -1.52948 7.89216 0
M  V30 12123 H 1204.14 -0.43052 0.52118 0
M  V30 12124 H 1206.69 -0.741655 1.91543 0
M  V30 12125 H 1204.92 -3.29394 2.02575 0
M  V30 12126 H 1206.61 -3.24264 2.44147 0
M  V30 12127 H 1207.38 -1.83684 4.48871 0
M  V30 12128 H 1203.26 -2.76572 3.68821 0
M  V30 12129 H 1206.8 -1.36146 6.84186 0
M  V30 12130 H 1202.7 -2.2946 6.03339 0
M  V30 12131 H 1203.47 -1.6696 8.01291 0
M  V30 12132 N 1206.13 -1.32992 -0.845635 0
M  V30 12133 C 1207.06 -1.25301 -1.97033 0
M  V30 12134 C 1208.04 -0.134966 -1.69564 0
M  V30 12135 O 1209.23 -0.323629 -1.91484 0
M  V30 12136 C 1206.36 -0.984551 -3.33052 0
M  V30 12137 C 1205.31 -2.06481 -3.749 0
M  V30 12138 C 1204.64 -1.6486 -5.08651 0
M  V30 12139 C 1205.94 -3.48083 -3.89404 0
M  V30 12140 H 1207.63 -2.194 -2.03725 0
M  V30 12141 H 1205.18 -1.05621 -0.978783 0
M  V30 12142 H 1207.13 -0.917269 -4.11296 0
M  V30 12143 H 1205.85 -0.00793116 -3.26599 0
M  V30 12144 H 1204.51 -2.1224 -2.98915 0
M  V30 12145 H 1204.16 -0.659183 -4.98662 0
M  V30 12146 H 1203.86 -2.37145 -5.37621 0
M  V30 12147 H 1205.38 -1.59585 -5.89377 0
M  V30 12148 H 1206.8 -3.44863 -4.57976 0
M  V30 12149 H 1205.19 -4.18796 -4.29802 0
M  V30 12150 H 1206.26 -3.87084 -2.92051 0
M  V30 12151 N 1207.61 1.06304 -1.1635 0
M  V30 12152 C 1208.54 2.13209 -0.81346 0
M  V30 12153 C 1209.52 1.61174 0.21484 0
M  V30 12154 O 1210.7 1.8824 0.0989458 0
M  V30 12155 C 1207.83 3.38039 -0.211498 0
M  V30 12156 C 1206.88 4.08875 -1.21339 0
M  V30 12157 S 1207.71 4.58894 -2.76001 0
M  V30 12158 C 1208.86 5.86985 -2.17254 0
M  V30 12159 H 1209.1 2.42572 -1.7189 0
M  V30 12160 H 1206.63 1.18737 -0.986957 0
M  V30 12161 H 1208.59 4.10296 0.129349 0
M  V30 12162 H 1207.25 3.06834 0.671705 0
M  V30 12163 H 1206.44 4.98528 -0.740631 0
M  V30 12164 H 1206.04 3.42632 -1.49932 0
M  V30 12165 H 1208.34 6.59738 -1.54115 0
M  V30 12166 H 1209.28 6.38991 -3.05117 0
M  V30 12167 H 1209.69 5.41012 -1.61141 0
M  V30 12168 N 1209.09 0.96196 1.24836 0
M  V30 12169 C 1210.33 0.631213 1.93358 0
M  V30 12170 C 1210.69 -0.823785 1.73872 0
M  V30 12171 O 1209.98 -1.58422 1.07764 0
M  V30 12172 C 1210.17 0.934481 3.44967 0
M  V30 12173 C 1210 2.41741 3.79198 0
M  V30 12174 C 1208.77 3.07624 4.00868 0
M  V30 12175 C 1210.97 3.39717 3.86131 0
M  V30 12176 N 1208.95 4.45714 4.22152 0
M  V30 12177 C 1210.32 4.63141 4.1219 0
M  V30 12178 C 1212.38 3.34454 3.68843 0
M  V30 12179 C 1211.08 5.81953 4.22757 0
M  V30 12180 C 1213.11 4.52611 3.80653 0
M  V30 12181 C 1212.47 5.74825 4.07131 0
M  V30 12182 H 1208.57 0.281719 0.729492 0
M  V30 12183 H 1211.15 1.23564 1.50466 0
M  V30 12184 H 1209.32 0.358917 3.86738 0
M  V30 12185 H 1211.06 0.562892 4.00766 0
M  V30 12186 H 1207.81 2.58172 3.97044 0
M  V30 12187 H 1208.23 5.1725 4.36785 0
M  V30 12188 H 1212.88 2.41008 3.47383 0
M  V30 12189 H 1210.59 6.75832 4.43031 0
M  V30 12190 H 1214.18 4.50095 3.68654 0
M  V30 12191 H 1213.06 6.64727 4.16061 0
M  V30 12192 N 1210.56 -1.39601 0.731392 0
M  V30 12193 C 1211.98 -1.54334 0.406594 0
M  V30 12194 C 1212.18 -1.69925 -1.08295 0
M  V30 12195 O 1211.24 -1.69771 -1.86906 0
M  V30 12196 C 1212.55 -2.76303 1.18647 0
M  V30 12197 C 1214.1 -2.90135 1.17433 0
M  V30 12198 C 1214.57 -4.15038 1.93669 0
M  V30 12199 N 1216.06 -4.2207 1.90817 0
M  V30 12200 C 1216.8 -5.17656 2.46616 0
M  V30 12201 N 1216.29 -6.19054 3.11037 0
M  V30 12202 N 1218.09 -5.09847 2.3667 0
M  V30 12203 H 1210.24 -1.27728 1.69703 0
M  V30 12204 H 1212.5 -0.6188 0.718186 0
M  V30 12205 H 1212.21 -2.71113 2.24032 0
M  V30 12206 H 1212.08 -3.68866 0.788514 0
M  V30 12207 H 1214.47 -2.9482 0.128615 0
M  V30 12208 H 1214.55 -1.98646 1.61163 0
M  V30 12209 H 1214.19 -4.11115 2.9824 0
M  V30 12210 H 1214.12 -5.05565 1.47349 0
M  V30 12211 H 1216.61 -3.49437 1.43882 0
M  V30 12212 H 1216.93 -6.88444 3.51091 0
M  V30 12213 H 1215.27 -6.19452 3.15126 0
M  V30 12214 H 1218.46 -4.29566 1.85987 0
M  V30 12215 H 1218.64 -5.84165 2.80455 0
M  V30 12216 N 1212.04 -0.478751 -1.50152 0
M  V30 12217 C 1212.99 0.325375 -2.30313 0
M  V30 12218 C 1213.98 0.983372 -1.37935 0
M  V30 12219 O 1215.19 0.913601 -1.55091 0
M  V30 12220 H 1211.57 0.123775 -0.741744 0
M  V30 12221 H 1213.54 -0.371004 -2.96085 0
M  V30 12222 C 1212.29 1.39026 -3.18696 0
M  V30 12223 H 1211.61 0.893329 -3.89692 0
M  V30 12224 H 1213.05 1.92533 -3.77766 0
M  V30 12225 C 1211.51 2.39637 -2.36803 0
M  V30 12226 O 1212.04 3.45067 -2.05649 0
M  V30 12227 N 1210.24 2.11546 -1.9924 0
M  V30 12228 H 1209.79 1.25832 -2.24775 0
M  V30 12229 H 1209.75 2.79096 -1.44751 0
M  V30 12230 N 1213.52 1.56172 -0.211661 0
M  V30 12231 C 1214.77 1.99087 0.416624 0
M  V30 12232 C 1215.12 1.09668 1.58084 0
M  V30 12233 O 1214.41 0.144533 1.91054 0
M  V30 12234 C 1214.61 3.45636 0.909442 0
M  V30 12235 C 1214.44 4.4923 -0.205486 0
M  V30 12236 C 1213.21 5.00857 -0.668617 0
M  V30 12237 C 1215.41 5.04078 -1.02029 0
M  V30 12238 N 1213.39 5.88141 -1.75964 0
M  V30 12239 C 1214.76 5.88192 -1.96037 0
M  V30 12240 C 1216.81 4.86467 -1.06085 0
M  V30 12241 C 1215.52 6.56576 -2.93768 0
M  V30 12242 C 1217.54 5.55604 -2.02629 0
M  V30 12243 C 1216.9 6.39477 -2.95378 0
M  V30 12244 H 1213 0.77283 0.119404 0
M  V30 12245 H 1215.59 1.92033 -0.321163 0
M  V30 12246 H 1213.76 3.53157 1.61662 0
M  V30 12247 H 1215.49 3.75486 1.50972 0
M  V30 12248 H 1212.25 4.72891 -0.258977 0
M  V30 12249 H 1212.67 6.36485 -2.30685 0
M  V30 12250 H 1217.31 4.21284 -0.357726 0
M  V30 12251 H 1215.03 7.20948 -3.65048 0
M  V30 12252 H 1218.62 5.43947 -2.06428 0
M  V30 12253 H 1217.5 6.92032 -3.68864 0
M  V30 12254 N 1215 -0.0618163 1.57479 0
M  V30 12255 C 1215.93 -1.09931 2.01116 0
M  V30 12256 C 1216.94 -1.34405 0.91865 0
M  V30 12257 O 1218.13 -1.32469 1.19642 0
M  V30 12258 C 1215.23 -2.44814 2.34349 0
M  V30 12259 C 1214.41 -2.40157 3.65573 0
M  V30 12260 C 1213.46 -3.57226 3.86363 0
M  V30 12261 O 1212.49 -3.38202 4.5783 0
M  V30 12262 N 1213.69 -4.77937 3.2948 0
M  V30 12263 H 1216.46 -0.727621 2.90733 0
M  V30 12264 H 1214.02 -0.250315 1.59953 0
M  V30 12265 H 1216.01 -3.21792 2.45422 0
M  V30 12266 H 1214.58 -2.73947 1.50571 0
M  V30 12267 H 1213.8 -1.48496 3.65161 0
M  V30 12268 H 1215.09 -2.34156 4.51717 0
M  V30 12269 H 1214.49 -4.96296 2.7149 0
M  V30 12270 H 1213.04 -5.52392 3.45986 0
M  V30 12271 N 1216.48 -1.54033 -0.333429 0
M  V30 12272 C 1217.43 -1.7911 -1.4108 0
M  V30 12273 C 1218.41 -0.646699 -1.47332 0
M  V30 12274 O 1219.6 -0.906403 -1.52031 0
M  V30 12275 C 1216.73 -2.01314 -2.78078 0
M  V30 12276 C 1215.82 -3.21849 -2.76178 0
M  V30 12277 N 1216.21 -4.43109 -2.43903 0
M  V30 12278 C 1214.51 -3.23222 -3.07316 0
M  V30 12279 C 1215.21 -5.25004 -2.5049 0
M  V30 12280 N 1214.18 -4.61955 -2.86528 0
M  V30 12281 H 1217.99 -2.7045 -1.15039 0
M  V30 12282 H 1215.5 -1.53094 -0.541854 0
M  V30 12283 H 1217.5 -2.17417 -3.55718 0
M  V30 12284 H 1216.16 -1.11223 -3.05057 0
M  V30 12285 H 1217.17 -4.70282 -2.16922 0
M  V30 12286 H 1213.84 -2.43132 -3.39401 0
M  V30 12287 H 1215.23 -6.31812 -2.28611 0
M  V30 12288 N 1217.95 0.594978 -1.45938 0
M  V30 12289 C 1218.9 1.70489 -1.5557 0
M  V30 12290 C 1219.87 1.61193 -0.400751 0
M  V30 12291 O 1221.06 1.80587 -0.615882 0
M  V30 12292 C 1218.2 3.08817 -1.54033 0
M  V30 12293 C 1217.31 3.28827 -2.80173 0
M  V30 12294 C 1216.44 4.57333 -2.70222 0
M  V30 12295 C 1215.48 4.70644 -3.91357 0
M  V30 12296 N 1214.62 5.90463 -3.79865 0
M  V30 12297 H 1219.46 1.61593 -2.50383 0
M  V30 12298 H 1217 0.787747 -1.24229 0
M  V30 12299 H 1218.96 3.88865 -1.51129 0
M  V30 12300 H 1217.59 3.1664 -0.627617 0
M  V30 12301 H 1216.64 2.42467 -2.9311 0
M  V30 12302 H 1217.95 3.34534 -3.69985 0
M  V30 12303 H 1217.1 5.45593 -2.65354 0
M  V30 12304 H 1215.84 4.54045 -1.7803 0
M  V30 12305 H 1214.85 3.80805 -3.9657 0
M  V30 12306 H 1216.07 4.75721 -4.8463 0
M  V30 12307 H 1214.02 5.88196 -2.90451 0
M  V30 12308 H 1213.94 5.97385 -4.63322 0
M  V30 12309 H 1215.2 6.81187 -3.78952 0
M  V30 12310 N 1219.43 1.33438 0.838571 0
M  V30 12311 C 1220.38 1.23698 1.96981 0
M  V30 12312 C 1221.37 0.138299 1.68835 0
M  V30 12313 O 1222.58 0.302278 1.77444 0
M  V30 12314 H 1218.96 0.383874 0.646641 0
M  V30 12315 H 1220.93 2.19337 2.02321 0
M  V30 12316 C 1219.68 0.993362 3.33208 0
M  V30 12317 H 1219 1.83104 3.55405 0
M  V30 12318 H 1220.44 0.965517 4.1286 0
M  V30 12319 C 1218.9 -0.303701 3.35528 0
M  V30 12320 O 1219.43 -1.3103 3.79729 0
M  V30 12321 N 1217.63 -0.331342 2.88705 0
M  V30 12322 H 1217.18 0.488351 2.52929 0
M  V30 12323 H 1217.14 -1.199 2.9064 0
M  V30 12324 N 1220.91 -1.05686 1.16912 0
M  V30 12325 C 1221.84 -2.12775 0.824755 0
M  V30 12326 C 1222.82 -1.61286 -0.206289 0
M  V30 12327 O 1224.01 -1.8829 -0.0889616 0
M  V30 12328 C 1221.13 -3.37922 0.229422 0
M  V30 12329 C 1220.18 -4.08226 1.23506 0
M  V30 12330 S 1221.01 -4.57424 2.78431 0
M  V30 12331 C 1222.17 -5.85825 2.20364 0
M  V30 12332 H 1222.4 -2.41657 1.73174 0
M  V30 12333 H 1219.93 -1.18212 0.99324 0
M  V30 12334 H 1221.89 -4.10359 -0.107588 0
M  V30 12335 H 1220.55 -3.07186 -0.655424 0
M  V30 12336 H 1219.75 -4.98129 0.767059 0
M  V30 12337 H 1219.35 -3.41832 1.51747 0
M  V30 12338 H 1221.64 -6.58912 1.57611 0
M  V30 12339 H 1222.58 -6.37364 3.08501 0
M  V30 12340 H 1222.99 -5.4015 1.64008 0
M  V30 12341 N 1222.39 -0.968567 -1.24324 0
M  V30 12342 C 1223.34 -0.498817 -2.25345 0
M  V30 12343 C 1224.31 0.456082 -1.59716 0
M  V30 12344 O 1225.49 0.366254 -1.87252 0
M  V30 12345 C 1222.63 0.204027 -3.44496 0
M  V30 12346 C 1221.74 -0.789741 -4.2472 0
M  V30 12347 C 1220.88 -0.0629156 -5.31163 0
M  V30 12348 C 1219.92 -1.04669 -6.03084 0
M  V30 12349 N 1219.05 -0.349812 -7.01228 0
M  V30 12350 H 1223.89 -1.36511 -2.64894 0
M  V30 12351 H 1221.43 -0.684288 -1.30215 0
M  V30 12352 H 1223.39 0.628223 -4.12443 0
M  V30 12353 H 1222.02 1.03426 -3.05782 0
M  V30 12354 H 1221.07 -1.33237 -3.56303 0
M  V30 12355 H 1222.38 -1.53988 -4.74436 0
M  V30 12356 H 1221.54 0.419233 -6.0525 0
M  V30 12357 H 1220.28 0.719915 -4.82357 0
M  V30 12358 H 1219.28 -1.53971 -5.278 0
M  V30 12359 H 1220.51 -1.82998 -6.53979 0
M  V30 12360 H 1218.45 0.414026 -6.54692 0
M  V30 12361 H 1218.37 -1.03881 -7.48829 0
M  V30 12362 H 1219.64 0.11034 -7.79422 0
M  V30 12363 N 1223.87 1.39211 -0.738786 0
M  V30 12364 C 1225.09 2.05256 -0.297421 0
M  V30 12365 C 1225.52 1.55341 1.06069 0
M  V30 12366 O 1224.87 0.698823 1.67291 0
M  V30 12367 C 1224.92 3.59239 -0.312969 0
M  V30 12368 O 1224.03 4.06448 0.698112 0
M  V30 12369 H 1223.37 0.650245 -0.134454 0
M  V30 12370 H 1225.9 1.78173 -1.00577 0
M  V30 12371 H 1225.91 4.07691 -0.158675 0
M  V30 12372 H 1224.58 3.94931 -1.30394 0
M  V30 12373 H 1223.16 3.69401 0.509643 0
M  V30 12374 N 1225.34 0.486708 1.49896 0
M  V30 12375 C 1226.28 -0.345627 2.25567 0
M  V30 12376 C 1227.26 -0.982794 1.29537 0
M  V30 12377 O 1228.44 -1.01569 1.58796 0
M  V30 12378 C 1225.57 -1.48555 3.04383 0
M  V30 12379 C 1224.61 -0.964196 4.15458 0
M  V30 12380 S 1225.45 0.133631 5.35333 0
M  V30 12381 C 1226.6 -1.00979 6.17701 0
M  V30 12382 H 1226.83 0.296677 2.95816 0
M  V30 12383 H 1224.37 0.271798 1.51989 0
M  V30 12384 H 1226.33 -2.13878 3.50381 0
M  V30 12385 H 1224.99 -2.09942 2.33631 0
M  V30 12386 H 1224.18 -1.81804 4.70067 0
M  V30 12387 H 1223.78 -0.388419 3.71978 0
M  V30 12388 H 1226.07 -1.91812 6.4978 0
M  V30 12389 H 1227.02 -0.502633 7.06314 0
M  V30 12390 H 1227.42 -1.27067 5.50013 0
M  V30 12391 N 1226.82 -1.56058 0.219941 0
M  V30 12392 C 1227.77 -2.21585 -0.707321 0
M  V30 12393 C 1228.77 -1.19473 -1.20094 0
M  V30 12394 O 1229.97 -1.37557 -1.16095 0
M  V30 12395 H 1226.35 -0.710447 -0.246515 0
M  V30 12396 H 1228.32 -2.98111 -0.131214 0
M  V30 12397 C 1227.07 -2.90841 -1.90544 0
M  V30 12398 H 1226.39 -3.6917 -1.53472 0
M  V30 12399 H 1227.83 -3.40092 -2.53206 0
M  V30 12400 C 1226.29 -1.93223 -2.75983 0
M  V30 12401 O 1226.82 -1.44815 -3.74689 0
M  V30 12402 N 1225.02 -1.60907 -2.41986 0
M  V30 12403 H 1224.57 -2.00467 -1.61774 0
M  V30 12404 H 1224.53 -0.958534 -2.99432 0
M  V30 12405 N 1228.3 0.053464 -1.57509 0
M  V30 12406 C 1229.55 0.749102 -1.88135 0
M  V30 12407 C 1229.88 1.76642 -0.814111 0
M  V30 12408 O 1229.13 1.94796 0.187845 0
M  V30 12409 C 1229.43 1.47666 -3.25468 0
M  V30 12410 C 1229.1 0.597619 -4.46922 0
M  V30 12411 C 1227.76 0.355429 -4.79886 0
M  V30 12412 C 1230.11 -0.0107869 -5.21199 0
M  V30 12413 C 1227.44 -0.504347 -5.84528 0
M  V30 12414 C 1229.79 -0.858123 -6.26753 0
M  V30 12415 C 1228.45 -1.11001 -6.58206 0
M  V30 12416 H 1227.72 0.274116 -0.688434 0
M  V30 12417 H 1230.37 0.00944162 -1.91498 0
M  V30 12418 H 1228.68 2.28901 -3.1798 0
M  V30 12419 H 1230.37 2.02002 -3.46404 0
M  V30 12420 H 1226.96 0.796526 -4.21134 0
M  V30 12421 H 1231.15 0.163404 -4.96031 0
M  V30 12422 H 1226.4 -0.708057 -6.07286 0
M  V30 12423 H 1230.58 -1.3362 -6.83461 0
M  V30 12424 H 1228.2 -1.77798 -7.39116 0
M  V30 12425 N 1229.78 1.54207 0.325255 0
M  V30 12426 C 1231.06 1.6298 1.08153 0
M  V30 12427 C 1231.44 0.462583 2.05969 0
M  V30 12428 O 1230.78 -0.543323 2.21947 0
M  V30 12429 C 1230.99 2.999 1.78497 0
M  V30 12430 C 1232.34 3.55888 2.3158 0
M  V30 12431 O 1233.37 3.02194 1.88566 0
M  V30 12432 O 1232.23 4.49847 3.10322 0
M  V30 12433 H 1229.32 0.659923 0.498429 0
M  V30 12434 H 1231.87 1.66553 0.325282 0
M  V30 12435 H 1230.64 3.7629 1.07338 0
M  V30 12436 H 1230.26 2.99997 2.60936 0
M  V30 12437 N 1231.26 -0.58723 1.46251 0
M  V30 12438 C 1232.21 -1.71771 1.56836 0
M  V30 12439 C 1233.2 -1.63664 0.437096 0
M  V30 12440 O 1234.41 -1.69212 0.613797 0
M  V30 12441 H 1230.78 -0.567841 0.493012 0
M  V30 12442 H 1232.75 -1.59974 2.51895 0
M  V30 12443 C 1231.5 -3.10159 1.57152 0
M  V30 12444 H 1230.82 -3.17066 2.43535 0
M  V30 12445 H 1232.26 -3.89032 1.68613 0
M  V30 12446 C 1230.72 -3.35567 0.299374 0
M  V30 12447 O 1231.25 -3.97006 -0.612291 0
M  V30 12448 N 1229.46 -2.89987 0.188695 0
M  V30 12449 H 1229.01 -2.4017 0.93147 0
M  V30 12450 H 1228.96 -3.0736 -0.661612 0
M  V30 12451 N 1232.74 -1.33881 -0.831482 0
M  V30 12452 C 1234.15 -1.23112 -1.40358 0
M  V30 12453 C 1234.5 0.146944 -1.95649 0
M  V30 12454 O 1233.62 1.04689 -1.89391 0
M  V30 12455 C 1234.22 -2.22899 -2.5515 0
M  V30 12456 C 1232.78 -2.15946 -3.08292 0
M  V30 12457 C 1231.92 -2.09975 -1.81124 0
M  V30 12458 H 1234.87 -1.45372 -0.63661 0
M  V30 12459 H 1234.9 -1.841 -3.32997 0
M  V30 12460 H 1234.41 -3.23186 -2.14878 0
M  V30 12461 H 1232.51 -1.18987 -3.53091 0
M  V30 12462 H 1232.62 -3.06822 -3.67964 0
M  V30 12463 H 1230.99 -1.55564 -2.01673 0
M  V30 12464 H 1231.77 -3.12082 -1.43037 0
M  V30 12465 N 1234.21 1.05064 -1.1747 0
M  V30 12466 C 1235.46 1.78352 -0.965311 0
M  V30 12467 C 1235.79 1.87527 0.504707 0
M  V30 12468 O 1235.07 1.376 1.37465 0
M  V30 12469 C 1235.35 3.22173 -1.60862 0
M  V30 12470 C 1235.2 3.21003 -3.15083 0
M  V30 12471 C 1236.52 4.2004 -1.31358 0
M  V30 12472 H 1233.64 0.647452 -0.352101 0
M  V30 12473 H 1236.28 1.22794 -1.44988 0
M  V30 12474 H 1234.43 3.69613 -1.19658 0
M  V30 12475 H 1236.11 2.81629 -3.65353 0
M  V30 12476 H 1234.35 2.59309 -3.47766 0
M  V30 12477 H 1235.02 4.22516 -3.55224 0
M  V30 12478 H 1237.5 3.81099 -1.6704 0
M  V30 12479 H 1236.37 5.1891 -1.78953 0
M  V30 12480 H 1236.63 4.41477 -0.234606 0
M  V30 12481 N 1235.69 0.975146 1.23809 0
M  V30 12482 C 1236.92 0.658023 1.95841 0
M  V30 12483 C 1237.33 -0.778132 1.72458 0
M  V30 12484 O 1236.67 -1.53462 1.00971 0
M  V30 12485 C 1236.73 0.862038 3.49012 0
M  V30 12486 C 1236.4 2.27925 3.96105 0
M  V30 12487 C 1237.4 3.25755 4.05191 0
M  V30 12488 C 1235.08 2.60894 4.29231 0
M  V30 12489 C 1237.07 4.54636 4.46749 0
M  V30 12490 C 1234.76 3.89999 4.70472 0
M  V30 12491 C 1235.76 4.86682 4.79197 0
M  V30 12492 O 1235.45 6.13483 5.19513 0
M  V30 12493 H 1235.18 0.243915 0.630461 0
M  V30 12494 H 1237.73 1.30768 1.58395 0
M  V30 12495 H 1235.96 0.155209 3.86388 0
M  V30 12496 H 1237.65 0.542873 4.02253 0
M  V30 12497 H 1238.42 3.01614 3.79808 0
M  V30 12498 H 1234.3 1.86355 4.21655 0
M  V30 12499 H 1237.84 5.30101 4.53474 0
M  V30 12500 H 1233.74 4.13937 4.95304 0
M  V30 12501 H 1234.51 6.17158 5.37641 0
M  V30 12502 N 1237.17 -1.38817 0.746158 0
M  V30 12503 C 1238.1 -2.33144 0.128836 0
M  V30 12504 C 1239.08 -1.54487 -0.711873 0
M  V30 12505 O 1240.27 -1.82836 -0.654577 0
M  V30 12506 C 1237.4 -3.38639 -0.770772 0
M  V30 12507 C 1236.35 -4.27987 -0.0333669 0
M  V30 12508 C 1235.68 -5.24274 -1.05073 0
M  V30 12509 C 1236.98 -5.09915 1.13066 0
M  V30 12510 H 1238.67 -2.85019 0.916778 0
M  V30 12511 H 1236.22 -1.37039 0.442306 0
M  V30 12512 H 1238.17 -4.03587 -1.21225 0
M  V30 12513 H 1236.89 -2.8523 -1.59095 0
M  V30 12514 H 1235.55 -3.64534 0.388612 0
M  V30 12515 H 1235.2 -4.67156 -1.86478 0
M  V30 12516 H 1234.9 -5.84906 -0.562037 0
M  V30 12517 H 1236.42 -5.92099 -1.49169 0
M  V30 12518 H 1237.84 -5.68145 0.767084 0
M  V30 12519 H 1236.23 -5.79744 1.54972 0
M  V30 12520 H 1237.3 -4.4409 1.94709 0
M  V30 12521 N 1238.65 -0.49465 -1.49636 0
M  V30 12522 C 1239.59 0.287153 -2.29007 0
M  V30 12523 C 1240.56 0.966099 -1.35114 0
M  V30 12524 O 1241.75 0.973991 -1.64067 0
M  V30 12525 C 1238.89 1.34941 -3.17624 0
M  V30 12526 C 1238 0.682879 -4.26569 0
M  V30 12527 C 1237.14 1.72503 -5.0241 0
M  V30 12528 C 1236.18 1.04003 -6.032 0
M  V30 12529 N 1235.31 2.0261 -6.7223 0
M  V30 12530 H 1240.15 -0.395941 -2.95358 0
M  V30 12531 H 1237.69 -0.207103 -1.45635 0
M  V30 12532 H 1239.65 1.9772 -3.67372 0
M  V30 12533 H 1238.28 2.00135 -2.5327 0
M  V30 12534 H 1237.33 -0.0580477 -3.80356 0
M  V30 12535 H 1238.64 0.143334 -4.98594 0
M  V30 12536 H 1237.8 2.42804 -5.55996 0
M  V30 12537 H 1236.54 2.29843 -4.30144 0
M  V30 12538 H 1235.54 0.322765 -5.48852 0
M  V30 12539 H 1236.77 0.473219 -6.77449 0
M  V30 12540 H 1234.71 2.58922 -6.0274 0
M  V30 12541 H 1234.63 1.53704 -7.4021 0
M  V30 12542 H 1235.9 2.72218 -7.30423 0
M  V30 12543 N 1240.13 1.55939 -0.228214 0
M  V30 12544 C 1241.35 2.0287 0.406348 0
M  V30 12545 C 1241.77 1.1079 1.52876 0
M  V30 12546 O 1241.13 0.118747 1.82113 0
M  V30 12547 C 1241.18 3.49286 0.931734 0
M  V30 12548 O 1240.9 4.37857 -0.145933 0
M  V30 12549 C 1242.4 4.11893 1.63887 0
M  V30 12550 H 1239.62 0.663696 0.0987358 0
M  V30 12551 H 1242.16 2.01541 -0.346616 0
M  V30 12552 H 1240.32 3.5121 1.63494 0
M  V30 12553 H 1240.73 5.23904 0.250005 0
M  V30 12554 H 1242.21 5.16091 1.95841 0
M  V30 12555 H 1242.68 3.57281 2.55435 0
M  V30 12556 H 1243.29 4.13839 0.980697 0
M  V30 12557 N 1241.6 -0.0451101 1.57535 0
M  V30 12558 C 1242.83 -0.75132 1.92777 0
M  V30 12559 C 1243.25 -1.69743 0.826599 0
M  V30 12560 O 1242.6 -1.8142 -0.198224 0
M  V30 12561 C 1242.66 -1.52218 3.2789 0
M  V30 12562 O 1242.38 -0.614059 4.33775 0
M  V30 12563 C 1243.88 -2.32699 3.77314 0
M  V30 12564 H 1241.1 -0.21211 0.636593 0
M  V30 12565 H 1243.64 -0.0074174 2.04499 0
M  V30 12566 H 1241.8 -2.2181 3.17614 0
M  V30 12567 H 1242.21 -1.15294 5.11671 0
M  V30 12568 H 1243.68 -2.82205 4.7441 0
M  V30 12569 H 1244.16 -3.13414 3.07682 0
M  V30 12570 H 1244.77 -1.68212 3.90621 0
M  V30 12571 N 1243.08 -1.54377 -0.317073 0
M  V30 12572 C 1243.99 -1.87247 -1.41335 0
M  V30 12573 C 1245.01 -0.765017 -1.5628 0
M  V30 12574 O 1246.18 -1.05994 -1.71252 0
M  V30 12575 C 1243.25 -2.0988 -2.75955 0
M  V30 12576 C 1242.31 -3.33658 -2.70131 0
M  V30 12577 C 1241.54 -3.55202 -3.9833 0
M  V30 12578 O 1241.77 -2.80061 -4.96913 0
M  V30 12579 O 1240.7 -4.48693 -4.01196 0
M  V30 12580 H 1244.53 -2.80481 -1.16465 0
M  V30 12581 H 1242.11 -1.40364 -0.511687 0
M  V30 12582 H 1243.99 -2.2606 -3.55633 0
M  V30 12583 H 1242.67 -1.19834 -3.00702 0
M  V30 12584 H 1241.58 -3.22857 -1.88981 0
M  V30 12585 H 1242.91 -4.23782 -2.50338 0
M  V30 12586 N 1244.56 0.579466 -1.4656 0
M  V30 12587 C 1245.47 1.71609 -1.59961 0
M  V30 12588 C 1246.49 1.67162 -0.483002 0
M  V30 12589 O 1247.66 1.87012 -0.747561 0
M  V30 12590 C 1244.73 3.08114 -1.58954 0
M  V30 12591 C 1243.79 3.238 -2.81872 0
M  V30 12592 C 1243.02 4.53794 -2.80904 0
M  V30 12593 O 1243.24 5.37884 -1.89835 0
M  V30 12594 O 1242.18 4.72796 -3.72488 0
M  V30 12595 H 1246 1.6325 -2.56092 0
M  V30 12596 H 1243.59 0.746891 -1.2939 0
M  V30 12597 H 1245.47 3.8939 -1.611 0
M  V30 12598 H 1244.15 3.16903 -0.65984 0
M  V30 12599 H 1243.05 2.42006 -2.85279 0
M  V30 12600 H 1244.39 3.19904 -3.74062 0
M  V30 12601 N 1246.04 1.3432 0.824371 0
M  V30 12602 C 1247.32 1.17178 1.56616 0
M  V30 12603 C 1247.7 -0.256195 2.0954 0
M  V30 12604 O 1247.04 -1.25732 1.90798 0
M  V30 12605 C 1247.25 2.22511 2.68867 0
M  V30 12606 C 1248.6 2.57414 3.37673 0
M  V30 12607 O 1249.63 2.2129 2.79122 0
M  V30 12608 O 1248.48 3.19462 4.43403 0
M  V30 12609 H 1245.58 0.454141 0.691147 0
M  V30 12610 H 1248.12 1.45948 0.865869 0
M  V30 12611 H 1246.9 3.18366 2.27505 0
M  V30 12612 H 1246.52 1.9491 3.46548 0
M  V30 12613 N 1247.52 -1.0444 1.18026 0
M  V30 12614 C 1248.45 -2.14297 0.927314 0
M  V30 12615 C 1249.43 -1.69575 -0.13357 0
M  V30 12616 O 1250.61 -1.94191 0.0182439 0
M  V30 12617 C 1247.74 -3.44397 0.448134 0
M  V30 12618 C 1246.7 -4.02723 1.44907 0
M  V30 12619 C 1246.02 -5.28257 0.827555 0
M  V30 12620 C 1247.32 -4.39331 2.82463 0
M  V30 12621 H 1249.02 -2.35715 1.84605 0
M  V30 12622 H 1246.56 -1.13281 0.889012 0
M  V30 12623 H 1248.52 -4.20606 0.258554 0
M  V30 12624 H 1247.24 -3.22654 -0.506159 0
M  V30 12625 H 1245.9 -3.28591 1.62552 0
M  V30 12626 H 1245.55 -5.02822 -0.13381 0
M  V30 12627 H 1245.25 -5.68242 1.49581 0
M  V30 12628 H 1246.77 -6.07147 0.64842 0
M  V30 12629 H 1248.18 -5.06543 2.68491 0
M  V30 12630 H 1246.58 -4.90355 3.45936 0
M  V30 12631 H 1247.65 -3.4933 3.36299 0
M  V30 12632 N 1248.99 -0.981699 -1.2329 0
M  V30 12633 C 1250.22 -0.669025 -1.96313 0
M  V30 12634 C 1250.64 0.757624 -1.72168 0
M  V30 12635 O 1250 1.51626 -0.993942 0
M  V30 12636 C 1250.05 -0.966875 -3.47396 0
M  V30 12637 O 1249.15 -0.0595933 -4.12357 0
M  V30 12638 H 1248.5 -0.251493 -0.61453 0
M  V30 12639 H 1251.03 -1.31564 -1.56691 0
M  V30 12640 H 1251.04 -0.904112 -3.97857 0
M  V30 12641 H 1249.71 -2.00651 -3.64296 0
M  V30 12642 H 1248.29 -0.176878 -3.7248 0
M  V30 12643 N 1250.47 1.3842 -0.753509 0
M  V30 12644 C 1251.72 1.99359 -0.306416 0
M  V30 12645 C 1252.03 1.60492 1.11811 0
M  V30 12646 O 1253.24 2.14401 1.66567 0
M  V30 12647 C 1251.7 3.56453 -0.496895 0
M  V30 12648 C 1251.3 4.04272 -1.9305 0
M  V30 12649 C 1253.05 4.24351 -0.11251 0
M  V30 12650 C 1250.96 5.54007 -2.06955 0
M  V30 12651 H 1249.89 0.745812 -0.110818 0
M  V30 12652 H 1252.54 1.58185 -0.930039 0
M  V30 12653 H 1250.92 3.95515 0.195912 0
M  V30 12654 H 1252.09 3.765 -2.65677 0
M  V30 12655 H 1250.41 3.49098 -2.26979 0
M  V30 12656 H 1253 5.34344 -0.195161 0
M  V30 12657 H 1253.35 4.05668 0.934849 0
M  V30 12658 H 1253.88 3.90528 -0.757168 0
M  V30 12659 H 1250.62 5.77594 -3.09944 0
M  V30 12660 H 1250.14 5.83522 -1.38788 0
M  V30 12661 H 1251.82 6.19704 -1.85945 0
M  V30 12662 N 1251.95 0.502579 1.49372 0
M  V30 12663 C 1253.23 -0.104472 1.95321 0
M  V30 12664 C 1253.61 -1.53975 1.44412 0
M  V30 12665 O 1252.96 -2.18804 0.658566 0
M  V30 12666 C 1253.17 -0.0154833 3.48997 0
M  V30 12667 C 1254.51 -0.188615 4.24181 0
M  V30 12668 O 1255.54 -0.090595 3.56085 0
M  V30 12669 O 1254.4 -0.390068 5.45106 0
M  V30 12670 H 1251.49 -0.0944325 0.821591 0
M  V30 12671 H 1254.04 0.565229 1.6001 0
M  V30 12672 H 1252.81 0.985383 3.7869 0
M  V30 12673 H 1252.43 -0.72526 3.90929 0
M  V30 12674 N 1253.43 -1.55816 0.23648 0
M  V30 12675 C 1254.68 -1.97862 -0.391579 0
M  V30 12676 C 1254.99 -1.1276 -1.59827 0
M  V30 12677 O 1256.2 -1.44772 -2.29681 0
M  V30 12678 C 1254.65 -3.5204 -0.748065 0
M  V30 12679 C 1254.26 -4.45867 0.436643 0
M  V30 12680 C 1256 -4.02766 -1.3409 0
M  V30 12681 C 1253.91 -5.91373 0.0568909 0
M  V30 12682 H 1252.84 -0.738913 -0.150078 0
M  V30 12683 H 1255.49 -1.80415 0.335052 0
M  V30 12684 H 1253.87 -3.65143 -1.53254 0
M  V30 12685 H 1255.05 -4.44519 1.21408 0
M  V30 12686 H 1253.36 -4.05565 0.943702 0
M  V30 12687 H 1255.96 -5.08987 -1.63817 0
M  V30 12688 H 1256.3 -3.49496 -2.26182 0
M  V30 12689 H 1256.84 -3.92946 -0.619548 0
M  V30 12690 H 1253.58 -6.48657 0.944682 0
M  V30 12691 H 1253.1 -5.95881 -0.684557 0
M  V30 12692 H 1254.77 -6.45972 -0.364586 0
M  V30 12693 N 1254.91 0.036755 -1.57557 0
M  V30 12694 C 1256.15 0.727665 -1.88546 0
M  V30 12695 C 1256.48 1.76304 -0.833179 0
M  V30 12696 O 1255.75 1.9544 0.13414 0
M  V30 12697 H 1254.33 0.271744 -0.695819 0
M  V30 12698 H 1256.99 0.00452915 -1.94899 0
M  V30 12699 H 1256.08 1.22205 -2.8718 0
M  V30 12700 N 1256.39 1.54543 0.308881 0
M  V30 12701 C 1257.8 1.45581 0.654088 0
M  V30 12702 C 1258 0.640597 1.91046 0
M  V30 12703 O 1257.06 0.14518 2.52082 0
M  V30 12704 C 1258.37 2.89461 0.814422 0
M  V30 12705 C 1259.92 2.99455 0.910817 0
M  V30 12706 C 1260.39 4.44515 1.10321 0
M  V30 12707 N 1261.88 4.4819 1.1696 0
M  V30 12708 C 1262.62 5.57604 1.33661 0
M  V30 12709 N 1262.12 6.76957 1.47311 0
M  V30 12710 N 1263.91 5.45278 1.36487 0
M  V30 12711 H 1256.06 2.06019 -0.516699 0
M  V30 12712 H 1258.32 0.932729 -0.169471 0
M  V30 12713 H 1258.03 3.5168 -0.0377455 0
M  V30 12714 H 1257.9 3.36425 1.70582 0
M  V30 12715 H 1260.29 2.37355 1.75348 0
M  V30 12716 H 1260.37 2.558 -0.00443172 0
M  V30 12717 H 1260.01 5.07206 0.265346 0
M  V30 12718 H 1259.94 4.85793 2.03256 0
M  V30 12719 H 1262.44 3.62199 1.07796 0
M  V30 12720 H 1262.75 7.561 1.59788 0
M  V30 12721 H 1261.09 6.79837 1.44382 0
M  V30 12722 H 1264.28 4.50983 1.25429 0
M  V30 12723 H 1264.46 6.30599 1.4916 0
M  V30 12724 N 1257.86 -0.571685 1.46866 0
M  V30 12725 C 1258.81 -1.6751 1.54676 0
M  V30 12726 C 1259.8 -1.55673 0.406774 0
M  V30 12727 O 1260.99 -1.64401 0.655847 0
M  V30 12728 C 1258.12 -3.06295 1.55043 0
M  V30 12729 C 1257.2 -3.23388 2.74374 0
M  V30 12730 N 1257.6 -3.10598 3.99202 0
M  V30 12731 C 1255.89 -3.54354 2.7083 0
M  V30 12732 C 1256.59 -3.29993 4.79041 0
M  V30 12733 N 1255.57 -3.55659 4.11106 0
M  V30 12734 H 1259.37 -1.56168 2.48975 0
M  V30 12735 H 1256.89 -0.776036 1.42658 0
M  V30 12736 H 1258.88 -3.85502 1.58726 0
M  V30 12737 H 1257.54 -3.18759 0.618278 0
M  V30 12738 H 1258.55 -2.8823 4.30283 0
M  V30 12739 H 1255.23 -3.73435 1.86688 0
M  V30 12740 H 1256.62 -3.25194 5.87961 0
M  V30 12741 N 1259.34 -1.34755 -0.817236 0
M  V30 12742 C 1260.57 -1.30676 -1.61054 0
M  V30 12743 C 1260.99 0.115343 -1.87746 0
M  V30 12744 O 1260.35 1.07887 -1.45705 0
M  V30 12745 C 1260.4 -2.10881 -2.92509 0
M  V30 12746 O 1259.5 -1.48223 -3.84842 0
M  V30 12747 H 1258.84 -0.448531 -0.489608 0
M  V30 12748 H 1261.37 -1.77642 -1.01512 0
M  V30 12749 H 1261.38 -2.22446 -3.42026 0
M  V30 12750 H 1260.06 -3.14274 -2.72406 0
M  V30 12751 H 1258.63 -1.45434 -3.4337 0
M  V30 12752 N 1260.82 1.03812 -1.18578 0
M  V30 12753 C 1261.78 2.10049 -0.91718 0
M  V30 12754 C 1262.78 1.60498 0.0985122 0
M  V30 12755 O 1263.97 1.73674 -0.135213 0
M  V30 12756 C 1261.1 3.38813 -0.376599 0
M  V30 12757 H 1262.3 2.3531 -1.85927 0
M  V30 12758 H 1259.85 1.20277 -0.998156 0
M  V30 12759 H 1260.59 3.19216 0.571983 0
M  V30 12760 H 1260.37 3.76096 -1.10881 0
M  V30 12761 H 1261.86 4.17084 -0.207453 0
M  V30 12762 N 1262.3 0.988223 1.22768 0
M  V30 12763 C 1263.52 0.679426 1.95955 0
M  V30 12764 C 1263.95 -0.748483 1.72567 0
M  V30 12765 O 1263.31 -1.51097 1.00197 0
M  V30 12766 C 1263.35 0.985284 3.46878 0
M  V30 12767 O 1262.46 0.0814607 4.1232 0
M  V30 12768 H 1261.8 0.254749 0.613188 0
M  V30 12769 H 1264.33 1.32393 1.55991 0
M  V30 12770 H 1264.34 0.925198 3.97371 0
M  V30 12771 H 1263.01 2.02581 3.63227 0
M  V30 12772 H 1261.59 0.196629 3.72381 0
M  V30 12773 N 1263.78 -1.38018 0.760839 0
M  V30 12774 C 1265.02 -2.00248 0.320716 0
M  V30 12775 C 1265.35 -1.60259 -1.09684 0
M  V30 12776 O 1264.63 -0.843567 -1.75255 0
M  V30 12777 C 1264.91 -3.57254 0.451849 0
M  V30 12778 C 1264.77 -4.07185 1.91103 0
M  V30 12779 C 1266.08 -4.39843 -0.150439 0
M  V30 12780 H 1263.2 -0.727491 0.118007 0
M  V30 12781 H 1265.85 -1.63855 0.961842 0
M  V30 12782 H 1264 -3.88386 -0.0939672 0
M  V30 12783 H 1265.67 -3.86665 2.51571 0
M  V30 12784 H 1263.91 -3.59782 2.42362 0
M  V30 12785 H 1264.58 -5.16262 1.9539 0
M  V30 12786 H 1267.06 -4.14905 0.315145 0
M  V30 12787 H 1265.93 -5.48893 -0.0284853 0
M  V30 12788 H 1266.19 -4.24367 -1.23956 0
M  V30 12789 N 1265.25 -0.510493 -1.49103 0
M  V30 12790 C 1266.5 0.0305831 -2.02077 0
M  V30 12791 C 1266.82 1.36602 -1.39157 0
M  V30 12792 O 1266.09 1.88016 -0.550154 0
M  V30 12793 H 1264.67 0.0142916 -0.746863 0
M  V30 12794 H 1267.33 -0.669895 -1.83026 0
M  V30 12795 H 1266.43 0.153283 -3.11723 0
M  V30 12796 N 1266.73 1.55688 -0.24474 0
M  V30 12797 C 1267.68 2.17946 0.669596 0
M  V30 12798 C 1268.67 1.13468 1.14078 0
M  V30 12799 O 1269.86 1.39385 1.09091 0
M  V30 12800 C 1266.99 2.8808 1.86721 0
M  V30 12801 C 1266.07 3.99811 1.41463 0
M  V30 12802 N 1266.46 5.01261 0.676131 0
M  V30 12803 C 1264.76 4.12327 1.70008 0
M  V30 12804 C 1265.46 5.80017 0.442113 0
M  V30 12805 N 1264.44 5.34216 1.00569 0
M  V30 12806 H 1268.24 2.93739 0.0971953 0
M  V30 12807 H 1265.75 1.62332 -0.0469646 0
M  V30 12808 H 1267.75 3.31109 2.53322 0
M  V30 12809 H 1266.41 2.13789 2.44385 0
M  V30 12810 H 1267.42 5.1687 0.326459 0
M  V30 12811 H 1264.1 3.49206 2.28827 0
M  V30 12812 H 1265.49 6.71739 -0.14729 0
M  V30 12813 N 1268.21 -0.0283989 1.57574 0
M  V30 12814 C 1269.44 -0.730831 1.93563 0
M  V30 12815 C 1269.85 -1.68857 0.844556 0
M  V30 12816 O 1269.21 -1.8162 -0.178971 0
M  V30 12817 C 1269.26 -1.48731 3.29486 0
M  V30 12818 O 1268.98 -0.568017 4.34402 0
M  V30 12819 C 1270.48 -2.28684 3.79761 0
M  V30 12820 H 1267.7 -0.205346 0.638807 0
M  V30 12821 H 1270.25 0.0142728 2.04495 0
M  V30 12822 H 1268.4 -2.18429 3.19949 0
M  V30 12823 H 1268.82 -1.09861 5.12865 0
M  V30 12824 H 1270.29 -2.77157 4.77376 0
M  V30 12825 H 1270.77 -3.10133 3.10989 0
M  V30 12826 H 1271.37 -1.64059 3.92383 0
M  V30 12827 N 1269.69 -1.54705 -0.300681 0
M  V30 12828 C 1270.92 -1.77735 -1.05327 0
M  V30 12829 C 1271.33 -0.53709 -1.81417 0
M  V30 12830 O 1270.67 0.502663 -1.76689 0
M  V30 12831 C 1270.73 -2.93222 -2.07993 0
M  V30 12832 C 1270.39 -4.313 -1.51095 0
M  V30 12833 C 1271.39 -5.11317 -0.94082 0
M  V30 12834 C 1269.08 -4.77901 -1.54648 0
M  V30 12835 C 1271.07 -6.36055 -0.413791 0
M  V30 12836 C 1268.76 -6.02602 -1.01558 0
M  V30 12837 C 1269.76 -6.81515 -0.450209 0
M  V30 12838 O 1269.44 -8.03867 0.0726375 0
M  V30 12839 H 1269.18 -0.596468 -0.318122 0
M  V30 12840 H 1271.73 -2.02475 -0.345404 0
M  V30 12841 H 1269.96 -2.64108 -2.82461 0
M  V30 12842 H 1271.65 -3.03826 -2.69156 0
M  V30 12843 H 1272.41 -4.76458 -0.906268 0
M  V30 12844 H 1268.29 -4.16507 -1.97594 0
M  V30 12845 H 1271.84 -6.97594 0.0281534 0
M  V30 12846 H 1267.73 -6.36948 -1.04728 0
M  V30 12847 H 1268.5 -8.1849 -0.0406321 0
M  V30 12848 N 1271.17 0.563888 -1.47167 0
M  V30 12849 C 1272.58 1.14603 -1.47388 0
M  V30 12850 C 1272.93 1.94907 -0.224916 0
M  V30 12851 O 1272.05 2.05745 0.670672 0
M  V30 12852 C 1272.65 2.08501 -2.67044 0
M  V30 12853 C 1271.21 2.62 -2.70246 0
M  V30 12854 C 1270.35 1.38244 -2.40383 0
M  V30 12855 H 1273.31 0.350833 -1.54774 0
M  V30 12856 H 1273.33 2.92272 -2.43634 0
M  V30 12857 H 1272.84 1.50027 -3.57929 0
M  V30 12858 H 1270.94 3.24292 -1.83482 0
M  V30 12859 H 1271.05 3.0345 -3.70749 0
M  V30 12860 H 1269.42 1.68692 -1.90827 0
M  V30 12861 H 1270.2 0.815726 -3.33468 0
M  V30 12862 N 1272.64 1.35187 0.810078 0
M  V30 12863 C 1273.61 1.27698 1.90331 0
M  V30 12864 C 1274.61 0.189216 1.59683 0
M  V30 12865 O 1275.8 0.442689 1.68481 0
M  V30 12866 C 1272.93 0.974631 3.26671 0
M  V30 12867 H 1274.12 2.24902 1.98392 0
M  V30 12868 H 1271.68 1.1966 1.00554 0
M  V30 12869 H 1272.41 0.0063068 3.24299 0
M  V30 12870 H 1272.2 1.76158 3.50301 0
M  V30 12871 H 1273.69 0.947743 4.06703 0
M  V30 12872 N 1274.12 -1.03182 1.19127 0
M  V30 12873 C 1275.37 -1.75934 0.986415 0
M  V30 12874 C 1275.68 -1.89519 -0.48392 0
M  V30 12875 O 1276.89 -2.59213 -0.80752 0
M  V30 12876 C 1275.35 -3.16358 1.71597 0
M  V30 12877 C 1274.95 -3.10836 3.22622 0
M  V30 12878 C 1276.7 -3.93426 1.59425 0
M  V30 12879 C 1274.61 -4.46174 3.88179 0
M  V30 12880 H 1273.54 -0.659516 0.365451 0
M  V30 12881 H 1276.19 -1.15497 1.42593 0
M  V30 12882 H 1274.57 -3.77245 1.20426 0
M  V30 12883 H 1275.74 -2.59348 3.80887 0
M  V30 12884 H 1274.06 -2.47266 3.35035 0
M  V30 12885 H 1276.65 -4.93526 2.05757 0
M  V30 12886 H 1277 -4.12678 0.547926 0
M  V30 12887 H 1277.53 -3.39134 2.07925 0
M  V30 12888 H 1274.27 -4.32126 4.92897 0
M  V30 12889 H 1273.79 -4.97729 3.34702 0
M  V30 12890 H 1275.47 -5.15066 3.91556 0
M  V30 12891 N 1275.6 -0.99472 -1.22242 0
M  V30 12892 C 1276.83 -0.689809 -1.95592 0
M  V30 12893 C 1277.25 0.739321 -1.72961 0
M  V30 12894 O 1276.61 1.50563 -1.00997 0
M  V30 12895 C 1276.66 -1.00367 -3.46351 0
M  V30 12896 O 1275.76 -0.103326 -4.12271 0
M  V30 12897 H 1275.1 -0.257997 -0.611828 0
M  V30 12898 H 1277.63 -1.33219 -1.55286 0
M  V30 12899 H 1277.64 -0.946259 -3.96875 0
M  V30 12900 H 1276.32 -2.04504 -3.62148 0
M  V30 12901 H 1274.89 -0.216374 -3.72272 0
M  V30 12902 N 1277.08 1.37613 -0.768148 0
M  V30 12903 C 1278.32 2.00075 -0.331331 0
M  V30 12904 C 1278.66 1.60839 1.08833 0
M  V30 12905 O 1277.93 0.852849 1.74805 0
M  V30 12906 C 1278.22 3.57009 -0.470789 0
M  V30 12907 C 1278.07 4.06166 -1.9326 0
M  V30 12908 C 1279.39 4.39916 0.127111 0
M  V30 12909 H 1276.51 0.726855 -0.121864 0
M  V30 12910 H 1279.15 1.63343 -0.970518 0
M  V30 12911 H 1277.3 3.88431 0.0733688 0
M  V30 12912 H 1278.97 3.85325 -2.53618 0
M  V30 12913 H 1277.21 3.58492 -2.44266 0
M  V30 12914 H 1277.88 5.15219 -1.98125 0
M  V30 12915 H 1280.36 4.14732 -0.337144 0
M  V30 12916 H 1279.24 5.489 -0.000624226 0
M  V30 12917 H 1279.5 4.25018 1.21704 0
M  V30 12918 N 1278.56 0.518393 1.4883 0
M  V30 12919 C 1279.8 -0.0199348 2.0279 0
M  V30 12920 C 1280.14 -1.35026 1.39576 0
M  V30 12921 O 1279.41 -1.86927 0.537449 0
M  V30 12922 C 1279.69 -0.154184 3.5977 0
M  V30 12923 C 1279.55 1.2005 4.33484 0
M  V30 12924 C 1280.87 -0.886547 4.31078 0
M  V30 12925 H 1277.98 -0.00577061 0.736977 0
M  V30 12926 H 1280.63 0.673178 1.77675 0
M  V30 12927 H 1278.78 -0.74451 3.81299 0
M  V30 12928 H 1280.45 1.83104 4.23404 0
M  V30 12929 H 1278.69 1.78537 3.95357 0
M  V30 12930 H 1279.36 1.05968 5.41733 0
M  V30 12931 H 1281.84 -0.385711 4.14308 0
M  V30 12932 H 1280.71 -0.949355 5.40628 0
M  V30 12933 H 1280.98 -1.93424 3.97542 0
M  V30 12934 N 1280.03 -1.55556 0.252993 0
M  V30 12935 C 1281.26 -2.03945 -0.376965 0
M  V30 12936 C 1281.68 -1.13089 -1.50308 0
M  V30 12937 O 1281.04 -0.125039 -1.80868 0
M  V30 12938 C 1281.09 -3.50284 -0.856363 0
M  V30 12939 O 1280.19 -3.62551 -1.96546 0
M  V30 12940 H 1279.54 -0.659002 -0.081317 0
M  V30 12941 H 1282.07 -2.01024 0.380831 0
M  V30 12942 H 1282.08 -3.91222 -1.15798 0
M  V30 12943 H 1280.75 -4.15887 -0.0323302 0
M  V30 12944 H 1279.33 -3.33511 -1.66808 0
M  V30 12945 N 1281.51 0.0200419 -1.57587 0
M  V30 12946 C 1282.74 0.720556 -1.93947 0
M  V30 12947 C 1283.16 1.68407 -0.853499 0
M  V30 12948 O 1282.51 1.81713 0.169337 0
M  V30 12949 C 1282.56 1.46982 -3.3027 0
M  V30 12950 O 1282.28 0.544971 -4.34697 0
M  V30 12951 C 1283.79 2.26667 -3.80968 0
M  V30 12952 H 1281.01 0.201956 -0.639887 0
M  V30 12953 H 1283.55 -0.0251175 -2.04485 0
M  V30 12954 H 1281.7 2.16729 -3.21103 0
M  V30 12955 H 1282.12 1.07139 -5.13441 0
M  V30 12956 H 1283.59 2.74621 -4.78839 0
M  V30 12957 H 1284.07 3.0848 -3.12629 0
M  V30 12958 H 1284.68 1.61976 -3.93248 0
M  V30 12959 N 1282.99 1.54862 0.292472 0
M  V30 12960 C 1284.27 1.65237 1.04671 0
M  V30 12961 C 1284.65 0.506168 2.04942 0
M  V30 12962 O 1284 -0.496123 2.23049 0
M  V30 12963 C 1284.21 3.03618 1.72095 0
M  V30 12964 C 1285.55 3.6072 2.23979 0
M  V30 12965 O 1286.58 3.06126 1.82114 0
M  V30 12966 O 1285.44 4.56328 3.0071 0
M  V30 12967 H 1282.53 0.670347 0.484319 0
M  V30 12968 H 1285.08 1.67206 0.28988 0
M  V30 12969 H 1283.85 3.78482 0.993324 0
M  V30 12970 H 1283.47 3.05464 2.54514 0
M  V30 12971 N 1284.47 -0.556076 1.47464 0
M  V30 12972 C 1285.75 -1.31689 1.44628 0
M  V30 12973 C 1286.13 -2.10609 0.143841 0
M  V30 12974 O 1285.47 -2.11097 -0.874662 0
M  V30 12975 C 1285.68 -2.22045 2.69253 0
M  V30 12976 C 1287.03 -2.83028 3.16513 0
M  V30 12977 O 1288.06 -2.32346 2.69988 0
M  V30 12978 O 1286.91 -3.75148 3.97399 0
M  V30 12979 H 1284.01 -0.593026 0.576411 0
M  V30 12980 H 1286.55 -0.574885 1.59666 0
M  V30 12981 H 1285.33 -1.63337 3.5558 0
M  V30 12982 H 1284.95 -3.03539 2.56807 0
M  V30 12983 N 1285.95 -1.35615 -0.802897 0
M  V30 12984 C 1287.22 -1.19655 -1.54732 0
M  V30 12985 C 1287.6 0.222827 -2.09921 0
M  V30 12986 O 1286.95 1.2268 -1.92774 0
M  V30 12987 C 1287.16 -2.26761 -2.65293 0
M  V30 12988 C 1288.51 -2.62754 -3.33535 0
M  V30 12989 O 1289.53 -2.25702 -2.75567 0
M  V30 12990 O 1288.39 -3.26476 -4.38264 0
M  V30 12991 H 1285.49 -0.465079 -0.683835 0
M  V30 12992 H 1288.03 -1.47307 -0.84254 0
M  V30 12993 H 1286.81 -3.21946 -2.22411 0
M  V30 12994 H 1286.43 -2.00399 -3.43404 0
M  V30 12995 N 1287.43 1.02549 -1.19673 0
M  V30 12996 C 1288.36 2.12794 -0.961289 0
M  V30 12997 C 1289.34 1.69766 0.106575 0
M  V30 12998 O 1290.52 1.94138 -0.0491358 0
M  V30 12999 C 1287.65 3.4364 -0.502868 0
M  V30 13000 C 1286.61 4.00367 -1.51296 0
M  V30 13001 C 1285.93 5.26874 -0.911491 0
M  V30 13002 C 1287.23 4.34782 -2.89416 0
M  V30 13003 H 1288.93 2.32748 -1.88331 0
M  V30 13004 H 1286.47 1.11852 -0.906922 0
M  V30 13005 H 1288.42 4.20141 -0.325436 0
M  V30 13006 H 1287.15 3.23418 0.454764 0
M  V30 13007 H 1285.81 3.25964 -1.67759 0
M  V30 13008 H 1285.46 5.02971 0.0537982 0
M  V30 13009 H 1285.16 5.65791 -1.58602 0
M  V30 13010 H 1286.68 6.06039 -0.74493 0
M  V30 13011 H 1288.09 5.02207 -2.76516 0
M  V30 13012 H 1286.49 4.8479 -3.53693 0
M  V30 13013 H 1287.56 3.43935 -3.41814 0
M  V30 13014 N 1288.9 1.00119 1.21713 0
M  V30 13015 C 1289.87 0.563409 2.22167 0
M  V30 13016 C 1290.87 -0.35819 1.5676 0
M  V30 13017 O 1292.06 -0.149001 1.73562 0
M  V30 13018 C 1289.19 -0.179365 3.40428 0
M  V30 13019 H 1290.38 1.45189 2.62412 0
M  V30 13020 H 1287.93 0.789286 1.34907 0
M  V30 13021 H 1288.67 -1.08345 3.05666 0
M  V30 13022 H 1288.45 0.482471 3.8912 0
M  V30 13023 H 1289.94 -0.473537 4.14906 0
M  V30 13024 O 1290.42 -1.33277 0.912107 0
M  V30 13025 H 1291.11 -1.86361 0.528143 0
M  V30 END ATOM
M  V30 BEGIN BOND
M  V30 END BOND
M  V30 END CTAB
M  END
$$$$
