drugbank_target|P9WG35 Probable thiol peroxidase (DB03382)
 OpenBabel12092120273D

  0  0  0     0  0            999 V3000
M  V30 BEGIN CTAB
M  V30 COUNTS 2361 2381 0 0 0
M  V30 BEGIN ATOM
M  V30 1 H -0.908 1.98254 -0.117106 0
M  V30 2 N 0 1.576 0 0
M  V30 3 C 0.933 2.03868 1.02534 0
M  V30 4 C 1.911 0.928543 1.3348 0
M  V30 5 O 3.095 1.19667 1.45644 0
M  V30 6 C 0.222 2.43627 2.35294 0
M  V30 7 C -0.732 3.65373 2.2001 0
M  V30 8 S 0.101 5.13292 1.52614 0
M  V30 9 C 1.257 5.56322 2.86805 0
M  V30 10 H 1.49 2.90518 0.631377 0
M  V30 11 H -0.977 1.52953 0.210867 0
M  V30 12 H 0.981 2.67203 3.11629 0
M  V30 13 H -0.358 1.57376 2.7183 0
M  V30 14 H -1.165 3.90944 3.18086 0
M  V30 15 H -1.563 3.418 1.51819 0
M  V30 16 H 0.729 5.58782 3.83104 0
M  V30 17 H 1.672 6.56266 2.65933 0
M  V30 18 H 2.08 4.83886 2.90714 0
M  V30 19 N 1.4781 -0.272755 1.55222 0
M  V30 20 C 2.4411 -1.32041 1.87344 0
M  V30 21 C 3.4411 -1.42342 0.74803 0
M  V30 22 O 4.6311 -1.41488 1.0162 0
M  V30 23 C 1.7631 -2.70173 2.07893 0
M  V30 24 H 2.9561 -1.04789 2.80997 0
M  V30 25 H 0.5091 -0.51083 1.47717 0
M  V30 26 H 1.2441 -3.02605 1.16622 0
M  V30 27 H 1.0291 -2.64082 2.89833 0
M  V30 28 H 2.5191 -3.45869 2.34017 0
M  V30 29 N 2.9562 -1.48159 -0.537278 0
M  V30 30 C 3.8882 -1.58218 -1.65831 0
M  V30 31 C 4.9012 -0.466948 -1.5596 0
M  V30 32 O 6.0902 -0.73747 -1.62553 0
M  V30 33 C 3.1902 -1.48906 -3.04434 0
M  V30 34 C 2.3632 -2.75343 -3.3986 0
M  V30 35 C 1.4222 -2.59588 -4.57712 0
M  V30 36 O 0.4482 -3.33457 -4.61297 0
M  V30 37 N 1.6502 -1.68724 -5.55439 0
M  V30 38 H 4.4152 -2.54891 -1.57641 0
M  V30 39 H 1.9762 -1.4479 -0.724386 0
M  V30 40 H 3.9682 -1.36072 -3.81139 0
M  V30 41 H 2.5382 -0.602368 -3.06741 0
M  V30 42 H 1.7582 -3.02795 -2.52406 0
M  V30 43 H 3.0462 -3.5924 -3.60311 0
M  V30 44 H 2.4442 -1.07898 -5.55315 0
M  V30 45 H 1.0012 -1.61832 -6.3139 0
M  V30 46 N 4.4343 0.785586 -1.36625 0
M  V30 47 C 5.6833 1.53883 -1.30396 0
M  V30 48 C 5.9963 1.95271 0.113452 0
M  V30 49 O 7.2023 2.69858 0.298142 0
M  V30 50 C 5.6583 2.77808 -2.28802 0
M  V30 51 C 5.2663 2.43574 -3.75999 0
M  V30 52 C 7.0103 3.55783 -2.31558 0
M  V30 53 C 4.9173 3.63919 -4.66173 0
M  V30 54 H 3.8473 0.577678 -0.484566 0
M  V30 55 H 6.4983 0.861705 -1.62009 0
M  V30 56 H 4.8803 3.47339 -1.90188 0
M  V30 57 H 6.0543 1.81916 -4.23371 0
M  V30 58 H 4.3693 1.78803 -3.76056 0
M  V30 59 H 6.9663 4.45205 -2.96137 0
M  V30 60 H 7.3093 3.94644 -1.3252 0
M  V30 61 H 7.8423 2.93235 -2.68809 0
M  V30 62 H 4.5813 3.3015 -5.66287 0
M  V30 63 H 4.1013 4.2473 -4.23515 0
M  V30 64 H 5.7803 4.30901 -4.82632 0
M  V30 65 N 5.9124 1.20967 1.01018 0
M  V30 66 C 7.1404 1.04956 1.78303 0
M  V30 67 C 7.5554 -0.400915 1.84494 0
M  V30 68 O 6.9124 -1.27826 1.30257 0
M  V30 69 C 6.9634 1.63403 3.22462 0
M  V30 70 O 6.6844 3.02775 3.16637 0
M  V30 71 C 8.1854 1.52432 4.16268 0
M  V30 72 H 5.4054 0.368858 0.560522 0
M  V30 73 H 7.9494 1.60193 1.27116 0
M  V30 74 H 6.1044 1.1227 3.70775 0
M  V30 75 H 6.5184 3.30626 4.07169 0
M  V30 76 H 7.9924 1.98078 5.15237 0
M  V30 77 H 8.4694 0.477875 4.36592 0
M  V30 78 H 9.0754 2.02787 3.73841 0
M  V30 79 N 7.3905 -1.2043 1.01659 0
M  V30 80 C 8.3205 -2.25466 0.607226 0
M  V30 81 C 9.3015 -1.65853 -0.377716 0
M  V30 82 O 10.4865 -1.92409 -0.263149 0
M  V30 83 C 7.6165 -3.47256 -0.0552949 0
M  V30 84 C 6.5705 -4.19462 0.850632 0
M  V30 85 C 5.8965 -5.34673 0.0538859 0
M  V30 86 C 7.1965 -4.75603 2.15868 0
M  V30 87 H 8.8905 -2.59962 1.48526 0
M  V30 88 H 6.4365 -1.2496 0.715605 0
M  V30 89 H 8.3895 -4.19917 -0.353233 0
M  V30 90 H 7.1135 -3.11924 -0.968045 0
M  V30 91 H 5.7725 -3.48667 1.13257 0
M  V30 92 H 5.4205 -4.95585 -0.860514 0
M  V30 93 H 5.1205 -5.83913 0.657192 0
M  V30 94 H 6.6445 -6.10138 -0.237598 0
M  V30 95 H 8.0585 -5.40083 1.92311 0
M  V30 96 H 6.4555 -5.3528 2.71284 0
M  V30 97 H 7.5255 -3.94346 2.82169 0
M  V30 98 N 8.8686 -0.792821 -1.36206 0
M  V30 99 C 10.2846 -0.474903 -1.52371 0
M  V30 100 C 10.4846 1.00622 -1.74578 0
M  V30 101 O 9.5406 1.79162 -1.77924 0
M  V30 102 C 10.8536 -1.3083 -2.70747 0
M  V30 103 C 12.4016 -1.30234 -2.84619 0
M  V30 104 C 12.8766 -2.11956 -4.06004 0
M  V30 105 N 14.3676 -2.09419 -4.13156 0
M  V30 106 C 15.1026 -2.69419 -5.06163 0
M  V30 107 N 14.5986 -3.3829 -6.04592 0
M  V30 108 N 16.3916 -2.59134 -4.98804 0
M  V30 109 H 8.5426 -1.75222 -1.20046 0
M  V30 110 H 10.8056 -0.745024 -0.586211 0
M  V30 111 H 10.5116 -2.35881 -2.6087 0
M  V30 112 H 10.3856 -0.95196 -3.6499 0
M  V30 113 H 12.7726 -0.259748 -2.93955 0
M  V30 114 H 12.8536 -1.69847 -1.91274 0
M  V30 115 H 12.4976 -3.16248 -3.97429 0
M  V30 116 H 12.4276 -1.69711 -4.98503 0
M  V30 117 H 14.9186 -1.59297 -3.42685 0
M  V30 118 H 15.2316 -3.81394 -6.7213 0
M  V30 119 H 13.5766 -3.42393 -6.04807 0
M  V30 120 H 16.7676 -2.04927 -4.20859 0
M  V30 121 H 16.9406 -3.06185 -5.711 0
M  V30 122 N 10.3467 1.47872 -0.545128 0
M  V30 123 C 11.5947 2.02093 -0.016553 0
M  V30 124 C 11.9157 1.42305 1.3332 0
M  V30 125 O 11.1857 0.593853 1.86682 0
M  V30 126 H 9.7657 0.746993 -0.00313038 0
M  V30 127 H 12.4277 1.81414 -0.712397 0
M  V30 128 H 11.5237 3.11996 0.0805422 0
M  V30 129 N 11.8248 0.280983 1.55075 0
M  V30 130 C 12.7728 -0.619864 2.24188 0
M  V30 131 C 13.7668 -1.15315 1.24092 0
M  V30 132 O 14.9728 -1.1061 1.42005 0
M  V30 133 H 11.3478 -0.218459 0.719569 0
M  V30 134 H 13.3188 -0.0141831 2.98397 0
M  V30 135 C 12.0678 -1.7899 2.98091 0
M  V30 136 H 11.3908 -1.38874 3.74905 0
M  V30 137 H 12.8308 -2.39672 3.49762 0
M  V30 138 C 11.2898 -2.68192 2.03899 0
M  V30 139 O 11.8198 -3.6872 1.594 0
M  V30 140 N 10.0258 -2.35488 1.70275 0
M  V30 141 H 9.5728 -1.53787 2.06658 0
M  V30 142 H 9.5308 -2.95442 1.07524 0
M  V30 143 N 13.3029 -1.57598 0.00835791 0
M  V30 144 C 14.2659 -2.07884 -0.965242 0
M  V30 145 C 15.2659 -0.989825 -1.26725 0
M  V30 146 O 16.4559 -1.25218 -1.21104 0
M  V30 147 C 13.5879 -2.52731 -2.28779 0
M  V30 148 H 14.7809 -2.95178 -0.530112 0
M  V30 149 H 12.3339 -1.54458 -0.239283 0
M  V30 150 H 13.0689 -1.68705 -2.76964 0
M  V30 151 H 12.8539 -3.32272 -2.08177 0
M  V30 152 H 14.3439 -2.91933 -2.98605 0
M  V30 153 N 14.781 0.264519 -1.55364 0
M  V30 154 C 16.03 0.992812 -1.75574 0
M  V30 155 C 16.343 1.87142 -0.568979 0
M  V30 156 O 17.549 2.63513 -0.653682 0
M  V30 157 C 16.005 1.81519 -3.10771 0
M  V30 158 C 15.613 0.984839 -4.37041 0
M  V30 159 C 17.357 2.53727 -3.40327 0
M  V30 160 C 15.264 1.80209 -5.63275 0
M  V30 161 H 14.194 0.374412 -0.65447 0
M  V30 162 H 16.845 0.248138 -1.81815 0
M  V30 163 H 15.227 2.60115 -2.98591 0
M  V30 164 H 16.401 0.242455 -4.60162 0
M  V30 165 H 14.716 0.37691 -4.14691 0
M  V30 166 H 17.313 3.15292 -4.3185 0
M  V30 167 H 17.656 3.24447 -2.60845 0
M  V30 168 H 18.189 1.82156 -3.53644 0
M  V30 169 H 14.928 1.13896 -6.45529 0
M  V30 170 H 14.448 2.52022 -5.44284 0
M  V30 171 H 16.127 2.37364 -6.01887 0
M  V30 172 N 16.2591 1.48442 0.529413 0
M  V30 173 C 17.2071 1.63452 1.65487 0
M  V30 174 C 18.2011 0.500955 1.61823 0
M  V30 175 O 19.4071 0.679695 1.66674 0
M  V30 176 H 15.7821 0.514905 0.548066 0
M  V30 177 H 17.7531 2.57975 1.49971 0
M  V30 178 C 16.5021 1.69196 3.03756 0
M  V30 179 H 15.8251 2.55784 3.07269 0
M  V30 180 H 17.2651 1.83743 3.82119 0
M  V30 181 C 15.7241 0.430765 3.34135 0
M  V30 182 O 16.2541 -0.4561 3.99102 0
M  V30 183 N 14.4601 0.302293 2.89023 0
M  V30 184 H 14.0071 1.02496 2.36331 0
M  V30 185 H 13.9651 -0.540546 3.09718 0
M  V30 186 N 17.7372 -0.778329 1.37039 0
M  V30 187 C 18.9652 -1.56734 1.35063 0
M  V30 188 C 19.3802 -1.88686 -0.0655597 0
M  V30 189 O 18.7372 -1.5096 -1.02554 0
M  V30 190 C 18.7882 -2.88163 2.18276 0
M  V30 191 O 18.5092 -2.57583 3.54376 0
M  V30 192 C 20.0102 -3.82422 2.24206 0
M  V30 193 H 17.2302 -0.485778 0.462883 0
M  V30 194 H 19.7742 -0.965185 1.8029 0
M  V30 195 H 17.9292 -3.44818 1.76576 0
M  V30 196 H 18.3432 -3.41699 3.97922 0
M  V30 197 H 19.8172 -4.71667 2.86765 0
M  V30 198 H 20.2942 -4.21078 1.24861 0
M  V30 199 H 20.9002 -3.31697 2.6619 0
M  V30 200 N 19.2153 -1.21501 -1.00376 0
M  V30 201 C 20.4613 -1.03452 -1.74429 0
M  V30 202 C 20.7943 0.430764 -1.89362 0
M  V30 203 O 20.0693 1.31962 -1.42886 0
M  V30 204 C 20.3523 -1.73375 -3.15615 0
M  V30 205 C 20.2053 -3.27431 -3.08397 0
M  V30 206 C 21.5243 -1.47732 -4.14564 0
M  V30 207 H 18.6433 -0.377226 -0.633143 0
M  V30 208 H 21.2853 -1.49693 -1.17013 0
M  V30 209 H 19.4353 -1.34064 -3.64636 0
M  V30 210 H 21.1073 -3.76119 -2.67081 0
M  V30 211 H 19.3503 -3.5767 -2.45468 0
M  V30 212 H 20.0213 -3.71524 -4.08258 0
M  V30 213 H 22.4973 -1.8186 -3.74254 0
M  V30 214 H 21.3733 -1.99169 -5.11491 0
M  V30 215 H 21.6343 -0.407589 -4.40217 0
M  V30 216 N 20.6934 1.19889 -1.02296 0
M  V30 217 C 21.9414 1.89046 -0.714558 0
M  V30 218 C 22.2624 1.79636 0.758681 0
M  V30 219 O 21.5324 1.20292 1.54618 0
M  V30 220 H 20.1124 0.699802 -0.261317 0
M  V30 221 H 22.7744 1.45574 -1.29592 0
M  V30 222 H 21.8704 2.95524 -1.0036 0
M  V30 223 N 22.1715 0.800033 1.35784 0
M  V30 224 C 23.0815 0.207204 2.33683 0
M  V30 225 C 24.0975 -0.64631 1.61551 0
M  V30 226 O 25.2735 -0.559604 1.93469 0
M  V30 227 C 22.3385 -0.639659 3.40748 0
M  V30 228 C 21.3995 0.233585 4.28664 0
M  V30 229 C 20.6325 -0.572954 5.30616 0
M  V30 230 O 20.8555 -1.80816 5.40982 0
M  V30 231 O 19.7895 0.0327285 6.01891 0
M  V30 232 H 23.6155 1.01692 2.86169 0
M  V30 233 H 21.2005 0.561691 1.38439 0
M  V30 234 H 23.0825 -1.12223 4.06182 0
M  V30 235 H 21.7575 -1.42708 2.90544 0
M  V30 236 H 20.6645 0.763147 3.66233 0
M  V30 237 H 21.9975 0.984784 4.82248 0
M  V30 238 N 23.6496 -1.47581 0.552962 0
M  V30 239 C 24.5796 -2.32762 -0.185451 0
M  V30 240 C 25.5606 -1.43527 -0.912905 0
M  V30 241 O 26.7456 -1.72388 -0.894201 0
M  V30 242 C 23.8756 -3.25219 -1.21859 0
M  V30 243 C 22.8296 -4.23661 -0.607864 0
M  V30 244 C 22.1556 -5.05413 -1.74533 0
M  V30 245 C 23.4556 -5.20481 0.435582 0
M  V30 246 H 25.1496 -2.94749 0.525684 0
M  V30 247 H 22.6956 -1.41738 0.254251 0
M  V30 248 H 24.6486 -3.8365 -1.7433 0
M  V30 249 H 23.3726 -2.61279 -1.95961 0
M  V30 250 H 22.0316 -3.66451 -0.104489 0
M  V30 251 H 21.6796 -4.3788 -2.47529 0
M  V30 252 H 21.3796 -5.72059 -1.34249 0
M  V30 253 H 22.9036 -5.66701 -2.27338 0
M  V30 254 H 24.3176 -5.733 -0.00290157 0
M  V30 255 H 22.7146 -5.95305 0.757067 0
M  V30 256 H 23.7846 -4.66217 1.33303 0
M  V30 257 N 25.1277 -0.289203 -1.54924 0
M  V30 258 C 26.5387 0.205791 -1.85562 0
M  V30 259 C 26.8897 1.54351 -1.2112 0
M  V30 260 O 26.0147 2.10435 -0.504601 0
M  V30 261 C 26.6097 0.380177 -3.3666 0
M  V30 262 C 25.1687 0.819395 -3.67373 0
M  V30 263 C 24.3157 -0.079159 -2.77187 0
M  V30 264 H 27.2667 -0.510577 -1.50262 0
M  V30 265 H 27.2877 1.21659 -3.60526 0
M  V30 266 H 26.7997 -0.593589 -3.83534 0
M  V30 267 H 24.9007 1.80413 -3.26009 0
M  V30 268 H 25.0137 0.646957 -4.74712 0
M  V30 269 H 23.3777 0.439565 -2.50878 0
M  V30 270 H 24.1607 -1.04906 -3.26878 0
M  V30 271 N 26.6058 1.57591 -0.0167156 0
M  V30 272 C 27.5688 2.08393 0.954204 0
M  V30 273 C 28.5688 0.996531 1.26198 0
M  V30 274 O 29.7588 1.25858 1.20438 0
M  V30 275 C 26.8908 2.5394 2.27436 0
M  V30 276 H 28.0838 2.95455 0.514451 0
M  V30 277 H 25.6368 1.54582 0.231089 0
M  V30 278 H 26.3718 1.70171 2.76066 0
M  V30 279 H 26.1568 3.33371 2.06412 0
M  V30 280 H 27.6468 2.93512 2.97053 0
M  V30 281 N 28.0839 -0.256276 1.55502 0
M  V30 282 C 29.3299 -0.987079 1.77157 0
M  V30 283 C 29.6629 -1.85327 0.580315 0
M  V30 284 O 28.9379 -1.89874 -0.421686 0
M  V30 285 C 29.2209 -1.85553 3.08613 0
M  V30 286 C 29.0739 -1.01816 4.38125 0
M  V30 287 C 30.3929 -2.8397 3.36228 0
M  V30 288 H 27.5119 -0.357428 0.644526 0
M  V30 289 H 30.1539 -0.258239 1.88237 0
M  V30 290 H 28.3039 -2.47695 2.99298 0
M  V30 291 H 29.9759 -0.416159 4.59419 0
M  V30 292 H 28.2189 -0.322178 4.32602 0
M  V30 293 H 28.8899 -1.65939 5.26468 0
M  V30 294 H 31.3659 -2.31964 3.45445 0
M  V30 295 H 30.2419 -3.41864 4.29442 0
M  V30 296 H 30.5029 -3.59955 2.56681 0
M  V30 297 N 29.562 -1.4872 -0.521534 0
M  V30 298 C 30.81 -1.56857 -1.27437 0
M  V30 299 C 31.131 -0.247982 -1.93417 0
M  V30 300 O 30.401 0.731151 -1.81744 0
M  V30 301 H 28.981 -0.577885 -0.473347 0
M  V30 302 H 31.643 -1.85233 -0.606205 0
M  V30 303 H 30.739 -2.35402 -2.0492 0
M  V30 304 N 31.0401 0.771051 -1.3745 0
M  V30 305 C 32.2651 1.56529 -1.36065 0
M  V30 306 C 32.6901 1.88029 0.0515859 0
M  V30 307 O 32.0481 1.49282 1.02882 0
M  V30 308 C 32.0961 2.85187 -2.20683 0
M  V30 309 O 31.2001 3.79593 -1.61193 0
M  V30 310 H 30.5411 0.47411 -0.464883 0
M  V30 311 H 33.0711 0.954269 -1.80983 0
M  V30 312 H 33.0811 3.34283 -2.33921 0
M  V30 313 H 31.7561 2.61588 -3.23334 0
M  V30 314 H 30.3331 3.38239 -1.56999 0
M  V30 315 N 32.5182 1.22032 0.997298 0
M  V30 316 C 33.9292 1.0397 1.55071 0
M  V30 317 C 34.2802 -0.398192 1.92117 0
M  V30 318 O 33.4052 -1.28254 1.74298 0
M  V30 319 C 34.0002 1.88109 2.81781 0
M  V30 320 C 32.5592 1.74357 3.33581 0
M  V30 321 C 31.7062 1.84846 2.06706 0
M  V30 322 H 34.6572 1.35941 0.818883 0
M  V30 323 H 34.6782 1.39589 3.53971 0
M  V30 324 H 34.1902 2.92754 2.54787 0
M  V30 325 H 32.2912 0.72427 3.65493 0
M  V30 326 H 32.4042 2.56772 4.04481 0
M  V30 327 H 30.7682 1.28238 2.20062 0
M  V30 328 H 31.5512 2.91014 1.82114 0
M  V30 329 N 33.9963 -1.19345 1.0293 0
M  V30 330 C 34.9593 -2.20793 0.615069 0
M  V30 331 C 35.9593 -1.57553 -0.321533 0
M  V30 332 O 37.1493 -1.73862 -0.108483 0
M  V30 333 C 34.2813 -3.40754 -0.0999222 0
M  V30 334 H 35.4743 -2.58955 1.51269 0
M  V30 335 H 33.0273 -1.3303 0.820534 0
M  V30 336 H 33.7623 -3.0811 -1.01187 0
M  V30 337 H 33.5473 -3.87889 0.57309 0
M  V30 338 H 35.0373 -4.15898 -0.376645 0
M  V30 339 N 35.4744 -0.807222 -1.35358 0
M  V30 340 C 36.8854 -0.44876 -1.81226 0
M  V30 341 C 37.2364 1.02929 -1.67033 0
M  V30 342 O 36.3614 1.79991 -1.20133 0
M  V30 343 C 36.9564 -0.807774 -3.2903 0
M  V30 344 C 35.5154 -0.501901 -3.73039 0
M  V30 345 C 34.6624 -1.03304 -2.57339 0
M  V30 346 H 37.6134 -0.998808 -1.23327 0
M  V30 347 H 37.6344 -0.10554 -3.80354 0
M  V30 348 H 37.1464 -1.88357 -3.39328 0
M  V30 349 H 35.2474 0.565128 -3.68289 0
M  V30 350 H 35.3604 -1.03497 -4.67787 0
M  V30 351 H 33.7244 -0.455339 -2.50597 0
M  V30 352 H 34.5074 -2.11496 -2.70415 0
M  V30 353 N 36.9525 1.47285 -0.560781 0
M  V30 354 C 37.9155 2.28535 0.174488 0
M  V30 355 C 38.9155 1.37153 0.839388 0
M  V30 356 O 40.1055 1.59748 0.694702 0
M  V30 357 C 37.2375 3.16934 1.25561 0
M  V30 358 H 38.4305 2.95012 -0.539262 0
M  V30 359 H 35.9835 1.53034 -0.317865 0
M  V30 360 H 36.7185 2.55157 2.00164 0
M  V30 361 H 36.5035 3.8419 0.783604 0
M  V30 362 H 37.9935 3.78143 1.77193 0
M  V30 363 N 38.4306 0.297415 1.54768 0
M  V30 364 C 39.6776 -0.312913 2.00068 0
M  V30 365 C 40.0056 -1.54171 1.18582 0
M  V30 366 O 39.2606 -1.94108 0.249133 0
M  V30 367 C 39.5596 -0.717561 3.50123 0
M  V30 368 C 39.2256 0.409095 4.4904 0
M  V30 369 C 37.8876 0.718399 4.75807 0
M  V30 370 C 40.2396 1.16717 5.07963 0
M  V30 371 C 37.5676 1.78896 5.5876 0
M  V30 372 C 39.9196 2.22762 5.92081 0
M  V30 373 C 38.5836 2.54303 6.1716 0
M  V30 374 H 37.8536 -0.114503 0.7321 0
M  V30 375 H 40.5006 0.415767 1.86932 0
M  V30 376 H 38.8056 -1.52627 3.60849 0
M  V30 377 H 40.5026 -1.20091 3.82595 0
M  V30 378 H 37.0926 0.157918 4.28309 0
M  V30 379 H 41.2766 0.941466 4.87289 0
M  V30 380 H 36.5326 2.0381 5.7643 0
M  V30 381 H 40.7066 2.81962 6.36765 0
M  V30 382 H 38.3336 3.3739 6.81229 0
M  V30 383 N 39.9087 -1.5758 0.0250728 0
M  V30 384 C 41.1367 -1.9593 -0.664747 0
M  V30 385 C 41.5517 -0.901352 -1.65895 0
M  V30 386 O 40.9087 0.117255 -1.82123 0
M  V30 387 C 40.9597 -3.34342 -1.37468 0
M  V30 388 O 40.6807 -4.36079 -0.420324 0
M  V30 389 C 42.1817 -3.873 -2.1567 0
M  V30 390 H 39.4017 -0.645405 -0.183557 0
M  V30 391 H 41.9457 -2.04329 0.0836372 0
M  V30 392 H 40.1007 -3.27175 -2.0745 0
M  V30 393 H 40.5147 -5.16297 -0.923991 0
M  V30 394 H 41.9887 -4.86504 -2.60803 0
M  V30 395 H 42.4657 -3.21331 -2.99405 0
M  V30 396 H 43.0717 -3.97723 -1.50654 0
M  V30 397 N 41.3868 0.248026 -1.55636 0
M  V30 398 C 42.3168 1.31079 -1.93237 0
M  V30 399 C 43.2978 1.50264 -0.797174 0
M  V30 400 O 44.4828 1.62891 -1.05737 0
M  V30 401 C 41.6128 2.66575 -2.22609 0
M  V30 402 C 40.5668 2.62087 -3.3837 0
M  V30 403 C 39.8928 4.01369 -3.53281 0
M  V30 404 C 41.1928 2.19171 -4.7409 0
M  V30 405 H 42.8868 0.998556 -2.82257 0
M  V30 406 H 40.4328 0.47891 -1.35803 0
M  V30 407 H 42.3858 3.41057 -2.47503 0
M  V30 408 H 41.1098 2.99432 -1.30414 0
M  V30 409 H 39.7688 1.90063 -3.13483 0
M  V30 410 H 39.4168 4.31489 -2.58508 0
M  V30 411 H 39.1168 3.99254 -4.31127 0
M  V30 412 H 40.6408 4.77552 -3.80495 0
M  V30 413 H 42.0548 2.83384 -4.98363 0
M  V30 414 H 40.4518 2.2817 -5.5503 0
M  V30 415 H 41.5218 1.14336 -4.71227 0
M  V30 416 N 42.8649 1.48995 0.513639 0
M  V30 417 C 44.0929 1.61531 1.29288 0
M  V30 418 C 44.5079 0.281801 1.86685 0
M  V30 419 O 43.8649 -0.731111 1.67215 0
M  V30 420 C 43.9159 2.67449 2.43215 0
M  V30 421 O 43.6369 3.95626 1.88179 0
M  V30 422 C 45.1379 2.90575 3.34785 0
M  V30 423 H 42.3579 0.544165 0.392588 0
M  V30 424 H 44.9019 1.9494 0.617956 0
M  V30 425 H 43.0569 2.36853 3.0656 0
M  V30 426 H 43.4709 4.53868 2.62876 0
M  V30 427 H 44.9449 3.68449 4.11035 0
M  V30 428 H 45.4219 2.00011 3.91015 0
M  V30 429 H 46.0279 3.22538 2.77218 0
M  V30 430 N 44.343 -0.763751 1.37857 0
M  V30 431 C 45.591 -1.51957 1.33243 0
M  V30 432 C 45.912 -1.94835 -0.0801709 0
M  V30 433 O 45.182 -1.66894 -1.02582 0
M  V30 434 H 43.762 -0.563626 0.49024 0
M  V30 435 H 46.424 -0.908504 1.7243 0
M  V30 436 H 45.52 -2.41523 1.97669 0
M  V30 437 N 45.8211 -1.22559 -0.990812 0
M  V30 438 C 47.0691 -1.04933 -1.72724 0
M  V30 439 C 47.3901 0.416158 -1.90508 0
M  V30 440 O 46.6601 1.29918 -1.46622 0
M  V30 441 H 45.2401 -0.385296 -0.639965 0
M  V30 442 H 47.9021 -1.54105 -1.19322 0
M  V30 443 H 46.9981 -1.52886 -2.72089 0
M  V30 444 N 47.2992 1.18797 -1.03562 0
M  V30 445 C 48.5762 1.84469 -0.650434 0
M  V30 446 C 48.9562 1.92319 0.870433 0
M  V30 447 O 48.3042 1.44528 1.76986 0
M  V30 448 C 48.5142 3.2306 -1.32036 0
M  V30 449 C 49.8622 3.9915 -1.44792 0
M  V30 450 O 50.8862 3.32481 -1.27806 0
M  V30 451 O 49.7452 5.18587 -1.72423 0
M  V30 452 H 46.8392 0.795251 -0.226946 0
M  V30 453 H 49.3852 1.26231 -1.13419 0
M  V30 454 H 48.1572 3.1222 -2.3587 0
M  V30 455 H 47.7802 3.88949 -0.8249 0
M  V30 456 N 48.7773 0.814389 1.34928 0
M  V30 457 C 49.7073 0.244827 2.32213 0
M  V30 458 C 50.6883 -0.634024 1.57842 0
M  V30 459 O 51.8733 -0.562676 1.8587 0
M  V30 460 C 49.0033 -0.601106 3.42058 0
M  V30 461 C 47.9573 0.179896 4.27622 0
M  V30 462 C 47.2833 -0.788237 5.28858 0
M  V30 463 C 48.5833 1.38329 5.03649 0
M  V30 464 H 50.2773 1.05763 2.80097 0
M  V30 465 H 47.8233 0.510029 1.34665 0
M  V30 466 H 49.7763 -1.00968 4.09125 0
M  V30 467 H 48.5003 -1.44688 2.92802 0
M  V30 468 H 47.1593 0.569739 3.62146 0
M  V30 469 H 46.8073 -1.62973 4.75866 0
M  V30 470 H 46.5073 -0.269942 5.8698 0
M  V30 471 H 48.0313 -1.19485 5.98795 0
M  V30 472 H 49.4453 1.04918 5.63618 0
M  V30 473 H 47.8423 1.83662 5.71304 0
M  V30 474 H 48.9123 2.16592 4.33839 0
M  V30 475 N 50.2554 -1.46986 0.568584 0
M  V30 476 C 51.5034 -2.02041 0.0487022 0
M  V30 477 C 51.8244 -1.44408 -1.31039 0
M  V30 478 O 51.0944 -0.623477 -1.85714 0
M  V30 479 H 49.6744 -0.746849 0.015014 0
M  V30 480 H 52.3364 -1.80257 0.741168 0
M  V30 481 H 51.4324 -3.12085 -0.0308961 0
M  V30 482 N 51.7335 -0.305618 -1.54608 0
M  V30 483 C 52.9795 0.302746 -2.00528 0
M  V30 484 C 53.3125 1.53184 -1.19367 0
M  V30 485 O 52.5875 1.92598 -0.271321 0
M  V30 486 C 52.8705 0.654756 -3.54097 0
M  V30 487 C 52.7235 -0.583793 -4.45995 0
M  V30 488 C 54.0425 1.47947 -4.14487 0
M  V30 489 H 51.1615 0.108564 -0.72896 0
M  V30 490 H 53.8035 -0.418634 -1.85331 0
M  V30 491 H 51.9535 1.26935 -3.67178 0
M  V30 492 H 53.6255 -1.22224 -4.44814 0
M  V30 493 H 51.8685 -1.21615 -4.16404 0
M  V30 494 H 52.5395 -0.293287 -5.5122 0
M  V30 495 H 55.0155 0.96013 -4.04871 0
M  V30 496 H 53.8915 1.69454 -5.22088 0
M  V30 497 H 54.1525 2.47011 -3.66658 0
M  V30 498 N 53.2116 1.57565 -0.0334293 0
M  V30 499 C 54.4606 1.91155 0.643639 0
M  V30 500 C 54.7736 0.91192 1.73042 0
M  V30 501 O 55.9796 1.13923 2.46442 0
M  V30 502 C 54.4356 3.39443 1.1961 0
M  V30 503 C 54.0436 4.47774 0.142381 0
M  V30 504 C 55.7876 3.82094 1.84944 0
M  V30 505 C 53.6946 5.87162 0.706727 0
M  V30 506 H 52.6246 0.713368 0.244176 0
M  V30 507 H 55.2756 1.8323 -0.0994323 0
M  V30 508 H 53.6576 3.42313 1.99092 0
M  V30 509 H 54.8316 4.56469 -0.630296 0
M  V30 510 H 53.1466 4.14352 -0.412446 0
M  V30 511 H 55.7436 4.83591 2.2813 0
M  V30 512 H 56.0866 3.17386 2.69392 0
M  V30 513 H 56.6196 3.81665 1.12145 0
M  V30 514 H 53.3586 6.55424 -0.0997178 0
M  V30 515 H 52.8786 5.82064 1.44779 0
M  V30 516 H 54.5576 6.35866 1.19514 0
M  V30 517 N 54.6897 -0.239769 1.55765 0
M  V30 518 C 55.9147 -0.988373 1.82335 0
M  V30 519 C 56.3397 -1.77886 0.611421 0
M  V30 520 O 55.6977 -1.75889 -0.439639 0
M  V30 521 C 55.7457 -1.89627 3.06715 0
M  V30 522 O 54.8497 -2.98904 2.84131 0
M  V30 523 H 54.1907 -0.280858 0.601677 0
M  V30 524 H 56.7207 -0.258597 2.02959 0
M  V30 525 H 56.7307 -2.30957 3.36338 0
M  V30 526 H 55.4057 -1.31511 3.9456 0
M  V30 527 H 53.9827 -2.61651 2.65694 0
M  V30 528 N 56.1678 -1.49265 -0.50573 0
M  V30 529 C 57.3928 -1.62478 -1.28902 0
M  V30 530 C 57.8178 -0.294332 -1.85783 0
M  V30 531 O 57.1758 0.737412 -1.65626 0
M  V30 532 C 57.2238 -2.69268 -2.39848 0
M  V30 533 O 56.3278 -2.28113 -3.43567 0
M  V30 534 H 55.6688 -0.54399 -0.380751 0
M  V30 535 H 58.1988 -1.95421 -0.605952 0
M  V30 536 H 58.2088 -2.91291 -2.85681 0
M  V30 537 H 56.8838 -3.65846 -1.97812 0
M  V30 538 H 55.4608 -2.16401 -3.03685 0
M  V30 539 N 57.6459 0.756429 -1.3826 0
M  V30 540 C 58.9229 1.50584 -1.24835 0
M  V30 541 C 59.3029 2.10556 0.151485 0
M  V30 542 O 58.6509 1.96825 1.1607 0
M  V30 543 C 58.8609 2.57448 -2.3563 0
M  V30 544 C 60.2089 3.24429 -2.73917 0
M  V30 545 O 61.2329 2.67751 -2.34921 0
M  V30 546 O 60.0919 4.26937 -3.41156 0
M  V30 547 H 57.1859 0.667664 -0.48801 0
M  V30 548 H 59.7319 0.792083 -1.5008 0
M  V30 549 H 58.5039 2.11362 -3.29305 0
M  V30 550 H 58.1269 3.36408 -2.11933 0
M  V30 551 N 59.124 1.23083 0.984299 0
M  V30 552 C 60.056 0.96636 2.07832 0
M  V30 553 C 61.069 -0.0582135 1.62696 0
M  V30 554 O 62.258 0.176843 1.77622 0
M  V30 555 C 59.358 0.433397 3.36117 0
M  V30 556 C 58.531 1.51722 4.10243 0
M  V30 557 C 57.59 0.989821 5.16807 0
M  V30 558 O 56.616 1.67794 5.43906 0
M  V30 559 N 57.818 -0.184367 5.80207 0
M  V30 560 H 60.583 1.90824 2.31098 0
M  V30 561 H 58.144 1.13888 1.1507 0
M  V30 562 H 60.136 0.065699 4.04647 0
M  V30 563 H 58.706 -0.413806 3.09849 0
M  V30 564 H 57.926 2.05786 3.36223 0
M  V30 565 H 59.214 2.24619 4.56534 0
M  V30 566 H 58.612 -0.760062 5.60571 0
M  V30 567 H 57.169 -0.493366 6.4993 0
M  V30 568 N 60.6021 -1.18246 1.0419 0
M  V30 569 C 61.8491 -1.88257 0.746017 0
M  V30 570 C 62.1771 -1.80429 -0.726331 0
M  V30 571 O 61.4321 -1.2 -1.54591 0
M  V30 572 C 61.7311 -3.38082 1.15911 0
M  V30 573 C 61.3971 -3.66114 2.63195 0
M  V30 574 C 60.0591 -3.73474 3.03432 0
M  V30 575 C 62.4111 -3.78398 3.5842 0
M  V30 576 C 59.7391 -3.90599 4.37778 0
M  V30 577 C 62.0911 -3.97039 4.92487 0
M  V30 578 C 60.7551 -4.02635 5.32392 0
M  V30 579 H 60.0251 -0.688883 0.272987 0
M  V30 580 H 62.6721 -1.3995 1.30715 0
M  V30 581 H 60.9771 -3.88377 0.516806 0
M  V30 582 H 62.6741 -3.90596 0.907516 0
M  V30 583 H 59.2641 -3.61003 2.3103 0
M  V30 584 H 63.4481 -3.72042 3.28479 0
M  V30 585 H 58.7041 -3.93175 4.68213 0
M  V30 586 H 62.8781 -4.05486 5.66175 0
M  V30 587 H 60.5051 -4.15657 6.36501 0
M  V30 588 N 62.0802 -0.821533 -1.34494 0
M  V30 589 C 63.4962 -0.507117 -1.51329 0
M  V30 590 C 63.6962 0.968964 -1.76673 0
M  V30 591 O 62.7522 1.75348 -1.81685 0
M  V30 592 C 64.0652 -1.36544 -2.67911 0
M  V30 593 C 65.6132 -1.36242 -2.81793 0
M  V30 594 C 66.0882 -2.2052 -4.01416 0
M  V30 595 N 67.5792 -2.18136 -4.08621 0
M  V30 596 C 68.3142 -2.80095 -5.00334 0
M  V30 597 N 67.8102 -3.51039 -5.9728 0
M  V30 598 N 69.6032 -2.69656 -4.93196 0
M  V30 599 H 61.7542 -1.77729 -1.16302 0
M  V30 600 H 64.0172 -0.757291 -0.570276 0
M  V30 601 H 63.7232 -2.41361 -2.55808 0
M  V30 602 H 63.5972 -1.02917 -3.62888 0
M  V30 603 H 65.9842 -0.322041 -2.93338 0
M  V30 604 H 66.0652 -1.73866 -1.87628 0
M  V30 605 H 65.7092 -3.24607 -3.90631 0
M  V30 606 H 65.6392 -1.80247 -4.94791 0
M  V30 607 H 68.1302 -1.6653 -3.39229 0
M  V30 608 H 68.4432 -3.95565 -6.63889 0
M  V30 609 H 66.7882 -3.55145 -5.97409 0
M  V30 610 H 69.9792 -2.13808 -4.16418 0
M  V30 611 H 70.1522 -3.1823 -5.64476 0
M  V30 612 N 63.5583 1.46682 -0.576371 0
M  V30 613 C 64.8063 2.02013 -0.0594163 0
M  V30 614 C 65.1273 1.45101 1.30271 0
M  V30 615 O 64.3973 0.633317 1.8538 0
M  V30 616 H 62.9773 0.746759 -0.0189745 0
M  V30 617 H 65.6393 1.79862 -0.750717 0
M  V30 618 H 64.7353 3.12097 0.014345 0
M  V30 619 N 65.0364 0.313813 1.54444 0
M  V30 620 C 65.9834 -0.55655 2.23989 0
M  V30 621 C 66.9534 -1.11943 1.22711 0
M  V30 622 O 68.1384 -1.16158 1.51367 0
M  V30 623 C 65.2784 -1.71635 2.99392 0
M  V30 624 C 64.3914 -1.18364 4.15468 0
M  V30 625 C 63.5264 -2.30834 4.78424 0
M  V30 626 C 62.5654 -1.74762 5.86622 0
M  V30 627 N 61.7024 -2.80855 6.43479 0
M  V30 628 H 66.5424 0.0430893 2.97969 0
M  V30 629 H 64.0794 0.0330359 1.47063 0
M  V30 630 H 66.0374 -2.39868 3.41349 0
M  V30 631 H 64.6674 -2.28742 2.27765 0
M  V30 632 H 63.7194 -0.393163 3.78363 0
M  V30 633 H 65.0314 -0.733262 4.93381 0
M  V30 634 H 64.1854 -3.0699 5.23299 0
M  V30 635 H 62.9244 -2.79204 3.99871 0
M  V30 636 H 61.9294 -0.970995 5.41158 0
M  V30 637 H 63.1544 -1.2728 6.67066 0
M  V30 638 H 61.1004 -3.28535 5.67804 0
M  V30 639 H 61.0174 -2.40351 7.16776 0
M  V30 640 H 62.2854 -3.5687 6.93011 0
M  V30 641 N 66.5145 -1.57545 0.0417849 0
M  V30 642 C 67.7395 -1.97035 -0.647455 0
M  V30 643 C 68.1645 -0.918775 -1.64135 0
M  V30 644 O 67.5225 0.119006 -1.80909 0
M  V30 645 C 67.5705 -3.35609 -1.31905 0
M  V30 646 O 66.6745 -3.3287 -2.43457 0
M  V30 647 H 66.0155 -0.64211 -0.169086 0
M  V30 648 H 68.5455 -2.04318 0.107399 0
M  V30 649 H 68.5555 -3.72126 -1.67291 0
M  V30 650 H 67.2305 -4.11685 -0.590586 0
M  V30 651 H 65.8075 -3.08087 -2.10088 0
M  V30 652 N 67.9926 0.231505 -1.5589 0
M  V30 653 C 69.2386 0.95877 -1.78705 0
M  V30 654 C 69.5716 1.8438 -0.609725 0
M  V30 655 O 68.8466 1.90521 0.391426 0
M  V30 656 C 69.1296 1.8062 -3.11526 0
M  V30 657 C 68.9826 0.948328 -4.39689 0
M  V30 658 C 70.3016 2.78585 -3.40703 0
M  V30 659 H 67.4206 0.347129 -0.650131 0
M  V30 660 H 70.0626 0.228259 -1.88624 0
M  V30 661 H 68.2126 2.42902 -3.03201 0
M  V30 662 H 69.8846 0.343016 -4.60023 0
M  V30 663 H 68.1276 0.253314 -4.3306 0
M  V30 664 H 68.7986 1.57543 -5.29041 0
M  V30 665 H 71.2746 2.26439 -3.49091 0
M  V30 666 H 70.1506 3.34988 -4.34826 0
M  V30 667 H 70.4116 3.55825 -2.62375 0
M  V30 668 N 69.4707 1.49531 0.497807 0
M  V30 669 C 70.4007 1.6935 1.60757 0
M  V30 670 C 71.3817 0.542218 1.61227 0
M  V30 671 O 72.5667 0.778417 1.77917 0
M  V30 672 C 69.6967 1.76298 2.99226 0
M  V30 673 C 68.6507 2.91248 3.13622 0
M  V30 674 C 67.9767 2.83312 4.53474 0
M  V30 675 C 69.2767 4.3214 2.93346 0
M  V30 676 H 70.9707 2.62263 1.44425 0
M  V30 677 H 68.5167 1.26208 0.693367 0
M  V30 678 H 70.4697 1.88749 3.76765 0
M  V30 679 H 69.1937 0.799871 3.16654 0
M  V30 680 H 67.8527 2.78404 2.38509 0
M  V30 681 H 67.5007 1.84902 4.67782 0
M  V30 682 H 67.2007 3.60465 4.64046 0
M  V30 683 H 68.7247 2.97775 5.33069 0
M  V30 684 H 70.1387 4.45649 3.60652 0
M  V30 685 H 68.5357 5.1054 3.15387 0
M  V30 686 H 69.6057 4.46363 1.89441 0
M  V30 687 N 70.9488 -0.749086 1.3866 0
M  V30 688 C 71.8788 -1.8764 1.38973 0
M  V30 689 C 72.8598 -1.68178 0.255004 0
M  V30 690 O 74.0448 -1.88704 0.458754 0
M  V30 691 C 71.1748 -3.25222 1.21851 0
M  V30 692 C 70.1288 -3.59295 2.32575 0
M  V30 693 C 69.4548 -4.95663 2.00555 0
M  V30 694 C 70.7548 -3.63709 3.7485 0
M  V30 695 H 72.4488 -1.87635 2.3331 0
M  V30 696 H 69.9948 -0.901329 1.12303 0
M  V30 697 H 71.9478 -4.03746 1.20695 0
M  V30 698 H 70.6718 -3.25719 0.239775 0
M  V30 699 H 69.3308 -2.83093 2.32925 0
M  V30 700 H 68.9788 -4.92724 1.01154 0
M  V30 701 H 68.6788 -5.19429 2.74714 0
M  V30 702 H 70.2028 -5.7656 2.01024 0
M  V30 703 H 71.6168 -4.32338 3.76506 0
M  V30 704 H 70.0138 -3.98986 4.48252 0
M  V30 705 H 71.0838 -2.63834 4.06841 0
M  V30 706 N 72.4269 -1.23603 -0.977757 0
M  V30 707 C 73.3749 -1.01704 -2.09187 0
M  V30 708 C 74.3689 0.0448214 -1.69341 0
M  V30 709 O 75.5749 -0.108902 -1.7967 0
M  V30 710 H 71.9499 -0.311803 -0.684312 0
M  V30 711 H 73.9209 -1.96207 -2.24823 0
M  V30 712 C 72.6699 -0.627746 -3.41986 0
M  V30 713 H 71.9929 -1.43656 -3.73099 0
M  V30 714 H 73.4329 -0.514053 -4.20872 0
M  V30 715 C 71.8919 0.664238 -3.30287 0
M  V30 716 O 72.4219 1.71268 -3.6336 0
M  V30 717 N 70.6279 0.641156 -2.83439 0
M  V30 718 H 70.1749 -0.212376 -2.56723 0
M  V30 719 H 70.1329 1.50583 -2.75993 0
M  V30 720 N 73.905 1.17692 -1.04816 0
M  V30 721 C 75.154 1.87192 -0.751132 0
M  V30 722 C 75.467 1.8169 0.724441 0
M  V30 723 O 76.673 2.46625 1.13527 0
M  V30 724 C 75.129 3.35857 -1.29338 0
M  V30 725 C 74.737 3.4987 -2.79812 0
M  V30 726 C 76.481 4.10709 -1.07322 0
M  V30 727 C 74.388 4.92536 -3.27356 0
M  V30 728 H 73.318 0.701162 -0.277288 0
M  V30 729 H 75.969 1.32932 -1.26496 0
M  V30 730 H 74.351 3.89631 -0.707376 0
M  V30 731 H 75.525 3.06332 -3.44235 0
M  V30 732 H 73.84 2.88433 -3.00325 0
M  V30 733 H 76.437 5.15952 -1.4035 0
M  V30 734 H 76.78 4.16299 -0.0108001 0
M  V30 735 H 77.313 3.6313 -1.62423 0
M  V30 736 H 74.052 4.92119 -4.33012 0
M  V30 737 H 73.572 5.3676 -2.67673 0
M  V30 738 H 75.251 5.61288 -3.21815 0
M  V30 739 N 75.3831 0.828654 1.34056 0
M  V30 740 C 76.6301 0.419458 1.98108 0
M  V30 741 C 76.9581 -1.01886 1.65679 0
M  V30 742 O 76.2131 -1.72539 0.923512 0
M  V30 743 C 76.5121 0.575226 3.52741 0
M  V30 744 C 76.1781 1.98012 4.05095 0
M  V30 745 C 74.8401 2.36442 4.19104 0
M  V30 746 C 77.1921 2.89824 4.33188 0
M  V30 747 C 74.5201 3.66009 4.58535 0
M  V30 748 C 76.8721 4.1886 4.74066 0
M  V30 749 C 75.5361 4.5726 4.86281 0
M  V30 750 H 74.8061 0.153491 0.724929 0
M  V30 751 H 77.4531 1.05371 1.59904 0
M  V30 752 H 75.7581 -0.142385 3.91541 0
M  V30 753 H 77.4551 0.239057 4.00287 0
M  V30 754 H 74.0451 1.67162 3.94658 0
M  V30 755 H 78.2291 2.61375 4.21897 0
M  V30 756 H 73.4851 3.95579 4.66184 0
M  V30 757 H 77.6591 4.90086 4.94761 0
M  V30 758 H 75.2861 5.57707 5.16592 0
M  V30 759 N 76.8612 -1.46375 0.584142 0
M  V30 760 C 78.2722 -1.86031 0.157959 0
M  V30 761 C 78.6232 -1.48753 -1.27933 0
M  V30 762 O 77.7482 -0.903098 -1.96655 0
M  V30 763 C 78.3432 -3.37642 0.279892 0
M  V30 764 C 76.9022 -3.76289 -0.09143 0
M  V30 765 C 76.0492 -2.7039 0.615178 0
M  V30 766 H 79.0002 -1.37509 0.792274 0
M  V30 767 H 79.0212 -3.77275 -0.494364 0
M  V30 768 H 78.5332 -3.64742 1.32607 0
M  V30 769 H 76.6342 -3.54806 -1.13769 0
M  V30 770 H 76.7472 -4.78246 0.285886 0
M  V30 771 H 75.1112 -2.5464 0.0552833 0
M  V30 772 H 75.8942 -3.0033 1.66303 0
M  V30 773 N 78.3393 -0.321999 -1.54275 0
M  V30 774 C 79.5643 0.285791 -2.05422 0
M  V30 775 C 79.9893 1.45124 -1.19669 0
M  V30 776 O 79.3473 1.80132 -0.205441 0
M  V30 777 C 79.3953 0.69956 -3.53749 0
M  V30 778 O 78.4993 1.8021 -3.70942 0
M  V30 779 H 77.8403 0.0518962 -0.661969 0
M  V30 780 H 80.3703 -0.469954 -1.9913 0
M  V30 781 H 80.3803 0.982649 -3.9599 0
M  V30 782 H 79.0553 -0.152864 -4.15619 0
M  V30 783 H 77.6323 1.51794 -3.40607 0
M  V30 784 N 79.8174 1.5752 -0.0501392 0
M  V30 785 C 81.0634 1.92936 0.624798 0
M  V30 786 C 81.3964 0.928685 1.70555 0
M  V30 787 O 80.6714 -0.0454779 1.94447 0
M  V30 788 C 80.9544 3.38737 1.22185 0
M  V30 789 C 80.8074 4.49552 0.149218 0
M  V30 790 C 82.1264 3.84913 2.13378 0
M  V30 791 H 79.2454 0.701604 0.225657 0
M  V30 792 H 81.8874 1.89671 -0.111693 0
M  V30 793 H 80.0374 3.4165 1.84953 0
M  V30 794 H 81.7094 4.58768 -0.482648 0
M  V30 795 H 79.9524 4.30638 -0.522841 0
M  V30 796 H 80.6234 5.48653 0.606966 0
M  V30 797 H 83.0994 3.8387 1.60572 0
M  V30 798 H 81.9754 4.87584 2.52097 0
M  V30 799 H 82.2364 3.21611 3.03346 0
M  V30 800 N 81.2955 -0.223234 1.56011 0
M  V30 801 C 82.5725 -0.972108 1.69733 0
M  V30 802 C 82.9525 -2.02485 0.59691 0
M  V30 803 O 82.3005 -2.25037 -0.396324 0
M  V30 804 C 82.5105 -1.58407 3.10979 0
M  V30 805 C 83.8585 -2.07696 3.70334 0
M  V30 806 O 84.8825 -1.68304 3.1393 0
M  V30 807 O 83.7415 -2.80096 4.69264 0
M  V30 808 H 80.8355 -0.453993 0.691245 0
M  V30 809 H 83.3815 -0.215149 1.68331 0
M  V30 810 H 82.1535 -0.823831 3.82529 0
M  V30 811 H 81.7765 -2.40661 3.16493 0
M  V30 812 N 82.7736 -1.49793 -0.48987 0
M  V30 813 C 84.0016 -1.63568 -1.26701 0
M  V30 814 C 84.4166 -0.311465 -1.86213 0
M  V30 815 O 83.7736 0.704416 -1.68357 0
M  V30 816 C 83.8246 -2.71284 -2.38929 0
M  V30 817 O 83.5456 -3.9857 -1.81861 0
M  V30 818 C 85.0466 -2.95864 -3.3012 0
M  V30 819 H 82.2666 -0.550342 -0.383881 0
M  V30 820 H 84.8106 -1.95898 -0.586864 0
M  V30 821 H 82.9656 -2.417 -3.02753 0
M  V30 822 H 83.3796 -4.57993 -2.55622 0
M  V30 823 H 84.8536 -3.74941 -4.05121 0
M  V30 824 H 85.3306 -2.06206 -3.87783 0
M  V30 825 H 85.9366 -3.26907 -2.72051 0
M  V30 826 N 84.2517 0.741722 -1.39055 0
M  V30 827 C 85.6627 1.31966 -1.32068 0
M  V30 828 C 86.0137 1.96192 0.0180797 0
M  V30 829 O 85.1387 1.95861 0.920196 0
M  V30 830 C 85.7337 2.39954 -2.39181 0
M  V30 831 C 84.2927 2.93438 -2.35735 0
M  V30 832 C 83.4397 1.66936 -2.21422 0
M  V30 833 H 86.3907 0.539721 -1.4924 0
M  V30 834 H 86.4117 3.20182 -2.05581 0
M  V30 835 H 85.9237 1.9318 -3.36605 0
M  V30 836 H 84.0247 3.4451 -1.41929 0
M  V30 837 H 84.1377 3.4701 -3.30335 0
M  V30 838 H 82.5017 1.91016 -1.68478 0
M  V30 839 H 83.2847 1.22224 -3.20806 0
M  V30 840 N 85.7298 1.2412 0.971189 0
M  V30 841 C 86.9758 1.08041 1.71625 0
M  V30 842 C 87.3088 -0.380407 1.90438 0
M  V30 843 O 86.5838 -1.28127 1.46334 0
M  V30 844 C 86.8668 1.81682 3.10908 0
M  V30 845 C 86.7198 3.35493 2.99608 0
M  V30 846 C 88.0388 1.58671 4.10501 0
M  V30 847 H 85.1578 0.39388 0.622919 0
M  V30 848 H 87.7998 1.52743 1.13003 0
M  V30 849 H 85.9498 1.43684 3.60953 0
M  V30 850 H 87.6218 3.83068 2.57015 0
M  V30 851 H 85.8648 3.64052 2.35899 0
M  V30 852 H 86.5358 3.82217 3.98264 0
M  V30 853 H 89.0118 1.91719 3.69301 0
M  V30 854 H 87.8878 2.1266 5.06031 0
M  V30 855 H 88.1488 0.524161 4.38982 0
M  V30 856 N 87.2079 -1.17134 1.05439 0
M  V30 857 C 88.4479 -1.89137 0.77502 0
M  V30 858 C 88.8119 -1.79345 -0.685526 0
M  V30 859 O 90.0129 -2.46188 -1.0791 0
M  V30 860 C 88.2839 -3.35003 1.2453 0
M  V30 861 S 89.8429 -4.24952 1.09367 0
M  V30 862 H 86.6609 -0.652949 0.281387 0
M  V30 863 H 89.2629 -1.4145 1.34953 0
M  V30 864 H 87.9669 -3.39666 2.30338 0
M  V30 865 H 87.4979 -3.87736 0.665166 0
M  V30 866 H 89.5129 -4.96196 0.0193397 0
M  V30 867 N 88.686 -0.835752 -1.33615 0
M  V30 868 C 89.649 -0.272 -2.2758 0
M  V30 869 C 90.649 0.557487 -1.50827 0
M  V30 870 O 91.839 0.37173 -1.70188 0
M  V30 871 C 88.971 0.617173 -3.35267 0
M  V30 872 H 90.164 -1.10111 -2.78954 0
M  V30 873 H 87.717 -0.608594 -1.43965 0
M  V30 874 H 88.452 1.46884 -2.89129 0
M  V30 875 H 88.237 0.0237066 -3.92093 0
M  V30 876 H 89.727 1.005 -4.05326 0
M  V30 877 N 90.1641 1.46063 -0.591896 0
M  V30 878 C 91.3921 2.06717 -0.0868936 0
M  V30 879 C 91.8071 1.43916 1.22203 0
M  V30 880 O 91.1641 0.547698 1.74088 0
M  V30 881 C 91.2151 3.6142 0.0758725 0
M  V30 882 O 90.9361 4.21874 -1.18126 0
M  V30 883 C 92.4371 4.39025 0.61416 0
M  V30 884 H 89.6571 0.668162 -0.0616518 0
M  V30 885 H 92.2011 1.8755 -0.815175 0
M  V30 886 H 90.3561 3.79983 0.754413 0
M  V30 887 H 90.7701 5.14861 -1.00092 0
M  V30 888 H 92.2441 5.4783 0.677193 0
M  V30 889 H 92.7211 4.07708 1.63312 0
M  V30 890 H 93.3271 4.2529 -0.0298142 0
M  V30 891 N 91.6422 0.330177 1.54103 0
M  V30 892 C 92.8672 -0.274893 2.0557 0
M  V30 893 C 93.2922 -1.44487 1.20437 0
M  V30 894 O 92.6502 -1.80021 0.214991 0
M  V30 895 C 92.6982 -0.68079 3.54115 0
M  V30 896 O 91.8022 -1.7824 3.71893 0
M  V30 897 H 91.1432 -0.0483849 0.662235 0
M  V30 898 H 93.6732 0.480508 1.98878 0
M  V30 899 H 93.6832 -0.961635 3.96505 0
M  V30 900 H 92.3582 0.174903 4.15532 0
M  V30 901 H 90.9352 -1.49985 3.41407 0
M  V30 902 N 93.1203 -1.57491 0.0584922 0
M  V30 903 C 94.3663 -1.93264 -0.614558 0
M  V30 904 C 94.6993 -0.937717 -1.7006 0
M  V30 905 O 93.9743 0.0351652 -1.94468 0
M  V30 906 C 94.2573 -3.3938 -1.20386 0
M  V30 907 C 94.1103 -4.49625 -0.125375 0
M  V30 908 C 95.4293 -3.86039 -2.11334 0
M  V30 909 H 92.5483 -0.702791 -0.221933 0
M  V30 910 H 95.1903 -1.8961 0.12175 0
M  V30 911 H 93.3403 -3.42626 -1.83139 0
M  V30 912 H 95.0123 -4.58506 0.506971 0
M  V30 913 H 93.2553 -4.30354 0.545672 0
M  V30 914 H 93.9263 -5.48967 -0.577861 0
M  V30 915 H 96.4023 -3.84716 -1.58534 0
M  V30 916 H 95.2783 -4.88914 -2.49507 0
M  V30 917 H 95.5393 -3.23215 -3.01636 0
M  V30 918 N 94.5984 0.214957 -1.56127 0
M  V30 919 C 96.0144 0.564948 -1.49267 0
M  V30 920 C 96.2144 1.86827 -0.754838 0
M  V30 921 O 95.2704 2.50745 -0.297198 0
M  V30 922 C 96.5834 0.638071 -2.93852 0
M  V30 923 C 98.1314 0.728253 -3.0441 0
M  V30 924 C 98.6064 0.832663 -4.50367 0
M  V30 925 N 100.097 0.896712 -4.54437 0
M  V30 926 C 100.832 0.997324 -5.6466 0
M  V30 927 N 100.328 1.06147 -6.8462 0
M  V30 928 N 102.121 1.03297 -5.52527 0
M  V30 929 H 94.2724 -0.640211 -2.02522 0
M  V30 930 H 96.5354 -0.225507 -0.920788 0
M  V30 931 H 96.2414 -0.250126 -3.50809 0
M  V30 932 H 96.1154 1.49947 -3.46115 0
M  V30 933 H 98.5024 1.60689 -2.47514 0
M  V30 934 H 98.5834 -0.158952 -2.55306 0
M  V30 935 H 98.2274 -0.0415417 -5.07883 0
M  V30 936 H 98.1574 1.73538 -4.97184 0
M  V30 937 H 100.648 0.857188 -3.6805 0
M  V30 938 H 100.961 1.1382 -7.64372 0
M  V30 939 H 99.3064 1.03049 -6.87318 0
M  V30 940 H 102.497 0.979558 -4.57736 0
M  V30 941 H 102.67 1.10793 -6.38458 0
M  V30 942 N 96.0765 1.50051 0.48192 0
M  V30 943 C 97.3045 1.64237 1.25832 0
M  V30 944 C 97.7195 0.321336 1.86045 0
M  V30 945 O 97.0765 -0.695478 1.68729 0
M  V30 946 C 97.1275 2.72548 2.37487 0
M  V30 947 O 96.8485 3.99529 1.79745 0
M  V30 948 C 98.3495 2.9761 3.28547 0
M  V30 949 H 95.5695 0.55237 0.380957 0
M  V30 950 H 98.1135 1.96207 0.576467 0
M  V30 951 H 96.2685 2.43303 3.01467 0
M  V30 952 H 96.6825 4.59342 2.5319 0
M  V30 953 H 98.1565 3.77084 4.03127 0
M  V30 954 H 98.6335 2.0826 3.86684 0
M  V30 955 H 99.2395 3.28345 2.70314 0
M  V30 956 N 97.5546 -0.734337 1.39446 0
M  V30 957 C 98.8016 -1.49391 1.36706 0
M  V30 958 C 99.1296 -1.94465 -0.0367813 0
M  V30 959 O 98.3846 -1.67154 -1.01774 0
M  V30 960 C 98.6836 -2.74711 2.28623 0
M  V30 961 C 98.3496 -2.48501 3.76242 0
M  V30 962 C 97.0116 -2.41062 4.16464 0
M  V30 963 C 99.3636 -2.26098 4.69606 0
M  V30 964 C 96.6916 -2.09262 5.48112 0
M  V30 965 C 99.0436 -1.95814 6.01531 0
M  V30 966 C 97.7076 -1.86845 6.40816 0
M  V30 967 H 96.9776 -0.546661 0.500243 0
M  V30 968 H 99.6246 -0.842788 1.71957 0
M  V30 969 H 97.9296 -3.44569 1.86492 0
M  V30 970 H 99.6266 -3.32741 2.23796 0
M  V30 971 H 96.2166 -2.55169 3.44364 0
M  V30 972 H 100.401 -2.30812 4.39363 0
M  V30 973 H 95.6566 -2.00841 5.77471 0
M  V30 974 H 99.8306 -1.77488 6.73403 0
M  V30 975 H 97.4576 -1.6197 7.42745 0
M  V30 976 N 99.0327 -1.24633 -0.964593 0
M  V30 977 C 100.31 -0.995809 -1.68354 0
M  V30 978 C 100.69 0.480964 -2.05548 0
M  V30 979 O 100.038 1.45599 -1.76105 0
M  V30 980 C 100.248 -1.92177 -2.91323 0
M  V30 981 C 101.596 -2.19446 -3.63495 0
M  V30 982 O 102.62 -1.89855 -3.01386 0
M  V30 983 O 101.479 -2.69714 -4.75307 0
M  V30 984 H 98.5727 -0.376854 -0.736146 0
M  V30 985 H 101.119 -1.35745 -1.0184 0
M  V30 986 H 99.8907 -2.91938 -2.60553 0
M  V30 987 H 99.5137 -1.56349 -3.65569 0
M  V30 988 N 100.511 1.16574 -1.06058 0
M  V30 989 C 101.421 2.2452 -0.680282 0
M  V30 990 C 102.437 1.71348 0.302604 0
M  V30 991 O 103.613 2.00822 0.152513 0
M  V30 992 C 100.678 3.46629 -0.0700315 0
M  V30 993 C 99.7388 4.14849 -1.10448 0
M  V30 994 C 98.9718 5.31129 -0.523256 0
M  V30 995 O 99.1948 5.66514 0.664709 0
M  V30 996 O 98.1288 5.88526 -1.26179 0
M  V30 997 H 101.955 2.59355 -1.58015 0
M  V30 998 H 99.5398 1.24043 -0.832694 0
M  V30 999 H 101.422 4.20543 0.268667 0
M  V30 1000 H 100.097 3.13573 0.803353 0
M  V30 1001 H 99.0038 3.42916 -1.49532 0
M  V30 1002 H 100.337 4.51954 -1.94931 0
M  V30 1003 N 101.989 0.842826 1.3317 0
M  V30 1004 C 103.405 0.531128 1.50503 0
M  V30 1005 C 103.605 -0.940734 1.78192 0
M  V30 1006 O 102.661 -1.72436 1.84451 0
M  V30 1007 C 103.974 1.40789 2.65705 0
M  V30 1008 C 105.522 1.40708 2.79589 0
M  V30 1009 C 105.997 2.26878 3.97857 0
M  V30 1010 N 107.488 2.24609 4.05099 0
M  V30 1011 C 108.223 2.88019 4.95815 0
M  V30 1012 N 107.719 3.60496 5.9162 0
M  V30 1013 N 109.512 2.77469 4.88843 0
M  V30 1014 H 101.663 1.79557 1.1346 0
M  V30 1015 H 103.926 0.766267 0.558156 0
M  V30 1016 H 103.632 2.454 2.51936 0
M  V30 1017 H 103.506 1.08677 3.61205 0
M  V30 1018 H 105.893 0.368668 2.92788 0
M  V30 1019 H 105.974 1.76829 1.84838 0
M  V30 1020 H 105.618 3.3078 3.85418 0
M  V30 1021 H 105.548 1.88096 4.91861 0
M  V30 1022 H 108.039 1.71906 3.36536 0
M  V30 1023 H 108.352 4.06076 6.57512 0
M  V30 1024 H 106.697 3.64604 5.91683 0
M  V30 1025 H 109.888 2.20406 4.12963 0
M  V30 1026 H 110.061 3.2717 5.59342 0
M  V30 1027 N 103.467 -1.45747 0.599634 0
M  V30 1028 C 104.43 -2.28917 -0.113835 0
M  V30 1029 C 105.43 -1.3933 -0.802729 0
M  V30 1030 O 106.62 -1.61534 -0.652103 0
M  V30 1031 C 103.752 -3.20152 -1.17114 0
M  V30 1032 H 104.945 -2.93478 0.617289 0
M  V30 1033 H 102.498 -1.52137 0.358327 0
M  V30 1034 H 103.233 -2.60374 -1.93329 0
M  V30 1035 H 103.018 -3.86133 -0.681468 0
M  V30 1036 H 104.508 -3.82708 -1.67105 0
M  V30 1037 N 104.945 -0.338344 -1.53925 0
M  V30 1038 C 105.908 0.508299 -2.23493 0
M  V30 1039 C 106.908 1.03175 -1.23335 0
M  V30 1040 O 108.098 0.921826 -1.47811 0
M  V30 1041 C 105.23 1.70754 -2.95052 0
M  V30 1042 H 106.423 -0.100058 -2.99733 0
M  V30 1043 H 103.976 -0.0896198 -1.56043 0
M  V30 1044 H 104.711 2.35474 -2.22986 0
M  V30 1045 H 104.496 1.33946 -3.68512 0
M  V30 1046 H 105.986 2.30818 -3.48013 0
M  V30 1047 N 106.423 1.57458 -0.0668435 0
M  V30 1048 C 107.386 2.11323 0.887422 0
M  V30 1049 C 108.386 1.03618 1.22964 0
M  V30 1050 O 109.576 1.29626 1.16373 0
M  V30 1051 C 106.708 2.61048 2.19242 0
M  V30 1052 H 107.901 2.96942 0.420194 0
M  V30 1053 H 105.454 1.55239 0.181793 0
M  V30 1054 H 106.189 1.78868 2.70512 0
M  V30 1055 H 105.974 3.39769 1.95702 0
M  V30 1056 H 107.464 3.02814 2.87565 0
M  V30 1057 N 107.901 -0.206675 1.56239 0
M  V30 1058 C 109.126 -0.949474 1.8439 0
M  V30 1059 C 109.551 -1.76549 0.649016 0
M  V30 1060 O 108.909 -1.76782 -0.402231 0
M  V30 1061 C 108.957 -1.83078 3.10668 0
M  V30 1062 O 108.061 -2.9281 2.90407 0
M  V30 1063 H 107.402 -0.268033 0.607499 0
M  V30 1064 H 109.932 -0.215488 2.03462 0
M  V30 1065 H 109.942 -2.2377 3.41161 0
M  V30 1066 H 108.617 -1.23112 3.97261 0
M  V30 1067 H 107.194 -2.55956 2.71184 0
M  V30 1068 N 109.379 -1.50304 -0.473955 0
M  V30 1069 C 110.627 -1.60832 -1.22382 0
M  V30 1070 C 110.948 -0.30939 -1.9253 0
M  V30 1071 O 110.218 0.67296 -1.83978 0
M  V30 1072 H 108.798 -0.592652 -0.454723 0
M  V30 1073 H 111.46 -1.87068 -0.546968 0
M  V30 1074 H 110.556 -2.41803 -1.97327 0
M  V30 1075 N 110.857 0.726932 -1.39834 0
M  V30 1076 C 111.82 1.82269 -1.38962 0
M  V30 1077 C 112.82 1.58248 -0.285334 0
M  V30 1078 O 114.01 1.65499 -0.54366 0
M  V30 1079 C 111.142 3.20186 -1.17019 0
M  V30 1080 H 112.335 1.84443 -2.36476 0
M  V30 1081 H 109.888 0.931416 -1.25516 0
M  V30 1082 H 110.623 3.23669 -0.202204 0
M  V30 1083 H 110.408 3.3902 -1.96998 0
M  V30 1084 H 111.898 4.00235 -1.1917 0
M  V30 1085 N 112.336 1.25143 0.95797 0
M  V30 1086 C 113.564 1.12424 1.73691 0
M  V30 1087 C 113.979 -0.322304 1.86029 0
M  V30 1088 O 113.336 -1.22186 1.35561 0
M  V30 1089 C 113.387 1.76933 3.15241 0
M  V30 1090 O 113.108 3.15932 3.03511 0
M  V30 1091 C 114.609 1.6995 4.09429 0
M  V30 1092 H 111.829 0.3923 0.544373 0
M  V30 1093 H 114.373 1.6544 1.20207 0
M  V30 1094 H 112.528 1.27895 3.6568 0
M  V30 1095 H 112.942 3.47598 3.9278 0
M  V30 1096 H 114.416 2.19753 5.06372 0
M  V30 1097 H 114.893 0.662619 4.34173 0
M  V30 1098 H 115.499 2.18461 3.64904 0
M  V30 1099 N 113.814 -1.1601 1.06675 0
M  V30 1100 C 115.06 -1.86909 0.786945 0
M  V30 1101 C 115.393 -1.81717 -0.685018 0
M  V30 1102 O 114.668 -1.23551 -1.50218 0
M  V30 1103 C 114.951 -3.36313 1.28707 0
M  V30 1104 C 114.804 -3.50175 2.82308 0
M  V30 1105 C 116.123 -4.3084 0.898071 0
M  V30 1106 H 113.242 -0.678677 0.287343 0
M  V30 1107 H 115.884 -1.36336 1.32334 0
M  V30 1108 H 114.034 -3.79513 0.830768 0
M  V30 1109 H 115.706 -3.15886 3.36175 0
M  V30 1110 H 113.949 -2.91959 3.20847 0
M  V30 1111 H 114.62 -4.55116 3.12368 0
M  V30 1112 H 117.096 -3.95561 1.29114 0
M  V30 1113 H 115.972 -5.33876 1.27543 0
M  V30 1114 H 116.233 -4.41662 -0.196651 0
M  V30 1115 N 115.292 -0.849877 -1.32721 0
M  V30 1116 C 116.222 -0.306308 -2.31482 0
M  V30 1117 C 117.203 0.591952 -1.59468 0
M  V30 1118 O 118.388 0.513199 -1.87296 0
M  V30 1119 C 115.518 0.510204 -3.43532 0
M  V30 1120 C 114.472 -0.293209 -4.26994 0
M  V30 1121 C 113.798 0.647743 -5.30762 0
M  V30 1122 C 115.098 -1.51634 -4.99804 0
M  V30 1123 H 116.792 -1.13153 -2.77195 0
M  V30 1124 H 114.338 -0.545553 -1.33266 0
M  V30 1125 H 116.291 0.900856 -4.11658 0
M  V30 1126 H 115.015 1.36874 -2.96535 0
M  V30 1127 H 113.674 -0.665555 -3.60508 0
M  V30 1128 H 113.322 1.50299 -4.8002 0
M  V30 1129 H 113.022 0.11422 -5.87489 0
M  V30 1130 H 114.546 1.03567 -6.01753 0
M  V30 1131 H 115.96 -1.19824 -5.60638 0
M  V30 1132 H 114.357 -1.98745 -5.66234 0
M  V30 1133 H 115.427 -2.28018 -4.27943 0
M  V30 1134 N 116.77 1.45427 -0.607355 0
M  V30 1135 C 118.01 2.04128 -0.105458 0
M  V30 1136 C 118.374 1.46555 1.24039 0
M  V30 1137 O 119.575 1.96608 1.833 0
M  V30 1138 C 117.846 3.57338 -0.0665324 0
M  V30 1139 S 119.405 4.37201 0.374207 0
M  V30 1140 H 116.223 0.709278 -0.0494575 0
M  V30 1141 H 118.825 1.78139 -0.805404 0
M  V30 1142 H 117.529 3.96752 -1.04957 0
M  V30 1143 H 117.06 3.87902 0.655415 0
M  V30 1144 H 119.075 4.6888 1.62377 0
M  V30 1145 N 118.248 0.346503 1.53744 0
M  V30 1146 C 119.494 -0.249473 2.0126 0
M  V30 1147 C 119.827 -1.49965 1.23386 0
M  V30 1148 O 119.102 -1.91811 0.32229 0
M  V30 1149 C 119.385 -0.560643 3.55709 0
M  V30 1150 C 119.238 0.701836 4.44291 0
M  V30 1151 C 120.557 -1.36905 4.18264 0
M  V30 1152 H 117.676 -0.0891987 0.731582 0
M  V30 1153 H 120.318 0.467624 1.84156 0
M  V30 1154 H 118.468 -1.17156 3.70414 0
M  V30 1155 H 120.14 1.33974 4.41417 0
M  V30 1156 H 118.383 1.32612 4.13033 0
M  V30 1157 H 119.054 0.43933 5.50249 0
M  V30 1158 H 121.53 -0.852448 4.07275 0
M  V30 1159 H 120.406 -1.55553 5.26398 0
M  V30 1160 H 120.667 -2.37203 3.73078 0
M  V30 1161 N 119.726 -1.57421 0.075193 0
M  V30 1162 C 120.951 -1.98364 -0.605515 0
M  V30 1163 C 121.376 -0.953383 -1.62149 0
M  V30 1164 O 120.734 0.0806053 -1.81121 0
M  V30 1165 C 120.782 -3.38332 -1.24756 0
M  V30 1166 O 119.886 -3.37959 -2.36342 0
M  V30 1167 H 119.227 -0.645553 -0.155428 0
M  V30 1168 H 121.757 -2.04044 0.150714 0
M  V30 1169 H 121.767 -3.75591 -1.5936 0
M  V30 1170 H 120.442 -4.12846 -0.503129 0
M  V30 1171 H 119.019 -3.12474 -2.03506 0
M  V30 1172 N 121.204 0.198386 -1.56346 0
M  V30 1173 C 122.151 1.24589 -1.94284 0
M  V30 1174 C 123.121 1.454 -0.802997 0
M  V30 1175 O 124.306 1.58588 -1.06087 0
M  V30 1176 C 121.446 2.58631 -2.28482 0
M  V30 1177 C 120.559 2.45426 -3.55514 0
M  V30 1178 C 119.694 3.7215 -3.79049 0
M  V30 1179 C 118.733 3.53763 -4.99518 0
M  V30 1180 N 117.87 4.72491 -5.19323 0
M  V30 1181 H 122.71 0.915356 -2.83593 0
M  V30 1182 H 120.247 0.440629 -1.40346 0
M  V30 1183 H 122.205 3.3672 -2.46324 0
M  V30 1184 H 120.835 2.89734 -1.42317 0
M  V30 1185 H 119.887 1.58652 -3.45737 0
M  V30 1186 H 121.199 2.27772 -4.43758 0
M  V30 1187 H 120.353 4.58679 -3.97113 0
M  V30 1188 H 119.092 3.92754 -2.89129 0
M  V30 1189 H 118.097 2.65619 -4.8138 0
M  V30 1190 H 119.322 3.34607 -5.90944 0
M  V30 1191 H 117.268 4.93365 -4.3235 0
M  V30 1192 H 117.185 4.5765 -6.01741 0
M  V30 1193 H 118.453 5.6038 -5.41843 0
M  V30 1194 N 122.682 1.50554 0.465978 0
M  V30 1195 C 123.959 1.5232 1.22712 0
M  V30 1196 C 124.339 0.270807 2.09356 0
M  V30 1197 O 123.687 -0.745541 2.15995 0
M  V30 1198 C 123.897 2.82175 2.05374 0
M  V30 1199 C 125.245 3.33033 2.6339 0
M  V30 1200 O 126.269 2.83531 2.15612 0
M  V30 1201 O 125.128 4.19336 3.50456 0
M  V30 1202 H 122.222 0.611183 0.557122 0
M  V30 1203 H 124.768 1.62847 0.477381 0
M  V30 1204 H 123.54 3.64797 1.41558 0
M  V30 1205 H 123.163 2.74675 2.87471 0
M  V30 1206 N 124.16 -0.719506 1.40217 0
M  V30 1207 C 125.09 -1.8465 1.42922 0
M  V30 1208 C 126.071 -1.67599 0.29062 0
M  V30 1209 O 127.256 -1.87688 0.498677 0
M  V30 1210 C 124.386 -3.22565 1.28722 0
M  V30 1211 C 123.34 -3.54281 2.40144 0
M  V30 1212 C 122.666 -4.91298 2.11023 0
M  V30 1213 C 123.966 -3.55676 3.82481 0
M  V30 1214 H 125.66 -1.82644 2.37237 0
M  V30 1215 H 123.206 -0.877305 1.1419 0
M  V30 1216 H 125.159 -4.01095 1.29232 0
M  V30 1217 H 123.883 -3.25137 0.308811 0
M  V30 1218 H 122.542 -2.78088 2.38877 0
M  V30 1219 H 122.19 -4.90468 1.11582 0
M  V30 1220 H 121.89 -5.13485 2.8567 0
M  V30 1221 H 123.414 -5.72166 2.13209 0
M  V30 1222 H 124.828 -4.24254 3.85592 0
M  V30 1223 H 123.225 -3.89388 4.56614 0
M  V30 1224 H 124.295 -2.55144 4.12346 0
M  V30 1225 N 125.638 -1.25649 -0.95132 0
M  V30 1226 C 127.049 -1.09654 -1.51106 0
M  V30 1227 C 127.4 0.326615 -1.93462 0
M  V30 1228 O 126.525 1.21697 -1.78938 0
M  V30 1229 C 127.12 -1.98437 -2.74605 0
M  V30 1230 C 125.679 -1.86618 -3.2688 0
M  V30 1231 C 124.826 -1.9239 -1.99703 0
M  V30 1232 H 127.777 -1.38887 -0.767865 0
M  V30 1233 H 127.798 -1.5263 -3.48546 0
M  V30 1234 H 127.31 -3.02009 -2.43746 0
M  V30 1235 H 125.411 -0.859421 -3.62553 0
M  V30 1236 H 125.524 -2.71607 -3.94673 0
M  V30 1237 H 123.888 -1.36317 -2.15151 0
M  V30 1238 H 124.671 -2.97573 -1.71188 0
M  V30 1239 N 127.117 1.15442 -1.07289 0
M  V30 1240 C 128.364 1.86213 -0.795668 0
M  V30 1241 C 128.692 1.82291 0.678238 0
M  V30 1242 O 127.947 1.24057 1.51355 0
M  V30 1243 C 128.246 3.3489 -1.24834 0
M  V30 1244 C 127.912 3.59007 -2.72809 0
M  V30 1245 C 126.574 3.65298 -3.13227 0
M  V30 1246 C 128.926 3.68762 -3.68326 0
M  V30 1247 C 126.254 3.78854 -4.4798 0
M  V30 1248 C 128.606 3.83842 -5.0284 0
M  V30 1249 C 127.27 3.88378 -5.4288 0
M  V30 1250 H 126.54 0.681403 -0.291155 0
M  V30 1251 H 129.187 1.36435 -1.34379 0
M  V30 1252 H 127.492 3.8687 -0.619595 0
M  V30 1253 H 129.189 3.88052 -1.01076 0
M  V30 1254 H 125.779 3.5475 -2.40521 0
M  V30 1255 H 129.963 3.63202 -3.38227 0
M  V30 1256 H 125.219 3.80623 -4.78472 0
M  V30 1257 H 129.393 3.90332 -5.76727 0
M  V30 1258 H 127.02 3.98635 -6.47298 0
M  V30 1259 N 128.595 0.856903 1.32268 0
M  V30 1260 C 129.558 0.308171 2.27119 0
M  V30 1261 C 130.558 -0.533421 1.51695 0
M  V30 1262 O 131.748 -0.344607 1.70757 0
M  V30 1263 C 128.88 -0.563757 3.36206 0
M  V30 1264 H 130.073 1.14535 2.77167 0
M  V30 1265 H 127.626 0.631421 1.42978 0
M  V30 1266 H 128.361 -1.42266 2.91429 0
M  V30 1267 H 128.146 0.0386749 3.92081 0
M  V30 1268 H 129.636 -0.940386 4.06874 0
M  V30 1269 N 130.073 -1.45103 0.615059 0
M  V30 1270 C 131.005 -2.28786 -0.13762 0
M  V30 1271 C 132.018 -1.40376 -0.824525 0
M  V30 1272 O 133.207 -1.64681 -0.688662 0
M  V30 1273 C 130.307 -3.16322 -1.21628 0
M  V30 1274 C 129.48 -4.33054 -0.615039 0
M  V30 1275 C 128.539 -5.01743 -1.58556 0
M  V30 1276 O 127.565 -5.58293 -1.10895 0
M  V30 1277 N 128.767 -5.01714 -2.91998 0
M  V30 1278 H 131.532 -2.94025 0.580483 0
M  V30 1279 H 129.093 -1.55373 0.45507 0
M  V30 1280 H 131.085 -3.59139 -1.86552 0
M  V30 1281 H 129.655 -2.52943 -1.83681 0
M  V30 1282 H 128.875 -3.93627 0.21245 0
M  V30 1283 H 130.163 -5.08431 -0.193704 0
M  V30 1284 H 129.561 -4.57075 -3.33316 0
M  V30 1285 H 128.118 -5.48371 -3.52325 0
M  V30 1286 N 131.551 -0.354651 -1.53558 0
M  V30 1287 C 132.498 0.496968 -2.25386 0
M  V30 1288 C 133.468 1.0865 -1.25636 0
M  V30 1289 O 134.653 1.12104 -1.54394 0
M  V30 1290 C 131.793 1.63637 -3.03837 0
M  V30 1291 C 130.906 1.07307 -4.18461 0
M  V30 1292 C 130.041 2.18068 -4.84376 0
M  V30 1293 C 129.08 1.59147 -5.91049 0
M  V30 1294 N 128.217 2.63695 -6.50699 0
M  V30 1295 H 133.057 -0.122075 -2.9775 0
M  V30 1296 H 130.594 -0.0720154 -1.46924 0
M  V30 1297 H 132.552 2.30734 -3.47589 0
M  V30 1298 H 131.182 2.22623 -2.33749 0
M  V30 1299 H 130.234 0.292708 -3.79272 0
M  V30 1300 H 131.546 0.602193 -4.95152 0
M  V30 1301 H 130.7 2.93007 -5.31255 0
M  V30 1302 H 129.439 2.68504 -4.07133 0
M  V30 1303 H 128.444 0.827175 -5.43542 0
M  V30 1304 H 129.669 1.09549 -6.70206 0
M  V30 1305 H 127.615 3.13365 -5.76315 0
M  V30 1306 H 127.532 2.21263 -7.22896 0
M  V30 1307 H 128.8 3.3837 -7.02229 0
M  V30 1308 N 133.029 1.57378 -0.0835403 0
M  V30 1309 C 134.445 1.57246 0.273109 0
M  V30 1310 C 134.645 1.09385 1.69225 0
M  V30 1311 O 133.701 0.765051 2.40631 0
M  V30 1312 C 135.014 3.00614 0.0720628 0
M  V30 1313 C 136.562 3.12684 0.1407 0
M  V30 1314 C 137.037 4.57989 -0.0322094 0
M  V30 1315 N 138.528 4.63194 0.0230085 0
M  V30 1316 C 139.263 5.73335 -0.0861941 0
M  V30 1317 N 138.759 6.9235 -0.24958 0
M  V30 1318 N 140.552 5.62093 -0.0282886 0
M  V30 1319 H 132.703 1.86801 -1.0109 0
M  V30 1320 H 134.966 0.861687 -0.395222 0
M  V30 1321 H 134.672 3.39786 -0.907662 0
M  V30 1322 H 134.546 3.68193 0.81936 0
M  V30 1323 H 136.933 2.73391 1.11092 0
M  V30 1324 H 137.014 2.47719 -0.637896 0
M  V30 1325 H 136.658 4.97973 -0.999247 0
M  V30 1326 H 136.588 5.21 0.765937 0
M  V30 1327 H 139.079 3.77613 0.14722 0
M  V30 1328 H 139.392 7.72117 -0.324733 0
M  V30 1329 H 137.737 6.94415 -0.285097 0
M  V30 1330 H 140.928 4.67997 0.0981408 0
M  V30 1331 H 141.101 6.47895 -0.116845 0
M  V30 1332 N 134.507 -0.190092 1.56449 0
M  V30 1333 C 135.754 -0.909705 1.80916 0
M  V30 1334 C 136.082 -1.83047 0.657583 0
M  V30 1335 O 135.337 -1.92428 -0.356356 0
M  V30 1336 C 135.636 -1.75382 3.1141 0
M  V30 1337 C 135.302 -0.983606 4.40041 0
M  V30 1338 C 133.964 -0.770967 4.74984 0
M  V30 1339 C 136.316 -0.442024 5.19322 0
M  V30 1340 C 133.644 -0.0053448 5.867 0
M  V30 1341 C 135.996 0.310412 6.31838 0
M  V30 1342 C 134.66 0.534023 6.6536 0
M  V30 1343 H 133.93 -0.332885 0.662019 0
M  V30 1344 H 136.577 -0.175762 1.90692 0
M  V30 1345 H 134.882 -2.55659 2.96893 0
M  V30 1346 H 136.579 -2.31331 3.27547 0
M  V30 1347 H 133.169 -1.15936 4.12622 0
M  V30 1348 H 137.353 -0.593693 4.92736 0
M  V30 1349 H 132.609 0.177825 6.11141 0
M  V30 1350 H 136.783 0.737419 6.92485 0
M  V30 1351 H 134.41 1.12918 7.51767 0
M  V30 1352 N 135.985 -1.50799 -0.457987 0
M  V30 1353 C 137.225 -1.64088 -1.21879 0
M  V30 1354 C 137.589 -0.339848 -1.88968 0
M  V30 1355 O 138.79 -0.348301 -2.66534 0
M  V30 1356 C 137.061 -2.79726 -2.2246 0
M  V30 1357 S 138.62 -3.13225 -3.07303 0
M  V30 1358 H 135.438 -0.578314 -0.41361 0
M  V30 1359 H 138.04 -1.88632 -0.513645 0
M  V30 1360 H 136.744 -3.72722 -1.71775 0
M  V30 1361 H 136.275 -2.57308 -2.97584 0
M  V30 1362 H 138.29 -2.58062 -4.23814 0
M  V30 1363 N 137.463 0.71206 -1.40597 0
M  V30 1364 C 138.711 1.46907 -1.38791 0
M  V30 1365 C 139.032 1.94998 0.00780391 0
M  V30 1366 O 138.302 1.70587 0.963174 0
M  V30 1367 H 136.882 0.545043 -0.51082 0
M  V30 1368 H 139.544 0.843882 -1.75683 0
M  V30 1369 H 138.64 2.34021 -2.06496 0
M  V30 1370 N 138.941 1.26152 0.944643 0
M  V30 1371 C 139.904 1.07474 2.0244 0
M  V30 1372 C 140.904 0.0242064 1.60782 0
M  V30 1373 O 142.094 0.267302 1.72137 0
M  V30 1374 C 139.226 0.633956 3.34953 0
M  V30 1375 H 140.419 2.03336 2.20442 0
M  V30 1376 H 137.972 1.087 1.12312 0
M  V30 1377 H 138.707 -0.326811 3.22649 0
M  V30 1378 H 138.492 1.39247 3.66542 0
M  V30 1379 H 139.982 0.52501 4.14287 0
M  V30 1380 N 140.419 -1.14872 1.07899 0
M  V30 1381 C 141.329 -2.2341 0.715915 0
M  V30 1382 C 142.345 -1.71808 -0.275306 0
M  V30 1383 O 143.521 -2.01039 -0.120545 0
M  V30 1384 C 140.586 -3.46474 0.125168 0
M  V30 1385 C 139.647 -4.13039 1.17034 0
M  V30 1386 C 138.88 -5.30229 0.607688 0
M  V30 1387 O 139.103 -5.675 -0.574497 0
M  V30 1388 O 138.037 -5.86444 1.35526 0
M  V30 1389 H 141.863 -2.56808 1.62121 0
M  V30 1390 H 139.448 -1.22702 0.852322 0
M  V30 1391 H 141.33 -4.20917 -0.201729 0
M  V30 1392 H 140.005 -3.14811 -0.753364 0
M  V30 1393 H 138.912 -3.40493 1.54968 0
M  V30 1394 H 140.245 -4.48796 2.02097 0
M  V30 1395 N 141.898 -0.863906 -1.31812 0
M  V30 1396 C 143.146 -0.470904 -1.96537 0
M  V30 1397 C 143.467 0.978771 -1.68657 0
M  V30 1398 O 142.737 1.6853 -0.998717 0
M  V30 1399 H 141.317 -0.171148 -0.72713 0
M  V30 1400 H 143.979 -1.10236 -1.60729 0
M  V30 1401 H 143.075 -0.623616 -3.05806 0
M  V30 1402 N 143.376 1.44774 -0.622745 0
M  V30 1403 C 144.604 2.06487 -0.130722 0
M  V30 1404 C 145.019 1.46476 1.19123 0
M  V30 1405 O 144.376 0.584502 1.72887 0
M  V30 1406 C 144.427 3.615 -0.000807207 0
M  V30 1407 O 144.148 4.19274 -1.27048 0
M  V30 1408 C 145.649 4.40229 0.520898 0
M  V30 1409 H 142.869 0.666704 -0.0758106 0
M  V30 1410 H 145.413 1.85779 -0.854774 0
M  V30 1411 H 143.568 3.81498 0.673643 0
M  V30 1412 H 143.982 5.12622 -1.1099 0
M  V30 1413 H 145.456 5.49144 0.560838 0
M  V30 1414 H 145.933 4.1108 1.54627 0
M  V30 1415 H 146.539 4.25131 -0.120018 0
M  V30 1416 N 144.854 0.36279 1.53368 0
M  V30 1417 C 145.764 -0.492994 2.29362 0
M  V30 1418 C 146.78 -1.09507 1.35219 0
M  V30 1419 O 147.956 -1.10662 1.68273 0
M  V30 1420 C 145.021 -1.61855 3.066 0
M  V30 1421 C 144.082 -1.04429 4.16405 0
M  V30 1422 C 143.315 -2.11621 4.89951 0
M  V30 1423 O 143.538 -3.32684 4.63333 0
M  V30 1424 O 142.472 -1.74835 5.75948 0
M  V30 1425 H 146.298 0.125331 3.03441 0
M  V30 1426 H 143.883 0.127253 1.48857 0
M  V30 1427 H 145.765 -2.27302 3.54841 0
M  V30 1428 H 144.44 -2.22233 2.3536 0
M  V30 1429 H 143.347 -0.353819 3.72423 0
M  V30 1430 H 144.68 -0.485113 4.89804 0
M  V30 1431 N 146.332 -1.57332 0.0918853 0
M  V30 1432 C 147.28 -2.15075 -0.885747 0
M  V30 1433 C 148.274 -1.09277 -1.29441 0
M  V30 1434 O 149.48 -1.27627 -1.26931 0
M  V30 1435 H 145.855 -0.687966 -0.303656 0
M  V30 1436 H 147.826 -2.96047 -0.373995 0
M  V30 1437 C 146.575 -2.74325 -2.13638 0
M  V30 1438 H 145.898 -3.55418 -1.8308 0
M  V30 1439 H 147.338 -3.183 -2.80109 0
M  V30 1440 C 145.797 -1.70062 -2.90827 0
M  V30 1441 O 146.327 -1.13763 -3.85254 0
M  V30 1442 N 144.533 -1.40628 -2.54307 0
M  V30 1443 H 144.08 -1.866 -1.7759 0
M  V30 1444 H 144.038 -0.711043 -3.06254 0
M  V30 1445 N 147.81 0.181792 -1.56548 0
M  V30 1446 C 149.056 0.901431 -1.81665 0
M  V30 1447 C 149.389 1.82347 -0.668075 0
M  V30 1448 O 148.664 1.91669 0.330615 0
M  V30 1449 C 148.947 1.70618 -3.17115 0
M  V30 1450 C 148.8 0.807964 -4.42484 0
M  V30 1451 C 150.119 2.67605 -3.49393 0
M  V30 1452 H 147.238 0.32627 -0.660846 0
M  V30 1453 H 149.88 0.168134 -1.89255 0
M  V30 1454 H 148.03 2.33133 -3.10775 0
M  V30 1455 H 149.702 0.19649 -4.60881 0
M  V30 1456 H 147.945 0.115411 -4.33646 0
M  V30 1457 H 148.616 1.40632 -5.33785 0
M  V30 1458 H 151.092 2.15218 -3.56118 0
M  V30 1459 H 149.968 3.20985 -4.45264 0
M  V30 1460 H 150.229 3.47298 -2.73563 0
M  V30 1461 N 149.288 1.51039 0.449983 0
M  V30 1462 C 150.221 1.66105 1.56474 0
M  V30 1463 C 151.199 0.508776 1.54435 0
M  V30 1464 O 152.383 0.731005 1.73749 0
M  V30 1465 C 149.51 1.66304 2.9506 0
M  V30 1466 C 148.556 2.87346 3.15174 0
M  V30 1467 S 149.389 4.4835 2.92818 0
M  V30 1468 C 150.545 4.51274 4.33708 0
M  V30 1469 H 150.778 2.60397 1.43459 0
M  V30 1470 H 148.311 1.40565 0.638805 0
M  V30 1471 H 150.269 1.67103 3.74949 0
M  V30 1472 H 148.93 0.732108 3.05449 0
M  V30 1473 H 148.123 2.83849 4.16468 0
M  V30 1474 H 147.725 2.84223 2.43091 0
M  V30 1475 H 150.017 4.26136 5.26701 0
M  V30 1476 H 150.96 5.53017 4.42242 0
M  V30 1477 H 151.368 3.80738 4.16772 0
M  V30 1478 N 150.766 -0.704594 1.40972 0
M  V30 1479 C 152.177 -1.28418 1.3552 0
M  V30 1480 C 152.528 -1.96171 0.0339434 0
M  V30 1481 O 151.653 -1.98231 -0.867944 0
M  V30 1482 C 152.248 -2.33528 2.45459 0
M  V30 1483 C 150.807 -2.87085 2.43433 0
M  V30 1484 C 149.954 -1.61007 2.2577 0
M  V30 1485 H 152.905 -0.499963 1.50619 0
M  V30 1486 H 152.926 -3.14619 2.13998 0
M  V30 1487 H 152.438 -1.84187 3.41609 0
M  V30 1488 H 150.539 -3.40626 1.51013 0
M  V30 1489 H 150.652 -3.3813 3.39419 0
M  V30 1490 H 149.016 -1.86482 1.73483 0
M  V30 1491 H 149.799 -1.13675 3.23933 0
M  V30 1492 N 152.244 -1.26651 -0.937939 0
M  V30 1493 C 153.207 -1.08546 -2.01867 0
M  V30 1494 C 154.207 -0.0327327 -1.60767 0
M  V30 1495 O 155.397 -0.276427 -1.71993 0
M  V30 1496 C 152.529 -0.651711 -3.34613 0
M  V30 1497 H 153.722 -2.04502 -2.1936 0
M  V30 1498 H 151.275 -1.09294 -1.11734 0
M  V30 1499 H 152.01 0.309696 -3.22818 0
M  V30 1500 H 151.795 -1.41189 -3.65798 0
M  V30 1501 H 153.285 -0.546973 -4.14002 0
M  V30 1502 N 153.722 1.14298 -1.08507 0
M  V30 1503 C 154.947 1.8976 -0.837001 0
M  V30 1504 C 155.372 1.78097 0.605228 0
M  V30 1505 O 154.73 1.12188 1.4242 0
M  V30 1506 C 154.778 3.37685 -1.26495 0
M  V30 1507 O 153.882 4.10281 -0.417514 0
M  V30 1508 H 153.223 0.590365 -0.303917 0
M  V30 1509 H 155.753 1.44672 -1.44676 0
M  V30 1510 H 155.763 3.88501 -1.24625 0
M  V30 1511 H 154.438 3.45492 -2.31534 0
M  V30 1512 H 153.015 3.69536 -0.499722 0
M  V30 1513 N 155.201 0.870884 1.31352 0
M  V30 1514 C 156.164 0.332243 2.26779 0
M  V30 1515 C 157.164 -0.517302 1.52252 0
M  V30 1516 O 158.354 -0.326477 1.71113 0
M  V30 1517 C 155.486 -0.528066 3.36785 0
M  V30 1518 H 156.679 1.17469 2.75937 0
M  V30 1519 H 154.232 0.64655 1.423 0
M  V30 1520 H 154.967 -1.39167 2.92922 0
M  V30 1521 H 154.752 0.0802582 3.92018 0
M  V30 1522 H 156.242 -0.897179 4.07849 0
M  V30 1523 N 156.679 -1.44442 0.630414 0
M  V30 1524 C 157.926 -2.02052 0.134617 0
M  V30 1525 C 158.254 -1.49576 -1.24327 0
M  V30 1526 O 157.509 -0.669806 -1.83881 0
M  V30 1527 C 157.808 -3.57332 0.0697835 0
M  V30 1528 C 157.474 -4.29058 1.38635 0
M  V30 1529 C 156.136 -4.4837 1.74694 0
M  V30 1530 C 158.488 -4.69872 2.25543 0
M  V30 1531 C 155.816 -5.05756 2.97369 0
M  V30 1532 C 158.168 -5.28616 3.47487 0
M  V30 1533 C 156.832 -5.46147 3.8377 0
M  V30 1534 H 156.102 -0.739361 0.0492598 0
M  V30 1535 H 158.749 -1.73217 0.816586 0
M  V30 1536 H 157.054 -3.85577 -0.695553 0
M  V30 1537 H 158.751 -3.99637 -0.330344 0
M  V30 1538 H 155.341 -4.14357 1.09574 0
M  V30 1539 H 159.525 -4.54666 1.98979 0
M  V30 1540 H 154.781 -5.17515 3.25558 0
M  V30 1541 H 158.955 -5.59192 4.15063 0
M  V30 1542 H 156.582 -5.9038 4.7891 0
M  V30 1543 N 158.157 -0.370918 -1.53173 0
M  V30 1544 C 159.573 -0.0200818 -1.59587 0
M  V30 1545 C 159.773 1.46279 -1.38581 0
M  V30 1546 O 158.829 2.22506 -1.19363 0
M  V30 1547 C 160.142 -0.4808 -2.96831 0
M  V30 1548 C 161.69 -0.435477 -3.09956 0
M  V30 1549 C 162.165 -0.872092 -4.4962 0
M  V30 1550 N 163.656 -0.827364 -4.55751 0
M  V30 1551 C 164.391 -1.13683 -5.62018 0
M  V30 1552 N 163.887 -1.51584 -6.76014 0
M  V30 1553 N 165.68 -1.05927 -5.52029 0
M  V30 1554 H 157.831 -1.33652 -1.65079 0
M  V30 1555 H 160.094 -0.546634 -0.774529 0
M  V30 1556 H 159.8 -1.51577 -3.1736 0
M  V30 1557 H 159.674 0.129796 -3.76977 0
M  V30 1558 H 162.061 0.590371 -2.89134 0
M  V30 1559 H 162.142 -1.08164 -2.31806 0
M  V30 1560 H 161.786 -1.89608 -4.71181 0
M  V30 1561 H 161.716 -0.203127 -5.26208 0
M  V30 1562 H 164.207 -0.548216 -3.73902 0
M  V30 1563 H 164.52 -1.73609 -7.53047 0
M  V30 1564 H 162.865 -1.55454 -6.77391 0
M  V30 1565 H 166.056 -0.762321 -4.61851 0
M  V30 1566 H 166.229 -1.30378 -6.34749 0
M  V30 1567 N 159.635 1.57281 -0.100228 0
M  V30 1568 C 160.912 1.86014 0.604812 0
M  V30 1569 C 161.292 0.998025 1.86018 0
M  V30 1570 O 160.64 0.0718184 2.28387 0
M  V30 1571 C 160.85 3.36784 0.915278 0
M  V30 1572 C 162.198 4.04957 1.27651 0
M  V30 1573 O 163.222 3.41695 1.00613 0
M  V30 1574 O 162.081 5.16593 1.7831 0
M  V30 1575 H 159.175 0.76942 0.303185 0
M  V30 1576 H 161.721 1.69176 -0.133313 0
M  V30 1577 H 160.493 3.91292 0.0248896 0
M  V30 1578 H 160.116 3.58987 1.70921 0
M  V30 1579 N 161.113 -0.173488 1.56642 0
M  V30 1580 C 162.338 -0.910149 1.86363 0
M  V30 1581 C 162.763 -1.75132 0.686318 0
M  V30 1582 O 162.121 -1.77595 -0.364643 0
M  V30 1583 C 162.169 -1.76447 3.14482 0
M  V30 1584 O 161.273 -2.86584 2.96553 0
M  V30 1585 H 160.614 -0.255086 0.613047 0
M  V30 1586 H 163.144 -0.172283 2.03873 0
M  V30 1587 H 163.154 -2.16483 3.45831 0
M  V30 1588 H 161.829 -1.14658 3.99783 0
M  V30 1589 H 160.406 -2.50146 2.76553 0
M  V30 1590 N 162.591 -1.51276 -0.441967 0
M  V30 1591 C 163.838 -1.63715 -1.19179 0
M  V30 1592 C 164.166 -0.351175 -1.91303 0
M  V30 1593 O 163.421 0.664524 -1.84072 0
M  V30 1594 C 163.72 -2.78746 -2.23686 0
M  V30 1595 C 163.386 -4.18189 -1.68607 0
M  V30 1596 C 162.048 -4.56125 -1.53308 0
M  V30 1597 C 164.4 -5.05222 -1.28062 0
M  V30 1598 C 161.728 -5.78804 -0.959317 0
M  V30 1599 C 164.08 -6.28476 -0.721162 0
M  V30 1600 C 162.744 -6.65188 -0.55504 0
M  V30 1601 H 162.014 -0.599076 -0.436106 0
M  V30 1602 H 164.661 -1.85296 -0.48351 0
M  V30 1603 H 162.966 -2.51369 -3.00535 0
M  V30 1604 H 164.663 -2.8557 -2.81515 0
M  V30 1605 H 161.253 -3.88277 -1.8149 0
M  V30 1606 H 165.437 -4.76524 -1.38704 0
M  V30 1607 H 160.693 -6.05899 -0.81833 0
M  V30 1608 H 164.867 -6.95259 -0.398458 0
M  V30 1609 H 162.494 -7.60123 -0.108311 0
M  V30 1610 N 164.069 0.697108 -1.41344 0
M  V30 1611 C 165.317 1.45426 -1.40341 0
M  V30 1612 C 165.638 1.94996 -0.0128787 0
M  V30 1613 O 164.908 1.71599 0.945027 0
M  V30 1614 H 163.488 0.539594 -0.516573 0
M  V30 1615 H 166.15 0.825201 -1.76569 0
M  V30 1616 H 165.246 2.31817 -2.08967 0
M  V30 1617 N 165.547 1.27147 0.931209 0
M  V30 1618 C 166.457 1.11372 2.06478 0
M  V30 1619 C 167.473 0.044645 1.73943 0
M  V30 1620 O 168.649 0.250417 1.99837 0
M  V30 1621 C 165.714 0.758838 3.38294 0
M  V30 1622 C 164.775 1.90841 3.84549 0
M  V30 1623 C 164.008 1.57036 5.10074 0
M  V30 1624 O 164.231 0.476645 5.68405 0
M  V30 1625 O 163.165 2.40839 5.51616 0
M  V30 1626 H 166.991 2.06493 2.22698 0
M  V30 1627 H 164.576 1.06301 1.04978 0
M  V30 1628 H 166.458 0.574098 4.17471 0
M  V30 1629 H 165.133 -0.162879 3.2329 0
M  V30 1630 H 164.04 2.14819 3.06274 0
M  V30 1631 H 165.373 2.81021 4.04089 0
M  V30 1632 N 167.025 -1.13721 1.09112 0
M  V30 1633 C 168.302 -1.81155 0.737706 0
M  V30 1634 C 168.682 -1.96253 -0.777683 0
M  V30 1635 O 168.03 -1.52807 -1.69889 0
M  V30 1636 C 168.24 -3.16392 1.47299 0
M  V30 1637 C 169.588 -3.91787 1.63671 0
M  V30 1638 O 170.612 -3.26005 1.43524 0
M  V30 1639 O 169.471 -5.0977 1.96969 0
M  V30 1640 H 166.565 -0.783518 0.26463 0
M  V30 1641 H 169.111 -1.20676 1.19312 0
M  V30 1642 H 167.883 -3.0061 2.50498 0
M  V30 1643 H 167.506 -3.8457 1.00953 0
M  V30 1644 N 168.503 -0.877838 -1.30888 0
M  V30 1645 C 169.733 -0.506678 -2.00291 0
M  V30 1646 C 170.141 0.907449 -1.66018 0
M  V30 1647 O 169.484 1.60719 -0.88967 0
M  V30 1648 C 169.546 -0.59323 -3.54572 0
M  V30 1649 C 169.21 -1.97038 -4.12341 0
M  V30 1650 C 170.207 -2.93889 -4.28865 0
M  V30 1651 C 167.892 -2.27383 -4.47886 0
M  V30 1652 C 169.886 -4.19224 -4.80136 0
M  V30 1653 C 167.573 -3.52965 -4.98857 0
M  V30 1654 C 168.571 -4.48701 -5.14934 0
M  V30 1655 O 168.259 -5.72056 -5.64808 0
M  V30 1656 H 167.991 -0.1951 -0.647234 0
M  V30 1657 H 170.545 -1.18301 -1.6791 0
M  V30 1658 H 168.775 0.140057 -3.86446 0
M  V30 1659 H 170.464 -0.234372 -4.05223 0
M  V30 1660 H 171.23 -2.71756 -4.01714 0
M  V30 1661 H 167.109 -1.53639 -4.34645 0
M  V30 1662 H 170.653 -4.93956 -4.92599 0
M  V30 1663 H 166.55 -3.74939 -5.25443 0
M  V30 1664 H 167.318 -5.74337 -5.83163 0
M  V30 1665 N 169.982 1.44106 -0.638065 0
M  V30 1666 C 171.23 2.01579 -0.145043 0
M  V30 1667 C 171.551 1.50496 1.24 0
M  V30 1668 O 170.821 0.711374 1.82527 0
M  V30 1669 H 169.401 0.745282 -0.05063 0
M  V30 1670 H 172.063 1.76516 -0.826327 0
M  V30 1671 H 171.159 3.11877 -0.118039 0
M  V30 1672 N 171.46 0.379036 1.52974 0
M  V30 1673 C 172.706 -0.206727 2.01744 0
M  V30 1674 C 173.039 -1.47314 1.26539 0
M  V30 1675 O 172.314 -1.91084 0.362903 0
M  V30 1676 C 172.597 -0.485066 3.56818 0
M  V30 1677 C 172.45 0.795919 4.42702 0
M  V30 1678 C 173.769 -1.28003 4.21074 0
M  V30 1679 H 170.888 -0.0736607 0.73331 0
M  V30 1680 H 173.53 0.506581 1.83122 0
M  V30 1681 H 171.68 -1.09272 3.72816 0
M  V30 1682 H 173.352 1.43307 4.38476 0
M  V30 1683 H 171.595 1.41344 4.10127 0
M  V30 1684 H 172.266 0.555947 5.49193 0
M  V30 1685 H 174.742 -0.765867 4.08991 0
M  V30 1686 H 173.618 -1.44352 5.29579 0
M  V30 1687 H 173.879 -2.29236 3.78026 0
M  V30 1688 N 172.938 -1.57226 0.108567 0
M  V30 1689 C 174.166 -1.99179 -0.559954 0
M  V30 1690 C 174.581 -0.988022 -1.60884 0
M  V30 1691 O 173.938 0.0205512 -1.82488 0
M  V30 1692 C 173.989 -3.41159 -1.19552 0
M  V30 1693 O 173.71 -4.37694 -0.188577 0
M  V30 1694 C 175.211 -3.98188 -1.94837 0
M  V30 1695 H 172.431 -0.654228 -0.149088 0
M  V30 1696 H 174.975 -2.03598 0.19183 0
M  V30 1697 H 173.13 -3.37711 -1.89815 0
M  V30 1698 H 173.544 -5.20469 -0.649014 0
M  V30 1699 H 175.018 -4.99644 -2.34648 0
M  V30 1700 H 175.495 -3.3675 -2.81951 0
M  V30 1701 H 176.101 -4.0515 -1.2936 0
M  V30 1702 N 174.416 0.165178 -1.56732 0
M  V30 1703 C 175.665 0.879143 -1.81532 0
M  V30 1704 C 175.978 1.83144 -0.686842 0
M  V30 1705 O 177.184 2.58823 -0.819944 0
M  V30 1706 C 175.64 1.61388 -3.21686 0
M  V30 1707 C 175.248 0.704904 -4.4242 0
M  V30 1708 C 176.992 2.3157 -3.55774 0
M  V30 1709 C 174.899 1.44022 -5.73595 0
M  V30 1710 H 173.829 0.332033 -0.676957 0
M  V30 1711 H 176.48 0.132008 -1.83025 0
M  V30 1712 H 174.862 2.40599 -3.14529 0
M  V30 1713 H 176.036 -0.0506815 -4.60772 0
M  V30 1714 H 174.351 0.112419 -4.16248 0
M  V30 1715 H 176.948 2.8719 -4.51028 0
M  V30 1716 H 177.291 3.07201 -2.8095 0
M  V30 1717 H 177.824 1.59297 -3.64513 0
M  V30 1718 H 174.563 0.72612 -6.51466 0
M  V30 1719 H 174.083 2.16898 -5.5921 0
M  V30 1720 H 175.762 1.98606 -6.15764 0
M  V30 1721 N 175.894 1.51508 0.433938 0
M  V30 1722 C 176.857 1.72473 1.50949 0
M  V30 1723 C 177.857 0.594725 1.49398 0
M  V30 1724 O 179.047 0.862315 1.5136 0
M  V30 1725 C 176.179 1.78431 2.90474 0
M  V30 1726 H 177.372 2.68467 1.33662 0
M  V30 1727 H 174.925 1.41549 0.662836 0
M  V30 1728 H 175.66 0.842645 3.13161 0
M  V30 1729 H 175.445 2.60558 2.93005 0
M  V30 1730 H 176.935 1.96479 3.68491 0
M  V30 1731 N 177.372 -0.689602 1.41712 0
M  V30 1732 C 178.649 -1.44457 1.31877 0
M  V30 1733 C 179.029 -2.11039 -0.0508537 0
M  V30 1734 O 178.377 -2.02138 -1.06547 0
M  V30 1735 C 178.587 -2.45913 2.47645 0
M  V30 1736 C 179.935 -3.10991 2.89084 0
M  V30 1737 O 180.959 -2.56238 2.47428 0
M  V30 1738 O 179.818 -4.10174 3.61137 0
M  V30 1739 H 176.912 -0.64362 0.519309 0
M  V30 1740 H 179.458 -0.719576 1.53689 0
M  V30 1741 H 178.23 -1.95409 3.39015 0
M  V30 1742 H 177.853 -3.25913 2.27742 0
M  V30 1743 N 178.85 -1.27639 -0.924453 0
M  V30 1744 C 180.098 -1.13941 -1.66918 0
M  V30 1745 C 180.419 0.314589 -1.92446 0
M  V30 1746 O 179.689 1.21964 -1.53303 0
M  V30 1747 H 178.269 -0.418678 -0.618642 0
M  V30 1748 H 180.931 -1.60213 -1.10985 0
M  V30 1749 H 180.027 -1.67094 -2.63602 0
M  V30 1750 N 180.328 1.1314 -1.09713 0
M  V30 1751 C 181.739 1.66029 -0.853885 0
M  V30 1752 C 182.09 1.86241 0.617142 0
M  V30 1753 O 181.215 1.5834 1.47503 0
M  V30 1754 C 181.81 3.01599 -1.5435 0
M  V30 1755 C 180.369 3.51467 -1.34714 0
M  V30 1756 C 179.516 2.26648 -1.59769 0
M  V30 1757 H 182.467 0.970226 -1.25588 0
M  V30 1758 H 182.488 3.67709 -0.978267 0
M  V30 1759 H 182 2.86856 -2.6141 0
M  V30 1760 H 180.101 3.71408 -0.297838 0
M  V30 1761 H 180.214 4.314 -2.08401 0
M  V30 1762 H 178.578 2.33385 -1.01998 0
M  V30 1763 H 179.361 2.14467 -2.68065 0
M  V30 1764 N 181.806 0.884767 1.30421 0
M  V30 1765 C 182.739 0.295999 2.26272 0
M  V30 1766 C 183.717 -0.58332 1.51777 0
M  V30 1767 O 184.901 -0.53346 1.80794 0
M  V30 1768 C 182.028 -0.57944 3.33707 0
M  V30 1769 C 181.074 0.230525 4.25877 0
M  V30 1770 S 181.907 1.61867 5.1045 0
M  V30 1771 C 183.063 0.749756 6.21393 0
M  V30 1772 H 183.296 1.10848 2.75862 0
M  V30 1773 H 180.829 0.684178 1.38414 0
M  V30 1774 H 182.787 -1.07879 3.96071 0
M  V30 1775 H 181.448 -1.36601 2.82841 0
M  V30 1776 H 180.641 -0.437542 5.02097 0
M  V30 1777 H 180.243 0.662493 3.68086 0
M  V30 1778 H 182.535 -0.0333547 6.77492 0
M  V30 1779 H 183.478 1.48356 6.92384 0
M  V30 1780 H 183.886 0.310751 5.63644 0
M  V30 1781 N 183.284 -1.43765 0.645699 0
M  V30 1782 C 184.247 -2.29163 -0.0409488 0
M  V30 1783 C 185.247 -1.41813 -0.757996 0
M  V30 1784 O 186.437 -1.63527 -0.600382 0
M  V30 1785 C 183.569 -3.23716 -1.06869 0
M  V30 1786 H 184.762 -2.91366 0.710345 0
M  V30 1787 H 182.315 -1.5092 0.406547 0
M  V30 1788 H 183.05 -2.66393 -1.84947 0
M  V30 1789 H 182.835 -3.88105 -0.558277 0
M  V30 1790 H 184.325 -3.87831 -1.54845 0
M  V30 1791 N 184.763 -0.387143 -1.52771 0
M  V30 1792 C 186.011 0.195349 -2.01154 0
M  V30 1793 C 186.332 1.475 -1.27549 0
M  V30 1794 O 185.602 1.91878 -0.394924 0
M  V30 1795 H 184.182 0.075178 -0.743207 0
M  V30 1796 H 186.844 -0.518337 -1.87881 0
M  V30 1797 H 185.94 0.407096 -3.09434 0
M  V30 1798 N 186.241 1.57166 -0.116904 0
M  V30 1799 C 187.171 2.18222 0.830759 0
M  V30 1800 C 188.152 1.12167 1.27877 0
M  V30 1801 O 189.337 1.40394 1.34176 0
M  V30 1802 C 186.467 2.77996 2.08172 0
M  V30 1803 C 185.421 3.89614 1.77157 0
M  V30 1804 C 184.747 4.36187 3.09265 0
M  V30 1805 C 186.047 5.1181 1.04151 0
M  V30 1806 H 187.741 2.97664 0.321992 0
M  V30 1807 H 185.287 1.4318 0.153434 0
M  V30 1808 H 187.24 3.19366 2.74924 0
M  V30 1809 H 185.964 1.9584 2.6137 0
M  V30 1810 H 184.623 3.48816 1.12796 0
M  V30 1811 H 184.271 3.50893 3.60393 0
M  V30 1812 H 183.971 5.11455 2.89288 0
M  V30 1813 H 185.495 4.80207 3.77139 0
M  V30 1814 H 186.909 5.50214 1.61052 0
M  V30 1815 H 185.306 5.92648 0.942762 0
M  V30 1816 H 186.376 4.84892 0.0279022 0
M  V30 1817 N 187.719 -0.156864 1.56817 0
M  V30 1818 C 188.649 -1.19589 2.00551 0
M  V30 1819 C 189.63 -1.4536 0.883426 0
M  V30 1820 O 190.815 -1.56449 1.15054 0
M  V30 1821 C 187.945 -2.53143 2.37773 0
M  V30 1822 C 186.899 -2.41913 3.53075 0
M  V30 1823 C 186.225 -3.80088 3.76081 0
M  V30 1824 C 187.525 -1.91157 4.86062 0
M  V30 1825 H 189.219 -0.832293 2.87599 0
M  V30 1826 H 186.765 -0.398918 1.38364 0
M  V30 1827 H 188.718 -3.26047 2.66967 0
M  V30 1828 H 187.442 -2.91319 1.4765 0
M  V30 1829 H 186.101 -1.71462 3.24031 0
M  V30 1830 H 185.749 -4.15683 2.83225 0
M  V30 1831 H 185.449 -3.73439 4.53671 0
M  V30 1832 H 186.973 -4.54556 4.0769 0
M  V30 1833 H 188.387 -2.53846 5.14038 0
M  V30 1834 H 186.784 -1.95422 5.67389 0
M  V30 1835 H 187.854 -0.866673 4.77092 0
M  V30 1836 N 189.197 -1.51736 -0.425897 0
M  V30 1837 C 190.16 -1.73271 -1.50032 0
M  V30 1838 C 191.16 -0.602639 -1.4908 0
M  V30 1839 O 192.35 -0.87033 -1.509 0
M  V30 1840 C 189.482 -1.79969 -2.89523 0
M  V30 1841 H 190.675 -2.69172 -1.32237 0
M  V30 1842 H 188.228 -1.41899 -0.65532 0
M  V30 1843 H 188.963 -0.859241 -3.1271 0
M  V30 1844 H 188.748 -2.62109 -2.91619 0
M  V30 1845 H 190.238 -1.9843 -3.67444 0
M  V30 1846 N 190.675 0.682077 -1.42076 0
M  V30 1847 C 192.091 0.994324 -1.24841 0
M  V30 1848 C 192.291 2.0096 -0.147389 0
M  V30 1849 O 191.347 2.47822 0.483782 0
M  V30 1850 C 192.66 1.50607 -2.60265 0
M  V30 1851 C 194.208 1.62421 -2.6756 0
M  V30 1852 C 194.683 2.16994 -4.03333 0
M  V30 1853 N 196.174 2.24337 -4.0525 0
M  V30 1854 C 196.909 2.67621 -5.07116 0
M  V30 1855 N 196.405 3.1041 -6.19368 0
M  V30 1856 N 198.198 2.67305 -4.94474 0
M  V30 1857 H 190.349 0.00973908 -2.12398 0
M  V30 1858 H 192.612 0.0668593 -0.945639 0
M  V30 1859 H 192.318 0.834583 -3.41654 0
M  V30 1860 H 192.192 2.48602 -2.83684 0
M  V30 1861 H 194.579 2.28678 -1.86521 0
M  V30 1862 H 194.66 0.629352 -2.47937 0
M  V30 1863 H 194.304 1.51349 -4.84826 0
M  V30 1864 H 194.234 3.17258 -4.20304 0
M  V30 1865 H 196.725 1.94158 -3.24209 0
M  V30 1866 H 197.038 3.42103 -6.92954 0
M  V30 1867 H 195.383 3.08286 -6.22884 0
M  V30 1868 H 198.574 2.33233 -4.05857 0
M  V30 1869 H 198.747 3.00718 -5.73997 0
M  V30 1870 N 192.153 1.28127 0.917671 0
M  V30 1871 C 193.116 1.11744 2.00115 0
M  V30 1872 C 194.116 0.0583052 1.60694 0
M  V30 1873 O 195.306 0.303755 1.71531 0
M  V30 1874 C 192.438 0.704862 3.33533 0
M  V30 1875 H 193.631 2.07966 2.16079 0
M  V30 1876 H 191.184 1.11058 1.09981 0
M  V30 1877 H 191.919 -0.258299 3.2327 0
M  V30 1878 H 191.704 1.4699 3.63505 0
M  V30 1879 H 193.194 0.612768 4.1308 0
M  V30 1880 N 193.631 -1.12557 1.10312 0
M  V30 1881 C 194.88 -1.83395 0.839588 0
M  V30 1882 C 195.193 -1.84939 -0.636929 0
M  V30 1883 O 196.399 -2.51761 -1.01631 0
M  V30 1884 C 194.855 -3.29303 1.45215 0
M  V30 1885 C 194.463 -3.36122 2.96186 0
M  V30 1886 C 196.207 -4.05121 1.26796 0
M  V30 1887 C 194.114 -4.76357 3.50483 0
M  V30 1888 H 193.044 -0.687133 0.310425 0
M  V30 1889 H 195.695 -1.26746 1.32694 0
M  V30 1890 H 194.077 -3.85812 0.892469 0
M  V30 1891 H 195.251 -2.89559 3.58458 0
M  V30 1892 H 193.566 -2.73776 3.13745 0
M  V30 1893 H 196.163 -5.08668 1.64806 0
M  V30 1894 H 196.506 -4.15773 0.209409 0
M  V30 1895 H 197.039 -3.54967 1.79563 0
M  V30 1896 H 193.778 -4.70899 4.55998 0
M  V30 1897 H 193.298 -5.23377 2.92978 0
M  V30 1898 H 194.977 -5.45294 3.48228 0
M  V30 1899 N 195.109 -0.891671 -1.2995 0
M  V30 1900 C 196.355 -0.514261 -1.96171 0
M  V30 1901 C 196.688 0.935506 -1.70182 0
M  V30 1902 O 195.963 1.66204 -1.01028 0
M  V30 1903 C 196.246 -0.797719 -3.51153 0
M  V30 1904 C 196.099 -2.2986 -3.86632 0
M  V30 1905 C 197.418 -0.278749 -4.39216 0
M  V30 1906 H 194.537 -0.188314 -0.712535 0
M  V30 1907 H 197.179 -1.11689 -1.53706 0
M  V30 1908 H 195.329 -0.284826 -3.87455 0
M  V30 1909 H 197.001 -2.88042 -3.60319 0
M  V30 1910 H 195.244 -2.76257 -3.34462 0
M  V30 1911 H 195.915 -2.44753 -4.94773 0
M  V30 1912 H 198.391 -0.717825 -4.09862 0
M  V30 1913 H 197.267 -0.506353 -5.46559 0
M  V30 1914 H 197.528 0.820266 -4.34424 0
M  V30 1915 N 196.587 1.43421 -0.653314 0
M  V30 1916 C 197.833 2.02111 -0.166992 0
M  V30 1917 C 198.166 1.51423 1.21592 0
M  V30 1918 O 197.441 0.707389 1.8118 0
M  V30 1919 C 197.724 3.5966 -0.177948 0
M  V30 1920 C 197.577 4.20579 -1.59478 0
M  V30 1921 C 198.896 4.37413 0.4856 0
M  V30 1922 H 196.015 0.734374 -0.0621557 0
M  V30 1923 H 198.657 1.70717 -0.834016 0
M  V30 1924 H 196.807 3.86537 0.390032 0
M  V30 1925 H 198.479 4.04732 -2.21336 0
M  V30 1926 H 196.722 3.77226 -2.14204 0
M  V30 1927 H 197.393 5.29665 -1.5543 0
M  V30 1928 H 199.869 4.161 0.00234528 0
M  V30 1929 H 198.745 5.47075 0.447207 0
M  V30 1930 H 199.006 4.13672 1.55974 0
M  V30 1931 N 198.065 0.39524 1.52563 0
M  V30 1932 C 199.314 -0.186321 2.00838 0
M  V30 1933 C 199.627 -1.47402 1.28577 0
M  V30 1934 O 200.833 -2.13599 1.67593 0
M  V30 1935 C 199.289 -0.382595 3.57861 0
M  V30 1936 C 198.897 0.892202 4.39026 0
M  V30 1937 C 200.641 -0.9202 4.14406 0
M  V30 1938 C 198.548 0.66388 5.87662 0
M  V30 1939 H 197.478 -0.0734041 0.750418 0
M  V30 1940 H 200.129 0.518552 1.76021 0
M  V30 1941 H 198.511 -1.14946 3.7895 0
M  V30 1942 H 199.685 1.66414 4.29701 0
M  V30 1943 H 198 1.35519 3.9373 0
M  V30 1944 H 200.597 -1.10683 5.23119 0
M  V30 1945 H 200.94 -1.89096 3.70875 0
M  V30 1946 H 201.473 -0.212751 3.97231 0
M  V30 1947 H 198.212 1.6058 6.35527 0
M  V30 1948 H 197.732 -0.0690193 5.9976 0
M  V30 1949 H 199.411 0.300699 6.46301 0
M  V30 1950 N 199.544 -1.57102 0.125237 0
M  V30 1951 C 200.792 -1.95021 -0.530198 0
M  V30 1952 C 201.113 -1.00982 -1.66816 0
M  V30 1953 O 200.383 -0.0672693 -1.95784 0
M  V30 1954 H 198.963 -0.720046 -0.198853 0
M  V30 1955 H 201.625 -1.93916 0.19564 0
M  V30 1956 H 200.721 -2.98211 -0.920681 0
M  V30 1957 N 201.022 0.148545 -1.56898 0
M  V30 1958 C 201.985 1.16736 -1.97244 0
M  V30 1959 C 202.985 1.35947 -0.858777 0
M  V30 1960 O 204.175 1.32966 -1.12542 0
M  V30 1961 C 201.307 2.52798 -2.28705 0
M  V30 1962 H 202.5 0.821279 -2.88435 0
M  V30 1963 H 200.053 0.391831 -1.51309 0
M  V30 1964 H 200.788 2.92381 -1.403 0
M  V30 1965 H 200.573 2.40216 -3.09901 0
M  V30 1966 H 202.063 3.26179 -2.60762 0
M  V30 1967 N 202.5 1.5196 0.417844 0
M  V30 1968 C 203.777 1.56146 1.17803 0
M  V30 1969 C 204.157 0.337275 2.08388 0
M  V30 1970 O 203.505 -0.676447 2.18258 0
M  V30 1971 C 203.715 2.88566 1.96293 0
M  V30 1972 C 205.063 3.41244 2.52662 0
M  V30 1973 O 206.087 2.90247 2.06483 0
M  V30 1974 O 204.946 4.30273 3.36938 0
M  V30 1975 H 202.04 0.628598 0.537395 0
M  V30 1976 H 204.586 1.64283 0.425331 0
M  V30 1977 H 203.358 3.69116 1.2988 0
M  V30 1978 H 202.981 2.83681 2.78587 0
M  V30 1979 N 203.978 -0.674533 1.42435 0
M  V30 1980 C 205.226 -1.43175 1.42637 0
M  V30 1981 C 205.547 -1.94951 0.0438992 0
M  V30 1982 O 204.817 -1.7308 -0.917607 0
M  V30 1983 H 203.397 -0.531307 0.525092 0
M  V30 1984 H 206.059 -0.797006 1.77859 0
M  V30 1985 H 205.155 -2.28463 2.12629 0
M  V30 1986 N 205.456 -1.28612 -0.910864 0
M  V30 1987 C 206.404 -1.1265 -2.03501 0
M  V30 1988 C 207.398 -0.0450054 -1.6934 0
M  V30 1989 O 208.604 -0.203988 -1.7884 0
M  V30 1990 H 204.979 -0.347639 -0.666822 0
M  V30 1991 H 206.95 -2.07849 -2.14106 0
M  V30 1992 C 205.699 -0.808143 -3.38178 0
M  V30 1993 H 205.022 -1.63231 -3.6496 0
M  V30 1994 H 206.462 -0.736426 -4.17556 0
M  V30 1995 C 204.921 0.488226 -3.33344 0
M  V30 1996 O 205.451 1.51766 -3.71927 0
M  V30 1997 N 203.657 0.490009 -2.86439 0
M  V30 1998 H 203.204 -0.348161 -2.55236 0
M  V30 1999 H 203.162 1.35741 -2.83587 0
M  V30 2000 N 206.934 1.1197 -1.10907 0
M  V30 2001 C 208.18 1.8386 -0.855773 0
M  V30 2002 C 208.513 1.84134 0.617103 0
M  V30 2003 O 207.788 1.29041 1.45529 0
M  V30 2004 C 208.071 3.31305 -1.411 0
M  V30 2005 C 207.924 3.39456 -2.9511 0
M  V30 2006 C 209.243 4.2721 -1.05736 0
M  V30 2007 H 206.362 0.667545 -0.312334 0
M  V30 2008 H 209.004 1.31331 -1.37303 0
M  V30 2009 H 207.154 3.76169 -0.97105 0
M  V30 2010 H 208.826 3.03191 -3.47668 0
M  V30 2011 H 207.069 2.79849 -3.31462 0
M  V30 2012 H 207.74 4.43209 -3.29044 0
M  V30 2013 H 210.216 3.90497 -1.43706 0
M  V30 2014 H 209.092 5.28775 -1.47269 0
M  V30 2015 H 209.353 4.42088 0.0325958 0
M  V30 2016 N 208.412 0.89855 1.29475 0
M  V30 2017 C 209.375 0.380272 2.26023 0
M  V30 2018 C 210.375 -0.484891 1.53315 0
M  V30 2019 O 211.565 -0.290108 1.71767 0
M  V30 2020 C 208.697 -0.45651 3.3783 0
M  V30 2021 H 209.89 1.23295 2.73383 0
M  V30 2022 H 207.443 0.676589 1.40897 0
M  V30 2023 H 208.178 -1.32922 2.95808 0
M  V30 2024 H 207.963 0.163393 3.91759 0
M  V30 2025 H 209.453 -0.810466 4.0966 0
M  V30 2026 N 209.89 -1.43072 0.660911 0
M  V30 2027 C 211.12 -2.05769 0.185153 0
M  V30 2028 C 211.528 -1.49668 -1.15742 0
M  V30 2029 O 210.871 -0.625649 -1.72717 0
M  V30 2030 C 210.933 -3.59489 0.0278237 0
M  V30 2031 C 210.597 -4.38212 1.2969 0
M  V30 2032 C 211.594 -4.69772 2.22734 0
M  V30 2033 C 209.279 -4.7809 1.54063 0
M  V30 2034 C 211.273 -5.40129 3.38437 0
M  V30 2035 C 208.96 -5.4819 2.70058 0
M  V30 2036 C 209.958 -5.79132 3.62071 0
M  V30 2037 O 209.646 -6.47798 4.76039 0
M  V30 2038 H 209.378 -0.669873 0.0908086 0
M  V30 2039 H 211.932 -1.84436 0.90402 0
M  V30 2040 H 210.162 -3.79426 -0.746489 0
M  V30 2041 H 211.851 -4.03862 -0.406275 0
M  V30 2042 H 212.617 -4.39476 2.05149 0
M  V30 2043 H 208.496 -4.53408 0.833215 0
M  V30 2044 H 212.04 -5.64198 4.10277 0
M  V30 2045 H 207.937 -5.77902 2.87574 0
M  V30 2046 H 208.705 -6.66283 4.75404 0
M  V30 2047 N 211.368 -0.403325 -1.52352 0
M  V30 2048 C 212.596 0.174012 -2.06167 0
M  V30 2049 C 213.011 1.39347 -1.27388 0
M  V30 2050 O 212.368 1.79597 -0.324201 0
M  V30 2051 C 212.419 0.530223 -3.5759 0
M  V30 2052 O 212.14 -0.640806 -4.33388 0
M  V30 2053 C 213.641 1.16192 -4.27802 0
M  V30 2054 H 210.861 0.0229464 -0.670608 0
M  V30 2055 H 213.405 -0.572604 -1.9632 0
M  V30 2056 H 211.56 1.22673 -3.67464 0
M  V30 2057 H 211.974 -0.344851 -5.23365 0
M  V30 2058 H 213.448 1.36141 -5.34948 0
M  V30 2059 H 213.925 2.13335 -3.83907 0
M  V30 2060 H 214.531 0.505775 -4.22282 0
M  V30 2061 N 212.846 1.57033 -0.133567 0
M  V30 2062 C 213.756 2.19632 0.824564 0
M  V30 2063 C 214.772 1.17666 1.28182 0
M  V30 2064 O 215.948 1.50193 1.3418 0
M  V30 2065 C 213.013 2.79499 2.05137 0
M  V30 2066 C 212.074 3.96548 1.64464 0
M  V30 2067 C 211.307 4.5355 2.81297 0
M  V30 2068 O 211.53 4.09438 3.97136 0
M  V30 2069 O 210.464 5.44018 2.57542 0
M  V30 2070 H 214.29 3.01991 0.321766 0
M  V30 2071 H 211.875 1.49112 0.0927889 0
M  V30 2072 H 213.757 3.17602 2.7696 0
M  V30 2073 H 212.432 2.00162 2.54395 0
M  V30 2074 H 211.339 3.63186 0.897048 0
M  V30 2075 H 212.672 4.77364 1.19934 0
M  V30 2076 N 214.325 -0.140222 1.56975 0
M  V30 2077 C 215.255 -1.17456 2.01808 0
M  V30 2078 C 216.236 -1.44415 0.898794 0
M  V30 2079 O 217.421 -1.5522 1.16707 0
M  V30 2080 C 214.551 -2.50607 2.40444 0
M  V30 2081 C 213.505 -2.38155 3.55621 0
M  V30 2082 C 212.831 -3.76078 3.80091 0
M  V30 2083 C 214.131 -1.85991 4.88062 0
M  V30 2084 H 215.825 -0.801743 2.88466 0
M  V30 2085 H 213.371 -0.38422 1.38779 0
M  V30 2086 H 215.324 -3.23197 2.7041 0
M  V30 2087 H 214.048 -2.89737 1.50732 0
M  V30 2088 H 212.707 -1.68016 3.25832 0
M  V30 2089 H 212.355 -4.12656 2.87618 0
M  V30 2090 H 212.055 -3.68606 4.57606 0
M  V30 2091 H 213.579 -4.50206 4.12488 0
M  V30 2092 H 214.993 -2.4838 5.16701 0
M  V30 2093 H 213.39 -1.89393 5.6943 0
M  V30 2094 H 214.46 -0.816023 4.77984 0
M  V30 2095 N 215.803 -1.52179 -0.40978 0
M  V30 2096 C 217.049 -1.66453 -1.15851 0
M  V30 2097 C 217.382 -0.392972 -1.90182 0
M  V30 2098 O 216.657 0.608579 -1.84734 0
M  V30 2099 C 216.94 -2.88612 -2.15349 0
M  V30 2100 C 216.793 -4.25815 -1.44918 0
M  V30 2101 C 218.112 -3.06294 -3.16026 0
M  V30 2102 H 215.231 -0.60575 -0.419805 0
M  V30 2103 H 217.873 -1.84732 -0.444314 0
M  V30 2104 H 216.023 -2.73158 -2.76255 0
M  V30 2105 H 217.695 -4.52995 -0.871365 0
M  V30 2106 H 215.938 -4.27247 -0.751159 0
M  V30 2107 H 216.609 -5.07337 -2.17516 0
M  V30 2108 H 219.085 -3.20641 -2.65195 0
M  V30 2109 H 217.961 -3.93283 -3.8291 0
M  V30 2110 H 218.222 -2.19579 -3.83715 0
M  V30 2111 N 217.281 0.66697 -1.42791 0
M  V30 2112 C 218.692 1.2478 -1.38877 0
M  V30 2113 C 219.043 1.96012 -0.0859426 0
M  V30 2114 O 218.168 2.00463 0.815081 0
M  V30 2115 C 218.763 2.26938 -2.51564 0
M  V30 2116 C 217.322 2.80529 -2.50959 0
M  V30 2117 C 216.469 1.54965 -2.29959 0
M  V30 2118 H 219.42 0.459853 -1.51892 0
M  V30 2119 H 219.441 3.08834 -2.22265 0
M  V30 2120 H 218.953 1.75065 -3.46372 0
M  V30 2121 H 217.054 3.36502 -1.59991 0
M  V30 2122 H 217.167 3.29012 -3.48265 0
M  V30 2123 H 215.531 1.81817 -1.78366 0
M  V30 2124 H 216.314 1.05047 -3.26833 0
M  V30 2125 N 218.759 1.29093 0.90403 0
M  V30 2126 C 219.669 1.15727 2.0407 0
M  V30 2127 C 220.685 0.0815308 1.73809 0
M  V30 2128 O 221.861 0.292749 1.99261 0
M  V30 2129 C 218.926 0.830424 3.36608 0
M  V30 2130 C 217.987 1.98955 3.80415 0
M  V30 2131 C 217.22 1.6782 5.06628 0
M  V30 2132 O 217.443 0.597105 5.67266 0
M  V30 2133 O 216.377 2.52486 5.46383 0
M  V30 2134 H 220.203 2.11171 2.18267 0
M  V30 2135 H 217.788 1.08504 1.027 0
M  V30 2136 H 219.67 0.662521 4.16159 0
M  V30 2137 H 218.345 -0.0942678 3.23563 0
M  V30 2138 H 217.252 2.21267 3.01648 0
M  V30 2139 H 218.585 2.89529 3.98037 0
M  V30 2140 N 220.237 -1.11381 1.11499 0
M  V30 2141 C 221.486 -1.82494 0.858993 0
M  V30 2142 C 221.799 -1.85605 -0.617278 0
M  V30 2143 O 223.005 -2.52824 -0.989552 0
M  V30 2144 C 221.461 -3.27745 1.48699 0
M  V30 2145 C 221.069 -3.32961 2.99735 0
M  V30 2146 C 222.813 -4.03754 1.31085 0
M  V30 2147 C 220.72 -4.72612 3.55516 0
M  V30 2148 H 219.65 -0.683802 0.317696 0
M  V30 2149 H 222.301 -1.25331 1.34031 0
M  V30 2150 H 220.683 -3.84844 0.933339 0
M  V30 2151 H 221.857 -2.85741 3.61509 0
M  V30 2152 H 220.172 -2.70433 3.16631 0
M  V30 2153 H 222.769 -5.06891 1.70192 0
M  V30 2154 H 223.112 -4.15527 0.253496 0
M  V30 2155 H 223.645 -3.53043 1.83318 0
M  V30 2156 H 220.384 -4.66036 4.60967 0
M  V30 2157 H 219.904 -5.2024 2.98513 0
M  V30 2158 H 221.583 -5.4157 3.53992 0
M  V30 2159 N 221.715 -0.905404 -1.28997 0
M  V30 2160 C 222.678 -0.392253 -2.25819 0
M  V30 2161 C 223.678 0.476753 -1.5357 0
M  V30 2162 O 224.868 0.280994 -1.71919 0
M  V30 2163 C 222 0.438588 -3.38067 0
M  V30 2164 H 223.193 -1.24743 -2.72725 0
M  V30 2165 H 220.746 -0.684051 -1.40536 0
M  V30 2166 H 221.481 1.31352 -2.96508 0
M  V30 2167 H 221.266 -0.184167 -3.91667 0
M  V30 2168 H 222.756 0.78873 -4.10084 0
M  V30 2169 N 223.193 1.4272 -0.668489 0
M  V30 2170 C 224.125 2.2914 0.052613 0
M  V30 2171 C 225.138 1.43339 0.771857 0
M  V30 2172 O 226.327 1.67123 0.627067 0
M  V30 2173 C 223.427 3.20618 1.09804 0
M  V30 2174 C 222.6 4.35039 0.45389 0
M  V30 2175 C 221.659 5.07282 1.39825 0
M  V30 2176 O 220.685 5.62024 0.900978 0
M  V30 2177 N 221.887 5.12206 2.73176 0
M  V30 2178 H 224.652 2.91668 -0.689209 0
M  V30 2179 H 222.213 1.53577 -0.512422 0
M  V30 2180 H 224.205 3.65815 1.73094 0
M  V30 2181 H 222.775 2.59585 1.74167 0
M  V30 2182 H 221.995 3.92567 -0.358396 0
M  V30 2183 H 223.283 5.088 0.00486972 0
M  V30 2184 H 222.681 4.6913 3.16122 0
M  V30 2185 H 221.238 5.61069 3.31729 0
M  V30 2186 N 224.671 0.411399 1.52136 0
M  V30 2187 C 225.581 -0.419774 2.30814 0
M  V30 2188 C 226.597 -1.0515 1.38634 0
M  V30 2189 O 227.773 -1.05252 1.71709 0
M  V30 2190 C 224.838 -1.52019 3.11594 0
M  V30 2191 C 223.899 -0.91129 4.19516 0
M  V30 2192 C 223.132 -1.95927 4.96436 0
M  V30 2193 O 223.355 -3.17775 4.73683 0
M  V30 2194 O 222.289 -1.56423 5.81219 0
M  V30 2195 H 226.115 0.221805 3.02889 0
M  V30 2196 H 223.7 0.174547 1.48377 0
M  V30 2197 H 225.582 -2.15898 3.61892 0
M  V30 2198 H 224.257 -2.14633 2.42311 0
M  V30 2199 H 223.164 -0.235157 3.7336 0
M  V30 2200 H 224.497 -0.32904 4.91099 0
M  V30 2201 N 226.149 -1.5696 0.141893 0
M  V30 2202 C 227.56 -1.82797 -0.379776 0
M  V30 2203 C 227.911 -1.06033 -1.6508 0
M  V30 2204 O 227.036 -0.304011 -2.14254 0
M  V30 2205 C 227.631 -3.31578 -0.695802 0
M  V30 2206 C 226.19 -3.58014 -1.16201 0
M  V30 2207 C 225.337 -2.76699 -0.182455 0
M  V30 2208 H 228.288 -1.54406 0.366675 0
M  V30 2209 H 228.309 -3.47454 -1.55099 0
M  V30 2210 H 227.821 -3.87421 0.229449 0
M  V30 2211 H 225.922 -3.07553 -2.10338 0
M  V30 2212 H 226.035 -4.66501 -1.09151 0
M  V30 2213 H 224.399 -2.45618 -0.674072 0
M  V30 2214 H 225.182 -3.35311 0.736297 0
M  V30 2215 N 227.627 0.131896 -1.57047 0
M  V30 2216 C 228.575 1.18146 -2.0036 0
M  V30 2217 C 229.569 1.43614 -0.898406 0
M  V30 2218 O 230.775 1.43729 -1.08361 0
M  V30 2219 H 227.15 0.398042 -0.638018 0
M  V30 2220 H 229.121 0.789564 -2.87765 0
M  V30 2221 C 227.87 2.50341 -2.41298 0
M  V30 2222 H 227.193 2.31578 -3.25902 0
M  V30 2223 H 228.633 3.22371 -2.75414 0
M  V30 2224 C 227.092 3.11984 -1.27153 0
M  V30 2225 O 227.622 3.97484 -0.580459 0
M  V30 2226 N 225.828 2.71662 -1.03189 0
M  V30 2227 H 225.375 2.02231 -1.59564 0
M  V30 2228 H 225.333 3.13238 -0.270077 0
M  V30 2229 N 229.106 1.52395 0.401703 0
M  V30 2230 C 230.336 1.70429 1.1678 0
M  V30 2231 C 230.744 0.416702 1.84554 0
M  V30 2232 O 230.087 -0.617697 1.73003 0
M  V30 2233 C 230.149 2.78919 2.26814 0
M  V30 2234 C 229.813 4.20437 1.79113 0
M  V30 2235 C 230.81 5.04028 1.27482 0
M  V30 2236 C 228.495 4.66704 1.85722 0
M  V30 2237 C 230.489 6.31961 0.830913 0
M  V30 2238 C 228.176 5.94625 1.40942 0
M  V30 2239 C 229.174 6.77082 0.897128 0
M  V30 2240 O 228.862 8.02607 0.455822 0
M  V30 2241 H 228.594 0.574272 0.356634 0
M  V30 2242 H 231.148 1.99767 0.477724 0
M  V30 2243 H 229.378 2.44973 2.99207 0
M  V30 2244 H 231.067 2.8548 2.88541 0
M  V30 2245 H 231.833 4.69471 1.21744 0
M  V30 2246 H 227.712 4.0262 2.24539 0
M  V30 2247 H 231.256 6.96271 0.430368 0
M  V30 2248 H 227.153 6.28688 1.46362 0
M  V30 2249 H 227.921 8.16453 0.578457 0
M  V30 2250 N 230.584 -0.659388 1.43143 0
M  V30 2251 C 231.494 -1.80167 1.50256 0
M  V30 2252 C 232.51 -1.69571 0.390106 0
M  V30 2253 O 233.686 -1.90849 0.643319 0
M  V30 2254 C 230.751 -3.16409 1.41725 0
M  V30 2255 C 229.812 -3.38848 2.63591 0
M  V30 2256 C 229.045 -4.68591 2.55458 0
M  V30 2257 O 229.268 -5.47532 1.59891 0
M  V30 2258 O 228.202 -4.92614 3.45854 0
M  V30 2259 H 232.028 -1.77121 2.46702 0
M  V30 2260 H 229.613 -0.817092 1.25076 0
M  V30 2261 H 231.495 -3.9768 1.39387 0
M  V30 2262 H 230.17 -3.20059 0.484118 0
M  V30 2263 H 229.077 -2.57366 2.71502 0
M  V30 2264 H 230.41 -3.4004 3.55856 0
M  V30 2265 N 232.062 -1.29571 -0.897171 0
M  V30 2266 C 233.025 -1.14913 -1.98312 0
M  V30 2267 C 234.025 -0.0838629 -1.60581 0
M  V30 2268 O 235.215 -0.331006 -1.71026 0
M  V30 2269 C 232.347 -0.757835 -3.3237 0
M  V30 2270 H 233.54 -2.11377 -2.12743 0
M  V30 2271 H 231.093 -1.12793 -1.08201 0
M  V30 2272 H 231.828 0.206837 -3.2364 0
M  V30 2273 H 231.613 -1.52755 -3.61121 0
M  V30 2274 H 233.103 -0.678408 -4.12053 0
M  V30 2275 N 233.54 1.10788 -1.12088 0
M  V30 2276 C 234.503 2.15207 -0.788577 0
M  V30 2277 C 235.503 1.59609 0.195317 0
M  V30 2278 O 236.693 1.74174 -0.0300193 0
M  V30 2279 C 233.825 3.4047 -0.171174 0
M  V30 2280 H 235.018 2.46116 -1.71368 0
M  V30 2281 H 232.571 1.26089 -0.923652 0
M  V30 2282 H 233.306 3.15176 0.763832 0
M  V30 2283 H 233.091 3.82109 -0.879514 0
M  V30 2284 H 234.581 4.17576 0.04496 0
M  V30 2285 N 235.018 0.912232 1.28515 0
M  V30 2286 C 235.948 0.416403 2.29757 0
M  V30 2287 C 236.929 -0.515194 1.6211 0
M  V30 2288 O 238.114 -0.423253 1.89532 0
M  V30 2289 C 235.244 -0.34572 3.45575 0
M  V30 2290 C 234.198 0.496599 4.25109 0
M  V30 2291 C 233.524 -0.393771 5.33248 0
M  V30 2292 C 234.824 1.75307 4.92001 0
M  V30 2293 H 236.518 1.26249 2.7148 0
M  V30 2294 H 234.064 0.608515 1.30511 0
M  V30 2295 H 236.017 -0.703422 4.15488 0
M  V30 2296 H 234.741 -1.2257 3.02728 0
M  V30 2297 H 233.4 0.8368 3.56922 0
M  V30 2298 H 233.048 -1.27225 4.86644 0
M  V30 2299 H 232.748 0.166209 5.87365 0
M  V30 2300 H 234.272 -0.747389 6.06009 0
M  V30 2301 H 235.686 1.46437 5.54283 0
M  V30 2302 H 234.083 2.25534 5.56106 0
M  V30 2303 H 235.153 2.48176 4.16577 0
M  V30 2304 N 236.496 -1.42363 0.676048 0
M  V30 2305 C 237.459 -2.29199 0.00766941 0
M  V30 2306 C 238.459 -1.43389 -0.727745 0
M  V30 2307 O 239.649 -1.64764 -0.56556 0
M  V30 2308 C 236.781 -3.2591 -0.999785 0
M  V30 2309 H 237.974 -2.89794 0.771988 0
M  V30 2310 H 235.527 -1.50024 0.438468 0
M  V30 2311 H 236.262 -2.70256 -1.79255 0
M  V30 2312 H 236.047 -3.89202 -0.475829 0
M  V30 2313 H 237.537 -3.91028 -1.46583 0
M  V30 2314 N 237.974 -0.419461 -1.51915 0
M  V30 2315 C 238.937 0.389116 -2.25873 0
M  V30 2316 C 239.937 0.964924 -1.28631 0
M  V30 2317 O 241.127 0.842179 -1.52489 0
M  V30 2318 C 238.259 1.54874 -3.03689 0
M  V30 2319 H 239.452 -0.258799 -2.98781 0
M  V30 2320 H 237.005 -0.172209 -1.55348 0
M  V30 2321 H 237.74 2.23323 -2.35154 0
M  V30 2322 H 237.525 1.14223 -3.75094 0
M  V30 2323 H 239.015 2.12046 -3.59759 0
M  V30 2324 N 239.452 1.56882 -0.150215 0
M  V30 2325 C 240.382 2.19935 0.784284 0
M  V30 2326 C 241.363 1.14854 1.25469 0
M  V30 2327 O 242.548 1.43209 1.31168 0
M  V30 2328 C 239.678 2.82349 2.02229 0
M  V30 2329 C 238.632 3.93285 1.68853 0
M  V30 2330 C 237.958 4.42649 2.99944 0
M  V30 2331 C 239.258 5.13904 0.932714 0
M  V30 2332 H 240.952 2.9828 0.258781 0
M  V30 2333 H 238.498 1.43473 0.123029 0
M  V30 2334 H 240.451 3.25126 2.68088 0
M  V30 2335 H 239.175 2.0134 2.57157 0
M  V30 2336 H 237.834 3.5113 1.05371 0
M  V30 2337 H 237.482 3.58458 3.52869 0
M  V30 2338 H 237.182 5.17476 2.78374 0
M  V30 2339 H 238.706 4.88099 3.66868 0
M  V30 2340 H 240.12 5.53506 1.49345 0
M  V30 2341 H 238.517 5.94515 0.81684 0
M  V30 2342 H 239.587 4.84842 -0.0749568 0
M  V30 2343 N 240.93 -0.123565 1.57115 0
M  V30 2344 C 242.178 -0.83051 1.84247 0
M  V30 2345 C 242.499 -1.80629 0.73471 0
M  V30 2346 O 241.769 -1.94403 -0.241688 0
M  V30 2347 H 240.349 -0.309694 0.679778 0
M  V30 2348 H 243.011 -0.111976 1.94578 0
M  V30 2349 H 242.107 -1.37852 2.80006 0
M  V30 2350 N 242.408 -1.52605 -0.393616 0
M  V30 2351 C 243.371 -1.76415 -1.46323 0
M  V30 2352 C 244.371 -0.634126 -1.47768 0
M  V30 2353 O 245.561 -0.902142 -1.4902 0
M  V30 2354 C 242.693 -1.8607 -2.85641 0
M  V30 2355 H 243.886 -2.71916 -1.26498 0
M  V30 2356 H 241.439 -1.43257 -0.625073 0
M  V30 2357 H 242.174 -0.925378 -3.10817 0
M  V30 2358 H 241.959 -2.68235 -2.85993 0
M  V30 2359 H 243.449 -2.06179 -3.63153 0
M  V30 2360 O 243.925 0.539544 -1.52221 0
M  V30 2361 H 244.616 1.19468 -1.5247 0
M  V30 END ATOM
M  V30 BEGIN BOND
M  V30 END BOND
M  V30 END CTAB
M  END
$$$$
