drugbank_target|P9WGV3 Adenosylhomocysteinase (DB07052)
 OpenBabel12092120393D

  0  0  0     0  0            999 V3000
M  V30 BEGIN CTAB
M  V30 COUNTS 7592 7668 0 0 0
M  V30 BEGIN ATOM
M  V30 1 H -0.908 1.98254 -0.117106 0
M  V30 2 N 0 1.576 0 0
M  V30 3 C 0.933 2.03868 1.02534 0
M  V30 4 C 1.911 0.928543 1.3348 0
M  V30 5 O 3.095 1.19667 1.45644 0
M  V30 6 C 0.222 2.43627 2.35294 0
M  V30 7 C -0.732 3.65373 2.2001 0
M  V30 8 S 0.101 5.13292 1.52614 0
M  V30 9 C 1.257 5.56322 2.86805 0
M  V30 10 H 1.49 2.90518 0.631377 0
M  V30 11 H -0.977 1.52953 0.210867 0
M  V30 12 H 0.981 2.67203 3.11629 0
M  V30 13 H -0.358 1.57376 2.7183 0
M  V30 14 H -1.165 3.90944 3.18086 0
M  V30 15 H -1.563 3.418 1.51819 0
M  V30 16 H 0.729 5.58782 3.83104 0
M  V30 17 H 1.672 6.56266 2.65933 0
M  V30 18 H 2.08 4.83886 2.90714 0
M  V30 19 N 1.4781 -0.272755 1.55222 0
M  V30 20 C 2.7061 -1.02255 1.79865 0
M  V30 21 C 3.1211 -1.79924 0.572088 0
M  V30 22 O 2.4781 -1.76638 -0.458842 0
M  V30 23 C 2.5291 -1.98094 3.02392 0
M  V30 24 O 2.2501 -1.23572 4.20311 0
M  V30 25 C 3.7511 -2.84884 3.39641 0
M  V30 26 H 0.9711 -0.302057 0.599168 0
M  V30 27 H 3.5151 -0.303465 2.02236 0
M  V30 28 H 1.6701 -2.65465 2.82147 0
M  V30 29 H 2.0841 -1.88172 4.89583 0
M  V30 30 H 3.5581 -3.47927 4.28545 0
M  V30 31 H 4.0351 -3.54665 2.59055 0
M  V30 32 H 4.6411 -2.23003 3.62146 0
M  V30 33 N 2.9562 -1.48159 -0.537278 0
M  V30 34 C 4.2042 -1.55497 -1.29094 0
M  V30 35 C 4.5252 -0.227454 -1.93669 0
M  V30 36 O 3.7952 0.750386 -1.80959 0
M  V30 37 H 2.3752 -0.572832 -0.47945 0
M  V30 38 H 5.0372 -1.84579 -0.625818 0
M  V30 39 H 4.1332 -2.33216 -2.07405 0
M  V30 40 N 4.4343 0.785586 -1.36625 0
M  V30 41 C 5.3823 1.91978 -1.31329 0
M  V30 42 C 6.3763 1.68162 -0.204416 0
M  V30 43 O 7.5823 1.76122 -0.371645 0
M  V30 44 H 3.9573 0.631087 -0.408942 0
M  V30 45 H 5.9283 1.93562 -2.27104 0
M  V30 46 C 4.6773 3.29055 -1.12329 0
M  V30 47 H 4.0003 3.4795 -1.96903 0
M  V30 48 H 5.4403 4.08756 -1.12671 0
M  V30 49 C 3.8993 3.36461 0.171861 0
M  V30 50 O 4.4293 3.84576 1.16035 0
M  V30 51 N 2.6353 2.89782 0.217846 0
M  V30 52 H 2.1823 2.50819 -0.587183 0
M  V30 53 H 2.1403 2.95119 1.08408 0
M  V30 54 N 5.9124 1.20967 1.01018 0
M  V30 55 C 6.8424 0.988272 2.11555 0
M  V30 56 C 7.8234 -0.0849778 1.69888 0
M  V30 57 O 9.0084 0.0738202 1.9406 0
M  V30 58 C 6.1384 0.546528 3.42973 0
M  V30 59 C 5.0924 1.56375 3.9841 0
M  V30 60 C 4.4184 0.97842 5.25672 0
M  V30 61 C 5.7184 2.94922 4.31066 0
M  V30 62 H 7.4124 1.91276 2.30334 0
M  V30 63 H 4.9584 0.921073 1.1069 0
M  V30 64 H 6.9114 0.378839 4.19694 0
M  V30 65 H 5.6354 -0.413598 3.23971 0
M  V30 66 H 4.2944 1.71891 3.23804 0
M  V30 67 H 3.9424 0.0101688 5.02999 0
M  V30 68 H 3.6424 1.65784 5.63728 0
M  V30 69 H 5.1664 0.821939 6.05043 0
M  V30 70 H 6.5804 2.8288 4.9865 0
M  V30 71 H 4.9774 3.5983 4.80253 0
M  V30 72 H 6.0474 3.4616 3.39561 0
M  V30 73 N 7.3905 -1.2043 1.01659 0
M  V30 74 C 8.6365 -1.90079 0.706963 0
M  V30 75 C 8.9695 -1.78648 -0.761474 0
M  V30 76 O 8.2445 -1.17069 -1.55323 0
M  V30 77 C 8.5275 -3.41469 1.14327 0
M  V30 78 C 8.3805 -3.61833 2.67201 0
M  V30 79 C 9.6995 -4.34261 0.714529 0
M  V30 80 H 6.8185 -0.690254 0.2583 0
M  V30 81 H 9.4605 -1.41826 1.26433 0
M  V30 82 H 7.6105 -3.82696 0.669056 0
M  V30 83 H 9.2825 -3.2986 3.22475 0
M  V30 84 H 7.5255 -3.05304 3.08175 0
M  V30 85 H 8.1965 -4.67955 2.92783 0
M  V30 86 H 10.6725 -4.00682 1.12221 0
M  V30 87 H 9.5485 -5.38806 1.04784 0
M  V30 88 H 9.8095 -4.40431 -0.383799 0
M  V30 89 N 8.8686 -0.792821 -1.36206 0
M  V30 90 C 10.0966 -0.378825 -2.03402 0
M  V30 91 C 10.5116 1.00586 -1.59774 0
M  V30 92 O 9.8686 1.64574 -0.788764 0
M  V30 93 C 9.9196 -0.43683 -3.58851 0
M  V30 94 O 9.6406 -1.76691 -4.00889 0
M  V30 95 C 11.1416 -0.0138943 -4.43298 0
M  V30 96 H 8.3616 -0.155673 -0.652692 0
M  V30 97 H 10.9056 -1.07261 -1.74113 0
M  V30 98 H 9.0606 0.208575 -3.86838 0
M  V30 99 H 9.4746 -1.72011 -4.95492 0
M  V30 100 H 10.9486 -0.105615 -5.51899 0
M  V30 101 H 11.4256 1.03915 -4.2673 0
M  V30 102 H 12.0316 -0.63192 -4.20579 0
M  V30 103 N 10.3467 1.47872 -0.545128 0
M  V30 104 C 11.2937 2.29849 0.2093 0
M  V30 105 C 12.2637 1.38313 0.919707 0
M  V30 106 O 13.4487 1.67277 0.917772 0
M  V30 107 C 10.5887 3.22019 1.24088 0
M  V30 108 C 9.7017 4.2864 0.537778 0
M  V30 109 C 8.8367 5.07973 1.5536 0
M  V30 110 C 7.8757 6.06381 0.8348 0
M  V30 111 N 7.0127 6.78717 1.79688 0
M  V30 112 H 11.8527 2.93845 -0.49591 0
M  V30 113 H 9.3897 1.44848 -0.256389 0
M  V30 114 H 11.3477 3.73868 1.85144 0
M  V30 115 H 9.9777 2.59914 1.91428 0
M  V30 116 H 9.0297 3.7994 -0.187046 0
M  V30 117 H 10.3417 4.98793 -0.0258907 0
M  V30 118 H 9.4957 5.63912 2.23803 0
M  V30 119 H 8.2347 4.37693 2.15118 0
M  V30 120 H 7.2397 5.49631 0.136388 0
M  V30 121 H 8.4647 6.78665 0.24313 0
M  V30 122 H 6.4107 6.11177 2.38326 0
M  V30 123 H 6.3277 7.44998 1.28505 0
M  V30 124 H 7.5957 7.39237 2.47282 0
M  V30 125 N 11.8248 0.280983 1.55075 0
M  V30 126 C 12.7728 -0.619864 2.24188 0
M  V30 127 C 13.7668 -1.15315 1.24092 0
M  V30 128 O 14.9728 -1.1061 1.42005 0
M  V30 129 H 11.3478 -0.218459 0.719569 0
M  V30 130 H 13.3188 -0.0141831 2.98397 0
M  V30 131 C 12.0678 -1.7899 2.98091 0
M  V30 132 H 11.3908 -1.38874 3.74905 0
M  V30 133 H 12.8308 -2.39672 3.49762 0
M  V30 134 C 11.2898 -2.68192 2.03899 0
M  V30 135 O 11.8198 -3.6872 1.594 0
M  V30 136 N 10.0258 -2.35488 1.70275 0
M  V30 137 H 9.5728 -1.53787 2.06658 0
M  V30 138 H 9.5308 -2.95442 1.07524 0
M  V30 139 N 13.3029 -1.57598 0.00835791 0
M  V30 140 C 14.5279 -1.95617 -0.689103 0
M  V30 141 C 14.9529 -0.883753 -1.66046 0
M  V30 142 O 14.3109 0.157352 -1.80616 0
M  V30 143 C 14.3589 -3.32736 -1.38994 0
M  V30 144 O 13.4629 -3.27631 -2.50463 0
M  V30 145 H 12.8039 -0.638379 -0.182668 0
M  V30 146 H 15.3339 -2.045 0.064036 0
M  V30 147 H 15.3439 -3.68494 -1.75147 0
M  V30 148 H 14.0189 -4.1034 -0.677778 0
M  V30 149 H 12.5959 -3.03561 -2.16576 0
M  V30 150 N 14.781 0.264519 -1.55364 0
M  V30 151 C 15.711 1.33121 -1.91836 0
M  V30 152 C 16.692 1.51101 -0.781192 0
M  V30 153 O 17.877 1.64003 -1.04003 0
M  V30 154 C 15.007 2.68921 -2.19769 0
M  V30 155 C 13.961 2.65661 -3.35571 0
M  V30 156 C 13.287 4.05093 -3.49004 0
M  V30 157 C 14.587 2.24187 -4.71739 0
M  V30 158 H 16.281 1.02844 -2.81182 0
M  V30 159 H 13.827 0.493286 -1.35287 0
M  V30 160 H 15.78 3.43663 -2.43872 0
M  V30 161 H 14.504 3.00799 -1.27231 0
M  V30 162 H 13.163 1.93377 -3.1145 0
M  V30 163 H 12.811 4.34206 -2.53917 0
M  V30 164 H 12.511 4.03804 -4.26868 0
M  V30 165 H 14.035 4.81561 -3.75408 0
M  V30 166 H 15.449 2.88654 -4.9533 0
M  V30 167 H 13.846 2.34044 -5.52579 0
M  V30 168 H 14.916 1.19327 -4.69988 0
M  V30 169 N 16.2591 1.48442 0.529413 0
M  V30 170 C 17.4871 1.60151 1.30994 0
M  V30 171 C 17.9021 0.261985 1.86973 0
M  V30 172 O 17.2591 -0.748805 1.66431 0
M  V30 173 C 17.3101 2.64854 2.46038 0
M  V30 174 O 17.0311 3.93608 1.92365 0
M  V30 175 C 18.5321 2.87007 3.37849 0
M  V30 176 H 15.7521 0.539971 0.398338 0
M  V30 177 H 18.2961 1.94273 0.638597 0
M  V30 178 H 16.4511 2.33589 3.09055 0
M  V30 179 H 16.8651 4.51055 2.67675 0
M  V30 180 H 18.3391 3.64068 4.14919 0
M  V30 181 H 18.8161 1.95852 3.93114 0
M  V30 182 H 19.4221 3.19579 2.80623 0
M  V30 183 N 17.7372 -0.778329 1.37039 0
M  V30 184 C 19.1482 -1.35421 1.28523 0
M  V30 185 C 19.4992 -1.96075 -0.0700901 0
M  V30 186 O 18.6242 -1.93352 -0.971801 0
M  V30 187 C 19.2192 -2.46211 2.32735 0
M  V30 188 C 17.7782 -2.99585 2.27873 0
M  V30 189 C 16.9252 -1.72748 2.16918 0
M  V30 190 H 19.8762 -0.5791 1.47757 0
M  V30 191 H 19.8972 -3.2552 1.9702 0
M  V30 192 H 19.4092 -2.02036 3.31365 0
M  V30 193 H 17.5102 -3.48152 1.32745 0
M  V30 194 H 17.6232 -3.55646 3.21018 0
M  V30 195 H 15.9872 -1.95416 1.63354 0
M  V30 196 H 16.7702 -1.30686 3.17452 0
M  V30 197 N 19.2153 -1.21501 -1.00376 0
M  V30 198 C 20.4923 -0.941745 -1.71437 0
M  V30 199 C 20.8723 0.546114 -2.03914 0
M  V30 200 O 20.2203 1.51128 -1.71384 0
M  V30 201 C 20.4303 -1.82812 -2.97289 0
M  V30 202 C 21.7783 -2.07771 -3.70292 0
M  V30 203 O 22.8023 -1.80171 -3.07273 0
M  V30 204 O 21.6613 -2.54456 -4.83647 0
M  V30 205 H 18.7553 -0.353243 -0.747762 0
M  V30 206 H 21.3013 -1.32436 -1.06108 0
M  V30 207 H 20.0733 -2.83501 -2.69709 0
M  V30 208 H 19.6963 -1.4464 -3.70358 0
M  V30 209 N 20.6934 1.19889 -1.02296 0
M  V30 210 C 21.9394 1.89701 -0.717033 0
M  V30 211 C 22.2724 1.7905 0.751989 0
M  V30 212 O 21.5474 1.17891 1.547 0
M  V30 213 C 21.8304 3.40858 -1.16136 0
M  V30 214 C 21.6834 3.60411 -2.69117 0
M  V30 215 C 23.0024 4.33876 -0.737549 0
M  V30 216 H 20.1214 0.688874 -0.261957 0
M  V30 217 H 22.7634 1.41154 -1.27183 0
M  V30 218 H 20.9134 3.82335 -0.689342 0
M  V30 219 H 22.5854 3.28145 -3.2422 0
M  V30 220 H 20.8284 3.03665 -3.0979 0
M  V30 221 H 21.4994 4.66396 -2.95261 0
M  V30 222 H 23.9754 4.00081 -1.14344 0
M  V30 223 H 22.8514 5.38242 -1.0764 0
M  V30 224 H 23.1124 4.40628 0.360436 0
M  V30 225 N 22.1715 0.800033 1.35784 0
M  V30 226 C 23.5875 0.482977 1.52117 0
M  V30 227 C 23.7875 -0.996948 1.75109 0
M  V30 228 O 22.8435 -1.78216 1.78872 0
M  V30 229 C 24.1565 1.32264 2.70049 0
M  V30 230 C 25.7045 1.31742 2.83924 0
M  V30 231 C 26.1795 2.14106 4.04874 0
M  V30 232 N 27.6705 2.11607 4.12039 0
M  V30 233 C 28.4055 2.72099 5.04727 0
M  V30 234 N 27.9015 3.41492 6.02789 0
M  V30 235 N 29.6945 2.61776 4.97423 0
M  V30 236 H 21.8455 1.75856 1.19115 0
M  V30 237 H 24.1085 0.748122 0.582252 0
M  V30 238 H 23.8145 2.37261 2.59616 0
M  V30 239 H 23.6885 0.971303 3.6448 0
M  V30 240 H 26.0755 0.275333 2.93813 0
M  V30 241 H 26.1565 1.70859 1.9037 0
M  V30 242 H 25.8005 3.18351 3.95746 0
M  V30 243 H 25.7305 1.72353 4.97596 0
M  V30 244 H 28.2215 1.61112 3.41835 0
M  V30 245 H 28.5345 3.84953 6.70098 0
M  V30 246 H 26.8795 3.45596 6.02983 0
M  V30 247 H 30.0705 2.07157 4.19766 0
M  V30 248 H 30.2435 3.0921 5.69468 0
M  V30 249 N 23.6496 -1.47581 0.552962 0
M  V30 250 C 24.5976 -2.31648 -0.21023 0
M  V30 251 C 25.5916 -1.42663 -0.913432 0
M  V30 252 O 26.7976 -1.5945 -0.835201 0
M  V30 253 H 23.1726 -0.746989 -0.0866676 0
M  V30 254 H 25.1436 -2.93869 0.518051 0
M  V30 255 C 23.8926 -3.25226 -1.22976 0
M  V30 256 H 23.2156 -3.93658 -0.698077 0
M  V30 257 H 24.6556 -3.86889 -1.73473 0
M  V30 258 C 23.1146 -2.48448 -2.27542 0
M  V30 259 O 23.6446 -2.22585 -3.34393 0
M  V30 260 N 21.8506 -2.09532 -2.01357 0
M  V30 261 H 21.3976 -2.30765 -1.14478 0
M  V30 262 H 21.3556 -1.58476 -2.71538 0
M  V30 263 N 25.1277 -0.289203 -1.54924 0
M  V30 264 C 26.3757 0.322879 -1.99504 0
M  V30 265 C 26.6967 1.55313 -1.1791 0
M  V30 266 O 25.9667 1.94001 -0.272097 0
M  V30 267 H 24.5467 0.122291 -0.736922 0
M  V30 268 H 27.2087 -0.397802 -1.90797 0
M  V30 269 H 26.3047 0.603061 -3.06218 0
M  V30 270 N 26.6058 1.57591 -0.0167156 0
M  V30 271 C 27.8548 1.90461 0.663877 0
M  V30 272 C 28.1678 0.893515 1.73999 0
M  V30 273 O 29.3738 1.11302 2.47637 0
M  V30 274 C 27.8298 3.38155 1.23204 0
M  V30 275 C 27.4378 4.47597 0.189866 0
M  V30 276 C 29.1818 3.80111 1.88986 0
M  V30 277 C 27.0888 5.86379 0.768964 0
M  V30 278 H 26.0188 0.710738 0.251729 0
M  V30 279 H 28.6698 1.83326 -0.0799926 0
M  V30 280 H 27.0518 3.40182 2.02712 0
M  V30 281 H 28.2258 4.57112 -0.581846 0
M  V30 282 H 26.5408 4.14766 -0.368475 0
M  V30 283 H 29.1378 4.81145 2.33247 0
M  V30 284 H 29.4808 3.14511 2.72743 0
M  V30 285 H 30.0138 3.80454 1.16187 0
M  V30 286 H 26.7528 6.55493 -0.0301957 0
M  V30 287 H 26.2728 5.80496 1.50945 0
M  V30 288 H 27.9518 6.34563 1.26251 0
M  V30 289 N 28.0839 -0.256276 1.55502 0
M  V30 290 C 29.3609 -1.00789 1.67633 0
M  V30 291 C 29.7409 -2.03706 0.553826 0
M  V30 292 O 29.0889 -2.24145 -0.443969 0
M  V30 293 C 29.2989 -1.64968 3.07549 0
M  V30 294 C 30.6469 -2.15505 3.65845 0
M  V30 295 O 31.6709 -1.74925 3.1029 0
M  V30 296 O 30.5299 -2.89986 4.63217 0
M  V30 297 H 27.6239 -0.468553 0.681459 0
M  V30 298 H 30.1699 -0.250806 1.67836 0
M  V30 299 H 28.9419 -0.904785 3.80696 0
M  V30 300 H 28.5649 -2.47321 3.11317 0
M  V30 301 N 29.562 -1.4872 -0.521534 0
M  V30 302 C 30.809 -1.57168 -1.27689 0
M  V30 303 C 31.137 -0.249275 -1.92896 0
M  V30 304 O 30.392 0.761162 -1.80291 0
M  V30 305 C 30.691 -2.66497 -2.38148 0
M  V30 306 C 30.357 -4.08664 -1.90538 0
M  V30 307 C 29.019 -4.47357 -1.77271 0
M  V30 308 C 31.371 -4.97724 -1.54663 0
M  V30 309 C 28.699 -5.72905 -1.26478 0
M  V30 310 C 31.051 -6.2377 -1.05329 0
M  V30 311 C 29.715 -6.61311 -0.906861 0
M  V30 312 H 28.985 -0.575117 -0.467249 0
M  V30 313 H 31.632 -1.82472 -0.581051 0
M  V30 314 H 29.937 -2.35085 -3.13437 0
M  V30 315 H 31.634 -2.70246 -2.96257 0
M  V30 316 H 28.224 -3.78111 -2.01816 0
M  V30 317 H 32.408 -4.68501 -1.63768 0
M  V30 318 H 27.664 -6.00709 -1.13835 0
M  V30 319 H 31.838 -6.9217 -0.76644 0
M  V30 320 H 29.465 -7.5848 -0.511083 0
M  V30 321 N 31.0401 0.771051 -1.3745 0
M  V30 322 C 31.9871 1.88435 -1.3327 0
M  V30 323 C 32.9571 1.64914 -0.198136 0
M  V30 324 O 34.1421 1.86821 -0.387606 0
M  V30 325 C 31.2821 3.25509 -1.14622 0
M  V30 326 C 30.3951 3.60979 -2.37314 0
M  V30 327 C 29.5301 4.87265 -2.11533 0
M  V30 328 C 28.5691 5.15469 -3.30088 0
M  V30 329 N 27.7061 6.32944 -3.03853 0
M  V30 330 H 32.5461 1.91344 -2.28455 0
M  V30 331 H 30.0831 0.935466 -1.13523 0
M  V30 332 H 32.0411 4.04582 -1.01831 0
M  V30 333 H 30.6711 3.21974 -0.230837 0
M  V30 334 H 29.7231 2.76885 -2.60842 0
M  V30 335 H 31.0351 3.77759 -3.25729 0
M  V30 336 H 30.1891 5.74244 -1.95777 0
M  V30 337 H 28.9281 4.7259 -1.20457 0
M  V30 338 H 27.9331 4.26966 -3.46382 0
M  V30 339 H 29.1581 5.32052 -4.22016 0
M  V30 340 H 27.1041 6.19625 -2.15407 0
M  V30 341 H 27.0211 6.50143 -3.85812 0
M  V30 342 H 28.2891 7.22857 -2.91716 0
M  V30 343 N 32.5182 1.22032 0.997298 0
M  V30 344 C 33.7672 1.03637 1.73038 0
M  V30 345 C 34.0802 -0.429475 1.90827 0
M  V30 346 O 35.2862 -0.732995 2.61418 0
M  V30 347 C 33.7422 1.80582 3.11317 0
M  V30 348 C 33.3502 3.31387 3.01474 0
M  V30 349 C 35.0942 1.70621 3.88701 0
M  V30 350 C 33.0012 4.00791 4.3488 0
M  V30 351 H 31.9312 0.384179 0.648785 0
M  V30 352 H 34.5822 1.4584 1.11368 0
M  V30 353 H 32.9642 1.31175 3.73643 0
M  V30 354 H 34.1382 3.88155 2.4834 0
M  V30 355 H 32.4532 3.41976 2.37575 0
M  V30 356 H 35.0502 2.19799 4.87434 0
M  V30 357 H 35.3932 0.665823 4.10941 0
M  V30 358 H 35.9262 2.17547 3.33044 0
M  V30 359 H 32.6652 5.05064 4.1784 0
M  V30 360 H 32.1852 3.48811 4.87945 0
M  V30 361 H 33.8642 4.06139 5.03647 0
M  V30 362 N 33.9963 -1.19345 1.0293 0
M  V30 363 C 34.9593 -2.20793 0.615069 0
M  V30 364 C 35.9593 -1.57553 -0.321533 0
M  V30 365 O 37.1493 -1.73862 -0.108483 0
M  V30 366 C 34.2813 -3.40754 -0.0999222 0
M  V30 367 H 35.4743 -2.58955 1.51269 0
M  V30 368 H 33.0273 -1.3303 0.820534 0
M  V30 369 H 33.7623 -3.0811 -1.01187 0
M  V30 370 H 33.5473 -3.87889 0.57309 0
M  V30 371 H 35.0373 -4.15898 -0.376645 0
M  V30 372 N 35.4744 -0.807222 -1.35358 0
M  V30 373 C 36.7514 -0.311126 -1.9311 0
M  V30 374 C 37.1314 1.19937 -1.73719 0
M  V30 375 O 36.4794 1.99918 -1.10657 0
M  V30 376 C 36.6894 -0.723226 -3.41424 0
M  V30 377 C 38.0374 -0.713078 -4.18569 0
M  V30 378 O 39.0614 -0.664811 -3.49941 0
M  V30 379 O 37.9204 -0.772022 -5.41019 0
M  V30 380 H 35.0144 -0.081526 -0.822972 0
M  V30 381 H 37.5604 -0.890962 -1.4443 0
M  V30 382 H 36.3324 -1.76426 -3.4927 0
M  V30 383 H 35.9554 -0.118232 -3.97424 0
M  V30 384 N 36.9525 1.47285 -0.560781 0
M  V30 385 C 37.8825 2.32857 0.173105 0
M  V30 386 C 38.8635 1.44009 0.905281 0
M  V30 387 O 40.0485 1.7286 0.885046 0
M  V30 388 C 37.1785 3.25861 1.20133 0
M  V30 389 C 36.1325 4.23978 0.585388 0
M  V30 390 C 35.4585 5.06332 1.7185 0
M  V30 391 C 36.7585 5.20242 -0.463178 0
M  V30 392 H 38.4525 2.94466 -0.541307 0
M  V30 393 H 35.9985 1.41601 -0.261764 0
M  V30 394 H 37.9515 3.84569 1.72293 0
M  V30 395 H 36.6755 2.62315 1.94573 0
M  V30 396 H 35.3345 3.66501 0.085054 0
M  V30 397 H 34.9825 4.39186 2.45203 0
M  V30 398 H 34.6825 5.72762 1.31213 0
M  V30 399 H 36.2065 5.67899 2.24329 0
M  V30 400 H 37.6205 5.73293 -0.027502 0
M  V30 401 H 36.0175 5.94896 -0.788627 0
M  V30 402 H 37.0875 4.65504 -1.35773 0
M  V30 403 N 38.4306 0.297415 1.54768 0
M  V30 404 C 39.6556 -0.318435 2.04941 0
M  V30 405 C 40.0806 -1.4701 1.17345 0
M  V30 406 O 39.4386 -1.80436 0.176758 0
M  V30 407 C 39.4866 -0.755749 3.52592 0
M  V30 408 O 38.5906 -1.86088 3.68028 0
M  V30 409 H 37.9316 -0.062421 0.661059 0
M  V30 410 H 40.4616 0.438215 1.99852 0
M  V30 411 H 40.4716 -1.04552 3.94376 0
M  V30 412 H 39.1466 0.0867233 4.1581 0
M  V30 413 H 37.7236 -1.57193 3.38149 0
M  V30 414 N 39.9087 -1.5758 0.0250728 0
M  V30 415 C 40.8387 -2.13007 -0.956575 0
M  V30 416 C 41.8197 -1.0452 -1.342 0
M  V30 417 O 43.0047 -1.32332 -1.42133 0
M  V30 418 C 40.1347 -2.65386 -2.24026 0
M  V30 419 C 39.0887 -3.78623 -1.99571 0
M  V30 420 C 38.4147 -4.17414 -3.3417 0
M  V30 421 C 39.7147 -5.04867 -1.33814 0
M  V30 422 H 41.4087 -2.9528 -0.494991 0
M  V30 423 H 38.9547 -1.42042 -0.236651 0
M  V30 424 H 40.9077 -3.02794 -2.93076 0
M  V30 425 H 39.6317 -1.80268 -2.72343 0
M  V30 426 H 38.2907 -3.41646 -1.32941 0
M  V30 427 H 37.9387 -3.29284 -3.80238 0
M  V30 428 H 37.6387 -4.93719 -3.18615 0
M  V30 429 H 39.1627 -4.57402 -4.04495 0
M  V30 430 H 40.5767 -5.39888 -1.92857 0
M  V30 431 H 38.9737 -5.86144 -1.28669 0
M  V30 432 H 40.0437 -4.83904 -0.310561 0
M  V30 433 N 41.3868 0.248026 -1.55636 0
M  V30 434 C 42.3498 1.29044 -1.89421 0
M  V30 435 C 43.3498 1.41134 -0.770581 0
M  V30 436 O 44.5398 1.39854 -1.03858 0
M  V30 437 C 41.6718 2.66831 -2.12165 0
M  V30 438 H 42.8648 1.00305 -2.82629 0
M  V30 439 H 40.4178 0.487265 -1.48511 0
M  V30 440 H 41.1528 3.00711 -1.21422 0
M  V30 441 H 40.9378 2.59438 -2.93997 0
M  V30 442 H 42.4278 3.42103 -2.3949 0
M  V30 443 N 42.8649 1.48995 0.513639 0
M  V30 444 C 44.1419 1.48338 1.27495 0
M  V30 445 C 44.5219 0.204065 2.10111 0
M  V30 446 O 43.8699 -0.813881 2.13514 0
M  V30 447 C 44.0799 2.75498 2.14247 0
M  V30 448 C 45.4279 3.24484 2.73852 0
M  V30 449 O 46.4519 2.76528 2.24523 0
M  V30 450 O 45.3109 4.07974 3.6362 0
M  V30 451 H 42.4049 0.593149 0.576284 0
M  V30 452 H 44.9509 1.61246 0.528948 0
M  V30 453 H 43.7229 3.60109 1.53092 0
M  V30 454 H 43.3459 2.6539 2.96064 0
M  V30 455 N 44.343 -0.763751 1.37857 0
M  V30 456 C 45.59 -1.52257 1.33506 0
M  V30 457 C 45.918 -1.94343 -0.078022 0
M  V30 458 O 45.173 -1.64958 -1.05297 0
M  V30 459 C 45.472 -2.79499 2.22745 0
M  V30 460 C 45.138 -2.56426 3.70886 0
M  V30 461 C 43.8 -2.49842 4.11257 0
M  V30 462 C 46.152 -2.36008 4.64704 0
M  V30 463 C 43.48 -2.20841 5.43549 0
M  V30 464 C 45.832 -2.0853 5.97242 0
M  V30 465 C 44.496 -2.00396 6.36709 0
M  V30 466 H 43.766 -0.557149 0.488534 0
M  V30 467 H 46.413 -0.879073 1.70131 0
M  V30 468 H 44.718 -3.48447 1.79142 0
M  V30 469 H 46.415 -3.37413 2.16688 0
M  V30 470 H 43.005 -2.62416 3.38874 0
M  V30 471 H 47.189 -2.40079 4.34368 0
M  V30 472 H 42.445 -2.13045 5.73081 0
M  V30 473 H 46.619 -1.91732 6.69486 0
M  V30 474 H 44.246 -1.77688 7.39142 0
M  V30 475 N 45.8211 -1.22559 -0.990812 0
M  V30 476 C 47.0691 -1.04933 -1.72724 0
M  V30 477 C 47.3901 0.416158 -1.90508 0
M  V30 478 O 46.6601 1.29918 -1.46622 0
M  V30 479 H 45.2401 -0.385296 -0.639965 0
M  V30 480 H 47.9021 -1.54105 -1.19322 0
M  V30 481 H 46.9981 -1.52886 -2.72089 0
M  V30 482 N 47.2992 1.18797 -1.03562 0
M  V30 483 C 48.7152 1.40671 -0.753917 0
M  V30 484 C 48.9152 1.9043 0.658686 0
M  V30 485 O 47.9712 2.08538 1.42366 0
M  V30 486 C 49.2842 2.41192 -1.79574 0
M  V30 487 C 50.8322 2.54928 -1.81606 0
M  V30 488 C 51.3072 3.58709 -2.84766 0
M  V30 489 N 52.7982 3.66212 -2.83625 0
M  V30 490 C 53.5332 4.46225 -3.60098 0
M  V30 491 N 53.0292 5.29888 -4.46308 0
M  V30 492 N 54.8222 4.40939 -3.4861 0
M  V30 493 H 46.9732 0.848221 -1.94728 0
M  V30 494 H 49.2362 0.435081 -0.842264 0
M  V30 495 H 48.9422 2.11669 -2.80872 0
M  V30 496 H 48.8162 3.40467 -1.62365 0
M  V30 497 H 51.2032 2.83771 -0.809817 0
M  V30 498 H 51.2842 1.55784 -2.02891 0
M  V30 499 H 50.9282 3.30607 -3.85566 0
M  V30 500 H 50.8582 4.57519 -2.60737 0
M  V30 501 H 53.3492 3.06466 -2.21105 0
M  V30 502 H 53.6622 5.88078 -5.01382 0
M  V30 503 H 52.0072 5.29326 -4.50377 0
M  V30 504 H 55.1982 3.74624 -2.80668 0
M  V30 505 H 55.3712 5.03056 -4.08459 0
M  V30 506 N 48.7773 0.814389 1.34928 0
M  V30 507 C 49.7243 0.22822 2.29669 0
M  V30 508 C 50.6943 -0.642164 1.53184 0
M  V30 509 O 51.8793 -0.585605 1.81591 0
M  V30 510 C 49.0193 -0.61089 3.3965 0
M  V30 511 C 48.1323 0.280792 4.31086 0
M  V30 512 C 47.2673 -0.567067 5.28165 0
M  V30 513 C 46.3063 0.324531 6.11239 0
M  V30 514 N 45.4433 -0.483756 7.00431 0
M  V30 515 H 50.2833 1.04153 2.79206 0
M  V30 516 H 47.8203 0.525133 1.37407 0
M  V30 517 H 49.7783 -1.11263 4.0209 0
M  V30 518 H 48.4083 -1.38939 2.91369 0
M  V30 519 H 47.4603 0.900688 3.69583 0
M  V30 520 H 48.7723 0.966723 4.89342 0
M  V30 521 H 47.9263 -1.13363 5.96015 0
M  V30 522 H 46.6653 -1.28654 4.70425 0
M  V30 523 H 45.6703 0.903298 5.42329 0
M  V30 524 H 46.8953 1.04198 6.71059 0
M  V30 525 H 44.8413 -1.18706 6.45171 0
M  V30 526 H 44.7583 0.143965 7.55863 0
M  V30 527 H 46.0263 -1.03334 7.7262 0
M  V30 528 N 50.2554 -1.46986 0.568584 0
M  V30 529 C 51.1654 -2.33942 -0.17555 0
M  V30 530 C 52.1814 -1.48891 -0.90041 0
M  V30 531 O 53.3574 -1.81794 -0.86676 0
M  V30 532 C 50.4224 -3.25811 -1.18524 0
M  V30 533 C 49.4834 -4.26757 -0.466582 0
M  V30 534 C 48.7164 -5.14236 -1.42817 0
M  V30 535 O 48.9394 -5.04379 -2.66379 0
M  V30 536 O 47.8734 -5.94412 -0.946453 0
M  V30 537 H 51.6994 -2.98896 0.538036 0
M  V30 538 H 49.2844 -1.4573 0.329097 0
M  V30 539 H 51.1664 -3.82527 -1.76779 0
M  V30 540 H 49.8414 -2.63471 -1.88055 0
M  V30 541 H 48.7484 -3.73769 0.157451 0
M  V30 542 H 50.0814 -4.91843 0.187485 0
M  V30 543 N 51.7335 -0.305618 -1.54608 0
M  V30 544 C 52.6635 0.561482 -2.26649 0
M  V30 545 C 53.6445 1.13415 -1.26772 0
M  V30 546 O 54.8295 1.16262 -1.55553 0
M  V30 547 C 51.9595 1.73122 -3.01075 0
M  V30 548 C 50.9135 1.2887 -4.08138 0
M  V30 549 C 50.2395 2.54396 -4.70305 0
M  V30 550 C 51.5395 0.416578 -5.20636 0
M  V30 551 H 53.2335 -0.0393902 -2.99374 0
M  V30 552 H 50.7795 -0.020385 -1.43986 0
M  V30 553 H 52.7325 2.34396 -3.50195 0
M  V30 554 H 51.4565 2.3584 -2.25936 0
M  V30 555 H 50.1155 0.698991 -3.59875 0
M  V30 556 H 49.7635 3.15439 -3.918 0
M  V30 557 H 49.4635 2.25486 -5.42614 0
M  V30 558 H 50.9875 3.16464 -5.2219 0
M  V30 559 H 52.4015 0.935116 -5.65622 0
M  V30 560 H 50.7985 0.221046 -5.99693 0
M  V30 561 H 51.8685 -0.557162 -4.81688 0
M  V30 562 N 53.2116 1.57565 -0.0334293 0
M  V30 563 C 54.6276 1.56297 0.322997 0
M  V30 564 C 54.8276 1.03945 1.7262 0
M  V30 565 O 53.8836 0.688109 2.42943 0
M  V30 566 C 55.1966 3.00232 0.167664 0
M  V30 567 C 56.7446 3.12078 0.240107 0
M  V30 568 C 57.2196 4.57859 0.113513 0
M  V30 569 N 58.7106 4.62887 0.170359 0
M  V30 570 C 59.4456 5.73319 0.0962517 0
M  V30 571 N 58.9416 6.92794 -0.0291881 0
M  V30 572 N 60.7346 5.61898 0.150551 0
M  V30 573 H 52.8856 1.89923 -0.950956 0
M  V30 574 H 55.1486 0.873824 -0.367608 0
M  V30 575 H 54.8546 3.42501 -0.799102 0
M  V30 576 H 54.7286 3.654 0.936083 0
M  V30 577 H 57.1156 2.69718 1.19733 0
M  V30 578 H 57.1966 2.49623 -0.558763 0
M  V30 579 H 56.8406 5.009 -0.840314 0
M  V30 580 H 56.7706 5.18299 0.931302 0
M  V30 581 H 59.2616 3.76954 0.26728 0
M  V30 582 H 59.5746 7.7276 -0.0789252 0
M  V30 583 H 57.9196 6.94971 -0.0640299 0
M  V30 584 H 61.1106 4.67448 0.246981 0
M  V30 585 H 61.2836 6.47938 0.0893365 0
M  V30 586 N 54.6897 -0.239769 1.55765 0
M  V30 587 C 55.9387 -0.964754 1.77131 0
M  V30 588 C 56.2517 -1.86213 0.59868 0
M  V30 589 O 57.4577 -2.6244 0.695522 0
M  V30 590 C 55.9137 -1.76552 3.1362 0
M  V30 591 C 55.5217 -0.915185 4.38553 0
M  V30 592 C 57.2657 -2.48281 3.44321 0
M  V30 593 C 55.1727 -1.71225 5.66071 0
M  V30 594 H 54.1027 -0.363953 0.660344 0
M  V30 595 H 56.7537 -0.219181 1.82186 0
M  V30 596 H 55.1357 -2.55331 3.02691 0
M  V30 597 H 56.3097 -0.169217 4.60489 0
M  V30 598 H 54.6247 -0.310889 4.15238 0
M  V30 599 H 57.2217 -3.08382 4.36812 0
M  V30 600 H 57.5647 -3.20256 2.65973 0
M  V30 601 H 58.0977 -1.76507 3.56497 0
M  V30 602 H 54.8367 -1.03612 6.4726 0
M  V30 603 H 54.3567 -2.43331 5.48224 0
M  V30 604 H 56.0357 -2.27758 6.05587 0
M  V30 605 N 56.1678 -1.49265 -0.50573 0
M  V30 606 C 57.1308 -1.65075 -1.59006 0
M  V30 607 C 58.1308 -0.522768 -1.52065 0
M  V30 608 O 59.3208 -0.789117 -1.55302 0
M  V30 609 C 56.4528 -1.64369 -2.98656 0
M  V30 610 H 57.6458 -2.61784 -1.46319 0
M  V30 611 H 55.1988 -1.38226 -0.729616 0
M  V30 612 H 55.9338 -0.692272 -3.16825 0
M  V30 613 H 55.7188 -2.46282 -3.05103 0
M  V30 614 H 57.2088 -1.78674 -3.77446 0
M  V30 615 N 57.6459 0.756429 -1.3826 0
M  V30 616 C 58.5559 1.9009 -1.37488 0
M  V30 617 C 59.5719 1.71855 -0.272366 0
M  V30 618 O 60.7479 1.94827 -0.510318 0
M  V30 619 C 57.8129 3.25421 -1.19592 0
M  V30 620 C 56.8739 3.56202 -2.39622 0
M  V30 621 C 56.1069 4.85075 -2.2257 0
M  V30 622 O 56.3299 5.57246 -1.21793 0
M  V30 623 O 55.2639 5.15269 -3.11098 0
M  V30 624 H 59.0899 1.93695 -2.33914 0
M  V30 625 H 56.6749 0.901313 -1.1915 0
M  V30 626 H 58.5569 4.06337 -1.11661 0
M  V30 627 H 57.2319 3.22634 -0.262486 0
M  V30 628 H 56.1389 2.75458 -2.53128 0
M  V30 629 H 57.4719 3.63747 -3.31586 0
M  V30 630 N 59.124 1.23083 0.984299 0
M  V30 631 C 60.074 0.975749 2.06066 0
M  V30 632 C 61.058 -0.0768251 1.60716 0
M  V30 633 O 62.25 0.134805 1.76486 0
M  V30 634 C 59.379 0.564673 3.38624 0
M  V30 635 C 58.465 1.65244 3.90583 0
M  V30 636 N 58.856 2.88193 4.15666 0
M  V30 637 C 57.154 1.52612 4.19077 0
M  V30 638 C 57.855 3.58593 4.58024 0
M  V30 639 N 56.831 2.86093 4.62225 0
M  V30 640 H 60.633 1.90957 2.23411 0
M  V30 641 H 58.147 1.12963 1.16675 0
M  V30 642 H 60.144 0.36322 4.15315 0
M  V30 643 H 58.804 -0.362147 3.22674 0
M  V30 644 H 59.815 3.24537 4.03604 0
M  V30 645 H 56.492 0.666121 4.12152 0
M  V30 646 H 57.882 4.63974 4.85982 0
M  V30 647 N 60.6021 -1.18246 1.0419 0
M  V30 648 C 61.5121 -2.25574 0.644476 0
M  V30 649 C 62.5281 -1.70845 -0.329826 0
M  V30 650 O 63.7041 -2.00554 -0.184443 0
M  V30 651 C 60.7691 -3.46697 0.014877 0
M  V30 652 C 59.8301 -4.16554 1.03834 0
M  V30 653 C 59.0631 -5.31894 0.438692 0
M  V30 654 O 59.2861 -5.65385 -0.754752 0
M  V30 655 O 58.2201 -5.90459 1.168 0
M  V30 656 H 62.0461 -2.61836 1.53869 0
M  V30 657 H 59.6311 -1.25352 0.812854 0
M  V30 658 H 61.5131 -4.20062 -0.335538 0
M  V30 659 H 60.1881 -3.12255 -0.853138 0
M  V30 660 H 59.0951 -3.45251 1.44057 0
M  V30 661 H 60.4281 -4.54998 1.87716 0
M  V30 662 N 62.0802 -0.821533 -1.34494 0
M  V30 663 C 63.0132 -0.187704 -2.27427 0
M  V30 664 C 63.9912 0.65507 -1.48821 0
M  V30 665 O 65.1752 0.619111 -1.78043 0
M  V30 666 C 62.3022 0.737996 -3.30562 0
M  V30 667 C 61.3482 -0.0270713 -4.26491 0
M  V30 668 S 62.1812 -1.37329 -5.17592 0
M  V30 669 C 63.3372 -0.452427 -6.24263 0
M  V30 670 H 63.5702 -0.975598 -2.80837 0
M  V30 671 H 61.1032 -0.61736 -1.4152 0
M  V30 672 H 63.0612 1.26654 -3.90473 0
M  V30 673 H 61.7222 1.4994 -2.76001 0
M  V30 674 H 60.9152 0.6766 -4.99438 0
M  V30 675 H 60.5172 -0.48612 -3.70827 0
M  V30 676 H 62.8092 0.356557 -6.76561 0
M  V30 677 H 63.7522 -1.15153 -6.98674 0
M  V30 678 H 64.1602 -0.0414755 -5.64485 0
M  V30 679 N 63.5583 1.46682 -0.576371 0
M  V30 680 C 64.9693 1.86112 -0.148091 0
M  V30 681 C 65.3203 1.48073 1.2872 0
M  V30 682 O 64.4453 0.892656 1.97131 0
M  V30 683 C 65.0403 3.37786 -0.261982 0
M  V30 684 C 63.5993 3.76235 0.111384 0
M  V30 685 C 62.7463 2.70713 -0.60083 0
M  V30 686 H 65.6973 1.37927 -0.78497 0
M  V30 687 H 65.7183 3.77007 0.514364 0
M  V30 688 H 65.2303 3.6544 -1.30671 0
M  V30 689 H 63.3313 3.54198 1.15649 0
M  V30 690 H 63.4443 4.78391 -0.26052 0
M  V30 691 H 61.8083 2.54666 -0.0417783 0
M  V30 692 H 62.5913 3.01208 -1.64708 0
M  V30 693 N 65.0364 0.313813 1.54444 0
M  V30 694 C 66.2844 -0.291099 1.99993 0
M  V30 695 C 66.6054 -1.53418 1.20366 0
M  V30 696 O 65.8754 -1.93544 0.302927 0
M  V30 697 H 64.4554 -0.110552 0.738774 0
M  V30 698 H 67.1174 0.428106 1.9014 0
M  V30 699 H 66.2134 -0.554268 3.07139 0
M  V30 700 N 66.5145 -1.57545 0.0417849 0
M  V30 701 C 67.4445 -2.14009 -0.933929 0
M  V30 702 C 68.4255 -1.05938 -1.33083 0
M  V30 703 O 69.6105 -1.33833 -1.40721 0
M  V30 704 C 66.7405 -2.67747 -2.21199 0
M  V30 705 C 65.6945 -3.80718 -1.95544 0
M  V30 706 C 65.0205 -4.20935 -3.29724 0
M  V30 707 C 66.3205 -5.06258 -1.28452 0
M  V30 708 H 68.0145 -2.95788 -0.463645 0
M  V30 709 H 65.5605 -1.42285 -0.221573 0
M  V30 710 H 67.5135 -3.05886 -2.89848 0
M  V30 711 H 66.2375 -1.83147 -2.70416 0
M  V30 712 H 64.8965 -3.43037 -1.2931 0
M  V30 713 H 64.5445 -3.33298 -3.76724 0
M  V30 714 H 64.2445 -4.9707 -3.13361 0
M  V30 715 H 65.7685 -4.61666 -3.9962 0
M  V30 716 H 67.1825 -5.41903 -1.8712 0
M  V30 717 H 65.5795 -5.87475 -1.22445 0
M  V30 718 H 66.6495 -4.84207 -0.259219 0
M  V30 719 N 67.9926 0.231505 -1.5589 0
M  V30 720 C 68.9256 1.31369 -1.86595 0
M  V30 721 C 69.9036 1.45671 -0.722397 0
M  V30 722 O 71.0876 1.61642 -0.969743 0
M  V30 723 C 68.2146 2.68529 -2.06421 0
M  V30 724 C 67.2606 2.71295 -3.29092 0
M  V30 725 S 68.0936 2.26358 -4.85306 0
M  V30 726 C 69.2496 3.65414 -5.08157 0
M  V30 727 H 69.4826 1.05128 -2.78092 0
M  V30 728 H 67.0156 0.433259 -1.48197 0
M  V30 729 H 68.9736 3.47499 -2.18528 0
M  V30 730 H 67.6346 2.91999 -1.15738 0
M  V30 731 H 66.8276 3.72063 -3.39978 0
M  V30 732 H 66.4296 2.0038 -3.15791 0
M  V30 733 H 68.7216 4.6103 -4.96445 0
M  V30 734 H 69.6646 3.5945 -6.10083 0
M  V30 735 H 70.0726 3.5864 -4.35933 0
M  V30 736 N 69.4707 1.49531 0.497807 0
M  V30 737 C 70.6957 1.63159 1.28039 0
M  V30 738 C 71.1207 0.30418 1.85624 0
M  V30 739 O 70.4787 -0.728618 1.66015 0
M  V30 740 C 70.5267 2.70537 2.38416 0
M  V30 741 O 69.6307 2.29931 3.42353 0
M  V30 742 H 68.9717 0.546001 0.377861 0
M  V30 743 H 71.5017 1.9574 0.59558 0
M  V30 744 H 71.5117 2.92802 2.84132 0
M  V30 745 H 70.1867 3.6689 1.95869 0
M  V30 746 H 68.7637 2.18009 3.02533 0
M  V30 747 N 70.9488 -0.749086 1.3866 0
M  V30 748 C 71.8788 -1.8764 1.38973 0
M  V30 749 C 72.8598 -1.68178 0.255004 0
M  V30 750 O 74.0448 -1.88704 0.458754 0
M  V30 751 C 71.1748 -3.25222 1.21851 0
M  V30 752 C 70.1288 -3.59295 2.32575 0
M  V30 753 C 69.4548 -4.95663 2.00555 0
M  V30 754 C 70.7548 -3.63709 3.7485 0
M  V30 755 H 72.4488 -1.87635 2.3331 0
M  V30 756 H 69.9948 -0.901329 1.12303 0
M  V30 757 H 71.9478 -4.03746 1.20695 0
M  V30 758 H 70.6718 -3.25719 0.239775 0
M  V30 759 H 69.3308 -2.83093 2.32925 0
M  V30 760 H 68.9788 -4.92724 1.01154 0
M  V30 761 H 68.6788 -5.19429 2.74714 0
M  V30 762 H 70.2028 -5.7656 2.01024 0
M  V30 763 H 71.6168 -4.32338 3.76506 0
M  V30 764 H 70.0138 -3.98986 4.48252 0
M  V30 765 H 71.0838 -2.63834 4.06841 0
M  V30 766 N 72.4269 -1.23603 -0.977757 0
M  V30 767 C 73.8429 -0.999251 -1.24447 0
M  V30 768 C 74.0429 0.298053 -1.99283 0
M  V30 769 O 73.0989 1.01681 -2.31122 0
M  V30 770 C 74.4119 -2.20784 -2.04144 0
M  V30 771 C 75.9599 -2.25303 -2.17273 0
M  V30 772 C 76.4349 -3.45755 -3.00362 0
M  V30 773 N 77.9259 -3.4601 -3.07947 0
M  V30 774 C 78.6609 -4.35868 -3.72568 0
M  V30 775 N 78.1569 -5.35966 -4.38991 0
M  V30 776 N 79.9499 -4.23605 -3.6948 0
M  V30 777 H 72.1009 -2.06986 -0.476483 0
M  V30 778 H 74.3639 -0.907801 -0.273134 0
M  V30 779 H 74.0699 -3.14945 -1.56533 0
M  V30 780 H 73.9439 -2.22085 -3.04891 0
M  V30 781 H 76.3309 -1.3168 -2.64092 0
M  V30 782 H 76.4119 -2.28033 -1.15907 0
M  V30 783 H 76.0559 -4.39687 -2.5424 0
M  V30 784 H 75.9859 -3.40266 -4.01904 0
M  V30 785 H 78.4769 -2.73588 -2.60688 0
M  V30 786 H 78.7899 -6.00783 -4.86086 0
M  V30 787 H 77.1349 -5.39863 -4.37691 0
M  V30 788 H 80.3259 -3.44647 -3.16759 0
M  V30 789 H 80.4989 -4.93836 -4.1956 0
M  V30 790 N 73.905 1.17692 -1.04816 0
M  V30 791 C 75.321 1.39863 -0.768794 0
M  V30 792 C 75.521 1.91118 0.638451 0
M  V30 793 O 74.577 2.10036 1.40146 0
M  V30 794 C 75.89 2.39274 -1.82122 0
M  V30 795 C 77.438 2.52987 -1.843 0
M  V30 796 C 77.913 3.55669 -2.88555 0
M  V30 797 N 79.404 3.63183 -2.87493 0
M  V30 798 C 80.139 4.42381 -3.64811 0
M  V30 799 N 79.635 5.25125 -4.51903 0
M  V30 800 N 81.428 4.37217 -3.53267 0
M  V30 801 H 73.579 0.82752 -1.95617 0
M  V30 802 H 75.842 0.426123 -0.846831 0
M  V30 803 H 75.548 2.08678 -2.83102 0
M  V30 804 H 75.422 3.38725 -1.65967 0
M  V30 805 H 77.809 2.82896 -0.839869 0
M  V30 806 H 77.89 1.53623 -2.04532 0
M  V30 807 H 77.534 3.26499 -3.89051 0
M  V30 808 H 77.464 4.54728 -2.65575 0
M  V30 809 H 79.955 3.04103 -2.24343 0
M  V30 810 H 80.268 5.82728 -5.07591 0
M  V30 811 H 78.613 5.24519 -4.55966 0
M  V30 812 H 81.804 3.71626 -2.84625 0
M  V30 813 H 81.977 4.98696 -4.13771 0
M  V30 814 N 75.3831 0.828654 1.34056 0
M  V30 815 C 76.2931 0.256725 2.33191 0
M  V30 816 C 77.3091 -0.611898 1.62886 0
M  V30 817 O 78.4851 -0.51844 1.94613 0
M  V30 818 C 75.5501 -0.567238 3.42028 0
M  V30 819 C 74.6111 0.324458 4.28072 0
M  V30 820 C 73.8441 -0.460274 5.31712 0
M  V30 821 O 74.0671 -1.693 5.44696 0
M  V30 822 O 73.0011 0.160391 6.01686 0
M  V30 823 H 76.8271 1.07739 2.83947 0
M  V30 824 H 74.4121 0.59093 1.37217 0
M  V30 825 H 76.2941 -1.03582 4.08471 0
M  V30 826 H 74.9691 -1.36513 2.93506 0
M  V30 827 H 73.8761 0.840659 3.64532 0
M  V30 828 H 75.2091 1.08685 4.8005 0
M  V30 829 N 76.8612 -1.46375 0.584142 0
M  V30 830 C 78.0912 -2.06461 0.0758195 0
M  V30 831 C 78.4992 -1.43322 -1.23512 0
M  V30 832 O 77.8422 -0.533216 -1.75791 0
M  V30 833 C 77.9042 -3.59131 -0.162773 0
M  V30 834 C 77.5682 -4.4447 1.06279 0
M  V30 835 C 78.5652 -4.80918 1.97519 0
M  V30 836 C 76.2502 -4.85584 1.28504 0
M  V30 837 C 78.2442 -5.57309 3.09331 0
M  V30 838 C 75.9312 -5.61734 2.4062 0
M  V30 839 C 76.9292 -5.9751 3.30863 0
M  V30 840 O 76.6172 -6.72121 4.41032 0
M  V30 841 H 76.3492 -0.673745 0.0551725 0
M  V30 842 H 78.9032 -1.88969 0.804984 0
M  V30 843 H 77.1332 -3.74936 -0.946565 0
M  V30 844 H 78.8222 -4.0114 -0.619782 0
M  V30 845 H 79.5882 -4.49732 1.81565 0
M  V30 846 H 75.4672 -4.57187 0.591702 0
M  V30 847 H 79.0112 -5.85152 3.79793 0
M  V30 848 H 74.9082 -5.92334 2.56537 0
M  V30 849 H 75.6762 -6.90547 4.39417 0
M  V30 850 N 78.3393 -0.321999 -1.54275 0
M  V30 851 C 79.3023 0.531975 -2.22941 0
M  V30 852 C 80.3023 1.04478 -1.22234 0
M  V30 853 O 81.4923 0.937452 -1.46825 0
M  V30 854 C 78.6243 1.73874 -2.93224 0
M  V30 855 H 79.8173 -0.0682612 -2.99822 0
M  V30 856 H 77.3703 -0.0730644 -1.56129 0
M  V30 857 H 78.1053 2.37825 -2.20476 0
M  V30 858 H 77.8903 1.37847 -3.6707 0
M  V30 859 H 79.3803 2.34496 -3.45545 0
M  V30 860 N 79.8174 1.5752 -0.0501392 0
M  V30 861 C 80.7274 2.14952 0.939827 0
M  V30 862 C 81.7434 1.10706 1.34239 0
M  V30 863 O 82.9194 1.42869 1.41952 0
M  V30 864 C 79.9844 2.68232 2.19665 0
M  V30 865 C 79.0454 3.87272 1.85253 0
M  V30 866 C 78.2784 4.38002 3.04943 0
M  V30 867 O 78.5014 3.87811 4.18281 0
M  V30 868 O 77.4354 5.29602 2.86017 0
M  V30 869 H 81.2614 2.9986 0.481392 0
M  V30 870 H 78.8464 1.4841 0.171699 0
M  V30 871 H 80.7284 3.02475 2.93406 0
M  V30 872 H 79.4034 1.86395 2.64648 0
M  V30 873 H 78.3104 3.5792 1.0883 0
M  V30 874 H 79.6434 4.70336 1.4507 0
M  V30 875 N 81.2955 -0.223234 1.56011 0
M  V30 876 C 82.5415 -0.949279 1.79211 0
M  V30 877 C 82.8745 -1.84054 0.619494 0
M  V30 878 O 82.1495 -1.90726 -0.381317 0
M  V30 879 C 82.4325 -1.78965 3.12479 0
M  V30 880 C 82.2855 -0.924997 4.40186 0
M  V30 881 C 83.6045 -2.76774 3.42175 0
M  V30 882 H 80.7235 -0.343676 0.651963 0
M  V30 883 H 83.3655 -0.218253 1.88742 0
M  V30 884 H 81.5155 -2.41291 3.04485 0
M  V30 885 H 83.1875 -0.318615 4.60198 0
M  V30 886 H 81.4305 -0.230344 4.33188 0
M  V30 887 H 82.1015 -1.54735 5.29869 0
M  V30 888 H 84.5775 -2.24584 3.50287 0
M  V30 889 H 83.4535 -3.32678 4.36597 0
M  V30 890 H 83.7145 -3.54429 2.64258 0
M  V30 891 N 82.7736 -1.49793 -0.48987 0
M  V30 892 C 83.7056 -1.63413 -1.60713 0
M  V30 893 C 84.7186 -0.516329 -1.54395 0
M  V30 894 O 85.9076 -0.788812 -1.60125 0
M  V30 895 C 83.0076 -1.58516 -2.99543 0
M  V30 896 C 82.1806 -2.86016 -3.30928 0
M  V30 897 C 81.2396 -2.74018 -4.49222 0
M  V30 898 O 80.2656 -3.47964 -4.50455 0
M  V30 899 N 81.4676 -1.86309 -5.4979 0
M  V30 900 H 84.2326 -2.59777 -1.49452 0
M  V30 901 H 81.7936 -1.47022 -0.677955 0
M  V30 902 H 83.7856 -1.48128 -3.76617 0
M  V30 903 H 82.3556 -0.69965 -3.0467 0
M  V30 904 H 81.5756 -3.10672 -2.42645 0
M  V30 905 H 82.8636 -3.70521 -3.487 0
M  V30 906 H 82.2616 -1.2551 -5.51601 0
M  V30 907 H 80.8186 -1.81837 -6.25922 0
M  V30 908 N 84.2517 0.741722 -1.39055 0
M  V30 909 C 85.6627 1.31966 -1.32068 0
M  V30 910 C 86.0137 1.96192 0.0180797 0
M  V30 911 O 85.1387 1.95861 0.920196 0
M  V30 912 C 85.7337 2.39954 -2.39181 0
M  V30 913 C 84.2927 2.93438 -2.35735 0
M  V30 914 C 83.4397 1.66936 -2.21422 0
M  V30 915 H 86.3907 0.539721 -1.4924 0
M  V30 916 H 86.4117 3.20182 -2.05581 0
M  V30 917 H 85.9237 1.9318 -3.36605 0
M  V30 918 H 84.0247 3.4451 -1.41929 0
M  V30 919 H 84.1377 3.4701 -3.30335 0
M  V30 920 H 82.5017 1.91016 -1.68478 0
M  V30 921 H 83.2847 1.22224 -3.20806 0
M  V30 922 N 85.7298 1.2412 0.971189 0
M  V30 923 C 86.6598 1.05508 2.08304 0
M  V30 924 C 87.6408 -0.0308864 1.70072 0
M  V30 925 O 88.8258 0.135521 1.93727 0
M  V30 926 C 85.9558 0.655365 3.4106 0
M  V30 927 C 84.9098 1.68971 3.93234 0
M  V30 928 C 84.2358 1.14516 5.22293 0
M  V30 929 C 85.5358 3.08487 4.21465 0
M  V30 930 H 87.2298 1.98507 2.24132 0
M  V30 931 H 84.7758 0.955821 1.07704 0
M  V30 932 H 86.7288 0.51217 4.18276 0
M  V30 933 H 85.4528 -0.31032 3.25122 0
M  V30 934 H 84.1118 1.82106 3.18171 0
M  V30 935 H 83.7598 0.170189 5.02712 0
M  V30 936 H 83.4598 1.83635 5.58168 0
M  V30 937 H 84.9838 1.01401 6.02121 0
M  V30 938 H 86.3978 2.98601 4.89398 0
M  V30 939 H 84.7948 3.74926 4.68562 0
M  V30 940 H 85.8648 3.56787 3.28376 0
M  V30 941 N 87.2079 -1.17134 1.05439 0
M  V30 942 C 88.1549 -2.21235 0.657539 0
M  V30 943 C 89.1249 -1.62551 -0.341543 0
M  V30 944 O 90.3099 -1.89379 -0.232393 0
M  V30 945 C 87.4499 -3.45076 0.0410575 0
M  V30 946 C 86.5629 -4.18042 1.08927 0
M  V30 947 C 85.6979 -5.29376 0.439848 0
M  V30 948 C 84.7369 -5.94132 1.4722 0
M  V30 949 N 83.8739 -6.96975 0.846756 0
M  V30 950 H 88.7139 -2.54534 1.54972 0
M  V30 951 H 86.2509 -1.25028 0.775006 0
M  V30 952 H 88.2089 -4.15862 -0.33383 0
M  V30 953 H 86.8389 -3.12353 -0.814568 0
M  V30 954 H 85.8909 -3.45945 1.58196 0
M  V30 955 H 87.2029 -4.62306 1.87282 0
M  V30 956 H 86.3569 -6.06699 0.0115125 0
M  V30 957 H 85.0959 -4.86251 -0.375656 0
M  V30 958 H 84.1009 -5.15538 1.91052 0
M  V30 959 H 85.3259 -6.39337 2.28965 0
M  V30 960 H 83.2719 -6.5598 0.0518075 0
M  V30 961 H 83.1889 -7.39565 1.5678 0
M  V30 962 H 84.4569 -7.78239 0.443277 0
M  V30 963 N 88.686 -0.835752 -1.33615 0
M  V30 964 C 89.934 -0.429109 -1.97492 0
M  V30 965 C 90.255 1.01433 -1.66543 0
M  V30 966 O 89.525 1.70611 -0.962744 0
M  V30 967 H 88.105 -0.155686 -0.730596 0
M  V30 968 H 90.767 -1.06802 -1.63031 0
M  V30 969 H 89.863 -0.55861 -3.0706 0
M  V30 970 N 90.1641 1.46063 -0.591896 0
M  V30 971 C 91.1271 2.28854 0.125973 0
M  V30 972 C 92.1271 1.38903 0.810107 0
M  V30 973 O 93.3171 1.61186 0.66066 0
M  V30 974 C 90.4491 3.19526 1.1881 0
M  V30 975 H 91.6421 2.93802 -0.601717 0
M  V30 976 H 89.1951 1.52325 -0.350254 0
M  V30 977 H 89.9301 2.59345 1.94707 0
M  V30 978 H 89.7151 3.85766 0.701936 0
M  V30 979 H 91.2051 3.81817 1.69132 0
M  V30 980 N 91.6422 0.330177 1.54103 0
M  V30 981 C 93.0582 -0.0222371 1.59585 0
M  V30 982 C 93.2582 -1.49902 1.34654 0
M  V30 983 O 92.3142 -2.25592 1.13421 0
M  V30 984 C 93.6272 0.401932 2.98002 0
M  V30 985 C 95.1752 0.353145 3.11001 0
M  V30 986 C 95.6502 0.752576 4.51775 0
M  V30 987 N 97.1412 0.706239 4.57784 0
M  V30 988 C 97.8762 0.987417 5.64834 0
M  V30 989 N 97.3722 1.33607 6.79795 0
M  V30 990 N 99.1652 0.91254 5.54643 0
M  V30 991 H 91.3162 1.29228 1.68564 0
M  V30 992 H 93.5792 0.525906 0.78875 0
M  V30 993 H 93.2852 1.4311 3.21267 0
M  V30 994 H 93.1592 -0.229699 3.765 0
M  V30 995 H 95.5462 -0.666822 2.87467 0
M  V30 996 H 95.6272 1.0198 2.34593 0
M  V30 997 H 95.2712 1.77049 4.76042 0
M  V30 998 H 95.2012 0.0635409 5.26562 0
M  V30 999 H 97.6922 0.44889 3.75224 0
M  V30 1000 H 98.0052 1.53582 7.57385 0
M  V30 1001 H 96.3502 1.37439 6.81275 0
M  V30 1002 H 99.5412 0.639601 4.6371 0
M  V30 1003 H 99.7142 1.13503 6.37982 0
M  V30 1004 N 93.1203 -1.57491 0.0584922 0
M  V30 1005 C 94.3693 -1.92155 -0.613146 0
M  V30 1006 C 94.6823 -0.939334 -1.71569 0
M  V30 1007 O 95.8883 -1.17829 -2.44599 0
M  V30 1008 C 94.3443 -3.41303 -1.14195 0
M  V30 1009 C 93.9523 -4.47944 -0.0711265 0
M  V30 1010 C 95.6963 -3.84988 -1.78841 0
M  V30 1011 C 93.6033 -5.88212 -0.613225 0
M  V30 1012 H 92.5333 -0.717162 -0.232796 0
M  V30 1013 H 95.1843 -1.83049 0.12857 0
M  V30 1014 H 93.5663 -3.45437 -1.93621 0
M  V30 1015 H 94.7403 -4.55408 0.702836 0
M  V30 1016 H 93.0553 -4.13644 0.478313 0
M  V30 1017 H 95.6523 -4.87159 -2.20408 0
M  V30 1018 H 95.9953 -3.21632 -2.64308 0
M  V30 1019 H 96.5283 -3.83401 -1.06059 0
M  V30 1020 H 93.2673 -6.55183 0.203978 0
M  V30 1021 H 92.7873 -5.84294 -1.35501 0
M  V30 1022 H 94.4663 -6.37687 -1.09383 0
M  V30 1023 N 94.5984 0.214957 -1.56127 0
M  V30 1024 C 95.8234 0.95924 -1.83884 0
M  V30 1025 C 96.2484 1.7689 -0.639644 0
M  V30 1026 O 95.6064 1.76566 0.411601 0
M  V30 1027 C 95.6544 1.84723 -3.09693 0
M  V30 1028 O 94.7584 2.94346 -2.8885 0
M  V30 1029 H 94.0994 0.27125 -0.606069 0
M  V30 1030 H 96.6294 0.226276 -2.03345 0
M  V30 1031 H 96.6394 2.25576 -3.39969 0
M  V30 1032 H 95.3144 1.25218 -3.96602 0
M  V30 1033 H 93.8914 2.57391 -2.69823 0
M  V30 1034 N 96.0765 1.50051 0.48192 0
M  V30 1035 C 97.3245 1.60181 1.23234 0
M  V30 1036 C 97.6455 0.299176 1.92691 0
M  V30 1037 O 96.9155 -0.682708 1.83619 0
M  V30 1038 H 95.4955 0.590232 0.457859 0
M  V30 1039 H 98.1575 1.86775 0.556881 0
M  V30 1040 H 97.2535 2.40753 1.98607 0
M  V30 1041 N 97.5546 -0.734337 1.39446 0
M  V30 1042 C 98.7796 -1.52866 1.40167 0
M  V30 1043 C 99.2046 -1.881 -0.00171513 0
M  V30 1044 O 98.5626 -1.51957 -0.988879 0
M  V30 1045 C 98.6106 -2.79235 2.28167 0
M  V30 1046 O 97.7146 -3.75185 1.71201 0
M  V30 1047 H 97.0556 -0.461618 0.477289 0
M  V30 1048 H 99.5856 -0.905949 1.8345 0
M  V30 1049 H 99.5956 -3.27963 2.42702 0
M  V30 1050 H 98.2706 -2.52923 3.30156 0
M  V30 1051 H 96.8476 -3.33958 1.65912 0
M  V30 1052 N 99.0327 -1.24633 -0.964593 0
M  V30 1053 C 99.9627 -1.06611 -2.07741 0
M  V30 1054 C 100.944 0.0218666 -1.70086 0
M  V30 1055 O 102.129 -0.145793 -1.93652 0
M  V30 1056 C 99.2587 -0.673444 -3.40708 0
M  V30 1057 C 98.2127 -1.71054 -3.92332 0
M  V30 1058 C 97.5387 -1.17285 -5.21678 0
M  V30 1059 C 98.8387 -3.10718 -4.19824 0
M  V30 1060 H 100.533 -1.99693 -2.23076 0
M  V30 1061 H 98.0787 -0.96152 -1.07195 0
M  V30 1062 H 100.032 -0.534345 -4.17998 0
M  V30 1063 H 98.7557 0.293073 -3.25282 0
M  V30 1064 H 97.4147 -1.83791 -3.17201 0
M  V30 1065 H 97.0627 -0.196847 -5.02615 0
M  V30 1066 H 96.7627 -1.86592 -5.57187 0
M  V30 1067 H 98.2867 -1.04593 -6.01575 0
M  V30 1068 H 99.7007 -3.01192 -4.87808 0
M  V30 1069 H 98.0977 -3.77406 -4.66567 0
M  V30 1070 H 99.1677 -3.58524 -3.26479 0
M  V30 1071 N 100.511 1.16574 -1.06058 0
M  V30 1072 C 101.461 2.18854 -0.63929 0
M  V30 1073 C 102.445 1.57505 0.328798 0
M  V30 1074 O 103.637 1.76408 0.144623 0
M  V30 1075 C 100.766 3.43291 -0.0247203 0
M  V30 1076 C 99.8518 4.11722 -1.01716 0
M  V30 1077 N 100.243 4.55841 -2.19186 0
M  V30 1078 C 98.5408 4.37872 -0.847569 0
M  V30 1079 C 99.2418 5.08751 -2.82042 0
M  V30 1080 N 98.2178 5.01489 -2.09784 0
M  V30 1081 H 102.02 2.5068 -1.53417 0
M  V30 1082 H 99.5338 1.32999 -0.931935 0
M  V30 1083 H 101.531 4.15856 0.294915 0
M  V30 1084 H 100.191 3.12954 0.865448 0
M  V30 1085 H 101.202 4.49649 -2.56975 0
M  V30 1086 H 97.8788 4.17499 -0.00918848 0
M  V30 1087 H 99.2688 5.52944 -3.81709 0
M  V30 1088 N 101.989 0.842826 1.3317 0
M  V30 1089 C 102.922 0.223862 2.27099 0
M  V30 1090 C 103.9 -0.631311 1.49844 0
M  V30 1091 O 105.084 -0.590708 1.79005 0
M  V30 1092 C 102.211 -0.685313 3.31694 0
M  V30 1093 C 101.257 0.094919 4.26394 0
M  V30 1094 S 102.09 1.45546 5.15341 0
M  V30 1095 C 103.246 0.551685 6.23464 0
M  V30 1096 H 103.479 1.02015 2.79249 0
M  V30 1097 H 101.012 0.639797 1.4052 0
M  V30 1098 H 102.97 -1.20426 3.92438 0
M  V30 1099 H 101.631 -1.4553 2.78352 0
M  V30 1100 H 100.824 -0.597059 5.00451 0
M  V30 1101 H 100.426 0.545054 3.70007 0
M  V30 1102 H 102.718 -0.248877 6.77043 0
M  V30 1103 H 103.661 1.26253 6.96754 0
M  V30 1104 H 104.069 0.131275 5.64347 0
M  V30 1105 N 103.467 -1.45747 0.599634 0
M  V30 1106 C 104.695 -2.06668 0.0978551 0
M  V30 1107 C 105.11 -1.44562 -1.21439 0
M  V30 1108 O 104.467 -0.556923 -1.73795 0
M  V30 1109 C 104.518 -3.61456 -0.0567044 0
M  V30 1110 O 104.239 -4.21242 1.20361 0
M  V30 1111 C 105.74 -4.39345 -0.590869 0
M  V30 1112 H 102.96 -0.667825 0.0651943 0
M  V30 1113 H 105.504 -1.87115 0.82511 0
M  V30 1114 H 103.659 -3.80378 -0.734251 0
M  V30 1115 H 104.073 -5.14323 1.02821 0
M  V30 1116 H 105.547 -5.48182 -0.648131 0
M  V30 1117 H 106.024 -4.08568 -1.61147 0
M  V30 1118 H 106.63 -4.25268 0.0523679 0
M  V30 1119 N 104.945 -0.338344 -1.53925 0
M  V30 1120 C 106.191 0.260143 -2.01125 0
M  V30 1121 C 106.524 1.50617 -1.22589 0
M  V30 1122 O 105.799 1.91979 -0.312113 0
M  V30 1123 C 106.082 0.579499 -3.55407 0
M  V30 1124 C 105.935 -0.678264 -4.44657 0
M  V30 1125 C 107.254 1.39122 -4.17532 0
M  V30 1126 H 104.373 0.0930772 -0.731099 0
M  V30 1127 H 107.015 -0.457852 -1.84401 0
M  V30 1128 H 105.165 1.19118 -3.69788 0
M  V30 1129 H 106.837 -1.31631 -4.42121 0
M  V30 1130 H 105.08 -1.3042 -4.13731 0
M  V30 1131 H 105.751 -0.410143 -5.50474 0
M  V30 1132 H 108.227 0.874035 -4.06817 0
M  V30 1133 H 107.103 1.58342 -5.25565 0
M  V30 1134 H 107.364 2.39178 -3.71815 0
M  V30 1135 N 106.423 1.57458 -0.0668435 0
M  V30 1136 C 107.355 2.09413 0.931601 0
M  V30 1137 C 108.368 1.02522 1.26464 0
M  V30 1138 O 109.557 1.30049 1.22269 0
M  V30 1139 C 106.657 2.53537 2.24882 0
M  V30 1140 C 105.83 3.83944 2.09537 0
M  V30 1141 C 104.889 4.14214 3.2452 0
M  V30 1142 O 103.915 4.83891 2.9973 0
M  V30 1143 N 105.117 3.67367 4.49469 0
M  V30 1144 H 107.882 2.95699 0.488048 0
M  V30 1145 H 105.443 1.61462 0.119009 0
M  V30 1146 H 107.435 2.70853 3.00701 0
M  V30 1147 H 106.005 1.72415 2.60753 0
M  V30 1148 H 105.225 3.76057 1.18215 0
M  V30 1149 H 106.513 4.69312 1.96529 0
M  V30 1150 H 105.911 3.11068 4.72497 0
M  V30 1151 H 104.468 3.89891 5.2233 0
M  V30 1152 N 107.901 -0.206675 1.56239 0
M  V30 1153 C 109.129 -0.945345 1.8404 0
M  V30 1154 C 109.544 -1.77336 0.647885 0
M  V30 1155 O 108.901 -1.78425 -0.383511 0
M  V30 1156 C 108.952 -1.8509 3.10522 0
M  V30 1157 O 108.673 -1.05634 4.25174 0
M  V30 1158 C 110.174 -2.70222 3.51418 0
M  V30 1159 H 107.394 -0.276372 0.61144 0
M  V30 1160 H 109.938 -0.217417 2.03341 0
M  V30 1161 H 108.093 -2.53259 2.93153 0
M  V30 1162 H 108.507 -1.67238 4.97124 0
M  V30 1163 H 109.981 -3.29438 4.42916 0
M  V30 1164 H 110.458 -3.43358 2.73864 0
M  V30 1165 H 111.064 -2.07443 3.71278 0
M  V30 1166 N 109.379 -1.50304 -0.473955 0
M  V30 1167 C 110.342 -1.6841 -1.55469 0
M  V30 1168 C 111.342 -0.554905 -1.50922 0
M  V30 1169 O 112.532 -0.821882 -1.53593 0
M  V30 1170 C 109.664 -1.70667 -2.95102 0
M  V30 1171 H 110.857 -2.64828 -1.40733 0
M  V30 1172 H 108.41 -1.39742 -0.700132 0
M  V30 1173 H 109.145 -0.75932 -3.15285 0
M  V30 1174 H 108.93 -2.52698 -2.9981 0
M  V30 1175 H 110.42 -1.8664 -3.73571 0
M  V30 1176 N 110.857 0.726932 -1.39834 0
M  V30 1177 C 112.103 1.48884 -1.377 0
M  V30 1178 C 112.436 1.94185 0.0244852 0
M  V30 1179 O 111.711 1.67361 0.990986 0
M  V30 1180 C 111.994 2.72288 -2.3565 0
M  V30 1181 C 111.847 2.32956 -3.84775 0
M  V30 1182 C 113.166 3.74414 -2.31306 0
M  V30 1183 H 110.285 0.540062 -0.5015 0
M  V30 1184 H 112.927 0.830547 -1.70886 0
M  V30 1185 H 111.077 3.28457 -2.07481 0
M  V30 1186 H 112.749 1.82356 -4.23726 0
M  V30 1187 H 110.992 1.65088 -4.01159 0
M  V30 1188 H 111.663 3.21362 -4.4881 0
M  V30 1189 H 114.139 3.27849 -2.56231 0
M  V30 1190 H 113.015 4.58414 -3.01907 0
M  V30 1191 H 113.276 4.21909 -1.32081 0
M  V30 1192 N 112.336 1.25143 0.95797 0
M  V30 1193 C 113.266 1.07711 2.07173 0
M  V30 1194 C 114.247 -0.0128462 1.70095 0
M  V30 1195 O 115.432 0.156061 1.93572 0
M  V30 1196 C 112.562 0.691503 3.40346 0
M  V30 1197 C 111.516 1.73132 3.9142 0
M  V30 1198 C 110.842 1.20049 5.21049 0
M  V30 1199 C 112.142 3.1294 4.1817 0
M  V30 1200 H 113.836 2.00873 2.22014 0
M  V30 1201 H 111.382 0.967191 1.06684 0
M  V30 1202 H 113.335 0.556505 4.17709 0
M  V30 1203 H 112.059 -0.275819 3.25433 0
M  V30 1204 H 110.718 1.8547 3.16222 0
M  V30 1205 H 110.366 0.223499 5.02503 0
M  V30 1206 H 110.066 1.89545 5.56189 0
M  V30 1207 H 111.59 1.07782 6.01012 0
M  V30 1208 H 113.004 3.03775 4.86203 0
M  V30 1209 H 111.401 3.79875 4.64559 0
M  V30 1210 H 112.471 3.6025 3.24573 0
M  V30 1211 N 113.814 -1.1601 1.06675 0
M  V30 1212 C 115.063 -1.85973 0.780818 0
M  V30 1213 C 115.376 -1.82819 -0.695444 0
M  V30 1214 O 116.582 -2.484 -1.09589 0
M  V30 1215 C 115.038 -3.33757 1.34665 0
M  V30 1216 C 114.646 -3.45374 2.85343 0
M  V30 1217 C 116.39 -4.0895 1.13843 0
M  V30 1218 C 114.297 -4.87266 3.35151 0
M  V30 1219 H 113.227 -0.696661 0.288407 0
M  V30 1220 H 115.878 -1.30903 1.28595 0
M  V30 1221 H 114.26 -3.88456 0.769274 0
M  V30 1222 H 115.434 -3.00816 3.49065 0
M  V30 1223 H 113.749 -2.83619 3.04876 0
M  V30 1224 H 116.346 -5.13654 1.4854 0
M  V30 1225 H 116.689 -4.16229 0.0770282 0
M  V30 1226 H 117.222 -3.605 1.68179 0
M  V30 1227 H 113.961 -4.85168 4.40786 0
M  V30 1228 H 113.481 -5.32433 2.76179 0
M  V30 1229 H 115.16 -5.56097 3.30704 0
M  V30 1230 N 115.292 -0.849877 -1.32721 0
M  V30 1231 C 116.202 -0.293791 -2.32753 0
M  V30 1232 C 117.218 0.585906 -1.63839 0
M  V30 1233 O 118.394 0.487413 -1.95413 0
M  V30 1234 C 115.459 0.512752 -3.42887 0
M  V30 1235 C 114.52 -0.39252 -4.27502 0
M  V30 1236 C 113.753 0.375625 -5.32377 0
M  V30 1237 O 113.976 1.60613 -5.4732 0
M  V30 1238 O 112.91 -0.256094 -6.01355 0
M  V30 1239 H 116.736 -1.12242 -2.82197 0
M  V30 1240 H 114.321 -0.612685 -1.36259 0
M  V30 1241 H 116.203 0.970704 -4.10067 0
M  V30 1242 H 114.878 1.31826 -2.95641 0
M  V30 1243 H 113.785 -0.898547 -3.63149 0
M  V30 1244 H 115.118 -1.16309 -4.7826 0
M  V30 1245 N 116.77 1.45427 -0.607355 0
M  V30 1246 C 117.998 2.06614 -0.108814 0
M  V30 1247 C 118.413 1.45204 1.2067 0
M  V30 1248 O 117.77 0.566132 1.73497 0
M  V30 1249 C 117.821 3.61481 0.0375347 0
M  V30 1250 O 117.542 4.20598 -1.22593 0
M  V30 1251 C 119.043 4.39652 0.567561 0
M  V30 1252 H 116.263 0.66747 -0.0687351 0
M  V30 1253 H 118.807 1.86675 -0.835022 0
M  V30 1254 H 116.962 3.80762 0.714068 0
M  V30 1255 H 117.376 5.1377 -1.05547 0
M  V30 1256 H 118.85 5.48518 0.61905 0
M  V30 1257 H 119.327 4.09417 1.58978 0
M  V30 1258 H 119.933 4.25234 -0.0749202 0
M  V30 1259 N 118.248 0.346503 1.53744 0
M  V30 1260 C 119.178 -0.501193 2.28058 0
M  V30 1261 C 120.159 -1.10014 1.29734 0
M  V30 1262 O 121.344 -1.12097 1.58581 0
M  V30 1263 C 118.474 -1.65078 3.05559 0
M  V30 1264 C 117.428 -1.18003 4.11411 0
M  V30 1265 C 116.754 -2.41837 4.76884 0
M  V30 1266 C 118.054 -0.278394 5.21558 0
M  V30 1267 H 119.748 0.11875 2.99164 0
M  V30 1268 H 117.294 0.0585531 1.43881 0
M  V30 1269 H 119.247 -2.25028 3.56287 0
M  V30 1270 H 117.971 -2.29767 2.32109 0
M  V30 1271 H 116.63 -0.603331 3.61601 0
M  V30 1272 H 116.278 -3.0494 4.00026 0
M  V30 1273 H 115.978 -2.1102 5.48402 0
M  V30 1274 H 117.502 -3.02508 5.30397 0
M  V30 1275 H 118.916 -0.784823 5.67903 0
M  V30 1276 H 117.313 -0.0619707 6.00068 0
M  V30 1277 H 118.383 0.684677 4.80042 0
M  V30 1278 N 119.726 -1.57421 0.075193 0
M  V30 1279 C 120.954 -1.97946 -0.602076 0
M  V30 1280 C 121.369 -0.953674 -1.62943 0
M  V30 1281 O 120.726 0.0592551 -1.82404 0
M  V30 1282 C 120.777 -3.38546 -1.26762 0
M  V30 1283 O 120.498 -4.37195 -0.281376 0
M  V30 1284 C 121.999 -3.93966 -2.03239 0
M  V30 1285 H 119.219 -0.650918 -0.162931 0
M  V30 1286 H 121.763 -2.03959 0.148601 0
M  V30 1287 H 119.918 -3.33609 -1.96936 0
M  V30 1288 H 120.332 -5.18975 -0.759267 0
M  V30 1289 H 121.806 -4.94555 -2.45193 0
M  V30 1290 H 122.283 -3.30693 -2.8903 0
M  V30 1291 H 122.889 -4.02315 -1.37924 0
M  V30 1292 N 121.204 0.198386 -1.56346 0
M  V30 1293 C 122.167 1.22952 -1.93431 0
M  V30 1294 C 123.167 1.38611 -0.815092 0
M  V30 1295 O 124.357 1.36479 -1.08255 0
M  V30 1296 C 121.489 2.59946 -2.20546 0
M  V30 1297 H 122.682 0.912626 -2.85677 0
M  V30 1298 H 120.235 0.43977 -1.49986 0
M  V30 1299 H 120.97 2.96696 -1.30927 0
M  V30 1300 H 120.755 2.49953 -3.02102 0
M  V30 1301 H 122.245 3.3431 -2.50253 0
M  V30 1302 N 122.682 1.50554 0.465978 0
M  V30 1303 C 123.612 1.72722 1.57128 0
M  V30 1304 C 124.593 0.576294 1.6004 0
M  V30 1305 O 125.778 0.81598 1.76225 0
M  V30 1306 C 122.908 1.82605 2.95419 0
M  V30 1307 C 121.862 2.97835 3.07373 0
M  V30 1308 C 121.188 2.92867 4.47363 0
M  V30 1309 C 122.488 4.38265 2.84114 0
M  V30 1310 H 124.182 2.65267 1.38829 0
M  V30 1311 H 121.728 1.2765 0.666441 0
M  V30 1312 H 123.681 1.96698 3.72677 0
M  V30 1313 H 122.405 0.866858 3.14886 0
M  V30 1314 H 121.064 2.83401 2.3255 0
M  V30 1315 H 120.712 1.94783 4.63755 0
M  V30 1316 H 120.412 3.70227 4.56296 0
M  V30 1317 H 121.936 3.09015 5.26633 0
M  V30 1318 H 123.35 4.53198 3.51118 0
M  V30 1319 H 121.747 5.17115 3.04487 0
M  V30 1320 H 122.817 4.50281 1.7993 0
M  V30 1321 N 124.16 -0.719506 1.40217 0
M  V30 1322 C 125.408 -1.47641 1.3801 0
M  V30 1323 C 125.729 -1.94992 -0.018145 0
M  V30 1324 O 124.999 -1.70073 -0.972207 0
M  V30 1325 H 123.579 -0.547744 0.507923 0
M  V30 1326 H 126.241 -0.853187 1.75233 0
M  V30 1327 H 125.337 -2.35112 2.05253 0
M  V30 1328 N 125.638 -1.25649 -0.95132 0
M  V30 1329 C 126.601 -1.06399 -2.03007 0
M  V30 1330 C 127.601 -0.0156794 -1.60792 0
M  V30 1331 O 128.791 -0.25817 -1.72276 0
M  V30 1332 C 125.923 -0.616184 -3.35285 0
M  V30 1333 H 127.116 -2.02164 -2.21517 0
M  V30 1334 H 124.669 -1.08103 -1.12887 0
M  V30 1335 H 125.404 0.343917 -3.22471 0
M  V30 1336 H 125.189 -1.37301 -3.67275 0
M  V30 1337 H 126.679 -0.503032 -4.14559 0
M  V30 1338 N 127.117 1.15442 -1.07289 0
M  V30 1339 C 128.027 2.23786 -0.704057 0
M  V30 1340 C 129.043 1.7166 0.284413 0
M  V30 1341 O 130.219 2.00972 0.131205 0
M  V30 1342 C 127.284 3.46535 -0.106792 0
M  V30 1343 C 126.345 4.13654 -1.14842 0
M  V30 1344 C 125.578 5.30544 -0.57956 0
M  V30 1345 O 125.801 5.67187 0.604585 0
M  V30 1346 O 124.735 5.87154 -1.32414 0
M  V30 1347 H 128.561 2.57664 -1.60757 0
M  V30 1348 H 126.146 1.23152 -0.845803 0
M  V30 1349 H 128.028 4.20804 0.224048 0
M  V30 1350 H 126.703 3.14407 0.770049 0
M  V30 1351 H 125.61 3.4131 -1.5316 0
M  V30 1352 H 126.943 4.49861 -1.99714 0
M  V30 1353 N 128.595 0.856903 1.32268 0
M  V30 1354 C 129.841 0.462069 1.97466 0
M  V30 1355 C 130.174 -0.980298 1.67642 0
M  V30 1356 O 129.449 -1.68824 0.965858 0
M  V30 1357 C 129.732 0.704336 3.53145 0
M  V30 1358 C 129.585 2.19529 3.9259 0
M  V30 1359 C 130.904 0.1622 4.39801 0
M  V30 1360 H 128.023 0.169357 0.717278 0
M  V30 1361 H 130.665 1.07574 1.56614 0
M  V30 1362 H 128.815 0.181999 3.88073 0
M  V30 1363 H 130.487 2.78387 3.67829 0
M  V30 1364 H 128.73 2.67292 3.41668 0
M  V30 1365 H 129.401 2.31549 5.01088 0
M  V30 1366 H 131.877 0.608905 4.11621 0
M  V30 1367 H 130.753 0.361265 5.4771 0
M  V30 1368 H 131.014 -0.935158 4.32096 0
M  V30 1369 N 130.073 -1.45103 0.615059 0
M  V30 1370 C 131.489 -1.57137 0.279322 0
M  V30 1371 C 131.689 -1.60523 -1.21797 0
M  V30 1372 O 130.745 -1.53956 -2.00134 0
M  V30 1373 C 132.058 -2.85062 0.957083 0
M  V30 1374 C 133.606 -2.98749 0.933706 0
M  V30 1375 C 134.081 -4.29455 1.59162 0
M  V30 1376 N 135.572 -4.36231 1.55746 0
M  V30 1377 C 136.307 -5.36051 2.0356 0
M  V30 1378 N 135.803 -6.42367 2.59494 0
M  V30 1379 N 137.596 -5.27456 1.94284 0
M  V30 1380 H 129.747 -1.41148 1.58717 0
M  V30 1381 H 132.01 -0.675331 0.665306 0
M  V30 1382 H 131.716 -2.88488 2.01166 0
M  V30 1383 H 131.59 -3.7407 0.48494 0
M  V30 1384 H 133.977 -2.94886 -0.112347 0
M  V30 1385 H 134.058 -2.11132 1.44419 0
M  V30 1386 H 133.702 -4.34077 2.63704 0
M  V30 1387 H 133.632 -5.15901 1.0561 0
M  V30 1388 H 136.123 -3.60011 1.14893 0
M  V30 1389 H 136.436 -7.14793 2.93752 0
M  V30 1390 H 134.781 -6.43097 2.63537 0
M  V30 1391 H 137.972 -4.43308 1.5032 0
M  V30 1392 H 138.145 -6.05099 2.3186 0
M  V30 1393 N 131.551 -0.354651 -1.53558 0
M  V30 1394 C 132.797 0.231422 -2.02079 0
M  V30 1395 C 133.152 1.47308 -1.23767 0
M  V30 1396 O 132.445 1.8891 -0.319947 0
M  V30 1397 C 132.639 0.587121 -3.52545 0
M  V30 1398 C 132.468 -0.618513 -4.45426 0
M  V30 1399 C 131.238 -1.12724 -4.92566 0
M  V30 1400 C 133.436 -1.48039 -4.92533 0
M  V30 1401 N 131.418 -2.29404 -5.69427 0
M  V30 1402 C 132.789 -2.49397 -5.67628 0
M  V30 1403 C 134.844 -1.50454 -4.74624 0
M  V30 1404 C 133.547 -3.53013 -6.26717 0
M  V30 1405 C 135.573 -2.52958 -5.34571 0
M  V30 1406 C 134.935 -3.5304 -6.09543 0
M  V30 1407 H 131.034 0.0476909 -0.780544 0
M  V30 1408 H 133.618 -0.496727 -1.88257 0
M  V30 1409 H 131.789 1.28436 -3.6655 0
M  V30 1410 H 133.521 1.15734 -3.87799 0
M  V30 1411 H 130.276 -0.693577 -4.68494 0
M  V30 1412 H 130.7 -2.88347 -6.12524 0
M  V30 1413 H 135.342 -0.744356 -4.16196 0
M  V30 1414 H 133.06 -4.2992 -6.84247 0
M  V30 1415 H 136.646 -2.55667 -5.22614 0
M  V30 1416 H 135.526 -4.31056 -6.55103 0
M  V30 1417 N 133.029 1.57378 -0.0835403 0
M  V30 1418 C 133.992 2.12252 0.864959 0
M  V30 1419 C 134.992 1.04916 1.21858 0
M  V30 1420 O 136.182 1.30853 1.14991 0
M  V30 1421 C 133.314 2.63358 2.16461 0
M  V30 1422 H 134.507 2.97371 0.388676 0
M  V30 1423 H 132.06 1.55423 0.165317 0
M  V30 1424 H 132.795 1.81727 2.686 0
M  V30 1425 H 132.58 3.41826 1.92087 0
M  V30 1426 H 134.07 3.05847 2.84337 0
M  V30 1427 N 134.507 -0.190092 1.56449 0
M  V30 1428 C 135.732 -0.929864 1.85387 0
M  V30 1429 C 136.157 -1.7585 0.667704 0
M  V30 1430 O 135.515 -1.77198 -0.383459 0
M  V30 1431 C 135.563 -1.79773 3.12593 0
M  V30 1432 O 134.667 -2.89713 2.93496 0
M  V30 1433 H 134.008 -0.261574 0.610307 0
M  V30 1434 H 136.538 -0.193896 2.03679 0
M  V30 1435 H 136.548 -2.20139 3.43515 0
M  V30 1436 H 135.223 -1.18892 3.98544 0
M  V30 1437 H 133.8 -2.53065 2.73884 0
M  V30 1438 N 135.985 -1.50799 -0.457987 0
M  V30 1439 C 137.225 -1.64088 -1.21879 0
M  V30 1440 C 137.589 -0.339848 -1.88968 0
M  V30 1441 O 138.79 -0.348301 -2.66534 0
M  V30 1442 C 137.061 -2.79726 -2.2246 0
M  V30 1443 S 138.62 -3.13225 -3.07303 0
M  V30 1444 H 135.438 -0.578314 -0.41361 0
M  V30 1445 H 138.04 -1.88632 -0.513645 0
M  V30 1446 H 136.744 -3.72722 -1.71775 0
M  V30 1447 H 136.275 -2.57308 -2.97584 0
M  V30 1448 H 138.29 -2.58062 -4.23814 0
M  V30 1449 N 137.463 0.71206 -1.40597 0
M  V30 1450 C 138.411 1.84746 -1.41321 0
M  V30 1451 C 139.405 1.66842 -0.293268 0
M  V30 1452 O 140.611 1.73904 -0.464481 0
M  V30 1453 H 136.986 0.608522 -0.441819 0
M  V30 1454 H 138.957 1.81252 -2.37045 0
M  V30 1455 C 137.706 3.22638 -1.29614 0
M  V30 1456 H 137.029 3.37023 -2.15071 0
M  V30 1457 H 138.469 4.02209 -1.3418 0
M  V30 1458 C 136.928 3.36899 -0.00673121 0
M  V30 1459 O 137.458 3.90186 0.954859 0
M  V30 1460 N 135.664 2.9053 0.0639327 0
M  V30 1461 H 135.211 2.47353 -0.719311 0
M  V30 1462 H 135.169 3.0045 0.926118 0
M  V30 1463 N 138.941 1.26152 0.944643 0
M  V30 1464 C 140.19 1.10883 1.68487 0
M  V30 1465 C 140.503 -0.348153 1.92477 0
M  V30 1466 O 141.709 -0.621459 2.64292 0
M  V30 1467 C 140.165 1.93624 3.03377 0
M  V30 1468 C 139.773 3.43875 2.87148 0
M  V30 1469 C 141.517 1.86954 3.81115 0
M  V30 1470 C 139.424 4.18875 4.1749 0
M  V30 1471 H 138.354 0.41135 0.631907 0
M  V30 1472 H 141.005 1.50433 1.05082 0
M  V30 1473 H 139.387 1.46904 3.67743 0
M  V30 1474 H 140.561 3.98338 2.31653 0
M  V30 1475 H 138.876 3.51744 2.22856 0
M  V30 1476 H 141.473 2.40275 4.77673 0
M  V30 1477 H 141.816 0.839518 4.07747 0
M  V30 1478 H 142.349 2.31477 3.23517 0
M  V30 1479 H 139.088 5.22332 3.96043 0
M  V30 1480 H 138.608 3.69193 4.72712 0
M  V30 1481 H 140.287 4.27134 4.85968 0
M  V30 1482 N 140.419 -1.14872 1.07899 0
M  V30 1483 C 141.666 -1.85789 0.805532 0
M  V30 1484 C 141.994 -1.82649 -0.668561 0
M  V30 1485 O 141.249 -1.24858 -1.50695 0
M  V30 1486 C 141.548 -3.34223 1.26609 0
M  V30 1487 C 141.214 -3.57555 2.74709 0
M  V30 1488 C 139.876 -3.63631 3.1516 0
M  V30 1489 C 142.228 -3.66803 3.70277 0
M  V30 1490 C 139.556 -3.76473 4.49983 0
M  V30 1491 C 141.908 -3.8117 5.04869 0
M  V30 1492 C 140.572 -3.85494 5.44932 0
M  V30 1493 H 139.842 -0.679849 0.294765 0
M  V30 1494 H 142.489 -1.3572 1.35101 0
M  V30 1495 H 140.794 -3.86536 0.640103 0
M  V30 1496 H 142.491 -3.87511 1.03132 0
M  V30 1497 H 139.081 -3.5347 2.42398 0
M  V30 1498 H 143.265 -3.61404 3.40149 0
M  V30 1499 H 138.521 -3.7808 4.80484 0
M  V30 1500 H 142.695 -3.87268 5.78789 0
M  V30 1501 H 140.322 -3.95197 6.49403 0
M  V30 1502 N 141.898 -0.863906 -1.31812 0
M  V30 1503 C 143.123 -0.48527 -2.01643 0
M  V30 1504 C 143.548 0.913058 -1.64453 0
M  V30 1505 O 142.906 1.6014 -0.849985 0
M  V30 1506 C 142.954 -0.642625 -3.54828 0
M  V30 1507 O 142.058 0.320659 -4.11151 0
M  V30 1508 H 141.399 -0.193793 -0.635091 0
M  V30 1509 H 143.929 -1.16565 -1.68148 0
M  V30 1510 H 143.939 -0.533628 -4.04495 0
M  V30 1511 H 142.614 -1.66227 -3.81237 0
M  V30 1512 H 141.191 0.167126 -3.72525 0
M  V30 1513 N 143.376 1.44774 -0.622745 0
M  V30 1514 C 144.604 2.06487 -0.130722 0
M  V30 1515 C 145.019 1.46476 1.19123 0
M  V30 1516 O 144.376 0.584502 1.72887 0
M  V30 1517 C 144.427 3.615 -0.000807207 0
M  V30 1518 O 144.148 4.19274 -1.27048 0
M  V30 1519 C 145.649 4.40229 0.520898 0
M  V30 1520 H 142.869 0.666704 -0.0758106 0
M  V30 1521 H 145.413 1.85779 -0.854774 0
M  V30 1522 H 143.568 3.81498 0.673643 0
M  V30 1523 H 143.982 5.12622 -1.1099 0
M  V30 1524 H 145.456 5.49144 0.560838 0
M  V30 1525 H 145.933 4.1108 1.54627 0
M  V30 1526 H 146.539 4.25131 -0.120018 0
M  V30 1527 N 144.854 0.36279 1.53368 0
M  V30 1528 C 145.786 -0.519668 2.23231 0
M  V30 1529 C 146.799 -1.04844 1.24546 0
M  V30 1530 O 147.988 -0.955296 1.50786 0
M  V30 1531 C 145.088 -1.72995 2.9142 0
M  V30 1532 C 144.261 -1.33316 4.16588 0
M  V30 1533 C 143.32 -2.40521 4.68013 0
M  V30 1534 O 142.346 -2.03027 5.3176 0
M  V30 1535 N 143.548 -3.72065 4.45587 0
M  V30 1536 H 146.313 0.078751 2.99597 0
M  V30 1537 H 143.874 0.187833 1.60807 0
M  V30 1538 H 145.866 -2.44184 3.22733 0
M  V30 1539 H 144.436 -2.2353 2.18525 0
M  V30 1540 H 143.656 -0.451236 3.91609 0
M  V30 1541 H 144.944 -1.04432 4.97967 0
M  V30 1542 H 144.342 -4.05304 3.94646 0
M  V30 1543 H 142.899 -4.39366 4.81457 0
M  V30 1544 N 146.332 -1.57332 0.0918853 0
M  V30 1545 C 147.609 -1.85691 -0.614668 0
M  V30 1546 C 147.989 -0.988146 -1.86545 0
M  V30 1547 O 147.337 -0.0597055 -2.28422 0
M  V30 1548 C 147.547 -3.36294 -0.933126 0
M  V30 1549 C 148.895 -4.04275 -1.29796 0
M  V30 1550 O 149.919 -3.41157 -1.02424 0
M  V30 1551 O 148.778 -5.1564 -1.81047 0
M  V30 1552 H 145.872 -0.767802 -0.307261 0
M  V30 1553 H 148.418 -1.69244 0.12434 0
M  V30 1554 H 147.19 -3.91273 -0.0456404 0
M  V30 1555 H 146.813 -3.58076 -1.72822 0
M  V30 1556 N 147.81 0.181792 -1.56548 0
M  V30 1557 C 148.76 1.22961 -1.92002 0
M  V30 1558 C 149.744 1.40331 -0.787146 0
M  V30 1559 O 150.936 1.42478 -1.05019 0
M  V30 1560 C 148.065 2.57144 -2.27446 0
M  V30 1561 C 147.151 2.43512 -3.47222 0
M  V30 1562 N 147.542 1.99577 -4.64761 0
M  V30 1563 C 145.84 2.74368 -3.51622 0
M  V30 1564 C 146.541 1.98156 -5.46909 0
M  V30 1565 N 145.517 2.40164 -4.8767 0
M  V30 1566 H 149.319 0.881462 -2.8037 0
M  V30 1567 H 146.833 0.390141 -1.57644 0
M  V30 1568 H 148.83 3.32847 -2.51035 0
M  V30 1569 H 147.49 2.92771 -1.40411 0
M  V30 1570 H 148.501 1.70078 -4.89177 0
M  V30 1571 H 145.178 3.14102 -2.75038 0
M  V30 1572 H 146.568 1.65975 -6.51077 0
M  V30 1573 N 149.288 1.51039 0.449983 0
M  V30 1574 C 150.251 1.70863 1.5277 0
M  V30 1575 C 151.251 0.578846 1.5002 0
M  V30 1576 O 152.441 0.846213 1.52266 0
M  V30 1577 C 149.573 1.75341 2.9235 0
M  V30 1578 H 150.766 2.67034 1.36502 0
M  V30 1579 H 148.319 1.40838 0.677812 0
M  V30 1580 H 149.054 0.809383 3.14037 0
M  V30 1581 H 148.839 2.57436 2.95752 0
M  V30 1582 H 150.329 1.92559 3.70555 0
M  V30 1583 N 150.766 -0.704594 1.40972 0
M  V30 1584 C 151.729 -1.80035 1.41845 0
M  V30 1585 C 152.729 -1.57774 0.310474 0
M  V30 1586 O 153.919 -1.64613 0.56992 0
M  V30 1587 C 151.051 -3.18284 1.22098 0
M  V30 1588 H 152.244 -1.80658 2.3938 0
M  V30 1589 H 149.797 -0.911329 1.26982 0
M  V30 1590 H 150.532 -3.23306 0.253672 0
M  V30 1591 H 150.317 -3.35843 2.02366 0
M  V30 1592 H 151.807 -3.98289 1.25522 0
M  V30 1593 N 152.244 -1.26651 -0.937939 0
M  V30 1594 C 153.207 -1.08546 -2.01867 0
M  V30 1595 C 154.207 -0.0327327 -1.60767 0
M  V30 1596 O 155.397 -0.276427 -1.71993 0
M  V30 1597 C 152.529 -0.651711 -3.34613 0
M  V30 1598 H 153.722 -2.04502 -2.1936 0
M  V30 1599 H 151.275 -1.09294 -1.11734 0
M  V30 1600 H 152.01 0.309696 -3.22818 0
M  V30 1601 H 151.795 -1.41189 -3.65798 0
M  V30 1602 H 153.285 -0.546973 -4.14002 0
M  V30 1603 N 153.722 1.14298 -1.08507 0
M  V30 1604 C 154.685 2.17607 -0.719711 0
M  V30 1605 C 155.685 1.58907 0.245997 0
M  V30 1606 O 156.875 1.74181 0.0254081 0
M  V30 1607 C 154.007 3.40842 -0.0627695 0
M  V30 1608 H 155.2 2.51443 -1.63452 0
M  V30 1609 H 152.753 1.28963 -0.88307 0
M  V30 1610 H 153.488 3.12587 0.863716 0
M  V30 1611 H 153.273 3.84713 -0.757504 0
M  V30 1612 H 154.763 4.17221 0.177786 0
M  V30 1613 N 155.201 0.870884 1.31352 0
M  V30 1614 C 156.447 0.482987 1.96965 0
M  V30 1615 C 156.78 -0.962462 1.68672 0
M  V30 1616 O 156.055 -1.6779 0.98371 0
M  V30 1617 C 156.338 0.741752 3.52378 0
M  V30 1618 C 156.191 2.2368 3.9024 0
M  V30 1619 C 157.51 0.208838 4.39604 0
M  V30 1620 H 154.629 0.176955 0.715441 0
M  V30 1621 H 157.271 1.09229 1.55464 0
M  V30 1622 H 155.421 0.223149 3.87859 0
M  V30 1623 H 157.093 2.82273 3.64856 0
M  V30 1624 H 155.336 2.70901 3.38814 0
M  V30 1625 H 156.007 2.3685 4.98604 0
M  V30 1626 H 158.483 0.652529 4.10952 0
M  V30 1627 H 157.359 0.419336 5.47296 0
M  V30 1628 H 157.62 -0.889275 4.33064 0
M  V30 1629 N 156.679 -1.44442 0.630414 0
M  V30 1630 C 157.925 -2.02351 0.134816 0
M  V30 1631 C 158.258 -1.4947 -1.23986 0
M  V30 1632 O 157.533 -0.678475 -1.82283 0
M  V30 1633 C 157.816 -3.59898 0.120707 0
M  V30 1634 C 157.669 -4.23063 1.52767 0
M  V30 1635 C 158.988 -4.36585 -0.555127 0
M  V30 1636 H 156.107 -0.73527 0.0504646 0
M  V30 1637 H 158.749 -1.72022 0.806751 0
M  V30 1638 H 156.899 -3.85868 -0.451477 0
M  V30 1639 H 158.571 -4.08202 2.14869 0
M  V30 1640 H 156.814 -3.80586 2.08175 0
M  V30 1641 H 157.485 -5.32071 1.46984 0
M  V30 1642 H 159.961 -4.16044 -0.0685429 0
M  V30 1643 H 158.837 -5.46294 -0.534185 0
M  V30 1644 H 159.098 -4.11138 -1.62535 0
M  V30 1645 N 158.157 -0.370918 -1.53173 0
M  V30 1646 C 159.403 0.217423 -2.01631 0
M  V30 1647 C 159.736 1.47983 -1.25756 0
M  V30 1648 O 159.011 1.91274 -0.352764 0
M  V30 1649 C 159.294 0.503982 -3.56556 0
M  V30 1650 C 159.147 -0.77243 -4.43118 0
M  V30 1651 C 160.466 1.30234 -4.20389 0
M  V30 1652 H 157.585 0.0775486 -0.732909 0
M  V30 1653 H 160.227 -0.496863 -1.83388 0
M  V30 1654 H 158.377 1.11248 -3.72231 0
M  V30 1655 H 160.049 -1.4098 -4.39229 0
M  V30 1656 H 158.292 -1.39167 -4.10871 0
M  V30 1657 H 158.963 -0.526815 -5.4948 0
M  V30 1658 H 161.439 0.787546 -4.08579 0
M  V30 1659 H 160.315 1.47158 -5.28806 0
M  V30 1660 H 160.576 2.31237 -3.76805 0
M  V30 1661 N 159.635 1.57281 -0.100228 0
M  V30 1662 C 160.883 1.94153 0.561157 0
M  V30 1663 C 161.204 0.983157 1.68401 0
M  V30 1664 O 160.474 0.0361132 1.95867 0
M  V30 1665 H 159.054 0.716791 0.210283 0
M  V30 1666 H 161.716 1.94202 -0.164765 0
M  V30 1667 H 160.812 2.96709 0.968008 0
M  V30 1668 N 161.113 -0.173488 1.56642 0
M  V30 1669 C 162.524 -0.736155 1.71574 0
M  V30 1670 C 162.875 -1.82888 0.710389 0
M  V30 1671 O 162 -2.16017 -0.1287 0
M  V30 1672 C 162.595 -1.34211 3.11083 0
M  V30 1673 C 161.154 -1.85162 3.27707 0
M  V30 1674 C 160.301 -0.729765 2.67525 0
M  V30 1675 H 163.252 0.0518786 1.58615 0
M  V30 1676 H 163.273 -2.21178 3.09613 0
M  V30 1677 H 162.785 -0.546579 3.84232 0
M  V30 1678 H 160.886 -2.67366 2.59512 0
M  V30 1679 H 160.999 -1.99855 4.35425 0
M  V30 1680 H 159.363 -1.14965 2.27278 0
M  V30 1681 H 160.146 0.0538806 3.43258 0
M  V30 1682 N 162.591 -1.51276 -0.441967 0
M  V30 1683 C 163.541 -1.6864 -1.53442 0
M  V30 1684 C 164.525 -0.540444 -1.51552 0
M  V30 1685 O 165.717 -0.796157 -1.58083 0
M  V30 1686 C 162.846 -1.8106 -2.91672 0
M  V30 1687 C 161.932 -3.01424 -2.98336 0
M  V30 1688 N 162.323 -4.2467 -2.74752 0
M  V30 1689 C 160.621 -3.00584 -3.29493 0
M  V30 1690 C 161.322 -5.05891 -2.87139 0
M  V30 1691 N 160.298 -4.40442 -3.18609 0
M  V30 1692 H 164.1 -2.61598 -1.33954 0
M  V30 1693 H 161.614 -1.4886 -0.6492 0
M  V30 1694 H 163.611 -1.91609 -3.70259 0
M  V30 1695 H 162.271 -0.892795 -3.12185 0
M  V30 1696 H 163.282 -4.53691 -2.49769 0
M  V30 1697 H 159.959 -2.18417 -3.55809 0
M  V30 1698 H 161.349 -6.13983 -2.72899 0
M  V30 1699 N 164.069 0.697108 -1.41344 0
M  V30 1700 C 165.317 1.45426 -1.40341 0
M  V30 1701 C 165.638 1.94996 -0.0128787 0
M  V30 1702 O 164.908 1.71599 0.945027 0
M  V30 1703 H 163.488 0.539594 -0.516573 0
M  V30 1704 H 166.15 0.825201 -1.76569 0
M  V30 1705 H 165.246 2.31817 -2.08967 0
M  V30 1706 N 165.547 1.27147 0.931209 0
M  V30 1707 C 166.775 1.16082 1.71267 0
M  V30 1708 C 167.19 -0.282772 1.8667 0
M  V30 1709 O 166.547 -1.19283 1.38122 0
M  V30 1710 C 166.598 1.8358 3.11417 0
M  V30 1711 O 166.319 3.22299 2.96741 0
M  V30 1712 C 167.82 1.78597 4.05732 0
M  V30 1713 H 165.04 0.403758 0.535929 0
M  V30 1714 H 167.584 1.67953 1.16671 0
M  V30 1715 H 165.739 1.35623 3.62885 0
M  V30 1716 H 166.153 3.55851 3.85319 0
M  V30 1717 H 167.627 2.30444 5.01597 0
M  V30 1718 H 168.104 0.754564 4.3267 0
M  V30 1719 H 168.71 2.26152 3.60188 0
M  V30 1720 N 167.025 -1.13721 1.09112 0
M  V30 1721 C 168.436 -1.6648 0.845068 0
M  V30 1722 C 168.787 -1.85911 -0.62701 0
M  V30 1723 O 167.912 -1.57556 -1.48341 0
M  V30 1724 C 168.507 -3.02413 1.52748 0
M  V30 1725 C 167.066 -3.52176 1.32849 0
M  V30 1726 C 166.213 -2.27492 1.58564 0
M  V30 1727 H 169.164 -0.976872 1.25072 0
M  V30 1728 H 169.185 -3.68223 0.958752 0
M  V30 1729 H 168.697 -2.88238 2.59885 0
M  V30 1730 H 166.798 -3.7156 0.278137 0
M  V30 1731 H 166.911 -4.32499 2.0611 0
M  V30 1732 H 165.275 -2.33923 1.00758 0
M  V30 1733 H 166.058 -2.15886 2.66924 0
M  V30 1734 N 168.503 -0.877838 -1.30888 0
M  V30 1735 C 169.78 -0.413052 -1.91189 0
M  V30 1736 C 170.16 1.1056 -1.79832 0
M  V30 1737 O 169.508 1.93771 -1.21099 0
M  V30 1738 C 169.718 -0.903191 -3.3711 0
M  V30 1739 C 171.066 -0.93395 -4.14201 0
M  V30 1740 O 172.09 -0.849373 -3.45925 0
M  V30 1741 O 170.949 -1.05772 -5.36167 0
M  V30 1742 H 168.043 -0.125035 -0.817493 0
M  V30 1743 H 170.589 -0.966269 -1.39504 0
M  V30 1744 H 169.361 -1.94692 -3.39427 0
M  V30 1745 H 168.984 -0.328732 -3.96239 0
M  V30 1746 N 169.982 1.44106 -0.638065 0
M  V30 1747 C 170.892 2.34513 0.0637334 0
M  V30 1748 C 171.908 1.53018 0.828346 0
M  V30 1749 O 173.084 1.85723 0.779036 0
M  V30 1750 C 170.149 3.31095 1.02844 0
M  V30 1751 C 169.21 4.28497 0.26244 0
M  V30 1752 C 168.443 5.20465 1.1812 0
M  V30 1753 O 168.666 5.16514 2.42011 0
M  V30 1754 O 167.6 5.98251 0.661774 0
M  V30 1755 H 171.426 2.95989 -0.68003 0
M  V30 1756 H 169.011 1.43994 -0.398252 0
M  V30 1757 H 170.893 3.90526 1.58327 0
M  V30 1758 H 169.568 2.72144 1.7527 0
M  V30 1759 H 168.475 3.72592 -0.335602 0
M  V30 1760 H 169.808 4.90388 -0.421936 0
M  V30 1761 N 171.46 0.379036 1.52974 0
M  V30 1762 C 172.871 -0.0972525 1.86447 0
M  V30 1763 C 173.222 -1.47027 1.29914 0
M  V30 1764 O 172.347 -2.07135 0.626433 0
M  V30 1765 C 172.942 -0.183248 3.38304 0
M  V30 1766 C 171.501 -0.603812 3.71525 0
M  V30 1767 C 170.648 0.240632 2.76254 0
M  V30 1768 H 173.599 0.597316 1.4703 0
M  V30 1769 H 173.62 -1.00432 3.67006 0
M  V30 1770 H 173.132 0.816191 3.79421 0
M  V30 1771 H 171.233 -1.61099 3.35973 0
M  V30 1772 H 171.346 -0.369086 4.77676 0
M  V30 1773 H 169.71 -0.292548 2.53014 0
M  V30 1774 H 170.493 1.23786 3.20206 0
M  V30 1775 N 172.938 -1.57226 0.108567 0
M  V30 1776 C 173.885 -2.14756 -0.845481 0
M  V30 1777 C 174.855 -1.06971 -1.27068 0
M  V30 1778 O 176.04 -1.34827 -1.35005 0
M  V30 1779 C 173.18 -2.74298 -2.09415 0
M  V30 1780 C 172.293 -3.96358 -1.71826 0
M  V30 1781 C 171.428 -4.44021 -2.9158 0
M  V30 1782 C 170.467 -5.58637 -2.50181 0
M  V30 1783 N 169.604 -6.01091 -3.62814 0
M  V30 1784 H 174.444 -2.95961 -0.348035 0
M  V30 1785 H 171.981 -1.46226 -0.160106 0
M  V30 1786 H 173.939 -3.06945 -2.82561 0
M  V30 1787 H 172.569 -1.95801 -2.56636 0
M  V30 1788 H 171.621 -3.69939 -0.885947 0
M  V30 1789 H 172.933 -4.79504 -1.37394 0
M  V30 1790 H 172.087 -4.78522 -3.72963 0
M  V30 1791 H 170.826 -3.59803 -3.29231 0
M  V30 1792 H 169.831 -5.23751 -1.67228 0
M  V30 1793 H 171.056 -6.44613 -2.13659 0
M  V30 1794 H 169.002 -5.19817 -4.00158 0
M  V30 1795 H 168.919 -6.79066 -3.32273 0
M  V30 1796 H 170.187 -6.40227 -4.44668 0
M  V30 1797 N 174.416 0.165178 -1.56732 0
M  V30 1798 C 175.664 0.879068 -1.8198 0
M  V30 1799 C 175.985 1.82514 -0.686561 0
M  V30 1800 O 175.255 1.93694 0.293146 0
M  V30 1801 H 173.835 0.327608 -0.671329 0
M  V30 1802 H 176.497 0.163526 -1.94213 0
M  V30 1803 H 175.593 1.45228 -2.76252 0
M  V30 1804 N 175.894 1.51508 0.433938 0
M  V30 1805 C 177.14 1.64588 1.18484 0
M  V30 1806 C 177.473 0.362666 1.90784 0
M  V30 1807 O 176.748 -0.637892 1.83742 0
M  V30 1808 C 177.031 2.85149 2.19913 0
M  V30 1809 C 176.884 4.23456 1.51674 0
M  V30 1810 C 178.203 3.01227 3.20858 0
M  V30 1811 H 175.322 0.598994 0.429389 0
M  V30 1812 H 177.964 1.84002 0.473647 0
M  V30 1813 H 176.114 2.68729 2.80566 0
M  V30 1814 H 177.786 4.51552 0.943322 0
M  V30 1815 H 176.029 4.25998 0.819035 0
M  V30 1816 H 176.7 5.03812 2.2556 0
M  V30 1817 H 179.176 3.16382 2.70263 0
M  V30 1818 H 178.052 3.87141 3.89118 0
M  V30 1819 H 178.313 2.13447 3.8716 0
M  V30 1820 N 177.372 -0.689602 1.41712 0
M  V30 1821 C 178.783 -1.26973 1.36875 0
M  V30 1822 C 179.134 -1.96124 0.054748 0
M  V30 1823 O 178.259 -1.99141 -0.84687 0
M  V30 1824 C 178.854 -2.30912 2.47922 0
M  V30 1825 C 177.413 -2.84486 2.46464 0
M  V30 1826 C 176.56 -1.58603 2.27465 0
M  V30 1827 H 179.511 -0.48396 1.51141 0
M  V30 1828 H 179.532 -3.12331 2.17323 0
M  V30 1829 H 179.044 -1.80554 3.43543 0
M  V30 1830 H 177.145 -3.39005 1.54617 0
M  V30 1831 H 177.258 -3.34511 3.42986 0
M  V30 1832 H 175.622 -1.84632 1.75451 0
M  V30 1833 H 176.405 -1.10233 3.25121 0
M  V30 1834 N 178.85 -1.27639 -0.924453 0
M  V30 1835 C 180.096 -1.14336 -1.67497 0
M  V30 1836 C 180.429 0.309465 -1.91718 0
M  V30 1837 O 179.704 1.22608 -1.50989 0
M  V30 1838 C 179.987 -1.93096 -3.0395 0
M  V30 1839 C 179.84 -3.46381 -2.8695 0
M  V30 1840 C 181.159 -1.73798 -4.0433 0
M  V30 1841 H 178.278 -0.416728 -0.607871 0
M  V30 1842 H 180.92 -1.56832 -1.07256 0
M  V30 1843 H 179.07 -1.56982 -3.55372 0
M  V30 1844 H 180.742 -3.92343 -2.42621 0
M  V30 1845 H 178.985 -3.72557 -2.22225 0
M  V30 1846 H 179.656 -3.96735 -3.83804 0
M  V30 1847 H 182.132 -2.05293 -3.61931 0
M  V30 1848 H 181.008 -2.31294 -4.97789 0
M  V30 1849 H 181.269 -0.686725 -4.36734 0
M  V30 1850 N 180.328 1.1314 -1.09713 0
M  V30 1851 C 181.575 1.84484 -0.834987 0
M  V30 1852 C 181.903 1.83689 0.639418 0
M  V30 1853 O 181.158 1.2724 1.4869 0
M  V30 1854 C 181.457 3.32167 -1.3191 0
M  V30 1855 C 181.123 3.53139 -2.80363 0
M  V30 1856 C 179.785 3.58571 -3.20905 0
M  V30 1857 C 182.137 3.60866 -3.76065 0
M  V30 1858 C 179.465 3.69267 -4.55916 0
M  V30 1859 C 181.817 3.73089 -5.10869 0
M  V30 1860 C 180.481 3.76775 -5.50996 0
M  V30 1861 H 179.751 0.675073 -0.305544 0
M  V30 1862 H 182.398 1.33554 -1.37243 0
M  V30 1863 H 180.703 3.85469 -0.701517 0
M  V30 1864 H 182.4 3.85821 -1.09284 0
M  V30 1865 H 178.99 3.49569 -2.47991 0
M  V30 1866 H 183.174 3.55946 -3.45855 0
M  V30 1867 H 178.43 3.70388 -4.86438 0
M  V30 1868 H 182.604 3.78011 -5.84877 0
M  V30 1869 H 180.231 3.84815 -6.55608 0
M  V30 1870 N 181.806 0.884767 1.30421 0
M  V30 1871 C 182.769 0.356277 2.26414 0
M  V30 1872 C 183.769 -0.501124 1.52792 0
M  V30 1873 O 184.959 -0.30831 1.7145 0
M  V30 1874 C 182.091 -0.492316 3.37326 0
M  V30 1875 H 183.284 1.20389 2.74675 0
M  V30 1876 H 180.837 0.661607 1.41607 0
M  V30 1877 H 181.572 -1.36052 2.94381 0
M  V30 1878 H 181.357 0.121832 3.91911 0
M  V30 1879 H 182.847 -0.853871 4.08777 0
M  V30 1880 N 183.284 -1.43765 0.645699 0
M  V30 1881 C 184.53 -2.02731 0.164844 0
M  V30 1882 C 184.885 -1.49983 -1.2051 0
M  V30 1883 O 184.178 -0.680208 -1.79119 0
M  V30 1884 C 184.372 -3.57238 0.107679 0
M  V30 1885 C 184.201 -4.24977 1.47054 0
M  V30 1886 C 182.971 -4.61356 2.06103 0
M  V30 1887 C 185.169 -4.54476 2.40741 0
M  V30 1888 N 183.151 -5.14132 3.35473 0
M  V30 1889 C 184.522 -5.08489 3.54737 0
M  V30 1890 C 186.577 -4.36438 2.39637 0
M  V30 1891 C 185.28 -5.46364 4.67845 0
M  V30 1892 C 187.306 -4.7537 3.5182 0
M  V30 1893 C 186.668 -5.2951 4.64541 0
M  V30 1894 H 182.767 -0.774976 0.104578 0
M  V30 1895 H 185.351 -1.75051 0.852367 0
M  V30 1896 H 183.522 -3.84498 -0.549165 0
M  V30 1897 H 185.254 -4.0288 -0.383351 0
M  V30 1898 H 182.009 -4.46151 1.58892 0
M  V30 1899 H 182.433 -5.4498 4.01654 0
M  V30 1900 H 187.075 -3.93861 1.53731 0
M  V30 1901 H 184.793 -5.87888 5.54448 0
M  V30 1902 H 188.379 -4.63115 3.52159 0
M  V30 1903 H 187.259 -5.59077 5.49911 0
M  V30 1904 N 184.763 -0.387143 -1.52771 0
M  V30 1905 C 185.71 0.449048 -2.26389 0
M  V30 1906 C 186.68 1.05961 -1.27912 0
M  V30 1907 O 187.865 1.08804 -1.56737 0
M  V30 1908 C 185.005 1.57155 -3.0724 0
M  V30 1909 C 184.118 0.984066 -4.20643 0
M  V30 1910 C 183.253 2.07745 -4.88892 0
M  V30 1911 C 182.292 1.46574 -5.94292 0
M  V30 1912 N 181.429 2.49834 -6.56146 0
M  V30 1913 H 186.269 -0.185205 -2.97424 0
M  V30 1914 H 183.806 -0.103164 -1.46738 0
M  V30 1915 H 185.764 2.23309 -3.52405 0
M  V30 1916 H 184.394 2.17615 -2.38419 0
M  V30 1917 H 183.446 0.212193 -3.79808 0
M  V30 1918 H 184.758 0.497029 -4.96318 0
M  V30 1919 H 183.912 2.81673 -5.3735 0
M  V30 1920 H 182.651 2.59807 -4.12737 0
M  V30 1921 H 181.656 0.711696 -5.45174 0
M  V30 1922 H 182.881 0.953088 -6.72379 0
M  V30 1923 H 180.827 3.0107 -5.82832 0
M  V30 1924 H 180.744 2.05879 -7.27427 0
M  V30 1925 H 182.012 3.23399 -7.09249 0
M  V30 1926 N 186.241 1.57166 -0.116904 0
M  V30 1927 C 187.489 1.94737 0.540533 0
M  V30 1928 C 187.81 1.00096 1.67349 0
M  V30 1929 O 187.08 0.0568854 1.95817 0
M  V30 1930 H 185.66 0.718981 0.202669 0
M  V30 1931 H 188.322 1.94017 -0.185353 0
M  V30 1932 H 187.418 2.97719 0.936483 0
M  V30 1933 N 187.719 -0.156864 1.56817 0
M  V30 1934 C 188.629 -1.2136 2.00771 0
M  V30 1935 C 189.645 -1.47598 0.921459 0
M  V30 1936 O 190.821 -1.59462 1.2302 0
M  V30 1937 C 187.886 -2.52943 2.37109 0
M  V30 1938 C 186.947 -2.34439 3.59634 0
M  V30 1939 C 186.18 -3.59748 3.94229 0
M  V30 1940 O 186.403 -4.65526 3.29609 0
M  V30 1941 O 185.337 -3.52998 4.8752 0
M  V30 1942 H 189.163 -0.870468 2.90958 0
M  V30 1943 H 186.748 -0.36484 1.44877 0
M  V30 1944 H 188.63 -3.30538 2.61386 0
M  V30 1945 H 187.305 -2.86806 1.5008 0
M  V30 1946 H 186.212 -1.54828 3.40557 0
M  V30 1947 H 187.545 -2.05496 4.4725 0
M  V30 1948 N 189.197 -1.51736 -0.425897 0
M  V30 1949 C 190.425 -1.68794 -1.1965 0
M  V30 1950 C 190.84 -0.390164 -1.84725 0
M  V30 1951 O 190.197 0.632376 -1.71194 0
M  V30 1952 C 190.248 -2.81174 -2.27208 0
M  V30 1953 O 189.969 -4.05925 -1.64793 0
M  V30 1954 C 191.47 -3.09599 -3.17275 0
M  V30 1955 H 188.69 -0.566128 -0.360194 0
M  V30 1956 H 191.234 -1.98211 -0.503249 0
M  V30 1957 H 189.389 -2.54324 -2.9223 0
M  V30 1958 H 189.803 -4.68423 -2.35967 0
M  V30 1959 H 191.277 -3.91786 -3.88854 0
M  V30 1960 H 191.754 -2.22468 -3.78688 0
M  V30 1961 H 192.36 -3.38151 -2.57941 0
M  V30 1962 N 190.675 0.682077 -1.42076 0
M  V30 1963 C 191.605 1.80796 -1.47767 0
M  V30 1964 C 192.586 1.6677 -0.334954 0
M  V30 1965 O 193.771 1.863 -0.548264 0
M  V30 1966 C 190.901 3.19038 -1.37229 0
M  V30 1967 C 189.855 3.47789 -2.49453 0
M  V30 1968 C 189.181 4.8553 -2.23975 0
M  V30 1969 C 190.481 3.45411 -3.91776 0
M  V30 1970 H 192.175 1.7629 -2.41997 0
M  V30 1971 H 189.721 0.846721 -1.16476 0
M  V30 1972 H 191.674 3.97528 -1.39821 0
M  V30 1973 H 190.398 3.24204 -0.394907 0
M  V30 1974 H 189.057 2.71657 -2.46166 0
M  V30 1975 H 188.705 4.87337 -1.24547 0
M  V30 1976 H 188.405 5.0573 -2.99184 0
M  V30 1977 H 189.929 5.66312 -2.28304 0
M  V30 1978 H 191.343 4.13882 -3.96705 0
M  V30 1979 H 189.74 3.77145 -4.66778 0
M  V30 1980 H 190.81 2.44122 -4.18966 0
M  V30 1981 N 192.153 1.28127 0.917671 0
M  V30 1982 C 193.063 1.13556 2.05286 0
M  V30 1983 C 194.079 0.0630914 1.73886 0
M  V30 1984 O 195.255 0.271598 1.9956 0
M  V30 1985 C 192.32 0.794676 3.3747 0
M  V30 1986 C 191.381 1.94909 3.82504 0
M  V30 1987 C 190.614 1.62437 5.0838 0
M  V30 1988 O 190.837 0.536905 5.67867 0
M  V30 1989 O 189.771 2.46677 5.4903 0
M  V30 1990 H 193.597 2.08844 2.20495 0
M  V30 1991 H 191.182 1.07409 1.03845 0
M  V30 1992 H 193.064 0.618344 4.16839 0
M  V30 1993 H 191.739 -0.128581 3.23445 0
M  V30 1994 H 190.646 2.18055 3.03978 0
M  V30 1995 H 191.979 2.85291 4.01086 0
M  V30 1996 N 193.631 -1.12557 1.10312 0
M  V30 1997 C 194.541 -2.21841 0.763142 0
M  V30 1998 C 195.557 -1.72354 -0.238801 0
M  V30 1999 O 196.733 -2.01249 -0.0778746 0
M  V30 2000 C 193.798 -3.46131 0.198632 0
M  V30 2001 C 192.859 -4.10464 1.25769 0
M  V30 2002 C 192.092 -5.28821 0.72002 0
M  V30 2003 O 192.315 -5.6859 -0.453993 0
M  V30 2004 O 191.249 -5.83437 1.47935 0
M  V30 2005 H 195.075 -2.53312 1.67532 0
M  V30 2006 H 192.66 -1.20867 0.878157 0
M  V30 2007 H 194.542 -4.2125 -0.112401 0
M  V30 2008 H 193.217 -3.16338 -0.686419 0
M  V30 2009 H 192.124 -3.3713 1.62156 0
M  V30 2010 H 193.457 -4.44408 2.11571 0
M  V30 2011 N 195.109 -0.891671 -1.2995 0
M  V30 2012 C 196.339 -0.527893 -1.99742 0
M  V30 2013 C 196.747 0.88979 -1.66971 0
M  V30 2014 O 196.09 1.59766 -0.906667 0
M  V30 2015 C 196.152 -0.630804 -3.53922 0
M  V30 2016 C 195.816 -2.01401 -4.10228 0
M  V30 2017 C 196.813 -2.98422 -4.25724 0
M  V30 2018 C 194.498 -2.32121 -4.45449 0
M  V30 2019 C 196.492 -4.24293 -4.75662 0
M  V30 2020 C 194.179 -3.58237 -4.95086 0
M  V30 2021 C 195.177 -4.54137 -5.10146 0
M  V30 2022 O 194.865 -5.78014 -5.58708 0
M  V30 2023 H 194.597 -0.201953 -0.645129 0
M  V30 2024 H 197.151 -1.20076 -1.66646 0
M  V30 2025 H 195.381 0.0990616 -3.86573 0
M  V30 2026 H 197.07 -0.277338 -4.04951 0
M  V30 2027 H 197.836 -2.76001 -3.98809 0
M  V30 2028 H 193.715 -1.5824 -4.32991 0
M  V30 2029 H 197.259 -4.99153 -4.87332 0
M  V30 2030 H 193.156 -3.80491 -5.21437 0
M  V30 2031 H 193.924 -5.8049 -5.77039 0
M  V30 2032 N 196.587 1.43421 -0.653314 0
M  V30 2033 C 197.833 2.02641 -0.175593 0
M  V30 2034 C 198.188 1.5062 1.19713 0
M  V30 2035 O 197.481 0.689697 1.78756 0
M  V30 2036 C 197.675 3.57176 -0.126623 0
M  V30 2037 C 197.504 4.24191 -1.49306 0
M  V30 2038 C 196.274 4.60257 -2.08547 0
M  V30 2039 C 198.472 4.53193 -2.43148 0
M  V30 2040 N 196.454 5.12345 -3.38194 0
M  V30 2041 C 197.825 5.06601 -3.57429 0
M  V30 2042 C 199.88 4.35161 -2.41949 0
M  V30 2043 C 198.583 5.43875 -4.70736 0
M  V30 2044 C 200.609 4.73498 -3.54336 0
M  V30 2045 C 199.971 5.27039 -4.67343 0
M  V30 2046 H 196.07 0.77441 -0.108686 0
M  V30 2047 H 198.654 1.74596 -0.861638 0
M  V30 2048 H 196.825 3.84784 0.528766 0
M  V30 2049 H 198.557 4.03078 0.36198 0
M  V30 2050 H 195.312 4.45302 -1.61255 0
M  V30 2051 H 195.736 5.42842 -4.04538 0
M  V30 2052 H 200.378 3.9304 -1.55818 0
M  V30 2053 H 198.096 5.8494 -5.57558 0
M  V30 2054 H 201.682 4.61241 -3.5461 0
M  V30 2055 H 200.562 5.56153 -5.52868 0
M  V30 2056 N 198.065 0.39524 1.52563 0
M  V30 2057 C 199.311 -0.177763 2.02622 0
M  V30 2058 C 199.666 -1.43974 1.27629 0
M  V30 2059 O 198.959 -1.87995 0.36992 0
M  V30 2060 C 199.153 -0.493444 3.53977 0
M  V30 2061 C 198.982 0.736392 4.4363 0
M  V30 2062 C 197.752 1.25744 4.89404 0
M  V30 2063 C 199.95 1.61046 4.88435 0
M  V30 2064 N 197.932 2.44421 5.63145 0
M  V30 2065 C 199.303 2.64359 5.60816 0
M  V30 2066 C 201.358 1.62985 4.70468 0
M  V30 2067 C 200.061 3.69505 6.17137 0
M  V30 2068 C 202.087 2.67042 5.27677 0
M  V30 2069 C 201.449 3.69077 5.99968 0
M  V30 2070 H 197.548 -0.0269794 0.781534 0
M  V30 2071 H 200.132 0.546466 1.86874 0
M  V30 2072 H 198.303 -1.18672 3.69826 0
M  V30 2073 H 200.035 -1.05412 3.90731 0
M  V30 2074 H 196.79 0.817546 4.6649 0
M  V30 2075 H 197.214 3.04485 6.04663 0
M  V30 2076 H 201.856 0.854442 4.14076 0
M  V30 2077 H 199.574 4.4791 6.72608 0
M  V30 2078 H 203.16 2.69433 5.15652 0
M  V30 2079 H 202.04 4.48273 6.43444 0
M  V30 2080 N 199.544 -1.57102 0.125237 0
M  V30 2081 C 200.507 -2.14471 -0.80838 0
M  V30 2082 C 201.507 -1.0811 -1.19033 0
M  V30 2083 O 202.697 -1.33856 -1.11482 0
M  V30 2084 C 199.829 -2.69005 -2.09402 0
M  V30 2085 H 201.022 -2.98297 -0.309696 0
M  V30 2086 H 198.575 -1.55807 -0.124051 0
M  V30 2087 H 199.31 -1.88785 -2.63687 0
M  V30 2088 H 199.095 -3.46799 -1.82957 0
M  V30 2089 H 200.585 -3.13278 -2.76128 0
M  V30 2090 N 201.022 0.148545 -1.56898 0
M  V30 2091 C 201.985 1.16736 -1.97244 0
M  V30 2092 C 202.985 1.35947 -0.858777 0
M  V30 2093 O 204.175 1.32966 -1.12542 0
M  V30 2094 C 201.307 2.52798 -2.28705 0
M  V30 2095 H 202.5 0.821279 -2.88435 0
M  V30 2096 H 200.053 0.391831 -1.51309 0
M  V30 2097 H 200.788 2.92381 -1.403 0
M  V30 2098 H 200.573 2.40216 -3.09901 0
M  V30 2099 H 202.063 3.26179 -2.60762 0
M  V30 2100 N 202.5 1.5196 0.417844 0
M  V30 2101 C 203.41 1.77554 1.53336 0
M  V30 2102 C 204.426 0.660655 1.6097 0
M  V30 2103 O 205.602 0.945099 1.77848 0
M  V30 2104 C 202.667 1.91291 2.89152 0
M  V30 2105 C 201.728 3.15183 2.91475 0
M  V30 2106 C 200.961 3.28256 4.20813 0
M  V30 2107 O 201.184 2.46798 5.14244 0
M  V30 2108 O 200.118 4.21356 4.29817 0
M  V30 2109 H 203.944 2.7222 1.34647 0
M  V30 2110 H 201.529 1.36698 0.602828 0
M  V30 2111 H 203.411 2.02199 3.69721 0
M  V30 2112 H 202.086 0.998129 3.07927 0
M  V30 2113 H 200.993 3.09739 2.09791 0
M  V30 2114 H 202.326 4.06414 2.77648 0
M  V30 2115 N 203.978 -0.674533 1.42435 0
M  V30 2116 C 204.91 -1.80005 1.41883 0
M  V30 2117 C 205.923 -1.59667 0.31787 0
M  V30 2118 O 207.112 -1.68781 0.580973 0
M  V30 2119 C 204.212 -3.17114 1.19549 0
M  V30 2120 C 203.385 -3.64299 2.42084 0
M  V30 2121 C 202.444 -4.80142 2.15291 0
M  V30 2122 O 201.47 -4.90673 2.88493 0
M  V30 2123 N 202.672 -5.68869 1.1562 0
M  V30 2124 H 205.437 -1.80964 2.38898 0
M  V30 2125 H 202.998 -0.857633 1.37318 0
M  V30 2126 H 204.99 -3.92267 0.995417 0
M  V30 2127 H 203.56 -3.11053 0.310569 0
M  V30 2128 H 202.78 -2.79822 2.77657 0
M  V30 2129 H 204.068 -3.92567 3.23679 0
M  V30 2130 H 203.466 -5.63012 0.550765 0
M  V30 2131 H 202.023 -6.43833 1.016 0
M  V30 2132 N 205.456 -1.28612 -0.910864 0
M  V30 2133 C 206.389 -1.07109 -2.01502 0
M  V30 2134 C 207.367 0.013706 -1.62594 0
M  V30 2135 O 208.551 -0.134796 -1.88017 0
M  V30 2136 C 205.678 -0.628255 -3.32822 0
M  V30 2137 C 204.724 -1.71012 -3.90714 0
M  V30 2138 S 205.557 -3.30676 -4.21205 0
M  V30 2139 C 206.713 -2.88234 -5.55583 0
M  V30 2140 H 206.946 -2.00591 -2.19432 0
M  V30 2141 H 204.479 -1.12633 -1.05609 0
M  V30 2142 H 206.437 -0.37946 -4.08742 0
M  V30 2143 H 205.098 0.28678 -3.12788 0
M  V30 2144 H 204.291 -1.35195 -4.85529 0
M  V30 2145 H 203.893 -1.91186 -3.21441 0
M  V30 2146 H 206.185 -2.34584 -6.35591 0
M  V30 2147 H 207.128 -3.81857 -5.96314 0
M  V30 2148 H 207.536 -2.26862 -5.16908 0
M  V30 2149 N 206.934 1.1197 -1.10907 0
M  V30 2150 C 207.864 2.19928 -0.784473 0
M  V30 2151 C 208.845 1.6833 0.244726 0
M  V30 2152 O 210.03 1.93892 0.109418 0
M  V30 2153 C 207.16 3.46597 -0.220827 0
M  V30 2154 C 206.114 4.11376 -1.18127 0
M  V30 2155 C 205.44 5.32554 -0.478594 0
M  V30 2156 C 206.74 4.56945 -2.52979 0
M  V30 2157 H 208.434 2.47337 -1.68715 0
M  V30 2158 H 205.98 1.18879 -0.812642 0
M  V30 2159 H 207.933 4.21396 0.0184278 0
M  V30 2160 H 206.657 3.1863 0.717113 0
M  V30 2161 H 205.316 3.38564 -1.40606 0
M  V30 2162 H 204.964 5.00856 0.463976 0
M  V30 2163 H 204.664 5.76844 -1.11912 0
M  V30 2164 H 206.188 6.10096 -0.248 0
M  V30 2165 H 207.602 5.23093 -2.3462 0
M  V30 2166 H 205.999 5.1203 -3.12962 0
M  V30 2167 H 207.069 3.70676 -3.12614 0
M  V30 2168 N 208.412 0.89855 1.29475 0
M  V30 2169 C 209.64 0.539261 1.99749 0
M  V30 2170 C 210.055 -0.875716 1.67262 0
M  V30 2171 O 209.412 -1.57786 0.917049 0
M  V30 2172 C 209.463 0.72061 3.54245 0
M  V30 2173 O 209.184 2.07989 3.8558 0
M  V30 2174 C 210.685 0.366118 4.41786 0
M  V30 2175 H 207.905 0.207047 0.638258 0
M  V30 2176 H 210.449 1.20758 1.65039 0
M  V30 2177 H 208.604 0.0994862 3.87272 0
M  V30 2178 H 209.018 2.10841 4.80257 0
M  V30 2179 H 210.492 0.543848 5.49314 0
M  V30 2180 H 210.969 -0.696763 4.33638 0
M  V30 2181 H 211.575 0.964135 4.14228 0
M  V30 2182 N 209.89 -1.43072 0.660911 0
M  V30 2183 C 211.136 -2.02545 0.186337 0
M  V30 2184 C 211.491 -1.51253 -1.18913 0
M  V30 2185 O 210.784 -0.699167 -1.78388 0
M  V30 2186 C 210.978 -3.57103 0.145563 0
M  V30 2187 C 210.807 -4.23393 1.51554 0
M  V30 2188 C 209.577 -4.59144 2.10984 0
M  V30 2189 C 211.775 -4.51897 2.45548 0
M  V30 2190 N 209.757 -5.10545 3.40907 0
M  V30 2191 C 211.128 -5.04698 3.6011 0
M  V30 2192 C 213.183 -4.33872 2.44253 0
M  V30 2193 C 211.886 -5.41371 4.73613 0
M  V30 2194 C 213.912 -4.71612 3.56842 0
M  V30 2195 C 213.274 -5.24553 4.70131 0
M  V30 2196 H 209.373 -0.773823 0.112792 0
M  V30 2197 H 211.957 -1.74137 0.870885 0
M  V30 2198 H 210.128 -3.85059 -0.508353 0
M  V30 2199 H 211.86 -4.03264 -0.340598 0
M  V30 2200 H 208.615 -4.4444 1.63615 0
M  V30 2201 H 209.039 -5.40689 4.07411 0
M  V30 2202 H 213.681 -3.92208 1.579 0
M  V30 2203 H 211.399 -5.81975 5.60652 0
M  V30 2204 H 214.985 -4.59354 3.57051 0
M  V30 2205 H 213.865 -5.53213 5.5581 0
M  V30 2206 N 211.368 -0.403325 -1.52352 0
M  V30 2207 C 212.779 0.0675782 -1.86578 0
M  V30 2208 C 213.13 1.44941 -1.32236 0
M  V30 2209 O 212.255 2.06112 -0.659307 0
M  V30 2210 C 212.85 0.129404 -3.38553 0
M  V30 2211 C 211.409 0.544629 -3.72439 0
M  V30 2212 C 210.556 -0.284551 -2.75836 0
M  V30 2213 H 213.507 -0.620631 -1.46061 0
M  V30 2214 H 213.528 0.94581 -3.68558 0
M  V30 2215 H 213.04 -0.87645 -3.78074 0
M  V30 2216 H 211.141 1.55734 -3.38493 0
M  V30 2217 H 211.254 0.293046 -4.78203 0
M  V30 2218 H 209.618 0.252258 -2.53448 0
M  V30 2219 H 210.401 -1.28865 -3.18196 0
M  V30 2220 N 212.846 1.57033 -0.133567 0
M  V30 2221 C 214.123 1.87256 0.56522 0
M  V30 2222 C 214.503 1.03726 1.83859 0
M  V30 2223 O 213.851 0.120247 2.28183 0
M  V30 2224 C 214.061 3.3865 0.843636 0
M  V30 2225 C 215.409 4.07574 1.19032 0
M  V30 2226 O 216.433 3.43752 0.933429 0
M  V30 2227 O 215.292 5.20259 1.67312 0
M  V30 2228 H 212.386 0.775678 0.286796 0
M  V30 2229 H 214.932 1.68855 -0.169168 0
M  V30 2230 H 213.704 3.91257 -0.0581149 0
M  V30 2231 H 213.327 3.62532 1.63268 0
M  V30 2232 N 214.325 -0.140222 1.56975 0
M  V30 2233 C 215.736 -0.699596 1.73097 0
M  V30 2234 C 216.087 -1.8134 0.749022 0
M  V30 2235 O 215.212 -2.16241 -0.0828503 0
M  V30 2236 C 215.807 -1.27582 3.1386 0
M  V30 2237 C 214.366 -1.78169 3.31561 0
M  V30 2238 C 213.513 -0.672855 2.69013 0
M  V30 2239 H 216.464 0.0855115 1.58469 0
M  V30 2240 H 216.485 -2.14561 3.14235 0
M  V30 2241 H 215.997 -0.464955 3.85305 0
M  V30 2242 H 214.098 -2.61801 2.65124 0
M  V30 2243 H 214.211 -1.90574 4.39566 0
M  V30 2244 H 212.575 -1.10118 2.29665 0
M  V30 2245 H 213.358 0.126679 3.43066 0
M  V30 2246 N 215.803 -1.52179 -0.40978 0
M  V30 2247 C 217.08 -1.56769 -1.16974 0
M  V30 2248 C 217.46 -0.348322 -2.08206 0
M  V30 2249 O 216.808 0.664862 -2.18613 0
M  V30 2250 C 217.018 -2.89603 -1.9476 0
M  V30 2251 C 218.366 -3.42579 -2.50849 0
M  V30 2252 O 219.39 -2.91338 -2.04941 0
M  V30 2253 O 218.249 -4.32054 -3.34652 0
M  V30 2254 H 215.343 -0.631439 -0.534054 0
M  V30 2255 H 217.889 -1.64507 -0.416613 0
M  V30 2256 H 216.661 -3.698 -1.27921 0
M  V30 2257 H 216.284 -2.85155 -2.77079 0
M  V30 2258 N 217.281 0.66697 -1.42791 0
M  V30 2259 C 218.228 1.7803 -1.4688 0
M  V30 2260 C 219.198 1.6299 -0.319919 0
M  V30 2261 O 220.383 1.83432 -0.525118 0
M  V30 2262 C 217.523 3.1611 -1.38451 0
M  V30 2263 C 216.636 3.42381 -2.63437 0
M  V30 2264 C 215.771 4.70232 -2.47094 0
M  V30 2265 C 214.81 4.89564 -3.67415 0
M  V30 2266 N 213.947 6.08661 -3.49966 0
M  V30 2267 H 218.787 1.7387 -2.42019 0
M  V30 2268 H 216.324 0.84868 -1.20149 0
M  V30 2269 H 218.282 3.95914 -1.31561 0
M  V30 2270 H 216.912 3.19374 -0.469033 0
M  V30 2271 H 215.964 2.56774 -2.80662 0
M  V30 2272 H 217.276 3.52557 -3.52853 0
M  V30 2273 H 216.43 5.5814 -2.37834 0
M  V30 2274 H 215.169 4.62353 -1.5518 0
M  V30 2275 H 214.174 4.00096 -3.77099 0
M  V30 2276 H 215.399 4.99282 -4.6032 0
M  V30 2277 H 213.345 6.0194 -2.60776 0
M  V30 2278 H 213.262 6.19733 -4.32975 0
M  V30 2279 H 214.53 6.99226 -3.44532 0
M  V30 2280 N 218.759 1.29093 0.90403 0
M  V30 2281 C 220.17 1.15186 1.46932 0
M  V30 2282 C 220.521 -0.254587 1.94541 0
M  V30 2283 O 219.646 -1.14972 1.83332 0
M  V30 2284 C 220.241 2.08492 2.67051 0
M  V30 2285 C 218.8 1.98621 3.19729 0
M  V30 2286 C 217.947 1.9967 1.92425 0
M  V30 2287 H 220.898 1.41641 0.715789 0
M  V30 2288 H 220.919 1.65461 3.42641 0
M  V30 2289 H 220.431 3.10847 2.3237 0
M  V30 2290 H 218.532 0.993389 3.59114 0
M  V30 2291 H 218.645 2.86068 3.8432 0
M  V30 2292 H 217.009 1.44208 2.09943 0
M  V30 2293 H 217.792 3.03721 1.60026 0
M  V30 2294 N 220.237 -1.11381 1.11499 0
M  V30 2295 C 221.2 -2.15622 0.777153 0
M  V30 2296 C 222.2 -1.59504 -0.203779 0
M  V30 2297 O 223.39 -1.74188 0.020782 0
M  V30 2298 C 220.522 -3.40556 0.153116 0
M  V30 2299 H 221.715 -2.47021 1.70061 0
M  V30 2300 H 219.268 -1.26577 0.916952 0
M  V30 2301 H 220.003 -3.14767 -0.780536 0
M  V30 2302 H 219.788 -3.8257 0.859238 0
M  V30 2303 H 221.278 -4.17546 -0.0671044 0
M  V30 2304 N 221.715 -0.905404 -1.28997 0
M  V30 2305 C 222.663 -0.377431 -2.29517 0
M  V30 2306 C 223.657 0.526461 -1.61012 0
M  V30 2307 O 224.863 0.40863 -1.753 0
M  V30 2308 H 221.238 -0.103437 -0.744852 0
M  V30 2309 H 223.209 -1.23848 -2.71485 0
M  V30 2310 C 221.958 0.374833 -3.45674 0
M  V30 2311 H 221.281 -0.311474 -3.98585 0
M  V30 2312 H 222.721 0.70903 -4.1803 0
M  V30 2313 C 221.18 1.57963 -2.97572 0
M  V30 2314 O 221.71 2.67886 -2.99333 0
M  V30 2315 N 219.916 1.42375 -2.53333 0
M  V30 2316 H 219.463 0.529466 -2.521 0
M  V30 2317 H 219.421 2.23117 -2.21509 0
M  V30 2318 N 223.193 1.4272 -0.668489 0
M  V30 2319 C 224.126 2.28111 0.0637898 0
M  V30 2320 C 225.104 1.40705 0.814912 0
M  V30 2321 O 226.288 1.70146 0.81134 0
M  V30 2322 C 223.415 3.20429 1.0974 0
M  V30 2323 C 222.461 4.24197 0.442579 0
M  V30 2324 S 223.294 5.29563 -0.795173 0
M  V30 2325 C 224.45 6.25449 0.237516 0
M  V30 2326 H 224.683 2.8987 -0.660521 0
M  V30 2327 H 222.216 1.47456 -0.457821 0
M  V30 2328 H 224.174 3.74158 1.68868 0
M  V30 2329 H 222.835 2.57818 1.79411 0
M  V30 2330 H 222.028 4.88954 1.22227 0
M  V30 2331 H 221.63 3.73925 -0.0749554 0
M  V30 2332 H 223.922 6.68524 1.09915 0
M  V30 2333 H 224.865 7.07104 -0.375421 0
M  V30 2334 H 225.273 5.61511 0.580167 0
M  V30 2335 N 224.671 0.411399 1.52136 0
M  V30 2336 C 225.92 -0.165009 2.01024 0
M  V30 2337 C 226.233 -1.4603 1.30133 0
M  V30 2338 O 227.439 -2.1181 1.69849 0
M  V30 2339 C 225.895 -0.344618 3.58246 0
M  V30 2340 C 225.503 0.938716 4.38055 0
M  V30 2341 C 227.247 -0.876195 4.15359 0
M  V30 2342 C 225.154 0.726172 5.86925 0
M  V30 2343 H 224.084 -0.0654407 0.751155 0
M  V30 2344 H 226.735 0.537192 1.75461 0
M  V30 2345 H 225.117 -1.10921 3.80148 0
M  V30 2346 H 226.291 1.70963 4.27912 0
M  V30 2347 H 224.606 1.39688 3.92271 0
M  V30 2348 H 227.203 -1.05128 5.24263 0
M  V30 2349 H 227.546 -1.85152 3.7286 0
M  V30 2350 H 228.079 -0.170607 3.97434 0
M  V30 2351 H 224.818 1.67312 6.33788 0
M  V30 2352 H 224.338 -0.00540283 5.998 0
M  V30 2353 H 226.017 0.369231 6.45946 0
M  V30 2354 N 226.149 -1.5696 0.141893 0
M  V30 2355 C 227.079 -2.19516 -0.795936 0
M  V30 2356 C 228.06 -1.14187 -1.26077 0
M  V30 2357 O 229.245 -1.42511 -1.31925 0
M  V30 2358 C 226.375 -2.81272 -2.03723 0
M  V30 2359 C 225.329 -3.92384 -1.70936 0
M  V30 2360 C 224.655 -4.41052 -3.02287 0
M  V30 2361 C 225.955 -5.13403 -0.959954 0
M  V30 2362 H 227.649 -2.98138 -0.274596 0
M  V30 2363 H 225.195 -1.43406 -0.130636 0
M  V30 2364 H 227.148 -3.237 -2.69808 0
M  V30 2365 H 225.872 -1.99973 -2.58221 0
M  V30 2366 H 224.531 -3.50566 -1.07232 0
M  V30 2367 H 224.179 -3.56582 -3.54765 0
M  V30 2368 H 223.879 -5.15993 -2.81114 0
M  V30 2369 H 225.403 -4.86146 -3.69451 0
M  V30 2370 H 226.817 -5.52706 -1.52279 0
M  V30 2371 H 225.214 -5.94073 -0.848357 0
M  V30 2372 H 226.284 -4.84875 0.0492434 0
M  V30 2373 N 227.627 0.131896 -1.57047 0
M  V30 2374 C 228.904 0.871495 -1.75112 0
M  V30 2375 C 229.284 1.9866 -0.713949 0
M  V30 2376 O 228.632 2.26965 0.264447 0
M  V30 2377 C 228.842 1.40007 -3.19686 0
M  V30 2378 C 230.19 1.85752 -3.81813 0
M  V30 2379 O 231.214 1.49715 -3.23209 0
M  V30 2380 O 230.073 2.5226 -4.84796 0
M  V30 2381 H 227.167 0.412919 -0.716538 0
M  V30 2382 H 229.713 0.116641 -1.69299 0
M  V30 2383 H 228.485 0.599404 -3.86682 0
M  V30 2384 H 228.108 2.218 -3.29986 0
M  V30 2385 N 229.106 1.52395 0.401703 0
M  V30 2386 C 230.383 1.57387 1.16141 0
M  V30 2387 C 230.763 0.359359 2.08019 0
M  V30 2388 O 230.111 -0.65326 2.18963 0
M  V30 2389 C 230.321 2.90631 1.93221 0
M  V30 2390 C 231.669 3.43904 2.49028 0
M  V30 2391 O 232.693 2.92421 2.03393 0
M  V30 2392 O 231.552 4.33823 3.32356 0
M  V30 2393 H 228.646 0.634262 0.530698 0
M  V30 2394 H 231.192 1.64725 0.407883 0
M  V30 2395 H 229.964 3.70473 1.25958 0
M  V30 2396 H 229.587 2.8662 2.75563 0
M  V30 2397 N 230.584 -0.659388 1.43143 0
M  V30 2398 C 231.832 -1.41654 1.44147 0
M  V30 2399 C 232.153 -1.94893 0.0645739 0
M  V30 2400 O 231.423 -1.74044 -0.899198 0
M  V30 2401 H 230.003 -0.525708 0.530697 0
M  V30 2402 H 232.665 -0.778097 1.78694 0
M  V30 2403 H 231.761 -2.26195 2.1504 0
M  V30 2404 N 232.062 -1.29571 -0.897171 0
M  V30 2405 C 233.31 -1.17456 -1.64464 0
M  V30 2406 C 233.631 0.273698 -1.9307 0
M  V30 2407 O 232.901 1.18684 -1.55855 0
M  V30 2408 H 231.481 -0.431706 -0.609622 0
M  V30 2409 H 234.143 -1.62531 -1.07562 0
M  V30 2410 H 233.239 -1.72648 -2.59998 0
M  V30 2411 N 233.54 1.10788 -1.12088 0
M  V30 2412 C 234.817 1.79136 -0.785476 0
M  V30 2413 C 235.197 1.98246 0.725377 0
M  V30 2414 O 234.545 1.57258 1.65778 0
M  V30 2415 C 234.755 3.12375 -1.55636 0
M  V30 2416 C 236.103 3.8731 -1.74001 0
M  V30 2417 O 237.127 3.22085 -1.52117 0
M  V30 2418 O 235.986 5.04369 -2.10415 0
M  V30 2419 H 233.08 0.776226 -0.285311 0
M  V30 2420 H 235.626 1.1747 -1.2247 0
M  V30 2421 H 234.398 2.93863 -2.5838 0
M  V30 2422 H 234.021 3.81758 -1.11114 0
M  V30 2423 N 235.018 0.912232 1.28515 0
M  V30 2424 C 235.981 0.404223 2.25607 0
M  V30 2425 C 236.981 -0.468602 1.53821 0
M  V30 2426 O 238.171 -0.271873 1.72065 0
M  V30 2427 C 235.303 -0.420653 3.38295 0
M  V30 2428 H 236.496 1.26188 2.7206 0
M  V30 2429 H 234.049 0.691495 1.40171 0
M  V30 2430 H 234.784 -1.29777 2.97201 0
M  V30 2431 H 234.569 0.204935 3.91564 0
M  V30 2432 H 236.059 -0.766971 4.10496 0
M  V30 2433 N 236.496 -1.42363 0.676048 0
M  V30 2434 C 237.724 -2.05859 0.207268 0
M  V30 2435 C 238.139 -1.50796 -1.13605 0
M  V30 2436 O 237.496 -0.648265 -1.70598 0
M  V30 2437 C 237.547 -3.61248 0.134975 0
M  V30 2438 O 237.268 -4.1427 1.42521 0
M  V30 2439 C 238.769 -4.41859 -0.357151 0
M  V30 2440 H 235.989 -0.663431 0.100503 0
M  V30 2441 H 238.533 -1.82479 0.923136 0
M  V30 2442 H 236.688 -3.83735 -0.531588 0
M  V30 2443 H 237.102 -5.0815 1.29939 0
M  V30 2444 H 238.576 -5.50847 -0.356641 0
M  V30 2445 H 239.053 -4.16536 -1.39264 0
M  V30 2446 H 239.659 -4.24392 0.27772 0
M  V30 2447 N 237.974 -0.419461 -1.51915 0
M  V30 2448 C 238.907 0.445751 -2.23804 0
M  V30 2449 C 239.885 1.03951 -1.25031 0
M  V30 2450 O 241.069 1.08541 -1.54114 0
M  V30 2451 C 238.196 1.61964 -2.97465 0
M  V30 2452 C 237.242 1.14828 -4.10751 0
M  V30 2453 S 238.075 0.104938 -5.35397 0
M  V30 2454 C 239.231 1.28391 -6.1259 0
M  V30 2455 H 239.464 -0.164627 -2.96844 0
M  V30 2456 H 236.997 -0.203833 -1.53049 0
M  V30 2457 H 238.955 2.29271 -3.40507 0
M  V30 2458 H 237.616 2.20139 -2.24048 0
M  V30 2459 H 236.809 2.02561 -4.61503 0
M  V30 2460 H 236.411 0.553712 -3.69878 0
M  V30 2461 H 238.703 2.20563 -6.40592 0
M  V30 2462 H 239.646 0.816724 -7.03374 0
M  V30 2463 H 240.054 1.51439 -5.43807 0
M  V30 2464 N 239.452 1.56882 -0.150215 0
M  V30 2465 C 240.382 2.19935 0.784284 0
M  V30 2466 C 241.363 1.14854 1.25469 0
M  V30 2467 O 242.548 1.43209 1.31168 0
M  V30 2468 C 239.678 2.82349 2.02229 0
M  V30 2469 C 238.632 3.93285 1.68853 0
M  V30 2470 C 237.958 4.42649 2.99944 0
M  V30 2471 C 239.258 5.13904 0.932714 0
M  V30 2472 H 240.952 2.9828 0.258781 0
M  V30 2473 H 238.498 1.43473 0.123029 0
M  V30 2474 H 240.451 3.25126 2.68088 0
M  V30 2475 H 239.175 2.0134 2.57157 0
M  V30 2476 H 237.834 3.5113 1.05371 0
M  V30 2477 H 237.482 3.58458 3.52869 0
M  V30 2478 H 237.182 5.17476 2.78374 0
M  V30 2479 H 238.706 4.88099 3.66868 0
M  V30 2480 H 240.12 5.53506 1.49345 0
M  V30 2481 H 238.517 5.94515 0.81684 0
M  V30 2482 H 239.587 4.84842 -0.0749568 0
M  V30 2483 N 240.93 -0.123565 1.57115 0
M  V30 2484 C 242.176 -0.833386 1.84885 0
M  V30 2485 C 242.509 -1.79742 0.735292 0
M  V30 2486 O 241.784 -1.92764 -0.25925 0
M  V30 2487 C 242.067 -1.5873 3.23228 0
M  V30 2488 C 241.92 -0.643183 4.45178 0
M  V30 2489 C 243.239 -2.54453 3.59085 0
M  V30 2490 H 240.358 -0.301518 0.6725 0
M  V30 2491 H 243 -0.097778 1.89748 0
M  V30 2492 H 241.15 -2.21438 3.19214 0
M  V30 2493 H 242.822 -0.0253015 4.61293 0
M  V30 2494 H 241.065 0.0456139 4.33776 0
M  V30 2495 H 241.736 -1.20724 5.38637 0
M  V30 2496 H 244.212 -2.01853 3.63861 0
M  V30 2497 H 243.088 -3.04238 4.5687 0
M  V30 2498 H 243.349 -3.36906 2.86264 0
M  V30 2499 N 242.408 -1.52605 -0.393616 0
M  V30 2500 C 243.338 -1.80022 -1.48709 0
M  V30 2501 C 244.319 -0.651995 -1.57108 0
M  V30 2502 O 245.504 -0.89913 -1.72132 0
M  V30 2503 C 242.634 -1.96492 -2.86371 0
M  V30 2504 C 241.588 -3.12161 -2.92813 0
M  V30 2505 C 240.914 -3.13877 -4.3288 0
M  V30 2506 C 242.214 -4.51322 -2.6288 0
M  V30 2507 H 243.908 -2.71589 -1.26015 0
M  V30 2508 H 241.454 -1.30684 -0.604778 0
M  V30 2509 H 243.407 -2.14255 -3.62867 0
M  V30 2510 H 242.131 -1.01611 -3.10391 0
M  V30 2511 H 240.79 -2.94173 -2.18764 0
M  V30 2512 H 240.438 -2.16687 -4.53933 0
M  V30 2513 H 240.138 -3.91576 -4.38112 0
M  V30 2514 H 241.662 -3.33789 -5.1129 0
M  V30 2515 H 243.076 -4.69435 -3.29096 0
M  V30 2516 H 241.473 -5.31053 -2.79468 0
M  V30 2517 H 242.543 -4.58353 -1.58242 0
M  V30 2518 N 243.887 0.651787 -1.4349 0
M  V30 2519 C 245.303 0.96762 -1.26922 0
M  V30 2520 C 245.503 2.00602 -0.189982 0
M  V30 2521 O 244.559 2.48793 0.431107 0
M  V30 2522 C 245.872 1.45052 -2.63401 0
M  V30 2523 C 247.42 1.5671 -2.70945 0
M  V30 2524 C 247.895 2.0839 -4.07845 0
M  V30 2525 N 249.386 2.1569 -4.09917 0
M  V30 2526 C 250.121 2.56804 -5.12679 0
M  V30 2527 N 249.617 2.97203 -6.25813 0
M  V30 2528 N 251.41 2.56756 -5.00033 0
M  V30 2529 H 243.561 -0.0353158 -2.12371 0
M  V30 2530 H 245.824 0.0467858 -0.946845 0
M  V30 2531 H 245.53 0.761926 -3.43348 0
M  V30 2532 H 245.404 2.42529 -2.88894 0
M  V30 2533 H 247.791 2.2467 -1.9133 0
M  V30 2534 H 247.872 0.57662 -2.49216 0
M  V30 2535 H 247.516 1.41031 -4.87927 0
M  V30 2536 H 247.446 3.08271 -4.26938 0
M  V30 2537 H 249.937 1.87237 -3.28254 0
M  V30 2538 H 250.25 3.27328 -7.00055 0
M  V30 2539 H 248.595 2.95004 -6.29283 0
M  V30 2540 H 251.786 2.24572 -4.10713 0
M  V30 2541 H 251.959 2.88475 -5.80247 0
M  V30 2542 N 245.365 1.30045 0.890287 0
M  V30 2543 C 246.613 1.18327 1.63839 0
M  V30 2544 C 246.934 -0.263455 1.93212 0
M  V30 2545 O 246.204 -1.17856 1.56482 0
M  V30 2546 H 244.784 0.434933 0.607324 0
M  V30 2547 H 247.446 1.631 1.06698 0
M  V30 2548 H 246.542 1.74024 2.59079 0
M  V30 2549 N 246.843 -1.10192 1.12674 0
M  V30 2550 C 247.776 -2.15847 0.740625 0
M  V30 2551 C 248.754 -1.60352 -0.269421 0
M  V30 2552 O 249.938 -1.87796 -0.16278 0
M  V30 2553 C 247.065 -3.38562 0.096641 0
M  V30 2554 C 246.111 -4.12758 1.07391 0
M  V30 2555 S 246.944 -4.67997 2.60267 0
M  V30 2556 C 248.1 -5.94021 1.97206 0
M  V30 2557 H 248.333 -2.48266 1.63558 0
M  V30 2558 H 245.866 -1.22019 0.946087 0
M  V30 2559 H 247.824 -4.09621 -0.268535 0
M  V30 2560 H 246.485 -3.04377 -0.775462 0
M  V30 2561 H 245.678 -5.00755 0.570997 0
M  V30 2562 H 245.28 -3.47523 1.38216 0
M  V30 2563 H 247.572 -6.64589 1.31634 0
M  V30 2564 H 248.515 -6.48979 2.83253 0
M  V30 2565 H 248.923 -5.46169 1.42686 0
M  V30 2566 N 248.321 -0.919034 -1.28029 0
M  V30 2567 C 249.253 -0.368762 -2.26214 0
M  V30 2568 C 250.266 0.495716 -1.55069 0
M  V30 2569 O 251.455 0.30974 -1.75792 0
M  V30 2570 C 248.555 0.491049 -3.35324 0
M  V30 2571 C 247.728 -0.352133 -4.3598 0
M  V30 2572 C 246.787 0.443622 -5.24327 0
M  V30 2573 O 245.813 -0.14566 -5.69014 0
M  V30 2574 N 247.015 1.74545 -5.53637 0
M  V30 2575 H 249.78 -1.21273 -2.74068 0
M  V30 2576 H 247.341 -0.785541 -1.41566 0
M  V30 2577 H 249.333 1.03026 -3.91366 0
M  V30 2578 H 247.903 1.23574 -2.87138 0
M  V30 2579 H 247.123 -1.07269 -3.79324 0
M  V30 2580 H 248.411 -0.928883 -5.00249 0
M  V30 2581 H 247.809 2.24666 -5.19174 0
M  V30 2582 H 246.366 2.23138 -6.12416 0
M  V30 2583 N 249.799 1.42003 -0.683588 0
M  V30 2584 C 251.029 2.05448 -0.217866 0
M  V30 2585 C 251.437 1.51491 1.13346 0
M  V30 2586 O 250.78 0.653048 1.717 0
M  V30 2587 C 250.842 3.59399 -0.0850118 0
M  V30 2588 C 250.506 4.36093 -1.36645 0
M  V30 2589 C 251.503 4.66169 -2.30179 0
M  V30 2590 C 249.188 4.75578 -1.61649 0
M  V30 2591 C 251.182 5.34676 -3.46988 0
M  V30 2592 C 248.869 5.43824 -2.78745 0
M  V30 2593 C 249.867 5.73299 -3.71238 0
M  V30 2594 O 249.555 6.40142 -4.86285 0
M  V30 2595 H 249.287 0.668344 -0.101454 0
M  V30 2596 H 251.841 1.82974 -0.933248 0
M  V30 2597 H 250.071 3.80566 0.686031 0
M  V30 2598 H 251.76 4.04457 0.341973 0
M  V30 2599 H 252.526 4.36156 -2.12115 0
M  V30 2600 H 248.405 4.52025 -0.905243 0
M  V30 2601 H 251.949 5.57599 -4.19201 0
M  V30 2602 H 247.846 5.73254 -2.96732 0
M  V30 2603 H 248.614 6.58636 -4.85944 0
M  V30 2604 N 251.277 0.427512 1.51691 0
M  V30 2605 C 252.187 -0.39527 2.31246 0
M  V30 2606 C 253.203 -1.03674 1.39742 0
M  V30 2607 O 254.379 -1.03425 1.72816 0
M  V30 2608 C 251.444 -1.48706 3.13189 0
M  V30 2609 C 250.505 -0.866743 4.20459 0
M  V30 2610 C 249.738 -1.90651 4.98486 0
M  V30 2611 O 249.961 -3.12733 4.77026 0
M  V30 2612 O 248.895 -1.5025 5.82845 0
M  V30 2613 H 252.721 0.253918 3.02637 0
M  V30 2614 H 250.306 0.190274 1.48183 0
M  V30 2615 H 252.188 -2.12047 3.64162 0
M  V30 2616 H 250.863 -2.12051 2.44573 0
M  V30 2617 H 249.77 -0.195544 3.73589 0
M  V30 2618 H 251.103 -0.276934 4.9142 0
M  V30 2619 N 252.755 -1.56801 0.158532 0
M  V30 2620 C 253.702 -2.17337 -0.776729 0
M  V30 2621 C 254.672 -1.1096 -1.23601 0
M  V30 2622 O 255.857 -1.39054 -1.30647 0
M  V30 2623 C 252.997 -2.80822 -2.00582 0
M  V30 2624 C 252.11 -4.01624 -1.59129 0
M  V30 2625 C 251.245 -4.53072 -2.77306 0
M  V30 2626 C 250.284 -5.66314 -2.32282 0
M  V30 2627 N 249.421 -6.12329 -3.43508 0
M  V30 2628 H 254.261 -2.96918 -0.253701 0
M  V30 2629 H 251.798 -1.46661 -0.113504 0
M  V30 2630 H 253.756 -3.15779 -2.72652 0
M  V30 2631 H 252.386 -2.03866 -2.50277 0
M  V30 2632 H 251.438 -3.72571 -0.767806 0
M  V30 2633 H 252.75 -4.83633 -1.2207 0
M  V30 2634 H 251.904 -4.90145 -3.57551 0
M  V30 2635 H 250.643 -3.70095 -3.17617 0
M  V30 2636 H 249.648 -5.28806 -1.5048 0
M  V30 2637 H 250.873 -6.51085 -1.93043 0
M  V30 2638 H 248.819 -5.32284 -3.83418 0
M  V30 2639 H 248.736 -6.89293 -3.105 0
M  V30 2640 H 250.004 -6.5405 -4.24075 0
M  V30 2641 N 254.233 0.115231 -1.57178 0
M  V30 2642 C 255.196 1.12526 -1.99676 0
M  V30 2643 C 256.196 1.34095 -0.88742 0
M  V30 2644 O 257.386 1.30548 -1.15337 0
M  V30 2645 C 254.518 2.4789 -2.34015 0
M  V30 2646 H 255.711 0.759912 -2.90113 0
M  V30 2647 H 253.264 0.359648 -1.52106 0
M  V30 2648 H 253.999 2.89339 -1.4647 0
M  V30 2649 H 253.784 2.33588 -3.14927 0
M  V30 2650 H 255.274 3.20575 -2.67622 0
M  V30 2651 N 255.711 1.52812 0.385517 0
M  V30 2652 C 256.959 1.67694 1.12797 0
M  V30 2653 C 257.28 0.421115 1.90399 0
M  V30 2654 O 256.55 -0.564551 1.87589 0
M  V30 2655 H 255.13 0.618155 0.419396 0
M  V30 2656 H 257.792 1.89938 0.436972 0
M  V30 2657 H 256.888 2.52896 1.82894 0
M  V30 2658 N 257.189 -0.644168 1.43834 0
M  V30 2659 C 258.435 -1.40603 1.46146 0
M  V30 2660 C 258.768 -1.93997 0.0887717 0
M  V30 2661 O 258.043 -1.72854 -0.891724 0
M  V30 2662 C 258.326 -2.58086 2.51124 0
M  V30 2663 C 258.179 -2.10126 3.97702 0
M  V30 2664 C 259.498 -3.60291 2.52742 0
M  V30 2665 H 256.617 -0.509905 0.532134 0
M  V30 2666 H 259.259 -0.729502 1.75437 0
M  V30 2667 H 257.409 -3.15801 2.26278 0
M  V30 2668 H 259.081 -1.57342 4.33637 0
M  V30 2669 H 257.324 -1.41419 4.10101 0
M  V30 2670 H 257.995 -2.94649 4.66783 0
M  V30 2671 H 260.471 -3.12352 2.7491 0
M  V30 2672 H 259.347 -4.40032 3.28121 0
M  V30 2673 H 259.608 -4.1349 1.56455 0
M  V30 2674 N 258.668 -1.30515 -0.883378 0
M  V30 2675 C 259.914 -1.19607 -1.63774 0
M  V30 2676 C 260.247 0.248314 -1.92606 0
M  V30 2677 O 259.522 1.17742 -1.54813 0
M  V30 2678 C 259.805 -2.02669 -2.97653 0
M  V30 2679 C 259.658 -3.55335 -2.75784 0
M  V30 2680 C 260.977 -1.86573 -3.98596 0
M  V30 2681 H 258.096 -0.435856 -0.594305 0
M  V30 2682 H 260.738 -1.60165 -1.02212 0
M  V30 2683 H 258.888 -1.68208 -3.50197 0
M  V30 2684 H 260.56 -3.99863 -2.30016 0
M  V30 2685 H 258.803 -3.79438 -2.1026 0
M  V30 2686 H 259.474 -4.08745 -3.70988 0
M  V30 2687 H 261.95 -2.16703 -3.55217 0
M  V30 2688 H 260.826 -2.47014 -4.90179 0
M  V30 2689 H 261.087 -0.825321 -4.34328 0
M  V30 2690 N 260.146 1.09593 -1.13257 0
M  V30 2691 C 261.557 1.63229 -0.906274 0
M  V30 2692 C 261.908 1.8811 0.557578 0
M  V30 2693 O 261.033 1.62953 1.42391 0
M  V30 2694 C 261.628 2.96535 -1.63867 0
M  V30 2695 C 260.187 3.47003 -1.45828 0
M  V30 2696 C 259.334 2.2145 -1.66898 0
M  V30 2697 H 262.285 0.92978 -1.28611 0
M  V30 2698 H 262.306 3.64411 -1.09476 0
M  V30 2699 H 261.818 2.78394 -2.70404 0
M  V30 2700 H 259.919 3.70272 -0.415848 0
M  V30 2701 H 260.032 4.24551 -2.2202 0
M  V30 2702 H 258.396 2.30022 -1.09371 0
M  V30 2703 H 259.179 2.0583 -2.74752 0
M  V30 2704 N 261.624 0.925811 1.2754 0
M  V30 2705 C 263.035 0.610102 1.7645 0
M  V30 2706 C 263.386 -0.874723 1.75622 0
M  V30 2707 O 262.511 -1.68444 1.35851 0
M  V30 2708 C 263.106 1.10073 3.20421 0
M  V30 2709 C 261.665 0.835723 3.67005 0
M  V30 2710 C 260.812 1.26054 2.46993 0
M  V30 2711 H 263.763 1.10579 1.13833 0
M  V30 2712 H 263.784 0.447557 3.77859 0
M  V30 2713 H 263.296 2.18143 3.20991 0
M  V30 2714 H 261.397 -0.231249 3.71882 0
M  V30 2715 H 261.51 1.45193 4.56569 0
M  V30 2716 H 259.874 0.679111 2.45479 0
M  V30 2717 H 260.657 2.34984 2.50275 0
M  V30 2718 N 263.102 -1.41638 0.69111 0
M  V30 2719 C 264.065 -2.29178 0.0319786 0
M  V30 2720 C 265.065 -1.44153 -0.712496 0
M  V30 2721 O 266.255 -1.65354 -0.548053 0
M  V30 2722 C 263.387 -3.26952 -0.965161 0
M  V30 2723 H 264.58 -2.88959 0.802681 0
M  V30 2724 H 262.133 -1.4955 0.454356 0
M  V30 2725 H 262.868 -2.72142 -1.76378 0
M  V30 2726 H 262.653 -3.89685 -0.434522 0
M  V30 2727 H 264.143 -3.92561 -1.42428 0
M  V30 2728 N 264.58 -0.43555 -1.51462 0
M  V30 2729 C 265.49 0.383001 -2.31453 0
M  V30 2730 C 266.506 1.02931 -1.4029 0
M  V30 2731 O 267.682 1.02507 -1.73362 0
M  V30 2732 C 264.747 1.47043 -3.13973 0
M  V30 2733 C 263.808 0.844433 -4.20913 0
M  V30 2734 C 263.041 1.88004 -4.9949 0
M  V30 2735 O 263.264 3.10199 -4.78678 0
M  V30 2736 O 262.198 1.47157 -5.83634 0
M  V30 2737 H 266.024 -0.269964 -3.02498 0
M  V30 2738 H 263.609 -0.19813 -1.4808 0
M  V30 2739 H 265.491 2.10113 -3.65281 0
M  V30 2740 H 264.166 2.10751 -2.45695 0
M  V30 2741 H 263.073 0.175729 -3.73687 0
M  V30 2742 H 264.406 0.250869 -4.9156 0
M  V30 2743 N 266.058 1.56714 -0.166846 0
M  V30 2744 C 266.968 2.21331 0.777791 0
M  V30 2745 C 267.984 1.20358 1.25658 0
M  V30 2746 O 269.16 1.53005 1.30964 0
M  V30 2747 C 266.225 2.83787 1.99163 0
M  V30 2748 C 265.286 3.99947 1.56016 0
M  V30 2749 C 264.519 4.59415 2.71613 0
M  V30 2750 O 264.742 4.17769 3.88362 0
M  V30 2751 O 263.676 5.49359 2.45945 0
M  V30 2752 H 267.502 3.02605 0.257636 0
M  V30 2753 H 265.087 1.49275 0.0611393 0
M  V30 2754 H 266.969 3.23405 2.70161 0
M  V30 2755 H 265.644 2.05513 2.50092 0
M  V30 2756 H 264.551 3.65007 0.819809 0
M  V30 2757 H 265.884 4.79801 1.09782 0
M  V30 2758 N 267.536 -0.106894 1.57237 0
M  V30 2759 C 268.813 -0.843526 1.76477 0
M  V30 2760 C 269.193 -1.97499 0.745464 0
M  V30 2761 O 268.541 -2.27357 -0.228306 0
M  V30 2762 C 268.751 -1.34903 3.21873 0
M  V30 2763 C 270.099 -1.79654 3.8472 0
M  V30 2764 O 271.123 -1.44554 3.2555 0
M  V30 2765 O 269.982 -2.44515 4.88748 0
M  V30 2766 H 267.076 -0.401468 0.723016 0
M  V30 2767 H 269.622 -0.0896927 1.69463 0
M  V30 2768 H 268.394 -0.53781 3.87586 0
M  V30 2769 H 268.017 -2.16522 3.33473 0
M  V30 2770 N 269.014 -1.53014 -0.377408 0
M  V30 2771 C 270.291 -1.59215 -1.13622 0
M  V30 2772 C 270.671 -0.392407 -2.07421 0
M  V30 2773 O 270.019 0.618342 -2.19975 0
M  V30 2774 C 270.229 -2.93669 -1.88573 0
M  V30 2775 C 271.577 -3.47822 -2.43526 0
M  V30 2776 O 272.601 -2.9562 -1.98715 0
M  V30 2777 O 271.46 -4.39055 -3.25412 0
M  V30 2778 H 268.554 -0.642625 -0.52054 0
M  V30 2779 H 271.1 -1.65353 -0.381625 0
M  V30 2780 H 269.872 -3.7243 -1.20048 0
M  V30 2781 H 269.495 -2.90968 -2.70968 0
M  V30 2782 N 270.492 0.636531 -1.44174 0
M  V30 2783 C 271.903 1.21806 -1.41493 0
M  V30 2784 C 272.254 1.95785 -0.1275 0
M  V30 2785 O 271.379 2.02147 0.772376 0
M  V30 2786 C 271.974 2.21551 -2.56321 0
M  V30 2787 C 270.533 2.75143 -2.56853 0
M  V30 2788 C 269.68 1.50052 -2.33195 0
M  V30 2789 H 272.631 0.427531 -1.52833 0
M  V30 2790 H 272.652 3.0405 -2.28765 0
M  V30 2791 H 272.164 1.67679 -3.50008 0
M  V30 2792 H 270.265 3.33033 -1.67093 0
M  V30 2793 H 270.378 3.2155 -3.55165 0
M  V30 2794 H 268.742 1.77993 -1.82183 0
M  V30 2795 H 269.525 0.980903 -3.28988 0
M  V30 2796 N 271.97 1.30982 0.876444 0
M  V30 2797 C 272.933 1.18054 1.96459 0
M  V30 2798 C 273.933 0.109399 1.60427 0
M  V30 2799 O 275.123 0.358173 1.70478 0
M  V30 2800 C 272.255 0.810616 3.31122 0
M  V30 2801 H 273.448 2.14735 2.09354 0
M  V30 2802 H 271.001 1.145 1.06392 0
M  V30 2803 H 271.736 -0.155322 3.23928 0
M  V30 2804 H 271.521 1.58481 3.58645 0
M  V30 2805 H 273.011 0.743876 4.10921 0
M  V30 2806 N 273.449 -1.08991 1.13837 0
M  V30 2807 C 274.359 -2.19301 0.833333 0
M  V30 2808 C 275.375 -1.73026 -0.183847 0
M  V30 2809 O 276.551 -2.01395 -0.0138092 0
M  V30 2810 C 273.616 -3.45323 0.308651 0
M  V30 2811 C 272.677 -4.06255 1.38764 0
M  V30 2812 C 271.91 -5.26262 0.887896 0
M  V30 2813 O 272.133 -5.69747 -0.27287 0
M  V30 2814 O 271.067 -5.78435 1.66421 0
M  V30 2815 H 274.893 -2.47854 1.75506 0
M  V30 2816 H 272.478 -1.18012 0.916166 0
M  V30 2817 H 274.36 -4.21394 0.0216739 0
M  V30 2818 H 273.035 -3.18362 -0.585431 0
M  V30 2819 H 271.942 -3.318 1.72799 0
M  V30 2820 H 273.275 -4.37452 2.25602 0
M  V30 2821 N 274.927 -0.932562 -1.27047 0
M  V30 2822 C 276.173 -0.585913 -1.94778 0
M  V30 2823 C 276.528 0.864142 -1.71902 0
M  V30 2824 O 275.821 1.60894 -1.04037 0
M  V30 2825 C 276.015 -0.853713 -3.47054 0
M  V30 2826 C 275.844 -2.32825 -3.84737 0
M  V30 2827 C 274.614 -2.98184 -4.07939 0
M  V30 2828 C 276.812 -3.30612 -3.93954 0
M  V30 2829 N 274.794 -4.3574 -4.3244 0
M  V30 2830 C 276.165 -4.53395 -4.22887 0
M  V30 2831 C 278.22 -3.25755 -3.76548 0
M  V30 2832 C 276.923 -5.71927 -4.36224 0
M  V30 2833 C 278.949 -4.43604 -3.91113 0
M  V30 2834 C 278.311 -5.65166 -4.20437 0
M  V30 2835 H 274.41 -0.264617 -0.735868 0
M  V30 2836 H 276.994 -1.20019 -1.53309 0
M  V30 2837 H 275.165 -0.268557 -3.8747 0
M  V30 2838 H 276.897 -0.469202 -4.01971 0
M  V30 2839 H 273.652 -2.48835 -4.02961 0
M  V30 2840 H 274.076 -5.06915 -4.48738 0
M  V30 2841 H 278.718 -2.32835 -3.52913 0
M  V30 2842 H 276.436 -6.65308 -4.58683 0
M  V30 2843 H 280.022 -4.41368 -3.79059 0
M  V30 2844 H 278.902 -6.54836 -4.31462 0
M  V30 2845 N 276.405 1.4127 -0.698611 0
M  V30 2846 C 277.352 2.30773 -0.0352094 0
M  V30 2847 C 278.322 1.47273 0.768111 0
M  V30 2848 O 279.507 1.76053 0.735524 0
M  V30 2849 C 276.647 3.33346 0.893 0
M  V30 2850 C 275.76 4.31924 0.0809695 0
M  V30 2851 C 274.895 5.21566 1.0071 0
M  V30 2852 C 273.934 6.11811 0.188155 0
M  V30 2853 N 273.071 6.93926 1.06825 0
M  V30 2854 H 277.911 2.86943 -0.804207 0
M  V30 2855 H 275.448 1.4132 -0.408294 0
M  V30 2856 H 277.406 3.91368 1.44523 0
M  V30 2857 H 276.036 2.78719 1.62836 0
M  V30 2858 H 275.088 3.75825 -0.588224 0
M  V30 2859 H 276.4 4.95716 -0.553801 0
M  V30 2860 H 275.554 5.84437 1.62845 0
M  V30 2861 H 274.293 4.58008 1.67572 0
M  V30 2862 H 273.298 5.47986 -0.446254 0
M  V30 2863 H 274.523 6.77425 -0.476716 0
M  V30 2864 H 272.469 6.32973 1.72283 0
M  V30 2865 H 272.386 7.54416 0.489123 0
M  V30 2866 H 273.654 7.61262 1.67632 0
M  V30 2867 N 277.883 0.443576 1.51229 0
M  V30 2868 C 279.129 -0.120975 2.02439 0
M  V30 2869 C 279.462 -1.41815 1.32674 0
M  V30 2870 O 278.737 -1.89373 0.443622 0
M  V30 2871 C 279.02 -0.333291 3.58554 0
M  V30 2872 C 278.873 0.982968 4.38928 0
M  V30 2873 C 280.192 -1.10028 4.26124 0
M  V30 2874 H 277.311 -0.0424923 0.735774 0
M  V30 2875 H 279.953 0.583794 1.80809 0
M  V30 2876 H 278.103 -0.933614 3.77115 0
M  V30 2877 H 279.775 1.61775 4.32003 0
M  V30 2878 H 278.018 1.58611 4.03763 0
M  V30 2879 H 278.689 0.788379 5.46341 0
M  V30 2880 H 281.165 -0.591711 4.11871 0
M  V30 2881 H 280.041 -1.21761 5.35225 0
M  V30 2882 H 280.302 -2.12996 3.87408 0
M  V30 2883 N 279.361 -1.56624 0.175154 0
M  V30 2884 C 280.608 -1.96999 -0.468811 0
M  V30 2885 C 280.936 -1.06129 -1.62994 0
M  V30 2886 O 280.191 -0.0961771 -1.95464 0
M  V30 2887 C 280.49 -3.43419 -0.989864 0
M  V30 2888 C 280.156 -4.50866 0.0557687 0
M  V30 2889 C 278.818 -4.79975 0.343134 0
M  V30 2890 C 281.17 -5.15551 0.765308 0
M  V30 2891 C 278.498 -5.71066 1.34536 0
M  V30 2892 C 280.85 -6.07724 1.75654 0
M  V30 2893 C 279.514 -6.35199 2.05132 0
M  V30 2894 H 278.784 -0.720869 -0.17155 0
M  V30 2895 H 281.431 -1.89616 0.267924 0
M  V30 2896 H 279.736 -3.47772 -1.80449 0
M  V30 2897 H 281.433 -3.72002 -1.49719 0
M  V30 2898 H 278.023 -4.28229 -0.178381 0
M  V30 2899 H 282.207 -4.9317 0.556513 0
M  V30 2900 H 277.463 -5.90635 1.57988 0
M  V30 2901 H 281.637 -6.56912 2.31169 0
M  V30 2902 H 279.264 -7.05584 2.8294 0
M  V30 2903 N 280.839 0.0985539 -1.57292 0
M  V30 2904 C 281.769 1.12064 -2.04851 0
M  V30 2905 C 282.75 1.41981 -0.936767 0
M  V30 2906 O 283.935 1.52071 -1.20781 0
M  V30 2907 C 281.065 2.44144 -2.47004 0
M  V30 2908 C 280.019 2.28643 -3.6181 0
M  V30 2909 C 279.345 3.65869 -3.89929 0
M  V30 2910 C 280.645 1.72986 -4.92822 0
M  V30 2911 H 282.339 0.724979 -2.9049 0
M  V30 2912 H 279.885 0.34729 -1.39749 0
M  V30 2913 H 281.838 3.15914 -2.78884 0
M  V30 2914 H 280.562 2.85639 -1.5836 0
M  V30 2915 H 279.221 1.59318 -3.30172 0
M  V30 2916 H 278.869 4.04885 -2.98458 0
M  V30 2917 H 278.569 3.56344 -4.67218 0
M  V30 2918 H 280.093 4.39112 -4.2428 0
M  V30 2919 H 281.507 2.34593 -5.23105 0
M  V30 2920 H 279.904 1.74229 -5.74251 0
M  V30 2921 H 280.974 0.689007 -4.7998 0
M  V30 2922 N 282.317 1.53212 0.369288 0
M  V30 2923 C 283.265 1.80054 1.47253 0
M  V30 2924 C 284.259 0.669456 1.55611 0
M  V30 2925 O 285.465 0.852328 1.58541 0
M  V30 2926 H 281.84 0.570034 0.490475 0
M  V30 2927 H 283.811 2.72403 1.21817 0
M  V30 2928 C 282.56 2.00403 2.84137 0
M  V30 2929 H 281.883 2.86876 2.78464 0
M  V30 2930 H 283.323 2.23164 3.60519 0
M  V30 2931 C 281.782 0.782081 3.27697 0
M  V30 2932 O 282.312 -0.0310205 4.01688 0
M  V30 2933 N 280.518 0.606573 2.84199 0
M  V30 2934 H 280.065 1.26939 2.24152 0
M  V30 2935 H 280.023 -0.20962 3.137 0
M  V30 2936 N 283.795 -0.628877 1.44509 0
M  V30 2937 C 284.725 -1.75187 1.54376 0
M  V30 2938 C 285.706 -1.65411 0.396618 0
M  V30 2939 O 286.891 -1.84137 0.617031 0
M  V30 2940 C 284.021 -3.13725 1.48976 0
M  V30 2941 C 282.975 -3.38291 2.62189 0
M  V30 2942 C 282.301 -4.76883 2.41841 0
M  V30 2943 C 283.601 -3.30632 4.04326 0
M  V30 2944 H 285.295 -1.67187 2.48373 0
M  V30 2945 H 282.841 -0.802909 1.19538 0
M  V30 2946 H 284.794 -3.92064 1.54478 0
M  V30 2947 H 283.518 -3.22515 0.514961 0
M  V30 2948 H 282.177 -2.62334 2.56079 0
M  V30 2949 H 281.825 -4.82378 1.42548 0
M  V30 2950 H 281.525 -4.94278 3.17747 0
M  V30 2951 H 283.049 -5.57449 2.49165 0
M  V30 2952 H 284.463 -3.98873 4.11793 0
M  V30 2953 H 282.86 -3.59561 4.80454 0
M  V30 2954 H 283.93 -2.28404 4.27738 0
M  V30 2955 N 285.273 -1.31445 -0.869486 0
M  V30 2956 C 286.203 -1.21727 -1.99261 0
M  V30 2957 C 287.184 -0.104359 -1.6978 0
M  V30 2958 O 288.369 -0.289038 -1.92037 0
M  V30 2959 C 285.499 -0.924317 -3.34774 0
M  V30 2960 C 284.453 -1.99685 -3.78563 0
M  V30 2961 C 283.779 -1.55658 -5.11541 0
M  V30 2962 C 285.079 -3.41003 -3.95619 0
M  V30 2963 H 286.773 -2.1569 -2.07649 0
M  V30 2964 H 284.319 -1.03839 -0.997675 0
M  V30 2965 H 286.272 -0.842934 -4.12883 0
M  V30 2966 H 284.996 0.0509793 -3.2656 0
M  V30 2967 H 283.655 -2.06813 -3.02694 0
M  V30 2968 H 283.303 -0.569132 -4.9977 0
M  V30 2969 H 283.003 -2.27409 -5.41811 0
M  V30 2970 H 284.527 -1.48928 -5.92159 0
M  V30 2971 H 285.941 -3.36547 -4.64122 0
M  V30 2972 H 284.338 -4.10975 -4.37286 0
M  V30 2973 H 285.408 -3.81754 -2.98985 0
M  V30 2974 N 286.751 1.08385 -1.14413 0
M  V30 2975 C 288.167 1.32844 -0.884563 0
M  V30 2976 C 288.367 1.95841 0.474181 0
M  V30 2977 O 287.423 2.21158 1.21842 0
M  V30 2978 C 288.736 2.22978 -2.01745 0
M  V30 2979 C 290.284 2.36458 -2.05077 0
M  V30 2980 C 290.759 3.29934 -3.1766 0
M  V30 2981 N 292.25 3.37511 -3.17239 0
M  V30 2982 C 292.985 4.09871 -4.0099 0
M  V30 2983 N 292.481 4.84936 -4.94781 0
M  V30 2984 N 294.274 4.05704 -3.89051 0
M  V30 2985 H 286.425 0.658756 -2.01926 0
M  V30 2986 H 288.688 0.352821 -0.879899 0
M  V30 2987 H 288.394 1.83934 -2.99769 0
M  V30 2988 H 288.268 3.23441 -1.94077 0
M  V30 2989 H 290.655 2.7476 -1.0766 0
M  V30 2990 H 290.736 1.35736 -2.16816 0
M  V30 2991 H 290.38 2.92352 -4.15322 0
M  V30 2992 H 290.31 4.30584 -3.03158 0
M  V30 2993 H 292.801 2.83996 -2.49308 0
M  V30 2994 H 293.114 5.37612 -5.55151 0
M  V30 2995 H 291.459 4.83988 -4.98779 0
M  V30 2996 H 294.65 3.46167 -3.15097 0
M  V30 2997 H 294.823 4.61834 -4.54547 0
M  V30 2998 N 288.23 0.939286 1.26551 0
M  V30 2999 C 289.458 0.602536 1.97932 0
M  V30 3000 C 289.873 -0.82206 1.69964 0
M  V30 3001 O 289.23 -1.54789 0.966784 0
M  V30 3002 C 289.281 0.832946 3.51773 0
M  V30 3003 O 289.002 2.20151 3.78768 0
M  V30 3004 C 290.503 0.506483 4.40397 0
M  V30 3005 H 287.723 0.227248 0.631347 0
M  V30 3006 H 290.267 1.25948 1.61113 0
M  V30 3007 H 288.422 0.222644 3.8676 0
M  V30 3008 H 288.836 2.26013 4.73306 0
M  V30 3009 H 290.31 0.718333 5.47306 0
M  V30 3010 H 290.787 -0.558451 4.35635 0
M  V30 3011 H 291.393 1.09543 4.10951 0
M  V30 3012 N 289.708 -1.40897 0.706093 0
M  V30 3013 C 291.124 -1.55042 0.37869 0
M  V30 3014 C 291.324 -1.67944 -1.11342 0
M  V30 3015 O 290.38 -1.66372 -1.89938 0
M  V30 3016 C 291.693 -2.78398 1.13643 0
M  V30 3017 C 293.241 -2.92206 1.12181 0
M  V30 3018 C 293.716 -4.18463 1.86152 0
M  V30 3019 N 295.207 -4.25443 1.83173 0
M  V30 3020 C 295.942 -5.2202 2.37239 0
M  V30 3021 N 295.438 -6.24563 2.99821 0
M  V30 3022 N 297.231 -5.14033 2.27435 0
M  V30 3023 H 289.382 -1.30769 1.67372 0
M  V30 3024 H 291.645 -0.631653 0.706907 0
M  V30 3025 H 291.351 -2.7511 2.19106 0
M  V30 3026 H 291.225 -3.70228 0.721853 0
M  V30 3027 H 293.612 -2.95004 0.0754171 0
M  V30 3028 H 293.693 -2.01521 1.57554 0
M  V30 3029 H 293.337 -4.16427 2.90776 0
M  V30 3030 H 293.267 -5.08141 1.38206 0
M  V30 3031 H 295.758 -3.51976 1.37556 0
M  V30 3032 H 296.071 -6.94665 3.38616 0
M  V30 3033 H 294.416 -6.25035 3.03902 0
M  V30 3034 H 297.607 -4.3285 1.78208 0
M  V30 3035 H 297.78 -5.89129 2.69873 0
M  V30 3036 N 291.186 -0.45159 -1.50991 0
M  V30 3037 C 292.433 0.110074 -2.02201 0
M  V30 3038 C 292.761 1.4146 -1.33489 0
M  V30 3039 O 292.016 1.90617 -0.443125 0
M  V30 3040 C 292.315 0.361728 -3.55565 0
M  V30 3041 C 291.981 -0.858717 -4.42648 0
M  V30 3042 C 290.643 -1.19338 -4.66167 0
M  V30 3043 C 292.995 -1.67221 -4.93646 0
M  V30 3044 C 290.323 -2.34195 -5.37931 0
M  V30 3045 C 292.675 -2.8119 -5.6667 0
M  V30 3046 C 291.339 -3.15094 -5.88449 0
M  V30 3047 H 290.609 0.040279 -0.739904 0
M  V30 3048 H 293.256 -0.601696 -1.81802 0
M  V30 3049 H 291.561 1.15554 -3.74372 0
M  V30 3050 H 293.258 0.80996 -3.92735 0
M  V30 3051 H 289.848 -0.58796 -4.24548 0
M  V30 3052 H 294.032 -1.42686 -4.75347 0
M  V30 3053 H 289.288 -2.6076 -5.53005 0
M  V30 3054 H 293.462 -3.44585 -6.05173 0
M  V30 3055 H 291.089 -4.04204 -6.43835 0
M  V30 3056 N 292.664 1.56529 -0.183458 0
M  V30 3057 C 293.574 2.22144 0.754272 0
M  V30 3058 C 294.59 1.21684 1.24374 0
M  V30 3059 O 295.766 1.54385 1.29333 0
M  V30 3060 C 292.831 2.85884 1.96141 0
M  V30 3061 C 291.892 4.01579 1.51765 0
M  V30 3062 C 291.125 4.6227 2.66725 0
M  V30 3063 O 291.348 4.21865 3.83909 0
M  V30 3064 O 290.282 5.51936 2.40104 0
M  V30 3065 H 294.108 3.02861 0.225527 0
M  V30 3066 H 291.693 1.49331 0.0453032 0
M  V30 3067 H 293.575 3.26253 2.66715 0
M  V30 3068 H 292.25 2.08154 2.47899 0
M  V30 3069 H 291.157 3.65856 0.781049 0
M  V30 3070 H 292.49 4.80938 1.04686 0
M  V30 3071 N 294.142 -0.090211 1.57342 0
M  V30 3072 C 295.37 -0.806224 1.90546 0
M  V30 3073 C 295.785 -1.72041 0.777644 0
M  V30 3074 O 295.142 -1.80778 -0.250103 0
M  V30 3075 C 295.193 -1.61546 3.23396 0
M  V30 3076 O 294.914 -0.738043 4.31839 0
M  V30 3077 C 296.415 -2.4341 3.70495 0
M  V30 3078 H 293.635 -0.230256 0.630257 0
M  V30 3079 H 296.179 -0.0659843 2.04394 0
M  V30 3080 H 294.334 -2.30816 3.11131 0
M  V30 3081 H 294.748 -1.29901 5.08159 0
M  V30 3082 H 296.222 -2.95676 4.66133 0
M  V30 3083 H 296.699 -3.22098 2.98579 0
M  V30 3084 H 297.305 -1.79331 3.85643 0
M  V30 3085 N 295.62 -1.53406 -0.361157 0
M  V30 3086 C 296.897 -1.60411 -1.11927 0
M  V30 3087 C 297.277 -0.414385 -2.06993 0
M  V30 3088 O 296.625 0.594976 -2.20618 0
M  V30 3089 C 296.835 -2.95652 -1.85448 0
M  V30 3090 C 298.183 -3.50386 -2.39823 0
M  V30 3091 O 299.207 -2.97711 -1.95568 0
M  V30 3092 O 298.066 -4.42482 -3.20737 0
M  V30 3093 H 295.16 -0.64811 -0.513695 0
M  V30 3094 H 297.706 -1.65749 -0.364065 0
M  V30 3095 H 296.478 -3.73682 -1.16091 0
M  V30 3096 H 296.101 -2.93825 -2.67866 0
M  V30 3097 N 297.098 0.621204 -1.44841 0
M  V30 3098 C 298.045 1.73267 -1.5247 0
M  V30 3099 C 299.015 1.6189 -0.371611 0
M  V30 3100 O 300.2 1.81668 -0.58321 0
M  V30 3101 C 297.34 3.11545 -1.48438 0
M  V30 3102 C 296.453 3.33827 -2.74196 0
M  V30 3103 C 295.588 4.62133 -2.61929 0
M  V30 3104 C 294.627 4.77627 -3.82804 0
M  V30 3105 N 293.764 5.97219 -3.69153 0
M  V30 3106 H 298.604 1.66082 -2.47428 0
M  V30 3107 H 296.141 0.810026 -1.22788 0
M  V30 3108 H 298.099 3.91528 -1.4409 0
M  V30 3109 H 296.729 3.1772 -0.570402 0
M  V30 3110 H 295.781 2.47715 -2.88689 0
M  V30 3111 H 297.093 3.41153 -3.6389 0
M  V30 3112 H 296.247 5.50291 -2.5547 0
M  V30 3113 H 294.986 4.57182 -1.69811 0
M  V30 3114 H 293.991 3.87896 -3.89637 0
M  V30 3115 H 295.216 4.84385 -4.75971 0
M  V30 3116 H 293.162 5.93339 -2.79794 0
M  V30 3117 H 293.079 6.05644 -4.52472 0
M  V30 3118 H 294.347 6.87912 -3.66603 0
M  V30 3119 N 298.576 1.31904 0.862503 0
M  V30 3120 C 299.853 1.12644 1.59908 0
M  V30 3121 C 300.233 -0.316104 2.0872 0
M  V30 3122 O 299.581 -1.31145 1.87118 0
M  V30 3123 C 299.791 2.1472 2.7513 0
M  V30 3124 C 301.139 2.47637 3.44907 0
M  V30 3125 O 302.163 2.13205 2.85346 0
M  V30 3126 O 301.022 3.06632 4.52371 0
M  V30 3127 H 298.116 0.43416 0.703871 0
M  V30 3128 H 300.662 1.43408 0.907314 0
M  V30 3129 H 299.434 3.1172 2.3653 0
M  V30 3130 H 299.057 1.84905 3.51989 0
M  V30 3131 N 300.054 -1.07777 1.14986 0
M  V30 3132 C 301.001 -2.14867 0.842672 0
M  V30 3133 C 301.971 -1.6486 -0.202552 0
M  V30 3134 O 303.156 -1.90668 -0.0710568 0
M  V30 3135 C 300.296 -3.43486 0.333363 0
M  V30 3136 C 299.409 -4.07306 1.43965 0
M  V30 3137 C 298.544 -5.23744 0.886914 0
M  V30 3138 C 297.583 -5.79517 1.97043 0
M  V30 3139 N 296.72 -6.87291 1.4344 0
M  V30 3140 H 301.56 -2.40485 1.75986 0
M  V30 3141 H 299.097 -1.1801 0.878179 0
M  V30 3142 H 301.055 -4.17195 0.0198163 0
M  V30 3143 H 299.685 -3.18133 -0.546916 0
M  V30 3144 H 298.737 -3.31293 1.86946 0
M  V30 3145 H 300.049 -4.44771 2.25788 0
M  V30 3146 H 299.203 -6.04419 0.525651 0
M  V30 3147 H 297.942 -4.87685 0.0377957 0
M  V30 3148 H 296.947 -4.97491 2.34057 0
M  V30 3149 H 298.172 -6.17632 2.82325 0
M  V30 3150 H 296.118 -6.5318 0.607567 0
M  V30 3151 H 296.035 -7.23617 2.18895 0
M  V30 3152 H 297.303 -7.71682 1.10124 0
M  V30 3153 N 301.532 -0.945985 -1.26051 0
M  V30 3154 C 302.778 -0.606539 -1.94146 0
M  V30 3155 C 303.133 0.84586 -1.72809 0
M  V30 3156 O 302.426 1.59781 -1.05738 0
M  V30 3157 C 302.62 -0.890475 -3.46129 0
M  V30 3158 C 302.449 -2.36892 -3.82246 0
M  V30 3159 C 301.219 -3.02494 -4.04753 0
M  V30 3160 C 303.417 -3.34772 -3.90425 0
M  V30 3161 N 301.399 -4.40302 -4.27794 0
M  V30 3162 C 302.77 -4.57855 -4.18054 0
M  V30 3163 C 304.825 -3.2973 -3.73072 0
M  V30 3164 C 303.528 -5.76522 -4.30134 0
M  V30 3165 C 305.554 -4.47727 -3.86386 0
M  V30 3166 C 304.916 -5.69593 -4.14419 0
M  V30 3167 H 301.015 -0.272407 -0.73302 0
M  V30 3168 H 303.599 -1.21638 -1.52027 0
M  V30 3169 H 301.77 -0.309638 -3.87164 0
M  V30 3170 H 303.502 -0.51181 -4.01451 0
M  V30 3171 H 300.257 -2.53095 -4.003 0
M  V30 3172 H 300.681 -5.11646 -4.43337 0
M  V30 3173 H 305.323 -2.36565 -3.50424 0
M  V30 3174 H 303.041 -6.70136 -4.51601 0
M  V30 3175 H 306.627 -4.45363 -3.74356 0
M  V30 3176 H 305.507 -6.59375 -4.24493 0
M  V30 3177 N 303.011 1.40521 -0.713556 0
M  V30 3178 C 304.239 2.05237 -0.261775 0
M  V30 3179 C 304.654 1.53755 1.09567 0
M  V30 3180 O 304.011 0.693268 1.6882 0
M  V30 3181 C 304.062 3.60763 -0.230706 0
M  V30 3182 O 303.783 4.10345 -1.53455 0
M  V30 3183 C 305.284 4.42651 0.239874 0
M  V30 3184 H 302.504 0.660533 -0.118057 0
M  V30 3185 H 305.048 1.79967 -0.971192 0
M  V30 3186 H 303.203 3.8501 0.429661 0
M  V30 3187 H 303.617 5.04526 -1.43366 0
M  V30 3188 H 305.091 5.51599 0.210468 0
M  V30 3189 H 305.568 4.20082 1.28171 0
M  V30 3190 H 306.174 4.23507 -0.390142 0
M  V30 3191 N 304.489 0.459591 1.5075 0
M  V30 3192 C 305.436 -0.340524 2.28274 0
M  V30 3193 C 306.406 -0.997371 1.32822 0
M  V30 3194 O 307.591 -1.01202 1.61749 0
M  V30 3195 C 304.731 -1.42317 3.14388 0
M  V30 3196 C 303.844 -0.782251 4.24859 0
M  V30 3197 C 302.979 -1.84182 4.98247 0
M  V30 3198 C 302.018 -1.18053 6.00608 0
M  V30 3199 N 301.155 -2.18244 6.67319 0
M  V30 3200 H 305.995 0.326899 2.96202 0
M  V30 3201 H 303.532 0.173057 1.46078 0
M  V30 3202 H 305.49 -2.06241 3.62658 0
M  V30 3203 H 304.12 -2.05992 2.4853 0
M  V30 3204 H 303.172 -0.0307404 3.80388 0
M  V30 3205 H 304.484 -0.259663 4.98124 0
M  V30 3206 H 303.638 -2.55714 5.50177 0
M  V30 3207 H 302.377 -2.39819 4.24662 0
M  V30 3208 H 301.382 -0.450776 5.47949 0
M  V30 3209 H 302.607 -0.631202 6.7616 0
M  V30 3210 H 300.553 -2.72919 5.96533 0
M  V30 3211 H 300.47 -1.70938 7.36421 0
M  V30 3212 H 301.738 -2.89191 7.23871 0
M  V30 3213 N 305.967 -1.56429 0.191757 0
M  V30 3214 C 307.216 -1.9666 -0.448088 0
M  V30 3215 C 307.529 -1.08136 -1.62991 0
M  V30 3216 O 308.735 -1.38135 -2.33733 0
M  V30 3217 C 307.191 -3.49753 -0.848585 0
M  V30 3218 C 306.799 -4.46935 0.308764 0
M  V30 3219 C 308.543 -3.9876 -1.4557 0
M  V30 3220 C 306.45 -5.91293 -0.112506 0
M  V30 3221 H 305.38 -0.734312 -0.171179 0
M  V30 3222 H 308.031 -1.81301 0.283242 0
M  V30 3223 H 306.413 -3.60604 -1.63649 0
M  V30 3224 H 307.587 -4.47813 1.08627 0
M  V30 3225 H 305.902 -4.08102 0.827158 0
M  V30 3226 H 308.499 -5.04086 -1.78328 0
M  V30 3227 H 308.842 -3.42875 -2.36099 0
M  V30 3228 H 309.375 -3.9101 -0.731836 0
M  V30 3229 H 306.114 -6.51097 0.758514 0
M  V30 3230 H 305.634 -5.93676 -0.854941 0
M  V30 3231 H 307.313 -6.44663 -0.549448 0
M  V30 3232 N 307.445 0.0818655 -1.57387 0
M  V30 3233 C 308.408 1.08265 -2.02018 0
M  V30 3234 C 309.408 1.32183 -0.915664 0
M  V30 3235 O 310.598 1.28073 -1.18081 0
M  V30 3236 C 307.73 2.42871 -2.39221 0
M  V30 3237 H 308.923 0.698204 -2.91659 0
M  V30 3238 H 306.476 0.327303 -1.52835 0
M  V30 3239 H 307.211 2.86167 -1.52575 0
M  V30 3240 H 306.996 2.26855 -3.19811 0
M  V30 3241 H 308.486 3.14826 -2.74362 0
M  V30 3242 N 308.923 1.53595 0.353017 0
M  V30 3243 C 309.833 1.83897 1.45667 0
M  V30 3244 C 310.849 0.728334 1.58023 0
M  V30 3245 O 312.025 1.01968 1.73679 0
M  V30 3246 C 309.09 2.03383 2.80778 0
M  V30 3247 C 308.151 3.27262 2.77845 0
M  V30 3248 C 307.384 3.45809 4.06512 0
M  V30 3249 O 307.607 2.68387 5.03314 0
M  V30 3250 O 306.541 4.39207 4.11559 0
M  V30 3251 H 310.367 2.77686 1.2298 0
M  V30 3252 H 307.952 1.39132 0.544308 0
M  V30 3253 H 309.834 2.17698 3.60812 0
M  V30 3254 H 308.509 1.12783 3.03417 0
M  V30 3255 H 307.416 3.18359 1.96465 0
M  V30 3256 H 308.749 4.17824 2.60161 0
M  V30 3257 N 310.401 -0.613514 1.45168 0
M  V30 3258 C 311.626 -1.40437 1.52618 0
M  V30 3259 C 312.051 -1.87438 0.157707 0
M  V30 3260 O 311.409 -1.59791 -0.856537 0
M  V30 3261 C 311.457 -2.58894 2.51011 0
M  V30 3262 O 310.561 -3.59326 2.02382 0
M  V30 3263 H 309.902 -0.419506 0.514695 0
M  V30 3264 H 312.432 -0.747215 1.90467 0
M  V30 3265 H 312.442 -3.06214 2.69624 0
M  V30 3266 H 311.117 -2.24032 3.50403 0
M  V30 3267 H 309.694 -3.18695 1.93618 0
M  V30 3268 N 311.879 -1.3236 -0.855495 0
M  V30 3269 C 313.125 -1.23054 -1.612 0
M  V30 3270 C 313.458 0.207404 -1.93089 0
M  V30 3271 O 312.733 1.14432 -1.57275 0
M  V30 3272 C 313.016 -2.08937 -2.93287 0
M  V30 3273 C 312.869 -3.61105 -2.68185 0
M  V30 3274 C 314.188 -1.94986 -3.94549 0
M  V30 3275 H 311.307 -0.448364 -0.584926 0
M  V30 3276 H 313.949 -1.62297 -0.987917 0
M  V30 3277 H 312.099 -1.75599 -3.46551 0
M  V30 3278 H 313.771 -4.04652 -2.21483 0
M  V30 3279 H 312.014 -3.83813 -2.02164 0
M  V30 3280 H 312.685 -4.16522 -3.62234 0
M  V30 3281 H 315.161 -2.24189 -3.5054 0
M  V30 3282 H 314.037 -2.57356 -4.84829 0
M  V30 3283 H 314.298 -0.917263 -4.3248 0
M  V30 3284 N 313.357 1.07166 -1.15556 0
M  V30 3285 C 314.304 2.14417 -0.854055 0
M  V30 3286 C 315.274 1.64965 0.193806 0
M  V30 3287 O 316.459 1.90703 0.0609443 0
M  V30 3288 C 313.599 3.43304 -0.351574 0
M  V30 3289 C 312.712 4.06537 -1.46123 0
M  V30 3290 C 311.847 5.23266 -0.914677 0
M  V30 3291 C 310.886 5.78464 -2.00114 0
M  V30 3292 N 310.023 6.86521 -1.47083 0
M  V30 3293 H 314.863 2.39548 -1.77259 0
M  V30 3294 H 312.4 1.17543 -0.884425 0
M  V30 3295 H 314.358 4.17179 -0.0419409 0
M  V30 3296 H 312.988 3.18419 0.530037 0
M  V30 3297 H 312.04 3.30297 -1.88701 0
M  V30 3298 H 313.352 4.43567 -2.28144 0
M  V30 3299 H 312.506 6.04131 -0.557698 0
M  V30 3300 H 311.245 4.87658 -0.0636583 0
M  V30 3301 H 310.25 4.96243 -2.36692 0
M  V30 3302 H 311.475 6.16126 -2.85597 0
M  V30 3303 H 309.421 6.52849 -0.642198 0
M  V30 3304 H 309.338 7.22446 -2.22729 0
M  V30 3305 H 310.606 7.71087 -1.14215 0
M  V30 3306 N 314.835 0.952656 1.25548 0
M  V30 3307 C 316.083 0.605176 1.92826 0
M  V30 3308 C 316.404 -0.860261 1.74999 0
M  V30 3309 O 315.674 -1.6125 1.11244 0
M  V30 3310 H 314.254 0.220832 0.713612 0
M  V30 3311 H 316.916 1.21047 1.52754 0
M  V30 3312 H 316.012 0.832798 3.00784 0
M  V30 3313 N 316.313 -1.40141 0.720998 0
M  V30 3314 C 317.559 -2.01084 0.263231 0
M  V30 3315 C 317.892 -1.57052 -1.14229 0
M  V30 3316 O 317.167 -0.793027 -1.77599 0
M  V30 3317 C 317.45 -3.58401 0.349344 0
M  V30 3318 C 317.303 -4.12491 1.79363 0
M  V30 3319 C 318.622 -4.39231 -0.276351 0
M  V30 3320 H 315.741 -0.730572 0.0971228 0
M  V30 3321 H 318.383 -1.66543 0.914518 0
M  V30 3322 H 316.533 -3.87958 -0.205165 0
M  V30 3323 H 318.205 -3.93711 2.40394 0
M  V30 3324 H 316.448 -3.66576 2.31958 0
M  V30 3325 H 317.119 -5.21646 1.80524 0
M  V30 3326 H 319.595 -4.15637 0.196184 0
M  V30 3327 H 318.471 -5.48586 -0.185681 0
M  V30 3328 H 318.732 -4.20643 -1.36059 0
M  V30 3329 N 317.792 -0.46758 -1.50504 0
M  V30 3330 C 319.02 0.0864133 -2.06719 0
M  V30 3331 C 319.435 1.33819 -1.33184 0
M  V30 3332 O 318.792 1.78061 -0.400083 0
M  V30 3333 C 318.843 0.378079 -3.59517 0
M  V30 3334 O 318.564 -0.824044 -4.3028 0
M  V30 3335 C 320.065 0.979426 -4.32345 0
M  V30 3336 H 317.285 -0.00551697 -0.670977 0
M  V30 3337 H 319.829 -0.655354 -1.93715 0
M  V30 3338 H 317.984 1.06977 -3.72337 0
M  V30 3339 H 318.398 -0.566518 -5.21432 0
M  V30 3340 H 319.872 1.1333 -5.40241 0
M  V30 3341 H 320.349 1.9686 -3.9261 0
M  V30 3342 H 320.955 0.326216 -4.24047 0
M  V30 3343 N 319.27 1.56325 -0.20005 0
M  V30 3344 C 320.18 2.22931 0.730668 0
M  V30 3345 C 321.196 1.22997 1.23076 0
M  V30 3346 O 322.372 1.55748 1.27689 0
M  V30 3347 C 319.437 2.87948 1.93098 0
M  V30 3348 C 318.498 4.03166 1.47497 0
M  V30 3349 C 317.731 4.65073 2.61807 0
M  V30 3350 O 317.954 4.25913 3.79413 0
M  V30 3351 O 316.888 5.54452 2.34237 0
M  V30 3352 H 320.714 3.03084 0.193391 0
M  V30 3353 H 318.299 1.49371 0.0294621 0
M  V30 3354 H 320.181 3.29063 2.6324 0
M  V30 3355 H 318.856 2.10771 2.45677 0
M  V30 3356 H 317.763 3.66664 0.742201 0
M  V30 3357 H 319.096 4.82022 0.995796 0
M  V30 3358 N 320.748 -0.0735177 1.57428 0
M  V30 3359 C 321.658 -1.10547 2.06922 0
M  V30 3360 C 322.674 -1.42506 0.998402 0
M  V30 3361 O 323.85 -1.52717 1.31299 0
M  V30 3362 C 320.915 -2.40019 2.50184 0
M  V30 3363 C 319.976 -2.15046 3.71556 0
M  V30 3364 C 319.209 -3.38345 4.12745 0
M  V30 3365 O 319.432 -4.47399 3.53822 0
M  V30 3366 O 318.366 -3.2666 5.05546 0
M  V30 3367 H 322.192 -0.715013 2.95163 0
M  V30 3368 H 319.777 -0.287531 1.46607 0
M  V30 3369 H 321.659 -3.16218 2.78539 0
M  V30 3370 H 320.334 -2.78447 1.65072 0
M  V30 3371 H 319.241 -1.36558 3.48285 0
M  V30 3372 H 320.574 -1.81499 4.57514 0
M  V30 3373 N 322.226 -1.5378 -0.344866 0
M  V30 3374 C 323.454 -1.74899 -1.10534 0
M  V30 3375 C 323.869 -0.487534 -1.82397 0
M  V30 3376 O 323.226 0.540741 -1.74305 0
M  V30 3377 C 323.277 -2.92822 -2.11984 0
M  V30 3378 O 322.998 -4.14089 -1.43044 0
M  V30 3379 C 324.499 -3.25982 -3.00417 0
M  V30 3380 H 321.719 -0.584426 -0.329678 0
M  V30 3381 H 324.263 -2.006 -0.397474 0
M  V30 3382 H 322.418 -2.69457 -2.78338 0
M  V30 3383 H 322.832 -4.80272 -2.10805 0
M  V30 3384 H 324.306 -4.11848 -3.67539 0
M  V30 3385 H 324.783 -2.42228 -3.66363 0
M  V30 3386 H 325.389 -3.51349 -2.39654 0
M  V30 3387 N 323.704 0.605807 -1.45491 0
M  V30 3388 C 324.932 1.39136 -1.5313 0
M  V30 3389 C 325.347 1.88082 -0.164507 0
M  V30 3390 O 324.704 1.62316 0.834247 0
M  V30 3391 C 324.755 2.59463 -2.51716 0
M  V30 3392 O 324.476 2.12551 -3.83084 0
M  V30 3393 C 325.977 3.52301 -2.6907 0
M  V30 3394 H 323.197 0.425849 -0.51855 0
M  V30 3395 H 325.741 0.73865 -1.90694 0
M  V30 3396 H 323.896 3.20772 -2.17219 0
M  V30 3397 H 324.31 2.90744 -4.36541 0
M  V30 3398 H 325.784 4.33271 -3.42024 0
M  V30 3399 H 326.261 4.02757 -1.75167 0
M  V30 3400 H 326.867 2.96845 -3.04571 0
M  V30 3401 N 325.182 1.32811 0.848464 0
M  V30 3402 C 326.41 1.26739 1.63538 0
M  V30 3403 C 326.825 -0.163484 1.88091 0
M  V30 3404 O 326.182 -1.10258 1.45429 0
M  V30 3405 C 326.233 2.03013 2.99112 0
M  V30 3406 O 325.954 3.40518 2.75643 0
M  V30 3407 C 327.455 2.04038 3.93552 0
M  V30 3408 H 324.675 0.437024 0.509167 0
M  V30 3409 H 327.219 1.75033 1.05753 0
M  V30 3410 H 325.374 1.58426 3.53525 0
M  V30 3411 H 325.788 3.79635 3.61908 0
M  V30 3412 H 327.262 2.61877 4.85926 0
M  V30 3413 H 327.739 1.0282 4.26995 0
M  V30 3414 H 328.345 2.486 3.45077 0
M  V30 3415 N 326.66 -1.06551 1.16123 0
M  V30 3416 C 327.908 -1.78947 0.939267 0
M  V30 3417 C 328.229 -1.87532 -0.534476 0
M  V30 3418 O 327.499 -1.38211 -1.38833 0
M  V30 3419 H 326.079 -0.662807 0.344523 0
M  V30 3420 H 328.741 -1.28725 1.46342 0
M  V30 3421 H 327.837 -2.81117 1.35572 0
M  V30 3422 N 328.138 -0.959301 -1.25041 0
M  V30 3423 C 329.384 -0.617525 -1.9317 0
M  V30 3424 C 329.717 0.843981 -1.74902 0
M  V30 3425 O 328.992 1.60615 -1.09696 0
M  V30 3426 C 329.275 -0.982736 -3.46431 0
M  V30 3427 C 329.128 -2.50032 -3.73904 0
M  V30 3428 C 330.447 -0.511176 -4.37121 0
M  V30 3429 H 327.566 -0.22582 -0.701552 0
M  V30 3430 H 330.208 -1.19679 -1.4757 0
M  V30 3431 H 328.358 -0.489806 -3.854 0
M  V30 3432 H 330.03 -3.06737 -3.44544 0
M  V30 3433 H 328.273 -2.93598 -3.19348 0
M  V30 3434 H 328.944 -2.70635 -4.81103 0
M  V30 3435 H 331.42 -0.934075 -4.0548 0
M  V30 3436 H 330.296 -0.795361 -5.43107 0
M  V30 3437 H 330.557 0.588834 -4.38161 0
M  V30 3438 N 329.616 1.39756 -0.72842 0
M  V30 3439 C 330.546 2.33289 -0.0991354 0
M  V30 3440 C 331.527 1.53568 0.731489 0
M  V30 3441 O 332.712 1.81987 0.677807 0
M  V30 3442 C 329.842 3.3763 0.813834 0
M  V30 3443 C 328.796 4.2791 0.0878663 0
M  V30 3444 C 328.122 5.22894 1.11741 0
M  V30 3445 C 329.422 5.11314 -1.06563 0
M  V30 3446 H 331.116 2.86163 -0.880408 0
M  V30 3447 H 328.662 1.37591 -0.424819 0
M  V30 3448 H 330.615 4.0201 1.26355 0
M  V30 3449 H 329.339 2.83181 1.62715 0
M  V30 3450 H 327.998 3.65 -0.342159 0
M  V30 3451 H 327.646 4.64744 1.92412 0
M  V30 3452 H 327.346 5.84143 0.636477 0
M  V30 3453 H 328.87 5.90151 1.56697 0
M  V30 3454 H 330.284 5.69076 -0.694671 0
M  V30 3455 H 328.681 5.81671 -1.47577 0
M  V30 3456 H 329.751 4.46534 -1.89038 0
M  V30 3457 N 331.094 0.475555 1.50254 0
M  V30 3458 C 332.51 0.12997 1.5907 0
M  V30 3459 C 332.71 -1.36385 1.48328 0
M  V30 3460 O 331.766 -2.13754 1.34407 0
M  V30 3461 C 333.079 0.684139 2.92814 0
M  V30 3462 C 334.627 0.647965 3.0622 0
M  V30 3463 C 335.102 1.17975 4.42545 0
M  V30 3464 N 336.593 1.13936 4.48969 0
M  V30 3465 C 337.328 1.52129 5.52851 0
M  V30 3466 N 336.824 1.97793 6.63965 0
M  V30 3467 N 338.617 1.43704 5.4342 0
M  V30 3468 H 330.768 1.44706 1.55479 0
M  V30 3469 H 333.031 0.598691 0.735033 0
M  V30 3470 H 332.737 1.73079 3.06164 0
M  V30 3471 H 332.611 0.130204 3.76975 0
M  V30 3472 H 334.998 -0.38979 2.92514 0
M  V30 3473 H 335.079 1.23876 2.23805 0
M  V30 3474 H 334.723 2.21616 4.57 0
M  V30 3475 H 334.653 0.565138 5.23559 0
M  V30 3476 H 337.144 0.804488 3.69238 0
M  V30 3477 H 337.457 2.25072 7.39299 0
M  V30 3478 H 335.802 2.01749 6.65073 0
M  V30 3479 H 338.993 1.07867 4.55502 0
M  V30 3480 H 339.166 1.73794 6.24259 0
M  V30 3481 N 332.573 -1.56217 0.208337 0
M  V30 3482 C 333.503 -2.22694 -0.702116 0
M  V30 3483 C 334.484 -1.19432 -1.2112 0
M  V30 3484 O 335.669 -1.47978 -1.25762 0
M  V30 3485 C 332.799 -2.8966 -1.9161 0
M  V30 3486 C 331.753 -3.9928 -1.5414 0
M  V30 3487 C 331.079 -4.53476 -2.83308 0
M  V30 3488 C 332.379 -5.17012 -0.741339 0
M  V30 3489 H 334.073 -2.99034 -0.147898 0
M  V30 3490 H 331.619 -1.43831 -0.0696951 0
M  V30 3491 H 333.572 -3.34852 -2.55836 0
M  V30 3492 H 332.296 -2.10746 -2.49507 0
M  V30 3493 H 330.955 -3.54799 -0.922668 0
M  V30 3494 H 330.603 -3.71308 -3.39322 0
M  V30 3495 H 330.303 -5.27451 -2.58976 0
M  V30 3496 H 331.827 -5.01378 -3.485 0
M  V30 3497 H 333.241 -5.58667 -1.28699 0
M  V30 3498 H 331.638 -5.97137 -0.595627 0
M  V30 3499 H 332.708 -4.8423 0.254851 0
M  V30 3500 N 334.051 0.0651679 -1.57465 0
M  V30 3501 C 335.281 0.774683 -1.91526 0
M  V30 3502 C 335.689 1.71305 -0.803196 0
M  V30 3503 O 335.032 1.82231 0.231881 0
M  V30 3504 C 335.094 1.61645 -3.21109 0
M  V30 3505 C 334.758 0.846753 -4.49087 0
M  V30 3506 C 335.755 0.163024 -5.19644 0
M  V30 3507 C 333.44 0.811966 -4.95694 0
M  V30 3508 C 335.434 -0.54519 -6.35064 0
M  V30 3509 C 333.121 0.0999836 -6.11018 0
M  V30 3510 C 334.119 -0.577388 -6.80555 0
M  V30 3511 O 333.807 -1.27789 -7.93678 0
M  V30 3512 H 333.539 0.225031 -0.637446 0
M  V30 3513 H 336.093 0.0377134 -2.05365 0
M  V30 3514 H 334.323 2.39638 -3.03497 0
M  V30 3515 H 336.012 2.20525 -3.40769 0
M  V30 3516 H 336.778 0.181163 -4.84662 0
M  V30 3517 H 332.657 1.32867 -4.41438 0
M  V30 3518 H 336.201 -1.07446 -6.89276 0
M  V30 3519 H 332.098 0.0797945 -6.45451 0
M  V30 3520 H 332.866 -1.18784 -8.09835 0
M  V30 3521 N 335.529 1.53961 0.336706 0
M  V30 3522 C 336.461 1.78751 1.4346 0
M  V30 3523 C 337.474 0.669019 1.48418 0
M  V30 3524 O 338.663 0.945884 1.51378 0
M  V30 3525 C 335.763 1.87844 2.82078 0
M  V30 3526 C 334.936 3.17854 3.00479 0
M  V30 3527 C 333.995 3.17816 4.19379 0
M  V30 3528 O 333.021 3.91511 4.13168 0
M  V30 3529 N 334.223 2.40669 5.2826 0
M  V30 3530 H 336.988 2.73493 1.22563 0
M  V30 3531 H 334.549 1.53096 0.526625 0
M  V30 3532 H 336.541 1.85261 3.59806 0
M  V30 3533 H 335.111 1.00257 2.96086 0
M  V30 3534 H 334.331 3.33504 2.10163 0
M  V30 3535 H 335.619 4.03718 3.0966 0
M  V30 3536 H 335.017 1.8036 5.36178 0
M  V30 3537 H 333.574 2.43877 6.04456 0
M  V30 3538 N 337.007 -0.598083 1.45811 0
M  V30 3539 C 338.254 -1.35681 1.50323 0
M  V30 3540 C 338.582 -1.9393 0.148739 0
M  V30 3541 O 337.837 -1.76094 -0.853787 0
M  V30 3542 C 338.136 -2.51669 2.53766 0
M  V30 3543 C 337.802 -2.11508 3.98215 0
M  V30 3544 C 336.464 -2.0027 4.37545 0
M  V30 3545 C 338.816 -1.80308 4.89018 0
M  V30 3546 C 336.144 -1.56067 5.65562 0
M  V30 3547 C 338.496 -1.37589 6.17456 0
M  V30 3548 C 337.16 -1.24916 6.55708 0
M  V30 3549 H 336.43 -0.496492 0.550069 0
M  V30 3550 H 339.077 -0.675052 1.79207 0
M  V30 3551 H 337.382 -3.25225 2.18486 0
M  V30 3552 H 339.079 -3.09895 2.54492 0
M  V30 3553 H 335.669 -2.21185 3.67117 0
M  V30 3554 H 339.853 -1.87884 4.59362 0
M  V30 3555 H 335.109 -1.44886 5.93985 0
M  V30 3556 H 339.283 -1.12495 6.87254 0
M  V30 3557 H 336.91 -0.904386 7.54801 0
M  V30 3558 N 338.485 -1.33259 -0.841409 0
M  V30 3559 C 339.448 -1.23221 -1.9326 0
M  V30 3560 C 340.448 -0.151895 -1.60081 0
M  V30 3561 O 341.638 -0.403246 -1.69468 0
M  V30 3562 C 338.77 -0.898123 -3.28856 0
M  V30 3563 H 339.963 -2.2021 -2.03587 0
M  V30 3564 H 337.516 -1.17281 -1.03319 0
M  V30 3565 H 338.251 0.0693841 -3.24226 0
M  V30 3566 H 338.036 -1.67934 -3.54317 0
M  V30 3567 H 339.526 -0.852563 -4.08805 0
M  V30 3568 N 339.963 1.05934 -1.16686 0
M  V30 3569 C 340.926 2.11669 -0.879144 0
M  V30 3570 C 341.926 1.60294 0.127445 0
M  V30 3571 O 343.116 1.7389 -0.103865 0
M  V30 3572 C 340.248 3.39438 -0.315425 0
M  V30 3573 H 341.441 2.38626 -1.81653 0
M  V30 3574 H 338.994 1.22058 -0.976299 0
M  V30 3575 H 339.729 3.18132 0.629468 0
M  V30 3576 H 339.514 3.78034 -1.04079 0
M  V30 3577 H 341.004 4.17391 -0.132189 0
M  V30 3578 N 341.441 0.965919 1.2453 0
M  V30 3579 C 342.404 0.499547 2.2369 0
M  V30 3580 C 343.404 -0.40294 1.5567 0
M  V30 3581 O 344.594 -0.19865 1.73064 0
M  V30 3582 C 341.726 -0.276792 3.39774 0
M  V30 3583 H 342.919 1.37613 2.66463 0
M  V30 3584 H 340.472 0.750324 1.37112 0
M  V30 3585 H 341.207 -1.17055 3.02438 0
M  V30 3586 H 340.992 0.370826 3.90343 0
M  V30 3587 H 342.482 -0.592175 4.1338 0
M  V30 3588 N 342.919 -1.39368 0.735821 0
M  V30 3589 C 344.167 -2.00101 0.283562 0
M  V30 3590 C 344.488 -1.5868 -1.13338 0
M  V30 3591 O 343.758 -0.835423 -1.77193 0
M  V30 3592 H 342.338 -0.740024 0.101851 0
M  V30 3593 H 345 -1.70404 0.945962 0
M  V30 3594 H 344.096 -3.10323 0.332604 0
M  V30 3595 N 344.397 -0.483516 -1.5 0
M  V30 3596 C 345.674 0.129337 -1.95172 0
M  V30 3597 C 346.054 1.55802 -1.4244 0
M  V30 3598 O 345.402 2.19625 -0.630649 0
M  V30 3599 C 345.612 0.0599251 -3.48949 0
M  V30 3600 C 346.96 0.242617 -4.23906 0
M  V30 3601 O 347.984 0.135933 -3.55941 0
M  V30 3602 O 346.843 0.459454 -5.44565 0
M  V30 3603 H 343.937 0.104887 -0.820322 0
M  V30 3604 H 346.483 -0.544807 -1.60717 0
M  V30 3605 H 345.255 -0.937079 -3.79914 0
M  V30 3606 H 344.878 0.774984 -3.89974 0
M  V30 3607 N 345.875 1.56104 -0.216619 0
M  V30 3608 C 346.805 2.23063 0.690296 0
M  V30 3609 C 347.786 1.20072 1.20485 0
M  V30 3610 O 348.971 1.48643 1.24976 0
M  V30 3611 C 346.101 2.90672 1.90072 0
M  V30 3612 C 345.055 4.00092 1.5202 0
M  V30 3613 C 344.381 4.54972 2.80899 0
M  V30 3614 C 345.681 5.17398 0.71391 0
M  V30 3615 H 347.375 2.99109 0.132038 0
M  V30 3616 H 344.921 1.43866 0.0620664 0
M  V30 3617 H 346.874 3.36204 2.54057 0
M  V30 3618 H 345.598 2.12066 2.48386 0
M  V30 3619 H 344.257 3.55283 0.903839 0
M  V30 3620 H 343.905 3.73102 3.37348 0
M  V30 3621 H 343.605 5.28817 2.56176 0
M  V30 3622 H 345.129 5.0322 3.45836 0
M  V30 3623 H 346.543 5.59342 1.25735 0
M  V30 3624 H 344.94 5.97444 0.563951 0
M  V30 3625 H 346.01 4.84088 -0.280527 0
M  V30 3626 N 347.353 -0.0568162 1.57498 0
M  V30 3627 C 348.316 -1.05038 2.03715 0
M  V30 3628 C 349.316 -1.30709 0.936577 0
M  V30 3629 O 350.506 -1.26178 1.20103 0
M  V30 3630 C 347.638 -2.39034 2.43055 0
M  V30 3631 H 348.831 -0.651715 2.92733 0
M  V30 3632 H 346.384 -0.302947 1.53336 0
M  V30 3633 H 347.119 -2.83703 1.57108 0
M  V30 3634 H 346.904 -2.21739 3.2338 0
M  V30 3635 H 348.394 -3.10421 2.79336 0
M  V30 3636 N 348.832 -1.54138 -0.328536 0
M  V30 3637 C 350.079 -1.72105 -1.06706 0
M  V30 3638 C 350.407 -0.492111 -1.88171 0
M  V30 3639 O 349.662 0.526153 -1.88494 0
M  V30 3640 C 349.961 -2.9457 -2.02393 0
M  V30 3641 C 349.627 -4.29544 -1.37122 0
M  V30 3642 C 348.289 -4.6624 -1.19052 0
M  V30 3643 C 350.641 -5.1333 -0.902331 0
M  V30 3644 C 347.969 -5.84325 -0.527331 0
M  V30 3645 C 350.321 -6.32094 -0.252988 0
M  V30 3646 C 348.985 -6.67473 -0.0600901 0
M  V30 3647 H 348.255 -0.629775 -0.390466 0
M  V30 3648 H 350.902 -1.88372 -0.34473 0
M  V30 3649 H 349.207 -2.72969 -2.81061 0
M  V30 3650 H 350.904 -3.05665 -2.59557 0
M  V30 3651 H 347.494 -4.0067 -1.52188 0
M  V30 3652 H 351.678 -4.855 -1.02974 0
M  V30 3653 H 346.934 -6.103 -0.366634 0
M  V30 3654 H 351.108 -6.96299 0.118366 0
M  V30 3655 H 348.735 -7.58832 0.455828 0
M  V30 3656 N 350.31 0.590341 -1.46126 0
M  V30 3657 C 351.721 1.17243 -1.45296 0
M  V30 3658 C 352.072 1.95281 -0.189723 0
M  V30 3659 O 351.197 2.04502 0.707674 0
M  V30 3660 C 351.792 2.13284 -2.6324 0
M  V30 3661 C 350.351 2.66832 -2.65476 0
M  V30 3662 C 349.498 1.42557 -2.3785 0
M  V30 3663 H 352.449 0.378692 -1.54116 0
M  V30 3664 H 352.47 2.96619 -2.38323 0
M  V30 3665 H 351.982 1.56459 -3.55165 0
M  V30 3666 H 350.083 3.27548 -1.77603 0
M  V30 3667 H 350.196 3.10088 -3.65215 0
M  V30 3668 H 348.56 1.72107 -1.87753 0
M  V30 3669 H 349.343 0.875741 -3.31942 0
M  V30 3670 N 351.788 1.33704 0.83433 0
M  V30 3671 C 352.751 1.24244 1.92603 0
M  V30 3672 C 353.751 0.160383 1.59998 0
M  V30 3673 O 354.941 0.412228 1.69252 0
M  V30 3674 C 352.073 0.91555 3.28376 0
M  V30 3675 H 353.266 2.21287 2.02416 0
M  V30 3676 H 350.819 1.17827 1.02696 0
M  V30 3677 H 351.554 -0.0521886 3.24258 0
M  V30 3678 H 351.339 1.69811 3.53422 0
M  V30 3679 H 352.829 0.874231 4.08347 0
M  V30 3680 N 353.266 -1.05314 1.17247 0
M  V30 3681 C 354.515 -1.77685 0.954521 0
M  V30 3682 C 354.828 -1.88616 -0.518025 0
M  V30 3683 O 356.034 -2.57714 -0.854144 0
M  V30 3684 C 354.49 -3.19402 1.65863 0
M  V30 3685 C 354.098 -3.16605 3.16963 0
M  V30 3686 C 355.842 -3.96237 1.52303 0
M  V30 3687 C 353.749 -4.53103 3.80068 0
M  V30 3688 H 352.679 -0.666 0.353496 0
M  V30 3689 H 355.33 -1.1805 1.40486 0
M  V30 3690 H 353.712 -3.79355 1.13602 0
M  V30 3691 H 354.886 -2.66176 3.76148 0
M  V30 3692 H 353.201 -2.53268 3.30521 0
M  V30 3693 H 355.798 -4.97157 1.96822 0
M  V30 3694 H 356.141 -4.136 0.473401 0
M  V30 3695 H 356.674 -3.42829 2.01775 0
M  V30 3696 H 353.413 -4.40946 4.85023 0
M  V30 3697 H 352.933 -5.03686 3.2567 0
M  V30 3698 H 354.612 -5.22045 3.82202 0
M  V30 3699 N 354.744 -0.972509 -1.24016 0
M  V30 3700 C 355.692 -0.498562 -2.27194 0
M  V30 3701 C 356.686 0.440372 -1.63576 0
M  V30 3702 O 357.892 0.315133 -1.7722 0
M  V30 3703 H 354.267 -0.142775 -0.738322 0
M  V30 3704 H 356.238 -1.38065 -2.64539 0
M  V30 3705 C 354.987 0.191072 -3.47175 0
M  V30 3706 H 354.31 -0.522318 -3.96373 0
M  V30 3707 H 355.75 0.486445 -4.212 0
M  V30 3708 C 354.209 1.41967 -3.05527 0
M  V30 3709 O 354.739 2.51642 -3.13112 0
M  V30 3710 N 352.945 1.28746 -2.60524 0
M  V30 3711 H 352.492 0.395089 -2.54552 0
M  V30 3712 H 352.45 2.11061 -2.33025 0
M  V30 3713 N 356.222 1.38976 -0.743202 0
M  V30 3714 C 357.468 2.0064 -0.295189 0
M  V30 3715 C 357.801 1.5885 1.11716 0
M  V30 3716 O 357.076 0.821181 1.76315 0
M  V30 3717 C 357.359 3.578 -0.406318 0
M  V30 3718 C 357.212 4.09586 -1.85903 0
M  V30 3719 C 358.531 4.39616 0.206439 0
M  V30 3720 H 355.65 0.728935 -0.108733 0
M  V30 3721 H 358.292 1.65067 -0.940897 0
M  V30 3722 H 356.442 3.88235 0.143419 0
M  V30 3723 H 358.114 3.89837 -2.46627 0
M  V30 3724 H 356.357 3.6284 -2.3776 0
M  V30 3725 H 357.028 5.18708 -1.888 0
M  V30 3726 H 359.504 4.15273 -0.262283 0
M  V30 3727 H 358.38 5.48812 0.0983819 0
M  V30 3728 H 358.641 4.22754 1.2935 0
M  V30 3729 N 357.7 0.491464 1.49741 0
M  V30 3730 C 358.648 -0.305837 2.30581 0
M  V30 3731 C 359.642 -0.971642 1.38764 0
M  V30 3732 O 360.848 -0.90042 1.5586 0
M  V30 3733 H 357.223 -0.117482 0.742767 0
M  V30 3734 H 359.194 0.396093 2.95759 0
M  V30 3735 C 357.943 -1.36319 3.19863 0
M  V30 3736 H 357.266 -0.860258 3.90435 0
M  V30 3737 H 358.706 -1.89323 3.79385 0
M  V30 3738 C 357.165 -2.37621 2.38826 0
M  V30 3739 O 357.695 -3.43311 2.08567 0
M  V30 3740 N 355.901 -2.09849 2.01026 0
M  V30 3741 H 355.448 -1.23922 2.25834 0
M  V30 3742 H 355.406 -2.77859 1.47112 0
M  V30 3743 N 359.178 -1.55987 0.224894 0
M  V30 3744 C 360.455 -1.90232 -0.455083 0
M  V30 3745 C 360.835 -1.14269 -1.77499 0
M  V30 3746 O 360.183 -0.253079 -2.27094 0
M  V30 3747 C 360.393 -3.42993 -0.644758 0
M  V30 3748 C 361.741 -4.13821 -0.950669 0
M  V30 3749 O 362.765 -3.4861 -0.731423 0
M  V30 3750 O 361.624 -5.29128 -1.36695 0
M  V30 3751 H 358.718 -0.79108 -0.241084 0
M  V30 3752 H 361.264 -1.67581 0.267327 0
M  V30 3753 H 360.036 -3.90252 0.28613 0
M  V30 3754 H 359.659 -3.71434 -1.41853 0
M  V30 3755 N 360.656 0.0484629 -1.57525 0
M  V30 3756 C 361.881 0.759177 -1.93006 0
M  V30 3757 C 362.306 1.69125 -0.823317 0
M  V30 3758 O 361.664 1.79931 0.222364 0
M  V30 3759 C 361.712 1.50899 -3.27509 0
M  V30 3760 O 360.816 2.62112 -3.18388 0
M  V30 3761 H 360.157 0.205564 -0.631379 0
M  V30 3762 H 362.687 0.00972959 -2.04598 0
M  V30 3763 H 362.697 1.88317 -3.6194 0
M  V30 3764 H 361.372 0.825269 -4.0763 0
M  V30 3765 H 359.949 2.27379 -2.95556 0
M  V30 3766 N 362.134 1.5431 0.320358 0
M  V30 3767 C 363.38 1.72924 1.05949 0
M  V30 3768 C 363.713 0.503185 1.87568 0
M  V30 3769 O 362.988 -0.499839 1.87968 0
M  V30 3770 C 363.271 3.00676 1.98156 0
M  V30 3771 C 363.124 4.3354 1.19845 0
M  V30 3772 C 364.443 3.24198 2.9763 0
M  V30 3773 H 361.562 0.629195 0.383774 0
M  V30 3774 H 364.204 1.87008 0.335854 0
M  V30 3775 H 362.354 2.888 2.59859 0
M  V30 3776 H 364.026 4.57305 0.605773 0
M  V30 3777 H 362.269 4.309 0.500784 0
M  V30 3778 H 362.94 5.19156 1.87567 0
M  V30 3779 H 365.416 3.35557 2.4605 0
M  V30 3780 H 364.292 4.14938 3.59329 0
M  V30 3781 H 364.553 2.41577 3.7026 0
M  V30 3782 N 363.613 -0.582584 1.46437 0
M  V30 3783 C 364.841 -1.36682 1.55324 0
M  V30 3784 C 365.256 -1.87796 0.194409 0
M  V30 3785 O 364.613 -1.63623 -0.808318 0
M  V30 3786 C 364.664 -2.55426 2.55812 0
M  V30 3787 O 364.385 -2.0643 3.86417 0
M  V30 3788 C 365.886 -3.47976 2.74641 0
M  V30 3789 H 363.106 -0.417545 0.525259 0
M  V30 3790 H 365.65 -0.708219 1.91845 0
M  V30 3791 H 363.805 -3.17275 2.22295 0
M  V30 3792 H 364.219 -2.83762 4.41111 0
M  V30 3793 H 365.693 -4.27775 3.48874 0
M  V30 3794 H 366.17 -3.99919 1.81553 0
M  V30 3795 H 366.776 -2.91962 3.09255 0
M  V30 3796 N 365.091 -1.34144 -0.827227 0
M  V30 3797 C 366.038 -1.25364 -1.93785 0
M  V30 3798 C 367.008 -0.129774 -1.65592 0
M  V30 3799 O 368.193 -0.310024 -1.88264 0
M  V30 3800 C 365.333 -1.01064 -3.2997 0
M  V30 3801 C 364.446 -2.22185 -3.70484 0
M  V30 3802 C 363.581 -1.91203 -4.95595 0
M  V30 3803 C 362.62 -3.08491 -5.28677 0
M  V30 3804 N 361.757 -2.77421 -6.44967 0
M  V30 3805 H 366.597 -2.20347 -2.00627 0
M  V30 3806 H 364.134 -1.09558 -0.981608 0
M  V30 3807 H 366.092 -0.850139 -4.08446 0
M  V30 3808 H 364.722 -0.0975026 -3.22653 0
M  V30 3809 H 363.774 -2.4917 -2.87434 0
M  V30 3810 H 365.086 -3.0983 -3.90905 0
M  V30 3811 H 364.24 -1.71864 -5.81848 0
M  V30 3812 H 362.979 -1.00812 -4.77167 0
M  V30 3813 H 361.984 -3.28431 -4.40923 0
M  V30 3814 H 363.209 -3.99655 -5.49047 0
M  V30 3815 H 361.155 -1.89601 -6.28003 0
M  V30 3816 H 361.072 -3.58598 -6.6554 0
M  V30 3817 H 362.34 -2.61577 -7.34301 0
M  V30 3818 N 366.569 1.04691 -1.17803 0
M  V30 3819 C 367.794 1.81984 -0.994813 0
M  V30 3820 C 368.219 1.82586 0.452112 0
M  V30 3821 O 367.577 1.23854 1.324 0
M  V30 3822 C 367.625 3.2575 -1.54659 0
M  V30 3823 O 366.729 4.05267 -0.763728 0
M  V30 3824 H 366.07 0.562483 -0.352857 0
M  V30 3825 H 368.6 1.3189 -1.56417 0
M  V30 3826 H 368.61 3.76541 -1.57102 0
M  V30 3827 H 367.285 3.24627 -2.59981 0
M  V30 3828 H 365.862 3.63972 -0.811108 0
M  V30 3829 N 368.047 0.979072 1.23499 0
M  V30 3830 C 368.994 0.517904 2.24914 0
M  V30 3831 C 369.964 -0.442525 1.60097 0
M  V30 3832 O 371.149 -0.350365 1.87556 0
M  V30 3833 C 368.289 -0.174813 3.44657 0
M  V30 3834 C 367.402 0.825721 4.24035 0
M  V30 3835 C 366.537 0.107946 5.3109 0
M  V30 3836 C 365.576 1.09778 6.02175 0
M  V30 3837 N 364.713 0.40925 7.00906 0
M  V30 3838 H 369.553 1.38751 2.63727 0
M  V30 3839 H 367.09 0.695303 1.2963 0
M  V30 3840 H 369.048 -0.593233 4.12961 0
M  V30 3841 H 367.678 -1.0083 3.06648 0
M  V30 3842 H 366.73 1.36253 3.55161 0
M  V30 3843 H 368.042 1.58005 4.73113 0
M  V30 3844 H 367.196 -0.367904 6.05583 0
M  V30 3845 H 365.935 -0.678994 4.8295 0
M  V30 3846 H 364.94 1.5844 5.26476 0
M  V30 3847 H 366.165 1.88536 6.52404 0
M  V30 3848 H 364.111 -0.358506 6.5502 0
M  V30 3849 H 364.028 1.10226 7.47921 0
M  V30 3850 H 365.296 -0.0442557 7.79487 0
M  V30 3851 N 369.525 -1.3858 0.750561 0
M  V30 3852 C 370.772 -2.00184 0.305373 0
M  V30 3853 C 371.1 -1.59575 -1.11203 0
M  V30 3854 O 370.355 -0.823236 -1.77542 0
M  V30 3855 C 370.654 -3.55455 0.372373 0
M  V30 3856 C 370.32 -4.15765 1.745 0
M  V30 3857 C 368.982 -4.31951 2.12065 0
M  V30 3858 C 371.334 -4.49067 2.64553 0
M  V30 3859 C 368.662 -4.78734 3.39162 0
M  V30 3860 C 371.014 -4.97265 3.91038 0
M  V30 3861 C 369.678 -5.11658 4.28676 0
M  V30 3862 H 368.948 -0.732526 0.111744 0
M  V30 3863 H 371.595 -1.65673 0.960451 0
M  V30 3864 H 369.9 -3.90084 -0.366272 0
M  V30 3865 H 371.597 -4.00999 0.00953918 0
M  V30 3866 H 368.187 -4.03579 1.44297 0
M  V30 3867 H 372.371 -4.36166 2.36796 0
M  V30 3868 H 367.627 -4.88062 3.68246 0
M  V30 3869 H 371.801 -5.22003 4.60962 0
M  V30 3870 H 369.428 -5.47668 5.27222 0
M  V30 3871 N 371.003 -0.499398 -1.49478 0
M  V30 3872 C 372.28 0.108629 -1.95298 0
M  V30 3873 C 372.66 1.54282 -1.44084 0
M  V30 3874 O 372.008 2.18944 -0.653908 0
M  V30 3875 C 372.218 0.0229111 -3.48992 0
M  V30 3876 C 373.566 0.197643 -4.2414 0
M  V30 3877 O 374.59 0.0981735 -3.56065 0
M  V30 3878 O 373.449 0.401669 -5.45022 0
M  V30 3879 H 370.543 0.096181 -0.821388 0
M  V30 3880 H 373.089 -0.561822 -1.6013 0
M  V30 3881 H 371.861 -0.977321 -3.78899 0
M  V30 3882 H 371.484 0.733579 -3.90774 0
M  V30 3883 N 372.481 1.55866 -0.233164 0
M  V30 3884 C 373.429 2.22176 0.68851 0
M  V30 3885 C 374.423 1.20487 1.19076 0
M  V30 3886 O 375.629 1.38536 1.14925 0
M  V30 3887 H 372.004 0.712511 0.240483 0
M  V30 3888 H 373.975 2.98212 0.105935 0
M  V30 3889 C 372.724 2.92446 1.88071 0
M  V30 3890 H 372.047 3.70458 1.50337 0
M  V30 3891 H 373.487 3.42226 2.50314 0
M  V30 3892 C 371.946 1.95555 2.74335 0
M  V30 3893 O 372.476 1.47986 3.73447 0
M  V30 3894 N 370.682 1.62953 2.40613 0
M  V30 3895 H 370.229 2.01831 1.60069 0
M  V30 3896 H 370.187 0.983886 2.98609 0
M  V30 3897 N 373.959 -0.0401083 1.57549 0
M  V30 3898 C 374.906 -1.04413 2.05831 0
M  V30 3899 C 375.876 -1.36585 0.945184 0
M  V30 3900 O 377.061 -1.47112 1.21502 0
M  V30 3901 C 374.201 -2.34336 2.53339 0
M  V30 3902 C 373.314 -2.08419 3.78398 0
M  V30 3903 C 372.449 -3.32133 4.14561 0
M  V30 3904 C 371.488 -3.01721 5.3257 0
M  V30 3905 N 370.625 -4.17855 5.64218 0
M  V30 3906 H 375.465 -0.625442 2.91363 0
M  V30 3907 H 373.002 -0.297218 1.44066 0
M  V30 3908 H 374.96 -3.10234 2.78946 0
M  V30 3909 H 373.59 -2.73948 1.7074 0
M  V30 3910 H 372.642 -1.23069 3.59942 0
M  V30 3911 H 373.954 -1.81978 4.64419 0
M  V30 3912 H 373.108 -4.16406 4.41238 0
M  V30 3913 H 371.847 -3.61678 3.2717 0
M  V30 3914 H 370.852 -2.15849 5.05657 0
M  V30 3915 H 372.077 -2.73466 6.21605 0
M  V30 3916 H 370.023 -4.47372 4.79786 0
M  V30 3917 H 369.94 -3.94798 6.44725 0
M  V30 3918 H 371.208 -5.03033 5.95465 0
M  V30 3919 N 375.437 -1.54477 -0.31217 0
M  V30 3920 C 376.667 -1.76948 -1.06645 0
M  V30 3921 C 377.075 -0.523593 -1.81811 0
M  V30 3922 O 376.418 0.51578 -1.76311 0
M  V30 3923 C 376.48 -2.91668 -2.10166 0
M  V30 3924 C 376.144 -4.30165 -1.54296 0
M  V30 3925 C 377.141 -5.10603 -0.978793 0
M  V30 3926 C 374.826 -4.76738 -1.58196 0
M  V30 3927 C 376.82 -6.3573 -0.461048 0
M  V30 3928 C 374.507 -6.01831 -1.06034 0
M  V30 3929 C 375.505 -6.81161 -0.500844 0
M  V30 3930 O 375.193 -8.03899 0.0128958 0
M  V30 3931 H 374.925 -0.594088 -0.322546 0
M  V30 3932 H 377.479 -2.02213 -0.360441 0
M  V30 3933 H 375.709 -2.62001 -2.84416 0
M  V30 3934 H 377.398 -3.01817 -2.71406 0
M  V30 3935 H 378.164 -4.75771 -0.941651 0
M  V30 3936 H 374.043 -4.15027 -2.00683 0
M  V30 3937 H 377.587 -6.97596 -0.0236894 0
M  V30 3938 H 373.484 -6.36152 -1.09459 0
M  V30 3939 H 374.252 -8.18437 -0.101457 0
M  V30 3940 N 376.915 0.57481 -1.46744 0
M  V30 3941 C 378.163 1.33009 -1.52161 0
M  V30 3942 C 378.484 1.94185 -0.178092 0
M  V30 3943 O 377.754 1.7899 0.796196 0
M  V30 3944 H 376.334 0.493873 -0.560445 0
M  V30 3945 H 378.996 0.672589 -1.82927 0
M  V30 3946 H 378.092 2.13273 -2.27862 0
M  V30 3947 N 378.394 1.34581 0.820102 0
M  V30 3948 C 379.622 1.3018 1.60813 0
M  V30 3949 C 380.037 -0.123551 1.88395 0
M  V30 3950 O 379.394 -1.07148 1.47735 0
M  V30 3951 C 379.445 2.09312 2.94739 0
M  V30 3952 O 379.166 3.46288 2.68358 0
M  V30 3953 C 380.667 2.1234 3.89136 0
M  V30 3954 H 377.887 0.447726 0.499782 0
M  V30 3955 H 380.431 1.77237 1.02017 0
M  V30 3956 H 378.586 1.65889 3.50085 0
M  V30 3957 H 379 3.87227 3.53774 0
M  V30 3958 H 380.474 2.72126 4.80262 0
M  V30 3959 H 380.951 1.11854 4.24718 0
M  V30 3960 H 381.557 2.55864 3.39726 0
M  V30 3961 N 379.872 -1.04064 1.18357 0
M  V30 3962 C 381.288 -1.2947 0.933258 0
M  V30 3963 C 381.488 -1.97466 -0.401169 0
M  V30 3964 O 380.544 -2.25528 -1.13549 0
M  V30 3965 C 381.857 -2.15337 2.09882 0
M  V30 3966 C 383.405 -2.28683 2.13712 0
M  V30 3967 C 383.88 -3.17917 3.29686 0
M  V30 3968 N 385.371 -3.25504 3.29547 0
M  V30 3969 C 386.106 -3.94706 4.15926 0
M  V30 3970 N 385.602 -4.66239 5.12439 0
M  V30 3971 N 387.395 -3.90986 4.0384 0
M  V30 3972 H 379.546 -0.583359 2.04232 0
M  V30 3973 H 381.809 -0.319921 0.892387 0
M  V30 3974 H 381.515 -1.72682 3.06389 0
M  V30 3975 H 381.389 -3.16015 2.05947 0
M  V30 3976 H 383.776 -2.70575 1.17784 0
M  V30 3977 H 383.857 -1.27596 2.21705 0
M  V30 3978 H 383.501 -2.76736 4.25887 0
M  V30 3979 H 383.431 -4.19036 3.1893 0
M  V30 3980 H 385.922 -2.74547 2.59677 0
M  V30 3981 H 386.235 -5.16638 5.74722 0
M  V30 3982 H 384.58 -4.65143 5.16398 0
M  V30 3983 H 387.771 -3.34234 3.27727 0
M  V30 3984 H 387.944 -4.44646 4.71375 0
M  V30 3985 N 381.35 -0.985608 -1.22978 0
M  V30 3986 C 382.3 -0.50118 -2.22423 0
M  V30 3987 C 383.284 0.426649 -1.5514 0
M  V30 3988 O 384.476 0.254656 -1.75159 0
M  V30 3989 C 381.605 0.190003 -3.42774 0
M  V30 3990 C 380.691 -0.757703 -4.17276 0
M  V30 3991 N 381.082 -1.90251 -4.68656 0
M  V30 3992 C 379.38 -0.57209 -4.42316 0
M  V30 3993 C 380.081 -2.49676 -5.25392 0
M  V30 3994 N 379.057 -1.78013 -5.13627 0
M  V30 3995 H 382.859 -1.37441 -2.59783 0
M  V30 3996 H 380.373 -0.846941 -1.38567 0
M  V30 3997 H 382.37 0.55439 -4.13197 0
M  V30 3998 H 381.03 1.05946 -3.06929 0
M  V30 3999 H 382.041 -2.28354 -4.64839 0
M  V30 4000 H 378.718 0.251909 -4.16739 0
M  V30 4001 H 380.108 -3.46384 -5.75732 0
M  V30 4002 N 382.828 1.3818 -0.7579 0
M  V30 4003 C 384.053 2.04827 -0.325679 0
M  V30 4004 C 384.478 1.56788 1.03919 0
M  V30 4005 O 383.836 0.721811 1.66312 0
M  V30 4006 C 383.884 3.58774 -0.362447 0
M  V30 4007 O 382.988 4.07372 0.642033 0
M  V30 4008 H 382.329 0.64833 -0.143402 0
M  V30 4009 H 384.859 1.7677 -1.03023 0
M  V30 4010 H 384.869 4.07434 -0.214844 0
M  V30 4011 H 383.544 3.93096 -1.35824 0
M  V30 4012 H 382.121 3.70068 0.458688 0
M  V30 4013 N 384.306 0.507319 1.49211 0
M  V30 4014 C 385.236 -0.256939 2.32082 0
M  V30 4015 C 386.217 -0.956609 1.40652 0
M  V30 4016 O 387.402 -0.946788 1.69557 0
M  V30 4017 C 384.532 -1.31802 3.21318 0
M  V30 4018 C 383.486 -0.737855 4.21592 0
M  V30 4019 C 382.812 -1.89992 4.99807 0
M  V30 4020 C 384.112 0.275325 5.21574 0
M  V30 4021 H 385.806 0.434798 2.96226 0
M  V30 4022 H 383.352 0.210546 1.42452 0
M  V30 4023 H 385.305 -1.86045 3.78107 0
M  V30 4024 H 384.029 -2.03903 2.5513 0
M  V30 4025 H 382.688 -0.217126 3.65956 0
M  V30 4026 H 382.336 -2.60877 4.30061 0
M  V30 4027 H 382.036 -1.51777 5.6766 0
M  V30 4028 H 383.56 -2.44657 5.59442 0
M  V30 4029 H 384.974 -0.179193 5.7302 0
M  V30 4030 H 383.371 0.573649 5.97352 0
M  V30 4031 H 384.441 1.18903 4.70096 0
M  V30 4032 N 385.784 -1.5574 0.241426 0
M  V30 4033 C 387.033 -1.97986 -0.385295 0
M  V30 4034 C 387.346 -1.13267 -1.59468 0
M  V30 4035 O 388.552 -1.45501 -2.2922 0
M  V30 4036 C 387.008 -3.52275 -0.736884 0
M  V30 4037 C 386.616 -4.45726 0.450796 0
M  V30 4038 C 388.36 -4.03189 -1.3281 0
M  V30 4039 C 386.267 -5.91352 0.0756662 0
M  V30 4040 H 385.197 -0.739386 -0.147731 0
M  V30 4041 H 387.848 -1.80308 0.340779 0
M  V30 4042 H 386.23 -3.65628 -1.52094 0
M  V30 4043 H 387.404 -4.44131 1.22819 0
M  V30 4044 H 385.719 -4.05264 0.956573 0
M  V30 4045 H 388.316 -5.09505 -1.62201 0
M  V30 4046 H 388.659 -3.50212 -2.25071 0
M  V30 4047 H 389.192 -3.93141 -0.607069 0
M  V30 4048 H 385.931 -6.48354 0.965272 0
M  V30 4049 H 385.451 -5.96095 -0.665635 0
M  V30 4050 H 387.13 -6.46084 -0.344075 0
M  V30 4051 N 387.262 0.0317525 -1.57568 0
M  V30 4052 C 388.539 0.758366 -1.803 0
M  V30 4053 C 388.919 1.93718 -0.838845 0
M  V30 4054 O 388.267 2.28187 0.119571 0
M  V30 4055 C 388.477 1.19392 -3.27943 0
M  V30 4056 C 389.825 1.61094 -3.92854 0
M  V30 4057 O 390.849 1.28857 -3.32076 0
M  V30 4058 O 389.708 2.20918 -4.99858 0
M  V30 4059 H 386.802 0.366514 -0.741348 0
M  V30 4060 H 389.348 0.00873765 -1.69698 0
M  V30 4061 H 388.12 0.352275 -3.89711 0
M  V30 4062 H 387.743 2.00365 -3.43424 0
M  V30 4063 N 388.74 1.54641 0.303973 0
M  V30 4064 C 389.988 1.73437 1.0375 0
M  V30 4065 C 390.309 0.521449 1.87899 0
M  V30 4066 O 389.579 -0.46432 1.90318 0
M  V30 4067 H 388.159 0.639518 0.386039 0
M  V30 4068 H 390.821 1.91988 0.335675 0
M  V30 4069 H 389.917 2.62235 1.69231 0
M  V30 4070 N 390.218 -0.567019 1.47046 0
M  V30 4071 C 391.467 -1.32091 1.5243 0
M  V30 4072 C 391.78 -1.94704 0.187021 0
M  V30 4073 O 392.986 -2.7124 0.118771 0
M  V30 4074 C 391.442 -2.39479 2.68659 0
M  V30 4075 C 391.05 -1.831 4.08874 0
M  V30 4076 C 392.794 -3.16111 2.83327 0
M  V30 4077 C 390.701 -2.8821 5.16419 0
M  V30 4078 H 389.631 -0.496629 0.56734 0
M  V30 4079 H 392.282 -0.603354 1.73297 0
M  V30 4080 H 390.664 -3.14105 2.41152 0
M  V30 4081 H 391.838 -1.14913 4.46242 0
M  V30 4082 H 390.153 -1.19085 3.99008 0
M  V30 4083 H 392.75 -3.94585 3.60842 0
M  V30 4084 H 393.093 -3.69686 1.91411 0
M  V30 4085 H 393.626 -2.48595 3.10556 0
M  V30 4086 H 390.365 -2.39504 6.10179 0
M  V30 4087 H 389.885 -3.54839 4.8358 0
M  V30 4088 H 391.564 -3.51881 5.42945 0
M  V30 4089 N 391.696 -1.35014 -0.812953 0
M  V30 4090 C 392.644 -1.27435 -1.94585 0
M  V30 4091 C 393.638 -0.170494 -1.6854 0
M  V30 4092 O 394.844 -0.336085 -1.76835 0
M  V30 4093 H 391.219 -0.396144 -0.639198 0
M  V30 4094 H 393.19 -2.23158 -1.98098 0
M  V30 4095 C 391.939 -1.05677 -3.31252 0
M  V30 4096 H 391.262 -1.89853 -3.51846 0
M  V30 4097 H 392.702 -1.04413 -4.10943 0
M  V30 4098 C 391.161 0.239615 -3.36047 0
M  V30 4099 O 391.691 1.23759 -3.8216 0
M  V30 4100 N 389.897 0.276186 -2.89285 0
M  V30 4101 H 389.444 -0.53653 -2.51951 0
M  V30 4102 H 389.402 1.14332 -2.92875 0
M  V30 4103 N 393.175 1.03435 -1.18907 0
M  V30 4104 C 394.591 1.28973 -0.940111 0
M  V30 4105 C 394.791 1.97676 0.390691 0
M  V30 4106 O 393.847 2.26127 1.12352 0
M  V30 4107 C 395.16 2.14221 -2.11021 0
M  V30 4108 C 396.708 2.27547 -2.14922 0
M  V30 4109 C 397.183 3.16164 -3.31367 0
M  V30 4110 N 398.674 3.23752 -3.31269 0
M  V30 4111 C 399.409 3.92495 -4.18014 0
M  V30 4112 N 398.905 4.63515 -5.14904 0
M  V30 4113 N 400.698 3.88838 -4.05908 0
M  V30 4114 H 392.849 0.57252 -2.04538 0
M  V30 4115 H 395.112 0.315184 -0.894071 0
M  V30 4116 H 394.818 1.71054 -3.073 0
M  V30 4117 H 394.692 3.14919 -2.0762 0
M  V30 4118 H 397.079 2.69947 -1.19217 0
M  V30 4119 H 397.16 1.26418 -2.22378 0
M  V30 4120 H 396.804 2.74474 -4.27348 0
M  V30 4121 H 396.734 4.17339 -3.21148 0
M  V30 4122 H 399.225 2.73167 -2.61129 0
M  V30 4123 H 399.538 5.13583 -5.77453 0
M  V30 4124 H 397.883 4.62398 -5.18857 0
M  V30 4125 H 401.074 3.32491 -3.29495 0
M  V30 4126 H 401.247 4.4214 -4.73726 0
M  V30 4127 N 394.653 0.992116 1.22453 0
M  V30 4128 C 395.901 0.666215 1.90804 0
M  V30 4129 C 396.222 -0.804152 1.77647 0
M  V30 4130 O 395.492 -1.57629 1.16318 0
M  V30 4131 H 394.072 0.243423 0.706225 0
M  V30 4132 H 396.734 1.25845 1.48825 0
M  V30 4133 H 395.83 0.928069 2.97982 0
M  V30 4134 N 396.131 -1.37776 0.765217 0
M  V30 4135 C 397.359 -2.04124 0.337767 0
M  V30 4136 C 397.774 -1.57715 -1.03785 0
M  V30 4137 O 397.131 -0.755447 -1.6613 0
M  V30 4138 C 397.182 -3.59658 0.364442 0
M  V30 4139 O 396.903 -4.04367 1.68579 0
M  V30 4140 C 398.404 -4.43236 -0.0754221 0
M  V30 4141 H 395.624 -0.655696 0.142491 0
M  V30 4142 H 398.168 -1.76238 1.03732 0
M  V30 4143 H 396.323 -3.86339 -0.286471 0
M  V30 4144 H 396.737 -4.98857 1.61993 0
M  V30 4145 H 398.211 -5.52 -0.00560067 0
M  V30 4146 H 398.688 -4.2455 -1.12491 0
M  V30 4147 H 399.294 -4.21767 0.547055 0
M  V30 4148 N 397.609 -0.515225 -1.4894 0
M  V30 4149 C 398.886 0.0879088 -1.95402 0
M  V30 4150 C 399.266 1.52745 -1.45712 0
M  V30 4151 O 398.614 2.18238 -0.677093 0
M  V30 4152 C 398.824 -0.0141055 -3.48997 0
M  V30 4153 C 400.172 0.152646 -4.24326 0
M  V30 4154 O 401.196 0.0604025 -3.56149 0
M  V30 4155 O 400.055 0.34384 -5.45417 0
M  V30 4156 H 397.149 0.0874636 -0.822362 0
M  V30 4157 H 399.695 -0.578775 -1.59525 0
M  V30 4158 H 398.467 -1.01745 -3.77841 0
M  V30 4159 H 398.09 0.692091 -3.9153 0
M  V30 4160 N 399.087 1.5561 -0.249682 0
M  V30 4161 C 400.05 2.20217 0.635394 0
M  V30 4162 C 401.05 1.17227 1.10066 0
M  V30 4163 O 402.24 1.42292 1.00492 0
M  V30 4164 C 399.372 2.84794 1.87363 0
M  V30 4165 H 400.565 2.99814 0.0716752 0
M  V30 4166 H 398.118 1.563 -0.000153234 0
M  V30 4167 H 398.853 2.09142 2.47851 0
M  V30 4168 H 398.638 3.60241 1.5482 0
M  V30 4169 H 400.128 3.3423 2.5036 0
M  V30 4170 N 400.565 -0.0233959 1.57583 0
M  V30 4171 C 401.495 -1.02162 2.09965 0
M  V30 4172 C 402.476 -1.3735 1.00344 0
M  V30 4173 O 403.661 -1.46135 1.27899 0
M  V30 4174 C 400.791 -2.32081 2.58371 0
M  V30 4175 C 399.745 -2.1112 3.72307 0
M  V30 4176 C 399.071 -3.46848 4.06941 0
M  V30 4177 C 400.371 -1.49276 5.00514 0
M  V30 4178 H 402.065 -0.585557 2.93618 0
M  V30 4179 H 399.611 -0.280218 1.41247 0
M  V30 4180 H 401.564 -3.02249 2.93639 0
M  V30 4181 H 400.288 -2.77758 1.71808 0
M  V30 4182 H 398.947 -1.43384 3.37397 0
M  V30 4183 H 398.595 -3.90184 3.17436 0
M  V30 4184 H 398.295 -3.33646 4.83688 0
M  V30 4185 H 399.819 -4.18369 4.44747 0
M  V30 4186 H 401.233 -2.09368 5.33702 0
M  V30 4187 H 399.63 -1.46632 5.8191 0
M  V30 4188 H 400.7 -0.459217 4.82721 0
M  V30 4189 N 402.043 -1.548 -0.295768 0
M  V30 4190 C 403.292 -1.73538 -1.02798 0
M  V30 4191 C 403.605 -0.531159 -1.8825 0
M  V30 4192 O 404.811 -0.600458 -2.64777 0
M  V30 4193 C 403.267 -3.07051 -1.87744 0
M  V30 4194 C 402.875 -4.34968 -1.07269 0
M  V30 4195 C 404.619 -3.35146 -2.60533 0
M  V30 4196 C 402.526 -5.5953 -1.91521 0
M  V30 4197 H 401.456 -0.646794 -0.387522 0
M  V30 4198 H 404.107 -1.81278 -0.284718 0
M  V30 4199 H 402.489 -2.93289 -2.66078 0
M  V30 4200 H 403.663 -4.5958 -0.335117 0
M  V30 4201 H 401.978 -4.13847 -0.460384 0
M  V30 4202 H 404.575 -4.2541 -3.23929 0
M  V30 4203 H 404.918 -2.54255 -3.29636 0
M  V30 4204 H 405.451 -3.49902 -1.89244 0
M  V30 4205 H 402.19 -6.43103 -1.26878 0
M  V30 4206 H 401.71 -5.39096 -2.62937 0
M  V30 4207 H 403.389 -5.96982 -2.49442 0
M  V30 4208 N 403.521 0.559213 -1.47345 0
M  V30 4209 C 404.769 1.31388 -1.53563 0
M  V30 4210 C 405.09 1.93985 -0.198678 0
M  V30 4211 O 404.36 1.79825 0.777167 0
M  V30 4212 H 402.94 0.487901 -0.565652 0
M  V30 4213 H 405.602 0.65315 -1.8363 0
M  V30 4214 H 404.698 2.10844 -2.30111 0
M  V30 4215 N 404.999 1.35443 0.805782 0
M  V30 4216 C 406.247 1.28507 1.55982 0
M  V30 4217 C 406.568 -0.140046 1.94496 0
M  V30 4218 O 405.838 -1.07666 1.63661 0
M  V30 4219 H 404.418 0.472676 0.578434 0
M  V30 4220 H 407.08 1.69555 0.961098 0
M  V30 4221 H 406.176 1.90148 2.47488 0
M  V30 4222 N 406.477 -1.02803 1.19454 0
M  V30 4223 C 407.424 -2.11099 0.933046 0
M  V30 4224 C 408.394 -1.65571 -0.132447 0
M  V30 4225 O 409.579 -1.90797 0.00987576 0
M  V30 4226 C 406.719 -3.41763 0.478747 0
M  V30 4227 C 405.832 -4.00833 1.6111 0
M  V30 4228 C 404.967 -5.19511 1.10825 0
M  V30 4229 C 404.006 -5.70639 2.21445 0
M  V30 4230 N 403.143 -6.80589 1.72461 0
M  V30 4231 H 407.983 -2.32804 1.86028 0
M  V30 4232 H 405.52 -1.14179 0.927441 0
M  V30 4233 H 407.478 -4.16736 0.196745 0
M  V30 4234 H 406.108 -3.20166 -0.411493 0
M  V30 4235 H 405.16 -3.23066 2.00829 0
M  V30 4236 H 406.472 -4.34794 2.4445 0
M  V30 4237 H 405.626 -6.01645 0.781533 0
M  V30 4238 H 404.365 -4.87086 0.244606 0
M  V30 4239 H 403.37 -4.87116 2.54947 0
M  V30 4240 H 404.595 -6.05102 3.08267 0
M  V30 4241 H 402.541 -6.50016 0.884056 0
M  V30 4242 H 402.458 -7.13681 2.49389 0
M  V30 4243 H 403.726 -7.66317 1.42755 0
M  V30 4244 N 407.956 -0.998596 -1.21925 0
M  V30 4245 C 408.903 -0.553621 -2.24062 0
M  V30 4246 C 409.873 0.416999 -1.6078 0
M  V30 4247 O 411.058 0.320482 -1.88089 0
M  V30 4248 C 408.198 0.119959 -3.44891 0
M  V30 4249 C 407.311 -0.893077 -4.22668 0
M  V30 4250 C 406.446 -0.192424 -5.30851 0
M  V30 4251 C 405.485 -1.19344 -6.00353 0
M  V30 4252 N 404.622 -0.520707 -7.00166 0
M  V30 4253 H 409.462 -1.4293 -2.61486 0
M  V30 4254 H 406.999 -0.715838 -1.28507 0
M  V30 4255 H 408.957 0.527459 -4.13852 0
M  V30 4256 H 407.587 0.959389 -3.08214 0
M  V30 4257 H 406.639 -1.41886 -3.52948 0
M  V30 4258 H 407.951 -1.65512 -4.70539 0
M  V30 4259 H 407.105 0.271515 -6.06092 0
M  V30 4260 H 405.844 0.602075 -4.83969 0
M  V30 4261 H 404.849 -1.66795 -5.23889 0
M  V30 4262 H 406.074 -1.98891 -6.49322 0
M  V30 4263 H 404.02 0.254252 -6.55507 0
M  V30 4264 H 403.937 -1.2211 -7.46073 0
M  V30 4265 H 405.205 -0.0797596 -7.79459 0
M  V30 4266 N 409.434 1.37368 -0.772513 0
M  V30 4267 C 410.68 1.99969 -0.337681 0
M  V30 4268 C 411.013 1.61184 1.08321 0
M  V30 4269 O 410.288 0.858395 1.74533 0
M  V30 4270 C 410.571 3.56858 -0.482121 0
M  V30 4271 C 410.424 4.0555 -1.94549 0
M  V30 4272 C 411.743 4.39955 0.113143 0
M  V30 4273 H 408.862 0.726464 -0.124171 0
M  V30 4274 H 411.504 1.63034 -0.975699 0
M  V30 4275 H 409.654 3.88452 0.0610361 0
M  V30 4276 H 411.326 3.84518 -2.54841 0
M  V30 4277 H 409.569 3.57715 -2.45403 0
M  V30 4278 H 410.24 5.14587 -1.9976 0
M  V30 4279 H 412.716 4.14623 -0.35031 0
M  V30 4280 H 411.592 5.48897 -0.0180514 0
M  V30 4281 H 411.853 4.25403 1.20354 0
M  V30 4282 N 410.912 0.523116 1.48665 0
M  V30 4283 C 411.842 -0.23231 2.32342 0
M  V30 4284 C 412.823 -0.941637 1.41659 0
M  V30 4285 O 414.008 -0.928751 1.70552 0
M  V30 4286 C 411.138 -1.28387 3.22698 0
M  V30 4287 C 410.092 -0.693098 4.22351 0
M  V30 4288 C 409.418 -1.8468 5.01794 0
M  V30 4289 C 410.718 0.33063 5.21252 0
M  V30 4290 H 412.412 0.466192 2.95748 0
M  V30 4291 H 409.958 0.225643 1.42221 0
M  V30 4292 H 411.911 -1.82024 3.80059 0
M  V30 4293 H 410.635 -2.01186 2.57278 0
M  V30 4294 H 409.294 -0.178299 3.66166 0
M  V30 4295 H 408.942 -2.56301 4.32804 0
M  V30 4296 H 408.642 -1.45747 5.69238 0
M  V30 4297 H 410.166 -2.38709 5.62006 0
M  V30 4298 H 411.58 -0.118407 5.73178 0
M  V30 4299 H 409.977 0.636974 5.9671 0
M  V30 4300 H 411.047 1.23883 4.68808 0
M  V30 4301 N 412.39 -1.55475 0.257931 0
M  V30 4302 C 413.639 -1.98383 -0.364275 0
M  V30 4303 C 413.952 -1.14952 -1.58258 0
M  V30 4304 O 415.158 -1.47924 -2.27664 0
M  V30 4305 C 413.614 -3.53037 -0.699479 0
M  V30 4306 C 413.222 -4.45223 0.498046 0
M  V30 4307 C 414.966 -4.04575 -1.28526 0
M  V30 4308 C 412.873 -5.91238 0.138383 0
M  V30 4309 H 411.803 -0.740911 -0.13988 0
M  V30 4310 H 414.454 -1.79936 0.359883 0
M  V30 4311 H 412.836 -3.6722 -1.48207 0
M  V30 4312 H 414.01 -4.42803 1.27522 0
M  V30 4313 H 412.325 -4.04226 0.999503 0
M  V30 4314 H 414.922 -5.11196 -1.56788 0
M  V30 4315 H 415.265 -3.5258 -2.21344 0
M  V30 4316 H 415.798 -3.93762 -0.565337 0
M  V30 4317 H 412.537 -6.47294 1.03398 0
M  V30 4318 H 412.057 -5.96768 -0.602374 0
M  V30 4319 H 413.736 -6.46413 -0.27553 0
M  V30 4320 N 413.868 0.0150385 -1.57593 0
M  V30 4321 C 415.108 0.70768 -1.91758 0
M  V30 4322 C 415.472 1.71764 -0.857974 0
M  V30 4323 O 416.673 2.45956 -1.0844 0
M  V30 4324 C 414.944 1.34736 -3.3103 0
M  V30 4325 S 416.503 2.06721 -3.87056 0
M  V30 4326 H 413.321 0.234119 -0.671349 0
M  V30 4327 H 415.923 -0.0380373 -1.95463 0
M  V30 4328 H 414.627 0.59926 -4.06001 0
M  V30 4329 H 414.158 2.13133 -3.30663 0
M  V30 4330 H 416.173 3.34047 -3.66915 0
M  V30 4331 N 415.346 1.54954 0.287554 0
M  V30 4332 C 416.594 1.74528 1.01904 0
M  V30 4333 C 416.915 0.541349 1.87335 0
M  V30 4334 O 416.185 -0.444108 1.908 0
M  V30 4335 H 414.765 0.643576 0.379235 0
M  V30 4336 H 417.427 1.92333 0.315294 0
M  V30 4337 H 416.523 2.64015 1.6644 0
M  V30 4338 N 416.824 -0.551391 1.4764 0
M  V30 4339 C 418.054 -1.33163 1.57959 0
M  V30 4340 C 418.462 -1.87785 0.23094 0
M  V30 4341 O 417.805 -1.65996 -0.786825 0
M  V30 4342 C 417.867 -2.53449 2.54958 0
M  V30 4343 C 417.531 -2.20071 4.00522 0
M  V30 4344 C 418.528 -1.77017 4.88836 0
M  V30 4345 C 416.213 -2.31252 4.45901 0
M  V30 4346 C 418.207 -1.4558 6.20552 0
M  V30 4347 C 415.894 -1.99427 5.77644 0
M  V30 4348 C 416.892 -1.56659 6.64791 0
M  V30 4349 O 416.58 -1.25242 7.94084 0
M  V30 4350 H 416.312 -0.412022 0.535923 0
M  V30 4351 H 418.866 -0.674186 1.9402 0
M  V30 4352 H 417.096 -3.22104 2.13976 0
M  V30 4353 H 418.785 -3.15523 2.55343 0
M  V30 4354 H 419.551 -1.67867 4.55023 0
M  V30 4355 H 415.43 -2.63498 3.78272 0
M  V30 4356 H 418.974 -1.12125 6.8853 0
M  V30 4357 H 414.871 -2.08211 6.10998 0
M  V30 4358 H 415.639 -1.38822 8.06642 0
M  V30 4359 N 418.302 -1.35869 -0.798587 0
M  V30 4360 C 419.55 -1.29332 -1.55298 0
M  V30 4361 C 419.871 0.129729 -1.94568 0
M  V30 4362 O 419.141 1.06796 -1.6423 0
M  V30 4363 H 417.721 -0.475737 -0.57592 0
M  V30 4364 H 420.383 -1.70062 -0.952093 0
M  V30 4365 H 419.479 -1.91458 -2.46476 0
M  V30 4366 N 419.78 1.02168 -1.19998 0
M  V30 4367 C 421.057 1.72816 -0.916191 0
M  V30 4368 C 421.437 2.03081 0.576325 0
M  V30 4369 O 420.785 1.69122 1.53656 0
M  V30 4370 C 420.995 2.9997 -1.78378 0
M  V30 4371 C 422.343 3.73336 -2.02251 0
M  V30 4372 O 423.367 3.09914 -1.75589 0
M  V30 4373 O 422.226 4.87371 -2.47249 0
M  V30 4374 H 419.32 0.752924 -0.342103 0
M  V30 4375 H 421.866 1.08062 -1.30846 0
M  V30 4376 H 420.638 2.73888 -2.79466 0
M  V30 4377 H 420.261 3.72464 -1.39126 0
M  V30 4378 N 421.258 1.00505 1.21394 0
M  V30 4379 C 422.504 0.688793 1.90745 0
M  V30 4380 C 422.837 -0.778486 1.77914 0
M  V30 4381 O 422.112 -1.56433 1.15581 0
M  V30 4382 C 422.395 1.11063 3.42545 0
M  V30 4383 C 422.248 2.63737 3.64367 0
M  V30 4384 C 423.567 0.673059 4.34923 0
M  V30 4385 H 420.686 0.251702 0.692687 0
M  V30 4386 H 423.328 1.25074 1.43026 0
M  V30 4387 H 421.478 0.632508 3.83317 0
M  V30 4388 H 423.15 3.19313 3.32922 0
M  V30 4389 H 421.393 3.05248 3.08231 0
M  V30 4390 H 422.064 2.88305 4.70727 0
M  V30 4391 H 424.54 1.08392 4.01734 0
M  V30 4392 H 423.416 0.996383 5.39781 0
M  V30 4393 H 423.677 -0.425808 4.40045 0
M  V30 4394 N 422.737 -1.36956 0.779787 0
M  V30 4395 C 423.985 -1.99097 0.347079 0
M  V30 4396 C 424.306 -1.62206 -1.08232 0
M  V30 4397 O 423.576 -0.891373 -1.74446 0
M  V30 4398 H 422.156 -0.736409 0.125342 0
M  V30 4399 H 424.818 -1.67308 0.999696 0
M  V30 4400 H 423.914 -3.09107 0.431162 0
M  V30 4401 N 424.215 -0.530993 -1.48385 0
M  V30 4402 C 425.162 0.231223 -2.29639 0
M  V30 4403 C 426.132 0.932864 -1.37429 0
M  V30 4404 O 427.317 0.933692 -1.66394 0
M  V30 4405 C 424.457 1.27155 -3.2082 0
M  V30 4406 C 423.57 0.578655 -4.28107 0
M  V30 4407 C 422.705 1.602 -5.06467 0
M  V30 4408 C 421.744 0.892625 -6.05556 0
M  V30 4409 N 420.881 1.86157 -6.76971 0
M  V30 4410 H 425.721 -0.467848 -2.94305 0
M  V30 4411 H 423.258 -0.242556 -1.45086 0
M  V30 4412 H 425.216 1.88703 -3.72085 0
M  V30 4413 H 423.846 1.939 -2.58075 0
M  V30 4414 H 422.898 -0.150782 -3.80101 0
M  V30 4415 H 424.21 0.0217065 -4.98795 0
M  V30 4416 H 423.364 2.29173 -5.61751 0
M  V30 4417 H 422.103 2.19285 -4.35621 0
M  V30 4418 H 421.108 0.188829 -5.49476 0
M  V30 4419 H 422.333 0.307878 -6.78402 0
M  V30 4420 H 420.279 2.44147 -6.08875 0
M  V30 4421 H 420.196 1.35608 -7.43738 0
M  V30 4422 H 421.464 2.54325 -7.36844 0
M  V30 4423 N 425.693 1.55336 -0.266172 0
M  V30 4424 C 426.941 1.99003 0.35246 0
M  V30 4425 C 427.262 1.15591 1.57047 0
M  V30 4426 O 426.532 0.243268 1.94384 0
M  V30 4427 H 425.112 0.735025 0.133217 0
M  V30 4428 H 427.774 1.91367 -0.369434 0
M  V30 4429 H 426.87 3.05289 0.648453 0
M  V30 4430 N 427.171 -0.0066808 1.57599 0
M  V30 4431 C 428.411 -0.697501 1.92131 0
M  V30 4432 C 428.775 -1.71306 0.867071 0
M  V30 4433 O 429.976 -2.45377 1.09743 0
M  V30 4434 C 428.247 -1.32978 3.3174 0
M  V30 4435 S 429.806 -2.04665 3.88146 0
M  V30 4436 H 426.624 -0.230555 0.672581 0
M  V30 4437 H 429.226 0.0484026 1.9544 0
M  V30 4438 H 427.93 -0.57772 4.06313 0
M  V30 4439 H 427.461 -2.11376 3.31789 0
M  V30 4440 H 429.476 -3.32097 3.68682 0
M  V30 4441 N 428.649 -1.55105 -0.279332 0
M  V30 4442 C 429.612 -1.86783 -1.32834 0
M  V30 4443 C 430.612 -0.74199 -1.42657 0
M  V30 4444 O 431.802 -1.0102 -1.41918 0
M  V30 4445 C 428.934 -2.06746 -2.71052 0
M  V30 4446 H 430.127 -2.8055 -1.05979 0
M  V30 4447 H 427.68 -1.47499 -0.517087 0
M  V30 4448 H 428.415 -1.15339 -3.03097 0
M  V30 4449 H 428.2 -2.88711 -2.65309 0
M  V30 4450 H 429.69 -2.32549 -3.46858 0
M  V30 4451 N 430.127 0.543554 -1.4793 0
M  V30 4452 C 431.037 1.67657 -1.64098 0
M  V30 4453 C 432.053 1.65934 -0.523622 0
M  V30 4454 O 433.229 1.85133 -0.792943 0
M  V30 4455 C 430.294 3.04146 -1.66421 0
M  V30 4456 C 429.355 3.16831 -2.89684 0
M  V30 4457 C 428.588 4.46809 -2.91886 0
M  V30 4458 O 428.811 5.33095 -2.02895 0
M  V30 4459 O 427.745 4.63573 -3.83906 0
M  V30 4460 H 431.571 1.56957 -2.59997 0
M  V30 4461 H 429.156 0.715116 -1.31173 0
M  V30 4462 H 431.038 3.85346 -1.70548 0
M  V30 4463 H 429.713 3.152 -0.736923 0
M  V30 4464 H 428.62 2.34977 -2.91095 0
M  V30 4465 H 429.953 3.10687 -3.81752 0
M  V30 4466 N 431.605 1.3629 0.791371 0
M  V30 4467 C 432.568 1.30309 1.88553 0
M  V30 4468 C 433.568 0.211204 1.59407 0
M  V30 4469 O 434.758 0.465865 1.67855 0
M  V30 4470 C 431.89 1.01956 3.25297 0
M  V30 4471 H 433.083 2.27614 1.95273 0
M  V30 4472 H 430.636 1.21035 0.988953 0
M  V30 4473 H 431.371 0.050998 3.2426 0
M  V30 4474 H 431.156 1.80968 3.4784 0
M  V30 4475 H 432.646 1.0037 4.05359 0
M  V30 4476 N 433.083 -1.0153 1.20538 0
M  V30 4477 C 434.016 -2.09759 0.898695 0
M  V30 4478 C 434.994 -1.61909 -0.149733 0
M  V30 4479 O 436.178 -1.88486 -0.0230293 0
M  V30 4480 C 433.305 -3.36913 0.347512 0
M  V30 4481 C 432.351 -4.03655 1.37713 0
M  V30 4482 S 433.184 -4.47402 2.94265 0
M  V30 4483 C 434.34 -5.77756 2.40726 0
M  V30 4484 H 434.573 -2.3545 1.81523 0
M  V30 4485 H 432.106 -1.14665 1.03399 0
M  V30 4486 H 434.064 -4.10484 0.0360518 0
M  V30 4487 H 432.725 -3.09291 -0.547546 0
M  V30 4488 H 431.918 -4.9514 0.940872 0
M  V30 4489 H 431.52 -3.36313 1.63614 0
M  V30 4490 H 433.812 -6.52994 1.80569 0
M  V30 4491 H 434.755 -6.2618 3.30612 0
M  V30 4492 H 435.163 -5.34081 1.82806 0
M  V30 4493 N 434.561 -1.01147 -1.20859 0
M  V30 4494 C 435.508 -0.577354 -2.23462 0
M  V30 4495 C 436.478 0.399922 -1.61214 0
M  V30 4496 O 437.663 0.300515 -1.88419 0
M  V30 4497 C 434.803 0.083372 -3.44999 0
M  V30 4498 C 433.916 -0.937856 -4.21697 0
M  V30 4499 C 433.051 -0.248717 -5.30617 0
M  V30 4500 C 432.09 -1.25705 -5.99053 0
M  V30 4501 N 431.227 -0.594939 -6.99575 0
M  V30 4502 H 436.067 -1.45695 -2.59956 0
M  V30 4503 H 433.604 -0.729428 -1.27741 0
M  V30 4504 H 435.562 0.483535 -4.14388 0
M  V30 4505 H 434.192 0.926645 -3.09214 0
M  V30 4506 H 433.244 -1.45622 -3.51423 0
M  V30 4507 H 434.556 -1.70493 -4.68757 0
M  V30 4508 H 433.71 0.207215 -6.06346 0
M  V30 4509 H 432.449 0.55071 -4.84581 0
M  V30 4510 H 431.454 -1.72343 -5.2209 0
M  V30 4511 H 432.679 -2.05767 -6.47176 0
M  V30 4512 H 430.625 0.184713 -6.5574 0
M  V30 4513 H 430.542 -1.30017 -7.44736 0
M  V30 4514 H 431.81 -0.162427 -7.79331 0
M  V30 4515 N 436.039 1.36541 -0.78704 0
M  V30 4516 C 437.287 1.98911 -0.357633 0
M  V30 4517 C 437.608 1.62778 1.07371 0
M  V30 4518 O 436.878 0.900612 1.73971 0
M  V30 4519 H 435.458 0.735734 -0.129246 0
M  V30 4520 H 438.12 1.66776 -1.00855 0
M  V30 4521 H 437.216 3.08874 -0.447549 0
M  V30 4522 N 437.518 0.538854 1.48102 0
M  V30 4523 C 438.45 -0.256278 2.27763 0
M  V30 4524 C 439.463 -0.89633 1.35904 0
M  V30 4525 O 440.652 -0.773275 1.60881 0
M  V30 4526 C 437.752 -1.37896 3.09577 0
M  V30 4527 C 436.925 -0.839159 4.29275 0
M  V30 4528 C 435.984 -1.84405 4.9283 0
M  V30 4529 O 435.01 -1.39746 5.51779 0
M  V30 4530 N 436.212 -3.17666 4.85869 0
M  V30 4531 H 438.977 0.426968 2.96643 0
M  V30 4532 H 436.538 0.373747 1.57527 0
M  V30 4533 H 438.53 -2.04955 3.48963 0
M  V30 4534 H 437.1 -1.96572 2.4306 0
M  V30 4535 H 436.32 0.00769287 3.94199 0
M  V30 4536 H 437.608 -0.457548 5.06739 0
M  V30 4537 H 437.006 -3.56609 4.39143 0
M  V30 4538 H 435.563 -3.80334 5.29329 0
M  V30 4539 N 438.996 -1.55193 0.274407 0
M  V30 4540 C 440.244 -1.99187 -0.341902 0
M  V30 4541 C 440.565 -1.16422 -1.56431 0
M  V30 4542 O 439.835 -0.253573 -1.94252 0
M  V30 4543 H 438.415 -0.735721 -0.129317 0
M  V30 4544 H 441.077 -1.91168 0.379578 0
M  V30 4545 H 440.173 -3.05629 -0.632253 0
M  V30 4546 N 440.474 -0.00167713 -1.576 0
M  V30 4547 C 441.437 0.974046 -2.07473 0
M  V30 4548 C 442.437 1.27143 -0.984444 0
M  V30 4549 O 443.627 1.21633 -1.24703 0
M  V30 4550 C 440.759 2.29849 -2.51759 0
M  V30 4551 H 441.952 0.54262 -2.9495 0
M  V30 4552 H 439.505 0.245829 -1.54355 0
M  V30 4553 H 440.24 2.77677 -1.67529 0
M  V30 4554 H 440.025 2.09584 -3.31386 0
M  V30 4555 H 441.515 2.9984 -2.90664 0
M  V30 4556 N 441.952 1.55251 0.271103 0
M  V30 4557 C 443.368 1.47133 0.618393 0
M  V30 4558 C 443.568 0.686994 1.89427 0
M  V30 4559 O 442.624 0.206609 2.51653 0
M  V30 4560 C 443.937 2.91361 0.743593 0
M  V30 4561 C 445.485 3.01587 0.837522 0
M  V30 4562 C 445.96 4.47073 0.994483 0
M  V30 4563 N 447.451 4.50909 1.05996 0
M  V30 4564 C 448.186 5.60698 1.20024 0
M  V30 4565 N 447.682 6.80348 1.30759 0
M  V30 4566 N 449.475 5.48444 1.23149 0
M  V30 4567 H 441.626 2.04698 -0.566784 0
M  V30 4568 H 443.889 0.928319 -0.192165 0
M  V30 4569 H 443.595 3.51483 -0.123493 0
M  V30 4570 H 443.469 3.40484 1.62328 0
M  V30 4571 H 445.856 2.4156 1.69507 0
M  V30 4572 H 445.937 2.55713 -0.0668086 0
M  V30 4573 H 445.581 5.07703 0.141582 0
M  V30 4574 H 445.511 4.90605 1.91349 0
M  V30 4575 H 448.002 3.6472 0.989316 0
M  V30 4576 H 448.315 7.59772 1.41303 0
M  V30 4577 H 446.66 6.83156 1.27761 0
M  V30 4578 H 449.851 4.53907 1.14394 0
M  V30 4579 H 450.024 6.34049 1.33738 0
M  V30 4580 N 443.43 -0.535701 1.48216 0
M  V30 4581 C 444.676 -1.29375 1.56173 0
M  V30 4582 C 445.009 -1.92804 0.232429 0
M  V30 4583 O 444.284 -1.78992 -0.761048 0
M  V30 4584 C 444.567 -2.38747 2.69577 0
M  V30 4585 C 444.42 -1.80046 4.12193 0
M  V30 4586 C 445.739 -3.40551 2.78771 0
M  V30 4587 H 442.858 -0.469027 0.568491 0
M  V30 4588 H 445.5 -0.597358 1.80365 0
M  V30 4589 H 443.65 -2.98147 2.4908 0
M  V30 4590 H 445.322 -1.24742 4.44114 0
M  V30 4591 H 443.565 -1.10609 4.19462 0
M  V30 4592 H 444.236 -2.59212 4.87353 0
M  V30 4593 H 446.712 -2.91099 2.97322 0
M  V30 4594 H 445.588 -4.1448 3.59857 0
M  V30 4595 H 445.849 -4.00746 1.86696 0
M  V30 4596 N 444.908 -1.36708 -0.784132 0
M  V30 4597 C 446.133 -1.34565 -1.5782 0
M  V30 4598 C 446.558 0.0695257 -1.87971 0
M  V30 4599 O 445.916 1.04302 -1.48293 0
M  V30 4600 C 445.964 -2.17952 -2.87279 0
M  V30 4601 O 445.068 -1.57563 -3.81114 0
M  V30 4602 H 444.409 -0.460337 -0.478524 0
M  V30 4603 H 446.939 -1.80064 -0.971495 0
M  V30 4604 H 446.949 -2.30721 -3.365 0
M  V30 4605 H 445.624 -3.20823 -2.64661 0
M  V30 4606 H 444.201 -1.53764 -3.39722 0
M  V30 4607 N 446.386 1.0089 -1.21074 0
M  V30 4608 C 447.632 1.74866 -1.02712 0
M  V30 4609 C 447.965 1.89178 0.438787 0
M  V30 4610 O 447.24 1.42325 1.32567 0
M  V30 4611 C 447.523 3.16347 -1.72036 0
M  V30 4612 C 447.376 3.09782 -3.26121 0
M  V30 4613 C 448.695 4.15187 -1.45973 0
M  V30 4614 H 445.814 0.634736 -0.374539 0
M  V30 4615 H 448.456 1.17646 -1.49196 0
M  V30 4616 H 446.606 3.65201 -1.32517 0
M  V30 4617 H 448.278 2.68673 -3.74983 0
M  V30 4618 H 446.521 2.46982 -3.56626 0
M  V30 4619 H 447.192 4.09829 -3.6979 0
M  V30 4620 H 449.668 3.75022 -1.80272 0
M  V30 4621 H 448.544 5.12331 -1.96999 0
M  V30 4622 H 448.805 4.40386 -0.388924 0
M  V30 4623 N 447.864 1.01787 1.20321 0
M  V30 4624 C 449.092 0.727194 1.937 0
M  V30 4625 C 449.507 -0.712305 1.74848 0
M  V30 4626 O 448.864 -1.48327 1.06327 0
M  V30 4627 C 448.915 1.05497 3.45764 0
M  V30 4628 O 448.636 2.43794 3.64 0
M  V30 4629 C 450.137 0.785534 4.36285 0
M  V30 4630 H 447.357 0.266939 0.615617 0
M  V30 4631 H 449.901 1.35939 1.52777 0
M  V30 4632 H 448.056 0.468158 3.84561 0
M  V30 4633 H 448.47 2.55656 4.57974 0
M  V30 4634 H 449.944 1.06495 5.4163 0
M  V30 4635 H 450.421 -0.280273 4.38305 0
M  V30 4636 H 451.027 1.35456 4.03152 0
M  V30 4637 N 449.342 -1.36122 0.79427 0
M  V30 4638 C 450.252 -2.33769 0.197296 0
M  V30 4639 C 451.268 -1.61276 -0.653153 0
M  V30 4640 O 452.444 -1.9323 -0.5678 0
M  V30 4641 C 449.509 -3.40474 -0.654098 0
M  V30 4642 C 448.57 -4.28759 0.215411 0
M  V30 4643 C 447.803 -5.30368 -0.595443 0
M  V30 4644 O 448.026 -5.40211 -1.83107 0
M  V30 4645 O 446.96 -6.019 0.00721351 0
M  V30 4646 H 450.786 -2.86597 1.00478 0
M  V30 4647 H 448.371 -1.38676 0.555818 0
M  V30 4648 H 450.253 -4.05703 -1.13944 0
M  V30 4649 H 448.928 -2.89937 -1.43938 0
M  V30 4650 H 447.835 -3.66554 0.747615 0
M  V30 4651 H 449.168 -4.82661 0.964332 0
M  V30 4652 N 450.82 -0.546701 -1.47814 0
M  V30 4653 C 452.069 -0.0166497 -2.01693 0
M  V30 4654 C 452.382 1.33721 -1.42752 0
M  V30 4655 O 453.588 1.95658 -1.8823 0
M  V30 4656 C 452.044 0.0206769 -3.59894 0
M  V30 4657 C 451.652 -1.3293 -4.27824 0
M  V30 4658 C 453.396 0.498674 -4.21561 0
M  V30 4659 C 451.303 -1.25165 -5.78003 0
M  V30 4660 H 450.233 -0.0024541 -0.753996 0
M  V30 4661 H 452.884 -0.692984 -1.69912 0
M  V30 4662 H 451.266 0.76244 -3.88591 0
M  V30 4663 H 452.44 -2.08795 -4.10781 0
M  V30 4664 H 450.755 -1.74438 -3.78101 0
M  V30 4665 H 453.352 0.575 -5.31599 0
M  V30 4666 H 453.695 1.5083 -3.88016 0
M  V30 4667 H 454.228 -0.18791 -3.97356 0
M  V30 4668 H 450.967 -2.23695 -6.1615 0
M  V30 4669 H 450.487 -0.53464 -5.97412 0
M  V30 4670 H 452.166 -0.949299 -6.39998 0
M  V30 4671 N 452.299 1.55045 -0.282633 0
M  V30 4672 C 453.576 1.9179 0.384166 0
M  V30 4673 C 453.956 1.20778 1.73136 0
M  V30 4674 O 453.304 0.33719 2.25998 0
M  V30 4675 C 453.514 3.45149 0.517014 0
M  V30 4676 C 454.862 4.17064 0.796427 0
M  V30 4677 O 455.886 3.51084 0.601535 0
M  V30 4678 O 454.745 5.33837 1.16962 0
M  V30 4679 H 451.839 0.799483 0.211558 0
M  V30 4680 H 454.385 1.66474 -0.32934 0
M  V30 4681 H 453.157 3.88922 -0.430772 0
M  V30 4682 H 452.78 3.76443 1.2797 0
M  V30 4683 N 453.777 0.010035 1.57597 0
M  V30 4684 C 455.188 -0.531426 1.78977 0
M  V30 4685 C 455.539 -1.73375 0.918454 0
M  V30 4686 O 454.664 -2.16047 0.123635 0
M  V30 4687 C 455.259 -0.97086 3.24592 0
M  V30 4688 C 453.818 -1.45756 3.47033 0
M  V30 4689 C 452.965 -0.413384 2.74201 0
M  V30 4690 H 455.916 0.236166 1.56933 0
M  V30 4691 H 455.937 -1.83633 3.33255 0
M  V30 4692 H 455.449 -0.0955893 3.87982 0
M  V30 4693 H 453.55 -2.35339 2.88871 0
M  V30 4694 H 453.663 -1.4781 4.55729 0
M  V30 4695 H 452.027 -0.877266 2.39115 0
M  V30 4696 H 452.81 0.453092 3.40297 0
M  V30 4697 N 455.255 -1.55392 -0.262866 0
M  V30 4698 C 456.504 -1.75679 -0.990943 0
M  V30 4699 C 456.817 -0.57097 -1.87081 0
M  V30 4700 O 458.023 -0.656486 -2.63444 0
M  V30 4701 C 456.479 -3.10964 -1.81188 0
M  V30 4702 C 456.087 -4.37146 -0.980188 0
M  V30 4703 C 457.831 -3.40597 -2.53365 0
M  V30 4704 C 455.738 -5.63466 -1.7961 0
M  V30 4705 H 454.668 -0.654868 -0.373716 0
M  V30 4706 H 457.319 -1.81841 -0.246203 0
M  V30 4707 H 455.701 -2.98867 -2.59797 0
M  V30 4708 H 456.875 -4.60187 -0.237558 0
M  V30 4709 H 455.19 -4.14731 -0.372497 0
M  V30 4710 H 457.787 -4.32186 -3.14833 0
M  V30 4711 H 458.13 -2.6119 -3.24169 0
M  V30 4712 H 458.663 -3.53838 -1.81779 0
M  V30 4713 H 455.402 -6.4565 -1.13209 0
M  V30 4714 H 454.922 -5.44552 -2.51443 0
M  V30 4715 H 456.601 -6.02139 -2.36723 0
M  V30 4716 N 456.733 0.527833 -1.48498 0
M  V30 4717 C 457.681 1.65313 -1.63628 0
M  V30 4718 C 458.675 1.6177 -0.502676 0
M  V30 4719 O 459.881 1.66601 -0.681469 0
M  V30 4720 H 456.256 0.547518 -0.515488 0
M  V30 4721 H 458.227 1.49696 -2.58135 0
M  V30 4722 C 456.976 3.03576 -1.6952 0
M  V30 4723 H 456.299 3.06997 -2.56111 0
M  V30 4724 H 457.739 3.81923 -1.84149 0
M  V30 4725 C 456.198 3.34089 -0.43432 0
M  V30 4726 O 456.728 3.99151 0.451852 0
M  V30 4727 N 454.934 2.88991 -0.305368 0
M  V30 4728 H 454.481 2.36222 -1.02747 0
M  V30 4729 H 454.439 3.09776 0.537249 0
M  V30 4730 N 458.211 1.37122 0.776871 0
M  V30 4731 C 459.174 1.32301 1.8716 0
M  V30 4732 C 460.174 0.228099 1.59174 0
M  V30 4733 O 461.364 0.483642 1.67352 0
M  V30 4734 C 458.496 1.054 3.24197 0
M  V30 4735 H 459.689 2.29673 1.92848 0
M  V30 4736 H 457.242 1.22077 0.97606 0
M  V30 4737 H 457.977 0.0853872 3.24188 0
M  V30 4738 H 457.762 1.84648 3.45901 0
M  V30 4739 H 459.252 1.04664 4.04271 0
M  V30 4740 N 459.689 -1.00246 1.21608 0
M  V30 4741 C 460.619 -2.10921 1.00172 0
M  V30 4742 C 461.6 -1.69938 -0.0741587 0
M  V30 4743 O 462.785 -1.94009 0.0861753 0
M  V30 4744 C 459.915 -3.42618 0.568355 0
M  V30 4745 C 458.869 -3.97407 1.58909 0
M  V30 4746 C 458.195 -5.25038 1.01187 0
M  V30 4747 C 459.495 -4.2918 2.97661 0
M  V30 4748 H 461.189 -2.29112 1.92739 0
M  V30 4749 H 458.735 -1.10101 0.928102 0
M  V30 4750 H 460.688 -4.19444 0.405555 0
M  V30 4751 H 459.412 -3.24227 -0.392961 0
M  V30 4752 H 458.071 -3.22703 1.73949 0
M  V30 4753 H 457.719 -5.02982 0.0421965 0
M  V30 4754 H 457.419 -5.62661 1.6937 0
M  V30 4755 H 458.943 -6.04507 0.860448 0
M  V30 4756 H 460.357 -4.96839 2.86049 0
M  V30 4757 H 458.754 -4.77952 3.6288 0
M  V30 4758 H 459.824 -3.3735 3.48315 0
M  V30 4759 N 461.167 -1.02423 -1.1978 0
M  V30 4760 C 462.099 -0.559152 -2.22275 0
M  V30 4761 C 463.112 0.36251 -1.58713 0
M  V30 4762 O 464.301 0.159641 -1.77785 0
M  V30 4763 C 461.401 0.205094 -3.38279 0
M  V30 4764 C 460.574 -0.720361 -4.31427 0
M  V30 4765 C 459.633 -0.00234368 -5.262 0
M  V30 4766 O 458.659 -0.627378 -5.65732 0
M  V30 4767 N 459.861 1.26996 -5.66438 0
M  V30 4768 H 462.626 -1.44064 -2.62804 0
M  V30 4769 H 460.187 -0.902692 -1.34399 0
M  V30 4770 H 462.179 0.694868 -3.9869 0
M  V30 4771 H 460.749 0.987947 -2.96578 0
M  V30 4772 H 459.969 -1.39031 -3.68869 0
M  V30 4773 H 461.257 -1.3495 -4.90577 0
M  V30 4774 H 460.655 1.79858 -5.36347 0
M  V30 4775 H 459.212 1.70432 -6.29123 0
M  V30 4776 N 462.645 1.35699 -0.801477 0
M  V30 4777 C 463.608 2.28199 -0.213994 0
M  V30 4778 C 464.608 1.49359 0.595691 0
M  V30 4779 O 465.798 1.69186 0.414921 0
M  V30 4780 C 462.93 3.33587 0.702297 0
M  V30 4781 H 464.123 2.81666 -1.02976 0
M  V30 4782 H 461.676 1.45467 -0.571759 0
M  V30 4783 H 462.411 2.85297 1.54195 0
M  V30 4784 H 462.196 3.91906 0.123484 0
M  V30 4785 H 463.686 4.02638 1.10783 0
M  V30 4786 N 464.123 0.554532 1.47522 0
M  V30 4787 C 465.056 -0.242442 2.26908 0
M  V30 4788 C 466.034 -0.922722 1.33883 0
M  V30 4789 O 467.218 -0.942244 1.63261 0
M  V30 4790 C 464.345 -1.34525 3.10839 0
M  V30 4791 C 463.391 -0.773805 4.19422 0
M  V30 4792 S 464.224 0.377525 5.34168 0
M  V30 4793 C 465.38 -0.727164 6.21662 0
M  V30 4794 H 465.613 0.431218 2.94156 0
M  V30 4795 H 463.146 0.3408 1.50592 0
M  V30 4796 H 465.104 -1.97683 3.59766 0
M  V30 4797 H 463.765 -1.99073 2.42958 0
M  V30 4798 H 462.958 -1.60187 4.77866 0
M  V30 4799 H 462.56 -0.218448 3.73361 0
M  V30 4800 H 464.852 -1.61992 6.57849 0
M  V30 4801 H 465.795 -0.180135 7.07871 0
M  V30 4802 H 466.203 -1.01863 5.55233 0
M  V30 4803 N 465.601 -1.54893 0.290851 0
M  V30 4804 C 466.534 -2.19289 -0.631489 0
M  V30 4805 C 467.512 -1.15893 -1.14051 0
M  V30 4806 O 468.696 -1.4449 -1.21058 0
M  V30 4807 C 465.823 -2.82866 -1.86291 0
M  V30 4808 C 464.869 -3.997 -1.48801 0
M  V30 4809 S 465.702 -5.32641 -0.552644 0
M  V30 4810 C 466.858 -5.99696 -1.79209 0
M  V30 4811 H 467.091 -2.9718 -0.0843791 0
M  V30 4812 H 464.624 -1.54218 0.075031 0
M  V30 4813 H 466.582 -3.20124 -2.56964 0
M  V30 4814 H 465.243 -2.04839 -2.38117 0
M  V30 4815 H 464.436 -4.42932 -2.40473 0
M  V30 4816 H 464.038 -3.63947 -0.861321 0
M  V30 4817 H 466.33 -6.19886 -2.734 0
M  V30 4818 H 467.273 -6.94071 -1.40251 0
M  V30 4819 H 467.681 -5.29226 -1.96419 0
M  V30 4820 N 467.08 -0.0183926 -1.57589 0
M  V30 4821 C 467.99 0.982943 -2.13015 0
M  V30 4822 C 469.006 1.36443 -1.07979 0
M  V30 4823 O 470.182 1.44802 -1.3998 0
M  V30 4824 C 467.247 2.25024 -2.63752 0
M  V30 4825 C 466.308 1.93018 -3.83461 0
M  V30 4826 C 465.541 3.13706 -4.31769 0
M  V30 4827 O 465.764 4.2601 -3.79305 0
M  V30 4828 O 464.698 2.96629 -5.23732 0
M  V30 4829 H 468.524 0.541709 -2.9883 0
M  V30 4830 H 466.109 0.201565 -1.48034 0
M  V30 4831 H 467.991 2.99441 -2.96502 0
M  V30 4832 H 466.666 2.68349 -1.81026 0
M  V30 4833 H 465.573 1.16019 -3.55655 0
M  V30 4834 H 466.906 1.54516 -4.67317 0
M  V30 4835 N 468.558 1.5553 0.254621 0
M  V30 4836 C 469.806 1.7665 0.981793 0
M  V30 4837 C 470.127 0.580963 1.86145 0
M  V30 4838 O 469.397 -0.403537 1.91699 0
M  V30 4839 H 467.977 0.651475 0.365498 0
M  V30 4840 H 470.639 1.92958 0.274426 0
M  V30 4841 H 469.735 2.67486 1.60802 0
M  V30 4842 N 470.036 -0.519951 1.48776 0
M  V30 4843 C 471.283 -1.27522 1.57303 0
M  V30 4844 C 471.611 -1.92869 0.251328 0
M  V30 4845 O 470.866 -1.80372 -0.759243 0
M  V30 4846 C 471.165 -2.37864 2.6675 0
M  V30 4847 C 470.831 -1.90103 4.08867 0
M  V30 4848 C 469.493 -1.76795 4.47546 0
M  V30 4849 C 471.845 -1.54133 4.97888 0
M  V30 4850 C 469.173 -1.25868 5.73039 0
M  V30 4851 C 471.525 -1.04665 6.23881 0
M  V30 4852 C 470.189 -0.899823 6.61407 0
M  V30 4853 H 469.459 -0.466636 0.575614 0
M  V30 4854 H 472.106 -0.579109 1.82534 0
M  V30 4855 H 470.411 -3.13186 2.35418 0
M  V30 4856 H 472.108 -2.95969 2.70561 0
M  V30 4857 H 468.698 -2.01414 3.78326 0
M  V30 4858 H 472.882 -1.6327 4.68675 0
M  V30 4859 H 468.138 -1.13196 6.0083 0
M  V30 4860 H 472.312 -0.759074 6.92251 0
M  V30 4861 H 469.939 -0.503011 7.58534 0
M  V30 4862 N 471.514 -1.37532 -0.769588 0
M  V30 4863 C 472.791 -1.23392 -1.51768 0
M  V30 4864 C 473.171 0.17157 -2.10402 0
M  V30 4865 O 472.519 1.17943 -1.95708 0
M  V30 4866 C 472.729 -2.33163 -2.59685 0
M  V30 4867 C 474.077 -2.70809 -3.27028 0
M  V30 4868 O 475.101 -2.32355 -2.69981 0
M  V30 4869 O 473.96 -3.37066 -4.30173 0
M  V30 4870 H 471.054 -0.481617 -0.67229 0
M  V30 4871 H 473.6 -1.49318 -0.806368 0
M  V30 4872 H 472.372 -3.27273 -2.14494 0
M  V30 4873 H 471.995 -2.08713 -3.38415 0
M  V30 4874 N 472.992 0.995999 -1.22138 0
M  V30 4875 C 474.238 1.73767 -1.04561 0
M  V30 4876 C 474.571 1.89633 0.418698 0
M  V30 4877 O 473.846 1.43723 1.3105 0
M  V30 4878 C 474.129 3.14505 -1.75382 0
M  V30 4879 C 473.982 3.06306 -3.29388 0
M  V30 4880 C 475.301 4.13615 -1.50369 0
M  V30 4881 H 472.42 0.630728 -0.38125 0
M  V30 4882 H 475.062 1.16057 -1.50435 0
M  V30 4883 H 473.212 3.63775 -1.36383 0
M  V30 4884 H 474.884 2.64681 -3.77812 0
M  V30 4885 H 473.127 2.43186 -3.59226 0
M  V30 4886 H 473.798 4.05884 -3.74116 0
M  V30 4887 H 476.274 3.73089 -1.84239 0
M  V30 4888 H 475.15 5.10212 -2.02421 0
M  V30 4889 H 475.411 4.39949 -0.435611 0
M  V30 4890 N 474.47 1.03057 1.19235 0
M  V30 4891 C 475.716 0.729098 1.89241 0
M  V30 4892 C 476.049 -0.740573 1.79525 0
M  V30 4893 O 475.324 -1.53946 1.18874 0
M  V30 4894 C 475.607 1.18304 3.40112 0
M  V30 4895 C 475.46 2.71406 3.5869 0
M  V30 4896 C 476.779 0.765161 4.33397 0
M  V30 4897 H 473.898 0.266338 0.687192 0
M  V30 4898 H 476.54 1.28079 1.40341 0
M  V30 4899 H 474.69 0.713672 3.81889 0
M  V30 4900 H 476.362 3.26303 3.26074 0
M  V30 4901 H 474.605 3.11717 3.01687 0
M  V30 4902 H 475.276 2.98225 4.64506 0
M  V30 4903 H 477.752 1.16889 3.99345 0
M  V30 4904 H 476.628 1.11065 5.37546 0
M  V30 4905 H 476.889 -0.332372 4.40849 0
M  V30 4906 N 475.948 -1.35272 0.808662 0
M  V30 4907 C 477.176 -2.02946 0.402537 0
M  V30 4908 C 477.591 -1.60937 -0.987147 0
M  V30 4909 O 476.948 -0.807917 -1.63643 0
M  V30 4910 C 476.999 -3.58317 0.47868 0
M  V30 4911 O 476.72 -3.98799 1.81358 0
M  V30 4912 C 478.221 -4.43251 0.0656281 0
M  V30 4913 H 475.441 -0.650831 0.163279 0
M  V30 4914 H 477.985 -1.72849 1.09286 0
M  V30 4915 H 476.14 -3.87055 -0.163415 0
M  V30 4916 H 476.554 -4.93451 1.77781 0
M  V30 4917 H 478.028 -5.51738 0.170017 0
M  V30 4918 H 478.505 -4.27913 -0.989278 0
M  V30 4919 H 479.111 -4.19813 0.68096 0
M  V30 4920 N 477.426 -0.562348 -1.47226 0
M  V30 4921 C 478.672 -0.0402761 -2.0276 0
M  V30 4922 C 479.005 1.30823 -1.43523 0
M  V30 4923 O 478.28 1.85249 -0.592705 0
M  V30 4924 C 478.563 0.047311 -3.60069 0
M  V30 4925 C 478.416 -1.32865 -4.29729 0
M  V30 4926 C 479.735 0.758182 -4.3352 0
M  V30 4927 H 476.854 -0.0161105 -0.736824 0
M  V30 4928 H 479.496 -0.725628 -1.75598 0
M  V30 4929 H 477.646 0.630986 -3.83342 0
M  V30 4930 H 479.318 -1.95593 -4.17781 0
M  V30 4931 H 477.561 -1.90195 -3.89882 0
M  V30 4932 H 478.232 -1.22004 -5.38349 0
M  V30 4933 H 480.708 0.262546 -4.15271 0
M  V30 4934 H 479.584 0.78844 -5.43208 0
M  V30 4935 H 479.845 1.81537 -4.03109 0
M  V30 4936 N 478.904 1.54736 -0.299062 0
M  V30 4937 C 479.814 2.27127 0.587413 0
M  V30 4938 C 480.83 1.30575 1.15005 0
M  V30 4939 O 482.006 1.63554 1.17525 0
M  V30 4940 C 479.071 2.99645 1.74395 0
M  V30 4941 C 478.132 4.11731 1.21559 0
M  V30 4942 C 477.365 4.80781 2.317 0
M  V30 4943 O 477.588 4.4918 3.51558 0
M  V30 4944 O 476.522 5.68226 1.98501 0
M  V30 4945 H 480.348 3.037 0.000250109 0
M  V30 4946 H 477.933 1.49256 -0.0655919 0
M  V30 4947 H 479.815 3.45138 2.4178 0
M  V30 4948 H 478.49 2.25969 2.31775 0
M  V30 4949 H 477.397 3.70641 0.507514 0
M  V30 4950 H 478.73 4.87379 0.687233 0
M  V30 4951 N 480.382 0.0267497 1.57577 0
M  V30 4952 C 481.292 -0.971633 2.13533 0
M  V30 4953 C 482.308 -1.35868 1.08701 0
M  V30 4954 O 483.484 -1.44058 1.40746 0
M  V30 4955 C 480.549 -2.23622 2.64941 0
M  V30 4956 C 479.61 -1.90982 3.8448 0
M  V30 4957 C 478.843 -3.11411 4.33427 0
M  V30 4958 O 479.066 -4.23992 3.81558 0
M  V30 4959 O 478 -2.93848 5.25297 0
M  V30 4960 H 481.826 -0.525853 2.99113 0
M  V30 4961 H 479.411 -0.193712 1.48139 0
M  V30 4962 H 481.293 -2.97864 2.98086 0
M  V30 4963 H 479.968 -2.67386 1.82446 0
M  V30 4964 H 478.875 -1.14132 3.56265 0
M  V30 4965 H 480.208 -1.52036 4.6813 0
M  V30 4966 N 481.861 -1.55662 -0.24637 0
M  V30 4967 C 482.824 -1.89558 -1.28842 0
M  V30 4968 C 483.824 -0.772082 -1.41052 0
M  V30 4969 O 485.014 -1.04007 -1.39743 0
M  V30 4970 C 482.146 -2.12449 -2.66605 0
M  V30 4971 H 483.339 -2.82735 -1.00004 0
M  V30 4972 H 480.892 -1.48562 -0.485684 0
M  V30 4973 H 481.627 -1.21742 -3.00582 0
M  V30 4974 H 481.412 -2.94273 -2.59125 0
M  V30 4975 H 482.902 -2.39854 -3.41847 0
M  V30 4976 N 483.339 0.512053 -1.4905 0
M  V30 4977 C 484.588 1.26343 -1.57227 0
M  V30 4978 C 484.901 1.93876 -0.259155 0
M  V30 4979 O 486.107 2.70612 -0.219358 0
M  V30 4980 C 484.563 2.29343 -2.77362 0
M  V30 4981 C 484.171 1.67799 -4.15388 0
M  V30 4982 C 485.915 3.05378 -2.94864 0
M  V30 4983 C 483.822 2.68845 -5.2676 0
M  V30 4984 H 482.752 0.475231 -0.585382 0
M  V30 4985 H 485.403 0.53862 -1.75417 0
M  V30 4986 H 483.785 3.04938 -2.52643 0
M  V30 4987 H 484.959 0.982715 -4.50199 0
M  V30 4988 H 483.274 1.04194 -4.03153 0
M  V30 4989 H 485.871 3.80921 -3.75238 0
M  V30 4990 H 486.214 3.62327 -2.05 0
M  V30 4991 H 486.747 2.36898 -3.19569 0
M  V30 4992 H 483.486 2.16692 -6.18647 0
M  V30 4993 H 483.006 3.36647 -4.96416 0
M  V30 4994 H 484.685 3.31487 -5.5563 0
M  V30 4995 N 484.817 1.37938 0.762283 0
M  V30 4996 C 486.065 1.33404 1.51815 0
M  V30 4997 C 486.386 -0.0780975 1.94844 0
M  V30 4998 O 485.656 -1.02405 1.67003 0
M  V30 4999 H 484.236 0.490839 0.563104 0
M  V30 5000 H 486.898 1.72527 0.906669 0
M  V30 5001 H 485.994 1.97926 2.41313 0
M  V30 5002 N 486.295 -0.989507 1.22664 0
M  V30 5003 C 487.572 -1.70326 0.961688 0
M  V30 5004 C 487.952 -2.04537 -0.522279 0
M  V30 5005 O 487.3 -1.73136 -1.49118 0
M  V30 5006 C 487.51 -2.95135 1.86269 0
M  V30 5007 C 488.858 -3.67842 2.12078 0
M  V30 5008 O 489.882 -3.0515 1.83745 0
M  V30 5009 O 488.741 -4.80644 2.60083 0
M  V30 5010 H 485.835 -0.743589 0.361946 0
M  V30 5011 H 488.381 -1.04555 1.33665 0
M  V30 5012 H 487.153 -2.66382 2.8663 0
M  V30 5013 H 486.776 -3.68645 1.48952 0
M  V30 5014 N 487.773 -1.03688 -1.18687 0
M  V30 5015 C 488.736 -0.629115 -2.20397 0
M  V30 5016 C 489.736 0.311495 -1.57754 0
M  V30 5017 O 490.926 0.0974107 -1.73927 0
M  V30 5018 C 488.058 0.0782231 -3.4081 0
M  V30 5019 H 489.251 -1.52915 -2.57987 0
M  V30 5020 H 486.804 -0.828988 -1.32505 0
M  V30 5021 H 487.539 0.992233 -3.08748 0
M  V30 5022 H 487.324 -0.597776 -3.87517 0
M  V30 5023 H 488.814 0.350156 -4.16129 0
M  V30 5024 N 489.251 1.34841 -0.815825 0
M  V30 5025 C 490.528 1.92908 -0.323416 0
M  V30 5026 C 490.908 1.74479 1.18828 0
M  V30 5027 O 490.256 1.11928 1.99209 0
M  V30 5028 C 490.466 3.40957 -0.744952 0
M  V30 5029 C 491.814 4.18107 -0.739716 0
M  V30 5030 O 492.838 3.49511 -0.68708 0
M  V30 5031 O 491.697 5.40517 -0.806456 0
M  V30 5032 H 488.791 0.822436 -0.0867646 0
M  V30 5033 H 491.337 1.4386 -0.90014 0
M  V30 5034 H 490.109 3.4814 -1.78646 0
M  V30 5035 H 489.732 3.97341 -0.143535 0
M  V30 5036 N 490.729 0.570148 1.46925 0
M  V30 5037 C 491.978 0.0487352 2.01641 0
M  V30 5038 C 492.291 -1.31433 1.44861 0
M  V30 5039 O 493.497 -1.92638 1.91318 0
M  V30 5040 C 491.953 0.0365817 3.59881 0
M  V30 5041 C 491.561 1.39719 4.25655 0
M  V30 5042 C 493.305 -0.431545 4.22301 0
M  V30 5043 C 491.212 1.34345 5.75939 0
M  V30 5044 H 490.142 0.0144492 0.753862 0
M  V30 5045 H 492.793 0.719928 1.68788 0
M  V30 5046 H 491.175 -0.700522 3.89755 0
M  V30 5047 H 492.349 2.15303 4.07408 0
M  V30 5048 H 490.664 1.80431 3.75278 0
M  V30 5049 H 493.261 -0.490354 5.32447 0
M  V30 5050 H 493.604 -1.44638 3.90366 0
M  V30 5051 H 494.137 0.251102 3.97007 0
M  V30 5052 H 490.876 2.33469 6.12513 0
M  V30 5053 H 490.396 0.629615 5.96486 0
M  V30 5054 H 492.075 1.051 6.38407 0
M  V30 5055 N 492.207 -1.54576 0.307264 0
M  V30 5056 C 493.453 -2.0056 -0.300612 0
M  V30 5057 C 493.786 -1.1953 -1.53057 0
M  V30 5058 O 493.061 -0.27337 -1.92569 0
M  V30 5059 C 493.344 -3.54167 -0.650987 0
M  V30 5060 C 493.197 -4.45933 0.588539 0
M  V30 5061 C 494.516 -4.14645 -1.47506 0
M  V30 5062 H 491.635 -0.729075 -0.107788 0
M  V30 5063 H 494.277 -1.85286 0.420606 0
M  V30 5064 H 492.427 -3.67313 -1.26544 0
M  V30 5065 H 494.099 -4.44683 1.22697 0
M  V30 5066 H 492.342 -4.16274 1.22058 0
M  V30 5067 H 493.013 -5.51189 0.299153 0
M  V30 5068 H 495.489 -4.04973 -0.955821 0
M  V30 5069 H 494.365 -5.22269 -1.68899 0
M  V30 5070 H 494.626 -3.66921 -2.4662 0
M  V30 5071 N 493.685 -0.035106 -1.57561 0
M  V30 5072 C 494.931 0.64318 -1.92331 0
M  V30 5073 C 495.264 1.71434 -0.912368 0
M  V30 5074 O 494.539 1.94395 0.0640303 0
M  V30 5075 C 494.822 1.25411 -3.37556 0
M  V30 5076 C 494.675 0.192109 -4.4939 0
M  V30 5077 C 495.994 2.17041 -3.82859 0
M  V30 5078 H 493.113 0.232341 -0.699419 0
M  V30 5079 H 495.755 -0.0935889 -1.89769 0
M  V30 5080 H 493.905 1.88205 -3.39869 0
M  V30 5081 H 495.577 -0.438849 -4.59208 0
M  V30 5082 H 493.82 -0.481725 -4.31117 0
M  V30 5083 H 494.491 0.659292 -5.48049 0
M  V30 5084 H 496.967 1.64228 -3.8232 0
M  V30 5085 H 495.843 2.56738 -4.85157 0
M  V30 5086 H 496.104 3.06401 -3.18702 0
M  V30 5087 N 495.163 1.55791 0.238111 0
M  V30 5088 C 496.391 1.82098 0.982233 0
M  V30 5089 C 496.806 0.612025 1.78605 0
M  V30 5090 O 496.163 -0.419381 1.77616 0
M  V30 5091 C 496.214 3.0673 1.91309 0
M  V30 5092 O 495.935 4.2296 1.14179 0
M  V30 5093 C 497.436 3.45903 2.77248 0
M  V30 5094 H 494.656 0.605748 0.288635 0
M  V30 5095 H 497.2 2.02862 0.258341 0
M  V30 5096 H 495.355 2.87991 2.59114 0
M  V30 5097 H 495.769 4.93653 1.7722 0
M  V30 5098 H 497.243 4.36189 3.38295 0
M  V30 5099 H 497.72 2.66891 3.48806 0
M  V30 5100 H 498.326 3.67024 2.14881 0
M  V30 5101 N 496.642 -0.504142 1.49319 0
M  V30 5102 C 497.605 -1.5883 1.65244 0
M  V30 5103 C 498.605 -1.52009 0.524386 0
M  V30 5104 O 499.795 -1.55218 0.79077 0
M  V30 5105 C 496.927 -2.98481 1.64687 0
M  V30 5106 H 498.12 -1.4604 2.61939 0
M  V30 5107 H 495.673 -0.728144 1.38303 0
M  V30 5108 H 496.408 -3.16751 0.695644 0
M  V30 5109 H 496.193 -3.0484 2.46607 0
M  V30 5110 H 497.683 -3.77256 1.79075 0
M  V30 5111 N 498.12 -1.38341 -0.754957 0
M  V30 5112 C 499.348 -1.37704 -1.54419 0
M  V30 5113 C 499.763 0.0335243 -1.8877 0
M  V30 5114 O 499.12 0.999773 -1.52679 0
M  V30 5115 C 499.171 -2.23136 -2.84416 0
M  V30 5116 O 498.892 -3.58697 -2.51531 0
M  V30 5117 C 500.393 -2.30664 -3.78562 0
M  V30 5118 H 497.613 -0.471061 -0.477852 0
M  V30 5119 H 500.157 -1.81902 -0.934446 0
M  V30 5120 H 498.312 -1.82403 -3.41772 0
M  V30 5121 H 498.726 -4.03665 -3.34896 0
M  V30 5122 H 500.2 -2.9473 -4.66732 0
M  V30 5123 H 500.677 -1.3199 -4.18898 0
M  V30 5124 H 501.283 -2.71781 -3.27131 0
M  V30 5125 N 499.598 0.982988 -1.23187 0
M  V30 5126 C 500.846 1.72052 -1.06031 0
M  V30 5127 C 501.167 1.90769 0.404019 0
M  V30 5128 O 500.437 1.47446 1.28982 0
M  V30 5129 H 499.017 0.637499 -0.389363 0
M  V30 5130 H 501.679 1.18338 -1.54862 0
M  V30 5131 H 500.775 2.7111 -1.54615 0
M  V30 5132 N 501.076 1.04316 1.18135 0
M  V30 5133 C 502.024 0.630175 2.23901 0
M  V30 5134 C 503.018 -0.344254 1.65865 0
M  V30 5135 O 504.224 -0.211273 1.78756 0
M  V30 5136 H 500.599 0.185578 0.728742 0
M  V30 5137 H 502.57 1.53253 2.56039 0
M  V30 5138 C 501.319 0.011666 3.47698 0
M  V30 5139 H 500.642 0.752526 3.92654 0
M  V30 5140 H 502.082 -0.240046 4.2332 0
M  V30 5141 C 500.541 -1.23913 3.13285 0
M  V30 5142 O 501.071 -2.32959 3.27251 0
M  V30 5143 N 499.277 -1.13338 2.67587 0
M  V30 5144 H 498.824 -0.246006 2.56423 0
M  V30 5145 H 498.782 -1.97116 2.44934 0
M  V30 5146 N 502.554 -1.34406 0.822964 0
M  V30 5147 C 503.501 -2.29519 0.24284 0
M  V30 5148 C 504.471 -1.5359 -0.632397 0
M  V30 5149 O 505.656 -1.8196 -0.57403 0
M  V30 5150 C 502.796 -3.40032 -0.58925 0
M  V30 5151 C 501.909 -4.30899 0.308236 0
M  V30 5152 C 501.044 -5.28515 -0.533425 0
M  V30 5153 C 500.083 -6.1102 0.363444 0
M  V30 5154 N 499.22 -7.00725 -0.439147 0
M  V30 5155 H 504.06 -2.78537 1.05929 0
M  V30 5156 H 501.597 -1.3707 0.533872 0
M  V30 5157 H 503.555 -4.0279 -1.087 0
M  V30 5158 H 502.185 -2.92248 -1.37081 0
M  V30 5159 H 501.237 -3.69002 0.924203 0
M  V30 5160 H 502.549 -4.88717 0.997862 0
M  V30 5161 H 501.703 -5.96725 -1.09565 0
M  V30 5162 H 500.442 -4.71235 -1.25656 0
M  V30 5163 H 499.447 -5.41743 0.937812 0
M  V30 5164 H 500.672 -6.70381 1.08469 0
M  V30 5165 H 498.618 -6.45913 -1.14595 0
M  V30 5166 H 498.535 -7.55756 0.19209 0
M  V30 5167 H 499.803 -7.73263 -0.984124 0
M  V30 5168 N 504.032 -0.577932 -1.46621 0
M  V30 5169 C 505.309 0.00495287 -1.95599 0
M  V30 5170 C 505.689 1.46428 -1.5206 0
M  V30 5171 O 505.037 2.1517 -0.769046 0
M  V30 5172 C 505.247 -0.162114 -3.48623 0
M  V30 5173 C 506.595 -0.0274623 -4.24591 0
M  V30 5174 O 507.619 -0.0907067 -3.56084 0
M  V30 5175 O 506.478 0.1122 -5.46385 0
M  V30 5176 H 503.572 0.0525057 -0.825332 0
M  V30 5177 H 506.118 -0.645914 -1.56927 0
M  V30 5178 H 504.89 -1.17679 -3.73185 0
M  V30 5179 H 504.513 0.525407 -3.94113 0
M  V30 5180 N 505.51 1.54411 -0.315457 0
M  V30 5181 C 506.759 1.99599 0.290395 0
M  V30 5182 C 507.072 1.20746 1.53882 0
M  V30 5183 O 508.278 1.56272 2.22017 0
M  V30 5184 C 506.734 3.5539 0.56797 0
M  V30 5185 C 506.342 4.43068 -0.662945 0
M  V30 5186 C 508.086 4.09067 1.13422 0
M  V30 5187 C 505.993 5.90317 -0.357722 0
M  V30 5188 H 504.923 0.745592 0.112286 0
M  V30 5189 H 507.574 1.78477 -0.426418 0
M  V30 5190 H 505.956 3.72468 1.34476 0
M  V30 5191 H 507.13 4.37765 -1.43869 0
M  V30 5192 H 505.445 4.00238 -1.14884 0
M  V30 5193 H 508.042 5.16663 1.37707 0
M  V30 5194 H 508.385 3.60552 2.08106 0
M  V30 5195 H 508.918 3.95589 0.418805 0
M  V30 5196 H 505.657 6.4301 -1.27351 0
M  V30 5197 H 505.177 5.98592 0.380472 0
M  V30 5198 H 506.856 6.4699 0.0354284 0
M  V30 5199 N 506.988 0.0434614 1.5754 0
M  V30 5200 C 508.237 -0.631454 1.91561 0
M  V30 5201 C 508.55 -1.72457 0.92292 0
M  V30 5202 O 509.756 -2.45712 1.15489 0
M  V30 5203 C 508.212 -1.17447 3.40197 0
M  V30 5204 C 507.82 -0.113867 4.47855 0
M  V30 5205 C 509.564 -1.82507 3.83264 0
M  V30 5206 C 507.471 -0.669326 5.876 0
M  V30 5207 H 506.401 -0.239629 0.714908 0
M  V30 5208 H 509.052 0.111097 1.83163 0
M  V30 5209 H 507.434 -1.96909 3.43574 0
M  V30 5210 H 508.608 0.659348 4.56058 0
M  V30 5211 H 506.923 0.438821 4.14081 0
M  V30 5212 H 509.52 -2.25047 4.85034 0
M  V30 5213 H 509.863 -2.67365 3.19095 0
M  V30 5214 H 510.396 -1.09712 3.82372 0
M  V30 5215 H 507.135 0.141449 6.55347 0
M  V30 5216 H 506.655 -1.4107 5.82974 0
M  V30 5217 H 508.334 -1.15463 6.36614 0
M  V30 5218 N 508.466 -1.55915 -0.229846 0
M  V30 5219 C 509.399 -1.86734 -1.3117 0
M  V30 5220 C 510.377 -0.723947 -1.45595 0
M  V30 5221 O 511.561 -0.971462 -1.61539 0
M  V30 5222 C 508.688 -2.06707 -2.68309 0
M  V30 5223 C 507.734 -3.2938 -2.70944 0
M  V30 5224 S 508.567 -4.85547 -2.25842 0
M  V30 5225 C 509.723 -5.08546 -3.64873 0
M  V30 5226 H 509.956 -2.78204 -1.04832 0
M  V30 5227 H 507.489 -1.48243 -0.431681 0
M  V30 5228 H 509.447 -2.18898 -3.47267 0
M  V30 5229 H 508.108 -1.16049 -2.91876 0
M  V30 5230 H 507.301 -3.40374 -3.71701 0
M  V30 5231 H 506.903 -3.16004 -2.00044 0
M  V30 5232 H 509.195 -4.96935 -4.60502 0
M  V30 5233 H 510.138 -6.10465 -3.58801 0
M  V30 5234 H 510.546 -4.36314 -3.58176 0
M  V30 5235 N 509.944 0.496216 -1.49584 0
M  V30 5236 C 510.874 1.60576 -1.69521 0
M  V30 5237 C 511.855 1.61169 -0.543933 0
M  V30 5238 O 513.04 1.77834 -0.78031 0
M  V30 5239 C 510.17 2.99038 -1.76616 0
M  V30 5240 C 509.124 3.13312 -2.91581 0
M  V30 5241 C 508.45 4.53172 -2.83794 0
M  V30 5242 C 509.75 2.92886 -4.32452 0
M  V30 5243 H 511.444 1.44146 -2.62416 0
M  V30 5244 H 508.99 0.692024 -1.26282 0
M  V30 5245 H 510.943 3.76564 -1.8915 0
M  V30 5246 H 509.667 3.16568 -0.80324 0
M  V30 5247 H 508.326 2.38213 -2.78658 0
M  V30 5248 H 507.974 4.67585 -1.854 0
M  V30 5249 H 507.674 4.63662 -3.60958 0
M  V30 5250 H 509.198 5.32752 -2.98342 0
M  V30 5251 H 510.612 3.60178 -4.46032 0
M  V30 5252 H 509.009 3.14844 -5.10875 0
M  V30 5253 H 510.079 1.88966 -4.46565 0
M  V30 5254 N 511.423 1.38739 0.74761 0
M  V30 5255 C 512.333 1.38696 1.89211 0
M  V30 5256 C 513.349 0.283303 1.71678 0
M  V30 5257 O 514.525 0.522713 1.94498 0
M  V30 5258 C 511.59 1.21662 3.24653 0
M  V30 5259 C 510.651 2.41886 3.54669 0
M  V30 5260 C 509.884 2.25655 4.83648 0
M  V30 5261 O 510.107 1.25339 5.56459 0
M  V30 5262 O 509.041 3.14372 5.13277 0
M  V30 5263 H 512.867 2.35143 1.92202 0
M  V30 5264 H 510.452 1.19721 0.893708 0
M  V30 5265 H 512.334 1.14246 4.05618 0
M  V30 5266 H 511.009 0.283024 3.2246 0
M  V30 5267 H 509.916 2.54877 2.73841 0
M  V30 5268 H 511.249 3.33895 3.61628 0
M  V30 5269 N 512.901 -0.976442 1.23707 0
M  V30 5270 C 513.851 -2.0544 0.988851 0
M  V30 5271 C 514.835 -1.60762 -0.0665901 0
M  V30 5272 O 516.027 -1.76396 0.14604 0
M  V30 5273 C 513.156 -3.38258 0.586223 0
M  V30 5274 C 512.242 -3.89523 1.67728 0
M  V30 5275 N 512.633 -4.13823 2.90834 0
M  V30 5276 C 510.931 -4.18097 1.55277 0
M  V30 5277 C 511.632 -4.55731 3.61502 0
M  V30 5278 N 510.608 -4.60394 2.8903 0
M  V30 5279 H 514.41 -2.22191 1.92376 0
M  V30 5280 H 511.924 -1.15954 1.13704 0
M  V30 5281 H 513.921 -4.15075 0.389658 0
M  V30 5282 H 512.581 -3.22898 -0.341594 0
M  V30 5283 H 513.592 -4.01529 3.271 0
M  V30 5284 H 510.269 -4.11719 0.692351 0
M  V30 5285 H 511.659 -4.83018 4.67059 0
M  V30 5286 N 514.379 -1.04941 -1.1758 0
M  V30 5287 C 515.628 -0.753124 -1.87112 0
M  V30 5288 C 515.941 0.722507 -1.81767 0
M  V30 5289 O 517.147 1.13265 -2.46746 0
M  V30 5290 C 515.603 -1.29695 -3.35719 0
M  V30 5291 C 515.211 -2.80184 -3.49572 0
M  V30 5292 C 516.955 -1.07759 -4.10595 0
M  V30 5293 C 514.862 -3.2788 -4.92187 0
M  V30 5294 H 513.792 -0.278034 -0.700866 0
M  V30 5295 H 516.443 -1.26637 -1.32798 0
M  V30 5296 H 514.825 -0.711522 -3.89555 0
M  V30 5297 H 515.999 -3.44561 -3.05965 0
M  V30 5298 H 514.314 -3.00632 -2.88113 0
M  V30 5299 H 516.911 -1.40899 -5.15802 0
M  V30 5300 H 517.254 -0.0152302 -4.16297 0
M  V30 5301 H 517.787 -1.62809 -3.62957 0
M  V30 5302 H 514.526 -4.33535 -4.91658 0
M  V30 5303 H 514.046 -2.68245 -5.36475 0
M  V30 5304 H 515.725 -3.22412 -5.60945 0
M  V30 5305 N 515.857 1.33968 -0.830081 0
M  V30 5306 C 516.804 2.29387 -0.255008 0
M  V30 5307 C 517.774 1.53923 0.624243 0
M  V30 5308 O 518.959 1.82262 0.564372 0
M  V30 5309 C 516.099 3.4034 0.571209 0
M  V30 5310 C 515.212 4.30729 -0.331083 0
M  V30 5311 C 514.347 5.2879 0.505389 0
M  V30 5312 C 513.386 6.10819 -0.395843 0
M  V30 5313 N 512.523 7.00948 0.401979 0
M  V30 5314 H 517.363 2.77972 -1.07404 0
M  V30 5315 H 514.9 1.36785 -0.541133 0
M  V30 5316 H 516.858 4.03361 1.06562 0
M  V30 5317 H 515.488 2.9297 1.35529 0
M  V30 5318 H 514.54 3.68507 -0.943759 0
M  V30 5319 H 515.852 4.88181 -1.02377 0
M  V30 5320 H 515.006 5.97297 1.06399 0
M  V30 5321 H 513.745 4.71894 1.23155 0
M  V30 5322 H 512.75 5.41238 -0.966529 0
M  V30 5323 H 513.975 6.69797 -1.12023 0
M  V30 5324 H 511.921 6.46512 1.11168 0
M  V30 5325 H 511.838 7.55643 -0.232167 0
M  V30 5326 H 513.106 7.73774 0.943102 0
M  V30 5327 N 517.335 0.585699 1.46312 0
M  V30 5328 C 518.298 -0.135673 2.28798 0
M  V30 5329 C 519.298 -0.815988 1.38558 0
M  V30 5330 O 520.488 -0.667487 1.60904 0
M  V30 5331 C 517.62 -1.20163 3.1902 0
M  V30 5332 H 518.813 0.589257 2.94054 0
M  V30 5333 H 516.366 0.343794 1.52472 0
M  V30 5334 H 517.101 -1.95804 2.58517 0
M  V30 5335 H 516.886 -0.718282 3.85465 0
M  V30 5336 H 518.376 -1.70749 3.81096 0
M  V30 5337 N 518.813 -1.54241 0.323641 0
M  V30 5338 C 519.746 -2.20579 -0.584833 0
M  V30 5339 C 520.724 -1.18286 -1.11567 0
M  V30 5340 O 521.908 -1.47025 -1.17966 0
M  V30 5341 C 519.035 -2.86754 -1.80249 0
M  V30 5342 C 518.081 -4.02767 -1.4029 0
M  V30 5343 S 518.914 -5.33693 -0.439539 0
M  V30 5344 C 520.07 -6.03362 -1.66448 0
M  V30 5345 H 520.303 -2.97292 -0.0213238 0
M  V30 5346 H 517.836 -1.54024 0.107726 0
M  V30 5347 H 519.794 -3.25503 -2.50116 0
M  V30 5348 H 518.455 -2.09844 -2.33719 0
M  V30 5349 H 517.648 -4.47933 -2.31024 0
M  V30 5350 H 517.25 -3.65692 -0.783928 0
M  V30 5351 H 519.542 -6.25546 -2.6019 0
M  V30 5352 H 520.485 -6.9689 -1.25498 0
M  V30 5353 H 520.893 -5.33273 -1.85149 0
M  V30 5354 N 520.291 -0.0518155 -1.57515 0
M  V30 5355 C 521.238 0.922352 -2.11569 0
M  V30 5356 C 522.208 1.30842 -1.02321 0
M  V30 5357 O 523.393 1.39778 -1.29872 0
M  V30 5358 C 520.533 2.19167 -2.6657 0
M  V30 5359 C 519.646 1.86003 -3.89906 0
M  V30 5360 C 518.781 3.07398 -4.33221 0
M  V30 5361 C 517.82 2.70158 -5.49255 0
M  V30 5362 N 516.957 3.84248 -5.8762 0
M  V30 5363 H 521.797 0.454506 -2.94514 0
M  V30 5364 H 519.334 0.212718 -1.45554 0
M  V30 5365 H 521.292 2.93443 -2.96559 0
M  V30 5366 H 519.922 2.63528 -1.86421 0
M  V30 5367 H 518.974 1.01874 -3.66505 0
M  V30 5368 H 520.286 1.54592 -4.74239 0
M  V30 5369 H 519.44 3.89972 -4.64765 0
M  V30 5370 H 518.179 3.41988 -3.477 0
M  V30 5371 H 517.184 1.86001 -5.17382 0
M  V30 5372 H 518.409 2.36759 -6.36492 0
M  V30 5373 H 516.355 4.18638 -5.05053 0
M  V30 5374 H 516.272 3.56538 -6.66646 0
M  V30 5375 H 517.54 4.6746 -6.2378 0
M  V30 5376 N 521.769 1.56035 0.221574 0
M  V30 5377 C 523.046 1.69837 0.970301 0
M  V30 5378 C 523.426 0.599065 2.02421 0
M  V30 5379 O 522.774 -0.393929 2.25079 0
M  V30 5380 C 522.984 3.11148 1.58076 0
M  V30 5381 C 524.332 3.70555 2.07302 0
M  V30 5382 O 525.356 3.14109 1.6797 0
M  V30 5383 O 524.215 4.69562 2.79596 0
M  V30 5384 H 521.309 0.691727 0.453257 0
M  V30 5385 H 523.855 1.68353 0.213358 0
M  V30 5386 H 522.627 3.82617 0.819759 0
M  V30 5387 H 522.25 3.16749 2.40324 0
M  V30 5388 N 523.247 -0.488276 1.49845 0
M  V30 5389 C 524.197 -1.58556 1.63842 0
M  V30 5390 C 525.181 -1.53142 0.493586 0
M  V30 5391 O 526.373 -1.60457 0.747169 0
M  V30 5392 C 523.502 -2.97101 1.72005 0
M  V30 5393 C 522.588 -3.07463 2.92108 0
M  V30 5394 N 522.979 -2.87681 4.16021 0
M  V30 5395 C 521.277 -3.3858 2.90309 0
M  V30 5396 C 521.978 -3.0256 4.96822 0
M  V30 5397 N 520.954 -3.32002 4.30437 0
M  V30 5398 H 524.756 -1.41935 2.57355 0
M  V30 5399 H 522.27 -0.694668 1.46793 0
M  V30 5400 H 524.267 -3.75976 1.80132 0
M  V30 5401 H 522.927 -3.14782 0.796375 0
M  V30 5402 H 523.938 -2.63603 4.45796 0
M  V30 5403 H 520.615 -3.62357 2.07372 0
M  V30 5404 H 522.005 -2.9165 6.05301 0
M  V30 5405 N 524.725 -1.39134 -0.740242 0
M  V30 5406 C 525.688 -1.37217 -1.83587 0
M  V30 5407 C 526.688 -0.270221 -1.58513 0
M  V30 5408 O 527.878 -0.527843 -1.6601 0
M  V30 5409 C 525.01 -1.13959 -3.21288 0
M  V30 5410 H 526.203 -2.34705 -1.86691 0
M  V30 5411 H 523.756 -1.24622 -0.94335 0
M  V30 5412 H 524.491 -0.17131 -3.23847 0
M  V30 5413 H 524.276 -1.93754 -3.40884 0
M  V30 5414 H 525.766 -1.15346 -4.01354 0
M  V30 5415 N 526.204 0.969867 -1.24223 0
M  V30 5416 C 527.453 1.70687 -1.07466 0
M  V30 5417 C 527.766 1.91736 0.386861 0
M  V30 5418 O 528.972 2.62986 0.674581 0
M  V30 5419 C 527.428 3.07217 -1.87472 0
M  V30 5420 C 527.036 2.94018 -3.3802 0
M  V30 5421 C 528.78 3.84804 -1.79237 0
M  V30 5422 C 526.687 4.25844 -4.10379 0
M  V30 5423 H 525.617 0.640067 -0.398536 0
M  V30 5424 H 528.268 1.08092 -1.48285 0
M  V30 5425 H 526.65 3.70628 -1.39466 0
M  V30 5426 H 527.824 2.39632 -3.9359 0
M  V30 5427 H 526.139 2.29898 -3.47183 0
M  V30 5428 H 528.736 4.82417 -2.30603 0
M  V30 5429 H 529.079 4.09356 -0.757197 0
M  V30 5430 H 529.612 3.28115 -2.24912 0
M  V30 5431 H 526.351 4.06486 -5.14246 0
M  V30 5432 H 525.871 4.80054 -3.59594 0
M  V30 5433 H 527.55 4.94475 -4.17257 0
M  V30 5434 N 527.682 1.05563 1.17022 0
M  V30 5435 C 528.612 0.681026 2.23348 0
M  V30 5436 C 529.593 -0.322983 1.67005 0
M  V30 5437 O 530.778 -0.199746 1.9317 0
M  V30 5438 C 527.908 0.0589053 3.4725 0
M  V30 5439 C 526.862 0.988082 4.16438 0
M  V30 5440 C 526.188 0.229646 5.34207 0
M  V30 5441 C 527.488 2.31388 4.68249 0
M  V30 5442 H 529.182 1.56993 2.54938 0
M  V30 5443 H 526.728 0.756302 1.2254 0
M  V30 5444 H 528.681 -0.214982 4.20851 0
M  V30 5445 H 527.405 -0.864968 3.14938 0
M  V30 5446 H 526.064 1.24659 3.44754 0
M  V30 5447 H 525.712 -0.697111 4.98146 0
M  V30 5448 H 525.412 0.848815 5.81437 0
M  V30 5449 H 526.936 -0.0368694 6.10589 0
M  V30 5450 H 528.35 2.09964 5.33468 0
M  V30 5451 H 526.747 2.88736 5.26072 0
M  V30 5452 H 527.817 2.94982 3.84855 0
M  V30 5453 N 529.16 -1.33526 0.837174 0
M  V30 5454 C 530.408 -1.97446 0.431211 0
M  V30 5455 C 530.729 -1.6665 -1.01255 0
M  V30 5456 O 529.999 -0.964559 -1.70508 0
M  V30 5457 H 528.579 -0.73043 0.156463 0
M  V30 5458 H 531.241 -1.62918 1.06976 0
M  V30 5459 H 530.337 -3.07001 0.561877 0
M  V30 5460 N 530.638 -0.59345 -1.46 0
M  V30 5461 C 531.586 0.146268 -2.3214 0
M  V30 5462 C 532.58 0.873743 -1.45128 0
M  V30 5463 O 533.786 0.790912 -1.61693 0
M  V30 5464 H 530.161 0.0660349 -0.749095 0
M  V30 5465 H 532.132 -0.598895 -2.92328 0
M  V30 5466 C 530.881 1.1396 -3.28494 0
M  V30 5467 H 530.204 0.589252 -3.95434 0
M  V30 5468 H 531.644 1.62738 -3.91526 0
M  V30 5469 C 530.103 2.20604 -2.54628 0
M  V30 5470 O 530.633 3.28128 -2.31722 0
M  V30 5471 N 528.839 1.95502 -2.15005 0
M  V30 5472 H 528.386 1.0807 -2.33834 0
M  V30 5473 H 528.344 2.67064 -1.65904 0
M  V30 5474 N 532.116 1.54067 -0.331816 0
M  V30 5475 C 533.365 1.99895 0.269209 0
M  V30 5476 C 533.678 1.22371 1.52593 0
M  V30 5477 O 534.884 1.58618 2.20347 0
M  V30 5478 C 533.34 3.55972 0.530244 0
M  V30 5479 C 532.948 4.4234 -0.709901 0
M  V30 5480 C 534.692 4.10247 1.09077 0
M  V30 5481 C 532.599 5.89905 -0.420312 0
M  V30 5482 H 531.529 0.746741 0.104371 0
M  V30 5483 H 534.18 1.78014 -0.445324 0
M  V30 5484 H 532.562 3.73873 1.30518 0
M  V30 5485 H 533.736 4.36215 -1.48504 0
M  V30 5486 H 532.051 3.98997 -1.19123 0
M  V30 5487 H 534.648 5.18095 1.32219 0
M  V30 5488 H 534.991 3.62739 2.0427 0
M  V30 5489 H 535.524 3.96011 0.376824 0
M  V30 5490 H 532.263 6.41623 -1.34164 0
M  V30 5491 H 531.783 5.98962 0.316962 0
M  V30 5492 H 533.462 6.46991 -0.0331956 0
M  V30 5493 N 533.594 0.0601682 1.57485 0
M  V30 5494 C 534.842 -0.610386 1.92662 0
M  V30 5495 C 535.163 -1.70849 0.939981 0
M  V30 5496 O 534.433 -1.95895 -0.0137455 0
M  V30 5497 H 533.013 -0.228457 0.711208 0
M  V30 5498 H 535.675 0.115288 1.94559 0
M  V30 5499 H 534.771 -1.0432 2.94149 0
M  V30 5500 N 535.072 -1.5615 -0.213296 0
M  V30 5501 C 536.022 -1.89485 -1.26804 0
M  V30 5502 C 537.006 -0.758713 -1.41889 0
M  V30 5503 O 538.198 -1.02127 -1.44565 0
M  V30 5504 C 535.327 -2.22219 -2.61675 0
M  V30 5505 C 534.413 -3.42245 -2.50458 0
M  V30 5506 N 534.804 -4.60645 -2.089 0
M  V30 5507 C 533.102 -3.46023 -2.81397 0
M  V30 5508 C 533.803 -5.42805 -2.09135 0
M  V30 5509 N 532.779 -4.82732 -2.49941 0
M  V30 5510 H 536.581 -2.78537 -0.937771 0
M  V30 5511 H 534.095 -1.56826 -0.421824 0
M  V30 5512 H 536.092 -2.44278 -3.37837 0
M  V30 5513 H 534.752 -1.34484 -2.95541 0
M  V30 5514 H 535.763 -4.85651 -1.79899 0
M  V30 5515 H 532.44 -2.68654 -3.1958 0
M  V30 5516 H 533.83 -6.47601 -1.79059 0
M  V30 5517 N 536.55 0.480323 -1.50102 0
M  V30 5518 C 537.797 1.23307 -1.60629 0
M  V30 5519 C 538.125 1.92135 -0.302375 0
M  V30 5520 O 537.38 1.82321 0.711154 0
M  V30 5521 C 537.679 2.30708 -2.72963 0
M  V30 5522 C 537.345 1.79195 -4.13763 0
M  V30 5523 C 536.007 1.64867 -4.52076 0
M  V30 5524 C 538.359 1.40878 -5.018 0
M  V30 5525 C 535.687 1.10631 -5.76175 0
M  V30 5526 C 538.039 0.880872 -6.26437 0
M  V30 5527 C 536.703 0.724146 -6.6356 0
M  V30 5528 H 535.973 0.451211 -0.587784 0
M  V30 5529 H 538.62 0.53051 -1.84005 0
M  V30 5530 H 536.925 3.06834 -2.43639 0
M  V30 5531 H 538.622 2.88692 -2.78313 0
M  V30 5532 H 535.212 1.91313 -3.83533 0
M  V30 5533 H 539.396 1.50786 -4.7284 0
M  V30 5534 H 534.652 0.972263 -6.0362 0
M  V30 5535 H 538.826 0.575269 -6.9402 0
M  V30 5536 H 536.453 0.301722 -7.59601 0
M  V30 5537 N 538.028 1.39524 0.732853 0
M  V30 5538 C 539.305 1.27373 1.48444 0
M  V30 5539 C 539.685 -0.115725 2.10783 0
M  V30 5540 O 539.033 -1.12713 1.98766 0
M  V30 5541 C 539.243 2.39966 2.53412 0
M  V30 5542 C 540.591 2.79384 3.19733 0
M  V30 5543 O 541.615 2.39431 2.63725 0
M  V30 5544 O 540.474 3.48353 4.21085 0
M  V30 5545 H 537.568 0.499272 0.659285 0
M  V30 5546 H 540.114 1.51403 0.766496 0
M  V30 5547 H 538.886 3.32845 2.05742 0
M  V30 5548 H 538.509 2.17612 3.32762 0
M  V30 5549 N 539.506 -0.963266 1.24736 0
M  V30 5550 C 540.454 -2.07985 1.04139 0
M  V30 5551 C 541.448 -1.69381 -0.0250556 0
M  V30 5552 O 542.654 -1.79531 0.129863 0
M  V30 5553 H 539.029 -0.680627 0.319768 0
M  V30 5554 H 541 -2.22517 1.98818 0
M  V30 5555 C 539.749 -3.4123 0.667615 0
M  V30 5556 H 539.072 -3.71397 1.48 0
M  V30 5557 H 540.512 -4.20244 0.563136 0
M  V30 5558 C 538.971 -3.3104 -0.625647 0
M  V30 5559 O 539.501 -3.65334 -1.67016 0
M  V30 5560 N 537.707 -2.84168 -0.608033 0
M  V30 5561 H 537.254 -2.56458 0.242323 0
M  V30 5562 H 537.212 -2.77732 -1.47352 0
M  V30 5563 N 540.985 -1.06182 -1.16461 0
M  V30 5564 C 541.895 -0.682671 -2.24448 0
M  V30 5565 C 542.911 0.30078 -1.71381 0
M  V30 5566 O 544.087 0.150376 -2.00838 0
M  V30 5567 C 541.152 -0.0737202 -3.46622 0
M  V30 5568 C 540.213 -1.10889 -4.14731 0
M  V30 5569 C 539.446 -0.528908 -5.31073 0
M  V30 5570 O 539.669 0.65868 -5.66584 0
M  V30 5571 O 538.603 -1.26805 -5.88391 0
M  V30 5572 H 542.429 -1.58291 -2.59187 0
M  V30 5573 H 540.014 -0.834013 -1.23954 0
M  V30 5574 H 541.896 0.264192 -4.20571 0
M  V30 5575 H 540.571 0.800015 -3.13658 0
M  V30 5576 H 539.478 -1.49896 -3.42756 0
M  V30 5577 H 540.811 -1.95412 -4.51747 0
M  V30 5578 N 542.463 1.3308 -0.844243 0
M  V30 5579 C 543.712 1.96868 -0.438833 0
M  V30 5580 C 544.025 1.67599 1.00846 0
M  V30 5581 O 545.231 2.25043 1.51881 0
M  V30 5582 C 543.687 3.5234 -0.73377 0
M  V30 5583 C 543.295 3.90481 -2.1961 0
M  V30 5584 C 545.039 4.22653 -0.395574 0
M  V30 5585 C 542.946 5.38954 -2.43481 0
M  V30 5586 H 541.876 0.736749 -0.160364 0
M  V30 5587 H 544.527 1.51623 -1.03358 0
M  V30 5588 H 542.909 3.95941 -0.068589 0
M  V30 5589 H 544.083 3.57922 -2.90221 0
M  V30 5590 H 542.398 3.33165 -2.4978 0
M  V30 5591 H 544.995 5.31848 -0.551477 0
M  V30 5592 H 545.338 4.11004 0.661921 0
M  V30 5593 H 545.871 3.84601 -1.01621 0
M  V30 5594 H 542.61 5.55612 -3.47816 0
M  V30 5595 H 542.13 5.72954 -1.77437 0
M  V30 5596 H 543.809 6.05907 -2.26905 0
M  V30 5597 N 543.941 0.601185 1.45683 0
M  V30 5598 C 545.218 0.0261659 1.95582 0
M  V30 5599 C 545.598 -1.4399 1.5437 0
M  V30 5600 O 544.946 -2.13919 0.80318 0
M  V30 5601 C 545.156 0.217557 3.48321 0
M  V30 5602 C 546.504 0.0950076 4.24494 0
M  V30 5603 O 547.528 0.147345 3.55895 0
M  V30 5604 O 546.387 -0.025261 5.46494 0
M  V30 5605 H 543.481 -0.0393688 0.826062 0
M  V30 5606 H 546.027 0.670798 1.55879 0
M  V30 5607 H 544.799 1.23601 3.71266 0
M  V30 5608 H 544.422 -0.46264 3.94899 0
M  V30 5609 N 545.419 -1.53889 0.339982 0
M  V30 5610 C 546.352 -2.21187 -0.561405 0
M  V30 5611 C 547.33 -1.19463 -1.10306 0
M  V30 5612 O 548.514 -1.48268 -1.164 0
M  V30 5613 C 545.641 -2.8865 -1.77198 0
M  V30 5614 C 544.687 -4.04232 -1.3601 0
M  V30 5615 S 545.52 -5.34129 -0.382909 0
M  V30 5616 C 546.676 -6.05094 -1.60039 0
M  V30 5617 H 546.909 -2.97298 0.0102092 0
M  V30 5618 H 544.442 -1.53901 0.124056 0
M  V30 5619 H 546.4 -3.28138 -2.4665 0
M  V30 5620 H 545.061 -2.12311 -2.3148 0
M  V30 5621 H 544.254 -4.50358 -2.2626 0
M  V30 5622 H 543.856 -3.66503 -0.745098 0
M  V30 5623 H 546.148 -6.2827 -2.53541 0
M  V30 5624 H 547.091 -6.98182 -1.18099 0
M  V30 5625 H 547.499 -5.35207 -1.79483 0
M  V30 5626 N 546.897 -0.0685191 -1.57451 0
M  V30 5627 C 547.86 0.885173 -2.11417 0
M  V30 5628 C 548.86 1.22853 -1.03748 0
M  V30 5629 O 550.05 1.16235 -1.2975 0
M  V30 5630 C 547.182 2.18964 -2.61281 0
M  V30 5631 H 548.375 0.417034 -2.96986 0
M  V30 5632 H 545.928 0.18014 -1.55258 0
M  V30 5633 H 546.663 2.70321 -1.79156 0
M  V30 5634 H 546.448 1.9534 -3.39977 0
M  V30 5635 H 547.938 2.87242 -3.0312 0
M  V30 5636 N 548.375 1.56261 0.205012 0
M  V30 5637 C 549.623 1.79684 0.925096 0
M  V30 5638 C 549.944 0.63989 1.84202 0
M  V30 5639 O 549.214 -0.342345 1.92885 0
M  V30 5640 H 547.794 0.662774 0.344587 0
M  V30 5641 H 550.456 1.93734 0.212899 0
M  V30 5642 H 549.552 2.72467 1.52211 0
M  V30 5643 N 549.853 -0.472356 1.50355 0
M  V30 5644 C 550.783 -1.57859 1.72055 0
M  V30 5645 C 551.764 -1.60283 0.569505 0
M  V30 5646 O 552.949 -1.7657 0.808503 0
M  V30 5647 C 550.079 -2.96191 1.81351 0
M  V30 5648 C 549.033 -3.08633 2.96529 0
M  V30 5649 C 548.359 -4.486 2.90968 0
M  V30 5650 C 549.659 -2.85969 4.37057 0
M  V30 5651 H 551.353 -1.39953 2.64676 0
M  V30 5652 H 548.899 -0.671846 1.27367 0
M  V30 5653 H 550.852 -3.73507 1.95117 0
M  V30 5654 H 549.576 -3.15251 0.853502 0
M  V30 5655 H 548.235 -2.33749 2.82413 0
M  V30 5656 H 547.883 -4.64577 1.92815 0
M  V30 5657 H 547.583 -4.57861 3.68289 0
M  V30 5658 H 549.107 -5.27938 3.0678 0
M  V30 5659 H 550.521 -3.53036 4.51706 0
M  V30 5660 H 548.918 -3.06677 5.15819 0
M  V30 5661 H 549.988 -1.81838 4.49514 0
M  V30 5662 N 551.331 -1.39911 -0.725443 0
M  V30 5663 C 552.241 -1.41688 -1.8698 0
M  V30 5664 C 553.257 -0.310579 -1.71206 0
M  V30 5665 O 554.433 -0.55359 -1.93642 0
M  V30 5666 C 551.498 -1.26811 -3.22676 0
M  V30 5667 C 550.559 -2.47497 -3.50776 0
M  V30 5668 C 549.792 -2.3332 -4.79997 0
M  V30 5669 O 550.015 -1.34175 -5.54394 0
M  V30 5670 O 548.949 -3.22498 -5.08211 0
M  V30 5671 H 552.775 -2.38171 -1.88436 0
M  V30 5672 H 550.36 -1.21128 -0.874548 0
M  V30 5673 H 552.242 -1.20684 -4.03749 0
M  V30 5674 H 550.917 -0.334289 -3.21969 0
M  V30 5675 H 549.824 -2.59201 -2.69751 0
M  V30 5676 H 551.157 -3.39606 -3.5627 0
M  V30 5677 N 552.809 0.956637 -1.25245 0
M  V30 5678 C 554.225 1.22733 -1.02023 0
M  V30 5679 C 554.425 1.99761 0.264186 0
M  V30 5680 O 553.481 2.32814 0.977436 0
M  V30 5681 C 554.794 2.00367 -2.24217 0
M  V30 5682 C 556.342 2.13418 -2.28958 0
M  V30 5683 C 556.817 2.9445 -3.50803 0
M  V30 5684 N 558.308 3.02029 -3.51187 0
M  V30 5685 C 559.043 3.65116 -4.42129 0
M  V30 5686 N 558.539 4.2983 -5.43339 0
M  V30 5687 N 560.332 3.62237 -4.29815 0
M  V30 5688 H 552.483 0.441282 -2.07765 0
M  V30 5689 H 554.746 0.257686 -0.912306 0
M  V30 5690 H 554.452 1.51165 -3.17556 0
M  V30 5691 H 554.326 3.01077 -2.27228 0
M  V30 5692 H 556.713 2.61819 -1.36143 0
M  V30 5693 H 556.794 1.1202 -2.29968 0
M  V30 5694 H 556.438 2.46741 -4.43939 0
M  V30 5695 H 556.368 3.9607 -3.47039 0
M  V30 5696 H 558.859 2.56007 -2.77973 0
M  V30 5697 H 559.172 4.75819 -6.08947 0
M  V30 5698 H 557.517 4.28465 -5.47214 0
M  V30 5699 H 560.708 3.10863 -3.49974 0
M  V30 5700 H 560.881 4.11117 -5.00886 0
M  V30 5701 N 554.287 1.06798 1.15896 0
M  V30 5702 C 555.512 0.808739 1.90982 0
M  V30 5703 C 555.937 -0.6316 1.77179 0
M  V30 5704 O 555.295 -1.4407 1.10061 0
M  V30 5705 C 555.343 1.21468 3.39526 0
M  V30 5706 O 554.447 0.356562 4.10856 0
M  V30 5707 H 553.788 0.29512 0.594811 0
M  V30 5708 H 556.318 1.42513 1.46804 0
M  V30 5709 H 556.328 1.18844 3.90308 0
M  V30 5710 H 555.003 2.26379 3.48891 0
M  V30 5711 H 553.58 0.444808 3.70238 0
M  V30 5712 N 555.766 -1.3263 0.851289 0
M  V30 5713 C 557.014 -1.96978 0.452128 0
M  V30 5714 C 557.335 -1.67715 -0.99482 0
M  V30 5715 O 556.605 -0.98259 -1.69476 0
M  V30 5716 H 555.185 -0.72873 0.164202 0
M  V30 5717 H 557.847 -1.61774 1.08698 0
M  V30 5718 H 556.943 -3.06387 0.594407 0
M  V30 5719 N 557.244 -0.608902 -1.45362 0
M  V30 5720 C 558.207 0.0992563 -2.28985 0
M  V30 5721 C 559.207 0.793841 -1.39838 0
M  V30 5722 O 560.397 0.641804 -1.61946 0
M  V30 5723 C 557.529 1.15073 -3.20891 0
M  V30 5724 H 558.722 -0.635964 -2.93079 0
M  V30 5725 H 556.275 -0.368007 -1.51906 0
M  V30 5726 H 557.01 1.91667 -2.616 0
M  V30 5727 H 556.795 0.656867 -3.86559 0
M  V30 5728 H 558.285 1.64665 -3.83765 0
M  V30 5729 N 558.722 1.53707 -0.348139 0
M  V30 5730 C 559.95 2.05406 0.248224 0
M  V30 5731 C 560.365 1.22282 1.43849 0
M  V30 5732 O 559.722 0.259244 1.80649 0
M  V30 5733 C 559.773 3.55446 0.658793 0
M  V30 5734 O 559.494 4.35417 -0.484149 0
M  V30 5735 C 560.995 4.23335 1.31539 0
M  V30 5736 H 558.215 0.669344 0.0471075 0
M  V30 5737 H 560.759 1.98257 -0.501456 0
M  V30 5738 H 558.914 3.62803 1.35841 0
M  V30 5739 H 559.328 5.24268 -0.155949 0
M  V30 5740 H 560.802 5.29692 1.55338 0
M  V30 5741 H 561.279 3.75967 2.27036 0
M  V30 5742 H 561.885 4.20184 0.657683 0
M  V30 5743 N 560.2 0.0768682 1.57412 0
M  V30 5744 C 561.616 -0.279772 1.57129 0
M  V30 5745 C 561.816 -1.69688 1.08666 0
M  V30 5746 O 560.872 -2.40953 0.754843 0
M  V30 5747 C 562.185 -0.0848055 3.0058 0
M  V30 5748 C 563.733 -0.153954 3.12621 0
M  V30 5749 C 564.208 0.0127946 4.57998 0
M  V30 5750 N 565.699 -0.0426435 4.6318 0
M  V30 5751 C 566.434 0.0618892 5.73367 0
M  V30 5752 N 565.93 0.220229 6.9245 0
M  V30 5753 N 567.723 0.00446072 5.621 0
M  V30 5754 H 559.874 1.00297 1.87228 0
M  V30 5755 H 562.137 0.391565 0.863354 0
M  V30 5756 H 561.843 0.89325 3.40168 0
M  V30 5757 H 561.717 -0.834961 3.67843 0
M  V30 5758 H 564.104 -1.1225 2.72917 0
M  V30 5759 H 564.185 0.627389 2.47987 0
M  V30 5760 H 563.829 0.978128 4.98392 0
M  V30 5761 H 563.759 -0.788016 5.20671 0
M  V30 5762 H 566.25 -0.163226 3.77547 0
M  V30 5763 H 566.563 0.291999 7.72248 0
M  V30 5764 H 564.908 0.255658 6.9453 0
M  V30 5765 H 568.099 -0.117979 4.67951 0
M  V30 5766 H 568.272 0.0893796 6.47938 0
M  V30 5767 N 561.678 -1.56367 -0.196722 0
M  V30 5768 C 562.924 -1.80796 -0.918725 0
M  V30 5769 C 563.257 -0.650645 -1.82976 0
M  V30 5770 O 562.532 0.348889 -1.91345 0
M  V30 5771 C 562.815 -3.15472 -1.73636 0
M  V30 5772 C 562.668 -4.41693 -0.85015 0
M  V30 5773 C 563.987 -3.46824 -2.70927 0
M  V30 5774 H 561.106 -0.657702 -0.332561 0
M  V30 5775 H 563.748 -1.89086 -0.186186 0
M  V30 5776 H 561.898 -3.08536 -2.36088 0
M  V30 5777 H 563.57 -4.60673 -0.240459 0
M  V30 5778 H 561.813 -4.33517 -0.156785 0
M  V30 5779 H 562.484 -5.32419 -1.45719 0
M  V30 5780 H 564.96 -3.54049 -2.18607 0
M  V30 5781 H 563.836 -4.4218 -3.25219 0
M  V30 5782 H 564.097 -2.70236 -3.49893 0
M  V30 5783 N 563.156 0.464375 -1.50603 0
M  V30 5784 C 564.104 1.58224 -1.70493 0
M  V30 5785 C 565.098 1.59492 -0.570836 0
M  V30 5786 O 566.304 1.63561 -0.751517 0
M  V30 5787 H 562.679 0.525161 -0.538247 0
M  V30 5788 H 564.65 1.38613 -2.64252 0
M  V30 5789 C 563.399 2.96113 -1.82243 0
M  V30 5790 H 562.722 2.95858 -2.68901 0
M  V30 5791 H 564.162 3.73769 -2.00182 0
M  V30 5792 C 562.621 3.31946 -0.575628 0
M  V30 5793 O 563.151 4.00708 0.282152 0
M  V30 5794 N 561.357 2.87436 -0.427665 0
M  V30 5795 H 560.904 2.31652 -1.12674 0
M  V30 5796 H 560.862 3.11776 0.405379 0
M  V30 5797 N 564.634 1.40294 0.718013 0
M  V30 5798 C 565.88 1.38645 1.48005 0
M  V30 5799 C 566.213 -0.0121202 1.94196 0
M  V30 5800 O 565.488 -0.980309 1.67989 0
M  V30 5801 C 565.771 2.37379 2.70782 0
M  V30 5802 C 565.624 3.8625 2.30501 0
M  V30 5803 C 566.943 2.33685 3.72933 0
M  V30 5804 H 564.062 0.504928 0.536858 0
M  V30 5805 H 566.704 1.71411 0.819649 0
M  V30 5806 H 564.854 2.09568 3.27129 0
M  V30 5807 H 566.526 4.24879 1.79655 0
M  V30 5808 H 564.769 4.02202 1.6253 0
M  V30 5809 H 565.44 4.50847 3.18498 0
M  V30 5810 H 567.916 2.58314 3.2621 0
M  V30 5811 H 566.792 3.0482 4.56482 0
M  V30 5812 H 567.053 1.34765 4.21059 0
M  V30 5813 N 566.112 -0.949982 1.2575 0
M  V30 5814 C 567.059 -2.04738 1.06541 0
M  V30 5815 C 568.029 -1.66078 -0.0268818 0
M  V30 5816 O 569.214 -1.90348 0.131196 0
M  V30 5817 C 566.354 -3.38027 0.695127 0
M  V30 5818 C 565.467 -3.89776 1.86276 0
M  V30 5819 C 564.602 -5.11411 1.4364 0
M  V30 5820 C 563.641 -5.554 2.57287 0
M  V30 5821 N 562.778 -6.68244 2.15395 0
M  V30 5822 H 567.618 -2.20502 2.00457 0
M  V30 5823 H 565.155 -1.0805 0.998178 0
M  V30 5824 H 567.113 -4.14641 0.461375 0
M  V30 5825 H 565.743 -3.22135 -0.207046 0
M  V30 5826 H 564.795 -3.0964 2.20969 0
M  V30 5827 H 566.107 -4.18368 2.71606 0
M  V30 5828 H 565.261 -5.95457 1.16257 0
M  V30 5829 H 564 -4.84545 0.553879 0
M  V30 5830 H 563.005 -4.69916 2.85409 0
M  V30 5831 H 564.23 -5.84272 3.46125 0
M  V30 5832 H 562.176 -6.43078 1.29565 0
M  V30 5833 H 562.093 -6.96377 2.94272 0
M  V30 5834 H 563.361 -7.55687 1.91201 0
M  V30 5835 N 567.59 -1.07411 -1.15328 0
M  V30 5836 C 569.001 -0.820261 -1.67716 0
M  V30 5837 C 569.352 0.654539 -1.8496 0
M  V30 5838 O 568.477 1.50664 -1.55337 0
M  V30 5839 C 569.072 -1.48242 -3.04647 0
M  V30 5840 C 567.631 -1.27606 -3.5411 0
M  V30 5841 C 566.778 -1.5517 -2.29821 0
M  V30 5842 H 569.729 -1.23608 -0.995332 0
M  V30 5843 H 569.75 -0.903984 -3.69606 0
M  V30 5844 H 569.262 -2.55578 -2.92064 0
M  V30 5845 H 567.363 -0.222948 -3.71932 0
M  V30 5846 H 567.476 -1.99667 -4.35511 0
M  V30 5847 H 565.84 -0.972747 -2.35393 0
M  V30 5848 H 566.623 -2.63689 -2.19824 0
M  V30 5849 N 569.068 1.32177 -0.85831 0
M  V30 5850 C 570 2.27688 -0.262835 0
M  V30 5851 C 571.013 1.52588 0.567513 0
M  V30 5852 O 572.202 1.74156 0.391407 0
M  V30 5853 C 569.302 3.32668 0.646937 0
M  V30 5854 C 568.475 4.37148 -0.148372 0
M  V30 5855 C 567.534 5.21686 0.687728 0
M  V30 5856 O 566.56 5.69074 0.119934 0
M  V30 5857 N 567.762 5.44892 2.00182 0
M  V30 5858 H 570.527 2.79426 -1.08356 0
M  V30 5859 H 568.088 1.45076 -0.718647 0
M  V30 5860 H 570.08 3.86134 1.2117 0
M  V30 5861 H 568.65 2.81061 1.36834 0
M  V30 5862 H 567.87 3.83915 -0.894572 0
M  V30 5863 H 569.158 5.04038 -0.694514 0
M  V30 5864 H 568.556 5.08128 2.4864 0
M  V30 5865 H 567.113 6.0134 2.51463 0
M  V30 5866 N 570.547 0.616602 1.45037 0
M  V30 5867 C 571.793 0.115501 2.02471 0
M  V30 5868 C 572.126 -1.25406 1.4828 0
M  V30 5869 O 571.401 -1.82922 0.661051 0
M  V30 5870 C 571.684 0.0863588 3.59996 0
M  V30 5871 C 571.537 1.48723 4.24501 0
M  V30 5872 C 572.856 -0.596762 4.36035 0
M  V30 5873 H 569.975 0.0434461 0.735718 0
M  V30 5874 H 572.617 0.7903 1.72784 0
M  V30 5875 H 570.767 -0.488277 3.85419 0
M  V30 5876 H 572.439 2.10964 4.10234 0
M  V30 5877 H 570.682 2.04534 3.82555 0
M  V30 5878 H 571.353 1.419 5.3345 0
M  V30 5879 H 573.829 -0.10824 4.15959 0
M  V30 5880 H 572.705 -0.586289 5.4576 0
M  V30 5881 H 572.966 -1.66451 4.09569 0
M  V30 5882 N 572.025 -1.5352 0.356285 0
M  V30 5883 C 573.302 -1.93405 -0.292223 0
M  V30 5884 C 573.682 -1.28901 -1.67176 0
M  V30 5885 O 573.03 -0.444632 -2.24132 0
M  V30 5886 C 573.24 -3.47223 -0.35175 0
M  V30 5887 C 574.588 -4.20389 -0.596534 0
M  V30 5888 O 575.612 -3.53554 -0.433344 0
M  V30 5889 O 574.471 -5.3881 -0.913589 0
M  V30 5890 H 571.565 -0.808666 -0.173172 0
M  V30 5891 H 574.111 -1.64713 0.408391 0
M  V30 5892 H 572.883 -3.86423 0.615841 0
M  V30 5893 H 572.506 -3.8212 -1.09864 0
M  V30 5894 N 573.503 -0.0852151 -1.57369 0
M  V30 5895 C 574.433 0.874556 -2.16503 0
M  V30 5896 C 575.414 1.30111 -1.09568 0
M  V30 5897 O 576.599 1.36977 -1.37662 0
M  V30 5898 C 573.729 2.13731 -2.73745 0
M  V30 5899 C 572.683 1.84971 -3.85966 0
M  V30 5900 C 572.009 3.17991 -4.29867 0
M  V30 5901 C 573.309 1.14442 -5.09608 0
M  V30 5902 H 575.003 0.381899 -2.96954 0
M  V30 5903 H 572.549 0.18225 -1.42842 0
M  V30 5904 H 574.502 2.81302 -3.13763 0
M  V30 5905 H 573.226 2.65263 -1.90534 0
M  V30 5906 H 571.885 1.19801 -3.46473 0
M  V30 5907 H 571.533 3.6739 -3.4356 0
M  V30 5908 H 571.233 2.99534 -5.05523 0
M  V30 5909 H 572.757 3.86737 -4.72511 0
M  V30 5910 H 574.171 1.72105 -5.46857 0
M  V30 5911 H 572.568 1.06197 -5.90629 0
M  V30 5912 H 573.638 0.12559 -4.84737 0
M  V30 5913 N 574.981 1.5647 0.188427 0
M  V30 5914 C 576.227 1.82181 0.904534 0
M  V30 5915 C 576.582 0.663258 1.80606 0
M  V30 5916 O 575.875 -0.341231 1.88537 0
M  V30 5917 C 576.069 3.11596 1.7505 0
M  V30 5918 C 575.898 4.39928 0.932372 0
M  V30 5919 C 574.668 5.01554 0.61417 0
M  V30 5920 C 576.866 5.13527 0.281936 0
M  V30 5921 N 574.848 6.13499 -0.221896 0
M  V30 5922 C 576.219 6.18603 -0.416037 0
M  V30 5923 C 578.274 4.97505 0.198345 0
M  V30 5924 C 576.977 7.09394 -1.18965 0
M  V30 5925 C 579.003 5.88725 -0.561887 0
M  V30 5926 C 578.365 6.93251 -1.24828 0
M  V30 5927 H 574.464 0.717858 0.310168 0
M  V30 5928 H 577.048 1.93932 0.172757 0
M  V30 5929 H 575.219 3.01068 2.45383 0
M  V30 5930 H 576.951 3.25369 2.4066 0
M  V30 5931 H 573.706 4.64174 0.940187 0
M  V30 5932 H 574.13 6.74065 -0.629735 0
M  V30 5933 H 578.772 4.16716 0.714665 0
M  V30 5934 H 576.49 7.8964 -1.71737 0
M  V30 5935 H 580.076 5.78401 -0.628009 0
M  V30 5936 H 578.956 7.62618 -1.82712 0
M  V30 5937 N 576.459 -0.456382 1.50847 0
M  V30 5938 C 577.687 -1.23026 1.66349 0
M  V30 5939 C 578.102 -1.85473 0.352868 0
M  V30 5940 O 577.459 -1.69885 -0.666739 0
M  V30 5941 C 577.51 -2.32827 2.76539 0
M  V30 5942 O 577.231 -1.72938 4.02522 0
M  V30 5943 C 578.732 -3.23448 3.03144 0
M  V30 5944 H 575.952 -0.371527 0.558756 0
M  V30 5945 H 578.496 -0.543082 1.97157 0
M  V30 5946 H 576.651 -2.97294 2.48384 0
M  V30 5947 H 577.065 -2.45357 4.63573 0
M  V30 5948 H 578.539 -3.96669 3.83872 0
M  V30 5949 H 579.016 -3.83094 2.14793 0
M  V30 5950 H 579.622 -2.64702 3.32886 0
M  V30 5951 N 577.937 -1.40673 -0.710563 0
M  V30 5952 C 579.184 -1.39222 -1.47049 0
M  V30 5953 C 579.512 0.0037691 -1.945 0
M  V30 5954 O 578.767 0.989224 -1.68857 0
M  V30 5955 C 579.066 -2.33253 -2.70791 0
M  V30 5956 C 578.732 -3.80406 -2.42079 0
M  V30 5957 C 577.394 -4.20496 -2.33959 0
M  V30 5958 C 579.746 -4.73375 -2.18094 0
M  V30 5959 C 577.074 -5.51584 -1.99929 0
M  V30 5960 C 579.426 -6.04768 -1.85576 0
M  V30 5961 C 578.09 -6.43895 -1.75941 0
M  V30 5962 H 577.36 -0.509449 -0.538092 0
M  V30 5963 H 580.007 -1.73363 -0.81348 0
M  V30 5964 H 578.312 -1.92314 -3.41354 0
M  V30 5965 H 580.009 -2.29412 -3.28894 0
M  V30 5966 H 576.599 -3.48645 -2.49288 0
M  V30 5967 H 580.783 -4.43217 -2.23321 0
M  V30 5968 H 576.039 -5.80797 -1.91011 0
M  V30 5969 H 580.213 -6.76318 -1.66033 0
M  V30 5970 H 577.84 -7.45387 -1.4934 0
M  V30 5971 N 579.415 0.9433 -1.26252 0
M  V30 5972 C 580.663 1.68592 -1.11451 0
M  V30 5973 C 580.984 1.91957 0.343123 0
M  V30 5974 O 580.254 1.51475 1.24226 0
M  V30 5975 H 578.834 0.624789 -0.409448 0
M  V30 5976 H 581.496 1.13351 -1.58548 0
M  V30 5977 H 580.592 2.66054 -1.63162 0
M  V30 5978 N 580.893 1.08022 1.14757 0
M  V30 5979 C 582.17 0.720386 1.81851 0
M  V30 5980 C 582.55 -0.796375 1.95502 0
M  V30 5981 O 581.898 -1.71339 1.51179 0
M  V30 5982 C 582.108 1.44273 3.17783 0
M  V30 5983 C 583.456 1.59925 3.93331 0
M  V30 5984 O 584.48 1.40407 3.2736 0
M  V30 5985 O 583.339 1.92096 5.11626 0
M  V30 5986 H 580.433 0.257142 0.786007 0
M  V30 5987 H 582.979 1.18155 1.21809 0
M  V30 5988 H 581.751 2.47618 3.02987 0
M  V30 5989 H 581.374 0.97279 3.85516 0
M  V30 5990 N 582.371 -1.3172 0.865308 0
M  V30 5991 C 583.599 -2.01057 0.488251 0
M  V30 5992 C 584.014 -1.64979 -0.918 0
M  V30 5993 O 583.371 -0.876597 -1.60069 0
M  V30 5994 C 583.422 -3.55964 0.630224 0
M  V30 5995 O 583.143 -3.90749 1.98109 0
M  V30 5996 C 584.644 -4.42574 0.253567 0
M  V30 5997 H 581.864 -0.64332 0.190736 0
M  V30 5998 H 584.408 -1.68058 1.16519 0
M  V30 5999 H 582.563 -3.874 0.000895422 0
M  V30 6000 H 582.977 -4.85467 1.9855 0
M  V30 6001 H 584.451 -5.50521 0.403875 0
M  V30 6002 H 584.928 -4.31724 -0.806895 0
M  V30 6003 H 585.534 -4.16547 0.858404 0
M  V30 6004 N 583.85 -0.624285 -1.44708 0
M  V30 6005 C 585.098 -0.125802 -2.01708 0
M  V30 6006 C 585.418 1.2543 -1.49306 0
M  V30 6007 O 584.689 1.83198 -0.693924 0
M  V30 6008 H 583.269 -0.0435161 -0.745731 0
M  V30 6009 H 585.931 -0.809446 -1.77296 0
M  V30 6010 H 585.027 -0.0882734 -3.11975 0
M  V30 6011 N 585.328 1.53329 -0.364422 0
M  V30 6012 C 586.744 1.59594 -0.0133165 0
M  V30 6013 C 586.944 1.37959 1.46865 0
M  V30 6014 O 586 1.18418 2.2301 0
M  V30 6015 C 587.313 2.97032 -0.468213 0
M  V30 6016 C 588.861 3.10138 -0.422334 0
M  V30 6017 C 589.336 4.49986 -0.853024 0
M  V30 6018 N 590.827 4.56098 -0.808037 0
M  V30 6019 C 591.562 5.62495 -1.11299 0
M  V30 6020 N 591.058 6.7665 -1.48717 0
M  V30 6021 N 592.851 5.52473 -1.03586 0
M  V30 6022 H 585.002 1.65644 -1.32951 0
M  V30 6023 H 587.265 0.77684 -0.543345 0
M  V30 6024 H 586.971 3.18 -1.5023 0
M  V30 6025 H 586.845 3.76918 0.145775 0
M  V30 6026 H 589.232 2.88881 0.602622 0
M  V30 6027 H 589.313 2.32263 -1.0718 0
M  V30 6028 H 588.957 4.7198 -1.87609 0
M  V30 6029 H 588.887 5.26289 -0.180819 0
M  V30 6030 H 591.378 3.74131 -0.532361 0
M  V30 6031 H 591.691 7.53776 -1.70415 0
M  V30 6032 H 590.036 6.78044 -1.52581 0
M  V30 6033 H 593.227 4.6217 -0.742736 0
M  V30 6034 H 593.4 6.35295 -1.27686 0
M  V30 6035 N 586.806 0.0935595 1.57322 0
M  V30 6036 C 588.031 -0.582324 1.99057 0
M  V30 6037 C 588.456 -1.61025 0.972242 0
M  V30 6038 O 587.814 -1.81202 -0.0594622 0
M  V30 6039 C 587.862 -1.20799 3.39765 0
M  V30 6040 O 586.966 -2.32382 3.40694 0
M  V30 6041 H 586.307 -0.147884 0.647323 0
M  V30 6042 H 588.837 0.174516 2.03854 0
M  V30 6043 H 588.847 -1.54966 3.77425 0
M  V30 6044 H 587.522 -0.454914 4.13405 0
M  V30 6045 H 586.099 -1.99845 3.14827 0
M  V30 6046 N 588.284 -1.56567 -0.180126 0
M  V30 6047 C 589.533 -1.80685 -0.896426 0
M  V30 6048 C 589.846 -0.669335 -1.83791 0
M  V30 6049 O 591.052 -0.795209 -2.59593 0
M  V30 6050 C 589.508 -3.20132 -1.6445 0
M  V30 6051 C 589.116 -4.41727 -0.747088 0
M  V30 6052 C 590.86 -3.53549 -2.34955 0
M  V30 6053 C 588.767 -5.72195 -1.49489 0
M  V30 6054 H 587.697 -0.673758 -0.338477 0
M  V30 6055 H 590.348 -1.8289 -0.149467 0
M  V30 6056 H 588.73 -3.12218 -2.43589 0
M  V30 6057 H 589.904 -4.608 0.00671129 0
M  V30 6058 H 588.219 -4.16122 -0.152134 0
M  V30 6059 H 590.816 -4.48267 -2.91481 0
M  V30 6060 H 591.159 -2.78006 -3.09868 0
M  V30 6061 H 591.692 -3.62976 -1.62768 0
M  V30 6062 H 588.431 -6.50743 -0.788251 0
M  V30 6063 H 587.951 -5.57115 -2.22224 0
M  V30 6064 H 589.63 -6.1384 -2.04472 0
M  V30 6065 N 589.762 0.448376 -1.51087 0
M  V30 6066 C 591.011 1.19561 -1.62444 0
M  V30 6067 C 591.324 1.92602 -0.341151 0
M  V30 6068 O 592.53 2.69439 -0.333936 0
M  V30 6069 C 590.986 2.17373 -2.8684 0
M  V30 6070 C 590.594 1.5003 -4.22131 0
M  V30 6071 C 592.338 2.92597 -3.0755 0
M  V30 6072 C 590.245 2.46262 -5.37689 0
M  V30 6073 H 589.175 0.449975 -0.605011 0
M  V30 6074 H 591.826 0.463735 -1.77544 0
M  V30 6075 H 590.208 2.93948 -2.65349 0
M  V30 6076 H 591.382 0.790886 -4.53962 0
M  V30 6077 H 589.697 0.870011 -4.0721 0
M  V30 6078 H 592.294 3.64663 -3.91056 0
M  V30 6079 H 592.637 3.53306 -2.20183 0
M  V30 6080 H 593.17 2.23131 -3.29329 0
M  V30 6081 H 589.909 1.90258 -6.27281 0
M  V30 6082 H 589.429 3.15289 -5.10248 0
M  V30 6083 H 591.108 3.07623 -5.6919 0
M  V30 6084 N 591.24 1.41047 0.703093 0
M  V30 6085 C 592.486 1.40207 1.46526 0
M  V30 6086 C 592.819 0.00847763 1.94198 0
M  V30 6087 O 592.094 -0.962437 1.69019 0
M  V30 6088 C 592.377 2.40238 2.6825 0
M  V30 6089 C 592.23 3.88674 2.26391 0
M  V30 6090 C 593.549 2.37627 3.70434 0
M  V30 6091 H 590.668 0.510594 0.531472 0
M  V30 6092 H 593.31 1.72271 0.801422 0
M  V30 6093 H 591.46 2.13026 3.24888 0
M  V30 6094 H 593.132 4.2676 1.75138 0
M  V30 6095 H 591.375 4.03903 1.58255 0
M  V30 6096 H 592.046 4.542 3.13698 0
M  V30 6097 H 594.522 2.61759 3.23452 0
M  V30 6098 H 593.398 3.09645 4.53223 0
M  V30 6099 H 593.659 1.39223 4.19606 0
M  V30 6100 N 592.718 -0.936591 1.26751 0
M  V30 6101 C 593.648 -2.05315 1.11212 0
M  V30 6102 C 594.629 -1.70092 0.0160262 0
M  V30 6103 O 595.814 -1.93279 0.188894 0
M  V30 6104 C 592.944 -3.39123 0.749171 0
M  V30 6105 C 591.898 -3.88425 1.79751 0
M  V30 6106 C 591.224 -5.18936 1.28876 0
M  V30 6107 C 592.524 -4.12798 3.19992 0
M  V30 6108 H 594.218 -2.18573 2.04613 0
M  V30 6109 H 591.764 -1.05027 0.985159 0
M  V30 6110 H 593.717 -4.16704 0.627323 0
M  V30 6111 H 592.441 -3.25855 -0.220543 0
M  V30 6112 H 591.1 -3.13028 1.90811 0
M  V30 6113 H 590.748 -5.02051 0.308757 0
M  V30 6114 H 590.448 -5.52892 1.98958 0
M  V30 6115 H 591.972 -5.99096 1.17967 0
M  V30 6116 H 593.386 -4.80977 3.11983 0
M  V30 6117 H 591.783 -4.58044 3.87705 0
M  V30 6118 H 592.853 -3.18412 3.65707 0
M  V30 6119 N 594.196 -1.08629 -1.14182 0
M  V30 6120 C 595.421 -0.83902 -1.89671 0
M  V30 6121 C 595.846 0.603332 -1.78161 0
M  V30 6122 O 595.204 1.42301 -1.12339 0
M  V30 6123 C 595.252 -1.26854 -3.37551 0
M  V30 6124 O 594.356 -0.42188 -4.10236 0
M  V30 6125 H 593.697 -0.304545 -0.590041 0
M  V30 6126 H 596.227 -1.4483 -1.44518 0
M  V30 6127 H 596.237 -1.25038 -3.88368 0
M  V30 6128 H 594.912 -2.31901 -3.45246 0
M  V30 6129 H 593.489 -0.503654 -3.69483 0
M  V30 6130 N 595.674 1.31259 -0.872281 0
M  V30 6131 C 596.584 2.32221 -0.333255 0
M  V30 6132 C 597.6 1.6481 0.558013 0
M  V30 6133 O 598.776 1.96212 0.454175 0
M  V30 6134 C 595.841 3.43708 0.454479 0
M  V30 6135 C 594.902 4.26774 -0.465024 0
M  V30 6136 C 594.135 5.32937 0.28521 0
M  V30 6137 O 594.358 5.49968 1.513 0
M  V30 6138 O 593.292 6.00834 -0.358126 0
M  V30 6139 H 597.118 2.80252 -1.17016 0
M  V30 6140 H 594.703 1.352 -0.635724 0
M  V30 6141 H 596.585 4.11656 0.900963 0
M  V30 6142 H 595.26 2.97836 1.26789 0
M  V30 6143 H 594.167 3.61571 -0.960055 0
M  V30 6144 H 595.5 4.76217 -1.2441 0
M  V30 6145 N 597.152 0.631951 1.44375 0
M  V30 6146 C 598.4 0.136497 2.01639 0
M  V30 6147 C 598.721 -1.24637 1.49969 0
M  V30 6148 O 597.991 -1.82827 0.70363 0
M  V30 6149 H 596.571 0.0474703 0.74549 0
M  V30 6150 H 599.233 0.818837 1.76865 0
M  V30 6151 H 598.329 0.104817 3.11924 0
M  V30 6152 N 598.631 -1.53133 0.372548 0
M  V30 6153 C 600.047 -1.59585 0.02178 0
M  V30 6154 C 600.247 -1.38736 -1.46132 0
M  V30 6155 O 599.303 -1.19599 -2.22379 0
M  V30 6156 C 600.616 -2.9678 0.483959 0
M  V30 6157 C 602.164 -3.09909 0.438775 0
M  V30 6158 C 602.639 -4.49527 0.876876 0
M  V30 6159 N 604.13 -4.55663 0.832214 0
M  V30 6160 C 604.865 -5.61896 1.14281 0
M  V30 6161 N 604.361 -6.75852 1.52303 0
M  V30 6162 N 606.154 -5.51916 1.06515 0
M  V30 6163 H 598.305 -1.64936 1.33827 0
M  V30 6164 H 600.568 -0.773947 0.547458 0
M  V30 6165 H 600.274 -3.17198 1.51915 0
M  V30 6166 H 600.148 -3.7699 -0.125784 0
M  V30 6167 H 602.535 -2.89197 -0.587294 0
M  V30 6168 H 602.616 -2.31691 1.0841 0
M  V30 6169 H 602.26 -4.70979 1.90109 0
M  V30 6170 H 602.19 -5.26186 0.208727 0
M  V30 6171 H 604.681 -3.73844 0.552195 0
M  V30 6172 H 604.994 -7.52862 1.7441 0
M  V30 6173 H 603.339 -6.77226 1.56175 0
M  V30 6174 H 606.53 -4.6177 0.767235 0
M  V30 6175 H 606.703 -6.34609 1.31053 0
M  V30 6176 N 600.109 -0.101901 -1.5727 0
M  V30 6177 C 601.039 0.851544 -2.17419 0
M  V30 6178 C 602.02 1.28942 -1.10941 0
M  V30 6179 O 603.205 1.35509 -1.39107 0
M  V30 6180 C 600.335 2.10816 -2.75996 0
M  V30 6181 C 599.289 1.80867 -3.87906 0
M  V30 6182 C 598.615 3.13413 -4.33216 0
M  V30 6183 C 599.915 1.0903 -5.10793 0
M  V30 6184 H 601.609 0.350381 -2.97343 0
M  V30 6185 H 599.155 0.16709 -1.43027 0
M  V30 6186 H 601.108 2.77959 -3.16729 0
M  V30 6187 H 599.832 2.63227 -1.93337 0
M  V30 6188 H 598.491 1.16119 -3.47724 0
M  V30 6189 H 598.139 3.63725 -3.47438 0
M  V30 6190 H 597.839 2.94155 -5.08671 0
M  V30 6191 H 599.363 3.81704 -4.76586 0
M  V30 6192 H 600.777 1.66295 -5.48652 0
M  V30 6193 H 599.174 0.99927 -5.91722 0
M  V30 6194 H 600.244 0.0741704 -4.84843 0
M  V30 6195 N 601.587 1.56661 0.17182 0
M  V30 6196 C 602.517 1.99401 1.21498 0
M  V30 6197 C 603.498 0.869516 1.46197 0
M  V30 6198 O 604.683 1.13556 1.57539 0
M  V30 6199 C 601.813 2.35346 2.55401 0
M  V30 6200 C 600.767 3.5075 2.45272 0
M  V30 6201 C 600.093 3.72437 3.8366 0
M  V30 6202 C 601.393 4.84216 1.95787 0
M  V30 6203 H 603.087 2.86792 0.859699 0
M  V30 6204 H 600.633 1.37977 0.412103 0
M  V30 6205 H 602.586 2.63843 3.2858 0
M  V30 6206 H 601.31 1.44864 2.92715 0
M  V30 6207 H 599.969 3.2238 1.74547 0
M  V30 6208 H 599.617 2.79246 4.18367 0
M  V30 6209 H 599.317 4.50087 3.77751 0
M  V30 6210 H 600.841 4.03334 4.58426 0
M  V30 6211 H 602.255 5.11592 2.5874 0
M  V30 6212 H 600.652 5.65498 2.00827 0
M  V30 6213 H 601.722 4.76243 0.912159 0
M  V30 6214 N 603.065 -0.440357 1.51323 0
M  V30 6215 C 604.013 -1.55492 1.72988 0
M  V30 6216 C 605.007 -1.58564 0.596138 0
M  V30 6217 O 606.213 -1.62345 0.777443 0
M  V30 6218 H 602.588 -0.516532 0.546533 0
M  V30 6219 H 604.559 -1.34392 2.66423 0
M  V30 6220 C 603.308 -2.93176 1.86931 0
M  V30 6221 H 602.631 -2.91543 2.73574 0
M  V30 6222 H 604.071 -3.70537 2.06103 0
M  V30 6223 C 602.53 -3.30988 0.628365 0
M  V30 6224 O 603.06 -4.01106 -0.218367 0
M  V30 6225 N 601.266 -2.86719 0.473339 0
M  V30 6226 H 600.813 -2.2983 1.16345 0
M  V30 6227 H 600.771 -3.12381 -0.355727 0
M  V30 6228 N 604.543 -1.41418 -0.695603 0
M  V30 6229 C 605.473 -1.46035 -1.82197 0
M  V30 6230 C 606.454 -0.319025 -1.67082 0
M  V30 6231 O 607.639 -0.530462 -1.86815 0
M  V30 6232 C 604.769 -1.34179 -3.20333 0
M  V30 6233 C 603.723 -2.46123 -3.50154 0
M  V30 6234 C 603.049 -2.19332 -4.87645 0
M  V30 6235 C 604.349 -3.88463 -3.49133 0
M  V30 6236 H 606.043 -2.40303 -1.78591 0
M  V30 6237 H 603.589 -1.15663 -0.857797 0
M  V30 6238 H 605.542 -1.36021 -3.98844 0
M  V30 6239 H 604.266 -0.363952 -3.24566 0
M  V30 6240 H 602.925 -2.43563 -2.73994 0
M  V30 6241 H 602.573 -1.19891 -4.88503 0
M  V30 6242 H 602.273 -2.94344 -5.08562 0
M  V30 6243 H 603.797 -2.22889 -5.68465 0
M  V30 6244 H 605.211 -3.92738 -4.17648 0
M  V30 6245 H 603.608 -4.63158 -3.81582 0
M  V30 6246 H 604.678 -4.16617 -2.48109 0
M  V30 6247 N 606.021 0.929856 -1.27246 0
M  V30 6248 C 607.269 1.674 -1.13233 0
M  V30 6249 C 607.59 1.92311 0.322744 0
M  V30 6250 O 606.86 1.52784 1.22612 0
M  V30 6251 H 605.44 0.620411 -0.416052 0
M  V30 6252 H 608.102 1.11663 -1.59741 0
M  V30 6253 H 607.198 2.64308 -1.65975 0
M  V30 6254 N 607.499 1.09233 1.13605 0
M  V30 6255 C 608.447 0.724572 2.21027 0
M  V30 6256 C 609.441 -0.273595 1.67176 0
M  V30 6257 O 610.647 -0.135266 1.79491 0
M  V30 6258 H 607.022 0.216319 0.720215 0
M  V30 6259 H 608.993 1.63975 2.49309 0
M  V30 6260 C 607.742 0.159126 3.47336 0
M  V30 6261 H 607.065 0.918387 3.89109 0
M  V30 6262 H 608.505 -0.0602851 4.23957 0
M  V30 6263 C 606.964 -1.10514 3.18258 0
M  V30 6264 O 607.494 -2.18869 3.36837 0
M  V30 6265 N 605.7 -1.01886 2.72154 0
M  V30 6266 H 605.247 -0.137027 2.57235 0
M  V30 6267 H 605.205 -1.8655 2.53074 0
M  V30 6268 N 608.977 -1.30795 0.87923 0
M  V30 6269 C 609.94 -2.26563 0.346676 0
M  V30 6270 C 610.94 -1.52578 -0.507597 0
M  V30 6271 O 612.13 -1.71318 -0.315575 0
M  V30 6272 C 609.262 -3.37115 -0.506611 0
M  V30 6273 H 610.455 -2.75183 1.19223 0
M  V30 6274 H 608.008 -1.41886 0.655598 0
M  V30 6275 H 608.743 -2.93802 -1.37299 0
M  V30 6276 H 608.528 -3.91959 0.105218 0
M  V30 6277 H 610.018 -4.08412 -0.871192 0
M  V30 6278 N 610.455 -0.639598 -1.44038 0
M  V30 6279 C 611.683 -0.154811 -2.0632 0
M  V30 6280 C 612.098 1.17406 -1.47856 0
M  V30 6281 O 611.455 1.72193 -0.604638 0
M  V30 6282 C 611.506 -0.0429958 -3.61474 0
M  V30 6283 O 611.227 -1.31932 -4.17763 0
M  V30 6284 C 612.728 0.469486 -4.40807 0
M  V30 6285 H 609.948 -0.0835862 -0.665773 0
M  V30 6286 H 612.492 -0.876397 -1.84769 0
M  V30 6287 H 610.647 0.629075 -3.82258 0
M  V30 6288 H 611.061 -1.16965 -5.11292 0
M  V30 6289 H 612.535 0.496712 -5.49761 0
M  V30 6290 H 613.012 1.49819 -4.12857 0
M  V30 6291 H 613.618 -0.169624 -4.24962 0
M  V30 6292 N 611.933 1.52934 -0.380664 0
M  V30 6293 C 613.181 2.01069 0.203874 0
M  V30 6294 C 613.502 1.26922 1.4804 0
M  V30 6295 O 612.772 0.386787 1.92044 0
M  V30 6296 H 611.352 0.742882 0.0783279 0
M  V30 6297 H 614.014 1.88099 -0.510368 0
M  V30 6298 H 613.11 3.09258 0.42021 0
M  V30 6299 N 613.412 0.11024 1.57214 0
M  V30 6300 C 614.362 -0.854147 2.11396 0
M  V30 6301 C 615.346 -1.23394 1.03261 0
M  V30 6302 O 616.538 -1.20649 1.2951 0
M  V30 6303 C 613.667 -2.10752 2.70995 0
M  V30 6304 C 612.753 -1.75249 3.86198 0
M  V30 6305 N 613.144 -1.10377 4.9361 0
M  V30 6306 C 611.442 -2.04763 3.96217 0
M  V30 6307 C 612.143 -0.938199 5.74084 0
M  V30 6308 N 611.119 -1.46039 5.23616 0
M  V30 6309 H 614.921 -0.348897 2.91822 0
M  V30 6310 H 612.435 -0.0925071 1.62136 0
M  V30 6311 H 614.432 -2.80801 3.0815 0
M  V30 6312 H 613.092 -2.61829 1.9203 0
M  V30 6313 H 614.103 -0.768785 5.12162 0
M  V30 6314 H 610.78 -2.57948 3.28282 0
M  V30 6315 H 612.17 -0.429678 6.70525 0
M  V30 6316 N 614.89 -1.56749 -0.16351 0
M  V30 6317 C 616.301 -1.72039 -0.725216 0
M  V30 6318 C 616.652 -0.72202 -1.82432 0
M  V30 6319 O 615.777 0.114942 -2.16095 0
M  V30 6320 C 616.372 -3.11932 -1.32227 0
M  V30 6321 C 614.931 -3.28879 -1.83072 0
M  V30 6322 C 614.078 -2.67984 -0.712716 0
M  V30 6323 H 617.029 -1.58579 0.0619772 0
M  V30 6324 H 617.05 -3.11015 -2.19202 0
M  V30 6325 H 616.562 -3.84572 -0.522103 0
M  V30 6326 H 614.663 -2.61209 -2.65708 0
M  V30 6327 H 614.776 -4.36688 -1.97079 0
M  V30 6328 H 613.14 -2.28005 -1.13515 0
M  V30 6329 H 613.923 -3.43216 0.0757361 0
M  V30 6330 N 616.368 0.432326 -1.51554 0
M  V30 6331 C 617.593 1.20824 -1.68571 0
M  V30 6332 C 618.018 1.84126 -0.384596 0
M  V30 6333 O 617.376 1.69025 0.655751 0
M  V30 6334 C 617.424 2.26429 -2.80646 0
M  V30 6335 O 616.528 3.32032 -2.44598 0
M  V30 6336 H 615.869 0.353765 -0.561913 0
M  V30 6337 H 618.399 0.509916 -1.98144 0
M  V30 6338 H 618.409 2.71133 -3.04878 0
M  V30 6339 H 617.084 1.79733 -3.75058 0
M  V30 6340 H 615.661 2.92769 -2.30956 0
M  V30 6341 N 617.846 1.41785 0.688094 0
M  V30 6342 C 619.093 1.41544 1.44816 0
M  V30 6343 C 619.421 0.0271746 1.94481 0
M  V30 6344 O 618.676 -0.962235 1.7041 0
M  V30 6345 C 618.975 2.37532 2.67046 0
M  V30 6346 C 618.641 3.84209 2.35996 0
M  V30 6347 C 617.303 4.24165 2.27239 0
M  V30 6348 C 619.655 4.76785 2.10536 0
M  V30 6349 C 616.983 5.54695 1.91128 0
M  V30 6350 C 619.335 6.07644 1.75931 0
M  V30 6351 C 617.999 6.46613 1.65675 0
M  V30 6352 H 617.269 0.517945 0.529919 0
M  V30 6353 H 619.916 1.74635 0.785797 0
M  V30 6354 H 618.221 1.9772 3.38251 0
M  V30 6355 H 619.918 2.34615 3.25203 0
M  V30 6356 H 616.508 3.52567 2.4371 0
M  V30 6357 H 620.692 4.46714 2.16242 0
M  V30 6358 H 615.948 5.83762 1.81746 0
M  V30 6359 H 620.122 6.78874 1.55252 0
M  V30 6360 H 617.749 7.47668 1.37463 0
M  V30 6361 N 619.324 -0.923095 1.27737 0
M  V30 6362 C 620.57 -1.67375 1.14514 0
M  V30 6363 C 620.903 -1.91751 -0.307424 0
M  V30 6364 O 620.178 -1.51119 -1.22447 0
M  V30 6365 C 620.461 -3.03745 1.9342 0
M  V30 6366 C 620.314 -2.86581 3.46686 0
M  V30 6367 C 621.633 -4.04144 1.74228 0
M  V30 6368 H 618.752 -0.607427 0.417374 0
M  V30 6369 H 621.394 -1.07089 1.56946 0
M  V30 6370 H 619.544 -3.55204 1.5736 0
M  V30 6371 H 621.216 -2.42203 3.92601 0
M  V30 6372 H 619.459 -2.21829 3.72793 0
M  V30 6373 H 620.13 -3.83381 3.97143 0
M  V30 6374 H 622.606 -3.61712 2.05678 0
M  V30 6375 H 621.482 -4.97543 2.31824 0
M  V30 6376 H 621.743 -4.36661 0.691373 0
M  V30 6377 N 620.802 -1.09834 -1.13024 0
M  V30 6378 C 621.735 -0.685453 -2.17662 0
M  V30 6379 C 622.713 0.310142 -1.59615 0
M  V30 6380 O 623.897 0.21052 -1.87321 0
M  V30 6381 C 621.024 -0.0104476 -3.38698 0
M  V30 6382 C 620.07 -0.968522 -4.15358 0
M  V30 6383 S 620.903 -2.48272 -4.74469 0
M  V30 6384 C 622.059 -1.82025 -5.98847 0
M  V30 6385 H 622.292 -1.57187 -2.52348 0
M  V30 6386 H 619.825 -0.914728 -1.24387 0
M  V30 6387 H 621.783 0.372694 -4.08805 0
M  V30 6388 H 620.444 0.852673 -3.02305 0
M  V30 6389 H 619.637 -0.443373 -5.02046 0
M  V30 6390 H 619.239 -1.29327 -3.50928 0
M  V30 6391 H 621.531 -1.14678 -6.67724 0
M  V30 6392 H 622.474 -2.66645 -6.55977 0
M  V30 6393 H 622.882 -1.2874 -5.49624 0
M  V30 6394 N 622.28 1.30327 -0.886154 0
M  V30 6395 C 623.505 2.0079 -0.519425 0
M  V30 6396 C 623.93 1.65979 0.885013 0
M  V30 6397 O 623.288 0.877043 1.58675 0
M  V30 6398 C 623.336 3.53686 -0.702758 0
M  V30 6399 O 622.44 4.11637 0.250828 0
M  V30 6400 H 621.781 0.63171 -0.204544 0
M  V30 6401 H 624.311 1.66145 -1.19402 0
M  V30 6402 H 624.321 4.03531 -0.602207 0
M  V30 6403 H 622.996 3.78361 -1.72673 0
M  V30 6404 H 621.573 3.72755 0.103873 0
M  V30 6405 N 623.758 0.647228 1.43697 0
M  V30 6406 C 624.706 -0.0600105 2.32523 0
M  V30 6407 C 625.7 -0.819277 1.48271 0
M  V30 6408 O 626.906 -0.730356 1.64517 0
M  V30 6409 H 623.281 -0.0381872 0.75103 0
M  V30 6410 H 625.252 0.706978 2.89904 0
M  V30 6411 C 624.001 -1.0169 3.32497 0
M  V30 6412 H 623.324 -0.442083 3.97348 0
M  V30 6413 H 624.764 -1.48095 3.97296 0
M  V30 6414 C 623.223 -2.11002 2.6264 0
M  V30 6415 O 623.753 -3.19302 2.4374 0
M  V30 6416 N 621.959 -1.87388 2.22113 0
M  V30 6417 H 621.506 -0.993174 2.37684 0
M  V30 6418 H 621.464 -2.60723 1.75701 0
M  V30 6419 N 625.236 -1.5273 0.388769 0
M  V30 6420 C 626.461 -2.0647 -0.19621 0
M  V30 6421 C 626.886 -1.25865 -1.39784 0
M  V30 6422 O 626.244 -0.283562 -1.79069 0
M  V30 6423 C 626.292 -3.56456 -0.5451 0
M  V30 6424 O 625.396 -3.78426 -1.63912 0
M  V30 6425 H 624.737 -0.663599 -0.023067 0
M  V30 6426 H 627.267 -1.96898 0.556084 0
M  V30 6427 H 627.277 -3.99888 -0.809557 0
M  V30 6428 H 625.952 -4.14561 0.333417 0
M  V30 6429 H 624.529 -3.46884 -1.36842 0
M  V30 6430 N 626.714 -0.118576 -1.57153 0
M  V30 6431 C 627.961 0.539526 -1.9518 0
M  V30 6432 C 628.289 1.66714 -1.00184 0
M  V30 6433 O 627.544 1.95683 -0.0256482 0
M  V30 6434 C 627.843 1.11303 -3.39627 0
M  V30 6435 C 627.509 0.106809 -4.50773 0
M  V30 6436 C 626.171 -0.169876 -4.809 0
M  V30 6437 C 628.523 -0.57895 -5.17975 0
M  V30 6438 C 625.851 -1.13861 -5.75545 0
M  V30 6439 C 628.203 -1.53631 -6.13661 0
M  V30 6440 C 626.867 -1.82099 -6.42181 0
M  V30 6441 H 626.137 0.197427 -0.714215 0
M  V30 6442 H 628.784 -0.199391 -1.90459 0
M  V30 6443 H 627.089 1.92869 -3.4104 0
M  V30 6444 H 628.786 1.63032 -3.66363 0
M  V30 6445 H 625.376 0.332645 -4.27307 0
M  V30 6446 H 629.56 -0.378359 -4.94856 0
M  V30 6447 H 624.816 -1.36592 -5.95947 0
M  V30 6448 H 628.99 -2.07337 -6.64819 0
M  V30 6449 H 626.617 -2.57319 -7.15326 0
M  V30 6450 N 628.193 1.56834 0.155195 0
M  V30 6451 C 629.156 1.96748 1.17571 0
M  V30 6452 C 630.156 0.853006 1.3631 0
M  V30 6453 O 631.346 1.11978 1.33441 0
M  V30 6454 C 628.478 2.27631 2.53765 0
M  V30 6455 H 629.671 2.88085 0.833498 0
M  V30 6456 H 627.224 1.51141 0.398242 0
M  V30 6457 H 627.959 1.39059 2.92973 0
M  V30 6458 H 627.744 3.0888 2.41527 0
M  V30 6459 H 629.234 2.59377 3.27282 0
M  V30 6460 N 629.671 -0.424282 1.51781 0
M  V30 6461 C 630.619 -1.53649 1.74628 0
M  V30 6462 C 631.613 -1.57923 0.612922 0
M  V30 6463 O 632.819 -1.61511 0.794618 0
M  V30 6464 H 629.194 -0.510706 0.551981 0
M  V30 6465 H 631.165 -1.31558 2.67834 0
M  V30 6466 C 629.914 -2.91177 1.9003 0
M  V30 6467 H 629.237 -2.88625 2.76651 0
M  V30 6468 H 630.677 -3.6833 2.10021 0
M  V30 6469 C 629.136 -3.30303 0.663435 0
M  V30 6470 O 629.666 -4.01315 -0.175812 0
M  V30 6471 N 627.872 -2.86201 0.503723 0
M  V30 6472 H 627.419 -2.28583 1.18776 0
M  V30 6473 H 627.377 -3.12741 -0.322575 0
M  V30 6474 N 631.149 -1.42148 -0.680565 0
M  V30 6475 C 632.081 -1.41119 -1.80605 0
M  V30 6476 C 633.094 -0.311099 -1.598 0
M  V30 6477 O 634.283 -0.573813 -1.69026 0
M  V30 6478 C 631.383 -1.18204 -3.17618 0
M  V30 6479 C 630.556 -2.40537 -3.65322 0
M  V30 6480 C 629.615 -2.13254 -4.8105 0
M  V30 6481 O 628.641 -2.8641 -4.91892 0
M  V30 6482 N 629.843 -1.13208 -5.69354 0
M  V30 6483 H 632.608 -2.38128 -1.81975 0
M  V30 6484 H 630.169 -1.36953 -0.863446 0
M  V30 6485 H 632.161 -0.97878 -3.92686 0
M  V30 6486 H 630.731 -0.29738 -3.11182 0
M  V30 6487 H 629.951 -2.76468 -2.80996 0
M  V30 6488 H 631.239 -3.22012 -3.93936 0
M  V30 6489 H 630.637 -0.526893 -5.63241 0
M  V30 6490 H 629.194 -0.988699 -6.44258 0
M  V30 6491 N 632.627 0.916307 -1.28225 0
M  V30 6492 C 633.855 1.69901 -1.18073 0
M  V30 6493 C 634.27 1.86988 0.260968 0
M  V30 6494 O 633.627 1.39505 1.17663 0
M  V30 6495 C 633.678 3.09254 -1.87201 0
M  V30 6496 O 633.399 2.92959 -3.2574 0
M  V30 6497 C 634.9 4.0362 -1.83319 0
M  V30 6498 H 632.12 0.531181 -0.409985 0
M  V30 6499 H 634.664 1.14703 -1.69303 0
M  V30 6500 H 632.819 3.61277 -1.39848 0
M  V30 6501 H 633.233 3.81139 -3.60324 0
M  V30 6502 H 634.707 4.98873 -2.36282 0
M  V30 6503 H 635.184 4.3176 -0.805007 0
M  V30 6504 H 635.79 3.57524 -2.3034 0
M  V30 6505 N 634.105 1.10431 1.1244 0
M  V30 6506 C 635.354 0.841539 1.83306 0
M  V30 6507 C 635.667 -0.634961 1.85007 0
M  V30 6508 O 636.873 -1.01363 2.51869 0
M  V30 6509 C 635.329 1.45565 3.29149 0
M  V30 6510 C 634.937 2.96544 3.35806 0
M  V30 6511 C 636.681 1.27227 4.04986 0
M  V30 6512 C 634.588 3.5099 4.75983 0
M  V30 6513 H 633.518 0.311156 0.686803 0
M  V30 6514 H 636.169 1.32829 1.26604 0
M  V30 6515 H 634.551 0.896574 3.85717 0
M  V30 6516 H 635.725 3.58766 2.89177 0
M  V30 6517 H 634.04 3.14036 2.73442 0
M  V30 6518 H 636.637 1.65348 5.08492 0
M  V30 6519 H 636.98 0.213834 4.1575 0
M  V30 6520 H 637.513 1.79941 3.54776 0
M  V30 6521 H 634.252 4.56499 4.70413 0
M  V30 6522 H 633.772 2.93535 5.23065 0
M  V30 6523 H 635.451 3.48808 5.44924 0
M  V30 6524 N 635.583 -1.29855 0.893053 0
M  V30 6525 C 636.546 -2.26183 0.370687 0
M  V30 6526 C 637.546 -1.53108 -0.491385 0
M  V30 6527 O 638.736 -1.71643 -0.297386 0
M  V30 6528 C 635.868 -3.37633 -0.470827 0
M  V30 6529 H 637.061 -2.73903 1.22135 0
M  V30 6530 H 634.614 -1.41183 0.67061 0
M  V30 6531 H 635.349 -2.95241 -1.34175 0
M  V30 6532 H 635.134 -3.91825 0.146784 0
M  V30 6533 H 636.624 -4.09313 -0.827825 0
M  V30 6534 N 637.061 -0.65484 -1.43351 0
M  V30 6535 C 637.993 0.0744757 -2.29079 0
M  V30 6536 C 639.006 0.7855 -1.42596 0
M  V30 6537 O 640.195 0.642986 -1.66517 0
M  V30 6538 C 637.295 1.12859 -3.19556 0
M  V30 6539 C 636.468 0.495381 -4.34586 0
M  V30 6540 C 635.527 1.44659 -5.05925 0
M  V30 6541 O 634.553 0.954567 -5.61139 0
M  V30 6542 N 635.755 2.78051 -5.09576 0
M  V30 6543 H 638.52 -0.661346 -2.92312 0
M  V30 6544 H 636.081 -0.497744 -1.54059 0
M  V30 6545 H 638.073 1.76577 -3.64147 0
M  V30 6546 H 636.643 1.76636 -2.57912 0
M  V30 6547 H 635.863 -0.32092 -3.92892 0
M  V30 6548 H 637.151 0.0534203 -5.08772 0
M  V30 6549 H 636.549 3.20584 -4.66093 0
M  V30 6550 H 635.106 3.37068 -5.57878 0
M  V30 6551 N 638.539 1.52521 -0.396863 0
M  V30 6552 C 639.788 2.00857 0.184184 0
M  V30 6553 C 640.101 1.28733 1.47265 0
M  V30 6554 O 641.307 1.67821 2.13421 0
M  V30 6555 C 639.763 3.57901 0.378787 0
M  V30 6556 C 639.371 4.38931 -0.896873 0
M  V30 6557 C 641.115 4.14504 0.915789 0
M  V30 6558 C 639.022 5.87591 -0.670133 0
M  V30 6559 H 637.952 0.750496 0.0726055 0
M  V30 6560 H 640.603 1.75965 -0.520425 0
M  V30 6561 H 638.985 3.79072 1.14543 0
M  V30 6562 H 640.159 4.29524 -1.66872 0
M  V30 6563 H 638.474 3.93586 -1.35938 0
M  V30 6564 H 641.071 5.23236 1.10126 0
M  V30 6565 H 641.414 3.71076 1.88701 0
M  V30 6566 H 641.947 3.97253 0.208523 0
M  V30 6567 H 638.686 6.35355 -1.61257 0
M  V30 6568 H 638.206 5.99767 0.0626368 0
M  V30 6569 H 639.885 6.46268 -0.307577 0
M  V30 6570 N 640.017 0.126909 1.57088 0
M  V30 6571 C 640.927 -0.833867 2.1928 0
M  V30 6572 C 641.943 -1.2868 1.17122 0
M  V30 6573 O 643.119 -1.34815 1.49622 0
M  V30 6574 C 640.184 -2.0632 2.78627 0
M  V30 6575 C 639.245 -1.66143 3.95847 0
M  V30 6576 C 638.478 -2.83217 4.52354 0
M  V30 6577 O 638.701 -3.98868 4.0775 0
M  V30 6578 O 637.635 -2.59846 5.42922 0
M  V30 6579 H 641.461 -0.334564 3.01852 0
M  V30 6580 H 639.046 -0.0991091 1.49071 0
M  V30 6581 H 640.928 -2.78304 3.16425 0
M  V30 6582 H 639.603 -2.55242 1.99082 0
M  V30 6583 H 638.51 -0.912435 3.62802 0
M  V30 6584 H 639.843 -1.21957 4.76852 0
M  V30 6585 N 641.495 -1.56914 -0.146875 0
M  V30 6586 C 642.425 -2.01308 -1.1831 0
M  V30 6587 C 643.406 -0.892664 -1.44795 0
M  V30 6588 O 644.591 -1.16048 -1.55713 0
M  V30 6589 C 641.721 -2.3938 -2.51624 0
M  V30 6590 C 640.675 -3.54608 -2.3966 0
M  V30 6591 C 640.001 -3.78493 -3.77686 0
M  V30 6592 C 641.301 -4.87269 -1.88058 0
M  V30 6593 H 642.995 -2.88123 -0.813964 0
M  V30 6594 H 640.541 -1.38615 -0.3901 0
M  V30 6595 H 642.494 -2.69037 -3.24341 0
M  V30 6596 H 641.218 -1.49502 -2.90373 0
M  V30 6597 H 639.877 -3.25116 -1.69396 0
M  V30 6598 H 639.525 -2.85866 -4.13871 0
M  V30 6599 H 639.225 -4.56039 -3.70543 0
M  V30 6600 H 640.749 -4.10576 -4.51951 0
M  V30 6601 H 642.163 -5.15644 -2.50568 0
M  V30 6602 H 640.56 -5.68622 -1.91805 0
M  V30 6603 H 641.63 -4.77634 -0.836277 0
M  V30 6604 N 642.974 0.416227 -1.52004 0
M  V30 6605 C 644.22 1.16233 -1.66917 0
M  V30 6606 C 644.575 1.8839 -0.390763 0
M  V30 6607 O 643.868 1.81479 0.614478 0
M  V30 6608 C 644.062 2.18923 -2.82502 0
M  V30 6609 C 643.891 1.56849 -4.2146 0
M  V30 6610 C 642.661 1.34426 -4.87091 0
M  V30 6611 C 644.859 1.03322 -5.03815 0
M  V30 6612 N 642.841 0.681703 -6.10103 0
M  V30 6613 C 644.212 0.497165 -6.18003 0
M  V30 6614 C 646.267 0.926997 -4.89194 0
M  V30 6615 C 644.97 -0.134687 -7.19174 0
M  V30 6616 C 646.996 0.309009 -5.90592 0
M  V30 6617 C 646.358 -0.216399 -7.04068 0
M  V30 6618 H 642.457 0.412252 -0.664509 0
M  V30 6619 H 645.041 0.455758 -1.89291 0
M  V30 6620 H 643.212 2.86946 -2.61756 0
M  V30 6621 H 644.944 2.85844 -2.86488 0
M  V30 6622 H 641.699 1.61183 -4.45328 0
M  V30 6623 H 642.123 0.367256 -6.76003 0
M  V30 6624 H 646.765 1.31904 -4.01698 0
M  V30 6625 H 644.483 -0.538811 -8.06302 0
M  V30 6626 H 648.069 0.228438 -5.81351 0
M  V30 6627 H 646.949 -0.687064 -7.81184 0
M  V30 6628 N 644.452 1.42507 0.673017 0
M  V30 6629 C 645.68 1.46473 1.46128 0
M  V30 6630 C 646.095 0.0765912 1.88645 0
M  V30 6631 O 645.452 -0.909057 1.58248 0
M  V30 6632 C 645.503 2.39339 2.70923 0
M  V30 6633 O 645.224 3.72752 2.3019 0
M  V30 6634 C 646.725 2.52343 3.64469 0
M  V30 6635 H 643.945 0.49812 0.449575 0
M  V30 6636 H 646.489 1.87041 0.826802 0
M  V30 6637 H 644.644 2.02019 3.30556 0
M  V30 6638 H 645.058 4.22503 3.10791 0
M  V30 6639 H 646.532 3.2144 4.48754 0
M  V30 6640 H 647.009 1.56189 4.1049 0
M  V30 6641 H 647.615 2.90392 3.10729 0
M  V30 6642 N 645.93 -0.909495 1.28709 0
M  V30 6643 C 646.877 -2.01245 1.13 0
M  V30 6644 C 647.847 -1.6608 0.0259684 0
M  V30 6645 O 649.032 -1.89835 0.191687 0
M  V30 6646 C 646.172 -3.35644 0.802315 0
M  V30 6647 C 645.285 -3.83653 1.98582 0
M  V30 6648 C 644.42 -5.06582 1.59837 0
M  V30 6649 C 643.459 -5.46934 2.74827 0
M  V30 6650 N 642.596 -6.61053 2.36546 0
M  V30 6651 H 647.436 -2.14013 2.0737 0
M  V30 6652 H 644.973 -1.0482 1.03205 0
M  V30 6653 H 646.931 -4.12963 0.593057 0
M  V30 6654 H 645.561 -3.22631 -0.104457 0
M  V30 6655 H 644.613 -3.02454 2.30708 0
M  V30 6656 H 645.925 -4.09515 2.84779 0
M  V30 6657 H 645.079 -5.91457 1.35143 0
M  V30 6658 H 643.818 -4.82537 0.707753 0
M  V30 6659 H 642.823 -4.60599 3.00215 0
M  V30 6660 H 644.048 -5.72965 3.64538 0
M  V30 6661 H 641.994 -6.3863 1.49959 0
M  V30 6662 H 641.911 -6.86662 3.16277 0
M  V30 6663 H 643.179 -7.49221 2.15146 0
M  V30 6664 N 647.408 -1.11026 -1.11852 0
M  V30 6665 C 648.356 -0.759643 -2.19846 0
M  V30 6666 C 649.35 0.246964 -1.6759 0
M  V30 6667 O 650.556 0.106693 -1.79684 0
M  V30 6668 H 646.931 -0.22775 -0.716683 0
M  V30 6669 H 648.902 -1.6792 -2.46669 0
M  V30 6670 C 647.651 -0.214364 -3.47039 0
M  V30 6671 H 646.974 -0.980175 -3.87599 0
M  V30 6672 H 648.414 -0.00717047 -4.23999 0
M  V30 6673 C 646.873 1.05436 -3.19976 0
M  V30 6674 O 647.403 2.13483 -3.40276 0
M  V30 6675 N 645.609 0.975436 -2.7374 0
M  V30 6676 H 645.156 0.0960853 -2.57421 0
M  V30 6677 H 645.114 1.82501 -2.5601 0
M  V30 6678 N 648.886 1.2938 -0.899927 0
M  V30 6679 C 650.163 1.9046 -0.445443 0
M  V30 6680 C 650.543 1.81683 1.07492 0
M  V30 6681 O 649.891 1.24371 1.91688 0
M  V30 6682 C 650.101 3.35529 -0.960279 0
M  V30 6683 C 651.449 4.12556 -1.00412 0
M  V30 6684 O 652.473 3.44434 -0.907965 0
M  V30 6685 O 651.332 5.34294 -1.14857 0
M  V30 6686 H 648.426 0.815253 -0.138893 0
M  V30 6687 H 650.972 1.37844 -0.989808 0
M  V30 6688 H 649.744 3.36074 -2.00425 0
M  V30 6689 H 649.367 3.95624 -0.395939 0
M  V30 6690 N 650.364 0.662433 1.43002 0
M  V30 6691 C 651.274 -0.0239199 2.34588 0
M  V30 6692 C 652.29 -0.802255 1.54402 0
M  V30 6693 O 653.466 -0.747401 1.87018 0
M  V30 6694 C 650.531 -0.972098 3.32793 0
M  V30 6695 C 649.592 -0.189673 4.28881 0
M  V30 6696 C 648.825 -1.09269 5.22395 0
M  V30 6697 O 649.048 -2.33209 5.20547 0
M  V30 6698 O 647.982 -0.560136 5.99288 0
M  V30 6699 H 651.808 0.730171 2.94792 0
M  V30 6700 H 649.393 0.422635 1.43297 0
M  V30 6701 H 651.275 -1.51676 3.93157 0
M  V30 6702 H 649.95 -1.70626 2.75079 0
M  V30 6703 H 648.857 0.398794 3.71968 0
M  V30 6704 H 650.19 0.50511 4.89601 0
M  V30 6705 N 651.842 -1.52309 0.404946 0
M  V30 6706 C 653.072 -2.05886 -0.171569 0
M  V30 6707 C 653.48 -1.27527 -1.39762 0
M  V30 6708 O 652.823 -0.319215 -1.80905 0
M  V30 6709 C 652.885 -3.54609 -0.590983 0
M  V30 6710 C 652.549 -4.53989 0.523757 0
M  V30 6711 C 653.546 -5.01084 1.38604 0
M  V30 6712 C 651.231 -4.97465 0.695255 0
M  V30 6713 C 653.225 -5.90295 2.4048 0
M  V30 6714 C 650.912 -5.86473 1.71733 0
M  V30 6715 C 651.91 -6.32782 2.57051 0
M  V30 6716 O 651.598 -7.20029 3.57509 0
M  V30 6717 H 651.33 -0.675508 -0.0257763 0
M  V30 6718 H 653.884 -1.97238 0.573278 0
M  V30 6719 H 652.114 -3.60929 -1.38805 0
M  V30 6720 H 653.803 -3.90853 -1.09494 0
M  V30 6721 H 654.569 -4.68214 1.26492 0
M  V30 6722 H 650.448 -4.60982 0.0408447 0
M  V30 6723 H 653.992 -6.26363 3.07108 0
M  V30 6724 H 649.889 -6.18756 1.83877 0
M  V30 6725 H 650.657 -7.3813 3.53703 0
M  V30 6726 N 653.32 -0.135238 -1.57019 0
M  V30 6727 C 654.597 0.563227 -1.87316 0
M  V30 6728 C 654.977 1.83749 -1.03921 0
M  V30 6729 O 654.325 2.2817 -0.122675 0
M  V30 6730 C 654.535 0.840031 -3.3874 0
M  V30 6731 C 655.883 1.18598 -4.077 0
M  V30 6732 O 656.907 0.92977 -3.43851 0
M  V30 6733 O 655.766 1.66758 -5.20436 0
M  V30 6734 H 652.86 0.285971 -0.775983 0
M  V30 6735 H 655.406 -0.170965 -1.68837 0
M  V30 6736 H 654.178 -0.0622785 -3.9125 0
M  V30 6737 H 653.801 1.62882 -3.62706 0
M  V30 6738 N 654.798 1.5699 0.138552 0
M  V30 6739 C 655.746 1.99858 1.18994 0
M  V30 6740 C 656.74 0.89231 1.43994 0
M  V30 6741 O 657.946 1.0775 1.44187 0
M  V30 6742 H 654.321 0.636325 0.400743 0
M  V30 6743 H 656.292 2.87427 0.801755 0
M  V30 6744 C 655.041 2.40235 2.51361 0
M  V30 6745 H 654.364 3.24917 2.32957 0
M  V30 6746 H 655.804 2.74045 3.23535 0
M  V30 6747 C 654.263 1.25829 3.1252 0
M  V30 6748 O 654.793 0.563604 3.97727 0
M  V30 6749 N 652.999 1.02036 2.72097 0
M  V30 6750 H 652.546 1.58705 2.02905 0
M  V30 6751 H 652.504 0.256796 3.1335 0
M  V30 6752 N 656.276 -0.40816 1.52223 0
M  V30 6753 C 657.186 -1.52202 1.78526 0
M  V30 6754 C 658.202 -1.60546 0.670892 0
M  V30 6755 O 659.378 -1.77242 0.956404 0
M  V30 6756 C 656.443 -2.87928 1.93128 0
M  V30 6757 C 655.504 -2.89463 3.17033 0
M  V30 6758 C 654.737 -4.18715 3.30929 0
M  V30 6759 O 654.96 -5.12662 2.50067 0
M  V30 6760 O 653.894 -4.27125 4.24084 0
M  V30 6761 H 657.72 -1.32911 2.73072 0
M  V30 6762 H 655.305 -0.594112 1.37079 0
M  V30 6763 H 657.187 -3.68426 2.04549 0
M  V30 6764 H 655.862 -3.07285 1.01772 0
M  V30 6765 H 654.769 -2.07815 3.11069 0
M  V30 6766 H 656.102 -2.75055 4.08174 0
M  V30 6767 N 657.755 -1.42862 -0.66545 0
M  V30 6768 C 659.001 -1.44043 -1.42757 0
M  V30 6769 C 659.334 -0.0599629 -1.94107 0
M  V30 6770 O 658.609 0.917286 -1.71511 0
M  V30 6771 C 658.892 -2.47266 -2.61786 0
M  V30 6772 C 658.745 -3.94539 -2.16007 0
M  V30 6773 C 660.064 -2.47365 -3.64003 0
M  V30 6774 H 657.183 -0.524506 -0.517748 0
M  V30 6775 H 659.825 -1.74335 -0.755466 0
M  V30 6776 H 657.975 -2.21565 -3.19126 0
M  V30 6777 H 659.647 -4.31254 -1.63762 0
M  V30 6778 H 657.89 -4.07957 -1.47491 0
M  V30 6779 H 658.561 -4.62357 -3.01546 0
M  V30 6780 H 661.037 -2.70243 -3.16399 0
M  V30 6781 H 659.913 -3.21552 -4.44854 0
M  V30 6782 H 660.174 -1.50299 -4.15767 0
M  V30 6783 N 659.233 0.902656 -1.29189 0
M  V30 6784 C 660.463 1.68394 -1.19695 0
M  V30 6785 C 660.871 1.87602 0.245384 0
M  V30 6786 O 660.214 1.41084 1.17648 0
M  V30 6787 C 660.276 3.09094 -1.83578 0
M  V30 6788 C 659.94 3.1313 -3.32864 0
M  V30 6789 C 660.937 2.93497 -4.29134 0
M  V30 6790 C 658.622 3.3529 -3.74013 0
M  V30 6791 C 660.616 2.95953 -5.64527 0
M  V30 6792 C 658.303 3.37377 -5.09529 0
M  V30 6793 C 659.301 3.1773 -6.04596 0
M  V30 6794 O 658.989 3.196 -7.37639 0
M  V30 6795 H 658.721 0.532815 -0.416034 0
M  V30 6796 H 661.275 1.1374 -1.71033 0
M  V30 6797 H 659.505 3.65338 -1.26747 0
M  V30 6798 H 661.194 3.69297 -1.68447 0
M  V30 6799 H 661.96 2.76192 -3.98677 0
M  V30 6800 H 657.839 3.49623 -3.00474 0
M  V30 6801 H 661.383 2.80536 -6.38706 0
M  V30 6802 H 657.28 3.54213 -5.39633 0
M  V30 6803 H 658.048 3.35887 -7.46406 0
M  V30 6804 N 660.711 1.11618 1.11262 0
M  V30 6805 C 662.127 0.850468 1.35053 0
M  V30 6806 C 662.327 -0.523868 1.94571 0
M  V30 6807 O 661.383 -1.2743 2.17986 0
M  V30 6808 C 662.696 1.96005 2.28041 0
M  V30 6809 C 664.244 1.98993 2.416 0
M  V30 6810 C 664.719 3.0916 3.37911 0
M  V30 6811 N 666.21 3.08547 3.45475 0
M  V30 6812 C 666.945 3.9043 4.19943 0
M  V30 6813 N 666.441 4.8228 4.97371 0
M  V30 6814 N 668.234 3.786 4.15474 0
M  V30 6815 H 660.385 2.00184 0.709932 0
M  V30 6816 H 662.648 0.870635 0.375099 0
M  V30 6817 H 662.354 2.9499 1.91503 0
M  V30 6818 H 662.228 1.85782 3.28275 0
M  V30 6819 H 664.615 1.00633 2.77411 0
M  V30 6820 H 664.696 2.13292 1.4121 0
M  V30 6821 H 664.34 4.07748 3.02827 0
M  V30 6822 H 664.27 2.92102 4.3816 0
M  V30 6823 H 666.761 2.42 2.90249 0
M  V30 6824 H 667.074 5.41289 5.51567 0
M  V30 6825 H 665.419 4.863 4.96525 0
M  V30 6826 H 668.61 3.06185 3.54074 0
M  V30 6827 H 668.783 4.42647 4.73253 0
M  V30 6828 N 662.189 -1.289 0.906776 0
M  V30 6829 C 663.119 -2.29932 0.406659 0
M  V30 6830 C 664.1 -1.6189 -0.522061 0
M  V30 6831 O 665.285 -1.8935 -0.431283 0
M  V30 6832 C 662.415 -3.45425 -0.360366 0
M  V30 6833 C 661.369 -4.25316 0.478574 0
M  V30 6834 C 660.695 -5.33076 -0.416373 0
M  V30 6835 C 661.995 -4.92739 1.7322 0
M  V30 6836 H 663.689 -2.72013 1.25097 0
M  V30 6837 H 661.235 -1.30768 0.602977 0
M  V30 6838 H 663.188 -4.15186 -0.721029 0
M  V30 6839 H 661.912 -3.02206 -1.23852 0
M  V30 6840 H 660.571 -3.57273 0.821662 0
M  V30 6841 H 660.219 -4.86101 -1.29287 0
M  V30 6842 H 659.919 -5.8743 0.141309 0
M  V30 6843 H 661.443 -6.05686 -0.773072 0
M  V30 6844 H 662.857 -5.54898 1.44086 0
M  V30 6845 H 661.254 -5.57057 2.23175 0
M  V30 6846 H 662.324 -4.17625 2.46408 0
M  V30 6847 N 663.667 -0.670007 -1.42649 0
M  V30 6848 C 665.078 -0.268118 -1.84765 0
M  V30 6849 C 665.429 1.18877 -1.56086 0
M  V30 6850 O 664.554 1.90947 -1.01825 0
M  V30 6851 C 665.149 -0.47984 -3.35385 0
M  V30 6852 C 663.708 -0.132116 -3.76168 0
M  V30 6853 C 662.855 -0.774611 -2.66261 0
M  V30 6854 H 665.806 -0.872509 -1.32563 0
M  V30 6855 H 665.827 0.269522 -3.79544 0
M  V30 6856 H 665.339 -1.54026 -3.56227 0
M  V30 6857 H 663.44 0.92505 -3.60934 0
M  V30 6858 H 663.553 -0.569294 -4.75706 0
M  V30 6859 H 661.917 -0.206353 -2.53863 0
M  V30 6860 H 662.7 -1.83839 -2.89928 0
M  V30 6861 N 665.145 1.52092 -0.413018 0
M  V30 6862 C 666.092 2.27119 0.410558 0
M  V30 6863 C 667.062 1.29692 1.03774 0
M  V30 6864 O 668.247 1.58561 1.06128 0
M  V30 6865 C 665.387 3.09863 1.51918 0
M  V30 6866 C 664.5 4.22252 0.912528 0
M  V30 6867 C 663.635 4.92348 1.99417 0
M  V30 6868 C 662.674 5.96694 1.36466 0
M  V30 6869 N 661.811 6.60292 2.38661 0
M  V30 6870 H 666.651 2.97067 -0.235661 0
M  V30 6871 H 664.188 1.46542 -0.128055 0
M  V30 6872 H 666.146 3.56144 2.17295 0
M  V30 6873 H 664.776 2.42078 2.13537 0
M  V30 6874 H 663.828 3.80113 0.147697 0
M  V30 6875 H 665.14 4.9709 0.412717 0
M  V30 6876 H 664.294 5.42054 2.72512 0
M  V30 6877 H 663.033 4.17087 2.52764 0
M  V30 6878 H 662.038 5.46304 0.61906 0
M  V30 6879 H 663.263 6.73899 0.838827 0
M  V30 6880 H 661.209 5.87858 2.91134 0
M  V30 6881 H 661.126 7.30816 1.93503 0
M  V30 6882 H 662.394 7.14635 3.11314 0
M  V30 6883 N 666.623 0.143563 1.56945 0
M  V30 6884 C 667.573 -0.809115 2.1316 0
M  V30 6885 C 668.557 -1.21176 1.05855 0
M  V30 6886 O 669.749 -1.17875 1.3204 0
M  V30 6887 C 666.878 -2.04957 2.75405 0
M  V30 6888 C 665.964 -1.67018 3.89828 0
M  V30 6889 N 666.355 -0.998822 4.9584 0
M  V30 6890 C 664.653 -1.96313 4.00471 0
M  V30 6891 C 665.354 -0.816217 5.75945 0
M  V30 6892 N 664.33 -1.349 5.26596 0
M  V30 6893 H 668.132 -0.286919 2.92496 0
M  V30 6894 H 665.646 -0.0580948 1.62296 0
M  V30 6895 H 667.643 -2.74201 3.14037 0
M  V30 6896 H 666.303 -2.57697 1.97541 0
M  V30 6897 H 667.314 -0.659975 5.13678 0
M  V30 6898 H 663.991 -2.50927 3.33679 0
M  V30 6899 H 665.381 -0.287353 6.71285 0
M  V30 6900 N 668.101 -1.57061 -0.130224 0
M  V30 6901 C 669.031 -2.02552 -1.16168 0
M  V30 6902 C 670.012 -0.907971 -1.4384 0
M  V30 6903 O 671.197 -1.17693 -1.54473 0
M  V30 6904 C 668.327 -2.42035 -2.49071 0
M  V30 6905 C 667.281 -3.5713 -2.35886 0
M  V30 6906 C 666.607 -3.82478 -3.7365 0
M  V30 6907 C 667.907 -4.89236 -1.8288 0
M  V30 6908 H 669.601 -2.8897 -0.783359 0
M  V30 6909 H 667.147 -1.39021 -0.375376 0
M  V30 6910 H 669.1 -2.72462 -3.21469 0
M  V30 6911 H 667.824 -1.52573 -2.88771 0
M  V30 6912 H 666.483 -3.26895 -1.65938 0
M  V30 6913 H 666.131 -2.9024 -4.10816 0
M  V30 6914 H 665.831 -4.59944 -3.65685 0
M  V30 6915 H 667.355 -4.15347 -4.47571 0
M  V30 6916 H 668.769 -5.18272 -2.45085 0
M  V30 6917 H 667.166 -5.70624 -1.85763 0
M  V30 6918 H 668.236 -4.78494 -0.785571 0
M  V30 6919 N 669.579 0.400081 -1.52437 0
M  V30 6920 C 670.856 1.15973 -1.57511 0
M  V30 6921 C 671.236 2.0798 -0.361572 0
M  V30 6922 O 670.584 2.19032 0.650929 0
M  V30 6923 C 670.794 1.92912 -2.90837 0
M  V30 6924 C 672.142 2.48662 -3.44169 0
M  V30 6925 O 673.166 2.03081 -2.92637 0
M  V30 6926 O 672.025 3.31894 -4.34176 0
M  V30 6927 H 669.119 0.530023 -0.634827 0
M  V30 6928 H 671.665 0.40613 -1.64769 0
M  V30 6929 H 670.437 1.25564 -3.70607 0
M  V30 6930 H 670.06 2.75257 -2.86913 0
M  V30 6931 N 671.057 1.43213 0.657864 0
M  V30 6932 C 671.967 1.50448 1.80007 0
M  V30 6933 C 672.983 0.39191 1.69529 0
M  V30 6934 O 674.159 0.645349 1.90781 0
M  V30 6935 C 671.224 1.42062 3.16258 0
M  V30 6936 C 670.285 2.63951 3.38568 0
M  V30 6937 C 669.518 2.55956 4.68318 0
M  V30 6938 O 669.741 1.60473 5.47361 0
M  V30 6939 O 668.675 3.46378 4.92245 0
M  V30 6940 H 672.501 2.4689 1.76858 0
M  V30 6941 H 670.086 1.25163 0.81576 0
M  V30 6942 H 671.968 1.3981 3.97531 0
M  V30 6943 H 670.643 0.487524 3.20008 0
M  V30 6944 H 669.55 2.71776 2.57077 0
M  V30 6945 H 670.883 3.56217 3.39662 0
M  V30 6946 N 672.536 -0.895792 1.29666 0
M  V30 6947 C 673.483 -2.00035 1.15129 0
M  V30 6948 C 674.453 -1.66043 0.0435819 0
M  V30 6949 O 675.638 -1.89621 0.211811 0
M  V30 6950 C 672.778 -3.34774 0.83787 0
M  V30 6951 C 671.891 -3.81525 2.0264 0
M  V30 6952 C 671.026 -5.04858 1.65201 0
M  V30 6953 C 670.065 -5.43988 2.80612 0
M  V30 6954 N 669.202 -6.58507 2.43544 0
M  V30 6955 H 674.042 -2.11802 2.09628 0
M  V30 6956 H 671.579 -1.03719 1.04311 0
M  V30 6957 H 673.537 -4.12311 0.636824 0
M  V30 6958 H 672.167 -3.22724 -0.0702314 0
M  V30 6959 H 671.219 -2.9999 2.33903 0
M  V30 6960 H 672.531 -4.06472 2.89106 0
M  V30 6961 H 671.685 -5.8999 1.41408 0
M  V30 6962 H 670.424 -4.81759 0.758893 0
M  V30 6963 H 669.429 -4.57388 3.05083 0
M  V30 6964 H 670.654 -5.69066 3.70595 0
M  V30 6965 H 668.6 -6.37004 1.56724 0
M  V30 6966 H 668.517 -6.83269 3.23542 0
M  V30 6967 H 669.785 -7.46897 2.2308 0
M  V30 6968 N 674.014 -1.12206 -1.10668 0
M  V30 6969 C 675.26 -0.877172 -1.82848 0
M  V30 6970 C 675.593 0.595571 -1.84842 0
M  V30 6971 O 674.868 1.44013 -1.30731 0
M  V30 6972 C 675.151 -1.44957 -3.29635 0
M  V30 6973 C 675.004 -2.99051 -3.35989 0
M  V30 6974 C 676.323 -1.10714 -4.25946 0
M  V30 6975 H 673.442 -0.320103 -0.663854 0
M  V30 6976 H 676.084 -1.38827 -1.2972 0
M  V30 6977 H 674.234 -1.01488 -3.7501 0
M  V30 6978 H 675.906 -3.51182 -2.99113 0
M  V30 6979 H 674.149 -3.34705 -2.75962 0
M  V30 6980 H 674.82 -3.34194 -4.39339 0
M  V30 6981 H 677.296 -1.48254 -3.88793 0
M  V30 6982 H 676.172 -1.5343 -5.2702 0
M  V30 6983 H 676.433 -0.019 -4.42096 0
M  V30 6984 N 675.492 1.28418 -0.913599 0
M  V30 6985 C 676.455 2.25564 -0.406624 0
M  V30 6986 C 677.455 1.5387 0.466965 0
M  V30 6987 O 678.645 1.72094 0.270042 0
M  V30 6988 C 675.777 3.38339 0.417053 0
M  V30 6989 H 676.97 2.71926 -1.26477 0
M  V30 6990 H 674.523 1.40098 -0.692986 0
M  V30 6991 H 675.258 2.97339 1.29461 0
M  V30 6992 H 675.043 3.91542 -0.209102 0
M  V30 6993 H 676.533 4.10578 0.762602 0
M  V30 6994 N 676.97 0.677563 1.42291 0
M  V30 6995 C 678.386 0.347376 1.55774 0
M  V30 6996 C 678.586 -1.14703 1.65667 0
M  V30 6997 O 677.642 -1.93252 1.62512 0
M  V30 6998 C 678.955 1.08011 2.80631 0
M  V30 6999 C 680.503 1.06271 2.94407 0
M  V30 7000 C 680.978 1.77683 4.22129 0
M  V30 7001 N 682.469 1.74564 4.29047 0
M  V30 7002 C 683.204 2.26673 5.26694 0
M  V30 7003 N 682.7 2.87176 6.30477 0
M  V30 7004 N 684.493 2.17032 5.18511 0
M  V30 7005 H 676.644 1.64703 1.34114 0
M  V30 7006 H 678.907 0.694038 0.645768 0
M  V30 7007 H 678.613 2.13518 2.79469 0
M  V30 7008 H 678.487 0.647115 3.71608 0
M  V30 7009 H 680.874 0.0159658 2.95096 0
M  V30 7010 H 680.955 1.53461 2.04654 0
M  V30 7011 H 680.599 2.82327 4.22201 0
M  V30 7012 H 680.529 1.2794 5.10822 0
M  V30 7013 H 683.02 1.30436 3.54676 0
M  V30 7014 H 683.333 3.24551 7.01346 0
M  V30 7015 H 681.678 2.91247 6.31031 0
M  V30 7016 H 684.869 1.69451 4.36353 0
M  V30 7017 H 685.042 2.57948 5.94446 0
M  V30 7018 N 678.448 -1.51871 0.421078 0
M  V30 7019 C 679.697 -2.01125 -0.152206 0
M  V30 7020 C 680.01 -1.3106 -1.45199 0
M  V30 7021 O 681.216 -1.71195 -2.10724 0
M  V30 7022 C 679.672 -3.58458 -0.3218 0
M  V30 7023 C 679.28 -4.37448 0.96659 0
M  V30 7024 C 681.024 -4.15908 -0.84973 0
M  V30 7025 C 678.931 -5.86451 0.763529 0
M  V30 7026 H 677.861 -0.751556 -0.0606565 0
M  V30 7027 H 680.512 -1.75115 0.548354 0
M  V30 7028 H 678.894 -3.80847 -1.08498 0
M  V30 7029 H 680.068 -4.26814 1.73684 0
M  V30 7030 H 678.383 -3.91373 1.42183 0
M  V30 7031 H 680.98 -5.24922 -1.01788 0
M  V30 7032 H 681.323 -3.74031 -1.82774 0
M  V30 7033 H 681.856 -3.97535 -0.145297 0
M  V30 7034 H 678.595 -6.3271 1.71344 0
M  V30 7035 H 678.115 -5.99791 0.0327889 0
M  V30 7036 H 679.794 -6.45697 0.410354 0
M  V30 7037 N 679.926 -0.151884 -1.56866 0
M  V30 7038 C 680.876 0.797799 -2.13586 0
M  V30 7039 C 681.86 1.20613 -1.06496 0
M  V30 7040 O 683.052 1.17173 -1.32663 0
M  V30 7041 C 680.181 2.03493 -2.76488 0
M  V30 7042 C 679.267 1.64948 -3.90708 0
M  V30 7043 N 679.658 0.972513 -4.96363 0
M  V30 7044 C 677.956 1.94186 -4.01507 0
M  V30 7045 C 678.657 0.785661 -5.7637 0
M  V30 7046 N 677.633 1.32105 -5.27304 0
M  V30 7047 H 681.435 0.271403 -2.92644 0
M  V30 7048 H 678.949 0.049487 -1.62325 0
M  V30 7049 H 680.946 2.72532 -3.15487 0
M  V30 7050 H 679.606 2.56646 -1.98904 0
M  V30 7051 H 680.617 0.632724 -5.1402 0
M  V30 7052 H 677.294 2.49154 -3.35005 0
M  V30 7053 H 678.684 0.251749 -6.71428 0
M  V30 7054 N 681.404 1.57128 0.121893 0
M  V30 7055 C 682.65 1.84974 0.831418 0
M  V30 7056 C 682.983 0.737204 1.79663 0
M  V30 7057 O 682.258 -0.257199 1.92792 0
M  V30 7058 C 682.541 3.23397 1.58386 0
M  V30 7059 C 682.394 4.45246 0.638445 0
M  V30 7060 C 683.713 3.59355 2.54071 0
M  V30 7061 H 680.832 0.67282 0.300803 0
M  V30 7062 H 683.474 1.89759 0.0957587 0
M  V30 7063 H 681.624 3.19449 2.21098 0
M  V30 7064 H 683.296 4.61295 0.0203925 0
M  V30 7065 H 681.539 4.33771 -0.05023 0
M  V30 7066 H 682.21 5.38765 1.20151 0
M  V30 7067 H 684.686 3.64075 2.01465 0
M  V30 7068 H 683.562 4.57193 3.03752 0
M  V30 7069 H 683.823 2.86622 3.36601 0
M  V30 7070 N 682.882 -0.391992 1.52647 0
M  V30 7071 C 683.792 -1.503 1.80131 0
M  V30 7072 C 684.808 -1.59825 0.687882 0
M  V30 7073 O 685.984 -1.76218 0.975149 0
M  V30 7074 C 683.049 -2.85863 1.96171 0
M  V30 7075 C 682.11 -2.86084 3.20085 0
M  V30 7076 C 681.343 -4.15181 3.35351 0
M  V30 7077 O 681.566 -5.09981 2.55491 0
M  V30 7078 O 680.5 -4.22603 4.28591 0
M  V30 7079 H 684.326 -1.30007 2.74466 0
M  V30 7080 H 681.911 -0.579539 1.37701 0
M  V30 7081 H 683.793 -3.66236 2.08445 0
M  V30 7082 H 682.468 -3.06189 1.05025 0
M  V30 7083 H 681.375 -2.04504 3.13256 0
M  V30 7084 H 682.708 -2.7071 4.11068 0
M  V30 7085 N 684.36 -1.4356 -0.65026 0
M  V30 7086 C 685.323 -1.48615 -1.74489 0
M  V30 7087 C 686.323 -0.370483 -1.56474 0
M  V30 7088 O 687.513 -0.632351 -1.62317 0
M  V30 7089 C 684.645 -1.34161 -3.13391 0
M  V30 7090 H 685.838 -2.46103 -1.71387 0
M  V30 7091 H 683.391 -1.30369 -0.862186 0
M  V30 7092 H 684.126 -0.376918 -3.22102 0
M  V30 7093 H 683.911 -2.1504 -3.27872 0
M  V30 7094 H 685.401 -1.40637 -3.93206 0
M  V30 7095 N 685.838 0.888903 -1.30139 0
M  V30 7096 C 686.768 2.01046 -1.18755 0
M  V30 7097 C 687.749 1.69916 -0.0791438 0
M  V30 7098 O 688.934 1.92445 -0.260498 0
M  V30 7099 C 686.064 3.36109 -0.874518 0
M  V30 7100 C 685.018 3.81486 -1.94043 0
M  V30 7101 C 684.344 5.13796 -1.48047 0
M  V30 7102 C 685.644 4.00637 -3.35093 0
M  V30 7103 H 687.338 2.10828 -2.12584 0
M  V30 7104 H 684.884 1.01298 -1.02346 0
M  V30 7105 H 686.837 4.14089 -0.781548 0
M  V30 7106 H 685.561 3.26449 0.0994519 0
M  V30 7107 H 684.22 3.05731 -2.02297 0
M  V30 7108 H 683.868 5.0056 -0.494878 0
M  V30 7109 H 683.568 5.45127 -2.19341 0
M  V30 7110 H 685.092 5.94305 -1.40121 0
M  V30 7111 H 686.506 4.69067 -3.2962 0
M  V30 7112 H 684.903 4.43339 -4.04438 0
M  V30 7113 H 685.973 3.0462 -3.77273 0
M  V30 7114 N 687.317 1.12792 1.10072 0
M  V30 7115 C 688.565 0.883796 1.81751 0
M  V30 7116 C 688.886 -0.591891 1.858 0
M  V30 7117 O 688.156 -1.43017 1.33876 0
M  V30 7118 H 686.736 0.323978 0.673088 0
M  V30 7119 H 689.398 1.42314 1.33164 0
M  V30 7120 H 688.494 1.26863 2.85153 0
M  V30 7121 N 688.795 -1.27931 0.920396 0
M  V30 7122 C 690.043 -1.94304 0.555906 0
M  V30 7123 C 690.364 -1.72753 -0.904519 0
M  V30 7124 O 689.634 -1.07104 -1.64029 0
M  V30 7125 H 688.214 -0.719001 0.202599 0
M  V30 7126 H 690.876 -1.55785 1.1712 0
M  V30 7127 H 689.972 -3.02806 0.755981 0
M  V30 7128 N 690.273 -0.685099 -1.4193 0
M  V30 7129 C 691.223 0.00977295 -2.27998 0
M  V30 7130 C 692.207 0.763315 -1.41641 0
M  V30 7131 O 693.399 0.640532 -1.65004 0
M  V30 7132 C 690.528 0.952972 -3.29808 0
M  V30 7133 C 689.614 0.196231 -4.23646 0
M  V30 7134 N 690.005 -0.804401 -4.99363 0
M  V30 7135 C 688.303 0.433213 -4.43891 0
M  V30 7136 C 689.004 -1.25646 -5.67968 0
M  V30 7137 N 687.98 -0.5844 -5.4045 0
M  V30 7138 H 691.782 -0.757586 -2.83968 0
M  V30 7139 H 689.296 -0.515037 -1.54017 0
M  V30 7140 H 691.293 1.46585 -3.9028 0
M  V30 7141 H 689.953 1.72004 -2.75399 0
M  V30 7142 H 690.964 -1.18429 -5.04177 0
M  V30 7143 H 687.641 1.17899 -4.00507 0
M  V30 7144 H 689.031 -2.08622 -6.38691 0
M  V30 7145 N 691.751 1.51645 -0.429126 0
M  V30 7146 C 692.681 2.30434 0.377148 0
M  V30 7147 C 693.662 1.35493 1.02838 0
M  V30 7148 O 694.847 1.6441 1.03359 0
M  V30 7149 C 691.977 3.14038 1.48315 0
M  V30 7150 C 690.931 4.1719 0.955855 0
M  V30 7151 C 690.257 4.89263 2.15698 0
M  V30 7152 C 691.557 5.223 -0.00402136 0
M  V30 7153 H 693.251 2.98085 -0.280336 0
M  V30 7154 H 690.797 1.43354 -0.136265 0
M  V30 7155 H 692.75 3.67933 2.05435 0
M  V30 7156 H 691.474 2.44193 2.16881 0
M  V30 7157 H 690.133 3.64335 0.406929 0
M  V30 7158 H 689.781 4.15929 2.82864 0
M  V30 7159 H 689.481 5.59009 1.81059 0
M  V30 7160 H 691.005 5.45978 2.73387 0
M  V30 7161 H 692.419 5.71315 0.476607 0
M  V30 7162 H 690.816 5.99525 -0.26258 0
M  V30 7163 H 691.886 4.75638 -0.943236 0
M  V30 7164 N 693.229 0.160201 1.56784 0
M  V30 7165 C 694.457 -0.494165 2.00912 0
M  V30 7166 C 694.872 -1.57548 1.04038 0
M  V30 7167 O 694.229 -1.82457 0.0394581 0
M  V30 7168 C 694.28 -1.08271 3.44905 0
M  V30 7169 O 694.001 -0.0445704 4.38077 0
M  V30 7170 C 695.502 -1.8164 4.04378 0
M  V30 7171 H 692.722 -0.127498 0.658776 0
M  V30 7172 H 695.266 0.258665 2.02858 0
M  V30 7173 H 693.421 -1.78609 3.4377 0
M  V30 7174 H 693.835 -0.477544 5.22322 0
M  V30 7175 H 695.309 -2.18094 5.07089 0
M  V30 7176 H 695.786 -2.70727 3.45838 0
M  V30 7177 H 696.392 -1.15969 4.09184 0
M  V30 7178 N 694.707 -1.5719 -0.113559 0
M  V30 7179 C 695.654 -2.00736 -1.13901 0
M  V30 7180 C 696.624 -0.88044 -1.40846 0
M  V30 7181 O 697.809 -1.14507 -1.5262 0
M  V30 7182 C 694.949 -2.42132 -2.45899 0
M  V30 7183 C 694.062 -3.68264 -2.25844 0
M  V30 7184 C 693.197 -3.98617 -3.5111 0
M  V30 7185 C 692.236 -5.17915 -3.26236 0
M  V30 7186 N 691.373 -5.44111 -4.4372 0
M  V30 7187 H 696.213 -2.88128 -0.760677 0
M  V30 7188 H 693.75 -1.42523 -0.364099 0
M  V30 7189 H 695.708 -2.6417 -3.22908 0
M  V30 7190 H 694.338 -1.57775 -2.81615 0
M  V30 7191 H 693.39 -3.53809 -1.39726 0
M  V30 7192 H 694.702 -4.55425 -2.03444 0
M  V30 7193 H 693.856 -4.21333 -4.36536 0
M  V30 7194 H 692.595 -3.09942 -3.76546 0
M  V30 7195 H 691.6 -4.95038 -2.39202 0
M  V30 7196 H 692.825 -6.08172 -3.02165 0
M  V30 7197 H 690.771 -4.58394 -4.69266 0
M  V30 7198 H 690.688 -6.25606 -4.24444 0
M  V30 7199 H 691.956 -5.71351 -5.30263 0
M  V30 7200 N 696.185 0.383891 -1.52853 0
M  V30 7201 C 697.115 1.47559 -1.80965 0
M  V30 7202 C 698.096 1.5669 -0.661986 0
M  V30 7203 O 699.281 1.71556 -0.910072 0
M  V30 7204 C 696.411 2.85114 -1.98312 0
M  V30 7205 C 695.365 2.9082 -3.14019 0
M  V30 7206 C 694.691 4.30873 -3.16627 0
M  V30 7207 C 695.991 2.60001 -4.52986 0
M  V30 7208 H 697.685 1.24283 -2.72386 0
M  V30 7209 H 695.231 0.596445 -1.31067 0
M  V30 7210 H 697.184 3.61496 -2.16561 0
M  V30 7211 H 695.908 3.09738 -1.03585 0
M  V30 7212 H 694.567 2.16886 -2.9556 0
M  V30 7213 H 694.215 4.52545 -2.19573 0
M  V30 7214 H 693.915 4.3561 -3.94357 0
M  V30 7215 H 695.439 5.09154 -3.37038 0
M  V30 7216 H 696.853 3.261 -4.71521 0
M  V30 7217 H 695.25 2.76081 -5.32822 0
M  V30 7218 H 696.32 1.5532 -4.59351 0
M  V30 7219 N 697.663 1.43903 0.642637 0
M  V30 7220 C 698.891 1.4954 1.42988 0
M  V30 7221 C 699.306 0.116588 1.8844 0
M  V30 7222 O 698.663 -0.875285 1.60141 0
M  V30 7223 C 698.714 2.45031 2.65785 0
M  V30 7224 O 698.435 3.77551 2.22232 0
M  V30 7225 C 699.936 2.60017 3.59035 0
M  V30 7226 H 697.156 0.507544 0.438907 0
M  V30 7227 H 699.7 1.88752 0.786942 0
M  V30 7228 H 697.855 2.08985 3.26196 0
M  V30 7229 H 698.269 4.29001 3.01759 0
M  V30 7230 H 699.743 3.30887 4.41835 0
M  V30 7231 H 700.22 1.64861 4.07084 0
M  V30 7232 H 700.826 2.96918 3.045 0
M  V30 7233 N 699.141 -0.881989 1.30609 0
M  V30 7234 C 700.088 -1.98803 1.17244 0
M  V30 7235 C 701.058 -1.65987 0.0611905 0
M  V30 7236 O 702.243 -1.89385 0.231911 0
M  V30 7237 C 699.383 -3.33867 0.87333 0
M  V30 7238 C 698.496 -3.79354 2.06675 0
M  V30 7239 C 697.631 -5.03078 1.70547 0
M  V30 7240 C 696.67 -5.40981 2.86366 0
M  V30 7241 N 695.807 -6.55886 2.50514 0
M  V30 7242 H 700.647 -2.09566 2.11863 0
M  V30 7243 H 698.184 -1.02607 1.05405 0
M  V30 7244 H 700.142 -4.11612 0.680519 0
M  V30 7245 H 698.772 -3.2278 -0.0359983 0
M  V30 7246 H 697.824 -2.97492 2.37071 0
M  V30 7247 H 699.136 -4.03382 2.93401 0
M  V30 7248 H 698.29 -5.88457 1.47658 0
M  V30 7249 H 697.029 -4.80927 0.809947 0
M  V30 7250 H 696.034 -4.54127 3.09917 0
M  V30 7251 H 697.259 -5.65104 3.76609 0
M  V30 7252 H 695.205 -6.35306 1.63471 0
M  V30 7253 H 695.122 -6.79799 3.30771 0
M  V30 7254 H 696.39 -7.44489 2.30989 0
M  V30 7255 N 700.619 -1.13374 -1.09472 0
M  V30 7256 C 701.529 -0.824029 -2.19652 0
M  V30 7257 C 702.545 0.19118 -1.72947 0
M  V30 7258 O 703.721 0.0223464 -2.01388 0
M  V30 7259 C 700.786 -0.294009 -3.45451 0
M  V30 7260 C 699.847 -1.3704 -4.0684 0
M  V30 7261 C 699.08 -0.86558 -5.26634 0
M  V30 7262 O 699.303 0.29702 -5.69626 0
M  V30 7263 O 698.237 -1.63968 -5.79136 0
M  V30 7264 H 702.063 -1.74454 -2.48595 0
M  V30 7265 H 699.648 -0.911155 -1.18399 0
M  V30 7266 H 701.53 -0.00381039 -4.214 0
M  V30 7267 H 700.205 0.598921 -3.18111 0
M  V30 7268 H 699.112 -1.71391 -3.3253 0
M  V30 7269 H 700.445 -2.23746 -4.38405 0
M  V30 7270 N 702.098 1.27442 -0.927168 0
M  V30 7271 C 703.03 2.25975 -0.383158 0
M  V30 7272 C 704.043 1.55382 0.485832 0
M  V30 7273 O 705.232 1.75986 0.298541 0
M  V30 7274 C 702.332 3.35629 0.469688 0
M  V30 7275 C 701.505 4.35747 -0.379886 0
M  V30 7276 C 700.564 5.24598 0.410227 0
M  V30 7277 O 699.59 5.68909 -0.181888 0
M  V30 7278 N 700.792 5.54737 1.71017 0
M  V30 7279 H 703.557 2.7329 -1.23015 0
M  V30 7280 H 701.118 1.41063 -0.794539 0
M  V30 7281 H 703.11 3.92015 1.00532 0
M  V30 7282 H 701.68 2.87919 1.21744 0
M  V30 7283 H 700.9 3.78634 -1.09682 0
M  V30 7284 H 702.188 4.99648 -0.960717 0
M  V30 7285 H 701.586 5.20594 2.21356 0
M  V30 7286 H 700.143 6.13824 2.19234 0
M  V30 7287 N 703.576 0.692616 1.41565 0
M  V30 7288 C 704.539 0.0344174 2.29174 0
M  V30 7289 C 705.539 -0.710961 1.44229 0
M  V30 7290 O 706.729 -0.546293 1.65412 0
M  V30 7291 C 703.861 -0.961682 3.27054 0
M  V30 7292 H 705.054 0.805755 2.88873 0
M  V30 7293 H 702.607 0.455947 1.49502 0
M  V30 7294 H 703.342 -1.76089 2.72329 0
M  V30 7295 H 703.127 -0.430375 3.89731 0
M  V30 7296 H 704.617 -1.4201 3.92712 0
M  V30 7297 N 705.054 -1.51416 0.437162 0
M  V30 7298 C 705.964 -2.31493 -0.380537 0
M  V30 7299 C 706.98 -1.40399 -1.02782 0
M  V30 7300 O 708.156 -1.73471 -1.02323 0
M  V30 7301 C 705.221 -3.1413 -1.46709 0
M  V30 7302 C 704.282 -4.21003 -0.839953 0
M  V30 7303 C 703.515 -4.9969 -1.87473 0
M  V30 7304 O 703.738 -4.79008 -3.09689 0
M  V30 7305 O 702.672 -5.8379 -1.46536 0
M  V30 7306 H 706.498 -3.02469 0.273183 0
M  V30 7307 H 704.083 -1.48059 0.199706 0
M  V30 7308 H 705.965 -3.65505 -2.09724 0
M  V30 7309 H 704.64 -2.45919 -2.10489 0
M  V30 7310 H 703.547 -3.73706 -0.171752 0
M  V30 7311 H 704.88 -4.91587 -0.245638 0
M  V30 7312 N 706.532 -0.168513 -1.56696 0
M  V30 7313 C 707.762 0.482802 -2.0088 0
M  V30 7314 C 708.17 1.57537 -1.0478 0
M  V30 7315 O 707.513 1.83656 -0.0402746 0
M  V30 7316 C 707.575 1.1236 -3.4149 0
M  V30 7317 C 707.239 0.173027 -4.56672 0
M  V30 7318 C 708.236 -0.607565 -5.16338 0
M  V30 7319 C 705.921 0.0696691 -5.02252 0
M  V30 7320 C 707.915 -1.47874 -6.2001 0
M  V30 7321 C 705.602 -0.805096 -6.05773 0
M  V30 7322 C 706.6 -1.57789 -6.64524 0
M  V30 7323 O 706.288 -2.43804 -7.66038 0
M  V30 7324 H 706.02 0.128246 -0.663723 0
M  V30 7325 H 708.574 -0.266532 -2.03663 0
M  V30 7326 H 706.804 1.921 -3.35611 0
M  V30 7327 H 708.493 1.67683 -3.69645 0
M  V30 7328 H 709.259 -0.53787 -4.82008 0
M  V30 7329 H 705.138 0.660957 -4.56237 0
M  V30 7330 H 708.682 -2.0824 -6.65794 0
M  V30 7331 H 704.579 -0.876005 -6.39528 0
M  V30 7332 H 705.347 -2.37289 -7.83349 0
M  V30 7333 N 708.01 1.57248 0.105221 0
M  V30 7334 C 708.94 2.04374 1.12931 0
M  V30 7335 C 709.921 0.93074 1.42377 0
M  V30 7336 O 711.106 1.20136 1.52581 0
M  V30 7337 C 708.236 2.45967 2.45189 0
M  V30 7338 C 707.19 3.60838 2.30174 0
M  V30 7339 C 706.516 3.88374 3.67518 0
M  V30 7340 C 707.816 4.92084 1.75073 0
M  V30 7341 H 709.51 2.9018 0.737287 0
M  V30 7342 H 707.056 1.39601 0.353211 0
M  V30 7343 H 709.009 2.77542 3.17094 0
M  V30 7344 H 707.733 1.57148 2.86308 0
M  V30 7345 H 706.392 3.29493 1.60716 0
M  V30 7346 H 706.04 2.96739 4.06147 0
M  V30 7347 H 705.74 4.65703 3.58321 0
M  V30 7348 H 707.264 4.22415 4.40906 0
M  V30 7349 H 708.678 5.22106 2.36809 0
M  V30 7350 H 707.075 5.73507 1.76662 0
M  V30 7351 H 708.145 4.79684 0.709347 0
M  V30 7352 N 709.488 -0.375779 1.53054 0
M  V30 7353 C 710.736 -1.11727 1.68409 0
M  V30 7354 C 711.057 -1.90127 0.43323 0
M  V30 7355 O 710.327 -1.87945 -0.552595 0
M  V30 7356 H 708.907 -0.415451 0.620813 0
M  V30 7357 H 711.569 -0.424869 1.90213 0
M  V30 7358 H 710.665 -1.8128 2.54055 0
M  V30 7359 N 710.966 -1.44241 -0.634997 0
M  V30 7360 C 712.212 -1.47038 -1.39669 0
M  V30 7361 C 712.545 -0.101122 -1.93937 0
M  V30 7362 O 711.82 0.880699 -1.73418 0
M  V30 7363 C 712.103 -2.52763 -2.56482 0
M  V30 7364 C 711.956 -3.99032 -2.07589 0
M  V30 7365 C 713.275 -2.55031 -3.58674 0
M  V30 7366 H 710.394 -0.53537 -0.506506 0
M  V30 7367 H 713.036 -1.75898 -0.718317 0
M  V30 7368 H 711.186 -2.28284 -3.14354 0
M  V30 7369 H 712.858 -4.3463 -1.54577 0
M  V30 7370 H 711.101 -4.10994 -1.38804 0
M  V30 7371 H 711.772 -4.68649 -2.91671 0
M  V30 7372 H 714.248 -2.76893 -3.10595 0
M  V30 7373 H 713.124 -3.30916 -4.37934 0
M  V30 7374 H 713.385 -1.59085 -4.12486 0
M  V30 7375 N 712.444 0.87505 -1.31075 0
M  V30 7376 C 713.721 1.60976 -1.11113 0
M  V30 7377 C 714.101 2.08409 0.336006 0
M  V30 7378 O 713.449 1.85858 1.32924 0
M  V30 7379 C 713.659 2.77166 -2.12085 0
M  V30 7380 C 715.007 3.47254 -2.44335 0
M  V30 7381 O 716.031 2.87367 -2.10472 0
M  V30 7382 O 714.89 4.55276 -3.02301 0
M  V30 7383 H 711.984 0.707982 -0.427424 0
M  V30 7384 H 714.53 0.920957 -1.42536 0
M  V30 7385 H 713.302 2.39494 -3.09449 0
M  V30 7386 H 712.925 3.53737 -1.81538 0
M  V30 7387 N 713.922 1.13953 1.08869 0
M  V30 7388 C 715.168 0.906151 1.8143 0
M  V30 7389 C 715.501 -0.566089 1.85766 0
M  V30 7390 O 714.776 -1.41915 1.33006 0
M  V30 7391 C 715.059 1.50183 3.27287 0
M  V30 7392 C 714.912 3.04359 3.31189 0
M  V30 7393 C 716.231 1.17477 4.24131 0
M  V30 7394 H 713.35 0.330624 0.658678 0
M  V30 7395 H 715.992 1.40873 1.27495 0
M  V30 7396 H 714.142 1.07442 3.73348 0
M  V30 7397 H 715.814 3.55896 2.93488 0
M  V30 7398 H 714.057 3.39053 2.70602 0
M  V30 7399 H 714.728 3.41141 4.33966 0
M  V30 7400 H 717.204 1.5442 3.86385 0
M  V30 7401 H 716.08 1.61795 5.24513 0
M  V30 7402 H 716.341 0.0893312 4.4201 0
M  V30 7403 N 715.4 -1.26948 0.933913 0
M  V30 7404 C 716.31 -2.30366 0.443671 0
M  V30 7405 C 717.326 -1.67284 -0.478745 0
M  V30 7406 O 718.502 -1.98156 -0.360043 0
M  V30 7407 C 715.567 -3.45485 -0.289974 0
M  V30 7408 C 714.628 -4.24069 0.668114 0
M  V30 7409 C 713.861 -5.33691 -0.0306138 0
M  V30 7410 O 714.084 -5.5656 -1.24888 0
M  V30 7411 O 713.018 -5.98441 0.644384 0
M  V30 7412 H 716.844 -2.74349 1.30254 0
M  V30 7413 H 714.429 -1.32012 0.699506 0
M  V30 7414 H 716.311 -4.15486 -0.70353 0
M  V30 7415 H 714.986 -3.03546 -1.12435 0
M  V30 7416 H 713.893 -3.56579 1.13147 0
M  V30 7417 H 715.226 -4.69739 1.46989 0
M  V30 7418 N 716.879 -0.700114 -1.41195 0
M  V30 7419 C 718.127 -0.232546 -2.00758 0
M  V30 7420 C 718.448 1.1734 -1.55745 0
M  V30 7421 O 717.718 1.79262 -0.790058 0
M  V30 7422 H 716.298 -0.0829845 -0.742376 0
M  V30 7423 H 718.96 -0.902289 -1.72756 0
M  V30 7424 H 718.056 -0.253521 -3.11069 0
M  V30 7425 N 718.357 1.51182 -0.445186 0
M  V30 7426 C 719.768 1.86693 0.0160999 0
M  V30 7427 C 720.119 1.36183 1.4124 0
M  V30 7428 O 719.244 0.715895 2.04215 0
M  V30 7429 C 719.839 3.38781 0.0359918 0
M  V30 7430 C 718.398 3.73799 0.441715 0
M  V30 7431 C 717.545 2.74947 -0.360511 0
M  V30 7432 H 720.496 1.44294 -0.660674 0
M  V30 7433 H 720.517 3.71026 0.843813 0
M  V30 7434 H 720.029 3.75513 -0.980378 0
M  V30 7435 H 718.13 3.42659 1.4634 0
M  V30 7436 H 718.243 4.78829 0.16106 0
M  V30 7437 H 716.607 2.54047 0.182269 0
M  V30 7438 H 717.39 3.14521 -1.3759 0
M  V30 7439 N 719.835 0.176821 1.56605 0
M  V30 7440 C 721.065 -0.472142 2.01133 0
M  V30 7441 C 721.473 -1.56979 1.05614 0
M  V30 7442 O 720.816 -1.83632 0.0500137 0
M  V30 7443 C 720.878 -1.10547 3.42081 0
M  V30 7444 C 720.542 -0.148806 4.56758 0
M  V30 7445 C 721.539 0.634939 5.16008 0
M  V30 7446 C 719.224 -0.0430325 5.02282 0
M  V30 7447 C 721.218 1.5116 6.19217 0
M  V30 7448 C 718.905 0.83721 6.05338 0
M  V30 7449 C 719.903 1.61311 6.63677 0
M  V30 7450 O 719.591 2.47863 7.64735 0
M  V30 7451 H 719.323 -0.124725 0.664394 0
M  V30 7452 H 721.877 0.277329 2.03519 0
M  V30 7453 H 720.107 -1.90318 3.36625 0
M  V30 7454 H 721.796 -1.6572 3.70529 0
M  V30 7455 H 722.562 0.563424 4.81716 0
M  V30 7456 H 718.441 -0.636753 4.56581 0
M  V30 7457 H 721.985 2.11767 6.64681 0
M  V30 7458 H 717.882 0.909908 6.39055 0
M  V30 7459 H 718.65 2.4144 7.8208 0
M  V30 7460 N 721.313 -1.57302 -0.09688 0
M  V30 7461 C 722.26 -2.01933 -1.11766 0
M  V30 7462 C 723.23 -0.895329 -1.39904 0
M  V30 7463 O 724.415 -1.16119 -1.51397 0
M  V30 7464 C 721.555 -2.44726 -2.43317 0
M  V30 7465 C 720.668 -3.70639 -2.21925 0
M  V30 7466 C 719.803 -4.02318 -3.46862 0
M  V30 7467 C 718.842 -5.21346 -3.20725 0
M  V30 7468 N 717.979 -5.48787 -4.37924 0
M  V30 7469 H 722.819 -2.88919 -0.730075 0
M  V30 7470 H 720.356 -1.42901 -0.348962 0
M  V30 7471 H 722.314 -2.6758 -3.20088 0
M  V30 7472 H 720.944 -1.60753 -2.79926 0
M  V30 7473 H 719.996 -3.55271 -1.35965 0
M  V30 7474 H 721.308 -4.57557 -1.98603 0
M  V30 7475 H 720.462 -4.25939 -4.32042 0
M  V30 7476 H 719.201 -3.13918 -3.73238 0
M  V30 7477 H 718.206 -4.97547 -2.33938 0
M  V30 7478 H 719.431 -6.11343 -2.95697 0
M  V30 7479 H 717.377 -4.63346 -4.64378 0
M  V30 7480 H 717.294 -6.30073 -4.17785 0
M  V30 7481 H 718.562 -5.76943 -5.24173 0
M  V30 7482 N 722.791 0.367657 -1.53252 0
M  V30 7483 C 724.202 0.944563 -1.61043 0
M  V30 7484 C 724.553 1.90325 -0.476546 0
M  V30 7485 O 723.678 2.12721 0.397333 0
M  V30 7486 C 724.273 1.71992 -2.91898 0
M  V30 7487 C 722.832 2.2462 -3.02031 0
M  V30 7488 C 721.979 1.05799 -2.56324 0
M  V30 7489 H 724.93 0.146516 -1.58022 0
M  V30 7490 H 724.951 2.58095 -2.79584 0
M  V30 7491 H 724.463 1.02192 -3.74404 0
M  V30 7492 H 722.564 2.97668 -2.24108 0
M  V30 7493 H 722.677 2.52644 -4.07073 0
M  V30 7494 H 721.041 1.42435 -2.1115 0
M  V30 7495 H 721.824 0.375008 -3.41246 0
M  V30 7496 N 724.269 1.44576 0.627338 0
M  V30 7497 C 725.546 1.38033 1.38586 0
M  V30 7498 C 725.926 0.0409468 2.1106 0
M  V30 7499 O 725.274 -0.976582 2.0658 0
M  V30 7500 C 725.484 2.58102 2.34913 0
M  V30 7501 C 726.832 3.02332 2.98129 0
M  V30 7502 O 727.856 2.58334 2.45238 0
M  V30 7503 O 726.715 3.78628 3.94085 0
M  V30 7504 H 723.809 0.546801 0.620434 0
M  V30 7505 H 726.355 1.56672 0.652077 0
M  V30 7506 H 725.127 3.4719 1.80485 0
M  V30 7507 H 724.75 2.41696 3.15703 0
M  V30 7508 N 725.747 -0.868086 1.31537 0
M  V30 7509 C 726.697 -1.96321 1.1594 0
M  V30 7510 C 727.681 -1.60748 0.0698962 0
M  V30 7511 O 728.873 -1.74524 0.295011 0
M  V30 7512 C 726.002 -3.32073 0.870789 0
M  V30 7513 C 725.088 -3.73907 2.00136 0
M  V30 7514 N 725.479 -3.87685 3.24859 0
M  V30 7515 C 723.777 -4.03433 1.90152 0
M  V30 7516 C 724.478 -4.23454 3.98825 0
M  V30 7517 N 723.454 -4.34242 3.27009 0
M  V30 7518 H 727.256 -2.05088 2.10514 0
M  V30 7519 H 724.77 -1.059 1.23122 0
M  V30 7520 H 726.767 -4.10279 0.740034 0
M  V30 7521 H 725.427 -3.24631 -0.0667068 0
M  V30 7522 H 726.438 -3.72363 3.59953 0
M  V30 7523 H 723.115 -4.0437 1.03879 0
M  V30 7524 H 724.505 -4.41696 5.06314 0
M  V30 7525 N 727.225 -1.14528 -1.08264 0
M  V30 7526 C 728.455 -0.936604 -1.8415 0
M  V30 7527 C 728.863 0.518298 -1.81962 0
M  V30 7528 O 728.206 1.37096 -1.22272 0
M  V30 7529 C 728.268 -1.36182 -3.32708 0
M  V30 7530 C 727.932 -2.83257 -3.58629 0
M  V30 7531 C 728.929 -3.81366 -3.5335 0
M  V30 7532 C 726.614 -3.20704 -3.86593 0
M  V30 7533 C 728.608 -5.14929 -3.75668 0
M  V30 7534 C 726.295 -4.54443 -4.08564 0
M  V30 7535 C 727.293 -5.51365 -4.03095 0
M  V30 7536 O 726.981 -6.8269 -4.24488 0
M  V30 7537 H 726.713 -0.333254 -0.588148 0
M  V30 7538 H 729.267 -1.5247 -1.3763 0
M  V30 7539 H 727.497 -0.717063 -3.79994 0
M  V30 7540 H 729.186 -1.12372 -3.90035 0
M  V30 7541 H 729.952 -3.53781 -3.31759 0
M  V30 7542 H 725.831 -2.45857 -3.89969 0
M  V30 7543 H 729.375 -5.90568 -3.71315 0
M  V30 7544 H 725.272 -4.81747 -4.29639 0
M  V30 7545 H 726.04 -6.8897 -4.41886 0
M  V30 7546 N 728.703 1.26451 -0.940633 0
M  V30 7547 C 730.119 1.4608 -0.642859 0
M  V30 7548 C 730.319 1.84765 0.803998 0
M  V30 7549 O 729.375 1.96902 1.58069 0
M  V30 7550 C 730.688 2.54359 -1.60381 0
M  V30 7551 C 732.236 2.6821 -1.61345 0
M  V30 7552 C 732.711 3.79659 -2.56169 0
M  V30 7553 N 734.202 3.87051 -2.54452 0
M  V30 7554 C 734.937 4.72739 -3.24507 0
M  V30 7555 N 734.433 5.6282 -4.03987 0
M  V30 7556 N 736.226 4.66581 -3.13462 0
M  V30 7557 H 728.377 0.996289 -1.87584 0
M  V30 7558 H 730.64 0.498921 -0.80609 0
M  V30 7559 H 730.346 2.32758 -2.6366 0
M  V30 7560 H 730.22 3.52005 -1.35545 0
M  V30 7561 H 732.607 2.89184 -0.587913 0
M  V30 7562 H 732.688 1.7101 -1.90235 0
M  V30 7563 H 732.332 3.59438 -3.58841 0
M  V30 7564 H 732.262 4.76315 -2.2457 0
M  V30 7565 H 734.753 3.22649 -1.96739 0
M  V30 7566 H 735.066 6.25095 -4.54396 0
M  V30 7567 H 733.411 5.62574 -4.08088 0
M  V30 7568 H 736.602 3.9521 -2.50852 0
M  V30 7569 H 736.775 5.33141 -3.68327 0
M  V30 7570 N 730.181 0.707592 1.40822 0
M  V30 7571 C 731.411 0.252706 2.05049 0
M  V30 7572 C 731.819 -1.10758 1.53393 0
M  V30 7573 O 731.162 -1.70567 0.682097 0
M  V30 7574 C 731.224 0.146001 3.59203 0
M  V30 7575 C 730.888 1.44027 4.33711 0
M  V30 7576 C 731.885 2.38058 4.62195 0
M  V30 7577 C 729.57 1.69698 4.72766 0
M  V30 7578 C 731.564 3.56013 5.28709 0
M  V30 7579 C 729.251 2.87936 5.39014 0
M  V30 7580 C 730.249 3.80915 5.66915 0
M  V30 7581 O 729.937 4.9708 6.31796 0
M  V30 7582 H 729.669 0.112784 0.666525 0
M  V30 7583 H 732.223 0.96417 1.81364 0
M  V30 7584 H 730.453 -0.621338 3.81676 0
M  V30 7585 H 732.142 -0.273275 4.04979 0
M  V30 7586 H 732.908 2.19487 4.32493 0
M  V30 7587 H 728.787 0.981835 4.50423 0
M  V30 7588 H 732.331 4.28604 5.50404 0
M  V30 7589 H 728.228 3.06419 5.68135 0
M  V30 7590 H 728.996 4.97053 6.50293 0
M  V30 7591 O 731.698 -1.50133 0.595165 0
M  V30 7592 H 732.389 -1.93424 0.103425 0
M  V30 END ATOM
M  V30 BEGIN BOND
M  V30 END BOND
M  V30 END CTAB
M  END
$$$$
