drugbank_target|P9WHH7 NAD(P)H dehydrogenase (quinone) (DB03147)
 OpenBabel12092120263D

  0  0  0     0  0            999 V3000
M  V30 BEGIN CTAB
M  V30 COUNTS 7299 7354 0 0 0
M  V30 BEGIN ATOM
M  V30 1 H -0.908 1.98254 -0.117106 0
M  V30 2 N 0 1.576 0 0
M  V30 3 C 0.933 2.03868 1.02534 0
M  V30 4 C 1.911 0.928543 1.3348 0
M  V30 5 O 3.095 1.19667 1.45644 0
M  V30 6 C 0.222 2.43627 2.35294 0
M  V30 7 C -0.732 3.65373 2.2001 0
M  V30 8 S 0.101 5.13292 1.52614 0
M  V30 9 C 1.257 5.56322 2.86805 0
M  V30 10 H 1.49 2.90518 0.631377 0
M  V30 11 H -0.977 1.52953 0.210867 0
M  V30 12 H 0.981 2.67203 3.11629 0
M  V30 13 H -0.358 1.57376 2.7183 0
M  V30 14 H -1.165 3.90944 3.18086 0
M  V30 15 H -1.563 3.418 1.51819 0
M  V30 16 H 0.729 5.58782 3.83104 0
M  V30 17 H 1.672 6.56266 2.65933 0
M  V30 18 H 2.08 4.83886 2.90714 0
M  V30 19 N 1.4781 -0.272755 1.55222 0
M  V30 20 C 2.7241 -1.00581 1.761 0
M  V30 21 C 3.0571 -1.85932 0.560625 0
M  V30 22 O 2.3321 -1.89416 -0.441801 0
M  V30 23 C 2.6151 -1.88816 3.06628 0
M  V30 24 C 2.4681 -1.06457 4.37021 0
M  V30 25 C 3.7871 -2.8752 3.33197 0
M  V30 26 H 0.9061 -0.364244 0.640699 0
M  V30 27 H 3.5481 -0.278189 1.87952 0
M  V30 28 H 1.6981 -2.50856 2.96654 0
M  V30 29 H 3.3701 -0.464863 4.58952 0
M  V30 30 H 1.6131 -0.368043 4.32236 0
M  V30 31 H 2.2841 -1.71514 5.24678 0
M  V30 32 H 4.7601 -2.35615 3.42965 0
M  V30 33 H 3.6361 -3.46399 4.25792 0
M  V30 34 H 3.8971 -3.62657 2.52849 0
M  V30 35 N 2.9562 -1.48159 -0.537278 0
M  V30 36 C 4.1842 -1.59454 -1.31841 0
M  V30 37 C 4.5992 -0.252065 -1.8711 0
M  V30 38 O 3.9562 0.757621 -1.66031 0
M  V30 39 C 4.0072 -2.63546 -2.47439 0
M  V30 40 O 3.7282 -3.92583 -1.94449 0
M  V30 41 C 5.2292 -2.85212 -3.39366 0
M  V30 42 H 2.4492 -0.53785 -0.401196 0
M  V30 43 H 4.9932 -1.93932 -0.648891 0
M  V30 44 H 3.1482 -2.31946 -3.1029 0
M  V30 45 H 3.5622 -4.49629 -2.70063 0
M  V30 46 H 5.0362 -3.61863 -4.16844 0
M  V30 47 H 5.5132 -1.93765 -3.94147 0
M  V30 48 H 6.1192 -3.18086 -2.82314 0
M  V30 49 N 4.4343 0.785586 -1.36625 0
M  V30 50 C 5.8503 1.08419 -1.17122 0
M  V30 51 C 6.0503 2.015 0.00208491 0
M  V30 52 O 5.1063 2.43551 0.666278 0
M  V30 53 C 6.4193 1.69498 -2.48377 0
M  V30 54 C 7.9673 1.81821 -2.54775 0
M  V30 55 C 8.4423 2.46315 -3.86126 0
M  V30 56 N 9.9333 2.53779 -3.87492 0
M  V30 57 C 10.6683 3.045 -4.85868 0
M  V30 58 N 10.1643 3.55499 -5.94637 0
M  V30 59 N 11.9573 3.03247 -4.73284 0
M  V30 60 H 4.1083 0.167264 -2.1174 0
M  V30 61 H 6.3713 0.13682 -0.938075 0
M  V30 62 H 6.0773 1.08571 -3.34522 0
M  V30 63 H 5.9513 2.6896 -2.64462 0
M  V30 64 H 8.3383 2.41884 -1.69045 0
M  V30 65 H 8.4193 0.811532 -2.42586 0
M  V30 66 H 8.0633 1.86895 -4.72263 0
M  V30 67 H 7.9933 3.47561 -3.95612 0
M  V30 68 H 10.4843 2.17672 -3.08913 0
M  V30 69 H 10.7973 3.92562 -6.65669 0
M  V30 70 H 9.1423 3.5364 -5.98301 0
M  V30 71 H 12.3333 2.62696 -3.87438 0
M  V30 72 H 12.5063 3.42467 -5.50109 0
M  V30 73 N 5.9124 1.20967 1.01018 0
M  V30 74 C 7.1614 1.01796 1.74128 0
M  V30 75 C 7.4744 -0.449691 1.90361 0
M  V30 76 O 8.6804 -0.76068 2.60626 0
M  V30 77 C 7.1364 1.7727 3.13215 0
M  V30 78 C 6.7444 3.28171 3.04972 0
M  V30 79 C 8.4884 1.66489 3.90489 0
M  V30 80 C 6.3954 3.96156 4.39107 0
M  V30 81 H 5.3254 0.377276 0.652824 0
M  V30 82 H 7.9764 1.44651 1.12909 0
M  V30 83 H 6.3584 1.27205 3.75013 0
M  V30 84 H 7.5324 3.85499 2.52443 0
M  V30 85 H 5.8474 3.39437 2.41188 0
M  V30 86 H 8.4444 2.14617 4.89738 0
M  V30 87 H 8.7874 0.6222 4.11624 0
M  V30 88 H 9.3204 2.14003 3.35332 0
M  V30 89 H 6.0594 5.00604 4.23174 0
M  V30 90 H 5.5794 3.43617 4.91617 0
M  V30 91 H 7.2584 4.00774 5.07926 0
M  V30 92 N 7.3905 -1.2043 1.01659 0
M  V30 93 C 8.6365 -1.90079 0.706963 0
M  V30 94 C 8.9695 -1.78648 -0.761474 0
M  V30 95 O 8.2445 -1.17069 -1.55323 0
M  V30 96 C 8.5275 -3.41469 1.14327 0
M  V30 97 C 8.3805 -3.61833 2.67201 0
M  V30 98 C 9.6995 -4.34261 0.714529 0
M  V30 99 H 6.8185 -0.690254 0.2583 0
M  V30 100 H 9.4605 -1.41826 1.26433 0
M  V30 101 H 7.6105 -3.82696 0.669056 0
M  V30 102 H 9.2825 -3.2986 3.22475 0
M  V30 103 H 7.5255 -3.05304 3.08175 0
M  V30 104 H 8.1965 -4.67955 2.92783 0
M  V30 105 H 10.6725 -4.00682 1.12221 0
M  V30 106 H 9.5485 -5.38806 1.04784 0
M  V30 107 H 9.8095 -4.40431 -0.383799 0
M  V30 108 N 8.8686 -0.792821 -1.36206 0
M  V30 109 C 10.1176 -0.363353 -1.984 0
M  V30 110 C 10.4306 1.07172 -1.63626 0
M  V30 111 O 11.6366 1.60362 -2.19081 0
M  V30 112 C 10.0926 -0.59872 -3.54885 0
M  V30 113 C 9.7006 -2.04543 -3.9858 0
M  V30 114 C 11.4446 -0.233926 -4.23855 0
M  V30 115 C 9.3516 -2.22727 -5.47856 0
M  V30 116 H 8.2816 -0.13212 -0.742334 0
M  V30 117 H 10.9326 -0.974935 -1.55458 0
M  V30 118 H 9.3146 0.0826222 -3.95914 0
M  V30 119 H 10.4886 -2.76345 -3.68741 0
M  V30 120 H 8.8036 -2.36879 -3.42458 0
M  V30 121 H 11.4006 -0.348027 -5.33566 0
M  V30 122 H 11.7436 0.818351 -4.08177 0
M  V30 123 H 12.2766 -0.868639 -3.882 0
M  V30 124 H 9.0156 -3.2635 -5.68486 0
M  V30 125 H 8.5356 -1.55434 -5.7931 0
M  V30 126 H 10.2146 -2.03607 -6.14128 0
M  V30 127 N 10.3467 1.47872 -0.545128 0
M  V30 128 C 11.2767 2.32661 0.197793 0
M  V30 129 C 12.2577 1.43041 0.920504 0
M  V30 130 O 13.4427 1.71912 0.90333 0
M  V30 131 C 10.5727 3.24569 1.23582 0
M  V30 132 C 9.5267 4.23333 0.630323 0
M  V30 133 C 8.8527 5.0448 1.77211 0
M  V30 134 C 10.1527 5.20704 -0.407974 0
M  V30 135 H 11.8467 2.95024 -0.510045 0
M  V30 136 H 9.3927 1.4187 -0.246731 0
M  V30 137 H 11.3457 3.8272 1.76362 0
M  V30 138 H 10.0697 2.60236 1.97344 0
M  V30 139 H 8.7287 3.6639 0.123922 0
M  V30 140 H 8.3767 4.36561 2.49847 0
M  V30 141 H 8.0767 5.71339 1.37281 0
M  V30 142 H 9.6007 5.65487 2.3034 0
M  V30 143 H 11.0147 5.7329 0.033305 0
M  V30 144 H 9.4117 5.95699 -0.725486 0
M  V30 145 H 10.4817 4.66917 -1.30828 0
M  V30 146 N 11.8248 0.280983 1.55075 0
M  V30 147 C 13.0728 -0.333455 1.9933 0
M  V30 148 C 13.3938 -1.55937 1.17085 0
M  V30 149 O 12.6638 -1.94143 0.261805 0
M  V30 150 H 11.2438 -0.126197 0.736263 0
M  V30 151 H 13.9058 0.387678 1.91005 0
M  V30 152 H 13.0018 -0.619292 3.05894 0
M  V30 153 N 13.3029 -1.57598 0.00835791 0
M  V30 154 C 14.5509 -1.90551 -0.6734 0
M  V30 155 C 14.8719 -0.883301 -1.73847 0
M  V30 156 O 14.1419 0.0781442 -1.95744 0
M  V30 157 H 12.7219 -0.703312 -0.251717 0
M  V30 158 H 15.3839 -1.94833 0.0512592 0
M  V30 159 H 14.4799 -2.9056 -1.13935 0
M  V30 160 N 14.781 0.264519 -1.55364 0
M  V30 161 C 16.029 0.993021 -1.76021 0
M  V30 162 C 16.35 1.86511 -0.569099 0
M  V30 163 O 15.62 1.91438 0.415735 0
M  V30 164 H 14.2 0.369639 -0.649135 0
M  V30 165 H 16.862 0.286707 -1.9278 0
M  V30 166 H 15.958 1.62502 -2.66457 0
M  V30 167 N 16.2591 1.48442 0.529413 0
M  V30 168 C 17.6701 1.5002 1.11134 0
M  V30 169 C 18.0211 0.27031 1.94329 0
M  V30 170 O 17.1461 -0.622507 2.07253 0
M  V30 171 C 17.7411 2.71834 2.02217 0
M  V30 172 C 16.3001 2.76283 2.55627 0
M  V30 173 C 15.4471 2.43542 1.326 0
M  V30 174 H 18.3981 1.5555 0.314641 0
M  V30 175 H 18.4191 2.50384 2.8651 0
M  V30 176 H 17.9311 3.61331 1.41639 0
M  V30 177 H 16.0321 1.90995 3.19924 0
M  V30 178 H 16.1451 3.77725 2.94721 0
M  V30 179 H 14.5091 1.94709 1.64196 0
M  V30 180 H 15.2921 3.3528 0.737734 0
M  V30 181 N 17.7372 -0.778329 1.37039 0
M  V30 182 C 18.7002 -1.87301 1.32102 0
M  V30 183 C 19.7002 -1.59198 0.226405 0
M  V30 184 O 20.8902 -1.67403 0.481861 0
M  V30 185 C 18.0222 -3.24309 1.05055 0
M  V30 186 H 19.2152 -1.93093 2.29467 0
M  V30 187 H 16.7682 -0.977358 1.21973 0
M  V30 188 H 17.5032 -3.24196 0.0819373 0
M  V30 189 H 17.2882 -3.46098 1.84279 0
M  V30 190 H 18.7782 -4.04382 1.04234 0
M  V30 191 N 19.2153 -1.21501 -1.00376 0
M  V30 192 C 20.4633 -1.03095 -1.73827 0
M  V30 193 C 20.7843 0.436341 -1.90055 0
M  V30 194 O 20.0543 1.31466 -1.45236 0
M  V30 195 H 18.6343 -0.378487 -0.644016 0
M  V30 196 H 21.2963 -1.52831 -1.20949 0
M  V30 197 H 20.3923 -1.49991 -2.73695 0
M  V30 198 N 20.6934 1.19889 -1.02296 0
M  V30 199 C 21.9234 1.93109 -0.734332 0
M  V30 200 C 22.3314 1.75377 0.709889 0
M  V30 201 O 21.6744 1.06912 1.49384 0
M  V30 202 C 21.7364 3.45362 -0.99827 0
M  V30 203 C 21.4004 3.8686 -2.43287 0
M  V30 204 C 22.3974 3.92102 -3.41397 0
M  V30 205 C 20.0824 4.18668 -2.77529 0
M  V30 206 C 22.0764 4.28573 -4.71809 0
M  V30 207 C 19.7634 4.54813 -4.08153 0
M  V30 208 C 20.7614 4.59739 -5.05103 0
M  V30 209 O 20.4494 4.95051 -6.33388 0
M  V30 210 H 20.1814 0.620409 -0.268456 0
M  V30 211 H 22.7354 1.53144 -1.3688 0
M  V30 212 H 20.9654 3.85482 -0.306645 0
M  V30 213 H 22.6544 3.99814 -0.700234 0
M  V30 214 H 23.4204 3.67685 -3.1628 0
M  V30 215 H 19.2994 4.14021 -2.0275 0
M  V30 216 H 22.8434 4.32333 -5.4748 0
M  V30 217 H 18.7404 4.78687 -4.33047 0
M  V30 218 H 19.5084 5.1302 -6.37772 0
M  V30 219 N 22.1715 0.800033 1.35784 0
M  V30 220 C 23.0815 0.207204 2.33683 0
M  V30 221 C 24.0975 -0.64631 1.61551 0
M  V30 222 O 25.2735 -0.559604 1.93469 0
M  V30 223 C 22.3385 -0.639659 3.40748 0
M  V30 224 C 21.3995 0.233585 4.28664 0
M  V30 225 C 20.6325 -0.572954 5.30616 0
M  V30 226 O 20.8555 -1.80816 5.40982 0
M  V30 227 O 19.7895 0.0327285 6.01891 0
M  V30 228 H 23.6155 1.01692 2.86169 0
M  V30 229 H 21.2005 0.561691 1.38439 0
M  V30 230 H 23.0825 -1.12223 4.06182 0
M  V30 231 H 21.7575 -1.42708 2.90544 0
M  V30 232 H 20.6645 0.763147 3.66233 0
M  V30 233 H 21.9975 0.984784 4.82248 0
M  V30 234 N 23.6496 -1.47581 0.552962 0
M  V30 235 C 24.6126 -2.28439 -0.186605 0
M  V30 236 C 25.6126 -1.36706 -0.84665 0
M  V30 237 O 26.8026 -1.59378 -0.703164 0
M  V30 238 C 23.9346 -3.16264 -1.2724 0
M  V30 239 H 25.1276 -2.95294 0.523609 0
M  V30 240 H 22.6806 -1.532 0.309745 0
M  V30 241 H 23.4156 -2.54091 -2.01514 0
M  V30 242 H 23.2006 -3.83769 -0.803968 0
M  V30 243 H 24.6906 -3.77198 -1.79196 0
M  V30 244 N 25.1277 -0.289203 -1.54924 0
M  V30 245 C 26.0907 0.579144 -2.21762 0
M  V30 246 C 27.0907 1.07047 -1.1999 0
M  V30 247 O 28.2807 0.968384 -1.44803 0
M  V30 248 C 25.4127 1.80055 -2.8947 0
M  V30 249 H 26.6057 -0.00464908 -2.999 0
M  V30 250 H 24.1587 -0.0399306 -1.56249 0
M  V30 251 H 24.8937 2.42449 -2.15381 0
M  V30 252 H 24.6787 1.45602 -3.64064 0
M  V30 253 H 26.1687 2.41773 -3.40493 0
M  V30 254 N 26.6058 1.57591 -0.0167156 0
M  V30 255 C 27.5358 2.12496 0.967858 0
M  V30 256 C 28.5168 1.03807 1.34752 0
M  V30 257 O 29.7018 1.31577 1.42833 0
M  V30 258 C 26.8318 2.64194 2.25431 0
M  V30 259 C 25.7858 3.77559 2.01576 0
M  V30 260 C 25.1118 4.15636 3.36379 0
M  V30 261 C 26.4118 5.04151 1.36489 0
M  V30 262 H 28.1058 2.95013 0.510643 0
M  V30 263 H 25.6518 1.41915 0.244181 0
M  V30 264 H 27.6048 3.01236 2.94678 0
M  V30 265 H 26.3288 1.78821 2.73296 0
M  V30 266 H 24.9878 3.40937 1.34751 0
M  V30 267 H 24.6358 3.27263 3.81979 0
M  V30 268 H 24.3358 4.92022 3.21229 0
M  V30 269 H 25.8598 4.5525 4.06915 0
M  V30 270 H 27.2738 5.38857 1.95718 0
M  V30 271 H 25.6708 5.85453 1.31776 0
M  V30 272 H 26.7408 4.83733 0.336219 0
M  V30 273 N 28.0839 -0.256276 1.55502 0
M  V30 274 C 29.3299 -0.987079 1.77157 0
M  V30 275 C 29.6629 -1.85327 0.580315 0
M  V30 276 O 28.9379 -1.89874 -0.421686 0
M  V30 277 C 29.2209 -1.85553 3.08613 0
M  V30 278 C 29.0739 -1.01816 4.38125 0
M  V30 279 C 30.3929 -2.8397 3.36228 0
M  V30 280 H 27.5119 -0.357428 0.644526 0
M  V30 281 H 30.1539 -0.258239 1.88237 0
M  V30 282 H 28.3039 -2.47695 2.99298 0
M  V30 283 H 29.9759 -0.416159 4.59419 0
M  V30 284 H 28.2189 -0.322178 4.32602 0
M  V30 285 H 28.8899 -1.65939 5.26468 0
M  V30 286 H 31.3659 -2.31964 3.45445 0
M  V30 287 H 30.2419 -3.41864 4.29442 0
M  V30 288 H 30.5029 -3.59955 2.56681 0
M  V30 289 N 29.562 -1.4872 -0.521534 0
M  V30 290 C 30.525 -1.63379 -1.60748 0
M  V30 291 C 31.525 -0.50661 -1.52611 0
M  V30 292 O 32.715 -0.772601 -1.5613 0
M  V30 293 C 29.847 -1.61192 -3.00383 0
M  V30 294 H 31.04 -2.60217 -1.49087 0
M  V30 295 H 28.593 -1.37444 -0.744235 0
M  V30 296 H 29.328 -0.65863 -3.17541 0
M  V30 297 H 29.113 -2.43032 -3.07698 0
M  V30 298 H 30.603 -1.7466 -3.7932 0
M  V30 299 N 31.0401 0.771051 -1.3745 0
M  V30 300 C 32.0031 1.86598 -1.33093 0
M  V30 301 C 33.0031 1.59076 -0.234845 0
M  V30 302 O 34.1931 1.67145 -0.490732 0
M  V30 303 C 31.3251 3.23747 -1.06773 0
M  V30 304 H 32.5181 1.91873 -2.30488 0
M  V30 305 H 30.0711 0.970876 -1.2249 0
M  V30 306 H 30.8061 3.24148 -0.099129 0
M  V30 307 H 30.5911 3.45115 -1.86112 0
M  V30 308 H 32.0811 4.03824 -1.06377 0
M  V30 309 N 32.5182 1.22032 0.997298 0
M  V30 310 C 33.7462 1.06841 1.7718 0
M  V30 311 C 34.1612 -0.381325 1.84909 0
M  V30 312 O 33.5182 -1.26437 1.31605 0
M  V30 313 C 33.5692 1.66814 3.20711 0
M  V30 314 O 33.2902 3.06116 3.13408 0
M  V30 315 C 34.7912 1.56838 4.14628 0
M  V30 316 H 32.0112 0.374782 0.556578 0
M  V30 317 H 34.5552 1.61532 1.2541 0
M  V30 318 H 32.7102 1.16196 3.69564 0
M  V30 319 H 33.1242 3.34926 4.0364 0
M  V30 320 H 34.5982 2.03532 5.13107 0
M  V30 321 H 35.0752 0.524155 4.36061 0
M  V30 322 H 35.6812 2.06741 3.7167 0
M  V30 323 N 33.9963 -1.19345 1.0293 0
M  V30 324 C 35.2213 -1.93538 0.745511 0
M  V30 325 C 35.6463 -1.75007 -0.689511 0
M  V30 326 O 35.0043 -1.05265 -1.47611 0
M  V30 327 C 35.0523 -3.43336 1.10239 0
M  V30 328 O 34.1563 -4.11806 0.221289 0
M  V30 329 H 33.4973 -0.604193 0.275404 0
M  V30 330 H 36.0273 -1.5141 1.37609 0
M  V30 331 H 36.0373 -3.94004 1.05947 0
M  V30 332 H 34.7123 -3.56146 2.14786 0
M  V30 333 H 33.2893 -3.715 0.322842 0
M  V30 334 N 35.4744 -0.807222 -1.35358 0
M  V30 335 C 36.4244 -0.190706 -2.27201 0
M  V30 336 C 37.4084 0.635838 -1.47804 0
M  V30 337 O 38.6004 0.492991 -1.69996 0
M  V30 338 C 35.7294 0.659337 -3.36909 0
M  V30 339 C 34.8154 -0.176971 -4.23731 0
M  V30 340 N 35.2064 -1.24029 -4.90357 0
M  V30 341 C 33.5044 0.0412953 -4.45981 0
M  V30 342 C 34.2054 -1.75092 -5.54723 0
M  V30 343 N 33.1814 -1.05727 -5.33219 0
M  V30 344 H 36.9834 -1.0043 -2.76208 0
M  V30 345 H 34.4974 -0.648445 -1.48892 0
M  V30 346 H 36.4944 1.11706 -4.01656 0
M  V30 347 H 35.1544 1.47127 -2.89454 0
M  V30 348 H 36.1654 -1.62295 -4.91814 0
M  V30 349 H 32.8424 0.82232 -4.09322 0
M  V30 350 H 34.2324 -2.63963 -6.17878 0
M  V30 351 N 36.9525 1.47285 -0.560781 0
M  V30 352 C 38.3635 1.86258 -0.128343 0
M  V30 353 C 38.7145 1.46699 1.30284 0
M  V30 354 O 37.8395 0.871698 1.98067 0
M  V30 355 C 38.4345 3.38044 -0.22614 0
M  V30 356 C 36.9935 3.76096 0.151283 0
M  V30 357 C 36.1405 2.71335 -0.572084 0
M  V30 358 H 39.0915 1.38752 -0.770297 0
M  V30 359 H 39.1125 3.76441 0.554322 0
M  V30 360 H 38.6245 3.66806 -1.26788 0
M  V30 361 H 36.7255 3.52951 1.19399 0
M  V30 362 H 36.8385 4.78641 -0.209765 0
M  V30 363 H 35.2025 2.54696 -0.0147653 0
M  V30 364 H 35.9855 3.02938 -1.61504 0
M  V30 365 N 38.4306 0.297415 1.54768 0
M  V30 366 C 39.3406 -0.58983 2.27064 0
M  V30 367 C 40.3566 -1.15144 1.30453 0
M  V30 368 O 41.5326 -1.17699 1.63428 0
M  V30 369 C 38.5976 -1.74714 2.9946 0
M  V30 370 C 37.6586 -1.21997 4.11601 0
M  V30 371 C 36.8916 -2.32212 4.80535 0
M  V30 372 O 37.1146 -3.52036 4.48806 0
M  V30 373 O 36.0486 -1.99106 5.68014 0
M  V30 374 H 39.8746 -0.00348199 3.037 0
M  V30 375 H 37.4596 0.0640035 1.49263 0
M  V30 376 H 39.3416 -2.42147 3.44881 0
M  V30 377 H 38.0166 -2.32016 2.25722 0
M  V30 378 H 36.9236 -0.511458 3.70587 0
M  V30 379 H 38.2566 -0.692419 4.87305 0
M  V30 380 N 39.9087 -1.5758 0.0250728 0
M  V30 381 C 41.1367 -1.9593 -0.664747 0
M  V30 382 C 41.5517 -0.901352 -1.65895 0
M  V30 383 O 40.9087 0.117255 -1.82123 0
M  V30 384 C 40.9597 -3.34342 -1.37468 0
M  V30 385 O 40.6807 -4.36079 -0.420324 0
M  V30 386 C 42.1817 -3.873 -2.1567 0
M  V30 387 H 39.4017 -0.645405 -0.183557 0
M  V30 388 H 41.9457 -2.04329 0.0836372 0
M  V30 389 H 40.1007 -3.27175 -2.0745 0
M  V30 390 H 40.5147 -5.16297 -0.923991 0
M  V30 391 H 41.9887 -4.86504 -2.60803 0
M  V30 392 H 42.4657 -3.21331 -2.99405 0
M  V30 393 H 43.0717 -3.97723 -1.50654 0
M  V30 394 N 41.3868 0.248026 -1.55636 0
M  V30 395 C 42.6148 0.993808 -1.81469 0
M  V30 396 C 43.0298 1.78991 -0.60064 0
M  V30 397 O 42.3868 1.77345 0.430682 0
M  V30 398 C 42.4378 1.93258 -3.05506 0
M  V30 399 O 42.1588 1.16869 -4.22224 0
M  V30 400 C 43.6598 2.79444 -3.4413 0
M  V30 401 H 40.8798 0.292486 -0.603898 0
M  V30 402 H 43.4238 0.271253 -2.02693 0
M  V30 403 H 41.5788 2.60943 -2.86335 0
M  V30 404 H 41.9928 1.80359 -4.92515 0
M  V30 405 H 43.4668 3.41066 -4.34026 0
M  V30 406 H 43.9438 3.50499 -2.64665 0
M  V30 407 H 44.5498 2.17214 -3.65648 0
M  V30 408 N 42.8649 1.48995 0.513639 0
M  V30 409 C 43.7969 1.60836 1.63293 0
M  V30 410 C 44.8099 0.491701 1.55197 0
M  V30 411 O 45.9989 0.763238 1.6136 0
M  V30 412 C 43.0989 1.53731 3.02027 0
M  V30 413 C 42.2719 2.80715 3.35437 0
M  V30 414 C 41.3309 2.66837 4.53525 0
M  V30 415 O 40.3569 3.40753 4.55934 0
M  V30 416 N 41.5589 1.77539 5.52684 0
M  V30 417 H 44.3239 2.57366 1.53566 0
M  V30 418 H 41.8849 1.45925 0.701259 0
M  V30 419 H 43.8769 1.42118 3.78926 0
M  V30 420 H 42.4469 0.651092 3.05744 0
M  V30 421 H 41.6669 3.06772 2.47557 0
M  V30 422 H 42.9549 3.64927 3.54551 0
M  V30 423 H 42.3529 1.16719 5.53528 0
M  V30 424 H 40.9099 1.71856 6.28736 0
M  V30 425 N 44.343 -0.763751 1.37857 0
M  V30 426 C 45.589 -1.52483 1.33704 0
M  V30 427 C 45.922 -1.94051 -0.0759612 0
M  V30 428 O 45.197 -1.64675 -1.03501 0
M  V30 429 C 45.48 -2.78441 2.28348 0
M  V30 430 C 45.333 -2.43075 3.78463 0
M  V30 431 C 46.652 -3.80415 2.21298 0
M  V30 432 H 43.771 -0.553169 0.487005 0
M  V30 433 H 46.413 -0.875562 1.68624 0
M  V30 434 H 44.563 -3.33842 1.987 0
M  V30 435 H 46.235 -1.93527 4.18742 0
M  V30 436 H 44.478 -1.75666 3.96641 0
M  V30 437 H 45.149 -3.33149 4.40132 0
M  V30 438 H 47.625 -3.34527 2.47449 0
M  V30 439 H 46.501 -4.66257 2.89647 0
M  V30 440 H 46.762 -4.25262 1.20849 0
M  V30 441 N 45.8211 -1.22559 -0.990812 0
M  V30 442 C 47.0491 -1.07779 -1.76611 0
M  V30 443 C 47.4641 0.371513 -1.85109 0
M  V30 444 O 46.8211 1.25737 -1.32274 0
M  V30 445 C 46.8721 -1.68512 -3.19822 0
M  V30 446 O 46.5931 -3.07774 -3.1178 0
M  V30 447 C 48.0941 -1.59035 -4.13791 0
M  V30 448 H 45.3141 -0.377729 -0.554583 0
M  V30 449 H 47.8581 -1.62195 -1.24551 0
M  V30 450 H 46.0131 -1.18154 -3.68942 0
M  V30 451 H 46.4271 -3.37062 -4.01858 0
M  V30 452 H 47.9011 -2.0625 -5.1202 0
M  V30 453 H 48.3781 -0.547273 -4.35777 0
M  V30 454 H 48.9841 -2.08709 -3.70568 0
M  V30 455 N 47.2992 1.18797 -1.03562 0
M  V30 456 C 48.5452 1.8893 -0.737113 0
M  V30 457 C 48.8782 1.79837 0.732956 0
M  V30 458 O 48.1532 1.19525 1.5344 0
M  V30 459 C 48.4362 3.39607 -1.19745 0
M  V30 460 C 48.2892 3.57537 -2.72924 0
M  V30 461 C 49.6082 4.33069 -0.783526 0
M  V30 462 H 46.7272 0.686057 -0.269249 0
M  V30 463 H 49.3692 1.39797 -1.28673 0
M  V30 464 H 47.5192 3.81583 -0.729855 0
M  V30 465 H 49.1912 3.24688 -3.27682 0
M  V30 466 H 47.4342 3.00363 -3.12993 0
M  V30 467 H 48.1052 4.63238 -3.00191 0
M  V30 468 H 50.5812 3.98846 -1.18581 0
M  V30 469 H 49.4572 5.3707 -1.13343 0
M  V30 470 H 49.7182 4.40986 0.313681 0
M  V30 471 N 48.7773 0.814389 1.34928 0
M  V30 472 C 50.0263 0.394871 1.97797 0
M  V30 473 C 50.3393 -1.04555 1.65311 0
M  V30 474 O 51.5453 -1.56856 2.21604 0
M  V30 475 C 50.0013 0.655103 3.53888 0
M  V30 476 C 49.6093 2.10858 3.95276 0
M  V30 477 C 51.3533 0.301329 4.23429 0
M  V30 478 C 49.2603 2.31415 5.44244 0
M  V30 479 H 48.1903 0.143913 0.740139 0
M  V30 480 H 50.8413 0.999544 1.53888 0
M  V30 481 H 49.2233 -0.0196253 3.95995 0
M  V30 482 H 50.3973 2.82176 3.64298 0
M  V30 483 H 48.7123 2.42297 3.38646 0
M  V30 484 H 51.3093 0.432869 5.32945 0
M  V30 485 H 51.6523 -0.75331 4.09428 0
M  V30 486 H 52.1853 0.930288 3.86769 0
M  V30 487 H 48.9243 3.35353 5.63222 0
M  V30 488 H 48.4443 1.6463 5.76764 0
M  V30 489 H 50.1233 2.13352 6.10811 0
M  V30 490 N 50.2554 -1.46986 0.568584 0
M  V30 491 C 51.5324 -1.95592 -0.0174074 0
M  V30 492 C 51.9124 -1.51124 -1.47393 0
M  V30 493 O 51.2604 -0.755329 -2.15655 0
M  V30 494 C 51.4704 -3.48719 0.139913 0
M  V30 495 C 52.8184 -4.246 0.000426376 0
M  V30 496 O 53.8424 -3.56135 0.0680316 0
M  V30 497 O 52.7014 -5.46302 -0.146988 0
M  V30 498 H 49.7954 -0.82498 -0.0577599 0
M  V30 499 H 52.3414 -1.57335 0.635909 0
M  V30 500 H 51.1134 -3.73927 1.15301 0
M  V30 501 H 50.7364 -3.93771 -0.550491 0
M  V30 502 N 51.7335 -0.305618 -1.54608 0
M  V30 503 C 52.9735 0.303114 -2.0214 0
M  V30 504 C 53.3375 1.50737 -1.18921 0
M  V30 505 O 54.5385 2.18778 -1.56172 0
M  V30 506 C 52.8095 0.646332 -3.51507 0
M  V30 507 S 54.3685 1.23727 -4.20995 0
M  V30 508 H 51.1865 0.0927643 -0.704923 0
M  V30 509 H 53.7885 -0.434566 -1.90609 0
M  V30 510 H 52.4925 -0.238541 -4.09706 0
M  V30 511 H 52.0235 1.41468 -3.67084 0
M  V30 512 H 54.0385 2.52489 -4.27158 0
M  V30 513 N 53.2116 1.57565 -0.0334293 0
M  V30 514 C 54.4886 1.83282 0.683163 0
M  V30 515 C 54.8686 0.91823 1.90084 0
M  V30 516 O 54.2166 -0.025113 2.28486 0
M  V30 517 C 54.4266 3.32599 1.0573 0
M  V30 518 C 55.7746 3.99179 1.44711 0
M  V30 519 O 56.7986 3.3712 1.15015 0
M  V30 520 O 55.6576 5.08565 2.0006 0
M  V30 521 H 52.7516 0.755869 0.335546 0
M  V30 522 H 55.2976 1.69589 -0.0614402 0
M  V30 523 H 54.0696 3.90834 0.190828 0
M  V30 524 H 53.6926 3.51415 1.85993 0
M  V30 525 N 54.6897 -0.239769 1.55765 0
M  V30 526 C 55.9377 -0.964892 1.77579 0
M  V30 527 C 56.2587 -1.85582 0.598699 0
M  V30 528 O 55.5287 -1.92075 -0.385226 0
M  V30 529 H 54.1087 -0.359265 0.654933 0
M  V30 530 H 56.7707 -0.256001 1.93211 0
M  V30 531 H 55.8667 -1.58243 2.69009 0
M  V30 532 N 56.1678 -1.49265 -0.50573 0
M  V30 533 C 57.4168 -1.57761 -1.25675 0
M  V30 534 C 57.7298 -0.267371 -1.93764 0
M  V30 535 O 58.9358 -0.230827 -2.70517 0
M  V30 536 C 57.3918 -2.78332 -2.28165 0
M  V30 537 C 56.9998 -4.16096 -1.66037 0
M  V30 538 C 58.7438 -2.96155 -3.04125 0
M  V30 539 C 56.6508 -5.27895 -2.6661 0
M  V30 540 H 55.5808 -0.587391 -0.472745 0
M  V30 541 H 58.2318 -1.75644 -0.53118 0
M  V30 542 H 56.6138 -2.53934 -3.03865 0
M  V30 543 H 57.7878 -4.50612 -0.963622 0
M  V30 544 H 56.1028 -4.03591 -1.02484 0
M  V30 545 H 58.6998 -3.76849 -3.79327 0
M  V30 546 H 59.0428 -2.06534 -3.61455 0
M  V30 547 H 59.5758 -3.2057 -2.35541 0
M  V30 548 H 56.3148 -6.1956 -2.14068 0
M  V30 549 H 55.8348 -4.97839 -3.34539 0
M  V30 550 H 57.5138 -5.57031 -3.29129 0
M  V30 551 N 57.6459 0.756429 -1.3826 0
M  V30 552 C 58.8939 1.51248 -1.34047 0
M  V30 553 C 59.2149 1.94875 0.0698372 0
M  V30 554 O 58.4849 1.67436 1.01696 0
M  V30 555 H 57.0649 0.561018 -0.493222 0
M  V30 556 H 59.7269 0.899347 -1.7291 0
M  V30 557 H 58.8229 2.40472 -1.98947 0
M  V30 558 N 59.124 1.23083 0.984299 0
M  V30 559 C 60.372 1.05848 1.72165 0
M  V30 560 C 60.693 -0.406049 1.90726 0
M  V30 561 O 59.963 -1.29139 1.47309 0
M  V30 562 H 58.543 0.388685 0.637913 0
M  V30 563 H 61.205 1.54736 1.18503 0
M  V30 564 H 60.301 1.54327 2.71274 0
M  V30 565 N 60.6021 -1.18246 1.0419 0
M  V30 566 C 61.5651 -2.20128 0.638452 0
M  V30 567 C 62.5651 -1.57885 -0.304805 0
M  V30 568 O 63.7551 -1.73967 -0.0900369 0
M  V30 569 C 60.8871 -3.4084 -0.0637751 0
M  V30 570 H 62.0801 -2.57336 1.54007 0
M  V30 571 H 59.6331 -1.32152 0.834598 0
M  V30 572 H 60.3681 -3.09166 -0.979136 0
M  V30 573 H 60.1531 -3.8726 0.614198 0
M  V30 574 H 61.6431 -4.16274 -0.332512 0
M  V30 575 N 62.0802 -0.821533 -1.34494 0
M  V30 576 C 63.0432 -0.247847 -2.27856 0
M  V30 577 C 64.0432 0.573453 -1.50227 0
M  V30 578 O 65.2332 0.389759 -1.69784 0
M  V30 579 C 62.3652 0.652698 -3.34593 0
M  V30 580 H 63.5582 -1.07146 -2.80107 0
M  V30 581 H 61.1112 -0.593291 -1.44602 0
M  V30 582 H 61.8462 1.49943 -2.87555 0
M  V30 583 H 61.6312 0.065292 -3.92046 0
M  V30 584 H 63.1212 1.04793 -4.04238 0
M  V30 585 N 63.5583 1.46682 -0.576371 0
M  V30 586 C 64.8043 2.02712 -0.0596221 0
M  V30 587 C 65.1373 1.44765 1.29448 0
M  V30 588 O 64.4123 0.610355 1.84675 0
M  V30 589 C 64.6953 3.60098 0.0129503 0
M  V30 590 C 64.5483 4.28441 -1.3696 0
M  V30 591 C 65.8673 4.34224 0.71678 0
M  V30 592 H 62.9863 0.736637 -0.0231407 0
M  V30 593 H 65.6283 1.74898 -0.742351 0
M  V30 594 H 63.7783 3.83926 0.594378 0
M  V30 595 H 65.4503 4.15896 -1.9957 0
M  V30 596 H 63.6933 3.8805 -1.93907 0
M  V30 597 H 64.3643 5.3716 -1.27135 0
M  V30 598 H 66.8403 4.15503 0.222908 0
M  V30 599 H 65.7163 5.43936 0.73657 0
M  V30 600 H 65.9773 4.04823 1.77682 0
M  V30 601 N 65.0364 0.313813 1.54444 0
M  V30 602 C 65.9664 -0.549454 2.26943 0
M  V30 603 C 66.9474 -1.12741 1.27372 0
M  V30 604 O 68.1324 -1.15436 1.56167 0
M  V30 605 C 65.2624 -1.71523 3.01989 0
M  V30 606 C 64.2164 -1.26703 4.08816 0
M  V30 607 C 63.5424 -2.51898 4.71647 0
M  V30 608 C 64.8424 -0.388962 5.2085 0
M  V30 609 H 66.5364 0.0552661 2.99349 0
M  V30 610 H 64.0824 0.0280207 1.43973 0
M  V30 611 H 66.0354 -2.32535 3.51433 0
M  V30 612 H 64.7594 -2.34639 2.27183 0
M  V30 613 H 63.4184 -0.679896 3.6024 0
M  V30 614 H 63.0664 -3.13356 3.93468 0
M  V30 615 H 62.7664 -2.22605 5.43802 0
M  V30 616 H 64.2904 -3.1369 5.23861 0
M  V30 617 H 65.7044 -0.905107 5.6611 0
M  V30 618 H 64.1014 -0.18924 5.99802 0
M  V30 619 H 65.1714 0.582699 4.81386 0
M  V30 620 N 66.5145 -1.57545 0.0417849 0
M  V30 621 C 67.7915 -1.83642 -0.673433 0
M  V30 622 C 68.1715 -0.928298 -1.89594 0
M  V30 623 O 67.5195 0.0129955 -2.28496 0
M  V30 624 C 67.7295 -3.33155 -1.03964 0
M  V30 625 C 69.0775 -3.99941 -1.42592 0
M  V30 626 O 70.1015 -3.37725 -1.13226 0
M  V30 627 O 68.9605 -5.09619 -1.9736 0
M  V30 628 H 66.0545 -0.757638 -0.331533 0
M  V30 629 H 68.6005 -1.69554 0.070433 0
M  V30 630 H 67.3725 -3.9093 -0.170098 0
M  V30 631 H 66.9955 -3.52396 -1.84126 0
M  V30 632 N 67.9926 0.231505 -1.5589 0
M  V30 633 C 69.2696 0.981096 -1.69215 0
M  V30 634 C 69.6496 2.02799 -0.586164 0
M  V30 635 O 68.9976 2.24823 0.408253 0
M  V30 636 C 69.2076 1.60054 -3.10135 0
M  V30 637 C 70.5556 2.09658 -3.69227 0
M  V30 638 O 71.5796 1.69967 -3.13033 0
M  V30 639 O 70.4386 2.8258 -4.67772 0
M  V30 640 H 67.5326 0.457653 -0.688827 0
M  V30 641 H 70.0786 0.224073 -1.68214 0
M  V30 642 H 68.8506 0.844105 -3.82087 0
M  V30 643 H 68.4736 2.42336 -3.15212 0
M  V30 644 N 69.4707 1.49531 0.497807 0
M  V30 645 C 70.7107 1.60799 1.26187 0
M  V30 646 C 71.0747 0.289627 1.89803 0
M  V30 647 O 72.2757 0.277512 2.67364 0
M  V30 648 C 70.5467 2.73729 2.29798 0
M  V30 649 S 72.1057 3.04968 3.155 0
M  V30 650 H 68.9237 0.567145 0.428798 0
M  V30 651 H 71.5257 1.87204 0.563477 0
M  V30 652 H 70.2297 3.68036 1.81597 0
M  V30 653 H 69.7607 2.49328 3.04301 0
M  V30 654 H 71.7757 2.46735 4.30507 0
M  V30 655 N 70.9488 -0.749086 1.3866 0
M  V30 656 C 72.1948 -1.51056 1.35314 0
M  V30 657 C 72.5278 -1.94121 -0.0553751 0
M  V30 658 O 71.8028 -1.65763 -1.01749 0
M  V30 659 C 72.0858 -2.76003 2.31288 0
M  V30 660 C 71.9388 -2.39047 3.8102 0
M  V30 661 C 73.2578 -3.78046 2.2532 0
M  V30 662 H 70.3768 -0.547972 0.492844 0
M  V30 663 H 73.0188 -0.857628 1.69543 0
M  V30 664 H 71.1688 -3.31716 2.02229 0
M  V30 665 H 72.8408 -1.89074 4.20771 0
M  V30 666 H 71.0838 -1.71449 3.98482 0
M  V30 667 H 71.7548 -3.28462 4.4364 0
M  V30 668 H 74.2308 -3.31884 2.50983 0
M  V30 669 H 73.1068 -4.63159 2.94576 0
M  V30 670 H 73.3678 -4.23957 1.25352 0
M  V30 671 N 72.4269 -1.23603 -0.977757 0
M  V30 672 C 73.8379 -1.06424 -1.53398 0
M  V30 673 C 74.1889 0.367578 -1.92726 0
M  V30 674 O 73.3139 1.25465 -1.76316 0
M  V30 675 C 73.9089 -1.92568 -2.78753 0
M  V30 676 C 72.4679 -1.79642 -3.30765 0
M  V30 677 C 71.6149 -1.88111 -2.03739 0
M  V30 678 H 74.5659 -1.37227 -0.797152 0
M  V30 679 H 74.5869 -1.45203 -3.51705 0
M  V30 680 H 74.0989 -2.96771 -2.50098 0
M  V30 681 H 72.1999 -0.782325 -3.64294 0
M  V30 682 H 72.3129 -2.63174 -4.00345 0
M  V30 683 H 70.6769 -1.31723 -2.17994 0
M  V30 684 H 71.4599 -2.93875 -1.77461 0
M  V30 685 N 73.905 1.17692 -1.04816 0
M  V30 686 C 75.13 1.92327 -0.776207 0
M  V30 687 C 75.555 1.76082 0.661581 0
M  V30 688 O 74.913 1.076 1.45917 0
M  V30 689 C 74.961 3.41539 -1.15687 0
M  V30 690 O 74.065 4.11402 -0.286775 0
M  V30 691 H 73.406 0.599735 -0.284981 0
M  V30 692 H 75.936 1.49201 -1.4 0
M  V30 693 H 75.946 3.92269 -1.12202 0
M  V30 694 H 74.621 3.52684 -2.20425 0
M  V30 695 H 73.198 3.70939 -0.381903 0
M  V30 696 N 75.3831 0.828654 1.34056 0
M  V30 697 C 76.3301 0.252567 2.29414 0
M  V30 698 C 77.3001 -0.62588 1.53857 0
M  V30 699 O 78.4851 -0.566312 1.82202 0
M  V30 700 C 75.6251 -0.574831 3.40279 0
M  V30 701 C 74.7381 0.326499 4.30764 0
M  V30 702 C 73.8731 -0.511016 5.28736 0
M  V30 703 C 72.9121 0.389342 6.1086 0
M  V30 704 N 72.0491 -0.409439 7.00905 0
M  V30 705 H 76.8891 1.07108 2.78086 0
M  V30 706 H 74.4261 0.539677 1.36843 0
M  V30 707 H 76.3841 -1.06992 4.03248 0
M  V30 708 H 75.0141 -1.35841 2.92826 0
M  V30 709 H 74.0661 0.939837 3.68607 0
M  V30 710 H 75.3781 1.01857 4.88289 0
M  V30 711 H 74.5321 -1.07035 5.97184 0
M  V30 712 H 73.2711 -1.23657 4.71763 0
M  V30 713 H 72.2761 0.960769 5.4134 0
M  V30 714 H 73.5011 1.1131 6.69916 0
M  V30 715 H 71.4471 -1.11856 6.46393 0
M  V30 716 H 71.3641 0.224126 7.55668 0
M  V30 717 H 72.6321 -0.951336 7.73673 0
M  V30 718 N 76.8612 -1.46375 0.584142 0
M  V30 719 C 78.0892 -2.06761 0.0759296 0
M  V30 720 C 78.5042 -1.43266 -1.22965 0
M  V30 721 O 77.8612 -0.538458 -1.74376 0
M  V30 722 C 77.9122 -3.61375 -0.0950384 0
M  V30 723 O 77.6332 -4.22495 1.15887 0
M  V30 724 C 79.1342 -4.38693 -0.637434 0
M  V30 725 H 76.3542 -0.668479 0.0581075 0
M  V30 726 H 78.8982 -1.8798 0.805218 0
M  V30 727 H 77.0532 -3.79578 -0.774554 0
M  V30 728 H 77.4672 -5.15385 0.973598 0
M  V30 729 H 78.9412 -5.47464 -0.706237 0
M  V30 730 H 79.4182 -4.06836 -1.65472 0
M  V30 731 H 80.0242 -4.25299 0.00725967 0
M  V30 732 N 78.3393 -0.321999 -1.54275 0
M  V30 733 C 79.5863 0.281044 -2.0054 0
M  V30 734 C 79.9143 1.52265 -1.21019 0
M  V30 735 O 79.1693 1.93687 -0.279982 0
M  V30 736 C 79.4683 0.661769 -3.5122 0
M  V30 737 C 79.1343 -0.480482 -4.48333 0
M  V30 738 C 77.7963 -0.794005 -4.74604 0
M  V30 739 C 80.1483 -1.24783 -5.06042 0
M  V30 740 C 77.4763 -1.87763 -5.55844 0
M  V30 741 C 79.8283 -2.32153 -5.88462 0
M  V30 742 C 78.4923 -2.64089 -6.13036 0
M  V30 743 H 77.7623 0.102841 -0.733829 0
M  V30 744 H 80.4093 -0.445453 -1.86247 0
M  V30 745 H 78.7143 1.46867 -3.63232 0
M  V30 746 H 80.4113 1.13989 -3.84457 0
M  V30 747 H 77.0013 -0.226039 -4.28004 0
M  V30 748 H 81.1853 -1.01887 -4.85729 0
M  V30 749 H 76.4413 -2.12954 -5.73115 0
M  V30 750 H 80.6153 -2.92057 -6.32199 0
M  V30 751 H 78.2423 -3.48185 -6.75775 0
M  V30 752 N 79.8174 1.5752 -0.0501392 0
M  V30 753 C 81.0664 1.91827 0.623328 0
M  V30 754 C 81.3794 0.930222 1.72065 0
M  V30 755 O 82.5854 1.1653 2.4522 0
M  V30 756 C 81.0414 3.40692 1.16003 0
M  V30 757 C 80.6494 4.479 0.0948811 0
M  V30 758 C 82.3934 3.84034 1.80881 0
M  V30 759 C 80.3004 5.87879 0.644411 0
M  V30 760 H 79.2304 0.715918 0.236596 0
M  V30 761 H 81.8814 1.83115 -0.118861 0
M  V30 762 H 80.2634 3.44405 1.9545 0
M  V30 763 H 81.4374 4.55775 -0.678675 0
M  V30 764 H 79.7524 4.13892 -0.45637 0
M  V30 765 H 82.3494 4.85984 2.22988 0
M  V30 766 H 82.6924 3.20225 2.6601 0
M  V30 767 H 83.2254 3.82833 1.0809 0
M  V30 768 H 79.9644 6.55282 -0.169229 0
M  V30 769 H 79.4844 5.83567 1.38598 0
M  V30 770 H 81.1634 6.37098 1.12763 0
M  V30 771 N 81.2955 -0.223234 1.56011 0
M  V30 772 C 82.2585 -1.26014 1.9145 0
M  V30 773 C 83.2585 -1.3989 0.792937 0
M  V30 774 O 84.4485 -1.38184 1.0607 0
M  V30 775 C 81.5805 -2.63422 2.16383 0
M  V30 776 H 82.7735 -0.95796 2.84189 0
M  V30 777 H 80.3265 -0.463576 1.49267 0
M  V30 778 H 81.0615 -2.98741 1.2619 0
M  V30 779 H 80.8465 -2.54728 2.98088 0
M  V30 780 H 82.3365 -3.38249 2.44903 0
M  V30 781 N 82.7736 -1.49793 -0.48987 0
M  V30 782 C 83.9986 -1.63836 -1.27172 0
M  V30 783 C 84.4236 -0.31402 -1.8546 0
M  V30 784 O 83.7816 0.719803 -1.66399 0
M  V30 785 C 83.8296 -2.71797 -2.36978 0
M  V30 786 O 82.9336 -2.31744 -3.41128 0
M  V30 787 H 82.2746 -0.547997 -0.37496 0
M  V30 788 H 84.8046 -1.96053 -0.585191 0
M  V30 789 H 84.8146 -2.94305 -2.82575 0
M  V30 790 H 83.4896 -3.67923 -1.93921 0
M  V30 791 H 82.0666 -2.1961 -3.01373 0
M  V30 792 N 84.2517 0.741722 -1.39055 0
M  V30 793 C 85.4797 1.53098 -1.39171 0
M  V30 794 C 85.8947 1.88794 0.0155099 0
M  V30 795 O 85.2517 1.53626 0.985159 0
M  V30 796 C 85.3027 2.82274 -2.2584 0
M  V30 797 O 85.0237 2.48097 -3.61081 0
M  V30 798 C 86.5247 3.76343 -2.34266 0
M  V30 799 H 83.7447 0.473335 -0.4756 0
M  V30 800 H 86.2887 0.917045 -1.82785 0
M  V30 801 H 84.4437 3.40015 -1.85656 0
M  V30 802 H 84.8577 3.31029 -4.06842 0
M  V30 803 H 86.3317 4.63898 -2.9917 0
M  V30 804 H 86.8087 4.17619 -1.35982 0
M  V30 805 H 87.4147 3.24523 -2.74891 0
M  V30 806 N 85.7298 1.2412 0.971189 0
M  V30 807 C 86.9778 1.07668 1.71032 0
M  V30 808 C 87.2988 -0.385797 1.91146 0
M  V30 809 O 86.5688 -1.27569 1.4867 0
M  V30 810 H 85.1488 0.395429 0.633755 0
M  V30 811 H 87.8108 1.55984 1.16855 0
M  V30 812 H 86.9068 1.57195 2.69622 0
M  V30 813 N 87.2079 -1.17134 1.05439 0
M  V30 814 C 88.1379 -2.2342 0.678649 0
M  V30 815 C 89.1189 -1.66971 -0.32476 0
M  V30 816 O 90.3039 -1.93149 -0.201802 0
M  V30 817 C 87.4339 -3.47256 0.0552099 0
M  V30 818 C 86.3879 -4.16543 0.98365 0
M  V30 819 C 85.7139 -5.34231 0.223961 0
M  V30 820 C 87.0139 -4.68495 2.3089 0
M  V30 821 H 88.7079 -2.55105 1.56722 0
M  V30 822 H 86.2539 -1.2262 0.754998 0
M  V30 823 H 88.2069 -4.20828 -0.21946 0
M  V30 824 H 86.9309 -3.14846 -0.868319 0
M  V30 825 H 85.5899 -3.44887 1.24293 0
M  V30 826 H 85.2379 -4.98071 -0.702412 0
M  V30 827 H 84.9379 -5.81527 0.842627 0
M  V30 828 H 86.4619 -6.10585 -0.0433671 0
M  V30 829 H 87.8759 -5.33691 2.09396 0
M  V30 830 H 86.2729 -5.26379 2.88176 0
M  V30 831 H 87.3429 -3.85169 2.94572 0
M  V30 832 N 88.686 -0.835752 -1.33615 0
M  V30 833 C 90.102 -0.523139 -1.50783 0
M  V30 834 C 90.302 0.950171 -1.77691 0
M  V30 835 O 89.358 1.73411 -1.83534 0
M  V30 836 C 90.671 -1.39378 -2.66448 0
M  V30 837 C 92.219 -1.39223 -2.80332 0
M  V30 838 C 92.694 -2.24765 -3.99055 0
M  V30 839 N 94.185 -2.22458 -4.06284 0
M  V30 840 C 94.92 -2.85386 -4.97336 0
M  V30 841 N 94.416 -3.57354 -5.93523 0
M  V30 842 N 96.209 -2.74872 -4.90308 0
M  V30 843 H 88.36 -1.78952 -1.14411 0
M  V30 844 H 90.623 -0.763297 -0.562212 0
M  V30 845 H 90.329 -2.44061 -2.53234 0
M  V30 846 H 90.203 -1.0676 -3.61776 0
M  V30 847 H 92.59 -0.353136 -2.92979 0
M  V30 848 H 92.671 -1.75846 -1.85773 0
M  V30 849 H 92.315 -3.28732 -3.87167 0
M  V30 850 H 92.245 -1.85485 -4.92852 0
M  V30 851 H 94.736 -1.70119 -3.37443 0
M  V30 852 H 95.049 -4.02584 -6.59656 0
M  V30 853 H 93.394 -3.61461 -5.93608 0
M  V30 854 H 96.585 -2.18213 -4.14126 0
M  V30 855 H 96.758 -3.24199 -5.61069 0
M  V30 856 N 90.1641 1.46063 -0.591896 0
M  V30 857 C 91.3921 2.06717 -0.0868936 0
M  V30 858 C 91.8071 1.43916 1.22203 0
M  V30 859 O 91.1641 0.547698 1.74088 0
M  V30 860 C 91.2151 3.6142 0.0758725 0
M  V30 861 O 90.9361 4.21874 -1.18126 0
M  V30 862 C 92.4371 4.39025 0.61416 0
M  V30 863 H 89.6571 0.668162 -0.0616518 0
M  V30 864 H 92.2011 1.8755 -0.815175 0
M  V30 865 H 90.3561 3.79983 0.754413 0
M  V30 866 H 90.7701 5.14861 -1.00092 0
M  V30 867 H 92.2441 5.4783 0.677193 0
M  V30 868 H 92.7211 4.07708 1.63312 0
M  V30 869 H 93.3271 4.2529 -0.0298142 0
M  V30 870 N 91.6422 0.330177 1.54103 0
M  V30 871 C 92.5522 -0.541534 2.28264 0
M  V30 872 C 93.5682 -1.12351 1.32866 0
M  V30 873 O 94.7442 -1.14206 1.65888 0
M  V30 874 C 91.8092 -1.68322 3.03098 0
M  V30 875 C 90.8702 -1.13238 4.14096 0
M  V30 876 C 90.1032 -2.21966 4.85352 0
M  V30 877 O 90.3262 -3.42437 4.56172 0
M  V30 878 O 89.2602 -1.87013 5.7211 0
M  V30 879 H 93.0862 0.060938 3.03639 0
M  V30 880 H 90.6712 0.09565 1.49093 0
M  V30 881 H 92.5532 -2.34777 3.49939 0
M  V30 882 H 91.2282 -2.27176 2.30593 0
M  V30 883 H 90.1352 -0.432736 3.71589 0
M  V30 884 H 91.4682 -0.588898 4.88664 0
M  V30 885 N 93.1203 -1.57491 0.0584922 0
M  V30 886 C 94.0503 -2.14988 -0.911178 0
M  V30 887 C 95.0313 -1.07343 -1.31952 0
M  V30 888 O 96.2163 -1.35318 -1.39294 0
M  V30 889 C 93.3463 -2.70078 -2.18347 0
M  V30 890 C 92.3003 -3.82771 -1.91495 0
M  V30 891 C 91.6263 -4.24408 -3.25241 0
M  V30 892 C 92.9263 -5.07592 -1.23075 0
M  V30 893 H 94.6203 -2.96263 -0.432246 0
M  V30 894 H 92.1663 -1.42512 -0.206469 0
M  V30 895 H 94.1193 -3.08943 -2.86587 0
M  V30 896 H 92.8433 -1.86005 -2.68458 0
M  V30 897 H 91.5023 -3.44389 -1.25664 0
M  V30 898 H 91.1503 -3.37275 -3.73168 0
M  V30 899 H 90.8503 -5.00366 -3.08071 0
M  V30 900 H 92.3743 -4.65879 -3.94701 0
M  V30 901 H 93.7883 -5.43857 -1.81362 0
M  V30 902 H 92.1853 -5.88741 -1.16207 0
M  V30 903 H 93.2553 -4.84454 -0.207847 0
M  V30 904 N 94.5984 0.214957 -1.56127 0
M  V30 905 C 96.0144 0.564948 -1.49267 0
M  V30 906 C 96.2144 1.86827 -0.754838 0
M  V30 907 O 95.2704 2.50745 -0.297198 0
M  V30 908 C 96.5834 0.638071 -2.93852 0
M  V30 909 C 98.1314 0.728253 -3.0441 0
M  V30 910 C 98.6064 0.832663 -4.50367 0
M  V30 911 N 100.097 0.896712 -4.54437 0
M  V30 912 C 100.832 0.997324 -5.6466 0
M  V30 913 N 100.328 1.06147 -6.8462 0
M  V30 914 N 102.121 1.03297 -5.52527 0
M  V30 915 H 94.2724 -0.640211 -2.02522 0
M  V30 916 H 96.5354 -0.225507 -0.920788 0
M  V30 917 H 96.2414 -0.250126 -3.50809 0
M  V30 918 H 96.1154 1.49947 -3.46115 0
M  V30 919 H 98.5024 1.60689 -2.47514 0
M  V30 920 H 98.5834 -0.158952 -2.55306 0
M  V30 921 H 98.2274 -0.0415417 -5.07883 0
M  V30 922 H 98.1574 1.73538 -4.97184 0
M  V30 923 H 100.648 0.857188 -3.6805 0
M  V30 924 H 100.961 1.1382 -7.64372 0
M  V30 925 H 99.3064 1.03049 -6.87318 0
M  V30 926 H 102.497 0.979558 -4.57736 0
M  V30 927 H 102.67 1.10793 -6.38458 0
M  V30 928 N 96.0765 1.50051 0.48192 0
M  V30 929 C 97.4925 1.37237 0.814756 0
M  V30 930 C 97.6925 0.420109 1.97072 0
M  V30 931 O 96.7485 -0.141246 2.52105 0
M  V30 932 C 98.0615 2.78375 1.13701 0
M  V30 933 C 99.6095 2.87213 1.2441 0
M  V30 934 C 100.084 4.29161 1.59954 0
M  V30 935 N 101.575 4.32061 1.66967 0
M  V30 936 C 102.31 5.38879 1.95952 0
M  V30 937 N 101.806 6.55918 2.23031 0
M  V30 938 N 103.599 5.26312 1.97363 0
M  V30 939 H 95.7505 2.10546 -0.28005 0
M  V30 940 H 98.0135 0.945921 -0.0627454 0
M  V30 941 H 97.7195 3.49845 0.360787 0
M  V30 942 H 97.5935 3.14941 2.07586 0
M  V30 943 H 99.9805 2.15969 2.01101 0
M  V30 944 H 100.061 2.54204 0.285299 0
M  V30 945 H 99.7055 5.00938 0.838067 0
M  V30 946 H 99.6355 4.59648 2.56966 0
M  V30 947 H 102.126 3.47661 1.48123 0
M  V30 948 H 102.439 7.33139 2.44391 0
M  V30 949 H 100.784 6.59112 2.20447 0
M  V30 950 H 103.975 4.33876 1.75697 0
M  V30 951 H 104.148 6.09649 2.19618 0
M  V30 952 N 97.5546 -0.734337 1.39446 0
M  V30 953 C 98.5176 -1.83004 1.37994 0
M  V30 954 C 99.5176 -1.58397 0.276938 0
M  V30 955 O 100.708 -1.65785 0.534875 0
M  V30 956 C 97.8396 -3.20802 1.1532 0
M  V30 957 H 99.0326 -1.85694 2.35494 0
M  V30 958 H 96.5856 -0.938059 1.25021 0
M  V30 959 H 97.3206 -3.23772 0.185036 0
M  V30 960 H 97.1056 -3.4006 1.95197 0
M  V30 961 H 98.5956 -4.00862 1.17046 0
M  V30 962 N 99.0327 -1.24633 -0.964593 0
M  V30 963 C 100.444 -1.08045 -1.5226 0
M  V30 964 C 100.795 0.347116 -1.93105 0
M  V30 965 O 99.9197 1.23588 -1.77637 0
M  V30 966 C 100.515 -1.95514 -2.76695 0
M  V30 967 C 99.0737 -1.8314 -3.28841 0
M  V30 968 C 98.2207 -1.90262 -2.01732 0
M  V30 969 H 101.172 -1.38064 -0.782553 0
M  V30 970 H 101.193 -1.48925 -3.50145 0
M  V30 971 H 100.705 -2.99407 -2.46936 0
M  V30 972 H 98.8057 -0.82092 -3.63444 0
M  V30 973 H 98.9187 -2.67406 -3.97531 0
M  V30 974 H 97.2827 -1.34027 -2.16584 0
M  V30 975 H 98.0657 -2.9574 -1.74334 0
M  V30 976 N 100.511 1.16574 -1.06058 0
M  V30 977 C 101.461 2.18854 -0.63929 0
M  V30 978 C 102.445 1.57505 0.328798 0
M  V30 979 O 103.637 1.76408 0.144623 0
M  V30 980 C 100.766 3.43291 -0.0247203 0
M  V30 981 C 99.8518 4.11722 -1.01716 0
M  V30 982 N 100.243 4.55841 -2.19186 0
M  V30 983 C 98.5408 4.37872 -0.847569 0
M  V30 984 C 99.2418 5.08751 -2.82042 0
M  V30 985 N 98.2178 5.01489 -2.09784 0
M  V30 986 H 102.02 2.5068 -1.53417 0
M  V30 987 H 99.5338 1.32999 -0.931935 0
M  V30 988 H 101.531 4.15856 0.294915 0
M  V30 989 H 100.191 3.12954 0.865448 0
M  V30 990 H 101.202 4.49649 -2.56975 0
M  V30 991 H 97.8788 4.17499 -0.00918848 0
M  V30 992 H 99.2688 5.52944 -3.81709 0
M  V30 993 N 101.989 0.842826 1.3317 0
M  V30 994 C 102.919 0.294028 2.31641 0
M  V30 995 C 103.9 -0.600401 1.59151 0
M  V30 996 O 105.085 -0.523124 1.87022 0
M  V30 997 C 102.215 -0.528416 3.43257 0
M  V30 998 C 101.169 0.27056 4.27144 0
M  V30 999 C 100.495 -0.675881 5.30411 0
M  V30 1000 C 101.795 1.48981 5.00602 0
M  V30 1001 H 103.489 1.11681 2.77791 0
M  V30 1002 H 101.035 0.538478 1.33553 0
M  V30 1003 H 102.988 -0.922674 4.11175 0
M  V30 1004 H 101.712 -1.38445 2.95805 0
M  V30 1005 H 100.371 0.646427 3.60856 0
M  V30 1006 H 100.019 -1.52842 4.79216 0
M  V30 1007 H 99.7189 -0.145374 5.8742 0
M  V30 1008 H 101.243 -1.06757 6.01195 0
M  V30 1009 H 102.657 1.16849 5.61266 0
M  V30 1010 H 101.054 1.95739 5.6728 0
M  V30 1011 H 102.124 2.25746 4.29147 0
M  V30 1012 N 103.467 -1.45747 0.599634 0
M  V30 1013 C 104.715 -2.01893 0.0915472 0
M  V30 1014 C 105.036 -1.47155 -1.27946 0
M  V30 1015 O 104.306 -0.66273 -1.84349 0
M  V30 1016 H 102.886 -0.746363 0.0308524 0
M  V30 1017 H 105.548 -1.78645 0.779237 0
M  V30 1018 H 104.644 -3.1208 0.0353086 0
M  V30 1019 N 104.945 -0.338344 -1.53925 0
M  V30 1020 C 106.192 0.259758 -2.00827 0
M  V30 1021 C 106.52 1.50973 -1.22628 0
M  V30 1022 O 105.775 1.93379 -0.300509 0
M  V30 1023 C 106.074 0.62448 -3.51902 0
M  V30 1024 C 105.74 -0.528006 -4.47798 0
M  V30 1025 C 104.402 -0.844298 -4.73735 0
M  V30 1026 C 106.754 -1.30143 -5.0469 0
M  V30 1027 C 104.082 -1.93648 -5.53821 0
M  V30 1028 C 106.434 -2.38382 -5.85967 0
M  V30 1029 C 105.098 -2.70576 -6.10201 0
M  V30 1030 H 104.368 0.0950523 -0.734878 0
M  V30 1031 H 107.015 -0.465182 -1.85764 0
M  V30 1032 H 105.32 1.43006 -3.64769 0
M  V30 1033 H 107.017 1.09905 -3.85645 0
M  V30 1034 H 103.607 -0.271421 -4.2774 0
M  V30 1035 H 107.791 -1.07033 -4.84621 0
M  V30 1036 H 103.047 -2.19021 -5.70824 0
M  V30 1037 H 107.221 -2.98746 -6.29066 0
M  V30 1038 H 104.848 -3.55333 -6.72044 0
M  V30 1039 N 106.423 1.57458 -0.0668435 0
M  V30 1040 C 107.373 2.0896 0.912119 0
M  V30 1041 C 108.357 0.998186 1.26195 0
M  V30 1042 O 109.549 1.26133 1.24175 0
M  V30 1043 C 106.678 2.6508 2.18145 0
M  V30 1044 C 105.764 3.81218 1.85832 0
M  V30 1045 N 106.155 4.90378 1.23948 0
M  V30 1046 C 104.453 3.9042 2.15612 0
M  V30 1047 C 105.154 5.71279 1.09616 0
M  V30 1048 N 104.13 5.19389 1.60423 0
M  V30 1049 H 107.932 2.90749 0.42924 0
M  V30 1050 H 105.446 1.6182 0.137184 0
M  V30 1051 H 107.443 3.0029 2.89192 0
M  V30 1052 H 106.103 1.84736 2.67025 0
M  V30 1053 H 107.114 5.09847 0.909731 0
M  V30 1054 H 103.791 3.21043 2.66903 0
M  V30 1055 H 105.181 6.69085 0.614425 0
M  V30 1056 N 107.901 -0.206675 1.56239 0
M  V30 1057 C 109.15 -0.926964 1.79138 0
M  V30 1058 C 109.463 -1.84901 0.638043 0
M  V30 1059 O 110.669 -2.60906 0.751033 0
M  V30 1060 C 109.125 -1.6986 3.17294 0
M  V30 1061 C 108.733 -0.821956 4.40395 0
M  V30 1062 C 110.477 -2.40922 3.4951 0
M  V30 1063 C 108.384 -1.59179 5.69575 0
M  V30 1064 H 107.314 -0.349864 0.667915 0
M  V30 1065 H 109.965 -0.180487 1.8261 0
M  V30 1066 H 108.347 -2.48853 3.08039 0
M  V30 1067 H 109.521 -0.0715019 4.60745 0
M  V30 1068 H 107.836 -0.222741 4.15804 0
M  V30 1069 H 110.433 -2.99047 4.43255 0
M  V30 1070 H 110.776 -3.14542 2.72707 0
M  V30 1071 H 111.309 -1.68905 3.60161 0
M  V30 1072 H 108.048 -0.898589 6.49312 0
M  V30 1073 H 107.568 -2.31648 5.53262 0
M  V30 1074 H 109.247 -2.14862 6.10281 0
M  V30 1075 N 109.379 -1.50304 -0.473955 0
M  V30 1076 C 110.656 -1.51667 -1.23518 0
M  V30 1077 C 111.036 -0.259701 -2.09496 0
M  V30 1078 O 110.384 0.756986 -2.15597 0
M  V30 1079 C 110.594 -2.81082 -2.06868 0
M  V30 1080 C 111.942 -3.31631 -2.65153 0
M  V30 1081 O 112.966 -2.82384 -2.17113 0
M  V30 1082 O 111.825 -4.17471 -3.52675 0
M  V30 1083 H 108.919 -0.60822 -0.560355 0
M  V30 1084 H 111.465 -1.62592 -0.486011 0
M  V30 1085 H 110.237 -3.64041 -1.4349 0
M  V30 1086 H 109.86 -2.73146 -2.88924 0
M  V30 1087 N 110.857 0.726932 -1.39834 0
M  V30 1088 C 112.104 1.48664 -1.37496 0
M  V30 1089 C 112.432 1.94482 0.0264678 0
M  V30 1090 O 111.687 1.67692 1.00886 0
M  V30 1091 C 111.986 2.73495 -2.30077 0
M  V30 1092 C 111.652 2.46502 -3.77555 0
M  V30 1093 C 110.314 2.3885 -4.17737 0
M  V30 1094 C 112.666 2.23604 -4.70798 0
M  V30 1095 C 109.994 2.06352 -5.49214 0
M  V30 1096 C 112.346 1.92622 -6.02561 0
M  V30 1097 C 111.01 1.83444 -6.41798 0
M  V30 1098 H 110.28 0.544001 -0.503135 0
M  V30 1099 H 112.927 0.833657 -1.72402 0
M  V30 1100 H 111.232 3.43575 -1.88317 0
M  V30 1101 H 112.929 3.31549 -2.25558 0
M  V30 1102 H 109.519 2.5334 -3.45712 0
M  V30 1103 H 113.703 2.28479 -4.40581 0
M  V30 1104 H 108.959 1.97776 -5.78528 0
M  V30 1105 H 113.133 1.73914 -6.74334 0
M  V30 1106 H 110.76 1.58029 -7.43593 0
M  V30 1107 N 112.336 1.25143 0.95797 0
M  V30 1108 C 113.613 1.00472 1.67823 0
M  V30 1109 C 113.993 -0.470056 2.058 0
M  V30 1110 O 113.341 -1.44663 1.76875 0
M  V30 1111 C 113.551 1.9372 2.90299 0
M  V30 1112 C 114.899 2.21371 3.62326 0
M  V30 1113 O 115.923 1.91451 3.00375 0
M  V30 1114 O 114.782 2.72231 4.7387 0
M  V30 1115 H 111.876 0.380752 0.734137 0
M  V30 1116 H 114.422 1.36283 1.01119 0
M  V30 1117 H 113.194 2.93316 2.59001 0
M  V30 1118 H 112.817 1.58286 3.64735 0
M  V30 1119 N 113.814 -1.1601 1.06675 0
M  V30 1120 C 115.091 -1.82679 0.699114 0
M  V30 1121 C 115.471 -1.94559 -0.819137 0
M  V30 1122 O 114.819 -1.49169 -1.73092 0
M  V30 1123 C 115.029 -3.19445 1.40555 0
M  V30 1124 C 116.377 -3.95171 1.55323 0
M  V30 1125 O 117.401 -3.28976 1.36577 0
M  V30 1126 O 116.26 -5.13833 1.86112 0
M  V30 1127 H 113.354 -0.788954 0.247951 0
M  V30 1128 H 115.9 -1.23179 1.16726 0
M  V30 1129 H 114.672 -3.05856 2.44065 0
M  V30 1130 H 114.295 -3.86625 0.927733 0
M  V30 1131 N 115.292 -0.849877 -1.32721 0
M  V30 1132 C 116.255 -0.296122 -2.27279 0
M  V30 1133 C 117.255 0.541458 -1.5141 0
M  V30 1134 O 118.445 0.353658 -1.70572 0
M  V30 1135 C 115.577 0.581579 -3.35902 0
M  V30 1136 H 116.77 -1.13064 -2.77771 0
M  V30 1137 H 114.323 -0.62383 -1.43311 0
M  V30 1138 H 115.058 1.43809 -2.9067 0
M  V30 1139 H 114.843 -0.0178814 -3.92096 0
M  V30 1140 H 116.333 0.961951 -4.0637 0
M  V30 1141 N 116.77 1.45427 -0.607355 0
M  V30 1142 C 117.717 2.3053 0.111625 0
M  V30 1143 C 118.687 1.4209 0.860216 0
M  V30 1144 O 119.872 1.71019 0.845998 0
M  V30 1145 C 117.012 3.26992 1.10319 0
M  V30 1146 C 116.125 4.30535 0.355493 0
M  V30 1147 C 115.26 5.14105 1.33676 0
M  V30 1148 C 114.299 6.09376 0.576862 0
M  V30 1149 N 113.436 6.85727 1.5074 0
M  V30 1150 H 118.276 2.91477 -0.620093 0
M  V30 1151 H 115.813 1.43631 -0.317594 0
M  V30 1152 H 117.771 3.81385 1.6912 0
M  V30 1153 H 116.401 2.67799 1.80232 0
M  V30 1154 H 115.453 3.78805 -0.348023 0
M  V30 1155 H 116.765 4.98235 -0.237423 0
M  V30 1156 H 115.919 5.72897 1.99684 0
M  V30 1157 H 114.658 4.46423 1.9636 0
M  V30 1158 H 113.663 5.49715 -0.0968519 0
M  V30 1159 H 114.888 6.79085 -0.0449341 0
M  V30 1160 H 112.834 6.20735 2.12189 0
M  V30 1161 H 112.751 7.49778 0.967913 0
M  V30 1162 H 114.019 7.4906 2.15706 0
M  V30 1163 N 118.248 0.346503 1.53744 0
M  V30 1164 C 119.497 -0.250122 2.00143 0
M  V30 1165 C 119.81 -1.51418 1.23822 0
M  V30 1166 O 121.016 -2.18823 1.60713 0
M  V30 1167 C 119.472 -0.496252 3.56462 0
M  V30 1168 C 119.08 0.752077 4.41642 0
M  V30 1169 C 120.824 -1.05157 4.11269 0
M  V30 1170 C 118.731 0.476583 5.89477 0
M  V30 1171 H 117.661 -0.0972409 0.747703 0
M  V30 1172 H 120.312 0.46229 1.77581 0
M  V30 1173 H 118.694 -1.26944 3.75102 0
M  V30 1174 H 119.868 1.5266 4.34778 0
M  V30 1175 H 118.183 1.22925 3.97842 0
M  V30 1176 H 120.78 -1.27269 5.19333 0
M  V30 1177 H 121.123 -2.00799 3.64672 0
M  V30 1178 H 121.656 -0.339019 3.96353 0
M  V30 1179 H 118.395 1.4028 6.40314 0
M  V30 1180 H 117.915 -0.259794 5.99237 0
M  V30 1181 H 119.594 0.0949315 6.4693 0
M  V30 1182 N 119.726 -1.57421 0.075193 0
M  V30 1183 C 120.951 -1.98364 -0.605515 0
M  V30 1184 C 121.376 -0.953383 -1.62149 0
M  V30 1185 O 120.734 0.0806053 -1.81121 0
M  V30 1186 C 120.782 -3.38332 -1.24756 0
M  V30 1187 O 119.886 -3.37959 -2.36342 0
M  V30 1188 H 119.227 -0.645553 -0.155428 0
M  V30 1189 H 121.757 -2.04044 0.150714 0
M  V30 1190 H 121.767 -3.75591 -1.5936 0
M  V30 1191 H 120.442 -4.12846 -0.503129 0
M  V30 1192 H 119.019 -3.12474 -2.03506 0
M  V30 1193 N 121.204 0.198386 -1.56346 0
M  V30 1194 C 122.134 1.24865 -1.9731 0
M  V30 1195 C 123.115 1.47651 -0.844576 0
M  V30 1196 O 124.3 1.59444 -1.10866 0
M  V30 1197 C 121.43 2.59358 -2.30977 0
M  V30 1198 C 120.384 2.5119 -3.46537 0
M  V30 1199 C 119.71 3.89926 -3.65871 0
M  V30 1200 C 121.01 2.03977 -4.80823 0
M  V30 1201 H 122.704 0.908252 -2.85291 0
M  V30 1202 H 120.25 0.435462 -1.37258 0
M  V30 1203 H 122.203 3.33011 -2.58228 0
M  V30 1204 H 120.927 2.95132 -1.39874 0
M  V30 1205 H 119.586 1.79993 -3.19371 0
M  V30 1206 H 119.234 4.23046 -2.72105 0
M  V30 1207 H 118.934 3.85336 -4.4361 0
M  V30 1208 H 120.458 4.65205 -3.95495 0
M  V30 1209 H 121.872 2.67386 -5.07127 0
M  V30 1210 H 120.269 2.10397 -5.62008 0
M  V30 1211 H 121.339 0.992861 -4.74626 0
M  V30 1212 N 122.682 1.50554 0.465978 0
M  V30 1213 C 124.093 1.54599 1.04671 0
M  V30 1214 C 124.444 0.352488 1.93008 0
M  V30 1215 O 123.569 -0.534044 2.09707 0
M  V30 1216 C 124.164 2.80166 1.90505 0
M  V30 1217 C 122.723 2.86876 2.43678 0
M  V30 1218 C 121.87 2.48947 1.22151 0
M  V30 1219 H 124.821 1.56744 0.248384 0
M  V30 1220 H 124.842 2.62311 2.75633 0
M  V30 1221 H 124.354 3.67013 1.26186 0
M  V30 1222 H 122.455 2.04393 3.11536 0
M  V30 1223 H 122.568 3.89885 2.78436 0
M  V30 1224 H 120.932 2.01498 1.5579 0
M  V30 1225 H 121.715 3.38107 0.594866 0
M  V30 1226 N 124.16 -0.719506 1.40217 0
M  V30 1227 C 125.092 -1.84428 1.36084 0
M  V30 1228 C 126.105 -1.60597 0.266913 0
M  V30 1229 O 127.294 -1.70544 0.526983 0
M  V30 1230 C 124.394 -3.20757 1.094 0
M  V30 1231 C 123.567 -3.71817 2.30372 0
M  V30 1232 C 122.626 -4.86748 1.99907 0
M  V30 1233 O 121.652 -4.99603 2.72737 0
M  V30 1234 N 122.854 -5.7226 0.974635 0
M  V30 1235 H 125.619 -1.88473 2.33019 0
M  V30 1236 H 123.18 -0.900885 1.3452 0
M  V30 1237 H 125.172 -3.95235 0.870116 0
M  V30 1238 H 123.742 -3.11884 0.211452 0
M  V30 1239 H 122.962 -2.88514 2.68614 0
M  V30 1240 H 124.25 -4.02666 3.11026 0
M  V30 1241 H 123.648 -5.6448 0.371368 0
M  V30 1242 H 122.205 -6.46739 0.810656 0
M  V30 1243 N 125.638 -1.25649 -0.95132 0
M  V30 1244 C 126.887 -1.09988 -1.69073 0
M  V30 1245 C 127.2 0.358355 -1.92289 0
M  V30 1246 O 128.406 0.635466 -2.63958 0
M  V30 1247 C 126.862 -1.92012 -3.044 0
M  V30 1248 C 126.47 -3.42347 -2.88968 0
M  V30 1249 C 128.214 -1.8493 -3.82101 0
M  V30 1250 C 126.121 -4.16655 -4.19705 0
M  V30 1251 H 125.051 -0.407993 -0.63408 0
M  V30 1252 H 127.702 -1.49873 -1.05879 0
M  V30 1253 H 126.084 -1.44952 -3.68517 0
M  V30 1254 H 127.258 -3.97104 -2.33762 0
M  V30 1255 H 125.573 -3.50557 -2.24719 0
M  V30 1256 H 128.17 -2.37739 -4.78941 0
M  V30 1257 H 128.513 -0.817883 -4.08187 0
M  V30 1258 H 129.046 -2.29758 -3.2474 0
M  V30 1259 H 125.785 -5.20224 -3.98807 0
M  V30 1260 H 125.305 -3.66681 -4.74663 0
M  V30 1261 H 126.984 -4.24551 -4.88227 0
M  V30 1262 N 127.117 1.15442 -1.07289 0
M  V30 1263 C 128.067 2.18164 -0.662467 0
M  V30 1264 C 129.051 1.57845 0.312074 0
M  V30 1265 O 130.243 1.76552 0.125905 0
M  V30 1266 C 127.372 3.43246 -0.0611295 0
M  V30 1267 C 126.458 4.1062 -1.06077 0
M  V30 1268 N 126.849 4.53491 -2.24008 0
M  V30 1269 C 125.147 4.36949 -0.893964 0
M  V30 1270 C 125.848 5.05731 -2.87422 0
M  V30 1271 N 124.824 4.99236 -2.15091 0
M  V30 1272 H 128.626 2.49038 -1.56068 0
M  V30 1273 H 126.14 1.32003 -0.945988 0
M  V30 1274 H 128.137 4.16145 0.250792 0
M  V30 1275 H 126.797 3.13854 0.832207 0
M  V30 1276 H 127.808 4.46898 -2.6173 0
M  V30 1277 H 124.485 4.17466 -0.0534693 0
M  V30 1278 H 125.875 5.48865 -3.87553 0
M  V30 1279 N 128.595 0.856903 1.32268 0
M  V30 1280 C 129.558 0.308171 2.27119 0
M  V30 1281 C 130.558 -0.533421 1.51695 0
M  V30 1282 O 131.748 -0.344607 1.70757 0
M  V30 1283 C 128.88 -0.563757 3.36206 0
M  V30 1284 H 130.073 1.14535 2.77167 0
M  V30 1285 H 127.626 0.631421 1.42978 0
M  V30 1286 H 128.361 -1.42266 2.91429 0
M  V30 1287 H 128.146 0.0386749 3.92081 0
M  V30 1288 H 129.636 -0.940386 4.06874 0
M  V30 1289 N 130.073 -1.45103 0.615059 0
M  V30 1290 C 131.489 -1.57137 0.279322 0
M  V30 1291 C 131.689 -1.60523 -1.21797 0
M  V30 1292 O 130.745 -1.53956 -2.00134 0
M  V30 1293 C 132.058 -2.85062 0.957083 0
M  V30 1294 C 133.606 -2.98749 0.933706 0
M  V30 1295 C 134.081 -4.29455 1.59162 0
M  V30 1296 N 135.572 -4.36231 1.55746 0
M  V30 1297 C 136.307 -5.36051 2.0356 0
M  V30 1298 N 135.803 -6.42367 2.59494 0
M  V30 1299 N 137.596 -5.27456 1.94284 0
M  V30 1300 H 129.747 -1.41148 1.58717 0
M  V30 1301 H 132.01 -0.675331 0.665306 0
M  V30 1302 H 131.716 -2.88488 2.01166 0
M  V30 1303 H 131.59 -3.7407 0.48494 0
M  V30 1304 H 133.977 -2.94886 -0.112347 0
M  V30 1305 H 134.058 -2.11132 1.44419 0
M  V30 1306 H 133.702 -4.34077 2.63704 0
M  V30 1307 H 133.632 -5.15901 1.0561 0
M  V30 1308 H 136.123 -3.60011 1.14893 0
M  V30 1309 H 136.436 -7.14793 2.93752 0
M  V30 1310 H 134.781 -6.43097 2.63537 0
M  V30 1311 H 137.972 -4.43308 1.5032 0
M  V30 1312 H 138.145 -6.05099 2.3186 0
M  V30 1313 N 131.551 -0.354651 -1.53558 0
M  V30 1314 C 132.797 0.238797 -2.01389 0
M  V30 1315 C 133.13 1.49309 -1.2418 0
M  V30 1316 O 132.405 1.91638 -0.332457 0
M  V30 1317 C 132.688 0.541771 -3.56001 0
M  V30 1318 C 132.541 -0.725388 -4.43912 0
M  V30 1319 C 133.86 1.34685 -4.18984 0
M  V30 1320 H 130.979 0.0853177 -0.732045 0
M  V30 1321 H 133.621 -0.477384 -1.83905 0
M  V30 1322 H 131.771 1.15189 -3.71031 0
M  V30 1323 H 133.443 -1.36313 -4.407 0
M  V30 1324 H 131.686 -1.34801 -4.12324 0
M  V30 1325 H 132.357 -0.468505 -5.50008 0
M  V30 1326 H 134.833 0.830837 -4.07721 0
M  V30 1327 H 133.709 1.52759 -5.27215 0
M  V30 1328 H 133.97 2.35221 -3.74331 0
M  V30 1329 N 133.029 1.57378 -0.0835403 0
M  V30 1330 C 133.976 2.13384 0.879539 0
M  V30 1331 C 134.946 1.04936 1.28754 0
M  V30 1332 O 136.131 1.32662 1.37133 0
M  V30 1333 C 133.271 2.70932 2.13752 0
M  V30 1334 C 132.384 3.93575 1.7811 0
M  V30 1335 C 131.519 4.39326 2.98607 0
M  V30 1336 C 130.558 5.54587 2.59037 0
M  V30 1337 N 129.695 5.95243 3.72331 0
M  V30 1338 H 134.535 2.9537 0.395076 0
M  V30 1339 H 132.072 1.45953 0.183349 0
M  V30 1340 H 134.03 3.02411 2.87408 0
M  V30 1341 H 132.66 1.91693 2.59718 0
M  V30 1342 H 131.712 3.68483 0.94469 0
M  V30 1343 H 133.024 4.77258 1.45005 0
M  V30 1344 H 132.178 4.72528 3.80529 0
M  V30 1345 H 130.917 3.5452 3.34913 0
M  V30 1346 H 129.922 5.21024 1.75539 0
M  V30 1347 H 131.147 6.41133 2.23887 0
M  V30 1348 H 129.093 5.13385 4.08378 0
M  V30 1349 H 129.01 6.73694 3.43034 0
M  V30 1350 H 130.278 6.33072 4.54797 0
M  V30 1351 N 134.507 -0.190092 1.56449 0
M  V30 1352 C 135.735 -0.925772 1.85033 0
M  V30 1353 C 136.15 -1.76638 0.666658 0
M  V30 1354 O 135.507 -1.78822 -0.364565 0
M  V30 1355 C 135.558 -1.81786 3.12468 0
M  V30 1356 O 135.279 -1.01118 4.26271 0
M  V30 1357 C 136.78 -2.6648 3.54265 0
M  V30 1358 H 134 -0.269872 0.614337 0
M  V30 1359 H 136.544 -0.195837 2.0356 0
M  V30 1360 H 134.699 -2.50136 2.95822 0
M  V30 1361 H 135.113 -1.61956 4.98869 0
M  V30 1362 H 136.587 -3.24722 4.46385 0
M  V30 1363 H 137.064 -3.40434 2.77491 0
M  V30 1364 H 137.67 -2.03493 3.73458 0
M  V30 1365 N 135.985 -1.50799 -0.457987 0
M  V30 1366 C 136.915 -1.73553 -1.5621 0
M  V30 1367 C 137.896 -0.584774 -1.59732 0
M  V30 1368 O 139.081 -0.825314 -1.7579 0
M  V30 1369 C 136.211 -1.84169 -2.94447 0
M  V30 1370 C 135.165 -2.99461 -3.0579 0
M  V30 1371 C 134.491 -2.95235 -4.45803 0
M  V30 1372 C 135.791 -4.39766 -2.81786 0
M  V30 1373 H 137.485 -2.66 -1.37421 0
M  V30 1374 H 135.031 -1.28002 -0.659662 0
M  V30 1375 H 136.984 -1.98672 -3.71628 0
M  V30 1376 H 135.708 -0.883545 -3.14422 0
M  V30 1377 H 134.367 -2.8463 -2.31044 0
M  V30 1378 H 134.015 -1.97239 -4.62715 0
M  V30 1379 H 133.715 -3.72642 -4.54326 0
M  V30 1380 H 135.239 -3.11803 -5.24987 0
M  V30 1381 H 136.653 -4.55054 -3.4871 0
M  V30 1382 H 135.05 -5.18722 -3.0174 0
M  V30 1383 H 136.12 -4.51229 -1.7754 0
M  V30 1384 N 137.463 0.71206 -1.40597 0
M  V30 1385 C 138.426 1.80785 -1.40888 0
M  V30 1386 C 139.426 1.57937 -0.302103 0
M  V30 1387 O 140.616 1.64913 -0.561182 0
M  V30 1388 C 137.748 3.18927 -1.20409 0
M  V30 1389 H 138.941 1.81924 -2.38419 0
M  V30 1390 H 136.494 0.91805 -1.26497 0
M  V30 1391 H 137.229 3.23436 -0.236522 0
M  V30 1392 H 137.014 3.36911 -2.00582 0
M  V30 1393 H 138.504 3.98949 -1.23408 0
M  V30 1394 N 138.941 1.26152 0.944643 0
M  V30 1395 C 139.904 1.07474 2.0244 0
M  V30 1396 C 140.904 0.0242064 1.60782 0
M  V30 1397 O 142.094 0.267302 1.72137 0
M  V30 1398 C 139.226 0.633956 3.34953 0
M  V30 1399 H 140.419 2.03336 2.20442 0
M  V30 1400 H 137.972 1.087 1.12312 0
M  V30 1401 H 138.707 -0.326811 3.22649 0
M  V30 1402 H 138.492 1.39247 3.66542 0
M  V30 1403 H 139.982 0.52501 4.14287 0
M  V30 1404 N 140.419 -1.14872 1.07899 0
M  V30 1405 C 141.382 -2.17986 0.708161 0
M  V30 1406 C 142.382 -1.58775 -0.25442 0
M  V30 1407 O 143.572 -1.74166 -0.034645 0
M  V30 1408 C 140.704 -3.40871 0.0446929 0
M  V30 1409 H 141.897 -2.52306 1.62116 0
M  V30 1410 H 139.45 -1.2943 0.876218 0
M  V30 1411 H 140.185 -3.12124 -0.880281 0
M  V30 1412 H 139.97 -3.8511 0.737091 0
M  V30 1413 H 141.46 -4.17121 -0.19991 0
M  V30 1414 N 141.898 -0.863906 -1.31812 0
M  V30 1415 C 142.83 -0.272485 -2.27575 0
M  V30 1416 C 143.843 0.56104 -1.52827 0
M  V30 1417 O 145.032 0.384021 -1.7432 0
M  V30 1418 C 142.132 0.63283 -3.32939 0
M  V30 1419 C 141.305 -0.166902 -4.37081 0
M  V30 1420 C 140.364 0.665608 -5.21973 0
M  V30 1421 O 139.39 0.0958091 -5.69119 0
M  V30 1422 N 140.592 1.9787 -5.45736 0
M  V30 1423 H 143.357 -1.0954 -2.78964 0
M  V30 1424 H 140.918 -0.724791 -1.4477 0
M  V30 1425 H 142.91 1.19532 -3.86645 0
M  V30 1426 H 141.48 1.35642 -2.81638 0
M  V30 1427 H 140.7 -0.910838 -3.83533 0
M  V30 1428 H 141.988 -0.715874 -5.03739 0
M  V30 1429 H 141.386 2.46484 -5.09178 0
M  V30 1430 H 139.943 2.48911 -6.024 0
M  V30 1431 N 143.376 1.44774 -0.622745 0
M  V30 1432 C 144.601 2.06999 -0.128968 0
M  V30 1433 C 145.026 1.4617 1.1839 0
M  V30 1434 O 144.384 0.560007 1.72434 0
M  V30 1435 C 144.432 3.60595 -0.0188351 0
M  V30 1436 O 143.536 3.99398 1.02739 0
M  V30 1437 H 142.877 0.659047 -0.0809544 0
M  V30 1438 H 145.407 1.85784 -0.85705 0
M  V30 1439 H 145.417 4.07627 0.174476 0
M  V30 1440 H 144.092 4.04252 -0.977384 0
M  V30 1441 H 142.669 3.64011 0.809326 0
M  V30 1442 N 144.854 0.36279 1.53368 0
M  V30 1443 C 145.817 -0.472679 2.24273 0
M  V30 1444 C 146.817 -1.012 1.24961 0
M  V30 1445 O 148.007 -0.898194 1.49259 0
M  V30 1446 C 145.139 -1.66039 2.97731 0
M  V30 1447 H 146.332 0.14773 2.99536 0
M  V30 1448 H 143.885 0.114434 1.55881 0
M  V30 1449 H 144.62 -2.31896 2.26704 0
M  V30 1450 H 144.405 -1.28066 3.70596 0
M  V30 1451 H 145.895 -2.25252 3.51641 0
M  V30 1452 N 146.332 -1.57332 0.0918853 0
M  V30 1453 C 147.609 -1.85691 -0.614668 0
M  V30 1454 C 147.989 -0.988146 -1.86545 0
M  V30 1455 O 147.337 -0.0597055 -2.28422 0
M  V30 1456 C 147.547 -3.36294 -0.933126 0
M  V30 1457 C 148.895 -4.04275 -1.29796 0
M  V30 1458 O 149.919 -3.41157 -1.02424 0
M  V30 1459 O 148.778 -5.1564 -1.81047 0
M  V30 1460 H 145.872 -0.767802 -0.307261 0
M  V30 1461 H 148.418 -1.69244 0.12434 0
M  V30 1462 H 147.19 -3.91273 -0.0456404 0
M  V30 1463 H 146.813 -3.58076 -1.72822 0
M  V30 1464 N 147.81 0.181792 -1.56548 0
M  V30 1465 C 149.059 0.898348 -1.8059 0
M  V30 1466 C 149.372 1.83862 -0.667379 0
M  V30 1467 O 150.578 2.59678 -0.792446 0
M  V30 1468 C 149.034 1.64791 -3.19956 0
M  V30 1469 C 148.642 0.751789 -4.41647 0
M  V30 1470 C 150.386 2.35331 -3.53298 0
M  V30 1471 C 148.293 1.50098 -5.72035 0
M  V30 1472 H 147.223 0.339194 -0.673397 0
M  V30 1473 H 149.874 0.151413 -1.82874 0
M  V30 1474 H 148.256 2.43921 -3.11959 0
M  V30 1475 H 149.43 -0.0018076 -4.608 0
M  V30 1476 H 147.745 0.156562 -4.16106 0
M  V30 1477 H 150.342 2.91958 -4.47956 0
M  V30 1478 H 150.685 3.10164 -2.77676 0
M  V30 1479 H 151.218 1.63154 -3.62803 0
M  V30 1480 H 147.957 0.795175 -6.50659 0
M  V30 1481 H 147.477 2.22817 -5.56878 0
M  V30 1482 H 149.156 2.05125 -6.13622 0
M  V30 1483 N 149.288 1.51039 0.449983 0
M  V30 1484 C 150.516 1.66869 1.2232 0
M  V30 1485 C 150.931 0.360727 1.85322 0
M  V30 1486 O 150.288 -0.659531 1.70166 0
M  V30 1487 C 150.339 2.77524 2.31652 0
M  V30 1488 O 150.06 4.03252 1.7123 0
M  V30 1489 C 151.561 3.04512 3.2216 0
M  V30 1490 H 148.781 0.560326 0.369155 0
M  V30 1491 H 151.325 1.97385 0.534719 0
M  V30 1492 H 149.48 2.49642 2.96239 0
M  V30 1493 H 149.894 4.64609 2.43389 0
M  V30 1494 H 151.368 3.85551 3.95038 0
M  V30 1495 H 151.845 2.16415 3.8218 0
M  V30 1496 H 152.451 3.34005 2.63288 0
M  V30 1497 N 150.766 -0.704594 1.40972 0
M  V30 1498 C 151.729 -1.80035 1.41845 0
M  V30 1499 C 152.729 -1.57774 0.310474 0
M  V30 1500 O 153.919 -1.64613 0.56992 0
M  V30 1501 C 151.051 -3.18284 1.22098 0
M  V30 1502 H 152.244 -1.80658 2.3938 0
M  V30 1503 H 149.797 -0.911329 1.26982 0
M  V30 1504 H 150.532 -3.23306 0.253672 0
M  V30 1505 H 150.317 -3.35843 2.02366 0
M  V30 1506 H 151.807 -3.98289 1.25522 0
M  V30 1507 N 152.244 -1.26651 -0.937939 0
M  V30 1508 C 153.176 -1.04283 -2.04102 0
M  V30 1509 C 154.189 -0.00221014 -1.628 0
M  V30 1510 O 155.378 -0.242645 -1.76843 0
M  V30 1511 C 152.478 -0.557846 -3.34277 0
M  V30 1512 C 151.651 -1.66843 -4.04329 0
M  V30 1513 C 150.71 -1.18095 -5.12777 0
M  V30 1514 O 149.736 -1.87865 -5.37304 0
M  V30 1515 N 150.938 -0.0311006 -5.80492 0
M  V30 1516 H 153.703 -1.9927 -2.23856 0
M  V30 1517 H 151.264 -1.1808 -1.10764 0
M  V30 1518 H 153.256 -0.215836 -4.04124 0
M  V30 1519 H 151.826 0.298523 -3.11171 0
M  V30 1520 H 151.046 -2.18123 -3.28353 0
M  V30 1521 H 152.334 -2.41408 -4.47883 0
M  V30 1522 H 151.732 0.551486 -5.63005 0
M  V30 1523 H 150.289 0.251809 -6.51313 0
M  V30 1524 N 153.722 1.14298 -1.08507 0
M  V30 1525 C 154.652 2.21542 -0.737646 0
M  V30 1526 C 155.633 1.67773 0.280377 0
M  V30 1527 O 156.818 1.93616 0.150521 0
M  V30 1528 C 153.948 3.46988 -0.147259 0
M  V30 1529 C 152.902 4.13789 -1.09374 0
M  V30 1530 C 152.228 5.33449 -0.365524 0
M  V30 1531 C 153.528 4.62208 -2.4323 0
M  V30 1532 H 155.222 2.5086 -1.6343 0
M  V30 1533 H 152.768 1.20576 -0.787243 0
M  V30 1534 H 154.721 4.21262 0.107808 0
M  V30 1535 H 153.445 3.17037 0.784538 0
M  V30 1536 H 152.104 3.4147 -1.33393 0
M  V30 1537 H 151.752 4.99759 0.57011 0
M  V30 1538 H 151.452 5.79088 -0.996512 0
M  V30 1539 H 152.976 6.10485 -0.118534 0
M  V30 1540 H 154.39 5.27952 -2.23472 0
M  V30 1541 H 152.787 5.18553 -3.02031 0
M  V30 1542 H 153.857 3.77224 -3.04681 0
M  V30 1543 N 155.201 0.870884 1.31352 0
M  V30 1544 C 156.131 0.343096 2.30966 0
M  V30 1545 C 157.112 -0.566507 1.60389 0
M  V30 1546 O 158.297 -0.483336 1.88089 0
M  V30 1547 C 155.427 -0.455487 3.443 0
M  V30 1548 C 154.381 0.361103 4.26474 0
M  V30 1549 C 153.707 -0.563221 5.31725 0
M  V30 1550 C 155.007 1.59566 4.97329 0
M  V30 1551 H 156.701 1.17548 2.75359 0
M  V30 1552 H 154.247 0.566686 1.32381 0
M  V30 1553 H 156.2 -0.83525 4.13039 0
M  V30 1554 H 154.924 -1.32139 2.98675 0
M  V30 1555 H 153.583 0.722825 3.59403 0
M  V30 1556 H 153.231 -1.42643 4.82351 0
M  V30 1557 H 152.931 -0.0207409 5.87596 0
M  V30 1558 H 154.455 -0.939808 6.03324 0
M  V30 1559 H 155.869 1.28728 5.58661 0
M  V30 1560 H 154.266 2.07728 5.63 0
M  V30 1561 H 155.336 2.34798 4.24262 0
M  V30 1562 N 156.679 -1.44442 0.630414 0
M  V30 1563 C 157.904 -2.06927 0.139944 0
M  V30 1564 C 158.329 -1.46795 -1.17613 0
M  V30 1565 O 157.687 -0.569144 -1.72135 0
M  V30 1566 C 157.735 -3.6058 0.0379581 0
M  V30 1567 O 156.839 -3.99937 -1.0062 0
M  V30 1568 H 156.18 -0.658608 0.0844483 0
M  V30 1569 H 158.71 -1.85327 0.866891 0
M  V30 1570 H 158.72 -4.07714 -0.152856 0
M  V30 1571 H 157.395 -4.03728 0.998809 0
M  V30 1572 H 155.972 -3.64436 -0.79001 0
M  V30 1573 N 158.157 -0.370918 -1.53173 0
M  V30 1574 C 159.09 0.516727 -2.22273 0
M  V30 1575 C 160.068 1.07877 -1.21661 0
M  V30 1576 O 161.252 1.13389 -1.50583 0
M  V30 1577 C 158.379 1.71346 -2.92161 0
M  V30 1578 C 157.425 1.27838 -4.0689 0
M  V30 1579 S 158.258 0.275217 -5.34792 0
M  V30 1580 C 159.414 1.47816 -6.08195 0
M  V30 1581 H 159.647 -0.0701054 -2.97217 0
M  V30 1582 H 157.18 -0.155038 -1.5362 0
M  V30 1583 H 159.138 2.39988 -3.3304 0
M  V30 1584 H 157.799 2.27156 -2.16931 0
M  V30 1585 H 156.992 2.17141 -4.54825 0
M  V30 1586 H 156.594 0.671105 -3.6793 0
M  V30 1587 H 158.886 2.40831 -6.33251 0
M  V30 1588 H 159.829 1.04008 -7.0042 0
M  V30 1589 H 160.237 1.68663 -5.38714 0
M  V30 1590 N 159.635 1.57281 -0.100228 0
M  V30 1591 C 160.883 1.94153 0.561157 0
M  V30 1592 C 161.204 0.983157 1.68401 0
M  V30 1593 O 160.474 0.0361132 1.95867 0
M  V30 1594 H 159.054 0.716791 0.210283 0
M  V30 1595 H 161.716 1.94202 -0.164765 0
M  V30 1596 H 160.812 2.96709 0.968008 0
M  V30 1597 N 161.113 -0.173488 1.56642 0
M  V30 1598 C 162.359 -0.891784 1.8214 0
M  V30 1599 C 162.692 -1.8199 0.677736 0
M  V30 1600 O 161.967 -1.91842 -0.320446 0
M  V30 1601 C 162.25 -1.68933 3.18015 0
M  V30 1602 C 162.103 -0.784487 4.42906 0
M  V30 1603 C 163.422 -2.65748 3.50808 0
M  V30 1604 H 160.541 -0.322761 0.662567 0
M  V30 1605 H 163.183 -0.158095 1.89341 0
M  V30 1606 H 161.333 -2.31482 3.12007 0
M  V30 1607 H 163.005 -0.172046 4.60979 0
M  V30 1608 H 161.248 -0.0924117 4.33702 0
M  V30 1609 H 161.919 -1.37799 5.34524 0
M  V30 1610 H 164.395 -2.13327 3.57255 0
M  V30 1611 H 163.271 -3.18619 4.4696 0
M  V30 1612 H 163.532 -3.45842 2.75401 0
M  V30 1613 N 162.591 -1.51276 -0.441967 0
M  V30 1614 C 163.523 -1.68444 -1.55433 0
M  V30 1615 C 164.536 -0.565187 -1.52674 0
M  V30 1616 O 165.725 -0.839356 -1.57534 0
M  V30 1617 C 162.825 -1.67966 -2.94348 0
M  V30 1618 C 161.998 -2.964 -3.21661 0
M  V30 1619 C 161.057 -2.88171 -4.40277 0
M  V30 1620 O 160.083 -3.62119 -4.39157 0
M  V30 1621 N 161.285 -2.03706 -5.43584 0
M  V30 1622 H 164.05 -2.644 -1.41112 0
M  V30 1623 H 161.611 -1.49104 -0.630838 0
M  V30 1624 H 163.603 -1.60035 -3.71713 0
M  V30 1625 H 162.173 -0.796225 -3.0229 0
M  V30 1626 H 161.393 -3.18234 -2.32638 0
M  V30 1627 H 162.681 -3.81427 -3.36736 0
M  V30 1628 H 162.079 -1.42995 -5.47329 0
M  V30 1629 H 160.636 -2.01658 -6.1982 0
M  V30 1630 N 164.069 0.697108 -1.41344 0
M  V30 1631 C 165.315 1.4593 -1.40827 0
M  V30 1632 C 165.648 1.94193 -0.0167098 0
M  V30 1633 O 164.923 1.69425 0.955263 0
M  V30 1634 C 165.206 2.67229 -2.41373 0
M  V30 1635 C 165.059 2.24741 -3.8963 0
M  V30 1636 C 166.378 3.69423 -2.39196 0
M  V30 1637 H 163.497 0.529303 -0.512842 0
M  V30 1638 H 166.139 0.794112 -1.72609 0
M  V30 1639 H 164.289 3.23982 -2.14401 0
M  V30 1640 H 165.961 1.73327 -4.27499 0
M  V30 1641 H 164.204 1.56542 -4.0457 0
M  V30 1642 H 164.875 3.1177 -4.55525 0
M  V30 1643 H 167.351 3.2234 -2.63128 0
M  V30 1644 H 166.227 4.51907 -3.11563 0
M  V30 1645 H 166.488 4.19012 -1.41001 0
M  V30 1646 N 165.547 1.27147 0.931209 0
M  V30 1647 C 166.796 1.12664 1.67302 0
M  V30 1648 C 167.109 -0.327718 1.92835 0
M  V30 1649 O 168.315 -0.593392 2.64936 0
M  V30 1650 C 166.771 1.9683 3.01307 0
M  V30 1651 C 166.379 3.46901 2.83485 0
M  V30 1652 C 168.123 1.90985 3.79111 0
M  V30 1653 C 166.03 4.23279 4.13024 0
M  V30 1654 H 164.96 0.41803 0.627509 0
M  V30 1655 H 167.611 1.51539 1.03481 0
M  V30 1656 H 165.993 1.50797 3.66164 0
M  V30 1657 H 167.167 4.00773 2.27415 0
M  V30 1658 H 165.482 3.54088 2.19113 0
M  V30 1659 H 168.079 2.45328 4.75098 0
M  V30 1660 H 168.422 0.882718 4.06834 0
M  V30 1661 H 168.955 2.34895 3.21044 0
M  V30 1662 H 165.694 5.26503 3.90481 0
M  V30 1663 H 165.214 3.74186 4.6877 0
M  V30 1664 H 166.893 4.32265 4.81411 0
M  V30 1665 N 167.025 -1.13721 1.09112 0
M  V30 1666 C 167.988 -2.17222 0.731241 0
M  V30 1667 C 168.988 -1.59035 -0.237566 0
M  V30 1668 O 170.178 -1.74192 -0.0161704 0
M  V30 1669 C 167.31 -3.40804 0.0808443 0
M  V30 1670 H 168.503 -2.50573 1.64783 0
M  V30 1671 H 166.056 -1.28493 0.889897 0
M  V30 1672 H 166.791 -3.1304 -0.847127 0
M  V30 1673 H 166.576 -3.84306 0.777896 0
M  V30 1674 H 168.066 -4.1731 -0.155657 0
M  V30 1675 N 168.503 -0.877838 -1.30888 0
M  V30 1676 C 169.751 -0.491723 -1.96027 0
M  V30 1677 C 170.072 0.960827 -1.69685 0
M  V30 1678 O 169.342 1.67462 -1.01654 0
M  V30 1679 H 167.922 -0.17885 -0.725273 0
M  V30 1680 H 170.584 -1.11935 -1.59551 0
M  V30 1681 H 169.68 -0.656016 -3.05128 0
M  V30 1682 N 169.982 1.44106 -0.638065 0
M  V30 1683 C 171.398 1.56672 -0.304286 0
M  V30 1684 C 171.598 1.6244 1.19228 0
M  V30 1685 O 170.654 1.57121 1.9766 0
M  V30 1686 C 171.967 2.83503 -1.00231 0
M  V30 1687 C 173.515 2.97226 -0.981116 0
M  V30 1688 C 173.99 4.26868 -1.65974 0
M  V30 1689 N 175.481 4.33698 -1.62666 0
M  V30 1690 C 176.216 5.32745 -2.12063 0
M  V30 1691 N 175.712 6.38157 -2.6968 0
M  V30 1692 N 177.505 5.24299 -2.02651 0
M  V30 1693 H 169.656 1.38605 -1.60942 0
M  V30 1694 H 171.919 0.664661 -0.675965 0
M  V30 1695 H 171.625 2.85251 -2.0573 0
M  V30 1696 H 171.499 3.73251 -0.54439 0
M  V30 1697 H 173.886 2.95027 0.0654188 0
M  V30 1698 H 173.967 2.08808 -1.47759 0
M  V30 1699 H 173.611 4.29826 -2.70576 0
M  V30 1700 H 173.541 5.14156 -1.13804 0
M  V30 1701 H 176.032 3.58138 -1.20606 0
M  V30 1702 H 176.345 7.10029 -3.05087 0
M  V30 1703 H 174.69 6.38823 -2.73734 0
M  V30 1704 H 177.881 4.4086 -1.57353 0
M  V30 1705 H 178.054 6.01334 -2.41457 0
M  V30 1706 N 171.46 0.379036 1.52974 0
M  V30 1707 C 172.708 -0.206014 2.01047 0
M  V30 1708 C 173.029 -1.48175 1.26765 0
M  V30 1709 O 172.299 -1.92085 0.384743 0
M  V30 1710 H 170.879 -0.0791184 0.742798 0
M  V30 1711 H 173.541 0.508366 1.88153 0
M  V30 1712 H 172.637 -0.423501 3.09213 0
M  V30 1713 N 172.938 -1.57226 0.108567 0
M  V30 1714 C 173.848 -2.18292 -0.859401 0
M  V30 1715 C 174.864 -1.15612 -1.30038 0
M  V30 1716 O 176.04 -1.48039 -1.36552 0
M  V30 1717 C 173.105 -2.762 -2.09558 0
M  V30 1718 C 172.166 -3.93881 -1.70752 0
M  V30 1719 C 171.399 -4.49018 -2.88477 0
M  V30 1720 O 171.622 -4.03068 -4.036 0
M  V30 1721 O 170.556 -5.39852 -2.66164 0
M  V30 1722 H 174.382 -3.01441 -0.369769 0
M  V30 1723 H 171.967 -1.48945 -0.1165 0
M  V30 1724 H 173.849 -3.13156 -2.81978 0
M  V30 1725 H 172.524 -1.96089 -2.57548 0
M  V30 1726 H 171.431 -3.61713 -0.954714 0
M  V30 1727 H 172.764 -4.75396 -1.27513 0
M  V30 1728 N 174.416 0.165178 -1.56732 0
M  V30 1729 C 175.346 1.20651 -1.99914 0
M  V30 1730 C 176.327 1.45827 -0.875705 0
M  V30 1731 O 177.512 1.57057 -1.14223 0
M  V30 1732 C 174.642 2.54401 -2.36427 0
M  V30 1733 C 173.596 2.43782 -3.51787 0
M  V30 1734 C 172.922 3.82078 -3.7406 0
M  V30 1735 C 174.222 1.93732 -4.85041 0
M  V30 1736 H 175.916 0.847534 -2.87154 0
M  V30 1737 H 173.462 0.40625 -1.38151 0
M  V30 1738 H 175.415 3.27458 -2.65234 0
M  V30 1739 H 174.139 2.92098 -1.46103 0
M  V30 1740 H 172.798 1.73178 -3.23117 0
M  V30 1741 H 172.446 4.17179 -2.81017 0
M  V30 1742 H 172.146 3.7584 -4.51684 0
M  V30 1743 H 173.67 4.56712 -4.05274 0
M  V30 1744 H 175.084 2.56569 -5.12684 0
M  V30 1745 H 173.481 1.98428 -5.66345 0
M  V30 1746 H 174.551 0.891962 -4.76626 0
M  V30 1747 N 175.894 1.51508 0.433938 0
M  V30 1748 C 177.143 1.63578 1.18005 0
M  V30 1749 C 177.456 0.359514 1.92268 0
M  V30 1750 O 178.662 0.359632 2.69108 0
M  V30 1751 C 177.118 2.88901 2.14626 0
M  V30 1752 C 176.726 4.23544 1.45995 0
M  V30 1753 C 178.47 3.10328 2.89649 0
M  V30 1754 C 176.377 5.40014 2.4112 0
M  V30 1755 H 175.307 0.609277 0.444182 0
M  V30 1756 H 177.958 1.77978 0.446773 0
M  V30 1757 H 176.34 2.68142 2.91403 0
M  V30 1758 H 177.514 4.54696 0.747532 0
M  V30 1759 H 175.829 4.08021 0.831115 0
M  V30 1760 H 178.426 3.94518 3.60915 0
M  V30 1761 H 178.769 2.23544 3.51189 0
M  V30 1762 H 179.302 3.31443 2.19978 0
M  V30 1763 H 176.041 6.29068 1.84264 0
M  V30 1764 H 175.561 5.13233 3.10406 0
M  V30 1765 H 177.24 5.72099 3.02177 0
M  V30 1766 N 177.372 -0.689602 1.41712 0
M  V30 1767 C 178.649 -1.44457 1.31877 0
M  V30 1768 C 179.029 -2.11039 -0.0508537 0
M  V30 1769 O 178.377 -2.02138 -1.06547 0
M  V30 1770 C 178.587 -2.45913 2.47645 0
M  V30 1771 C 179.935 -3.10991 2.89084 0
M  V30 1772 O 180.959 -2.56238 2.47428 0
M  V30 1773 O 179.818 -4.10174 3.61137 0
M  V30 1774 H 176.912 -0.64362 0.519309 0
M  V30 1775 H 179.458 -0.719576 1.53689 0
M  V30 1776 H 178.23 -1.95409 3.39015 0
M  V30 1777 H 177.853 -3.25913 2.27742 0
M  V30 1778 N 178.85 -1.27639 -0.924453 0
M  V30 1779 C 180.075 -1.17101 -1.71179 0
M  V30 1780 C 180.5 0.268134 -1.86179 0
M  V30 1781 O 179.858 1.19415 -1.36418 0
M  V30 1782 C 179.906 -1.86313 -3.08739 0
M  V30 1783 O 179.01 -1.16331 -3.95652 0
M  V30 1784 H 178.351 -0.407091 -0.524569 0
M  V30 1785 H 180.881 -1.68767 -1.15666 0
M  V30 1786 H 180.891 -1.938 -3.59034 0
M  V30 1787 H 179.566 -2.91001 -2.97138 0
M  V30 1788 H 178.143 -1.16935 -3.54091 0
M  V30 1789 N 180.328 1.1314 -1.09713 0
M  V30 1790 C 181.556 1.88321 -0.856898 0
M  V30 1791 C 181.971 1.79276 0.592073 0
M  V30 1792 O 181.328 1.16142 1.40774 0
M  V30 1793 C 181.379 3.37812 -1.28706 0
M  V30 1794 O 181.1 3.46627 -2.67921 0
M  V30 1795 C 182.601 4.29952 -1.07964 0
M  V30 1796 H 179.821 0.596094 -0.308079 0
M  V30 1797 H 182.365 1.43205 -1.45988 0
M  V30 1798 H 180.52 3.805 -0.727912 0
M  V30 1799 H 180.934 4.39579 -2.8613 0
M  V30 1800 H 182.408 5.33159 -1.42986 0
M  V30 1801 H 182.885 4.39196 -0.0176577 0
M  V30 1802 H 183.491 3.93036 -1.62489 0
M  V30 1803 N 181.806 0.884767 1.30421 0
M  V30 1804 C 183.217 0.553656 1.78302 0
M  V30 1805 C 183.568 -0.930153 1.7275 0
M  V30 1806 O 182.693 -1.72681 1.30423 0
M  V30 1807 C 183.288 0.998234 3.2376 0
M  V30 1808 C 181.847 0.71854 3.69478 0
M  V30 1809 C 180.994 1.18132 2.50879 0
M  V30 1810 H 183.945 1.06901 1.17294 0
M  V30 1811 H 183.966 0.327118 3.79091 0
M  V30 1812 H 183.478 2.0782 3.27769 0
M  V30 1813 H 181.579 -0.349444 3.70958 0
M  V30 1814 H 181.692 1.30595 4.60958 0
M  V30 1815 H 180.056 0.600669 2.47516 0
M  V30 1816 H 180.839 2.26902 2.57624 0
M  V30 1817 N 183.284 -1.43765 0.645699 0
M  V30 1818 C 184.532 -2.01499 0.155731 0
M  V30 1819 C 184.853 -1.51151 -1.232 0
M  V30 1820 O 184.123 -0.721044 -1.82148 0
M  V30 1821 H 182.703 -0.745003 0.0545817 0
M  V30 1822 H 185.365 -1.76075 0.835677 0
M  V30 1823 H 184.461 -3.1181 0.134577 0
M  V30 1824 N 184.763 -0.387143 -1.52771 0
M  V30 1825 C 185.693 0.440551 -2.29306 0
M  V30 1826 C 186.674 1.06535 -1.32606 0
M  V30 1827 O 187.859 1.07853 -1.61497 0
M  V30 1828 C 184.989 1.56919 -3.09829 0
M  V30 1829 C 183.943 1.07054 -4.14395 0
M  V30 1830 C 183.269 2.29109 -4.83129 0
M  V30 1831 C 184.569 0.140015 -5.22112 0
M  V30 1832 H 186.263 -0.198026 -2.98744 0
M  V30 1833 H 183.809 -0.09668 -1.43675 0
M  V30 1834 H 185.762 2.15503 -3.62128 0
M  V30 1835 H 184.486 2.23532 -2.3812 0
M  V30 1836 H 183.145 0.507247 -3.63074 0
M  V30 1837 H 182.793 2.94227 -4.0797 0
M  V30 1838 H 182.493 1.96406 -5.53804 0
M  V30 1839 H 184.017 2.88339 -5.38231 0
M  V30 1840 H 185.431 0.633978 -5.69784 0
M  V30 1841 H 183.828 -0.0971485 -6.00021 0
M  V30 1842 H 184.898 -0.811711 -4.78058 0
M  V30 1843 N 186.241 1.57166 -0.116904 0
M  V30 1844 C 187.204 2.14039 0.819742 0
M  V30 1845 C 188.204 1.07477 1.19605 0
M  V30 1846 O 189.394 1.33263 1.1219 0
M  V30 1847 C 186.526 2.67891 2.10826 0
M  V30 1848 H 187.719 2.98128 0.325511 0
M  V30 1849 H 185.272 1.55739 0.132312 0
M  V30 1850 H 186.007 1.87384 2.64685 0
M  V30 1851 H 185.792 3.45823 1.84793 0
M  V30 1852 H 187.282 3.11809 2.77785 0
M  V30 1853 N 187.719 -0.156864 1.56817 0
M  V30 1854 C 189.135 -0.50916 1.5126 0
M  V30 1855 C 189.335 -1.83897 0.823658 0
M  V30 1856 O 188.391 -2.49469 0.390055 0
M  V30 1857 C 189.704 -0.52857 2.96018 0
M  V30 1858 C 191.252 -0.614771 3.06903 0
M  V30 1859 C 191.727 -0.664938 4.53147 0
M  V30 1860 N 193.218 -0.727433 4.57452 0
M  V30 1861 C 193.953 -0.787067 5.67973 0
M  V30 1862 N 193.449 -0.806649 6.88088 0
M  V30 1863 N 195.242 -0.827195 5.5598 0
M  V30 1864 H 187.393 0.714935 2.00006 0
M  V30 1865 H 189.656 0.259526 0.911784 0
M  V30 1866 H 189.362 0.380154 3.49639 0
M  V30 1867 H 189.236 -1.36998 3.51442 0
M  V30 1868 H 191.623 -1.51392 2.53307 0
M  V30 1869 H 191.704 0.253597 2.5454 0
M  V30 1870 H 191.348 0.230011 5.07379 0
M  V30 1871 H 191.278 -1.54966 5.03282 0
M  V30 1872 H 193.769 -0.719998 3.70978 0
M  V30 1873 H 194.082 -0.853727 7.6807 0
M  V30 1874 H 192.427 -0.774687 6.90669 0
M  V30 1875 H 195.618 -0.808998 4.61056 0
M  V30 1876 H 195.791 -0.870206 6.4213 0
M  V30 1877 N 189.197 -1.51736 -0.425897 0
M  V30 1878 C 190.147 -1.70258 -1.51645 0
M  V30 1879 C 191.131 -0.556488 -1.5097 0
M  V30 1880 O 192.323 -0.812879 -1.5723 0
M  V30 1881 C 189.452 -1.84143 -2.89735 0
M  V30 1882 C 188.538 -3.04572 -2.95122 0
M  V30 1883 N 188.929 -4.2756 -2.70233 0
M  V30 1884 C 187.227 -3.04061 -3.26286 0
M  V30 1885 C 187.928 -5.08908 -2.81757 0
M  V30 1886 N 186.904 -4.43797 -3.13919 0
M  V30 1887 H 190.706 -2.63004 -1.31172 0
M  V30 1888 H 188.22 -1.4954 -0.633375 0
M  V30 1889 H 190.217 -1.95525 -3.68206 0
M  V30 1890 H 188.877 -0.925857 -3.1122 0
M  V30 1891 H 189.888 -4.56315 -2.44943 0
M  V30 1892 H 186.565 -2.22179 -3.53473 0
M  V30 1893 H 187.955 -6.16843 -2.66372 0
M  V30 1894 N 190.675 0.682077 -1.42076 0
M  V30 1895 C 192.091 0.994324 -1.24841 0
M  V30 1896 C 192.291 2.0096 -0.147389 0
M  V30 1897 O 191.347 2.47822 0.483782 0
M  V30 1898 C 192.66 1.50607 -2.60265 0
M  V30 1899 C 194.208 1.62421 -2.6756 0
M  V30 1900 C 194.683 2.16994 -4.03333 0
M  V30 1901 N 196.174 2.24337 -4.0525 0
M  V30 1902 C 196.909 2.67621 -5.07116 0
M  V30 1903 N 196.405 3.1041 -6.19368 0
M  V30 1904 N 198.198 2.67305 -4.94474 0
M  V30 1905 H 190.349 0.00973908 -2.12398 0
M  V30 1906 H 192.612 0.0668593 -0.945639 0
M  V30 1907 H 192.318 0.834583 -3.41654 0
M  V30 1908 H 192.192 2.48602 -2.83684 0
M  V30 1909 H 194.579 2.28678 -1.86521 0
M  V30 1910 H 194.66 0.629352 -2.47937 0
M  V30 1911 H 194.304 1.51349 -4.84826 0
M  V30 1912 H 194.234 3.17258 -4.20304 0
M  V30 1913 H 196.725 1.94158 -3.24209 0
M  V30 1914 H 197.038 3.42103 -6.92954 0
M  V30 1915 H 195.383 3.08286 -6.22884 0
M  V30 1916 H 198.574 2.33233 -4.05857 0
M  V30 1917 H 198.747 3.00718 -5.73997 0
M  V30 1918 N 192.153 1.28127 0.917671 0
M  V30 1919 C 193.402 1.14432 1.66097 0
M  V30 1920 C 193.715 -0.307247 1.93172 0
M  V30 1921 O 194.921 -0.565259 2.65551 0
M  V30 1922 C 193.377 2.00015 2.99202 0
M  V30 1923 C 192.985 3.49889 2.79789 0
M  V30 1924 C 194.729 1.94996 3.77064 0
M  V30 1925 C 192.636 4.27636 4.08511 0
M  V30 1926 H 191.566 0.424662 0.62304 0
M  V30 1927 H 194.217 1.52628 1.01868 0
M  V30 1928 H 192.599 1.54672 3.64544 0
M  V30 1929 H 193.773 4.03162 2.23152 0
M  V30 1930 H 192.088 3.56392 2.15345 0
M  V30 1931 H 194.685 2.50354 4.72469 0
M  V30 1932 H 195.028 0.925819 4.05875 0
M  V30 1933 H 195.561 2.38287 3.18534 0
M  V30 1934 H 192.3 5.30615 3.84874 0
M  V30 1935 H 191.82 3.79137 4.64774 0
M  V30 1936 H 193.499 4.37346 4.76799 0
M  V30 1937 N 193.631 -1.12557 1.10312 0
M  V30 1938 C 194.578 -2.18247 0.750781 0
M  V30 1939 C 195.548 -1.63853 -0.272293 0
M  V30 1940 O 196.733 -1.90195 -0.151862 0
M  V30 1941 C 193.873 -3.44591 0.187379 0
M  V30 1942 C 192.986 -4.13046 1.2656 0
M  V30 1943 C 192.121 -5.27034 0.663978 0
M  V30 1944 C 191.16 -5.87353 1.72287 0
M  V30 1945 N 190.297 -6.92757 1.1416 0
M  V30 1946 H 195.137 -2.47732 1.65628 0
M  V30 1947 H 192.674 -1.21629 0.827337 0
M  V30 1948 H 194.632 -4.16904 -0.157148 0
M  V30 1949 H 193.262 -3.15527 -0.681355 0
M  V30 1950 H 192.314 -3.38924 1.72727 0
M  V30 1951 H 193.626 -4.53947 2.06721 0
M  V30 1952 H 192.78 -6.06104 0.268824 0
M  V30 1953 H 191.519 -4.87407 -0.169082 0
M  V30 1954 H 190.524 -5.06971 2.12746 0
M  V30 1955 H 191.749 -6.29051 2.55875 0
M  V30 1956 H 189.695 -6.5517 0.329984 0
M  V30 1957 H 189.612 -7.3225 1.88007 0
M  V30 1958 H 190.88 -7.75658 0.772956 0
M  V30 1959 N 195.109 -0.891671 -1.2995 0
M  V30 1960 C 196.072 -0.36828 -2.26222 0
M  V30 1961 C 197.072 0.493014 -1.53056 0
M  V30 1962 O 198.262 0.299213 -1.71611 0
M  V30 1963 C 195.394 0.47442 -3.37583 0
M  V30 1964 H 196.587 -1.21844 -2.74033 0
M  V30 1965 H 194.14 -0.669107 -1.41254 0
M  V30 1966 H 194.875 1.34489 -2.95099 0
M  V30 1967 H 194.66 -0.142615 -3.91841 0
M  V30 1968 H 196.15 0.83218 -4.09224 0
M  V30 1969 N 196.587 1.43421 -0.653314 0
M  V30 1970 C 197.815 2.06163 -0.174491 0
M  V30 1971 C 198.23 1.48969 1.1599 0
M  V30 1972 O 197.587 0.621042 1.71608 0
M  V30 1973 C 197.638 3.61417 -0.0774865 0
M  V30 1974 O 197.359 4.16485 -1.35912 0
M  V30 1975 C 198.86 4.41235 0.427402 0
M  V30 1976 H 196.08 0.664946 -0.0899353 0
M  V30 1977 H 198.624 1.83924 -0.893988 0
M  V30 1978 H 196.779 3.82841 0.59257 0
M  V30 1979 H 197.193 5.10153 -1.21839 0
M  V30 1980 H 198.667 5.5021 0.44423 0
M  V30 1981 H 199.144 4.14268 1.45873 0
M  V30 1982 H 199.75 4.2478 -0.210167 0
M  V30 1983 N 198.065 0.39524 1.52563 0
M  V30 1984 C 199.028 -0.425001 2.25225 0
M  V30 1985 C 200.028 -0.985266 1.27079 0
M  V30 1986 O 201.218 -0.866332 1.5113 0
M  V30 1987 C 198.35 -1.59686 3.01186 0
M  V30 1988 H 199.543 0.211233 2.99155 0
M  V30 1989 H 197.096 0.147472 1.55603 0
M  V30 1990 H 197.831 -2.27035 2.31572 0
M  V30 1991 H 197.616 -1.20176 3.73229 0
M  V30 1992 H 199.106 -2.17743 3.5634 0
M  V30 1993 N 199.544 -1.57102 0.125237 0
M  V30 1994 C 200.507 -2.14471 -0.80838 0
M  V30 1995 C 201.507 -1.0811 -1.19033 0
M  V30 1996 O 202.697 -1.33856 -1.11482 0
M  V30 1997 C 199.829 -2.69005 -2.09402 0
M  V30 1998 H 201.022 -2.98297 -0.309696 0
M  V30 1999 H 198.575 -1.55807 -0.124051 0
M  V30 2000 H 199.31 -1.88785 -2.63687 0
M  V30 2001 H 199.095 -3.46799 -1.82957 0
M  V30 2002 H 200.585 -3.13278 -2.76128 0
M  V30 2003 N 201.022 0.148545 -1.56898 0
M  V30 2004 C 202.299 0.890019 -1.74178 0
M  V30 2005 C 202.679 1.99407 -0.692839 0
M  V30 2006 O 202.027 2.26671 0.288505 0
M  V30 2007 C 202.237 1.43389 -3.18183 0
M  V30 2008 C 203.585 1.89791 -3.79822 0
M  V30 2009 O 204.609 1.53134 -3.21603 0
M  V30 2010 O 203.468 2.57387 -4.82093 0
M  V30 2011 H 200.562 0.420496 -0.712118 0
M  V30 2012 H 203.108 0.134591 -1.69165 0
M  V30 2013 H 201.88 0.640383 -3.86024 0
M  V30 2014 H 201.503 2.25287 -3.27615 0
M  V30 2015 N 202.5 1.5196 0.417844 0
M  V30 2016 C 203.748 1.65263 1.16329 0
M  V30 2017 C 204.069 0.380634 1.91249 0
M  V30 2018 O 203.339 -0.604214 1.86349 0
M  V30 2019 H 201.919 0.60912 0.432414 0
M  V30 2020 H 204.581 1.88969 0.477162 0
M  V30 2021 H 203.677 2.4896 1.88217 0
M  V30 2022 N 203.978 -0.674533 1.42435 0
M  V30 2023 C 205.203 -1.46784 1.46524 0
M  V30 2024 C 205.628 -1.87938 0.078066 0
M  V30 2025 O 204.986 -1.56014 -0.92354 0
M  V30 2026 C 205.034 -2.69307 2.39805 0
M  V30 2027 O 204.138 -3.67587 1.86959 0
M  V30 2028 H 203.479 -0.440959 0.496439 0
M  V30 2029 H 206.009 -0.827326 1.87127 0
M  V30 2030 H 206.019 -3.17374 2.56393 0
M  V30 2031 H 204.694 -2.38692 3.40586 0
M  V30 2032 H 203.271 -3.2662 1.79927 0
M  V30 2033 N 205.456 -1.28612 -0.910864 0
M  V30 2034 C 206.684 -1.18792 -1.69399 0
M  V30 2035 C 207.099 0.253039 -1.87097 0
M  V30 2036 O 206.456 1.17071 -1.40003 0
M  V30 2037 C 206.507 -1.88511 -3.08457 0
M  V30 2038 O 206.228 -3.26979 -2.91576 0
M  V30 2039 C 207.729 -1.85029 -4.02839 0
M  V30 2040 H 204.949 -0.412233 -0.529438 0
M  V30 2041 H 207.493 -1.69788 -1.13984 0
M  V30 2042 H 205.648 -1.41379 -3.60681 0
M  V30 2043 H 206.062 -3.61936 -3.79608 0
M  V30 2044 H 207.536 -2.38395 -4.97867 0
M  V30 2045 H 208.013 -0.823303 -4.31414 0
M  V30 2046 H 208.619 -2.31853 -3.56545 0
M  V30 2047 N 206.934 1.1197 -1.10907 0
M  V30 2048 C 208.159 1.87942 -0.877064 0
M  V30 2049 C 208.584 1.79341 0.567314 0
M  V30 2050 O 207.942 1.15184 1.40009 0
M  V30 2051 C 207.99 3.34926 -1.33629 0
M  V30 2052 O 207.094 4.09303 -0.504447 0
M  V30 2053 H 206.435 0.583785 -0.316371 0
M  V30 2054 H 208.965 1.4157 -1.47712 0
M  V30 2055 H 208.975 3.8577 -1.32837 0
M  V30 2056 H 207.65 3.40504 -2.3881 0
M  V30 2057 H 206.227 3.68393 -0.577993 0
M  V30 2058 N 208.412 0.89855 1.29475 0
M  V30 2059 C 209.322 0.379974 2.31502 0
M  V30 2060 C 210.338 -0.524695 1.659 0
M  V30 2061 O 211.514 -0.414551 1.97087 0
M  V30 2062 C 208.579 -0.385138 3.44554 0
M  V30 2063 C 207.64 0.550914 4.2575 0
M  V30 2064 C 206.873 -0.177778 5.33404 0
M  V30 2065 O 207.096 -1.40189 5.52904 0
M  V30 2066 O 206.03 0.479106 5.9999 0
M  V30 2067 H 209.856 1.22639 2.77837 0
M  V30 2068 H 207.441 0.662834 1.33891 0
M  V30 2069 H 209.323 -0.817841 4.13388 0
M  V30 2070 H 207.998 -1.20763 3.0033 0
M  V30 2071 H 206.905 1.03271 3.59564 0
M  V30 2072 H 208.238 1.33979 4.73614 0
M  V30 2073 N 209.89 -1.43072 0.660911 0
M  V30 2074 C 210.84 -2.27948 -0.04847 0
M  V30 2075 C 211.824 -1.40325 -0.787246 0
M  V30 2076 O 213.016 -1.63893 -0.668446 0
M  V30 2077 C 210.145 -3.28143 -1.00881 0
M  V30 2078 C 209.231 -4.23252 -0.268108 0
M  V30 2079 N 209.622 -5.00656 0.719528 0
M  V30 2080 C 207.92 -4.43092 -0.508493 0
M  V30 2081 C 208.621 -5.70019 1.15988 0
M  V30 2082 N 207.597 -5.41364 0.492584 0
M  V30 2083 H 211.399 -2.85213 0.709279 0
M  V30 2084 H 208.913 -1.54869 0.488822 0
M  V30 2085 H 210.91 -3.87736 -1.53188 0
M  V30 2086 H 209.57 -2.7244 -1.76654 0
M  V30 2087 H 210.581 -5.06115 1.09855 0
M  V30 2088 H 207.258 -3.98449 -1.24679 0
M  V30 2089 H 208.648 -6.4214 1.97751 0
M  V30 2090 N 211.368 -0.403325 -1.52352 0
M  V30 2091 C 212.278 0.432009 -2.30588 0
M  V30 2092 C 213.294 1.05884 -1.38075 0
M  V30 2093 O 214.47 1.06161 -1.71148 0
M  V30 2094 C 211.535 1.53669 -3.10784 0
M  V30 2095 C 210.596 0.933525 -4.19027 0
M  V30 2096 C 209.829 1.98557 -4.9539 0
M  V30 2097 O 210.052 3.20283 -4.71991 0
M  V30 2098 O 208.986 1.59504 -5.80381 0
M  V30 2099 H 212.812 -0.205739 -3.03002 0
M  V30 2100 H 210.397 -0.166675 -1.48467 0
M  V30 2101 H 212.279 2.17814 -3.60742 0
M  V30 2102 H 210.954 2.15915 -2.41169 0
M  V30 2103 H 209.861 0.254954 -3.7323 0
M  V30 2104 H 211.194 0.35508 -4.90918 0
M  V30 2105 N 212.846 1.57033 -0.133567 0
M  V30 2106 C 213.809 2.14897 0.796995 0
M  V30 2107 C 214.809 1.0874 1.18458 0
M  V30 2108 O 215.999 1.34446 1.1077 0
M  V30 2109 C 213.131 2.70112 2.07973 0
M  V30 2110 H 214.324 2.98457 0.293873 0
M  V30 2111 H 211.877 1.55871 0.115787 0
M  V30 2112 H 212.612 1.9018 2.62682 0
M  V30 2113 H 212.397 3.47764 1.81115 0
M  V30 2114 H 213.887 3.14738 2.74462 0
M  V30 2115 N 214.325 -0.140222 1.56975 0
M  V30 2116 C 215.602 -0.880769 1.74648 0
M  V30 2117 C 215.982 -1.99036 0.703404 0
M  V30 2118 O 215.33 -2.26821 -0.27648 0
M  V30 2119 C 215.54 -1.417 3.18939 0
M  V30 2120 C 216.888 -1.87774 3.80823 0
M  V30 2121 O 217.912 -1.51427 3.2241 0
M  V30 2122 O 216.771 -2.54827 4.83452 0
M  V30 2123 H 213.865 -0.416713 0.714338 0
M  V30 2124 H 216.411 -0.125618 1.69234 0
M  V30 2125 H 215.183 -0.619902 3.86359 0
M  V30 2126 H 214.806 -2.23546 3.28805 0
M  V30 2127 N 215.803 -1.52179 -0.40978 0
M  V30 2128 C 217.049 -1.66453 -1.15851 0
M  V30 2129 C 217.382 -0.392972 -1.90182 0
M  V30 2130 O 216.657 0.608579 -1.84734 0
M  V30 2131 C 216.94 -2.88612 -2.15349 0
M  V30 2132 C 216.793 -4.25815 -1.44918 0
M  V30 2133 C 218.112 -3.06294 -3.16026 0
M  V30 2134 H 215.231 -0.60575 -0.419805 0
M  V30 2135 H 217.873 -1.84732 -0.444314 0
M  V30 2136 H 216.023 -2.73158 -2.76255 0
M  V30 2137 H 217.695 -4.52995 -0.871365 0
M  V30 2138 H 215.938 -4.27247 -0.751159 0
M  V30 2139 H 216.609 -5.07337 -2.17516 0
M  V30 2140 H 219.085 -3.20641 -2.65195 0
M  V30 2141 H 217.961 -3.93283 -3.8291 0
M  V30 2142 H 218.222 -2.19579 -3.83715 0
M  V30 2143 N 217.281 0.66697 -1.42791 0
M  V30 2144 C 218.527 1.4291 -1.43891 0
M  V30 2145 C 218.86 1.94114 -0.0578972 0
M  V30 2146 O 218.135 1.71414 0.91911 0
M  V30 2147 C 218.418 2.62049 -2.46987 0
M  V30 2148 C 218.271 2.16426 -3.94309 0
M  V30 2149 C 219.59 3.64266 -2.46978 0
M  V30 2150 H 216.709 0.518306 -0.523954 0
M  V30 2151 H 219.351 0.757321 -1.74255 0
M  V30 2152 H 217.501 3.19361 -2.21225 0
M  V30 2153 H 219.173 1.64221 -4.31079 0
M  V30 2154 H 217.416 1.47925 -4.078 0
M  V30 2155 H 218.087 3.02038 -4.62036 0
M  V30 2156 H 220.563 3.16686 -2.69906 0
M  V30 2157 H 219.439 4.45196 -3.21079 0
M  V30 2158 H 219.7 4.15927 -1.49857 0
M  V30 2159 N 218.759 1.29093 0.90403 0
M  V30 2160 C 219.689 1.16401 2.02418 0
M  V30 2161 C 220.67 0.0593085 1.69997 0
M  V30 2162 O 221.855 0.238021 1.92736 0
M  V30 2163 C 218.985 0.835233 3.37107 0
M  V30 2164 C 217.939 1.89578 3.83724 0
M  V30 2165 C 217.265 1.42041 5.15489 0
M  V30 2166 C 218.565 3.30394 4.04521 0
M  V30 2167 H 220.259 2.10109 2.13295 0
M  V30 2168 H 217.805 1.01157 1.02486 0
M  V30 2169 H 219.758 0.733169 4.14973 0
M  V30 2170 H 218.482 -0.137543 3.2631 0
M  V30 2171 H 217.141 1.98715 3.08071 0
M  V30 2172 H 216.789 0.436426 5.01103 0
M  V30 2173 H 216.489 2.12964 5.4765 0
M  V30 2174 H 218.013 1.33176 5.959 0
M  V30 2175 H 219.427 3.24123 4.72882 0
M  V30 2176 H 217.824 3.99237 4.48029 0
M  V30 2177 H 218.894 3.73692 3.09002 0
M  V30 2178 N 220.237 -1.11381 1.11499 0
M  V30 2179 C 221.483 -1.83403 0.865512 0
M  V30 2180 C 221.816 -1.84459 -0.607329 0
M  V30 2181 O 221.091 -1.29811 -1.44842 0
M  V30 2182 C 221.374 -3.30552 1.42855 0
M  V30 2183 C 221.227 -3.37886 2.96906 0
M  V30 2184 C 222.546 -4.26643 1.08 0
M  V30 2185 H 219.665 -0.665879 0.31587 0
M  V30 2186 H 222.307 -1.30601 1.37998 0
M  V30 2187 H 220.457 -3.75648 0.990985 0
M  V30 2188 H 222.129 -3.01343 3.49271 0
M  V30 2189 H 220.372 -2.78088 3.32941 0
M  V30 2190 H 221.043 -4.41458 3.31389 0
M  V30 2191 H 223.519 -3.89729 1.45775 0
M  V30 2192 H 222.395 -5.27986 1.50072 0
M  V30 2193 H 222.656 -4.42099 -0.00915037 0
M  V30 2194 N 221.715 -0.905404 -1.28997 0
M  V30 2195 C 222.678 -0.392253 -2.25819 0
M  V30 2196 C 223.678 0.476753 -1.5357 0
M  V30 2197 O 224.868 0.280994 -1.71919 0
M  V30 2198 C 222 0.438588 -3.38067 0
M  V30 2199 H 223.193 -1.24743 -2.72725 0
M  V30 2200 H 220.746 -0.684051 -1.40536 0
M  V30 2201 H 221.481 1.31352 -2.96508 0
M  V30 2202 H 221.266 -0.184167 -3.91667 0
M  V30 2203 H 222.756 0.78873 -4.10084 0
M  V30 2204 N 223.193 1.4272 -0.668489 0
M  V30 2205 C 224.421 2.05966 -0.196348 0
M  V30 2206 C 224.836 1.50191 1.14403 0
M  V30 2207 O 224.193 0.639208 1.7094 0
M  V30 2208 C 224.244 3.61314 -0.115815 0
M  V30 2209 O 223.965 4.1502 -1.40322 0
M  V30 2210 C 225.466 4.41663 0.380579 0
M  V30 2211 H 222.686 0.663954 -0.0969829 0
M  V30 2212 H 225.23 1.82966 -0.913446 0
M  V30 2213 H 223.385 3.83448 0.551931 0
M  V30 2214 H 223.799 5.08832 -1.27243 0
M  V30 2215 H 225.273 5.5065 0.385848 0
M  V30 2216 H 225.75 4.15792 1.41471 0
M  V30 2217 H 226.356 4.24534 -0.255209 0
M  V30 2218 N 224.671 0.411399 1.52136 0
M  V30 2219 C 225.919 -0.163322 2.01439 0
M  V30 2220 C 226.24 -1.45453 1.29879 0
M  V30 2221 O 225.51 -1.91225 0.4254 0
M  V30 2222 H 224.09 -0.0633447 0.744309 0
M  V30 2223 H 226.752 0.548161 1.87033 0
M  V30 2224 H 225.848 -0.357817 3.10042 0
M  V30 2225 N 226.149 -1.5696 0.141893 0
M  V30 2226 C 227.112 -2.15316 -0.785587 0
M  V30 2227 C 228.112 -1.09366 -1.1788 0
M  V30 2228 O 229.302 -1.35031 -1.10056 0
M  V30 2229 C 226.434 -2.71211 -2.06537 0
M  V30 2230 H 227.627 -2.98608 -0.278041 0
M  V30 2231 H 225.18 -1.5593 -0.107519 0
M  V30 2232 H 225.915 -1.91571 -2.6167 0
M  V30 2233 H 225.7 -3.4872 -1.79268 0
M  V30 2234 H 227.19 -3.16189 -2.72789 0
M  V30 2235 N 227.627 0.131896 -1.57047 0
M  V30 2236 C 228.852 0.860418 -1.8871 0
M  V30 2237 C 229.277 1.73251 -0.73251 0
M  V30 2238 O 228.635 1.785 0.317429 0
M  V30 2239 C 228.683 1.68047 -3.19049 0
M  V30 2240 O 227.787 2.7862 -3.04047 0
M  V30 2241 H 227.128 0.238743 -0.619595 0
M  V30 2242 H 229.658 0.118169 -2.04258 0
M  V30 2243 H 229.668 2.07238 -3.51449 0
M  V30 2244 H 228.343 1.04018 -4.02682 0
M  V30 2245 H 226.92 2.42726 -2.83088 0
M  V30 2246 N 229.106 1.52395 0.401703 0
M  V30 2247 C 230.517 1.58899 0.980202 0
M  V30 2248 C 230.868 0.434032 1.91339 0
M  V30 2249 O 229.993 -0.444619 2.11783 0
M  V30 2250 C 230.588 2.87994 1.78451 0
M  V30 2251 C 229.147 2.96953 2.31292 0
M  V30 2252 C 228.294 2.53903 1.11483 0
M  V30 2253 H 231.245 1.57657 0.18168 0
M  V30 2254 H 231.266 2.73765 2.64259 0
M  V30 2255 H 230.778 3.72035 1.10506 0
M  V30 2256 H 228.879 2.17422 3.02586 0
M  V30 2257 H 228.992 4.01344 2.61649 0
M  V30 2258 H 227.356 2.07925 1.47104 0
M  V30 2259 H 228.139 3.40326 0.450928 0
M  V30 2260 N 230.584 -0.659388 1.43143 0
M  V30 2261 C 232 -0.974337 1.26407 0
M  V30 2262 C 232.2 -2.007 0.179341 0
M  V30 2263 O 231.256 -2.4856 -0.444295 0
M  V30 2264 C 232.569 -1.46447 2.62628 0
M  V30 2265 C 234.117 -1.58144 2.7011 0
M  V30 2266 C 234.592 -2.1055 4.06734 0
M  V30 2267 N 236.083 -2.17861 4.08767 0
M  V30 2268 C 236.818 -2.59519 5.1131 0
M  V30 2269 N 236.314 -3.00518 6.24228 0
M  V30 2270 N 238.107 -2.59404 4.98664 0
M  V30 2271 H 230.258 0.0240528 2.12386 0
M  V30 2272 H 232.521 -0.0518065 0.946583 0
M  V30 2273 H 232.227 -0.780123 3.42939 0
M  V30 2274 H 232.101 -2.44058 2.87603 0
M  V30 2275 H 234.488 -2.25682 1.90136 0
M  V30 2276 H 234.569 -0.589828 2.48907 0
M  V30 2277 H 234.213 -1.43616 4.87172 0
M  V30 2278 H 234.143 -3.10531 4.25298 0
M  V30 2279 H 236.634 -1.88975 3.27257 0
M  V30 2280 H 236.947 -3.31036 6.98309 0
M  V30 2281 H 235.292 -2.98337 6.2771 0
M  V30 2282 H 238.483 -2.26747 4.09516 0
M  V30 2283 H 238.656 -2.91548 5.78709 0
M  V30 2284 N 232.062 -1.29571 -0.897171 0
M  V30 2285 C 233.311 -1.1706 -1.64256 0
M  V30 2286 C 233.624 0.276476 -1.93636 0
M  V30 2287 O 234.83 0.52294 -2.66416 0
M  V30 2288 C 233.286 -2.0475 -2.95982 0
M  V30 2289 C 232.894 -3.54295 -2.74187 0
M  V30 2290 C 234.638 -2.0097 -3.73914 0
M  V30 2291 C 232.545 -4.34081 -4.01656 0
M  V30 2292 H 231.475 -0.43452 -0.616205 0
M  V30 2293 H 234.126 -1.54229 -0.994268 0
M  V30 2294 H 232.508 -1.60452 -3.62038 0
M  V30 2295 H 233.682 -4.06662 -2.1671 0
M  V30 2296 H 231.997 -3.59773 -2.09648 0
M  V30 2297 H 234.594 -2.57838 -4.68427 0
M  V30 2298 H 234.937 -0.990273 -4.0435 0
M  V30 2299 H 235.47 -2.43325 -3.14703 0
M  V30 2300 H 232.209 -5.36671 -3.76384 0
M  V30 2301 H 231.729 -3.86483 -4.58684 0
M  V30 2302 H 233.408 -4.44877 -4.69781 0
M  V30 2303 N 233.54 1.10788 -1.12088 0
M  V30 2304 C 234.47 2.19083 -0.807755 0
M  V30 2305 C 235.451 1.6858 0.226859 0
M  V30 2306 O 236.636 1.93997 0.0888475 0
M  V30 2307 C 233.766 3.46344 -0.257576 0
M  V30 2308 C 232.72 4.101 -1.22483 0
M  V30 2309 C 232.046 5.32016 -0.535052 0
M  V30 2310 C 233.346 4.54236 -2.57811 0
M  V30 2311 H 235.04 2.45534 -1.71328 0
M  V30 2312 H 232.586 1.1801 -0.825205 0
M  V30 2313 H 234.539 4.21392 -0.0262679 0
M  V30 2314 H 233.263 3.19373 0.683278 0
M  V30 2315 H 231.922 3.37054 -1.44189 0
M  V30 2316 H 231.57 5.01319 0.410827 0
M  V30 2317 H 231.27 5.75625 -1.18024 0
M  V30 2318 H 232.794 6.09799 -0.312695 0
M  V30 2319 H 234.208 5.20575 -2.40155 0
M  V30 2320 H 232.605 5.08682 -3.18375 0
M  V30 2321 H 233.675 3.6734 -3.16528 0
M  V30 2322 N 235.018 0.912232 1.28515 0
M  V30 2323 C 236.429 0.591352 1.77087 0
M  V30 2324 C 236.78 -0.8933 1.74684 0
M  V30 2325 O 235.905 -1.69876 1.34056 0
M  V30 2326 C 236.5 1.06668 3.2157 0
M  V30 2327 C 235.059 0.79675 3.67871 0
M  V30 2328 C 234.206 1.23427 2.48316 0
M  V30 2329 H 237.157 1.09365 1.15 0
M  V30 2330 H 237.178 0.407455 3.78312 0
M  V30 2331 H 236.69 2.14726 3.23287 0
M  V30 2332 H 234.791 -0.270679 3.71616 0
M  V30 2333 H 234.904 1.40343 4.58084 0
M  V30 2334 H 233.268 0.653036 2.46186 0
M  V30 2335 H 234.051 2.32316 2.52753 0
M  V30 2336 N 236.496 -1.42363 0.676048 0
M  V30 2337 C 237.721 -2.06377 0.205705 0
M  V30 2338 C 238.146 -1.50463 -1.12883 0
M  V30 2339 O 237.504 -0.623619 -1.70237 0
M  V30 2340 C 237.552 -3.60277 0.152655 0
M  V30 2341 O 236.656 -4.02935 -0.87845 0
M  V30 2342 H 235.997 -0.655588 0.105359 0
M  V30 2343 H 238.527 -1.82475 0.925412 0
M  V30 2344 H 238.537 -4.07993 -0.0230675 0
M  V30 2345 H 237.212 -4.00346 1.12675 0
M  V30 2346 H 235.789 -3.66764 -0.673668 0
M  V30 2347 N 237.974 -0.419461 -1.51915 0
M  V30 2348 C 238.937 0.389116 -2.25873 0
M  V30 2349 C 239.937 0.964924 -1.28631 0
M  V30 2350 O 241.127 0.842179 -1.52489 0
M  V30 2351 C 238.259 1.54874 -3.03689 0
M  V30 2352 H 239.452 -0.258799 -2.98781 0
M  V30 2353 H 237.005 -0.172209 -1.55348 0
M  V30 2354 H 237.74 2.23323 -2.35154 0
M  V30 2355 H 237.525 1.14223 -3.75094 0
M  V30 2356 H 239.015 2.12046 -3.59759 0
M  V30 2357 N 239.452 1.56882 -0.150215 0
M  V30 2358 C 240.384 2.14057 0.819286 0
M  V30 2359 C 241.397 1.09082 1.20851 0
M  V30 2360 O 242.586 1.36347 1.15203 0
M  V30 2361 C 239.686 2.65102 2.11127 0
M  V30 2362 C 238.859 3.94511 1.88891 0
M  V30 2363 C 237.918 4.30834 3.02107 0
M  V30 2364 O 236.944 4.99099 2.73659 0
M  V30 2365 N 238.146 3.90676 4.29363 0
M  V30 2366 H 240.911 2.97871 0.330618 0
M  V30 2367 H 238.472 1.61866 0.0332538 0
M  V30 2368 H 240.464 2.86411 2.85921 0
M  V30 2369 H 239.034 1.85994 2.51247 0
M  V30 2370 H 238.254 3.81795 0.981152 0
M  V30 2371 H 239.542 4.7907 1.71376 0
M  V30 2372 H 238.94 3.35677 4.55343 0
M  V30 2373 H 237.497 4.1703 5.00928 0
M  V30 2374 N 240.93 -0.123565 1.57115 0
M  V30 2375 C 242.341 -0.681198 1.73829 0
M  V30 2376 C 242.692 -1.80535 0.768214 0
M  V30 2377 O 241.817 -2.16317 -0.0599103 0
M  V30 2378 C 242.412 -1.24246 3.15196 0
M  V30 2379 C 240.971 -1.74643 3.33432 0
M  V30 2380 C 240.118 -0.644284 2.69711 0
M  V30 2381 H 243.069 0.102315 1.5837 0
M  V30 2382 H 243.09 -2.11216 3.16493 0
M  V30 2383 H 242.602 -0.424062 3.85776 0
M  V30 2384 H 240.703 -2.58974 2.67886 0
M  V30 2385 H 240.816 -1.85902 4.41562 0
M  V30 2386 H 239.18 -1.07676 2.3082 0
M  V30 2387 H 239.963 0.163058 3.42913 0
M  V30 2388 N 242.408 -1.52605 -0.393616 0
M  V30 2389 C 243.685 -1.58001 -1.15304 0
M  V30 2390 C 244.065 -0.370385 -2.07825 0
M  V30 2391 O 243.413 0.641638 -2.19306 0
M  V30 2392 C 243.623 -2.91652 -1.91677 0
M  V30 2393 C 244.971 -3.4522 -2.47201 0
M  V30 2394 O 245.995 -2.93495 -2.01839 0
M  V30 2395 O 244.854 -4.35579 -3.3005 0
M  V30 2396 H 241.948 -0.637068 -0.527327 0
M  V30 2397 H 244.494 -1.64939 -0.399141 0
M  V30 2398 H 243.266 -3.71136 -1.23992 0
M  V30 2399 H 242.889 -2.88077 -2.74039 0
M  V30 2400 N 243.887 0.651787 -1.4349 0
M  V30 2401 C 245.135 1.40888 -1.44897 0
M  V30 2402 C 245.456 1.94856 -0.0749086 0
M  V30 2403 O 244.726 1.74518 0.889956 0
M  V30 2404 H 243.306 0.522887 -0.533478 0
M  V30 2405 H 245.968 0.768609 -1.79104 0
M  V30 2406 H 245.064 2.25052 -2.16236 0
M  V30 2407 N 245.365 1.30045 0.890287 0
M  V30 2408 C 246.275 1.17885 2.02831 0
M  V30 2409 C 247.291 0.0999609 1.73713 0
M  V30 2410 O 248.467 0.313867 1.98939 0
M  V30 2411 C 245.532 0.866079 3.35708 0
M  V30 2412 C 244.593 2.02979 3.78283 0
M  V30 2413 C 243.826 1.73184 5.0482 0
M  V30 2414 O 244.049 0.657237 5.66601 0
M  V30 2415 O 242.983 2.58267 5.43674 0
M  V30 2416 H 246.809 2.13474 2.16015 0
M  V30 2417 H 244.394 1.09587 1.01543 0
M  V30 2418 H 246.276 0.706623 4.15433 0
M  V30 2419 H 244.951 -0.0599443 3.23644 0
M  V30 2420 H 243.858 2.24454 2.99285 0
M  V30 2421 H 245.191 2.93734 3.94944 0
M  V30 2422 N 246.843 -1.10192 1.12674 0
M  V30 2423 C 248.259 -1.34235 0.863317 0
M  V30 2424 C 248.459 -1.95062 -0.505277 0
M  V30 2425 O 247.515 -2.19192 -1.25345 0
M  V30 2426 C 248.828 -2.2616 1.98172 0
M  V30 2427 C 250.376 -2.3969 2.0129 0
M  V30 2428 C 250.851 -3.34946 3.1237 0
M  V30 2429 N 252.342 -3.42515 3.11829 0
M  V30 2430 C 253.077 -4.16199 3.94419 0
M  V30 2431 N 252.573 -4.92747 4.87004 0
M  V30 2432 N 254.366 -4.11843 3.82547 0
M  V30 2433 H 246.517 -0.690798 2.00853 0
M  V30 2434 H 248.78 -0.366774 0.874174 0
M  V30 2435 H 248.486 -1.8868 2.96804 0
M  V30 2436 H 248.36 -3.26488 1.88906 0
M  V30 2437 H 250.747 -2.76438 1.03276 0
M  V30 2438 H 250.828 -1.39169 2.14629 0
M  V30 2439 H 250.472 -2.98923 4.10619 0
M  V30 2440 H 250.402 -4.35353 2.96269 0
M  V30 2441 H 252.893 -2.87926 2.44759 0
M  V30 2442 H 253.206 -5.46376 5.46528 0
M  V30 2443 H 251.551 -4.91862 4.91016 0
M  V30 2444 H 254.742 -3.51136 3.0955 0
M  V30 2445 H 254.915 -4.69007 4.47142 0
M  V30 2446 N 248.321 -0.919034 -1.28029 0
M  V30 2447 C 249.57 -0.550802 -1.94034 0
M  V30 2448 C 249.883 0.910877 -1.73096 0
M  V30 2449 O 251.089 1.3875 -2.33368 0
M  V30 2450 C 249.545 -0.934249 -3.47563 0
M  V30 2451 C 249.153 -2.41602 -3.7727 0
M  V30 2452 C 250.897 -0.636854 -4.19696 0
M  V30 2453 C 248.804 -2.73932 -5.24133 0
M  V30 2454 H 247.734 -0.202273 -0.726362 0
M  V30 2455 H 250.385 -1.11867 -1.45458 0
M  V30 2456 H 248.767 -0.295115 -3.94899 0
M  V30 2457 H 249.941 -3.10233 -3.40723 0
M  V30 2458 H 248.256 -2.68441 -3.18321 0
M  V30 2459 H 250.853 -0.855005 -5.2782 0
M  V30 2460 H 251.196 0.425575 -4.14119 0
M  V30 2461 H 251.729 -1.23469 -3.78154 0
M  V30 2462 H 248.468 -3.79049 -5.34792 0
M  V30 2463 H 247.988 -2.09942 -5.61858 0
M  V30 2464 H 249.667 -2.61215 -5.91925 0
M  V30 2465 N 249.799 1.42003 -0.683588 0
M  V30 2466 C 250.729 2.33487 -0.024866 0
M  V30 2467 C 251.71 1.51163 0.779975 0
M  V30 2468 O 252.895 1.79739 0.735362 0
M  V30 2469 C 250.025 3.3487 0.920836 0
M  V30 2470 C 248.979 4.27414 0.223958 0
M  V30 2471 C 248.305 5.19074 1.2832 0
M  V30 2472 C 249.605 5.14445 -0.90242 0
M  V30 2473 H 251.299 2.88819 -0.788921 0
M  V30 2474 H 248.845 1.38873 -0.38083 0
M  V30 2475 H 250.798 3.97787 1.39081 0
M  V30 2476 H 249.522 2.77861 1.71642 0
M  V30 2477 H 248.181 3.65904 -0.225864 0
M  V30 2478 H 247.829 4.58387 2.071 0
M  V30 2479 H 247.529 5.81822 0.821995 0
M  V30 2480 H 249.053 5.84867 1.75392 0
M  V30 2481 H 250.467 5.70998 -0.513272 0
M  V30 2482 H 248.864 5.86072 -1.28997 0
M  V30 2483 H 249.934 4.52322 -1.74737 0
M  V30 2484 N 251.277 0.427512 1.51691 0
M  V30 2485 C 252.505 -0.141191 2.06418 0
M  V30 2486 C 252.92 -1.37303 1.29589 0
M  V30 2487 O 252.277 -1.79059 0.352732 0
M  V30 2488 C 252.328 -0.473266 3.58389 0
M  V30 2489 O 252.049 0.709673 4.32314 0
M  V30 2490 C 253.55 -1.09371 4.29596 0
M  V30 2491 H 250.77 -0.0122747 0.670888 0
M  V30 2492 H 253.314 0.603764 1.95384 0
M  V30 2493 H 251.469 -1.16812 3.69369 0
M  V30 2494 H 251.883 0.42807 5.2275 0
M  V30 2495 H 253.357 -1.27613 5.37046 0
M  V30 2496 H 253.834 -2.072 3.87253 0
M  V30 2497 H 254.44 -0.43853 4.23033 0
M  V30 2498 N 252.755 -1.56801 0.158532 0
M  V30 2499 C 254.001 -1.97559 -0.483957 0
M  V30 2500 C 254.356 -1.04239 -1.61716 0
M  V30 2501 O 253.649 -0.079603 -1.91435 0
M  V30 2502 C 253.843 -3.4235 -1.02623 0
M  V30 2503 C 253.672 -4.49669 0.0528929 0
M  V30 2504 C 252.442 -5.02838 0.498234 0
M  V30 2505 C 254.64 -5.0725 0.848616 0
M  V30 2506 N 252.622 -5.93775 1.559 0
M  V30 2507 C 253.993 -5.94506 1.7596 0
M  V30 2508 C 256.048 -4.89788 0.895121 0
M  V30 2509 C 254.751 -6.66169 2.71314 0
M  V30 2510 C 256.777 -5.62161 1.83654 0
M  V30 2511 C 256.139 -6.49134 2.73503 0
M  V30 2512 H 252.238 -0.768332 -0.145566 0
M  V30 2513 H 254.822 -1.93012 0.255799 0
M  V30 2514 H 252.993 -3.47467 -1.73555 0
M  V30 2515 H 254.725 -3.70145 -1.63629 0
M  V30 2516 H 251.48 -4.73498 0.0983222 0
M  V30 2517 H 251.904 -6.43948 2.08949 0
M  V30 2518 H 256.546 -4.22255 0.21453 0
M  V30 2519 H 254.264 -7.32923 3.40367 0
M  V30 2520 H 257.85 -5.5064 1.87847 0
M  V30 2521 H 256.73 -7.04153 3.45163 0
M  V30 2522 N 254.233 0.115231 -1.57178 0
M  V30 2523 C 255.649 0.468877 -1.52557 0
M  V30 2524 C 255.849 1.81649 -0.872125 0
M  V30 2525 O 254.905 2.48347 -0.45606 0
M  V30 2526 C 256.218 0.4499 -2.97315 0
M  V30 2527 C 257.766 0.533185 -3.08425 0
M  V30 2528 C 258.241 0.54456 -4.54751 0
M  V30 2529 N 259.732 0.605892 -4.5922 0
M  V30 2530 C 260.467 0.636203 -5.6986 0
M  V30 2531 N 259.963 0.623931 -6.89985 0
M  V30 2532 N 261.756 0.679496 -5.57978 0
M  V30 2533 H 253.907 -0.767712 -1.9804 0
M  V30 2534 H 256.17 -0.283609 -0.904583 0
M  V30 2535 H 255.876 -0.472721 -3.48509 0
M  V30 2536 H 255.75 1.27632 -3.5495 0
M  V30 2537 H 258.137 1.44623 -2.57232 0
M  V30 2538 H 258.218 -0.320995 -2.53778 0
M  V30 2539 H 257.862 -0.364452 -5.06591 0
M  V30 2540 H 257.792 1.41568 -5.07214 0
M  V30 2541 H 260.283 0.621386 -3.72756 0
M  V30 2542 H 260.596 0.649787 -7.70063 0
M  V30 2543 H 258.941 0.591296 -6.9248 0
M  V30 2544 H 262.132 0.686472 -4.63039 0
M  V30 2545 H 262.305 0.69965 -6.44212 0
M  V30 2546 N 255.711 1.52812 0.385517 0
M  V30 2547 C 256.643 1.74096 1.49074 0
M  V30 2548 C 257.656 0.621462 1.50472 0
M  V30 2549 O 258.845 0.897245 1.54311 0
M  V30 2550 C 255.945 1.78774 2.87911 0
M  V30 2551 C 255.118 3.08134 3.10439 0
M  V30 2552 C 254.177 3.04313 4.29278 0
M  V30 2553 O 253.203 3.78168 4.25415 0
M  V30 2554 N 254.405 2.23741 5.35649 0
M  V30 2555 H 257.17 2.69455 1.31202 0
M  V30 2556 H 254.731 1.51343 0.575065 0
M  V30 2557 H 256.723 1.73721 3.65518 0
M  V30 2558 H 255.293 0.907869 2.99126 0
M  V30 2559 H 254.513 3.26649 2.20667 0
M  V30 2560 H 255.801 3.93662 3.22347 0
M  V30 2561 H 255.199 1.63211 5.41645 0
M  V30 2562 H 253.756 2.24524 6.11909 0
M  V30 2563 N 257.189 -0.644168 1.43834 0
M  V30 2564 C 258.119 -1.76814 1.52509 0
M  V30 2565 C 259.1 -1.65823 0.379052 0
M  V30 2566 O 260.285 -1.84781 0.597466 0
M  V30 2567 C 257.415 -3.15288 1.4564 0
M  V30 2568 C 256.369 -3.41053 2.58586 0
M  V30 2569 C 255.695 -4.79421 2.36769 0
M  V30 2570 C 256.995 -3.34902 4.00797 0
M  V30 2571 H 258.689 -1.69812 2.46586 0
M  V30 2572 H 256.235 -0.815542 1.1868 0
M  V30 2573 H 258.188 -3.93681 1.50311 0
M  V30 2574 H 256.912 -3.23043 0.480725 0
M  V30 2575 H 255.571 -2.65035 2.53282 0
M  V30 2576 H 255.219 -4.83863 1.37424 0
M  V30 2577 H 254.919 -4.9762 3.12487 0
M  V30 2578 H 256.443 -5.6006 2.43238 0
M  V30 2579 H 257.857 -4.03218 4.07539 0
M  V30 2580 H 256.254 -3.64637 4.76613 0
M  V30 2581 H 257.324 -2.32928 4.25291 0
M  V30 2582 N 258.668 -1.30515 -0.883378 0
M  V30 2583 C 259.898 -1.22182 -1.66599 0
M  V30 2584 C 260.306 0.217507 -1.87946 0
M  V30 2585 O 259.649 1.1554 -1.42815 0
M  V30 2586 C 259.711 -1.88146 -3.06335 0
M  V30 2587 C 259.375 -3.37476 -3.08154 0
M  V30 2588 C 260.372 -4.33443 -2.87094 0
M  V30 2589 C 258.057 -3.7895 -3.29701 0
M  V30 2590 C 260.051 -5.68858 -2.8754 0
M  V30 2591 C 257.738 -5.14482 -3.29776 0
M  V30 2592 C 258.736 -6.09246 -3.0872 0
M  V30 2593 O 258.424 -7.42302 -3.08615 0
M  V30 2594 H 258.156 -0.423898 -0.52658 0
M  V30 2595 H 260.71 -1.72703 -1.11188 0
M  V30 2596 H 258.94 -1.32157 -3.63416 0
M  V30 2597 H 260.629 -1.7391 -3.66756 0
M  V30 2598 H 261.395 -4.02733 -2.70243 0
M  V30 2599 H 257.274 -3.05631 -3.45124 0
M  V30 2600 H 260.818 -6.428 -2.71024 0
M  V30 2601 H 256.715 -5.44832 -3.46163 0
M  V30 2602 H 257.483 -7.5131 -3.24769 0
M  V30 2603 N 260.146 1.09593 -1.13257 0
M  V30 2604 C 261.423 1.78293 -0.804432 0
M  V30 2605 C 261.803 1.99004 0.70431 0
M  V30 2606 O 261.151 1.59007 1.641 0
M  V30 2607 C 261.361 3.10707 -1.5894 0
M  V30 2608 C 262.709 3.85443 -1.78099 0
M  V30 2609 O 263.733 3.20454 -1.55525 0
M  V30 2610 O 262.592 5.02108 -2.15753 0
M  V30 2611 H 259.686 0.773156 -0.293528 0
M  V30 2612 H 262.232 1.16164 -1.23709 0
M  V30 2613 H 261.004 2.91106 -2.61482 0
M  V30 2614 H 260.627 3.80558 -1.15157 0
M  V30 2615 N 261.624 0.925811 1.2754 0
M  V30 2616 C 262.554 0.440748 2.29303 0
M  V30 2617 C 263.535 -0.497971 1.62648 0
M  V30 2618 O 264.72 -0.403126 1.8997 0
M  V30 2619 C 261.85 -0.309048 3.45922 0
M  V30 2620 C 260.804 0.54166 4.24559 0
M  V30 2621 C 260.13 -0.337191 5.33636 0
M  V30 2622 C 261.43 1.80516 4.90114 0
M  V30 2623 H 263.124 1.29121 2.70126 0
M  V30 2624 H 260.67 0.622323 1.29858 0
M  V30 2625 H 262.623 -0.659315 4.1621 0
M  V30 2626 H 261.347 -1.19352 3.04011 0
M  V30 2627 H 260.006 0.874609 3.56014 0
M  V30 2628 H 259.654 -1.22056 4.87966 0
M  V30 2629 H 259.354 0.228497 5.87156 0
M  V30 2630 H 260.878 -0.683072 6.06767 0
M  V30 2631 H 262.292 1.52307 5.52698 0
M  V30 2632 H 260.689 2.3142 5.53683 0
M  V30 2633 H 261.759 2.52581 4.13921 0
M  V30 2634 N 263.102 -1.41638 0.69111 0
M  V30 2635 C 264.379 -1.95036 0.148421 0
M  V30 2636 C 264.759 -1.63072 -1.34055 0
M  V30 2637 O 264.107 -0.93538 -2.08478 0
M  V30 2638 C 264.317 -3.46279 0.434951 0
M  V30 2639 C 265.665 -4.23069 0.360275 0
M  V30 2640 O 266.689 -3.54277 0.369613 0
M  V30 2641 O 265.548 -5.45583 0.316534 0
M  V30 2642 H 262.642 -0.826908 0.0123654 0
M  V30 2643 H 265.188 -1.5138 0.766963 0
M  V30 2644 H 263.96 -3.6281 1.46576 0
M  V30 2645 H 263.583 -3.97019 -0.214787 0
M  V30 2646 N 264.58 -0.43555 -1.51462 0
M  V30 2647 C 265.543 0.365137 -2.26273 0
M  V30 2648 C 266.543 0.951227 -1.29647 0
M  V30 2649 O 267.733 0.825958 -1.53374 0
M  V30 2650 C 264.865 1.51645 -3.05314 0
M  V30 2651 H 266.058 -0.290474 -2.9849 0
M  V30 2652 H 263.611 -0.188676 -1.55157 0
M  V30 2653 H 264.346 2.20816 -2.3751 0
M  V30 2654 H 264.131 1.10238 -3.76284 0
M  V30 2655 H 265.621 2.08218 -3.61987 0
M  V30 2656 N 266.058 1.56714 -0.166846 0
M  V30 2657 C 266.988 2.20754 0.760913 0
M  V30 2658 C 267.969 1.16178 1.24244 0
M  V30 2659 O 269.154 1.44592 1.29641 0
M  V30 2660 C 266.284 2.84478 1.99223 0
M  V30 2661 C 265.238 3.95053 1.64672 0
M  V30 2662 C 264.564 4.45805 2.95232 0
M  V30 2663 C 265.864 5.14865 0.878155 0
M  V30 2664 H 267.558 2.98537 0.22713 0
M  V30 2665 H 265.104 1.43596 0.107805 0
M  V30 2666 H 267.057 3.27951 2.64624 0
M  V30 2667 H 265.781 2.04056 2.55007 0
M  V30 2668 H 264.44 3.52228 1.01641 0
M  V30 2669 H 264.088 3.62181 3.49047 0
M  V30 2670 H 263.788 5.204 2.7287 0
M  V30 2671 H 265.312 4.91962 3.6167 0
M  V30 2672 H 266.726 5.55059 1.43466 0
M  V30 2673 H 265.123 5.95348 0.753738 0
M  V30 2674 H 266.193 4.84735 -0.126377 0
M  V30 2675 N 267.536 -0.106894 1.57237 0
M  V30 2676 C 268.947 -0.662723 1.74542 0
M  V30 2677 C 269.298 -1.7971 0.787319 0
M  V30 2678 O 268.423 -2.16368 -0.0369636 0
M  V30 2679 C 269.018 -1.20896 3.16496 0
M  V30 2680 C 267.577 -1.71096 3.35266 0
M  V30 2681 C 266.724 -0.615642 2.7038 0
M  V30 2682 H 269.675 0.119106 1.58252 0
M  V30 2683 H 269.696 -2.07847 3.18716 0
M  V30 2684 H 269.208 -0.383122 3.86204 0
M  V30 2685 H 267.309 -2.56119 2.70618 0
M  V30 2686 H 267.422 -1.81208 4.43509 0
M  V30 2687 H 265.786 -1.05222 2.31949 0
M  V30 2688 H 266.569 0.199419 3.4272 0
M  V30 2689 N 269.014 -1.53014 -0.377408 0
M  V30 2690 C 270.291 -1.59215 -1.13622 0
M  V30 2691 C 270.671 -0.392407 -2.07421 0
M  V30 2692 O 270.019 0.618342 -2.19975 0
M  V30 2693 C 270.229 -2.93669 -1.88573 0
M  V30 2694 C 271.577 -3.47822 -2.43526 0
M  V30 2695 O 272.601 -2.9562 -1.98715 0
M  V30 2696 O 271.46 -4.39055 -3.25412 0
M  V30 2697 H 268.554 -0.642625 -0.52054 0
M  V30 2698 H 271.1 -1.65353 -0.381625 0
M  V30 2699 H 269.872 -3.7243 -1.20048 0
M  V30 2700 H 269.495 -2.90968 -2.70968 0
M  V30 2701 N 270.492 0.636531 -1.44174 0
M  V30 2702 C 271.442 1.74233 -1.47061 0
M  V30 2703 C 272.426 1.57331 -0.337034 0
M  V30 2704 O 273.618 1.67159 -0.581973 0
M  V30 2705 C 270.747 3.12897 -1.41246 0
M  V30 2706 C 269.833 3.35288 -2.59698 0
M  V30 2707 N 270.224 3.2807 -3.84972 0
M  V30 2708 C 268.522 3.66065 -2.54778 0
M  V30 2709 C 269.223 3.51001 -4.63867 0
M  V30 2710 N 268.199 3.73616 -3.94857 0
M  V30 2711 H 272.001 1.67103 -2.41773 0
M  V30 2712 H 269.515 0.838806 -1.3906 0
M  V30 2713 H 271.512 3.92189 -1.41398 0
M  V30 2714 H 270.172 3.21197 -0.47569 0
M  V30 2715 H 271.183 3.07109 -4.17019 0
M  V30 2716 H 267.86 3.81379 -1.6987 0
M  V30 2717 H 269.25 3.51059 -5.72894 0
M  V30 2718 N 271.97 1.30982 0.876444 0
M  V30 2719 C 272.9 1.20668 1.99903 0
M  V30 2720 C 273.881 0.095354 1.69833 0
M  V30 2721 O 275.066 0.27885 1.92188 0
M  V30 2722 C 272.196 0.90655 3.3526 0
M  V30 2723 C 271.15 1.97675 3.79617 0
M  V30 2724 C 270.476 1.52943 5.1236 0
M  V30 2725 C 271.776 3.389 3.97422 0
M  V30 2726 H 273.47 2.14586 2.0879 0
M  V30 2727 H 271.016 1.03308 1.00317 0
M  V30 2728 H 272.969 0.821025 4.13324 0
M  V30 2729 H 271.693 -0.0682969 3.26529 0
M  V30 2730 H 270.352 2.05205 3.03787 0
M  V30 2731 H 270 0.54262 5.00065 0
M  V30 2732 H 269.7 2.24532 5.43009 0
M  V30 2733 H 271.224 1.45786 5.92941 0
M  V30 2734 H 272.638 3.34081 4.659 0
M  V30 2735 H 271.035 4.0865 4.3946 0
M  V30 2736 H 272.105 3.80163 3.01006 0
M  V30 2737 N 273.449 -1.08991 1.13837 0
M  V30 2738 C 274.698 -1.80631 0.897509 0
M  V30 2739 C 275.011 -1.86872 -0.57777 0
M  V30 2740 O 276.217 -2.54866 -0.935701 0
M  V30 2741 C 274.673 -3.24517 1.55618 0
M  V30 2742 C 274.281 -3.26529 3.0673 0
M  V30 2743 C 276.025 -4.00882 1.3962 0
M  V30 2744 C 273.932 -4.64965 3.65461 0
M  V30 2745 H 272.862 -0.67691 0.332129 0
M  V30 2746 H 275.513 -1.2246 1.3666 0
M  V30 2747 H 273.895 -3.82778 1.01476 0
M  V30 2748 H 275.069 -2.78008 3.67489 0
M  V30 2749 H 273.384 -2.63656 3.22296 0
M  V30 2750 H 275.981 -5.03167 1.80906 0
M  V30 2751 H 276.324 -4.14896 0.341578 0
M  V30 2752 H 276.857 -3.49075 1.90766 0
M  V30 2753 H 273.596 -4.56153 4.70749 0
M  V30 2754 H 273.116 -5.13792 3.09481 0
M  V30 2755 H 274.795 -5.3394 3.654 0
M  V30 2756 N 274.927 -0.932562 -1.27047 0
M  V30 2757 C 276.173 -0.576412 -1.94436 0
M  V30 2758 C 276.506 0.880891 -1.73072 0
M  V30 2759 O 275.781 1.62905 -1.06264 0
M  V30 2760 C 276.064 -0.909031 -3.48437 0
M  V30 2761 C 275.917 -2.42044 -3.79123 0
M  V30 2762 C 277.236 -0.418341 -4.38107 0
M  V30 2763 H 274.355 -0.210888 -0.706184 0
M  V30 2764 H 276.997 -1.16522 -1.50075 0
M  V30 2765 H 275.147 -0.407947 -3.86352 0
M  V30 2766 H 276.819 -2.99359 -3.50973 0
M  V30 2767 H 275.062 -2.86758 -3.25503 0
M  V30 2768 H 275.733 -2.6037 -4.86736 0
M  V30 2769 H 278.209 -0.847856 -4.0737 0
M  V30 2770 H 277.085 -0.679981 -5.44672 0
M  V30 2771 H 277.346 0.681642 -4.36814 0
M  V30 2772 N 276.405 1.4127 -0.698611 0
M  V30 2773 C 277.651 2.01478 -0.231207 0
M  V30 2774 C 277.984 1.55215 1.16713 0
M  V30 2775 O 277.259 0.764672 1.78838 0
M  V30 2776 C 277.542 3.58912 -0.292281 0
M  V30 2777 C 277.395 4.15293 -1.72778 0
M  V30 2778 C 278.714 4.38736 0.346194 0
M  V30 2779 H 275.833 0.732025 -0.0854878 0
M  V30 2780 H 278.475 1.67977 -0.887906 0
M  V30 2781 H 276.625 3.87582 0.26686 0
M  V30 2782 H 278.297 3.97486 -2.341 0
M  V30 2783 H 276.54 3.7022 -2.26096 0
M  V30 2784 H 277.211 5.24452 -1.72202 0
M  V30 2785 H 279.687 4.15897 -0.130035 0
M  V30 2786 H 278.563 5.48221 0.272932 0
M  V30 2787 H 278.824 4.18425 1.42734 0
M  V30 2788 N 277.883 0.443576 1.51229 0
M  V30 2789 C 279.131 -0.120557 2.0174 0
M  V30 2790 C 279.452 -1.42665 1.32935 0
M  V30 2791 O 278.722 -1.9028 0.465866 0
M  V30 2792 H 277.302 -0.0475426 0.745486 0
M  V30 2793 H 279.964 0.587711 1.85828 0
M  V30 2794 H 279.06 -0.291972 3.10731 0
M  V30 2795 N 279.361 -1.56624 0.175154 0
M  V30 2796 C 280.586 -2.01813 -0.478137 0
M  V30 2797 C 281.011 -1.05457 -1.55757 0
M  V30 2798 O 280.369 -0.0347439 -1.81267 0
M  V30 2799 C 280.417 -3.45581 -1.02987 0
M  V30 2800 O 279.521 -3.52305 -2.14371 0
M  V30 2801 H 278.862 -0.65413 -0.114059 0
M  V30 2802 H 281.392 -2.02673 0.280173 0
M  V30 2803 H 281.402 -3.84965 -1.35151 0
M  V30 2804 H 280.077 -4.1521 -0.239556 0
M  V30 2805 H 278.654 -3.24783 -1.83222 0
M  V30 2806 N 280.839 0.0985539 -1.57292 0
M  V30 2807 C 282.087 0.801092 -1.85545 0
M  V30 2808 C 282.408 1.79438 -0.763353 0
M  V30 2809 O 281.678 1.94763 0.21073 0
M  V30 2810 H 280.258 0.29884 -0.684619 0
M  V30 2811 H 282.92 0.0810064 -1.94732 0
M  V30 2812 H 282.016 1.3338 -2.82163 0
M  V30 2813 N 282.317 1.53212 0.369288 0
M  V30 2814 C 283.563 1.69466 1.11397 0
M  V30 2815 C 283.896 0.443257 1.89074 0
M  V30 2816 O 283.171 -0.559386 1.86282 0
M  V30 2817 C 283.454 2.9422 2.07621 0
M  V30 2818 C 283.307 4.29508 1.33577 0
M  V30 2819 C 284.626 3.14565 3.07794 0
M  V30 2820 H 281.745 0.616667 0.403597 0
M  V30 2821 H 284.387 1.85845 0.395179 0
M  V30 2822 H 282.537 2.80387 2.68916 0
M  V30 2823 H 284.209 4.55147 0.750955 0
M  V30 2824 H 282.452 4.29088 0.637618 0
M  V30 2825 H 283.123 5.12926 2.03989 0
M  V30 2826 H 285.599 3.2756 2.56601 0
M  V30 2827 H 284.475 4.03297 3.72348 0
M  V30 2828 H 284.736 2.29675 3.77759 0
M  V30 2829 N 283.795 -0.628877 1.44509 0
M  V30 2830 C 285.023 -1.41554 1.50897 0
M  V30 2831 C 285.438 -1.8832 0.134564 0
M  V30 2832 O 284.795 -1.60969 -0.859965 0
M  V30 2833 C 284.846 -2.63435 2.47556 0
M  V30 2834 O 284.567 -2.18619 3.79654 0
M  V30 2835 C 286.068 -3.56537 2.63431 0
M  V30 2836 H 283.288 -0.434044 0.511709 0
M  V30 2837 H 285.832 -0.768895 1.89495 0
M  V30 2838 H 283.987 -3.24187 2.12089 0
M  V30 2839 H 284.401 -2.97652 4.31861 0
M  V30 2840 H 285.875 -4.38657 3.35088 0
M  V30 2841 H 286.352 -4.05493 1.68738 0
M  V30 2842 H 286.958 -3.01653 2.9981 0
M  V30 2843 N 285.273 -1.31445 -0.869486 0
M  V30 2844 C 286.521 -1.20918 -1.61936 0
M  V30 2845 C 286.842 0.232683 -1.93607 0
M  V30 2846 O 286.112 1.15352 -1.58338 0
M  V30 2847 H 284.692 -0.44454 -0.600328 0
M  V30 2848 H 287.354 -1.64776 -1.0409 0
M  V30 2849 H 286.45 -1.78124 -2.56278 0
M  V30 2850 N 286.751 1.08385 -1.14413 0
M  V30 2851 C 287.714 2.13486 -0.834048 0
M  V30 2852 C 288.714 1.59988 0.161418 0
M  V30 2853 O 289.904 1.74071 -0.0669575 0
M  V30 2854 C 287.036 3.4003 -0.243354 0
M  V30 2855 H 288.229 2.42425 -1.7655 0
M  V30 2856 H 285.782 1.24101 -0.950189 0
M  V30 2857 H 286.517 3.16726 0.696807 0
M  V30 2858 H 286.302 3.80157 -0.960367 0
M  V30 2859 H 287.792 4.17577 -0.0436242 0
M  V30 2860 N 288.23 0.939286 1.26551 0
M  V30 2861 C 289.14 0.453432 2.30176 0
M  V30 2862 C 290.156 -0.471649 1.67486 0
M  V30 2863 O 291.332 -0.35164 1.98306 0
M  V30 2864 C 288.397 -0.275326 3.45605 0
M  V30 2865 C 287.458 0.686084 4.23782 0
M  V30 2866 C 286.691 -0.00798994 5.33699 0
M  V30 2867 O 286.914 -1.22528 5.57085 0
M  V30 2868 O 285.848 0.669746 5.98162 0
M  V30 2869 H 289.674 1.31416 2.73795 0
M  V30 2870 H 287.259 0.705095 1.31715 0
M  V30 2871 H 289.141 -0.685911 4.1578 0
M  V30 2872 H 287.816 -1.11147 3.0402 0
M  V30 2873 H 286.723 1.14658 3.56096 0
M  V30 2874 H 288.056 1.48979 4.69112 0
M  V30 2875 N 289.708 -1.40897 0.706093 0
M  V30 2876 C 290.955 -2.01054 0.241531 0
M  V30 2877 C 291.283 -1.55956 -1.16223 0
M  V30 2878 O 290.538 -0.766336 -1.80072 0
M  V30 2879 C 290.837 -3.5646 0.259099 0
M  V30 2880 C 290.503 -4.21106 1.61184 0
M  V30 2881 C 289.165 -4.38479 1.98216 0
M  V30 2882 C 291.517 -4.57256 2.50132 0
M  V30 2883 C 288.845 -4.89282 3.2376 0
M  V30 2884 C 291.197 -5.09454 3.7502 0
M  V30 2885 C 289.861 -5.25037 4.12181 0
M  V30 2886 H 289.131 -0.73571 0.0883825 0
M  V30 2887 H 291.778 -1.68645 0.907257 0
M  V30 2888 H 290.083 -3.88721 -0.490189 0
M  V30 2889 H 291.78 -4.00826 -0.11804 0
M  V30 2890 H 288.37 -4.07966 1.31384 0
M  V30 2891 H 292.554 -4.43479 2.228 0
M  V30 2892 H 287.81 -4.99531 3.52532 0
M  V30 2893 H 291.984 -5.36404 4.44121 0
M  V30 2894 H 289.611 -5.64164 5.09532 0
M  V30 2895 N 291.186 -0.45159 -1.50991 0
M  V30 2896 C 292.432 0.110237 -2.025 0
M  V30 2897 C 292.765 1.41109 -1.33424 0
M  V30 2898 O 292.04 1.89135 -0.453659 0
M  V30 2899 C 292.323 0.314271 -3.58726 0
M  V30 2900 C 292.176 -1.00623 -4.38401 0
M  V30 2901 C 293.495 1.07767 -4.26702 0
M  V30 2902 H 290.614 0.0385897 -0.735989 0
M  V30 2903 H 293.256 -0.593374 -1.80497 0
M  V30 2904 H 291.406 0.913601 -3.77605 0
M  V30 2905 H 293.078 -1.64064 -4.31139 0
M  V30 2906 H 291.321 -1.6075 -4.02917 0
M  V30 2907 H 291.992 -0.817341 -5.45915 0
M  V30 2908 H 294.468 0.56986 -4.12179 0
M  V30 2909 H 293.344 1.18921 -5.35863 0
M  V30 2910 H 293.605 2.10939 -3.88532 0
M  V30 2911 N 292.664 1.56529 -0.183458 0
M  V30 2912 C 293.941 1.88959 0.50536 0
M  V30 2913 C 294.321 1.09523 1.80466 0
M  V30 2914 O 293.669 0.19278 2.27685 0
M  V30 2915 C 293.879 3.41162 0.73547 0
M  V30 2916 C 295.227 4.11155 1.06005 0
M  V30 2917 O 296.251 3.46548 0.823594 0
M  V30 2918 O 295.11 5.25318 1.50675 0
M  V30 2919 H 292.204 0.78441 0.261973 0
M  V30 2920 H 294.75 1.68231 -0.222802 0
M  V30 2921 H 293.522 3.90874 -0.182561 0
M  V30 2922 H 293.145 3.67543 1.51651 0
M  V30 2923 N 294.142 -0.090211 1.57342 0
M  V30 2924 C 295.105 -1.09335 2.01441 0
M  V30 2925 C 296.105 -1.32666 0.908641 0
M  V30 2926 O 297.295 -1.28697 1.174 0
M  V30 2927 C 294.427 -2.44136 2.3793 0
M  V30 2928 H 295.62 -0.713662 2.91285 0
M  V30 2929 H 293.173 -0.335404 1.52659 0
M  V30 2930 H 293.908 -2.86972 1.51055 0
M  V30 2931 H 293.693 -2.28548 3.18603 0
M  V30 2932 H 295.183 -3.16277 2.72688 0
M  V30 2933 N 295.62 -1.53406 -0.361157 0
M  V30 2934 C 296.85 -1.73465 -1.1222 0
M  V30 2935 C 297.258 -0.465486 -1.83384 0
M  V30 2936 O 296.601 0.571611 -1.7458 0
M  V30 2937 C 296.663 -2.84834 -2.19339 0
M  V30 2938 C 296.327 -4.25038 -1.67903 0
M  V30 2939 C 297.324 -5.07231 -1.14074 0
M  V30 2940 C 295.009 -4.71464 -1.73282 0
M  V30 2941 C 297.003 -6.33942 -0.663068 0
M  V30 2942 C 294.69 -5.98153 -1.25127 0
M  V30 2943 C 295.688 -6.79223 -0.717296 0
M  V30 2944 O 295.376 -8.03533 -0.242865 0
M  V30 2945 H 295.108 -0.583526 -0.341283 0
M  V30 2946 H 297.662 -2.00964 -0.424591 0
M  V30 2947 H 295.892 -2.5282 -2.92607 0
M  V30 2948 H 297.581 -2.9303 -2.80871 0
M  V30 2949 H 298.347 -4.72534 -1.09254 0
M  V30 2950 H 294.226 -4.08432 -2.13786 0
M  V30 2951 H 297.77 -6.97167 -0.245612 0
M  V30 2952 H 293.667 -6.32347 -1.29642 0
M  V30 2953 H 294.435 -8.177 -0.361786 0
M  V30 2954 N 297.098 0.621204 -1.44841 0
M  V30 2955 C 298.326 1.40752 -1.51646 0
M  V30 2956 C 298.741 1.88246 -0.144549 0
M  V30 2957 O 298.098 1.61422 0.851416 0
M  V30 2958 C 298.149 2.62119 -2.4895 0
M  V30 2959 O 297.87 2.16602 -3.80808 0
M  V30 2960 C 299.371 3.55135 -2.65319 0
M  V30 2961 H 296.591 0.431325 -0.514004 0
M  V30 2962 H 299.135 0.758835 -1.899 0
M  V30 2963 H 297.29 3.23058 -2.13805 0
M  V30 2964 H 297.704 2.95358 -4.33433 0
M  V30 2965 H 299.178 4.36874 -3.37409 0
M  V30 2966 H 299.655 4.04592 -1.70886 0
M  V30 2967 H 300.261 3.00058 -3.01405 0
M  V30 2968 N 298.576 1.31904 0.862503 0
M  V30 2969 C 299.486 1.22161 2.00285 0
M  V30 2970 C 300.502 0.136785 1.73462 0
M  V30 2971 O 301.678 0.355994 1.98229 0
M  V30 2972 C 298.743 0.937093 3.33796 0
M  V30 2973 C 297.804 2.10957 3.73893 0
M  V30 2974 C 297.037 1.83853 5.01033 0
M  V30 2975 O 297.26 0.777274 5.65079 0
M  V30 2976 O 296.194 2.69741 5.38074 0
M  V30 2977 H 300.02 2.18008 2.11439 0
M  V30 2978 H 297.605 1.11716 0.991957 0
M  V30 2979 H 299.487 0.794583 4.13841 0
M  V30 2980 H 298.162 0.00871894 3.23699 0
M  V30 2981 H 297.069 2.30752 2.94456 0
M  V30 2982 H 298.402 3.02046 3.88625 0
M  V30 2983 N 300.054 -1.07777 1.14986 0
M  V30 2984 C 300.984 -2.16865 0.865557 0
M  V30 2985 C 301.965 -1.69123 -0.182083 0
M  V30 2986 O 303.15 -1.94164 -0.0373815 0
M  V30 2987 C 300.28 -3.45539 0.349313 0
M  V30 2988 C 299.234 -4.06708 1.33313 0
M  V30 2989 C 298.56 -5.30411 0.675918 0
M  V30 2990 C 299.86 -4.47241 2.69764 0
M  V30 2991 H 301.554 -2.40905 1.77778 0
M  V30 2992 H 299.1 -1.15781 0.856203 0
M  V30 2993 H 301.053 -4.21174 0.137983 0
M  V30 2994 H 299.777 -3.21072 -0.598362 0
M  V30 2995 H 298.436 -3.33112 1.53075 0
M  V30 2996 H 298.084 -5.02232 -0.277767 0
M  V30 2997 H 297.784 -5.72293 1.33244 0
M  V30 2998 H 299.308 -6.08755 0.474262 0
M  V30 2999 H 300.722 -5.14025 2.53873 0
M  V30 3000 H 299.119 -5.00062 3.3175 0
M  V30 3001 H 300.189 -3.58818 3.26156 0
M  V30 3002 N 301.532 -0.945985 -1.26051 0
M  V30 3003 C 302.78 -0.594941 -1.93145 0
M  V30 3004 C 303.101 0.86953 -1.7454 0
M  V30 3005 O 302.371 1.61838 -1.10387 0
M  V30 3006 H 300.951 -0.217044 -0.714773 0
M  V30 3007 H 303.613 -1.20235 -1.53393 0
M  V30 3008 H 302.709 -0.816835 -3.01221 0
M  V30 3009 N 303.011 1.40521 -0.713556 0
M  V30 3010 C 304.257 2.01221 -0.252564 0
M  V30 3011 C 304.59 1.56444 1.1506 0
M  V30 3012 O 303.865 0.783597 1.78017 0
M  V30 3013 C 304.148 3.58582 -0.330332 0
M  V30 3014 C 304.001 4.13437 -1.77173 0
M  V30 3015 C 305.32 4.39079 0.299641 0
M  V30 3016 H 302.439 0.731077 -0.0932471 0
M  V30 3017 H 305.081 1.67026 -0.905673 0
M  V30 3018 H 303.231 3.87844 0.225737 0
M  V30 3019 H 304.903 3.9498 -2.38303 0
M  V30 3020 H 303.146 3.67801 -2.3001 0
M  V30 3021 H 303.817 5.22597 -1.77755 0
M  V30 3022 H 306.293 4.15735 -0.174139 0
M  V30 3023 H 305.169 5.4848 0.214771 0
M  V30 3024 H 305.43 4.19915 1.38288 0
M  V30 3025 N 304.489 0.459591 1.5075 0
M  V30 3026 C 305.9 0.00171547 1.867 0
M  V30 3027 C 306.251 -1.39934 1.37525 0
M  V30 3028 O 305.376 -2.03523 0.735349 0
M  V30 3029 C 305.971 -0.00366298 3.388 0
M  V30 3030 C 304.53 -0.406026 3.74204 0
M  V30 3031 C 303.677 0.38673 2.7459 0
M  V30 3032 H 306.628 0.674413 1.43657 0
M  V30 3033 H 306.649 -0.808371 3.71814 0
M  V30 3034 H 306.161 1.01617 3.74561 0
M  V30 3035 H 304.262 -1.43063 3.4404 0
M  V30 3036 H 304.375 -0.115362 4.78961 0
M  V30 3037 H 302.739 -0.158019 2.54209 0
M  V30 3038 H 303.522 1.40585 3.13194 0
M  V30 3039 N 305.967 -1.56429 0.191757 0
M  V30 3040 C 307.213 -1.97777 -0.448554 0
M  V30 3041 C 307.546 -1.07847 -1.61501 0
M  V30 3042 O 306.821 -0.129774 -1.94067 0
M  V30 3043 C 307.104 -3.48362 -0.911906 0
M  V30 3044 C 306.957 -4.4907 0.256136 0
M  V30 3045 C 308.276 -4.02561 -1.77857 0
M  V30 3046 H 305.395 -0.719071 -0.161572 0
M  V30 3047 H 308.037 -1.87896 0.282007 0
M  V30 3048 H 306.187 -3.56914 -1.53442 0
M  V30 3049 H 307.859 -4.5256 0.893733 0
M  V30 3050 H 306.102 -4.24181 0.908436 0
M  V30 3051 H 306.773 -5.51889 -0.11053 0
M  V30 3052 H 309.249 -3.96767 -1.25359 0
M  V30 3053 H 308.125 -5.08301 -2.07174 0
M  V30 3054 H 308.386 -3.47616 -2.73158 0
M  V30 3055 N 307.445 0.0818655 -1.57387 0
M  V30 3056 C 308.673 0.796108 -1.9097 0
M  V30 3057 C 309.088 1.71626 -0.786757 0
M  V30 3058 O 308.445 1.80908 0.240513 0
M  V30 3059 C 308.496 1.59829 -3.24248 0
M  V30 3060 O 308.217 0.715131 -4.32224 0
M  V30 3061 C 309.718 2.41442 -3.7178 0
M  V30 3062 H 306.938 0.22691 -0.631469 0
M  V30 3063 H 309.482 0.0551439 -2.04426 0
M  V30 3064 H 307.637 2.29163 -3.12351 0
M  V30 3065 H 308.051 1.27205 -5.08841 0
M  V30 3066 H 309.525 2.932 -4.67694 0
M  V30 3067 H 310.002 3.2051 -3.00283 0
M  V30 3068 H 310.608 1.77283 -3.86589 0
M  V30 3069 N 308.923 1.53595 0.353017 0
M  V30 3070 C 310.169 1.70638 1.09593 0
M  V30 3071 C 310.502 0.463286 1.88593 0
M  V30 3072 O 309.777 -0.539597 1.86865 0
M  V30 3073 C 310.06 2.96406 2.04489 0
M  V30 3074 C 309.913 4.30901 1.29014 0
M  V30 3075 C 311.232 3.17812 3.0444 0
M  V30 3076 H 308.351 0.620913 0.397034 0
M  V30 3077 H 310.993 1.86254 0.375446 0
M  V30 3078 H 309.143 2.83223 2.65927 0
M  V30 3079 H 310.815 4.55917 0.702638 0
M  V30 3080 H 309.058 4.29741 0.592071 0
M  V30 3081 H 309.729 5.1506 1.98537 0
M  V30 3082 H 312.205 3.30263 2.53112 0
M  V30 3083 H 311.081 4.07223 3.6805 0
M  V30 3084 H 311.342 2.33669 3.75301 0
M  V30 3085 N 310.401 -0.613514 1.45168 0
M  V30 3086 C 311.647 -1.37471 1.49096 0
M  V30 3087 C 311.98 -1.93765 0.129901 0
M  V30 3088 O 311.255 -1.74707 -0.854858 0
M  V30 3089 C 311.538 -2.52701 2.56542 0
M  V30 3090 C 311.391 -2.01643 4.0207 0
M  V30 3091 C 312.71 -3.54849 2.60327 0
M  V30 3092 H 309.829 -0.498502 0.54283 0
M  V30 3093 H 312.471 -0.692125 1.76945 0
M  V30 3094 H 310.621 -3.10931 2.32926 0
M  V30 3095 H 312.293 -1.48108 4.36877 0
M  V30 3096 H 310.536 -1.32688 4.13009 0
M  V30 3097 H 311.207 -2.84681 4.72928 0
M  V30 3098 H 313.683 -3.0645 2.81474 0
M  V30 3099 H 312.559 -4.32973 3.37381 0
M  V30 3100 H 312.82 -4.10079 1.6519 0
M  V30 3101 N 311.879 -1.3236 -0.855495 0
M  V30 3102 C 312.842 -1.21164 -1.94556 0
M  V30 3103 C 313.842 -0.134908 -1.60233 0
M  V30 3104 O 315.032 -0.385249 -1.69887 0
M  V30 3105 C 312.164 -0.863192 -3.29791 0
M  V30 3106 H 313.357 -2.18038 -2.05911 0
M  V30 3107 H 310.91 -1.16179 -1.04557 0
M  V30 3108 H 311.645 0.103769 -3.24134 0
M  V30 3109 H 311.43 -1.64166 -3.56078 0
M  V30 3110 H 312.92 -0.809156 -4.09686 0
M  V30 3111 N 313.357 1.07166 -1.15556 0
M  V30 3112 C 314.582 1.84053 -0.955988 0
M  V30 3113 C 315.007 1.81586 0.490739 0
M  V30 3114 O 314.365 1.21018 1.34997 0
M  V30 3115 C 314.413 3.28957 -1.47714 0
M  V30 3116 O 313.517 4.06795 -0.677593 0
M  V30 3117 H 312.858 0.569842 -0.340847 0
M  V30 3118 H 315.388 1.35178 -1.53584 0
M  V30 3119 H 315.398 3.79788 -1.4908 0
M  V30 3120 H 314.073 3.30068 -2.53037 0
M  V30 3121 H 312.65 3.6561 -0.733721 0
M  V30 3122 N 314.835 0.952656 1.25548 0
M  V30 3123 C 315.767 0.428609 2.25157 0
M  V30 3124 C 316.78 -0.454428 1.56329 0
M  V30 3125 O 317.969 -0.263023 1.76552 0
M  V30 3126 C 315.069 -0.401972 3.36508 0
M  V30 3127 C 314.242 0.467601 4.34893 0
M  V30 3128 C 313.301 -0.30445 5.25319 0
M  V30 3129 O 312.327 0.296473 5.68427 0
M  V30 3130 N 313.529 -1.59805 5.5807 0
M  V30 3131 H 316.294 1.28497 2.70756 0
M  V30 3132 H 313.855 0.822798 1.39433 0
M  V30 3133 H 315.847 -0.926134 3.9396 0
M  V30 3134 H 314.417 -1.15918 2.90313 0
M  V30 3135 H 313.637 1.17288 3.76347 0
M  V30 3136 H 314.925 1.06119 4.97611 0
M  V30 3137 H 314.323 -2.10823 5.24948 0
M  V30 3138 H 312.88 -2.06822 6.18116 0
M  V30 3139 N 316.313 -1.40141 0.720998 0
M  V30 3140 C 317.59 -1.94677 0.189757 0
M  V30 3141 C 317.97 -1.65879 -1.30566 0
M  V30 3142 O 317.318 -0.979391 -2.06447 0
M  V30 3143 C 317.528 -3.45279 0.508304 0
M  V30 3144 C 318.876 -4.22209 0.449934 0
M  V30 3145 O 319.9 -3.53413 0.444677 0
M  V30 3146 O 318.759 -5.44788 0.432189 0
M  V30 3147 H 315.853 -0.826459 0.0299026 0
M  V30 3148 H 318.399 -1.49719 0.7989 0
M  V30 3149 H 317.171 -3.59619 1.54239 0
M  V30 3150 H 316.794 -3.97386 -0.130525 0
M  V30 3151 N 317.792 -0.46758 -1.50504 0
M  V30 3152 C 318.742 0.34698 -2.25344 0
M  V30 3153 C 319.726 0.964469 -1.2879 0
M  V30 3154 O 320.918 0.8776 -1.53711 0
M  V30 3155 C 318.047 1.43042 -3.1208 0
M  V30 3156 C 317.133 0.82084 -4.16081 0
M  V30 3157 N 317.524 -0.0567602 -5.05768 0
M  V30 3158 C 315.822 1.08517 -4.32597 0
M  V30 3159 C 316.523 -0.402343 -5.80307 0
M  V30 3160 N 315.499 0.221607 -5.43148 0
M  V30 3161 H 319.301 -0.329129 -2.92051 0
M  V30 3162 H 316.815 -0.281508 -1.59942 0
M  V30 3163 H 318.812 2.02712 -3.64299 0
M  V30 3164 H 317.472 2.10856 -2.46921 0
M  V30 3165 H 318.483 -0.425349 -5.1615 0
M  V30 3166 H 315.16 1.75855 -3.78657 0
M  V30 3167 H 316.55 -1.11834 -6.62528 0
M  V30 3168 N 319.27 1.56325 -0.20005 0
M  V30 3169 C 320.516 1.98012 0.438059 0
M  V30 3170 C 320.849 1.08702 1.60927 0
M  V30 3171 O 320.124 0.140064 1.93995 0
M  V30 3172 C 320.407 3.48841 0.893419 0
M  V30 3173 C 320.26 4.48928 -0.279947 0
M  V30 3174 C 321.579 4.03498 1.75719 0
M  V30 3175 H 318.698 0.719918 0.157757 0
M  V30 3176 H 321.34 1.87743 -0.291968 0
M  V30 3177 H 319.49 3.57723 1.51547 0
M  V30 3178 H 321.162 4.52079 -0.91772 0
M  V30 3179 H 319.405 4.23694 -0.930919 0
M  V30 3180 H 320.076 5.5194 0.0812601 0
M  V30 3181 H 322.552 3.97427 1.23253 0
M  V30 3182 H 321.428 5.09393 2.04476 0
M  V30 3183 H 321.689 3.4906 2.71311 0
M  V30 3184 N 320.748 -0.0735177 1.57428 0
M  V30 3185 C 321.678 -1.0879 2.06608 0
M  V30 3186 C 322.659 -1.40473 0.959237 0
M  V30 3187 O 323.844 -1.5013 1.23185 0
M  V30 3188 C 320.974 -2.40183 2.50857 0
M  V30 3189 C 319.928 -2.22858 3.65402 0
M  V30 3190 C 319.254 -3.59619 3.957 0
M  V30 3191 C 320.554 -1.65123 4.95511 0
M  V30 3192 H 322.248 -0.678673 2.91607 0
M  V30 3193 H 319.794 -0.325013 1.40284 0
M  V30 3194 H 321.747 -3.11437 2.83874 0
M  V30 3195 H 320.471 -2.83083 1.62885 0
M  V30 3196 H 319.13 -1.54045 3.32664 0
M  V30 3197 H 318.778 -4.00086 3.04861 0
M  V30 3198 H 318.478 -3.48866 4.72828 0
M  V30 3199 H 320.002 -4.32306 4.31212 0
M  V30 3200 H 321.416 -2.26241 5.26771 0
M  V30 3201 H 319.813 -1.65071 5.7695 0
M  V30 3202 H 320.883 -0.612559 4.81015 0
M  V30 3203 N 322.226 -1.5378 -0.344866 0
M  V30 3204 C 323.637 -1.62428 -0.920552 0
M  V30 3205 C 323.988 -0.504747 -1.89596 0
M  V30 3206 O 323.113 0.365711 -2.13287 0
M  V30 3207 C 323.708 -2.94419 -1.67639 0
M  V30 3208 C 322.267 -3.05333 -2.20111 0
M  V30 3209 C 321.414 -2.57866 -1.01982 0
M  V30 3210 H 324.365 -1.58222 -0.123042 0
M  V30 3211 H 324.386 -2.83384 -2.53917 0
M  V30 3212 H 323.898 -3.7588 -0.966224 0
M  V30 3213 H 321.999 -2.28502 -2.94308 0
M  V30 3214 H 322.112 -4.10778 -2.46573 0
M  V30 3215 H 320.476 -2.13241 -1.39285 0
M  V30 3216 H 321.259 -3.41765 -0.324308 0
M  V30 3217 N 323.704 0.605807 -1.45491 0
M  V30 3218 C 324.934 1.38934 -1.52908 0
M  V30 3219 C 325.342 1.88513 -0.161086 0
M  V30 3220 O 324.685 1.62962 0.847891 0
M  V30 3221 C 324.747 2.62737 -2.45376 0
M  V30 3222 C 324.411 2.34785 -3.92078 0
M  V30 3223 C 325.408 1.95038 -4.8193 0
M  V30 3224 C 323.093 2.47642 -4.37011 0
M  V30 3225 C 325.087 1.68511 -6.14722 0
M  V30 3226 C 322.774 2.20728 -5.69844 0
M  V30 3227 C 323.772 1.81225 -6.58519 0
M  V30 3228 O 323.46 1.54627 -7.88889 0
M  V30 3229 H 323.192 0.431629 -0.520262 0
M  V30 3230 H 325.746 0.74573 -1.91384 0
M  V30 3231 H 323.976 3.29824 -2.01874 0
M  V30 3232 H 325.665 3.24783 -2.43456 0
M  V30 3233 H 326.431 1.84639 -4.48479 0
M  V30 3234 H 322.31 2.77356 -3.68232 0
M  V30 3235 H 325.854 1.37602 -6.83894 0
M  V30 3236 H 321.751 2.30744 -6.02849 0
M  V30 3237 H 322.519 1.68665 -8.00933 0
M  V30 3238 N 325.182 1.32811 0.848464 0
M  V30 3239 C 326.092 1.24278 1.98978 0
M  V30 3240 C 327.108 0.155176 1.73307 0
M  V30 3241 O 328.284 0.376999 1.9784 0
M  V30 3242 C 325.349 0.972444 3.32783 0
M  V30 3243 C 324.41 2.14911 3.71634 0
M  V30 3244 C 323.643 1.89157 4.99054 0
M  V30 3245 O 323.866 0.837165 5.64223 0
M  V30 3246 O 322.8 2.75433 5.35183 0
M  V30 3247 H 326.626 2.20238 2.09115 0
M  V30 3248 H 324.211 1.12762 0.980052 0
M  V30 3249 H 326.093 0.838432 4.12975 0
M  V30 3250 H 324.768 0.043051 3.23671 0
M  V30 3251 H 323.675 2.33862 2.91992 0
M  V30 3252 H 325.008 3.06151 3.85399 0
M  V30 3253 N 326.66 -1.06551 1.16123 0
M  V30 3254 C 327.937 -1.76097 0.85142 0
M  V30 3255 C 328.317 -2.00802 -0.6513 0
M  V30 3256 O 327.665 -1.63302 -1.59827 0
M  V30 3257 C 327.875 -3.06384 1.67122 0
M  V30 3258 C 329.223 -3.80585 1.88255 0
M  V30 3259 O 330.247 -3.16218 1.63966 0
M  V30 3260 O 329.106 -4.96212 2.2899 0
M  V30 3261 H 326.2 -0.765102 0.313923 0
M  V30 3262 H 328.746 -1.12844 1.26745 0
M  V30 3263 H 327.518 -2.84071 2.69108 0
M  V30 3264 H 327.141 -3.77371 1.25206 0
M  V30 3265 N 328.138 -0.959301 -1.25041 0
M  V30 3266 C 329.101 -0.487677 -2.23952 0
M  V30 3267 C 330.101 0.41119 -1.55454 0
M  V30 3268 O 331.291 0.207825 -1.72956 0
M  V30 3269 C 328.423 0.294807 -3.39623 0
M  V30 3270 H 329.616 -1.36198 -2.67189 0
M  V30 3271 H 327.169 -0.743042 -1.37508 0
M  V30 3272 H 327.904 1.18658 -3.01813 0
M  V30 3273 H 327.689 -0.35012 -3.90534 0
M  V30 3274 H 329.179 0.614089 -4.1306 0
M  V30 3275 N 329.616 1.39756 -0.72842 0
M  V30 3276 C 330.893 1.94574 -0.200079 0
M  V30 3277 C 331.273 1.66569 1.29684 0
M  V30 3278 O 330.621 0.990326 2.05924 0
M  V30 3279 C 330.831 3.45004 -0.526608 0
M  V30 3280 C 332.179 4.21965 -0.472318 0
M  V30 3281 O 333.203 3.53173 -0.463413 0
M  V30 3282 O 332.062 5.44552 -0.461075 0
M  V30 3283 H 329.156 0.826289 -0.0342851 0
M  V30 3284 H 331.702 1.49293 -0.806829 0
M  V30 3285 H 330.474 3.58796 -1.56144 0
M  V30 3286 H 330.097 3.97449 0.109449 0
M  V30 3287 N 331.094 0.475555 1.50254 0
M  V30 3288 C 332.057 -0.305016 2.27161 0
M  V30 3289 C 333.057 -0.916519 1.32123 0
M  V30 3290 O 334.247 -0.785003 1.5551 0
M  V30 3291 C 331.379 -1.43496 3.09227 0
M  V30 3292 H 332.572 0.369511 2.97615 0
M  V30 3293 H 330.125 0.229747 1.54602 0
M  V30 3294 H 330.86 -2.14441 2.43281 0
M  V30 3295 H 330.645 -1.00223 3.79075 0
M  V30 3296 H 332.135 -1.98548 3.67381 0
M  V30 3297 N 332.573 -1.56217 0.208337 0
M  V30 3298 C 333.536 -2.18455 -0.693557 0
M  V30 3299 C 334.536 -1.14268 -1.13135 0
M  V30 3300 O 335.726 -1.39577 -1.0423 0
M  V30 3301 C 332.858 -2.79727 -1.94848 0
M  V30 3302 H 334.051 -2.99519 -0.15114 0
M  V30 3303 H 331.604 -1.56245 -0.041287 0
M  V30 3304 H 332.339 -2.02497 -2.53309 0
M  V30 3305 H 332.124 -3.56009 -1.64316 0
M  V30 3306 H 333.614 -3.27475 -2.59133 0
M  V30 3307 N 334.051 0.0651679 -1.57465 0
M  V30 3308 C 334.981 1.07693 -2.07182 0
M  V30 3309 C 335.962 1.39962 -0.966673 0
M  V30 3310 O 337.147 1.49475 -1.2398 0
M  V30 3311 C 334.277 2.3885 -2.52127 0
M  V30 3312 C 333.231 2.20917 -3.66579 0
M  V30 3313 C 332.557 3.57515 -3.97601 0
M  V30 3314 C 333.857 1.62493 -4.9638 0
M  V30 3315 H 335.551 0.663199 -2.91962 0
M  V30 3316 H 333.097 0.317569 -1.40455 0
M  V30 3317 H 335.05 3.09928 -2.85522 0
M  V30 3318 H 333.774 2.82215 -1.64384 0
M  V30 3319 H 332.433 1.52279 -3.33477 0
M  V30 3320 H 332.081 3.98463 -3.06979 0
M  V30 3321 H 331.781 3.46353 -4.74672 0
M  V30 3322 H 333.305 4.30013 -4.33499 0
M  V30 3323 H 334.719 2.23445 -5.27963 0
M  V30 3324 H 333.116 1.62009 -5.77818 0
M  V30 3325 H 334.186 0.587041 -4.81333 0
M  V30 3326 N 335.529 1.53961 0.336706 0
M  V30 3327 C 336.775 1.7179 1.07777 0
M  V30 3328 C 337.108 0.483263 1.88091 0
M  V30 3329 O 336.383 -0.519747 1.87427 0
M  V30 3330 C 336.666 2.98558 2.01334 0
M  V30 3331 C 336.519 4.32245 1.24437 0
M  V30 3332 C 337.838 3.21023 3.01052 0
M  V30 3333 H 334.957 0.625089 0.390426 0
M  V30 3334 H 337.599 1.86641 0.35567 0
M  V30 3335 H 335.749 2.86028 2.62908 0
M  V30 3336 H 337.421 4.56637 0.654243 0
M  V30 3337 H 335.664 4.30344 0.546458 0
M  V30 3338 H 336.335 5.17137 1.93063 0
M  V30 3339 H 338.811 3.32929 2.49595 0
M  V30 3340 H 337.687 4.11104 3.6371 0
M  V30 3341 H 337.948 2.37637 3.72802 0
M  V30 3342 N 337.007 -0.598083 1.45811 0
M  V30 3343 C 337.937 -1.71873 1.58057 0
M  V30 3344 C 338.918 -1.64533 0.431615 0
M  V30 3345 O 340.103 -1.82787 0.65595 0
M  V30 3346 C 337.233 -3.10495 1.55597 0
M  V30 3347 C 336.187 -3.32654 2.69305 0
M  V30 3348 C 335.513 -4.71646 2.51902 0
M  V30 3349 C 336.813 -3.21981 4.11248 0
M  V30 3350 H 338.507 -1.61881 2.51863 0
M  V30 3351 H 336.053 -0.777372 1.21214 0
M  V30 3352 H 338.006 -3.88699 1.6276 0
M  V30 3353 H 336.73 -3.2135 0.583255 0
M  V30 3354 H 335.389 -2.56843 2.61586 0
M  V30 3355 H 335.037 -4.79246 1.52748 0
M  V30 3356 H 334.737 -4.87426 3.2816 0
M  V30 3357 H 336.261 -5.52038 2.60933 0
M  V30 3358 H 337.675 -3.90049 4.20161 0
M  V30 3359 H 336.072 -3.49289 4.87972 0
M  V30 3360 H 337.142 -2.1928 4.32486 0
M  V30 3361 N 338.485 -1.33259 -0.841409 0
M  V30 3362 C 339.395 -1.25332 -1.98316 0
M  V30 3363 C 340.411 -0.164364 -1.73222 0
M  V30 3364 O 341.587 -0.387486 -1.97637 0
M  V30 3365 C 338.652 -0.990078 -3.32262 0
M  V30 3366 C 337.713 -2.16879 -3.70489 0
M  V30 3367 C 336.946 -1.91801 -4.98044 0
M  V30 3368 O 337.169 -0.867075 -5.63771 0
M  V30 3369 O 336.103 -2.78267 -5.33714 0
M  V30 3370 H 339.929 -2.21344 -2.07944 0
M  V30 3371 H 337.514 -1.1328 -0.974058 0
M  V30 3372 H 339.396 -0.860321 -4.12524 0
M  V30 3373 H 338.071 -0.0602155 -3.23644 0
M  V30 3374 H 336.978 -2.35407 -2.90748 0
M  V30 3375 H 338.311 -3.0819 -3.8377 0
M  V30 3376 N 339.963 1.05934 -1.16686 0
M  V30 3377 C 340.873 2.17014 -0.891183 0
M  V30 3378 C 341.889 1.73453 0.137907 0
M  V30 3379 O 343.065 2.01361 -0.039592 0
M  V30 3380 C 340.13 3.44384 -0.400099 0
M  V30 3381 C 339.191 4.02433 -1.49486 0
M  V30 3382 C 338.424 5.23723 -1.02711 0
M  V30 3383 O 338.647 5.7027 0.121716 0
M  V30 3384 O 337.581 5.7382 -1.81699 0
M  V30 3385 H 341.407 2.43113 -1.82015 0
M  V30 3386 H 338.992 1.15541 -0.947132 0
M  V30 3387 H 340.874 4.21189 -0.133392 0
M  V30 3388 H 339.549 3.19802 0.500817 0
M  V30 3389 H 338.456 3.27102 -1.81535 0
M  V30 3390 H 339.789 4.31317 -2.37121 0
M  V30 3391 N 341.441 0.965919 1.2453 0
M  V30 3392 C 342.666 0.643971 1.97149 0
M  V30 3393 C 343.091 -0.779487 1.71189 0
M  V30 3394 O 342.449 -1.5288 0.974553 0
M  V30 3395 C 342.497 0.922557 3.48599 0
M  V30 3396 O 341.601 0.00707672 4.12399 0
M  V30 3397 H 340.942 0.243647 0.617683 0
M  V30 3398 H 343.472 1.29558 1.58353 0
M  V30 3399 H 343.482 0.853373 3.98976 0
M  V30 3400 H 342.157 1.95996 3.66822 0
M  V30 3401 H 340.734 0.12943 3.72675 0
M  V30 3402 N 342.919 -1.39368 0.735821 0
M  V30 3403 C 344.166 -2.00497 0.284123 0
M  V30 3404 C 344.494 -1.58387 -1.12889 0
M  V30 3405 O 343.749 -0.804359 -1.78406 0
M  V30 3406 C 344.048 -3.5583 0.334651 0
M  V30 3407 C 343.714 -4.17593 1.7008 0
M  V30 3408 C 342.376 -4.34176 2.07472 0
M  V30 3409 C 344.728 -4.51848 2.59775 0
M  V30 3410 C 342.056 -4.82304 3.34065 0
M  V30 3411 C 344.408 -5.01384 3.85741 0
M  V30 3412 C 343.072 -5.16175 4.23225 0
M  V30 3413 H 342.342 -0.73367 0.103968 0
M  V30 3414 H 344.989 -1.66683 0.942825 0
M  V30 3415 H 343.294 -3.89674 -0.407625 0
M  V30 3416 H 344.991 -4.00986 -0.0329927 0
M  V30 3417 H 341.581 -4.05087 1.40008 0
M  V30 3418 H 345.765 -4.38653 2.32157 0
M  V30 3419 H 341.021 -4.91941 3.63049 0
M  V30 3420 H 345.195 -5.26863 4.55399 0
M  V30 3421 H 342.822 -5.5323 5.21384 0
M  V30 3422 N 344.397 -0.483516 -1.5 0
M  V30 3423 C 345.36 0.292965 -2.2732 0
M  V30 3424 C 346.36 0.909499 -1.32608 0
M  V30 3425 O 347.55 0.776745 -1.55924 0
M  V30 3426 C 344.682 1.41854 -3.09984 0
M  V30 3427 H 345.875 -0.385289 -2.97415 0
M  V30 3428 H 343.428 -0.237942 -1.54478 0
M  V30 3429 H 344.163 2.13148 -2.44414 0
M  V30 3430 H 343.948 0.982114 -3.79601 0
M  V30 3431 H 345.438 1.96597 -3.68429 0
M  V30 3432 N 345.875 1.56104 -0.216619 0
M  V30 3433 C 346.785 2.23694 0.706982 0
M  V30 3434 C 347.801 1.24295 1.21765 0
M  V30 3435 O 348.977 1.57094 1.2603 0
M  V30 3436 C 346.042 2.8998 1.90033 0
M  V30 3437 C 345.103 4.04708 1.43213 0
M  V30 3438 C 344.336 4.67824 2.56859 0
M  V30 3439 O 344.559 4.29913 3.74874 0
M  V30 3440 O 343.493 5.56905 2.28343 0
M  V30 3441 H 347.319 3.03272 0.161235 0
M  V30 3442 H 344.904 1.49394 0.0136177 0
M  V30 3443 H 346.786 3.31837 2.59735 0
M  V30 3444 H 345.461 2.13365 2.43428 0
M  V30 3445 H 344.368 3.6743 0.70327 0
M  V30 3446 H 345.701 4.83051 0.944615 0
M  V30 3447 N 347.353 -0.0568162 1.57498 0
M  V30 3448 C 348.769 -0.411933 1.54192 0
M  V30 3449 C 348.969 -1.78287 0.938942 0
M  V30 3450 O 348.025 -2.46483 0.547919 0
M  V30 3451 C 349.338 -0.339244 2.9878 0
M  V30 3452 C 350.886 -0.418348 3.10192 0
M  V30 3453 C 351.361 -0.375407 4.56459 0
M  V30 3454 N 352.852 -0.435038 4.61153 0
M  V30 3455 C 353.587 -0.424265 5.71828 0
M  V30 3456 N 353.083 -0.367418 6.91825 0
M  V30 3457 N 354.876 -0.471938 5.60115 0
M  V30 3458 H 347.027 0.840684 1.95055 0
M  V30 3459 H 349.29 0.316987 0.893433 0
M  V30 3460 H 348.996 0.601742 3.46514 0
M  V30 3461 H 348.87 -1.14371 3.59443 0
M  V30 3462 H 351.257 -1.34976 2.62422 0
M  V30 3463 H 351.338 0.414962 2.52412 0
M  V30 3464 H 350.982 0.552219 5.04889 0
M  V30 3465 H 350.912 -1.22645 5.12119 0
M  V30 3466 H 353.403 -0.482612 3.74806 0
M  V30 3467 H 353.716 -0.363535 7.71944 0
M  V30 3468 H 352.061 -0.333879 6.94198 0
M  V30 3469 H 355.252 -0.514145 4.65268 0
M  V30 3470 H 355.425 -0.460073 6.46365 0
M  V30 3471 N 348.832 -1.54138 -0.328536 0
M  V30 3472 C 350.08 -1.71765 -1.06496 0
M  V30 3473 C 350.401 -0.49149 -1.88704 0
M  V30 3474 O 349.671 0.494539 -1.89555 0
M  V30 3475 H 348.251 -0.633295 -0.396164 0
M  V30 3476 H 350.913 -1.91429 -0.366176 0
M  V30 3477 H 350.009 -2.5951 -1.73381 0
M  V30 3478 N 350.31 0.590341 -1.46126 0
M  V30 3479 C 351.556 1.35082 -1.51264 0
M  V30 3480 C 351.889 1.93534 -0.160711 0
M  V30 3481 O 351.164 1.76045 0.826956 0
M  V30 3482 C 351.447 2.48588 -2.6053 0
M  V30 3483 C 351.3 1.95221 -4.05227 0
M  V30 3484 C 352.619 3.50662 -2.6594 0
M  V30 3485 H 349.738 0.489803 -0.550692 0
M  V30 3486 H 352.38 0.663887 -1.78024 0
M  V30 3487 H 350.53 3.07186 -2.37843 0
M  V30 3488 H 352.202 1.41139 -4.39178 0
M  V30 3489 H 350.445 1.26101 -4.15068 0
M  V30 3490 H 351.116 2.77121 -4.77397 0
M  V30 3491 H 353.592 3.01934 -2.86313 0
M  V30 3492 H 352.468 4.27551 -3.44226 0
M  V30 3493 H 352.729 4.07399 -1.71694 0
M  V30 3494 N 351.788 1.33704 0.83433 0
M  V30 3495 C 353.204 1.13137 1.12571 0
M  V30 3496 C 353.404 -0.0747261 2.01361 0
M  V30 3497 O 352.46 -0.753647 2.4099 0
M  V30 3498 C 353.773 2.42105 1.78342 0
M  V30 3499 C 355.321 2.48054 1.90888 0
M  V30 3500 C 355.796 3.76995 2.60075 0
M  V30 3501 N 357.287 3.78092 2.67584 0
M  V30 3502 C 358.022 4.74574 3.21818 0
M  V30 3503 N 357.518 5.81434 3.76705 0
M  V30 3504 N 359.311 4.62044 3.20112 0
M  V30 3505 H 351.462 2.11 0.243489 0
M  V30 3506 H 353.725 0.932532 0.17055 0
M  V30 3507 H 353.431 3.30391 1.20561 0
M  V30 3508 H 353.305 2.54594 2.7832 0
M  V30 3509 H 355.692 1.60215 2.47821 0
M  V30 3510 H 355.773 2.39502 0.898459 0
M  V30 3511 H 355.417 4.65219 2.03799 0
M  V30 3512 H 355.347 3.82825 3.61597 0
M  V30 3513 H 357.838 3.00865 2.28667 0
M  V30 3514 H 358.151 6.51084 4.16305 0
M  V30 3515 H 356.496 5.85163 3.7498 0
M  V30 3516 H 359.687 3.77716 2.76493 0
M  V30 3517 H 359.86 5.37406 3.62076 0
M  V30 3518 N 353.266 -1.05314 1.17247 0
M  V30 3519 C 354.196 -2.1498 0.911362 0
M  V30 3520 C 355.177 -1.69471 -0.146169 0
M  V30 3521 O 356.362 -1.942 0.003812 0
M  V30 3522 C 353.492 -3.4472 0.422528 0
M  V30 3523 C 352.446 -4.03789 1.4191 0
M  V30 3524 C 351.772 -5.28858 0.788274 0
M  V30 3525 C 353.072 -4.41418 2.7919 0
M  V30 3526 H 354.766 -2.3708 1.82848 0
M  V30 3527 H 352.312 -1.13938 0.880569 0
M  V30 3528 H 354.265 -4.20787 0.227289 0
M  V30 3529 H 352.989 -3.22269 -0.530123 0
M  V30 3530 H 351.648 -3.2979 1.60106 0
M  V30 3531 H 351.296 -5.02709 -0.171173 0
M  V30 3532 H 350.996 -5.69338 1.45353 0
M  V30 3533 H 352.52 -6.07612 0.603282 0
M  V30 3534 H 353.934 -5.08524 2.64719 0
M  V30 3535 H 352.331 -4.92913 3.42282 0
M  V30 3536 H 353.401 -3.51819 3.33693 0
M  V30 3537 N 354.744 -0.972509 -1.24016 0
M  V30 3538 C 355.991 -0.637034 -1.92219 0
M  V30 3539 C 356.319 0.828418 -1.75976 0
M  V30 3540 O 355.574 1.61206 -1.10955 0
M  V30 3541 C 355.873 -0.963694 -3.44162 0
M  V30 3542 C 355.539 -2.41807 -3.80579 0
M  V30 3543 C 354.201 -2.81556 -3.9023 0
M  V30 3544 C 356.553 -3.36172 -3.98293 0
M  V30 3545 C 353.881 -4.14702 -4.15017 0
M  V30 3546 C 356.233 -4.68952 -4.24578 0
M  V30 3547 C 354.897 -5.08472 -4.32449 0
M  V30 3548 H 354.167 -0.233107 -0.703379 0
M  V30 3549 H 356.814 -1.2249 -1.47202 0
M  V30 3550 H 355.119 -0.29365 -3.90698 0
M  V30 3551 H 356.816 -0.682449 -3.9515 0
M  V30 3552 H 353.406 -2.09988 -3.73635 0
M  V30 3553 H 357.59 -3.06644 -3.90234 0
M  V30 3554 H 352.846 -4.4494 -4.19331 0
M  V30 3555 H 357.02 -5.42037 -4.37229 0
M  V30 3556 H 354.647 -6.11665 -4.51409 0
M  V30 3557 N 356.222 1.38976 -0.743202 0
M  V30 3558 C 357.169 2.30544 -0.10861 0
M  V30 3559 C 358.139 1.49642 0.720869 0
M  V30 3560 O 359.324 1.78304 0.679142 0
M  V30 3561 C 356.464 3.36018 0.786496 0
M  V30 3562 C 355.577 4.31963 -0.0564849 0
M  V30 3563 C 354.712 5.24506 0.840657 0
M  V30 3564 C 353.751 6.121 -0.00658363 0
M  V30 3565 N 352.888 6.96973 0.846943 0
M  V30 3566 H 357.728 2.8424 -0.895088 0
M  V30 3567 H 355.265 1.3995 -0.453048 0
M  V30 3568 H 357.223 3.95768 1.31999 0
M  V30 3569 H 355.853 2.83758 1.53887 0
M  V30 3570 H 354.905 3.73763 -0.707492 0
M  V30 3571 H 356.217 4.93703 -0.711229 0
M  V30 3572 H 355.371 5.89322 1.4417 0
M  V30 3573 H 354.11 4.63107 1.52916 0
M  V30 3574 H 353.115 5.46289 -0.620366 0
M  V30 3575 H 354.34 6.75565 -0.691992 0
M  V30 3576 H 352.286 6.38133 1.52059 0
M  V30 3577 H 352.203 7.5559 0.248864 0
M  V30 3578 H 353.471 7.6621 1.43328 0
M  V30 3579 N 357.7 0.491464 1.49741 0
M  V30 3580 C 358.648 -0.305837 2.30581 0
M  V30 3581 C 359.642 -0.971642 1.38764 0
M  V30 3582 O 360.848 -0.90042 1.5586 0
M  V30 3583 H 357.223 -0.117482 0.742767 0
M  V30 3584 H 359.194 0.396093 2.95759 0
M  V30 3585 C 357.943 -1.36319 3.19863 0
M  V30 3586 H 357.266 -0.860258 3.90435 0
M  V30 3587 H 358.706 -1.89323 3.79385 0
M  V30 3588 C 357.165 -2.37621 2.38826 0
M  V30 3589 O 357.695 -3.43311 2.08567 0
M  V30 3590 N 355.901 -2.09849 2.01026 0
M  V30 3591 H 355.448 -1.23922 2.25834 0
M  V30 3592 H 355.406 -2.77859 1.47112 0
M  V30 3593 N 359.178 -1.55987 0.224894 0
M  V30 3594 C 360.141 -2.19178 -0.670348 0
M  V30 3595 C 361.141 -1.15461 -1.11917 0
M  V30 3596 O 362.331 -1.40675 -1.02743 0
M  V30 3597 C 359.463 -2.81777 -1.9187 0
M  V30 3598 H 360.656 -2.99662 -0.119364 0
M  V30 3599 H 358.209 -1.5628 -0.0247128 0
M  V30 3600 H 358.944 -2.05172 -2.51147 0
M  V30 3601 H 358.729 -3.57732 -1.60531 0
M  V30 3602 H 360.219 -3.30205 -2.55645 0
M  V30 3603 N 360.656 0.0484629 -1.57525 0
M  V30 3604 C 362.072 0.40375 -1.54409 0
M  V30 3605 C 362.272 1.77786 -0.948384 0
M  V30 3606 O 361.328 2.46189 -0.560983 0
M  V30 3607 C 362.641 0.323394 -2.98956 0
M  V30 3608 C 364.189 0.401892 -3.10409 0
M  V30 3609 C 364.664 0.351195 -4.56652 0
M  V30 3610 N 366.155 0.410576 -4.61377 0
M  V30 3611 C 366.89 0.393933 -5.72045 0
M  V30 3612 N 366.386 0.330724 -6.9201 0
M  V30 3613 N 368.179 0.442227 -5.60358 0
M  V30 3614 H 360.33 -0.851016 -1.94606 0
M  V30 3615 H 362.593 -0.321721 -0.89174 0
M  V30 3616 H 362.299 -0.62011 -3.4619 0
M  V30 3617 H 362.173 1.12463 -3.60044 0
M  V30 3618 H 364.56 1.33582 -2.63134 0
M  V30 3619 H 364.641 -0.428342 -2.52188 0
M  V30 3620 H 364.285 -0.578987 -5.04589 0
M  V30 3621 H 364.215 1.19928 -5.12762 0
M  V30 3622 H 366.706 0.462729 -3.75056 0
M  V30 3623 H 367.019 0.322592 -7.72126 0
M  V30 3624 H 365.364 0.29706 -6.94365 0
M  V30 3625 H 368.555 0.489464 -4.65534 0
M  V30 3626 H 368.728 0.425788 -6.466 0
M  V30 3627 N 362.134 1.5431 0.320358 0
M  V30 3628 C 363.097 1.83195 1.3774 0
M  V30 3629 C 364.097 0.703906 1.44575 0
M  V30 3630 O 365.287 0.972214 1.44546 0
M  V30 3631 C 362.419 1.99487 2.76438 0
M  V30 3632 H 363.612 2.77642 1.1338 0
M  V30 3633 H 361.165 1.46076 0.556012 0
M  V30 3634 H 361.9 1.07262 3.06048 0
M  V30 3635 H 361.685 2.81575 2.7287 0
M  V30 3636 H 363.175 2.23271 3.52902 0
M  V30 3637 N 363.613 -0.582584 1.46437 0
M  V30 3638 C 364.576 -1.67366 1.56592 0
M  V30 3639 C 365.576 -1.54575 0.443072 0
M  V30 3640 O 366.766 -1.59191 0.707381 0
M  V30 3641 C 363.898 -3.06791 1.48634 0
M  V30 3642 H 365.091 -1.5972 2.5383 0
M  V30 3643 H 362.644 -0.800432 1.34249 0
M  V30 3644 H 363.379 -3.19993 0.526763 0
M  V30 3645 H 363.164 -3.17484 2.30101 0
M  V30 3646 H 364.654 -3.86218 1.58826 0
M  V30 3647 N 365.091 -1.34144 -0.827227 0
M  V30 3648 C 366.316 -1.29476 -1.62021 0
M  V30 3649 C 366.741 0.129292 -1.87655 0
M  V30 3650 O 366.099 1.08967 -1.449 0
M  V30 3651 C 366.147 -2.08702 -2.94068 0
M  V30 3652 O 365.251 -1.45359 -3.85933 0
M  V30 3653 H 364.592 -0.444881 -0.492927 0
M  V30 3654 H 367.122 -1.76882 -1.02829 0
M  V30 3655 H 367.132 -2.19898 -3.43669 0
M  V30 3656 H 365.807 -3.12241 -2.74734 0
M  V30 3657 H 364.384 -1.42879 -3.44442 0
M  V30 3658 N 366.569 1.04691 -1.17803 0
M  V30 3659 C 367.815 1.78045 -0.970969 0
M  V30 3660 C 368.148 1.87686 0.498751 0
M  V30 3661 O 367.423 1.38035 1.37027 0
M  V30 3662 C 367.706 3.2166 -1.61884 0
M  V30 3663 C 367.559 3.20001 -3.161 0
M  V30 3664 C 368.878 4.1962 -1.3269 0
M  V30 3665 H 365.997 0.64633 -0.354155 0
M  V30 3666 H 368.639 1.22333 -1.45378 0
M  V30 3667 H 366.789 3.69232 -1.20831 0
M  V30 3668 H 368.461 2.80467 -3.66246 0
M  V30 3669 H 366.704 2.58203 -3.48588 0
M  V30 3670 H 367.375 4.21386 -3.56564 0
M  V30 3671 H 369.851 3.80567 -1.68249 0
M  V30 3672 H 368.727 5.18339 -1.80599 0
M  V30 3673 H 368.988 4.414 -0.248622 0
M  V30 3674 N 368.047 0.979072 1.23499 0
M  V30 3675 C 369.275 0.665202 1.95915 0
M  V30 3676 C 369.69 -0.767571 1.72493 0
M  V30 3677 O 369.047 -1.51635 1.01554 0
M  V30 3678 C 369.098 0.944438 3.48945 0
M  V30 3679 O 368.819 2.3209 3.71572 0
M  V30 3680 C 370.32 0.646336 4.38563 0
M  V30 3681 H 367.54 0.247218 0.623798 0
M  V30 3682 H 370.084 1.31009 1.57025 0
M  V30 3683 H 368.239 0.345575 3.85856 0
M  V30 3684 H 368.653 2.40957 4.65876 0
M  V30 3685 H 370.127 0.892091 5.44744 0
M  V30 3686 H 370.604 -0.419575 4.37191 0
M  V30 3687 H 371.21 1.22562 4.07258 0
M  V30 3688 N 369.525 -1.3858 0.750561 0
M  V30 3689 C 370.941 -1.53759 0.427824 0
M  V30 3690 C 371.141 -1.71401 -1.05943 0
M  V30 3691 O 370.197 -1.72331 -1.84549 0
M  V30 3692 C 371.51 -2.74642 1.22443 0
M  V30 3693 C 373.058 -2.88489 1.2142 0
M  V30 3694 C 373.533 -4.12329 1.9937 0
M  V30 3695 N 375.024 -4.194 1.96616 0
M  V30 3696 C 375.759 -5.14209 2.53727 0
M  V30 3697 N 375.255 -6.14709 3.19539 0
M  V30 3698 N 377.048 -5.06537 2.43673 0
M  V30 3699 H 369.199 -1.25377 1.71447 0
M  V30 3700 H 371.462 -0.608844 0.726645 0
M  V30 3701 H 371.168 -2.68 2.27747 0
M  V30 3702 H 371.042 -3.67745 0.839273 0
M  V30 3703 H 373.429 -2.94614 0.169232 0
M  V30 3704 H 373.51 -1.96406 1.63885 0
M  V30 3705 H 373.154 -4.06966 3.03877 0
M  V30 3706 H 373.084 -5.03486 1.54302 0
M  V30 3707 H 375.575 -3.47421 1.48684 0
M  V30 3708 H 375.888 -6.8354 3.60545 0
M  V30 3709 H 374.233 -6.1505 3.23633 0
M  V30 3710 H 377.424 -4.26962 1.91889 0
M  V30 3711 H 377.597 -5.80245 2.88479 0
M  V30 3712 N 371.003 -0.499398 -1.49478 0
M  V30 3713 C 372.231 0.0425456 -2.06856 0
M  V30 3714 C 372.646 1.30964 -1.35992 0
M  V30 3715 O 372.003 1.77172 -0.437762 0
M  V30 3716 C 372.054 0.301735 -3.60239 0
M  V30 3717 O 371.775 -0.915127 -4.28436 0
M  V30 3718 C 373.276 0.887499 -4.34325 0
M  V30 3719 H 370.496 -0.0197482 -0.670709 0
M  V30 3720 H 373.04 -0.696297 -1.92281 0
M  V30 3721 H 371.195 0.990556 -3.74522 0
M  V30 3722 H 371.609 -0.676993 -5.20113 0
M  V30 3723 H 373.083 1.01845 -5.42523 0
M  V30 3724 H 373.56 1.88488 -3.96698 0
M  V30 3725 H 374.166 0.236196 -4.24644 0
M  V30 3726 N 372.481 1.55866 -0.233164 0
M  V30 3727 C 373.729 1.9821 0.394593 0
M  V30 3728 C 374.05 1.12234 1.59463 0
M  V30 3729 O 373.32 0.201981 1.94856 0
M  V30 3730 H 371.9 0.732034 0.148778 0
M  V30 3731 H 374.562 1.92107 -0.32876 0
M  V30 3732 H 373.658 3.03845 0.713063 0
M  V30 3733 N 373.959 -0.0401083 1.57549 0
M  V30 3734 C 374.922 -1.02871 2.04817 0
M  V30 3735 C 375.922 -1.29708 0.950388 0
M  V30 3736 O 377.112 -1.24897 1.21435 0
M  V30 3737 C 374.244 -2.36443 2.45576 0
M  V30 3738 H 375.437 -0.620631 2.93408 0
M  V30 3739 H 372.99 -0.286667 1.53649 0
M  V30 3740 H 373.725 -2.82021 1.60108 0
M  V30 3741 H 373.51 -2.18296 3.25713 0
M  V30 3742 H 375 -3.07441 2.82612 0
M  V30 3743 N 375.437 -1.54477 -0.31217 0
M  V30 3744 C 376.685 -1.72884 -1.04668 0
M  V30 3745 C 377.006 -0.511477 -1.88173 0
M  V30 3746 O 376.276 0.474407 -1.90069 0
M  V30 3747 H 374.856 -0.637461 -0.389425 0
M  V30 3748 H 377.518 -1.91807 -0.345852 0
M  V30 3749 H 376.614 -2.61334 -1.70619 0
M  V30 3750 N 376.915 0.57481 -1.46744 0
M  V30 3751 C 378.161 1.3347 -1.52688 0
M  V30 3752 C 378.494 1.93353 -0.181229 0
M  V30 3753 O 377.769 1.76912 0.808237 0
M  V30 3754 C 378.052 2.45811 -2.63152 0
M  V30 3755 C 377.905 1.90912 -4.07275 0
M  V30 3756 C 379.224 3.47822 -2.69644 0
M  V30 3757 H 376.343 0.483935 -0.555856 0
M  V30 3758 H 378.985 0.644968 -1.78718 0
M  V30 3759 H 377.135 3.04646 -2.41088 0
M  V30 3760 H 378.807 1.36473 -4.4065 0
M  V30 3761 H 377.05 1.21691 -4.16382 0
M  V30 3762 H 377.721 2.72042 -4.80309 0
M  V30 3763 H 380.197 2.9888 -2.895 0
M  V30 3764 H 379.073 4.23876 -3.48742 0
M  V30 3765 H 379.334 4.05555 -1.76005 0
M  V30 3766 N 378.394 1.34581 0.820102 0
M  V30 3767 C 379.324 1.29038 1.94606 0
M  V30 3768 C 380.305 0.1673 1.69275 0
M  V30 3769 O 381.49 0.360112 1.90832 0
M  V30 3770 C 378.62 1.04793 3.31113 0
M  V30 3771 C 377.574 2.13597 3.70891 0
M  V30 3772 C 376.9 1.74537 5.05412 0
M  V30 3773 C 378.2 3.55451 3.8269 0
M  V30 3774 H 379.894 2.23248 1.99501 0
M  V30 3775 H 377.44 1.0747 0.958449 0
M  V30 3776 H 379.393 0.995592 4.0947 0
M  V30 3777 H 378.117 0.0702565 3.26524 0
M  V30 3778 H 376.776 2.17905 2.9481 0
M  V30 3779 H 376.424 0.754226 4.97313 0
M  V30 3780 H 376.124 2.47361 5.32997 0
M  V30 3781 H 377.648 1.70803 5.86224 0
M  V30 3782 H 379.062 3.5354 4.51312 0
M  V30 3783 H 377.459 4.26922 4.21732 0
M  V30 3784 H 378.529 3.92587 2.84611 0
M  V30 3785 N 379.872 -1.04064 1.18357 0
M  V30 3786 C 381.118 -1.77528 0.980397 0
M  V30 3787 C 381.451 -1.87948 -0.48879 0
M  V30 3788 O 380.726 -1.3876 -1.36293 0
M  V30 3789 C 381.009 -3.20797 1.63588 0
M  V30 3790 C 380.862 -3.1832 3.17793 0
M  V30 3791 C 382.181 -4.18911 1.34914 0
M  V30 3792 H 379.3 -0.644443 0.357578 0
M  V30 3793 H 381.942 -1.2156 1.46024 0
M  V30 3794 H 380.092 -3.68586 1.22788 0
M  V30 3795 H 381.764 -2.78521 3.67728 0
M  V30 3796 H 380.007 -2.56351 3.49952 0
M  V30 3797 H 380.678 -4.19489 3.58794 0
M  V30 3798 H 383.154 -3.7967 1.70265 0
M  V30 3799 H 382.03 -5.17374 1.83346 0
M  V30 3800 H 382.291 -4.41262 0.272027 0
M  V30 3801 N 381.35 -0.985608 -1.22978 0
M  V30 3802 C 382.578 -0.675582 -1.95559 0
M  V30 3803 C 382.993 0.758413 -1.72897 0
M  V30 3804 O 382.35 1.51094 -1.02357 0
M  V30 3805 C 382.401 -0.96293 -3.48439 0
M  V30 3806 O 382.122 -2.34057 -3.70336 0
M  V30 3807 C 383.623 -0.669585 -4.38214 0
M  V30 3808 H 380.843 -0.250523 -0.622478 0
M  V30 3809 H 383.387 -1.3184 -1.56328 0
M  V30 3810 H 381.542 -0.366033 -3.85667 0
M  V30 3811 H 381.956 -2.43424 -4.64591 0
M  V30 3812 H 383.43 -0.920967 -5.44263 0
M  V30 3813 H 383.907 0.396383 -4.37408 0
M  V30 3814 H 384.513 -1.2472 -4.06602 0
M  V30 3815 N 382.828 1.3818 -0.7579 0
M  V30 3816 C 383.761 2.28055 -0.0814093 0
M  V30 3817 C 384.739 1.45603 0.723779 0
M  V30 3818 O 385.923 1.74961 0.701491 0
M  V30 3819 C 383.05 3.2676 0.891394 0
M  V30 3820 C 382.096 4.26153 0.171909 0
M  V30 3821 S 382.929 5.23434 -1.13035 0
M  V30 3822 C 384.085 6.25694 -0.160727 0
M  V30 3823 H 384.318 2.85082 -0.84353 0
M  V30 3824 H 381.851 1.44246 -0.550671 0
M  V30 3825 H 383.809 3.8414 1.44731 0
M  V30 3826 H 382.47 2.68706 1.62652 0
M  V30 3827 H 381.663 4.95738 0.908843 0
M  V30 3828 H 381.265 3.72691 -0.312606 0
M  V30 3829 H 383.557 6.74161 0.671773 0
M  V30 3830 H 384.5 7.03285 -0.824353 0
M  V30 3831 H 384.908 5.64064 0.221892 0
M  V30 3832 N 384.306 0.507319 1.49211 0
M  V30 3833 C 385.534 -0.0315749 2.06876 0
M  V30 3834 C 385.949 -1.30241 1.36685 0
M  V30 3835 O 385.306 -1.76937 0.447152 0
M  V30 3836 C 385.357 -0.282627 3.60393 0
M  V30 3837 O 385.078 0.937835 4.27944 0
M  V30 3838 C 386.579 -0.864453 4.3479 0
M  V30 3839 H 383.799 0.0233048 0.670595 0
M  V30 3840 H 386.343 0.706484 1.91909 0
M  V30 3841 H 384.498 -0.97068 3.75042 0
M  V30 3842 H 384.912 0.704567 5.19746 0
M  V30 3843 H 386.386 -0.989664 5.43056 0
M  V30 3844 H 386.863 -1.86382 3.97692 0
M  V30 3845 H 387.469 -0.213672 4.24763 0
M  V30 3846 N 385.784 -1.5574 0.241426 0
M  V30 3847 C 387.061 -1.90704 -0.434881 0
M  V30 3848 C 387.441 -1.16145 -1.76277 0
M  V30 3849 O 386.789 -0.277152 -2.26813 0
M  V30 3850 C 386.999 -3.43657 -0.608343 0
M  V30 3851 C 388.347 -4.14806 -0.906725 0
M  V30 3852 O 389.371 -3.49366 -0.694408 0
M  V30 3853 O 388.23 -5.30548 -1.31075 0
M  V30 3854 H 385.324 -0.793592 -0.23268 0
M  V30 3855 H 387.87 -1.67288 0.285086 0
M  V30 3856 H 386.642 -3.89927 0.327505 0
M  V30 3857 H 386.265 -3.72918 -1.37906 0
M  V30 3858 N 387.262 0.0317525 -1.57568 0
M  V30 3859 C 388.51 0.721676 -1.88776 0
M  V30 3860 C 388.831 1.76039 -0.838772 0
M  V30 3861 O 388.101 1.95482 0.127935 0
M  V30 3862 H 386.681 0.269534 -0.696678 0
M  V30 3863 H 389.343 -0.00165879 -1.949 0
M  V30 3864 H 388.439 1.21293 -2.87566 0
M  V30 3865 N 388.74 1.54641 0.303973 0
M  V30 3866 C 390.156 1.45788 0.649463 0
M  V30 3867 C 390.356 0.64666 1.90842 0
M  V30 3868 O 389.412 0.153183 2.52035 0
M  V30 3869 C 390.725 2.89718 0.805227 0
M  V30 3870 C 392.273 2.99742 0.901305 0
M  V30 3871 C 392.748 4.44863 1.08909 0
M  V30 3872 N 394.239 4.48559 1.15536 0
M  V30 3873 C 394.974 5.58026 1.3189 0
M  V30 3874 N 394.47 6.77422 1.45161 0
M  V30 3875 N 396.263 5.45708 1.34755 0
M  V30 3876 H 388.414 2.05854 -0.523237 0
M  V30 3877 H 390.677 0.932186 -0.172431 0
M  V30 3878 H 390.383 3.51666 -0.0489108 0
M  V30 3879 H 390.257 3.36964 1.69513 0
M  V30 3880 H 392.644 2.3791 1.74593 0
M  V30 3881 H 392.725 2.55797 -0.0125531 0
M  V30 3882 H 392.369 5.07288 0.249241 0
M  V30 3883 H 392.299 4.86436 2.01713 0
M  V30 3884 H 394.79 3.6254 1.06646 0
M  V30 3885 H 395.103 7.56604 1.57387 0
M  V30 3886 H 393.448 6.80292 1.42223 0
M  V30 3887 H 396.639 4.51378 1.23996 0
M  V30 3888 H 396.812 6.3107 1.47157 0
M  V30 3889 N 390.218 -0.567019 1.47046 0
M  V30 3890 C 391.446 -1.35027 1.56765 0
M  V30 3891 C 391.861 -1.8758 0.214316 0
M  V30 3892 O 391.218 -1.64471 -0.790919 0
M  V30 3893 C 391.269 -2.52698 2.58507 0
M  V30 3894 O 390.99 -2.0232 3.88585 0
M  V30 3895 C 392.491 -3.45043 2.78316 0
M  V30 3896 H 389.711 -0.41195 0.529658 0
M  V30 3897 H 392.255 -0.687832 1.92585 0
M  V30 3898 H 390.41 -3.149 2.25648 0
M  V30 3899 H 390.824 -2.79068 4.44096 0
M  V30 3900 H 392.298 -4.2405 3.53391 0
M  V30 3901 H 392.775 -3.97971 1.85784 0
M  V30 3902 H 393.381 -2.88665 3.12334 0
M  V30 3903 N 391.696 -1.35014 -0.812953 0
M  V30 3904 C 392.942 -1.2812 -1.57204 0
M  V30 3905 C 393.275 0.145869 -1.93651 0
M  V30 3906 O 392.55 1.0937 -1.60836 0
M  V30 3907 C 392.833 -2.18162 -2.86492 0
M  V30 3908 C 392.686 -3.69454 -2.56561 0
M  V30 3909 C 394.005 -2.07439 -3.88145 0
M  V30 3910 H 391.124 -0.466746 -0.570366 0
M  V30 3911 H 393.766 -1.65357 -0.935783 0
M  V30 3912 H 391.916 -1.86535 -3.40789 0
M  V30 3913 H 393.588 -4.11493 -2.08497 0
M  V30 3914 H 391.831 -3.9005 -1.89851 0
M  V30 3915 H 392.502 -4.27835 -3.48799 0
M  V30 3916 H 394.978 -2.35228 -3.4323 0
M  V30 3917 H 393.854 -2.7265 -4.76396 0
M  V30 3918 H 394.115 -1.05439 -4.29343 0
M  V30 3919 N 393.175 1.03435 -1.18907 0
M  V30 3920 C 394.085 2.15075 -0.937015 0
M  V30 3921 C 395.101 1.73706 0.101085 0
M  V30 3922 O 396.277 2.01232 -0.0822948 0
M  V30 3923 C 393.342 3.43458 -0.473057 0
M  V30 3924 C 392.403 3.99172 -1.57989 0
M  V30 3925 C 391.636 5.21427 -1.13797 0
M  V30 3926 O 391.859 5.704 0.000725941 0
M  V30 3927 O 390.793 5.69837 -1.9383 0
M  V30 3928 H 394.619 2.39198 -1.87131 0
M  V30 3929 H 392.204 1.13506 -0.971427 0
M  V30 3930 H 394.086 4.20811 -0.222702 0
M  V30 3931 H 392.761 3.20793 0.432869 0
M  V30 3932 H 391.668 3.23178 -1.88433 0
M  V30 3933 H 393.001 4.2619 -2.46217 0
M  V30 3934 N 394.653 0.992116 1.22453 0
M  V30 3935 C 395.901 0.666215 1.90804 0
M  V30 3936 C 396.222 -0.804152 1.77647 0
M  V30 3937 O 395.492 -1.57629 1.16318 0
M  V30 3938 H 394.072 0.243423 0.706225 0
M  V30 3939 H 396.734 1.25845 1.48825 0
M  V30 3940 H 395.83 0.928069 2.97982 0
M  V30 3941 N 396.131 -1.37776 0.765217 0
M  V30 3942 C 397.356 -2.04651 0.336537 0
M  V30 3943 C 397.781 -1.57337 -1.03086 0
M  V30 3944 O 397.139 -0.730621 -1.65927 0
M  V30 3945 C 397.187 -3.58577 0.381468 0
M  V30 3946 O 396.291 -4.07706 -0.62042 0
M  V30 3947 H 395.632 -0.64756 0.146838 0
M  V30 3948 H 398.162 -1.76221 1.03959 0
M  V30 3949 H 398.172 -4.07314 0.236448 0
M  V30 3950 H 396.847 -3.9237 1.37907 0
M  V30 3951 H 395.424 -3.70306 -0.439056 0
M  V30 3952 N 397.609 -0.515225 -1.4894 0
M  V30 3953 C 398.559 0.275113 -2.26334 0
M  V30 3954 C 399.543 0.923007 -1.31793 0
M  V30 3955 O 400.735 0.828254 -1.56426 0
M  V30 3956 C 397.864 1.33041 -3.16473 0
M  V30 3957 C 396.95 0.688051 -4.18481 0
M  V30 3958 N 397.341 -0.217638 -5.05332 0
M  V30 3959 C 395.639 0.94699 -4.3583 0
M  V30 3960 C 396.34 -0.58676 -5.78733 0
M  V30 3961 N 395.316 0.0486966 -5.43578 0
M  V30 3962 H 399.118 -0.421876 -2.90856 0
M  V30 3963 H 396.632 -0.332249 -1.58965 0
M  V30 3964 H 398.629 1.9102 -3.70563 0
M  V30 3965 H 397.289 2.02894 -2.53504 0
M  V30 3966 H 398.3 -0.589343 -5.14536 0
M  V30 3967 H 394.977 1.63719 -3.8406 0
M  V30 3968 H 396.367 -1.32855 -6.58634 0
M  V30 3969 N 399.087 1.5561 -0.249682 0
M  V30 3970 C 400.05 2.20217 0.635394 0
M  V30 3971 C 401.05 1.17227 1.10066 0
M  V30 3972 O 402.24 1.42292 1.00492 0
M  V30 3973 C 399.372 2.84794 1.87363 0
M  V30 3974 H 400.565 2.99814 0.0716752 0
M  V30 3975 H 398.118 1.563 -0.000153234 0
M  V30 3976 H 398.853 2.09142 2.47851 0
M  V30 3977 H 398.638 3.60241 1.5482 0
M  V30 3978 H 400.128 3.3423 2.5036 0
M  V30 3979 N 400.565 -0.0233959 1.57583 0
M  V30 3980 C 401.495 -1.02162 2.09965 0
M  V30 3981 C 402.476 -1.3735 1.00344 0
M  V30 3982 O 403.661 -1.46135 1.27899 0
M  V30 3983 C 400.791 -2.32081 2.58371 0
M  V30 3984 C 399.745 -2.1112 3.72307 0
M  V30 3985 C 399.071 -3.46848 4.06941 0
M  V30 3986 C 400.371 -1.49276 5.00514 0
M  V30 3987 H 402.065 -0.585557 2.93618 0
M  V30 3988 H 399.611 -0.280218 1.41247 0
M  V30 3989 H 401.564 -3.02249 2.93639 0
M  V30 3990 H 400.288 -2.77758 1.71808 0
M  V30 3991 H 398.947 -1.43384 3.37397 0
M  V30 3992 H 398.595 -3.90184 3.17436 0
M  V30 3993 H 398.295 -3.33646 4.83688 0
M  V30 3994 H 399.819 -4.18369 4.44747 0
M  V30 3995 H 401.233 -2.09368 5.33702 0
M  V30 3996 H 399.63 -1.46632 5.8191 0
M  V30 3997 H 400.7 -0.459217 4.82721 0
M  V30 3998 N 402.043 -1.548 -0.295768 0
M  V30 3999 C 402.976 -1.81003 -1.38972 0
M  V30 4000 C 403.954 -0.661544 -1.48534 0
M  V30 4001 O 405.138 -0.902074 -1.65514 0
M  V30 4002 C 402.265 -1.95141 -2.76835 0
M  V30 4003 C 401.311 -3.17592 -2.84671 0
M  V30 4004 S 402.144 -4.75531 -2.46232 0
M  V30 4005 C 403.3 -4.92613 -3.86114 0
M  V30 4006 H 403.533 -2.73507 -1.16537 0
M  V30 4007 H 401.066 -1.46278 -0.494168 0
M  V30 4008 H 403.024 -2.03972 -3.56238 0
M  V30 4009 H 401.685 -1.03565 -2.96535 0
M  V30 4010 H 400.878 -3.24303 -3.85803 0
M  V30 4011 H 400.48 -3.07235 -2.13267 0
M  V30 4012 H 402.772 -4.76957 -4.81164 0
M  V30 4013 H 403.715 -5.94698 -3.8437 0
M  V30 4014 H 404.123 -4.2073 -3.76359 0
M  V30 4015 N 403.521 0.559213 -1.47345 0
M  V30 4016 C 404.749 1.34194 -1.57479 0
M  V30 4017 C 405.164 1.87463 -0.224261 0
M  V30 4018 O 404.521 1.64888 0.782185 0
M  V30 4019 C 404.572 2.51324 -2.59843 0
M  V30 4020 O 404.293 2.00256 -3.89653 0
M  V30 4021 C 405.794 3.43563 -2.80142 0
M  V30 4022 H 403.014 0.409136 -0.531835 0
M  V30 4023 H 405.558 0.677609 -1.92947 0
M  V30 4024 H 403.713 3.13699 -2.27314 0
M  V30 4025 H 404.127 2.76708 -4.4557 0
M  V30 4026 H 405.601 4.2217 -3.55635 0
M  V30 4027 H 406.078 3.9698 -1.87892 0
M  V30 4028 H 406.684 2.87005 -3.1386 0
M  V30 4029 N 404.999 1.35443 0.805782 0
M  V30 4030 C 406.248 1.28097 1.55801 0
M  V30 4031 C 406.561 -0.142428 1.95081 0
M  V30 4032 O 407.767 -0.33817 2.69386 0
M  V30 4033 C 406.223 2.24653 2.81174 0
M  V30 4034 C 405.831 3.72342 2.49129 0
M  V30 4035 C 407.575 2.2625 3.59181 0
M  V30 4036 C 405.482 4.60719 3.70799 0
M  V30 4037 H 404.412 0.475937 0.584808 0
M  V30 4038 H 407.063 1.60712 0.885661 0
M  V30 4039 H 405.445 1.85011 3.50124 0
M  V30 4040 H 406.619 4.20624 1.88181 0
M  V30 4041 H 404.934 3.73361 1.84366 0
M  V30 4042 H 407.531 2.89495 4.49552 0
M  V30 4043 H 407.874 1.26647 3.96568 0
M  V30 4044 H 408.407 2.64426 2.97193 0
M  V30 4045 H 405.146 5.61324 3.3852 0
M  V30 4046 H 404.666 4.17163 4.3097 0
M  V30 4047 H 406.345 4.76182 4.38018 0
M  V30 4048 N 406.477 -1.02803 1.19454 0
M  V30 4049 C 407.725 -1.75869 0.995722 0
M  V30 4050 C 408.046 -1.89138 -0.474543 0
M  V30 4051 O 407.316 -1.42558 -1.34366 0
M  V30 4052 H 405.896 -0.651511 0.365435 0
M  V30 4053 H 408.558 -1.24004 1.50363 0
M  V30 4054 H 407.654 -2.76661 1.44447 0
M  V30 4055 N 407.956 -0.998596 -1.21925 0
M  V30 4056 C 409.181 -0.696015 -1.95372 0
M  V30 4057 C 409.606 0.733826 -1.73195 0
M  V30 4058 O 408.964 1.50242 -1.01474 0
M  V30 4059 C 409.012 -1.01466 -3.4603 0
M  V30 4060 O 408.116 -0.116415 -4.12236 0
M  V30 4061 H 407.457 -0.259938 -0.611006 0
M  V30 4062 H 409.987 -1.33711 -1.54863 0
M  V30 4063 H 409.997 -0.958855 -3.96573 0
M  V30 4064 H 408.672 -2.05653 -3.61497 0
M  V30 4065 H 407.249 -0.228193 -3.72201 0
M  V30 4066 N 409.434 1.37368 -0.772513 0
M  V30 4067 C 410.68 1.99969 -0.337681 0
M  V30 4068 C 411.013 1.61184 1.08321 0
M  V30 4069 O 410.288 0.858395 1.74533 0
M  V30 4070 C 410.571 3.56858 -0.482121 0
M  V30 4071 C 410.424 4.0555 -1.94549 0
M  V30 4072 C 411.743 4.39955 0.113143 0
M  V30 4073 H 408.862 0.726464 -0.124171 0
M  V30 4074 H 411.504 1.63034 -0.975699 0
M  V30 4075 H 409.654 3.88452 0.0610361 0
M  V30 4076 H 411.326 3.84518 -2.54841 0
M  V30 4077 H 409.569 3.57715 -2.45403 0
M  V30 4078 H 410.24 5.14587 -1.9976 0
M  V30 4079 H 412.716 4.14623 -0.35031 0
M  V30 4080 H 411.592 5.48897 -0.0180514 0
M  V30 4081 H 411.853 4.25403 1.20354 0
M  V30 4082 N 410.912 0.523116 1.48665 0
M  V30 4083 C 412.323 0.0808997 1.86525 0
M  V30 4084 C 412.674 -1.33975 1.43336 0
M  V30 4085 O 411.799 -2.00221 0.821009 0
M  V30 4086 C 412.394 0.140037 3.3851 0
M  V30 4087 C 410.953 -0.246948 3.75589 0
M  V30 4088 C 410.1 0.502845 2.72703 0
M  V30 4089 H 413.051 0.734736 1.40667 0
M  V30 4090 H 413.072 -0.649945 3.74908 0
M  V30 4091 H 412.584 1.17412 3.69914 0
M  V30 4092 H 410.685 -1.28343 3.49798 0
M  V30 4093 H 410.798 0.0878859 4.79019 0
M  V30 4094 H 409.162 -0.0500581 2.54651 0
M  V30 4095 H 409.945 1.53743 3.0695 0
M  V30 4096 N 412.39 -1.55475 0.257931 0
M  V30 4097 C 413.338 -2.23244 -0.653076 0
M  V30 4098 C 414.332 -1.22366 -1.17144 0
M  V30 4099 O 415.538 -1.40347 -1.12706 0
M  V30 4100 H 411.913 -0.716247 -0.229117 0
M  V30 4101 H 413.884 -2.98343 -0.0584788 0
M  V30 4102 C 412.633 -2.95401 -1.83395 0
M  V30 4103 H 411.956 -3.72802 -1.44424 0
M  V30 4104 H 413.396 -3.46165 -2.44838 0
M  V30 4105 C 411.855 -1.99895 -2.71189 0
M  V30 4106 O 412.385 -1.53909 -3.71046 0
M  V30 4107 N 410.591 -1.6676 -2.3799 0
M  V30 4108 H 410.138 -2.04352 -1.56837 0
M  V30 4109 H 410.096 -1.03127 -2.97005 0
M  V30 4110 N 413.868 0.0150385 -1.57593 0
M  V30 4111 C 415.096 0.714395 -1.94175 0
M  V30 4112 C 415.511 1.68135 -0.858841 0
M  V30 4113 O 414.868 1.81766 0.163567 0
M  V30 4114 C 414.919 1.45933 -3.30735 0
M  V30 4115 O 414.64 0.531167 -4.34868 0
M  V30 4116 C 416.141 2.25456 -3.81686 0
M  V30 4117 H 413.361 0.199923 -0.640525 0
M  V30 4118 H 415.905 -0.0316096 -2.04476 0
M  V30 4119 H 414.06 2.15709 -3.21789 0
M  V30 4120 H 414.474 1.05509 -5.13778 0
M  V30 4121 H 415.948 2.731 -4.79709 0
M  V30 4122 H 416.425 3.07485 -3.13607 0
M  V30 4123 H 417.031 1.60727 -3.9376 0
M  V30 4124 N 415.346 1.54954 0.287554 0
M  V30 4125 C 416.571 1.79209 1.04397 0
M  V30 4126 C 416.996 0.556431 1.79682 0
M  V30 4127 O 416.354 -0.493518 1.74454 0
M  V30 4128 C 416.402 3.00739 1.98969 0
M  V30 4129 O 415.506 2.74805 3.075 0
M  V30 4130 H 414.847 0.592755 0.299227 0
M  V30 4131 H 417.377 2.02068 0.320886 0
M  V30 4132 H 417.387 3.29077 2.4119 0
M  V30 4133 H 416.062 3.90329 1.43582 0
M  V30 4134 H 414.639 2.57523 2.69697 0
M  V30 4135 N 416.824 -0.551391 1.4764 0
M  V30 4136 C 418.072 -1.30572 1.54258 0
M  V30 4137 C 418.393 -1.93877 0.208963 0
M  V30 4138 O 417.663 -1.80234 -0.767619 0
M  V30 4139 H 416.243 -0.484894 0.568231 0
M  V30 4140 H 418.905 -0.643402 1.83974 0
M  V30 4141 H 418.001 -2.09621 2.31226 0
M  V30 4142 N 418.302 -1.35869 -0.798587 0
M  V30 4143 C 419.232 -1.32118 -1.92528 0
M  V30 4144 C 420.213 -0.194209 -1.68988 0
M  V30 4145 O 421.398 -0.390426 -1.90235 0
M  V30 4146 C 418.528 -1.10047 -3.29404 0
M  V30 4147 C 417.482 -2.19471 -3.67446 0
M  V30 4148 C 416.808 -1.82555 -5.02571 0
M  V30 4149 C 418.108 -3.61495 -3.76987 0
M  V30 4150 H 419.802 -2.26394 -1.95924 0
M  V30 4151 H 417.348 -1.08981 -0.94123 0
M  V30 4152 H 419.301 -1.06061 -4.07835 0
M  V30 4153 H 418.025 -0.122195 -3.26371 0
M  V30 4154 H 416.684 -2.22568 -2.91306 0
M  V30 4155 H 416.332 -0.833249 -4.9605 0
M  V30 4156 H 416.032 -2.5581 -5.28995 0
M  V30 4157 H 417.556 -1.80108 -5.83432 0
M  V30 4158 H 418.97 -3.60676 -4.4563 0
M  V30 4159 H 417.367 -4.33577 -4.14887 0
M  V30 4160 H 418.437 -3.97065 -2.78329 0
M  V30 4161 N 419.78 1.02168 -1.19998 0
M  V30 4162 C 421.028 1.75338 -1.00504 0
M  V30 4163 C 421.349 1.89387 0.464506 0
M  V30 4164 O 420.619 1.43268 1.33608 0
M  V30 4165 H 419.199 0.649564 -0.368885 0
M  V30 4166 H 421.861 1.23205 -1.51018 0
M  V30 4167 H 420.957 2.75892 -1.45912 0
M  V30 4168 N 421.258 1.00505 1.21394 0
M  V30 4169 C 422.188 0.585684 2.26035 0
M  V30 4170 C 423.169 -0.393525 1.65485 0
M  V30 4171 O 424.354 -0.281497 1.92149 0
M  V30 4172 C 421.484 -0.0884283 3.47187 0
M  V30 4173 C 420.438 0.810567 4.20254 0
M  V30 4174 C 419.764 0.00286382 5.347 0
M  V30 4175 C 421.064 2.1132 4.77641 0
M  V30 4176 H 422.758 1.46039 2.61368 0
M  V30 4177 H 420.304 0.703648 1.25638 0
M  V30 4178 H 422.257 -0.393286 4.19561 0
M  V30 4179 H 420.981 -0.997766 3.10986 0
M  V30 4180 H 419.64 1.09925 3.49731 0
M  V30 4181 H 419.288 -0.907765 4.94741 0
M  V30 4182 H 418.988 0.601444 5.84514 0
M  V30 4183 H 420.512 -0.295808 6.09883 0
M  V30 4184 H 421.926 1.87148 5.41893 0
M  V30 4185 H 420.323 2.66164 5.37845 0
M  V30 4186 H 421.393 2.78393 3.9702 0
M  V30 4187 N 422.737 -1.36956 0.779787 0
M  V30 4188 C 423.647 -2.33965 0.172491 0
M  V30 4189 C 424.663 -1.60574 -0.670222 0
M  V30 4190 O 425.839 -1.92617 -0.588263 0
M  V30 4191 C 422.904 -3.39761 -0.690173 0
M  V30 4192 C 421.965 -4.28964 0.169924 0
M  V30 4193 C 421.198 -5.29707 -0.651662 0
M  V30 4194 O 421.421 -5.38238 -1.88827 0
M  V30 4195 O 420.355 -6.01873 -0.0566264 0
M  V30 4196 H 424.181 -2.87647 0.974321 0
M  V30 4197 H 421.766 -1.39258 0.541078 0
M  V30 4198 H 423.648 -4.04471 -1.1824 0
M  V30 4199 H 422.323 -2.88394 -1.47006 0
M  V30 4200 H 421.23 -3.67326 0.708696 0
M  V30 4201 H 422.563 -4.83656 0.913085 0
M  V30 4202 N 424.215 -0.530993 -1.48385 0
M  V30 4203 C 425.631 -0.188919 -1.58478 0
M  V30 4204 C 425.831 1.30786 -1.53288 0
M  V30 4205 O 424.887 2.08619 -1.42248 0
M  V30 4206 C 426.2 -0.792343 -2.90073 0
M  V30 4207 C 427.748 -0.76117 -3.03604 0
M  V30 4208 C 428.223 -1.34319 -4.37861 0
M  V30 4209 N 429.714 -1.3052 -4.44431 0
M  V30 4210 C 430.449 -1.72543 -5.46824 0
M  V30 4211 N 429.945 -2.22299 -6.56167 0
M  V30 4212 N 431.738 -1.63773 -5.37712 0
M  V30 4213 H 423.889 -1.50377 -1.50002 0
M  V30 4214 H 426.152 -0.625559 -0.712306 0
M  V30 4215 H 425.858 -1.84323 -2.99529 0
M  V30 4216 H 425.732 -0.270026 -3.76232 0
M  V30 4217 H 428.119 0.280957 -2.93759 0
M  V30 4218 H 428.2 -1.32097 -2.19053 0
M  V30 4219 H 427.844 -2.38425 -4.4846 0
M  V30 4220 H 427.774 -0.759064 -5.21101 0
M  V30 4221 H 430.265 -0.940973 -3.65997 0
M  V30 4222 H 430.578 -2.52356 -7.30436 0
M  V30 4223 H 428.923 -2.26293 -6.57127 0
M  V30 4224 H 432.114 -1.24698 -4.51185 0
M  V30 4225 H 432.287 -1.96844 -6.17379 0
M  V30 4226 N 425.693 1.55336 -0.266172 0
M  V30 4227 C 426.939 1.99692 0.353681 0
M  V30 4228 C 427.272 1.1543 1.56172 0
M  V30 4229 O 426.547 0.222218 1.93226 0
M  V30 4230 C 426.83 3.52316 0.74466 0
M  V30 4231 C 426.683 4.47337 -0.470101 0
M  V30 4232 C 428.002 4.10588 1.58447 0
M  V30 4233 H 425.121 0.725961 0.12708 0
M  V30 4234 H 427.763 1.86336 -0.371333 0
M  V30 4235 H 425.913 3.63829 1.36239 0
M  V30 4236 H 427.585 4.4778 -1.10864 0
M  V30 4237 H 425.828 4.19364 -1.10978 0
M  V30 4238 H 426.499 5.51788 -0.15291 0
M  V30 4239 H 428.975 4.02297 1.06286 0
M  V30 4240 H 427.851 5.17607 1.82686 0
M  V30 4241 H 428.112 3.60253 2.56262 0
M  V30 4242 N 427.171 -0.0066808 1.57599 0
M  V30 4243 C 428.419 -0.691552 1.899 0
M  V30 4244 C 428.74 -1.74682 0.866672 0
M  V30 4245 O 428.01 -1.95661 -0.0968189 0
M  V30 4246 H 426.59 -0.258416 0.700878 0
M  V30 4247 H 429.252 0.0326655 1.94873 0
M  V30 4248 H 428.348 -1.16702 2.8946 0
M  V30 4249 N 428.649 -1.55105 -0.279332 0
M  V30 4250 C 429.898 -1.74618 -1.00952 0
M  V30 4251 C 430.211 -0.551096 -1.87676 0
M  V30 4252 O 431.417 -0.628507 -2.64125 0
M  V30 4253 C 429.873 -3.09025 -1.84476 0
M  V30 4254 C 429.481 -4.36081 -1.0265 0
M  V30 4255 C 431.225 -3.37891 -2.56963 0
M  V30 4256 C 429.132 -5.6153 -1.85576 0
M  V30 4257 H 428.062 -0.650868 -0.38064 0
M  V30 4258 H 430.713 -1.81569 -0.265475 0
M  V30 4259 H 429.095 -2.96095 -2.62952 0
M  V30 4260 H 430.269 -4.59909 -0.286354 0
M  V30 4261 H 428.584 -4.14312 -0.416464 0
M  V30 4262 H 431.181 -4.28822 -3.19399 0
M  V30 4263 H 431.524 -2.57737 -3.26921 0
M  V30 4264 H 432.057 -3.5189 -1.85522 0
M  V30 4265 H 428.796 -6.44413 -1.2005 0
M  V30 4266 H 428.316 -5.41854 -2.57204 0
M  V30 4267 H 429.995 -5.99594 -2.43096 0
M  V30 4268 N 430.127 0.543554 -1.4793 0
M  V30 4269 C 431.059 1.665 -1.57513 0
M  V30 4270 C 432.072 1.56156 -0.460333 0
M  V30 4271 O 433.261 1.62865 -0.730573 0
M  V30 4272 C 430.361 3.05063 -1.47614 0
M  V30 4273 C 429.534 3.41024 -2.739 0
M  V30 4274 C 428.593 4.58809 -2.57645 0
M  V30 4275 O 427.619 4.62707 -3.31498 0
M  V30 4276 N 428.821 5.56149 -1.66368 0
M  V30 4277 H 431.586 1.5872 -2.5422 0
M  V30 4278 H 429.147 0.730517 -1.44482 0
M  V30 4279 H 431.139 3.81712 -1.34455 0
M  V30 4280 H 429.709 3.06994 -0.589359 0
M  V30 4281 H 428.929 2.53687 -3.01723 0
M  V30 4282 H 430.217 3.61831 -3.57709 0
M  V30 4283 H 429.615 5.55767 -1.05543 0
M  V30 4284 H 428.172 6.32071 -1.59154 0
M  V30 4285 N 431.605 1.3629 0.791371 0
M  V30 4286 C 432.535 1.33137 1.91825 0
M  V30 4287 C 433.516 0.203168 1.68882 0
M  V30 4288 O 434.701 0.400509 1.90025 0
M  V30 4289 C 431.831 1.11793 3.28816 0
M  V30 4290 C 430.785 2.21417 3.66277 0
M  V30 4291 C 430.111 1.85218 5.01596 0
M  V30 4292 C 431.411 3.63489 3.75064 0
M  V30 4293 H 433.105 2.2743 1.9472 0
M  V30 4294 H 430.651 1.09479 0.935437 0
M  V30 4295 H 432.604 1.08222 4.07266 0
M  V30 4296 H 431.328 0.139501 3.26302 0
M  V30 4297 H 429.987 2.2411 2.90121 0
M  V30 4298 H 429.635 0.859544 4.95602 0
M  V30 4299 H 429.335 2.58611 5.27631 0
M  V30 4300 H 430.859 1.832 5.82469 0
M  V30 4301 H 432.273 3.63034 4.43711 0
M  V30 4302 H 430.67 4.35771 4.12582 0
M  V30 4303 H 431.74 3.98536 2.76219 0
M  V30 4304 N 433.083 -1.0153 1.20538 0
M  V30 4305 C 434.331 -1.74803 1.01432 0
M  V30 4306 C 434.652 -1.8963 -0.454456 0
M  V30 4307 O 433.922 -1.43975 -1.32846 0
M  V30 4308 H 432.502 -0.647598 0.372324 0
M  V30 4309 H 435.164 -1.22402 1.5167 0
M  V30 4310 H 434.26 -2.75114 1.47373 0
M  V30 4311 N 434.561 -1.01147 -1.20859 0
M  V30 4312 C 435.977 -0.725422 -1.42161 0
M  V30 4313 C 436.177 0.696919 -1.89064 0
M  V30 4314 O 435.233 1.46539 -2.05627 0
M  V30 4315 C 436.546 -1.74678 -2.44761 0
M  V30 4316 C 438.094 -1.76433 -2.58535 0
M  V30 4317 C 438.569 -2.77481 -3.64374 0
M  V30 4318 N 440.06 -2.76189 -3.71852 0
M  V30 4319 C 440.795 -3.51035 -4.53389 0
M  V30 4320 N 440.291 -4.35541 -5.38773 0
M  V30 4321 N 442.084 -3.39655 -4.47873 0
M  V30 4322 H 434.235 -1.92979 -0.887282 0
M  V30 4323 H 436.498 -0.833327 -0.451962 0
M  V30 4324 H 436.204 -2.76551 -2.17285 0
M  V30 4325 H 436.078 -1.55472 -3.43669 0
M  V30 4326 H 438.465 -0.75248 -2.85345 0
M  V30 4327 H 438.546 -1.99712 -1.5984 0
M  V30 4328 H 438.19 -3.78827 -3.38308 0
M  V30 4329 H 438.12 -2.51466 -4.6268 0
M  V30 4330 H 440.611 -2.14885 -3.10858 0
M  V30 4331 H 440.924 -4.89432 -5.98061 0
M  V30 4332 H 439.269 -4.39621 -5.38292 0
M  V30 4333 H 442.46 -2.73063 -3.80203 0
M  V30 4334 H 442.633 -3.9824 -5.11184 0
M  V30 4335 N 436.039 1.36541 -0.78704 0
M  V30 4336 C 437.287 1.98911 -0.357633 0
M  V30 4337 C 437.608 1.62778 1.07371 0
M  V30 4338 O 436.878 0.900612 1.73971 0
M  V30 4339 H 435.458 0.735734 -0.129246 0
M  V30 4340 H 438.12 1.66776 -1.00855 0
M  V30 4341 H 437.216 3.08874 -0.447549 0
M  V30 4342 N 437.518 0.538854 1.48102 0
M  V30 4343 C 438.466 -0.232325 2.31437 0
M  V30 4344 C 439.46 -0.927004 1.41785 0
M  V30 4345 O 440.666 -0.850378 1.58646 0
M  V30 4346 H 437.041 -0.0937916 0.746128 0
M  V30 4347 H 439.012 0.489986 2.9435 0
M  V30 4348 C 437.761 -1.26074 3.24038 0
M  V30 4349 H 437.084 -0.735609 3.92974 0
M  V30 4350 H 438.524 -1.77157 3.85216 0
M  V30 4351 C 436.983 -2.29902 2.46265 0
M  V30 4352 O 437.513 -3.36502 2.19384 0
M  V30 4353 N 435.719 -2.03348 2.07601 0
M  V30 4354 H 435.266 -1.16675 2.29662 0
M  V30 4355 H 435.224 -2.73038 1.55877 0
M  V30 4356 N 438.996 -1.55193 0.274407 0
M  V30 4357 C 440.226 -2.03692 -0.345442 0
M  V30 4358 C 440.634 -1.15224 -1.50067 0
M  V30 4359 O 439.977 -0.164749 -1.8296 0
M  V30 4360 C 440.039 -3.48325 -0.88939 0
M  V30 4361 C 439.703 -4.56794 0.137115 0
M  V30 4362 C 440.7 -5.11028 0.956378 0
M  V30 4363 C 438.385 -5.01568 0.27115 0
M  V30 4364 C 440.379 -6.08552 1.89587 0
M  V30 4365 C 438.066 -5.98918 1.21412 0
M  V30 4366 C 439.064 -6.52291 2.02498 0
M  V30 4367 O 438.752 -7.47738 2.952 0
M  V30 4368 H 438.484 -0.670893 -0.0829332 0
M  V30 4369 H 441.038 -2.01387 0.404056 0
M  V30 4370 H 439.268 -3.47867 -1.68895 0
M  V30 4371 H 440.957 -3.80167 -1.42225 0
M  V30 4372 H 441.723 -4.7725 0.863559 0
M  V30 4373 H 437.602 -4.5967 -0.349987 0
M  V30 4374 H 441.146 -6.50137 2.52918 0
M  V30 4375 H 437.043 -6.32114 1.30776 0
M  V30 4376 H 437.811 -7.65451 2.89874 0
M  V30 4377 N 440.474 -0.00167713 -1.576 0
M  V30 4378 C 441.404 0.988091 -2.11563 0
M  V30 4379 C 442.385 1.35736 -1.02517 0
M  V30 4380 O 443.57 1.44082 -1.30208 0
M  V30 4381 C 440.7 2.27941 -2.62031 0
M  V30 4382 C 439.654 2.0517 -3.75619 0
M  V30 4383 C 438.98 3.4033 -4.12407 0
M  V30 4384 C 440.28 1.41294 -5.02825 0
M  V30 4385 H 441.974 0.538771 -2.94513 0
M  V30 4386 H 439.52 0.257712 -1.41675 0
M  V30 4387 H 441.473 2.97539 -2.9841 0
M  V30 4388 H 440.197 2.74989 -1.76205 0
M  V30 4389 H 438.856 1.37998 -3.39635 0
M  V30 4390 H 438.504 3.85085 -3.23603 0
M  V30 4391 H 438.204 3.25909 -4.88935 0
M  V30 4392 H 439.728 4.1124 -4.51347 0
M  V30 4393 H 441.142 2.00851 -5.36965 0
M  V30 4394 H 439.539 1.37356 -5.84169 0
M  V30 4395 H 440.609 0.382362 -4.8339 0
M  V30 4396 N 441.952 1.55251 0.271103 0
M  V30 4397 C 443.18 1.79974 1.02064 0
M  V30 4398 C 443.595 0.574003 1.79863 0
M  V30 4399 O 442.952 -0.456962 1.76686 0
M  V30 4400 C 443.003 3.02603 1.97772 0
M  V30 4401 O 442.724 4.20443 1.23124 0
M  V30 4402 C 444.225 3.39944 2.84522 0
M  V30 4403 H 441.445 0.599489 0.301419 0
M  V30 4404 H 443.989 2.02268 0.301313 0
M  V30 4405 H 442.144 2.8243 2.65165 0
M  V30 4406 H 442.558 4.89783 1.87651 0
M  V30 4407 H 444.032 4.28915 3.47471 0
M  V30 4408 H 444.509 2.59432 3.54389 0
M  V30 4409 H 445.115 3.62383 2.22618 0
M  V30 4410 N 443.43 -0.535701 1.48216 0
M  V30 4411 C 444.676 -1.29375 1.56173 0
M  V30 4412 C 445.009 -1.92804 0.232429 0
M  V30 4413 O 444.284 -1.78992 -0.761048 0
M  V30 4414 C 444.567 -2.38747 2.69577 0
M  V30 4415 C 444.42 -1.80046 4.12193 0
M  V30 4416 C 445.739 -3.40551 2.78771 0
M  V30 4417 H 442.858 -0.469027 0.568491 0
M  V30 4418 H 445.5 -0.597358 1.80365 0
M  V30 4419 H 443.65 -2.98147 2.4908 0
M  V30 4420 H 445.322 -1.24742 4.44114 0
M  V30 4421 H 443.565 -1.10609 4.19462 0
M  V30 4422 H 444.236 -2.59212 4.87353 0
M  V30 4423 H 446.712 -2.91099 2.97322 0
M  V30 4424 H 445.588 -4.1448 3.59857 0
M  V30 4425 H 445.849 -4.00746 1.86696 0
M  V30 4426 N 444.908 -1.36708 -0.784132 0
M  V30 4427 C 446.185 -1.21776 -1.53069 0
M  V30 4428 C 446.565 0.193876 -2.10208 0
M  V30 4429 O 445.913 1.20012 -1.94446 0
M  V30 4430 C 446.123 -2.30395 -2.62143 0
M  V30 4431 C 447.471 -2.67325 -3.29882 0
M  V30 4432 O 448.495 -2.29478 -2.7243 0
M  V30 4433 O 447.354 -3.32485 -4.33724 0
M  V30 4434 H 444.448 -0.474459 -0.677361 0
M  V30 4435 H 446.994 -1.48454 -0.82216 0
M  V30 4436 H 445.766 -3.2498 -2.17953 0
M  V30 4437 H 445.389 -2.05112 -3.40609 0
M  V30 4438 N 446.386 1.0089 -1.21074 0
M  V30 4439 C 447.802 1.2695 -0.967257 0
M  V30 4440 C 448.002 1.9846 0.348673 0
M  V30 4441 O 447.058 2.28459 1.0753 0
M  V30 4442 C 448.371 2.09697 -2.15517 0
M  V30 4443 C 449.919 2.22937 -2.197 0
M  V30 4444 C 450.394 3.09064 -3.37999 0
M  V30 4445 N 451.885 3.16653 -3.38061 0
M  V30 4446 C 452.62 3.8354 -4.26245 0
M  V30 4447 N 452.116 4.52488 -5.2462 0
M  V30 4448 N 453.909 3.80141 -4.14064 0
M  V30 4449 H 446.06 0.529005 -2.05707 0
M  V30 4450 H 448.323 0.296148 -0.900556 0
M  V30 4451 H 448.029 1.64497 -3.10859 0
M  V30 4452 H 447.903 3.10444 -2.14253 0
M  V30 4453 H 450.29 2.67357 -1.24916 0
M  V30 4454 H 450.371 1.21673 -2.2501 0
M  V30 4455 H 450.015 2.65347 -4.33074 0
M  V30 4456 H 449.945 4.10433 -3.29928 0
M  V30 4457 H 452.436 2.67566 -2.66865 0
M  V30 4458 H 452.749 5.01219 -5.88217 0
M  V30 4459 H 451.094 4.51288 -5.28549 0
M  V30 4460 H 454.285 3.25427 -3.36474 0
M  V30 4461 H 454.458 4.31992 -4.82998 0
M  V30 4462 N 447.864 1.01787 1.20321 0
M  V30 4463 C 449.11 0.708985 1.90003 0
M  V30 4464 C 449.443 -0.759572 1.78729 0
M  V30 4465 O 448.718 -1.55198 1.17234 0
M  V30 4466 C 449.001 1.1469 3.41348 0
M  V30 4467 C 448.854 2.67586 3.61549 0
M  V30 4468 C 450.173 0.71915 4.34185 0
M  V30 4469 H 447.292 0.259034 0.689978 0
M  V30 4470 H 449.934 1.26584 1.41692 0
M  V30 4471 H 448.084 0.673128 3.82624 0
M  V30 4472 H 449.756 3.22826 3.29517 0
M  V30 4473 H 447.999 3.085 3.04976 0
M  V30 4474 H 448.67 2.93281 4.67643 0
M  V30 4475 H 451.146 1.12647 4.00562 0
M  V30 4476 H 450.022 1.05358 5.38694 0
M  V30 4477 H 450.283 -0.379111 4.40472 0
M  V30 4478 N 449.342 -1.36122 0.79427 0
M  V30 4479 C 450.567 -2.03891 0.379871 0
M  V30 4480 C 450.992 -1.59488 -0.997251 0
M  V30 4481 O 450.35 -0.765652 -1.64339 0
M  V30 4482 C 450.398 -3.57687 0.457442 0
M  V30 4483 O 449.502 -4.08931 -0.5338 0
M  V30 4484 H 448.843 -0.6443 0.160541 0
M  V30 4485 H 451.373 -1.73976 1.07673 0
M  V30 4486 H 451.383 -4.06721 0.322792 0
M  V30 4487 H 450.058 -3.89357 1.46199 0
M  V30 4488 H 448.635 -3.71154 -0.360409 0
M  V30 4489 N 450.82 -0.546701 -1.47814 0
M  V30 4490 C 452.236 -0.205717 -1.58269 0
M  V30 4491 C 452.436 1.29153 -1.54667 0
M  V30 4492 O 451.492 2.07098 -1.44453 0
M  V30 4493 C 452.805 -0.823065 -2.89216 0
M  V30 4494 C 454.353 -0.793328 -3.02779 0
M  V30 4495 C 454.828 -1.38955 -4.36412 0
M  V30 4496 N 456.319 -1.35227 -4.43021 0
M  V30 4497 C 457.054 -1.78333 -5.44963 0
M  V30 4498 N 456.55 -2.29246 -6.53772 0
M  V30 4499 N 458.343 -1.69467 -5.35945 0
M  V30 4500 H 450.494 -1.5196 -1.48398 0
M  V30 4501 H 452.757 -0.633078 -0.705632 0
M  V30 4502 H 452.463 -1.8749 -2.97558 0
M  V30 4503 H 452.337 -0.309915 -3.75925 0
M  V30 4504 H 454.724 0.249784 -2.94041 0
M  V30 4505 H 454.805 -1.34412 -2.17639 0
M  V30 4506 H 454.449 -2.43168 -4.45906 0
M  V30 4507 H 454.379 -0.814291 -5.20266 0
M  V30 4508 H 456.87 -0.979739 -3.64979 0
M  V30 4509 H 457.183 -2.60089 -7.27718 0
M  V30 4510 H 455.528 -2.3325 -6.5469 0
M  V30 4511 H 458.719 -1.29477 -4.49837 0
M  V30 4512 H 458.892 -2.03381 -6.15256 0
M  V30 4513 N 452.299 1.55045 -0.282633 0
M  V30 4514 C 453.527 2.04168 0.33512 0
M  V30 4515 C 453.942 1.16071 1.48906 0
M  V30 4516 O 453.299 0.182391 1.81586 0
M  V30 4517 C 453.35 3.52332 0.808957 0
M  V30 4518 O 453.071 4.37078 -0.299038 0
M  V30 4519 C 454.572 4.17375 1.49375 0
M  V30 4520 H 451.792 0.666744 0.0754543 0
M  V30 4521 H 454.336 2.00205 -0.416918 0
M  V30 4522 H 452.491 3.56715 1.51106 0
M  V30 4523 H 452.905 5.24458 0.0665514 0
M  V30 4524 H 454.379 5.22627 1.77664 0
M  V30 4525 H 454.856 3.65999 2.42778 0
M  V30 4526 H 455.462 4.17016 0.835305 0
M  V30 4527 N 453.777 0.010035 1.57597 0
M  V30 4528 C 454.707 -0.976857 2.12084 0
M  V30 4529 C 455.688 -1.35191 1.03235 0
M  V30 4530 O 456.873 -1.43389 1.3097 0
M  V30 4531 C 454.003 -2.26548 2.63236 0
M  V30 4532 C 452.957 -2.03175 3.76701 0
M  V30 4533 C 452.283 -3.38138 4.14206 0
M  V30 4534 C 453.583 -1.38625 5.03568 0
M  V30 4535 H 455.277 -0.523145 2.94794 0
M  V30 4536 H 452.823 -0.250195 1.4181 0
M  V30 4537 H 454.776 -2.95952 2.99984 0
M  V30 4538 H 453.5 -2.74051 1.77661 0
M  V30 4539 H 452.159 -1.36195 3.40362 0
M  V30 4540 H 451.807 -3.83363 3.25641 0
M  V30 4541 H 451.507 -3.23312 4.90656 0
M  V30 4542 H 453.031 -4.08841 4.53521 0
M  V30 4543 H 454.445 -1.98 5.38023 0
M  V30 4544 H 452.842 -1.34256 5.84889 0
M  V30 4545 H 453.912 -0.356722 4.83586 0
M  V30 4546 N 455.255 -1.55392 -0.262866 0
M  V30 4547 C 456.218 -1.88181 -1.30846 0
M  V30 4548 C 457.218 -0.757079 -1.41862 0
M  V30 4549 O 458.408 -1.02519 -1.40838 0
M  V30 4550 C 455.54 -2.09609 -2.68844 0
M  V30 4551 H 456.733 -2.81659 -1.02997 0
M  V30 4552 H 454.286 -1.48039 -0.501414 0
M  V30 4553 H 455.021 -1.18547 -3.01856 0
M  V30 4554 H 454.806 -2.91508 -2.62231 0
M  V30 4555 H 456.296 -2.36215 -3.44372 0
M  V30 4556 N 456.733 0.527833 -1.48498 0
M  V30 4557 C 457.961 1.30823 -1.6029 0
M  V30 4558 C 458.376 1.86945 -0.263974 0
M  V30 4559 O 457.733 1.6651 0.747034 0
M  V30 4560 C 457.784 2.45756 -2.65116 0
M  V30 4561 O 457.505 1.91946 -3.93813 0
M  V30 4562 C 459.006 3.37543 -2.87367 0
M  V30 4563 H 456.226 0.397763 -0.540394 0
M  V30 4564 H 458.77 0.636529 -1.94341 0
M  V30 4565 H 456.925 3.08806 -2.33917 0
M  V30 4566 H 457.339 2.67195 -4.51339 0
M  V30 4567 H 458.813 4.14532 -3.6451 0
M  V30 4568 H 459.29 3.92905 -1.9627 0
M  V30 4569 H 459.896 2.80283 -3.19878 0
M  V30 4570 N 458.211 1.37122 0.776871 0
M  V30 4571 C 459.459 1.31787 1.53221 0
M  V30 4572 C 459.78 -0.0987589 1.9475 0
M  V30 4573 O 459.05 -1.0417 1.65908 0
M  V30 4574 H 457.63 0.484839 0.568278 0
M  V30 4575 H 460.292 1.71556 0.924917 0
M  V30 4576 H 459.388 1.95355 2.43398 0
M  V30 4577 N 459.689 -1.00246 1.21608 0
M  V30 4578 C 460.938 -1.73476 1.02902 0
M  V30 4579 C 461.251 -1.90643 -0.437561 0
M  V30 4580 O 462.457 -2.61105 -0.74407 0
M  V30 4581 C 460.913 -3.12079 1.79261 0
M  V30 4582 C 460.521 -3.02877 3.30106 0
M  V30 4583 C 462.265 -3.89421 1.68972 0
M  V30 4584 C 460.172 -4.36575 3.98944 0
M  V30 4585 H 459.102 -0.650408 0.381425 0
M  V30 4586 H 461.753 -1.11985 1.45367 0
M  V30 4587 H 460.135 -3.74196 1.2959 0
M  V30 4588 H 461.309 -2.49983 3.87098 0
M  V30 4589 H 459.624 -2.39022 3.40965 0
M  V30 4590 H 462.221 -4.88362 2.17731 0
M  V30 4591 H 462.564 -4.1122 0.648397 0
M  V30 4592 H 463.097 -3.33963 2.16133 0
M  V30 4593 H 459.836 -4.19978 5.03288 0
M  V30 4594 H 459.356 -4.8942 3.4674 0
M  V30 4595 H 461.035 -5.05364 4.04 0
M  V30 4596 N 461.167 -1.02423 -1.1978 0
M  V30 4597 C 462.397 -0.736387 -1.93031 0
M  V30 4598 C 462.805 0.708023 -1.75453 0
M  V30 4599 O 462.148 1.4927 -1.07071 0
M  V30 4600 C 462.21 -1.00194 -3.45255 0
M  V30 4601 C 461.874 -2.43698 -3.86601 0
M  V30 4602 C 462.871 -3.41814 -3.91738 0
M  V30 4603 C 460.556 -2.77975 -4.18372 0
M  V30 4604 C 462.55 -4.72265 -4.28071 0
M  V30 4605 C 460.237 -4.08636 -4.54378 0
M  V30 4606 C 461.235 -5.05592 -4.59201 0
M  V30 4607 O 460.923 -6.33914 -4.94376 0
M  V30 4608 H 460.655 -0.269116 -0.620123 0
M  V30 4609 H 463.209 -1.37043 -1.52998 0
M  V30 4610 H 461.439 -0.310747 -3.85449 0
M  V30 4611 H 463.128 -0.704488 -3.9974 0
M  V30 4612 H 463.894 -3.16671 -3.67348 0
M  V30 4613 H 459.773 -2.0319 -4.13805 0
M  V30 4614 H 463.317 -5.4794 -4.3175 0
M  V30 4615 H 459.214 -4.33556 -4.78226 0
M  V30 4616 H 459.982 -6.38317 -5.12341 0
M  V30 4617 N 462.645 1.35699 -0.801477 0
M  V30 4618 C 463.608 2.28199 -0.213994 0
M  V30 4619 C 464.608 1.49359 0.595691 0
M  V30 4620 O 465.798 1.69186 0.414921 0
M  V30 4621 C 462.93 3.33587 0.702297 0
M  V30 4622 H 464.123 2.81666 -1.02976 0
M  V30 4623 H 461.676 1.45467 -0.571759 0
M  V30 4624 H 462.411 2.85297 1.54195 0
M  V30 4625 H 462.196 3.91906 0.123484 0
M  V30 4626 H 463.686 4.02638 1.10783 0
M  V30 4627 N 464.123 0.554532 1.47522 0
M  V30 4628 C 465.086 -0.184174 2.28459 0
M  V30 4629 C 466.086 -0.845195 1.36796 0
M  V30 4630 O 467.276 -0.701467 1.59452 0
M  V30 4631 C 464.408 -1.26903 3.16399 0
M  V30 4632 H 465.601 0.526751 2.95238 0
M  V30 4633 H 463.154 0.311375 1.53167 0
M  V30 4634 H 463.889 -2.01244 2.54306 0
M  V30 4635 H 463.674 -0.799883 3.83854 0
M  V30 4636 H 465.164 -1.78794 3.77389 0
M  V30 4637 N 465.601 -1.54893 0.290851 0
M  V30 4638 C 466.849 -1.99538 -0.320756 0
M  V30 4639 C 467.17 -1.18075 -1.55188 0
M  V30 4640 O 466.44 -0.274162 -1.93972 0
M  V30 4641 H 465.02 -0.737052 -0.121507 0
M  V30 4642 H 467.682 -1.90755 0.399832 0
M  V30 4643 H 466.778 -3.06282 -0.599802 0
M  V30 4644 N 467.08 -0.0183926 -1.57589 0
M  V30 4645 C 468.357 0.700621 -1.82622 0
M  V30 4646 C 468.737 1.90951 -0.90005 0
M  V30 4647 O 468.085 2.28452 0.0469145 0
M  V30 4648 C 468.295 1.08899 -3.31575 0
M  V30 4649 C 469.643 1.48514 -3.9778 0
M  V30 4650 O 470.667 1.18227 -3.36007 0
M  V30 4651 O 469.526 2.04903 -5.06633 0
M  V30 4652 H 466.62 0.342743 -0.752633 0
M  V30 4653 H 469.166 -0.0452548 -1.6964 0
M  V30 4654 H 467.938 0.228113 -3.90635 0
M  V30 4655 H 467.561 1.89338 -3.49624 0
M  V30 4656 N 468.558 1.5553 0.254621 0
M  V30 4657 C 469.798 1.7876 0.991179 0
M  V30 4658 C 470.162 0.586669 1.82817 0
M  V30 4659 O 471.363 0.697585 2.5959 0
M  V30 4660 C 469.634 3.06679 1.83529 0
M  V30 4661 S 471.193 3.511 2.632 0
M  V30 4662 H 468.011 0.627916 0.333531 0
M  V30 4663 H 470.613 1.93766 0.259778 0
M  V30 4664 H 469.317 3.92158 1.20996 0
M  V30 4665 H 468.848 2.94388 2.60958 0
M  V30 4666 H 470.863 3.11823 3.8598 0
M  V30 4667 N 470.036 -0.519951 1.48776 0
M  V30 4668 C 471.264 -1.29971 1.60982 0
M  V30 4669 C 471.679 -1.86803 0.273885 0
M  V30 4670 O 471.036 -1.66904 -0.738193 0
M  V30 4671 C 471.087 -2.44346 2.66415 0
M  V30 4672 O 470.808 -1.89855 3.94825 0
M  V30 4673 C 472.309 -3.36014 2.89153 0
M  V30 4674 H 469.529 -0.394891 0.542496 0
M  V30 4675 H 472.073 -0.626214 1.94676 0
M  V30 4676 H 470.228 -3.07562 2.35552 0
M  V30 4677 H 470.642 -2.64798 4.5275 0
M  V30 4678 H 472.116 -4.12593 3.66703 0
M  V30 4679 H 472.593 -3.91859 1.98351 0
M  V30 4680 H 473.199 -2.78582 3.21359 0
M  V30 4681 N 471.514 -1.37532 -0.769588 0
M  V30 4682 C 472.762 -1.32597 -1.5252 0
M  V30 4683 C 473.083 0.0884294 -1.94799 0
M  V30 4684 O 472.353 1.03289 -1.66458 0
M  V30 4685 H 470.933 -0.487846 -0.565699 0
M  V30 4686 H 473.595 -1.72044 -0.915806 0
M  V30 4687 H 472.691 -1.96643 -2.42359 0
M  V30 4688 N 472.992 0.995999 -1.22138 0
M  V30 4689 C 473.922 2.10387 -1.01289 0
M  V30 4690 C 474.903 1.69975 0.0651454 0
M  V30 4691 O 476.088 1.9396 -0.0964628 0
M  V30 4692 C 473.218 3.42312 -0.586517 0
M  V30 4693 C 472.172 3.96558 -1.61014 0
M  V30 4694 C 471.498 5.24494 -1.0397 0
M  V30 4695 C 472.798 4.27595 -2.99933 0
M  V30 4696 H 474.492 2.28086 -1.93951 0
M  V30 4697 H 472.038 1.09607 -0.933928 0
M  V30 4698 H 473.991 4.19223 -0.427793 0
M  V30 4699 H 472.715 3.24431 0.375761 0
M  V30 4700 H 471.374 3.21776 -1.75658 0
M  V30 4701 H 471.022 5.02953 -0.0688703 0
M  V30 4702 H 470.722 5.61755 -1.72352 0
M  V30 4703 H 472.246 6.04042 -0.892494 0
M  V30 4704 H 473.66 4.95315 -2.8868 0
M  V30 4705 H 472.057 4.76021 -3.6541 0
M  V30 4706 H 473.127 3.35498 -3.50099 0
M  V30 4707 N 474.47 1.03057 1.19235 0
M  V30 4708 C 475.4 0.633497 2.24742 0
M  V30 4709 C 476.381 -0.358335 1.66283 0
M  V30 4710 O 477.566 -0.240676 1.92703 0
M  V30 4711 C 474.696 -0.0147648 3.47297 0
M  V30 4712 C 473.65 0.899527 4.18441 0
M  V30 4713 C 472.976 0.116281 5.34574 0
M  V30 4714 C 474.276 2.21404 4.73051 0
M  V30 4715 H 475.97 1.5155 2.58211 0
M  V30 4716 H 473.516 0.73014 1.24117 0
M  V30 4717 H 475.469 -0.304202 4.20301 0
M  V30 4718 H 474.193 -0.931577 3.13032 0
M  V30 4719 H 472.852 1.17319 3.47321 0
M  V30 4720 H 472.5 -0.802619 4.96555 0
M  V30 4721 H 472.2 0.725293 5.83107 0
M  V30 4722 H 473.724 -0.166376 6.10373 0
M  V30 4723 H 475.138 1.98601 5.37802 0
M  V30 4724 H 473.535 2.77512 5.32078 0
M  V30 4725 H 474.605 2.86752 3.91026 0
M  V30 4726 N 475.948 -1.35272 0.808662 0
M  V30 4727 C 477.359 -1.81179 0.450688 0
M  V30 4728 C 477.71 -1.67143 -1.02751 0
M  V30 4729 O 476.835 -1.20325 -1.79864 0
M  V30 4730 C 477.43 -3.28943 0.811275 0
M  V30 4731 C 475.989 -3.72985 0.505871 0
M  V30 4732 C 475.136 -2.57229 1.03578 0
M  V30 4733 H 478.087 -1.2322 1.00012 0
M  V30 4734 H 478.108 -3.80342 0.109588 0
M  V30 4735 H 477.62 -3.39127 1.88718 0
M  V30 4736 H 475.721 -3.68349 -0.561209 0
M  V30 4737 H 475.834 -4.67677 1.03995 0
M  V30 4738 H 474.198 -2.50548 0.458005 0
M  V30 4739 H 474.981 -2.7019 2.11784 0
M  V30 4740 N 477.426 -0.562348 -1.47226 0
M  V30 4741 C 478.356 0.170627 -2.32876 0
M  V30 4742 C 479.337 0.903748 -1.44106 0
M  V30 4743 O 480.522 0.883206 -1.72954 0
M  V30 4744 C 477.652 1.19786 -3.25989 0
M  V30 4745 C 476.606 0.580875 -4.2404 0
M  V30 4746 C 475.932 1.71311 -5.06514 0
M  V30 4747 C 477.232 -0.468714 -5.20193 0
M  V30 4748 H 478.926 -0.544441 -2.94408 0
M  V30 4749 H 476.472 -0.263271 -1.41573 0
M  V30 4750 H 478.425 1.71884 -3.84752 0
M  V30 4751 H 477.149 1.94294 -2.62521 0
M  V30 4752 H 475.808 0.0811538 -3.6651 0
M  V30 4753 H 475.456 2.44736 -4.39447 0
M  V30 4754 H 475.156 1.30604 -5.72902 0
M  V30 4755 H 476.68 2.23725 -5.68137 0
M  V30 4756 H 478.094 -0.0336028 -5.7329 0
M  V30 4757 H 476.491 -0.794957 -5.94811 0
M  V30 4758 H 477.561 -1.36269 -4.65359 0
M  V30 4759 N 478.904 1.54736 -0.299062 0
M  V30 4760 C 479.867 2.22127 0.565012 0
M  V30 4761 C 480.867 1.20669 1.06281 0
M  V30 4762 O 482.057 1.45417 0.959145 0
M  V30 4763 C 479.189 2.90611 1.78208 0
M  V30 4764 H 480.382 2.99891 -0.0237448 0
M  V30 4765 H 477.935 1.5622 -0.0498788 0
M  V30 4766 H 478.67 2.16921 2.41072 0
M  V30 4767 H 478.455 3.64984 1.43281 0
M  V30 4768 H 479.945 3.42026 2.396 0
M  V30 4769 N 480.382 0.0267497 1.57577 0
M  V30 4770 C 481.607 -0.666227 1.96408 0
M  V30 4771 C 482.032 -1.65004 0.903071 0
M  V30 4772 O 481.39 -1.80787 -0.136263 0
M  V30 4773 C 481.438 -1.35101 3.34335 0
M  V30 4774 O 480.542 -2.46623 3.30531 0
M  V30 4775 H 479.883 -0.175206 0.640468 0
M  V30 4776 H 482.413 0.0878977 2.04411 0
M  V30 4777 H 482.423 -1.70834 3.70513 0
M  V30 4778 H 481.098 -0.629844 4.11103 0
M  V30 4779 H 479.675 -2.13019 3.06068 0
M  V30 4780 N 481.861 -1.55662 -0.24637 0
M  V30 4781 C 483.107 -1.77782 -0.975779 0
M  V30 4782 C 483.44 -0.592103 -1.84953 0
M  V30 4783 O 482.715 0.409588 -1.90138 0
M  V30 4784 C 482.998 -3.09788 -1.83584 0
M  V30 4785 C 482.851 -4.38764 -0.990241 0
M  V30 4786 C 484.17 -3.38029 -2.81823 0
M  V30 4787 H 481.289 -0.646789 -0.353317 0
M  V30 4788 H 483.931 -1.88398 -0.246248 0
M  V30 4789 H 482.081 -3.00869 -2.45784 0
M  V30 4790 H 483.753 -4.59675 -0.386897 0
M  V30 4791 H 481.996 -4.32798 -0.294626 0
M  V30 4792 H 482.667 -5.27514 -1.62584 0
M  V30 4793 H 485.143 -3.46915 -2.2976 0
M  V30 4794 H 484.019 -4.3161 -3.39122 0
M  V30 4795 H 484.28 -2.58968 -3.58313 0
M  V30 4796 N 483.339 0.512053 -1.4905 0
M  V30 4797 C 484.302 1.59704 -1.64399 0
M  V30 4798 C 485.302 1.52285 -0.516317 0
M  V30 4799 O 486.492 1.55635 -0.782527 0
M  V30 4800 C 483.624 2.9935 -1.63102 0
M  V30 4801 H 484.817 1.47428 -2.61161 0
M  V30 4802 H 482.37 0.735469 -1.37915 0
M  V30 4803 H 483.105 3.17116 -0.678836 0
M  V30 4804 H 482.89 3.06144 -2.44986 0
M  V30 4805 H 484.38 3.782 -1.77072 0
M  V30 4806 N 484.817 1.37938 0.762283 0
M  V30 4807 C 485.78 1.34279 1.85747 0
M  V30 4808 C 486.78 0.244969 1.58923 0
M  V30 4809 O 487.97 0.501365 1.66829 0
M  V30 4810 C 485.102 1.08833 3.23061 0
M  V30 4811 H 486.295 2.31705 1.90401 0
M  V30 4812 H 483.848 1.23105 0.963057 0
M  V30 4813 H 484.583 0.119767 3.24079 0
M  V30 4814 H 484.368 1.88306 3.43923 0
M  V30 4815 H 485.858 1.08946 4.03138 0
M  V30 4816 N 486.295 -0.989507 1.22664 0
M  V30 4817 C 487.228 -2.07805 0.942985 0
M  V30 4818 C 488.206 -1.6219 -0.115356 0
M  V30 4819 O 489.39 -1.88492 0.0169565 0
M  V30 4820 C 486.517 -3.361 0.418898 0
M  V30 4821 C 485.563 -4.00643 1.46244 0
M  V30 4822 S 486.396 -4.41059 3.03689 0
M  V30 4823 C 487.552 -5.7252 2.52927 0
M  V30 4824 H 487.785 -2.31547 1.86476 0
M  V30 4825 H 485.318 -1.12446 1.05808 0
M  V30 4826 H 487.276 -4.10315 0.123114 0
M  V30 4827 H 485.937 -3.10383 -0.481818 0
M  V30 4828 H 485.13 -4.93033 1.04569 0
M  V30 4829 H 484.732 -3.32767 1.7071 0
M  V30 4830 H 487.024 -6.49017 1.94379 0
M  V30 4831 H 487.967 -6.19026 3.4382 0
M  V30 4832 H 488.375 -5.30083 1.94094 0
M  V30 4833 N 487.773 -1.03688 -1.18687 0
M  V30 4834 C 488.705 -0.582696 -2.21669 0
M  V30 4835 C 489.718 0.345656 -1.59088 0
M  V30 4836 O 490.907 0.140776 -1.77944 0
M  V30 4837 C 488.007 0.169204 -3.38477 0
M  V30 4838 C 487.18 -0.766079 -4.30639 0
M  V30 4839 C 486.239 -0.0581541 -5.26168 0
M  V30 4840 O 485.265 -0.687346 -5.65035 0
M  V30 4841 N 486.467 1.20981 -5.67753 0
M  V30 4842 H 489.232 -1.46843 -2.61261 0
M  V30 4843 H 486.793 -0.916896 -1.33434 0
M  V30 4844 H 488.785 0.652543 -3.99405 0
M  V30 4845 H 487.355 0.956435 -2.97609 0
M  V30 4846 H 486.575 -1.42935 -3.67373 0
M  V30 4847 H 487.863 -1.40146 -4.89118 0
M  V30 4848 H 487.261 1.74159 -5.38224 0
M  V30 4849 H 485.818 1.6375 -6.30896 0
M  V30 4850 N 489.251 1.34841 -0.815825 0
M  V30 4851 C 490.499 1.98107 -0.399744 0
M  V30 4852 C 490.82 1.65019 1.03894 0
M  V30 4853 O 490.09 0.937311 1.72021 0
M  V30 4854 H 488.67 0.732827 -0.144823 0
M  V30 4855 H 491.332 1.64599 -1.0437 0
M  V30 4856 H 490.428 3.07856 -0.512965 0
M  V30 4857 N 490.729 0.570148 1.46925 0
M  V30 4858 C 492.145 0.23087 1.57921 0
M  V30 4859 C 492.345 -1.26676 1.56702 0
M  V30 4860 O 491.401 -2.04774 1.47729 0
M  V30 4861 C 492.714 0.868973 2.8787 0
M  V30 4862 C 494.262 0.841397 3.01479 0
M  V30 4863 C 494.737 1.45881 4.34146 0
M  V30 4864 N 496.228 1.42258 4.40814 0
M  V30 4865 C 496.963 1.8698 5.42057 0
M  V30 4866 N 496.459 2.39618 6.50042 0
M  V30 4867 N 498.252 1.77972 5.33181 0
M  V30 4868 H 490.403 1.54301 1.45962 0
M  V30 4869 H 492.666 0.644224 0.69547 0
M  V30 4870 H 492.372 1.922 2.94537 0
M  V30 4871 H 492.246 0.369682 3.75384 0
M  V30 4872 H 494.633 -0.202973 2.94401 0
M  V30 4873 H 494.714 1.37858 2.15474 0
M  V30 4874 H 494.358 2.50231 4.4198 0
M  V30 4875 H 494.288 0.896958 5.18905 0
M  V30 4876 H 496.779 1.03768 3.63374 0
M  V30 4877 H 497.092 2.71633 7.23488 0
M  V30 4878 H 495.437 2.43636 6.50897 0
M  V30 4879 H 498.628 1.36617 4.4772 0
M  V30 4880 H 498.801 2.13143 6.11943 0
M  V30 4881 N 492.207 -1.54576 0.307264 0
M  V30 4882 C 493.456 -1.99442 -0.300976 0
M  V30 4883 C 493.769 -1.19928 -1.5452 0
M  V30 4884 O 494.975 -1.55092 -2.22842 0
M  V30 4885 C 493.431 -3.55084 -0.586809 0
M  V30 4886 C 493.039 -4.43413 0.639438 0
M  V30 4887 C 494.783 -4.0846 -1.1559 0
M  V30 4888 C 492.69 -5.90499 0.326411 0
M  V30 4889 H 491.62 -0.744986 -0.116238 0
M  V30 4890 H 494.271 -1.787 0.416947 0
M  V30 4891 H 492.653 -3.71749 -1.36449 0
M  V30 4892 H 493.827 -4.38522 1.41545 0
M  V30 4893 H 492.142 -4.00842 1.1276 0
M  V30 4894 H 494.739 -5.15926 -1.40445 0
M  V30 4895 H 495.082 -3.59443 -2.10015 0
M  V30 4896 H 495.615 -3.95362 -0.439778 0
M  V30 4897 H 492.354 -6.43676 1.23939 0
M  V30 4898 H 491.874 -5.98382 -0.412212 0
M  V30 4899 H 493.553 -6.46962 -0.0697393 0
M  V30 4900 N 493.685 -0.035106 -1.57561 0
M  V30 4901 C 494.648 0.929819 -2.09492 0
M  V30 4902 C 495.648 1.25026 -1.01119 0
M  V30 4903 O 496.838 1.18961 -1.27255 0
M  V30 4904 C 493.97 2.24457 -2.56577 0
M  V30 4905 H 495.163 0.479935 -2.96035 0
M  V30 4906 H 492.716 0.213033 -1.54841 0
M  V30 4907 H 493.451 2.74061 -1.73382 0
M  V30 4908 H 493.236 2.02508 -3.35757 0
M  V30 4909 H 494.726 2.93607 -2.96959 0
M  V30 4910 N 495.163 1.55791 0.238111 0
M  V30 4911 C 496.096 1.86036 1.32158 0
M  V30 4912 C 497.074 0.716216 1.45976 0
M  V30 4913 O 498.258 0.962882 1.62052 0
M  V30 4914 C 495.385 2.05281 2.69402 0
M  V30 4915 C 494.431 3.27939 2.72687 0
M  V30 4916 S 495.264 4.84342 2.28413 0
M  V30 4917 C 496.42 5.06604 3.67565 0
M  V30 4918 H 496.653 2.77644 1.06306 0
M  V30 4919 H 494.186 1.48012 0.439537 0
M  V30 4920 H 496.144 2.17053 3.48423 0
M  V30 4921 H 494.805 1.14499 2.92487 0
M  V30 4922 H 493.998 3.38398 3.73501 0
M  V30 4923 H 493.6 3.14938 2.01717 0
M  V30 4924 H 495.892 4.94486 4.6313 0
M  V30 4925 H 496.835 6.08554 3.62033 0
M  V30 4926 H 497.243 4.34409 3.60485 0
M  V30 4927 N 496.642 -0.504142 1.49319 0
M  V30 4928 C 497.872 -1.28071 1.62116 0
M  V30 4929 C 498.28 -1.86955 0.290566 0
M  V30 4930 O 497.623 -1.68415 -0.733616 0
M  V30 4931 C 497.685 -2.4521 2.62893 0
M  V30 4932 C 497.349 -2.07218 4.0732 0
M  V30 4933 C 498.346 -1.61375 4.94221 0
M  V30 4934 C 496.031 -2.16949 4.53033 0
M  V30 4935 C 498.025 -1.25763 6.2487 0
M  V30 4936 C 495.712 -1.80949 5.83696 0
M  V30 4937 C 496.71 -1.3543 6.69438 0
M  V30 4938 O 496.398 -0.99915 7.97667 0
M  V30 4939 H 496.13 -0.394763 0.54876 0
M  V30 4940 H 498.684 -0.612118 1.96067 0
M  V30 4941 H 496.914 -3.15134 2.24115 0
M  V30 4942 H 498.603 -3.0724 2.65252 0
M  V30 4943 H 499.369 -1.53306 4.60133 0
M  V30 4944 H 495.248 -2.5133 3.86463 0
M  V30 4945 H 498.792 -0.901631 6.91749 0
M  V30 4946 H 494.689 -1.88667 6.17313 0
M  V30 4947 H 495.457 -1.13089 8.1065 0
M  V30 4948 N 498.12 -1.38341 -0.754957 0
M  V30 4949 C 499.07 -1.31964 -1.85929 0
M  V30 4950 C 500.054 -0.204181 -1.59599 0
M  V30 4951 O 501.246 -0.440036 -1.71443 0
M  V30 4952 C 498.375 -1.14565 -3.2362 0
M  V30 4953 C 497.461 -2.30727 -3.55846 0
M  V30 4954 N 497.852 -3.56165 -3.59138 0
M  V30 4955 C 496.15 -2.23249 -3.86104 0
M  V30 4956 C 496.851 -4.32865 -3.88591 0
M  V30 4957 N 495.827 -3.62203 -4.05351 0
M  V30 4958 H 499.629 -2.2694 -1.8675 0
M  V30 4959 H 497.143 -1.31553 -0.952243 0
M  V30 4960 H 499.14 -1.0808 -4.02647 0
M  V30 4961 H 497.8 -0.205212 -3.24051 0
M  V30 4962 H 498.811 -3.89854 -3.40932 0
M  V30 4963 H 495.488 -1.37357 -3.94258 0
M  V30 4964 H 496.878 -5.41504 -3.97773 0
M  V30 4965 N 499.598 0.982988 -1.23187 0
M  V30 4966 C 500.561 2.05649 -1.01198 0
M  V30 4967 C 501.561 1.6078 0.0252464 0
M  V30 4968 O 502.751 1.72878 -0.214243 0
M  V30 4969 C 499.883 3.36744 -0.530656 0
M  V30 4970 H 501.076 2.2659 -1.96461 0
M  V30 4971 H 498.629 1.15602 -1.05195 0
M  V30 4972 H 499.364 3.21492 0.425873 0
M  V30 4973 H 499.149 3.7065 -1.2791 0
M  V30 4974 H 500.639 4.15705 -0.397366 0
M  V30 4975 N 501.076 1.04316 1.18135 0
M  V30 4976 C 502.006 0.657299 2.24058 0
M  V30 4977 C 502.987 -0.340678 1.66654 0
M  V30 4978 O 504.172 -0.220223 1.92947 0
M  V30 4979 C 501.302 0.0220715 3.47293 0
M  V30 4980 C 500.256 0.943857 4.17463 0
M  V30 4981 C 499.582 0.172973 5.3442 0
M  V30 4982 C 500.882 2.26409 4.70677 0
M  V30 4983 H 502.576 1.5428 2.56589 0
M  V30 4984 H 500.122 0.743263 1.23335 0
M  V30 4985 H 502.075 -0.259607 4.206 0
M  V30 4986 H 500.799 -0.898323 3.14003 0
M  V30 4987 H 499.458 1.20996 3.46057 0
M  V30 4988 H 499.106 -0.749907 4.97379 0
M  V30 4989 H 498.806 0.787098 5.82304 0
M  V30 4990 H 500.33 -0.101628 6.10515 0
M  V30 4991 H 501.744 2.04294 5.35665 0
M  V30 4992 H 500.141 2.8314 5.29105 0
M  V30 4993 H 501.211 2.90883 3.87962 0
M  V30 4994 N 502.554 -1.34406 0.822964 0
M  V30 4995 C 503.802 -1.97892 0.410245 0
M  V30 4996 C 504.123 -1.65567 -1.03017 0
M  V30 4997 O 503.393 -0.94642 -1.71522 0
M  V30 4998 H 501.973 -0.732049 0.148707 0
M  V30 4999 H 504.635 -1.64043 1.05242 0
M  V30 5000 H 503.731 -3.07579 0.529284 0
M  V30 5001 N 504.032 -0.577932 -1.46621 0
M  V30 5002 C 504.942 0.160651 -2.34049 0
M  V30 5003 C 505.958 0.890911 -1.49462 0
M  V30 5004 O 507.134 0.855166 -1.82343 0
M  V30 5005 C 504.199 1.16447 -3.26559 0
M  V30 5006 C 503.26 0.4394 -4.27045 0
M  V30 5007 C 502.493 1.3954 -5.15135 0
M  V30 5008 O 502.716 2.63162 -5.06065 0
M  V30 5009 O 501.65 0.908585 -5.95003 0
M  V30 5010 H 505.476 -0.557057 -2.98547 0
M  V30 5011 H 503.061 -0.338369 -1.45518 0
M  V30 5012 H 504.943 1.7434 -3.83645 0
M  V30 5013 H 503.618 1.86373 -2.64663 0
M  V30 5014 H 502.525 -0.181247 -3.73661 0
M  V30 5015 H 503.858 -0.218799 -4.91713 0
M  V30 5016 N 505.51 1.54411 -0.315457 0
M  V30 5017 C 506.758 2.00023 0.288971 0
M  V30 5018 C 507.079 1.20529 1.5329 0
M  V30 5019 O 506.349 0.304986 1.93511 0
M  V30 5020 H 504.929 0.738891 0.109766 0
M  V30 5021 H 507.591 1.90094 -0.430129 0
M  V30 5022 H 506.687 3.07198 0.550999 0
M  V30 5023 N 506.988 0.0434614 1.5754 0
M  V30 5024 C 508.234 -0.632971 1.92669 0
M  V30 5025 C 508.567 -1.70947 0.921446 0
M  V30 5026 O 507.842 -1.94426 -0.0537202 0
M  V30 5027 C 508.125 -1.23619 3.38216 0
M  V30 5028 C 507.978 -0.168274 4.49485 0
M  V30 5029 C 509.297 -2.15008 3.84005 0
M  V30 5030 H 506.416 -0.228629 0.700641 0
M  V30 5031 H 509.058 0.103651 1.89717 0
M  V30 5032 H 507.208 -1.864 3.40863 0
M  V30 5033 H 508.88 0.463196 4.58969 0
M  V30 5034 H 507.123 0.504581 4.30855 0
M  V30 5035 H 507.794 -0.630218 5.48391 0
M  V30 5036 H 510.27 -1.62198 3.83185 0
M  V30 5037 H 509.146 -2.54161 4.86511 0
M  V30 5038 H 509.407 -3.04707 3.20322 0
M  V30 5039 N 508.466 -1.55915 -0.229846 0
M  V30 5040 C 509.691 -1.8296 -0.976743 0
M  V30 5041 C 510.116 -0.622735 -1.77493 0
M  V30 5042 O 509.474 0.428431 -1.76165 0
M  V30 5043 C 509.522 -3.07916 -1.8767 0
M  V30 5044 O 508.626 -2.86028 -2.97088 0
M  V30 5045 H 507.967 -0.603453 -0.277021 0
M  V30 5046 H 510.497 -2.0312 -0.245669 0
M  V30 5047 H 510.507 -3.37802 -2.2881 0
M  V30 5048 H 509.182 -3.95389 -1.28996 0
M  V30 5049 H 507.759 -2.67355 -2.59954 0
M  V30 5050 N 509.944 0.496216 -1.49584 0
M  V30 5051 C 511.355 1.07765 -1.52459 0
M  V30 5052 C 511.706 1.93679 -0.31353 0
M  V30 5053 O 510.831 2.08588 0.576186 0
M  V30 5054 C 511.426 1.96111 -2.76271 0
M  V30 5055 C 509.985 2.49409 -2.81908 0
M  V30 5056 C 509.132 1.27142 -2.46435 0
M  V30 5057 H 512.083 0.279914 -1.56212 0
M  V30 5058 H 512.104 2.80862 -2.56704 0
M  V30 5059 H 511.616 1.33555 -3.64396 0
M  V30 5060 H 509.717 3.1559 -1.98074 0
M  V30 5061 H 509.83 2.86234 -3.84196 0
M  V30 5062 H 508.194 1.59818 -1.98319 0
M  V30 5063 H 508.977 0.662866 -3.3684 0
M  V30 5064 N 511.423 1.38739 0.74761 0
M  V30 5065 C 512.672 1.3459 1.50228 0
M  V30 5066 C 512.985 -0.0595592 1.95509 0
M  V30 5067 O 514.191 -0.22361 2.70578 0
M  V30 5068 C 512.647 2.36377 2.71393 0
M  V30 5069 C 512.255 3.82573 2.33113 0
M  V30 5070 C 513.999 2.41281 3.49262 0
M  V30 5071 C 511.906 4.76032 3.50924 0
M  V30 5072 H 510.836 0.500312 0.564096 0
M  V30 5073 H 513.487 1.64324 0.8167 0
M  V30 5074 H 511.869 1.99694 3.41962 0
M  V30 5075 H 513.043 4.28227 1.70171 0
M  V30 5076 H 511.358 3.80844 1.68365 0
M  V30 5077 H 513.955 3.08301 4.36869 0
M  V30 5078 H 514.298 1.43353 3.9084 0
M  V30 5079 H 514.831 2.76793 2.85711 0
M  V30 5080 H 511.57 5.75177 3.14408 0
M  V30 5081 H 511.09 4.35066 4.12889 0
M  V30 5082 H 512.769 4.94331 4.17427 0
M  V30 5083 N 512.901 -0.976442 1.23707 0
M  V30 5084 C 514.317 -1.24341 1.00058 0
M  V30 5085 C 514.517 -1.99315 -0.295932 0
M  V30 5086 O 513.573 -2.3123 -1.01435 0
M  V30 5087 C 514.886 -2.03909 2.21001 0
M  V30 5088 C 516.434 -2.17034 2.25534 0
M  V30 5089 C 516.909 -2.99994 3.46075 0
M  V30 5090 N 518.4 -3.07578 3.46338 0
M  V30 5091 C 519.135 -3.72104 4.36264 0
M  V30 5092 N 518.631 -4.3842 5.36432 0
M  V30 5093 N 520.424 -3.69029 4.23998 0
M  V30 5094 H 512.575 -0.47428 2.07037 0
M  V30 5095 H 514.838 -0.272167 0.908091 0
M  V30 5096 H 514.544 -1.56198 3.15111 0
M  V30 5097 H 514.418 -3.04654 2.22409 0
M  V30 5098 H 516.805 -2.63951 1.31961 0
M  V30 5099 H 516.886 -1.15664 2.28156 0
M  V30 5100 H 516.53 -2.53772 4.39957 0
M  V30 5101 H 516.46 -4.01541 3.40694 0
M  V30 5102 H 518.951 -2.60397 2.73865 0
M  V30 5103 H 519.264 -4.85447 6.013 0
M  V30 5104 H 517.609 -4.37116 5.40328 0
M  V30 5105 H 520.8 -3.16392 3.44984 0
M  V30 5106 H 520.973 -4.19034 4.94282 0
M  V30 5107 N 514.379 -1.04941 -1.1758 0
M  V30 5108 C 515.309 -0.669172 -2.23706 0
M  V30 5109 C 516.29 0.331835 -1.66832 0
M  V30 5110 O 517.475 0.209988 -1.93061 0
M  V30 5111 C 514.605 -0.0404889 -3.47276 0
M  V30 5112 C 513.559 -0.965983 -4.16957 0
M  V30 5113 C 512.885 -0.201312 -5.34321 0
M  V30 5114 C 514.185 -2.28902 -4.69469 0
M  V30 5115 H 515.879 -1.55639 -2.55767 0
M  V30 5116 H 513.425 -0.749793 -1.22939 0
M  V30 5117 H 515.378 0.237298 -4.20731 0
M  V30 5118 H 514.102 0.881658 -3.14475 0
M  V30 5119 H 512.761 -1.22829 -3.45411 0
M  V30 5120 H 512.409 0.723519 -4.97769 0
M  V30 5121 H 512.109 -0.817968 -5.81879 0
M  V30 5122 H 513.633 0.0692499 -6.10561 0
M  V30 5123 H 515.047 -2.07132 -5.34574 0
M  V30 5124 H 513.444 -2.85942 -5.27596 0
M  V30 5125 H 514.514 -2.92937 -3.86414 0
M  V30 5126 N 515.857 1.33968 -0.830081 0
M  V30 5127 C 517.273 1.51003 -0.516742 0
M  V30 5128 C 517.473 1.77286 0.957694 0
M  V30 5129 O 516.529 1.82797 1.74188 0
M  V30 5130 C 517.842 2.67036 -1.38247 0
M  V30 5131 C 519.39 2.80919 -1.38034 0
M  V30 5132 C 519.865 4.00004 -2.23071 0
M  V30 5133 N 521.356 4.07224 -2.20733 0
M  V30 5134 C 522.091 4.98541 -2.83275 0
M  V30 5135 N 521.587 5.95033 -3.54835 0
M  V30 5136 N 523.38 4.91469 -2.72791 0
M  V30 5137 H 515.531 1.15168 -1.78466 0
M  V30 5138 H 517.794 0.565443 -0.760906 0
M  V30 5139 H 517.5 2.54266 -2.42985 0
M  V30 5140 H 517.374 3.62226 -1.05225 0
M  V30 5141 H 519.761 2.93127 -0.340713 0
M  V30 5142 H 519.842 1.86517 -1.75057 0
M  V30 5143 H 519.486 3.88557 -3.27087 0
M  V30 5144 H 519.416 4.93634 -1.83394 0
M  V30 5145 H 521.907 3.38162 -1.68687 0
M  V30 5146 H 522.22 6.61357 -3.99784 0
M  V30 5147 H 520.565 5.95135 -3.58942 0
M  V30 5148 H 523.756 4.15048 -2.16456 0
M  V30 5149 H 523.929 5.62439 -3.21818 0
M  V30 5150 N 517.335 0.585699 1.46312 0
M  V30 5151 C 518.563 0.0781299 2.06752 0
M  V30 5152 C 518.978 -1.22812 1.43396 0
M  V30 5153 O 518.335 -1.74318 0.540314 0
M  V30 5154 C 518.386 -0.0911927 3.61385 0
M  V30 5155 O 518.107 1.16336 4.22371 0
M  V30 5156 C 519.608 -0.632765 4.38761 0
M  V30 5157 H 516.828 0.0588188 0.668417 0
M  V30 5158 H 519.372 0.807218 1.87894 0
M  V30 5159 H 517.527 -0.770514 3.7966 0
M  V30 5160 H 517.941 0.979082 5.15281 0
M  V30 5161 H 519.415 -0.70041 5.47538 0
M  V30 5162 H 519.892 -1.65039 4.07012 0
M  V30 5163 H 520.498 0.0117856 4.25298 0
M  V30 5164 N 518.813 -1.54241 0.323641 0
M  V30 5165 C 520.059 -2.00867 -0.279323 0
M  V30 5166 C 520.392 -1.21146 -1.5178 0
M  V30 5167 O 519.667 -0.29378 -1.92269 0
M  V30 5168 C 519.95 -3.54837 -0.613387 0
M  V30 5169 C 519.803 -4.45284 0.635803 0
M  V30 5170 C 521.122 -4.16186 -1.43099 0
M  V30 5171 H 518.241 -0.730177 -0.100049 0
M  V30 5172 H 520.883 -1.84829 0.440235 0
M  V30 5173 H 519.033 -3.68634 -1.22641 0
M  V30 5174 H 520.705 -4.43357 1.27406 0
M  V30 5175 H 518.948 -4.14956 1.26466 0
M  V30 5176 H 519.619 -5.5084 0.357597 0
M  V30 5177 H 522.095 -4.05964 -0.912814 0
M  V30 5178 H 520.971 -5.24031 -1.6335 0
M  V30 5179 H 521.232 -3.69516 -2.42715 0
M  V30 5180 N 520.291 -0.0518155 -1.57515 0
M  V30 5181 C 521.254 0.907547 -2.10467 0
M  V30 5182 C 522.254 1.23947 -1.02439 0
M  V30 5183 O 523.444 1.17604 -1.2851 0
M  V30 5184 C 520.576 2.21723 -2.58944 0
M  V30 5185 H 521.769 0.44851 -2.96527 0
M  V30 5186 H 519.322 0.196598 -1.55059 0
M  V30 5187 H 520.057 2.72206 -1.76279 0
M  V30 5188 H 519.842 1.98935 -3.37886 0
M  V30 5189 H 521.332 2.90441 -3.00056 0
M  V30 5190 N 521.769 1.56035 0.221574 0
M  V30 5191 C 522.732 1.91584 1.2581 0
M  V30 5192 C 523.732 0.794425 1.39805 0
M  V30 5193 O 524.922 1.06217 1.38071 0
M  V30 5194 C 522.054 2.16663 2.63192 0
M  V30 5195 H 523.247 2.8429 0.954935 0
M  V30 5196 H 520.8 1.49316 0.461988 0
M  V30 5197 H 521.535 1.26508 2.98607 0
M  V30 5198 H 521.32 2.98358 2.5441 0
M  V30 5199 H 522.81 2.45262 3.37988 0
M  V30 5200 N 523.247 -0.488276 1.49845 0
M  V30 5201 C 524.475 -1.26527 1.63702 0
M  V30 5202 C 524.89 -1.8618 0.313447 0
M  V30 5203 O 524.247 -1.68432 -0.702624 0
M  V30 5204 C 524.298 -2.3864 2.71538 0
M  V30 5205 O 524.019 -1.81437 3.98763 0
M  V30 5206 C 525.52 -3.29805 2.96215 0
M  V30 5207 H 522.74 -0.383295 0.55075 0
M  V30 5208 H 525.284 -0.584779 1.95961 0
M  V30 5209 H 523.439 -3.02496 2.42023 0
M  V30 5210 H 523.853 -2.55135 4.58265 0
M  V30 5211 H 525.327 -4.04722 3.75372 0
M  V30 5212 H 525.804 -3.87563 2.06619 0
M  V30 5213 H 526.41 -2.71703 3.27196 0
M  V30 5214 N 524.725 -1.39134 -0.740242 0
M  V30 5215 C 525.971 -1.36273 -1.50192 0
M  V30 5216 C 526.304 0.0430136 -1.94152 0
M  V30 5217 O 525.579 1.00691 -1.66408 0
M  V30 5218 C 525.862 -2.33041 -2.74525 0
M  V30 5219 C 525.715 -3.82535 -2.36617 0
M  V30 5220 C 527.034 -2.27723 -3.76604 0
M  V30 5221 H 524.153 -0.496323 -0.544823 0
M  V30 5222 H 526.795 -1.70085 -0.846815 0
M  V30 5223 H 524.945 -2.04337 -3.30422 0
M  V30 5224 H 526.617 -4.21967 -1.86391 0
M  V30 5225 H 524.86 -3.99565 -1.68909 0
M  V30 5226 H 525.531 -4.45723 -3.2563 0
M  V30 5227 H 528.007 -2.53091 -3.30279 0
M  V30 5228 H 526.883 -2.97519 -4.61274 0
M  V30 5229 H 527.144 -1.28049 -4.2315 0
M  V30 5230 N 526.204 0.969867 -1.24223 0
M  V30 5231 C 527.451 1.71256 -1.08063 0
M  V30 5232 C 527.779 1.90734 0.380872 0
M  V30 5233 O 527.034 1.46469 1.29789 0
M  V30 5234 C 527.333 3.10883 -1.76314 0
M  V30 5235 C 526.999 3.11252 -3.26241 0
M  V30 5236 C 525.661 3.1106 -3.67144 0
M  V30 5237 C 528.013 3.05751 -4.22097 0
M  V30 5238 C 525.341 3.03097 -5.02344 0
M  V30 5239 C 527.693 2.9933 -5.57301 0
M  V30 5240 C 526.357 2.97466 -5.97554 0
M  V30 5241 H 525.627 0.62667 -0.395431 0
M  V30 5242 H 528.274 1.13422 -1.54297 0
M  V30 5243 H 526.579 3.72168 -1.22468 0
M  V30 5244 H 528.276 3.67138 -1.61277 0
M  V30 5245 H 524.866 3.12165 -2.93685 0
M  V30 5246 H 529.05 3.05031 -3.91497 0
M  V30 5247 H 524.306 3.00013 -5.32731 0
M  V30 5248 H 528.48 2.94033 -6.31283 0
M  V30 5249 H 526.107 2.91051 -7.02277 0
M  V30 5250 N 527.682 1.05563 1.17022 0
M  V30 5251 C 528.91 0.78845 1.91288 0
M  V30 5252 C 529.325 -0.656318 1.77025 0
M  V30 5253 O 528.682 -1.44869 1.10992 0
M  V30 5254 C 528.733 1.16444 3.42232 0
M  V30 5255 O 528.454 2.5525 3.5606 0
M  V30 5256 C 529.955 0.923937 4.33565 0
M  V30 5257 H 527.175 0.286389 0.606813 0
M  V30 5258 H 529.719 1.4073 1.48375 0
M  V30 5259 H 527.874 0.590266 3.82877 0
M  V30 5260 H 528.288 2.70097 4.49609 0
M  V30 5261 H 529.762 1.23672 5.37968 0
M  V30 5262 H 530.239 -0.140688 4.38975 0
M  V30 5263 H 530.845 1.48214 3.98639 0
M  V30 5264 N 529.16 -1.33526 0.837174 0
M  V30 5265 C 530.576 -1.50727 0.524743 0
M  V30 5266 C 530.776 -1.77792 -0.948279 0
M  V30 5267 O 529.832 -1.83719 -1.73216 0
M  V30 5268 C 531.145 -2.66299 1.39661 0
M  V30 5269 C 532.693 -2.80183 1.39521 0
M  V30 5270 C 533.168 -3.98815 2.25189 0
M  V30 5271 N 534.659 -4.06047 2.2289 0
M  V30 5272 C 535.394 -4.97032 2.85915 0
M  V30 5273 N 534.89 -5.93143 3.57985 0
M  V30 5274 N 536.683 -4.90015 2.75394 0
M  V30 5275 H 528.834 -1.1422 1.79074 0
M  V30 5276 H 531.097 -0.561399 0.763894 0
M  V30 5277 H 530.803 -2.52974 2.4433 0
M  V30 5278 H 530.677 -3.61663 1.07145 0
M  V30 5279 H 533.064 -2.92942 0.356253 0
M  V30 5280 H 533.145 -1.85586 1.76044 0
M  V30 5281 H 532.789 -3.86817 3.29143 0
M  V30 5282 H 532.719 -4.92654 1.86009 0
M  V30 5283 H 535.21 -3.37262 1.70478 0
M  V30 5284 H 535.523 -6.59227 4.03286 0
M  V30 5285 H 533.868 -5.93223 3.62093 0
M  V30 5286 H 537.059 -4.13894 2.18654 0
M  V30 5287 H 537.232 -5.60724 3.24796 0
M  V30 5288 N 530.638 -0.59345 -1.46 0
M  V30 5289 C 532.049 -0.169801 -1.85926 0
M  V30 5290 C 532.4 1.26984 -1.49565 0
M  V30 5291 O 531.525 1.96076 -0.915602 0
M  V30 5292 C 532.12 -0.301385 -3.37457 0
M  V30 5293 C 530.679 0.0674684 -3.7634 0
M  V30 5294 C 529.826 -0.632383 -2.69993 0
M  V30 5295 H 532.777 -0.801014 -1.37002 0
M  V30 5296 H 532.798 0.470331 -3.77582 0
M  V30 5297 H 532.31 -1.34927 -3.63891 0
M  V30 5298 H 530.411 1.11507 -3.55523 0
M  V30 5299 H 530.524 -0.316332 -4.78055 0
M  V30 5300 H 528.888 -0.0714961 -2.546 0
M  V30 5301 H 529.671 -1.68212 -2.99265 0
M  V30 5302 N 532.116 1.54067 -0.331816 0
M  V30 5303 C 533.026 2.28322 0.539104 0
M  V30 5304 C 534.042 1.32985 1.1221 0
M  V30 5305 O 535.218 1.6601 1.1403 0
M  V30 5306 C 532.283 3.03277 1.68 0
M  V30 5307 C 531.344 4.14216 1.12798 0
M  V30 5308 C 530.577 4.85588 2.2145 0
M  V30 5309 O 530.8 4.56536 3.41952 0
M  V30 5310 O 529.734 5.72309 1.86404 0
M  V30 5311 H 533.56 3.03632 -0.0641692 0
M  V30 5312 H 531.145 1.49083 -0.0972365 0
M  V30 5313 H 533.027 3.50189 2.34405 0
M  V30 5314 H 531.702 2.30834 2.2693 0
M  V30 5315 H 530.609 3.71635 0.428782 0
M  V30 5316 H 531.942 4.88727 0.583698 0
M  V30 5317 N 533.594 0.0601682 1.57485 0
M  V30 5318 C 534.843 -0.611101 1.9222 0
M  V30 5319 C 535.156 -1.71469 0.941159 0
M  V30 5320 O 536.362 -2.44473 1.18089 0
M  V30 5321 C 534.818 -1.13832 3.41424 0
M  V30 5322 C 534.426 -0.0663596 4.47951 0
M  V30 5323 C 536.17 -1.78432 3.85178 0
M  V30 5324 C 534.077 -0.606965 5.88277 0
M  V30 5325 H 533.007 -0.232033 0.71741 0
M  V30 5326 H 535.658 0.130518 1.83035 0
M  V30 5327 H 534.04 -1.93254 3.45643 0
M  V30 5328 H 535.214 0.707682 4.55333 0
M  V30 5329 H 533.529 0.482715 4.13593 0
M  V30 5330 H 536.126 -2.1989 4.87394 0
M  V30 5331 H 536.469 -2.63966 3.21913 0
M  V30 5332 H 537.002 -1.05651 3.83514 0
M  V30 5333 H 533.741 0.21095 6.5516 0
M  V30 5334 H 533.261 -1.34879 5.84438 0
M  V30 5335 H 534.94 -1.08704 6.37803 0
M  V30 5336 N 535.072 -1.5615 -0.213296 0
M  V30 5337 C 536.035 -1.92249 -1.24792 0
M  V30 5338 C 537.035 -0.801828 -1.39382 0
M  V30 5339 O 538.225 -1.06948 -1.37506 0
M  V30 5340 C 535.357 -2.18056 -2.62039 0
M  V30 5341 H 536.55 -2.84793 -0.939845 0
M  V30 5342 H 534.103 -1.49559 -0.454062 0
M  V30 5343 H 534.838 -1.2809 -2.97932 0
M  V30 5344 H 534.623 -2.99703 -2.52825 0
M  V30 5345 H 536.113 -2.47051 -3.36683 0
M  V30 5346 N 536.55 0.480323 -1.50102 0
M  V30 5347 C 537.513 1.56181 -1.6775 0
M  V30 5348 C 538.513 1.51156 -0.548503 0
M  V30 5349 O 539.703 1.5394 -0.815363 0
M  V30 5350 C 536.835 2.95823 -1.69415 0
M  V30 5351 H 538.028 1.41855 -2.6423 0
M  V30 5352 H 535.581 0.70605 -1.39444 0
M  V30 5353 H 536.316 3.15604 -0.745948 0
M  V30 5354 H 536.101 3.00878 -2.51425 0
M  V30 5355 H 537.591 3.74359 -1.85054 0
M  V30 5356 N 538.028 1.39524 0.732853 0
M  V30 5357 C 539.274 1.37068 1.49467 0
M  V30 5358 C 539.607 -0.0327166 1.94172 0
M  V30 5359 O 538.882 -0.998071 1.66939 0
M  V30 5360 C 539.165 2.34494 2.73285 0
M  V30 5361 C 539.018 3.83784 2.34585 0
M  V30 5362 C 540.337 2.29717 3.75391 0
M  V30 5363 H 537.456 0.499206 0.542183 0
M  V30 5364 H 540.098 1.70532 0.837783 0
M  V30 5365 H 538.248 2.06087 3.29333 0
M  V30 5366 H 539.92 4.22949 1.84151 0
M  V30 5367 H 538.163 4.00455 1.66787 0
M  V30 5368 H 538.834 4.47444 3.23262 0
M  V30 5369 H 541.31 2.54839 3.28932 0
M  V30 5370 H 540.186 2.99962 4.59689 0
M  V30 5371 H 540.447 1.30291 4.22465 0
M  V30 5372 N 539.506 -0.963266 1.24736 0
M  V30 5373 C 540.754 -1.70343 1.08755 0
M  V30 5374 C 541.075 -1.91387 -0.373619 0
M  V30 5375 O 540.345 -1.4948 -1.2662 0
M  V30 5376 H 538.925 -0.631224 0.399456 0
M  V30 5377 H 541.587 -1.15859 1.56725 0
M  V30 5378 H 540.683 -2.68616 1.58909 0
M  V30 5379 N 540.985 -1.06182 -1.16461 0
M  V30 5380 C 542.231 -0.779015 -1.87241 0
M  V30 5381 C 542.564 0.692715 -1.81425 0
M  V30 5382 O 541.839 1.5074 -1.22913 0
M  V30 5383 C 542.122 -1.2728 -3.36856 0
M  V30 5384 C 541.975 -2.80821 -3.51368 0
M  V30 5385 C 543.294 -0.879799 -4.31216 0
M  V30 5386 H 540.413 -0.284464 -0.679889 0
M  V30 5387 H 543.055 -1.31755 -1.36896 0
M  V30 5388 H 541.205 -0.814673 -3.79862 0
M  V30 5389 H 542.877 -3.34833 -3.17308 0
M  V30 5390 H 541.12 -3.19606 -2.93316 0
M  V30 5391 H 541.791 -3.10435 -4.56436 0
M  V30 5392 H 544.267 -1.27436 -3.96105 0
M  V30 5393 H 543.143 -1.25278 -5.34412 0
M  V30 5394 H 543.404 0.215372 -4.41575 0
M  V30 5395 N 542.463 1.3308 -0.844243 0
M  V30 5396 C 543.874 1.7992 -0.498566 0
M  V30 5397 C 544.225 1.69808 0.982834 0
M  V30 5398 O 543.35 1.25051 1.7661 0
M  V30 5399 C 543.945 3.26677 -0.898204 0
M  V30 5400 C 542.504 3.71513 -0.604583 0
M  V30 5401 C 541.651 2.54393 -1.10362 0
M  V30 5402 H 544.602 1.20526 -1.03244 0
M  V30 5403 H 544.623 3.79918 -0.21039 0
M  V30 5404 H 544.135 3.34004 -1.97643 0
M  V30 5405 H 542.236 3.69708 0.46335 0
M  V30 5406 H 542.349 4.64755 -1.16358 0
M  V30 5407 H 540.713 2.49246 -0.524273 0
M  V30 5408 H 541.496 2.6448 -2.18873 0
M  V30 5409 N 543.941 0.601185 1.45683 0
M  V30 5410 C 544.873 -0.159446 2.28645 0
M  V30 5411 C 545.886 -0.837882 1.39583 0
M  V30 5412 O 547.075 -0.704344 1.64016 0
M  V30 5413 C 544.175 -1.24641 3.15147 0
M  V30 5414 C 543.348 -0.656334 4.32448 0
M  V30 5415 C 542.407 -1.63337 5.00208 0
M  V30 5416 O 541.433 -1.16217 5.57209 0
M  V30 5417 N 542.635 -2.96773 4.98905 0
M  V30 5418 H 545.4 0.5524 2.94565 0
M  V30 5419 H 542.961 0.440223 1.558 0
M  V30 5420 H 544.953 -1.8997 3.57342 0
M  V30 5421 H 543.523 -1.86087 2.51178 0
M  V30 5422 H 542.743 0.174879 3.93812 0
M  V30 5423 H 544.031 -0.242211 5.08223 0
M  V30 5424 H 543.429 -3.37662 4.53873 0
M  V30 5425 H 541.986 -3.57541 5.44984 0
M  V30 5426 N 545.419 -1.53889 0.339982 0
M  V30 5427 C 546.644 -2.05741 -0.261798 0
M  V30 5428 C 547.069 -1.21354 -1.43718 0
M  V30 5429 O 546.427 -0.22645 -1.7988 0
M  V30 5430 C 546.475 -3.54542 -0.658228 0
M  V30 5431 O 545.579 -3.7302 -1.75869 0
M  V30 5432 H 544.92 -0.662529 -0.0441672 0
M  V30 5433 H 547.45 -1.98568 0.493161 0
M  V30 5434 H 547.46 -3.9711 -0.936368 0
M  V30 5435 H 546.135 -4.15412 0.201358 0
M  V30 5436 H 544.712 -3.42355 -1.47809 0
M  V30 5437 N 546.897 -0.0685191 -1.57451 0
M  V30 5438 C 548.143 0.602239 -1.93652 0
M  V30 5439 C 548.476 1.6946 -0.948526 0
M  V30 5440 O 547.751 1.94487 0.022782 0
M  V30 5441 C 548.034 1.18223 -3.4014 0
M  V30 5442 C 547.887 0.0967431 -4.49696 0
M  V30 5443 C 549.206 2.08872 -3.87377 0
M  V30 5444 H 546.325 0.217453 -0.70419 0
M  V30 5445 H 548.967 -0.133821 -1.89528 0
M  V30 5446 H 547.117 1.80953 -3.43785 0
M  V30 5447 H 548.789 -0.536155 -4.58174 0
M  V30 5448 H 547.032 -0.573063 -4.29998 0
M  V30 5449 H 547.703 0.542894 -5.49324 0
M  V30 5450 H 550.179 1.56081 -3.85717 0
M  V30 5451 H 549.055 2.46389 -4.90493 0
M  V30 5452 H 549.316 2.99572 -3.25129 0
M  V30 5453 N 548.375 1.56261 0.205012 0
M  V30 5454 C 549.624 1.79236 0.925058 0
M  V30 5455 C 549.937 0.640011 1.84833 0
M  V30 5456 O 551.143 0.753809 2.60826 0
M  V30 5457 C 549.599 3.17475 1.69522 0
M  V30 5458 C 549.207 4.40482 0.817269 0
M  V30 5459 C 550.951 3.49766 2.4055 0
M  V30 5460 C 548.858 5.69744 1.58573 0
M  V30 5461 H 547.788 0.668287 0.349153 0
M  V30 5462 H 550.439 1.82629 0.178544 0
M  V30 5463 H 548.821 3.08304 2.48526 0
M  V30 5464 H 549.995 4.60752 0.0665988 0
M  V30 5465 H 548.31 4.15827 0.218316 0
M  V30 5466 H 550.907 4.43573 2.98575 0
M  V30 5467 H 551.25 2.73041 3.14252 0
M  V30 5468 H 551.783 3.60341 1.68522 0
M  V30 5469 H 548.522 6.49407 0.891679 0
M  V30 5470 H 548.042 5.53509 2.31059 0
M  V30 5471 H 549.721 6.1051 2.14212 0
M  V30 5472 N 549.853 -0.472356 1.50355 0
M  V30 5473 C 551.13 -1.23356 1.51798 0
M  V30 5474 C 551.51 -2.09469 0.26193 0
M  V30 5475 O 550.858 -2.15677 -0.754691 0
M  V30 5476 C 551.068 -2.06568 2.81302 0
M  V30 5477 C 552.416 -2.648 3.31913 0
M  V30 5478 O 553.44 -2.16812 2.82614 0
M  V30 5479 O 552.299 -3.52231 4.17846 0
M  V30 5480 H 549.393 -0.559707 0.608816 0
M  V30 5481 H 551.939 -0.48428 1.62643 0
M  V30 5482 H 550.711 -1.43103 3.64194 0
M  V30 5483 H 550.334 -2.88633 2.73454 0
M  V30 5484 N 551.331 -1.39911 -0.725443 0
M  V30 5485 C 552.294 -1.39156 -1.82121 0
M  V30 5486 C 553.294 -0.287018 -1.58218 0
M  V30 5487 O 554.484 -0.545421 -1.65441 0
M  V30 5488 C 551.616 -1.1736 -3.20062 0
M  V30 5489 H 552.809 -2.36672 -1.84191 0
M  V30 5490 H 550.362 -1.25615 -0.930079 0
M  V30 5491 H 551.097 -0.205648 -3.23647 0
M  V30 5492 H 550.882 -1.97358 -3.3881 0
M  V30 5493 H 552.372 -1.19596 -4.00108 0
M  V30 5494 N 552.809 0.956637 -1.25245 0
M  V30 5495 C 554.057 1.69764 -1.09657 0
M  V30 5496 C 554.378 1.91583 0.363464 0
M  V30 5497 O 553.648 1.50149 1.25825 0
M  V30 5498 H 552.228 0.629097 -0.402798 0
M  V30 5499 H 554.89 1.15026 -1.57337 0
M  V30 5500 H 553.986 2.67769 -1.60331 0
M  V30 5501 N 554.287 1.06798 1.15896 0
M  V30 5502 C 555.512 0.808739 1.90982 0
M  V30 5503 C 555.937 -0.6316 1.77179 0
M  V30 5504 O 555.295 -1.4407 1.10061 0
M  V30 5505 C 555.343 1.21468 3.39526 0
M  V30 5506 O 554.447 0.356562 4.10856 0
M  V30 5507 H 553.788 0.29512 0.594811 0
M  V30 5508 H 556.318 1.42513 1.46804 0
M  V30 5509 H 556.328 1.18844 3.90308 0
M  V30 5510 H 555.003 2.26379 3.48891 0
M  V30 5511 H 553.58 0.444808 3.70238 0
M  V30 5512 N 555.766 -1.3263 0.851289 0
M  V30 5513 C 557.012 -1.9766 0.453694 0
M  V30 5514 C 557.345 -1.67225 -0.987396 0
M  V30 5515 O 556.62 -0.958693 -1.69232 0
M  V30 5516 C 556.903 -3.5344 0.68936 0
M  V30 5517 C 556.756 -3.93517 2.17862 0
M  V30 5518 C 558.075 -4.39866 0.143555 0
M  V30 5519 H 555.194 -0.717989 0.166314 0
M  V30 5520 H 557.836 -1.57068 1.06909 0
M  V30 5521 H 555.986 -3.88147 0.165546 0
M  V30 5522 H 557.658 -3.69006 2.76826 0
M  V30 5523 H 555.901 -3.42798 2.65841 0
M  V30 5524 H 556.572 -5.02065 2.29422 0
M  V30 5525 H 559.048 -4.11875 0.591451 0
M  V30 5526 H 557.924 -5.47858 0.338043 0
M  V30 5527 H 558.185 -4.31696 -0.953466 0
M  V30 5528 N 557.244 -0.608902 -1.45362 0
M  V30 5529 C 558.207 0.0992563 -2.28985 0
M  V30 5530 C 559.207 0.793841 -1.39838 0
M  V30 5531 O 560.397 0.641804 -1.61946 0
M  V30 5532 C 557.529 1.15073 -3.20891 0
M  V30 5533 H 558.722 -0.635964 -2.93079 0
M  V30 5534 H 556.275 -0.368007 -1.51906 0
M  V30 5535 H 557.01 1.91667 -2.616 0
M  V30 5536 H 556.795 0.656867 -3.86559 0
M  V30 5537 H 558.285 1.64665 -3.83765 0
M  V30 5538 N 558.722 1.53707 -0.348139 0
M  V30 5539 C 559.685 2.23812 0.494058 0
M  V30 5540 C 560.685 1.23989 1.02388 0
M  V30 5541 O 561.875 1.48395 0.912396 0
M  V30 5542 C 559.007 2.96133 1.68872 0
M  V30 5543 H 560.2 2.99663 -0.119141 0
M  V30 5544 H 557.753 1.55983 -0.0995539 0
M  V30 5545 H 558.488 2.24481 2.34049 0
M  V30 5546 H 558.273 3.69357 1.31596 0
M  V30 5547 H 559.763 3.49475 2.28597 0
M  V30 5548 N 560.2 0.0768682 1.57412 0
M  V30 5549 C 561.616 -0.279772 1.57129 0
M  V30 5550 C 561.816 -1.69688 1.08666 0
M  V30 5551 O 560.872 -2.40953 0.754843 0
M  V30 5552 C 562.185 -0.0848055 3.0058 0
M  V30 5553 C 563.733 -0.153954 3.12621 0
M  V30 5554 C 564.208 0.0127946 4.57998 0
M  V30 5555 N 565.699 -0.0426435 4.6318 0
M  V30 5556 C 566.434 0.0618892 5.73367 0
M  V30 5557 N 565.93 0.220229 6.9245 0
M  V30 5558 N 567.723 0.00446072 5.621 0
M  V30 5559 H 559.874 1.00297 1.87228 0
M  V30 5560 H 562.137 0.391565 0.863354 0
M  V30 5561 H 561.843 0.89325 3.40168 0
M  V30 5562 H 561.717 -0.834961 3.67843 0
M  V30 5563 H 564.104 -1.1225 2.72917 0
M  V30 5564 H 564.185 0.627389 2.47987 0
M  V30 5565 H 563.829 0.978128 4.98392 0
M  V30 5566 H 563.759 -0.788016 5.20671 0
M  V30 5567 H 566.25 -0.163226 3.77547 0
M  V30 5568 H 566.563 0.291999 7.72248 0
M  V30 5569 H 564.908 0.255658 6.9453 0
M  V30 5570 H 568.099 -0.117979 4.67951 0
M  V30 5571 H 568.272 0.0893796 6.47938 0
M  V30 5572 N 561.678 -1.56367 -0.196722 0
M  V30 5573 C 562.906 -1.84639 -0.933608 0
M  V30 5574 C 563.321 -0.659164 -1.76919 0
M  V30 5575 O 562.678 0.372142 -1.78665 0
M  V30 5576 C 562.729 -3.11694 -1.83109 0
M  V30 5577 O 562.45 -4.25838 -1.02924 0
M  V30 5578 C 563.951 -3.53132 -2.67979 0
M  V30 5579 H 561.171 -0.613188 -0.272473 0
M  V30 5580 H 563.715 -2.03475 -0.204465 0
M  V30 5581 H 561.87 -2.94759 -2.51387 0
M  V30 5582 H 562.284 -4.98178 -1.64069 0
M  V30 5583 H 563.758 -4.45005 -3.26611 0
M  V30 5584 H 564.235 -2.76045 -3.41608 0
M  V30 5585 H 564.841 -3.72592 -2.05074 0
M  V30 5586 N 563.156 0.464375 -1.50603 0
M  V30 5587 C 564.405 1.21277 -1.61167 0
M  V30 5588 C 564.718 1.92953 -0.320704 0
M  V30 5589 O 565.924 2.69778 -0.30534 0
M  V30 5590 C 564.38 2.20403 -2.84518 0
M  V30 5591 C 563.988 1.54499 -4.20516 0
M  V30 5592 C 565.732 2.95843 -3.0443 0
M  V30 5593 C 563.639 2.51951 -5.35047 0
M  V30 5594 H 562.569 0.456367 -0.600204 0
M  V30 5595 H 565.22 0.48254 -1.77042 0
M  V30 5596 H 563.602 2.96746 -2.62217 0
M  V30 5597 H 564.776 0.83899 -4.53098 0
M  V30 5598 H 563.091 0.913152 -4.06264 0
M  V30 5599 H 565.688 3.6879 -3.87167 0
M  V30 5600 H 566.031 3.55622 -2.16423 0
M  V30 5601 H 566.564 2.26611 -3.26944 0
M  V30 5602 H 563.303 1.96901 -6.25228 0
M  V30 5603 H 562.823 3.20683 -5.06875 0
M  V30 5604 H 564.502 3.13643 -5.65895 0
M  V30 5605 N 564.634 1.40294 0.718013 0
M  V30 5606 C 565.567 1.34767 1.84155 0
M  V30 5607 C 566.545 0.218455 1.61126 0
M  V30 5608 O 567.729 0.401716 1.8417 0
M  V30 5609 C 564.856 1.09676 3.20451 0
M  V30 5610 C 563.902 2.25016 3.62312 0
M  V30 5611 S 564.735 3.87397 3.69707 0
M  V30 5612 C 565.891 3.64565 5.08766 0
M  V30 5613 H 566.124 2.29851 1.88562 0
M  V30 5614 H 563.657 1.2655 0.884555 0
M  V30 5615 H 565.615 0.95885 3.99144 0
M  V30 5616 H 564.276 0.162502 3.13679 0
M  V30 5617 H 563.469 2.03097 4.61268 0
M  V30 5618 H 563.071 2.35098 2.90869 0
M  V30 5619 H 565.363 3.22882 5.95612 0
M  V30 5620 H 566.306 4.63043 5.35721 0
M  V30 5621 H 566.714 2.98303 4.79245 0
M  V30 5622 N 566.112 -0.949982 1.2575 0
M  V30 5623 C 567.042 -2.06483 1.09028 0
M  V30 5624 C 568.023 -1.701 -0.00201532 0
M  V30 5625 O 569.208 -1.93469 0.168383 0
M  V30 5626 C 566.338 -3.39899 0.71316 0
M  V30 5627 C 565.292 -3.90309 1.75621 0
M  V30 5628 C 564.618 -5.20274 1.23365 0
M  V30 5629 C 565.918 -4.16169 3.15596 0
M  V30 5630 H 567.612 -2.20731 2.02283 0
M  V30 5631 H 565.158 -1.06066 0.973964 0
M  V30 5632 H 567.111 -4.17346 0.58309 0
M  V30 5633 H 565.835 -3.25602 -0.255091 0
M  V30 5634 H 564.494 -3.15035 1.8748 0
M  V30 5635 H 564.142 -5.02351 0.255491 0
M  V30 5636 H 563.842 -5.54971 1.93082 0
M  V30 5637 H 565.366 -6.00314 1.11607 0
M  V30 5638 H 566.78 -4.84259 3.06864 0
M  V30 5639 H 565.177 -4.62131 3.82825 0
M  V30 5640 H 566.247 -3.22273 3.6231 0
M  V30 5641 N 567.59 -1.07411 -1.15328 0
M  V30 5642 C 569.001 -0.820261 -1.67716 0
M  V30 5643 C 569.352 0.654539 -1.8496 0
M  V30 5644 O 568.477 1.50664 -1.55337 0
M  V30 5645 C 569.072 -1.48242 -3.04647 0
M  V30 5646 C 567.631 -1.27606 -3.5411 0
M  V30 5647 C 566.778 -1.5517 -2.29821 0
M  V30 5648 H 569.729 -1.23608 -0.995332 0
M  V30 5649 H 569.75 -0.903984 -3.69606 0
M  V30 5650 H 569.262 -2.55578 -2.92064 0
M  V30 5651 H 567.363 -0.222948 -3.71932 0
M  V30 5652 H 567.476 -1.99667 -4.35511 0
M  V30 5653 H 565.84 -0.972747 -2.35393 0
M  V30 5654 H 566.623 -2.63689 -2.19824 0
M  V30 5655 N 569.068 1.32177 -0.85831 0
M  V30 5656 C 569.998 2.31282 -0.321041 0
M  V30 5657 C 570.979 1.59841 0.581786 0
M  V30 5658 O 572.164 1.87619 0.501262 0
M  V30 5659 C 569.294 3.4385 0.48832 0
M  V30 5660 C 568.248 4.26799 -0.320391 0
M  V30 5661 C 567.574 5.31164 0.613934 0
M  V30 5662 C 568.874 4.98829 -1.54813 0
M  V30 5663 H 570.568 2.76469 -1.14915 0
M  V30 5664 H 568.114 1.32916 -0.554028 0
M  V30 5665 H 570.067 4.12224 0.874626 0
M  V30 5666 H 568.791 2.97401 1.34983 0
M  V30 5667 H 567.45 3.60077 -0.688497 0
M  V30 5668 H 567.098 4.80967 1.47239 0
M  V30 5669 H 566.798 5.8755 0.0768097 0
M  V30 5670 H 568.322 6.024 0.997336 0
M  V30 5671 H 569.736 5.59864 -1.23392 0
M  V30 5672 H 568.133 5.64957 -2.02346 0
M  V30 5673 H 569.203 4.26483 -2.30739 0
M  V30 5674 N 570.547 0.616602 1.45037 0
M  V30 5675 C 571.963 0.280994 1.57107 0
M  V30 5676 C 572.163 -1.21627 1.60653 0
M  V30 5677 O 571.219 -1.9997 1.54169 0
M  V30 5678 C 572.532 0.960116 2.8496 0
M  V30 5679 C 574.08 0.936884 2.98649 0
M  V30 5680 C 574.555 1.59619 4.29285 0
M  V30 5681 N 576.046 1.5621 4.36065 0
M  V30 5682 C 576.781 2.04131 5.35834 0
M  V30 5683 N 576.277 2.60177 6.4209 0
M  V30 5684 N 578.07 1.94845 5.27249 0
M  V30 5685 H 570.221 1.58867 1.40979 0
M  V30 5686 H 572.484 0.666024 0.674623 0
M  V30 5687 H 572.19 2.01473 2.88273 0
M  V30 5688 H 572.064 0.488921 3.74018 0
M  V30 5689 H 574.451 -0.109209 2.94898 0
M  V30 5690 H 574.532 1.44643 2.10979 0
M  V30 5691 H 574.176 2.64166 4.33796 0
M  V30 5692 H 574.106 1.06159 5.15789 0
M  V30 5693 H 576.597 1.15276 3.59889 0
M  V30 5694 H 576.91 2.94513 7.1448 0
M  V30 5695 H 575.255 2.64221 6.42816 0
M  V30 5696 H 578.446 1.50792 4.43147 0
M  V30 5697 H 578.619 2.32504 6.04852 0
M  V30 5698 N 572.025 -1.5352 0.356285 0
M  V30 5699 C 573.253 -2.05534 -0.237328 0
M  V30 5700 C 573.668 -1.23043 -1.43199 0
M  V30 5701 O 573.025 -0.268821 -1.80509 0
M  V30 5702 C 573.076 -3.55791 -0.639933 0
M  V30 5703 O 572.797 -4.35154 0.507233 0
M  V30 5704 C 574.298 -4.24027 -1.29292 0
M  V30 5705 H 571.518 -0.669585 -0.0435572 0
M  V30 5706 H 574.062 -1.97988 0.511963 0
M  V30 5707 H 572.217 -3.63518 -1.33915 0
M  V30 5708 H 572.631 -5.24178 0.18375 0
M  V30 5709 H 574.105 -5.30509 -1.52527 0
M  V30 5710 H 574.582 -3.77166 -2.25039 0
M  V30 5711 H 575.188 -4.20527 -0.63539 0
M  V30 5712 N 573.503 -0.0852151 -1.57369 0
M  V30 5713 C 574.451 0.894856 -2.14698 0
M  V30 5714 C 575.445 1.29903 -1.08727 0
M  V30 5715 O 576.651 1.27471 -1.27088 0
M  V30 5716 H 573.026 0.306569 -0.686673 0
M  V30 5717 H 574.997 0.386542 -2.95886 0
M  V30 5718 C 573.746 2.14798 -2.73417 0
M  V30 5719 H 573.069 1.84585 -3.54638 0
M  V30 5720 H 574.509 2.81456 -3.1711 0
M  V30 5721 C 572.968 2.91546 -1.68828 0
M  V30 5722 O 573.498 3.85733 -1.12129 0
M  V30 5723 N 571.704 2.54901 -1.39549 0
M  V30 5724 H 571.251 1.7838 -1.85845 0
M  V30 5725 H 571.209 3.06553 -0.698054 0
M  V30 5726 N 574.981 1.5647 0.188427 0
M  V30 5727 C 575.944 1.9421 1.21718 0
M  V30 5728 C 576.944 0.823901 1.38089 0
M  V30 5729 O 578.134 1.09122 1.35787 0
M  V30 5730 C 575.266 2.22197 2.58537 0
M  V30 5731 H 576.459 2.86252 0.894418 0
M  V30 5732 H 574.012 1.50263 0.430211 0
M  V30 5733 H 574.747 1.32814 2.95856 0
M  V30 5734 H 574.532 3.03688 2.48025 0
M  V30 5735 H 576.022 2.52376 3.3271 0
M  V30 5736 N 576.459 -0.456382 1.50847 0
M  V30 5737 C 577.875 -0.791345 1.386 0
M  V30 5738 C 578.075 -1.9633 0.453498 0
M  V30 5739 O 577.131 -2.52308 -0.0984353 0
M  V30 5740 C 578.444 -1.08959 2.80265 0
M  V30 5741 C 579.992 -1.19517 2.89283 0
M  V30 5742 C 580.467 -1.52647 4.31814 0
M  V30 5743 N 581.958 -1.59609 4.34832 0
M  V30 5744 C 582.693 -1.86777 5.42127 0
M  V30 5745 N 582.189 -2.11866 6.59609 0
M  V30 5746 N 583.982 -1.88402 5.29586 0
M  V30 5747 H 576.133 0.315746 2.1004 0
M  V30 5748 H 578.396 0.0787916 0.94472 0
M  V30 5749 H 578.102 -0.301355 3.50407 0
M  V30 5750 H 577.976 -2.02211 3.18419 0
M  V30 5751 H 580.363 -1.97406 2.19351 0
M  V30 5752 H 580.444 -0.242111 2.54652 0
M  V30 5753 H 580.088 -0.752922 5.02288 0
M  V30 5754 H 580.018 -2.49127 4.63943 0
M  V30 5755 H 582.509 -1.42201 3.50125 0
M  V30 5756 H 582.822 -2.31912 7.37182 0
M  V30 5757 H 581.167 -2.09228 6.62758 0
M  V30 5758 H 584.358 -1.68307 4.36795 0
M  V30 5759 H 584.531 -2.09238 6.13289 0
M  V30 5760 N 577.937 -1.40673 -0.710563 0
M  V30 5761 C 578.9 -1.4108 -1.80635 0
M  V30 5762 C 579.9 -0.303783 -1.57904 0
M  V30 5763 O 581.09 -0.562937 -1.64853 0
M  V30 5764 C 578.222 -1.20748 -3.18799 0
M  V30 5765 H 579.415 -2.38612 -1.81671 0
M  V30 5766 H 576.968 -1.26595 -0.916704 0
M  V30 5767 H 577.703 -0.239964 -3.23411 0
M  V30 5768 H 577.488 -2.00941 -3.36698 0
M  V30 5769 H 578.978 -1.23833 -3.98817 0
M  V30 5770 N 579.415 0.9433 -1.26252 0
M  V30 5771 C 580.362 2.0417 -1.07625 0
M  V30 5772 C 581.332 1.6609 0.0180738 0
M  V30 5773 O 582.517 1.90276 -0.141289 0
M  V30 5774 C 579.657 3.37653 -0.713043 0
M  V30 5775 C 578.77 3.88783 -1.8834 0
M  V30 5776 C 577.905 5.10642 -1.4635 0
M  V30 5777 C 576.944 5.54028 -2.60229 0
M  V30 5778 N 576.081 6.67092 -2.18936 0
M  V30 5779 H 580.921 2.19436 -2.01623 0
M  V30 5780 H 578.458 1.07519 -1.00389 0
M  V30 5781 H 580.416 4.14391 -0.483358 0
M  V30 5782 H 579.046 3.22241 0.18996 0
M  V30 5783 H 578.098 3.08464 -2.22608 0
M  V30 5784 H 579.41 4.16922 -2.73821 0
M  V30 5785 H 578.564 5.94832 -1.19414 0
M  V30 5786 H 577.303 4.84244 -0.579568 0
M  V30 5787 H 576.308 4.68396 -2.87898 0
M  V30 5788 H 577.533 5.82429 -3.49219 0
M  V30 5789 H 575.479 6.42381 -1.32974 0
M  V30 5790 H 575.396 6.94806 -2.97961 0
M  V30 5791 H 576.664 7.54662 -1.95206 0
M  V30 5792 N 580.893 1.08022 1.14757 0
M  V30 5793 C 581.826 0.650738 2.18725 0
M  V30 5794 C 582.804 -0.335496 1.59101 0
M  V30 5795 O 583.988 -0.240295 1.86962 0
M  V30 5796 C 581.115 -0.0434377 3.38672 0
M  V30 5797 C 580.161 0.90232 4.16846 0
M  V30 5798 S 580.994 2.40693 4.78359 0
M  V30 5799 C 582.15 1.72475 6.01667 0
M  V30 5800 H 582.383 1.53152 2.54817 0
M  V30 5801 H 579.916 0.894823 1.25826 0
M  V30 5802 H 581.874 -0.437684 4.0816 0
M  V30 5803 H 580.535 -0.900659 3.0091 0
M  V30 5804 H 579.728 0.363445 5.02688 0
M  V30 5805 H 579.33 1.23728 3.52941 0
M  V30 5806 H 581.622 1.0404 6.69464 0
M  V30 5807 H 582.565 2.56175 6.60136 0
M  V30 5808 H 582.973 1.19979 5.51602 0
M  V30 5809 N 582.371 -1.3172 0.865308 0
M  V30 5810 C 583.596 -2.01591 0.487415 0
M  V30 5811 C 584.021 -1.6455 -0.911307 0
M  V30 5812 O 583.379 -0.851689 -1.6005 0
M  V30 5813 C 583.427 -3.54759 0.646401 0
M  V30 5814 O 582.531 -4.11185 -0.316284 0
M  V30 5815 H 581.872 -0.634884 0.194468 0
M  V30 5816 H 584.402 -1.68024 1.16744 0
M  V30 5817 H 584.412 -4.04438 0.537932 0
M  V30 5818 H 583.087 -3.8106 1.66632 0
M  V30 5819 H 581.664 -3.72543 -0.163162 0
M  V30 5820 N 583.85 -0.624285 -1.44708 0
M  V30 5821 C 584.76 0.0861083 -2.34442 0
M  V30 5822 C 585.776 0.84291 -1.5222 0
M  V30 5823 O 586.952 0.796723 -1.84971 0
M  V30 5824 C 584.017 1.05999 -3.30099 0
M  V30 5825 C 583.077 0.303316 -4.28227 0
M  V30 5826 C 582.311 1.23081 -5.19314 0
M  V30 5827 O 582.534 2.46929 -5.14181 0
M  V30 5828 O 581.468 0.71883 -5.97592 0
M  V30 5829 H 585.293 -0.651756 -2.96624 0
M  V30 5830 H 582.879 -0.384493 -1.44368 0
M  V30 5831 H 584.76 1.62046 -3.88997 0
M  V30 5832 H 583.436 1.77859 -2.70459 0
M  V30 5833 H 582.343 -0.300033 -3.72895 0
M  V30 5834 H 583.676 -0.375123 -4.90768 0
M  V30 5835 N 585.328 1.53329 -0.364422 0
M  V30 5836 C 586.261 2.22052 0.526145 0
M  V30 5837 C 587.239 1.21203 1.08391 0
M  V30 5838 O 588.423 1.50101 1.14026 0
M  V30 5839 C 585.55 2.91432 1.72583 0
M  V30 5840 C 584.596 4.06345 1.29562 0
M  V30 5841 S 585.429 5.34671 0.297885 0
M  V30 5842 C 586.585 6.07563 1.50392 0
M  V30 5843 H 586.818 2.97244 -0.0575055 0
M  V30 5844 H 584.351 1.53684 -0.148525 0
M  V30 5845 H 586.309 3.3202 2.41398 0
M  V30 5846 H 584.97 2.15966 2.28073 0
M  V30 5847 H 584.163 4.53901 2.19067 0
M  V30 5848 H 583.765 3.67642 0.686696 0
M  V30 5849 H 586.057 6.32224 2.43513 0
M  V30 5850 H 587 6.99973 1.06977 0
M  V30 5851 H 587.408 5.37994 1.70945 0
M  V30 5852 N 586.806 0.0935595 1.57322 0
M  V30 5853 C 588.222 -0.263091 1.57417 0
M  V30 5854 C 588.422 -1.68526 1.1046 0
M  V30 5855 O 587.478 -2.40139 0.780357 0
M  V30 5856 C 588.791 -0.0529201 3.00653 0
M  V30 5857 C 590.339 -0.120788 3.12767 0
M  V30 5858 C 590.814 0.0613707 4.57959 0
M  V30 5859 N 592.305 0.00648534 4.632 0
M  V30 5860 C 593.04 0.122699 5.73269 0
M  V30 5861 N 592.536 0.29366 6.92177 0
M  V30 5862 N 594.329 0.0640787 5.62063 0
M  V30 5863 H 586.48 1.02277 1.86154 0
M  V30 5864 H 588.743 0.4007 0.859153 0
M  V30 5865 H 588.449 0.929279 3.39201 0
M  V30 5866 H 588.323 -0.795899 3.68708 0
M  V30 5867 H 590.71 -1.09349 2.74093 0
M  V30 5868 H 590.791 0.653656 2.47307 0
M  V30 5869 H 590.435 1.03093 4.97327 0
M  V30 5870 H 590.365 -0.732748 5.21477 0
M  V30 5871 H 592.856 -0.123173 3.77699 0
M  V30 5872 H 593.169 0.37389 7.71895 0
M  V30 5873 H 591.514 0.329307 6.94219 0
M  V30 5874 H 594.705 -0.0683396 4.6805 0
M  V30 5875 H 594.878 0.158097 6.47807 0
M  V30 5876 N 588.284 -1.56567 -0.180126 0
M  V30 5877 C 589.234 -1.92132 -1.22756 0
M  V30 5878 C 590.218 -0.788639 -1.40247 0
M  V30 5879 O 591.41 -1.05171 -1.42366 0
M  V30 5880 C 588.539 -2.27719 -2.56902 0
M  V30 5881 C 587.625 -3.47481 -2.43142 0
M  V30 5882 N 588.016 -4.64973 -1.99082 0
M  V30 5883 C 586.314 -3.51914 -2.73994 0
M  V30 5884 C 587.015 -5.47119 -1.97574 0
M  V30 5885 N 585.991 -4.87925 -2.39645 0
M  V30 5886 H 589.793 -2.80464 -0.878478 0
M  V30 5887 H 587.307 -1.57686 -0.388463 0
M  V30 5888 H 589.304 -2.51389 -3.32579 0
M  V30 5889 H 587.964 -1.40722 -2.92621 0
M  V30 5890 H 588.975 -4.89358 -1.69557 0
M  V30 5891 H 585.652 -2.75372 -3.13809 0
M  V30 5892 H 587.042 -6.51254 -1.65282 0
M  V30 5893 N 589.762 0.448376 -1.51087 0
M  V30 5894 C 591.01 1.19635 -1.62886 0
M  V30 5895 C 591.331 1.91977 -0.342024 0
M  V30 5896 O 590.601 1.85094 0.641636 0
M  V30 5897 H 589.181 0.444598 -0.600285 0
M  V30 5898 H 591.843 0.515138 -1.87969 0
M  V30 5899 H 590.939 1.93194 -2.45117 0
M  V30 5900 N 591.24 1.41047 0.703093 0
M  V30 5901 C 592.487 1.4 1.46309 0
M  V30 5902 C 592.815 0.00654574 1.94499 0
M  V30 5903 O 592.07 -0.980255 1.6938 0
M  V30 5904 C 592.369 2.34686 2.6955 0
M  V30 5905 C 592.035 3.81684 2.40058 0
M  V30 5906 C 590.697 4.21731 2.31725 0
M  V30 5907 C 593.049 4.74525 2.15581 0
M  V30 5908 C 590.377 5.52637 1.97001 0
M  V30 5909 C 592.729 6.05744 1.82366 0
M  V30 5910 C 591.393 6.44819 1.72524 0
M  V30 5911 H 590.663 0.512295 0.535382 0
M  V30 5912 H 593.31 1.73792 0.804275 0
M  V30 5913 H 591.615 1.94122 3.40329 0
M  V30 5914 H 593.312 2.31152 3.27673 0
M  V30 5915 H 589.902 3.49963 2.47435 0
M  V30 5916 H 594.086 4.44395 2.20968 0
M  V30 5917 H 589.342 5.81802 1.87928 0
M  V30 5918 H 593.516 6.77189 1.62444 0
M  V30 5919 H 591.143 7.46168 1.45385 0
M  V30 5920 N 592.718 -0.936591 1.26751 0
M  V30 5921 C 593.964 -1.6858 1.12733 0
M  V30 5922 C 594.297 -1.91414 -0.327745 0
M  V30 5923 O 593.572 -1.49812 -1.24043 0
M  V30 5924 C 593.855 -3.05779 1.90187 0
M  V30 5925 C 593.708 -2.90242 3.43627 0
M  V30 5926 C 595.027 -4.0597 1.69931 0
M  V30 5927 H 592.146 -0.61182 0.410908 0
M  V30 5928 H 594.788 -1.08747 1.55801 0
M  V30 5929 H 592.938 -3.56853 1.53584 0
M  V30 5930 H 594.61 -2.46354 3.9001 0
M  V30 5931 H 592.853 -2.2577 3.70419 0
M  V30 5932 H 593.524 -3.87572 3.93055 0
M  V30 5933 H 596 -3.63874 2.0183 0
M  V30 5934 H 594.876 -4.99974 2.26534 0
M  V30 5935 H 595.137 -4.37369 0.64502 0
M  V30 5936 N 594.196 -1.08629 -1.14182 0
M  V30 5937 C 595.143 -0.718299 -2.19338 0
M  V30 5938 C 596.113 0.296587 -1.63431 0
M  V30 5939 O 597.298 0.180079 -1.89948 0
M  V30 5940 C 594.438 -0.136203 -3.44831 0
M  V30 5941 C 593.551 -1.20414 -4.14879 0
M  V30 5942 C 592.686 -0.585666 -5.27962 0
M  V30 5943 C 591.725 -1.63548 -5.89846 0
M  V30 5944 N 590.862 -1.03864 -6.94375 0
M  V30 5945 H 595.702 -1.61932 -2.50164 0
M  V30 5946 H 593.239 -0.80919 -1.22844 0
M  V30 5947 H 595.197 0.219021 -4.16625 0
M  V30 5948 H 593.827 0.728121 -3.14481 0
M  V30 5949 H 592.879 -1.67676 -3.41451 0
M  V30 5950 H 594.191 -1.99959 -4.56966 0
M  V30 5951 H 593.345 -0.178818 -6.06436 0
M  V30 5952 H 592.084 0.24142 -4.87102 0
M  V30 5953 H 591.089 -2.05197 -5.10073 0
M  V30 5954 H 592.314 -2.46509 -6.3278 0
M  V30 5955 H 590.26 -0.232687 -6.55587 0
M  V30 5956 H 590.177 -1.77116 -7.3496 0
M  V30 5957 H 591.445 -0.657724 -7.7672 0
M  V30 5958 N 595.674 1.31259 -0.872281 0
M  V30 5959 C 596.923 1.95893 -0.480493 0
M  V30 5960 C 597.236 1.697 0.972688 0
M  V30 5961 O 598.442 2.28214 1.47073 0
M  V30 5962 C 596.898 3.50705 -0.808342 0
M  V30 5963 C 596.506 3.85735 -2.27844 0
M  V30 5964 C 598.25 4.21719 -0.485136 0
M  V30 5965 C 596.157 5.33668 -2.54858 0
M  V30 5966 H 595.087 0.733182 -0.175955 0
M  V30 5967 H 597.738 1.49396 -1.0655 0
M  V30 5968 H 596.12 3.95706 -0.152558 0
M  V30 5969 H 597.294 3.51686 -2.97748 0
M  V30 5970 H 595.609 3.27792 -2.56791 0
M  V30 5971 H 598.206 5.30559 -0.664166 0
M  V30 5972 H 598.549 4.12316 0.574592 0
M  V30 5973 H 599.082 3.82359 -1.09756 0
M  V30 5974 H 595.821 5.48109 -3.59523 0
M  V30 5975 H 595.341 5.69061 -1.8955 0
M  V30 5976 H 597.02 6.00958 -2.39706 0
M  V30 5977 N 597.152 0.631951 1.44375 0
M  V30 5978 C 598.399 0.136767 2.02038 0
M  V30 5979 C 598.727 -1.24168 1.49709 0
M  V30 5980 O 597.982 -1.83809 0.671763 0
M  V30 5981 C 598.281 0.0735861 3.57324 0
M  V30 5982 C 597.947 1.39092 4.28911 0
M  V30 5983 C 596.609 1.75171 4.48184 0
M  V30 5984 C 598.961 2.26042 4.69632 0
M  V30 5985 C 596.289 2.97907 5.05439 0
M  V30 5986 C 598.641 3.4805 5.28246 0
M  V30 5987 C 597.305 3.84351 5.45738 0
M  V30 5988 H 596.575 0.0500466 0.739308 0
M  V30 5989 H 599.222 0.818429 1.7313 0
M  V30 5990 H 597.527 -0.691449 3.8565 0
M  V30 5991 H 599.224 -0.326091 3.99672 0
M  V30 5992 H 595.814 1.10015 4.1424 0
M  V30 5993 H 599.998 1.99463 4.54454 0
M  V30 5994 H 595.254 3.26108 5.17169 0
M  V30 5995 H 599.428 4.15658 5.5875 0
M  V30 5996 H 597.055 4.79538 5.8987 0
M  V30 5997 N 598.631 -1.53133 0.372548 0
M  V30 5998 C 599.871 -2.03267 -0.214943 0
M  V30 5999 C 600.235 -1.25362 -1.45425 0
M  V30 6000 O 601.436 -1.65536 -2.11781 0
M  V30 6001 C 599.707 -3.53985 -0.492897 0
M  V30 6002 S 601.266 -4.25977 -1.05307 0
M  V30 6003 H 598.084 -0.708289 -0.062029 0
M  V30 6004 H 600.686 -1.88539 0.517025 0
M  V30 6005 H 599.39 -4.08282 0.416442 0
M  V30 6006 H 598.921 -3.72887 -1.25375 0
M  V30 6007 H 600.936 -4.37731 -2.33679 0
M  V30 6008 N 600.109 -0.101901 -1.5727 0
M  V30 6009 C 601.525 0.254739 -1.57554 0
M  V30 6010 C 601.725 1.67937 -1.11352 0
M  V30 6011 O 600.781 2.39722 -0.793081 0
M  V30 6012 C 602.094 0.036975 -3.00677 0
M  V30 6013 C 603.642 0.104199 -3.12827 0
M  V30 6014 C 604.117 -0.0856565 -4.5792 0
M  V30 6015 N 605.608 -0.0310498 -4.6319 0
M  V30 6016 C 606.343 -0.153099 -5.73196 0
M  V30 6017 N 605.839 -0.330364 -6.92012 0
M  V30 6018 N 607.632 -0.0938854 -5.62022 0
M  V30 6019 H 599.783 -1.03263 -1.85609 0
M  V30 6020 H 602.046 -0.405251 -0.857016 0
M  V30 6021 H 601.752 -0.947254 -3.38703 0
M  V30 6022 H 601.626 0.776335 -3.69124 0
M  V30 6023 H 604.013 1.07894 -2.74669 0
M  V30 6024 H 604.094 -0.666762 -2.46957 0
M  V30 6025 H 603.738 -1.05729 -4.96773 0
M  V30 6026 H 603.668 0.705082 -5.21858 0
M  V30 6027 H 606.159 0.103141 -3.77759 0
M  V30 6028 H 606.472 -0.41482 -7.71686 0
M  V30 6029 H 604.817 -0.366119 -6.94035 0
M  V30 6030 H 608.008 0.0435168 -4.6808 0
M  V30 6031 H 608.181 -0.19245 -6.47714 0
M  V30 6032 N 601.587 1.56661 0.17182 0
M  V30 6033 C 603.003 1.50768 0.52357 0
M  V30 6034 C 603.203 0.806072 1.84675 0
M  V30 6035 O 602.259 0.366233 2.4983 0
M  V30 6036 C 603.572 2.955 0.556793 0
M  V30 6037 C 605.12 3.06303 0.644029 0
M  V30 6038 C 605.595 4.52492 0.708148 0
M  V30 6039 N 607.086 4.56737 0.771051 0
M  V30 6040 C 607.821 5.67196 0.841229 0
M  V30 6041 N 607.317 6.87287 0.872272 0
M  V30 6042 N 609.11 5.55165 0.88021 0
M  V30 6043 H 601.261 2.00679 -0.695817 0
M  V30 6044 H 603.524 0.914219 -0.250814 0
M  V30 6045 H 603.23 3.49986 -0.346774 0
M  V30 6046 H 603.104 3.50119 1.40346 0
M  V30 6047 H 605.491 2.51851 1.53802 0
M  V30 6048 H 605.572 2.5477 -0.229297 0
M  V30 6049 H 605.216 5.07575 -0.181585 0
M  V30 6050 H 605.146 5.01781 1.59761 0
M  V30 6051 H 607.637 3.70274 0.755364 0
M  V30 6052 H 607.95 7.6722 0.92698 0
M  V30 6053 H 606.295 6.89898 0.840557 0
M  V30 6054 H 609.486 4.60263 0.852956 0
M  V30 6055 H 609.659 6.41271 0.931439 0
M  V30 6056 N 603.065 -0.440357 1.51323 0
M  V30 6057 C 604.29 -1.21716 1.67928 0
M  V30 6058 C 604.715 -1.84328 0.374826 0
M  V30 6059 O 604.073 -1.68675 -0.664706 0
M  V30 6060 C 604.121 -2.27914 2.79442 0
M  V30 6061 O 603.225 -3.33325 2.42834 0
M  V30 6062 H 602.566 -0.35674 0.560029 0
M  V30 6063 H 605.096 -0.520417 1.97871 0
M  V30 6064 H 605.106 -2.72746 3.03436 0
M  V30 6065 H 603.781 -1.8172 3.741 0
M  V30 6066 H 602.358 -2.9399 2.294 0
M  V30 6067 N 604.543 -1.41418 -0.695603 0
M  V30 6068 C 605.771 -1.4413 -1.48439 0
M  V30 6069 C 606.186 -0.0465698 -1.88743 0
M  V30 6070 O 605.543 0.934117 -1.56782 0
M  V30 6071 C 605.594 -2.34998 -2.74696 0
M  V30 6072 O 605.315 -3.69043 -2.36091 0
M  V30 6073 C 606.816 -2.46513 -3.68438 0
M  V30 6074 H 604.036 -0.490905 -0.457442 0
M  V30 6075 H 606.58 -1.85702 -0.856454 0
M  V30 6076 H 604.735 -1.96735 -3.33728 0
M  V30 6077 H 605.149 -4.17505 -3.17474 0
M  V30 6078 H 606.623 -3.1426 -4.53811 0
M  V30 6079 H 607.1 -1.49638 -4.12922 0
M  V30 6080 H 607.706 -2.85412 -3.1531 0
M  V30 6081 N 606.021 0.929856 -1.27246 0
M  V30 6082 C 607.269 1.674 -1.13233 0
M  V30 6083 C 607.59 1.92311 0.322744 0
M  V30 6084 O 606.86 1.52784 1.22612 0
M  V30 6085 H 605.44 0.620411 -0.416052 0
M  V30 6086 H 608.102 1.11663 -1.59741 0
M  V30 6087 H 607.198 2.64308 -1.65975 0
M  V30 6088 N 607.499 1.09233 1.13605 0
M  V30 6089 C 608.745 0.828385 1.8511 0
M  V30 6090 C 609.078 -0.64437 1.83198 0
M  V30 6091 O 608.353 -1.47428 1.26867 0
M  V30 6092 C 608.636 1.36167 3.33363 0
M  V30 6093 C 608.489 2.90038 3.438 0
M  V30 6094 C 609.808 0.993819 4.28732 0
M  V30 6095 H 606.927 0.30239 0.672108 0
M  V30 6096 H 609.569 1.35339 1.33355 0
M  V30 6097 H 607.719 0.9151 3.77569 0
M  V30 6098 H 609.391 3.43128 3.08319 0
M  V30 6099 H 607.634 3.27271 2.84739 0
M  V30 6100 H 608.305 3.22428 4.48045 0
M  V30 6101 H 610.781 1.37893 3.92587 0
M  V30 6102 H 609.657 1.39403 5.30903 0
M  V30 6103 H 609.918 -0.0982206 4.41991 0
M  V30 6104 N 608.977 -1.30795 0.87923 0
M  V30 6105 C 610.223 -1.96653 0.495519 0
M  V30 6106 C 610.556 -1.69282 -0.951703 0
M  V30 6107 O 609.831 -0.994374 -1.6716 0
M  V30 6108 C 610.114 -3.51898 0.764174 0
M  V30 6109 C 609.967 -3.88808 2.2616 0
M  V30 6110 C 611.286 -4.39462 0.236825 0
M  V30 6111 H 608.405 -0.7143 0.181507 0
M  V30 6112 H 611.047 -1.54765 1.10217 0
M  V30 6113 H 609.197 -3.87709 0.247841 0
M  V30 6114 H 610.869 -3.63051 2.8459 0
M  V30 6115 H 609.112 -3.37082 2.73053 0
M  V30 6116 H 609.783 -4.97086 2.4002 0
M  V30 6117 H 612.259 -4.10528 0.678683 0
M  V30 6118 H 611.135 -5.47018 0.454176 0
M  V30 6119 H 611.396 -4.33621 -0.861683 0
M  V30 6120 N 610.455 -0.639598 -1.44038 0
M  V30 6121 C 611.704 -0.144885 -2.01179 0
M  V30 6122 C 612.017 1.24372 -1.50967 0
M  V30 6123 O 613.223 1.83291 -2.00292 0
M  V30 6124 C 611.679 -0.208244 -3.59297 0
M  V30 6125 C 611.287 -1.59869 -4.18504 0
M  V30 6126 C 613.031 0.229568 -4.23879 0
M  V30 6127 C 610.938 -1.61671 -5.68873 0
M  V30 6128 H 609.868 -0.0504005 -0.752314 0
M  V30 6129 H 612.519 -0.799639 -1.65161 0
M  V30 6130 H 610.901 0.513767 -3.92653 0
M  V30 6131 H 612.075 -2.34496 -3.96671 0
M  V30 6132 H 610.39 -1.98131 -3.66242 0
M  V30 6133 H 612.987 0.235758 -5.3418 0
M  V30 6134 H 613.33 1.25848 -3.96822 0
M  V30 6135 H 613.863 -0.440233 -3.95357 0
M  V30 6136 H 610.602 -2.62427 -6.00677 0
M  V30 6137 H 610.122 -0.913489 -5.92803 0
M  V30 6138 H 611.801 -1.35439 -6.32665 0
M  V30 6139 N 611.933 1.52934 -0.380664 0
M  V30 6140 C 613.181 2.01069 0.203874 0
M  V30 6141 C 613.502 1.26922 1.4804 0
M  V30 6142 O 612.772 0.386787 1.92044 0
M  V30 6143 H 611.352 0.742882 0.0783279 0
M  V30 6144 H 614.014 1.88099 -0.510368 0
M  V30 6145 H 613.11 3.09258 0.42021 0
M  V30 6146 N 613.412 0.11024 1.57214 0
M  V30 6147 C 614.66 -0.548783 1.94506 0
M  V30 6148 C 614.981 -1.67772 0.99386 0
M  V30 6149 O 614.251 -1.9584 0.0485841 0
M  V30 6150 H 612.831 -0.205715 0.718116 0
M  V30 6151 H 615.493 0.177127 1.94093 0
M  V30 6152 H 614.589 -0.949096 2.97319 0
M  V30 6153 N 614.89 -1.56749 -0.16351 0
M  V30 6154 C 616.136 -1.82704 -0.880168 0
M  V30 6155 C 616.469 -0.689311 -1.81555 0
M  V30 6156 O 615.744 0.308224 -1.92042 0
M  V30 6157 C 616.027 -3.19084 -1.66905 0
M  V30 6158 C 615.88 -4.43397 -0.756269 0
M  V30 6159 C 617.199 -3.52493 -2.63509 0
M  V30 6160 H 614.318 -0.664608 -0.318535 0
M  V30 6161 H 616.96 -1.89438 -0.146036 0
M  V30 6162 H 615.11 -3.13475 -2.2949 0
M  V30 6163 H 616.782 -4.61079 -0.14269 0
M  V30 6164 H 615.025 -4.33752 -0.0647944 0
M  V30 6165 H 615.696 -5.3539 -1.34393 0
M  V30 6166 H 618.172 -3.58606 -2.11047 0
M  V30 6167 H 617.048 -4.48979 -3.15767 0
M  V30 6168 H 617.309 -2.77597 -3.44082 0
M  V30 6169 N 616.368 0.432326 -1.51554 0
M  V30 6170 C 617.614 1.18309 -1.64714 0
M  V30 6171 C 617.947 1.90745 -0.364696 0
M  V30 6172 O 617.222 1.8381 0.635936 0
M  V30 6173 C 617.505 2.1961 -2.85383 0
M  V30 6174 C 617.358 1.51223 -4.23617 0
M  V30 6175 C 618.677 3.20538 -3.01569 0
M  V30 6176 H 615.796 0.428751 -0.599451 0
M  V30 6177 H 618.438 0.471689 -1.84052 0
M  V30 6178 H 616.588 2.8028 -2.69027 0
M  V30 6179 H 618.26 0.938516 -4.51652 0
M  V30 6180 H 616.503 0.814501 -4.26085 0
M  V30 6181 H 617.174 2.25024 -5.04052 0
M  V30 6182 H 619.65 2.69926 -3.16669 0
M  V30 6183 H 618.526 3.88706 -3.87555 0
M  V30 6184 H 618.787 3.86933 -2.13859 0
M  V30 6185 N 617.846 1.41785 0.688094 0
M  V30 6186 C 619.092 1.41753 1.4503 0
M  V30 6187 C 619.425 0.0290745 1.94178 0
M  V30 6188 O 618.7 -0.944456 1.7003 0
M  V30 6189 C 618.983 2.43069 2.65686 0
M  V30 6190 C 618.836 3.91053 2.22256 0
M  V30 6191 C 620.155 2.41543 3.67893 0
M  V30 6192 H 617.274 0.516202 0.526027 0
M  V30 6193 H 619.916 1.73111 0.783105 0
M  V30 6194 H 618.066 2.1646 3.2261 0
M  V30 6195 H 619.738 4.28594 1.70602 0
M  V30 6196 H 617.981 4.05559 1.53963 0
M  V30 6197 H 618.652 4.57501 3.08863 0
M  V30 6198 H 621.128 2.65175 3.20658 0
M  V30 6199 H 620.004 3.14434 4.49914 0
M  V30 6200 H 620.265 1.43666 4.18106 0
M  V30 6201 N 619.324 -0.923095 1.27737 0
M  V30 6202 C 620.287 -2.00587 1.10894 0
M  V30 6203 C 621.287 -1.60718 0.0514927 0
M  V30 6204 O 622.477 -1.71658 0.296481 0
M  V30 6205 C 619.609 -3.33829 0.690717 0
M  V30 6206 H 620.802 -2.16959 2.07048 0
M  V30 6207 H 618.355 -1.10451 1.1059 0
M  V30 6208 H 619.09 -3.23157 -0.272 0
M  V30 6209 H 618.875 -3.64125 1.45448 0
M  V30 6210 H 620.365 -4.13336 0.595252 0
M  V30 6211 N 620.802 -1.09834 -1.13024 0
M  V30 6212 C 622.213 -0.855651 -1.65938 0
M  V30 6213 C 622.564 0.615159 -1.86307 0
M  V30 6214 O 621.689 1.47335 -1.58497 0
M  V30 6215 C 622.284 -1.5467 -3.01434 0
M  V30 6216 C 620.843 -1.35088 -3.51323 0
M  V30 6217 C 619.99 -1.6001 -2.26478 0
M  V30 6218 H 622.941 -1.25691 -0.968889 0
M  V30 6219 H 622.962 -0.982179 -3.67605 0
M  V30 6220 H 622.474 -2.61715 -2.86578 0
M  V30 6221 H 620.575 -0.30179 -3.71376 0
M  V30 6222 H 620.688 -2.0886 -4.31178 0
M  V30 6223 H 619.052 -1.02246 -2.33276 0
M  V30 6224 H 619.835 -2.68293 -2.14182 0
M  V30 6225 N 622.28 1.30327 -0.886154 0
M  V30 6226 C 623.529 1.95373 -0.501243 0
M  V30 6227 C 623.842 1.70722 0.954634 0
M  V30 6228 O 625.048 2.29761 1.44644 0
M  V30 6229 C 623.504 3.49828 -0.845493 0
M  V30 6230 C 623.112 3.83296 -2.31922 0
M  V30 6231 C 624.856 4.2118 -0.529838 0
M  V30 6232 C 622.763 5.30935 -2.60504 0
M  V30 6233 H 621.693 0.731274 -0.183722 0
M  V30 6234 H 624.344 1.48258 -1.08129 0
M  V30 6235 H 622.726 3.95522 -0.19452 0
M  V30 6236 H 623.9 3.48508 -3.01461 0
M  V30 6237 H 622.215 3.2505 -2.60253 0
M  V30 6238 H 624.812 5.29825 -0.720401 0
M  V30 6239 H 625.155 4.12902 0.530828 0
M  V30 6240 H 625.688 3.81173 -1.13806 0
M  V30 6241 H 622.427 5.44265 -3.65316 0
M  V30 6242 H 621.947 5.67019 -1.95575 0
M  V30 6243 H 623.626 5.98381 -2.46066 0
M  V30 6244 N 623.758 0.647228 1.43697 0
M  V30 6245 C 624.721 -0.0385101 2.29168 0
M  V30 6246 C 625.721 -0.756487 1.41894 0
M  V30 6247 O 626.911 -0.598641 1.63591 0
M  V30 6248 C 624.043 -1.06524 3.23829 0
M  V30 6249 H 625.236 0.713445 2.9129 0
M  V30 6250 H 622.789 0.408153 1.50877 0
M  V30 6251 H 623.524 -1.84664 2.66589 0
M  V30 6252 H 623.309 -0.554147 3.88164 0
M  V30 6253 H 624.799 -1.54432 3.87996 0
M  V30 6254 N 625.236 -1.5273 0.388769 0
M  V30 6255 C 626.461 -2.0647 -0.19621 0
M  V30 6256 C 626.886 -1.25865 -1.39784 0
M  V30 6257 O 626.244 -0.283562 -1.79069 0
M  V30 6258 C 626.292 -3.56456 -0.5451 0
M  V30 6259 O 625.396 -3.78426 -1.63912 0
M  V30 6260 H 624.737 -0.663599 -0.023067 0
M  V30 6261 H 627.267 -1.96898 0.556084 0
M  V30 6262 H 627.277 -3.99888 -0.809557 0
M  V30 6263 H 625.952 -4.14561 0.333417 0
M  V30 6264 H 624.529 -3.46884 -1.36842 0
M  V30 6265 N 626.714 -0.118576 -1.57153 0
M  V30 6266 C 627.624 0.845484 -2.18835 0
M  V30 6267 C 628.64 1.29299 -1.16438 0
M  V30 6268 O 629.816 1.35607 -1.48905 0
M  V30 6269 C 626.881 2.07795 -2.77529 0
M  V30 6270 C 625.942 1.6824 -3.9496 0
M  V30 6271 C 625.175 2.85612 -4.50845 0
M  V30 6272 O 625.398 4.01025 -4.05629 0
M  V30 6273 O 624.332 2.62721 -5.41536 0
M  V30 6274 H 628.158 0.350568 -3.0167 0
M  V30 6275 H 625.743 0.107013 -1.49016 0
M  V30 6276 H 627.625 2.79978 -3.14945 0
M  V30 6277 H 626.3 2.56294 -1.97725 0
M  V30 6278 H 625.207 0.931663 -3.62313 0
M  V30 6279 H 626.54 1.24484 -4.76198 0
M  V30 6280 N 628.193 1.56834 0.155195 0
M  V30 6281 C 629.123 2.00678 1.19376 0
M  V30 6282 C 630.104 0.884973 1.45266 0
M  V30 6283 O 631.289 1.1522 1.56326 0
M  V30 6284 C 628.419 2.38042 2.5289 0
M  V30 6285 C 627.373 3.53332 2.41538 0
M  V30 6286 C 626.699 3.76485 3.79688 0
M  V30 6287 C 627.999 4.86265 1.9064 0
M  V30 6288 H 629.693 2.87688 0.829232 0
M  V30 6289 H 627.239 1.38407 0.397445 0
M  V30 6290 H 629.192 2.67314 3.25763 0
M  V30 6291 H 627.916 1.4796 2.91162 0
M  V30 6292 H 626.575 3.24213 1.71117 0
M  V30 6293 H 626.223 2.83667 4.15382 0
M  V30 6294 H 625.923 4.54068 3.72956 0
M  V30 6295 H 627.447 4.08174 4.54122 0
M  V30 6296 H 628.861 5.14308 2.53299 0
M  V30 6297 H 627.258 5.67597 1.94818 0
M  V30 6298 H 628.328 4.77184 0.861596 0
M  V30 6299 N 629.671 -0.424282 1.51781 0
M  V30 6300 C 630.92 -1.16961 1.64326 0
M  V30 6301 C 631.233 -1.92035 0.371749 0
M  V30 6302 O 632.439 -2.68873 0.37676 0
M  V30 6303 C 630.895 -2.12782 2.90262 0
M  V30 6304 C 630.503 -1.43295 4.24465 0
M  V30 6305 C 632.247 -2.87667 3.12166 0
M  V30 6306 C 630.154 -2.37676 5.41538 0
M  V30 6307 H 629.084 -0.440293 0.612093 0
M  V30 6308 H 631.735 -0.435431 1.78259 0
M  V30 6309 H 630.117 -2.8969 2.69992 0
M  V30 6310 H 631.291 -0.718564 4.55163 0
M  V30 6311 H 629.606 -0.805118 4.08542 0
M  V30 6312 H 632.203 -3.58395 3.96808 0
M  V30 6313 H 632.546 -3.49758 2.25776 0
M  V30 6314 H 633.079 -2.17863 3.32837 0
M  V30 6315 H 629.818 -1.80255 6.30229 0
M  V30 6316 H 629.338 -3.07132 5.15199 0
M  V30 6317 H 631.017 -2.98529 5.74012 0
M  V30 6318 N 631.149 -1.42148 -0.680565 0
M  V30 6319 C 632.079 -1.4796 -1.80638 0
M  V30 6320 C 633.06 -0.336728 -1.66734 0
M  V30 6321 O 634.245 -0.550247 -1.86242 0
M  V30 6322 C 631.375 -1.37569 -3.18892 0
M  V30 6323 C 630.329 -2.49823 -3.47524 0
M  V30 6324 C 629.655 -2.24491 -4.85291 0
M  V30 6325 C 630.955 -3.92144 -3.44994 0
M  V30 6326 H 632.649 -2.42184 -1.76032 0
M  V30 6327 H 630.195 -1.16566 -0.845481 0
M  V30 6328 H 632.148 -1.40243 -3.97379 0
M  V30 6329 H 630.872 -0.398357 -3.24162 0
M  V30 6330 H 629.531 -2.46455 -2.71395 0
M  V30 6331 H 629.179 -1.25066 -4.87204 0
M  V30 6332 H 628.879 -2.99722 -5.05411 0
M  V30 6333 H 630.403 -2.28906 -5.66069 0
M  V30 6334 H 631.817 -3.97145 -4.13459 0
M  V30 6335 H 630.214 -4.67179 -3.76648 0
M  V30 6336 H 631.284 -4.19225 -2.43676 0
M  V30 6337 N 632.627 0.916307 -1.28225 0
M  V30 6338 C 634.038 1.48024 -1.13779 0
M  V30 6339 C 634.389 1.94289 0.273139 0
M  V30 6340 O 633.514 1.82226 1.16716 0
M  V30 6341 C 634.109 2.69029 -2.05935 0
M  V30 6342 C 632.668 3.2161 -1.95561 0
M  V30 6343 C 631.815 1.94321 -1.97825 0
M  V30 6344 H 634.766 0.729272 -1.40951 0
M  V30 6345 H 634.787 3.44204 -1.62184 0
M  V30 6346 H 634.299 2.35325 -3.08616 0
M  V30 6347 H 632.4 3.60045 -0.959076 0
M  V30 6348 H 632.513 3.87032 -2.82388 0
M  V30 6349 H 630.877 2.1131 -1.42198 0
M  V30 6350 H 631.66 1.62917 -3.0218 0
M  V30 6351 N 634.105 1.10431 1.1244 0
M  V30 6352 C 635.354 0.841539 1.83306 0
M  V30 6353 C 635.667 -0.634961 1.85007 0
M  V30 6354 O 636.873 -1.01363 2.51869 0
M  V30 6355 C 635.329 1.45565 3.29149 0
M  V30 6356 C 634.937 2.96544 3.35806 0
M  V30 6357 C 636.681 1.27227 4.04986 0
M  V30 6358 C 634.588 3.5099 4.75983 0
M  V30 6359 H 633.518 0.311156 0.686803 0
M  V30 6360 H 636.169 1.32829 1.26604 0
M  V30 6361 H 634.551 0.896574 3.85717 0
M  V30 6362 H 635.725 3.58766 2.89177 0
M  V30 6363 H 634.04 3.14036 2.73442 0
M  V30 6364 H 636.637 1.65348 5.08492 0
M  V30 6365 H 636.98 0.213834 4.1575 0
M  V30 6366 H 637.513 1.79941 3.54776 0
M  V30 6367 H 634.252 4.56499 4.70413 0
M  V30 6368 H 633.772 2.93535 5.23065 0
M  V30 6369 H 635.451 3.48808 5.44924 0
M  V30 6370 N 635.583 -1.29855 0.893053 0
M  V30 6371 C 636.546 -2.26183 0.370687 0
M  V30 6372 C 637.546 -1.53108 -0.491385 0
M  V30 6373 O 638.736 -1.71643 -0.297386 0
M  V30 6374 C 635.868 -3.37633 -0.470827 0
M  V30 6375 H 637.061 -2.73903 1.22135 0
M  V30 6376 H 634.614 -1.41183 0.67061 0
M  V30 6377 H 635.349 -2.95241 -1.34175 0
M  V30 6378 H 635.134 -3.91825 0.146784 0
M  V30 6379 H 636.624 -4.09313 -0.827825 0
M  V30 6380 N 637.061 -0.65484 -1.43351 0
M  V30 6381 C 638.307 -0.169142 -2.02093 0
M  V30 6382 C 638.64 1.21431 -1.51553 0
M  V30 6383 O 637.915 1.81105 -0.709317 0
M  V30 6384 C 638.198 -0.181775 -3.59641 0
M  V30 6385 C 638.051 -1.59926 -4.20409 0
M  V30 6386 C 639.37 0.480945 -4.37464 0
M  V30 6387 H 636.489 -0.0629371 -0.734308 0
M  V30 6388 H 639.131 -0.835833 -1.70628 0
M  V30 6389 H 637.281 0.385918 -3.86578 0
M  V30 6390 H 638.953 -2.21766 -4.04497 0
M  V30 6391 H 637.196 -2.14605 -3.76998 0
M  V30 6392 H 637.867 -1.55994 -5.295 0
M  V30 6393 H 640.343 -0.00208273 -4.161 0
M  V30 6394 H 639.219 0.441384 -5.47122 0
M  V30 6395 H 639.48 1.55533 -4.13838 0
M  V30 6396 N 638.539 1.52521 -0.396863 0
M  V30 6397 C 639.502 2.2527 0.422604 0
M  V30 6398 C 640.502 1.27184 0.983913 0
M  V30 6399 O 641.692 1.51222 0.864723 0
M  V30 6400 C 638.824 3.01356 1.59365 0
M  V30 6401 H 640.017 2.99133 -0.214416 0
M  V30 6402 H 637.57 1.55587 -0.149128 0
M  V30 6403 H 638.305 2.31813 2.26789 0
M  V30 6404 H 638.09 3.73357 1.19779 0
M  V30 6405 H 639.58 3.56571 2.17363 0
M  V30 6406 N 640.017 0.126909 1.57088 0
M  V30 6407 C 641.263 -0.529952 1.95753 0
M  V30 6408 C 641.596 -1.65823 1.01077 0
M  V30 6409 O 640.871 -1.94437 0.0494162 0
M  V30 6410 C 641.154 -1.05517 3.44294 0
M  V30 6411 C 641.007 0.0702253 4.49745 0
M  V30 6412 C 642.326 -1.9435 3.94862 0
M  V30 6413 H 639.445 -0.191168 0.711775 0
M  V30 6414 H 642.087 0.204071 1.88901 0
M  V30 6415 H 640.237 -1.68069 3.50264 0
M  V30 6416 H 641.909 0.705834 4.55868 0
M  V30 6417 H 640.152 0.732259 4.27575 0
M  V30 6418 H 640.823 -0.338642 5.5096 0
M  V30 6419 H 643.299 -1.41658 3.91244 0
M  V30 6420 H 642.175 -2.28015 4.993 0
M  V30 6421 H 642.436 -2.87299 3.36024 0
M  V30 6422 N 641.495 -1.56914 -0.146875 0
M  V30 6423 C 642.427 -1.94878 -1.20645 0
M  V30 6424 C 643.44 -0.844633 -1.39175 0
M  V30 6425 O 644.629 -1.12304 -1.38744 0
M  V30 6426 C 641.729 -2.20769 -2.57127 0
M  V30 6427 C 640.902 -3.52053 -2.59572 0
M  V30 6428 C 639.961 -3.66482 -3.77594 0
M  V30 6429 O 638.987 -4.38873 -3.62462 0
M  V30 6430 N 640.189 -3.03156 -4.95052 0
M  V30 6431 H 642.954 -2.86374 -0.883757 0
M  V30 6432 H 640.515 -1.58366 -0.336436 0
M  V30 6433 H 642.507 -2.27664 -3.34591 0
M  V30 6434 H 641.077 -1.35538 -2.81688 0
M  V30 6435 H 640.297 -3.56598 -1.68023 0
M  V30 6436 H 641.585 -4.38396 -2.58238 0
M  V30 6437 H 640.983 -2.44258 -5.10249 0
M  V30 6438 H 639.54 -3.15611 -5.70292 0
M  V30 6439 N 642.974 0.416227 -1.52004 0
M  V30 6440 C 643.922 1.5272 -1.7544 0
M  V30 6441 C 644.916 1.57596 -0.621289 0
M  V30 6442 O 646.122 1.61087 -0.803172 0
M  V30 6443 H 642.497 0.507772 -0.554682 0
M  V30 6444 H 644.468 1.30136 -2.68528 0
M  V30 6445 C 643.217 2.90165 -1.91571 0
M  V30 6446 H 642.54 2.87154 -2.78178 0
M  V30 6447 H 643.98 3.67211 -2.11972 0
M  V30 6448 C 642.439 3.29947 -0.680942 0
M  V30 6449 O 642.969 4.01403 0.154527 0
M  V30 6450 N 641.175 2.8593 -0.518894 0
M  V30 6451 H 640.722 2.2795 -1.19986 0
M  V30 6452 H 640.68 3.12907 0.305985 0
M  V30 6453 N 644.452 1.42507 0.673017 0
M  V30 6454 C 645.868 1.25472 0.986355 0
M  V30 6455 C 646.068 0.160181 2.00862 0
M  V30 6456 O 645.124 -0.467993 2.48125 0
M  V30 6457 C 646.437 2.61219 1.48947 0
M  V30 6458 C 647.985 2.68589 1.60715 0
M  V30 6459 C 648.46 4.04707 2.14422 0
M  V30 6460 N 649.951 4.0667 2.21752 0
M  V30 6461 C 650.686 5.0881 2.64386 0
M  V30 6462 N 650.182 6.21332 3.0646 0
M  V30 6463 N 651.975 4.96166 2.64151 0
M  V30 6464 H 644.126 2.124 -0.00378532 0
M  V30 6465 H 646.389 0.946046 0.0608367 0
M  V30 6466 H 646.095 3.42179 0.812812 0
M  V30 6467 H 645.969 2.85261 2.46791 0
M  V30 6468 H 648.356 1.87974 2.27486 0
M  V30 6469 H 648.437 2.48333 0.613552 0
M  V30 6470 H 648.081 4.8578 1.48258 0
M  V30 6471 H 648.011 4.22315 3.14575 0
M  V30 6472 H 650.502 3.25438 1.92089 0
M  V30 6473 H 650.815 6.95118 3.37684 0
M  V30 6474 H 649.16 6.24835 3.04313 0
M  V30 6475 H 652.351 4.07334 2.30644 0
M  V30 6476 H 652.524 5.759 2.97057 0
M  V30 6477 N 645.93 -0.909495 1.28709 0
M  V30 6478 C 647.179 -1.65365 1.15487 0
M  V30 6479 C 647.492 -1.93364 -0.294941 0
M  V30 6480 O 648.698 -2.65905 -0.548338 0
M  V30 6481 C 647.154 -2.97923 2.01916 0
M  V30 6482 C 646.762 -2.77556 3.51663 0
M  V30 6483 C 648.506 -3.75814 1.97393 0
M  V30 6484 C 646.413 -4.0578 4.30229 0
M  V30 6485 H 645.343 -0.620323 0.42862 0
M  V30 6486 H 647.994 -1.00894 1.53273 0
M  V30 6487 H 646.376 -3.63552 1.5699 0
M  V30 6488 H 647.55 -2.2058 4.04575 0
M  V30 6489 H 645.865 -2.13072 3.57756 0
M  V30 6490 H 648.462 -4.70866 2.53357 0
M  V30 6491 H 648.805 -4.05277 0.951643 0
M  V30 6492 H 649.338 -3.1701 2.40311 0
M  V30 6493 H 646.077 -3.81488 5.33055 0
M  V30 6494 H 645.597 -4.62351 3.82089 0
M  V30 6495 H 647.276 -4.74004 4.40374 0
M  V30 6496 N 647.408 -1.11026 -1.11852 0
M  V30 6497 C 648.636 -0.878818 -1.87308 0
M  V30 6498 C 649.051 0.57111 -1.79955 0
M  V30 6499 O 648.408 1.39409 -1.17777 0
M  V30 6500 C 648.459 -1.3264 -3.36287 0
M  V30 6501 O 648.18 -2.71948 -3.43476 0
M  V30 6502 C 649.681 -1.12974 -4.28663 0
M  V30 6503 H 646.901 -0.315015 -0.592458 0
M  V30 6504 H 649.445 -1.47649 -1.41492 0
M  V30 6505 H 647.6 -0.772269 -3.79625 0
M  V30 6506 H 648.014 -2.91241 -4.3621 0
M  V30 6507 H 649.488 -1.49198 -5.31454 0
M  V30 6508 H 649.965 -0.0689127 -4.39146 0
M  V30 6509 H 650.571 -1.67064 -3.91113 0
M  V30 6510 N 648.886 1.2938 -0.899927 0
M  V30 6511 C 650.132 1.9584 -0.526742 0
M  V30 6512 C 650.465 1.70774 0.924651 0
M  V30 6513 O 649.74 1.02084 1.65557 0
M  V30 6514 C 650.023 3.50638 -0.820062 0
M  V30 6515 C 649.876 3.85161 -2.32317 0
M  V30 6516 C 651.195 4.3903 -0.30671 0
M  V30 6517 H 648.314 0.711322 -0.192848 0
M  V30 6518 H 650.956 1.52992 -1.12665 0
M  V30 6519 H 649.106 3.87265 -0.309491 0
M  V30 6520 H 650.778 3.58477 -2.9033 0
M  V30 6521 H 649.021 3.32696 -2.78381 0
M  V30 6522 H 649.692 4.93204 -2.47898 0
M  V30 6523 H 652.168 4.09396 -0.743908 0
M  V30 6524 H 651.044 5.46226 -0.541144 0
M  V30 6525 H 651.305 4.34937 0.792588 0
M  V30 6526 N 650.364 0.662433 1.43002 0
M  V30 6527 C 651.312 -0.035345 2.32573 0
M  V30 6528 C 652.306 -0.803505 1.49131 0
M  V30 6529 O 653.512 -0.712865 1.65282 0
M  V30 6530 H 649.887 -0.0302194 0.751393 0
M  V30 6531 H 651.858 0.737686 2.89138 0
M  V30 6532 C 650.607 -0.981575 3.33557 0
M  V30 6533 H 649.93 -0.399914 3.97795 0
M  V30 6534 H 651.37 -1.43873 3.98844 0
M  V30 6535 C 649.829 -2.08204 2.64863 0
M  V30 6536 O 650.359 -3.16698 2.47113 0
M  V30 6537 N 648.565 -1.85022 2.24088 0
M  V30 6538 H 648.112 -0.967909 2.38724 0
M  V30 6539 H 648.07 -2.58845 1.78457 0
M  V30 6540 N 651.842 -1.52309 0.404946 0
M  V30 6541 C 652.752 -2.30634 -0.429555 0
M  V30 6542 C 653.768 -1.38187 -1.05737 0
M  V30 6543 O 654.944 -1.71261 -1.05979 0
M  V30 6544 C 652.009 -3.10947 -1.53339 0
M  V30 6545 C 651.07 -4.19126 -0.929065 0
M  V30 6546 C 650.303 -4.95601 -1.9803 0
M  V30 6547 O 650.526 -4.72331 -3.1978 0
M  V30 6548 O 649.46 -5.80551 -1.58886 0
M  V30 6549 H 653.286 -3.0298 0.208963 0
M  V30 6550 H 650.871 -1.4845 0.168255 0
M  V30 6551 H 652.753 -3.60974 -2.1743 0
M  V30 6552 H 651.428 -2.41399 -2.15658 0
M  V30 6553 H 650.335 -3.73257 -0.250982 0
M  V30 6554 H 651.668 -4.90955 -0.349855 0
M  V30 6555 N 653.32 -0.135238 -1.57019 0
M  V30 6556 C 654.25 0.805235 -2.19176 0
M  V30 6557 C 655.231 1.2656 -1.13651 0
M  V30 6558 O 656.416 1.32528 -1.4195 0
M  V30 6559 C 653.546 2.04914 -2.80406 0
M  V30 6560 C 652.5 1.72598 -3.91655 0
M  V30 6561 C 651.826 3.04154 -4.39766 0
M  V30 6562 C 653.126 0.981709 -5.12991 0
M  V30 6563 H 654.82 0.287232 -2.98019 0
M  V30 6564 H 652.366 0.136714 -1.4335 0
M  V30 6565 H 654.319 2.71178 -3.22553 0
M  V30 6566 H 653.043 2.59067 -1.98877 0
M  V30 6567 H 651.702 1.08717 -3.50109 0
M  V30 6568 H 651.35 3.56274 -3.55075 0
M  V30 6569 H 651.05 2.83299 -5.14796 0
M  V30 6570 H 652.574 3.71509 -4.84576 0
M  V30 6571 H 653.988 1.5462 -5.52056 0
M  V30 6572 H 652.385 0.873533 -5.93708 0
M  V30 6573 H 653.455 -0.0286887 -4.84892 0
M  V30 6574 N 654.798 1.5699 0.138552 0
M  V30 6575 C 655.761 1.97984 1.15478 0
M  V30 6576 C 656.761 0.867416 1.35398 0
M  V30 6577 O 657.951 1.13387 1.32246 0
M  V30 6578 C 655.083 2.3031 2.51337 0
M  V30 6579 H 656.276 2.88953 0.802896 0
M  V30 6580 H 653.829 1.51555 0.382189 0
M  V30 6581 H 654.564 1.42159 2.91481 0
M  V30 6582 H 654.349 3.11425 2.38237 0
M  V30 6583 H 655.839 2.62834 3.24512 0
M  V30 6584 N 656.276 -0.40816 1.52223 0
M  V30 6585 C 657.208 -1.51642 1.71864 0
M  V30 6586 C 658.221 -1.51378 0.599056 0
M  V30 6587 O 659.41 -1.55626 0.874239 0
M  V30 6588 C 656.51 -2.90534 1.74481 0
M  V30 6589 C 655.683 -3.14979 3.03491 0
M  V30 6590 C 654.742 -4.33749 2.97907 0
M  V30 6591 O 653.768 -4.30982 3.71811 0
M  V30 6592 N 654.97 -5.38912 2.15764 0
M  V30 6593 H 657.735 -1.35188 2.67478 0
M  V30 6594 H 655.296 -0.597468 1.50472 0
M  V30 6595 H 657.288 -3.68056 1.68275 0
M  V30 6596 H 655.858 -3.00441 0.863363 0
M  V30 6597 H 655.078 -2.25492 3.23337 0
M  V30 6598 H 656.366 -3.28156 3.88833 0
M  V30 6599 H 655.764 -5.44008 1.55152 0
M  V30 6600 H 654.321 -6.15174 2.15415 0
M  V30 6601 N 657.755 -1.42862 -0.66545 0
M  V30 6602 C 658.983 -1.47246 -1.45349 0
M  V30 6603 C 659.398 -0.0865944 -1.88601 0
M  V30 6604 O 658.755 0.900652 -1.58728 0
M  V30 6605 C 658.806 -2.40772 -2.6965 0
M  V30 6606 O 658.527 -3.73968 -2.2821 0
M  V30 6607 C 660.028 -2.54272 -3.63126 0
M  V30 6608 H 657.248 -0.500497 -0.446927 0
M  V30 6609 H 659.792 -1.87477 -0.816871 0
M  V30 6610 H 657.947 -2.0377 -3.29479 0
M  V30 6611 H 658.361 -4.24146 -3.08546 0
M  V30 6612 H 659.835 -3.23815 -4.47043 0
M  V30 6613 H 660.312 -1.58364 -4.09656 0
M  V30 6614 H 660.918 -2.92036 -3.09185 0
M  V30 6615 N 659.233 0.902656 -1.29189 0
M  V30 6616 C 660.163 2.02294 -1.16616 0
M  V30 6617 C 661.144 1.6999 -0.0611175 0
M  V30 6618 O 662.329 1.9271 -0.240072 0
M  V30 6619 C 659.459 3.37018 -0.83882 0
M  V30 6620 C 658.413 3.83522 -1.89986 0
M  V30 6621 C 657.739 5.15337 -1.42589 0
M  V30 6622 C 659.039 4.04169 -3.30824 0
M  V30 6623 H 660.733 2.13071 -2.10336 0
M  V30 6624 H 658.279 1.02378 -1.01266 0
M  V30 6625 H 660.232 4.14895 -0.737584 0
M  V30 6626 H 658.956 3.26325 0.134071 0
M  V30 6627 H 657.615 3.07859 -1.99043 0
M  V30 6628 H 657.263 5.01056 -0.441759 0
M  V30 6629 H 656.963 5.47423 -2.13547 0
M  V30 6630 H 658.487 5.95758 -1.3381 0
M  V30 6631 H 659.901 4.72537 -3.24626 0
M  V30 6632 H 658.298 4.47604 -3.99713 0
M  V30 6633 H 659.368 3.08604 -3.74021 0
M  V30 6634 N 660.711 1.11618 1.11262 0
M  V30 6635 C 661.674 0.779447 2.15539 0
M  V30 6636 C 662.674 -0.202081 1.59525 0
M  V30 6637 O 663.864 0.0226356 1.74185 0
M  V30 6638 C 660.996 0.15674 3.40539 0
M  V30 6639 H 662.189 1.70324 2.4684 0
M  V30 6640 H 659.742 0.918298 1.26479 0
M  V30 6641 H 660.477 -0.777186 3.1485 0
M  V30 6642 H 660.262 0.863308 3.82478 0
M  V30 6643 H 661.752 -0.062661 4.17553 0
M  V30 6644 N 662.189 -1.289 0.906776 0
M  V30 6645 C 663.435 -1.95558 0.53712 0
M  V30 6646 C 663.768 -1.71262 -0.915582 0
M  V30 6647 O 663.043 -1.02961 -1.65013 0
M  V30 6648 C 663.326 -3.50198 0.838645 0
M  V30 6649 C 663.179 -3.83923 2.34357 0
M  V30 6650 C 664.498 -4.38861 0.329988 0
M  V30 6651 H 661.617 -0.710289 0.196617 0
M  V30 6652 H 664.259 -1.52392 1.13475 0
M  V30 6653 H 662.409 -3.87096 0.330024 0
M  V30 6654 H 664.081 -3.56933 2.92227 0
M  V30 6655 H 662.324 -3.31215 2.80141 0
M  V30 6656 H 662.995 -4.91883 2.5051 0
M  V30 6657 H 665.471 -4.08996 0.765609 0
M  V30 6658 H 664.347 -5.45931 0.570105 0
M  V30 6659 H 664.608 -4.35352 -0.769511 0
M  V30 6660 N 663.667 -0.670007 -1.42649 0
M  V30 6661 C 664.897 -0.198252 -2.05647 0
M  V30 6662 C 665.305 1.14786 -1.50402 0
M  V30 6663 O 664.648 1.72316 -0.636634 0
M  V30 6664 C 664.71 -0.0507132 -3.59464 0
M  V30 6665 C 664.374 -1.32478 -4.37377 0
M  V30 6666 C 665.371 -2.2572 -4.68344 0
M  V30 6667 C 663.056 -1.57104 -4.77099 0
M  V30 6668 C 665.05 -3.4187 -5.37963 0
M  V30 6669 C 662.737 -2.73543 -5.46459 0
M  V30 6670 C 663.735 -3.65751 -5.76815 0
M  V30 6671 O 663.423 -4.80154 -6.44753 0
M  V30 6672 H 663.155 -0.0950721 -0.669281 0
M  V30 6673 H 665.709 -0.915745 -1.83857 0
M  V30 6674 H 663.939 0.722314 -3.79894 0
M  V30 6675 H 665.628 0.380552 -4.04112 0
M  V30 6676 H 666.394 -2.07943 -4.38161 0
M  V30 6677 H 662.273 -0.862069 -4.52868 0
M  V30 6678 H 665.817 -4.13861 -5.61574 0
M  V30 6679 H 661.714 -2.91248 -5.7606 0
M  V30 6680 H 662.482 -4.79637 -6.63243 0
M  V30 6681 N 665.145 1.52092 -0.413018 0
M  V30 6682 C 666.556 1.86617 0.0556967 0
M  V30 6683 C 666.907 1.33156 1.44097 0
M  V30 6684 O 666.032 0.672417 2.05688 0
M  V30 6685 C 666.627 3.38628 0.107844 0
M  V30 6686 C 665.186 3.72778 0.520904 0
M  V30 6687 C 664.333 2.75649 -0.302109 0
M  V30 6688 H 667.284 1.45663 -0.629919 0
M  V30 6689 H 667.305 3.69152 0.922324 0
M  V30 6690 H 666.817 3.77508 -0.900506 0
M  V30 6691 H 664.918 3.39478 1.53575 0
M  V30 6692 H 665.031 4.7838 0.262591 0
M  V30 6693 H 663.395 2.53603 0.236115 0
M  V30 6694 H 664.178 3.17369 -1.30888 0
M  V30 6695 N 666.623 0.143563 1.56945 0
M  V30 6696 C 667.848 -0.518701 2.00809 0
M  V30 6697 C 668.273 -1.5785 1.02298 0
M  V30 6698 O 667.631 -1.813 -0.0017839 0
M  V30 6699 C 667.679 -1.09929 3.43436 0
M  V30 6700 O 666.783 -2.21425 3.47915 0
M  V30 6701 H 666.124 -0.127215 0.6517 0
M  V30 6702 H 668.654 0.239283 2.03196 0
M  V30 6703 H 668.664 -1.4288 3.82164 0
M  V30 6704 H 667.339 -0.323162 4.14643 0
M  V30 6705 H 665.916 -1.89728 3.21026 0
M  V30 6706 N 668.101 -1.57061 -0.130224 0
M  V30 6707 C 669.031 -2.02552 -1.16168 0
M  V30 6708 C 670.012 -0.907971 -1.4384 0
M  V30 6709 O 671.197 -1.17693 -1.54473 0
M  V30 6710 C 668.327 -2.42035 -2.49071 0
M  V30 6711 C 667.281 -3.5713 -2.35886 0
M  V30 6712 C 666.607 -3.82478 -3.7365 0
M  V30 6713 C 667.907 -4.89236 -1.8288 0
M  V30 6714 H 669.601 -2.8897 -0.783359 0
M  V30 6715 H 667.147 -1.39021 -0.375376 0
M  V30 6716 H 669.1 -2.72462 -3.21469 0
M  V30 6717 H 667.824 -1.52573 -2.88771 0
M  V30 6718 H 666.483 -3.26895 -1.65938 0
M  V30 6719 H 666.131 -2.9024 -4.10816 0
M  V30 6720 H 665.831 -4.59944 -3.65685 0
M  V30 6721 H 667.355 -4.15347 -4.47571 0
M  V30 6722 H 668.769 -5.18272 -2.45085 0
M  V30 6723 H 667.166 -5.70624 -1.85763 0
M  V30 6724 H 668.236 -4.78494 -0.785571 0
M  V30 6725 N 669.579 0.400081 -1.52437 0
M  V30 6726 C 670.804 1.17221 -1.71096 0
M  V30 6727 C 671.229 1.83269 -0.423565 0
M  V30 6728 O 670.587 1.70378 0.619751 0
M  V30 6729 C 670.635 2.20425 -2.85386 0
M  V30 6730 O 669.739 3.26769 -2.51586 0
M  V30 6731 H 669.08 0.341766 -0.569291 0
M  V30 6732 H 671.61 0.467772 -1.99181 0
M  V30 6733 H 671.62 2.64605 -3.10561 0
M  V30 6734 H 670.295 1.71737 -3.78786 0
M  V30 6735 H 668.872 2.87804 -2.37114 0
M  V30 6736 N 671.057 1.43213 0.657864 0
M  V30 6737 C 672.305 1.44298 1.41501 0
M  V30 6738 C 672.626 0.0666478 1.94886 0
M  V30 6739 O 671.896 -0.897345 1.74139 0
M  V30 6740 H 670.476 0.531257 0.525143 0
M  V30 6741 H 673.138 1.78777 0.776195 0
M  V30 6742 H 672.234 2.1528 2.25966 0
M  V30 6743 N 672.536 -0.895792 1.29666 0
M  V30 6744 C 673.761 -1.68528 1.20885 0
M  V30 6745 C 674.186 -1.8673 -0.226595 0
M  V30 6746 O 673.544 -1.39044 -1.16347 0
M  V30 6747 C 673.592 -3.04512 1.93144 0
M  V30 6748 O 672.696 -3.92963 1.25115 0
M  V30 6749 H 672.037 -0.515371 0.418675 0
M  V30 6750 H 674.567 -1.11878 1.71302 0
M  V30 6751 H 674.577 -3.54628 2.0175 0
M  V30 6752 H 673.252 -2.90582 2.97548 0
M  V30 6753 H 671.829 -3.51399 1.24794 0
M  V30 6754 N 674.014 -1.12206 -1.10668 0
M  V30 6755 C 675.263 -0.870595 -1.81944 0
M  V30 6756 C 675.576 0.605447 -1.85994 0
M  V30 6757 O 676.782 0.973433 -2.53449 0
M  V30 6758 C 675.238 -1.50783 -3.26791 0
M  V30 6759 C 674.846 -3.01849 -3.31046 0
M  V30 6760 C 676.59 -1.33653 -4.02911 0
M  V30 6761 C 674.497 -3.58518 -4.70339 0
M  V30 6762 H 673.427 -0.322043 -0.681765 0
M  V30 6763 H 676.078 -1.34827 -1.24475 0
M  V30 6764 H 674.46 -0.957825 -3.84242 0
M  V30 6765 H 675.634 -3.63321 -2.83433 0
M  V30 6766 H 673.949 -3.18346 -2.68411 0
M  V30 6767 H 676.546 -1.73416 -5.05797 0
M  V30 6768 H 676.889 -0.279949 -4.15358 0
M  V30 6769 H 677.422 -1.85562 -3.51868 0
M  V30 6770 H 674.161 -4.63925 -4.63091 0
M  V30 6771 H 673.681 -3.01819 -5.18329 0
M  V30 6772 H 675.36 -3.57434 -5.39305 0
M  V30 6773 N 675.492 1.28418 -0.913599 0
M  V30 6774 C 676.72 1.99106 -0.562536 0
M  V30 6775 C 677.135 1.68273 0.856137 0
M  V30 6776 O 676.492 0.935401 1.56705 0
M  V30 6777 C 676.543 3.5338 -0.761903 0
M  V30 6778 O 676.264 3.83127 -2.12475 0
M  V30 6779 C 677.765 4.41328 -0.417651 0
M  V30 6780 H 674.985 0.635798 -0.214481 0
M  V30 6781 H 677.529 1.63618 -1.22676 0
M  V30 6782 H 675.684 3.8713 -0.144676 0
M  V30 6783 H 676.098 4.77763 -2.16431 0
M  V30 6784 H 677.572 5.48642 -0.607919 0
M  V30 6785 H 678.049 4.34422 0.646108 0
M  V30 6786 H 678.655 4.13074 -1.01241 0
M  V30 6787 N 676.97 0.677563 1.42291 0
M  V30 6788 C 677.88 0.000962654 2.346 0
M  V30 6789 C 678.896 -0.785833 1.55244 0
M  V30 6790 O 680.072 -0.727523 1.87801 0
M  V30 6791 C 677.137 -0.936746 3.33805 0
M  V30 6792 C 676.198 -0.144173 4.29058 0
M  V30 6793 C 675.431 -1.03722 5.23524 0
M  V30 6794 O 675.654 -2.27675 5.22992 0
M  V30 6795 O 674.588 -0.496542 5.99848 0
M  V30 6796 H 678.414 0.761397 2.94001 0
M  V30 6797 H 675.999 0.43781 1.42841 0
M  V30 6798 H 677.881 -1.47497 3.94744 0
M  V30 6799 H 676.556 -1.67698 2.76874 0
M  V30 6800 H 675.463 0.438224 3.71524 0
M  V30 6801 H 676.796 0.55701 4.89038 0
M  V30 6802 N 678.448 -1.51871 0.421078 0
M  V30 6803 C 679.411 -2.25914 -0.386712 0
M  V30 6804 C 680.411 -1.28733 -0.963555 0
M  V30 6805 O 681.601 -1.52579 -0.840556 0
M  V30 6806 C 678.733 -3.03853 -1.54551 0
M  V30 6807 H 679.926 -2.98754 0.261978 0
M  V30 6808 H 677.479 -1.5533 0.173862 0
M  V30 6809 H 678.214 -2.35392 -2.23072 0
M  V30 6810 H 677.999 -3.75215 -1.13824 0
M  V30 6811 H 679.489 -3.59984 -2.11663 0
M  V30 6812 N 679.926 -0.151884 -1.56866 0
M  V30 6813 C 680.889 0.771861 -2.15812 0
M  V30 6814 C 681.889 1.17181 -1.10115 0
M  V30 6815 O 683.079 1.09194 -1.35729 0
M  V30 6816 C 680.211 2.04806 -2.7252 0
M  V30 6817 H 681.404 0.259021 -2.98779 0
M  V30 6818 H 678.957 0.097588 -1.55995 0
M  V30 6819 H 679.692 2.60445 -1.93233 0
M  V30 6820 H 679.477 1.77044 -3.49854 0
M  V30 6821 H 680.967 2.70771 -3.1792 0
M  V30 6822 N 681.404 1.57128 0.121893 0
M  V30 6823 C 682.82 1.52357 0.47534 0
M  V30 6824 C 683.02 0.864417 1.82017 0
M  V30 6825 O 682.076 0.445529 2.48538 0
M  V30 6826 C 683.389 2.97122 0.4625 0
M  V30 6827 C 684.937 3.08196 0.546255 0
M  V30 6828 C 685.412 4.54516 0.563833 0
M  V30 6829 N 686.903 4.58959 0.625353 0
M  V30 6830 C 687.638 5.69585 0.660354 0
M  V30 6831 N 687.134 6.89714 0.653175 0
M  V30 6832 N 688.927 5.57685 0.703143 0
M  V30 6833 H 681.078 1.98364 -0.75931 0
M  V30 6834 H 683.341 0.905777 -0.279772 0
M  V30 6835 H 683.047 3.48706 -0.457943 0
M  V30 6836 H 682.921 3.54406 1.29136 0
M  V30 6837 H 685.308 2.56617 1.45712 0
M  V30 6838 H 685.389 2.53912 -0.310234 0
M  V30 6839 H 685.033 5.06741 -0.342974 0
M  V30 6840 H 684.963 5.06609 1.43716 0
M  V30 6841 H 687.454 3.72489 0.637182 0
M  V30 6842 H 687.767 7.69781 0.682425 0
M  V30 6843 H 686.112 6.92223 0.620646 0
M  V30 6844 H 689.303 4.62744 0.706095 0
M  V30 6845 H 689.476 6.43909 0.726952 0
M  V30 6846 N 682.882 -0.391992 1.52647 0
M  V30 6847 C 684.298 -0.731848 1.41831 0
M  V30 6848 C 684.498 -1.9423 0.536361 0
M  V30 6849 O 683.554 -2.52499 0.00866571 0
M  V30 6850 C 684.867 -0.969743 2.84634 0
M  V30 6851 C 686.415 -1.0714 2.94092 0
M  V30 6852 C 686.89 -1.34195 4.37899 0
M  V30 6853 N 688.381 -1.41023 4.41211 0
M  V30 6854 C 689.116 -1.63616 5.49561 0
M  V30 6855 N 688.612 -1.83699 6.68002 0
M  V30 6856 N 690.405 -1.65771 5.371 0
M  V30 6857 H 682.556 0.404547 2.08512 0
M  V30 6858 H 684.819 0.11879 0.940528 0
M  V30 6859 H 684.525 -0.152465 3.51369 0
M  V30 6860 H 684.399 -1.88523 3.26709 0
M  V30 6861 H 686.786 -1.87925 2.27526 0
M  V30 6862 H 686.867 -0.133887 2.55449 0
M  V30 6863 H 686.511 -0.539207 5.0503 0
M  V30 6864 H 686.441 -2.29226 4.74092 0
M  V30 6865 H 688.932 -1.27223 3.55841 0
M  V30 6866 H 689.245 -2.00437 7.46354 0
M  V30 6867 H 687.59 -1.8093 6.71036 0
M  V30 6868 H 690.781 -1.4963 4.43541 0
M  V30 6869 H 690.954 -1.83038 6.21612 0
M  V30 6870 N 684.36 -1.4356 -0.65026 0
M  V30 6871 C 685.29 -1.51758 -1.77459 0
M  V30 6872 C 686.271 -0.372019 -1.65982 0
M  V30 6873 O 687.456 -0.589627 -1.85033 0
M  V30 6874 C 684.586 -1.44302 -3.15902 0
M  V30 6875 C 683.54 -2.57138 -3.42146 0
M  V30 6876 C 682.866 -2.34735 -4.8042 0
M  V30 6877 C 684.166 -3.99373 -3.36598 0
M  V30 6878 H 685.86 -2.45863 -1.70855 0
M  V30 6879 H 683.406 -1.18333 -0.820566 0
M  V30 6880 H 685.359 -1.48641 -3.94314 0
M  V30 6881 H 684.083 -0.467026 -3.23244 0
M  V30 6882 H 682.742 -2.52157 -2.66106 0
M  V30 6883 H 682.39 -1.35372 -4.84441 0
M  V30 6884 H 682.09 -3.10375 -4.9894 0
M  V30 6885 H 683.614 -2.40862 -5.61086 0
M  V30 6886 H 685.028 -4.05826 -4.04942 0
M  V30 6887 H 683.425 -4.75063 -3.66654 0
M  V30 6888 H 684.495 -4.243 -2.34729 0
M  V30 6889 N 685.838 0.888903 -1.30139 0
M  V30 6890 C 686.771 1.99655 -1.10514 0
M  V30 6891 C 687.749 1.62594 -0.0138934 0
M  V30 6892 O 688.933 1.87762 -0.166689 0
M  V30 6893 C 686.06 3.31708 -0.684655 0
M  V30 6894 C 685.106 3.87755 -1.77619 0
M  V30 6895 S 685.939 4.15532 -3.37777 0
M  V30 6896 C 687.095 5.5061 -2.97622 0
M  V30 6897 H 687.328 2.15996 -2.04287 0
M  V30 6898 H 684.861 1.03682 -1.14409 0
M  V30 6899 H 686.819 4.08039 -0.448782 0
M  V30 6900 H 685.48 3.1323 0.233648 0
M  V30 6901 H 684.673 4.83164 -1.43417 0
M  V30 6902 H 684.275 3.18149 -1.96614 0
M  V30 6903 H 686.567 6.31518 -2.45338 0
M  V30 6904 H 687.51 5.89747 -3.91924 0
M  V30 6905 H 687.918 5.12983 -2.35603 0
M  V30 6906 N 687.317 1.12792 1.10072 0
M  V30 6907 C 688.28 0.802264 2.14701 0
M  V30 6908 C 689.28 -0.18515 1.59731 0
M  V30 6909 O 690.47 0.041109 1.74151 0
M  V30 6910 C 687.602 0.19285 3.40354 0
M  V30 6911 H 688.795 1.72932 2.45019 0
M  V30 6912 H 686.348 0.931662 1.25498 0
M  V30 6913 H 687.083 -0.743748 3.15656 0
M  V30 6914 H 686.868 0.903827 3.81541 0
M  V30 6915 H 688.358 -0.0183704 4.17596 0
M  V30 6916 N 688.795 -1.27931 0.920396 0
M  V30 6917 C 689.745 -2.24727 0.384966 0
M  V30 6918 C 690.729 -1.52715 -0.506661 0
M  V30 6919 O 691.921 -1.73599 -0.345298 0
M  V30 6920 C 689.05 -3.41324 -0.3678 0
M  V30 6921 C 688.136 -4.20649 0.539925 0
M  V30 6922 N 688.527 -4.77906 1.6565 0
M  V30 6923 C 686.825 -4.4469 0.341557 0
M  V30 6924 C 687.526 -5.37652 2.22047 0
M  V30 6925 N 686.502 -5.2218 1.51093 0
M  V30 6926 H 690.304 -2.66572 1.23761 0
M  V30 6927 H 687.818 -1.42779 0.773819 0
M  V30 6928 H 689.815 -4.0976 -0.768277 0
M  V30 6929 H 688.475 -3.01012 -1.21746 0
M  V30 6930 H 689.486 -4.76073 2.03899 0
M  V30 6931 H 686.163 -4.14868 -0.468045 0
M  V30 6932 H 687.553 -5.92948 3.1601 0
M  V30 6933 N 690.273 -0.685099 -1.4193 0
M  V30 6934 C 691.55 -0.140152 -1.95097 0
M  V30 6935 C 691.93 1.34745 -1.62502 0
M  V30 6936 O 691.278 2.08872 -0.926534 0
M  V30 6937 C 691.488 -0.420268 -3.4646 0
M  V30 6938 C 692.836 -0.342338 -4.23218 0
M  V30 6939 O 693.86 -0.354592 -3.54431 0
M  V30 6940 O 692.719 -0.293404 -5.45712 0
M  V30 6941 H 689.813 -0.00885998 -0.826953 0
M  V30 6942 H 692.359 -0.760539 -1.51703 0
M  V30 6943 H 691.131 -1.45037 -3.63428 0
M  V30 6944 H 690.754 0.231616 -3.96925 0
M  V30 6945 N 691.751 1.51645 -0.429126 0
M  V30 6946 C 693.028 1.94579 0.199614 0
M  V30 6947 C 693.408 1.3673 1.60836 0
M  V30 6948 O 692.756 0.551062 2.21756 0
M  V30 6949 C 692.966 3.48506 0.185685 0
M  V30 6950 C 694.314 4.22756 0.395282 0
M  V30 6951 O 695.338 3.55219 0.264165 0
M  V30 6952 O 694.197 5.42555 0.655475 0
M  V30 6953 H 691.291 0.816007 0.134393 0
M  V30 6954 H 693.837 1.62577 -0.486513 0
M  V30 6955 H 692.609 3.83045 -0.799508 0
M  V30 6956 H 692.232 3.86927 0.91507 0
M  V30 6957 N 693.229 0.160201 1.56784 0
M  V30 6958 C 694.159 -0.770264 2.2043 0
M  V30 6959 C 695.14 -1.24736 1.15651 0
M  V30 6960 O 696.325 -1.30253 1.44041 0
M  V30 6961 C 693.455 -2.00427 2.83631 0
M  V30 6962 C 692.409 -1.66345 3.94352 0
M  V30 6963 C 691.735 -2.97119 4.4455 0
M  V30 6964 C 693.035 -0.899972 5.14488 0
M  V30 6965 H 694.729 -0.239783 2.98438 0
M  V30 6966 H 692.275 -0.113891 1.43549 0
M  V30 6967 H 694.228 -2.66012 3.26827 0
M  V30 6968 H 692.952 -2.5587 2.02973 0
M  V30 6969 H 691.611 -1.03133 3.51794 0
M  V30 6970 H 691.259 -3.5058 3.60698 0
M  V30 6971 H 690.959 -2.75073 5.19238 0
M  V30 6972 H 692.483 -3.63753 4.90425 0
M  V30 6973 H 693.897 -1.45818 5.54446 0
M  V30 6974 H 692.294 -0.778968 5.95023 0
M  V30 6975 H 693.364 0.105827 4.84785 0
M  V30 6976 N 694.707 -1.5719 -0.113559 0
M  V30 6977 C 695.984 -1.76117 -0.850999 0
M  V30 6978 C 696.364 -0.737085 -1.97814 0
M  V30 6979 O 695.712 0.237942 -2.27258 0
M  V30 6980 C 695.922 -3.21298 -1.36266 0
M  V30 6981 C 697.27 -3.83955 -1.81283 0
M  V30 6982 O 698.294 -3.24934 -1.45933 0
M  V30 6983 O 697.153 -4.87707 -2.46585 0
M  V30 6984 H 694.247 -0.721308 -0.404529 0
M  V30 6985 H 696.793 -1.69423 -0.0968756 0
M  V30 6986 H 695.565 -3.87355 -0.554235 0
M  V30 6987 H 695.188 -3.32552 -2.17933 0
M  V30 6988 N 696.185 0.383891 -1.52853 0
M  V30 6989 C 697.425 1.13731 -1.69837 0
M  V30 6990 C 697.789 1.87086 -0.431611 0
M  V30 6991 O 698.99 2.64518 -0.477886 0
M  V30 6992 C 697.261 2.08551 -2.90243 0
M  V30 6993 S 698.82 2.9166 -3.27841 0
M  V30 6994 H 695.638 0.384911 -0.5978 0
M  V30 6995 H 698.24 0.42103 -1.90913 0
M  V30 6996 H 696.944 1.53392 -3.80656 0
M  V30 6997 H 696.475 2.8468 -2.71516 0
M  V30 6998 H 698.49 4.10723 -2.78426 0
M  V30 6999 N 697.663 1.43903 0.642637 0
M  V30 7000 C 698.891 1.4954 1.42988 0
M  V30 7001 C 699.306 0.116588 1.8844 0
M  V30 7002 O 698.663 -0.875285 1.60141 0
M  V30 7003 C 698.714 2.45031 2.65785 0
M  V30 7004 O 698.435 3.77551 2.22232 0
M  V30 7005 C 699.936 2.60017 3.59035 0
M  V30 7006 H 697.156 0.507544 0.438907 0
M  V30 7007 H 699.7 1.88752 0.786942 0
M  V30 7008 H 697.855 2.08985 3.26196 0
M  V30 7009 H 698.269 4.29001 3.01759 0
M  V30 7010 H 699.743 3.30887 4.41835 0
M  V30 7011 H 700.22 1.64861 4.07084 0
M  V30 7012 H 700.826 2.96918 3.045 0
M  V30 7013 N 699.141 -0.881989 1.30609 0
M  V30 7014 C 700.104 -1.96957 1.1722 0
M  V30 7015 C 701.104 -1.60472 0.102598 0
M  V30 7016 O 702.294 -1.70628 0.350943 0
M  V30 7017 C 699.426 -3.31463 0.796572 0
M  V30 7018 H 700.619 -2.10262 2.13846 0
M  V30 7019 H 698.172 -1.06877 1.14048 0
M  V30 7020 H 698.907 -3.23859 -0.169053 0
M  V30 7021 H 698.692 -3.59314 1.56959 0
M  V30 7022 H 700.182 -4.11233 0.72645 0
M  V30 7023 N 700.619 -1.13374 -1.09472 0
M  V30 7024 C 701.582 -0.813639 -2.14272 0
M  V30 7025 C 702.582 0.176677 -1.59826 0
M  V30 7026 O 703.772 -0.0503441 -1.74127 0
M  V30 7027 C 700.904 -0.210897 -3.40247 0
M  V30 7028 H 702.097 -1.74229 -2.44099 0
M  V30 7029 H 699.65 -0.938304 -1.25002 0
M  V30 7030 H 700.385 0.726998 -3.16046 0
M  V30 7031 H 700.17 -0.924048 -3.81056 0
M  V30 7032 H 701.66 -0.00377603 -4.176 0
M  V30 7033 N 702.098 1.27442 -0.927168 0
M  V30 7034 C 703.03 2.25975 -0.383158 0
M  V30 7035 C 704.043 1.55382 0.485832 0
M  V30 7036 O 705.232 1.75986 0.298541 0
M  V30 7037 C 702.332 3.35629 0.469688 0
M  V30 7038 C 701.505 4.35747 -0.379886 0
M  V30 7039 C 700.564 5.24598 0.410227 0
M  V30 7040 O 699.59 5.68909 -0.181888 0
M  V30 7041 N 700.792 5.54737 1.71017 0
M  V30 7042 H 703.557 2.7329 -1.23015 0
M  V30 7043 H 701.118 1.41063 -0.794539 0
M  V30 7044 H 703.11 3.92015 1.00532 0
M  V30 7045 H 701.68 2.87919 1.21744 0
M  V30 7046 H 700.9 3.78634 -1.09682 0
M  V30 7047 H 702.188 4.99648 -0.960717 0
M  V30 7048 H 701.586 5.20594 2.21356 0
M  V30 7049 H 700.143 6.13824 2.19234 0
M  V30 7050 N 703.576 0.692616 1.41565 0
M  V30 7051 C 704.853 0.150496 1.9502 0
M  V30 7052 C 705.233 -1.33881 1.63215 0
M  V30 7053 O 704.581 -2.08378 0.937598 0
M  V30 7054 C 704.791 0.438636 3.46233 0
M  V30 7055 C 706.139 0.364777 4.2303 0
M  V30 7056 O 707.163 0.373383 3.54238 0
M  V30 7057 O 706.022 0.32234 5.45549 0
M  V30 7058 H 703.116 0.0132454 0.826894 0
M  V30 7059 H 705.662 0.768574 1.51298 0
M  V30 7060 H 704.434 1.46962 3.62654 0
M  V30 7061 H 704.057 -0.210562 3.97042 0
M  V30 7062 N 705.054 -1.51416 0.437162 0
M  V30 7063 C 706.017 -2.26312 -0.362729 0
M  V30 7064 C 707.017 -1.29748 -0.949847 0
M  V30 7065 O 708.207 -1.53462 -0.824325 0
M  V30 7066 C 705.339 -3.05475 -1.5132 0
M  V30 7067 H 706.532 -2.98459 0.29365 0
M  V30 7068 H 704.085 -1.55137 0.190327 0
M  V30 7069 H 704.82 -2.37744 -2.20563 0
M  V30 7070 H 704.605 -3.76401 -1.09838 0
M  V30 7071 H 706.095 -3.62209 -2.07833 0
M  V30 7072 N 706.532 -0.168513 -1.56696 0
M  V30 7073 C 707.495 0.748928 -2.16619 0
M  V30 7074 C 708.495 1.16007 -1.11351 0
M  V30 7075 O 709.685 1.07748 -1.3688 0
M  V30 7076 C 706.817 2.01904 -2.74677 0
M  V30 7077 H 708.01 0.227317 -2.99037 0
M  V30 7078 H 705.563 0.0810372 -1.5609 0
M  V30 7079 H 706.298 2.58381 -1.95985 0
M  V30 7080 H 706.083 1.73323 -3.51712 0
M  V30 7081 H 707.573 2.67383 -3.20774 0
M  V30 7082 N 708.01 1.57248 0.105221 0
M  V30 7083 C 708.92 2.04653 1.14693 0
M  V30 7084 C 709.936 0.969488 1.44489 0
M  V30 7085 O 711.112 1.28196 1.55331 0
M  V30 7086 C 708.177 2.45297 2.45011 0
M  V30 7087 C 707.238 3.67148 2.22489 0
M  V30 7088 C 706.471 4.05844 3.46592 0
M  V30 7089 O 706.694 3.44736 4.54437 0
M  V30 7090 O 705.628 4.98862 3.36779 0
M  V30 7091 H 709.454 2.93663 0.774336 0
M  V30 7092 H 707.039 1.45998 0.31701 0
M  V30 7093 H 708.921 2.72112 3.21766 0
M  V30 7094 H 707.596 1.59429 2.81717 0
M  V30 7095 H 706.503 3.45463 1.43547 0
M  V30 7096 H 707.836 4.53764 1.9068 0
M  V30 7097 N 709.488 -0.375779 1.53054 0
M  V30 7098 C 710.42 -1.47963 1.75042 0
M  V30 7099 C 711.433 -1.50073 0.631031 0
M  V30 7100 O 712.622 -1.53736 0.907052 0
M  V30 7101 C 709.722 -2.86767 1.80604 0
M  V30 7102 C 708.895 -3.08471 3.10104 0
M  V30 7103 C 707.954 -4.27332 3.07041 0
M  V30 7104 O 706.98 -4.22998 3.80869 0
M  V30 7105 N 708.182 -5.34214 2.27147 0
M  V30 7106 H 710.947 -1.29484 2.70285 0
M  V30 7107 H 708.508 -0.565416 1.51706 0
M  V30 7108 H 710.5 -3.64404 1.76045 0
M  V30 7109 H 709.07 -2.98542 0.926897 0
M  V30 7110 H 708.29 -2.18583 3.28048 0
M  V30 7111 H 709.578 -3.19834 3.95706 0
M  V30 7112 H 708.976 -5.40594 1.66656 0
M  V30 7113 H 707.533 -6.10467 2.28415 0
M  V30 7114 N 710.966 -1.44241 -0.634997 0
M  V30 7115 C 711.896 -1.53632 -1.7584 0
M  V30 7116 C 712.877 -0.389603 -1.65578 0
M  V30 7117 O 714.062 -0.609219 -1.84397 0
M  V30 7118 C 711.192 -1.47644 -3.14354 0
M  V30 7119 C 710.146 -2.60752 -3.394 0
M  V30 7120 C 709.472 -2.39817 -4.77904 0
M  V30 7121 C 710.772 -4.02921 -3.32343 0
M  V30 7122 H 712.466 -2.47662 -1.68238 0
M  V30 7123 H 710.012 -1.19197 -0.807969 0
M  V30 7124 H 711.965 -1.52815 -3.92716 0
M  V30 7125 H 710.689 -0.501284 -3.2273 0
M  V30 7126 H 709.348 -2.54965 -2.63417 0
M  V30 7127 H 708.996 -1.40502 -4.82978 0
M  V30 7128 H 708.696 -3.15649 -4.9562 0
M  V30 7129 H 710.22 -2.46799 -5.585 0
M  V30 7130 H 711.634 -4.10098 -4.00615 0
M  V30 7131 H 710.031 -4.78925 -3.61595 0
M  V30 7132 H 711.101 -4.26766 -2.30215 0
M  V30 7133 N 712.444 0.87505 -1.31075 0
M  V30 7134 C 713.407 1.96333 -1.18263 0
M  V30 7135 C 714.407 1.60416 -0.111106 0
M  V30 7136 O 715.597 1.7044 -0.359987 0
M  V30 7137 C 712.729 3.31036 -0.81414 0
M  V30 7138 H 713.922 2.09125 -2.14958 0
M  V30 7139 H 711.475 1.06271 -1.14614 0
M  V30 7140 H 712.21 3.23944 0.151875 0
M  V30 7141 H 711.995 3.58476 -1.58862 0
M  V30 7142 H 713.485 4.10842 -0.748249 0
M  V30 7143 N 713.922 1.13953 1.08869 0
M  V30 7144 C 714.852 0.844824 2.17681 0
M  V30 7145 C 715.833 -0.198213 1.68941 0
M  V30 7146 O 717.018 -0.0559073 1.9412 0
M  V30 7147 C 714.148 0.316325 3.45856 0
M  V30 7148 C 713.102 1.29426 4.07962 0
M  V30 7149 C 712.428 0.625275 5.31031 0
M  V30 7150 C 713.728 2.65484 4.49795 0
M  V30 7151 H 715.422 1.75471 2.42591 0
M  V30 7152 H 712.968 0.845116 1.16592 0
M  V30 7153 H 714.921 0.0977876 4.21287 0
M  V30 7154 H 713.645 -0.628972 3.20486 0
M  V30 7155 H 712.304 1.49889 3.34558 0
M  V30 7156 H 711.952 -0.325678 5.01945 0
M  V30 7157 H 711.652 1.27777 5.73539 0
M  V30 7158 H 713.176 0.416152 6.0918 0
M  V30 7159 H 714.59 2.48957 5.16424 0
M  V30 7160 H 712.987 3.26963 5.03205 0
M  V30 7161 H 714.057 3.22717 3.61914 0
M  V30 7162 N 715.4 -1.26948 0.933913 0
M  V30 7163 C 716.646 -1.94374 0.57848 0
M  V30 7164 C 716.979 -1.73166 -0.879048 0
M  V30 7165 O 716.254 -1.06438 -1.62792 0
M  V30 7166 C 716.537 -3.4834 0.912739 0
M  V30 7167 C 716.39 -3.78866 2.42448 0
M  V30 7168 C 717.709 -4.38062 0.423003 0
M  V30 7169 H 714.828 -0.705959 0.211639 0
M  V30 7170 H 717.47 -1.49951 1.16682 0
M  V30 7171 H 715.62 -3.86309 0.412058 0
M  V30 7172 H 717.292 -3.50654 2.99733 0
M  V30 7173 H 715.535 -3.25198 2.87104 0
M  V30 7174 H 716.206 -4.86458 2.60887 0
M  V30 7175 H 718.682 -4.0728 0.852191 0
M  V30 7176 H 717.558 -5.44599 0.685776 0
M  V30 7177 H 717.819 -4.36886 -0.676994 0
M  V30 7178 N 716.879 -0.700114 -1.41195 0
M  V30 7179 C 718.29 -0.307249 -1.84154 0
M  V30 7180 C 718.641 1.15539 -1.58572 0
M  V30 7181 O 717.766 1.88744 -1.05852 0
M  V30 7182 C 718.361 -0.550872 -3.34292 0
M  V30 7183 C 716.92 -0.211877 -3.75803 0
M  V30 7184 C 716.067 -0.830915 -2.64558 0
M  V30 7185 H 719.018 -0.900431 -1.30683 0
M  V30 7186 H 719.039 0.188954 -3.80031 0
M  V30 7187 H 718.551 -1.61548 -3.5288 0
M  V30 7188 H 716.652 0.848283 -3.62815 0
M  V30 7189 H 716.765 -0.67007 -4.74391 0
M  V30 7190 H 715.129 -0.260155 -2.53368 0
M  V30 7191 H 715.912 -1.89948 -2.85963 0
M  V30 7192 N 718.357 1.51182 -0.445186 0
M  V30 7193 C 719.307 2.24804 0.380394 0
M  V30 7194 C 720.291 1.27344 0.983482 0
M  V30 7195 O 721.483 1.52392 0.900322 0
M  V30 7196 C 718.612 3.09922 1.4766 0
M  V30 7197 C 717.698 4.14816 0.882517 0
M  V30 7198 N 718.089 5.05797 0.0183278 0
M  V30 7199 C 716.387 4.30938 1.14927 0
M  V30 7200 C 717.088 5.8084 -0.316152 0
M  V30 7201 N 716.064 5.42759 0.302214 0
M  V30 7202 H 719.866 2.92508 -0.285737 0
M  V30 7203 H 717.38 1.60342 -0.257733 0
M  V30 7204 H 719.377 3.61249 2.08098 0
M  V30 7205 H 718.037 2.43763 2.14498 0
M  V30 7206 H 719.048 5.16725 -0.348679 0
M  V30 7207 H 715.725 3.76005 1.81457 0
M  V30 7208 H 717.115 6.64115 -1.01986 0
M  V30 7209 N 719.835 0.176821 1.56605 0
M  V30 7210 C 720.785 -0.763718 2.14829 0
M  V30 7211 C 721.769 -1.18903 1.08401 0
M  V30 7212 O 722.961 -1.15048 1.3451 0
M  V30 7213 C 720.09 -1.99069 2.7969 0
M  V30 7214 C 719.176 -1.58711 3.93283 0
M  V30 7215 N 719.567 -0.893423 4.97847 0
M  V30 7216 C 717.865 -1.87774 4.04545 0
M  V30 7217 C 718.566 -0.693866 5.77547 0
M  V30 7218 N 717.542 -1.23699 5.29339 0
M  V30 7219 H 721.344 -0.224811 2.93039 0
M  V30 7220 H 718.858 -0.0236563 1.62383 0
M  V30 7221 H 720.855 -2.67478 3.19783 0
M  V30 7222 H 719.515 -2.53449 2.02962 0
M  V30 7223 H 720.526 -0.550868 5.14962 0
M  V30 7224 H 717.203 -2.43793 3.38927 0
M  V30 7225 H 718.593 -0.144899 6.71744 0
M  V30 7226 N 721.313 -1.57302 -0.09688 0
M  V30 7227 C 722.243 -2.0497 -1.11846 0
M  V30 7228 C 723.224 -0.938278 -1.41882 0
M  V30 7229 O 724.409 -1.20943 -1.51942 0
M  V30 7230 C 721.539 -2.47264 -2.43881 0
M  V30 7231 C 720.493 -3.62053 -2.28257 0
M  V30 7232 C 719.819 -3.90318 -3.65453 0
M  V30 7233 C 721.119 -4.93005 -1.72461 0
M  V30 7234 H 722.813 -2.90567 -0.721888 0
M  V30 7235 H 720.359 -1.39786 -0.345803 0
M  V30 7236 H 722.312 -2.7922 -3.15617 0
M  V30 7237 H 721.036 -1.58664 -2.8547 0
M  V30 7238 H 719.695 -3.30341 -1.58967 0
M  V30 7239 H 719.343 -2.98889 -4.04567 0
M  V30 7240 H 719.043 -4.67597 -3.55846 0
M  V30 7241 H 720.567 -4.24747 -4.3866 0
M  V30 7242 H 721.981 -5.23354 -2.34036 0
M  V30 7243 H 720.378 -5.74436 -1.73618 0
M  V30 7244 H 721.448 -4.80053 -0.683898 0
M  V30 7245 N 722.791 0.367657 -1.53252 0
M  V30 7246 C 724.202 0.944563 -1.61043 0
M  V30 7247 C 724.553 1.90325 -0.476546 0
M  V30 7248 O 723.678 2.12721 0.397333 0
M  V30 7249 C 724.273 1.71992 -2.91898 0
M  V30 7250 C 722.832 2.2462 -3.02031 0
M  V30 7251 C 721.979 1.05799 -2.56324 0
M  V30 7252 H 724.93 0.146516 -1.58022 0
M  V30 7253 H 724.951 2.58095 -2.79584 0
M  V30 7254 H 724.463 1.02192 -3.74404 0
M  V30 7255 H 722.564 2.97668 -2.24108 0
M  V30 7256 H 722.677 2.52644 -4.07073 0
M  V30 7257 H 721.041 1.42435 -2.1115 0
M  V30 7258 H 721.824 0.375008 -3.41246 0
M  V30 7259 N 724.269 1.44576 0.627338 0
M  V30 7260 C 725.497 1.51048 1.41394 0
M  V30 7261 C 725.912 0.136568 1.88305 0
M  V30 7262 O 725.269 -0.858251 1.6106 0
M  V30 7263 C 725.32 2.47837 2.63172 0
M  V30 7264 O 725.041 3.79887 2.18215 0
M  V30 7265 C 726.542 2.63811 3.56257 0
M  V30 7266 H 723.762 0.512171 0.4335 0
M  V30 7267 H 726.306 1.89576 0.766878 0
M  V30 7268 H 724.461 2.12433 3.23961 0
M  V30 7269 H 724.875 4.32177 2.97192 0
M  V30 7270 H 726.349 3.35554 4.38301 0
M  V30 7271 H 726.826 1.69169 4.05313 0
M  V30 7272 H 727.432 3.0013 3.01333 0
M  V30 7273 N 725.747 -0.868086 1.31537 0
M  V30 7274 C 726.972 -1.65926 1.24432 0
M  V30 7275 C 727.397 -1.87169 -0.186936 0
M  V30 7276 O 726.755 -1.4148 -1.13371 0
M  V30 7277 C 726.803 -3.00347 1.9956 0
M  V30 7278 O 725.907 -3.90221 1.33422 0
M  V30 7279 H 725.248 -0.506375 0.429512 0
M  V30 7280 H 727.778 -1.0822 1.73637 0
M  V30 7281 H 727.788 -3.50269 2.09226 0
M  V30 7282 H 726.463 -2.84205 3.03645 0
M  V30 7283 H 725.04 -3.48672 1.32219 0
M  V30 7284 N 727.225 -1.14528 -1.08264 0
M  V30 7285 C 728.173 -0.829201 -2.17318 0
M  V30 7286 C 729.167 0.193521 -1.68291 0
M  V30 7287 O 730.373 0.0494744 -1.79932 0
M  V30 7288 H 726.748 -0.250435 -0.709074 0
M  V30 7289 H 728.719 -1.75683 -2.41201 0
M  V30 7290 C 727.468 -0.324663 -3.46181 0
M  V30 7291 H 726.791 -1.10299 -3.84284 0
M  V30 7292 H 728.231 -0.142059 -4.23762 0
M  V30 7293 C 726.69 0.952033 -3.23169 0
M  V30 7294 O 727.22 2.02549 -3.46896 0
M  V30 7295 N 725.426 0.887854 -2.76705 0
M  V30 7296 H 724.973 0.0141402 -2.57596 0
M  V30 7297 H 724.931 1.74263 -2.61686 0
M  V30 7298 O 728.742 1.2085 -1.07133 0
M  V30 7299 H 729.433 1.78311 -0.756635 0
M  V30 END ATOM
M  V30 BEGIN BOND
M  V30 END BOND
M  V30 END CTAB
M  END
$$$$
